data_POSCAR
  _audit_creation_date              2014-09-24
  _audit_creation_method            'ToBaCCo'
  _symmetry_space_group_name_H-M    'P1'
  _symmetry_Int_Tables_number       1
  _symmetry_cell_setting            triclinic
  loop_
  _symmetry_equiv_pos_as_xyz
 x,y,z
_cell_length_a 80.7121
_cell_length_b 80.6765
_cell_length_c 80.6040
_cell_angle_alpha 90.002400
_cell_angle_beta 89.965500
_cell_angle_gamma 90.027300
loop_
  _atom_site_label
  _atom_site_type_symbol
  _atom_site_fract_x
  _atom_site_fract_y
  _atom_site_fract_z
N1 N 0.31255 0.43734 0.93700
 N2 N 0.43760 0.81363 0.43734
 N3 N 0.93515 0.93491 0.81437
 N4 N 0.43544 -0.06340 0.31386
 N5 N 0.81346 0.31406 0.31398
 N6 N -0.18577 0.81389 0.81349
 N7 N 0.93716 0.31274 0.43673
 N8 N 0.43549 0.43531 0.81378
 N9 N 0.81471 0.93604 0.93568
 N10 N 0.31290 0.81322 0.31289
 N11 N 0.81287 0.43779 0.43706
 N12 N 0.93666 0.81425 -0.06433
 N13 N 0.31369 0.31383 0.81410
 N14 N 0.18611 0.56397 0.56353
 N15 N 0.56529 0.68518 0.06468
 N16 N 0.68688 0.18691 0.68756
 N17 N 1.06175 0.06173 0.18778
 N18 N 0.06316 0.18752 1.06247
 N19 N 0.18761 0.68703 0.68732
 N20 N 1.18659 0.18695 0.18759
 N21 N 0.68750 1.06366 0.56288
 N22 N 0.56337 0.56428 0.18585
 N23 N 0.68574 0.68636 0.18610
 N24 N 0.18756 0.06304 1.06279
 N25 N 0.56301 0.18786 0.56270
 N26 N 0.06305 0.56288 0.68617
 N27 N 0.68566 0.56416 0.06387
 N28 N 0.06457 0.68581 0.56322
 N29 N 0.56189 1.06164 0.68816
 N30 N 0.43740 0.31277 0.93730
 N31 N 0.93543 0.43565 0.31317
 N32 N 0.31463 0.93651 0.43634
 O33 O 0.24885 0.54361 0.72840
 O34 O 0.27771 0.53764 0.73081
 O35 O 0.22864 0.50035 0.70567
 O36 O 0.22786 0.47298 0.71062
 O37 O 0.20552 0.52108 0.74913
 O38 O 0.21166 0.51993 0.77801
 O39 O 0.27092 0.45603 0.75083
 O40 O 0.26767 0.46073 0.72253
 O41 O 0.29278 0.49796 0.77149
 O42 O 0.28867 0.52641 0.76904
 O43 O 0.25059 0.47832 0.79337
 O44 O 0.22093 0.47927 0.78762
 O45 O 0.25102 0.45620 0.77088
 O46 O 0.22038 0.46242 0.76924
 O47 O 0.27056 0.49823 0.79349
 O48 O 0.26871 0.52880 0.78687
 O49 O 0.29257 0.47773 0.75181
 O50 O 0.28752 0.48298 0.72188
 O51 O 0.22918 0.54397 0.74870
 O52 O 0.23062 0.53776 0.77815
 O53 O 0.20524 0.50107 0.72923
 O54 O 0.21177 0.47110 0.73182
 O55 O 0.24816 0.52077 0.70569
 O56 O 0.27789 0.51513 0.71203
 Zr57 Zr 0.25869 0.51947 0.72956
 O58 O 0.27437 0.50497 0.74456
 Zr59 Zr 0.22917 0.49066 0.72993
 O60 O 0.24396 0.47471 0.74436
 Zr61 Zr 0.22966 0.51992 0.75895
 O62 O 0.24400 0.50506 0.77490
 Zr63 Zr 0.26917 0.47982 0.74049
 O64 O 0.25439 0.49424 0.72428
 Zr65 Zr 0.26921 0.50889 0.76972
 O66 O 0.25489 0.52510 0.75485
 Zr67 Zr 0.23998 0.47986 0.76959
 O68 O 0.22384 0.49475 0.75517
 O69 O 0.23358 0.51564 0.73389
 O70 O 0.26515 0.48375 0.76571
 C71 C 0.23750 0.55085 0.73695
 C72 C 0.23677 0.51214 0.69863
 C73 C 0.19833 0.51271 0.73764
 C74 C 0.26283 0.44921 0.76275
 C75 C 0.29953 0.48587 0.76360
 C76 C 0.26240 0.48640 0.80036
 H77 H 0.28608 0.50762 0.74201
 H78 H 0.24124 0.50776 0.78653
 H79 H 0.22650 0.52275 0.72683
 H80 H 0.24140 0.46306 0.74156
 H81 H 0.26432 0.46608 0.71199
 H82 H 0.23621 0.46438 0.71312
 H83 H 0.25958 0.52674 0.79481
 H84 H 0.24142 0.54349 0.77707
 H85 H 0.29511 0.47333 0.72236
 H86 H 0.27701 0.52330 0.70289
 H87 H 0.22156 0.48970 0.79404
 H88 H 0.20641 0.50884 0.77783
 H89 H 0.27708 0.54479 0.72082
 H90 H 0.28542 0.53484 0.76075
 H91 H 0.20530 0.47306 0.74207
 H92 H 0.22239 0.45466 0.75996
 O93 O 0.20507 0.02126 0.24960
 O94 O 0.21123 0.01692 0.27876
 O95 O 0.24816 0.04408 0.22981
 O96 O 0.27557 0.03927 0.22901
 O97 O 0.22778 0.00065 0.20625
 O98 O 0.22909 -0.02833 0.21242
 O99 O 0.29266 -0.00104 0.27189
 O100 O 0.28797 0.02720 0.26868
 O101 O 0.25055 -0.02144 0.29387
 O102 O 0.21961 -0.01916 0.28694
 O103 O 0.27041 -0.04353 0.25161
 O104 O 0.26940 -0.03777 0.22181
 O105 O 0.29251 -0.02104 0.25193
 O106 O 0.28633 -0.01951 0.22135
 O107 O 0.25052 -0.04366 0.27162
 O108 O 0.22117 -0.03846 0.27094
 O109 O 0.27099 -0.00201 0.29358
 O110 O 0.26558 0.02800 0.28833
 O111 O 0.20480 0.00097 0.22990
 O112 O 0.21095 -0.02835 0.23121
 O113 O 0.24766 0.02067 0.20615
 O114 O 0.27752 0.01820 0.21267
 O115 O 0.22778 0.04390 0.24942
 O116 O 0.23246 0.03779 0.27873
 Zr117 Zr 0.22912 0.01993 0.25965
 O118 O 0.24379 0.00517 0.27542
 Zr119 Zr 0.25799 0.01987 0.23014
 O120 O 0.27396 0.00544 0.24489
 Zr121 Zr 0.22886 -0.00924 0.23039
 O122 O 0.24363 -0.02512 0.24488
 Zr123 Zr 0.26887 0.00926 0.27014
 O124 O 0.25434 0.02536 0.25541
 Zr125 Zr 0.23977 -0.01997 0.27014
 O126 O 0.22362 -0.00530 0.25561
 Zr127 Zr 0.26883 -0.01978 0.24092
 O128 O 0.25403 -0.00535 0.22471
 O129 O 0.23303 0.01577 0.23447
 O130 O 0.26493 -0.01594 0.26614
 C131 C 0.19789 0.01271 0.23820
 C132 C 0.23639 0.05104 0.23804
 C133 C 0.23612 0.01222 0.19914
 C134 C 0.29949 -0.01292 0.26376
 C135 C 0.26272 -0.01367 0.30060
 C136 C 0.26237 -0.05050 0.26347
 H137 H 0.24127 0.00790 0.28711
 H138 H 0.24096 -0.03676 0.24215
 H139 H 0.22596 0.02287 0.22741
 H140 H 0.28560 0.00824 0.24232
 H141 H 0.28266 0.03770 0.26519
 H142 H 0.28437 0.03657 0.23709
 H143 H 0.22132 -0.04434 0.26018
 H144 H 0.20546 -0.02753 0.24217
 H145 H 0.27510 0.02748 0.29608
 H146 H 0.22324 0.04589 0.27830
 H147 H 0.25907 -0.04433 0.22258
 H148 H 0.24014 -0.02796 0.20710
 H149 H 0.20337 0.02636 0.27841
 H150 H 0.22187 -0.01030 0.29511
 H151 H 0.27572 0.00786 0.20629
 H152 H 0.29391 -0.01006 0.22321
 O153 O 0.47831 0.79451 0.25096
 O154 O 0.48277 0.78854 0.22175
 O155 O 0.45553 0.75129 0.27041
 O156 O 0.46037 0.72385 0.27104
 O157 O 0.49887 0.77158 0.29417
 O158 O 0.52785 0.77035 0.28805
 O159 O 0.50080 0.70704 0.22814
 O160 O 0.47255 0.71169 0.23131
 O161 O 0.52120 0.74934 0.20647
 O162 O 0.51884 0.78024 0.21358
 O163 O 0.54318 0.72923 0.24859
 O164 O 0.53735 0.73011 0.27843
 O165 O 0.52073 0.70710 0.24814
 O166 O 0.51915 0.71310 0.27874
 O167 O 0.54333 0.74927 0.22874
 O168 O 0.53809 0.77863 0.22962
 O169 O 0.50184 0.72883 0.20660
 O170 O 0.47179 0.73420 0.21180
 O171 O 0.49855 0.79469 0.27069
 O172 O 0.52789 0.78860 0.26936
 O173 O 0.47887 0.75168 0.29412
 O174 O 0.48140 0.72184 0.28742
 O175 O 0.45574 0.77177 0.25092
 O176 O 0.46193 0.76727 0.22159
 Zr177 Zr 0.47973 0.77052 0.24073
 O178 O 0.49454 0.75595 0.22490
 Zr179 Zr 0.47974 0.74147 0.27007
 O180 O 0.49423 0.72560 0.25524
 Zr181 Zr 0.50881 0.77065 0.27005
 O182 O 0.52474 0.75598 0.25550
 Zr183 Zr 0.49047 0.73082 0.23001
 O184 O 0.47432 0.74526 0.24481
 Zr185 Zr 0.51964 0.75999 0.23026
 O186 O 0.50492 0.77604 0.24486
 Zr187 Zr 0.51943 0.73073 0.25928
 O188 O 0.50493 0.74543 0.27556
 O189 O 0.48382 0.76646 0.26589
 O190 O 0.51564 0.73479 0.23409
 C191 C 0.48680 0.80163 0.26244
 C192 C 0.44858 0.76309 0.26224
 C193 C 0.48729 0.76320 0.30121
 C194 C 0.51266 0.70018 0.23625
 C195 C 0.51351 0.73717 0.19966
 C196 C 0.55015 0.73736 0.23679
 H197 H 0.49184 0.75853 0.21322
 H198 H 0.53636 0.75865 0.25827
 H199 H 0.47670 0.77348 0.27299
 H200 H 0.49144 0.71393 0.25773
 H201 H 0.46205 0.71698 0.23482
 H202 H 0.46311 0.71509 0.26291
 H203 H 0.54396 0.77841 0.24038
 H204 H 0.52706 0.79417 0.25845
 H205 H 0.47237 0.72472 0.20398
 H206 H 0.45383 0.77649 0.22206
 H207 H 0.54395 0.74041 0.27768
 H208 H 0.52750 0.75925 0.29327
 H209 H 0.47333 0.79639 0.22214
 H210 H 0.51002 0.77800 0.20536
 H211 H 0.49171 0.72362 0.29383
 H212 H 0.50968 0.70555 0.27684
 O213 O 0.00102 0.70572 0.72793
 O214 O -0.02810 0.71194 0.73210
 O215 O 0.02108 0.74876 0.70530
 O216 O 0.02190 0.77619 0.71015
 O217 O 0.04425 0.72826 0.74885
 O218 O 0.03792 0.72952 0.77781
 O219 O -0.02116 0.79334 0.75035
 O220 O -0.01775 0.78873 0.72209
 O221 O -0.04331 0.75124 0.77053
 O222 O -0.03653 0.72037 0.76836
 O223 O -0.00116 0.77101 0.79290
 O224 O 0.02863 0.76990 0.78727
 O225 O -0.00133 0.79312 0.77046
 O226 O 0.02923 0.78687 0.76902
 O227 O -0.02122 0.75120 0.79288
 O228 O -0.02049 0.72173 0.78759
 O229 O -0.04285 0.77172 0.75113
 O230 O -0.03742 0.76636 0.72109
 O231 O 0.02058 0.70534 0.74834
 O232 O 0.01907 0.71145 0.77771
 O233 O 0.04454 0.74818 0.72886
 O234 O 0.03809 0.77808 0.73135
 O235 O 0.00142 0.72845 0.70533
 O236 O -0.02789 0.73326 0.71130
 Zr237 Zr -0.00895 0.72980 0.72926
 O238 O -0.02473 0.74449 0.74400
 Zr239 Zr 0.02061 0.75859 0.72953
 O240 O 0.00583 0.77459 0.74393
 Zr241 Zr 0.02009 0.72939 0.75862
 O242 O 0.00559 0.74420 0.77447
 Zr243 Zr -0.01938 0.76957 0.73997
 O244 O -0.00461 0.75502 0.72390
 Zr245 Zr -0.01962 0.74042 0.76918
 O246 O -0.00509 0.72424 0.75453
 Zr247 Zr 0.00964 0.76941 0.76919
 O248 O 0.02587 0.75456 0.75480
 O249 O 0.01618 0.73363 0.73357
 O250 O -0.01553 0.76558 0.76521
 C251 C 0.01234 0.69848 0.73651
 C252 C 0.01287 0.73701 0.69827
 C253 C 0.05145 0.73659 0.73733
 C254 C -0.01311 0.80012 0.76231
 C255 C -0.04995 0.76344 0.76274
 C256 C -0.01309 0.76301 0.79979
 H257 H -0.03640 0.74201 0.74119
 H258 H 0.00824 0.74152 0.78613
 H259 H 0.02326 0.72654 0.72650
 H260 H 0.00844 0.78624 0.74116
 H261 H -0.01422 0.78343 0.71158
 H262 H 0.01384 0.78501 0.71283
 H263 H -0.00987 0.72201 0.79368
 H264 H 0.00812 0.70600 0.77680
 H265 H -0.04515 0.77590 0.72160
 H266 H -0.02743 0.72406 0.70315
 H267 H 0.02780 0.75957 0.79382
 H268 H 0.04325 0.74056 0.77752
 H269 H -0.02772 0.70412 0.72262
 H270 H -0.04444 0.72251 0.75925
 H271 H 0.04440 0.77624 0.74172
 H272 H 0.02740 0.79451 0.75960
 O273 O 0.00187 0.04444 0.02075
 O274 O -0.02705 0.03867 0.01836
 O275 O 0.02169 0.00097 0.04346
 O276 O 0.02237 -0.02637 0.03844
 O277 O 0.04494 0.02161 -0.00009
 O278 O 0.03875 0.02047 -0.02895
 O279 O -0.02093 -0.04302 -0.00167
 O280 O -0.01763 -0.03831 0.02664
 O281 O -0.04253 -0.00088 -0.02226
 O282 O -0.03817 0.02754 -0.01981
 O283 O -0.00062 -0.02090 -0.04421
 O284 O 0.02914 -0.02005 -0.03857
 O285 O -0.00103 -0.04298 -0.02172
 O286 O 0.02961 -0.03693 -0.02021
 O287 O -0.02040 -0.00083 -0.04428
 O288 O -0.01822 0.02976 -0.03770
 O289 O -0.04243 -0.02117 -0.00265
 O290 O -0.03732 -0.01594 0.02730
 O291 O 0.02146 0.04465 0.00037
 O292 O 0.01994 0.03844 -0.02906
 O293 O 0.04511 0.00163 0.01985
 O294 O 0.03836 -0.02832 0.01723
 O295 O 0.00235 0.02155 0.04347
 O296 O -0.02742 0.01617 0.03715
 Zr297 Zr -0.00819 0.02036 0.01960
 O298 O -0.02401 0.00597 0.00463
 Zr299 Zr 0.02111 -0.00865 0.01917
 O300 O 0.00616 -0.02449 0.00476
 Zr301 Zr 0.02079 0.02060 -0.00985
 O302 O 0.00629 0.00586 -0.02578
 Zr303 Zr -0.01901 -0.01922 0.00867
 O304 O -0.00408 -0.00491 0.02486
 Zr305 Zr -0.01887 0.00987 -0.02053
 O306 O -0.00439 0.02597 -0.00570
 Zr307 Zr 0.01013 -0.01937 -0.02048
 O308 O 0.02642 -0.00460 -0.00608
 O309 O 0.01689 0.01636 0.01522
 O310 O -0.01500 -0.01531 -0.01655
 C311 C 0.01324 0.05159 0.01215
 C312 C 0.01364 0.01279 0.05052
 C313 C 0.05209 0.01322 0.01141
 C314 C -0.01288 -0.04989 -0.01358
 C315 C -0.04935 -0.01295 -0.01441
 C316 C -0.01241 -0.01276 -0.05114
 H317 H -0.03569 0.00870 0.00720
 H318 H 0.00904 0.00853 -0.03742
 H319 H 0.02402 0.02341 0.02229
 H320 H 0.00865 -0.03616 0.00755
 H321 H -0.01422 -0.03298 0.03716
 H322 H 0.01387 -0.03485 0.03601
 H323 H -0.00919 0.02759 -0.04571
 H324 H 0.00918 0.04423 -0.02799
 H325 H -0.04498 -0.02554 0.02681
 H326 H -0.02647 0.02435 0.04628
 H327 H 0.02847 -0.00967 -0.04507
 H328 H 0.04388 0.00933 -0.02880
 H329 H -0.02634 0.04583 0.02835
 H330 H -0.03481 0.03597 -0.01156
 H331 H 0.04485 -0.02637 0.00699
 H332 H 0.02763 -0.04461 -0.01086
 O333 O -0.02094 0.45585 0.49798
 O334 O -0.01841 0.46160 0.52693
 O335 O -0.04373 0.49930 0.47825
 O336 O -0.03875 0.52664 0.47753
 O337 O -0.00039 0.47869 0.45476
 O338 O 0.02848 0.47988 0.46079
 O339 O 0.00152 0.54330 0.52073
 O340 O -0.02675 0.53860 0.51755
 O341 O 0.02220 0.50117 0.54223
 O342 O 0.01982 0.47278 0.53785
 O343 O 0.04390 0.52124 0.50007
 O344 O 0.03811 0.52047 0.47038
 O345 O 0.02143 0.54331 0.50068
 O346 O 0.01971 0.53726 0.46997
 O347 O 0.04411 0.50120 0.51992
 O348 O 0.03754 0.47060 0.51778
 O349 O 0.00258 0.52142 0.54225
 O350 O -0.02734 0.51619 0.53724
 O351 O -0.00068 0.45566 0.47826
 O352 O 0.02871 0.46191 0.47963
 O353 O -0.02031 0.49866 0.45469
 O354 O -0.01764 0.52863 0.46143
 O355 O -0.04364 0.47870 0.49759
 O356 O -0.03719 0.48408 0.52738
 Zr357 Zr -0.01975 0.47992 0.50805
 O358 O -0.00472 0.49432 0.52381
 Zr359 Zr -0.01949 0.50895 0.47871
 O360 O -0.00505 0.52480 0.49361
 Zr361 Zr 0.00951 0.47972 0.47888
 O362 O 0.02548 0.49449 0.49330
 Zr363 Zr -0.00881 0.51951 0.51883
 O364 O -0.02504 0.50519 0.50396
 Zr365 Zr 0.02039 0.49046 0.51853
 O366 O 0.00550 0.47435 0.50412
 Zr367 Zr 0.02013 0.51971 0.48949
 O368 O 0.00570 0.50492 0.47325
 O369 O -0.01551 0.48394 0.48292
 O370 O 0.01636 0.51564 0.51468
 C371 C -0.01241 0.44870 0.48655
 C372 C -0.05074 0.48745 0.48632
 C373 C -0.01193 0.48706 0.44766
 C374 C 0.01337 0.55020 0.51260
 C375 C 0.01436 0.51320 0.54912
 C376 C 0.05091 0.51312 0.51183
 H377 H -0.00723 0.49157 0.53552
 H378 H 0.03709 0.49183 0.49048
 H379 H -0.02260 0.47688 0.47582
 H380 H -0.00786 0.53647 0.49114
 H381 H -0.03728 0.53327 0.51417
 H382 H -0.03631 0.53512 0.48604
 H383 H 0.04549 0.47279 0.50869
 H384 H 0.02770 0.45611 0.49041
 H385 H -0.02683 0.52578 0.54492
 H386 H -0.04631 0.47590 0.52647
 H387 H 0.04452 0.51003 0.47090
 H388 H 0.02826 0.49100 0.45561
 H389 H -0.02839 0.45444 0.52627
 H390 H 0.01152 0.46438 0.53457
 H391 H -0.00747 0.52666 0.45484
 H392 H 0.01043 0.54499 0.47206
 O393 O 0.54478 0.02217 0.50043
 O394 O 0.53861 0.01791 0.47124
 O395 O 0.50175 0.04486 0.52035
 O396 O 0.47434 0.04005 0.52120
 O397 O 0.52209 0.00128 0.54368
 O398 O 0.52080 -0.02765 0.53733
 O399 O 0.45716 -0.00003 0.47810
 O400 O 0.46188 0.02819 0.48146
 O401 O 0.49920 -0.02034 0.45598
 O402 O 0.53018 -0.01806 0.46289
 O403 O 0.47940 -0.04265 0.49815
 O404 O 0.48042 -0.03702 0.52796
 O405 O 0.45731 -0.02016 0.49792
 O406 O 0.46351 -0.01876 0.52853
 O407 O 0.49928 -0.04268 0.47813
 O408 O 0.52858 -0.03750 0.47874
 O409 O 0.47880 -0.00089 0.45639
 O410 O 0.48427 0.02910 0.46180
 O411 O 0.54506 0.00179 0.52004
 O412 O 0.53892 -0.02754 0.51852
 O413 O 0.50225 0.02132 0.54392
 O414 O 0.47238 0.01888 0.53741
 O415 O 0.52209 0.04478 0.50070
 O416 O 0.51741 0.03880 0.47137
 Zr417 Zr 0.52074 0.02085 0.49038
 O418 O 0.50603 0.00618 0.47455
 Zr419 Zr 0.49190 0.02066 0.51993
 O420 O 0.47589 0.00630 0.50511
 Zr421 Zr 0.52101 -0.00845 0.51949
 O422 O 0.50620 -0.02426 0.50493
 Zr423 Zr 0.48096 0.01025 0.47988
 O424 O 0.49553 0.02627 0.49468
 Zr425 Zr 0.51003 -0.01899 0.47970
 O426 O 0.52622 -0.00440 0.49428
 Zr427 Zr 0.48100 -0.01894 0.50894
 O428 O 0.49585 -0.00460 0.52521
 O429 O 0.51685 0.01658 0.51554
 O430 O 0.48488 -0.01497 0.48374
 C431 C 0.55197 0.01359 0.51179
 C432 C 0.51349 0.05187 0.51211
 C433 C 0.51377 0.01281 0.55087
 C434 C 0.45034 -0.01196 0.48614
 C435 C 0.48704 -0.01253 0.44931
 C436 C 0.48744 -0.04956 0.48626
 H437 H 0.50854 0.00897 0.46287
 H438 H 0.50886 -0.03591 0.50760
 H439 H 0.52392 0.02364 0.52264
 H440 H 0.46426 0.00909 0.50771
 H441 H 0.46721 0.03867 0.48500
 H442 H 0.46554 0.03741 0.51309
 H443 H 0.52854 -0.04334 0.48953
 H444 H 0.54443 -0.02662 0.50758
 H445 H 0.47474 0.02861 0.45405
 H446 H 0.52665 0.04688 0.47183
 H447 H 0.49075 -0.04356 0.52717
 H448 H 0.50976 -0.02733 0.54266
 H449 H 0.54649 0.02734 0.47163
 H450 H 0.52786 -0.00923 0.45470
 H451 H 0.47417 0.00851 0.54372
 H452 H 0.45591 -0.00932 0.52670
 O453 O 0.49873 0.47879 -0.04448
 O454 O 0.52789 0.48319 -0.03844
 O455 O 0.47915 0.45595 -0.00133
 O456 O 0.47837 0.46075 0.02613
 O457 O 0.45555 0.49942 -0.02162
 O458 O 0.46171 0.52837 -0.02032
 O459 O 0.52127 0.50113 0.04317
 O460 O 0.51806 0.47288 0.03847
 O461 O 0.54309 0.52152 0.00091
 O462 O 0.53616 0.51943 -0.02993
 O463 O 0.50095 0.54355 0.02105
 O464 O 0.47114 0.53777 0.02003
 O465 O 0.50128 0.52106 0.04310
 O466 O 0.47074 0.51952 0.03699
 O467 O 0.52089 0.54371 0.00109
 O468 O 0.51997 0.53850 -0.02844
 O469 O 0.54287 0.50212 0.02139
 O470 O 0.53761 0.47209 0.01598
 O471 O 0.47908 0.49909 -0.04468
 O472 O 0.48046 0.52842 -0.03851
 O473 O 0.45549 0.47934 -0.00178
 O474 O 0.46208 0.48182 0.02813
 O475 O 0.49870 0.45617 -0.02177
 O476 O 0.52798 0.46233 -0.01717
 Zr477 Zr 0.50888 0.48015 -0.02045
 O478 O 0.52465 0.49493 -0.00579
 Zr479 Zr 0.47947 0.48016 0.00854
 O480 O 0.49425 0.49460 0.02451
 Zr481 Zr 0.47965 0.50930 -0.02060
 O482 O 0.49414 0.52519 -0.00582
 Zr483 Zr 0.51946 0.49082 0.01935
 O484 O 0.50471 0.47471 0.00481
 Zr485 Zr 0.51934 0.52007 -0.00977
 O486 O 0.50483 0.50538 -0.02592
 Zr487 Zr 0.49025 0.51981 0.01942
 O488 O 0.47403 0.50538 0.00461
 O489 O 0.48374 0.48428 -0.01645
 O490 O 0.51542 0.51601 0.01543
 C491 C 0.48732 0.48732 -0.05163
 C492 C 0.48736 0.44900 -0.01313
 C493 C 0.44847 0.48782 -0.01330
 C494 C 0.51314 0.51298 0.05004
 C495 C 0.54985 0.51377 0.01307
 C496 C 0.51280 0.55051 0.01301
 H497 H 0.53632 0.49221 -0.00834
 H498 H 0.49139 0.53683 -0.00846
 H499 H 0.47667 0.47718 -0.02352
 H500 H 0.49171 0.49178 0.03617
 H501 H 0.51456 0.46238 0.03316
 H502 H 0.48651 0.46342 0.03489
 H503 H 0.50934 0.54457 -0.02803
 H504 H 0.49139 0.52760 -0.04403
 H505 H 0.54539 0.47263 0.02549
 H506 H 0.52753 0.45423 -0.02641
 H507 H 0.47195 0.54442 0.00975
 H508 H 0.45646 0.52804 -0.00922
 H509 H 0.52751 0.47375 -0.04630
 H510 H 0.54411 0.51033 -0.02789
 H511 H 0.45568 0.49213 0.02634
 H512 H 0.47261 0.51004 0.04455
 O513 O 0.77162 0.29508 0.49998
 O514 O 0.76915 0.28934 0.52893
 O515 O 0.79437 0.25167 0.48014
 O516 O 0.78941 0.22431 0.47950
 O517 O 0.75094 0.27221 0.45681
 O518 O 0.72211 0.27107 0.46296
 O519 O 0.74930 0.20761 0.52276
 O520 O 0.77753 0.21238 0.51954
 O521 O 0.72854 0.24972 0.54435
 O522 O 0.73096 0.27813 0.54001
 O523 O 0.70677 0.22971 0.50229
 O524 O 0.71251 0.23043 0.47259
 O525 O 0.72929 0.20760 0.50283
 O526 O 0.73091 0.21365 0.47212
 O527 O 0.70660 0.24980 0.52209
 O528 O 0.71321 0.28036 0.51999
 O529 O 0.74818 0.22949 0.54431
 O530 O 0.77809 0.23477 0.53924
 O531 O 0.75134 0.29526 0.48030
 O532 O 0.72193 0.28902 0.48182
 O533 O 0.77087 0.25225 0.45668
 O534 O 0.76827 0.22230 0.46345
 O535 O 0.79431 0.27225 0.49951
 O536 O 0.78793 0.26686 0.52933
 Zr537 Zr 0.77045 0.27102 0.51005
 O538 O 0.75546 0.25662 0.52587
 Zr539 Zr 0.77013 0.24199 0.48071
 O540 O 0.75573 0.22614 0.49566
 Zr541 Zr 0.74113 0.27121 0.48098
 O542 O 0.72520 0.25643 0.49546
 Zr543 Zr 0.75954 0.23144 0.52087
 O544 O 0.77574 0.24576 0.50595
 Zr545 Zr 0.73034 0.26047 0.52067
 O546 O 0.74519 0.27659 0.50621
 Zr547 Zr 0.73053 0.23121 0.49164
 O548 O 0.74493 0.24600 0.47535
 O549 O 0.76615 0.26700 0.48493
 O550 O 0.73436 0.23529 0.51682
 C551 C 0.76308 0.30222 0.48856
 C552 C 0.80138 0.26352 0.48820
 C553 C 0.76246 0.26383 0.44968
 C554 C 0.73744 0.20070 0.51468
 C555 C 0.73640 0.23769 0.55121
 C556 C 0.69976 0.23789 0.51402
 H557 H 0.75799 0.25936 0.53757
 H558 H 0.71358 0.25910 0.49267
 H559 H 0.77322 0.27405 0.47780
 H560 H 0.75854 0.21447 0.49318
 H561 H 0.78804 0.21773 0.51613
 H562 H 0.78697 0.21583 0.48800
 H563 H 0.70529 0.27822 0.51088
 H564 H 0.72302 0.29486 0.49257
 H565 H 0.77759 0.22518 0.54692
 H566 H 0.79705 0.27504 0.52838
 H567 H 0.70613 0.24087 0.47311
 H568 H 0.72230 0.25994 0.45780
 H569 H 0.77913 0.29650 0.52825
 H570 H 0.73926 0.28653 0.53672
 H571 H 0.75806 0.22424 0.45691
 H572 H 0.74021 0.20594 0.47417
 O573 O 0.79486 0.75110 -0.02125
 O574 O 0.78887 0.72190 -0.01696
 O575 O 0.75177 0.77061 -0.04415
 O576 O 0.72433 0.77127 -0.03941
 O577 O 0.77189 0.79417 -0.00059
 O578 O 0.77046 0.78796 0.02841
 O579 O 0.70733 0.72818 0.00079
 O580 O 0.71210 0.73150 -0.02746
 O581 O 0.74946 0.70647 0.02128
 O582 O 0.78032 0.71354 0.01919
 O583 O 0.72925 0.74852 0.04341
 O584 O 0.73013 0.77830 0.03772
 O585 O 0.70727 0.74808 0.02084
 O586 O 0.71329 0.77871 0.01935
 O587 O 0.74923 0.72864 0.04356
 O588 O 0.77867 0.72959 0.03843
 O589 O 0.72910 0.70667 0.00177
 O590 O 0.73461 0.71202 -0.02825
 O591 O 0.79495 0.77072 -0.00088
 O592 O 0.78869 0.76927 0.02847
 O593 O 0.75210 0.79420 -0.02070
 O594 O 0.72223 0.78752 -0.01827
 O595 O 0.77225 0.75115 -0.04396
 O596 O 0.76771 0.72182 -0.03790
 Zr597 Zr 0.77088 0.74087 -0.01999
 O598 O 0.75623 0.72500 -0.00529
 Zr599 Zr 0.74185 0.77019 -0.01996
 O600 O 0.72589 0.75530 -0.00560
 Zr601 Zr 0.77086 0.77004 0.00928
 O602 O 0.75609 0.75545 0.02509
 Zr603 Zr 0.73114 0.73012 -0.00946
 O604 O 0.74566 0.74497 -0.02549
 Zr605 Zr 0.76011 0.73026 0.01990
 O606 O 0.77625 0.74489 0.00529
 Zr607 Zr 0.73089 0.75925 0.01967
 O608 O 0.74568 0.77558 0.00531
 O609 O 0.76680 0.76599 -0.01578
 O610 O 0.73495 0.73410 0.01578
 C611 C 0.80194 0.76253 -0.01267
 C612 C 0.76361 0.76248 -0.05110
 C613 C 0.76360 0.80124 -0.01221
 C614 C 0.70041 0.73621 0.01268
 C615 C 0.73736 0.69969 0.01346
 C616 C 0.73731 0.73669 0.05038
 H617 H 0.75882 0.71334 -0.00804
 H618 H 0.75869 0.75818 0.03676
 H619 H 0.77387 0.77310 -0.02285
 H620 H 0.71424 0.75781 -0.00844
 H621 H 0.71743 0.73505 -0.03795
 H622 H 0.71558 0.76311 -0.03677
 H623 H 0.77833 0.74027 0.04443
 H624 H 0.79425 0.75837 0.02761
 H625 H 0.72513 0.70420 -0.02777
 H626 H 0.77696 0.72233 -0.04599
 H627 H 0.74045 0.77762 0.04428
 H628 H 0.75939 0.79322 0.02800
 H629 H 0.79676 0.72233 -0.02638
 H630 H 0.77822 0.70548 0.01018
 H631 H 0.72400 0.79391 -0.00794
 H632 H 0.70573 0.77678 0.00989
 O633 O 1.00019 0.20532 0.22803
 O634 O 0.97103 0.21124 0.23229
 O635 O 1.01966 0.24862 0.20527
 O636 O 1.02032 0.27602 0.21013
 O637 O 1.04328 0.22831 0.24871
 O638 O 1.03710 0.22953 0.27769
 O639 O 0.97725 0.29275 0.25041
 O640 O 0.98049 0.28808 0.22216
 O641 O 0.95561 0.25043 0.27084
 O642 O 0.96255 0.21973 0.26876
 O643 O 0.99767 0.27064 0.29296
 O644 O 1.02736 0.26992 0.28723
 O645 O 0.99714 0.29276 0.27045
 O646 O 1.02779 0.28677 0.26887
 O647 O 0.97783 0.25061 0.29306
 O648 O 0.97893 0.22103 0.28765
 O649 O 0.95576 0.27091 0.25143
 O650 O 0.96104 0.26553 0.22137
 O651 O 1.01982 0.20516 0.24836
 O652 O 1.01841 0.21132 0.27773
 O653 O 1.04327 0.24823 0.22871
 O654 O 1.03651 0.27808 0.23125
 O655 O 1.00026 0.22806 0.20539
 O656 O 0.97092 0.23257 0.21150
 Zr657 Zr 0.98998 0.22930 0.22937
 O658 O 0.97412 0.24382 0.24418
 Zr659 Zr 1.01924 0.25840 0.22951
 O660 O 1.00435 0.27426 0.24395
 Zr661 Zr 1.01916 0.22922 0.25860
 O662 O 1.00459 0.24391 0.27451
 Zr663 Zr 0.97918 0.26896 0.24012
 O664 O 0.99404 0.25457 0.22398
 Zr665 Zr 0.97940 0.23984 0.26935
 O666 O 0.99401 0.22381 0.25462
 Zr667 Zr 1.00834 0.26916 0.26918
 O668 O 1.02466 0.25445 0.25475
 O669 O 1.01509 0.23339 0.23356
 O670 O 0.98319 0.26505 0.26534
 C671 C 1.01159 0.19819 0.23659
 C672 C 1.01156 0.23678 0.19827
 C673 C 1.05034 0.23671 0.23714
 C674 C 0.98529 0.29965 0.26230
 C675 C 0.94881 0.26257 0.26309
 C676 C 0.98588 0.26250 0.29992
 H677 H 0.96246 0.24123 0.24144
 H678 H 1.00734 0.24126 0.28615
 H679 H 1.02220 0.22637 0.22646
 H680 H 1.00683 0.28593 0.24114
 H681 H 0.98402 0.28279 0.21165
 H682 H 1.01207 0.28469 0.21275
 H683 H 0.98945 0.22165 0.29390
 H684 H 1.00751 0.20575 0.27689
 H685 H 0.95322 0.27499 0.22191
 H686 H 0.97145 0.22339 0.20334
 H687 H 1.02680 0.25951 0.29367
 H688 H 1.04232 0.24064 0.27736
 H689 H 0.97145 0.20344 0.22279
 H690 H 0.95480 0.22161 0.25945
 H691 H 1.04294 0.27627 0.24155
 H692 H 1.02580 0.29442 0.25949
 O693 O 0.74879 1.04375 0.72841
 O694 O 0.77792 1.03756 0.73259
 O695 O 0.72888 1.00068 0.70568
 O696 O 0.72804 0.97326 0.71050
 O697 O 0.70557 1.02108 0.74929
 O698 O 0.71187 1.01979 0.77824
 O699 O 0.77106 0.95610 0.75064
 O700 O 0.76773 0.96080 0.72239
 O701 O 0.79313 0.99820 0.77095
 O702 O 0.78629 1.02911 0.76875
 O703 O 0.75102 0.97834 0.79325
 O704 O 0.72123 0.97941 0.78764
 O705 O 0.75122 0.95627 0.77075
 O706 O 0.72066 0.96248 0.76936
 O707 O 0.77102 0.99822 0.79327
 O708 O 0.77028 1.02766 0.78804
 O709 O 0.79273 0.97774 0.75152
 O710 O 0.78738 0.98319 0.72149
 O711 O 0.72921 1.04404 0.74882
 O712 O 0.73067 1.03789 0.77817
 O713 O 0.70534 1.00121 0.72924
 O714 O 0.71184 0.97132 0.73168
 O715 O 0.74848 1.02104 0.70576
 O716 O 0.77778 1.01631 0.71173
 Zr717 Zr 0.75880 1.01969 0.72970
 O718 O 0.77460 1.00499 0.74440
 Zr719 Zr 0.72929 0.99084 0.72991
 O720 O 0.74408 0.97484 0.74428
 Zr721 Zr 0.72972 1.01998 0.75904
 O722 O 0.74423 1.00517 0.77487
 Zr723 Zr 0.76929 0.97990 0.74033
 O724 O 0.75451 0.99446 0.72429
 Zr725 Zr 0.76944 1.00901 0.76959
 O726 O 0.75490 1.02519 0.75497
 Zr727 Zr 0.74023 0.97996 0.76954
 O728 O 0.72400 0.99481 0.75518
 O729 O 0.73368 1.01580 0.73399
 O730 O 0.76540 0.98385 0.76557
 C731 C 0.73745 1.05095 0.73701
 C732 C 0.73708 1.01245 0.69867
 C733 C 0.69840 1.01276 0.73775
 C734 C 0.76300 0.94928 0.76258
 C735 C 0.79980 0.98601 0.76316
 C736 C 0.76292 0.98636 0.80015
 H737 H 0.78627 1.00749 0.74161
 H738 H 0.74156 1.00784 0.78653
 H739 H 0.72659 1.02289 0.72692
 H740 H 0.74149 0.96319 0.74148
 H741 H 0.76421 0.96612 0.71189
 H742 H 0.73615 0.96447 0.71313
 H743 H 0.75962 1.02740 0.79409
 H744 H 0.74162 1.04337 0.77728
 H745 H 0.79512 0.97366 0.72198
 H746 H 0.77732 1.02553 0.70361
 H747 H 0.72205 0.98973 0.79422
 H748 H 0.70656 1.00872 0.77793
 H749 H 0.77754 1.04541 0.72314
 H750 H 0.79432 1.02692 0.75974
 H751 H 0.70552 0.97313 0.74205
 H752 H 0.72249 0.95488 0.75990
 O753 O 0.74804 0.54407 0.22874
 O754 O 0.77723 0.53815 0.23304
 O755 O 0.72864 0.50082 0.20590
 O756 O 0.72799 0.47339 0.21070
 O757 O 0.70499 0.52104 0.24938
 O758 O 0.71115 0.51966 0.27839
 O759 O 0.77105 0.45660 0.25091
 O760 O 0.76778 0.46132 0.22267
 O761 O 0.79267 0.49886 0.27137
 O762 O 0.78553 0.52973 0.26918
 O763 O 0.75063 0.47862 0.29352
 O764 O 0.72093 0.47933 0.28784
 O765 O 0.75115 0.45654 0.27097
 O766 O 0.72051 0.46251 0.26945
 O767 O 0.77046 0.49867 0.29365
 O768 O 0.76952 0.52806 0.28846
 O769 O 0.79253 0.47845 0.25190
 O770 O 0.78721 0.48388 0.22186
 O771 O 0.72841 0.54416 0.24910
 O772 O 0.72980 0.53795 0.27845
 O773 O 0.70503 0.50117 0.22932
 O774 O 0.71175 0.47131 0.23184
 O775 O 0.74803 0.52139 0.20607
 O776 O 0.77735 0.51693 0.21213
 Zr777 Zr 0.75829 0.52010 0.23004
 O778 O 0.77417 0.50553 0.24478
 Zr779 Zr 0.72904 0.49097 0.23012
 O780 O 0.74393 0.47509 0.24451
 Zr781 Zr 0.72909 0.52008 0.25929
 O782 O 0.74369 0.50538 0.27513
 Zr783 Zr 0.76910 0.48040 0.24065
 O784 O 0.75424 0.49484 0.22458
 Zr785 Zr 0.76888 0.50946 0.26996
 O786 O 0.75424 0.52553 0.25531
 Zr787 Zr 0.73995 0.48014 0.26976
 O788 O 0.72362 0.49486 0.25537
 O789 O 0.73319 0.51597 0.23424
 O790 O 0.76509 0.48426 0.26589
 C791 C 0.73661 0.55115 0.23732
 C792 C 0.73673 0.51269 0.19894
 C793 C 0.69796 0.51270 0.23776
 C794 C 0.76301 0.44968 0.26280
 C795 C 0.79948 0.48675 0.26357
 C796 C 0.76241 0.48675 0.30049
 H797 H 0.78582 0.50814 0.24203
 H798 H 0.74095 0.50801 0.28679
 H799 H 0.72608 0.52300 0.22715
 H800 H 0.74145 0.46343 0.24169
 H801 H 0.76423 0.46662 0.21218
 H802 H 0.73619 0.46468 0.21334
 H803 H 0.75881 0.52776 0.29440
 H804 H 0.74069 0.54355 0.27760
 H805 H 0.79504 0.47442 0.22237
 H806 H 0.77684 0.52616 0.20403
 H807 H 0.72148 0.48975 0.29428
 H808 H 0.70589 0.50858 0.27797
 H809 H 0.77680 0.54601 0.22360
 H810 H 0.79365 0.52759 0.26024
 H811 H 0.70533 0.47310 0.24215
 H812 H 0.72248 0.45490 0.26003
 O813 O 0.50044 0.20520 0.72867
 O814 O 0.47130 0.21137 0.73288
 O815 O 0.52035 0.24835 0.70604
 O816 O 0.52123 0.27575 0.71094
 O817 O 0.54363 0.22780 0.74957
 O818 O 0.53731 0.22906 0.77854
 O819 O 0.47814 0.29280 0.75110
 O820 O 0.48151 0.28816 0.72284
 O821 O 0.45604 0.25067 0.77132
 O822 O 0.46287 0.21977 0.76908
 O823 O 0.49818 0.27044 0.79368
 O824 O 0.52792 0.26944 0.78806
 O825 O 0.49796 0.29259 0.77121
 O826 O 0.52854 0.28637 0.76977
 O827 O 0.47816 0.25059 0.79367
 O828 O 0.47887 0.22117 0.78835
 O829 O 0.45646 0.27114 0.75191
 O830 O 0.46187 0.26578 0.72188
 O831 O 0.51999 0.20485 0.74908
 O832 O 0.51851 0.21096 0.77844
 O833 O 0.54387 0.24773 0.72958
 O834 O 0.53738 0.27762 0.73213
 O835 O 0.50076 0.22797 0.70606
 O836 O 0.47145 0.23267 0.71207
 Zr837 Zr 0.49042 0.22926 0.73002
 O838 O 0.47461 0.24393 0.74476
 Zr839 Zr 0.51993 0.25811 0.73030
 O840 O 0.50512 0.27408 0.74470
 Zr841 Zr 0.51947 0.22890 0.75936
 O842 O 0.50494 0.24368 0.77522
 Zr843 Zr 0.47993 0.26902 0.74074
 O844 O 0.49472 0.25450 0.72467
 Zr845 Zr 0.47974 0.23986 0.76994
 O846 O 0.49430 0.22371 0.75528
 Zr847 Zr 0.50895 0.26890 0.76995
 O848 O 0.52520 0.25408 0.75555
 O849 O 0.51554 0.23314 0.73431
 O850 O 0.48378 0.26503 0.76598
 C851 C 0.51176 0.19797 0.73726
 C852 C 0.51215 0.23661 0.69900
 C853 C 0.55080 0.23615 0.73804
 C854 C 0.48619 0.29960 0.76304
 C855 C 0.44938 0.26286 0.76353
 C856 C 0.48629 0.26240 0.80058
 H857 H 0.46294 0.24143 0.74196
 H858 H 0.50761 0.24099 0.78687
 H859 H 0.52263 0.22607 0.72722
 H860 H 0.50772 0.28573 0.74193
 H861 H 0.48504 0.28286 0.71234
 H862 H 0.51309 0.28451 0.71358
 H863 H 0.48953 0.22140 0.79438
 H864 H 0.50756 0.20548 0.77755
 H865 H 0.45413 0.27531 0.72239
 H866 H 0.47192 0.22347 0.70393
 H867 H 0.52718 0.25906 0.79453
 H868 H 0.54265 0.24010 0.77823
 H869 H 0.47169 0.20354 0.72341
 H870 H 0.45489 0.22196 0.76004
 H871 H 0.54372 0.27577 0.74247
 H872 H 0.52669 0.29402 0.76037
 O873 O 0.29506 0.75130 0.47934
 O874 O 0.28932 0.72237 0.48184
 O875 O 0.25181 0.77103 0.45626
 O876 O 0.22444 0.77171 0.46106
 O877 O 0.27209 0.79443 0.49985
 O878 O 0.27073 0.78833 0.52874
 O879 O 0.20750 0.72850 0.50120
 O880 O 0.21242 0.73174 0.47293
 O881 O 0.24940 0.70700 0.52223
 O882 O 0.27782 0.71132 0.51998
 O883 O 0.22930 0.74907 0.54387
 O884 O 0.23008 0.77875 0.53807
 O885 O 0.20736 0.74845 0.52121
 O886 O 0.21340 0.77915 0.51956
 O887 O 0.24935 0.72927 0.54418
 O888 O 0.27994 0.73136 0.53777
 O889 O 0.22933 0.70702 0.50241
 O890 O 0.23480 0.71205 0.47250
 O891 O 0.29511 0.77097 0.49964
 O892 O 0.28869 0.76951 0.52904
 O893 O 0.25227 0.79453 0.47977
 O894 O 0.22231 0.78778 0.48221
 O895 O 0.27237 0.75168 0.45648
 O896 O 0.26697 0.72191 0.46288
 Zr897 Zr 0.27100 0.74121 0.48038
 O898 O 0.25650 0.72543 0.49530
 Zr899 Zr 0.24199 0.77052 0.48048
 O900 O 0.22604 0.75561 0.49481
 Zr901 Zr 0.27101 0.77030 0.50971
 O902 O 0.25613 0.75586 0.52558
 Zr903 Zr 0.23136 0.73042 0.49105
 O904 O 0.24579 0.74530 0.47491
 Zr905 Zr 0.26018 0.73066 0.52048
 O906 O 0.27640 0.74509 0.50571
 Zr907 Zr 0.23096 0.75967 0.52007
 O908 O 0.24584 0.77592 0.50573
 O909 O 0.26696 0.76631 0.48463
 O910 O 0.23505 0.73451 0.51629
 C911 C 0.30214 0.76272 0.48793
 C912 C 0.26369 0.76297 0.44932
 C913 C 0.26380 0.80154 0.48825
 C914 C 0.20053 0.73657 0.51305
 C915 C 0.23742 0.70015 0.51429
 C916 C 0.23741 0.73735 0.55094
 H917 H 0.25925 0.71374 0.49280
 H918 H 0.25872 0.75866 0.53723
 H919 H 0.27406 0.77342 0.47758
 H920 H 0.21440 0.75808 0.49193
 H921 H 0.21783 0.73512 0.46243
 H922 H 0.21593 0.76323 0.46347
 H923 H 0.27776 0.74048 0.54567
 H924 H 0.29451 0.75876 0.52802
 H925 H 0.22520 0.70438 0.47293
 H926 H 0.27522 0.72284 0.45381
 H927 H 0.24046 0.77822 0.54456
 H928 H 0.25961 0.79351 0.52845
 H929 H 0.29654 0.72304 0.47190
 H930 H 0.28629 0.71462 0.51174
 H931 H 0.22418 0.79431 0.49244
 H932 H 0.20574 0.77707 0.51021
 O933 O 0.27197 0.29437 0.99992
 O934 O 0.26766 0.28836 1.02914
 O935 O 0.29479 0.25119 0.98038
 O936 O 0.29000 0.22376 0.97969
 O937 O 0.25136 0.27142 0.95677
 O938 O 0.22238 0.27004 0.96299
 O939 O 0.24983 0.20680 1.02275
 O940 O 0.27803 0.21156 1.01948
 O941 O 0.22940 0.24902 1.04456
 O942 O 0.23166 0.27995 1.03742
 O943 O 0.20726 0.22891 1.00244
 O944 O 0.21297 0.22974 0.97266
 O945 O 0.22980 0.20681 1.00283
 O946 O 0.23126 0.21287 0.97221
 O947 O 0.20714 0.24892 1.02232
 O948 O 0.21230 0.27823 1.02153
 O949 O 0.24884 0.22860 1.04434
 O950 O 0.27882 0.23405 1.03900
 O951 O 0.25165 0.29450 0.98027
 O952 O 0.22235 0.28830 0.98168
 O953 O 0.27139 0.25157 0.95675
 O954 O 0.26891 0.22171 0.96342
 O955 O 0.29462 0.27169 0.99985
 O956 O 0.28855 0.26717 1.02920
 Zr957 Zr 0.27067 0.27037 1.01013
 O958 O 0.25596 0.25574 1.02601
 Zr959 Zr 0.27061 0.24133 0.98078
 O960 O 0.25621 0.22540 0.99566
 Zr961 Zr 0.24148 0.27042 0.98092
 O962 O 0.22564 0.25569 0.99553
 Zr963 Zr 0.26006 0.23062 1.02087
 O964 O 0.27612 0.24513 1.00602
 Zr965 Zr 0.23082 0.25968 1.02076
 O966 O 0.24544 0.27580 1.00611
 Zr967 Zr 0.23099 0.23046 0.99171
 O968 O 0.24538 0.24522 0.97538
 O969 O 0.26649 0.26631 0.98499
 O970 O 0.23486 0.23450 1.01690
 C971 C 0.26341 0.30148 0.98850
 C972 C 0.30175 0.26302 0.98852
 C973 C 0.26294 0.26309 0.94969
 C974 C 0.23796 0.19990 1.01467
 C975 C 0.23719 0.23690 1.05134
 C976 C 0.20030 0.23703 1.01424
 H977 H 0.25870 0.25832 1.03768
 H978 H 0.21401 0.25833 0.99281
 H979 H 0.27357 0.27337 0.97787
 H980 H 0.25903 0.21375 0.99313
 H981 H 0.28850 0.21688 1.01593
 H982 H 0.28733 0.21500 0.98784
 H983 H 0.20648 0.27810 1.01074
 H984 H 0.22320 0.29387 0.99259
 H985 H 0.27832 0.22457 1.04681
 H986 H 0.29663 0.27642 1.02870
 H987 H 0.20648 0.24011 0.97331
 H988 H 0.22279 0.25898 0.95770
 H989 H 0.27708 0.29625 1.02872
 H990 H 0.24048 0.27772 1.04564
 H991 H 0.25859 0.22349 0.95703
 H992 H 0.24072 0.20532 0.97409
 N993 N 0.30249 0.34681 0.78498
 C994 C 0.29391 0.35733 0.79488
 N995 N 0.29165 0.35336 0.81106
 N996 N 0.29783 0.33932 0.81717
 C997 C 0.30651 0.32875 0.80733
 N998 N 0.30867 0.33277 0.79109
 C999 C 0.28781 0.37277 0.78851
 C1000 C 0.28290 0.38592 0.78341
 C1001 C 0.27729 0.40178 0.77764
 N1002 N 0.26457 0.40959 0.78535
 N1003 N 0.25981 0.42462 0.78045
 C1004 C 0.26761 0.43235 0.76766
 N1005 N 0.28031 0.42445 0.75993
 N1006 N 0.28507 0.40942 0.76484
 N1007 N 0.29144 -0.14688 0.31061
 C1008 C 0.29339 -0.14284 0.29441
 N1009 N 0.30157 -0.15343 0.28424
 N1010 N 0.30766 -0.16762 0.29012
 C1011 C 0.30580 -0.17171 0.30638
 N1012 N 0.29752 -0.16106 0.31649
 C1013 C 0.28737 -0.12727 0.28827
 C1014 C 0.28250 -0.11403 0.28337
 C1015 C 0.27692 -0.09808 0.27783
 N1016 N 0.28470 -0.09026 0.26513
 N1017 N 0.27993 -0.07517 0.26040
 C1018 C 0.26722 -0.06739 0.26823
 N1019 N 0.25942 -0.07528 0.28092
 N1020 N 0.26420 -0.09036 0.28564
 N1021 N 0.80285 0.84692 0.78451
 C1022 C 0.79423 0.85736 0.79447
 N1023 N 0.79201 0.85333 0.81063
 N1024 N 0.79825 0.83929 0.81668
 C1025 C 0.80697 0.82879 0.80679
 N1026 N 0.80909 0.83288 0.79056
 C1027 C 0.78807 0.87281 0.78816
 C1028 C 0.78312 0.88596 0.78310
 C1029 C 0.77749 0.90182 0.77736
 N1030 N 0.76481 0.90964 0.78514
 N1031 N 0.76003 0.92467 0.78026
 C1032 C 0.76778 0.93241 0.76745
 N1033 N 0.78044 0.92451 0.75966
 N1034 N 0.78522 0.90947 0.76453
 N1035 N 0.44722 0.90425 0.28425
 C1036 C 0.45585 0.89366 0.29403
 N1037 N 0.45794 0.89738 0.31029
 N1038 N 0.45156 0.91124 0.31660
 C1039 C 0.44284 0.92189 0.30688
 N1040 N 0.44085 0.91812 0.29055
 C1041 C 0.46210 0.87836 0.28748
 C1042 C 0.46712 0.86527 0.28230
 C1043 C 0.47279 0.84943 0.27653
 N1044 N 0.48563 0.84175 0.28416
 N1045 N 0.49031 0.82664 0.27944
 C1046 C 0.48230 0.81868 0.26694
 N1047 N 0.46949 0.82645 0.25927
 N1048 N 0.46481 0.84157 0.26400
 N1049 N -0.05335 0.90218 0.78506
 C1050 C -0.04473 0.89166 0.79492
 N1051 N -0.04256 0.89554 0.81113
 N1052 N -0.04885 0.90949 0.81732
 C1053 C -0.05757 0.92007 0.80753
 N1054 N -0.05964 0.91615 0.79125
 C1055 C -0.03850 0.87631 0.78846
 C1056 C -0.03347 0.86323 0.78328
 C1057 C -0.02776 0.84744 0.77740
 N1058 N -0.01505 0.83962 0.78512
 N1059 N -0.01021 0.82464 0.78014
 C1060 C -0.01792 0.81696 0.76728
 N1061 N -0.03061 0.82487 0.75954
 N1062 N -0.03545 0.83985 0.76453
 N1063 N -0.05186 -0.15275 -0.03532
 C1064 C -0.04383 -0.14198 -0.04542
 N1065 N -0.04201 -0.14578 -0.06170
 N1066 N -0.04809 -0.15991 -0.06771
 C1067 C -0.05623 -0.17074 -0.05768
 N1068 N -0.05794 -0.16688 -0.04134
 C1069 C -0.03782 -0.12646 -0.03912
 C1070 C -0.03297 -0.11326 -0.03406
 C1071 C -0.02740 -0.09736 -0.02835
 N1072 N -0.01465 -0.08958 -0.03606
 N1073 N -0.00989 -0.07453 -0.03120
 C1074 C -0.01771 -0.06675 -0.01847
 N1075 N -0.03045 -0.07461 -0.01074
 N1076 N -0.03522 -0.08967 -0.01561
 N1077 N -0.04081 0.35230 0.43957
 C1078 C -0.04254 0.35605 0.45587
 N1079 N -0.05073 0.34535 0.46592
 N1080 N -0.05705 0.33135 0.45983
 C1081 C -0.05543 0.32756 0.44347
 N1082 N -0.04712 0.33831 0.43349
 C1083 C -0.03641 0.37150 0.46220
 C1084 C -0.03153 0.38470 0.46722
 C1085 C -0.02603 0.40066 0.47282
 N1086 N -0.03410 0.40856 0.48529
 N1087 N -0.02956 0.42376 0.48988
 C1088 C -0.01680 0.43159 0.48216
 N1089 N -0.00870 0.42360 0.46973
 N1090 N -0.01324 0.40840 0.46514
 N1091 N 0.45881 -0.14630 0.43937
 C1092 C 0.45679 -0.14215 0.45554
 N1093 N 0.44866 -0.15272 0.46577
 N1094 N 0.44267 -0.16699 0.45998
 C1095 C 0.44458 -0.17119 0.44376
 N1096 N 0.45282 -0.16056 0.43359
 C1097 C 0.46272 -0.12650 0.46158
 C1098 C 0.46752 -0.11320 0.46642
 C1099 C 0.47301 -0.09720 0.47191
 N1100 N 0.46522 -0.08942 0.48462
 N1101 N 0.46995 -0.07430 0.48933
 C1102 C 0.48262 -0.06646 0.48147
 N1103 N 0.49042 -0.07431 0.46877
 N1104 N 0.48569 -0.08942 0.46407
 N1105 N 0.45929 0.35242 -0.05993
 C1106 C 0.45754 0.35619 -0.04364
 N1107 N 0.44938 0.34548 -0.03357
 N1108 N 0.44312 0.33144 -0.03963
 C1109 C 0.44477 0.32763 -0.05599
 N1110 N 0.45303 0.33839 -0.06599
 C1111 C 0.46361 0.37167 -0.03733
 C1112 C 0.46846 0.38490 -0.03234
 C1113 C 0.47392 0.40089 -0.02678
 N1114 N 0.46616 0.40858 -0.01400
 N1115 N 0.47065 0.42381 -0.00943
 C1116 C 0.48304 0.43186 -0.01751
 N1117 N 0.49084 0.42408 -0.03025
 N1118 N 0.48635 0.40886 -0.03481
 N1119 N 0.80996 0.39864 0.45983
 C1120 C 0.79377 0.39467 0.45782
 N1121 N 0.78381 0.40508 0.44917
 N1122 N 0.78988 0.41901 0.44269
 C1123 C 0.80613 0.42303 0.44460
 N1124 N 0.81603 0.41257 0.45335
 C1125 C 0.78747 0.37927 0.46412
 C1126 C 0.78248 0.36612 0.46915
 C1127 C 0.77688 0.35020 0.47477
 N1128 N 0.76408 0.34249 0.46708
 N1129 N 0.75947 0.32731 0.47170
 C1130 C 0.76751 0.31932 0.48415
 N1131 N 0.78027 0.32712 0.49189
 N1132 N 0.78488 0.34230 0.48727
 N1133 N 0.81141 0.89697 -0.04146
 C1134 C 0.79513 0.89328 -0.04325
 N1135 N 0.78525 0.90385 -0.05178
 N1136 N 0.79148 0.91767 -0.05836
 C1137 C 0.80782 0.92140 -0.05668
 N1138 N 0.81764 0.91078 -0.04804
 C1139 C 0.78865 0.87801 -0.03684
 C1140 C 0.78349 0.86494 -0.03175
 C1141 C 0.77771 0.84911 -0.02606
 N1142 N 0.76507 0.84135 -0.03395
 N1143 N 0.76033 0.82622 -0.02931
 C1144 C 0.76809 0.81833 -0.01661
 N1145 N 0.78069 0.82619 -0.00867
 N1146 N 0.78542 0.84132 -0.01332
 N1147 N 0.79095 0.31103 0.35330
 C1148 C 0.79289 0.29479 0.35715
 N1149 N 0.80141 0.28485 0.34661
 N1150 N 0.80783 0.29097 0.33266
 C1151 C 0.80599 0.30727 0.32877
 N1152 N 0.79738 0.31715 0.33937
 C1153 C 0.78663 0.28843 0.37255
 C1154 C 0.78165 0.28337 0.38571
 C1155 C 0.77607 0.27771 0.40164
 N1156 N 0.78393 0.26503 0.40938
 N1157 N 0.77936 0.26039 0.42457
 C1158 C 0.76680 0.26827 0.43254
 N1159 N 0.75890 0.28090 0.42471
 N1160 N 0.76347 0.28555 0.40952
 N1161 N 0.81097 0.79147 -0.14716
 C1162 C 0.79471 0.79337 -0.14343
 N1163 N 0.78483 0.80184 -0.15405
 N1164 N 0.79103 0.80825 -0.16797
 C1165 C 0.80736 0.80645 -0.17174
 N1166 N 0.81718 0.79788 -0.16107
 C1167 C 0.78826 0.78710 -0.12807
 C1168 C 0.78316 0.78207 -0.11494
 C1169 C 0.77749 0.77640 -0.09905
 N1170 N 0.76463 0.78401 -0.09137
 N1171 N 0.75998 0.77935 -0.07621
 C1172 C 0.76805 0.76693 -0.06821
 N1173 N 0.78087 0.75927 -0.07598
 N1174 N 0.78552 0.76393 -0.09114
 N1175 N 0.30111 0.46572 0.90346
 C1176 C 0.29285 0.45550 0.89298
 N1177 N 0.29087 0.43935 0.89717
 N1178 N 0.29701 0.43358 0.91138
 C1179 C 0.30537 0.44374 0.92191
 N1180 N 0.30725 0.45995 0.91768
 C1181 C 0.28682 0.46152 0.87736
 C1182 C 0.28200 0.46638 0.86407
 C1183 C 0.27654 0.47194 0.84807
 N1184 N 0.26388 0.46415 0.84023
 N1185 N 0.25923 0.46890 0.82510
 C1186 C 0.26709 0.48159 0.81730
 N1187 N 0.27973 0.48939 0.82521
 N1188 N 0.28438 0.48464 0.84034
 N1189 N 0.29246 -0.06130 0.39679
 C1190 C 0.29458 -0.04519 0.39254
 N1191 N 0.30313 -0.03505 0.40286
 N1192 N 0.30940 -0.04087 0.41700
 C1193 C 0.30737 -0.05704 0.42130
 N1194 N 0.29873 -0.06712 0.41092
 C1195 C 0.28836 -0.03911 0.37701
 C1196 C 0.28335 -0.03419 0.36381
 C1197 C 0.27767 -0.02854 0.34793
 N1198 N 0.28560 -0.01600 0.34003
 N1199 N 0.28070 -0.01113 0.32502
 C1200 C 0.26771 -0.01864 0.31740
 N1201 N 0.25976 -0.03117 0.32537
 N1202 N 0.26466 -0.03604 0.34038
 N1203 N -0.03534 -0.05321 -0.15324
 C1204 C -0.04520 -0.04481 -0.14253
 N1205 N -0.06147 -0.04291 -0.14616
 N1206 N -0.06773 -0.04925 -0.16007
 C1207 C -0.05794 -0.05775 -0.17085
 N1208 N -0.04160 -0.05955 -0.16716
 C1209 C -0.03865 -0.03852 -0.12722
 C1210 C -0.03340 -0.03345 -0.11417
 C1211 C -0.02749 -0.02765 -0.09842
 N1212 N -0.03503 -0.01474 -0.09074
 N1213 N -0.03004 -0.00983 -0.07578
 C1214 C -0.01734 -0.01766 -0.06798
 N1215 N -0.00978 -0.03054 -0.07574
 N1216 N -0.01477 -0.03546 -0.09071
 N1217 N -0.04145 0.43913 0.35207
 C1218 C -0.04332 0.45541 0.35576
 N1219 N -0.05201 0.46523 0.34526
 N1220 N -0.05865 0.45895 0.33149
 C1221 C -0.05687 0.44261 0.32775
 N1222 N -0.04809 0.43285 0.33831
 C1223 C -0.03685 0.46193 0.37099
 C1224 C -0.03169 0.46712 0.38403
 C1225 C -0.02593 0.47292 0.39983
 N1226 N -0.03370 0.48566 0.40757
 N1227 N -0.02900 0.49040 0.42268
 C1228 C -0.01637 0.48256 0.43058
 N1229 N -0.00855 0.46987 0.42275
 N1230 N -0.01326 0.46513 0.40763
 N1231 N 0.46459 -0.05187 0.34669
 C1232 C 0.45458 -0.04378 0.35750
 N1233 N 0.43831 -0.04196 0.35378
 N1234 N 0.43222 -0.04808 0.33970
 C1235 C 0.44217 -0.05626 0.32883
 N1236 N 0.45850 -0.05799 0.33260
 C1237 C 0.46096 -0.03773 0.37296
 C1238 C 0.46608 -0.03283 0.38613
 C1239 C 0.47188 -0.02721 0.40198
 N1240 N 0.46402 -0.01468 0.40995
 N1241 N 0.46899 -0.00986 0.42495
 C1242 C 0.48199 -0.01743 0.43250
 N1243 N 0.48987 -0.02995 0.42447
 N1244 N 0.48489 -0.03477 0.40946
 N1245 N 0.43923 0.45798 -0.14707
 C1246 C 0.45553 0.45608 -0.14354
 N1247 N 0.46529 0.44753 -0.15423
 N1248 N 0.45891 0.44104 -0.16802
 C1249 C 0.44255 0.44284 -0.17160
 N1250 N 0.43286 0.45149 -0.16086
 C1251 C 0.46216 0.46243 -0.12830
 C1252 C 0.46740 0.46751 -0.11525
 C1253 C 0.47322 0.47324 -0.09945
 N1254 N 0.48572 0.46525 -0.09158
 N1255 N 0.49046 0.46996 -0.07646
 C1256 C 0.48284 0.48281 -0.06870
 N1257 N 0.47038 0.49085 -0.07666
 N1258 N 0.46564 0.48613 -0.09178
 N1259 N 0.46663 0.80214 0.40437
 C1260 C 0.45674 0.79339 0.39397
 N1261 N 0.44060 0.79111 0.39804
 N1262 N 0.43452 0.79743 0.41204
 C1263 C 0.44435 0.80627 0.42249
 N1264 N 0.46055 0.80845 0.41838
 C1265 C 0.46303 0.78724 0.37850
 C1266 C 0.46802 0.78233 0.36529
 C1267 C 0.47359 0.77680 0.34931
 N1268 N 0.46571 0.76420 0.34146
 N1269 N 0.47029 0.75965 0.32624
 C1270 C 0.48289 0.76757 0.31835
 N1271 N 0.49081 0.78013 0.32629
 N1272 N 0.48623 0.78468 0.34151
 N1273 N -0.03462 0.80320 0.90227
 C1274 C -0.04460 0.79456 0.89187
 N1275 N -0.06070 0.79223 0.89605
 N1276 N -0.06665 0.79840 0.91017
 C1277 C -0.05673 0.80713 0.92064
 N1278 N -0.04057 0.80936 0.91641
 C1279 C -0.03838 0.78843 0.87636
 C1280 C -0.03340 0.78346 0.86316
 C1281 C -0.02775 0.77779 0.84726
 N1282 N -0.03556 0.76508 0.83951
 N1283 N -0.03074 0.76022 0.82446
 C1284 C -0.01795 0.76791 0.81665
 N1285 N -0.01012 0.78061 0.82448
 N1286 N -0.01495 0.78546 0.83953
 N1287 N 0.35231 0.81010 0.29063
 C1288 C 0.35605 0.79383 0.29252
 N1289 N 0.34540 0.78390 0.30091
 N1290 N 0.33144 0.79006 0.30725
 C1291 C 0.32767 0.80639 0.30546
 N1292 N 0.33837 0.81626 0.29697
 C1293 C 0.37145 0.78743 0.28636
 C1294 C 0.38462 0.78238 0.28143
 C1295 C 0.40055 0.77677 0.27587
 N1296 N 0.40823 0.76397 0.28358
 N1297 N 0.42343 0.75938 0.27902
 C1298 C 0.43146 0.76746 0.26660
 N1299 N 0.42368 0.78022 0.25885
 N1300 N 0.40849 0.78480 0.26341
 N1301 N -0.15259 0.78513 0.80203
 C1302 C -0.14194 0.79527 0.79389
 N1303 N -0.14587 0.81149 0.79201
 N1304 N -0.16002 0.81741 0.79813
 C1305 C -0.17073 0.80733 0.80637
 N1306 N -0.16674 0.79106 0.80815
 C1307 C -0.12641 0.78907 0.78784
 C1308 C -0.11320 0.78408 0.78295
 C1309 C -0.09731 0.77839 0.77737
 N1310 N -0.08933 0.78636 0.76490
 N1311 N -0.07431 0.78147 0.76010
 C1312 C -0.06675 0.76844 0.76762
 N1313 N -0.07481 0.76046 0.78008
 N1314 N -0.08983 0.76536 0.78488
 N1315 N 0.89795 0.30984 0.45939
 C1316 C 0.89392 0.29367 0.45726
 N1317 N 0.90430 0.28372 0.44857
 N1318 N 0.91828 0.28978 0.44217
 C1319 C 0.92235 0.30601 0.44420
 N1320 N 0.91191 0.31590 0.45299
 C1321 C 0.87850 0.28740 0.46352
 C1322 C 0.86532 0.28246 0.46854
 C1323 C 0.84938 0.27697 0.47421
 N1324 N 0.84162 0.26413 0.46664
 N1325 N 0.82643 0.25963 0.47131
 C1326 C 0.81849 0.26783 0.48370
 N1327 N 0.82634 0.28064 0.49131
 N1328 N 0.84153 0.28513 0.48663
 N1329 N 0.90450 0.78458 -0.05220
 C1330 C 0.89389 0.79437 -0.04361
 N1331 N 0.89752 0.81065 -0.04165
 N1332 N 0.91134 0.81698 -0.04812
 C1333 C 0.92201 0.80725 -0.05681
 N1334 N 0.91833 0.79091 -0.05867
 C1335 C 0.87862 0.78780 -0.03730
 C1336 C 0.86555 0.78258 -0.03225
 C1337 C 0.84974 0.77675 -0.02658
 N1338 N 0.84202 0.78432 -0.01370
 N1339 N 0.82691 0.77955 -0.00904
 C1340 C 0.81900 0.76706 -0.01712
 N1341 N 0.82681 0.75945 -0.02996
 N1342 N 0.84192 0.76422 -0.03462
 N1343 N -0.14535 -0.04254 -0.06228
 C1344 C -0.14135 -0.04428 -0.04605
 N1345 N -0.15197 -0.05230 -0.03578
 N1346 N -0.16616 -0.05845 -0.04160
 C1347 C -0.17021 -0.05681 -0.05789
 N1348 N -0.15952 -0.04869 -0.06809
 C1349 C -0.12579 -0.03819 -0.03995
 C1350 C -0.11257 -0.03329 -0.03502
 C1351 C -0.09667 -0.02770 -0.02936
 N1352 N -0.08889 -0.03561 -0.01673
 N1353 N -0.07388 -0.03079 -0.01184
 C1354 C -0.06613 -0.01790 -0.01942
 N1355 N -0.07398 -0.00997 -0.03204
 N1356 N -0.08900 -0.01480 -0.03693
 N1357 N -0.15429 0.44987 0.46597
 C1358 C -0.14363 0.45799 0.45582
 N1359 N -0.14747 0.45968 0.43955
 N1360 N -0.16153 0.45340 0.43358
 C1361 C -0.17224 0.44517 0.44367
 N1362 N -0.16835 0.44359 0.46001
 C1363 C -0.12811 0.46406 0.46203
 C1364 C -0.11486 0.46886 0.46698
 C1365 C -0.09885 0.47422 0.47256
 N1366 N -0.09107 0.48706 0.46499
 N1367 N -0.07584 0.49148 0.46959
 C1368 C -0.06787 0.48319 0.48189
 N1369 N -0.07574 0.47039 0.48949
 N1370 N -0.09097 0.46597 0.48490
 N1371 N 0.34767 -0.05151 0.46506
 C1372 C 0.35829 -0.04341 0.45485
 N1373 N 0.35437 -0.04173 0.43859
 N1374 N 0.34028 -0.04800 0.43270
 C1375 C 0.32960 -0.05620 0.44285
 N1376 N 0.33357 -0.05778 0.45917
 C1377 C 0.37378 -0.03723 0.46101
 C1378 C 0.38696 -0.03225 0.46597
 C1379 C 0.40285 -0.02660 0.47161
 N1380 N 0.41053 -0.01378 0.46391
 N1381 N 0.42558 -0.00896 0.46870
 C1382 C 0.43346 -0.01681 0.48135
 N1383 N 0.42570 -0.02961 0.48906
 N1384 N 0.41065 -0.03443 0.48427
 N1385 N 0.35204 0.45950 -0.06031
 C1386 C 0.35583 0.45780 -0.04402
 N1387 N 0.34519 0.44959 -0.03393
 N1388 N 0.33120 0.44322 -0.03997
 C1389 C 0.32736 0.44481 -0.05632
 N1390 N 0.33806 0.45313 -0.06635
 C1391 C 0.37129 0.46396 -0.03775
 C1392 C 0.38448 0.46885 -0.03274
 C1393 C 0.40044 0.47433 -0.02713
 N1394 N 0.40821 0.46635 -0.01455
 N1395 N 0.42341 0.47086 -0.00992
 C1396 C 0.43136 0.48348 -0.01775
 N1397 N 0.42350 0.49150 -0.03030
 N1398 N 0.40830 0.48699 -0.03492
 N1399 N 0.40227 0.46408 0.80253
 C1400 C 0.39149 0.45392 0.79460
 N1401 N 0.39536 0.43768 0.79279
 N1402 N 0.40955 0.43175 0.79877
 C1403 C 0.42039 0.44186 0.80679
 N1404 N 0.41648 0.45816 0.80851
 C1405 C 0.37593 0.46013 0.78867
 C1406 C 0.36271 0.46513 0.78387
 C1407 C 0.34680 0.47082 0.77833
 N1408 N 0.33894 0.46301 0.76569
 N1409 N 0.32394 0.46793 0.76088
 C1410 C 0.31628 0.48081 0.76857
 N1411 N 0.32422 0.48863 0.78120
 N1412 N 0.33923 0.48370 0.78601
 N1413 N 0.40216 -0.03457 0.30291
 C1414 C 0.39166 -0.04455 0.29441
 N1415 N 0.39573 -0.06069 0.29212
 N1416 N 0.40985 -0.06668 0.29819
 C1417 C 0.42042 -0.05676 0.30679
 N1418 N 0.41630 -0.04056 0.30898
 C1419 C 0.37613 -0.03830 0.28841
 C1420 C 0.36292 -0.03329 0.28358
 C1421 C 0.34701 -0.02761 0.27806
 N1422 N 0.33918 -0.03534 0.26535
 N1423 N 0.32412 -0.03050 0.26064
 C1424 C 0.31637 -0.01778 0.26850
 N1425 N 0.32428 -0.01004 0.28119
 N1426 N 0.33934 -0.01488 0.28590
 N1427 N 0.10197 0.55986 0.70925
 C1428 C 0.10604 0.54371 0.70703
 N1429 N 0.09578 0.53382 0.69813
 N1430 N 0.08188 0.53991 0.69161
 C1431 C 0.07777 0.55612 0.69374
 N1432 N 0.08808 0.56594 0.70274
 C1433 C 0.12140 0.53741 0.71337
 C1434 C 0.13453 0.53238 0.71840
 C1435 C 0.15042 0.52672 0.72400
 N1436 N 0.15808 0.51395 0.71622
 N1437 N 0.17324 0.50927 0.72079
 C1438 C 0.18125 0.51722 0.73329
 N1439 N 0.17349 0.52995 0.74112
 N1440 N 0.15834 0.53463 0.73655
 N1441 N 0.10109 0.05916 0.21020
 C1442 C 0.10512 0.04298 0.20823
 N1443 N 0.09468 0.03290 0.19974
 N1444 N 0.08066 0.03886 0.19338
 C1445 C 0.07659 0.05511 0.19524
 N1446 N 0.08708 0.06512 0.20383
 C1447 C 0.12060 0.03680 0.21439
 C1448 C 0.13383 0.03189 0.21929
 C1449 C 0.14982 0.02638 0.22476
 N1450 N 0.15750 0.01360 0.21700
 N1451 N 0.17272 0.00905 0.22149
 C1452 C 0.18077 0.01713 0.23389
 N1453 N 0.17300 0.02987 0.24168
 N1454 N 0.15778 0.03442 0.23719
 N1455 N 0.64597 0.70799 0.18879
 C1456 C 0.64213 0.70614 0.20506
 N1457 N 0.65281 0.69798 0.21513
 N1458 N 0.66689 0.69181 0.20909
 C1459 C 0.67078 0.69356 0.19277
 N1460 N 0.66004 0.70182 0.18276
 C1461 C 0.62666 0.71223 0.21136
 C1462 C 0.61348 0.71714 0.21642
 C1463 C 0.59761 0.72277 0.22212
 N1464 N 0.58982 0.71490 0.23479
 N1465 N 0.57478 0.71970 0.23963
 C1466 C 0.56702 0.73252 0.23195
 N1467 N 0.57488 0.74039 0.21931
 N1468 N 0.58992 0.73559 0.21447
 N1469 N 0.15466 0.71593 0.69907
 C1470 C 0.14422 0.70592 0.70762
 N1471 N 0.14824 0.68975 0.70970
 N1472 N 0.16225 0.68375 0.70338
 C1473 C 0.17276 0.69370 0.69472
 N1474 N 0.16869 0.70993 0.69274
 C1475 C 0.12873 0.71215 0.71375
 C1476 C 0.11550 0.71711 0.71862
 C1477 C 0.09952 0.72271 0.72404
 N1478 N 0.09155 0.71485 0.73659
 N1479 N 0.07634 0.71948 0.74104
 C1480 C 0.06857 0.73211 0.73307
 N1481 N 0.07663 0.74000 0.72056
 N1482 N 0.09184 0.73537 0.71611
 N1483 N 0.59658 0.19918 0.53429
 C1484 C 0.60709 0.20738 0.54452
 N1485 N 0.60292 0.20936 0.56069
 N1486 N 0.58869 0.20328 0.56646
 C1487 C 0.57812 0.19498 0.55629
 N1488 N 0.58235 0.19310 0.54006
 C1489 C 0.62273 0.21335 0.53850
 C1490 C 0.63603 0.21815 0.53367
 C1491 C 0.65204 0.22362 0.52820
 N1492 N 0.65976 0.23638 0.53596
 N1493 N 0.67489 0.24106 0.53130
 C1494 C 0.68283 0.23313 0.51874
 N1495 N 0.67504 0.22039 0.51096
 N1496 N 0.65990 0.21571 0.51562
 N1497 N 0.59824 0.71413 0.05297
 C1498 C 0.60872 0.70413 0.04446
 N1499 N 0.60475 0.68793 0.04244
 N1500 N 0.59074 0.68190 0.04877
 C1501 C 0.58020 0.69185 0.05737
 N1502 N 0.58422 0.70810 0.05930
 C1503 C 0.62413 0.71043 0.03819
 C1504 C 0.63725 0.71550 0.03315
 C1505 C 0.65306 0.72128 0.02742
 N1506 N 0.66081 0.71360 0.01463
 N1507 N 0.67581 0.71852 0.00976
 C1508 C 0.68357 0.73129 0.01754
 N1509 N 0.67574 0.73899 0.03032
 N1510 N 0.66075 0.73406 0.03518
 N1511 N 0.15510 0.03394 0.05014
 C1512 C 0.14455 0.04401 0.04182
 N1513 N 0.14834 0.06030 0.04018
 N1514 N 0.16224 0.06634 0.04672
 C1515 C 0.17284 0.05634 0.05515
 N1516 N 0.16901 0.03999 0.05668
 C1517 C 0.12916 0.03772 0.03550
 C1518 C 0.11601 0.03271 0.03050
 C1519 C 0.10010 0.02707 0.02493
 N1520 N 0.09221 0.03495 0.01236
 N1521 N 0.07702 0.03032 0.00782
 C1522 C 0.06921 0.01766 0.01572
 N1523 N 0.07719 0.00973 0.02825
 N1524 N 0.09237 0.01437 0.03279
 N1525 N 0.15343 0.53497 0.55126
 C1526 C 0.14274 0.54509 0.54317
 N1527 N 0.14651 0.56139 0.54157
 N1528 N 0.16051 0.56740 0.54793
 C1529 C 0.17125 0.55733 0.55612
 N1530 N 0.16744 0.54098 0.55761
 C1531 C 0.12733 0.53880 0.53693
 C1532 C 0.11419 0.53373 0.53194
 C1533 C 0.09835 0.52797 0.52629
 N1534 N 0.09051 0.53573 0.51361
 N1535 N 0.07548 0.53083 0.50884
 C1536 C 0.06778 0.51801 0.51659
 N1537 N 0.07570 0.51023 0.52925
 N1538 N 0.09073 0.51513 0.53402
 N1539 N 0.64809 0.06084 0.54061
 C1540 C 0.64439 0.04454 0.54221
 N1541 N 0.65505 0.03448 0.55041
 N1542 N 0.66899 0.04056 0.55684
 C1543 C 0.67275 0.05693 0.55535
 N1544 N 0.66202 0.06693 0.54705
 C1545 C 0.62899 0.03820 0.53597
 C1546 C 0.61583 0.03316 0.53100
 C1547 C 0.59992 0.02752 0.52543
 N1548 N 0.59228 0.01468 0.53314
 N1549 N 0.57711 0.01002 0.52857
 C1550 C 0.56906 0.01807 0.51616
 N1551 N 0.57679 0.03087 0.50841
 N1552 N 0.59196 0.03552 0.51298
 N1553 N 0.64576 0.56185 0.04243
 C1554 C 0.64183 0.54562 0.04421
 N1555 N 0.65249 0.53544 0.05226
 N1556 N 0.66664 0.54135 0.05840
 C1557 C 0.67062 0.55764 0.05672
 N1558 N 0.65990 0.56776 0.04857
 C1559 C 0.62630 0.53944 0.03815
 C1560 C 0.61309 0.53444 0.03327
 C1561 C 0.59720 0.52874 0.02771
 N1562 N 0.58936 0.51623 0.03576
 N1563 N 0.57434 0.51132 0.03097
 C1564 C 0.56665 0.51877 0.01797
 N1565 N 0.57456 0.53127 0.00991
 N1566 N 0.58958 0.53617 0.01470
 N1567 N 0.05966 0.03982 0.14807
 C1568 C 0.04352 0.04181 0.14389
 N1569 N 0.03333 0.05013 0.15434
 N1570 N 0.03911 0.05633 0.16853
 C1571 C 0.05531 0.05445 0.17275
 N1572 N 0.06544 0.04602 0.16225
 C1573 C 0.03752 0.03582 0.12824
 C1574 C 0.03271 0.03109 0.11490
 C1575 C 0.02726 0.02583 0.09879
 N1576 N 0.01492 0.03407 0.09091
 N1577 N 0.01040 0.02973 0.07562
 C1578 C 0.01807 0.01701 0.06769
 N1579 N 0.03037 0.00873 0.07565
 N1580 N 0.03490 0.01308 0.09094
 N1581 N 0.03501 0.55180 0.65223
 C1582 C 0.04533 0.54366 0.64176
 N1583 N 0.06142 0.54164 0.64607
 N1584 N 0.06706 0.54763 0.66040
 C1585 C 0.05680 0.55587 0.67094
 N1586 N 0.04064 0.55779 0.66657
 C1587 C 0.03944 0.53775 0.62604
 C1588 C 0.03465 0.53300 0.61269
 C1589 C 0.02913 0.52760 0.59666
 N1590 N 0.03675 0.51480 0.58889
 N1591 N 0.03194 0.51010 0.57379
 C1592 C 0.01935 0.51806 0.56595
 N1593 N 0.01172 0.53086 0.57379
 N1594 N 0.01654 0.53555 0.58889
 N1595 N 0.53339 0.05000 0.65479
 C1596 C 0.54359 0.04176 0.64427
 N1597 N 0.55975 0.03984 0.64839
 N1598 N 0.56556 0.04602 0.66256
 C1599 C 0.55543 0.05437 0.67313
 N1600 N 0.53920 0.05618 0.66897
 C1601 C 0.53756 0.03579 0.62863
 C1602 C 0.53275 0.03106 0.61529
 C1603 C 0.52732 0.02580 0.59918
 N1604 N 0.53521 0.01328 0.59119
 N1605 N 0.53070 0.00895 0.57589
 C1606 C 0.51817 0.01699 0.56805
 N1607 N 0.51025 0.02948 0.57612
 N1608 N 0.51476 0.03381 0.59142
 N1609 N 0.54214 0.56140 0.14584
 C1610 C 0.54396 0.54512 0.14212
 N1611 N 0.55197 0.53510 0.15297
 N1612 N 0.55803 0.54120 0.16709
 C1613 C 0.55631 0.55754 0.17085
 N1614 N 0.54820 0.56750 0.15994
 C1615 C 0.53796 0.53874 0.12663
 C1616 C 0.53312 0.53363 0.11344
 C1617 C 0.52756 0.52786 0.09755
 N1618 N 0.53542 0.51515 0.08986
 N1619 N 0.53068 0.51024 0.07480
 C1620 C 0.51792 0.51789 0.06693
 N1621 N 0.51005 0.53058 0.07470
 N1622 N 0.51479 0.53549 0.08975
 N1623 N 0.18924 0.54093 0.60252
 C1624 C 0.20544 0.54294 0.60641
 N1625 N 0.21534 0.55169 0.59601
 N1626 N 0.20919 0.55825 0.58214
 C1627 C 0.19292 0.55634 0.57821
 N1628 N 0.18309 0.54749 0.58867
 C1629 C 0.21182 0.53657 0.62174
 C1630 C 0.21692 0.53151 0.63485
 C1631 C 0.22266 0.52589 0.65072
 N1632 N 0.23519 0.53391 0.65853
 N1633 N 0.23991 0.52931 0.67368
 C1634 C 0.23225 0.51653 0.68154
 N1635 N 0.21977 0.50846 0.67364
 N1636 N 0.21505 0.51307 0.65849
 N1637 N 0.21612 0.05113 0.09600
 C1638 C 0.20604 0.04243 0.10625
 N1639 N 0.18993 0.04030 0.10202
 N1640 N 0.18407 0.04672 0.08798
 C1641 C 0.19409 0.05554 0.07767
 N1642 N 0.21026 0.05756 0.08195
 C1643 C 0.21211 0.03619 0.12177
 C1644 C 0.21697 0.03125 0.13502
 C1645 C 0.22247 0.02575 0.15102
 N1646 N 0.21456 0.01317 0.15889
 N1647 N 0.21911 0.00865 0.17412
 C1648 C 0.23170 0.01657 0.18200
 N1649 N 0.23964 0.02911 0.17405
 N1650 N 0.23509 0.03363 0.15882
 N1651 N 0.71525 0.19845 0.65402
 C1652 C 0.70501 0.20664 0.64352
 N1653 N 0.68885 0.20854 0.64769
 N1654 N 0.68309 0.20239 0.66190
 C1655 C 0.69327 0.19410 0.67246
 N1656 N 0.70948 0.19231 0.66825
 C1657 C 0.71103 0.21269 0.62790
 C1658 C 0.71592 0.21755 0.61463
 C1659 C 0.72152 0.22308 0.59866
 N1660 N 0.71392 0.23592 0.59094
 N1661 N 0.71877 0.24069 0.57588
 C1662 C 0.73139 0.23278 0.56802
 N1663 N 0.73900 0.21994 0.57582
 N1664 N 0.73414 0.21517 0.59088
 N1665 N 0.70776 0.68901 0.14647
 C1666 C 0.70559 0.70515 0.14238
 N1667 N 0.69705 0.71516 0.15285
 N1668 N 0.69085 0.70919 0.16696
 C1669 C 0.69293 0.69298 0.17110
 N1670 N 0.70155 0.68303 0.16058
 C1671 C 0.71175 0.71138 0.12689
 C1672 C 0.71673 0.71638 0.11371
 C1673 C 0.72244 0.72204 0.09782
 N1674 N 0.71468 0.73474 0.09002
 N1675 N 0.71957 0.73956 0.07498
 C1676 C 0.73237 0.73184 0.06723
 N1677 N 0.74014 0.71916 0.07511
 N1678 N 0.73526 0.71434 0.09015
 N1679 N 0.53625 0.69703 0.09751
 C1680 C 0.54626 0.70538 0.10812
 N1681 N 0.56249 0.70726 0.10426
 N1682 N 0.56855 0.70095 0.09025
 C1683 C 0.55860 0.69250 0.07958
 N1684 N 0.54230 0.69072 0.08349
 C1685 C 0.53991 0.71162 0.12353
 C1686 C 0.53477 0.71663 0.13664
 C1687 C 0.52887 0.72233 0.15245
 N1688 N 0.53623 0.73537 0.16008
 N1689 N 0.53118 0.74025 0.17504
 C1690 C 0.51861 0.73224 0.18288
 N1691 N 0.51124 0.71921 0.17518
 N1692 N 0.51629 0.71433 0.16021
 N1693 N 0.04198 0.68940 0.60244
 C1694 C 0.04405 0.70566 0.60614
 N1695 N 0.05269 0.71543 0.59554
 N1696 N 0.05910 0.70912 0.58167
 C1697 C 0.05713 0.69280 0.57793
 N1698 N 0.04840 0.68309 0.58859
 C1699 C 0.03775 0.71221 0.62144
 C1700 C 0.03269 0.71738 0.63453
 C1701 C 0.02696 0.72310 0.65038
 N1702 N 0.03466 0.73587 0.65813
 N1703 N 0.02995 0.74054 0.67327
 C1704 C 0.01738 0.73258 0.68118
 N1705 N 0.00963 0.71986 0.67333
 N1706 N 0.01435 0.71519 0.65819
 N1707 N 0.56057 0.60400 0.20762
 C1708 C 0.54447 0.60810 0.20525
 N1709 N 0.53453 0.59760 0.19668
 N1710 N 0.54054 0.58346 0.19062
 C1711 C 0.55671 0.57931 0.19290
 N1712 N 0.56658 0.58987 0.20156
 C1713 C 0.53819 0.62362 0.21127
 C1714 C 0.53316 0.63682 0.21613
 C1715 C 0.52746 0.65272 0.22171
 N1716 N 0.51475 0.66042 0.21388
 N1717 N 0.50987 0.67546 0.21865
 C1718 C 0.51756 0.68332 0.23142
 N1719 N 0.53026 0.67554 0.23926
 N1720 N 0.53513 0.66050 0.23449
 N1721 N 0.04094 0.60238 0.68907
 C1722 C 0.04247 0.60600 0.70541
 N1723 N 0.05056 0.59525 0.71547
 N1724 N 0.05696 0.58130 0.70935
 C1725 C 0.05554 0.57764 0.69294
 N1726 N 0.04735 0.58845 0.68295
 C1727 C 0.03627 0.62140 0.71179
 C1728 C 0.03134 0.63456 0.71686
 C1729 C 0.02582 0.65049 0.72253
 N1730 N 0.03353 0.65809 0.73539
 N1731 N 0.02901 0.67327 0.74007
 C1732 C 0.01665 0.68137 0.73202
 N1733 N 0.00890 0.67368 0.71920
 N1734 N 0.01341 0.65850 0.71452
 N1735 N 0.03392 0.15505 0.05019
 C1736 C 0.04397 0.14427 0.04212
 N1737 N 0.06028 0.14792 0.04052
 N1738 N 0.06638 0.16190 0.04684
 C1739 C 0.05640 0.17273 0.05502
 N1740 N 0.04002 0.16904 0.05651
 C1741 C 0.03761 0.12882 0.03601
 C1742 C 0.03258 0.11562 0.03115
 C1743 C 0.02697 0.09965 0.02568
 N1744 N 0.03458 0.09192 0.01284
 N1745 N 0.02999 0.07671 0.00833
 C1746 C 0.01763 0.06871 0.01652
 N1747 N 0.00998 0.07653 0.02933
 N1748 N 0.01458 0.09174 0.03384
 N1749 N 0.03544 0.65297 0.55170
 C1750 C 0.04546 0.64216 0.54364
 N1751 N 0.06173 0.64589 0.54182
 N1752 N 0.06782 0.65998 0.54792
 C1753 C 0.05785 0.67084 0.55609
 N1754 N 0.04152 0.66706 0.55781
 C1755 C 0.03910 0.62668 0.53761
 C1756 C 0.03399 0.61351 0.53274
 C1757 C 0.02824 0.59763 0.52715
 N1758 N 0.03585 0.58988 0.51432
 N1759 N 0.03096 0.57485 0.50954
 C1760 C 0.01828 0.56705 0.51744
 N1761 N 0.01064 0.57488 0.53025
 N1762 N 0.01554 0.58992 0.53503
 N1763 N 0.53388 0.15524 0.55055
 C1764 C 0.54392 0.14457 0.54232
 N1765 N 0.56019 0.14835 0.54057
 N1766 N 0.56626 0.16233 0.54691
 C1767 C 0.55629 0.17305 0.55525
 N1768 N 0.53995 0.16924 0.55689
 C1769 C 0.53761 0.12912 0.53618
 C1770 C 0.53263 0.11591 0.53127
 C1771 C 0.52709 0.09994 0.52574
 N1772 N 0.53509 0.09205 0.51324
 N1773 N 0.53054 0.07684 0.50869
 C1774 C 0.51785 0.06899 0.51650
 N1775 N 0.50981 0.07697 0.52897
 N1776 N 0.51436 0.09219 0.53352
 N1777 N 0.54291 0.64582 0.06176
 C1778 C 0.54484 0.64196 0.04551
 N1779 N 0.55333 0.65249 0.03553
 N1780 N 0.55974 0.66644 0.04163
 C1781 C 0.55790 0.67035 0.05794
 N1782 N 0.54931 0.65976 0.06786
 C1783 C 0.53850 0.62662 0.03913
 C1784 C 0.53340 0.61355 0.03399
 C1785 C 0.52763 0.59778 0.02813
 N1786 N 0.53532 0.59015 0.01527
 N1787 N 0.53042 0.57519 0.01028
 C1788 C 0.51768 0.56733 0.01800
 N1789 N 0.50996 0.57504 0.03084
 N1790 N 0.51486 0.59001 0.03582
 N1791 N 0.69880 0.09749 0.53477
 C1792 C 0.70695 0.10794 0.54510
 N1793 N 0.70890 0.10365 0.56124
 N1794 N 0.70284 0.08936 0.56689
 C1795 C 0.69459 0.07885 0.55661
 N1796 N 0.69274 0.08320 0.54042
 C1797 C 0.71293 0.12363 0.53921
 C1798 C 0.71773 0.13696 0.53445
 C1799 C 0.72317 0.15300 0.52900
 N1800 N 0.73583 0.16080 0.53683
 N1801 N 0.74051 0.17593 0.53214
 C1802 C 0.73268 0.18379 0.51947
 N1803 N 0.72003 0.17591 0.51163
 N1804 N 0.71535 0.16078 0.51632
 N1805 N 0.69703 0.59747 0.03518
 C1806 C 0.70566 0.60783 0.04522
 N1807 N 0.70788 0.60364 0.06135
 N1808 N 0.70163 0.58956 0.06728
 C1809 C 0.69290 0.57914 0.05730
 N1810 N 0.69077 0.58338 0.04111
 C1811 C 0.71186 0.62331 0.03903
 C1812 C 0.71685 0.63648 0.03404
 C1813 C 0.72253 0.65235 0.02834
 N1814 N 0.73549 0.65995 0.03586
 N1815 N 0.74036 0.67496 0.03098
 C1816 C 0.73242 0.68288 0.01842
 N1817 N 0.71947 0.67520 0.01088
 N1818 N 0.71461 0.66019 0.01576
 N1819 N 0.19956 0.65425 0.71637
 C1820 C 0.20786 0.64365 0.70631
 N1821 N 0.20971 0.64751 0.69005
 N1822 N 0.20341 0.66153 0.68401
 C1823 C 0.19500 0.67218 0.69401
 N1824 N 0.19326 0.66827 0.71033
 C1825 C 0.21397 0.62817 0.71258
 C1826 C 0.21882 0.61495 0.71756
 C1827 C 0.22424 0.59896 0.72315
 N1828 N 0.23665 0.59094 0.71514
 N1829 N 0.24109 0.57572 0.71974
 C1830 C 0.23326 0.56799 0.73251
 N1831 N 0.22089 0.57610 0.74056
 N1832 N 0.21645 0.59133 0.73595
 N1833 N 0.18965 0.14760 0.20998
 C1834 C 0.20583 0.14367 0.20782
 N1835 N 0.21574 0.15417 0.19921
 N1836 N 0.20962 0.16816 0.19290
 C1837 C 0.19338 0.17213 0.19496
 N1838 N 0.18354 0.16158 0.20368
 C1839 C 0.21217 0.12824 0.21397
 C1840 C 0.21718 0.11505 0.21888
 C1841 C 0.22274 0.09909 0.22443
 N1842 N 0.23551 0.09138 0.21669
 N1843 N 0.24008 0.07618 0.22124
 C1844 C 0.23202 0.06817 0.23368
 N1845 N 0.21929 0.07597 0.24146
 N1846 N 0.21472 0.09117 0.23691
 N1847 N 0.69910 1.15422 0.71659
 C1848 C 0.70737 1.14363 0.70649
 N1849 N 0.70910 1.14746 0.69021
 N1850 N 0.70271 1.16145 0.68420
 C1851 C 0.69435 1.17209 0.69423
 N1852 N 0.69272 1.16821 0.71057
 C1853 C 0.71356 1.12818 0.71274
 C1854 C 0.71847 1.11497 0.71771
 C1855 C 0.72397 1.09901 0.72327
 N1856 N 0.73637 1.09103 0.71520
 N1857 N 0.74088 1.07582 0.71979
 C1858 C 0.73313 1.06807 0.73259
 N1859 N 0.72078 1.07614 0.74069
 N1860 N 0.71627 1.09135 0.73611
 N1861 N 0.68899 0.64709 0.20860
 C1862 C 0.70523 0.64333 0.20661
 N1863 N 0.71511 0.65391 0.19806
 N1864 N 0.70891 0.66782 0.19166
 C1865 C 0.69260 0.67162 0.19355
 N1866 N 0.68279 0.66099 0.20219
 C1867 C 0.71168 0.62799 0.21286
 C1868 C 0.71680 0.61487 0.21785
 C1869 C 0.72253 0.59900 0.22347
 N1870 N 0.73504 0.59118 0.21543
 N1871 N 0.73976 0.57604 0.22006
 C1872 C 0.73210 0.56821 0.23287
 N1873 N 0.71963 0.57613 0.24094
 N1874 N 0.71492 0.59127 0.23631
 N1875 N 0.54992 0.09459 0.71703
 C1876 C 0.54160 0.10511 0.70691
 N1877 N 0.53975 0.10115 0.69068
 N1878 N 0.54606 0.08710 0.68473
 C1879 C 0.55448 0.07652 0.69477
 N1880 N 0.55623 0.08053 0.71107
 C1881 C 0.53548 0.12063 0.71310
 C1882 C 0.53061 0.13387 0.71802
 C1883 C 0.52516 0.14987 0.72354
 N1884 N 0.51281 0.15788 0.71545
 N1885 N 0.50833 0.17311 0.72002
 C1886 C 0.51606 0.18085 0.73282
 N1887 N 0.52838 0.17275 0.74095
 N1888 N 0.53286 0.15753 0.73638
 N1889 N 1.03977 0.10133 0.19018
 C1890 C 1.04157 0.10531 0.20642
 N1891 N 1.04979 0.09475 0.21657
 N1892 N 1.05607 0.08066 0.21065
 C1893 C 1.05437 0.07664 0.19436
 N1894 N 1.04604 0.08726 0.18426
 C1895 C 1.03548 0.12084 0.21257
 C1896 C 1.03062 0.13410 0.21746
 C1897 C 1.02516 0.15012 0.22294
 N1898 N 1.03291 0.15785 0.23570
 N1899 N 1.02839 0.17308 0.24024
 C1900 C 1.01598 0.18108 0.23217
 N1901 N 1.00820 0.17326 0.21944
 N1902 N 1.01272 0.15804 0.21490
 N1903 N 0.19746 0.59768 0.53530
 C1904 C 0.20585 0.60803 0.54554
 N1905 N 0.20792 0.60372 0.56166
 N1906 N 0.20174 0.58951 0.56738
 C1907 C 0.19326 0.57910 0.55719
 N1908 N 0.19128 0.58346 0.54102
 C1909 C 0.21198 0.62363 0.53956
 C1910 C 0.21692 0.63687 0.53471
 C1911 C 0.22255 0.65280 0.52913
 N1912 N 0.23533 0.66050 0.53685
 N1913 N 0.24020 0.67553 0.53201
 C1914 C 0.23243 0.68336 0.51928
 N1915 N 0.21965 0.67559 0.51156
 N1916 N 0.21479 0.66056 0.51640
 N1917 N 0.19923 0.09673 1.03467
 C1918 C 0.20730 0.10719 1.04504
 N1919 N 0.20908 0.10296 1.06121
 N1920 N 0.20293 0.08871 1.06685
 C1921 C 0.19475 0.07818 1.05653
 N1922 N 0.19307 0.08247 1.04031
 C1923 C 0.21335 0.12286 1.03915
 C1924 C 0.21819 0.13617 1.03439
 C1925 C 0.22367 0.15219 1.02894
 N1926 N 0.23634 0.15997 1.03677
 N1927 N 0.24103 0.17511 1.03210
 C1928 C 0.23320 0.18298 1.01943
 N1929 N 0.22054 0.17512 1.01159
 N1930 N 0.21585 0.15999 1.01627
 N1931 N 0.18988 0.70875 0.64751
 C1932 C 0.20605 0.70680 0.64342
 N1933 N 0.21620 0.69854 0.65395
 N1934 N 0.21034 0.69238 0.66813
 C1935 C 0.19411 0.69423 0.67227
 N1936 N 0.18402 0.70259 0.66168
 C1937 C 0.21216 0.71285 0.62783
 C1938 C 0.21709 0.71769 0.61456
 C1939 C 0.22272 0.72317 0.59859
 N1940 N 0.23553 0.71542 0.59097
 N1941 N 0.24036 0.72008 0.57586
 C1942 C 0.23252 0.73265 0.56786
 N1943 N 0.21971 0.74042 0.57555
 N1944 N 0.21489 0.73575 0.59066
 N1945 N 0.19782 0.21563 1.15421
 C1946 C 0.20610 0.20553 1.14364
 N1947 N 0.20816 0.18937 1.14770
 N1948 N 0.20208 0.18346 1.16188
 C1949 C 0.19370 0.19350 1.17252
 N1950 N 0.19174 0.20973 1.16841
 C1951 C 0.21210 0.21170 1.12805
 C1952 C 0.21696 0.21664 1.11480
 C1953 C 0.22254 0.22223 1.09885
 N1954 N 0.23505 0.21427 1.09095
 N1955 N 0.23985 0.21907 1.07588
 C1956 C 0.23228 0.23200 1.06819
 N1957 N 0.21978 0.23998 1.07616
 N1958 N 0.21498 0.23517 1.09123
 N1959 N 0.68900 0.54146 0.10304
 C1960 C 0.70527 0.54333 0.10672
 N1961 N 0.71514 0.55187 0.09612
 N1962 N 0.70890 0.55837 0.08226
 C1963 C 0.69256 0.55660 0.07854
 N1964 N 0.68276 0.54796 0.08920
 C1965 C 0.71175 0.53702 0.12203
 C1966 C 0.71691 0.53200 0.13513
 C1967 C 0.72269 0.52639 0.15100
 N1968 N 0.73510 0.53454 0.15887
 N1969 N 0.73981 0.52994 0.17403
 C1970 C 0.73226 0.51706 0.18183
 N1971 N 0.71989 0.50888 0.17386
 N1972 N 0.71518 0.51347 0.15870
 N1973 N 0.69033 1.04076 0.60198
 C1974 C 0.70647 1.04293 0.60607
 N1975 N 0.71643 1.05172 0.59576
 N1976 N 0.71040 1.05819 0.58180
 C1977 C 0.69420 1.05612 0.57766
 N1978 N 0.68431 1.04723 0.58802
 C1979 C 0.71271 1.03664 0.62150
 C1980 C 0.71769 1.03166 0.63468
 C1981 C 0.72329 1.02610 0.65063
 N1982 N 0.73579 1.03412 0.65850
 N1983 N 0.74039 1.02955 0.67369
 C1984 C 0.73265 1.01682 0.68155
 N1985 N 0.72019 1.00876 0.67359
 N1986 N 0.71558 1.01333 0.65839
 N1987 N 0.54048 0.19058 0.60203
 C1988 C 0.54263 0.20673 0.60612
 N1989 N 0.55130 0.21673 0.59575
 N1990 N 0.55765 0.21074 0.58171
 C1991 C 0.55560 0.19452 0.57757
 N1992 N 0.54684 0.18459 0.58800
 C1993 C 0.53644 0.21293 0.62161
 C1994 C 0.53148 0.21783 0.63484
 C1995 C 0.52590 0.22326 0.65084
 N1996 N 0.53359 0.23600 0.65866
 N1997 N 0.52900 0.24047 0.67390
 C1998 C 0.51657 0.23233 0.68184
 N1999 N 0.50885 0.21962 0.67394
 N2000 N 0.51344 0.21516 0.65870
 N2001 N 1.04028 0.19050 0.10158
 C2002 C 1.04249 0.20665 0.10564
 N2003 N 1.05131 0.21656 0.09532
 N2004 N 1.05777 0.21049 0.08137
 C2005 C 1.05566 0.19428 0.07726
 N2006 N 1.04674 0.18443 0.08763
 C2007 C 1.03618 0.21293 0.12106
 C2008 C 1.03113 0.21787 0.13423
 C2009 C 1.02545 0.22336 0.15018
 N2010 N 1.03300 0.23622 0.15794
 N2011 N 1.02835 0.24071 0.17315
 C2012 C 1.01600 0.23249 0.18113
 N2013 N 1.00841 0.21967 0.17328
 N2014 N 1.01306 0.21518 0.15806
 N2015 N 0.64763 0.18955 0.71018
 C2016 C 0.64354 0.20570 0.70809
 N2017 N 0.65390 0.21572 0.69944
 N2018 N 0.66791 0.20976 0.69304
 C2019 C 0.67204 0.19354 0.69503
 N2020 N 0.66163 0.18358 0.70378
 C2021 C 0.62807 0.21188 0.71429
 C2022 C 0.61485 0.21681 0.71920
 C2023 C 0.59887 0.22237 0.72466
 N2024 N 0.59116 0.23504 0.71677
 N2025 N 0.57595 0.23963 0.72125
 C2026 C 0.56792 0.23170 0.73376
 N2027 N 0.57572 0.21907 0.74170
 N2028 N 0.59094 0.21448 0.73722
 N2029 N 1.15381 0.19870 0.21673
 C2030 C 1.14314 0.20693 0.20670
 N2031 N 1.14695 0.20879 0.19043
 N2032 N 1.16098 0.20256 0.18435
 C2033 C 1.17171 0.19423 0.19432
 N2034 N 1.16785 0.19247 0.21065
 C2035 C 1.12766 0.21299 0.21301
 C2036 C 1.11443 0.21782 0.21800
 C2037 C 1.09845 0.22328 0.22355
 N2038 N 1.09060 0.23588 0.21568
 N2039 N 1.07538 0.24037 0.22023
 C2040 C 1.06747 0.23239 0.23279
 N2041 N 1.07540 0.21982 0.24069
 N2042 N 1.09063 0.21534 0.23614
 N2043 N 0.10427 0.70762 0.56053
 C2044 C 0.10839 0.70531 0.54439
 N2045 N 0.09793 0.69676 0.53441
 N2046 N 0.08378 0.69066 0.54039
 C2047 C 0.07961 0.69288 0.55659
 N2048 N 0.09013 0.70153 0.56651
 C2049 C 0.12391 0.71136 0.53815
 C2050 C 0.13711 0.71627 0.53317
 C2051 C 0.15302 0.72190 0.52754
 N2052 N 0.16083 0.71411 0.51485
 N2053 N 0.17589 0.71893 0.51007
 C2054 C 0.18365 0.73170 0.51783
 N2055 N 0.17577 0.73950 0.53051
 N2056 N 0.16071 0.73468 0.53529
 N2057 N 0.10318 0.20881 1.06067
 C2058 C 0.10748 0.20672 1.04455
 N2059 N 0.09701 0.19853 1.03428
 N2060 N 0.08270 0.19255 1.03997
 C2061 C 0.07835 0.19454 1.05615
 N2062 N 0.08888 0.20283 1.06637
 C2063 C 0.12318 0.21261 1.03862
 C2064 C 0.13652 0.21735 1.03385
 C2065 C 0.15257 0.22277 1.02843
 N2066 N 0.16042 0.21488 1.01582
 N2067 N 0.17556 0.21954 1.01117
 C2068 C 0.18338 0.23224 1.01899
 N2069 N 0.17547 0.24014 1.03159
 N2070 N 0.16032 0.23548 1.03624
 N2071 N 0.59548 0.55242 0.21567
 C2072 C 0.60609 0.54374 0.20595
 N2073 N 0.60248 0.54164 0.18967
 N2074 N 0.58868 0.54806 0.18328
 C2075 C 0.57801 0.55684 0.19293
 N2076 N 0.58167 0.55884 0.20927
 C2077 C 0.62133 0.53744 0.21260
 C2078 C 0.63437 0.53239 0.21784
 C2079 C 0.65017 0.52667 0.22366
 N2080 N 0.65795 0.51396 0.21589
 N2081 N 0.67305 0.50927 0.22063
 C2082 C 0.68089 0.51715 0.23329
 N2083 N 0.67301 0.52981 0.24111
 N2084 N 0.65791 0.53450 0.23636
 N2085 N 0.59498 1.03292 0.69992
 C2086 C 0.60541 1.04301 0.70838
 N2087 N 0.60133 1.05917 0.71040
 N2088 N 0.58727 1.06509 0.70412
 C2089 C 0.57678 1.05506 0.69555
 N2090 N 0.58090 1.03883 0.69363
 C2091 C 0.62096 1.03688 0.71445
 C2092 C 0.63422 1.03198 0.71925
 C2093 C 0.65025 1.02646 0.72460
 N2094 N 0.65820 1.03433 0.73715
 N2095 N 0.67345 1.02977 0.74155
 C2096 C 0.68126 1.01719 0.73352
 N2097 N 0.67322 1.00929 0.72101
 N2098 N 0.65798 1.01386 0.71661
 N2099 N 0.89589 0.45777 0.31102
 C2100 C 0.89156 0.45549 0.29494
 N2101 N 0.90183 0.44687 0.28481
 N2102 N 0.91599 0.44066 0.29061
 C2103 C 0.92038 0.44285 0.30674
 N2104 N 0.91005 0.45157 0.31681
 C2105 C 0.87601 0.46163 0.28890
 C2106 C 0.86279 0.46655 0.28400
 C2107 C 0.84688 0.47214 0.27837
 N2108 N 0.83905 0.46417 0.26581
 N2109 N 0.82401 0.46896 0.26096
 C2110 C 0.81630 0.48188 0.26852
 N2111 N 0.82421 0.48987 0.28106
 N2112 N 0.83924 0.48507 0.28591
 N2113 N 0.89538 0.93759 0.79274
 C2114 C 0.89145 0.95379 0.79477
 N2115 N 0.90206 0.96382 0.80308
 N2116 N 0.91616 0.95781 0.80921
 C2117 C 0.92014 0.94155 0.80728
 N2118 N 0.90947 0.93158 0.79888
 C2119 C 0.87599 0.96008 0.78865
 C2120 C 0.86285 0.96515 0.78369
 C2121 C 0.84702 0.97090 0.77801
 N2122 N 0.83953 0.98396 0.78549
 N2123 N 0.82456 0.98892 0.78062
 C2124 C 0.81657 0.98098 0.76810
 N2125 N 0.82413 0.96793 0.76060
 N2126 N 0.83910 0.96298 0.76548
 N2127 N 0.34675 0.28487 0.80281
 C2128 C 0.35746 0.29492 0.79463
 N2129 N 0.35360 0.31115 0.79267
 N2130 N 0.33948 0.31716 0.79874
 C2131 C 0.32871 0.30718 0.80702
 N2132 N 0.33262 0.29089 0.80888
 C2133 C 0.37297 0.28863 0.78862
 C2134 C 0.38616 0.28358 0.78376
 C2135 C 0.40204 0.27786 0.77817
 N2136 N 0.41001 0.28579 0.76567
 N2137 N 0.42503 0.28088 0.76087
 C2138 C 0.43258 0.26786 0.76842
 N2139 N 0.42453 0.25991 0.78091
 N2140 N 0.40952 0.26483 0.78571
 N2141 N 0.85296 0.29193 0.31140
 C2142 C 0.85704 0.29402 0.29522
 N2143 N 0.84661 0.30253 0.28517
 N2144 N 0.83253 0.30879 0.29114
 C2145 C 0.82841 0.30679 0.30738
 N2146 N 0.83890 0.29819 0.31736
 C2147 C 0.87250 0.28784 0.28899
 C2148 C 0.88566 0.28288 0.28395
 C2149 C 0.90151 0.27725 0.27818
 N2150 N 0.90932 0.28525 0.26561
 N2151 N 0.92431 0.28043 0.26066
 C2152 C 0.93201 0.26745 0.26811
 N2153 N 0.92413 0.25943 0.28066
 N2154 N 0.90913 0.26426 0.28561
 N2155 N 0.39816 0.81037 0.45955
 C2156 C 0.39455 0.79406 0.45779
 N2157 N 0.40529 0.78414 0.44951
 N2158 N 0.41921 0.79037 0.44315
 C2159 C 0.42287 0.80674 0.44481
 N2160 N 0.41207 0.81660 0.45319
 C2161 C 0.37917 0.78758 0.46395
 C2162 C 0.36603 0.78244 0.46886
 C2163 C 0.35012 0.77671 0.47438
 N2164 N 0.34231 0.76422 0.46628
 N2165 N 0.32713 0.75953 0.47081
 C2166 C 0.31925 0.76718 0.48359
 N2167 N 0.32716 0.77963 0.49172
 N2168 N 0.34233 0.78432 0.48719
 N2169 N 0.39821 0.30973 0.95996
 C2170 C 0.39426 0.29354 0.95786
 N2171 N 0.40469 0.28362 0.94919
 N2172 N 0.41864 0.28973 0.94278
 C2173 C 0.42264 0.30598 0.94478
 N2174 N 0.41215 0.31584 0.95355
 C2175 C 0.37886 0.28721 0.96411
 C2176 C 0.36569 0.28221 0.96910
 C2177 C 0.34976 0.27665 0.97473
 N2178 N 0.34205 0.26381 0.96709
 N2179 N 0.32686 0.25925 0.97171
 C2180 C 0.31887 0.26739 0.98410
 N2181 N 0.32667 0.28018 0.99178
 N2182 N 0.34185 0.28474 0.98716
 N2183 N 0.80151 0.46613 0.40345
 C2184 C 0.79317 0.45592 0.39304
 N2185 N 0.79110 0.43980 0.39728
 N2186 N 0.79725 0.43404 0.41149
 C2187 C 0.80570 0.44419 0.42197
 N2188 N 0.80766 0.46037 0.41767
 C2189 C 0.78712 0.46192 0.37742
 C2190 C 0.78226 0.46676 0.36413
 C2191 C 0.77676 0.47229 0.34814
 N2192 N 0.76414 0.46442 0.34031
 N2193 N 0.75943 0.46917 0.32519
 C2194 C 0.76719 0.48192 0.31740
 N2195 N 0.77979 0.48980 0.32531
 N2196 N 0.78450 0.48506 0.34042
 N2197 N 0.80322 0.96471 0.90241
 C2198 C 0.79453 0.95468 0.89210
 N2199 N 0.79230 0.93857 0.89630
 N2200 N 0.79861 0.93264 0.91037
 C2201 C 0.80740 0.94261 0.92074
 N2202 N 0.80953 0.95878 0.91648
 C2203 C 0.78830 0.96086 0.87662
 C2204 C 0.78329 0.96585 0.86345
 C2205 C 0.77761 0.97155 0.84758
 N2206 N 0.76484 0.96384 0.83984
 N2207 N 0.76000 0.96871 0.82481
 C2208 C 0.76778 0.98145 0.81701
 N2209 N 0.78053 0.98918 0.82482
 N2210 N 0.78537 0.98430 0.83985
 N2211 N 0.28399 0.80177 0.34600
 C2212 C 0.29396 0.79319 0.35645
 N2213 N 0.31010 0.79100 0.35239
 N2214 N 0.31612 0.79724 0.33832
 C2215 C 0.30621 0.80593 0.32781
 N2216 N 0.29000 0.80801 0.33193
 C2217 C 0.28772 0.78709 0.37197
 C2218 C 0.28278 0.78220 0.38522
 C2219 C 0.27730 0.77667 0.40122
 N2220 N 0.28543 0.76431 0.40918
 N2221 N 0.28090 0.75974 0.42440
 C2222 C 0.26808 0.76739 0.43219
 N2223 N 0.25990 0.77972 0.42415
 N2224 N 0.26444 0.78429 0.40893
 N2225 N 0.31029 0.29162 0.85354
 C2226 C 0.29404 0.29360 0.85725
 N2227 N 0.28420 0.30206 0.84657
 N2228 N 0.29045 0.30837 0.83263
 C2229 C 0.30677 0.30649 0.82888
 N2230 N 0.31654 0.29793 0.83961
 C2231 C 0.28754 0.28742 0.87262
 C2232 C 0.28242 0.28247 0.88577
 C2233 C 0.27675 0.27686 0.90168
 N2234 N 0.26412 0.28473 0.90949
 N2235 N 0.25948 0.28012 0.92468
 C2236 C 0.26734 0.26750 0.93257
 N2237 N 0.27993 0.25959 0.92467
 N2238 N 0.28456 0.26420 0.90949
 N2239 N 0.43946 0.29117 0.89741
 C2240 C 0.45558 0.29326 0.89318
 N2241 N 0.46577 0.30157 0.90364
 N2242 N 0.45999 0.30766 0.91788
 C2243 C 0.44381 0.30567 0.92216
 N2244 N 0.43369 0.29726 0.91164
 C2245 C 0.46160 0.28724 0.87754
 C2246 C 0.46643 0.28239 0.86425
 C2247 C 0.47193 0.27686 0.84825
 N2248 N 0.48466 0.28461 0.84047
 N2249 N 0.48937 0.27987 0.82535
 C2250 C 0.48150 0.26722 0.81749
 N2251 N 0.46878 0.25946 0.82534
 N2252 N 0.46407 0.26420 0.84046
 N2253 N 0.96549 0.30149 0.40307
 C2254 C 0.95528 0.29324 0.39259
 N2255 N 0.93915 0.29121 0.39681
 N2256 N 0.93339 0.29729 0.41105
 C2257 C 0.94355 0.30564 0.42159
 N2258 N 0.95973 0.30757 0.41733
 C2259 C 0.96128 0.28723 0.37695
 C2260 C 0.96611 0.28240 0.36364
 C2261 C 0.97159 0.27689 0.34763
 N2262 N 0.96381 0.26416 0.33989
 N2263 N 0.96850 0.25943 0.32476
 C2264 C 0.98112 0.26730 0.31685
 N2265 N 0.98891 0.28003 0.32466
 N2266 N 0.98422 0.28475 0.33979
 N2267 N 0.44648 0.40203 0.78490
 C2268 C 0.45520 0.39166 0.79483
 N2269 N 0.45762 0.39582 0.81093
 N2270 N 0.45146 0.40990 0.81695
 C2271 C 0.44264 0.42034 0.80710
 N2272 N 0.44032 0.41613 0.79093
 C2273 C 0.46129 0.37617 0.78855
 C2274 C 0.46619 0.36298 0.78352
 C2275 C 0.47177 0.34709 0.77781
 N2276 N 0.48442 0.33925 0.78560
 N2277 N 0.48917 0.32420 0.78074
 C2278 C 0.48143 0.31647 0.76793
 N2279 N 0.46879 0.32440 0.76013
 N2280 N 0.46405 0.33945 0.76499
 N2281 N 0.93761 0.39569 0.29177
 C2282 C 0.95387 0.39182 0.29337
 N2283 N 0.96410 0.40255 0.30128
 N2284 N 0.95823 0.41670 0.30746
 C2285 C 0.94191 0.42062 0.30596
 N2286 N 0.93174 0.40984 0.29795
 C2287 C 0.96001 0.37628 0.28728
 C2288 C 0.96497 0.36306 0.28239
 C2289 C 0.97061 0.34715 0.27681
 N2290 N 0.98331 0.33942 0.28464
 N2291 N 0.98814 0.32436 0.27987
 C2292 C 0.98042 0.31651 0.26713
 N2293 N 0.96773 0.32431 0.25929
 N2294 N 0.96290 0.33937 0.26406
 N2295 N 0.31145 0.89748 0.45927
 C2296 C 0.29520 0.89369 0.45739
 N2297 N 0.28530 0.90417 0.44878
 N2298 N 0.29147 0.91801 0.44221
 C2299 C 0.30778 0.92185 0.44398
 N2300 N 0.31763 0.91131 0.45270
 C2301 C 0.28878 0.87838 0.46378
 C2302 C 0.28365 0.86528 0.46885
 C2303 C 0.27790 0.84943 0.47450
 N2304 N 0.26524 0.84170 0.46661
 N2305 N 0.26051 0.82655 0.47123
 C2306 C 0.26830 0.81863 0.48388
 N2307 N 0.28092 0.82646 0.49182
 N2308 N 0.28564 0.84160 0.48720
 N2309 N 0.30988 0.39812 0.95968
 C2310 C 0.29373 0.39403 0.95761
 N2311 N 0.28372 0.40436 0.94894
 N2312 N 0.28970 0.41835 0.94250
 C2313 C 0.30591 0.42250 0.94447
 N2314 N 0.31586 0.41210 0.95324
 C2315 C 0.28753 0.37859 0.96391
 C2316 C 0.28261 0.36540 0.96894
 C2317 C 0.27709 0.34946 0.97458
 N2318 N 0.26428 0.34171 0.96694
 N2319 N 0.25972 0.32653 0.97159
 C2320 C 0.26782 0.31858 0.98403
 N2321 N 0.28059 0.32641 0.99171
 N2322 N 0.28515 0.34160 0.98706
 N2323 N 0.81097 0.35378 0.29218
 C2324 C 0.79474 0.35768 0.29401
 N2325 N 0.78463 0.34706 0.30222
 N2326 N 0.79059 0.33297 0.30845
 C2327 C 0.80687 0.32902 0.30672
 N2328 N 0.81693 0.33970 0.29842
 C2329 C 0.78852 0.37317 0.28787
 C2330 C 0.78350 0.38635 0.28294
 C2331 C 0.77780 0.40223 0.27733
 N2332 N 0.76507 0.40992 0.28515
 N2333 N 0.76020 0.42496 0.28037
 C2334 C 0.76792 0.43282 0.26762
 N2335 N 0.78063 0.42505 0.25978
 N2336 N 0.78550 0.41001 0.26456
   
