data_POSCAR
  _audit_creation_date              2014-09-24
  _audit_creation_method            'ToBaCCo'
  _symmetry_space_group_name_H-M    'P1'
  _symmetry_Int_Tables_number       1
  _symmetry_cell_setting            triclinic
  loop_
  _symmetry_equiv_pos_as_xyz
 x,y,z
_cell_length_a 38.5101
_cell_length_b 39.5086
_cell_length_c 41.5575
_cell_angle_alpha 90.567600
_cell_angle_beta 90.122700
_cell_angle_gamma 89.618600
loop_
  _atom_site_label
  _atom_site_type_symbol
  _atom_site_fract_x
  _atom_site_fract_y
  _atom_site_fract_z
N1 N 0.32697 0.32970 0.33688
 N2 N 0.35205 0.84844 -0.14571
 N3 N 0.83114 0.33324 -0.15788
 N4 N 0.84462 0.83818 0.35075
 N5 N 0.65918 0.64805 0.35373
 N6 N 0.63716 0.15163 -0.14300
 N7 N 0.14584 0.64770 -0.14738
 N8 N 0.16092 0.15219 0.33861
 N9 N 0.65899 0.35145 0.64997
 N10 N 0.66305 0.84165 1.15828
 N11 N 0.15485 0.35725 1.14893
 N12 N 0.15918 0.84964 0.65561
 N13 N 0.33329 0.66109 0.66315
 N14 N 0.33156 0.16970 1.16346
 N15 N 0.84533 0.66730 1.15505
 N16 N 0.83810 0.15588 0.64599
 N17 N 0.33560 0.33974 0.64940
 N18 N 0.35546 0.83989 0.14563
 N19 N 0.83782 0.33829 0.15207
 N20 N 0.83653 0.84628 0.66122
 N21 N 0.65632 0.64983 0.65101
 N22 N 0.65640 0.14929 0.15502
 N23 N 0.15765 0.65079 0.14847
 N24 N 0.16144 0.15233 0.65609
 N25 N 0.35085 0.65366 0.35630
 N26 N 0.34314 0.16591 0.84514
 N27 N 0.84994 0.65721 0.85110
 N28 N 0.84628 0.16089 0.34377
 N29 N 0.67171 0.34248 0.33376
 N30 N 0.66459 0.84151 0.84066
 N31 N 0.16426 0.32874 0.83564
 N32 N 0.16366 0.85118 0.34976
 O33 O 0.25715 1.03116 0.27958
 O34 O 0.29851 0.96416 0.23024
 O35 O 0.29573 1.03127 0.22952
 O36 O 0.26067 0.96553 0.28241
 O37 O 0.21506 0.96091 0.25032
 O38 O 0.24866 1.02903 0.19931
 O39 O 0.25284 0.96283 0.19837
 O40 O 0.20976 1.02691 0.24970
 Cu41 Cu 0.28296 0.99804 0.25828
 Cu42 Cu 0.22700 0.99439 0.22130
 C43 C 0.22653 1.04077 0.27258
 C44 C 0.28250 0.95152 0.20621
 C45 C 0.27720 1.04295 0.20680
 C46 C 0.23192 0.95193 0.27516
 O47 O 0.20037 0.46339 0.75147
 O48 O 0.24587 0.53262 0.71107
 O49 O 0.24707 0.46566 0.70760
 O50 O 0.20030 0.52940 0.75667
 O51 O 0.24125 0.52657 0.79389
 O52 O 0.28869 0.46438 0.74416
 O53 O 0.28687 0.53100 0.74822
 O54 O 0.24194 0.46106 0.78815
 Cu55 Cu 0.21937 0.49817 0.72788
 Cu56 Cu 0.26902 0.49572 0.77213
 C57 C 0.21402 0.44970 0.77598
 C58 C 0.27339 0.54449 0.72350
 C59 C 0.27501 0.45285 0.71853
 C60 C 0.21275 0.53866 0.78368
 O61 O 0.75095 -0.03283 0.30036
 O62 O 0.70960 0.03198 0.25027
 O63 O 0.71013 -0.03428 0.25085
 O64 O 0.75425 0.03252 0.29788
 O65 O 0.79842 0.02999 0.26423
 O66 O 0.75439 -0.03623 0.21705
 O67 O 0.75367 0.02984 0.21643
 O68 O 0.79473 -0.03610 0.26636
 Cu69 Cu 0.72676 -0.00014 0.27811
 Cu70 Cu 0.77982 -0.00302 0.23770
 C71 C 0.77915 -0.04656 0.29131
 C72 C 0.72422 0.04176 0.22470
 C73 C 0.72522 -0.04708 0.22637
 C74 C 0.78424 0.04220 0.28934
 O75 O 0.79716 0.53327 0.76329
 O76 O 0.75348 0.46820 0.71440
 O77 O 0.75504 0.53384 0.71503
 O78 O 0.79483 0.46692 0.76426
 O79 O 0.75034 0.46942 0.79762
 O80 O 0.70946 0.53453 0.74726
 O81 O 0.70916 0.46881 0.74816
 O82 O 0.75175 0.53591 0.79561
 Cu83 Cu 0.77979 0.50017 0.73607
 Cu84 Cu 0.72578 0.50226 0.77562
 C85 C 0.78126 0.54670 0.78694
 C86 C 0.72393 0.45753 0.72294
 C87 C 0.72555 0.54577 0.72301
 C88 C 0.77934 0.45669 0.78929
 O89 O 0.25366 0.47065 0.21371
 O90 O 0.29646 0.53375 0.26532
 O91 O 0.29192 0.46662 0.26417
 O92 O 0.25630 0.53544 0.21468
 O93 O 0.21082 0.53911 0.24695
 O94 O 0.24535 0.46899 0.29499
 O95 O 0.25068 0.53557 0.29715
 O96 O 0.20674 0.47440 0.24416
 Cu97 Cu 0.27971 0.50157 0.23677
 Cu98 Cu 0.22402 0.50480 0.27435
 C99 C 0.22262 0.46234 0.21982
 C100 C 0.28043 0.54628 0.28933
 C101 C 0.27364 0.45477 0.28677
 C102 C 0.22706 0.54839 0.22205
 O103 O 0.70237 0.97257 0.75783
 O104 O 0.73930 1.04137 0.70958
 O105 O 0.74148 0.97487 0.70860
 O106 O 0.69651 1.03830 0.75882
 O107 O 0.74109 1.04026 0.79220
 O108 O 0.78675 0.97705 0.74131
 O109 O 0.78374 1.04401 0.74318
 O110 O 0.74738 0.97513 0.79070
 Cu111 Cu 0.71540 1.00711 0.73031
 Cu112 Cu 0.76946 1.00985 0.76988
 C113 C 0.71952 0.96103 0.78156
 C114 C 0.76776 1.05459 0.71850
 C115 C 0.77093 0.96379 0.71747
 C116 C 0.71043 1.04921 0.78458
 O117 O 0.75243 0.53443 0.27886
 O118 O 0.78999 0.47128 0.22302
 O119 O 0.78983 0.53762 0.22683
 O120 O 0.74981 0.46895 0.27309
 O121 O 0.70305 0.47268 0.24239
 O122 O 0.74426 0.53942 0.19487
 O123 O 0.74346 0.47338 0.19240
 O124 O 0.70668 0.53888 0.24694
 Cu125 Cu 0.77525 0.50279 0.25341
 Cu126 Cu 0.71969 0.50647 0.21612
 C127 C 0.72331 0.54774 0.27211
 C128 C 0.77304 0.46069 0.19868
 C129 C 0.77368 0.55068 0.20320
 C130 C 0.71970 0.45886 0.26520
 O131 O 0.29668 0.03527 0.76581
 O132 O 0.25773 -0.03436 0.71856
 O133 O 0.25908 0.03149 0.71439
 O134 O 0.30030 -0.03043 0.76763
 O135 O 0.25477 -0.02914 0.79986
 O136 O 0.21286 0.03259 0.74586
 O137 O 0.21239 -0.03331 0.75107
 O138 O 0.25049 0.03675 0.79732
 Cu139 Cu 0.28306 0.00013 0.73843
 Cu140 Cu 0.22797 0.00168 0.77664
 C141 C 0.27969 0.04840 0.78904
 C142 C 0.22847 -0.04587 0.72716
 C143 C 0.22936 0.04323 0.72152
 C144 C 0.28500 -0.04003 0.79290
 O145 O 0.20914 0.26226 1.03065
 O146 O 0.26115 0.21376 0.97253
 O147 O 0.25826 0.21828 1.03466
 O148 O 0.21332 0.25943 0.96703
 O149 O 0.25232 0.30012 0.96792
 O150 O 0.29814 0.25824 1.03431
 O151 O 0.30040 0.25406 0.97141
 O152 O 0.24884 0.30237 1.03134
 Cu153 Cu 0.23132 0.23456 1.00110
 Cu154 Cu 0.27876 0.28287 1.00115
 C155 C 0.22108 0.28962 1.04225
 C156 C 0.28929 0.22554 0.96159
 C157 C 0.28523 0.23189 1.04659
 C158 C 0.22615 0.28603 0.95506
 O159 O 0.25027 0.79442 0.47220
 O160 O 0.29157 0.74583 0.53778
 O161 O 0.29812 0.74734 0.47485
 O162 O 0.25101 0.79746 0.53513
 O163 O 0.20700 0.76187 0.53238
 O164 O 0.25595 0.70980 0.47336
 O165 O 0.24784 0.70990 0.53605
 O166 O 0.20832 0.75674 0.46952
 Cu167 Cu 0.27711 0.77479 0.50490
 Cu168 Cu 0.22555 0.73091 0.50246
 C169 C 0.22197 0.78386 0.45986
 C170 C 0.27567 0.72037 0.54894
 C171 C 0.28548 0.72002 0.46395
 C172 C 0.22141 0.78796 0.54451
 O173 O 0.29550 0.74626 -0.03624
 O174 O 0.25108 0.70240 0.02957
 O175 O 0.24553 0.70250 -0.03342
 O176 O 0.30044 0.74682 0.02627
 O177 O 0.26114 0.78762 0.02952
 O178 O 0.20787 0.74467 -0.03204
 O179 O 0.21138 0.74300 0.03100
 O180 O 0.25760 0.78838 -0.03273
 Cu181 Cu 0.27695 0.72027 -0.00370
 Cu182 Cu 0.23054 0.76999 -0.00065
 C183 C 0.28406 0.77469 -0.04571
 C184 C 0.22352 0.71516 0.04134
 C185 C 0.21747 0.71613 -0.04325
 C186 C 0.29014 0.77499 0.03790
 O187 O 0.20017 0.23353 0.46544
 O188 O 0.24357 0.28600 0.52695
 O189 O 0.24559 0.28141 0.46304
 O190 O 0.20001 0.23615 0.52781
 O191 O 0.24326 0.19942 0.52959
 O192 O 0.28854 0.24423 0.46558
 O193 O 0.28686 0.24911 0.52907
 O194 O 0.24292 0.19624 0.46784
 Cu195 Cu 0.21828 0.26332 0.49562
 Cu196 Cu 0.26997 0.21885 0.49823
 C197 C 0.21384 0.20573 0.45635
 C198 C 0.27188 0.27585 0.53933
 C199 C 0.27405 0.26940 0.45230
 C200 C 0.21386 0.20970 0.53955
 O201 O 0.74930 0.80031 0.96650
 O202 O 0.79998 0.75964 1.03059
 O203 O 0.79863 0.75503 0.96805
 O204 O 0.75001 0.80377 1.02924
 O205 O 0.71055 0.76356 1.03087
 O206 O 0.76027 0.71396 0.97114
 O207 O 0.76049 0.71960 1.03383
 O208 O 0.71106 0.75892 0.96806
 Cu209 Cu 0.77836 0.78380 0.99824
 Cu210 Cu 0.73169 0.73490 1.00114
 C211 C 0.72176 0.78642 0.95618
 C212 C 0.78828 0.73331 1.04389
 C213 C 0.78788 0.72601 0.95936
 C214 C 0.72209 0.79188 1.04067
 O215 O 0.75864 0.30599 0.46662
 O216 O 0.79694 0.25087 0.52814
 O217 O 0.79855 0.25296 0.46524
 O218 O 0.75386 0.30225 0.52903
 O219 O 0.70875 0.26840 0.52465
 O220 O 0.75367 0.21844 0.46216
 O221 O 0.75135 0.21729 0.52532
 O222 O 0.71422 0.27133 0.46201
 Cu223 Cu 0.78153 0.28137 0.49785
 Cu224 Cu 0.72746 0.24047 0.49334
 C225 C 0.73077 0.29720 0.45268
 C226 C 0.78063 0.22496 0.53739
 C227 C 0.78326 0.22778 0.45239
 C228 C 0.72340 0.29385 0.53744
 O229 O 0.76030 0.28449 0.03154
 O230 O 0.70110 0.24245 -0.02587
 O231 O 0.70780 0.24304 0.03692
 O232 O 0.75117 0.28511 -0.03076
 O233 O 0.78645 0.24109 -0.03633
 O234 O 0.74627 0.20135 0.03429
 O235 O 0.73683 0.19850 -0.02799
 O236 O 0.79783 0.24267 0.02577
 Cu237 Cu 0.72643 0.26810 0.00355
 Cu238 Cu 0.77057 0.21665 -0.00138
 C239 C 0.78920 0.27066 0.03867
 C240 C 0.70907 0.21327 -0.03678
 C241 C 0.72001 0.21533 0.04746
 C242 C 0.77528 0.26967 -0.04575
 O243 O 0.80112 0.74971 0.47484
 O244 O 0.75035 0.70274 0.53425
 O245 O 0.75440 0.70284 0.47197
 O246 O 0.79660 0.74980 0.53810
 O247 O 0.75527 0.78872 0.53654
 O248 O 0.71270 0.74154 0.47076
 O249 O 0.70926 0.74197 0.53281
 O250 O 0.76002 0.78890 0.47320
 Cu251 Cu 0.77997 0.72256 0.50492
 Cu252 Cu 0.73039 0.76947 0.50290
 C253 C 0.78900 0.77709 0.46357
 C254 C 0.72115 0.71424 0.54361
 C255 C 0.72601 0.71398 0.46053
 C256 C 0.78232 0.77637 0.54956
 O257 O 0.96834 0.26039 0.20856
 O258 O 1.03991 0.21580 0.24928
 O259 O 0.97151 0.21331 0.25101
 O260 O 1.03521 0.26236 0.20569
 O261 O 1.03519 0.30140 0.24405
 O262 O 0.97050 0.25262 0.28909
 O263 O 1.03910 0.25435 0.28798
 O264 O 0.96806 0.29952 0.24696
 Cu265 Cu 1.00397 0.23383 0.22499
 Cu266 Cu 1.00358 0.28069 0.27111
 C267 C 0.95569 0.28721 0.22108
 C268 C 1.05229 0.22790 0.27527
 C269 C 0.95869 0.22545 0.27680
 C270 C 1.04549 0.29060 0.21677
 O271 O 0.46243 0.25830 0.78083
 O272 O 0.53522 0.29675 0.73809
 O273 O 0.46764 0.29813 0.73214
 O274 O 0.52925 0.25472 0.78603
 O275 O 0.53130 0.21142 0.75201
 O276 O 0.46925 0.25441 0.69868
 O277 O 0.53684 0.25339 0.70421
 O278 O 0.46378 0.21459 0.74737
 Cu279 Cu 0.49867 0.28145 0.76254
 Cu280 Cu 0.50064 0.22909 0.72216
 C281 C 0.45024 0.23023 0.77117
 C282 C 0.54866 0.28161 0.71406
 C283 C 0.45753 0.28344 0.70647
 C284 C 0.54035 0.22540 0.77830
 O285 O -0.03843 0.28550 0.75342
 O286 O 0.03316 0.24359 0.71038
 O287 O -0.03394 0.24278 0.70522
 O288 O 0.03002 0.28418 0.75838
 O289 O 0.02651 0.24174 0.79237
 O290 O -0.03634 0.19993 0.73872
 O291 O 0.03132 0.20101 0.74429
 O292 O -0.04171 0.24245 0.78668
 Cu293 Cu -0.00241 0.26853 0.72869
 Cu294 Cu -0.00565 0.21707 0.76897
 C295 C -0.05302 0.27074 0.77669
 C296 C 0.04554 0.21595 0.72082
 C297 C -0.04564 0.21390 0.71267
 C298 C 0.04066 0.26895 0.78337
 O299 O 0.53619 0.25041 0.29564
 O300 O 0.46691 0.20628 0.25182
 O301 O 0.53405 0.20514 0.24897
 O302 O 0.46718 0.25374 0.29372
 O303 O 0.46893 0.29345 0.25676
 O304 O 0.53548 0.24539 0.21248
 O305 O 0.46780 0.24563 0.21440
 O306 O 0.53752 0.28999 0.25858
 Cu307 Cu 0.50150 0.22523 0.27657
 Cu308 Cu 0.50275 0.27271 0.23202
 C309 C 0.54955 0.27691 0.28414
 C310 C 0.45456 0.21918 0.22640
 C311 C 0.54578 0.21696 0.22282
 C312 C 0.45498 0.28068 0.28139
 O313 O 0.96620 0.76127 0.71086
 O314 O 1.03294 0.71206 0.75357
 O315 O 0.96572 0.71409 0.75394
 O316 O 1.03326 0.75799 0.70841
 O317 O 1.03511 0.79791 0.74586
 O318 O 0.96916 0.75279 0.79258
 O319 O 1.03615 0.75217 0.79086
 O320 O 0.96766 0.80022 0.74935
 Cu321 Cu 0.99943 0.73239 0.72785
 Cu322 Cu 1.00233 0.77985 0.77339
 C323 C 0.95558 0.78914 0.72285
 C324 C 1.04532 0.72341 0.77987
 C325 C 0.95643 0.72559 0.78123
 C326 C 1.04509 0.78589 0.71894
 O327 O 0.54087 0.78642 0.24898
 O328 O 0.47079 0.74622 0.29467
 O329 O 0.53740 0.74464 0.29661
 O330 O 0.47245 0.78915 0.24702
 O331 O 0.47338 0.74709 0.21157
 O332 O 0.53695 0.70202 0.26190
 O333 O 0.46972 0.70429 0.25904
 O334 O 0.54082 0.74391 0.21423
 Cu335 Cu 0.50524 0.77117 0.27507
 Cu336 Cu 0.50512 0.72014 0.23312
 C337 C 0.55353 0.77160 0.22434
 C338 C 0.45885 0.71807 0.28489
 C339 C 0.54764 0.71530 0.28804
 C340 C 0.46204 0.77578 0.22085
 O341 O -0.02837 0.79333 0.25610
 O342 O 0.04138 0.74995 0.21112
 O343 O -0.02544 0.74757 0.21133
 O344 O 0.03989 0.79530 0.25737
 O345 O 0.04166 0.75492 0.29359
 O346 O -0.02562 0.70820 0.24877
 O347 O 0.04164 0.70922 0.24714
 O348 O -0.02618 0.75393 0.29347
 Cu349 Cu 0.00697 0.77580 0.23049
 Cu350 Cu 0.00835 0.72763 0.27454
 C351 C -0.03967 0.78060 0.28196
 C352 C 0.05238 0.72149 0.22086
 C353 C -0.03677 0.71986 0.22229
 C354 C 0.05179 0.78341 0.28347
 O355 O 0.47078 0.79486 0.75485
 O356 O 0.53259 0.74491 0.70576
 O357 O 0.46535 0.74978 0.70864
 O358 O 0.53813 0.79110 0.74997
 O359 O 0.53722 0.75207 0.78775
 O360 O 0.46668 0.70876 0.74435
 O361 O 0.53428 0.70594 0.74357
 O362 O 0.47001 0.75398 0.79065
 Cu363 Cu 0.50149 0.77424 0.72612
 Cu364 Cu 0.50180 0.72611 0.77026
 C365 C 0.46019 0.78299 0.78138
 C366 C 0.54442 0.71723 0.71675
 C367 C 0.45414 0.72183 0.71900
 C368 C 0.55020 0.77851 0.77568
 C369 C 0.41955 0.30124 0.32745
 C370 C 0.38845 0.31275 0.34095
 C371 C 0.35900 0.31843 0.32177
 C372 C 0.36108 0.31217 0.28811
 C373 C 0.39285 0.30096 0.27425
 C374 C 0.42241 0.29558 0.29424
 C375 C 0.39327 0.29378 0.24091
 N376 N 0.36405 0.29748 0.22306
 N377 N 0.33424 0.30754 0.23619
 C378 C 0.33173 0.31478 0.26801
 H379 H 0.44160 0.29664 0.34308
 H380 H 0.38724 0.31718 0.36668
 H381 H 0.41611 0.28472 0.22869
 H382 H 0.30651 0.32136 0.27724
 C383 C 0.40808 0.81941 0.78579
 C384 C 0.38194 0.83545 0.80336
 C385 C 0.38203 0.83507 0.83716
 C386 C 0.41115 0.82105 0.85336
 C387 C 0.43793 0.80475 0.83542
 C388 C 0.43547 0.80279 0.80135
 C389 C 0.46693 0.79207 0.85228
 N390 N 0.46869 0.79537 0.88473
 N391 N 0.44371 0.81088 0.90146
 C392 C 0.41522 0.82403 0.88689
 H393 H 0.40607 0.81877 0.75977
 H394 H 0.36036 0.84666 0.79046
 H395 H 0.48872 0.78042 0.84009
 H396 H 0.39679 0.83769 0.90162
 C397 C -0.08561 0.28696 0.82562
 C398 C -0.11375 0.30177 0.84143
 C399 C -0.14120 0.31659 0.82421
 C400 C -0.14093 0.31463 0.79000
 C401 C -0.11216 0.29951 0.77386
 C402 C -0.08392 0.28632 0.79200
 C403 C -0.11346 0.29673 0.74003
 N404 N -0.14140 0.30853 0.72368
 N405 N -0.16843 0.32245 0.73879
 C406 C -0.16927 0.32563 0.77127
 H407 H -0.06459 0.27646 0.83983
 H408 H -0.11369 0.30259 0.86748
 H409 H -0.09308 0.28461 0.72630
 H410 H -0.19272 0.33549 0.78189
 C411 C -0.06574 0.80872 0.32956
 C412 C -0.09392 0.82239 0.34634
 C413 C -0.12713 0.82323 0.33251
 C414 C -0.13208 0.80939 0.30119
 C415 C -0.10324 0.79631 0.28378
 C416 C -0.06987 0.79607 0.29822
 C417 C -0.10907 0.78272 0.25279
 N418 N -0.14166 0.78193 0.24045
 N419 N -0.16881 0.79353 0.25706
 C420 C -0.16516 0.80699 0.28700
 H421 H -0.04044 0.80823 0.34101
 H422 H -0.08989 0.83259 0.37034
 H423 H -0.08819 0.77241 0.23836
 H424 H -0.18827 0.81491 0.29953
 C425 C 0.59904 0.71551 0.32377
 C426 C 0.62576 0.69938 0.34034
 C427 C 0.62781 0.66393 0.34142
 C428 C 0.59965 0.64474 0.32907
 C429 C 0.57203 0.66120 0.31260
 C430 C 0.57289 0.69682 0.30843
 C431 C 0.54384 0.64143 0.30197
 N432 N 0.54378 0.60761 0.30711
 N433 N 0.56967 0.59226 0.32255
 C434 C 0.59739 0.60968 0.33388
 H435 H 0.59969 0.74282 0.32174
 H436 H 0.64633 0.71467 0.35055
 H437 H 0.52129 0.65245 0.29060
 H438 H 0.61652 0.59612 0.34767
 C439 C 0.59609 0.19615 0.78734
 C440 C 0.61962 0.17836 0.80627
 C441 C 0.61193 0.17050 0.83834
 C442 C 0.57957 0.18102 0.85143
 C443 C 0.55572 0.19960 0.83221
 C444 C 0.56430 0.20723 0.79993
 C445 C 0.52345 0.20874 0.84568
 N446 N 0.51584 0.19993 0.87630
 N447 N 0.53811 0.18236 0.89423
 C448 C 0.56957 0.17246 0.88281
 H449 H 0.60293 0.20160 0.76267
 H450 H 0.64421 0.17073 0.79581
 H451 H 0.50399 0.22235 0.83212
 H452 H 0.58606 0.15746 0.89819
 C453 C 1.10089 0.71803 0.80909
 C454 C 1.12517 0.69995 0.82701
 C455 C 1.11932 0.66611 0.83514
 C456 C 1.08794 0.65045 0.82539
 C457 C 1.06326 0.66877 0.80696
 C458 C 1.07019 0.70275 0.79841
 C459 C 1.03183 0.65271 0.79886
 N460 N 1.02593 0.62055 0.80838
 N461 N 1.04911 0.60343 0.82569
 C462 C 1.07978 0.61731 0.83464
 H463 H 1.10634 0.74409 0.80310
 H464 H 1.14903 0.71225 0.83424
 H465 H 1.01154 0.66544 0.78563
 H466 H 1.09701 0.60256 0.84953
 C467 C 1.08264 0.17505 0.28990
 C468 C 1.10893 0.15681 0.30491
 C469 C 1.13557 0.17310 0.32198
 C470 C 1.13630 0.20921 0.32248
 C471 C 1.10973 0.22788 0.30643
 C472 C 1.08203 0.21046 0.29092
 C473 C 1.11262 0.26340 0.30543
 N474 N 1.13937 0.27911 0.32046
 N475 N 1.16374 0.26178 0.33606
 C476 C 1.16324 0.22755 0.33747
 H477 H 1.06207 0.16120 0.27789
 H478 H 1.10777 0.12946 0.30410
 H479 H 1.09458 0.27900 0.29224
 H480 H 1.18452 0.21538 0.34964
 C481 C 0.57539 0.33226 0.69089
 C482 C 0.60210 0.34920 0.67558
 C483 C 0.63235 0.33214 0.66587
 C484 C 0.63645 0.29737 0.67352
 C485 C 0.60901 0.27992 0.68894
 C486 C 0.57804 0.29761 0.69728
 C487 C 0.61432 0.24570 0.69691
 N488 N 0.64495 0.23024 0.68995
 N489 N 0.67080 0.24672 0.67600
 C490 C 0.66771 0.27973 0.66784
 H491 H 0.55220 0.34635 0.69755
 H492 H 0.59903 0.37594 0.67067
 H493 H 0.59490 0.23116 0.70918
 H494 H 0.69015 0.29188 0.65798
 C495 C 0.58287 0.82276 0.20506
 C496 C 0.60913 0.83962 0.18910
 C497 C 0.63634 0.82197 0.17392
 C498 C 0.63714 0.78593 0.17562
 C499 C 0.61066 0.76870 0.19280
 C500 C 0.58285 0.78743 0.20702
 C501 C 0.61389 0.73336 0.19630
 N502 N 0.64074 0.71642 0.18244
 N503 N 0.66495 0.73235 0.16573
 C504 C 0.66419 0.76637 0.16198
 H505 H 0.56208 0.83762 0.21579
 H506 H 0.60788 0.86696 0.18808
 H507 H 0.59607 0.71888 0.21052
 H508 H 0.68539 0.77745 0.14913
 C509 C 1.09821 0.32545 0.21494
 C510 C 1.12461 0.34176 0.19864
 C511 C 1.12460 0.34360 0.16488
 C512 C 1.09537 0.33130 0.14763
 C513 C 1.06834 0.31459 0.16429
 C514 C 1.07061 0.31062 0.19817
 C515 C 1.03932 0.30353 0.14650
 N516 N 1.03774 0.30874 0.11434
 N517 N 1.06293 0.32464 0.09882
 C518 C 1.09149 0.33629 0.11437
 H519 H 1.10014 0.32319 0.24086
 H520 H 1.14629 0.35147 0.21247
 H521 H 1.01741 0.29161 0.15777
 H522 H 1.11013 0.35031 0.10067
 C523 C 1.09669 0.78456 0.68392
 C524 C 1.12404 0.79987 0.66803
 C525 C 1.12747 0.83521 0.66802
 C526 C 1.10051 0.85546 0.68152
 C527 C 1.07229 0.83982 0.69742
 C528 C 1.07140 0.80400 0.69988
 C529 C 1.04529 0.86069 0.70927
 N530 N 1.04695 0.89472 0.70587
 N531 N 1.07345 0.90932 0.69106
 C532 C 1.10009 0.89088 0.67860
 H533 H 1.09612 0.75717 0.68484
 H534 H 1.14397 0.78390 0.65738
 H535 H 1.02237 0.85045 0.72033
 H536 H 1.11992 0.90411 0.66559
 C537 C 0.39710 0.72493 0.69239
 C538 C 0.36797 0.71032 0.67838
 C539 C 0.36607 0.67522 0.67354
 C540 C 0.39574 0.65492 0.68004
 C541 C 0.42548 0.66979 0.69451
 C542 C 0.42545 0.70495 0.70176
 C543 C 0.45472 0.64909 0.70009
 N544 N 0.45404 0.61586 0.69169
 N545 N 0.42631 0.60204 0.67777
 C546 C 0.39730 0.62045 0.67146
 H547 H 0.39692 0.75195 0.69713
 H548 H 0.34581 0.72629 0.67289
 H549 H 0.47844 0.65903 0.71025
 H550 H 0.37634 0.60816 0.65883
 C551 C 0.42277 0.19815 0.17854
 C552 C 0.39299 0.18616 0.16326
 C553 C 0.36240 0.18051 0.18060
 C554 C 0.36200 0.18709 0.21423
 C555 C 0.39233 0.19920 0.22987
 C556 C 0.42303 0.20455 0.21172
 C557 C 0.39019 0.20726 0.26296
 N558 N 0.35995 0.20321 0.27901
 N559 N 0.33154 0.19200 0.26425
 C560 C 0.33150 0.18399 0.23249
 H561 H 0.44584 0.20254 0.16433
 H562 H 0.39367 0.18141 0.13756
 H563 H 0.41182 0.21738 0.27628
 H564 H 0.30731 0.17636 0.22176
 C565 C -0.09446 0.69333 0.22117
 C566 C -0.12311 0.68040 0.20484
 C567 C -0.12246 0.67561 0.17134
 C568 C -0.09082 0.68059 0.15462
 C569 C -0.06176 0.69423 0.17121
 C570 C -0.06423 0.70174 0.20452
 C571 C -0.03076 0.69894 0.15400
 N572 N -0.02906 0.69014 0.12243
 N573 N -0.05609 0.67670 0.10704
 C574 C -0.08677 0.67142 0.12209
 H575 H -0.09659 0.69849 0.24676
 H576 H -0.14682 0.67602 0.21809
 H577 H -0.00764 0.70875 0.16544
 H578 H -0.10714 0.65907 0.10870
 C579 C -0.09624 0.21794 0.67618
 C580 C -0.12442 0.20401 0.65991
 C581 C -0.12953 0.16889 0.65894
 C582 C -0.10330 0.14737 0.67163
 C583 C -0.07427 0.16156 0.68795
 C584 C -0.07179 0.19726 0.69165
 C585 C -0.04812 0.13941 0.69900
 N586 N -0.05126 0.10556 0.69444
 N587 N -0.07845 0.09232 0.67917
 C588 C -0.10437 0.11204 0.66743
 H589 H -0.09452 0.24524 0.67795
 H590 H -0.14365 0.22092 0.64971
 H591 H -0.02464 0.14851 0.71026
 H592 H -0.12476 0.09990 0.65392
 C593 C 0.31980 0.42007 0.31163
 C594 C 0.33281 0.38980 0.32373
 C595 C 0.31144 0.36146 0.32703
 C596 C 0.27576 0.36411 0.31852
 C597 C 0.26249 0.39494 0.30595
 C598 C 0.28491 0.42316 0.30256
 C599 C 0.22762 0.39568 0.29549
 N600 N 0.20752 0.36784 0.29818
 N601 N 0.21993 0.33909 0.31010
 C602 C 0.25330 0.33619 0.32009
 H603 H 0.33732 0.44119 0.30887
 H604 H 0.36004 0.38821 0.33012
 H605 H 0.21604 0.41767 0.28461
 H606 H 0.26193 0.31180 0.32825
 C607 C 0.28324 -0.09376 0.82254
 C608 C 0.29962 -0.12132 0.83667
 C609 C 0.33531 -0.12082 0.84343
 C610 C 0.35415 -0.09072 0.83793
 C611 C 0.33771 -0.06304 0.82245
 C612 C 0.30222 -0.06530 0.81357
 C613 C 0.35720 -0.03361 0.81721
 N614 N 0.39075 -0.03214 0.82707
 N615 N 0.40601 -0.05795 0.84200
 C616 C 0.38882 -0.08706 0.84793
 H617 H 0.25587 -0.09551 0.81713
 H618 H 0.28454 -0.14380 0.84121
 H619 H 0.34595 -0.01147 0.80612
 H620 H 0.40220 -0.10666 0.86106
 C621 C 0.77117 0.40271 0.81743
 C622 C 0.78364 0.37275 0.83059
 C623 C 0.81938 0.36709 0.83435
 C624 C 0.84264 0.39396 0.82814
 C625 C 0.82997 0.42447 0.81444
 C626 C 0.79401 0.42814 0.80779
 C627 C 0.85371 0.45065 0.80877
 N628 N 0.88769 0.44645 0.81644
 N629 N 0.89945 0.41805 0.82971
 C630 C 0.87808 0.39182 0.83603
 H631 H 0.74352 0.40519 0.81303
 H632 H 0.76542 0.35278 0.83579
 H633 H 0.84557 0.47475 0.79917
 H634 H 0.88885 0.37014 0.84813
 C635 C 0.82992 -0.07825 0.31149
 C636 C 0.84578 -0.10623 0.32536
 C637 C 0.82617 -0.13294 0.33756
 C638 C 0.78930 -0.13132 0.33530
 C639 C 0.77298 -0.10270 0.32099
 C640 C 0.79373 -0.07582 0.30906
 C641 C 0.73649 -0.10311 0.31751
 N642 N 0.71795 -0.12981 0.32799
 N643 N 0.73324 -0.15652 0.34124
 C644 C 0.76812 -0.15832 0.34496
 H645 H 0.84622 -0.05830 0.30229
 H646 H 0.87385 -0.10708 0.32674
 H647 H 0.72219 -0.08326 0.30579
 H648 H 0.77866 -0.18148 0.35429
 C649 C 0.29242 0.57662 0.67604
 C650 C 0.30629 0.60503 0.66141
 C651 C 0.31760 0.63288 0.67971
 C652 C 0.31301 0.63253 0.71371
 C653 C 0.29876 0.60353 0.72864
 C654 C 0.28914 0.57507 0.70953
 C655 C 0.29296 0.60481 0.76213
 N656 N 0.30125 0.63291 0.77933
 N657 N 0.31435 0.66010 0.76535
 C658 C 0.32019 0.66098 0.73324
 H659 H 0.28449 0.55544 0.66104
 H660 H 0.30909 0.60502 0.63549
 H661 H 0.28115 0.58427 0.77491
 H662 H 0.32895 0.68447 0.72342
 C663 C 0.32400 1.07827 0.18484
 C664 C 0.33746 1.10912 0.17511
 C665 C 0.31593 1.13750 0.17118
 C666 C 0.27964 1.13422 0.17621
 C667 C 0.26569 1.10261 0.18579
 C668 C 0.28842 1.07444 0.19070
 C669 C 0.22970 1.10118 0.19206
 N670 N 0.20951 1.12915 0.18882
 N671 N 0.22270 1.15869 0.18016
 C672 C 0.25698 1.16222 0.17401
 H673 H 0.34178 1.05732 0.18870
 H674 H 0.36516 1.11112 0.17122
 H675 H 0.21708 1.07863 0.20013
 H676 H 0.26605 1.18715 0.16837
 C677 C 0.82592 0.58027 0.18449
 C678 C 0.84344 0.60863 0.17375
 C679 C 0.82554 0.63847 0.16605
 C680 C 0.78867 0.63896 0.16829
 C681 C 0.77049 0.60883 0.17595
 C682 C 0.78956 0.57978 0.18626
 C683 C 0.73388 0.60973 0.17409
 N684 N 0.71701 0.63918 0.16796
 N685 N 0.73406 0.66794 0.16381
 C686 C 0.76919 0.66890 0.16427
 H687 H 0.84107 0.55840 0.19170
 H688 H 0.87147 0.60748 0.17196
 H689 H 0.71803 0.58784 0.17773
 H690 H 0.78126 0.69324 0.16229
 C691 C 0.78918 1.07795 0.66736
 C692 C 0.80617 1.10267 0.64976
 C693 C 0.81705 1.13290 0.66445
 C694 C 0.80756 1.13961 0.69690
 C695 C 0.79093 1.11417 0.71501
 C696 C 0.78258 1.08279 0.70019
 C697 C 0.78210 1.12148 0.74720
 N698 N 0.78895 1.15240 0.76002
 N699 N 0.80367 1.17658 0.74275
 C700 C 0.81292 1.17134 0.71163
 H701 H 0.78238 1.05431 0.65558
 H702 H 0.81237 1.09764 0.62475
 H703 H 0.76916 1.10324 0.76211
 H704 H 0.82316 1.19241 0.69855
 C705 C 0.69900 0.56679 0.32450
 C706 C 0.68407 0.59142 0.34453
 C707 C 0.67826 0.62443 0.33353
 C708 C 0.69127 0.63366 0.30298
 C709 C 0.70652 0.60866 0.28273
 C710 C 0.70917 0.57477 0.29317
 C711 C 0.71997 0.61869 0.25299
 N712 N 0.71829 0.65159 0.24416
 N713 N 0.70434 0.67518 0.26331
 C714 C 0.69102 0.66737 0.29246
 H715 H 0.70190 0.54117 0.33321
 H716 H 0.67556 0.58443 0.36837
 H717 H 0.73260 0.60075 0.23718
 H718 H 0.68175 0.68780 0.30749
 C719 C 0.70860 1.10097 0.81857
 C720 C 0.69101 1.12587 0.83617
 C721 C 0.65516 1.12364 0.84150
 C722 C 0.63709 1.09479 0.83007
 C723 C 0.65501 1.06923 0.81238
 C724 C 0.69092 1.07307 0.80561
 C725 C 0.63642 1.04016 0.80296
 N726 N 0.60219 1.03758 0.81004
 N727 N 0.58535 1.06183 0.82621
 C728 C 0.60163 1.09023 0.83657
 H729 H 0.73608 1.10416 0.81412
 H730 H 0.70525 1.14773 0.84472
 H731 H 0.64873 1.01905 0.79075
 H732 H 0.58688 1.10852 0.85043
 C733 C 0.18702 0.59559 0.78722
 C734 C 0.17140 0.62226 0.80387
 C735 C 0.16235 0.61923 0.83642
 C736 C 0.16925 0.58829 0.85232
 C737 C 0.18569 0.56119 0.83541
 C738 C 0.19468 0.56511 0.80261
 C739 C 0.19149 0.53064 0.85173
 N740 N 0.18150 0.52763 0.88283
 N741 N 0.16586 0.55295 0.89859
 C742 C 0.15923 0.58306 0.88438
 H743 H 0.19392 0.59905 0.76220
 H744 H 0.16659 0.64569 0.79129
 H745 H 0.20335 0.50895 0.84000
 H746 H 0.14565 0.60230 0.89814
 C747 C 0.18150 1.06468 0.30888
 C748 C 0.16547 1.09182 0.32483
 C749 C 0.17747 1.12492 0.32093
 C750 C 0.20667 1.13070 0.30118
 C751 C 0.22414 1.10299 0.28645
 C752 C 0.21098 1.06981 0.28992
 C753 C 0.25414 1.10961 0.26838
 N754 N 0.26516 1.14184 0.26479
 N755 N 0.24836 1.16791 0.27817
 C756 C 0.21955 1.16341 0.29624
 H757 H 0.17116 1.03945 0.31171
 H758 H 0.14328 1.08718 0.34009
 H759 H 0.26898 1.08959 0.25711
 H760 H 0.20715 1.18537 0.30659
 C761 C 0.70330 0.39910 0.71623
 C762 C 0.68764 0.37330 0.69851
 C763 C 0.67433 0.37927 0.66763
 C764 C 0.67638 0.41224 0.65464
 C765 C 0.69299 0.43835 0.67243
 C766 C 0.70657 0.43149 0.70337
 C767 C 0.69462 0.47081 0.65893
 N768 N 0.68016 0.47660 0.62970
 N769 N 0.66407 0.45223 0.61323
 C770 C 0.66153 0.42034 0.62475
 H771 H 0.71349 0.39363 0.73996
 H772 H 0.68618 0.34827 0.70879
 H773 H 0.70692 0.49167 0.67143
 H774 H 0.64746 0.40190 0.61066
 C775 C 0.68347 -0.07058 0.18677
 C776 C 0.66857 -0.09767 0.17005
 C777 C 0.67875 -0.13106 0.17640
 C778 C 0.70496 -0.13727 0.19958
 C779 C 0.72097 -0.10975 0.21568
 C780 C 0.70967 -0.07624 0.20953
 C781 C 0.74808 -0.11676 0.23737
 N782 N 0.75785 -0.14919 0.24297
 N783 N 0.74248 -0.17508 0.22812
 C784 C 0.71646 -0.17020 0.20660
 H785 H 0.67486 -0.04502 0.18164
 H786 H 0.64872 -0.09273 0.15217
 H787 H 0.76174 -0.09678 0.24967
 H788 H 0.70535 -0.19203 0.19502
 C789 C 0.22230 0.40683 0.19269
 C790 C 0.20607 0.38125 0.17522
 C791 C 0.17236 0.38580 0.16322
 C792 C 0.15541 0.41738 0.16752
 C793 C 0.17179 0.44341 0.18552
 C794 C 0.20517 0.43757 0.19884
 C795 C 0.15439 0.47468 0.18892
 N796 N 0.12271 0.47919 0.17524
 N797 N 0.10737 0.45468 0.15831
 C798 C 0.12267 0.42397 0.15391
 H799 H 0.24793 0.40211 0.20256
 H800 H 0.21931 0.35717 0.17212
 H801 H 0.16581 0.49574 0.20180
 H802 H 0.10939 0.40527 0.13939
 C803 C 0.20687 -0.07109 0.67642
 C804 C 0.19008 -0.09653 0.65910
 C805 C 0.17927 -0.12628 0.67416
 C806 C 0.18799 -0.13144 0.70694
 C807 C 0.20383 -0.10499 0.72486
 C808 C 0.21292 -0.07448 0.70942
 C809 C 0.21117 -0.11045 0.75756
 N810 N 0.20422 -0.14076 0.77100
 N811 N 0.19068 -0.16607 0.75385
 C812 C 0.18264 -0.16254 0.72228
 H813 H 0.21407 -0.04807 0.66422
 H814 H 0.18431 -0.09260 0.63389
 H815 H 0.22282 -0.09111 0.77239
 H816 H 0.17332 -0.18445 0.70943
 C817 C 0.29540 0.31835 0.42136
 C818 C 0.30829 0.33293 0.39343
 C819 C 0.31485 0.31327 0.36575
 C820 C 0.30807 0.27799 0.36640
 C821 C 0.29591 0.26300 0.39511
 C822 C 0.28942 0.28351 0.42277
 C823 C 0.28900 0.22803 0.39462
 N824 N 0.29339 0.20966 0.36722
 N825 N 0.30394 0.22389 0.34012
 C826 C 0.31118 0.25734 0.33872
 H827 H 0.29019 0.33439 0.44212
 H828 H 0.31303 0.35991 0.39330
 H829 H 0.27977 0.21508 0.41551
 H830 H 0.31826 0.26737 0.31573
 C831 C 0.31168 0.82570 -0.06735
 C832 C 0.32799 0.84357 -0.09164
 C833 C 0.33452 0.82854 -0.12171
 C834 C 0.32244 0.79520 -0.12794
 C835 C 0.30658 0.77667 -0.10289
 C836 C 0.30151 0.79212 -0.07231
 C837 C 0.29477 0.74375 -0.10982
 N838 N 0.29812 0.73063 -0.13991
 N839 N 0.31206 0.74836 -0.16362
 C840 C 0.32399 0.78020 -0.15875
 H841 H 0.30736 0.83808 -0.04432
 H842 H 0.33616 0.86932 -0.08690
 H843 H 0.28234 0.72850 -0.09188
 H844 H 0.33337 0.79365 -0.17930
 C845 C 0.80478 0.31673 -0.07298
 C846 C 0.81808 0.33228 -0.10023
 C847 C 0.81608 0.31651 -0.13053
 C848 C 0.79954 0.28465 -0.13346
 C849 C 0.78670 0.26845 -0.10563
 C850 C 0.78961 0.28469 -0.07517
 C851 C 0.77016 0.23698 -0.10947
 N852 N 0.76656 0.22303 -0.13921
 N853 N 0.77811 0.23850 -0.16536
 C854 C 0.79427 0.26885 -0.16351
 H855 H 0.80671 0.32962 -0.04992
 H856 H 0.83038 0.35673 -0.09774
 H857 H 0.75968 0.22347 -0.08928
 H858 H 0.80209 0.28050 -0.18562
 C859 C 0.81897 0.77413 0.41141
 C860 C 0.83281 0.78884 0.38407
 C861 C 0.83616 0.82409 0.38183
 C862 C 0.82844 0.84449 0.40928
 C863 C 0.81359 0.82951 0.43697
 C864 C 0.80784 0.79413 0.43745
 C865 C 0.80597 0.85043 0.46365
 N866 N 0.81320 0.88394 0.46270
 N867 N 0.82783 0.89782 0.43705
 C868 C 0.83592 0.87924 0.41048
 H869 H 0.81516 0.74698 0.41148
 H870 H 0.83894 0.77272 0.36361
 H871 H 0.79512 0.84042 0.48553
 H872 H 0.84915 0.89167 0.39111
 C873 C 0.72564 0.32429 0.58955
 C874 C 0.71013 0.33817 0.61687
 C875 C 0.67387 0.34057 0.61951
 C876 C 0.65312 0.33190 0.59240
 C877 C 0.66900 0.31811 0.56428
 C878 C 0.70552 0.31284 0.56358
 C879 C 0.64775 0.31122 0.53739
 N880 N 0.61310 0.31723 0.53889
 N881 N 0.59829 0.33013 0.56521
 C882 C 0.61710 0.33790 0.59184
 H883 H 0.75361 0.32105 0.58938
 H884 H 0.72652 0.34532 0.63698
 H885 H 0.65827 0.30216 0.51482
 H886 H 0.60377 0.34981 0.61171
 C887 C 0.72558 0.82385 1.09162
 C888 C 0.71145 0.83574 1.12029
 C889 C 0.67552 0.83466 1.12592
 C890 C 0.65332 0.82458 1.10023
 C891 C 0.66790 0.81162 1.07112
 C892 C 0.70450 0.80995 1.06751
 C893 C 0.64521 0.80182 1.04620
 N894 N 0.61041 0.80504 1.05015
 N895 N 0.59680 0.81773 1.07713
 C896 C 0.61702 0.82785 1.10214
 H897 H 0.75354 0.82375 1.08912
 H898 H 0.72916 0.84404 1.13894
 H899 H 0.65470 0.79258 1.02328
 H900 H 0.60445 0.83940 1.12266
 C901 C 0.19465 0.33994 1.06849
 C902 C 0.17902 0.35635 1.09456
 C903 C 0.17223 0.33909 1.12316
 C904 C 0.18347 0.30501 1.12618
 C905 C 0.19844 0.28795 1.09934
 C906 C 0.20370 0.30566 1.07015
 C907 C 0.20918 0.25405 1.10324
 N908 N 0.20597 0.23887 1.13216
 N909 N 0.19298 0.25527 1.15755
 C910 C 0.18189 0.28780 1.15561
 H911 H 0.19931 0.35399 1.04668
 H912 H 0.17150 0.38268 1.09234
 H913 H 0.22077 0.23957 1.08394
 H914 H 0.17315 0.30003 1.17740
 C915 C 0.22185 0.80515 0.60137
 C916 C 0.20673 0.81976 0.62853
 C917 C 0.17435 0.83595 0.62660
 C918 C 0.15740 0.83838 0.59646
 C919 C 0.17286 0.82349 0.56879
 C920 C 0.20489 0.80609 0.57156
 C921 C 0.15626 0.82752 0.53902
 N922 N 0.12576 0.84478 0.53724
 N923 N 0.11104 0.85852 0.56328
 C924 C 0.12590 0.85606 0.59280
 H925 H 0.24663 0.79226 0.60378
 H926 H 0.22000 0.81791 0.65145
 H927 H 0.16783 0.81789 0.51719
 H928 H 0.11324 0.86839 0.61291
 C929 C 0.32239 0.69050 0.57842
 C930 C 0.33620 0.67593 0.60610
 C931 C 0.31704 0.67498 0.63474
 C932 C 0.28314 0.68924 0.63542
 C933 C 0.26865 0.70315 0.60699
 C934 C 0.28868 0.70390 0.57836
 C935 C 0.23498 0.71721 0.60863
 N936 N 0.21748 0.71775 0.63689
 N937 N 0.23141 0.70540 0.66368
 C938 C 0.26363 0.69141 0.66395
 H939 H 0.33808 0.69120 0.55683
 H940 H 0.36227 0.66550 0.60537
 H941 H 0.22245 0.72822 0.58797
 H942 H 0.27372 0.68282 0.68660
 C943 C 0.30767 0.18326 1.07722
 C944 C 0.31853 0.16806 1.10562
 C945 C 0.32159 0.18691 1.13423
 C946 C 0.31377 0.22212 1.13398
 C947 C 0.30342 0.23777 1.10487
 C948 C 0.30019 0.21793 1.07635
 C949 C 0.29481 0.27252 1.10581
 N950 N 0.29626 0.29006 1.13394
 N951 N 0.30540 0.27524 1.16130
 C952 C 0.31394 0.24196 1.16231
 H953 H 0.30481 0.16775 1.05574
 H954 H 0.32428 0.14119 1.10540
 H955 H 0.28629 0.28598 1.08478
 H956 H 0.31972 0.23138 1.18543
 C957 C 0.81022 0.68330 1.07261
 C958 C 0.82387 0.66729 1.09949
 C959 C 0.83405 0.68581 1.12684
 C960 C 0.83037 0.72171 1.12678
 C961 C 0.81702 0.73815 1.09902
 C962 C 0.80649 0.71853 1.07187
 C963 C 0.81275 0.77361 1.10026
 N964 N 0.82085 0.79114 1.12739
 N965 N 0.83244 0.77567 1.15360
 C966 C 0.83711 0.74168 1.15433
 H967 H 0.80207 0.66792 1.05226
 H968 H 0.82613 0.63995 1.09922
 H969 H 0.80264 0.78780 1.08033
 H970 H 0.84486 0.73089 1.17685
 C971 C 0.77621 0.20111 0.59170
 C972 C 0.79018 0.18459 0.61822
 C973 C 0.82353 0.17016 0.61701
 C974 C 0.84251 0.17124 0.58783
 C975 C 0.82863 0.18881 0.56106
 C976 C 0.79541 0.20421 0.56334
 C977 C 0.84822 0.18967 0.53256
 N978 N 0.87940 0.17360 0.53104
 N979 N 0.89215 0.15661 0.55599
 C980 C 0.87472 0.15474 0.58423
 H981 H 0.75074 0.21275 0.59375
 H982 H 0.77528 0.18392 0.64027
 H983 H 0.83887 0.20251 0.51136
 H984 H 0.88594 0.13985 0.60327
 C985 C 0.72624 0.68961 0.40575
 C986 C 0.71020 0.67347 0.37982
 C987 C 0.67600 0.66168 0.38215
 C988 C 0.65829 0.66505 0.41190
 C989 C 0.67444 0.68200 0.43817
 C990 C 0.70846 0.69484 0.43470
 C991 C 0.65622 0.68472 0.46740
 N992 N 0.62409 0.67120 0.46998
 N993 N 0.60910 0.65500 0.44544
 C994 C 0.62514 0.65134 0.41658
 H995 H 0.75240 0.69906 0.40287
 H996 H 0.72430 0.67107 0.35740
 H997 H 0.66735 0.69701 0.48833
 H998 H 0.61207 0.63719 0.39787
 C999 C 0.67857 0.21603 -0.08881
 C1000 C 0.66165 0.20111 -0.11491
 C1001 C 0.65217 0.16690 -0.11440
 C1002 C 0.65864 0.14788 -0.08619
 C1003 C 0.67631 0.16298 -0.05975
 C1004 C 0.68698 0.19715 -0.06151
 C1005 C 0.68190 0.14351 -0.03202
 N1006 N 0.67053 0.11114 -0.03104
 N1007 N 0.65375 0.09706 -0.05575
 C1008 C 0.64727 0.11434 -0.08317
 H1009 H 0.68659 0.24219 -0.09057
 H1010 H 0.65696 0.21612 -0.13616
 H1011 H 0.69456 0.15385 -0.01090
 H1012 H 0.63268 0.10189 -0.10196
 C1013 C 0.21555 0.68120 -0.09281
 C1014 C 0.19873 0.66464 -0.11801
 C1015 C 0.16239 0.66349 -0.11961
 C1016 C 0.14284 0.67907 -0.09450
 C1017 C 0.15990 0.69828 -0.07005
 C1018 C 0.19690 0.69881 -0.06891
 C1019 C 0.13899 0.71531 -0.04719
 N1020 N 0.10404 0.71153 -0.04765
 N1021 N 0.08841 0.69186 -0.06932
 C1022 C 0.10661 0.67534 -0.09254
 H1023 H 0.24367 0.68091 -0.09251
 H1024 H 0.21439 0.65288 -0.13667
 H1025 H 0.14957 0.73159 -0.02887
 H1026 H 0.09256 0.65886 -0.10867
 C1027 C 0.21912 0.16803 0.40891
 C1028 C 0.20650 0.15511 0.38005
 C1029 C 0.17124 0.15829 0.37179
 C1030 C 0.14776 0.17047 0.39561
 C1031 C 0.16082 0.18477 0.42472
 C1032 C 0.19723 0.18542 0.43035
 C1033 C 0.13676 0.19691 0.44758
 N1034 N 0.10222 0.19454 0.44175
 N1035 N 0.09004 0.18052 0.41479
 C1036 C 0.11159 0.16816 0.39170
 H1037 H 0.24675 0.16631 0.41336
 H1038 H 0.22510 0.14458 0.36322
 H1039 H 0.14487 0.20720 0.47047
 H1040 H 0.10016 0.15559 0.37114
 C1041 C 0.29220 0.42266 0.66842
 C1042 C 0.30616 0.39503 0.65171
 C1043 C 0.31958 0.36692 0.66804
 C1044 C 0.31690 0.36600 0.70221
 C1045 C 0.30212 0.39396 0.71923
 C1046 C 0.29073 0.42302 0.70210
 C1047 C 0.29760 0.39100 0.75279
 N1048 N 0.30790 0.36254 0.76809
 N1049 N 0.32187 0.33650 0.75219
 C1050 C 0.32645 0.33714 0.71991
 H1051 H 0.28279 0.44417 0.65491
 H1052 H 0.30749 0.39592 0.62571
 H1053 H 0.28514 0.41038 0.76712
 H1054 H 0.33598 0.31439 0.70852
 C1055 C 0.33513 0.92263 0.18582
 C1056 C 0.35293 0.89542 0.17207
 C1057 C 0.33528 0.86691 0.16056
 C1058 C 0.29856 0.86574 0.16363
 C1059 C 0.28000 0.89442 0.17584
 C1060 C 0.29878 0.92291 0.18798
 C1061 C 0.24339 0.89251 0.17665
 N1062 N 0.22709 0.86365 0.16764
 N1063 N 0.24469 0.83629 0.15818
 C1064 C 0.27977 0.83623 0.15629
 H1065 H 0.35006 0.94385 0.19487
 H1066 H 0.38094 0.89658 0.17018
 H1067 H 0.22713 0.91297 0.18495
 H1068 H 0.29240 0.81272 0.15009
 C1069 C 0.82420 0.42761 0.18079
 C1070 C 0.83993 0.39769 0.17048
 C1071 C 0.82016 0.37012 0.15963
 C1072 C 0.78355 0.37440 0.15677
 C1073 C 0.76794 0.40643 0.16381
 C1074 C 0.78809 0.43221 0.17907
 C1075 C 0.73260 0.41077 0.15586
 N1076 N 0.71371 0.38412 0.14511
 N1077 N 0.72757 0.35335 0.14193
 C1078 C 0.76166 0.34748 0.14789
 H1079 H 0.84053 0.44709 0.19122
 H1080 H 0.86791 0.39560 0.17229
 H1081 H 0.71956 0.43486 0.15755
 H1082 H 0.77104 0.32178 0.14572
 C1083 C 0.81901 0.93547 0.68792
 C1084 C 0.83476 0.90694 0.67413
 C1085 C 0.81811 0.87548 0.67392
 C1086 C 0.78480 0.87275 0.68809
 C1087 C 0.76835 0.90193 0.70138
 C1088 C 0.78580 0.93352 0.70135
 C1089 C 0.73545 0.89805 0.71560
 N1090 N 0.72053 0.86713 0.71677
 N1091 N 0.73630 0.83973 0.70485
 C1092 C 0.76791 0.84146 0.69075
 H1093 H 0.83285 0.95925 0.68814
 H1094 H 0.86045 0.90919 0.66385
 H1095 H 0.72145 0.91905 0.72606
 H1096 H 0.77956 0.81824 0.68236
 C1097 C 0.67540 0.56906 0.69354
 C1098 C 0.65868 0.59429 0.67615
 C1099 C 0.67567 0.62438 0.66845
 C1100 C 0.70990 0.62982 0.68018
 C1101 C 0.72707 0.60397 0.69779
 C1102 C 0.70965 0.57321 0.70407
 C1103 C 0.76055 0.61054 0.70995
 N1104 N 0.77560 0.64091 0.70480
 N1105 N 0.75933 0.66527 0.68869
 C1106 C 0.72699 0.66088 0.67648
 H1107 H 0.66152 0.54597 0.69868
 H1108 H 0.63219 0.59031 0.66823
 H1109 H 0.77470 0.59225 0.72408
 H1110 H 0.71483 0.68212 0.66493
 C1111 C 0.69246 0.09588 0.22138
 C1112 C 0.67577 0.12166 0.20477
 C1113 C 0.67284 0.12079 0.17107
 C1114 C 0.68564 0.09184 0.15414
 C1115 C 0.70296 0.06553 0.17116
 C1116 C 0.70684 0.06801 0.20508
 C1117 C 0.71434 0.03682 0.15371
 N1118 N 0.70878 0.03472 0.12155
 N1119 N 0.69217 0.05908 0.10573
 C1120 C 0.68018 0.08732 0.12092
 H1121 H 0.69468 0.09805 0.24733
 H1122 H 0.66584 0.14311 0.21840
 H1123 H 0.72689 0.01564 0.16524
 H1124 H 0.66554 0.10520 0.10696
 C1125 C 0.20200 0.60532 0.21561
 C1126 C 0.18512 0.63015 0.19791
 C1127 C 0.17635 0.62462 0.16552
 C1128 C 0.18535 0.59328 0.15065
 C1129 C 0.20307 0.56811 0.16861
 C1130 C 0.21128 0.57435 0.20139
 C1131 C 0.21062 0.53693 0.15341
 N1132 N 0.20101 0.53152 0.12240
 N1133 N 0.18413 0.55502 0.10566
 C1134 C 0.17582 0.58557 0.11874
 H1135 H 0.20787 0.61035 0.24068
 H1136 H 0.17864 0.65393 0.20966
 H1137 H 0.22361 0.51660 0.16588
 H1138 H 0.16123 0.60311 0.10423
 C1139 C 0.18380 0.06555 0.68527
 C1140 C 0.16739 0.09214 0.66929
 C1141 C 0.17959 0.12535 0.67248
 C1142 C 0.21027 0.13143 0.69048
 C1143 C 0.22902 0.10390 0.70363
 C1144 C 0.21452 0.07106 0.70253
 C1145 C 0.26153 0.11042 0.71786
 N1146 N 0.27329 0.14261 0.72027
 N1147 N 0.25472 0.16868 0.70948
 C1148 C 0.22351 0.16418 0.69498
 H1149 H 0.17269 0.04045 0.68389
 H1150 H 0.14447 0.08700 0.65498
 H1151 H 0.27754 0.09042 0.72752
 H1152 H 0.20976 0.18610 0.68654
 C1153 C 0.33170 0.57134 0.31563
 C1154 C 0.34887 0.59753 0.33139
 C1155 C 0.33144 0.62752 0.33984
 C1156 C 0.29619 0.63184 0.33066
 C1157 C 0.27842 0.60491 0.31500
 C1158 C 0.29647 0.57428 0.30770
 C1159 C 0.24362 0.61040 0.30569
 N1160 N 0.22807 0.64070 0.31150
 N1161 N 0.24499 0.66610 0.32555
 C1162 C 0.27852 0.66281 0.33502
 H1163 H 0.34606 0.54846 0.30963
 H1164 H 0.37605 0.59437 0.33751
 H1165 H 0.22861 0.59137 0.29334
 H1166 H 0.29109 0.68484 0.34484
 C1167 C 0.32536 0.07605 0.82161
 C1168 C 0.34080 0.10464 0.83521
 C1169 C 0.32633 0.13688 0.83067
 C1170 C 0.29450 0.14001 0.81371
 C1171 C 0.27697 0.11062 0.80293
 C1172 C 0.29353 0.07862 0.80545
 C1173 C 0.24356 0.11448 0.78957
 N1174 N 0.22966 0.14583 0.78592
 N1175 N 0.24690 0.17353 0.79467
 C1176 C 0.27892 0.17167 0.80817
 H1177 H 0.33810 0.05168 0.82406
 H1178 H 0.36464 0.10180 0.84879
 H1179 H 0.22851 0.09306 0.78149
 H1180 H 0.29153 0.19483 0.81499
 C1181 C 0.83204 0.57315 0.81301
 C1182 C 0.84874 0.60005 0.82820
 C1183 C 0.83102 0.63032 0.83518
 C1184 C 0.79616 0.63426 0.82460
 C1185 C 0.77905 0.60680 0.80909
 C1186 C 0.79712 0.57577 0.80391
 C1187 C 0.74494 0.61206 0.79776
 N1188 N 0.72924 0.64259 0.80186
 N1189 N 0.74541 0.66836 0.81610
 C1190 C 0.77832 0.66532 0.82735
 H1191 H 0.84649 0.54996 0.80846
 H1192 H 0.87571 0.59718 0.83517
 H1193 H 0.73075 0.59264 0.78504
 H1194 H 0.79037 0.68756 0.83733
 C1195 C 0.78117 0.09540 0.32061
 C1196 C 0.79604 0.12401 0.33439
 C1197 C 0.83226 0.12787 0.33569
 C1198 C 0.85363 0.10002 0.32653
 C1199 C 0.83844 0.07065 0.31246
 C1200 C 0.80188 0.06926 0.30800
 C1201 C 0.86043 0.04328 0.30433
 N1202 N 0.89508 0.04542 0.30975
 N1203 N 0.90920 0.07284 0.32310
 C1204 C 0.88967 0.10005 0.33188
 H1205 H 0.75316 0.09460 0.31823
 H1206 H 0.77884 0.14420 0.34205
 H1207 H 0.85049 0.01979 0.29467
 H1208 H 0.90242 0.12083 0.34395
 C1209 C 0.69931 0.43089 0.31473
 C1210 C 0.68766 0.40265 0.33134
 C1211 C 0.68216 0.37166 0.31535
 C1212 C 0.68848 0.36936 0.28172
 C1213 C 0.69904 0.39843 0.26472
 C1214 C 0.70487 0.42927 0.28149
 C1215 C 0.70517 0.39523 0.23150
 N1216 N 0.70185 0.36480 0.21656
 N1217 N 0.69318 0.33723 0.23268
 C1218 C 0.68673 0.33841 0.26469
 H1219 H 0.70407 0.45421 0.32792
 H1220 H 0.68329 0.40480 0.35701
 H1221 H 0.71297 0.41649 0.21734
 H1222 H 0.68150 0.31492 0.27640
 C1223 C 0.67159 0.92599 0.80167
 C1224 C 0.65831 0.89699 0.81558
 C1225 C 0.68030 0.87128 0.82688
 C1226 C 0.71679 0.87455 0.82289
 C1227 C 0.73035 0.90370 0.80764
 C1228 C 0.70740 0.93009 0.79781
 C1229 C 0.76632 0.90440 0.80121
 N1230 N 0.78713 0.87855 0.81063
 N1231 N 0.77451 0.85167 0.82547
 C1232 C 0.74018 0.84867 0.83169
 H1233 H 0.65362 0.94546 0.79379
 H1234 H 0.63045 0.89474 0.81811
 H1235 H 0.77830 0.92449 0.78802
 H1236 H 0.73171 0.82546 0.84230
 C1237 C 0.19130 0.41841 0.82251
 C1238 C 0.17932 0.38908 0.83700
 C1239 C 0.17466 0.35917 0.81909
 C1240 C 0.18203 0.35911 0.78555
 C1241 C 0.19384 0.38912 0.77072
 C1242 C 0.19850 0.41894 0.78953
 C1243 C 0.20240 0.38768 0.73776
 N1244 N 0.19935 0.35826 0.72102
 N1245 N 0.18871 0.33005 0.73501
 C1246 C 0.18023 0.32942 0.76661
 H1247 H 0.19523 0.44086 0.83722
 H1248 H 0.17400 0.38953 0.86257
 H1249 H 0.21201 0.40935 0.72509
 H1250 H 0.17326 0.30544 0.77658
 C1251 C 0.20464 0.93262 0.32557
 C1252 C 0.18840 0.90790 0.34385
 C1253 C 0.18428 0.87489 0.33175
 C1254 C 0.20091 0.86560 0.30255
 C1255 C 0.21779 0.89061 0.28421
 C1256 C 0.21821 0.92458 0.29522
 C1257 C 0.23480 0.88059 0.25581
 N1258 N 0.23487 0.84763 0.24645
 N1259 N 0.21933 0.82403 0.26383
 C1260 C 0.20259 0.83186 0.29162
 H1261 H 0.20571 0.95837 0.33472
 H1262 H 0.17733 0.91488 0.36693
 H1263 H 0.24884 0.89856 0.24155
 H1264 H 0.19202 0.81146 0.30538
 C1265 C 0.40367 0.27808 0.67478
 C1266 C 0.37409 0.29163 0.66048
 C1267 C 0.36974 0.32675 0.65766
 C1268 C 0.39793 0.34819 0.66577
 C1269 C 0.42806 0.33441 0.68062
 C1270 C 0.43006 0.29915 0.68652
 C1271 C 0.45556 0.35638 0.68823
 N1272 N 0.45293 0.38975 0.68128
 N1273 N 0.42489 0.40255 0.66695
 C1274 C 0.39747 0.38290 0.65876
 H1275 H 0.40490 0.25099 0.67852
 H1276 H 0.35317 0.27474 0.65387
 H1277 H 0.47950 0.34732 0.69877
 H1278 H 0.37621 0.39443 0.64588
 C1279 C 0.40288 0.79870 0.21362
 C1280 C 0.37691 0.81397 0.19531
 C1281 C 0.38358 0.82510 0.16399
 C1282 C 0.41754 0.82144 0.15126
 C1283 C 0.44381 0.80524 0.16966
 C1284 C 0.43617 0.79364 0.20098
 C1285 C 0.47724 0.80205 0.15635
 N1286 N 0.48379 0.81458 0.12673
 N1287 N 0.45927 0.83022 0.10968
 C1288 C 0.42647 0.83423 0.12098
 H1289 H 0.39672 0.79002 0.23759
 H1290 H 0.35114 0.81672 0.20544
 H1291 H 0.49831 0.79013 0.16933
 H1292 H 0.40797 0.84786 0.10638
 C1293 C 0.92833 0.31173 0.17295
 C1294 C 0.89989 0.32446 0.15618
 C1295 C 0.86770 0.32893 0.17134
 C1296 C 0.86455 0.32157 0.20460
 C1297 C 0.89363 0.30876 0.22176
 C1298 C 0.92565 0.30360 0.20554
 C1299 C 0.88899 0.29971 0.25417
 N1300 N 0.85747 0.30349 0.26825
 N1301 N 0.83016 0.31525 0.25207
 C1302 C 0.83253 0.32412 0.22073
 H1303 H 0.95256 0.30770 0.16023
 H1304 H 0.90264 0.32998 0.13084
 H1305 H 0.90981 0.28919 0.26840
 H1306 H 0.80914 0.33232 0.20872
 C1307 C 0.89962 0.81964 0.72437
 C1308 C 0.87077 0.83391 0.70944
 C1309 C 0.86938 0.83718 0.67586
 C1310 C 0.89943 0.82937 0.65749
 C1311 C 0.92876 0.81451 0.67267
 C1312 C 0.92806 0.80836 0.70622
 C1313 C 0.95826 0.80726 0.65382
 N1314 N 0.95821 0.81460 0.62202
 N1315 N 0.93087 0.82900 0.60791
 C1316 C 0.90163 0.83684 0.62457
 H1317 H 0.89893 0.81571 0.75013
 H1318 H 0.84833 0.84037 0.72397
 H1319 H 0.98166 0.79665 0.66411
 H1320 H 0.88098 0.84984 0.61212
 C1321 C 0.58101 0.32705 0.30473
 C1322 C 0.61046 0.34295 0.31697
 C1323 C 0.64054 0.32438 0.32441
 C1324 C 0.64043 0.28865 0.31990
 C1325 C 0.61042 0.27240 0.30739
 C1326 C 0.58045 0.29195 0.29974
 C1327 C 0.61231 0.23726 0.30115
 N1328 N 0.64189 0.21982 0.30752
 N1329 N 0.66997 0.23509 0.31914
 C1330 C 0.67033 0.26883 0.32522
 H1331 H 0.55851 0.34237 0.29871
 H1332 H 0.61011 0.37019 0.32012
 H1333 H 0.59105 0.22336 0.29066
 H1334 H 0.69435 0.27979 0.33312
 C1335 C 0.57652 0.80717 0.82260
 C1336 C 0.60431 0.82248 0.83834
 C1337 C 0.63681 0.82485 0.82347
 C1338 C 0.64154 0.81073 0.79224
 C1339 C 0.61301 0.79596 0.77587
 C1340 C 0.58032 0.79435 0.79130
 C1341 C 0.61850 0.78218 0.74490
 N1342 N 0.65060 0.78278 0.73162
 N1343 N 0.67755 0.79600 0.74728
 C1344 C 0.67415 0.80979 0.77712
 H1345 H 0.55169 0.80578 0.83472
 H1346 H 0.60051 0.83288 0.86230
 H1347 H 0.59779 0.77058 0.73125
 H1348 H 0.69712 0.81910 0.78883
 C1349 C 0.07269 0.31671 0.80782
 C1350 C 0.10271 0.33130 0.82031
 C1351 C 0.13268 0.31183 0.82576
 C1352 C 0.13192 0.27648 0.81920
 C1353 C 0.10129 0.26152 0.80651
 C1354 C 0.07145 0.28204 0.80066
 C1355 C 0.10245 0.22678 0.79833
 N1356 N 0.13193 0.20854 0.80293
 N1357 N 0.16058 0.22263 0.81470
 C1358 C 0.16167 0.25591 0.82274
 H1359 H 0.05039 0.33278 0.80308
 H1360 H 0.10288 0.35828 0.82515
 H1361 H 0.08065 0.21376 0.78791
 H1362 H 0.18611 0.26589 0.83089
 C1363 C 0.10526 0.78384 0.31640
 C1364 C 0.13219 0.80002 0.33258
 C1365 C 0.13374 0.83546 0.33449
 C1366 C 0.10550 0.85471 0.32208
 C1367 C 0.07776 0.83818 0.30576
 C1368 C 0.07840 0.80240 0.30197
 C1369 C 0.04950 0.85807 0.29520
 N1370 N 0.04937 0.89199 0.30032
 N1371 N 0.07520 0.90736 0.31579
 C1372 C 0.10297 0.88988 0.32707
 H1373 H 0.10592 0.75647 0.31445
 H1374 H 0.15277 0.78472 0.34283
 H1375 H 0.02693 0.84715 0.28386
 H1376 H 0.12189 0.90356 0.34096
 C1377 C 0.60350 0.69376 0.71425
 C1378 C 0.63077 0.67758 0.69841
 C1379 C 0.62671 0.66510 0.66693
 C1380 C 0.59402 0.66843 0.65148
 C1381 C 0.56639 0.68561 0.66741
 C1382 C 0.57150 0.69857 0.69892
 C1383 C 0.53422 0.68830 0.65155
 N1384 N 0.53014 0.67448 0.62179
 N1385 N 0.55594 0.65802 0.60700
 C1386 C 0.58764 0.65439 0.62086
 H1387 H 0.60767 0.70336 0.73846
 H1388 H 0.65552 0.67526 0.71060
 H1389 H 0.51218 0.70082 0.66265
 H1390 H 0.60727 0.64008 0.60804
 C1391 C 0.60300 0.21568 0.19669
 C1392 C 0.62969 0.19966 0.17984
 C1393 C 0.62680 0.16577 0.16991
 C1394 C 0.59574 0.14809 0.17644
 C1395 C 0.56864 0.16429 0.19403
 C1396 C 0.57266 0.19828 0.20453
 C1397 C 0.53799 0.14610 0.19959
 N1398 N 0.53495 0.11392 0.18834
 N1399 N 0.56030 0.09883 0.17170
 C1400 C 0.59049 0.11485 0.16524
 H1401 H 0.60638 0.24176 0.20435
 H1402 H 0.65323 0.21359 0.17522
 H1403 H 0.51624 0.15723 0.21234
 H1404 H 0.60977 0.10166 0.15094
 C1405 C 0.10685 0.71962 0.18964
 C1406 C 0.13227 0.70271 0.17180
 C1407 C 0.12938 0.66806 0.16479
 C1408 C 0.09950 0.65044 0.17512
 C1409 C 0.07350 0.66767 0.19318
 C1410 C 0.07782 0.70240 0.20117
 C1411 C 0.04346 0.64968 0.20165
 N1412 N 0.04026 0.61665 0.19310
 N1413 N 0.06480 0.60046 0.17638
 C1414 C 0.09418 0.61623 0.16699
 H1415 H 0.11031 0.74625 0.19516
 H1416 H 0.15493 0.71654 0.16414
 H1417 H 0.02214 0.66155 0.21437
 H1418 H 0.11257 0.60208 0.15259
 C1419 C 0.07929 0.16604 0.70258
 C1420 C 0.10734 0.15076 0.68713
 C1421 C 0.13392 0.17001 0.67337
 C1422 C 0.13274 0.20590 0.67709
 C1423 C 0.10491 0.22135 0.69445
 C1424 C 0.07710 0.20122 0.70577
 C1425 C 0.10656 0.25642 0.70084
 N1426 N 0.13289 0.27494 0.68885
 N1427 N 0.15795 0.26080 0.67125
 C1428 C 0.15882 0.22709 0.66499
 H1429 H 0.05870 0.15015 0.71154
 H1430 H 0.10736 0.12353 0.68474
 H1431 H 0.08788 0.26936 0.71593
 H1432 H 0.18029 0.21756 0.65104
 C1433 C 0.39921 0.69684 0.29064
 C1434 C 0.37296 0.68130 0.30795
 C1435 C 0.37913 0.66891 0.33899
 C1436 C 0.41274 0.67180 0.35255
 C1437 C 0.43935 0.68817 0.33515
 C1438 C 0.43227 0.70092 0.30404
 C1439 C 0.47254 0.69033 0.34920
 N1440 N 0.47847 0.67679 0.37858
 N1441 N 0.45356 0.66110 0.39473
 C1442 C 0.42096 0.65803 0.38267
 H1443 H 0.39354 0.70631 0.26679
 H1444 H 0.34740 0.67922 0.29723
 H1445 H 0.49388 0.70232 0.33704
 H1446 H 0.40203 0.64443 0.39655
 C1447 C 0.42087 0.18026 0.79316
 C1448 C 0.39524 0.16486 0.81125
 C1449 C 0.36841 0.18376 0.82582
 C1450 C 0.36696 0.21933 0.82054
 C1451 C 0.39257 0.23484 0.80097
 C1452 C 0.42048 0.21520 0.78832
 C1453 C 0.38868 0.26946 0.79384
 N1454 N 0.36212 0.28756 0.80673
 N1455 N 0.33896 0.27337 0.82595
 C1456 C 0.34038 0.24006 0.83324
 H1457 H 0.44177 0.16473 0.78354
 H1458 H 0.39724 0.13788 0.81480
 H1459 H 0.40579 0.28228 0.77751
 H1460 H 0.32027 0.23045 0.84850
 C1461 C 0.89814 0.70091 0.78574
 C1462 C 0.87231 0.68412 0.80251
 C1463 C 0.87825 0.67242 0.83381
 C1464 C 0.91137 0.67693 0.84804
 C1465 C 0.93752 0.69459 0.83120
 C1466 C 0.93051 0.70698 0.79994
 C1467 C 0.97022 0.69832 0.84595
 N1468 N 0.97613 0.68505 0.87544
 N1469 N 0.95166 0.66819 0.89107
 C1470 C 0.91956 0.66357 0.87834
 H1471 H 0.89256 0.70995 0.76173
 H1472 H 0.84716 0.68084 0.79126
 H1473 H 0.99130 0.71120 0.83423
 H1474 H 0.90106 0.64899 0.89178
 C1475 C 0.92899 0.20612 0.32589
 C1476 C 0.90173 0.19082 0.34196
 C1477 C 0.87355 0.17671 0.32520
 C1478 C 0.87264 0.17926 0.29096
 C1479 C 0.90014 0.19579 0.27463
 C1480 C 0.92903 0.20839 0.29233
 C1481 C 0.89695 0.20051 0.24115
 N1482 N 0.86906 0.18827 0.22505
 N1483 N 0.84380 0.17209 0.24012
 C1484 C 0.84453 0.16732 0.27234
 H1485 H 0.95046 0.21611 0.33986
 H1486 H 0.90300 0.18931 0.36792
 H1487 H 0.91570 0.21448 0.22749
 H1488 H 0.82244 0.15519 0.28276
 C1489 C 0.31908 0.30875 0.56532
 C1490 C 0.33433 0.32435 0.59207
 C1491 C 0.31762 0.32500 0.62205
 C1492 C 0.28466 0.30940 0.62499
 C1493 C 0.26872 0.29441 0.59753
 C1494 C 0.28628 0.29395 0.56757
 C1495 C 0.23616 0.27897 0.60134
 N1496 N 0.22100 0.27821 0.63068
 N1497 N 0.23627 0.29154 0.65654
 C1498 C 0.26757 0.30683 0.65473
 H1499 H 0.33300 0.30818 0.54268
 H1500 H 0.35968 0.33571 0.58957
 H1501 H 0.22266 0.26722 0.58147
 H1502 H 0.27880 0.31608 0.67672
 C1503 C 0.32635 0.77348 0.08703
 C1504 C 0.34280 0.78910 0.11304
 C1505 C 0.34483 0.82453 0.11531
 C1506 C 0.33359 0.84416 0.08878
 C1507 C 0.31658 0.82827 0.06235
 C1508 C 0.31159 0.79271 0.06232
 C1509 C 0.30601 0.84855 0.03640
 N1510 N 0.31219 0.88229 0.03700
 N1511 N 0.32853 0.89707 0.06159
 C1512 C 0.33962 0.87916 0.08733
 H1513 H 0.32343 0.74622 0.08715
 H1514 H 0.35176 0.77350 0.13269
 H1515 H 0.29371 0.83794 0.01527
 H1516 H 0.35404 0.89232 0.10583
 C1517 C 0.80978 0.32212 0.06681
 C1518 C 0.82091 0.33848 0.09475
 C1519 C 0.83101 0.32006 0.12201
 C1520 C 0.83384 0.28404 0.11906
 C1521 C 0.82749 0.26801 0.08883
 C1522 C 0.81136 0.28680 0.06383
 C1523 C 0.83602 0.23337 0.08553
 N1524 N 0.84635 0.21544 0.11149
 N1525 N 0.84815 0.22959 0.14058
 C1526 C 0.84146 0.26295 0.14534
 H1527 H 0.79863 0.33720 0.04771
 H1528 H 0.81943 0.36584 0.09574
 H1529 H 0.83516 0.22016 0.06280
 H1530 H 0.84134 0.27201 0.16973
 C1531 C 0.79837 0.82810 0.57998
 C1532 C 0.81081 0.84501 0.60716
 C1533 C 0.82232 0.82721 0.63424
 C1534 C 0.81948 0.79126 0.63427
 C1535 C 0.80640 0.77402 0.60661
 C1536 C 0.79661 0.79272 0.57893
 C1537 C 0.80191 0.73866 0.60832
 N1538 N 0.81057 0.72187 0.63545
 N1539 N 0.82283 0.73797 0.66127
 C1540 C 0.82728 0.77194 0.66170
 H1541 H 0.79033 0.84284 0.55938
 H1542 H 0.81236 0.87236 0.60683
 H1543 H 0.79081 0.72408 0.58886
 H1544 H 0.83543 0.78334 0.68402
 C1545 C 0.32023 0.72008 0.41439
 C1546 C 0.33674 0.70426 0.38859
 C1547 C 0.33834 0.66885 0.38607
 C1548 C 0.32581 0.64925 0.41205
 C1549 C 0.30861 0.66542 0.43832
 C1550 C 0.30488 0.70115 0.43880
 C1551 C 0.29694 0.64526 0.46380
 N1552 N 0.30230 0.61133 0.46296
 N1553 N 0.31891 0.59626 0.43864
 C1554 C 0.33107 0.61405 0.41337
 H1555 H 0.31822 0.74745 0.41457
 H1556 H 0.34658 0.71986 0.36943
 H1557 H 0.28442 0.65607 0.48477
 H1558 H 0.34580 0.60058 0.39528
 C1559 C 0.28537 0.18814 0.91441
 C1560 C 0.29812 0.17315 0.88664
 C1561 C 0.33305 0.17643 0.87756
 C1562 C 0.35632 0.19175 0.90002
 C1563 C 0.34309 0.20752 0.92859
 C1564 C 0.30687 0.20680 0.93501
 C1565 C 0.36687 0.22221 0.95025
 N1566 N 0.40136 0.22100 0.94390
 N1567 N 0.41376 0.20567 0.91765
 C1568 C 0.39253 0.19074 0.89576
 H1569 H 0.25774 0.18631 0.91894
 H1570 H 0.27956 0.16023 0.87159
 H1571 H 0.35873 0.23367 0.97269
 H1572 H 0.40444 0.17712 0.87606
 C1573 C 0.81944 0.72513 0.90788
 C1574 C 0.83447 0.70863 0.88167
 C1575 C 0.83722 0.67319 0.88043
 C1576 C 0.82722 0.65439 0.90784
 C1577 C 0.81187 0.67128 0.93470
 C1578 C 0.80689 0.70691 0.93406
 C1579 C 0.80329 0.65197 0.96182
 N1580 N 0.80949 0.61817 0.96183
 N1581 N 0.82412 0.60243 0.93681
 C1582 C 0.83343 0.61938 0.91001
 H1583 H 0.81637 0.75240 0.90707
 H1584 H 0.84251 0.72363 0.86138
 H1585 H 0.79268 0.66336 0.98340
 H1586 H 0.84669 0.60542 0.89134
 C1587 C 0.82661 0.18814 0.42837
 C1588 C 0.84199 0.17198 0.40187
 C1589 C 0.83126 0.17946 0.37046
 C1590 C 0.80418 0.20325 0.36571
 C1591 C 0.78687 0.21765 0.39259
 C1592 C 0.79886 0.21076 0.42411
 C1593 C 0.75787 0.23849 0.38691
 N1594 N 0.74816 0.24574 0.35638
 N1595 N 0.76532 0.23331 0.33111
 C1596 C 0.79298 0.21233 0.33476
 H1597 H 0.83592 0.18244 0.45233
 H1598 H 0.86255 0.15364 0.40574
 H1599 H 0.74269 0.24890 0.40638
 H1600 H 0.80566 0.20279 0.31351
 C1601 C 0.68233 0.32027 0.42057
 C1602 C 0.66780 0.33049 0.39153
 C1603 C 0.68848 0.33528 0.36427
 C1604 C 0.72511 0.33110 0.36699
 C1605 C 0.74018 0.32221 0.39707
 C1606 C 0.71823 0.31538 0.42378
 C1607 C 0.77663 0.31811 0.39848
 N1608 N 0.79612 0.32174 0.37168
 N1609 N 0.78183 0.32874 0.34337
 C1610 C 0.74713 0.33314 0.34005
 H1611 H 0.66519 0.31506 0.44054
 H1612 H 0.63990 0.33361 0.38996
 H1613 H 0.79020 0.31147 0.42017
 H1614 H 0.73736 0.33711 0.31616
 C1615 C 0.69535 0.78053 0.90256
 C1616 C 0.68144 0.79388 0.87451
 C1617 C 0.67456 0.82865 0.87186
 C1618 C 0.67896 0.84983 0.89937
 C1619 C 0.69379 0.83629 0.92784
 C1620 C 0.70294 0.80153 0.92891
 C1621 C 0.69792 0.85786 0.95469
 N1622 N 0.68744 0.89063 0.95312
 N1623 N 0.67282 0.90313 0.92669
 C1624 C 0.66797 0.88382 0.89992
 H1625 H 0.70183 0.75380 0.90313
 H1626 H 0.67770 0.77721 0.85396
 H1627 H 0.70857 0.84889 0.97715
 H1628 H 0.65453 0.89503 0.87989
 C1629 C 0.17577 0.30347 0.92180
 C1630 C 0.16075 0.31368 0.89289
 C1631 C 0.18115 0.31952 0.86558
 C1632 C 0.21774 0.31499 0.86776
 C1633 C 0.23314 0.30530 0.89741
 C1634 C 0.21179 0.29940 0.92463
 C1635 C 0.26942 0.30019 0.89823
 N1636 N 0.28866 0.30492 0.87147
 N1637 N 0.27415 0.31341 0.84362
 C1638 C 0.23944 0.31801 0.84074
 H1639 H 0.15909 0.29865 0.94219
 H1640 H 0.13283 0.31682 0.89171
 H1641 H 0.28295 0.29202 0.91950
 H1642 H 0.22944 0.32305 0.81712
 C1643 C 0.22700 0.81422 0.40854
 C1644 C 0.21323 0.83069 0.38190
 C1645 C 0.17752 0.83775 0.37957
 C1646 C 0.15570 0.82907 0.40567
 C1647 C 0.16924 0.81001 0.43172
 C1648 C 0.20547 0.80285 0.43324
 C1649 C 0.14592 0.79957 0.45567
 N1650 N 0.11216 0.80940 0.45456
 N1651 N 0.10004 0.82899 0.43117
 C1652 C 0.12068 0.83933 0.40687
 H1653 H 0.25466 0.80902 0.40919
 H1654 H 0.23063 0.83711 0.36252
 H1655 H 0.15390 0.78388 0.47541
 H1656 H 0.10963 0.85609 0.38922
 C1657 C 0.68681 0.71543 0.59349
 C1658 C 0.67102 0.69998 0.61948
 C1659 C 0.66966 0.66457 0.62172
 C1660 C 0.68180 0.64458 0.59540
 C1661 C 0.69792 0.66040 0.56878
 C1662 C 0.70149 0.69611 0.56854
 C1663 C 0.70871 0.63992 0.54270
 N1664 N 0.70380 0.60601 0.54343
 N1665 N 0.68845 0.59124 0.56823
 C1666 C 0.67707 0.60935 0.59404
 H1667 H 0.68882 0.74278 0.59356
 H1668 H 0.66135 0.71583 0.63893
 H1669 H 0.72010 0.65048 0.52133
 H1670 H 0.66340 0.59607 0.61256
 C1671 C 0.67078 0.18620 0.07348
 C1672 C 0.65546 0.17025 0.09965
 C1673 C 0.67335 0.16665 0.12890
 C1674 C 0.70631 0.18200 0.13254
 C1675 C 0.72179 0.19831 0.10595
 C1676 C 0.70422 0.19962 0.07601
 C1677 C 0.75393 0.21417 0.11056
 N1678 N 0.76938 0.21389 0.13988
 N1679 N 0.75475 0.19895 0.16493
 C1680 C 0.72372 0.18317 0.16231
 H1681 H 0.65665 0.18767 0.05096
 H1682 H 0.62969 0.15977 0.09695
 H1683 H 0.76641 0.22744 0.09129
 H1684 H 0.71264 0.17281 0.18378
 C1685 C 0.22452 0.69015 0.09556
 C1686 C 0.20861 0.67481 0.12167
 C1687 C 0.17333 0.66618 0.12065
 C1688 C 0.15398 0.67259 0.09226
 C1689 C 0.17019 0.68829 0.06574
 C1690 C 0.20560 0.69759 0.06769
 C1691 C 0.15067 0.69301 0.03755
 N1692 N 0.11709 0.68306 0.03619
 N1693 N 0.10184 0.66834 0.06107
 C1694 C 0.11916 0.66258 0.08893
 H1695 H 0.25169 0.69691 0.09737
 H1696 H 0.22383 0.67008 0.14312
 H1697 H 0.16210 0.70378 0.01644
 H1698 H 0.10572 0.64957 0.10780
 C1699 C 0.21990 0.17597 0.58851
 C1700 C 0.20755 0.16098 0.61613
 C1701 C 0.17203 0.16133 0.62367
 C1702 C 0.14829 0.17319 0.59994
 C1703 C 0.16098 0.18905 0.57165
 C1704 C 0.19739 0.19154 0.56663
 C1705 C 0.13659 0.20060 0.54893
 N1706 N 0.10218 0.19611 0.55394
 N1707 N 0.09043 0.18044 0.57989
 C1708 C 0.11227 0.16856 0.60282
 H1709 H 0.24777 0.17655 0.58501
 H1710 H 0.22662 0.15058 0.63232
 H1711 H 0.14425 0.21232 0.52683
 H1712 H 0.10120 0.15443 0.62226
   
