data_POSCAR
  _audit_creation_date              2014-09-24
  _audit_creation_method            'ToBaCCo'
  _symmetry_space_group_name_H-M    'P1'
  _symmetry_Int_Tables_number       1
  _symmetry_cell_setting            triclinic
  loop_
  _symmetry_equiv_pos_as_xyz
 x,y,z
_cell_length_a 49.9845
_cell_length_b 48.2450
_cell_length_c 48.7176
_cell_angle_alpha 88.676100
_cell_angle_beta 89.222300
_cell_angle_gamma 89.240300
loop_
  _atom_site_label
  _atom_site_type_symbol
  _atom_site_fract_x
  _atom_site_fract_y
  _atom_site_fract_z
Si1 Si 0.75029 0.63170 0.99263
 Si2 Si 0.74798 0.38752 0.49948
 Si3 Si 0.24838 -0.12852 0.00892
 Si4 Si 0.24841 0.12569 0.50605
 Si5 Si 0.12490 0.50534 0.25003
 Si6 Si -0.11975 0.00751 0.25537
 Si7 Si 0.37529 0.48206 0.74085
 Si8 Si 0.62841 0.98572 0.75701
 Si9 Si -0.01041 0.23819 -0.11075
 Si10 Si 0.49069 0.26932 0.11513
 Si11 Si 1.01734 0.73768 0.61461
 Si12 Si 0.51434 0.77013 0.38465
 C13 C 0.40882 -0.01051 0.28435
 H14 H 0.40679 0.00906 0.29462
 C15 C 0.42395 -0.03209 0.29623
 H16 H 0.43343 -0.02882 0.31571
 C17 C 0.39698 -0.03909 0.24767
 H18 H 0.38580 -0.04218 0.22924
 C19 C 0.41221 -0.06103 0.25856
 H20 H 0.41317 -0.08035 0.24771
 N21 N 0.39538 -0.01449 0.26073
 C22 C 0.37186 0.06627 0.22603
 H23 H 0.35043 0.06332 0.22625
 C24 C 0.38235 0.09130 0.21643
 H25 H 0.36855 0.10757 0.21005
 C26 C 0.41524 0.04860 0.23556
 H27 H 0.42789 0.03176 0.24298
 C28 C 0.42673 0.07310 0.22523
 H29 H 0.44830 0.07457 0.22447
 Zn30 Zn 0.37079 0.01340 0.24897
 N31 N 0.38821 0.04580 0.23595
 C32 C 0.34701 0.04854 0.28842
 N33 N 0.34870 0.02192 0.27981
 C34 C 0.33705 0.00089 0.29456
 C35 C 0.32321 0.00631 0.31911
 C36 C 0.33287 0.05491 0.31229
 C37 C 0.36505 -0.00331 0.19559
 C38 C 0.35266 -0.01338 0.17248
 C39 C 0.31084 -0.01425 0.19791
 C40 C 0.32416 -0.00436 0.22075
 N41 N 0.35088 0.00048 0.21924
 H42 H 0.35720 0.06492 0.27734
 H43 H 0.33919 -0.02019 0.28767
 H44 H 0.31439 -0.01056 0.33099
 H45 H 0.33193 0.07619 0.31894
 H46 H 0.38624 0.00099 0.19492
 H47 H 0.36471 -0.01724 0.15430
 H48 H 0.28955 -0.01792 0.19944
 H49 H 0.31322 -0.00070 0.23964
 C50 C 0.41021 0.09505 0.21559
 C51 C 0.42545 -0.05799 0.28354
 C52 C 0.32519 -0.01916 0.17338
 C53 C 0.32103 0.03367 0.32805
 C54 C 0.07534 1.01285 0.78856
 H55 H 0.07502 0.99188 0.79690
 C56 C 0.05912 1.03328 0.80036
 H57 H 0.04581 1.02757 0.81720
 C58 C 0.09405 1.04590 0.75741
 H59 H 0.10836 1.05104 0.74137
 C60 C 0.07839 1.06699 0.76874
 H61 H 0.08097 1.08805 0.76114
 N62 N 0.09244 1.01944 0.76753
 C63 C 0.11520 0.94454 0.72461
 H64 H 0.13593 0.94970 0.72084
 C65 C 0.10457 0.92152 0.71221
 H66 H 0.11742 0.90876 0.69947
 C67 C 0.07322 0.95537 0.74512
 H68 H 0.06089 0.96891 0.75742
 C69 C 0.06175 0.93228 0.73323
 H70 H 0.04070 0.92820 0.73660
 Zn71 Zn 0.11712 0.99215 0.75480
 N72 N 0.09963 0.96086 0.74086
 C73 C 0.15403 0.95712 0.78310
 N74 N 0.13950 0.98110 0.78438
 C75 C 0.13985 0.99696 0.80713
 C76 C 0.15424 0.98824 0.83021
 C77 C 0.16861 0.94759 0.80572
 C78 C 0.12420 1.01468 0.70241
 C79 C 0.13788 1.02543 0.67955
 C80 C 0.17941 1.01898 0.70394
 C81 C 0.16485 1.00874 0.72661
 N82 N 0.13774 1.00698 0.72543
 H83 H 0.15386 0.94496 0.76481
 H84 H 0.12856 1.01620 0.80763
 H85 H 0.15347 1.00062 0.84847
 H86 H 0.17964 0.92817 0.80451
 H87 H 0.10268 1.01264 0.70198
 H88 H 0.12689 1.03199 0.66147
 H89 H 0.20096 1.02058 0.70498
 H90 H 0.17515 1.00216 0.74506
 C91 C 0.07751 0.91517 0.71638
 C92 C 0.06087 1.06092 0.79079
 C93 C 0.16574 1.02760 0.68026
 C94 C 0.16837 0.96293 0.82987
 C95 C 0.57815 0.54241 0.27880
 H96 H 0.57403 0.52220 0.28784
 C97 C 0.56515 0.56599 0.28900
 H98 H 0.55101 0.56385 0.30593
 C99 C 0.60311 0.57017 0.24720
 H100 H 0.61859 0.57204 0.23165
 C101 C 0.59078 0.59414 0.25684
 H102 H 0.59656 0.61409 0.24817
 N103 N 0.59686 0.54492 0.25835
 C104 C 0.61112 0.46406 0.22282
 H105 H 0.63273 0.46506 0.22240
 C106 C 0.59845 0.44197 0.21088
 H107 H 0.61040 0.42589 0.20131
 C108 C 0.56932 0.48423 0.23538
 H109 H 0.55812 0.50107 0.24447
 C110 C 0.55574 0.46216 0.22391
 H111 H 0.53407 0.46206 0.22418
 Zn112 Zn 0.61761 0.51374 0.24749
 N113 N 0.59655 0.48470 0.23458
 C114 C 0.63289 0.47497 0.28849
 N115 N 0.63738 0.50095 0.27822
 C116 C 0.65463 0.51821 0.29052
 C117 C 0.66867 0.50921 0.31381
 C118 C 0.64642 0.46518 0.31163
 C119 C 0.62735 0.53278 0.19460
 C120 C 0.64170 0.54265 0.17182
 C121 C 0.68276 0.53270 0.19601
 C122 C 0.66752 0.52336 0.21865
 N123 N 0.64030 0.52422 0.21770
 H124 H 0.61849 0.46185 0.27903
 H125 H 0.65745 0.53897 0.28222
 H126 H 0.68263 0.52302 0.32314
 H127 H 0.64224 0.44454 0.31962
 H128 H 0.60571 0.53278 0.19430
 H129 H 0.63108 0.55043 0.15394
 H130 H 0.70439 0.53281 0.19710
 H131 H 0.67741 0.51588 0.23702
 C132 C 0.57046 0.44098 0.21112
 C133 C 0.57195 0.59229 0.27835
 C134 C 0.66967 0.54302 0.17256
 C135 C 0.66475 0.48226 0.32452
 C136 C 0.91559 0.46307 0.78261
 H137 H 0.91691 0.48196 0.79402
 C138 C 0.92856 0.43897 0.79219
 H139 H 0.93964 0.43965 0.81109
 C140 C 0.89759 0.43891 0.74550
 H141 H 0.88500 0.43865 0.72770
 C142 C 0.91055 0.41448 0.75409
 H143 H 0.90819 0.39598 0.74226
 N144 N 0.90001 0.46252 0.75995
 C145 C 0.88893 0.54548 0.72471
 H146 H 0.86789 0.54421 0.72014
 C147 C 0.90340 0.56827 0.71509
 H148 H 0.89322 0.58441 0.70329
 C149 C 0.92795 0.52500 0.74388
 H150 H 0.93752 0.50795 0.75481
 C151 C 0.94328 0.54749 0.73454
 H152 H 0.96449 0.54767 0.73871
 Zn153 Zn 0.87913 0.49446 0.75014
 N154 N 0.90119 0.52455 0.73908
 C155 C 0.84466 0.52995 0.78021
 N156 N 0.85739 0.50485 0.78079
 C157 C 0.85560 0.48771 0.80333
 C158 C 0.84170 0.49615 0.82685
 C159 C 0.83049 0.53917 0.80321
 C160 C 0.87020 0.48266 0.69531
 C161 C 0.85567 0.47620 0.67213
 C162 C 0.81508 0.47855 0.69955
 C163 C 0.83045 0.48487 0.72230
 N164 N 0.85752 0.48647 0.71982
 H165 H 0.84594 0.54320 0.76212
 H166 H 0.86512 0.46749 0.80327
 H167 H 0.84078 0.48234 0.84467
 H168 H 0.82137 0.55965 0.80257
 H169 H 0.89175 0.48421 0.69394
 H170 H 0.86633 0.47233 0.65309
 H171 H 0.79356 0.47732 0.70188
 H172 H 0.82080 0.48823 0.74196
 C173 C 0.93093 0.56957 0.72003
 C174 C 0.92577 0.41405 0.77814
 C175 C 0.82772 0.47388 0.67406
 C176 C 0.82923 0.52238 0.82712
 C177 C 0.26565 0.41201 -0.03351
 H178 H 0.27393 0.41556 -0.01351
 C179 C 0.27666 0.42514 -0.05676
 H180 H 0.29298 0.43936 -0.05430
 C181 C 0.23487 0.38842 -0.06088
 H182 H 0.21922 0.37334 -0.06251
 C183 C 0.24550 0.40084 -0.08473
 H184 H 0.23778 0.39513 -0.10443
 N185 N 0.24526 0.39392 -0.03595
 C186 C 0.21352 0.38192 0.04719
 H187 H 0.21301 0.35951 0.04749
 C188 C 0.20538 0.39638 0.07032
 H189 H 0.19822 0.38493 0.08827
 C190 C 0.22317 0.42393 0.02311
 H191 H 0.23002 0.43455 0.00461
 C192 C 0.21509 0.43930 0.04586
 H193 H 0.21608 0.46170 0.04478
 Zn194 Zn 0.23485 0.37294 -0.00444
 N195 N 0.22273 0.39574 0.02442
 C196 C 0.27671 0.35919 0.03139
 N197 N 0.26574 0.35277 0.00699
 C198 C 0.27861 0.33541 -0.01064
 C199 C 0.30394 0.32444 -0.00424
 C200 C 0.30184 0.34885 0.03848
 C201 C 0.18298 0.36339 -0.01943
 C202 C 0.16024 0.34865 -0.02591
 C203 C 0.18526 0.30601 -0.01833
 C204 C 0.20763 0.32166 -0.01191
 N205 N 0.20610 0.34983 -0.01290
 H206 H 0.26671 0.37356 0.04485
 H207 H 0.26977 0.33115 -0.03022
 H208 H 0.31448 0.31154 -0.01885
 H209 H 0.31052 0.35487 0.05767
 H210 H 0.18235 0.38582 -0.01984
 H211 H 0.14227 0.35995 -0.03177
 H212 H 0.18673 0.28359 -0.01751
 H213 H 0.22611 0.31133 -0.00618
 C214 C 0.20644 0.42544 0.07001
 C215 C 0.26706 0.41908 -0.08293
 C216 C 0.16118 0.31956 -0.02552
 C217 C 0.31610 0.33189 0.02027
 C218 C 0.77177 0.08187 1.03150
 H219 H 0.78075 0.08151 1.01117
 C220 C 0.78379 0.06717 1.05313
 H221 H 0.80168 0.05497 1.04905
 C222 C 0.73822 0.09927 1.06156
 H223 H 0.72098 0.11257 1.06491
 C224 C 0.74979 0.08514 1.08388
 H225 H 0.74126 0.08785 1.10420
 N226 N 0.74967 0.09787 1.03612
 C227 C 0.71552 0.11852 0.95606
 H228 H 0.71315 0.14067 0.95835
 C229 C 0.70701 0.10617 0.93218
 H230 H 0.69791 0.11892 0.91619
 C231 C 0.72960 0.07496 0.97460
 H232 H 0.73819 0.06287 0.99128
 C233 C 0.72115 0.06168 0.95109
 H234 H 0.72364 0.03943 0.94973
 Zn235 Zn 0.73825 0.12228 1.00755
 N236 N 0.72703 0.10296 0.97644
 C237 C 0.77519 0.14900 0.97126
 N238 N 0.76773 0.14514 0.99802
 C239 C 0.78242 0.15560 1.01863
 C240 C 0.80584 0.17025 1.01264
 C241 C 0.79806 0.16397 0.96437
 C242 C 0.68485 0.13055 1.02187
 C243 C 0.66191 0.14499 1.03021
 C244 C 0.68862 0.18607 1.03431
 C245 C 0.71101 0.17093 1.02545
 N246 N 0.70874 0.14362 1.01971
 H247 H 0.76383 0.14003 0.95514
 H248 H 0.77631 0.15189 1.03977
 H249 H 0.81764 0.17803 1.02921
 H250 H 0.80392 0.16644 0.94297
 H251 H 0.68367 0.10882 1.01705
 H252 H 0.64308 0.13422 1.03214
 H253 H 0.69066 0.20775 1.03907
 H254 H 0.73017 0.18093 1.02334
 C255 C 0.70991 0.07741 0.92942
 C256 C 0.77335 0.06944 1.07995
 C257 C 0.66371 0.17304 1.03675
 C258 C 0.81384 0.17452 0.98518
 C259 C 0.29937 0.58348 0.51517
 H260 H 0.31163 0.58359 0.49670
 C261 C 0.30699 0.56729 0.53800
 H262 H 0.32529 0.55508 0.53694
 C263 C 0.26151 0.60067 0.53949
 H264 H 0.24410 0.61410 0.54029
 C265 C 0.26832 0.58476 0.56268
 H266 H 0.25567 0.58577 0.58085
 N267 N 0.27709 0.59993 0.51640
 C268 C 0.25164 0.62038 0.43312
 H269 H 0.25172 0.64275 0.43423
 C270 C 0.24214 0.60786 0.40973
 H271 H 0.23474 0.62086 0.39300
 C272 C 0.25974 0.57650 0.45449
 H273 H 0.26618 0.56443 0.47221
 C274 C 0.25038 0.56307 0.43141
 H275 H 0.25013 0.54063 0.43142
 Zn276 Zn 0.26942 0.62436 0.48646
 N277 N 0.26007 0.60467 0.45492
 C278 C 0.31381 0.64220 0.45471
 N279 N 0.30054 0.64567 0.47900
 C280 C 0.31045 0.66223 0.49862
 C281 C 0.33417 0.67678 0.49377
 C282 C 0.33784 0.65581 0.44931
 C283 C 0.21537 0.63304 0.49596
 C284 C 0.19200 0.64624 0.50496
 C285 C 0.21761 0.68739 0.51270
 C286 C 0.24051 0.67350 0.50309
 N287 N 0.23911 0.64652 0.49573
 H288 H 0.30618 0.62832 0.43970
 H289 H 0.30015 0.66383 0.51819
 H290 H 0.34188 0.68996 0.50945
 H291 H 0.34832 0.65267 0.43000
 H292 H 0.21480 0.61160 0.48999
 H293 H 0.17350 0.63480 0.50598
 H294 H 0.21909 0.70856 0.51937
 H295 H 0.25939 0.68407 0.50232
 C296 C 0.24117 0.57882 0.40871
 C297 C 0.29158 0.56814 0.56233
 C298 C 0.19307 0.67353 0.51409
 C299 C 0.34817 0.67336 0.46894
 C300 C 0.80113 0.91312 0.48685
 H301 H 0.81243 0.90990 0.50547
 C302 C 0.81096 0.93064 0.46597
 H303 H 0.82967 0.94118 0.46888
 C304 C 0.76379 0.90209 0.45990
 H305 H 0.74573 0.89042 0.45735
 C306 C 0.77291 0.91942 0.43848
 H307 H 0.76186 0.92063 0.41952
 N308 N 0.77836 0.89863 0.48316
 C309 C 0.74770 0.86860 0.56238
 H310 H 0.74407 0.84730 0.55733
 C311 C 0.73776 0.87871 0.58706
 H312 H 0.72715 0.86490 0.60113
 C313 C 0.76378 0.91302 0.54926
 H314 H 0.77324 0.92651 0.53415
 C315 C 0.75430 0.92400 0.57395
 H316 H 0.75647 0.94590 0.57765
 Zn317 Zn 0.76904 0.87043 0.50926
 N318 N 0.76010 0.88577 0.54384
 C319 C 0.80060 0.82834 0.53560
 N320 N 0.79865 0.84535 0.51302
 C321 C 0.81858 0.84611 0.49368
 C322 C 0.84217 0.83073 0.49750
 C323 C 0.82381 0.81261 0.54022
 C324 C 0.71406 0.85950 0.50581
 C325 C 0.69118 0.84746 0.49553
 C326 C 0.71938 0.81999 0.46569
 C327 C 0.74182 0.83223 0.47691
 N328 N 0.73876 0.85168 0.49651
 H329 H 0.78467 0.82763 0.55068
 H330 H 0.81648 0.85914 0.47548
 H331 H 0.85802 0.83216 0.48218
 H332 H 0.82540 0.80036 0.55904
 H333 H 0.71199 0.87572 0.52063
 H334 H 0.67166 0.85439 0.50271
 H335 H 0.72200 0.80491 0.44972
 H336 H 0.76166 0.82674 0.46954
 C337 C 0.74055 0.90682 0.59283
 C338 C 0.79726 0.93322 0.44102
 C339 C 0.69368 0.82774 0.47497
 C340 C 0.84527 0.81421 0.52137
 C341 C -0.02570 0.29282 0.42355
 H342 H -0.00693 0.30357 0.42141
 C343 C -0.04698 0.30529 0.43766
 H344 H -0.04429 0.32532 0.44675
 C345 C -0.05297 0.25508 0.41216
 H346 H -0.05569 0.23610 0.40134
 C347 C -0.07464 0.26658 0.42651
 H348 H -0.09377 0.25627 0.42661
 N349 N -0.02916 0.26848 0.41055
 C350 C 0.04181 0.22007 0.39758
 H351 H 0.03453 0.20957 0.37989
 C352 C 0.06462 0.20983 0.41055
 H353 H 0.07437 0.19132 0.40289
 C354 C 0.03907 0.25771 0.42790
 H355 H 0.02920 0.27649 0.43444
 C356 C 0.06209 0.24822 0.44145
 H357 H 0.06955 0.25959 0.45859
 Zn358 Zn -0.00130 0.25577 0.38669
 N359 N 0.02919 0.24335 0.40661
 C360 C 0.03402 0.28387 0.35107
 N361 N 0.00934 0.28539 0.36305
 C362 C -0.00669 0.30818 0.35947
 C363 C 0.00250 0.33117 0.34435
 C364 C 0.04391 0.30630 0.33562
 C365 C -0.01945 0.20165 0.37920
 C366 C -0.02753 0.17869 0.36471
 C367 C -0.02333 0.20584 0.32261
 C368 C -0.01526 0.22833 0.33794
 N369 N -0.01354 0.22587 0.36573
 H370 H 0.04633 0.26550 0.35416
 H371 H -0.02647 0.30873 0.36869
 H372 H -0.01032 0.34933 0.34206
 H373 H 0.06396 0.30507 0.32700
 H374 H -0.01769 0.20019 0.40130
 H375 H -0.03254 0.15977 0.37590
 H376 H -0.02441 0.20810 0.30049
 H377 H -0.01026 0.24769 0.32763
 C378 C 0.07491 0.22378 0.43293
 C379 C -0.07195 0.29237 0.43875
 C380 C -0.02956 0.18058 0.33601
 C381 C 0.02826 0.33054 0.33254
 C382 C 1.02094 0.78291 0.08224
 H383 H 1.00199 0.79325 0.07836
 C384 C 1.04427 0.79257 0.06932
 H385 H 1.04299 0.81007 0.05506
 C386 C 1.04572 0.74809 0.10622
 H387 H 1.04646 0.73141 0.12134
 C388 C 1.06947 0.75710 0.09387
 H389 H 1.08814 0.74710 0.09967
 N390 N 1.02208 0.76110 0.10039
 C391 C 0.94062 0.73097 0.11164
 H392 H 0.94054 0.72962 0.13384
 C393 C 0.91793 0.72372 0.09734
 H394 H 0.90052 0.71643 0.10868
 C395 C 0.96368 0.74189 0.07003
 H396 H 0.98159 0.74897 0.05954
 C397 C 0.94136 0.73457 0.05481
 H398 H 0.94217 0.73628 0.03261
 Zn399 Zn 0.99097 0.75126 0.12074
 N400 N 0.96268 0.74042 0.09797
 C401 C 0.95530 0.79394 0.13635
 N402 N 0.97997 0.78270 0.14095
 C403 C 0.99707 0.79440 0.15873
 C404 C 0.98910 0.81774 0.17352
 C405 C 0.94651 0.81699 0.15073
 C406 C 1.00516 0.69650 0.13140
 C407 C 1.01320 0.67309 0.14658
 C408 C 1.00697 0.69905 0.18806
 C409 C 0.99906 0.72206 0.17201
 N410 N 0.99895 0.72053 0.14416
 H411 H 0.94234 0.78522 0.12137
 H412 H 1.01684 0.78548 0.16154
 H413 H 1.00266 0.82653 0.18802
 H414 H 0.92673 0.82551 0.14681
 H415 H 1.00471 0.69585 0.10922
 H416 H 1.01925 0.65462 0.13580
 H417 H 1.00739 0.70071 0.21018
 H418 H 0.99350 0.74120 0.18179
 C419 C 0.91796 0.72580 0.06857
 C420 C 1.06905 0.77988 0.07544
 C421 C 1.01461 0.67427 0.17530
 C422 C 0.96332 0.82899 0.16984
 C423 C 0.53174 0.26985 0.56682
 H424 H 0.51182 0.27811 0.56389
 C425 C 0.55312 0.28172 0.55222
 H426 H 0.54926 0.29866 0.53778
 C427 C 0.56136 0.23909 0.59025
 H428 H 0.56483 0.22337 0.60595
 C429 C 0.58326 0.25027 0.57604
 H430 H 0.60319 0.24278 0.58092
 N431 N 0.53617 0.24915 0.58574
 C432 C 0.46776 0.20000 0.59367
 H433 H 0.47853 0.18512 0.60623
 C434 C 0.44359 0.19221 0.58253
 H435 H 0.43668 0.17123 0.58606
 C436 C 0.46247 0.24556 0.57527
 H437 H 0.46919 0.26670 0.57363
 C438 C 0.43804 0.23856 0.56365
 H439 H 0.42643 0.25429 0.55274
 Zn440 Zn 0.50788 0.23687 0.60955
 N441 N 0.47686 0.22631 0.58999
 C442 C 0.47421 0.26411 0.64689
 N443 N 0.49760 0.26630 0.63251
 C444 C 0.51242 0.28973 0.63309
 C445 C 0.50345 0.31247 0.64805
 C446 C 0.46447 0.28637 0.66205
 C447 C 0.52900 0.18340 0.61703
 C448 C 0.53834 0.15985 0.63109
 C449 C 0.53071 0.18330 0.67382
 C450 C 0.52115 0.20642 0.65886
 N451 N 0.52046 0.20602 0.63095
 H452 H 0.46274 0.24531 0.64590
 H453 H 0.53107 0.29095 0.62167
 H454 H 0.51547 0.33097 0.64817
 H455 H 0.44532 0.28452 0.67254
 H456 H 0.52829 0.18364 0.59483
 H457 H 0.54438 0.14193 0.61944
 H458 H 0.53162 0.18417 0.69597
 H459 H 0.51449 0.22472 0.66952
 C460 C 0.42814 0.21169 0.56774
 C461 C 0.57936 0.27231 0.55720
 C462 C 0.53957 0.15960 0.65989
 C463 C 0.47897 0.31113 0.66248
 C464 C 0.46178 0.76856 0.91323
 H465 H 0.48090 0.77845 0.91484
 C466 C 0.43967 0.77924 0.92763
 H467 H 0.44227 0.79729 0.94006
 C468 C 0.43471 0.73491 0.89314
 H469 H 0.43228 0.71838 0.87894
 C470 C 0.41231 0.74446 0.90760
 H471 H 0.39344 0.73417 0.90496
 N472 N 0.45897 0.74692 0.89607
 C473 C 0.52887 0.69744 0.89229
 H474 H 0.51937 0.68289 0.87924
 C475 C 0.55256 0.68952 0.90517
 H476 H 0.56059 0.66888 0.90196
 C477 C 0.53152 0.74253 0.91010
 H478 H 0.52388 0.76351 0.91106
 C479 C 0.55540 0.73545 0.92339
 H480 H 0.56538 0.75086 0.93524
 Zn481 Zn 0.48842 0.73455 0.87365
 N482 N 0.51863 0.72353 0.89501
 C483 C 0.52311 0.75982 0.83594
 N484 N 0.49997 0.76396 0.85028
 C485 C 0.48746 0.78918 0.85025
 C486 C 0.49921 0.81195 0.83680
 C487 C 0.53537 0.78188 0.82197
 C488 C 0.46847 0.68122 0.86707
 C489 C 0.45944 0.65820 0.85336
 C490 C 0.47028 0.68137 0.81021
 C491 C 0.47871 0.70428 0.82481
 N492 N 0.47755 0.70384 0.85276
 H493 H 0.53264 0.73955 0.83635
 H494 H 0.46897 0.79201 0.86162
 H495 H 0.48974 0.83217 0.83840
 H496 H 0.55411 0.77821 0.81118
 H497 H 0.46794 0.68128 0.88928
 H498 H 0.45188 0.64056 0.86508
 H499 H 0.47092 0.68202 0.78798
 H500 H 0.48593 0.72244 0.81378
 C501 C 0.56625 0.70861 0.92093
 C502 C 0.41435 0.76736 0.92469
 C503 C 0.46017 0.65818 0.82461
 C504 C 0.52394 0.80863 0.82314
 C505 C 0.47755 -0.15172 0.33925
 C506 C 0.46713 -0.17840 0.33489
 C507 C 0.47852 -0.20183 0.34815
 C508 C 0.49974 -0.19897 0.36628
 C509 C 0.50913 -0.17241 0.37155
 C510 C 0.49842 -0.14911 0.35808
 C511 C 0.46524 -0.12727 0.32439
 C512 C 0.47547 -0.10025 0.32571
 C513 C 0.46285 -0.07801 0.31211
 C514 C 0.43963 -0.08199 0.29689
 C515 C 0.42970 -0.10903 0.29494
 C516 C 0.44251 -0.13161 0.30817
 C517 C 0.44507 -0.18140 0.31784
 C518 C 0.43275 -0.15847 0.30514
 H519 H 0.43691 -0.20176 0.31464
 H520 H 0.41545 -0.16185 0.29253
 H521 H 0.47057 -0.22221 0.34470
 H522 H 0.52456 -0.16935 0.38645
 H523 H 0.47146 -0.05762 0.31341
 H524 H 0.41168 -0.11255 0.28349
 H525 H 0.50639 -0.12924 0.36315
 H526 H 0.49332 -0.09586 0.33691
 C527 C 0.96546 0.31193 0.82995
 C528 C 0.98801 0.31414 0.84698
 C529 C 0.99613 0.29150 0.86363
 C530 C 0.98204 0.26658 0.86363
 C531 C 0.96105 0.26373 0.84522
 C532 C 0.95275 0.28609 0.82860
 C533 C 0.95571 0.33741 0.81474
 C534 C 0.93187 0.33812 0.79967
 C535 C 0.92262 0.36279 0.78744
 C536 C 0.93698 0.38747 0.78952
 C537 C 0.96118 0.38678 0.80389
 C538 C 0.97035 0.36218 0.81687
 C539 C 1.00192 0.33912 0.84779
 C540 C 0.99347 0.36252 0.83277
 H541 H 1.01942 0.34072 0.86052
 H542 H 1.00475 0.38144 0.83437
 H543 H 1.01290 0.29373 0.87718
 H544 H 0.95029 0.24442 0.84451
 H545 H 0.90359 0.36264 0.77710
 H546 H 0.97268 0.40554 0.80550
 H547 H 0.93610 0.28282 0.81527
 H548 H 0.91957 0.32009 0.79780
 C549 C 0.01347 1.15479 0.84715
 C550 C 0.00657 1.17840 0.83081
 C551 C -0.00150 1.20317 0.84332
 C552 C -0.00296 1.20474 0.87199
 C553 C 0.00330 1.18120 0.88805
 C554 C 0.01128 1.15651 0.87591
 C555 C 0.02378 1.12936 0.83314
 C556 C 0.03256 1.10540 0.84764
 C557 C 0.04379 1.08301 0.83378
 C558 C 0.04633 1.08365 0.80506
 C559 C 0.03664 1.10701 0.79034
 C560 C 0.02574 1.12989 0.80412
 C561 C 0.00837 1.17733 0.80214
 C562 C 0.01761 1.15356 0.78908
 H563 H 0.00289 1.19531 0.78958
 H564 H 0.01900 1.15395 0.76685
 H565 H -0.00572 1.22136 0.83065
 H566 H 0.00300 1.18200 0.91017
 H567 H 0.05143 1.06555 0.84579
 H568 H 0.03809 1.10765 0.76812
 H569 H 0.01613 1.13928 0.88949
 H570 H 0.03164 1.10372 0.86973
 C571 C 0.53557 0.69333 0.33067
 C572 C 0.55592 0.71106 0.33948
 C573 C 0.54934 0.73458 0.35455
 C574 C 0.52265 0.74154 0.36050
 C575 C 0.50235 0.72485 0.35057
 C576 C 0.50866 0.70095 0.33588
 C577 C 0.54382 0.66711 0.31661
 C578 C 0.52556 0.64649 0.30944
 C579 C 0.53457 0.62206 0.29710
 C580 C 0.56185 0.61791 0.29128
 C581 C 0.58008 0.63824 0.29840
 C582 C 0.57141 0.66244 0.31128
 C583 C 0.58284 0.70509 0.33363
 C584 C 0.59039 0.68152 0.31945
 H585 H 0.59836 0.71887 0.34015
 H586 H 0.61150 0.67785 0.31541
 H587 H 0.56537 0.74684 0.36213
 H588 H 0.48157 0.72961 0.35515
 H589 H 0.52020 0.60650 0.29187
 H590 H 0.60129 0.63481 0.29458
 H591 H 0.49230 0.68858 0.32912
 H592 H 0.50439 0.64866 0.31354
 C593 C 0.52460 0.34812 0.15586
 C594 C 0.50678 0.33091 0.17113
 C595 C 0.49652 0.30696 0.15929
 C596 C 0.50367 0.30028 0.13234
 C597 C 0.52100 0.31747 0.11724
 C598 C 0.53137 0.34105 0.12874
 C599 C 0.53565 0.37306 0.16925
 C600 C 0.55430 0.39065 0.15600
 C601 C 0.56492 0.41293 0.16960
 C602 C 0.55714 0.41852 0.19663
 C603 C 0.53799 0.40173 0.20989
 C604 C 0.52746 0.37881 0.19650
 C605 C 0.49935 0.33779 0.19799
 C606 C 0.50935 0.36129 0.21034
 H607 H 0.48562 0.32476 0.20968
 H608 H 0.50307 0.36562 0.23120
 H609 H 0.48291 0.29373 0.17089
 H610 H 0.52651 0.31266 0.09628
 H611 H 0.57954 0.42582 0.15899
 H612 H 0.53211 0.40591 0.23091
 H613 H 0.54455 0.35338 0.11592
 H614 H 0.56138 0.38742 0.13533
 C615 C 0.03930 0.81720 0.66284
 C616 C 0.04681 0.81422 0.63493
 C617 C 0.03977 0.79041 0.62093
 C618 C 0.02540 0.76921 0.63421
 C619 C 0.01850 0.77174 0.66199
 C620 C 0.02519 0.79551 0.67615
 C621 C 0.04752 0.84294 0.67708
 C622 C 0.04053 0.84844 0.70461
 C623 C 0.04968 0.87224 0.71718
 C624 C 0.06602 0.89104 0.70267
 C625 C 0.07230 0.88624 0.67503
 C626 C 0.06319 0.86252 0.66218
 C627 C 0.06174 0.83474 0.62121
 C628 C 0.06991 0.85828 0.63460
 H629 H 0.06751 0.83240 0.59985
 H630 H 0.08176 0.87338 0.62318
 H631 H 0.04621 0.78808 0.59978
 H632 H 0.00812 0.75537 0.67301
 H633 H 0.04456 0.87558 0.73853
 H634 H 0.08445 0.90101 0.66351
 H635 H 0.01944 0.79631 0.69754
 H636 H 0.02824 0.83456 0.71683
 C637 C 0.98625 0.66268 0.66844
 C638 C 0.97264 0.68861 0.66863
 C639 C 0.98283 0.71126 0.65344
 C640 C 1.00632 0.70852 0.63773
 C641 C 1.02021 0.68314 0.63807
 C642 C 1.01041 0.66048 0.65330
 C643 C 0.97371 0.63852 0.68346
 C644 C 0.98508 0.61159 0.68384
 C645 C 0.97161 0.58941 0.69647
 C646 C 0.94654 0.59349 0.70912
 C647 C 0.93563 0.62043 0.70989
 C648 C 0.94884 0.64280 0.69707
 C649 C 0.94853 0.69162 0.68327
 C650 C 0.93690 0.66922 0.69720
 H651 H 0.93822 0.71152 0.68354
 H652 H 0.91796 0.67252 0.70779
 H653 H 0.97185 0.73080 0.65292
 H654 H 1.03838 0.68048 0.62604
 H655 H 0.98042 0.56883 0.69546
 H656 H 0.91650 0.62390 0.72009
 H657 H 1.02175 0.64135 0.65245
 H658 H 1.00404 0.60706 0.67401
 C659 C 0.45430 0.19771 0.16944
 C660 C 0.43833 0.21238 0.15006
 C661 C 0.44837 0.23587 0.13618
 C662 C 0.47489 0.24387 0.13961
 C663 C 0.49044 0.23007 0.15945
 C664 C 0.48026 0.20736 0.17441
 C665 C 0.44327 0.17177 0.18265
 C666 C 0.45678 0.15626 0.20318
 C667 C 0.44602 0.13164 0.21400
 C668 C 0.42169 0.12152 0.20438
 C669 C 0.40809 0.13713 0.18407
 C670 C 0.41826 0.16226 0.17374
 C671 C 0.41302 0.20269 0.14341
 C672 C 0.40344 0.17788 0.15457
 H673 H 0.40084 0.21390 0.12850
 H674 H 0.38408 0.17081 0.14808
 H675 H 0.43574 0.24697 0.12174
 H676 H 0.51086 0.23617 0.16279
 H677 H 0.45674 0.12071 0.23017
 H678 H 0.38959 0.12965 0.17583
 H679 H 0.49339 0.19699 0.18884
 H680 H 0.47553 0.16292 0.21134
 C681 C 0.32299 0.45573 -0.18268
 C682 C 0.35117 0.45769 -0.18106
 C683 C 0.36627 0.46554 -0.20428
 C684 C 0.35394 0.47093 -0.22946
 C685 C 0.32616 0.46886 -0.23137
 C686 C 0.31076 0.46135 -0.20823
 C687 C 0.30765 0.44738 -0.15715
 C688 C 0.27952 0.44558 -0.15609
 C689 C 0.26632 0.43700 -0.13192
 C690 C 0.28077 0.42994 -0.10819
 C691 C 0.30875 0.43215 -0.10899
 C692 C 0.32217 0.44095 -0.13303
 C693 C 0.36422 0.45159 -0.15639
 C694 C 0.35006 0.44316 -0.13295
 H695 H 0.38579 0.45306 -0.15524
 H696 H 0.36114 0.43835 -0.11443
 H697 H 0.38782 0.46729 -0.20285
 H698 H 0.31633 0.47313 -0.25070
 H699 H 0.24470 0.43592 -0.13182
 H700 H 0.32029 0.42633 -0.09104
 H701 H 0.28943 0.45994 -0.21078
 H702 H 0.26736 0.45069 -0.17366
 C703 C 0.84524 0.97865 0.34090
 C704 C 0.82892 0.99513 0.32323
 C705 C 0.83912 1.00473 0.29763
 C706 C 0.86497 0.99697 0.28905
 C707 C 0.88095 0.98075 0.30666
 C708 C 0.87136 0.97171 0.33216
 C709 C 0.83380 0.96855 0.36783
 C710 C 0.84896 0.95310 0.38712
 C711 C 0.83711 0.94261 0.41113
 C712 C 0.80987 0.94728 0.41678
 C713 C 0.79477 0.96363 0.39824
 C714 C 0.80660 0.97446 0.37394
 C715 C 0.80246 1.00133 0.33104
 C716 C 0.79143 0.99090 0.35565
 H717 H 0.78987 1.01390 0.31761
 H718 H 0.77067 0.99574 0.36041
 H719 H 0.82698 1.01813 0.28464
 H720 H 0.90108 0.97471 0.30062
 H721 H 0.84920 0.92989 0.42489
 H722 H 0.77378 0.96770 0.40262
 H723 H 0.88465 0.95893 0.34441
 H724 H 0.86992 0.94853 0.38403
 C725 C 0.83325 0.03170 1.17562
 C726 C 0.81858 0.02226 1.19904
 C727 C 0.83206 0.01464 1.22339
 C728 C 0.85995 0.01675 1.22462
 C729 C 0.87434 0.02509 1.20110
 C730 C 0.86131 0.03256 1.17699
 C731 C 0.81831 0.04043 1.15033
 C732 C 0.83120 0.05107 1.12654
 C733 C 0.81652 0.05980 1.10379
 C734 C 0.78853 0.05808 1.10386
 C735 C 0.77543 0.04717 1.12739
 C736 C 0.79009 0.03850 1.15062
 C737 C 0.79065 0.02053 1.19791
 C738 C 0.77673 0.02839 1.17421
 H739 H 0.77933 0.01315 1.21569
 H740 H 0.75512 0.02684 1.17449
 H741 H 0.82088 0.00683 1.24098
 H742 H 0.89599 0.02610 1.20141
 H743 H 0.82721 0.06877 1.08634
 H744 H 0.75382 0.04562 1.12772
 H745 H 0.87371 0.03893 1.15978
 H746 H 0.85258 0.05342 1.12511
 C747 C 0.33091 0.51301 0.66166
 C748 C 0.32912 0.52829 0.68611
 C749 C 0.34100 0.51790 0.71025
 C750 C 0.35517 0.49270 0.71034
 C751 C 0.35575 0.47687 0.68662
 C752 C 0.34376 0.48682 0.66254
 C753 C 0.31974 0.52584 0.63581
 C754 C 0.32159 0.51304 0.61010
 C755 C 0.31212 0.52655 0.58640
 C756 C 0.30046 0.55310 0.58767
 C757 C 0.29807 0.56577 0.61327
 C758 C 0.30764 0.55248 0.63717
 C759 C 0.31624 0.55422 0.68617
 C760 C 0.30570 0.56604 0.66224
 H761 H 0.31471 0.56582 0.70493
 H762 H 0.29630 0.58637 0.66330
 H763 H 0.34002 0.53001 0.72866
 H764 H 0.36589 0.45694 0.68639
 H765 H 0.31392 0.51615 0.56698
 H766 H 0.28955 0.58649 0.61450
 H767 H 0.34525 0.47393 0.64478
 H768 H 0.33056 0.49277 0.60775
 C769 C 0.18493 0.53342 0.31667
 C770 C 0.16702 0.51153 0.32268
 C771 C 0.14997 0.50211 0.30230
 C772 C 0.14981 0.51483 0.27619
 C773 C 0.16808 0.53582 0.26992
 C774 C 0.18549 0.54505 0.28983
 C775 C 0.20165 0.54397 0.33947
 C776 C 0.21988 0.56581 0.33574
 C777 C 0.23338 0.57634 0.35804
 C778 C 0.22917 0.56541 0.38468
 C779 C 0.21205 0.54274 0.38839
 C780 C 0.19831 0.53202 0.36610
 C781 C 0.16557 0.49979 0.34921
 C782 C 0.18074 0.50993 0.37048
 H783 H 0.15195 0.48295 0.35379
 H784 H 0.17836 0.50059 0.39080
 H785 H 0.13634 0.48545 0.30718
 H786 H 0.16840 0.54563 0.24969
 H787 H 0.24695 0.59339 0.35446
 H788 H 0.20847 0.53418 0.40886
 H789 H 0.19870 0.56169 0.28395
 H790 H 0.22374 0.57535 0.31588
 C791 C 0.66976 0.02656 0.83142
 C792 C 0.65365 0.00288 0.83553
 C793 C 0.64170 -0.00949 0.81311
 C794 C 0.64582 0.00106 0.78640
 C795 C 0.66191 0.02429 0.78218
 C796 C 0.67385 0.03692 0.80437
 C797 C 0.68127 0.03974 0.85616
 C798 C 0.69666 0.06401 0.85453
 C799 C 0.70615 0.07596 0.87828
 C800 C 0.70075 0.06398 0.90423
 C801 C 0.68585 0.03959 0.90608
 C802 C 0.67593 0.02756 0.88238
 C803 C 0.64927 -0.00822 0.86200
 C804 C 0.66028 0.00378 0.88490
 H805 H 0.63703 -0.02643 0.86508
 H806 H 0.65619 -0.00554 0.90495
 H807 H 0.62880 -0.02705 0.81672
 H808 H 0.66498 0.03291 0.76167
 H809 H 0.71785 0.09466 0.87634
 H810 H 0.68128 0.03040 0.92609
 H811 H 0.68597 0.05482 0.79991
 H812 H 0.70139 0.07425 0.83520
 C813 C 0.68332 0.95048 0.68725
 C814 C 0.65559 0.94490 0.68875
 C815 C 0.63990 0.95548 0.71012
 C816 C 0.65133 0.97106 0.73062
 C817 C 0.67888 0.97576 0.73003
 C818 C 0.69479 0.96569 0.70846
 C819 C 0.69906 0.93975 0.66318
 C820 C 0.72627 0.94588 0.65826
 C821 C 0.73983 0.93544 0.63529
 C822 C 0.72666 0.91840 0.61705
 C823 C 0.69961 0.91248 0.62160
 C824 C 0.68569 0.92322 0.64416
 C825 C 0.64357 0.92878 0.66899
 C826 C 0.65839 0.91784 0.64737
 H827 H 0.62238 0.92438 0.67035
 H828 H 0.64820 0.90531 0.63269
 H829 H 0.61854 0.95171 0.71070
 H830 H 0.68808 0.98752 0.74591
 H831 H 0.76072 0.94037 0.63194
 H832 H 0.68919 0.89986 0.60713
 H833 H 0.71591 0.96996 0.70874
 H834 H 0.73729 0.95887 0.67171
 C835 C 0.16804 0.47959 0.16851
 C836 C 0.17490 0.46668 0.19391
 C837 C 0.16308 0.47587 0.21843
 C838 C 0.14387 0.49721 0.21797
 C839 C 0.13828 0.51111 0.19314
 C840 C 0.15019 0.50246 0.16865
 C841 C 0.17927 0.46759 0.14257
 C842 C 0.17273 0.47802 0.11617
 C843 C 0.18215 0.46480 0.09265
 C844 C 0.19833 0.44091 0.09481
 C845 C 0.20582 0.43105 0.12096
 C846 C 0.19633 0.44401 0.14473
 C847 C 0.19272 0.44407 0.19463
 C848 C 0.20324 0.43300 0.17057
 H849 H 0.19815 0.43434 0.21409
 H850 H 0.21649 0.41509 0.17220
 H851 H 0.16778 0.46545 0.23777
 H852 H 0.12426 0.52833 0.19235
 H853 H 0.17601 0.47276 0.07271
 H854 H 0.21876 0.41290 0.12283
 H855 H 0.14468 0.51356 0.15008
 H856 H 0.15990 0.49594 0.11320
 C857 C -0.16990 0.34758 0.47346
 C858 C -0.18587 0.33426 0.49390
 C859 C -0.21039 0.34634 0.50219
 C860 C -0.21995 0.37054 0.48903
 C861 C -0.20426 0.38343 0.46858
 C862 C -0.17959 0.37218 0.46084
 C863 C -0.14366 0.33451 0.46554
 C864 C -0.12530 0.34754 0.44741
 C865 C -0.10168 0.33404 0.43962
 C866 C -0.09580 0.30720 0.44953
 C867 C -0.11343 0.29434 0.46836
 C868 C -0.13705 0.30805 0.47685
 C869 C -0.17755 0.30873 0.50540
 C870 C -0.15397 0.29561 0.49660
 H871 H -0.18981 0.29838 0.52092
 H872 H -0.14877 0.27553 0.50559
 H873 H -0.22207 0.33677 0.51864
 H874 H -0.21087 0.40256 0.45863
 H875 H -0.08830 0.34430 0.42509
 H876 H -0.10870 0.27374 0.47641
 H877 H -0.16865 0.38292 0.44471
 H878 H -0.12875 0.36810 0.43897
 C879 C 0.31927 0.81745 0.97452
 C880 C 0.32285 0.83306 0.99838
 C881 C 0.30125 0.84822 1.00955
 C882 C 0.27597 0.84774 0.99742
 C883 C 0.27205 0.83047 0.97519
 C884 C 0.29336 0.81554 0.96379
 C885 C 0.34325 0.80375 0.96164
 C886 C 0.34231 0.79092 0.93604
 C887 C 0.36530 0.77925 0.92433
 C888 C 0.38992 0.77959 0.93790
 C889 C 0.39104 0.79246 0.96349
 C890 C 0.36809 0.80498 0.97511
 C891 C 0.34800 0.83362 1.01072
 C892 C 0.37001 0.81944 0.99963
 H893 H 0.35073 0.84523 1.02924
 H894 H 0.38902 0.82052 1.00996
 H895 H 0.30435 0.86072 1.02737
 H896 H 0.25261 0.82876 0.96611
 H897 H 0.36377 0.77052 0.90416
 H898 H 0.40981 0.79298 0.97433
 H899 H 0.28913 0.80279 0.94653
 H900 H 0.32420 0.79034 0.92430
 C901 C 1.17046 0.82642 0.03838
 C902 C 1.17179 0.85571 0.03684
 C903 C 1.19559 0.86858 0.02855
 C904 C 1.21837 0.85283 0.02199
 C905 C 1.21745 0.82392 0.02395
 C906 C 1.19374 0.81076 0.03207
 C907 C 1.14433 0.81357 0.04683
 C908 C 1.14047 0.78468 0.04826
 C909 C 1.11589 0.77381 0.05688
 C910 C 1.09451 0.79140 0.06428
 C911 C 1.09802 0.82018 0.06235
 C912 C 1.12256 0.83132 0.05364
 C913 C 1.14941 0.87206 0.04352
 C914 C 1.12538 0.86014 0.05193
 H915 H 1.15053 0.89449 0.04237
 H916 H 1.10870 0.87371 0.05708
 H917 H 1.19637 0.89103 0.02698
 H918 H 1.23493 0.81147 0.01895
 H919 H 1.11362 0.75152 0.05777
 H920 H 1.08182 0.83402 0.06836
 H921 H 1.19405 0.78841 0.03321
 H922 H 1.15613 0.77014 0.04288
 C923 C 0.67363 0.33203 0.51932
 C924 C 0.67241 0.36124 0.52138
 C925 C 0.69503 0.37713 0.51521
 C926 C 0.71913 0.36451 0.50713
 C927 C 0.72027 0.33578 0.50402
 C928 C 0.69782 0.31961 0.51020
 C929 C 0.64915 0.31580 0.52720
 C930 C 0.64844 0.28659 0.52716
 C931 C 0.62553 0.27248 0.53608
 C932 C 0.60271 0.28710 0.54506
 C933 C 0.60299 0.31616 0.54444
 C934 C 0.62595 0.33053 0.53586
 C935 C 0.64870 0.37452 0.52972
 C936 C 0.62595 0.35950 0.53671
 H937 H 0.64779 0.39691 0.53108
 H938 H 0.60817 0.37075 0.54330
 H939 H 0.69396 0.39949 0.51697
 H940 H 0.73831 0.32574 0.49658
 H941 H 0.62575 0.25003 0.53623
 H942 H 0.58567 0.32767 0.55184
 H943 H 0.69978 0.29754 0.50763
 H944 H 0.66547 0.27425 0.52081
 C945 C 0.32501 0.17315 0.53165
 C946 C 0.31037 0.15692 0.55107
 C947 C 0.28692 0.14381 0.54337
 C948 C 0.27750 0.14648 0.51654
 C949 C 0.29144 0.16302 0.49737
 C950 C 0.31495 0.17631 0.50479
 C951 C 0.35098 0.18529 0.54049
 C952 C 0.36772 0.20114 0.52280
 C953 C 0.39251 0.21045 0.53176
 C954 C 0.40114 0.20409 0.55846
 C955 C 0.38415 0.18936 0.57647
 C956 C 0.35942 0.17984 0.56775
 C957 C 0.31950 0.15313 0.57792
 C958 C 0.34349 0.16437 0.58609
 H959 H 0.30814 0.14085 0.59278
 H960 H 0.34991 0.16042 0.60700
 H961 H 0.27657 0.13079 0.55832
 H962 H 0.28449 0.16512 0.47646
 H963 H 0.40529 0.22191 0.51755
 H964 H 0.39043 0.18492 0.59736
 H965 H 0.32517 0.18848 0.48914
 H966 H 0.36226 0.20614 0.50190
 C967 C 0.82194 0.68699 0.01698
 C968 C 0.82549 0.66693 -0.00353
 C969 C 0.80343 0.65222 -0.01281
 C970 C 0.77789 0.65655 -0.00131
 C971 C 0.77406 0.67796 0.01727
 C972 C 0.79574 0.69309 0.02631
 C973 C 0.84633 0.69977 0.02877
 C974 C 0.84503 0.71818 0.05079
 C975 C 0.86834 0.72728 0.06293
 C976 C 0.89359 0.71851 0.05339
 C977 C 0.89520 0.70135 0.03055
 C978 C 0.87182 0.69165 0.01843
 C979 C 0.85117 0.66078 -0.01377
 C980 C 0.87382 0.67295 -0.00309
 H981 H 0.85387 0.64568 -0.02974
 H982 H 0.89328 0.66691 -0.01119
 H983 H 0.80657 0.63653 -0.02803
 H984 H 0.75442 0.68261 0.02553
 H985 H 0.86661 0.74092 0.08024
 H986 H 0.91463 0.69435 0.02314
 H987 H 0.79160 0.70884 0.04117
 H988 H 0.82626 0.72521 0.05948
 C989 C 0.66955 0.67181 0.96292
 C990 C 0.67126 0.64379 0.97210
 C991 C 0.69578 0.63243 0.98052
 C992 C 0.71882 0.64854 0.98042
 C993 C 0.71737 0.67632 0.97174
 C994 C 0.69298 0.68791 0.96297
 C995 C 0.64289 0.68278 0.95336
 C996 C 0.63892 0.71000 0.94289
 C997 C 0.61390 0.71868 0.93310
 C998 C 0.59217 0.70051 0.93363
 C999 C 0.59574 0.67373 0.94492
 C1000 C 0.62078 0.66468 0.95442
 C1001 C 0.64855 0.62714 0.97287
 C1002 C 0.62383 0.63740 0.96435
 H1003 H 0.64992 0.60575 0.98008
 H1004 H 0.60688 0.62360 0.96518
 H1005 H 0.69694 0.61088 0.98733
 H1006 H 0.73506 0.68903 0.97159
 H1007 H 0.61179 0.73938 0.92428
 H1008 H 0.57900 0.65966 0.94591
 H1009 H 0.69289 0.70940 0.95636
 H1010 H 0.65499 0.72470 0.94154
 C1011 C 0.17168 0.17507 0.47895
 C1012 C 0.17185 0.14585 0.48248
 C1013 C 0.19512 0.13190 0.49083
 C1014 C 0.21852 0.14640 0.49570
 C1015 C 0.21855 0.17529 0.49280
 C1016 C 0.19534 0.18958 0.48444
 C1017 C 0.14643 0.18895 0.46895
 C1018 C 0.14394 0.21783 0.46419
 C1019 C 0.12039 0.22938 0.45336
 C1020 C 0.09887 0.21241 0.44703
 C1021 C 0.10077 0.18389 0.45276
 C1022 C 0.12424 0.17207 0.46345
 C1023 C 0.14897 0.13054 0.47734
 C1024 C 0.12567 0.14337 0.46802
 H1025 H 0.14918 0.10819 0.48023
 H1026 H 0.10859 0.13054 0.46394
 H1027 H 0.19514 0.10948 0.49323
 H1028 H 0.23648 0.18677 0.49677
 H1029 H 0.11933 0.25149 0.44906
 H1030 H 0.08399 0.17073 0.44840
 H1031 H 0.19638 0.21183 0.48221
 H1032 H 0.16008 0.23173 0.46820
 C1033 C 0.58340 0.06136 0.71589
 C1034 C 0.60445 0.04738 0.70199
 C1035 C 0.61664 0.02392 0.71401
 C1036 C 0.60866 0.01412 0.74007
 C1037 C 0.58792 0.02780 0.75402
 C1038 C 0.57521 0.05107 0.74203
 C1039 C 0.57144 0.08686 0.70234
 C1040 C 0.55005 0.10222 0.71388
 C1041 C 0.53980 0.12588 0.70029
 C1042 C 0.55066 0.13490 0.67494
 C1043 C 0.57212 0.11986 0.66353
 C1044 C 0.58228 0.09595 0.67672
 C1045 C 0.61387 0.05725 0.67646
 C1046 C 0.60316 0.08111 0.66420
 H1047 H 0.63004 0.04652 0.66592
 H1048 H 0.61134 0.08803 0.64453
 H1049 H 0.63313 0.01404 0.70327
 H1050 H 0.58189 0.02080 0.77444
 H1051 H 0.52301 0.13685 0.70946
 H1052 H 0.58115 0.12685 0.64428
 H1053 H 0.55948 0.06101 0.75372
 H1054 H 0.54081 0.09615 0.73319
 C1055 C 1.06862 0.58065 0.22820
 C1056 C 1.06419 0.55427 0.21705
 C1057 C 1.08025 0.53146 0.22501
 C1058 C 1.10108 0.53465 0.24352
 C1059 C 1.10441 0.56025 0.25586
 C1060 C 1.08841 0.58303 0.24834
 C1061 C 1.05286 0.60503 0.21716
 C1062 C 1.05703 0.63241 0.22549
 C1063 C 1.04374 0.65470 0.21268
 C1064 C 1.02577 0.65034 0.19137
 C1065 C 1.02039 0.62303 0.18398
 C1066 C 1.03398 0.60048 0.19639
 C1067 C 1.04442 0.55101 0.19734
 C1068 C 1.02957 0.57361 0.18731
 H1069 H 1.04082 0.53077 0.18903
 H1070 H 1.01495 0.57010 0.17157
 H1071 H 1.07736 0.51146 0.21585
 H1072 H 1.11979 0.56301 0.27090
 H1073 H 1.04848 0.67553 0.21867
 H1074 H 1.00619 0.61934 0.16788
 H1075 H 1.09226 0.60236 0.25811
 H1076 H 1.07111 0.63720 0.24121
 C1077 C 0.91897 0.92540 0.22376
 C1078 C 0.93518 0.94919 0.22541
 C1079 C 0.92427 0.97408 0.23569
 C1080 C 0.89726 0.97544 0.24363
 C1081 C 0.88133 0.95202 0.24169
 C1082 C 0.89195 0.92729 0.23208
 C1083 C 0.93087 0.89952 0.21208
 C1084 C 0.91638 0.87480 0.21030
 C1085 C 0.92744 0.85188 0.19733
 C1086 C 0.95331 0.85275 0.18597
 C1087 C 0.96862 0.87668 0.18903
 C1088 C 0.95753 0.90010 0.20194
 C1089 C 0.96181 0.94811 0.21606
 C1090 C 0.97266 0.92419 0.20434
 H1091 H 0.97429 0.96623 0.21725
 H1092 H 0.99316 0.92464 0.19684
 H1093 H 0.93646 0.99241 0.23679
 H1094 H 0.86032 0.95288 0.24748
 H1095 H 0.91553 0.83338 0.19589
 H1096 H 0.98874 0.87743 0.18045
 H1097 H 0.87843 0.91019 0.23083
 H1098 H 0.89636 0.87268 0.21849
 C1099 C 0.42834 0.40628 0.71383
 C1100 C 0.43067 0.43228 0.69994
 C1101 C 0.41604 0.45541 0.70924
 C1102 C 0.39843 0.45284 0.73175
 C1103 C 0.39639 0.42719 0.74562
 C1104 C 0.41127 0.40428 0.73700
 C1105 C 0.44295 0.38170 0.70233
 C1106 C 0.44188 0.35498 0.71462
 C1107 C 0.45416 0.33236 0.70203
 C1108 C 0.46796 0.33568 0.67694
 C1109 C 0.47016 0.36243 0.66515
 C1110 C 0.45782 0.38536 0.67762
 C1111 C 0.44667 0.43474 0.67621
 C1112 C 0.45979 0.41175 0.66518
 H1113 H 0.44852 0.45461 0.66557
 H1114 H 0.47139 0.41463 0.64639
 H1115 H 0.41720 0.47503 0.69803
 H1116 H 0.38264 0.42431 0.76270
 H1117 H 0.45271 0.31210 0.71194
 H1118 H 0.48064 0.36532 0.64569
 H1119 H 0.40839 0.38504 0.74826
 H1120 H 0.43146 0.35099 0.73379
 C1121 C 0.41666 0.56140 0.77345
 C1122 C 0.38984 0.55498 0.78045
 C1123 C 0.37799 0.53147 0.76992
 C1124 C 0.39251 0.51343 0.75308
 C1125 C 0.41922 0.51923 0.74653
 C1126 C 0.43119 0.54308 0.75644
 C1127 C 0.42841 0.58701 0.78517
 C1128 C 0.45430 0.59649 0.77834
 C1129 C 0.46446 0.62008 0.79057
 C1130 C 0.44915 0.63444 0.81005
 C1131 C 0.42318 0.62566 0.81641
 C1132 C 0.41261 0.60242 0.80394
 C1133 C 0.37506 0.57168 0.79838
 C1134 C 0.38633 0.59466 0.81019
 H1135 H 0.35456 0.56661 0.80379
 H1136 H 0.37420 0.60663 0.82436
 H1137 H 0.35736 0.52697 0.77532
 H1138 H 0.43092 0.50543 0.73382
 H1139 H 0.48454 0.62673 0.78533
 H1140 H 0.41114 0.63709 0.83110
 H1141 H 0.45186 0.54660 0.75092
 H1142 H 0.46697 0.58598 0.76367
 C1143 C -0.07289 0.08573 0.28112
 C1144 C -0.06463 0.05904 0.29068
 C1145 C -0.07725 0.03525 0.28119
 C1146 C -0.09843 0.03775 0.26274
 C1147 C -0.10614 0.06411 0.25288
 C1148 C -0.09340 0.08776 0.26164
 C1149 C -0.06050 0.11070 0.29332
 C1150 C -0.06786 0.13809 0.28564
 C1151 C -0.05729 0.16063 0.29907
 C1152 C -0.03900 0.15657 0.32039
 C1153 C -0.03069 0.12941 0.32743
 C1154 C -0.04132 0.10654 0.31416
 C1155 C -0.04467 0.05637 0.31051
 C1156 C -0.03334 0.07959 0.32206
 H1157 H -0.03821 0.03598 0.31776
 H1158 H -0.01845 0.07639 0.33782
 H1159 H -0.07141 0.01493 0.28910
 H1160 H -0.12289 0.06679 0.23922
 H1161 H -0.06415 0.18131 0.29329
 H1162 H -0.01615 0.12605 0.34352
 H1163 H -0.10068 0.10742 0.25365
 H1164 H -0.08210 0.14265 0.26970
 C1165 C 0.07712 0.42727 0.28055
 C1166 C 0.07482 0.45254 0.29469
 C1167 C 0.08854 0.47609 0.28489
 C1168 C 0.10489 0.47472 0.26139
 C1169 C 0.10599 0.45018 0.24661
 C1170 C 0.09237 0.42672 0.25604
 C1171 C 0.06354 0.40215 0.29254
 C1172 C 0.06596 0.37570 0.28095
 C1173 C 0.05407 0.35267 0.29366
 C1174 C 0.03929 0.35536 0.31812
 C1175 C 0.03621 0.38170 0.32952
 C1176 C 0.04841 0.40497 0.31712
 C1177 C 0.05921 0.45403 0.31871
 C1178 C 0.04617 0.43079 0.32959
 H1179 H 0.05726 0.47340 0.32943
 H1180 H 0.03455 0.43297 0.34838
 H1181 H 0.08707 0.49532 0.29593
 H1182 H 0.11748 0.44883 0.22776
 H1183 H 0.05653 0.33260 0.28437
 H1184 H 0.02516 0.38390 0.34866
 H1185 H 0.09424 0.40838 0.24391
 H1186 H 0.07732 0.37220 0.26236
 C1187 C 0.58298 0.90599 0.78621
 C1188 C 0.56819 0.92872 0.77499
 C1189 C 0.58142 0.95314 0.76652
 C1190 C 0.60919 0.95500 0.76910
 C1191 C 0.62376 0.93236 0.77971
 C1192 C 0.61093 0.90822 0.78828
 C1193 C 0.56829 0.88043 0.79526
 C1194 C 0.58122 0.85723 0.80742
 C1195 C 0.56676 0.83405 0.81592
 C1196 C 0.53898 0.83310 0.81247
 C1197 C 0.52583 0.85611 0.80025
 C1198 C 0.54025 0.87975 0.79179
 C1199 C 0.54043 0.92677 0.77212
 C1200 C 0.52678 0.90278 0.78022
 H1201 H 0.52906 0.94405 0.76343
 H1202 H 0.50530 0.90234 0.77756
 H1203 H 0.57020 0.97044 0.75772
 H1204 H 0.64533 0.93334 0.78137
 H1205 H 0.57741 0.81704 0.82595
 H1206 H 0.50438 0.85565 0.79737
 H1207 H 0.62339 0.89159 0.79622
 H1208 H 0.60244 0.85658 0.81102
 C1209 C 0.71982 0.59477 0.07708
 C1210 C 0.73463 0.57752 0.05911
 C1211 C 0.74452 0.58837 0.03389
 C1212 C 0.74008 0.61632 0.02661
 C1213 C 0.72577 0.63329 0.04467
 C1214 C 0.71591 0.62284 0.06956
 C1215 C 0.70820 0.58225 0.10295
 C1216 C 0.69179 0.59746 0.12110
 C1217 C 0.68001 0.58458 0.14398
 C1218 C 0.68455 0.55640 0.14968
 C1219 C 0.70153 0.54110 0.13241
 C1220 C 0.71307 0.55375 0.10882
 C1221 C 0.73905 0.54954 0.06627
 C1222 C 0.72866 0.53797 0.09067
 H1223 H 0.75053 0.53630 0.05269
 H1224 H 0.73244 0.51616 0.09511
 H1225 H 0.75514 0.57493 0.01989
 H1226 H 0.72119 0.65464 0.03917
 H1227 H 0.66691 0.59661 0.15718
 H1228 H 0.70479 0.51917 0.13673
 H1229 H 0.70492 0.63710 0.08230
 H1230 H 0.68723 0.61916 0.11779
 C1231 C 0.21535 1.07768 0.58363
 C1232 C 0.21240 1.10680 0.58050
 C1233 C 0.22291 1.12046 0.55724
 C1234 C 0.23579 1.10564 0.53645
 C1235 C 0.23812 1.07679 0.53892
 C1236 C 0.22818 1.06288 0.56238
 C1237 C 0.20398 1.06400 0.60909
 C1238 C 0.20715 1.03542 0.61524
 C1239 C 0.19535 1.02365 0.63888
 C1240 C 0.18008 1.04007 0.65664
 C1241 C 0.17734 1.06851 0.65119
 C1242 C 0.18942 1.08064 0.62785
 C1243 C 0.19856 1.12214 0.60029
 C1244 C 0.18697 1.10928 0.62327
 H1245 H 0.19624 1.14442 0.59774
 H1246 H 0.17602 1.12200 0.63776
 H1247 H 0.22082 1.14282 0.55514
 H1248 H 0.24756 1.06495 0.52281
 H1249 H 0.19762 1.00159 0.64302
 H1250 H 0.16566 1.08115 0.66520
 H1251 H 0.23039 1.04061 0.56332
 H1252 H 0.21857 1.02188 0.60208
 C1253 C 0.21494 0.91698 0.93008
 C1254 C 0.20988 0.88866 0.93590
 C1255 C 0.21989 0.87591 0.95976
 C1256 C 0.23549 0.89056 0.97797
 C1257 C 0.24012 0.91874 0.97270
 C1258 C 0.23006 0.93186 0.94896
 C1259 C 0.20369 0.92972 0.90420
 C1260 C 0.20709 0.95781 0.89641
 C1261 C 0.19585 0.96859 0.87221
 C1262 C 0.18118 0.95161 0.85509
 C1263 C 0.17783 0.92366 0.86260
 C1264 C 0.18879 0.91267 0.88688
 C1265 C 0.19486 0.87306 0.91797
 C1266 C 0.18460 0.88479 0.89394
 H1267 H 0.19102 0.85136 0.92253
 H1268 H 0.17313 0.87181 0.88070
 H1269 H 0.21509 0.85446 0.96430
 H1270 H 0.25139 0.93078 0.98681
 H1271 H 0.19878 0.99024 0.86676
 H1272 H 0.16606 0.91051 0.84980
 H1273 H 0.23432 0.95356 0.94578
 H1274 H 0.21823 0.97178 0.90874
 C1275 C 0.71550 0.43599 0.42240
 C1276 C 0.72249 0.40748 0.42162
 C1277 C 0.73245 0.39381 0.44501
 C1278 C 0.73601 0.40802 0.46931
 C1279 C 0.72968 0.43629 0.47028
 C1280 C 0.71947 0.45023 0.44704
 C1281 C 0.70374 0.44938 0.39705
 C1282 C 0.69503 0.47731 0.39567
 C1283 C 0.68299 0.48825 0.37192
 C1284 C 0.67942 0.47167 0.34900
 C1285 C 0.68889 0.44419 0.34990
 C1286 C 0.70067 0.43291 0.37363
 C1287 C 0.71931 0.39256 0.39762
 C1288 C 0.70876 0.40504 0.37410
 H1289 H 0.72489 0.37079 0.39708
 H1290 H 0.70646 0.39251 0.35612
 H1291 H 0.73735 0.37185 0.44436
 H1292 H 0.73221 0.44747 0.48906
 H1293 H 0.67574 0.50950 0.37181
 H1294 H 0.68674 0.43135 0.33210
 H1295 H 0.71466 0.47197 0.44881
 H1296 H 0.69685 0.49084 0.41284
 C1297 C 0.77383 0.43261 0.57850
 C1298 C 0.78405 0.44111 0.55241
 C1299 C 0.77489 0.42870 0.52852
 C1300 C 0.75576 0.40780 0.53027
 C1301 C 0.74503 0.40003 0.55594
 C1302 C 0.75375 0.41238 0.57976
 C1303 C 0.78575 0.44459 0.60365
 C1304 C 0.77801 0.43637 0.63053
 C1305 C 0.79113 0.44651 0.65326
 C1306 C 0.81217 0.46529 0.64991
 C1307 C 0.81927 0.47449 0.62325
 C1308 C 0.80647 0.46412 0.60020
 C1309 C 0.80397 0.46121 0.55041
 C1310 C 0.81487 0.47254 0.57378
 H1311 H 0.81165 0.46791 0.53046
 H1312 H 0.83062 0.48764 0.57113
 H1313 H 0.78340 0.43451 0.50865
 H1314 H 0.73059 0.38359 0.55791
 H1315 H 0.78537 0.43879 0.67350
 H1316 H 0.83517 0.48938 0.62037
 H1317 H 0.74502 0.40518 0.59893
 H1318 H 0.76236 0.42161 0.63452
 C1319 C 0.28057 -0.07361 0.07933
 C1320 C 0.26047 -0.09344 0.08479
 C1321 C 0.25037 -0.10902 0.06339
 C1322 C 0.26040 -0.10572 0.03654
 C1323 C 0.28081 -0.08671 0.03121
 C1324 C 0.29066 -0.07062 0.05224
 C1325 C 0.29107 -0.05771 0.10292
 C1326 C 0.30999 -0.03649 0.09957
 C1327 C 0.32027 -0.02342 0.12235
 C1328 C 0.31212 -0.03117 0.14913
 C1329 C 0.29234 -0.05141 0.15255
 C1330 C 0.28165 -0.06448 0.12976
 C1331 C 0.25116 -0.09831 0.11170
 C1332 C 0.26180 -0.08444 0.13373
 H1333 H 0.23584 -0.11358 0.11588
 H1334 H 0.25437 -0.08944 0.15423
 H1335 H 0.23530 -0.12440 0.06801
 H1336 H 0.28959 -0.08469 0.01084
 H1337 H 0.33483 -0.00724 0.11892
 H1338 H 0.28581 -0.05772 0.17303
 H1339 H 0.30660 -0.05652 0.04701
 H1340 H 0.31714 -0.02972 0.07957
 C1341 C 0.27727 0.07513 0.42978
 C1342 C 0.25666 0.09542 0.42744
 C1343 C 0.24757 0.10950 0.45065
 C1344 C 0.25901 0.10428 0.47635
 C1345 C 0.27966 0.08457 0.47878
 C1346 C 0.28859 0.06991 0.45584
 C1347 C 0.28705 0.06141 0.40409
 C1348 C 0.30688 0.04032 0.40399
 C1349 C 0.31688 0.03002 0.37920
 C1350 C 0.30739 0.04060 0.35409
 C1351 C 0.28666 0.06038 0.35398
 C1352 C 0.27630 0.07065 0.37866
 C1353 C 0.24587 0.10242 0.40180
 C1354 C 0.25573 0.09058 0.37789
 H1355 H 0.23007 0.11796 0.40007
 H1356 H 0.24728 0.09735 0.35844
 H1357 H 0.23222 0.12535 0.44824
 H1358 H 0.28919 0.08079 0.49837
 H1359 H 0.33291 0.01469 0.37958
 H1360 H 0.27916 0.06835 0.33451
 H1361 H 0.30477 0.05516 0.45875
 H1362 H 0.31526 0.03193 0.42276
 C1363 C 0.78174 0.57241 0.92401
 C1364 C 0.75899 0.58966 0.91964
 C1365 C 0.74883 0.60601 0.94089
 C1366 C 0.76102 0.60575 0.96661
 C1367 C 0.78281 0.58784 0.97139
 C1368 C 0.79308 0.57130 0.95040
 C1369 C 0.79335 0.55720 0.89996
 C1370 C 0.81670 0.54057 0.90163
 C1371 C 0.82782 0.52860 0.87815
 C1372 C 0.81593 0.53279 0.85242
 C1373 C 0.79208 0.54835 0.85076
 C1374 C 0.78087 0.56068 0.87414
 C1375 C 0.74705 0.59133 0.89382
 C1376 C 0.75771 0.57711 0.87158
 H1377 H 0.72948 0.60434 0.89057
 H1378 H 0.74804 0.57957 0.85188
 H1379 H 0.73209 0.61987 0.93679
 H1380 H 0.79269 0.58756 0.99104
 H1381 H 0.84633 0.51684 0.88000
 H1382 H 0.78246 0.55132 0.83108
 H1383 H 0.81028 0.55841 0.95507
 H1384 H 0.82705 0.53707 0.92070
 C1385 C 0.09740 0.71331 0.56994
 C1386 C 0.07286 0.71185 0.55585
 C1387 C 0.04876 0.71951 0.56904
 C1388 C 0.04876 0.72766 0.59642
 C1389 C 0.07285 0.72813 0.61064
 C1390 C 0.09693 0.72125 0.59759
 C1391 C 0.12270 0.70527 0.55513
 C1392 C 0.14825 0.70801 0.56660
 C1393 C 0.17111 0.69871 0.55266
 C1394 C 0.16912 0.68641 0.52702
 C1395 C 0.14392 0.68473 0.51482
 C1396 C 0.12080 0.69438 0.52851
 C1397 C 0.07248 0.70212 0.52899
 C1398 C 0.09588 0.69309 0.51581
 H1399 H 0.05372 0.70083 0.51822
 H1400 H 0.09443 0.68507 0.49529
 H1401 H 0.03001 0.71862 0.55820
 H1402 H 0.07307 0.73398 0.63197
 H1403 H 0.19035 0.70023 0.56244
 H1404 H 0.14233 0.67569 0.49475
 H1405 H 0.11483 0.72184 0.60965
 H1406 H 0.15102 0.71706 0.58638
 C1407 C 0.56902 0.22781 1.08067
 C1408 C 0.54530 0.22714 1.06509
 C1409 C 0.52163 0.23976 1.07502
 C1410 C 0.52116 0.25215 1.10073
 C1411 C 0.54438 0.25180 1.11648
 C1412 C 0.56802 0.23996 1.10663
 C1413 C 0.59403 0.21487 1.06922
 C1414 C 0.61903 0.21667 1.08207
 C1415 C 0.64163 0.20356 1.07110
 C1416 C 0.63991 0.18823 1.04715
 C1417 C 0.61530 0.18692 1.03371
 C1418 C 0.59248 0.20049 1.04432
 C1419 C 0.54533 0.21344 1.04004
 C1420 C 0.56828 0.19997 1.03013
 H1421 H 0.52720 0.21269 1.02815
 H1422 H 0.56713 0.18921 1.01091
 H1423 H 0.50365 0.23964 1.06290
 H1424 H 0.54444 0.26104 1.13652
 H1425 H 0.66045 0.20487 1.08174
 H1426 H 0.61402 0.17553 1.01485
 H1427 H 0.58513 0.24027 1.11985
 H1428 H 0.62165 0.22815 1.10055
 C1429 C 0.91406 0.21889 0.94422
 C1430 C 0.91240 0.23821 0.92198
 C1431 C 0.93552 0.24571 0.90716
 C1432 C 0.96029 0.23327 0.91313
 C1433 C 0.96231 0.21559 0.93621
 C1434 C 0.93951 0.20843 0.95164
 C1435 C 0.88851 0.20944 0.95780
 C1436 C 0.88775 0.18982 0.97971
 C1437 C 0.86333 0.17955 0.98962
 C1438 C 0.83920 0.18852 0.97787
 C1439 C 0.83963 0.20919 0.95721
 C1440 C 0.86397 0.21972 0.94717
 C1441 C 0.88754 0.24894 0.91373
 C1442 C 0.86383 0.23973 0.92591
 H1443 H 0.88632 0.26393 0.89686
 H1444 H 0.84505 0.24791 0.91808
 H1445 H 0.93371 0.26042 0.89026
 H1446 H 0.98146 0.20690 0.94218
 H1447 H 0.86339 0.16360 1.00564
 H1448 H 0.82094 0.21645 0.94836
 H1449 H 0.94216 0.19411 0.96874
 H1450 H 0.90574 0.18160 0.98897
 C1451 C 0.44628 0.72837 0.43634
 C1452 C 0.44386 0.75669 0.42837
 C1453 C 0.46524 0.77005 0.41480
 C1454 C 0.48915 0.75562 0.40934
 C1455 C 0.49242 0.72845 0.41947
 C1456 C 0.47125 0.71487 0.43281
 C1457 C 0.42184 0.71380 0.44716
 C1458 C 0.42107 0.68485 0.45170
 C1459 C 0.39721 0.67192 0.45943
 C1460 C 0.37373 0.68753 0.46340
 C1461 C 0.37434 0.71641 0.45984
 C1462 C 0.39801 0.72956 0.45107
 C1463 C 0.41986 0.77120 0.43319
 C1464 C 0.39758 0.75804 0.44477
 H1465 H 0.41814 0.79301 0.42754
 H1466 H 0.37938 0.77012 0.44775
 H1467 H 0.46281 0.79131 0.40753
 H1468 H 0.51094 0.71715 0.41574
 H1469 H 0.39694 0.64955 0.46192
 H1470 H 0.35601 0.72839 0.46242
 H1471 H 0.47462 0.69368 0.43955
 H1472 H 0.43839 0.67171 0.44842
 C1473 C 0.59526 0.79558 0.42375
 C1474 C 0.57478 0.78424 0.44081
 C1475 C 0.55029 0.77660 0.42939
 C1476 C 0.54580 0.78092 0.40130
 C1477 C 0.56548 0.79372 0.38489
 C1478 C 0.58995 0.80080 0.39582
 C1479 C 0.62146 0.80237 0.43629
 C1480 C 0.64385 0.81090 0.42051
 C1481 C 0.66751 0.81816 0.43317
 C1482 C 0.66945 0.81720 0.46182
 C1483 C 0.64765 0.80767 0.47772
 C1484 C 0.62387 0.79980 0.46513
 C1485 C 0.57881 0.78109 0.46913
 C1486 C 0.60261 0.78927 0.48110
 H1487 H 0.56312 0.77268 0.48232
 H1488 H 0.60452 0.78698 0.50317
 H1489 H 0.53482 0.76739 0.44229
 H1490 H 0.56205 0.79785 0.36326
 H1491 H 0.68412 0.82540 0.42053
 H1492 H 0.64927 0.80639 0.49989
 H1493 H 0.60426 0.81057 0.38210
 H1494 H 0.64354 0.81213 0.39839
 C1495 C 0.06713 0.26565 -0.06664
 C1496 C 0.04188 0.27702 -0.05902
 C1497 C 0.01845 0.26767 -0.07127
 C1498 C 0.01988 0.24744 -0.09137
 C1499 C 0.04475 0.23587 -0.09855
 C1500 C 0.06807 0.24466 -0.08626
 C1501 C 0.09181 0.27740 -0.05446
 C1502 C 0.11786 0.26794 -0.06116
 C1503 C 0.14028 0.28103 -0.05098
 C1504 C 0.13738 0.30377 -0.03374
 C1505 C 0.11152 0.31246 -0.02586
 C1506 C 0.08882 0.29961 -0.03616
 C1507 C 0.04027 0.29827 -0.03995
 C1508 C 0.06324 0.30936 -0.02881
 H1509 H 0.02098 0.30689 -0.03399
 H1510 H 0.06094 0.32622 -0.01460
 H1511 H -0.00080 0.27684 -0.06595
 H1512 H 0.04643 0.22053 -0.11436
 H1513 H 0.15997 0.27396 -0.05748
 H1514 H 0.10904 0.32966 -0.01207
 H1515 H 0.08663 0.23525 -0.09301
 H1516 H 0.12145 0.25088 -0.07468
 C1517 C 0.42184 0.30114 0.05795
 C1518 C 0.42890 0.27262 0.05863
 C1519 C 0.45157 0.26336 0.07326
 C1520 C 0.46620 0.28195 0.08872
 C1521 C 0.45982 0.31027 0.08691
 C1522 C 0.43823 0.31982 0.07150
 C1523 C 0.39604 0.30996 0.04491
 C1524 C 0.38718 0.33779 0.04390
 C1525 C 0.36159 0.34465 0.03493
 C1526 C 0.34420 0.32414 0.02636
 C1527 C 0.35346 0.29658 0.02518
 C1528 C 0.37922 0.28933 0.03462
 C1529 C 0.41229 0.25342 0.04634
 C1530 C 0.38787 0.26156 0.03480
 H1531 H 0.41768 0.23159 0.04669
 H1532 H 0.37526 0.24575 0.02656
 H1533 H 0.45631 0.24139 0.07467
 H1534 H 0.47060 0.32528 0.09838
 H1535 H 0.35512 0.36617 0.03519
 H1536 H 0.34018 0.28066 0.01826
 H1537 H 0.43401 0.34177 0.07175
 H1538 H 0.39936 0.35457 0.05052
 C1539 C 0.94565 0.76672 0.55966
 C1540 C 0.94409 0.74168 0.57529
 C1541 C 0.96638 0.73181 0.58995
 C1542 C 0.99008 0.74700 0.59006
 C1543 C 0.99225 0.77065 0.57307
 C1544 C 0.97037 0.78045 0.55800
 C1545 C 0.92061 0.77810 0.54673
 C1546 C 0.91964 0.80371 0.53225
 C1547 C 0.89532 0.81476 0.52303
 C1548 C 0.87133 0.80055 0.52783
 C1549 C 0.87230 0.77433 0.54093
 C1550 C 0.89659 0.76317 0.55059
 C1551 C 0.91999 0.72722 0.57713
 C1552 C 0.89676 0.73772 0.56502
 H1553 H 0.91887 0.70787 0.58883
 H1554 H 0.87845 0.72614 0.56772
 H1555 H 0.96479 0.71280 0.60202
 H1556 H 1.01061 0.78217 0.57195
 H1557 H 0.89519 0.83512 0.51320
 H1558 H 0.85395 0.76295 0.54435
 H1559 H 0.97306 0.79918 0.54583
 H1560 H 0.93724 0.81600 0.52858
   
