data_POSCAR
  _audit_creation_date              2014-09-24
  _audit_creation_method            'ToBaCCo'
  _symmetry_space_group_name_H-M    'P1'
  _symmetry_Int_Tables_number       1
  _symmetry_cell_setting            triclinic
  loop_
  _symmetry_equiv_pos_as_xyz
 x,y,z
_cell_length_a 50.1884
_cell_length_b 49.9742
_cell_length_c 52.8530
_cell_angle_alpha 90.165900
_cell_angle_beta 90.438400
_cell_angle_gamma 89.637800
loop_
  _atom_site_label
  _atom_site_type_symbol
  _atom_site_fract_x
  _atom_site_fract_y
  _atom_site_fract_z
C1 C 0.39357 -0.01577 0.25079
 C2 C 0.10730 0.01534 0.74900
 C3 C 0.60541 0.51017 0.25467
 C4 C 0.89413 0.48953 0.75820
 C5 C 0.26185 0.35897 1.00175
 C6 C 0.73660 0.14082 1.00468
 C7 C 0.23685 0.64102 0.50314
 C8 C 0.76325 0.85740 0.50868
 C9 C 0.00233 0.25207 0.35716
 C10 C -0.00817 0.75596 0.11400
 C11 C 0.50589 0.24807 0.61227
 C12 C 0.49701 0.74654 0.85542
 C13 C -0.23943 0.64491 1.00887
 C14 C -0.26135 0.35810 0.50567
 C15 C 0.23666 -0.14140 0.00268
 C16 C 0.26277 1.14256 0.50028
 C17 C 0.10775 0.48802 0.25859
 C18 C -0.10569 1.00965 0.24919
 C19 C 0.39220 0.51252 -0.24545
 C20 C 0.60750 -0.00665 -0.24761
 C21 C 0.00675 0.25739 0.86193
 C22 C 0.50119 0.24862 0.10791
 C23 C -0.00579 0.75067 0.61023
 C24 C 0.49662 0.74787 0.36113
 Zr25 Zr 0.01199 -0.01048 1.03049
 O26 O 0.03709 0.00016 1.06123
 O27 O 0.00595 -0.05113 1.03696
 O28 O -0.00799 -0.01230 1.06597
 O29 O 0.06432 -0.01694 0.98819
 O30 O -0.04742 0.00858 1.05722
 O31 O 0.05032 -0.02870 1.02761
 O32 O -0.02209 -0.06427 1.00509
 O33 O -0.02795 -0.01598 1.01976
 O34 O 0.01204 -0.02616 0.99371
 O35 O -0.00585 0.02765 1.03275
 O36 O 0.03306 0.01740 1.00843
 Zr37 Zr -0.02663 0.03473 0.96104
 Zr38 Zr -0.04504 0.02222 1.02015
 Zr39 Zr 0.03099 0.00208 0.97153
 Zr40 Zr -0.02755 -0.03015 0.98254
 O41 O 0.06586 0.02467 0.96530
 O42 O -0.06579 -0.04390 0.99301
 O43 O -0.00826 -0.00337 0.95835
 O44 O -0.04704 0.00690 0.98334
 O45 O -0.02661 0.05084 0.99770
 O46 O 0.01331 0.03990 0.97207
 C47 C -0.00798 -0.06864 1.02504
 C48 C 0.06777 -0.02844 1.00972
 C49 C -0.03131 -0.00350 1.07236
 O50 O -0.08132 0.00129 1.02385
 O51 O -0.07593 0.04586 1.00558
 O52 O -0.06505 0.05346 0.96439
 C53 C -0.08061 0.05609 0.98375
 O54 O 0.03930 0.05777 1.04057
 Zr55 Zr 0.01317 0.05454 1.00887
 O56 O -0.02176 0.07563 0.95519
 O57 O -0.05289 0.05465 1.04494
 O58 O -0.00376 0.08301 1.03399
 O59 O 0.05023 0.07035 0.99723
 O60 O 0.00477 0.08934 0.98801
 C61 C -0.00902 0.09352 0.96781
 O62 O -0.05208 0.02417 0.93055
 O63 O 0.04037 -0.03199 0.94934
 O64 O -0.00674 0.03579 0.92542
 O65 O 0.03172 0.01249 0.93334
 O66 O -0.01101 -0.06053 0.95924
 O67 O -0.05012 -0.03377 0.94852
 C68 C 0.01607 0.02588 0.91870
 H69 H 0.02140 -0.04359 0.99235
 H70 H -0.06570 0.00482 0.97748
 H71 H 0.02303 0.05227 0.96089
 H72 H -0.00515 0.03477 1.05024
 H73 H -0.06690 -0.06306 0.98826
 H74 H -0.09230 0.01143 1.03613
 H75 H -0.07095 0.05196 1.05192
 H76 H 0.00662 0.09973 1.03255
 H77 H -0.02234 -0.07659 0.96087
 H78 H 0.05845 -0.02915 0.94249
 H79 H 0.07704 0.01426 0.95339
 H80 H 0.05059 0.08947 1.00226
 H81 H -0.05836 -0.05171 0.94775
 H82 H -0.05525 0.04066 0.92053
 H83 H 0.04027 -0.01630 1.07130
 H84 H 0.04400 0.07679 1.04327
 Zr85 Zr 0.51310 0.48646 0.53716
 O86 O 0.53909 0.49846 0.56677
 O87 O 0.50810 0.44593 0.54512
 O88 O 0.49456 0.48634 0.57337
 O89 O 0.56424 0.47929 0.49360
 O90 O 0.45476 0.50720 0.56557
 O91 O 0.55161 0.46875 0.53377
 O92 O 0.47980 0.43128 0.51410
 O93 O 0.47287 0.48002 0.52788
 O94 O 0.51227 0.46955 0.50089
 O95 O 0.49478 0.52444 0.53858
 O96 O 0.53309 0.51380 0.51363
 Zr97 Zr 0.47185 0.52852 0.46731
 Zr98 Zr 0.45522 0.51804 0.52741
 Zr99 Zr 0.53014 0.49717 0.47729
 Zr100 Zr 0.47242 0.46460 0.49105
 O101 O 0.56447 0.52002 0.46946
 O102 O 0.43497 0.45057 0.50352
 O103 O 0.49064 0.49062 0.46538
 O104 O 0.45243 0.50136 0.49116
 O105 O 0.47266 0.54592 0.50345
 O106 O 0.51197 0.53474 0.47708
 C107 C 0.49462 0.42770 0.53373
 C108 C 0.56851 0.46864 0.51539
 C109 C 0.47206 0.49648 0.58053
 O110 O 0.41979 0.49633 0.53340
 O111 O 0.42343 0.54043 0.51242
 O112 O 0.43335 0.54681 0.47080
 C113 C 0.41818 0.54991 0.49035
 O114 O 0.53997 0.55520 0.54403
 Zr115 Zr 0.51268 0.55065 0.51339
 O116 O 0.47549 0.56932 0.46025
 O117 O 0.44722 0.55185 0.55044
 O118 O 0.49641 0.57974 0.53828
 O119 O 0.54891 0.56676 0.49995
 O120 O 0.50262 0.58458 0.49198
 C121 C 0.48806 0.58785 0.47213
 O122 O 0.44594 0.51609 0.43782
 O123 O 0.53937 0.46246 0.45596
 O124 O 0.49093 0.52915 0.43123
 O125 O 0.52969 0.50625 0.43880
 O126 O 0.48839 0.43375 0.46793
 O127 O 0.44850 0.45938 0.45806
 C128 C 0.51368 0.51930 0.42425
 H129 H 0.52189 0.45224 0.49975
 H130 H 0.43365 0.49876 0.48588
 H131 H 0.52112 0.54692 0.46529
 H132 H 0.49607 0.53244 0.55569
 H133 H 0.43410 0.43120 0.49955
 H134 H 0.40893 0.50700 0.54538
 H135 H 0.42936 0.54928 0.55792
 H136 H 0.50659 0.59649 0.53605
 H137 H 0.47736 0.41759 0.47038
 H138 H 0.55720 0.46529 0.44853
 H139 H 0.57550 0.50934 0.45763
 H140 H 0.54905 0.58605 0.50436
 H141 H 0.44029 0.44143 0.45833
 H142 H 0.44215 0.53207 0.42726
 H143 H 0.54287 0.48240 0.57724
 H144 H 0.54462 0.57433 0.54596
 Zr145 Zr 0.48706 1.01281 0.53300
 O146 O 0.46183 1.00247 0.56332
 O147 O 0.49209 1.05382 0.53865
 O148 O 0.50650 1.01627 0.56884
 O149 O 0.43507 1.01703 0.48947
 O150 O 0.54667 0.99615 0.56178
 O151 O 0.44857 1.03033 0.52887
 O152 O 0.51993 1.06653 0.50696
 O153 O 0.52700 1.01883 0.52315
 O154 O 0.48710 1.02731 0.49589
 O155 O 0.50563 0.97515 0.53662
 O156 O 0.46675 0.98382 0.51116
 Zr157 Zr 0.52723 0.96634 0.46553
 Zr158 Zr 0.54487 0.98100 0.52491
 Zr159 Zr 0.46887 0.99806 0.47399
 Zr160 Zr 0.52672 1.03176 0.48559
 O161 O 0.43460 0.97446 0.46753
 O162 O 0.56443 1.04670 0.49693
 O163 O 0.50813 1.00393 0.46159
 O164 O 0.54692 0.99517 0.48776
 O165 O 0.52720 0.95139 0.50257
 O166 O 0.48731 0.96064 0.47574
 C167 C 0.50556 1.07128 0.52648
 C168 C 0.43132 1.02926 0.51061
 C169 C 0.52997 1.00849 0.57604
 O170 O 0.58078 1.00262 0.52886
 O171 O 0.57620 0.95732 0.51145
 O172 O 0.56585 0.94825 0.47021
 C173 C 0.58124 0.94641 0.48998
 O174 O 0.46107 0.94432 0.54405
 Zr175 Zr 0.48741 0.94713 0.51288
 O176 O 0.52317 0.92523 0.46043
 O177 O 0.55298 0.94962 0.55073
 O178 O 0.50473 0.91980 0.53896
 O179 O 0.45081 0.93017 0.50078
 O180 O 0.49669 0.91187 0.49296
 C181 C 0.51070 0.90744 0.47313
 O182 O 0.55294 0.97644 0.43552
 O183 O 0.45891 1.03122 0.45086
 O184 O 0.50776 0.96414 0.42933
 O185 O 0.46872 0.98673 0.43600
 O186 O 0.51007 1.06100 0.46102
 O187 O 0.54975 1.03469 0.45215
 C188 C 0.48482 0.97345 0.42189
 H189 H 0.47743 1.04450 0.49386
 H190 H 0.56559 0.99742 0.48228
 H191 H 0.47797 0.94776 0.46456
 H192 H 0.50488 0.96862 0.55427
 H193 H 0.56518 1.06573 0.49178
 H194 H 0.59178 0.99308 0.54166
 H195 H 0.57096 0.95285 0.55798
 H196 H 0.49469 0.90282 0.53768
 H197 H 0.52113 1.07730 0.46249
 H198 H 0.44093 1.02779 0.44372
 H199 H 0.42326 0.98428 0.45519
 H200 H 0.45079 0.91122 0.50625
 H201 H 0.55790 1.05265 0.45130
 H202 H 0.55640 0.95973 0.42586
 H203 H 0.45814 1.01913 0.57298
 H204 H 0.45678 0.92529 0.54710
 Zr205 Zr -0.01435 0.51671 1.04102
 O206 O -0.04031 0.50471 1.07021
 O207 O -0.01043 0.55761 1.04846
 O208 O 0.00375 0.51782 1.07764
 O209 O -0.06560 0.52136 0.99661
 O210 O 0.04421 0.49804 1.07089
 O211 O -0.05313 0.53349 1.03665
 O212 O 0.01703 0.57233 1.01728
 O213 O 0.02560 0.52440 1.03219
 O214 O -0.01410 0.53264 1.00444
 O215 O 0.00526 0.47940 1.04332
 O216 O -0.03339 0.48799 1.01777
 Zr217 Zr 0.02831 0.47408 0.97268
 Zr218 Zr 0.04459 0.48704 1.03271
 Zr219 Zr -0.03106 0.50376 0.98117
 Zr220 Zr 0.02549 0.53868 0.99500
 O221 O -0.06463 0.47956 0.97346
 O222 O 0.06248 0.55441 1.00752
 O223 O 0.00822 0.51126 0.96970
 O224 O 0.04670 0.50270 0.99612
 O225 O 0.02821 0.45769 1.00912
 O226 O -0.01160 0.46682 0.98189
 C227 C 0.00235 0.57598 1.03679
 C228 C -0.07000 0.53276 1.01805
 C229 C 0.02637 0.50823 1.08538
 O230 O 0.07843 0.51105 1.03978
 O231 O 0.07837 0.46765 1.01841
 O232 O 0.06715 0.45679 0.97775
 C233 C 0.08348 0.45686 0.99691
 O234 O -0.03854 0.44699 1.04899
 Zr235 Zr -0.01170 0.45183 1.01844
 O236 O 0.02575 0.43309 0.96601
 O237 O 0.05434 0.45350 1.05541
 O238 O 0.00577 0.42387 1.04384
 O239 O -0.04757 0.43437 1.00503
 O240 O -0.00097 0.41767 0.99749
 C241 C 0.01359 0.41443 0.97781
 O242 O 0.05418 0.48621 0.94350
 O243 O -0.04144 0.53744 0.95889
 O244 O 0.00952 0.47221 0.93620
 O245 O -0.03014 0.49370 0.94286
 O246 O 0.00840 0.56829 0.97108
 O247 O 0.04904 0.54381 0.96213
 C248 C -0.01355 0.48108 0.92870
 H249 H -0.02421 0.54962 1.00280
 H250 H 0.06531 0.50597 0.99096
 H251 H -0.02036 0.45408 0.97017
 H252 H 0.00418 0.47165 1.06048
 H253 H 0.06263 0.57369 1.00319
 H254 H 0.08978 0.50121 1.05209
 H255 H 0.07174 0.45726 1.06366
 H256 H -0.00380 0.40671 1.04175
 H257 H 0.01884 0.58491 0.97335
 H258 H -0.05916 0.53377 0.95129
 H259 H -0.07593 0.48948 0.96117
 H260 H -0.04713 0.41519 1.00973
 H261 H 0.05667 0.56203 0.96213
 H262 H 0.05854 0.46995 0.93351
 H263 H -0.04457 0.52088 1.08039
 H264 H -0.04248 0.42775 1.05117
 Zr265 Zr -0.02561 0.46609 0.47049
 O266 O -0.05083 0.47736 0.44001
 O267 O -0.01989 0.42552 0.46349
 O268 O -0.00565 0.46379 0.43485
 O269 O -0.07551 0.45766 0.51477
 O270 O 0.03336 0.48560 0.44271
 O271 O -0.06449 0.44911 0.47366
 O272 O 0.01016 0.41190 0.49357
 O273 O 0.01481 0.46075 0.47997
 O274 O -0.02400 0.44968 0.50692
 O275 O -0.00832 0.50423 0.46846
 O276 O -0.04650 0.49306 0.49403
 Zr277 Zr 0.01423 0.51052 0.53972
 Zr278 Zr 0.03143 0.49902 0.48000
 Zr279 Zr -0.04253 0.47723 0.53060
 Zr280 Zr 0.01601 0.44572 0.51673
 O281 O -0.07732 0.49959 0.53895
 O282 O 0.05405 0.43262 0.50442
 O283 O -0.00275 0.47201 0.54208
 O284 O 0.03458 0.48309 0.51642
 O285 O 0.01278 0.52704 0.50336
 O286 O -0.02613 0.51535 0.53022
 C287 C -0.00497 0.40788 0.47422
 C288 C -0.08042 0.44766 0.49280
 C289 C 0.01755 0.47246 0.42817
 O290 O 0.06788 0.47832 0.47446
 O291 O 0.06340 0.52117 0.49478
 O292 O 0.05127 0.53062 0.53539
 C293 C 0.06746 0.53203 0.51651
 O294 O -0.05497 0.53280 0.46274
 Zr295 Zr -0.02750 0.53025 0.49346
 O296 O 0.00813 0.55130 0.54669
 O297 O 0.03760 0.53247 0.45635
 O298 O -0.01293 0.55943 0.46807
 O299 O -0.06424 0.54579 0.50678
 O300 O -0.01885 0.56480 0.51410
 C301 C -0.00482 0.56911 0.53404
 O302 O 0.04171 0.50032 0.56878
 O303 O -0.05091 0.44250 0.55193
 O304 O -0.00336 0.50942 0.57635
 O305 O -0.04097 0.48497 0.56949
 O306 O 0.00069 0.41511 0.54012
 O307 O 0.04019 0.44114 0.54965
 C308 C -0.02442 0.49718 0.58409
 H309 H -0.03306 0.43220 0.50816
 H310 H 0.05340 0.48104 0.52186
 H311 H -0.03563 0.52725 0.54220
 H312 H -0.00961 0.51150 0.45108
 H313 H 0.05568 0.41331 0.50839
 H314 H 0.07833 0.48879 0.46214
 H315 H 0.05538 0.53007 0.44861
 H316 H -0.02410 0.57573 0.46998
 H317 H 0.01183 0.39890 0.53751
 H318 H -0.06868 0.44517 0.55965
 H319 H -0.08758 0.48892 0.55123
 H320 H -0.06531 0.56484 0.50169
 H321 H 0.04847 0.42311 0.54962
 H322 H 0.04465 0.51669 0.57907
 H323 H -0.05417 0.46099 0.42984
 H324 H -0.06080 0.55162 0.46053
 Zr325 Zr 0.47035 -0.03012 -0.03739
 O326 O 0.44297 -0.01716 -0.06551
 O327 O 0.47647 -0.06981 -0.04779
 O328 O 0.48795 -0.02846 -0.07423
 O329 O 0.42323 -0.04292 0.00880
 O330 O 0.52659 -0.00569 -0.06694
 O331 O 0.43202 -0.04835 -0.03325
 O332 O 0.50786 -0.08500 -0.01972
 O333 O 0.51137 -0.03532 -0.03032
 O334 O 0.47425 -0.04915 -0.00225
 O335 O 0.48691 0.00846 -0.03746
 O336 O 0.45039 -0.00542 -0.01104
 Zr337 Zr 0.51322 0.00977 0.03283
 Zr338 Zr 0.52738 0.00321 -0.02834
 Zr339 Zr 0.45665 -0.02384 0.02414
 Zr340 Zr 0.51476 -0.05300 0.00531
 O341 O 0.42191 -0.00293 0.03545
 O342 O 0.55218 -0.06446 -0.00979
 O343 O 0.49704 -0.02915 0.03337
 O344 O 0.53269 -0.01538 0.00672
 O345 O 0.50954 0.02892 -0.00224
 O346 O 0.47237 0.01457 0.02560
 C347 C 0.49200 -0.08793 -0.03873
 C348 C 0.41723 -0.05151 -0.01346
 C349 C 0.50977 -0.01726 -0.08171
 O350 O 0.56324 -0.01683 -0.03779
 O351 O 0.56012 0.02430 -0.01329
 O352 O 0.54992 0.03037 0.02838
 C353 C 0.56519 0.03340 0.00901
 O354 O 0.43922 0.03621 -0.03875
 Zr355 Zr 0.46873 0.03210 -0.00993
 O356 O 0.50761 0.05006 0.04238
 O357 O 0.53218 0.03906 -0.04898
 O358 O 0.48085 0.06334 -0.03431
 O359 O 0.43288 0.04613 0.00662
 O360 O 0.47875 0.06528 0.01202
 C361 C 0.49410 0.06858 0.03126
 O362 O 0.54192 -0.00253 0.06003
 O363 O 0.45028 -0.06022 0.04359
 O364 O 0.49712 0.00643 0.06997
 O365 O 0.45990 -0.01865 0.06330
 O366 O 0.50137 -0.08564 0.02729
 O367 O 0.54089 -0.05973 0.03652
 C368 C 0.47663 -0.00666 0.07786
 H369 H 0.46559 -0.06687 -0.00176
 H370 H 0.55179 -0.01759 0.01110
 H371 H 0.46341 0.02550 0.03873
 H372 H 0.48439 0.01723 -0.05408
 H373 H 0.55420 -0.08403 -0.00739
 H374 H 0.57293 -0.00505 -0.04960
 H375 H 0.54952 0.03764 -0.05777
 H376 H 0.46948 0.07918 -0.03074
 H377 H 0.51253 -0.10140 0.02296
 H378 H 0.43294 -0.05856 0.05235
 H379 H 0.41252 -0.01468 0.04749
 H380 H 0.43139 0.06552 0.00296
 H381 H 0.54948 -0.07753 0.03475
 H382 H 0.54534 0.01304 0.07126
 H383 H 0.43932 -0.03279 -0.07660
 H384 H 0.43262 0.05492 -0.03915
 Zr385 Zr 0.52810 0.53149 -0.03266
 O386 O 0.55415 0.51995 -0.06209
 O387 O 0.52268 0.57207 -0.03964
 O388 O 0.50905 0.53448 -0.06894
 O389 O 0.57661 0.53983 0.01366
 O390 O 0.46997 0.51236 -0.06293
 O391 O 0.56671 0.54882 -0.02771
 O392 O 0.49173 0.58557 -0.01074
 O393 O 0.48743 0.53684 -0.02477
 O394 O 0.52542 0.54780 0.00380
 O395 O 0.51080 0.49338 -0.03572
 O396 O 0.54823 0.50434 -0.00856
 Zr397 Zr 0.48609 0.48702 0.03450
 Zr398 Zr 0.47074 0.49862 -0.02578
 Zr399 Zr 0.54323 0.52012 0.02791
 Zr400 Zr 0.48516 0.55181 0.01200
 O401 O 0.57768 0.49758 0.03741
 O402 O 0.44752 0.56502 -0.00173
 O403 O 0.50315 0.52543 0.03783
 O404 O 0.46651 0.51451 0.01060
 O405 O 0.48857 0.47050 -0.00187
 O406 O 0.52670 0.48205 0.02666
 C407 C 0.50735 0.58964 -0.02948
 C408 C 0.58206 0.55022 -0.00791
 C409 C 0.48599 0.52596 -0.07655
 O410 O 0.43448 0.51934 -0.03270
 O411 O 0.43822 0.47660 -0.01255
 O412 O 0.44911 0.46705 0.02846
 C413 C 0.43344 0.46577 0.00893
 O414 O 0.55751 0.46447 -0.03967
 Zr415 Zr 0.52911 0.46718 -0.01013
 O416 O 0.49190 0.44627 0.04151
 O417 O 0.46529 0.46527 -0.04997
 O418 O 0.51523 0.43817 -0.03639
 O419 O 0.56534 0.45146 0.00468
 O420 O 0.51960 0.43256 0.00987
 C421 C 0.50496 0.42833 0.02922
 O422 O 0.45773 0.49709 0.06248
 O423 O 0.55116 0.55472 0.04991
 O424 O 0.50247 0.48834 0.07187
 O425 O 0.54049 0.51242 0.06661
 O426 O 0.49979 0.58241 0.03617
 O427 O 0.46015 0.55631 0.04402
 C428 C 0.52334 0.50053 0.08048
 H429 H 0.53442 0.56528 0.00557
 H430 H 0.44754 0.51661 0.01526
 H431 H 0.53579 0.47011 0.03895
 H432 H 0.51257 0.48621 -0.05312
 H433 H 0.44581 0.58432 0.00236
 H434 H 0.42444 0.50895 -0.04559
 H435 H 0.44779 0.46775 -0.05848
 H436 H 0.52619 0.42178 -0.03410
 H437 H 0.48872 0.59862 0.03320
 H438 H 0.56864 0.55191 0.05839
 H439 H 0.58763 0.50818 0.05018
 H440 H 0.56644 0.43238 -0.00042
 H441 H 0.45179 0.57430 0.04376
 H442 H 0.45450 0.48068 0.07251
 H443 H 0.55790 0.53628 -0.07204
 H444 H 0.56338 0.44564 -0.04168
 Zr445 Zr 0.03189 1.02478 0.46030
 O446 O 0.05999 1.01108 0.43348
 O447 O 0.02529 1.06395 0.44839
 O448 O 0.01475 1.02230 0.42328
 O449 O 0.07750 1.04059 0.50754
 O450 O -0.02257 0.99706 0.42889
 O451 O 0.06965 1.04400 0.46506
 O452 O -0.00755 1.07909 0.47450
 O453 O -0.00938 1.02911 0.46558
 O454 O 0.02665 1.04513 0.49460
 O455 O 0.01632 0.98578 0.46059
 O456 O 0.05172 1.00154 0.48801
 Zr457 Zr -0.01186 0.98675 0.52980
 Zr458 Zr -0.02452 0.99025 0.46789
 Zr459 Zr 0.04417 1.02126 0.52231
 Zr460 Zr -0.01413 1.04817 0.50044
 O461 O 0.07911 1.00171 0.53546
 O462 O -0.05148 1.05815 0.48385
 O463 O 0.00345 1.02600 0.52988
 O464 O -0.03119 1.01023 0.50214
 O465 O -0.00687 0.96614 0.49555
 O466 O 0.02924 0.98256 0.52430
 C467 C 0.00877 1.08184 0.45609
 C468 C 0.08389 1.04832 0.48523
 C469 C -0.00619 1.00994 0.41497
 O470 O -0.06027 1.00920 0.45596
 O471 O -0.05748 0.96957 0.48260
 O472 O -0.04819 0.96557 0.52480
 C473 C -0.06306 0.96161 0.50507
 O474 O 0.06469 0.95905 0.46214
 Zr475 Zr 0.03420 0.96362 0.48954
 O476 O -0.00587 0.94705 0.54074
 O477 O -0.02801 0.95325 0.44864
 O478 O 0.02344 0.93125 0.46557
 O479 O 0.06980 0.95093 0.50791
 O480 O 0.02417 0.93106 0.51215
 C481 C 0.00818 0.92830 0.53075
 O482 O -0.04129 0.99972 0.55566
 O483 O 0.04915 1.05848 0.54096
 O484 O 0.00336 0.99147 0.56735
 O485 O 0.04010 1.01727 0.56143
 O486 O -0.00219 1.08224 0.52160
 O487 O -0.04097 1.05531 0.53068
 C488 C 0.02339 1.00520 0.57564
 H489 H 0.03486 1.06308 0.49483
 H490 H -0.05042 1.01227 0.50574
 H491 H 0.03807 0.97232 0.53805
 H492 H 0.01958 0.97653 0.44430
 H493 H -0.05404 1.07774 0.48571
 H494 H -0.06945 0.99657 0.44438
 H495 H -0.04507 0.95387 0.43908
 H496 H 0.03490 0.91575 0.47016
 H497 H -0.01381 1.09740 0.51638
 H498 H 0.06630 1.05757 0.55037
 H499 H 0.08795 1.01418 0.54743
 H500 H 0.07174 0.93144 0.50489
 H501 H -0.05006 1.07274 0.52813
 H502 H -0.04476 0.98456 0.56724
 H503 H 0.06354 1.02628 0.42197
 H504 H 0.07153 0.94043 0.46243
 Zr505 Zr 0.71863 0.27471 0.21839
 O506 O 0.72986 0.30069 0.18883
 O507 O 0.67871 0.26817 0.21005
 O508 O 0.71747 0.25493 0.18243
 O509 O 0.70639 0.32342 0.26375
 O510 O 0.74109 0.21653 0.18982
 O511 O 0.70001 0.31318 0.22200
 O512 O 0.66563 0.23688 0.23875
 O513 O 0.71518 0.23376 0.22651
 O514 O 0.70124 0.27166 0.25419
 O515 O 0.75751 0.25892 0.21706
 O516 O 0.74361 0.29615 0.24343
 Zr517 Zr 0.76243 0.23480 0.28796
 Zr518 Zr 0.75415 0.21861 0.22731
 Zr519 Zr 0.72691 0.29071 0.27929
 Zr520 Zr 0.69898 0.23113 0.26259
 O521 O 0.74710 0.32628 0.28935
 O522 O 0.68822 0.19304 0.24812
 O523 O 0.72324 0.25037 0.28947
 O524 O 0.73711 0.21391 0.26299
 O525 O 0.78009 0.23783 0.25228
 O526 O 0.76564 0.27566 0.27974
 C527 C 0.66144 0.25259 0.21988
 C528 C 0.69713 0.32863 0.24154
 C529 C 0.72712 0.23196 0.17550
 O530 O 0.73664 0.18074 0.22089
 O531 O 0.77932 0.18839 0.24167
 O532 O 0.78318 0.19773 0.28384
 C533 C 0.78798 0.18321 0.26409
 O534 O 0.78365 0.30710 0.21394
 Zr535 Zr 0.78156 0.27853 0.24356
 O536 O 0.80271 0.24164 0.29596
 O537 O 0.78776 0.21481 0.20359
 O538 O 0.81202 0.26562 0.21866
 O539 O 0.79487 0.31555 0.25859
 O540 O 0.81568 0.27047 0.26500
 C541 C 0.82015 0.25563 0.28432
 O542 O 0.75239 0.20683 0.31631
 O543 O 0.69130 0.29727 0.29972
 O544 O 0.75990 0.25200 0.32487
 O545 O 0.73368 0.28879 0.31828
 O546 O 0.66710 0.24444 0.28564
 O547 O 0.69467 0.20552 0.29431
 C548 C 0.74653 0.27256 0.33277
 H549 H 0.68341 0.28015 0.25518
 H550 H 0.73590 0.19480 0.26771
 H551 H 0.77670 0.28532 0.29235
 H552 H 0.76508 0.26088 0.19992
 H553 H 0.66897 0.19059 0.25134
 H554 H 0.74802 0.17117 0.20852
 H555 H 0.78676 0.19689 0.19555
 H556 H 0.82765 0.27732 0.22146
 H557 H 0.65166 0.23270 0.28214
 H558 H 0.69278 0.31505 0.30797
 H559 H 0.73553 0.33596 0.30147
 H560 H 0.81392 0.31741 0.25417
 H561 H 0.67728 0.19632 0.29318
 H562 H 0.76845 0.20414 0.32710
 H563 H 0.71373 0.30382 0.17825
 H564 H 0.80219 0.31354 0.21244
 Zr565 Zr 0.78099 0.72508 0.72291
 O566 O 0.77005 0.69855 0.69338
 O567 O 0.82095 0.73137 0.71538
 O568 O 0.78248 0.74406 0.68672
 O569 O 0.79280 0.67731 0.76917
 O570 O 0.75917 0.78286 0.69303
 O571 O 0.79919 0.68653 0.72737
 O572 O 0.83380 0.76357 0.74363
 O573 O 0.78446 0.76619 0.73050
 O574 O 0.79816 0.72893 0.75900
 O575 O 0.74219 0.74091 0.72043
 O576 O 0.75583 0.70424 0.74772
 Zr577 Zr 0.73661 0.76672 0.79084
 Zr578 Zr 0.74555 0.78143 0.73017
 Zr579 Zr 0.77225 0.71050 0.78384
 Zr580 Zr 0.80036 0.76966 0.76687
 O581 O 0.75190 0.67526 0.79413
 O582 O 0.81124 0.80750 0.75227
 O583 O 0.77578 0.75110 0.79346
 O584 O 0.76223 0.78697 0.76615
 O585 O 0.71934 0.76282 0.75479
 O586 O 0.73354 0.72564 0.78317
 C587 C 0.83808 0.74739 0.72511
 C588 C 0.80192 0.67145 0.74714
 C589 C 0.77313 0.76697 0.67927
 O590 O 0.76302 0.81923 0.72375
 O591 O 0.72003 0.81171 0.74355
 O592 O 0.71570 0.80372 0.78577
 C593 C 0.71090 0.81757 0.76557
 O594 O 0.71621 0.69263 0.71747
 Zr595 Zr 0.71795 0.72191 0.74668
 O596 O 0.69627 0.75994 0.79808
 O597 O 0.71233 0.78470 0.70542
 O598 O 0.68773 0.73419 0.72086
 O599 O 0.70437 0.68530 0.76200
 O600 O 0.68367 0.73053 0.76713
 C601 C 0.67897 0.74569 0.78618
 O602 O 0.74647 0.79541 0.81891
 O603 O 0.80774 0.70435 0.80505
 O604 O 0.73885 0.75036 0.82804
 O605 O 0.76528 0.71349 0.82266
 O606 O 0.83208 0.75671 0.79068
 O607 O 0.80449 0.79584 0.79840
 C608 C 0.75224 0.73005 0.83657
 H609 H 0.81596 0.72041 0.76046
 H610 H 0.76338 0.80619 0.77061
 H611 H 0.72236 0.71627 0.79566
 H612 H 0.73479 0.73857 0.70315
 H613 H 0.83047 0.81001 0.75588
 H614 H 0.75172 0.82854 0.71102
 H615 H 0.71335 0.80252 0.69731
 H616 H 0.67209 0.72252 0.72346
 H617 H 0.84759 0.76832 0.78729
 H618 H 0.80615 0.68679 0.81358
 H619 H 0.76340 0.66584 0.80660
 H620 H 0.68540 0.68333 0.75704
 H621 H 0.82195 0.80489 0.79760
 H622 H 0.73036 0.79831 0.82936
 H623 H 0.78628 0.69519 0.68322
 H624 H 0.69770 0.68614 0.71560
 Zr625 Zr 0.24253 0.23534 0.78371
 O626 O 0.25382 0.20905 0.81330
 O627 O 0.20216 0.24173 0.79104
 O628 O 0.24152 0.25433 0.81983
 O629 O 0.23500 0.18411 0.73978
 O630 O 0.26178 0.29429 0.81249
 O631 O 0.22400 0.19738 0.77976
 O632 O 0.18856 0.27067 0.76010
 O633 O 0.23686 0.27580 0.77446
 O634 O 0.22624 0.23649 0.74716
 O635 O 0.28053 0.25276 0.78616
 O636 O 0.26985 0.21440 0.76064
 Zr637 Zr 0.28609 0.27529 0.71497
 Zr638 Zr 0.27490 0.29254 0.77504
 Zr639 Zr 0.25388 0.21763 0.72403
 Zr640 Zr 0.22208 0.27656 0.73741
 O641 O 0.27631 0.18252 0.71653
 O642 O 0.20857 0.31478 0.74949
 O643 O 0.24814 0.25741 0.71220
 O644 O 0.25895 0.29561 0.73844
 O645 O 0.30284 0.27423 0.75146
 O646 O 0.29155 0.23490 0.72463
 C647 C 0.18450 0.25612 0.77967
 C648 C 0.22377 0.18038 0.76127
 C649 C 0.24995 0.27758 0.82696
 O650 O 0.25427 0.32919 0.78020
 O651 O 0.29819 0.32358 0.76088
 O652 O 0.30445 0.31369 0.71914
 C653 C 0.30759 0.32881 0.73892
 O654 O 0.31050 0.20669 0.79190
 Zr655 Zr 0.30682 0.23397 0.76126
 O656 O 0.32675 0.27038 0.70865
 O657 O 0.30770 0.29923 0.79963
 O658 O 0.33557 0.24981 0.78674
 O659 O 0.32259 0.19706 0.74803
 O660 O 0.34113 0.24288 0.74047
 C661 C 0.34488 0.25734 0.72077
 O662 O 0.27493 0.30156 0.68534
 O663 O 0.21958 0.20914 0.70193
 O664 O 0.28651 0.25605 0.67864
 O665 O 0.26336 0.21762 0.68570
 O666 O 0.19131 0.26115 0.71391
 O667 O 0.21789 0.30023 0.70425
 C668 C 0.27644 0.23343 0.67134
 H669 H 0.20883 0.22740 0.74566
 H670 H 0.25671 0.31450 0.73321
 H671 H 0.30369 0.22533 0.71297
 H672 H 0.28792 0.25149 0.80354
 H673 H 0.18940 0.31622 0.74506
 H674 H 0.26467 0.33974 0.79269
 H675 H 0.30526 0.31727 0.80714
 H676 H 0.35217 0.23918 0.78479
 H677 H 0.17542 0.27277 0.71612
 H678 H 0.22225 0.19110 0.69450
 H679 H 0.26571 0.17163 0.70447
 H680 H 0.34170 0.19641 0.75288
 H681 H 0.20011 0.30895 0.70409
 H682 H 0.29114 0.30477 0.67518
 H683 H 0.23767 0.20578 0.82354
 H684 H 0.32947 0.20164 0.79424
 Zr685 Zr 0.25937 0.76344 0.28520
 O686 O 0.24837 0.79026 0.31444
 O687 O 0.29957 0.75661 0.29337
 O688 O 0.25925 0.74494 0.32161
 O689 O 0.26820 0.81401 0.24111
 O690 O 0.23708 0.70600 0.31400
 O691 O 0.27840 0.80119 0.28150
 O692 O 0.31310 0.72743 0.26265
 O693 O 0.26446 0.72276 0.27631
 O694 O 0.27600 0.76159 0.24901
 O695 O 0.22097 0.74685 0.28655
 O696 O 0.23270 0.78456 0.26126
 Zr697 Zr 0.21579 0.72347 0.21539
 Zr698 Zr 0.22605 0.70685 0.27581
 Zr699 Zr 0.24901 0.78061 0.22506
 Zr700 Zr 0.27957 0.72134 0.23955
 O701 O 0.22740 0.81610 0.21689
 O702 O 0.29237 0.68323 0.25253
 O703 O 0.25413 0.74060 0.21354
 O704 O 0.24234 0.70301 0.23965
 O705 O 0.19868 0.72532 0.25145
 O706 O 0.21103 0.76408 0.22475
 C707 C 0.31723 0.74227 0.28215
 C708 C 0.27907 0.81794 0.26290
 C709 C 0.24856 0.72278 0.32890
 O710 O 0.24655 0.67038 0.28238
 O711 O 0.20304 0.67569 0.26116
 O712 O 0.19655 0.68547 0.21940
 C713 C 0.19335 0.67049 0.23916
 O714 O 0.19158 0.79343 0.29135
 Zr715 Zr 0.19533 0.76576 0.26093
 O716 O 0.17532 0.72907 0.20790
 O717 O 0.19222 0.70060 0.29870
 O718 O 0.16591 0.75070 0.28563
 O719 O 0.18060 0.80289 0.24717
 O720 O 0.16120 0.75733 0.23916
 C721 C 0.15736 0.74277 0.21940
 O722 O 0.22702 0.69674 0.18618
 O723 O 0.28372 0.78809 0.20376
 O724 O 0.21573 0.74260 0.17909
 O725 O 0.23983 0.78048 0.18654
 O726 O 0.31057 0.73587 0.21635
 O727 O 0.28385 0.69678 0.20691
 C728 C 0.22623 0.76501 0.17200
 H729 H 0.29353 0.77043 0.24783
 H730 H 0.24433 0.68401 0.23461
 H731 H 0.19920 0.77380 0.21280
 H732 H 0.21318 0.74858 0.30362
 H733 H 0.31160 0.68145 0.24870
 H734 H 0.23570 0.66005 0.29447
 H735 H 0.19417 0.68261 0.30638
 H736 H 0.14952 0.76156 0.28312
 H737 H 0.32636 0.72417 0.21902
 H738 H 0.28153 0.80612 0.19622
 H739 H 0.23836 0.82666 0.20506
 H740 H 0.16140 0.80395 0.25133
 H741 H 0.30151 0.68785 0.20733
 H742 H 0.21089 0.69365 0.17563
 H743 H 0.26450 0.79337 0.32499
 H744 H 0.17267 0.79883 0.29310
 Zr745 Zr 0.21528 0.77723 0.71489
 O746 O 0.22695 0.80230 0.68478
 O747 O 0.17487 0.77221 0.70744
 O748 O 0.21292 0.75722 0.67911
 O749 O 0.20675 0.82757 0.75944
 O750 O 0.23467 0.71780 0.68680
 O751 O 0.19829 0.81644 0.71821
 O752 O 0.16117 0.74256 0.73740
 O753 O 0.20983 0.73673 0.72400
 O754 O 0.19882 0.77596 0.75118
 O755 O 0.25323 0.75927 0.71307
 O756 O 0.24211 0.79790 0.73879
 Zr757 Zr 0.25900 0.73674 0.78417
 Zr758 Zr 0.24790 0.71943 0.72423
 Zr759 Zr 0.22617 0.79426 0.77517
 Zr760 Zr 0.19472 0.73587 0.76062
 O761 O 0.24859 0.82883 0.78392
 O762 O 0.18153 0.69796 0.74767
 O763 O 0.22076 0.75444 0.78632
 O764 O 0.23184 0.71660 0.76047
 O765 O 0.27565 0.73785 0.74799
 O766 O 0.26408 0.77717 0.77507
 C767 C 0.15721 0.75771 0.71810
 C768 C 0.19677 0.83251 0.73745
 C769 C 0.22155 0.73380 0.67233
 O770 O 0.22729 0.68311 0.71819
 O771 O 0.26997 0.68706 0.73900
 O772 O 0.27913 0.69936 0.77976
 C773 C 0.28073 0.68301 0.76080
 O774 O 0.28179 0.80593 0.70815
 Zr775 Zr 0.27908 0.77821 0.73844
 O776 O 0.29955 0.74209 0.79157
 O777 O 0.28130 0.71269 0.70081
 O778 O 0.30810 0.76339 0.71291
 O779 O 0.29487 0.81465 0.75251
 O780 O 0.31339 0.76839 0.75902
 C781 C 0.31751 0.75423 0.77887
 O782 O 0.24855 0.70932 0.81284
 O783 O 0.19156 0.80342 0.79629
 O784 O 0.25764 0.75442 0.82092
 O785 O 0.23358 0.79264 0.81409
 O786 O 0.16420 0.75159 0.78402
 O787 O 0.18998 0.71161 0.79323
 C788 C 0.24545 0.77577 0.82868
 H789 H 0.18144 0.78532 0.75239
 H790 H 0.22974 0.69774 0.76574
 H791 H 0.27594 0.78648 0.78724
 H792 H 0.26054 0.76042 0.69576
 H793 H 0.16227 0.69667 0.75144
 H794 H 0.23777 0.67249 0.70586
 H795 H 0.27886 0.69488 0.69286
 H796 H 0.32436 0.77434 0.71511
 H797 H 0.14806 0.74062 0.78118
 H798 H 0.19430 0.82123 0.80417
 H799 H 0.23796 0.83937 0.79618
 H800 H 0.31389 0.81527 0.74766
 H801 H 0.17209 0.70338 0.79286
 H802 H 0.26477 0.70611 0.82330
 H803 H 0.21075 0.80601 0.67447
 H804 H 0.30050 0.81173 0.70633
 Zr805 Zr 0.27908 0.21881 0.21203
 O806 O 0.26654 0.19212 0.18321
 O807 O 0.31900 0.22430 0.20313
 O808 O 0.27939 0.23723 0.17560
 O809 O 0.29005 0.17046 0.25799
 O810 O 0.25800 0.27715 0.18221
 O811 O 0.29697 0.18003 0.21633
 O812 O 0.33342 0.25535 0.23182
 O813 O 0.28450 0.25973 0.21974
 O814 O 0.29698 0.22171 0.24786
 O815 O 0.24095 0.23652 0.21040
 O816 O 0.25333 0.19896 0.23707
 Zr817 Zr 0.23780 0.26174 0.28088
 Zr818 Zr 0.24636 0.27689 0.22014
 Zr819 Zr 0.27069 0.20415 0.27297
 Zr820 Zr 0.30104 0.26218 0.25598
 O821 O 0.24899 0.16967 0.28299
 O822 O 0.31330 0.29989 0.24209
 O823 O 0.27624 0.24442 0.28283
 O824 O 0.26382 0.28115 0.25598
 O825 O 0.21976 0.25921 0.24509
 O826 O 0.23264 0.22098 0.27308
 C827 C 0.33678 0.23972 0.21274
 C828 C 0.29943 0.16478 0.23604
 C829 C 0.27042 0.26028 0.16814
 O830 O 0.26661 0.31295 0.21239
 O831 O 0.22494 0.30983 0.23477
 O832 O 0.21764 0.29895 0.27607
 C833 C 0.21527 0.31469 0.25680
 O834 O 0.21270 0.18935 0.20763
 Zr835 Zr 0.21622 0.21847 0.23685
 O836 O 0.19750 0.25684 0.28909
 O837 O 0.21186 0.28249 0.19748
 O838 O 0.18621 0.23183 0.21130
 O839 O 0.20096 0.18272 0.25251
 O840 O 0.18258 0.22932 0.25758
 C841 C 0.17909 0.24429 0.27703
 O842 O 0.24953 0.29003 0.30865
 O843 O 0.30612 0.19635 0.29379
 O844 O 0.24010 0.24522 0.31804
 O845 O 0.26441 0.20706 0.31194
 O846 O 0.33294 0.24756 0.27869
 O847 O 0.30682 0.28733 0.28803
 C848 C 0.25262 0.22421 0.32622
 H849 H 0.31454 0.21266 0.24889
 H850 H 0.26605 0.30020 0.26068
 H851 H 0.22124 0.21210 0.28571
 H852 H 0.23295 0.23457 0.19332
 H853 H 0.33268 0.30148 0.24544
 H854 H 0.25548 0.32310 0.20012
 H855 H 0.21376 0.30007 0.18907
 H856 H 0.17012 0.22088 0.21418
 H857 H 0.34874 0.25870 0.27515
 H858 H 0.30386 0.17887 0.30232
 H859 H 0.26014 0.15970 0.29537
 H860 H 0.18177 0.18189 0.24800
 H861 H 0.32461 0.29573 0.28714
 H862 H 0.23377 0.29366 0.31938
 H863 H 0.28232 0.18825 0.17259
 H864 H 0.19400 0.18327 0.20639
 Zr865 Zr 0.73563 0.73249 0.29216
 O866 O 0.74703 0.70532 0.32101
 O867 O 0.69500 0.73775 0.29928
 O868 O 0.73468 0.74991 0.32904
 O869 O 0.72990 0.68231 0.24684
 O870 O 0.75530 0.78999 0.32321
 O871 O 0.71804 0.69425 0.28696
 O872 O 0.68114 0.76686 0.26860
 O873 O 0.72894 0.77308 0.28397
 O874 O 0.71979 0.73423 0.25545
 O875 O 0.77324 0.75075 0.29518
 O876 O 0.76383 0.71299 0.26884
 Zr877 Zr 0.77886 0.77562 0.22497
 Zr878 Zr 0.76656 0.79076 0.28525
 Zr879 Zr 0.74817 0.71677 0.23217
 Zr880 Zr 0.71470 0.77444 0.24668
 O881 O 0.77159 0.68245 0.22415
 O882 O 0.69989 0.81188 0.25954
 O883 O 0.74150 0.75672 0.22130
 O884 O 0.75093 0.79448 0.24860
 O885 O 0.79527 0.77396 0.26152
 O886 O 0.78536 0.73509 0.23352
 C887 C 0.67713 0.75179 0.28778
 C888 C 0.71845 0.67775 0.26808
 C889 C 0.74457 0.77216 0.33724
 O890 O 0.74375 0.82568 0.29237
 O891 O 0.78750 0.82382 0.27194
 O892 O 0.79632 0.81423 0.23065
 C893 C 0.79758 0.82968 0.25042
 O894 O 0.80456 0.70528 0.29998
 Zr895 Zr 0.80033 0.73350 0.27017
 O896 O 0.81962 0.77231 0.21891
 O897 O 0.79992 0.79849 0.30885
 O898 O 0.82837 0.74916 0.29646
 O899 O 0.81719 0.69752 0.25590
 O900 O 0.83462 0.74431 0.25006
 C901 C 0.83807 0.75957 0.23084
 O902 O 0.76728 0.80247 0.19595
 O903 O 0.71442 0.70802 0.20942
 O904 O 0.78038 0.75744 0.18822
 O905 O 0.75819 0.71817 0.19400
 O906 O 0.68466 0.75895 0.22238
 O907 O 0.71031 0.79891 0.21405
 C908 C 0.77108 0.73474 0.18026
 H909 H 0.70265 0.72475 0.25350
 H910 H 0.74811 0.81344 0.24383
 H911 H 0.79792 0.72626 0.22175
 H912 H 0.78085 0.74896 0.31242
 H913 H 0.68074 0.81289 0.25487
 H914 H 0.75386 0.83637 0.30497
 H915 H 0.79667 0.81593 0.31730
 H916 H 0.84528 0.73909 0.29431
 H917 H 0.66846 0.77013 0.22461
 H918 H 0.71768 0.69027 0.20156
 H919 H 0.76149 0.67170 0.21160
 H920 H 0.83631 0.69733 0.26071
 H921 H 0.69237 0.80727 0.21393
 H922 H 0.78355 0.80657 0.18620
 H923 H 0.73085 0.70138 0.33098
 H924 H 0.82362 0.70051 0.30216
 Zr925 Zr 0.76796 0.26372 0.78910
 O926 O 0.75571 0.28886 0.81922
 O927 O 0.80865 0.25927 0.79693
 O928 O 0.76846 0.24422 0.82502
 O929 O 0.77259 0.31669 0.74676
 O930 O 0.74932 0.20390 0.81619
 O931 O 0.78445 0.30280 0.78644
 O932 O 0.82380 0.23270 0.76484
 O933 O 0.77596 0.22386 0.77871
 O934 O 0.78417 0.26465 0.75274
 O935 O 0.73093 0.24413 0.79000
 O936 O 0.73951 0.28383 0.76623
 Zr937 Zr 0.72651 0.22367 0.71843
 Zr938 Zr 0.73888 0.20495 0.77784
 Zr939 Zr 0.75556 0.28266 0.72975
 Zr940 Zr 0.79058 0.22521 0.74176
 O941 O 0.73133 0.31677 0.72308
 O942 O 0.80629 0.18754 0.75298
 O943 O 0.76344 0.24363 0.71678
 O944 O 0.75487 0.20411 0.74143
 O945 O 0.70982 0.22253 0.75461
 O946 O 0.71889 0.26341 0.72918
 C947 C 0.82715 0.24677 0.78496
 C948 C 0.78374 0.32035 0.76848
 C949 C 0.75898 0.22128 0.83165
 O950 O 0.76297 0.17064 0.78389
 O951 O 0.72003 0.17160 0.76167
 O952 O 0.70905 0.18496 0.72161
 C953 C 0.70913 0.16776 0.73991
 O954 O 0.69842 0.28816 0.79712
 Zr955 Zr 0.70364 0.26228 0.76552
 O956 O 0.68577 0.22682 0.71118
 O957 O 0.70522 0.19453 0.79950
 O958 O 0.67560 0.24412 0.78980
 O959 O 0.68614 0.29884 0.75338
 O960 O 0.66994 0.25240 0.74370
 C961 C 0.66700 0.23861 0.72333
 O962 O 0.73917 0.19852 0.68852
 O963 O 0.78928 0.29363 0.70841
 O964 O 0.72495 0.24364 0.68275
 O965 O 0.74590 0.28312 0.69127
 O966 O 0.82023 0.24299 0.71900
 O967 O 0.79624 0.20272 0.70800
 C968 C 0.73370 0.26695 0.67627
 H969 H 0.80103 0.27474 0.75176
 H970 H 0.75827 0.18560 0.73548
 H971 H 0.70628 0.27269 0.71765
 H972 H 0.72296 0.24465 0.80705
 H973 H 0.82555 0.18740 0.74896
 H974 H 0.75306 0.15883 0.79549
 H975 H 0.70890 0.17666 0.80690
 H976 H 0.65850 0.25396 0.78788
 H977 H 0.83681 0.23231 0.72106
 H978 H 0.78556 0.31165 0.70141
 H979 H 0.74121 0.32844 0.71132
 H980 H 0.66699 0.29834 0.75780
 H981 H 0.81441 0.19488 0.70799
 H982 H 0.72317 0.19458 0.67805
 H983 H 0.77174 0.29262 0.82972
 H984 H 0.67923 0.29226 0.79918
 C985 C 0.43614 0.97538 0.32318
 C986 C 0.45136 0.97842 0.30125
 C987 C 0.43827 0.98158 0.27762
 C988 C 0.40997 0.98279 0.27603
 C989 C 0.39549 0.98035 0.29882
 C990 C 0.40824 0.97612 0.32204
 C991 C 0.44958 0.97169 0.34797
 C992 C 0.43402 0.96829 0.36961
 C993 C 0.44651 0.96613 0.39318
 C994 C 0.47437 0.96870 0.39583
 C995 C 0.49003 0.97100 0.37385
 C996 C 0.47756 0.97242 0.34970
 C997 C 0.39345 0.97245 0.34416
 C998 C 0.40612 0.96836 0.36752
 C999 C 0.47937 0.97819 0.30352
 C1000 C 0.49219 0.97554 0.32728
 H1001 H 0.37186 0.97277 0.34343
 H1002 H 0.39396 0.96582 0.38418
 H1003 H 0.49151 0.98050 0.28682
 H1004 H 0.51376 0.97608 0.32811
 H1005 H 0.45026 0.98281 0.26079
 H1006 H 0.37389 0.98121 0.29824
 H1007 H 0.43425 0.96402 0.40986
 H1008 H 0.51143 0.97314 0.37562
 C1009 C -0.06239 0.48130 0.83014
 C1010 C -0.04744 0.48522 0.80816
 C1011 C -0.06079 0.48800 0.78460
 C1012 C -0.08910 0.48802 0.78321
 C1013 C -0.10331 0.48475 0.80606
 C1014 C -0.09028 0.48079 0.82914
 C1015 C -0.04871 0.47811 0.85485
 C1016 C -0.06402 0.47383 0.87651
 C1017 C -0.05139 0.47216 0.90003
 C1018 C -0.02373 0.47616 0.90262
 C1019 C -0.00824 0.47934 0.88064
 C1020 C -0.02082 0.48023 0.85651
 C1021 C -0.10481 0.47625 0.85127
 C1022 C -0.09188 0.47256 0.87453
 C1023 C -0.01945 0.48634 0.81035
 C1024 C -0.00643 0.48419 0.83407
 H1025 H -0.12638 0.47559 0.85061
 H1026 H -0.10384 0.46932 0.89122
 H1027 H -0.00751 0.48936 0.79363
 H1028 H 0.01507 0.48580 0.83484
 H1029 H -0.04901 0.49004 0.76772
 H1030 H -0.12492 0.48485 0.80567
 H1031 H -0.06348 0.46929 0.91672
 H1032 H 0.01303 0.48253 0.88239
 C1033 C 0.06497 0.02455 0.82081
 C1034 C 0.09286 0.02373 0.82005
 C1035 C 0.10556 0.01978 0.79694
 C1036 C 0.09100 0.01739 0.77398
 C1037 C 0.06273 0.01880 0.77517
 C1038 C 0.04970 0.02189 0.79863
 C1039 C 0.05158 0.02785 0.84547
 C1040 C 0.02360 0.02739 0.84675
 C1041 C 0.01114 0.02858 0.87070
 C1042 C 0.02682 0.03022 0.89294
 C1043 C 0.05471 0.03234 0.89084
 C1044 C 0.06718 0.03061 0.86741
 C1045 C 0.02170 0.02232 0.80048
 C1046 C 0.00891 0.02478 0.82408
 C1047 C 0.10771 0.02687 0.84245
 C1048 C 0.09507 0.03045 0.86573
 H1049 H 0.00954 0.02032 0.78357
 H1050 H -0.01266 0.02445 0.82459
 H1051 H 0.12929 0.02646 0.84200
 H1052 H 0.10725 0.03253 0.88263
 H1053 H 0.12715 0.01880 0.79664
 H1054 H 0.05070 0.01769 0.75818
 H1055 H -0.01031 0.02684 0.87210
 H1056 H 0.06696 0.03400 0.90776
 C1057 C 0.56262 0.51827 0.32635
 C1058 C 0.54748 0.51513 0.30414
 C1059 C 0.56065 0.51234 0.28071
 C1060 C 0.58896 0.51167 0.27960
 C1061 C 0.60338 0.51435 0.30261
 C1062 C 0.59052 0.51811 0.32565
 C1063 C 0.54909 0.52142 0.35095
 C1064 C 0.56456 0.52481 0.37289
 C1065 C 0.55201 0.52651 0.39626
 C1066 C 0.52419 0.52362 0.39838
 C1067 C 0.50859 0.52131 0.37614
 C1068 C 0.52112 0.52024 0.35220
 C1069 C 0.60523 0.52179 0.34806
 C1070 C 0.59245 0.52530 0.37127
 C1071 C 0.51947 0.51484 0.30594
 C1072 C 0.50657 0.51710 0.32952
 H1073 H 0.62681 0.52189 0.34766
 H1074 H 0.60453 0.52786 0.38817
 H1075 H 0.50740 0.51245 0.28902
 H1076 H 0.48502 0.51621 0.32998
 H1077 H 0.54871 0.51087 0.26368
 H1078 H 0.62498 0.51386 0.30236
 H1079 H 0.56420 0.52873 0.41316
 H1080 H 0.48720 0.51901 0.37754
 C1081 C 0.56014 0.50919 0.18340
 C1082 C 0.57458 0.53210 0.19008
 C1083 C 0.58826 0.53293 0.21322
 C1084 C 0.58733 0.51133 0.23052
 C1085 C 0.57148 0.48889 0.22367
 C1086 C 0.55837 0.48752 0.20002
 C1087 C 0.54778 0.50742 0.15796
 C1088 C 0.53479 0.48382 0.15035
 C1089 C 0.52500 0.48159 0.12523
 C1090 C 0.52857 0.50283 0.10807
 C1091 C 0.54036 0.52674 0.11672
 C1092 C 0.55034 0.52900 0.14131
 C1093 C 0.54436 0.46456 0.19218
 C1094 C 0.53292 0.46269 0.16778
 C1095 C 0.57602 0.55353 0.17303
 C1096 C 0.56395 0.55208 0.14912
 H1097 H 0.54279 0.44761 0.20480
 H1098 H 0.52292 0.44437 0.16238
 H1099 H 0.58698 0.57142 0.17804
 H1100 H 0.56596 0.56887 0.13636
 H1101 H 0.60036 0.55030 0.21680
 H1102 H 0.57040 0.47195 0.23637
 H1103 H 0.51600 0.46312 0.11875
 H1104 H 0.54283 0.54336 0.10381
 C1105 C 0.06133 1.01473 0.67810
 C1106 C 0.05916 0.99334 0.69499
 C1107 C 0.07263 0.99460 0.71847
 C1108 C 0.08917 1.01665 0.72490
 C1109 C 0.09059 1.03796 0.70730
 C1110 C 0.07658 1.03725 0.68432
 C1111 C 0.04854 1.01302 0.65284
 C1112 C 0.05151 1.03428 0.63588
 C1113 C 0.04115 1.03195 0.61140
 C1114 C 0.02860 1.00826 0.60320
 C1115 C 0.02463 0.98742 0.62072
 C1116 C 0.03476 0.98973 0.64569
 C1117 C 0.07843 1.05839 0.66698
 C1118 C 0.06596 1.05700 0.64323
 C1119 C 0.04436 0.97072 0.68762
 C1120 C 0.03251 0.96889 0.66339
 H1121 H 0.09001 1.07598 0.67163
 H1122 H 0.06831 1.07353 0.63024
 H1123 H 0.04247 0.95399 0.70046
 H1124 H 0.02192 0.95081 0.65833
 H1125 H 0.07122 0.97787 0.73138
 H1126 H 0.10328 1.05496 0.71054
 H1127 H 0.04403 1.04825 0.59821
 H1128 H 0.01511 0.96908 0.61459
 C1129 C -0.06203 0.49008 0.68661
 C1130 C -0.07690 0.46752 0.69312
 C1131 C -0.09004 0.46686 0.71634
 C1132 C -0.08828 0.48832 0.73392
 C1133 C -0.07225 0.51053 0.72712
 C1134 C -0.05948 0.51165 0.70343
 C1135 C -0.04996 0.49156 0.66118
 C1136 C -0.03624 0.51470 0.65384
 C1137 C -0.02634 0.51653 0.62886
 C1138 C -0.03060 0.49540 0.61151
 C1139 C -0.04342 0.47204 0.61985
 C1140 C -0.05336 0.47011 0.64435
 C1141 C -0.04494 0.53422 0.69577
 C1142 C -0.03362 0.53575 0.67144
 C1143 C -0.07924 0.44623 0.67586
 C1144 C -0.06756 0.44745 0.65194
 H1145 H -0.04274 0.55109 0.70851
 H1146 H -0.02308 0.55374 0.66624
 H1147 H -0.09057 0.42862 0.68073
 H1148 H -0.07023 0.43076 0.63905
 H1149 H -0.10244 0.44974 0.71973
 H1150 H -0.07068 0.52743 0.73993
 H1151 H -0.01655 0.53460 0.62266
 H1152 H -0.04645 0.45547 0.60687
 C1153 C 0.43881 -0.01535 0.18006
 C1154 C 0.42362 -0.03784 0.18616
 C1155 C 0.40996 -0.03853 0.20914
 C1156 C 0.41161 -0.01719 0.22685
 C1157 C 0.42801 0.00488 0.22049
 C1158 C 0.44121 0.00607 0.19705
 C1159 C 0.45130 -0.01372 0.15483
 C1160 C 0.46515 0.00948 0.14784
 C1161 C 0.47521 0.01162 0.12295
 C1162 C 0.47105 -0.00927 0.10535
 C1163 C 0.45827 -0.03280 0.11337
 C1164 C 0.44807 -0.03498 0.13777
 C1165 C 0.45598 0.02863 0.18979
 C1166 C 0.46762 0.03035 0.16563
 C1167 C 0.42148 -0.05898 0.16871
 C1168 C 0.43363 -0.05764 0.14499
 H1169 H 0.45806 0.04539 0.20269
 H1170 H 0.47826 0.04837 0.16070
 H1171 H 0.40993 -0.07655 0.17325
 H1172 H 0.43107 -0.07419 0.13192
 H1173 H 0.39729 -0.05552 0.21227
 H1174 H 0.42951 0.02167 0.23343
 H1175 H 0.48490 0.02983 0.11698
 H1176 H 0.45525 -0.04916 0.10015
 C1177 C 0.33540 0.40621 0.00422
 C1178 C 0.31161 0.41911 -0.00309
 C1179 C 0.28778 0.40427 -0.00481
 C1180 C 0.28751 0.37662 0.00111
 C1181 C 0.31243 0.36392 0.00607
 C1182 C 0.33601 0.37862 0.00864
 C1183 C 0.36031 0.42178 0.00689
 C1184 C 0.38400 0.40883 0.01456
 C1185 C 0.40770 0.42367 0.01678
 C1186 C 0.40793 0.45105 0.01063
 C1187 C 0.38400 0.46366 0.00286
 C1188 C 0.36006 0.44918 0.00124
 C1189 C 0.36012 0.36629 0.01601
 C1190 C 0.38362 0.38115 0.01912
 C1191 C 0.31218 0.44668 -0.00836
 C1192 C 0.33596 0.46139 -0.00637
 H1193 H 0.36078 0.34496 0.01962
 H1194 H 0.40170 0.37082 0.02491
 H1195 H 0.29409 0.45699 -0.01411
 H1196 H 0.33546 0.48254 -0.01081
 H1197 H 0.26974 0.41434 -0.01092
 H1198 H 0.31314 0.34251 0.00925
 H1199 H 0.42615 0.41370 0.02198
 H1200 H 0.38416 0.48465 -0.00224
 C1201 C -0.16249 0.90426 0.50972
 C1202 C -0.18650 0.91736 0.50356
 C1203 C -0.21065 0.90292 0.50361
 C1204 C -0.21089 0.87504 0.50867
 C1205 C -0.18607 0.86264 0.51492
 C1206 C -0.16215 0.87701 0.51568
 C1207 C -0.13709 0.91928 0.50967
 C1208 C -0.11314 0.90613 0.51618
 C1209 C -0.08900 0.92037 0.51570
 C1210 C -0.08866 0.94734 0.50812
 C1211 C -0.11286 0.96019 0.50159
 C1212 C -0.13719 0.94634 0.50266
 C1213 C -0.13783 0.86453 0.52211
 C1214 C -0.11380 0.87885 0.52249
 C1215 C -0.18580 0.94469 0.49725
 C1216 C -0.16161 0.95883 0.49659
 H1217 H -0.13734 0.84345 0.52685
 H1218 H -0.09554 0.86838 0.52747
 H1219 H -0.20409 0.95519 0.49243
 H1220 H -0.16205 0.97974 0.49126
 H1221 H -0.22888 0.91368 0.49960
 H1222 H -0.18539 0.84138 0.51893
 H1223 H -0.07042 0.91025 0.52019
 H1224 H -0.11265 0.98093 0.49561
 C1225 C -0.18437 0.10420 0.99415
 C1226 C -0.18933 0.11961 1.01581
 C1227 C -0.21504 0.12975 1.02010
 C1228 C -0.23644 0.12485 1.00296
 C1229 C -0.23069 0.10907 0.98117
 C1230 C -0.20487 0.09860 0.97683
 C1231 C -0.15701 0.09401 0.98942
 C1232 C -0.15185 0.07817 0.96795
 C1233 C -0.12597 0.06726 0.96444
 C1234 C -0.10562 0.07221 0.98245
 C1235 C -0.11113 0.08921 1.00313
 C1236 C -0.13666 0.09990 1.00685
 C1237 C -0.19891 0.08307 0.95528
 C1238 C -0.17300 0.07292 0.95101
 C1239 C -0.16826 0.12527 1.03262
 C1240 C -0.14242 0.11559 1.02823
 H1241 H -0.21447 0.07857 0.94163
 H1242 H -0.16952 0.06077 0.93434
 H1243 H -0.17178 0.13728 1.04938
 H1244 H -0.12685 0.12023 1.04183
 H1245 H -0.21755 0.14268 1.03632
 H1246 H -0.24618 0.10582 0.96712
 H1247 H -0.12213 0.05382 0.94875
 H1248 H -0.09569 0.09298 1.01715
 C1249 C 0.31544 0.60206 0.49593
 C1250 C 0.29568 0.59728 0.47762
 C1251 C 0.27012 0.60893 0.48062
 C1252 C 0.26393 0.62519 0.50196
 C1253 C 0.28473 0.62967 0.51987
 C1254 C 0.31007 0.61812 0.51707
 C1255 C 0.34243 0.59023 0.49288
 C1256 C 0.36194 0.59507 0.51145
 C1257 C 0.38705 0.58296 0.50924
 C1258 C 0.39306 0.56589 0.48875
 C1259 C 0.37362 0.56195 0.46963
 C1260 C 0.34807 0.57403 0.47177
 C1261 C 0.33035 0.62277 0.53501
 C1262 C 0.35578 0.61139 0.53229
 C1263 C 0.30211 0.58120 0.45655
 C1264 C 0.32773 0.56976 0.45372
 H1265 H 0.32650 0.63524 0.55141
 H1266 H 0.37070 0.61528 0.54674
 H1267 H 0.28715 0.57732 0.44214
 H1268 H 0.33159 0.55735 0.43730
 H1269 H 0.25510 0.60588 0.46607
 H1270 H 0.28201 0.64296 0.53579
 H1271 H 0.40183 0.58615 0.52401
 H1272 H 0.37789 0.54860 0.45397
 C1273 C 0.16457 0.59241 0.51157
 C1274 C 0.16326 0.62035 0.51274
 C1275 C 0.18648 0.63520 0.50893
 C1276 C 0.21159 0.62269 0.50451
 C1277 C 0.21236 0.59430 0.50398
 C1278 C 0.18887 0.57921 0.50697
 C1279 C 0.13992 0.57670 0.51507
 C1280 C 0.14093 0.54874 0.51276
 C1281 C 0.11716 0.53405 0.51454
 C1282 C 0.09266 0.54709 0.51922
 C1283 C 0.09216 0.57505 0.52240
 C1284 C 0.11570 0.59001 0.51998
 C1285 C 0.18912 0.55109 0.50551
 C1286 C 0.16558 0.53617 0.50809
 C1287 C 0.13873 0.63297 0.51780
 C1288 C 0.11541 0.61808 0.52150
 H1289 H 0.20763 0.54050 0.50198
 H1290 H 0.16669 0.51459 0.50635
 H1291 H 0.13752 0.65460 0.51890
 H1292 H 0.09694 0.62866 0.52523
 H1293 H 0.18520 0.65685 0.50969
 H1294 H 0.23097 0.58368 0.50161
 H1295 H 0.11754 0.51256 0.51169
 H1296 H 0.07328 0.58522 0.52528
 C1297 C 0.66338 0.09289 0.00926
 C1298 C 0.66242 0.12077 0.01163
 C1299 C 0.68602 0.13546 0.00939
 C1300 C 0.71112 0.12279 0.00532
 C1301 C 0.71153 0.09443 0.00383
 C1302 C 0.68771 0.07955 0.00519
 C1303 C 0.63834 0.07739 0.01092
 C1304 C 0.63908 0.04954 0.00745
 C1305 C 0.61505 0.03509 0.00770
 C1306 C 0.59053 0.04823 0.01207
 C1307 C 0.59026 0.07605 0.01630
 C1308 C 0.61409 0.09079 0.01540
 C1309 C 0.68765 0.05153 0.00250
 C1310 C 0.66379 0.03685 0.00335
 C1311 C 0.63781 0.13349 0.01618
 C1312 C 0.61413 0.11877 0.01819
 H1313 H 0.70618 0.04084 -0.00065
 H1314 H 0.66471 0.01536 0.00075
 H1315 H 0.63683 0.15505 0.01819
 H1316 H 0.59563 0.12943 0.02163
 H1317 H 0.68500 0.15708 0.01090
 H1318 H 0.73010 0.08364 0.00181
 H1319 H 0.61529 0.01371 0.00416
 H1320 H 0.57142 0.08632 0.01908
 C1321 C 0.68490 0.89657 0.49960
 C1322 C 0.69114 0.88339 0.52227
 C1323 C 0.71666 0.87235 0.52585
 C1324 C 0.73666 0.87417 0.50704
 C1325 C 0.72968 0.88792 0.48432
 C1326 C 0.70400 0.89913 0.48059
 C1327 C 0.65765 0.90758 0.49564
 C1328 C 0.65115 0.92094 0.47301
 C1329 C 0.62536 0.93235 0.46992
 C1330 C 0.60647 0.93048 0.48953
 C1331 C 0.61332 0.91602 0.51156
 C1332 C 0.63872 0.90476 0.51480
 C1333 C 0.69675 0.91238 0.45803
 C1334 C 0.67091 0.92316 0.45436
 C1335 C 0.67145 0.88083 0.54086
 C1336 C 0.64575 0.89135 0.53721
 H1337 H 0.71120 0.91450 0.44307
 H1338 H 0.66641 0.93337 0.43678
 H1339 H 0.67595 0.87060 0.55845
 H1340 H 0.63128 0.88909 0.55215
 H1341 H 0.71998 0.86128 0.54309
 H1342 H 0.74402 0.88894 0.46914
 H1343 H 0.62049 0.94367 0.45304
 H1344 H 0.59899 0.91436 0.52674
 C1345 C 0.18478 0.40129 1.00068
 C1346 C 0.18741 0.37639 0.98882
 C1347 C 0.21167 0.36247 0.99084
 C1348 C 0.23439 0.37394 1.00289
 C1349 C 0.23041 0.39802 1.01657
 C1350 C 0.20587 0.41201 1.01507
 C1351 C 0.15925 0.41618 0.99832
 C1352 C 0.15625 0.44069 1.01093
 C1353 C 0.13172 0.45433 1.00931
 C1354 C 0.11019 0.44380 0.99508
 C1355 C 0.11381 0.41950 0.98196
 C1356 C 0.13821 0.40540 0.98384
 C1357 C 0.20202 0.43671 1.02736
 C1358 C 0.17767 0.45074 1.02537
 C1359 C 0.16587 0.36605 0.97475
 C1360 C 0.14180 0.38036 0.97216
 H1361 H 0.21798 0.44532 1.03856
 H1362 H 0.17560 0.46965 1.03526
 H1363 H 0.16774 0.34680 0.96542
 H1364 H 0.12579 0.37165 0.96107
 H1365 H 0.21304 0.34289 0.98210
 H1366 H 0.24650 0.40621 1.02789
 H1367 H 0.12918 0.47299 1.01956
 H1368 H 0.09735 0.41099 0.97137
 C1369 C -0.00322 0.31394 0.41446
 C1370 C 0.02103 0.30056 0.41063
 C1371 C 0.02237 0.28068 0.39216
 C1372 C 0.00008 0.27490 0.37657
 C1373 C -0.02456 0.28738 0.38216
 C1374 C -0.02615 0.30723 0.40060
 C1375 C -0.00447 0.33586 0.43284
 C1376 C -0.02854 0.34990 0.43585
 C1377 C -0.02894 0.37253 0.45119
 C1378 C -0.00543 0.38126 0.46306
 C1379 C 0.01809 0.36606 0.46146
 C1380 C 0.01878 0.34336 0.44599
 C1381 C -0.05023 0.32079 0.40511
 C1382 C -0.05138 0.34193 0.42244
 C1383 C 0.04359 0.30772 0.42493
 C1384 C 0.04250 0.32891 0.44231
 H1385 H -0.06811 0.31553 0.39465
 H1386 H -0.07008 0.35257 0.42486
 H1387 H 0.06237 0.29733 0.42218
 H1388 H 0.06050 0.33443 0.45246
 H1389 H 0.04095 0.26991 0.38943
 H1390 H -0.04278 0.28153 0.37271
 H1391 H -0.04717 0.38416 0.45287
 H1392 H 0.03617 0.37294 0.47070
 C1393 C 0.49157 -0.18592 -0.09347
 C1394 C 0.46888 -0.19291 -0.10762
 C1395 C 0.47001 -0.21513 -0.12358
 C1396 C 0.49413 -0.22946 -0.12658
 C1397 C 0.51601 -0.22309 -0.11070
 C1398 C 0.51502 -0.20119 -0.09452
 C1399 C 0.49102 -0.16179 -0.07778
 C1400 C 0.51397 -0.15452 -0.06406
 C1401 C 0.51388 -0.13064 -0.05041
 C1402 C 0.49127 -0.11401 -0.05098
 C1403 C 0.46814 -0.12191 -0.06407
 C1404 C 0.46789 -0.14587 -0.07754
 C1405 C 0.53732 -0.19386 -0.07997
 C1406 C 0.53680 -0.17081 -0.06492
 C1407 C 0.44570 -0.17716 -0.10603
 C1408 C 0.44526 -0.15386 -0.09130
 H1409 H 0.55546 -0.20571 -0.08063
 H1410 H 0.55453 -0.16541 -0.05431
 H1411 H 0.42803 -0.18250 -0.11677
 H1412 H 0.42726 -0.14178 -0.09101
 H1413 H 0.45205 -0.22096 -0.13351
 H1414 H 0.53424 -0.23477 -0.11174
 H1415 H 0.53168 -0.12449 -0.04025
 H1416 H 0.45052 -0.10922 -0.06409
 C1417 C -0.00514 -0.17288 1.06791
 C1418 C -0.02848 -0.18814 1.06832
 C1419 C -0.02870 -0.21174 1.08233
 C1420 C -0.00620 -0.21948 1.09682
 C1421 C 0.01785 -0.20534 1.09375
 C1422 C 0.01823 -0.18159 1.08011
 C1423 C -0.00543 -0.14686 1.05527
 C1424 C 0.01756 -0.13101 1.05611
 C1425 C 0.01654 -0.10539 1.04592
 C1426 C -0.00706 -0.09587 1.03466
 C1427 C -0.02959 -0.11229 1.03285
 C1428 C -0.02901 -0.13781 1.04352
 C1429 C 0.04128 -0.16586 1.07934
 C1430 C 0.04090 -0.14080 1.06765
 C1431 C -0.05144 -0.17893 1.05566
 C1432 C -0.05168 -0.15411 1.04338
 H1433 H 0.05947 -0.17257 1.08858
 H1434 H 0.05881 -0.12881 1.06805
 H1435 H -0.06951 -0.19067 1.05576
 H1436 H -0.06992 -0.14736 1.03425
 H1437 H -0.04682 -0.22340 1.08324
 H1438 H 0.03627 -0.21224 1.10231
 H1439 H 0.03400 -0.09275 1.04692
 H1440 H -0.04775 -0.10482 1.02405
 C1441 C 0.50613 0.32057 0.56866
 C1442 C 0.52982 0.31287 0.58096
 C1443 C 0.53105 0.28807 0.59290
 C1444 C 0.50801 0.27210 0.59445
 C1445 C 0.48571 0.27869 0.57918
 C1446 C 0.48436 0.30322 0.56685
 C1447 C 0.50353 0.34778 0.55877
 C1448 C 0.47945 0.35575 0.54725
 C1449 C 0.47657 0.38211 0.53910
 C1450 C 0.49733 0.40040 0.54296
 C1451 C 0.52140 0.39214 0.55428
 C1452 C 0.52472 0.36570 0.56203
 C1453 C 0.46098 0.31147 0.55432
 C1454 C 0.45858 0.33739 0.54459
 C1455 C 0.55120 0.33080 0.58250
 C1456 C 0.54862 0.35693 0.57330
 H1457 H 0.44413 0.29809 0.55275
 H1458 H 0.44003 0.34332 0.53555
 H1459 H 0.56964 0.32495 0.59180
 H1460 H 0.56522 0.37053 0.57550
 H1461 H 0.54950 0.28217 0.60205
 H1462 H 0.46842 0.26579 0.57901
 H1463 H 0.45807 0.38853 0.53020
 H1464 H 0.53758 0.40619 0.55679
 C1465 C 0.50073 1.17732 0.56563
 C1466 C 0.52344 1.19345 0.56447
 C1467 C 0.52398 1.21720 0.57831
 C1468 C 0.50262 1.22413 0.59434
 C1469 C 0.47875 1.20939 0.59254
 C1470 C 0.47807 1.18545 0.57904
 C1471 C 0.50121 1.15085 0.55373
 C1472 C 0.47910 1.13403 0.55637
 C1473 C 0.48062 1.10795 0.54716
 C1474 C 0.50388 1.09890 0.53517
 C1475 C 0.52538 1.11628 0.53155
 C1476 C 0.52430 1.14228 0.54115
 C1477 C 0.45567 1.16880 0.57987
 C1478 C 0.45624 1.14334 0.56881
 C1479 C 0.54574 1.18477 0.55077
 C1480 C 0.54615 1.15952 0.53922
 H1481 H 0.43800 1.17505 0.59001
 H1482 H 0.43896 1.13061 0.57057
 H1483 H 0.56330 1.19721 0.54965
 H1484 H 0.56396 1.15314 0.52938
 H1485 H 0.54181 1.22935 0.57826
 H1486 H 0.46092 1.21575 0.60226
 H1487 H 0.46389 1.09460 0.54956
 H1488 H 0.54326 1.10924 0.52217
 C1489 C -0.01046 0.68394 1.06966
 C1490 C -0.03348 0.69131 1.08291
 C1491 C -0.03443 0.71625 1.09479
 C1492 C -0.01152 0.73250 1.09550
 C1493 C 0.00973 0.72639 1.07905
 C1494 C 0.01075 0.70177 1.06672
 C1495 C -0.00772 0.65651 1.06020
 C1496 C 0.01585 0.64886 1.04794
 C1497 C 0.01908 0.62232 1.04040
 C1498 C -0.00082 0.60350 1.04554
 C1499 C -0.02444 0.61144 1.05760
 C1500 C -0.02812 0.63808 1.06479
 C1501 C 0.03350 0.69382 1.05332
 C1502 C 0.03599 0.66771 1.04399
 C1503 C -0.05425 0.67287 1.08567
 C1504 C -0.05153 0.64654 1.07687
 H1505 H 0.04988 0.70756 1.05086
 H1506 H 0.05413 0.66200 1.03433
 H1507 H -0.07219 0.67846 1.09570
 H1508 H -0.06755 0.63255 1.08010
 H1509 H -0.05232 0.72187 1.10481
 H1510 H 0.02679 0.73953 1.07819
 H1511 H 0.03724 0.61619 1.03096
 H1512 H -0.03997 0.59699 1.06119
 C1513 C 0.50403 0.68340 -0.08899
 C1514 C 0.47968 0.69680 -0.09239
 C1515 C 0.47785 0.71687 -0.11051
 C1516 C 0.49978 0.72303 -0.12606
 C1517 C 0.52453 0.71037 -0.12105
 C1518 C 0.52658 0.69022 -0.10301
 C1519 C 0.50579 0.66143 -0.07081
 C1520 C 0.52994 0.64738 -0.06817
 C1521 C 0.53078 0.62478 -0.05290
 C1522 C 0.50763 0.61615 -0.04070
 C1523 C 0.48409 0.63138 -0.04199
 C1524 C 0.48295 0.65399 -0.05739
 C1525 C 0.55075 0.67658 -0.09893
 C1526 C 0.55238 0.65534 -0.08182
 C1527 C 0.45753 0.68962 -0.07791
 C1528 C 0.45912 0.66843 -0.06069
 H1529 H 0.56834 0.68190 -0.10953
 H1530 H 0.57113 0.64468 -0.07971
 H1531 H 0.43869 0.70004 -0.08034
 H1532 H 0.44143 0.66292 -0.05033
 H1533 H 0.45919 0.72766 -0.11284
 H1534 H 0.54250 0.71639 -0.13053
 H1535 H 0.54905 0.61315 -0.05148
 H1536 H 0.46627 0.62460 -0.03253
 C1537 C 0.00814 1.18148 0.40409
 C1538 C 0.03059 1.18905 0.39026
 C1539 C 0.02948 1.21240 0.37591
 C1540 C 0.00552 1.22731 0.37409
 C1541 C -0.01598 1.22033 0.38983
 C1542 C -0.01500 1.19728 0.40441
 C1543 C 0.00867 1.15632 0.41816
 C1544 C -0.01396 1.14867 0.43175
 C1545 C -0.01370 1.12428 0.44439
 C1546 C 0.00884 1.10756 0.44318
 C1547 C 0.03151 1.11559 0.42980
 C1548 C 0.03157 1.14009 0.41728
 C1549 C -0.03705 1.18935 0.41864
 C1550 C -0.03654 1.16534 0.43215
 C1551 C 0.05349 1.17277 0.39052
 C1552 C 0.05392 1.14854 0.40374
 H1553 H -0.05497 1.20155 0.41899
 H1554 H -0.05404 1.15962 0.44268
 H1555 H 0.07097 1.17851 0.37997
 H1556 H 0.07175 1.13622 0.40315
 H1557 H 0.04727 1.21856 0.36617
 H1558 H -0.03403 1.23235 0.38973
 H1559 H -0.03119 1.11808 0.45471
 H1560 H 0.04907 1.10286 0.42920
 C1561 C 0.75968 0.69179 0.93880
 C1562 C 0.78290 0.67790 0.94583
 C1563 C 0.78363 0.66372 0.96860
 C1564 C 0.76155 0.66354 0.98520
 C1565 C 0.73875 0.67892 0.97808
 C1566 C 0.73753 0.69253 0.95475
 C1567 C 0.75816 0.70466 0.91365
 C1568 C 0.73432 0.71708 0.90563
 C1569 C 0.73242 0.72727 0.88071
 C1570 C 0.75420 0.72467 0.86413
 C1571 C 0.77826 0.71346 0.87321
 C1572 C 0.78024 0.70309 0.89764
 C1573 C 0.71431 0.70602 0.94655
 C1574 C 0.71269 0.71794 0.92241
 C1575 C 0.80482 0.67749 0.92946
 C1576 C 0.80356 0.69002 0.90584
 H1577 H 0.69699 0.70680 0.95864
 H1578 H 0.69417 0.72748 0.91668
 H1579 H 0.82295 0.66697 0.93476
 H1580 H 0.82074 0.68877 0.89358
 H1581 H 0.80139 0.65215 0.97240
 H1582 H 0.72148 0.67922 0.99026
 H1583 H 0.71381 0.73577 0.87387
 H1584 H 0.79525 0.71167 0.86074
 C1585 C 0.26173 0.18742 0.42906
 C1586 C 0.24044 0.19012 0.44588
 C1587 C 0.24184 0.17715 0.46955
 C1588 C 0.26397 0.16063 0.47624
 C1589 C 0.28519 0.15878 0.45872
 C1590 C 0.28430 0.17222 0.43556
 C1591 C 0.25988 0.19958 0.40360
 C1592 C 0.28103 0.19601 0.38674
 C1593 C 0.27867 0.20588 0.36216
 C1594 C 0.25512 0.21869 0.35376
 C1595 C 0.23432 0.22320 0.37113
 C1596 C 0.23661 0.21345 0.39621
 C1597 C 0.30532 0.16976 0.41830
 C1598 C 0.30377 0.18159 0.39436
 C1599 C 0.21780 0.20491 0.43821
 C1600 C 0.21588 0.21626 0.41383
 H1601 H 0.32295 0.15819 0.42316
 H1602 H 0.32023 0.17879 0.38145
 H1603 H 0.20114 0.20723 0.45096
 H1604 H 0.19781 0.22692 0.40859
 H1605 H 0.22515 0.17883 0.48235
 H1606 H 0.30225 0.14604 0.46210
 H1607 H 0.29496 0.20264 0.34912
 H1608 H 0.21611 0.23297 0.36487
 C1609 C 0.73914 0.31216 0.43481
 C1610 C 0.76076 0.31005 0.45162
 C1611 C 0.75965 0.32355 0.47507
 C1612 C 0.73747 0.33998 0.48158
 C1613 C 0.71600 0.34140 0.46400
 C1614 C 0.71658 0.32738 0.44107
 C1615 C 0.74057 0.29927 0.40963
 C1616 C 0.71904 0.30213 0.39281
 C1617 C 0.72096 0.29152 0.36846
 C1618 C 0.74448 0.27874 0.36021
 C1619 C 0.76568 0.27495 0.37756
 C1620 C 0.76380 0.28539 0.40243
 C1621 C 0.69520 0.32918 0.42386
 C1622 C 0.69634 0.31662 0.40020
 C1623 C 0.78337 0.29523 0.44418
 C1624 C 0.78491 0.28325 0.42002
 H1625 H 0.67758 0.34076 0.42855
 H1626 H 0.67959 0.31889 0.38730
 H1627 H 0.80028 0.29338 0.45693
 H1628 H 0.80296 0.27258 0.41493
 H1629 H 0.77653 0.32220 0.48793
 H1630 H 0.69892 0.35410 0.46719
 H1631 H 0.70433 0.29419 0.35545
 H1632 H 0.78387 0.26521 0.37141
 C1633 C 0.23721 0.81386 0.93122
 C1634 C 0.25849 0.81096 0.94830
 C1635 C 0.25727 0.82401 0.97197
 C1636 C 0.23527 0.84070 0.97847
 C1637 C 0.21407 0.84281 0.96067
 C1638 C 0.21481 0.82935 0.93745
 C1639 C 0.23889 0.80155 0.90579
 C1640 C 0.21776 0.80531 0.88866
 C1641 C 0.21994 0.79520 0.86415
 C1642 C 0.24327 0.78194 0.85610
 C1643 C 0.26404 0.77728 0.87372
 C1644 C 0.26195 0.78730 0.89873
 C1645 C 0.19382 0.83201 0.91991
 C1646 C 0.19521 0.82006 0.89598
 C1647 C 0.28094 0.79584 0.94095
 C1648 C 0.28267 0.78432 0.91661
 H1649 H 0.17633 0.84381 0.92456
 H1650 H 0.17877 0.82300 0.88285
 H1651 H 0.29758 0.79338 0.95393
 H1652 H 0.30058 0.77336 0.91162
 H1653 H 0.27395 0.82216 0.98499
 H1654 H 0.19715 0.85574 0.96391
 H1655 H 0.20362 0.79851 0.85092
 H1656 H 0.28207 0.76713 0.86773
 C1657 C 0.22875 0.81515 0.07425
 C1658 C 0.23134 0.80009 0.05198
 C1659 C 0.23426 0.81348 0.02862
 C1660 C 0.23562 0.84189 0.02761
 C1661 C 0.23357 0.85621 0.05069
 C1662 C 0.22966 0.84318 0.07369
 C1663 C 0.22522 0.80141 0.09876
 C1664 C 0.22220 0.81681 0.12074
 C1665 C 0.22003 0.80401 0.14403
 C1666 C 0.22213 0.77593 0.14607
 C1667 C 0.22410 0.76044 0.12375
 C1668 C 0.22558 0.77327 0.09988
 C1669 C 0.22641 0.85781 0.09616
 C1670 C 0.22253 0.84486 0.11926
 C1671 C 0.23085 0.77194 0.05364
 C1672 C 0.22830 0.75880 0.07713
 H1673 H 0.22689 0.87948 0.09589
 H1674 H 0.22028 0.85690 0.13621
 H1675 H 0.23282 0.75992 0.03666
 H1676 H 0.22856 0.73713 0.07747
 H1677 H 0.23511 0.80160 0.01154
 H1678 H 0.23444 0.87789 0.05052
 H1679 H 0.21808 0.81616 0.16096
 H1680 H 0.22583 0.73887 0.12505
 C1681 C 0.73240 0.31569 0.57785
 C1682 C 0.73482 0.30028 0.55575
 C1683 C 0.73695 0.31331 0.53213
 C1684 C 0.73760 0.34171 0.53073
 C1685 C 0.73544 0.35639 0.55360
 C1686 C 0.73248 0.34370 0.57684
 C1687 C 0.73008 0.30233 0.60265
 C1688 C 0.72752 0.31807 0.62449
 C1689 C 0.72659 0.30566 0.64803
 C1690 C 0.72925 0.27767 0.65037
 C1691 C 0.73074 0.26184 0.62824
 C1692 C 0.73117 0.27425 0.60417
 C1693 C 0.72960 0.35868 0.59915
 C1694 C 0.72698 0.34607 0.62258
 C1695 C 0.73510 0.27218 0.55784
 C1696 C 0.73352 0.25942 0.58159
 H1697 H 0.72946 0.38036 0.59851
 H1698 H 0.72504 0.35836 0.63940
 H1699 H 0.73692 0.25991 0.54101
 H1700 H 0.73432 0.23777 0.58227
 H1701 H 0.73793 0.30121 0.51520
 H1702 H 0.73585 0.37808 0.55310
 H1703 H 0.72496 0.31806 0.66483
 H1704 H 0.73282 0.24031 0.62980
 C1705 C 0.27195 0.18493 0.57261
 C1706 C 0.27095 0.15693 0.57151
 C1707 C 0.26652 0.14429 0.54830
 C1708 C 0.26410 0.15896 0.52548
 C1709 C 0.26546 0.18735 0.52701
 C1710 C 0.26889 0.20036 0.55064
 C1711 C 0.27605 0.19825 0.59739
 C1712 C 0.27576 0.22635 0.59907
 C1713 C 0.27776 0.23876 0.62320
 C1714 C 0.28018 0.22290 0.64520
 C1715 C 0.28220 0.19486 0.64258
 C1716 C 0.27951 0.18247 0.61904
 C1717 C 0.26947 0.22847 0.55288
 C1718 C 0.27256 0.24120 0.57663
 C1719 C 0.27464 0.14191 0.59366
 C1720 C 0.27908 0.15446 0.61700
 H1721 H 0.26716 0.24077 0.53616
 H1722 H 0.27235 0.26286 0.57741
 H1723 H 0.27410 0.12025 0.59296
 H1724 H 0.28166 0.14213 0.63368
 H1725 H 0.26559 0.12262 0.54773
 H1726 H 0.26421 0.19944 0.51014
 H1727 H 0.27606 0.26031 0.62495
 H1728 H 0.28444 0.18242 0.65926
 C1729 C 0.76894 0.68712 0.08139
 C1730 C 0.76435 0.70251 0.05963
 C1731 C 0.76121 0.68950 0.03599
 C1732 C 0.76163 0.66109 0.03423
 C1733 C 0.76542 0.64640 0.05690
 C1734 C 0.76968 0.65912 0.08010
 C1735 C 0.77270 0.70048 0.10618
 C1736 C 0.77767 0.68478 0.12764
 C1737 C 0.77989 0.69713 0.15123
 C1738 C 0.77579 0.72491 0.15410
 C1739 C 0.77190 0.74078 0.13230
 C1740 C 0.77044 0.72849 0.10810
 C1741 C 0.77488 0.64418 0.10204
 C1742 C 0.77907 0.65681 0.12538
 C1743 C 0.76306 0.73058 0.06208
 C1744 C 0.76575 0.74329 0.08586
 H1745 H 0.77572 0.62253 0.10118
 H1746 H 0.78282 0.64454 0.14191
 H1747 H 0.75953 0.74285 0.04550
 H1748 H 0.76401 0.76489 0.08684
 H1749 H 0.75870 0.70167 0.01928
 H1750 H 0.76570 0.62471 0.05622
 H1751 H 0.78320 0.68475 0.16781
 H1752 H 0.76855 0.76212 0.13428
 C1753 C 0.14474 0.56688 0.24883
 C1754 C 0.14886 0.54687 0.23066
 C1755 C 0.13821 0.52112 0.23465
 C1756 C 0.12372 0.51488 0.25693
 C1757 C 0.12030 0.53577 0.27494
 C1758 C 0.13060 0.56146 0.27099
 C1759 C 0.15516 0.59421 0.24452
 C1760 C 0.15071 0.61409 0.26279
 C1761 C 0.16153 0.63957 0.25935
 C1762 C 0.17733 0.64547 0.23812
 C1763 C 0.18080 0.62562 0.21932
 C1764 C 0.16972 0.59980 0.22253
 C1765 C 0.12640 0.58209 0.28867
 C1766 C 0.13627 0.60791 0.28464
 C1767 C 0.16314 0.55325 0.20864
 C1768 C 0.17349 0.57912 0.20474
 H1769 H 0.11540 0.57825 0.30582
 H1770 H 0.13275 0.62313 0.29890
 H1771 H 0.16648 0.53806 0.19433
 H1772 H 0.18462 0.58292 0.18765
 H1773 H 0.14035 0.50605 0.22000
 H1774 H 0.10849 0.53292 0.29169
 H1775 H 0.15870 0.65462 0.27392
 H1776 H 0.19319 0.62974 0.20310
 C1777 C 0.65321 0.06782 0.74490
 C1778 C 0.62546 0.06791 0.74250
 C1779 C 0.61150 0.04412 0.74640
 C1780 C 0.62473 0.01951 0.75207
 C1781 C 0.65295 0.02000 0.75397
 C1782 C 0.66712 0.04415 0.75090
 C1783 C 0.66796 0.09310 0.74113
 C1784 C 0.69567 0.09337 0.74466
 C1785 C 0.70934 0.11779 0.74272
 C1786 C 0.69556 0.14169 0.73669
 C1787 C 0.66792 0.14084 0.73215
 C1788 C 0.65394 0.11665 0.73476
 C1789 C 0.69502 0.04516 0.75355
 C1790 C 0.70898 0.06933 0.75076
 C1791 C 0.61211 0.09180 0.73602
 C1792 C 0.62610 0.11568 0.73209
 H1793 H 0.70616 0.02716 0.75815
 H1794 H 0.73040 0.06921 0.75345
 H1795 H 0.59061 0.09204 0.73397
 H1796 H 0.61497 0.13363 0.72726
 H1797 H 0.58998 0.04447 0.74449
 H1798 H 0.66419 0.00184 0.75724
 H1799 H 0.73057 0.11844 0.74662
 H1800 H 0.65713 0.15924 0.72823
 C1801 C 0.84819 0.08496 0.25878
 C1802 C 0.83752 0.06113 0.26815
 C1803 C 0.85153 0.03672 0.26466
 C1804 C 0.87657 0.03581 0.25220
 C1805 C 0.88620 0.06060 0.24267
 C1806 C 0.87238 0.08480 0.24587
 C1807 C 0.83359 0.11061 0.26219
 C1808 C 0.84412 0.13423 0.25208
 C1809 C 0.82962 0.15827 0.25419
 C1810 C 0.80487 0.15894 0.26649
 C1811 C 0.79483 0.13524 0.27717
 C1812 C 0.80909 0.11088 0.27487
 C1813 C 0.88249 0.10894 0.23640
 C1814 C 0.86857 0.13319 0.23938
 C1815 C 0.81298 0.06225 0.28088
 C1816 C 0.79908 0.08662 0.28420
 H1817 H 0.90126 0.10907 0.22641
 H1818 H 0.87696 0.15125 0.23151
 H1819 H 0.80436 0.04410 0.28831
 H1820 H 0.78018 0.08640 0.29397
 H1821 H 0.84239 0.01891 0.27173
 H1822 H 0.90514 0.06134 0.23302
 H1823 H 0.83715 0.17636 0.24558
 H1824 H 0.77546 0.13554 0.28610
 C1825 C 0.34244 0.58527 0.76001
 C1826 C 0.37014 0.58663 0.76269
 C1827 C 0.38541 0.56320 0.76019
 C1828 C 0.37352 0.53785 0.75546
 C1829 C 0.34531 0.53704 0.75354
 C1830 C 0.32985 0.56071 0.75526
 C1831 C 0.32633 0.61015 0.76198
 C1832 C 0.29865 0.60906 0.75820
 C1833 C 0.28363 0.63297 0.75875
 C1834 C 0.29605 0.65772 0.76366
 C1835 C 0.32372 0.65834 0.76811
 C1836 C 0.33901 0.63464 0.76699
 C1837 C 0.30196 0.56040 0.75226
 C1838 C 0.28670 0.58412 0.75346
 C1839 C 0.38213 0.61146 0.76780
 C1840 C 0.36685 0.63501 0.77003
 H1841 H 0.29185 0.54168 0.74859
 H1842 H 0.26535 0.58292 0.75060
 H1843 H 0.40356 0.61273 0.77004
 H1844 H 0.37695 0.65371 0.77385
 H1845 H 0.40690 0.56455 0.76195
 H1846 H 0.33510 0.51830 0.75087
 H1847 H 0.26237 0.63246 0.75499
 H1848 H 0.33347 0.67737 0.77108
 C1849 C 0.35570 0.43306 0.74652
 C1850 C 0.35091 0.45259 0.72805
 C1851 C 0.36148 0.47852 0.73146
 C1852 C 0.37676 0.48532 0.75334
 C1853 C 0.38097 0.46487 0.77160
 C1854 C 0.37055 0.43909 0.76834
 C1855 C 0.34519 0.40561 0.74292
 C1856 C 0.35010 0.38628 0.76158
 C1857 C 0.33919 0.36070 0.75881
 C1858 C 0.32311 0.35411 0.73772
 C1859 C 0.31915 0.37339 0.71853
 C1860 C 0.33011 0.39935 0.72118
 C1861 C 0.37526 0.41899 0.78641
 C1862 C 0.36518 0.39310 0.78312
 C1863 C 0.33601 0.44555 0.70635
 C1864 C 0.32574 0.41952 0.70303
 H1865 H 0.38680 0.42333 0.80332
 H1866 H 0.36909 0.37832 0.79766
 H1867 H 0.33215 0.46035 0.69181
 H1868 H 0.31418 0.41519 0.68613
 H1869 H 0.35858 0.49330 0.71672
 H1870 H 0.39332 0.46816 0.78812
 H1871 H 0.34238 0.34607 0.77367
 H1872 H 0.30652 0.36871 0.70242
 C1873 C 0.85032 0.93276 0.24865
 C1874 C 0.86375 0.94076 0.22699
 C1875 C 0.87726 0.96523 0.22707
 C1876 C 0.87735 0.98290 0.24848
 C1877 C 0.86395 0.97359 0.27034
 C1878 C 0.85032 0.94892 0.27042
 C1879 C 0.83671 0.90649 0.24875
 C1880 C 0.82374 0.89821 0.27067
 C1881 C 0.81101 0.87326 0.27080
 C1882 C 0.81119 0.85627 0.24923
 C1883 C 0.82447 0.86498 0.22736
 C1884 C 0.83729 0.89006 0.22708
 C1885 C 0.83706 0.93978 0.29205
 C1886 C 0.82393 0.91496 0.29214
 C1887 C 0.86395 0.92383 0.20561
 C1888 C 0.85093 0.89901 0.20563
 H1889 H 0.83683 0.95189 0.30908
 H1890 H 0.81399 0.90876 0.30926
 H1891 H 0.87436 0.92980 0.18867
 H1892 H 0.85168 0.88667 0.18876
 H1893 H 0.88839 0.96934 0.21022
 H1894 H 0.86511 0.98503 0.28775
 H1895 H 0.80102 0.86711 0.28791
 H1896 H 0.82498 0.85227 0.21071
 C1897 C 0.65080 0.91661 0.76050
 C1898 C 0.63464 0.92113 0.73923
 C1899 C 0.62117 0.94561 0.73665
 C1900 C 0.62413 0.96668 0.75462
 C1901 C 0.64005 0.96114 0.77640
 C1902 C 0.65356 0.93631 0.77927
 C1903 C 0.66494 0.89057 0.76314
 C1904 C 0.68115 0.88568 0.78446
 C1905 C 0.69527 0.86107 0.78631
 C1906 C 0.69348 0.84186 0.76666
 C1907 C 0.67650 0.84710 0.74587
 C1908 C 0.66222 0.87121 0.74403
 C1909 C 0.66974 0.93061 0.80052
 C1910 C 0.68326 0.90585 0.80305
 C1911 C 0.63201 0.90096 0.72081
 C1912 C 0.64567 0.87652 0.72309
 H1913 H 0.67211 0.94549 0.81530
 H1914 H 0.69564 0.90254 0.81964
 H1915 H 0.61949 0.90419 0.70429
 H1916 H 0.64334 0.86170 0.70825
 H1917 H 0.60781 0.94749 0.72064
 H1918 H 0.64175 0.97617 0.79114
 H1919 H 0.70843 0.85739 0.80229
 H1920 H 0.67481 0.83247 0.73075
 C1921 C 0.15599 0.41399 0.26068
 C1922 C 0.16880 0.43827 0.25561
 C1923 C 0.15390 0.46236 0.25538
 C1924 C 0.12589 0.46228 0.25894
 C1925 C 0.11378 0.43721 0.26415
 C1926 C 0.12859 0.41334 0.26529
 C1927 C 0.17150 0.38864 0.26096
 C1928 C 0.15865 0.36443 0.26647
 C1929 C 0.17337 0.34034 0.26623
 C1930 C 0.20054 0.34029 0.25984
 C1931 C 0.21311 0.36474 0.25432
 C1932 C 0.19875 0.38905 0.25522
 C1933 C 0.11642 0.38876 0.27077
 C1934 C 0.13120 0.36478 0.27151
 C1935 C 0.19631 0.43788 0.25063
 C1936 C 0.21093 0.41373 0.25020
 H1937 H 0.09524 0.38804 0.27449
 H1938 H 0.12098 0.34631 0.27576
 H1939 H 0.20658 0.45638 0.24666
 H1940 H 0.23198 0.41440 0.24586
 H1941 H 0.16441 0.48083 0.25240
 H1942 H 0.09246 0.43634 0.26712
 H1943 H 0.16350 0.32156 0.26992
 H1944 H 0.23400 0.36476 0.24926
 C1945 C 0.07896 0.25291 0.81832
 C1946 C 0.06295 0.27597 0.81710
 C1947 C 0.03878 0.27633 0.82989
 C1948 C 0.03124 0.25439 0.84495
 C1949 C 0.04605 0.23033 0.84321
 C1950 C 0.07040 0.22981 0.83076
 C1951 C 0.10562 0.25332 0.80728
 C1952 C 0.12216 0.23068 0.80970
 C1953 C 0.14817 0.23185 0.80078
 C1954 C 0.15737 0.25525 0.78920
 C1955 C 0.14037 0.27745 0.78610
 C1956 C 0.11447 0.27671 0.79540
 C1957 C 0.08691 0.20704 0.83160
 C1958 C 0.11252 0.20752 0.82134
 C1959 C 0.07205 0.29868 0.80431
 C1960 C 0.09746 0.29903 0.79357
 H1961 H 0.08035 0.18904 0.84102
 H1962 H 0.12503 0.18985 0.82295
 H1963 H 0.05973 0.31653 0.80319
 H1964 H 0.10407 0.31709 0.78429
 H1965 H 0.02668 0.29439 0.82980
 H1966 H 0.03938 0.21216 0.85214
 H1967 H 0.16120 0.21458 0.80274
 H1968 H 0.14753 0.29545 0.77705
 C1969 C 0.56916 0.74383 0.31883
 C1970 C 0.56071 0.72059 0.33113
 C1971 C 0.53574 0.72051 0.34243
 C1972 C 0.52042 0.74430 0.34344
 C1973 C 0.52756 0.76593 0.32785
 C1974 C 0.55233 0.76618 0.31621
 C1975 C 0.59665 0.74542 0.30999
 C1976 C 0.60540 0.76915 0.29871
 C1977 C 0.63197 0.77117 0.29171
 C1978 C 0.64970 0.74985 0.29630
 C1979 C 0.64070 0.72610 0.30736
 C1980 C 0.61402 0.72368 0.31410
 C1981 C 0.56137 0.78912 0.30378
 C1982 C 0.58757 0.79057 0.29511
 C1983 C 0.57810 0.69860 0.33348
 C1984 C 0.60446 0.70017 0.32519
 H1985 H 0.54842 0.80640 0.30158
 H1986 H 0.59415 0.80885 0.28619
 H1987 H 0.57163 0.68049 0.34277
 H1988 H 0.61762 0.68315 0.32803
 H1989 H 0.52927 0.70244 0.35169
 H1990 H 0.51505 0.78368 0.32716
 H1991 H 0.63895 0.78945 0.28303
 H1992 H 0.65433 0.70948 0.31043
 C1993 C 0.56542 0.25300 0.16283
 C1994 C 0.55841 0.27616 0.14934
 C1995 C 0.53760 0.27507 0.13182
 C1996 C 0.52447 0.25068 0.12680
 C1997 C 0.53062 0.22825 0.14209
 C1998 C 0.55141 0.22908 0.15962
 C1999 C 0.58835 0.25360 0.18008
 C2000 C 0.59604 0.23011 0.19284
 C2001 C 0.61937 0.23018 0.20740
 C2002 C 0.63495 0.25336 0.20857
 C2003 C 0.62620 0.27711 0.19694
 C2004 C 0.60296 0.27732 0.18249
 C2005 C 0.55888 0.20628 0.17347
 C2006 C 0.58096 0.20676 0.18982
 C2007 C 0.57270 0.29988 0.15322
 C2008 C 0.59476 0.30043 0.16952
 H2009 H 0.54800 0.18776 0.17117
 H2010 H 0.58664 0.18859 0.19968
 H2011 H 0.56726 0.31793 0.14305
 H2012 H 0.60585 0.31886 0.17149
 H2013 H 0.53171 0.29339 0.12244
 H2014 H 0.51955 0.20984 0.13969
 H2015 H 0.62620 0.21194 0.21650
 H2016 H 0.63805 0.29514 0.19834
 C2017 C 0.05928 0.75754 0.66401
 C2018 C 0.04467 0.73380 0.66254
 C2019 C 0.02351 0.73225 0.64548
 C2020 C 0.01747 0.75378 0.62905
 C2021 C 0.03098 0.77825 0.63257
 C2022 C 0.05234 0.77997 0.64944
 C2023 C 0.08286 0.75860 0.68041
 C2024 C 0.09826 0.78193 0.68086
 C2025 C 0.12211 0.78191 0.69442
 C2026 C 0.13052 0.75874 0.70725
 C2027 C 0.11419 0.73609 0.70802
 C2028 C 0.09037 0.73577 0.69428
 C2029 C 0.06738 0.80347 0.65145
 C2030 C 0.09014 0.80439 0.66686
 C2031 C 0.05202 0.71175 0.67749
 C2032 C 0.07460 0.71272 0.69314
 H2033 H 0.06201 0.82097 0.64042
 H2034 H 0.10181 0.82256 0.66732
 H2035 H 0.04066 0.69340 0.67655
 H2036 H 0.08016 0.69508 0.70389
 H2037 H 0.01223 0.71387 0.64420
 H2038 H 0.02515 0.79606 0.62232
 H2039 H 0.13459 0.79956 0.69430
 H2040 H 0.12075 0.71828 0.71802
 C2041 C 0.93049 0.74766 0.66472
 C2042 C 0.94355 0.77183 0.66028
 C2043 C 0.96364 0.77246 0.64232
 C2044 C 0.97015 0.74945 0.62791
 C2045 C 0.95748 0.72507 0.63366
 C2046 C 0.93746 0.72417 0.65170
 C2047 C 0.90886 0.74699 0.68309
 C2048 C 0.89538 0.72287 0.68701
 C2049 C 0.87326 0.72285 0.70263
 C2050 C 0.86435 0.74680 0.71377
 C2051 C 0.87895 0.77045 0.71117
 C2052 C 0.90123 0.77072 0.69551
 C2053 C 0.92425 0.70017 0.65691
 C2054 C 0.90343 0.69954 0.67430
 C2055 C 0.93618 0.79496 0.67372
 C2056 C 0.91520 0.79444 0.69103
 H2057 H 0.92969 0.68188 0.64711
 H2058 H 0.89317 0.68083 0.67738
 H2059 H 0.94633 0.81370 0.67047
 H2060 H 0.90956 0.81281 0.70058
 H2061 H 0.97437 0.79095 0.63943
 H2062 H 0.96358 0.70647 0.62489
 H2063 H 0.86212 0.70451 0.70508
 H2064 H 0.87195 0.78886 0.71984
 C2065 C 0.43397 0.24184 0.15833
 C2066 C 0.44147 0.21940 0.14402
 C2067 C 0.46345 0.22111 0.12821
 C2068 C 0.47708 0.24558 0.12541
 C2069 C 0.47027 0.26721 0.14146
 C2070 C 0.44852 0.26565 0.15753
 C2071 C 0.41015 0.24057 0.17405
 C2072 C 0.40239 0.26323 0.18802
 C2073 C 0.37877 0.26245 0.20169
 C2074 C 0.36286 0.23945 0.20087
 C2075 C 0.37131 0.21660 0.18756
 C2076 C 0.39503 0.21704 0.17409
 C2077 C 0.44069 0.28765 0.17232
 C2078 C 0.41791 0.28646 0.18737
 C2079 C 0.42653 0.19581 0.14539
 C2080 C 0.40351 0.19469 0.16011
 H2081 H 0.45195 0.30607 0.17188
 H2082 H 0.41212 0.30399 0.19817
 H2083 H 0.43228 0.17832 0.13452
 H2084 H 0.39206 0.17639 0.16022
 H2085 H 0.46976 0.20320 0.11837
 H2086 H 0.48157 0.28561 0.14077
 H2087 H 0.37219 0.28006 0.21198
 H2088 H 0.35918 0.19871 0.18732
 C2089 C 0.42441 0.75039 0.31702
 C2090 C 0.44123 0.72796 0.31543
 C2091 C 0.46574 0.72854 0.32789
 C2092 C 0.47271 0.75069 0.34315
 C2093 C 0.45734 0.77436 0.34132
 C2094 C 0.43261 0.77395 0.32920
 C2095 C 0.39720 0.74865 0.30708
 C2096 C 0.37983 0.77053 0.31015
 C2097 C 0.35338 0.76802 0.30243
 C2098 C 0.34455 0.74406 0.29136
 C2099 C 0.36229 0.72260 0.28765
 C2100 C 0.38867 0.72468 0.29576
 C2101 C 0.41524 0.79603 0.33050
 C2102 C 0.38912 0.79429 0.32122
 C2103 C 0.43246 0.70473 0.30304
 C2104 C 0.40652 0.70313 0.29328
 H2105 H 0.42151 0.81438 0.33969
 H2106 H 0.37594 0.81141 0.32325
 H2107 H 0.44542 0.68737 0.30162
 H2108 H 0.40016 0.68466 0.28437
 H2109 H 0.47829 0.71080 0.32787
 H2110 H 0.46364 0.79270 0.35040
 H2111 H 0.33975 0.78475 0.30479
 H2112 H 0.35542 0.70421 0.27890
 C2113 C 0.93472 0.25954 0.81777
 C2114 C 0.94195 0.28279 0.83101
 C2115 C 0.96692 0.28385 0.84272
 C2116 C 0.98340 0.26084 0.84328
 C2117 C 0.97738 0.23938 0.82680
 C2118 C 0.95272 0.23824 0.81463
 C2119 C 0.90731 0.25670 0.80853
 C2120 C 0.89984 0.23293 0.79623
 C2121 C 0.87338 0.22968 0.78876
 C2122 C 0.85448 0.24974 0.79402
 C2123 C 0.86221 0.27350 0.80620
 C2124 C 0.88876 0.27722 0.81329
 C2125 C 0.94491 0.21528 0.80125
 C2126 C 0.91882 0.21269 0.79209
 C2127 C 0.92335 0.30365 0.83396
 C2128 C 0.89705 0.30084 0.82535
 H2129 H 0.95877 0.19880 0.79864
 H2130 H 0.91326 0.19439 0.78241
 H2131 H 0.92882 0.32177 0.84399
 H2132 H 0.88297 0.31696 0.82870
 H2133 H 0.97239 0.30189 0.85277
 H2134 H 0.99065 0.22219 0.82587
 H2135 H 0.86739 0.21142 0.77920
 H2136 H 0.84768 0.28916 0.80983
 C2137 C 0.57114 1.00310 0.67746
 C2138 C 0.59881 1.00121 0.68056
 C2139 C 0.60946 0.99649 0.70456
 C2140 C 0.59306 0.99445 0.72618
 C2141 C 0.56505 0.99645 0.72265
 C2142 C 0.55404 1.00043 0.69820
 C2143 C 0.55995 1.00773 0.65187
 C2144 C 0.53219 1.00850 0.64822
 C2145 C 0.52177 1.01094 0.62336
 C2146 C 0.53918 1.01256 0.60254
 C2147 C 0.56688 1.01345 0.60704
 C2148 C 0.57734 1.01052 0.63141
 C2149 C 0.52634 1.00204 0.69395
 C2150 C 0.51562 1.00576 0.66943
 C2151 C 0.61553 1.00437 0.65963
 C2152 C 0.60497 1.00911 0.63548
 H2153 H 0.51278 1.00008 0.70968
 H2154 H 0.49417 1.00634 0.66704
 H2155 H 0.63698 1.00313 0.66194
 H2156 H 0.61855 1.01119 0.61977
 H2157 H 0.63093 0.99513 0.70674
 H2158 H 0.55179 0.99550 0.73864
 H2159 H 0.50045 1.01000 0.62012
 H2160 H 0.58048 1.01490 0.59126
 C2161 C 0.06228 0.49353 1.18783
 C2162 C 0.06053 0.51425 1.20563
 C2163 C 0.07339 0.51123 1.22924
 C2164 C 0.08912 0.48815 1.23483
 C2165 C 0.08983 0.46745 1.21645
 C2166 C 0.07635 0.46990 1.19334
 C2167 C 0.05041 0.49712 1.16240
 C2168 C 0.05302 0.47648 1.14459
 C2169 C 0.04348 0.48041 1.12009
 C2170 C 0.03205 0.50500 1.11271
 C2171 C 0.02841 0.52535 1.13092
 C2172 C 0.03782 0.52146 1.15598
 C2173 C 0.07778 0.44945 1.17514
 C2174 C 0.06615 0.45261 1.15122
 C2175 C 0.04692 0.53798 1.19898
 C2176 C 0.03588 0.54156 1.17459
 H2177 H 0.08844 0.43102 1.17925
 H2178 H 0.06814 0.43655 1.13753
 H2179 H 0.04537 0.55420 1.21254
 H2180 H 0.02618 0.56041 1.17013
 H2181 H 0.07248 0.52748 1.24283
 H2182 H 0.10179 0.44968 1.21907
 H2183 H 0.04579 0.46443 1.10635
 H2184 H 0.01952 0.54428 1.12539
 C2185 C -0.07032 0.00573 1.17421
 C2186 C -0.09663 0.01461 1.17738
 C2187 C -0.10657 0.01810 1.20172
 C2188 C -0.09106 0.01162 1.22341
 C2189 C -0.06423 0.00332 1.21977
 C2190 C -0.05376 0.00058 1.19515
 C2191 C -0.06021 0.00111 1.14837
 C2192 C -0.03366 -0.00709 1.14475
 C2193 C -0.02395 -0.01017 1.11981
 C2194 C -0.04101 -0.00551 1.09887
 C2195 C -0.06799 0.00105 1.10333
 C2196 C -0.07744 0.00507 1.12774
 C2197 C -0.02736 -0.00798 1.19092
 C2198 C -0.01741 -0.01145 1.16620
 C2199 C -0.11310 0.01865 1.15616
 C2200 C -0.10373 0.01374 1.13175
 H2201 H -0.01424 -0.01201 1.20684
 H2202 H 0.00310 -0.01779 1.16389
 H2203 H -0.13353 0.02531 1.15847
 H2204 H -0.11711 0.01699 1.11585
 H2205 H -0.12736 0.02362 1.20384
 H2206 H -0.05177 -0.00209 1.23577
 H2207 H -0.00319 -0.01520 1.11675
 H2208 H -0.08166 0.00433 1.08764
 C2209 C 0.43539 0.50850 0.68290
 C2210 C 0.43859 0.48792 0.70060
 C2211 C 0.42616 0.49033 0.72435
 C2212 C 0.40978 0.51280 0.73032
 C2213 C 0.40740 0.53327 0.71189
 C2214 C 0.42025 0.53137 0.68860
 C2215 C 0.44700 0.50558 0.65741
 C2216 C 0.44295 0.52605 0.63972
 C2217 C 0.45254 0.52280 0.61526
 C2218 C 0.46561 0.49907 0.60778
 C2219 C 0.47053 0.47891 0.62589
 C2220 C 0.46098 0.48208 0.65089
 C2221 C 0.41727 0.55166 0.67047
 C2222 C 0.42856 0.54911 0.64648
 C2223 C 0.45336 0.46497 0.69377
 C2224 C 0.46428 0.46207 0.66937
 H2225 H 0.40573 0.56949 0.67471
 H2226 H 0.42543 0.56504 0.63289
 H2227 H 0.45605 0.44885 0.70723
 H2228 H 0.47504 0.44384 0.66483
 H2229 H 0.42815 0.47413 0.73784
 H2230 H 0.39464 0.55043 0.71464
 H2231 H 0.44920 0.53872 0.60169
 H2232 H 0.48067 0.46063 0.62034
 C2233 C 0.43604 0.52343 -0.17413
 C2234 C 0.45085 0.51904 -0.19616
 C2235 C 0.43732 0.51521 -0.21945
 C2236 C 0.40901 0.51449 -0.22054
 C2237 C 0.39493 0.51807 -0.19762
 C2238 C 0.40812 0.52321 -0.17480
 C2239 C 0.44994 0.52791 -0.14972
 C2240 C 0.43482 0.53272 -0.12798
 C2241 C 0.44774 0.53537 -0.10467
 C2242 C 0.47552 0.53160 -0.10236
 C2243 C 0.49078 0.52801 -0.12445
 C2244 C 0.47792 0.52629 -0.14837
 C2245 C 0.39376 0.52834 -0.15261
 C2246 C 0.40689 0.53330 -0.12964
 C2247 C 0.47888 0.51859 -0.19433
 C2248 C 0.49213 0.52179 -0.17087
 H2249 H 0.37217 0.52847 -0.15300
 H2250 H 0.39507 0.53691 -0.11289
 H2251 H 0.49069 0.51523 -0.21113
 H2252 H 0.51369 0.52057 -0.17032
 H2253 H 0.44902 0.51308 -0.23640
 H2254 H 0.37333 0.51758 -0.19784
 H2255 H 0.43584 0.53836 -0.08783
 H2256 H 0.51211 0.52488 -0.12289
 C2257 C -0.05177 1.00855 0.31529
 C2258 C -0.06153 0.98436 0.30556
 C2259 C -0.07731 0.98454 0.28344
 C2260 C -0.08498 1.00891 0.27159
 C2261 C -0.07283 1.03268 0.28088
 C2262 C -0.05683 1.03269 0.30280
 C2263 C -0.03663 1.00873 0.33943
 C2264 C -0.02753 1.03312 0.34958
 C2265 C -0.01516 1.03341 0.37365
 C2266 C -0.01261 1.00957 0.38759
 C2267 C -0.02078 0.98520 0.37656
 C2268 C -0.03279 0.98464 0.35252
 C2269 C -0.04654 1.05660 0.31298
 C2270 C -0.03221 1.05682 0.33596
 C2271 C -0.05610 0.96048 0.31868
 C2272 C -0.04214 0.96064 0.34183
 H2273 H -0.05019 1.07544 0.30343
 H2274 H -0.02529 1.07578 0.34341
 H2275 H -0.06340 0.94159 0.31139
 H2276 H -0.03914 0.94188 0.35170
 H2277 H -0.08400 0.96555 0.27596
 H2278 H -0.07599 1.05161 0.27173
 H2279 H -0.00930 1.05224 0.38220
 H2280 H -0.01892 0.96680 0.38729
 C2281 C 0.06605 0.47748 0.33043
 C2282 C 0.09395 0.47828 0.32956
 C2283 C 0.10652 0.48326 0.30655
 C2284 C 0.09179 0.48650 0.28378
 C2285 C 0.06352 0.48540 0.28514
 C2286 C 0.05065 0.48137 0.30849
 C2287 C 0.05278 0.47274 0.35491
 C2288 C 0.02480 0.47328 0.35632
 C2289 C 0.01243 0.47090 0.38022
 C2290 C 0.02816 0.46791 0.40231
 C2291 C 0.05606 0.46553 0.39996
 C2292 C 0.06846 0.46857 0.37660
 C2293 C 0.02266 0.48096 0.31043
 C2294 C 0.00999 0.47727 0.33390
 C2295 C 0.10889 0.47379 0.35172
 C2296 C 0.09636 0.46882 0.37481
 H2297 H 0.01041 0.48390 0.29369
 H2298 H -0.01157 0.47770 0.33451
 H2299 H 0.13046 0.47415 0.35122
 H2300 H 0.10863 0.46569 0.39151
 H2301 H 0.12811 0.48388 0.30606
 H2302 H 0.05135 0.48718 0.26829
 H2303 H -0.00900 0.47300 0.38178
 H2304 H 0.06837 0.46302 0.41676
 C2305 C 0.55621 -0.00910 -0.18050
 C2306 C 0.57110 0.01390 -0.18546
 C2307 C 0.58723 0.01478 -0.20690
 C2308 C 0.58789 -0.00651 -0.22472
 C2309 C 0.57182 -0.02922 -0.21961
 C2310 C 0.55653 -0.03084 -0.19728
 C2311 C 0.54108 -0.01082 -0.15659
 C2312 C 0.52786 -0.03462 -0.15028
 C2313 C 0.51555 -0.03680 -0.12627
 C2314 C 0.51659 -0.01515 -0.10902
 C2315 C 0.52848 0.00896 -0.11669
 C2316 C 0.54124 0.01105 -0.13995
 C2317 C 0.54219 -0.05400 -0.19089
 C2318 C 0.52835 -0.05594 -0.16777
 C2319 C 0.57031 0.03549 -0.16842
 C2320 C 0.55539 0.03421 -0.14620
 H2321 H 0.54220 -0.07106 -0.20358
 H2322 H 0.51826 -0.07444 -0.16342
 H2323 H 0.58157 0.05347 -0.17214
 H2324 H 0.55564 0.05119 -0.13341
 H2325 H 0.59976 0.03208 -0.20877
 H2326 H 0.57209 -0.04606 -0.23257
 H2327 H 0.50662 -0.05550 -0.12056
 H2328 H 0.52916 0.02584 -0.10375
 C2329 C 0.68319 0.60446 -0.00000
 C2330 C 0.68889 0.61843 0.02239
 C2331 C 0.71374 0.63071 0.02551
 C2332 C 0.73375 0.62898 0.00669
 C2333 C 0.72716 0.61489 -0.01596
 C2334 C 0.70208 0.60256 -0.01930
 C2335 C 0.65675 0.59175 -0.00330
 C2336 C 0.65073 0.57770 -0.02571
 C2337 C 0.62566 0.56494 -0.02826
 C2338 C 0.60714 0.56603 -0.00827
 C2339 C 0.61353 0.58095 0.01362
 C2340 C 0.63812 0.59371 0.01624
 C2341 C 0.69533 0.58855 -0.04160
 C2342 C 0.67020 0.57634 -0.04473
 C2343 C 0.66945 0.62020 0.04133
 C2344 C 0.64456 0.60800 0.03834
 H2345 H 0.70964 0.58692 -0.05678
 H2346 H 0.66605 0.56563 -0.06215
 H2347 H 0.67356 0.63102 0.05871
 H2348 H 0.63027 0.60967 0.05354
 H2349 H 0.71667 0.64218 0.04261
 H2350 H 0.74154 0.61391 -0.03113
 H2351 H 0.62105 0.55344 -0.04512
 H2352 H 0.59938 0.58222 0.02898
 C2353 C 0.18493 1.10293 0.49164
 C2354 C 0.19011 1.11857 0.51314
 C2355 C 0.21506 1.13067 0.51618
 C2356 C 0.23569 1.12710 0.49818
 C2357 C 0.22952 1.11164 0.47625
 C2358 C 0.20440 1.09935 0.47306
 C2359 C 0.15848 1.09021 0.48852
 C2360 C 0.15305 1.07435 0.46709
 C2361 C 0.12801 1.06146 0.46485
 C2362 C 0.10888 1.06429 0.48418
 C2363 C 0.11465 1.08111 0.50498
 C2364 C 0.13925 1.09393 0.50732
 C2365 C 0.19820 1.08364 0.45165
 C2366 C 0.17308 1.07133 0.44876
 C2367 C 0.17008 1.12210 0.53130
 C2368 C 0.14513 1.10996 0.52847
 H2369 H 0.21295 1.08067 0.43704
 H2370 H 0.16938 1.05923 0.43208
 H2371 H 0.17376 1.13424 0.54797
 H2372 H 0.13038 1.11300 0.54308
 H2373 H 0.21763 1.14347 0.53248
 H2374 H 0.24434 1.10940 0.46157
 H2375 H 0.12390 1.04850 0.44884
 H2376 H 0.10006 1.08375 0.51982
 C2377 C 0.16488 -0.09062 1.00945
 C2378 C 0.16346 -0.11832 1.01288
 C2379 C 0.18654 -0.13396 1.00997
 C2380 C 0.21165 -0.12240 1.00429
 C2381 C 0.21257 -0.09413 1.00184
 C2382 C 0.18920 -0.07837 1.00374
 C2383 C 0.14031 -0.07417 1.01157
 C2384 C 0.14138 -0.04660 1.00675
 C2385 C 0.11764 -0.03139 1.00716
 C2386 C 0.09314 -0.04345 1.01313
 C2387 C 0.09264 -0.07093 1.01891
 C2388 C 0.11609 -0.08649 1.01770
 C2389 C 0.18957 -0.05052 0.99986
 C2390 C 0.16608 -0.03500 1.00104
 C2391 C 0.13890 -0.12993 1.01907
 C2392 C 0.11569 -0.11428 1.02162
 H2393 H 0.20812 -0.04067 0.99542
 H2394 H 0.16727 -0.01372 0.99740
 H2395 H 0.13758 -0.15134 1.02192
 H2396 H 0.09718 -0.12410 1.02630
 H2397 H 0.18507 -0.15546 1.01213
 H2398 H 0.23115 -0.08405 0.99853
 H2399 H 0.11809 -0.01030 1.00243
 H2400 H 0.07379 -0.08044 1.02287
 C2401 C 0.66638 0.40797 0.51307
 C2402 C 0.66535 0.38025 0.51641
 C2403 C 0.68853 0.36493 0.51302
 C2404 C 0.71343 0.37682 0.50709
 C2405 C 0.71396 0.40508 0.50455
 C2406 C 0.69041 0.42055 0.50690
 C2407 C 0.64166 0.42408 0.51582
 C2408 C 0.64226 0.45168 0.51107
 C2409 C 0.61834 0.46657 0.51205
 C2410 C 0.59416 0.45413 0.51851
 C2411 C 0.59417 0.42664 0.52422
 C2412 C 0.61777 0.41142 0.52244
 C2413 C 0.69032 0.44842 0.50310
 C2414 C 0.66666 0.46362 0.50485
 C2415 C 0.64111 0.36828 0.52308
 C2416 C 0.61779 0.38361 0.52623
 H2417 H 0.70863 0.45852 0.49831
 H2418 H 0.66749 0.48493 0.50124
 H2419 H 0.64013 0.34684 0.52587
 H2420 H 0.59954 0.37353 0.53127
 H2421 H 0.68735 0.34341 0.51518
 H2422 H 0.73235 0.41536 0.50090
 H2423 H 0.61836 0.48766 0.50732
 H2424 H 0.57554 0.41686 0.52851
 C2425 C -0.18288 0.39635 0.49805
 C2426 C -0.20251 0.40070 0.47948
 C2427 C -0.22798 0.38914 0.48244
 C2428 C -0.23425 0.37358 0.50410
 C2429 C -0.21348 0.36941 0.52215
 C2430 C -0.18826 0.38079 0.51937
 C2431 C -0.15602 0.40809 0.49510
 C2432 C -0.13665 0.40357 0.51390
 C2433 C -0.11166 0.41552 0.51177
 C2434 C -0.10562 0.43218 0.49116
 C2435 C -0.12487 0.43584 0.47180
 C2436 C -0.15033 0.42385 0.47384
 C2437 C -0.16812 0.37645 0.53755
 C2438 C -0.14281 0.38769 0.53490
 C2439 C -0.19604 0.41631 0.45825
 C2440 C -0.17052 0.42772 0.45552
 H2441 H -0.17200 0.36435 0.55408
 H2442 H -0.12798 0.38406 0.54951
 H2443 H -0.21088 0.41986 0.44363
 H2444 H -0.16663 0.43978 0.43898
 H2445 H -0.24287 0.39181 0.46770
 H2446 H -0.21606 0.35650 0.53826
 H2447 H -0.09697 0.41246 0.52666
 H2448 H -0.12053 0.44882 0.45600
 C2449 C 0.31499 -0.10323 -0.00623
 C2450 C 0.29503 -0.09898 -0.02447
 C2451 C 0.26967 -0.11056 -0.02104
 C2452 C 0.26377 -0.12601 0.00080
 C2453 C 0.28477 -0.13003 0.01860
 C2454 C 0.31000 -0.11870 0.01528
 C2455 C 0.34177 -0.09146 -0.00973
 C2456 C 0.36153 -0.09593 0.00868
 C2457 C 0.38647 -0.08397 0.00601
 C2458 C 0.39205 -0.06718 -0.01469
 C2459 C 0.37236 -0.06360 -0.03366
 C2460 C 0.34700 -0.07570 -0.03113
 C2461 C 0.33053 -0.12295 0.03307
 C2462 C 0.35581 -0.11175 0.02985
 C2463 C 0.30103 -0.08342 -0.04587
 C2464 C 0.32643 -0.07193 -0.04908
 H2465 H 0.32700 -0.13496 0.04973
 H2466 H 0.37095 -0.11533 0.04418
 H2467 H 0.28589 -0.07994 -0.06022
 H2468 H 0.32995 -0.05990 -0.06572
 H2469 H 0.25452 -0.10795 -0.03556
 H2470 H 0.28230 -0.14275 0.03487
 H2471 H 0.40148 -0.08707 0.02060
 H2472 H 0.37629 -0.05059 -0.04954
 C2473 C 0.33445 1.09168 0.50765
 C2474 C 0.31015 1.07947 0.50140
 C2475 C 0.28683 1.09527 0.49915
 C2476 C 0.28779 1.12354 0.50181
 C2477 C 0.31291 1.13506 0.50792
 C2478 C 0.33593 1.11938 0.51121
 C2479 C 0.35894 1.07518 0.51030
 C2480 C 0.38310 1.08745 0.51707
 C2481 C 0.40645 1.07183 0.51890
 C2482 C 0.40594 1.04433 0.51308
 C2483 C 0.38151 1.03230 0.50640
 C2484 C 0.35784 1.04759 0.50539
 C2485 C 0.36045 1.13095 0.51799
 C2486 C 0.38357 1.11525 0.52107
 C2487 C 0.30973 1.05161 0.49741
 C2488 C 0.33317 1.03603 0.49907
 H2489 H 0.36179 1.15237 0.52095
 H2490 H 0.40205 1.12503 0.52623
 H2491 H 0.29119 1.04180 0.49256
 H2492 H 0.33195 1.01475 0.49536
 H2493 H 0.26826 1.08519 0.49551
 H2494 H 0.31441 1.15656 0.51024
 H2495 H 0.42527 1.08129 0.52342
 H2496 H 0.38106 1.01119 0.50167
 C2497 C -0.16736 0.59440 1.01534
 C2498 C -0.19134 0.58235 1.00780
 C2499 C -0.21475 0.59806 1.00573
 C2500 C -0.21418 0.62613 1.00995
 C2501 C -0.18931 0.63752 1.01719
 C2502 C -0.16625 0.62188 1.02029
 C2503 C -0.14280 0.57799 1.01785
 C2504 C -0.11897 0.59008 1.02589
 C2505 C -0.09555 0.57458 1.02763
 C2506 C -0.09562 0.54743 1.02048
 C2507 C -0.11971 0.53557 1.01251
 C2508 C -0.14349 0.55069 1.01156
 C2509 C -0.14204 0.63329 1.02829
 C2510 C -0.11888 0.61764 1.03123
 C2511 C -0.19136 0.55475 1.00241
 C2512 C -0.16784 0.53930 1.00397
 H2513 H -0.14099 0.65453 1.03233
 H2514 H -0.10064 0.62728 1.03736
 H2515 H -0.20966 0.54507 0.99654
 H2516 H -0.16874 0.51823 0.99916
 H2517 H -0.23308 0.58805 1.00093
 H2518 H -0.18804 0.65887 1.02059
 H2519 H -0.07697 0.58395 1.03312
 H2520 H -0.11981 0.51473 1.00675
 C2521 C -0.00118 0.67691 0.56828
 C2522 C 0.02195 0.68627 0.58030
 C2523 C 0.02135 0.71125 0.59194
 C2524 C -0.00283 0.72576 0.59357
 C2525 C -0.02474 0.71754 0.57869
 C2526 C -0.02430 0.69277 0.56659
 C2527 C -0.00161 0.64957 0.55841
 C2528 C -0.02503 0.63997 0.54702
 C2529 C -0.02583 0.61348 0.53893
 C2530 C -0.00367 0.59665 0.54274
 C2531 C 0.01975 0.60647 0.55389
 C2532 C 0.02100 0.63313 0.56156
 C2533 C -0.04702 0.68288 0.55420
 C2534 C -0.04736 0.65682 0.54448
 C2535 C 0.04473 0.66988 0.58175
 C2536 C 0.04420 0.64357 0.57266
 H2537 H -0.06489 0.69507 0.55268
 H2538 H -0.06543 0.64957 0.53552
 H2539 H 0.06273 0.67709 0.59086
 H2540 H 0.06186 0.63116 0.57478
 H2541 H 0.03947 0.71858 0.60065
 H2542 H -0.04283 0.72952 0.57834
 H2543 H -0.04386 0.60576 0.53023
 H2544 H 0.03692 0.59344 0.55641
 C2545 C 0.50393 0.17658 0.06385
 C2546 C 0.52743 0.18480 0.07598
 C2547 C 0.52791 0.20974 0.08778
 C2548 C 0.50427 0.22511 0.08952
 C2549 C 0.48243 0.21839 0.07387
 C2550 C 0.48175 0.19367 0.06175
 C2551 C 0.50187 0.14904 0.05470
 C2552 C 0.47784 0.14052 0.04369
 C2553 C 0.47537 0.11390 0.03646
 C2554 C 0.49655 0.09588 0.04047
 C2555 C 0.52060 0.10460 0.05130
 C2556 C 0.52345 0.13136 0.05831
 C2557 C 0.45852 0.18488 0.04948
 C2558 C 0.45660 0.15861 0.04054
 C2559 C 0.54926 0.16716 0.07778
 C2560 C 0.54725 0.14073 0.06916
 H2561 H 0.44137 0.19804 0.04768
 H2562 H 0.43811 0.15219 0.03179
 H2563 H 0.56757 0.17347 0.08693
 H2564 H 0.56416 0.12737 0.07158
 H2565 H 0.54615 0.21607 0.09697
 H2566 H 0.46482 0.23108 0.07358
 H2567 H 0.45686 0.10711 0.02796
 H2568 H 0.53707 0.09071 0.05390
 C2569 C -0.00350 0.19094 0.91356
 C2570 C 0.02062 0.20489 0.91327
 C2571 C 0.02351 0.22609 0.89649
 C2572 C 0.00279 0.23313 0.87942
 C2573 C -0.02196 0.21989 0.88147
 C2574 C -0.02493 0.19842 0.89791
 C2575 C -0.00616 0.16766 0.93010
 C2576 C -0.02989 0.15293 0.92942
 C2577 C -0.03135 0.12928 0.94322
 C2578 C -0.00929 0.12052 0.95750
 C2579 C 0.01368 0.13630 0.95940
 C2580 C 0.01553 0.15979 0.94535
 C2581 C -0.04884 0.18403 0.89869
 C2582 C -0.05123 0.16147 0.91410
 C2583 C 0.04158 0.19705 0.92941
 C2584 C 0.03907 0.17481 0.94524
 H2585 H -0.06557 0.18981 0.88678
 H2586 H -0.06968 0.15033 0.91363
 H2587 H 0.06023 0.20786 0.92942
 H2588 H 0.05587 0.16893 0.95701
 H2589 H 0.04210 0.23701 0.89628
 H2590 H -0.03924 0.22623 0.87070
 H2591 H -0.04917 0.11715 0.94207
 H2592 H 0.03072 0.12939 0.97037
 C2593 C 0.48915 0.68369 0.41552
 C2594 C 0.46698 0.69031 0.40045
 C2595 C 0.46899 0.71115 0.38314
 C2596 C 0.49350 0.72442 0.37964
 C2597 C 0.51498 0.71830 0.39615
 C2598 C 0.51305 0.69787 0.41382
 C2599 C 0.48757 0.66098 0.43284
 C2600 C 0.51004 0.65396 0.44745
 C2601 C 0.50927 0.63086 0.46210
 C2602 C 0.48662 0.61455 0.46137
 C2603 C 0.46378 0.62249 0.44780
 C2604 C 0.46413 0.64581 0.43344
 C2605 C 0.53478 0.69097 0.42940
 C2606 C 0.53328 0.66931 0.44602
 C2607 C 0.44336 0.67562 0.40260
 C2608 C 0.44202 0.65352 0.41873
 H2609 H 0.55325 0.70201 0.42831
 H2610 H 0.55066 0.66408 0.45730
 H2611 H 0.42606 0.68073 0.39116
 H2612 H 0.42378 0.64205 0.41926
 H2613 H 0.45123 0.71691 0.37279
 H2614 H 0.53346 0.72931 0.39480
 H2615 H 0.52689 0.62456 0.47255
 H2616 H 0.44622 0.60993 0.44760
 C2617 C 0.50585 0.81231 0.41553
 C2618 C 0.48143 0.79906 0.41328
 C2619 C 0.47874 0.77881 0.39531
 C2620 C 0.50001 0.77196 0.37906
 C2621 C 0.52487 0.78464 0.38284
 C2622 C 0.52768 0.80515 0.40052
 C2623 C 0.50845 0.83449 0.43352
 C2624 C 0.53252 0.84861 0.43480
 C2625 C 0.53390 0.87158 0.44972
 C2626 C 0.51138 0.88034 0.46306
 C2627 C 0.48810 0.86494 0.46325
 C2628 C 0.48634 0.84213 0.44807
 C2629 C 0.55189 0.81880 0.40329
 C2630 C 0.55422 0.84038 0.42006
 C2631 C 0.46005 0.80653 0.42881
 C2632 C 0.46247 0.82779 0.44597
 H2633 H 0.56893 0.81325 0.39191
 H2634 H 0.57293 0.85106 0.42110
 H2635 H 0.44117 0.79624 0.42732
 H2636 H 0.44535 0.83349 0.45717
 H2637 H 0.45999 0.76823 0.39381
 H2638 H 0.54244 0.77837 0.37268
 H2639 H 0.55191 0.88347 0.44987
 H2640 H 0.47072 0.87191 0.47348
 C2641 C 0.01325 0.32038 0.91821
 C2642 C 0.03555 0.31434 0.90340
 C2643 C 0.03375 0.29412 0.88526
 C2644 C 0.00936 0.28077 0.88080
 C2645 C -0.01235 0.28645 0.89693
 C2646 C -0.01063 0.30630 0.91537
 C2647 C 0.01470 0.34233 0.93657
 C2648 C -0.00789 0.34882 0.95094
 C2649 C -0.00725 0.37137 0.96654
 C2650 C 0.01538 0.38771 0.96691
 C2651 C 0.03835 0.38019 0.95362
 C2652 C 0.03814 0.35742 0.93836
 C2653 C -0.03250 0.31262 0.93072
 C2654 C -0.03115 0.33359 0.94829
 C2655 C 0.05916 0.32889 0.90673
 C2656 C 0.06038 0.35029 0.92384
 H2657 H -0.05096 0.30166 0.92875
 H2658 H -0.04864 0.33840 0.95934
 H2659 H 0.07657 0.32421 0.89551
 H2660 H 0.07863 0.36168 0.92530
 H2661 H 0.05164 0.28876 0.87517
 H2662 H -0.03075 0.27539 0.89485
 H2663 H -0.02501 0.37738 0.97671
 H2664 H 0.05582 0.39282 0.95412
 C2665 C 0.49843 0.32115 0.06423
 C2666 C 0.52126 0.30483 0.06349
 C2667 C 0.52109 0.28048 0.07618
 C2668 C 0.49879 0.27302 0.09058
 C2669 C 0.47491 0.28791 0.08796
 C2670 C 0.47498 0.31258 0.07583
 C2671 C 0.49956 0.34821 0.05387
 C2672 C 0.47732 0.36522 0.05630
 C2673 C 0.47932 0.39170 0.04845
 C2674 C 0.50305 0.40079 0.03769
 C2675 C 0.52479 0.38334 0.03444
 C2676 C 0.52330 0.35703 0.04287
 C2677 C 0.45254 0.32948 0.07643
 C2678 C 0.45378 0.35557 0.06699
 C2679 C 0.54432 0.31391 0.05147
 C2680 C 0.54529 0.33965 0.04120
 H2681 H 0.43429 0.32291 0.08522
 H2682 H 0.43640 0.36843 0.06855
 H2683 H 0.56196 0.30133 0.05067
 H2684 H 0.56362 0.34628 0.03258
 H2685 H 0.53901 0.26824 0.07665
 H2686 H 0.45651 0.28118 0.09626
 H2687 H 0.46253 0.40522 0.05068
 H2688 H 0.54308 0.39048 0.02609
 C2689 C -0.00486 0.82149 0.56490
 C2690 C 0.01704 0.80394 0.56437
 C2691 C 0.01530 0.77961 0.57691
 C2692 C -0.00749 0.77364 0.59125
 C2693 C -0.03069 0.78936 0.58783
 C2694 C -0.02909 0.81403 0.57580
 C2695 C -0.00179 0.84873 0.55544
 C2696 C -0.02308 0.86694 0.55774
 C2697 C -0.01935 0.89342 0.55048
 C2698 C 0.00518 0.90133 0.54047
 C2699 C 0.02611 0.88281 0.53775
 C2700 C 0.02282 0.85646 0.54546
 C2701 C -0.05054 0.83219 0.57624
 C2702 C -0.04750 0.85839 0.56750
 C2703 C 0.04097 0.81193 0.55322
 C2704 C 0.04379 0.83787 0.54380
 H2705 H -0.06938 0.82650 0.58446
 H2706 H -0.06415 0.87221 0.56894
 H2707 H 0.05790 0.79839 0.55261
 H2708 H 0.06275 0.84365 0.53589
 H2709 H 0.03268 0.76665 0.57794
 H2710 H -0.04947 0.78359 0.59603
 H2711 H -0.03557 0.90771 0.55222
 H2712 H 0.04499 0.88899 0.52990
 C2713 C 0.26778 0.31241 0.07195
 C2714 C 0.27793 0.33837 0.07068
 C2715 C 0.27443 0.35314 0.04852
 C2716 C 0.26280 0.34183 0.02641
 C2717 C 0.25056 0.31645 0.02891
 C2718 C 0.25354 0.30143 0.05148
 C2719 C 0.27122 0.29695 0.09563
 C2720 C 0.25981 0.27145 0.09771
 C2721 C 0.26168 0.25768 0.12104
 C2722 C 0.27472 0.26959 0.14196
 C2723 C 0.28681 0.29468 0.13904
 C2724 C 0.28489 0.30856 0.11614
 C2725 C 0.24266 0.27569 0.05414
 C2726 C 0.24570 0.26102 0.07680
 C2727 C 0.29160 0.34920 0.09158
 C2728 C 0.29517 0.33448 0.11386
 H2729 H 0.23158 0.26682 0.03860
 H2730 H 0.23666 0.24145 0.07803
 H2731 H 0.29962 0.36925 0.09069
 H2732 H 0.30563 0.34368 0.12961
 H2733 H 0.28153 0.37356 0.04843
 H2734 H 0.23883 0.30833 0.01346
 H2735 H 0.25160 0.23875 0.12341
 H2736 H 0.29626 0.30417 0.15524
 C2737 C 0.77222 0.81541 0.58107
 C2738 C 0.76769 0.80007 0.55922
 C2739 C 0.76438 0.81307 0.53570
 C2740 C 0.76479 0.84147 0.53404
 C2741 C 0.76900 0.85617 0.55667
 C2742 C 0.77303 0.84341 0.57990
 C2743 C 0.77578 0.80198 0.60579
 C2744 C 0.78022 0.81759 0.62747
 C2745 C 0.78196 0.80513 0.65104
 C2746 C 0.77833 0.77730 0.65349
 C2747 C 0.77509 0.76157 0.63148
 C2748 C 0.77376 0.77396 0.60744
 C2749 C 0.77791 0.85825 0.60202
 C2750 C 0.78158 0.84555 0.62539
 C2751 C 0.76658 0.77200 0.56142
 C2752 C 0.76935 0.75923 0.58508
 H2753 H 0.77875 0.87990 0.60129
 H2754 H 0.78497 0.85777 0.64206
 H2755 H 0.76315 0.75980 0.54475
 H2756 H 0.76778 0.73764 0.58588
 H2757 H 0.76178 0.80086 0.51899
 H2758 H 0.76950 0.87785 0.55597
 H2759 H 0.78458 0.81738 0.66785
 H2760 H 0.77200 0.74021 0.63318
 C2761 C 0.22619 0.68430 0.57456
 C2762 C 0.22946 0.69946 0.55252
 C2763 C 0.23341 0.68617 0.52915
 C2764 C 0.23524 0.65779 0.52803
 C2765 C 0.23281 0.64341 0.55095
 C2766 C 0.22766 0.65630 0.57384
 C2767 C 0.22146 0.69790 0.59902
 C2768 C 0.21773 0.68238 0.62074
 C2769 C 0.21468 0.69506 0.64407
 C2770 C 0.21687 0.72307 0.64643
 C2771 C 0.21943 0.73867 0.62435
 C2772 C 0.22161 0.72601 0.60041
 C2773 C 0.22365 0.64154 0.59600
 C2774 C 0.21850 0.65436 0.61903
 C2775 C 0.22856 0.72759 0.55441
 C2776 C 0.22504 0.74060 0.57793
 H2777 H 0.22450 0.61987 0.59556
 H2778 H 0.21573 0.64223 0.63576
 H2779 H 0.23103 0.73969 0.53763
 H2780 H 0.22514 0.76227 0.57851
 H2781 H 0.23463 0.69804 0.51216
 H2782 H 0.23412 0.62174 0.55067
 H2783 H 0.21241 0.68285 0.66085
 H2784 H 0.22129 0.76020 0.62593
 C2785 C 0.72810 0.18286 0.07710
 C2786 C 0.72959 0.15486 0.07598
 C2787 C 0.73341 0.14223 0.05266
 C2788 C 0.73511 0.15700 0.02991
 C2789 C 0.73303 0.18535 0.03147
 C2790 C 0.73002 0.19830 0.05509
 C2791 C 0.72475 0.19619 0.10192
 C2792 C 0.72445 0.22430 0.10350
 C2793 C 0.72324 0.23677 0.12759
 C2794 C 0.72233 0.22100 0.14968
 C2795 C 0.72094 0.19292 0.14728
 C2796 C 0.72269 0.18045 0.12370
 C2797 C 0.72884 0.22640 0.05725
 C2798 C 0.72634 0.23914 0.08100
 C2799 C 0.72714 0.13986 0.09824
 C2800 C 0.72358 0.15244 0.12168
 H2801 H 0.73024 0.23869 0.04047
 H2802 H 0.72608 0.26081 0.08174
 H2803 H 0.72807 0.11820 0.09755
 H2804 H 0.72204 0.14013 0.13845
 H2805 H 0.73468 0.12057 0.05199
 H2806 H 0.73336 0.19748 0.01460
 H2807 H 0.72446 0.25835 0.12919
 H2808 H 0.71992 0.18057 0.16409
 C2809 C 0.74256 0.18476 0.93357
 C2810 C 0.71983 0.16938 0.93816
 C2811 C 0.71705 0.15654 0.96144
 C2812 C 0.73654 0.15908 0.98082
 C2813 C 0.75875 0.17583 0.97600
 C2814 C 0.76204 0.18830 0.95236
 C2815 C 0.74661 0.19620 0.90814
 C2816 C 0.77002 0.21044 0.90282
 C2817 C 0.77432 0.21989 0.87793
 C2818 C 0.75538 0.21455 0.85873
 C2819 C 0.73169 0.20119 0.86499
 C2820 C 0.72732 0.19176 0.88935
 C2821 C 0.78490 0.20330 0.94669
 C2822 C 0.78884 0.21413 0.92238
 C2823 C 0.70070 0.16605 0.91892
 C2824 C 0.70432 0.17717 0.89496
 H2825 H 0.80016 0.20624 0.96102
 H2826 H 0.80697 0.22508 0.91878
 H2827 H 0.68299 0.15432 0.92227
 H2828 H 0.68928 0.17375 0.88050
 H2829 H 0.70017 0.14347 0.96345
 H2830 H 0.77421 0.17793 0.99029
 H2831 H 0.79251 0.23032 0.87335
 H2832 H 0.71662 0.19761 0.85059
 C2833 C 0.23921 0.68455 0.43127
 C2834 C 0.25983 0.68792 0.44896
 C2835 C 0.25803 0.67528 0.47275
 C2836 C 0.23610 0.65858 0.47875
 C2837 C 0.21568 0.65587 0.46024
 C2838 C 0.21694 0.66896 0.43696
 C2839 C 0.24142 0.69653 0.40581
 C2840 C 0.22087 0.69241 0.38818
 C2841 C 0.22342 0.70243 0.36377
 C2842 C 0.24658 0.71598 0.35620
 C2843 C 0.26684 0.72092 0.37429
 C2844 C 0.26434 0.71098 0.39927
 C2845 C 0.19658 0.66583 0.41885
 C2846 C 0.19843 0.67751 0.39493
 C2847 C 0.28218 0.70313 0.44210
 C2848 C 0.28443 0.71437 0.41772
 H2849 H 0.17920 0.65393 0.42308
 H2850 H 0.18244 0.67429 0.38138
 H2851 H 0.29834 0.70596 0.45553
 H2852 H 0.30223 0.72547 0.41318
 H2853 H 0.27422 0.67744 0.48627
 H2854 H 0.19901 0.64271 0.46296
 H2855 H 0.20739 0.69903 0.35030
 H2856 H 0.28469 0.73140 0.36874
 C2857 C 0.75764 0.80983 0.43908
 C2858 C 0.73625 0.81030 0.45592
 C2859 C 0.73910 0.82389 0.47917
 C2860 C 0.76269 0.83833 0.48521
 C2861 C 0.78398 0.83688 0.46778
 C2862 C 0.78170 0.82251 0.44515
 C2863 C 0.75441 0.79705 0.41401
 C2864 C 0.77582 0.79730 0.39717
 C2865 C 0.77230 0.78705 0.37287
 C2866 C 0.74738 0.77743 0.36467
 C2867 C 0.72620 0.77608 0.38197
 C2868 C 0.72969 0.78606 0.40688
 C2869 C 0.80287 0.82160 0.42796
 C2870 C 0.80004 0.80902 0.40443
 C2871 C 0.71212 0.79812 0.44866
 C2872 C 0.70884 0.78639 0.42453
 H2873 H 0.82163 0.83115 0.43252
 H2874 H 0.81669 0.80922 0.39150
 H2875 H 0.69537 0.79832 0.46147
 H2876 H 0.68969 0.77794 0.41952
 H2877 H 0.72244 0.82446 0.49208
 H2878 H 0.80228 0.84761 0.47080
 H2879 H 0.78881 0.78772 0.35976
 H2880 H 0.70697 0.76869 0.37576
 C2881 C 0.25718 0.32087 0.92736
 C2882 C 0.26505 0.30478 0.94788
 C2883 C 0.26855 0.31661 0.97206
 C2884 C 0.26314 0.34424 0.97579
 C2885 C 0.25765 0.36001 0.95409
 C2886 C 0.25389 0.34853 0.93030
 C2887 C 0.25268 0.30871 0.90216
 C2888 C 0.24505 0.32517 0.88184
 C2889 C 0.24194 0.31397 0.85777
 C2890 C 0.24691 0.28659 0.85351
 C2891 C 0.25366 0.26999 0.87420
 C2892 C 0.25674 0.28111 0.89869
 C2893 C 0.24617 0.36427 0.90951
 C2894 C 0.24173 0.35277 0.88570
 C2895 C 0.26883 0.27716 0.94374
 C2896 C 0.26478 0.26557 0.91963
 H2897 H 0.24344 0.38568 0.91170
 H2898 H 0.23594 0.36564 0.87011
 H2899 H 0.27492 0.26437 0.95927
 H2900 H 0.26813 0.24427 0.91734
 H2901 H 0.27530 0.30425 0.98759
 H2902 H 0.25454 0.38138 0.95614
 H2903 H 0.23690 0.32688 0.84194
 H2904 H 0.25804 0.24899 0.87099
 C2905 C 0.84433 0.41769 0.76581
 C2906 C 0.87199 0.41619 0.76906
 C2907 C 0.88729 0.43921 0.76549
 C2908 C 0.87546 0.46442 0.75952
 C2909 C 0.84729 0.46539 0.75695
 C2910 C 0.83183 0.44201 0.75949
 C2911 C 0.82822 0.39316 0.76880
 C2912 C 0.80067 0.39421 0.76412
 C2913 C 0.78577 0.37043 0.76527
 C2914 C 0.79815 0.34594 0.77182
 C2915 C 0.82559 0.34552 0.77749
 C2916 C 0.84082 0.36897 0.77554
 C2917 C 0.80403 0.44238 0.75575
 C2918 C 0.78880 0.41889 0.75773
 C2919 C 0.88389 0.39166 0.77586
 C2920 C 0.86857 0.36852 0.77923
 H2921 H 0.79398 0.46092 0.75084
 H2922 H 0.76755 0.42007 0.75416
 H2923 H 0.90527 0.39032 0.77859
 H2924 H 0.87860 0.35003 0.78435
 H2925 H 0.90874 0.43768 0.76763
 H2926 H 0.83708 0.48402 0.75314
 H2927 H 0.76472 0.37079 0.76052
 H2928 H 0.83535 0.32665 0.78178
 C2929 C 0.34246 0.91340 0.25876
 C2930 C 0.33043 0.93801 0.25265
 C2931 C 0.34638 0.96098 0.24993
 C2932 C 0.37457 0.95940 0.25208
 C2933 C 0.38592 0.93396 0.25796
 C2934 C 0.37012 0.91126 0.26165
 C2935 C 0.32577 0.88931 0.26201
 C2936 C 0.33785 0.86480 0.26858
 C2937 C 0.32201 0.84178 0.27084
 C2938 C 0.29446 0.84300 0.26572
 C2939 C 0.28264 0.86779 0.25935
 C2940 C 0.29816 0.89110 0.25784
 C2941 C 0.38150 0.88643 0.26829
 C2942 C 0.36565 0.86367 0.27186
 C2943 C 0.30259 0.93912 0.24939
 C2944 C 0.28681 0.91607 0.25164
 H2945 H 0.40288 0.88456 0.27074
 H2946 H 0.37529 0.84493 0.27686
 H2947 H 0.29293 0.95792 0.24466
 H2948 H 0.26552 0.91781 0.24847
 H2949 H 0.33645 0.97983 0.24645
 H2950 H 0.40736 0.93202 0.25998
 H2951 H 0.33131 0.82266 0.27504
 H2952 H 0.26150 0.86873 0.25504
 C2953 C 0.14499 0.93578 0.74195
 C2954 C 0.12991 0.94192 0.76342
 C2955 C 0.11851 0.96742 0.76598
 C2956 C 0.12225 0.98768 0.74754
 C2957 C 0.13724 0.98061 0.72573
 C2958 C 0.14877 0.95488 0.72299
 C2959 C 0.15688 0.90870 0.73930
 C2960 C 0.17214 0.90229 0.71788
 C2961 C 0.18426 0.87664 0.71609
 C2962 C 0.18130 0.85794 0.73584
 C2963 C 0.16515 0.86469 0.75664
 C2964 C 0.15303 0.88987 0.75852
 C2965 C 0.16388 0.94770 0.70162
 C2966 C 0.17538 0.92196 0.69915
 C2967 C 0.12619 0.92227 0.78201
 C2968 C 0.13761 0.89675 0.77964
 H2969 H 0.16698 0.96216 0.68672
 H2970 H 0.18705 0.91750 0.68249
 H2971 H 0.11449 0.92673 0.79866
 H2972 H 0.13448 0.88231 0.79457
 H2973 H 0.10605 0.97069 0.78225
 H2974 H 0.13962 0.99517 0.71077
 H2975 H 0.19681 0.87174 0.70011
 H2976 H 0.16258 0.85040 0.77181
 C2977 C 0.64411 0.43119 0.24692
 C2978 C 0.64780 0.45059 0.22821
 C2979 C 0.63600 0.47616 0.23121
 C2980 C 0.62088 0.48281 0.25306
 C2981 C 0.61737 0.46230 0.27129
 C2982 C 0.62895 0.43691 0.26843
 C2983 C 0.65619 0.40423 0.24394
 C2984 C 0.65235 0.38507 0.26286
 C2985 C 0.66467 0.36001 0.26069
 C2986 C 0.68112 0.35375 0.23997
 C2987 C 0.68405 0.37278 0.22049
 C2988 C 0.67164 0.39827 0.22253
 C2989 C 0.62528 0.41696 0.28673
 C2990 C 0.63681 0.39152 0.28402
 C2991 C 0.66306 0.44384 0.20682
 C2992 C 0.67482 0.41825 0.20408
 H2993 H 0.61350 0.42108 0.30340
 H2994 H 0.63371 0.37684 0.29873
 H2995 H 0.66610 0.45854 0.19210
 H2996 H 0.68662 0.41413 0.18742
 H2997 H 0.63821 0.49090 0.21638
 H2998 H 0.60490 0.46526 0.28761
 H2999 H 0.66210 0.34548 0.27567
 H3000 H 0.69682 0.36827 0.20458
 C3001 C 0.65606 0.58148 0.26272
 C3002 C 0.66817 0.55704 0.25622
 C3003 C 0.65240 0.53386 0.25359
 C3004 C 0.62427 0.53513 0.25615
 C3005 C 0.61284 0.56043 0.26237
 C3006 C 0.62849 0.58328 0.26607
 C3007 C 0.67255 0.60577 0.26593
 C3008 C 0.66040 0.63004 0.27304
 C3009 C 0.67602 0.65320 0.27549
 C3010 C 0.70340 0.65241 0.26992
 C3011 C 0.71531 0.62788 0.26285
 C3012 C 0.70002 0.60437 0.26126
 C3013 C 0.61702 0.60792 0.27315
 C3014 C 0.63271 0.63082 0.27678
 C3015 C 0.69590 0.55631 0.25245
 C3016 C 0.71146 0.57958 0.25461
 H3017 H 0.59571 0.60951 0.27595
 H3018 H 0.62303 0.64940 0.28219
 H3019 H 0.70563 0.53766 0.24739
 H3020 H 0.73265 0.57813 0.25107
 H3021 H 0.66242 0.51515 0.24979
 H3022 H 0.59144 0.56219 0.26460
 H3023 H 0.66666 0.67212 0.28030
 H3024 H 0.73633 0.62725 0.25830
 C3025 C 0.15940 0.08555 0.75684
 C3026 C 0.13182 0.08802 0.75982
 C3027 C 0.11571 0.06551 0.75614
 C3028 C 0.12666 0.03990 0.75028
 C3029 C 0.15478 0.03796 0.74805
 C3030 C 0.17104 0.06078 0.75068
 C3031 C 0.17641 0.10947 0.76006
 C3032 C 0.20390 0.10738 0.75574
 C3033 C 0.21969 0.13054 0.75723
 C3034 C 0.20824 0.15544 0.76380
 C3035 C 0.18083 0.15694 0.76908
 C3036 C 0.16471 0.13410 0.76676
 C3037 C 0.19880 0.05936 0.74729
 C3038 C 0.21487 0.08227 0.74946
 C3039 C 0.12083 0.11299 0.76654
 C3040 C 0.13700 0.13557 0.77014
 H3041 H 0.20817 0.04044 0.74251
 H3042 H 0.23607 0.08029 0.74618
 H3043 H 0.09952 0.11510 0.76906
 H3044 H 0.12767 0.15442 0.77524
 H3045 H 0.09433 0.06775 0.75815
 H3046 H 0.16442 0.01899 0.74454
 H3047 H 0.24073 0.12938 0.75285
 H3048 H 0.17182 0.17615 0.77346
 C3049 C 0.35391 0.06276 0.24244
 C3050 C 0.36916 0.05738 0.26418
 C3051 C 0.38130 0.03222 0.26713
 C3052 C 0.37812 0.01159 0.24881
 C3053 C 0.36294 0.01791 0.22673
 C3054 C 0.35069 0.04326 0.22359
 C3055 C 0.34120 0.08945 0.23938
 C3056 C 0.32579 0.09510 0.21768
 C3057 C 0.31297 0.12039 0.21544
 C3058 C 0.31536 0.13952 0.23505
 C3059 C 0.33164 0.13350 0.25618
 C3060 C 0.34447 0.10868 0.25849
 C3061 C 0.33538 0.04967 0.20195
 C3062 C 0.32315 0.07503 0.19907
 C3063 C 0.37226 0.07742 0.28266
 C3064 C 0.36007 0.10257 0.27990
 H3065 H 0.33271 0.03490 0.18712
 H3066 H 0.31139 0.07889 0.18219
 H3067 H 0.38407 0.07358 0.29952
 H3068 H 0.36276 0.11732 0.29475
 H3069 H 0.39379 0.02947 0.28364
 H3070 H 0.36089 0.00303 0.21190
 H3071 H 0.30038 0.12469 0.19919
 H3072 H 0.33387 0.14811 0.27125
 C3073 C 0.85466 0.56839 0.75175
 C3074 C 0.86984 0.56233 0.77335
 C3075 C 0.88179 0.53704 0.77568
 C3076 C 0.87850 0.51685 0.75691
 C3077 C 0.86319 0.52378 0.73507
 C3078 C 0.85121 0.54936 0.73249
 C3079 C 0.84236 0.59533 0.74925
 C3080 C 0.82715 0.60173 0.72762
 C3081 C 0.81481 0.62729 0.72586
 C3082 C 0.81743 0.64594 0.74588
 C3083 C 0.83343 0.63914 0.76698
 C3084 C 0.84585 0.61406 0.76879
 C3085 C 0.83603 0.55651 0.71097
 C3086 C 0.82422 0.58214 0.70860
 C3087 C 0.87315 0.58186 0.79228
 C3088 C 0.86129 0.60722 0.79008
 H3089 H 0.83317 0.54214 0.69583
 H3090 H 0.81259 0.58659 0.69177
 H3091 H 0.88492 0.57747 0.80905
 H3092 H 0.86415 0.62156 0.80526
 H3093 H 0.89430 0.53392 0.79211
 H3094 H 0.86100 0.50929 0.71991
 H3095 H 0.80241 0.63220 0.70964
 H3096 H 0.83579 0.65335 0.78237
 C3097 C 0.93087 0.76117 0.17146
 C3098 C 0.93613 0.78393 0.15690
 C3099 C 0.95562 0.78252 0.13828
 C3100 C 0.96908 0.75815 0.13323
 C3101 C 0.96428 0.73600 0.14915
 C3102 C 0.94506 0.73726 0.16794
 C3103 C 0.90952 0.76214 0.19017
 C3104 C 0.90359 0.73900 0.20405
 C3105 C 0.88132 0.73911 0.21969
 C3106 C 0.86479 0.76181 0.22062
 C3107 C 0.87198 0.78542 0.20811
 C3108 C 0.89433 0.78566 0.19267
 C3109 C 0.93946 0.71489 0.18294
 C3110 C 0.91897 0.71573 0.20074
 C3111 C 0.92152 0.80758 0.16097
 C3112 C 0.90078 0.80839 0.17851
 H3113 H 0.95053 0.69639 0.18044
 H3114 H 0.91462 0.69784 0.21143
 H3115 H 0.92562 0.82534 0.14998
 H3116 H 0.88927 0.82668 0.18050
 H3117 H 0.96038 0.80066 0.12825
 H3118 H 0.97550 0.71760 0.14661
 H3119 H 0.87560 0.72092 0.22932
 H3120 H 0.85924 0.80301 0.20918
 C3121 C 0.44146 0.25556 0.66609
 C3122 C 0.45578 0.23148 0.66427
 C3123 C 0.47651 0.22957 0.64697
 C3124 C 0.48253 0.25117 0.63079
 C3125 C 0.46910 0.27584 0.63451
 C3126 C 0.44816 0.27789 0.65154
 C3127 C 0.41850 0.25717 0.68296
 C3128 C 0.40333 0.28086 0.68372
 C3129 C 0.37988 0.28134 0.69762
 C3130 C 0.37169 0.25835 0.71054
 C3131 C 0.38792 0.23538 0.71112
 C3132 C 0.41126 0.23452 0.69695
 C3133 C 0.43343 0.30173 0.65385
 C3134 C 0.41119 0.30314 0.66960
 C3135 C 0.44868 0.20958 0.67929
 C3136 C 0.42670 0.21107 0.69541
 H3137 H 0.43862 0.31915 0.64281
 H3138 H 0.39971 0.32157 0.67027
 H3139 H 0.45979 0.19096 0.67812
 H3140 H 0.42134 0.19354 0.70622
 H3141 H 0.48768 0.21099 0.64550
 H3142 H 0.47480 0.29369 0.62447
 H3143 H 0.36740 0.29915 0.69755
 H3144 H 0.38145 0.21765 0.72108
 C3145 C 0.42530 0.74385 0.81096
 C3146 C 0.43354 0.72041 0.82335
 C3147 C 0.45834 0.71992 0.83530
 C3148 C 0.47343 0.74360 0.83719
 C3149 C 0.46652 0.76551 0.82164
 C3150 C 0.44212 0.76604 0.80903
 C3151 C 0.39797 0.74589 0.80144
 C3152 C 0.38945 0.76977 0.78992
 C3153 C 0.36294 0.77231 0.78245
 C3154 C 0.34501 0.75152 0.78717
 C3155 C 0.35372 0.72767 0.79854
 C3156 C 0.38040 0.72456 0.80540
 C3157 C 0.43338 0.78911 0.79633
 C3158 C 0.40738 0.79091 0.78677
 C3159 C 0.41607 0.69870 0.82526
 C3160 C 0.38973 0.70085 0.81661
 H3161 H 0.44637 0.80623 0.79460
 H3162 H 0.40098 0.80929 0.77769
 H3163 H 0.42238 0.68045 0.83463
 H3164 H 0.37641 0.68412 0.81928
 H3165 H 0.46477 0.70165 0.84446
 H3166 H 0.47895 0.78317 0.82152
 H3167 H 0.35609 0.79068 0.77360
 H3168 H 0.33979 0.71161 0.80191
 C3169 C 0.92854 0.25005 0.31554
 C3170 C 0.94402 0.27333 0.31511
 C3171 C 0.96913 0.27291 0.32651
 C3172 C 0.97782 0.25001 0.33982
 C3173 C 0.96381 0.22581 0.33643
 C3174 C 0.93861 0.22599 0.32537
 C3175 C 0.90086 0.25123 0.30683
 C3176 C 0.88493 0.22829 0.30866
 C3177 C 0.85809 0.23002 0.30191
 C3178 C 0.84755 0.25433 0.29310
 C3179 C 0.86378 0.27695 0.29077
 C3180 C 0.89051 0.27558 0.29782
 C3181 C 0.92264 0.20303 0.32554
 C3182 C 0.89607 0.20420 0.31742
 C3183 C 0.93337 0.29704 0.30499
 C3184 C 0.90694 0.29814 0.29642
 H3185 H 0.93040 0.18433 0.33296
 H3186 H 0.88403 0.18633 0.31852
 H3187 H 0.94524 0.31506 0.30448
 H3188 H 0.89911 0.31693 0.28927
 H3189 H 0.98078 0.29109 0.32735
 H3190 H 0.97157 0.20706 0.34364
 H3191 H 0.84555 0.21246 0.30303
 H3192 H 0.85550 0.29562 0.28375
 C3193 C 0.07262 0.25550 0.31160
 C3194 C 0.06530 0.27850 0.32520
 C3195 C 0.04099 0.27888 0.33775
 C3196 C 0.02546 0.25545 0.33880
 C3197 C 0.03143 0.23413 0.32218
 C3198 C 0.05533 0.23371 0.30910
 C3199 C 0.09950 0.25343 0.30131
 C3200 C 0.10714 0.22987 0.28869
 C3201 C 0.13330 0.22714 0.28061
 C3202 C 0.15181 0.24745 0.28566
 C3203 C 0.14390 0.27110 0.29795
 C3204 C 0.11757 0.27433 0.30562
 C3205 C 0.06315 0.21103 0.29527
 C3206 C 0.08873 0.20917 0.28511
 C3207 C 0.08321 0.29985 0.32753
 C3208 C 0.10910 0.29770 0.31804
 H3209 H 0.04979 0.19422 0.29311
 H3210 H 0.09444 0.19105 0.27518
 H3211 H 0.07761 0.31779 0.33782
 H3212 H 0.12278 0.31413 0.32102
 H3213 H 0.03527 0.29684 0.34784
 H3214 H 0.01868 0.21671 0.32150
 H3215 H 0.13946 0.20893 0.27104
 H3216 H 0.15818 0.28687 0.30153
 C3217 C 0.57014 0.75050 0.81437
 C3218 C 0.55474 0.72718 0.81285
 C3219 C 0.52965 0.72712 0.82389
 C3220 C 0.52101 0.74945 0.83801
 C3221 C 0.53476 0.77388 0.83552
 C3222 C 0.55994 0.77420 0.82481
 C3223 C 0.59793 0.74961 0.80639
 C3224 C 0.61382 0.77248 0.80945
 C3225 C 0.64078 0.77094 0.80348
 C3226 C 0.65147 0.74687 0.79430
 C3227 C 0.63528 0.72432 0.79083
 C3228 C 0.60844 0.72551 0.79700
 C3229 C 0.57584 0.79717 0.82613
 C3230 C 0.60251 0.79628 0.81866
 C3231 C 0.56554 0.70381 0.80223
 C3232 C 0.59208 0.70299 0.79438
 H3233 H 0.56798 0.81561 0.83403
 H3234 H 0.61452 0.81412 0.82071
 H3235 H 0.55373 0.68578 0.80087
 H3236 H 0.60005 0.68442 0.78689
 H3237 H 0.51812 0.70884 0.82400
 H3238 H 0.52692 0.79230 0.84337
 H3239 H 0.65329 0.78845 0.80552
 H3240 H 0.64367 0.70580 0.78356
 C3241 C 0.57153 0.24051 0.66560
 C3242 C 0.55691 0.26443 0.66418
 C3243 C 0.53620 0.26649 0.64665
 C3244 C 0.53008 0.24505 0.63010
 C3245 C 0.54404 0.22057 0.63314
 C3246 C 0.56518 0.21847 0.65029
 C3247 C 0.59427 0.23871 0.68304
 C3248 C 0.60979 0.21524 0.68345
 C3249 C 0.63301 0.21467 0.69807
 C3250 C 0.64044 0.23729 0.71220
 C3251 C 0.62383 0.25996 0.71304
 C3252 C 0.60087 0.26098 0.69806
 C3253 C 0.58031 0.19481 0.65218
 C3254 C 0.60246 0.19330 0.66838
 C3255 C 0.56352 0.28600 0.68005
 C3256 C 0.58518 0.28428 0.69680
 H3257 H 0.57543 0.17761 0.64055
 H3258 H 0.61419 0.17502 0.66877
 H3259 H 0.55215 0.30449 0.67918
 H3260 H 0.59009 0.30153 0.70836
 H3261 H 0.52478 0.28495 0.64562
 H3262 H 0.53849 0.20284 0.62267
 H3263 H 0.64585 0.19715 0.69767
 H3264 H 0.62977 0.27744 0.72386
 C3265 C 0.05968 0.74718 0.16469
 C3266 C 0.04525 0.77127 0.16413
 C3267 C 0.02359 0.77364 0.14766
 C3268 C 0.01652 0.75244 0.13119
 C3269 C 0.03031 0.72777 0.13349
 C3270 C 0.05225 0.72530 0.14963
 C3271 C 0.08332 0.74501 0.18098
 C3272 C 0.09843 0.72127 0.18068
 C3273 C 0.12218 0.72014 0.19446
 C3274 C 0.13066 0.74252 0.20840
 C3275 C 0.11462 0.76560 0.20977
 C3276 C 0.09102 0.76710 0.19574
 C3277 C 0.06713 0.70144 0.15070
 C3278 C 0.09002 0.69951 0.16588
 C3279 C 0.05302 0.79268 0.17970
 C3280 C 0.07560 0.79062 0.19531
 H3281 H 0.06142 0.68437 0.13923
 H3282 H 0.10145 0.68105 0.16570
 H3283 H 0.04185 0.81130 0.17948
 H3284 H 0.08135 0.80774 0.20669
 H3285 H 0.01232 0.79222 0.14722
 H3286 H 0.02405 0.71019 0.12314
 H3287 H 0.13448 0.70223 0.19373
 H3288 H 0.12129 0.78288 0.22048
   
