data_POSCAR
  _audit_creation_date              2014-09-24
  _audit_creation_method            'ToBaCCo'
  _symmetry_space_group_name_H-M    'P1'
  _symmetry_Int_Tables_number       1
  _symmetry_cell_setting            triclinic
  loop_
  _symmetry_equiv_pos_as_xyz
 x,y,z
_cell_length_a 59.7716
_cell_length_b 59.8635
_cell_length_c 59.7531
_cell_angle_alpha 88.731700
_cell_angle_beta 89.465900
_cell_angle_gamma 89.244200
loop_
  _atom_site_label
  _atom_site_type_symbol
  _atom_site_fract_x
  _atom_site_fract_y
  _atom_site_fract_z
C1 C 0.11230 -0.00428 0.23107
 C2 C 0.12648 0.01674 0.23065
 C3 C 0.14035 0.01816 0.24844
 C4 C 0.13893 -0.00169 0.26518
 C5 C 0.12904 -0.02376 0.23292
 C6 C 0.14291 -0.02243 0.25082
 C7 C 0.09992 -0.00411 0.25365
 C8 C 0.11394 -0.00278 0.27148
 H9 H 0.12485 0.02997 0.21797
 H10 H 0.15036 -0.00056 0.27966
 H11 H 0.12913 -0.03791 0.22182
 H12 H 0.08185 -0.00508 0.25540
 C13 C 0.39035 0.00035 0.73177
 C14 C 0.37463 -0.01956 0.73176
 C15 C 0.36074 -0.02066 0.74990
 C16 C 0.36381 -0.00154 0.76649
 C17 C 0.37494 0.02088 0.73370
 C18 C 0.36108 0.01997 0.75198
 C19 C 0.40222 -0.00134 0.75286
 C20 C 0.38754 -0.00231 0.77196
 H21 H 0.37512 -0.03224 0.71900
 H22 H 0.35232 -0.00244 0.78123
 H23 H 0.37621 0.03557 0.72276
 H24 H 0.42029 -0.00013 0.75419
 C25 C 0.88737 0.50083 0.22963
 C26 C 0.87200 0.48072 0.23054
 C27 C 0.85854 0.47983 0.24896
 C28 C 0.86156 0.49936 0.26501
 C29 C 0.87186 0.52123 0.23159
 C30 C 0.85846 0.52056 0.25019
 C31 C 0.90034 0.49970 0.25166
 C32 C 0.88675 0.49903 0.27018
 H33 H 0.87240 0.46773 0.21810
 H34 H 0.85045 0.49864 0.28001
 H35 H 0.87296 0.53584 0.22052
 H36 H 0.91843 0.50081 0.25257
 C37 C 0.61305 0.49767 0.73024
 C38 C 0.62769 0.51838 0.72981
 C39 C 0.64151 0.51957 0.74766
 C40 C 0.63962 0.49979 0.76445
 C41 C 0.62936 0.47784 0.73221
 C42 C 0.64320 0.47892 0.75016
 C43 C 0.60060 0.49819 0.75278
 C44 C 0.61459 0.49926 0.77065
 H45 H 0.62620 0.53171 0.71723
 H46 H 0.65103 0.50072 0.77897
 H47 H 0.62918 0.46368 0.72115
 H48 H 0.58250 0.49753 0.75447
 C49 C 0.22811 0.11263 0.99887
 C50 C 0.22808 0.12766 1.01915
 C51 C 0.24632 0.14086 1.02025
 C52 C 0.26314 0.13797 1.00086
 C53 C 0.23069 0.12846 0.97858
 C54 C 0.24908 0.14166 0.97962
 C55 C 0.25022 0.09942 1.00013
 C56 C 0.26853 0.11275 1.00111
 H57 H 0.21515 0.12725 1.03207
 H58 H 0.27802 0.14884 1.00176
 H59 H 0.21983 0.12824 0.96410
 H60 H 0.25135 0.08131 0.99961
 C61 C 0.73074 0.38414 0.99977
 C62 C 0.73161 0.36905 0.98109
 C63 C 0.75147 0.35549 0.98058
 C64 C 0.76681 0.35953 0.99906
 C65 C 0.73327 0.37008 1.01978
 C66 C 0.75322 0.35651 1.01947
 C67 C 0.75114 0.39725 0.99808
 C68 C 0.77110 0.38358 0.99773
 H69 H 0.71937 0.36921 0.96770
 H70 H 0.78217 0.34882 0.99869
 H71 H 0.72252 0.37135 1.03451
 H72 H 0.75143 0.41540 0.99853
 C73 C 0.23140 0.88899 0.49894
 C74 C 0.23290 0.87310 0.47940
 C75 C 0.25174 0.86017 0.47925
 C76 C 0.26762 0.86420 0.49893
 C77 C 0.23384 0.87412 0.51995
 C78 C 0.25284 0.86124 0.52006
 C79 C 0.25301 0.90256 0.49765
 C80 C 0.27199 0.88952 0.49772
 H81 H 0.22045 0.87270 0.46626
 H82 H 0.28298 0.85352 0.49886
 H83 H 0.22260 0.87515 0.53431
 H84 H 0.25331 0.92069 0.49783
 C85 C 0.73035 0.61299 0.49920
 C86 C 0.73032 0.62790 0.51958
 C87 C 0.74849 0.64119 0.52067
 C88 C 0.76525 0.63851 0.50120
 C89 C 0.73277 0.62896 0.47899
 C90 C 0.75108 0.64226 0.48005
 C91 C 0.75254 0.59989 0.50029
 C92 C 0.77078 0.61333 0.50127
 H93 H 0.71732 0.62754 0.53242
 H94 H 0.78008 0.64945 0.50212
 H95 H 0.72180 0.62886 0.46460
 H96 H 0.75377 0.58179 0.49959
 C97 C -0.00462 0.22681 0.11424
 C98 C 0.01594 0.22719 0.12921
 C99 C 0.01715 0.24579 0.14174
 C100 C -0.00235 0.26248 0.13830
 C101 C -0.02465 0.22983 0.13009
 C102 C -0.02344 0.24854 0.14262
 C103 C -0.00365 0.24854 0.10020
 C104 C -0.00251 0.26717 0.11290
 H105 H 0.02885 0.21422 0.12931
 H106 H -0.00135 0.27765 0.14863
 H107 H -0.03883 0.21866 0.13078
 H108 H -0.00423 0.24916 0.08203
 C109 C -0.00163 0.73394 0.38729
 C110 C -0.02001 0.73512 0.37174
 C111 C -0.01971 0.75440 0.35739
 C112 C -0.00097 0.76924 0.36106
 C113 C 0.01966 0.73559 0.37288
 C114 C 0.02007 0.75416 0.35921
 C115 C -0.00266 0.75594 0.40006
 C116 C -0.00221 0.77446 0.38622
 H117 H -0.03333 0.72291 0.37147
 H118 H -0.00075 0.78427 0.34977
 H119 H 0.03371 0.72396 0.37440
 H120 H -0.00251 0.75679 0.41820
 C121 C 0.49795 0.23055 0.88925
 C122 C 0.47888 0.23205 0.87248
 C123 C 0.47968 0.25041 0.85872
 C124 C 0.49963 0.26577 0.86287
 C125 C 0.51939 0.23179 0.87511
 C126 C 0.52031 0.25026 0.86140
 C127 C 0.49689 0.25259 0.90182
 C128 C 0.49785 0.27101 0.88794
 H129 H 0.46549 0.21996 0.87197
 H130 H 0.50027 0.28074 0.85155
 H131 H 0.53318 0.21987 0.87678
 H132 H 0.49644 0.25354 0.91996
 C133 C 0.49638 0.72973 0.61282
 C134 C 0.51697 0.73019 0.62774
 C135 C 0.51774 0.74841 0.64085
 C136 C 0.49779 0.76467 0.63801
 C137 C 0.47634 0.73173 0.62883
 C138 C 0.47710 0.75005 0.64195
 C139 C 0.49672 0.75190 0.59947
 C140 C 0.49743 0.77016 0.61275
 H141 H 0.53025 0.71761 0.62737
 H142 H 0.49843 0.77952 0.64882
 H143 H 0.46242 0.72022 0.62915
 H144 H 0.49620 0.75308 0.58131
 C145 C 0.88626 1.00186 0.77368
 C146 C 0.87101 1.02082 0.77173
 C147 C 0.85667 1.01986 0.75275
 C148 C 0.86009 1.00009 0.73923
 C149 C 0.87151 0.98117 0.77388
 C150 C 0.85786 0.98016 0.75586
 C151 C 0.89904 1.00115 0.75127
 C152 C 0.88522 1.00025 0.73321
 H153 H 0.87165 1.03526 0.78243
 H154 H 0.84882 0.99925 0.72457
 H155 H 0.87272 0.96782 0.78647
 H156 H 0.91716 1.00163 0.74980
 C157 C 0.38720 0.49975 0.27294
 C158 C 0.37095 0.51964 0.27085
 C159 C 0.35718 0.51856 0.25283
 C160 C 0.36078 0.49766 0.23862
 C161 C 0.37251 0.47909 0.27333
 C162 C 0.35876 0.47793 0.25543
 C163 C 0.39975 0.49919 0.25044
 C164 C 0.38583 0.49815 0.23251
 H165 H 0.37127 0.53393 0.28175
 H166 H 0.34943 0.49672 0.22405
 H167 H 0.37376 0.46586 0.28604
 H168 H 0.41784 0.50004 0.24881
 C169 C 0.61315 1.00255 0.26805
 C170 C 0.62786 0.98145 0.26637
 C171 C 0.64135 0.98146 0.24778
 C172 C 0.63904 1.00266 0.23278
 C173 C 0.62841 1.02108 0.26700
 C174 C 0.64256 1.02120 0.24774
 C175 C 0.60018 1.00371 0.24597
 C176 C 0.61383 1.00366 0.22746
 H177 H 0.62657 0.96720 0.27787
 H178 H 0.65018 1.00277 0.21777
 H179 H 0.62861 1.03422 0.27929
 H180 H 0.58205 1.00306 0.24505
 C181 C 0.11230 0.50065 0.76708
 C182 C 0.12725 0.47976 0.76565
 C183 C 0.14112 0.47990 0.74739
 C184 C 0.13898 0.50103 0.73234
 C185 C 0.12830 0.52028 0.76640
 C186 C 0.14221 0.52057 0.74830
 C187 C 0.09990 0.50197 0.74473
 C188 C 0.11395 0.50208 0.72655
 H189 H 0.12569 0.46539 0.77697
 H190 H 0.15045 0.50128 0.71759
 H191 H 0.12815 0.53330 0.77882
 H192 H 0.08180 0.50148 0.74338
 C193 C 0.77273 0.88477 -0.00074
 C194 C 0.76991 0.86954 0.01998
 C195 C 0.75117 0.85679 0.01941
 C196 C 0.73706 0.86029 -0.00180
 C197 C 0.77224 0.86921 -0.02063
 C198 C 0.75361 0.85648 -0.02122
 C199 C 0.75092 0.89850 -0.00218
 C200 C 0.73228 0.88558 -0.00269
 H201 H 0.78102 0.86965 0.03427
 H202 H 0.72190 0.84976 -0.00229
 H203 H 0.78493 0.86916 -0.03379
 H204 H 0.75024 0.91664 -0.00213
 C205 C 0.27480 0.38548 0.49862
 C206 C 0.27214 0.37028 0.51939
 C207 C 0.25356 0.35730 0.51886
 C208 C 0.23941 0.36058 0.49764
 C209 C 0.27449 0.36985 0.47877
 C210 C 0.25602 0.35688 0.47823
 C211 C 0.25284 0.39895 0.49712
 C212 C 0.23435 0.38582 0.49664
 H213 H 0.28329 0.37051 0.53364
 H214 H 0.22437 0.34988 0.49718
 H215 H 0.28723 0.36982 0.46566
 H216 H 0.25195 0.41709 0.49701
 C217 C 0.26789 0.61046 0.00274
 C218 C 0.26616 0.62604 -0.01785
 C219 C 0.24731 0.63913 -0.01801
 C220 C 0.23197 0.63567 0.00261
 C221 C 0.26607 0.62572 0.02280
 C222 C 0.24737 0.63888 0.02284
 C223 C 0.24611 0.59715 0.00301
 C224 C 0.22730 0.61042 0.00283
 H225 H 0.27784 0.62546 -0.03189
 H226 H 0.21673 0.64651 0.00265
 H227 H 0.27832 0.62579 0.03613
 H228 H 0.24561 0.57906 0.00215
 C229 C 0.76850 0.11566 0.50189
 C230 C 0.76673 0.13045 0.48228
 C231 C 0.74682 0.14410 0.48237
 C232 C 0.73255 0.14045 0.50218
 C233 C 0.76702 0.13008 0.52110
 C234 C 0.74724 0.14375 0.52133
 C235 C 0.74801 0.10265 0.50235
 C236 C 0.72811 0.11643 0.50247
 H237 H 0.77795 0.12961 0.46787
 H238 H 0.71722 0.15122 0.50240
 H239 H 0.77909 0.12985 0.53464
 H240 H 0.74765 0.08455 0.50128
 C241 C 1.00010 0.77281 0.88694
 C242 C 1.01984 0.77107 0.87052
 C243 C 1.01869 0.75312 0.85693
 C244 C 0.99791 0.73861 0.86085
 C245 C 0.97924 0.77295 0.87239
 C246 C 0.97806 0.75512 0.85880
 C247 C 0.99982 0.75030 0.89970
 C248 C 0.99873 0.73243 0.88596
 H249 H 1.03406 0.78220 0.87056
 H250 H 0.99692 0.72408 0.84965
 H251 H 0.96615 0.78571 0.87326
 H252 H 1.00088 0.74864 0.91780
 C253 C 0.49980 0.27566 0.38594
 C254 C 0.51951 0.27392 0.36948
 C255 C 0.51855 0.25572 0.35620
 C256 C 0.49801 0.24097 0.36046
 C257 C 0.47889 0.27524 0.37149
 C258 C 0.47793 0.25716 0.35822
 C259 C 0.49990 0.25335 0.39908
 C260 C 0.49901 0.23522 0.38564
 H261 H 0.53357 0.28526 0.36926
 H262 H 0.49718 0.22623 0.34952
 H263 H 0.46563 0.28782 0.37218
 H264 H 0.50107 0.25200 0.41719
 C265 C 1.00228 0.26877 0.61025
 C266 C 0.98112 0.26763 0.62479
 C267 C 0.98060 0.24942 0.63890
 C268 C 1.00144 0.23409 0.63740
 C269 C 1.02166 0.26783 0.62666
 C270 C 1.02131 0.24977 0.64082
 C271 C 1.00332 0.24646 0.59814
 C272 C 1.00279 0.22832 0.61243
 H273 H 0.96704 0.27917 0.62283
 H274 H 1.00116 0.21937 0.64907
 H275 H 1.03496 0.28005 0.62664
 H276 H 1.00319 0.24512 0.58004
 C277 C 0.50120 0.76531 0.11183
 C278 C 0.48062 0.76379 0.12719
 C279 C 0.48098 0.74556 0.14130
 C280 C 0.50201 0.73062 0.13899
 C281 C 0.52121 0.76470 0.12747
 C282 C 0.52172 0.74667 0.14164
 C283 C 0.50215 0.74301 0.09970
 C284 C 0.50248 0.72486 0.11399
 H285 H 0.46629 0.77509 0.12582
 H286 H 0.50245 0.71590 0.15064
 H287 H 0.53417 0.77730 0.12709
 H288 H 0.50133 0.74167 0.08163
 O289 O 0.04974 1.04140 0.99837
 O290 O 0.03319 1.04572 0.96281
 O291 O -0.00651 1.04820 1.04353
 O292 O -0.03879 1.03128 1.05062
 O293 O 0.04129 0.99346 1.05265
 O294 O 0.04710 0.95908 1.03467
 O295 O -0.06239 0.98863 0.98546
 O296 O -0.06389 1.02463 0.99791
 O297 O -0.00924 0.98517 0.93875
 O298 O 0.02749 0.99625 0.93791
 O299 O -0.01362 0.93642 0.99035
 O300 O -0.00526 0.93482 1.02970
 O301 O -0.04950 0.95725 1.00371
 O302 O -0.03161 0.95174 1.04144
 O303 O 0.00515 0.94981 0.95969
 O304 O 0.04231 0.96905 0.95643
 O305 O -0.04104 1.00238 0.95124
 O306 O -0.04215 1.03991 0.96747
 O307 O 0.06290 1.00986 1.01614
 O308 O 0.06336 0.97104 1.00607
 O309 O 0.00981 1.01114 1.06525
 O310 O -0.02968 0.99924 1.06337
 O311 O 0.01348 1.06177 1.01365
 O312 O -0.00133 1.06079 0.97491
 Zr313 Zr 0.01601 1.03447 0.99215
 O314 O -0.00290 1.01517 0.97045
 Zr315 Zr -0.01084 1.01419 1.03701
 O316 O -0.03151 0.99491 1.01696
 Zr317 Zr 0.03514 0.98861 1.01855
 O318 O 0.01642 0.96761 0.99832
 Zr319 Zr -0.03450 1.00947 0.98483
 O320 O -0.01632 1.03046 1.00592
 Zr321 Zr 0.01145 0.98332 0.96697
 O322 O 0.03213 1.00351 0.98648
 Zr323 Zr -0.01598 0.96379 1.01169
 O324 O 0.00385 0.98229 1.03369
 O325 O 0.02082 1.01988 1.02374
 O326 O -0.02058 0.97780 0.97982
 C327 C 0.06535 1.02947 1.00739
 C328 C 0.00336 1.06393 1.03253
 C329 C 0.02921 1.00218 1.06810
 C330 C -0.06484 0.96889 0.99384
 C331 C -0.02901 0.99329 0.93597
 C332 C -0.00460 0.93423 0.97096
 H333 H -0.00404 1.02309 0.95577
 H334 H 0.02441 0.95313 0.99708
 H335 H 0.03003 1.02918 1.03348
 H336 H -0.04633 0.99346 1.02431
 H337 H -0.05923 1.03872 1.00478
 H338 H -0.05149 1.02862 1.04060
 H339 H 0.04525 0.95554 0.96584
 H340 H 0.06679 0.97763 0.99111
 H341 H -0.05677 1.03827 0.96000
 H342 H 0.00635 1.07511 0.97726
 H343 H 0.01013 0.93118 1.02461
 H344 H 0.03463 0.95341 1.04411
 H345 H 0.03921 1.06082 0.96534
 H346 H 0.03576 1.00952 0.94264
 H347 H -0.02191 0.98509 1.06762
 H348 H -0.04493 0.96126 1.04434
 O349 O 0.55107 0.54380 0.49710
 O350 O 0.53465 0.54773 0.46141
 O351 O 0.49474 0.55165 0.54194
 O352 O 0.46231 0.53502 0.54918
 O353 O 0.54206 0.49653 0.55195
 O354 O 0.54772 0.46191 0.53433
 O355 O 0.43855 0.49162 0.48456
 O356 O 0.43731 0.52788 0.49655
 O357 O 0.49183 0.48718 0.43806
 O358 O 0.52864 0.49814 0.43720
 O359 O 0.48681 0.43922 0.49016
 O360 O 0.49529 0.43804 0.52964
 O361 O 0.45120 0.46041 0.50327
 O362 O 0.46894 0.45522 0.54106
 O363 O 0.50580 0.45210 0.45941
 O364 O 0.54318 0.47091 0.45606
 O365 O 0.46008 0.50470 0.45024
 O366 O 0.45916 0.54252 0.46591
 O367 O 0.56391 0.51239 0.51535
 O368 O 0.56417 0.47349 0.50571
 O369 O 0.51074 0.51469 0.56423
 O370 O 0.47119 0.50308 0.56242
 O371 O 0.51490 0.56465 0.51194
 O372 O 0.50020 0.56324 0.47320
 Zr373 Zr 0.51729 0.53703 0.49085
 O374 O 0.49828 0.51759 0.46936
 Zr375 Zr 0.49018 0.51755 0.53589
 O376 O 0.46941 0.49814 0.51606
 Zr377 Zr 0.53600 0.49137 0.51788
 O378 O 0.51720 0.47024 0.49788
 Zr379 Zr 0.46660 0.51229 0.48373
 O380 O 0.48490 0.53344 0.50457
 Zr381 Zr 0.51243 0.48561 0.46634
 O382 O 0.53321 0.50588 0.48563
 Zr383 Zr 0.48473 0.46683 0.51122
 O384 O 0.50463 0.48549 0.53302
 O385 O 0.52191 0.52281 0.52263
 O386 O 0.48033 0.48048 0.47918
 C387 C 0.56655 0.53187 0.50636
 C388 C 0.50475 0.56716 0.53074
 C389 C 0.53002 0.50554 0.56725
 C390 C 0.43597 0.47199 0.49316
 C391 C 0.47209 0.49531 0.43514
 C392 C 0.49581 0.43675 0.47080
 H393 H 0.49722 0.52532 0.45458
 H394 H 0.52507 0.45567 0.49683
 H395 H 0.53116 0.53218 0.53228
 H396 H 0.45456 0.49688 0.52338
 H397 H 0.44207 0.54202 0.50322
 H398 H 0.44960 0.53226 0.53921
 H399 H 0.54595 0.45747 0.46561
 H400 H 0.56762 0.47982 0.49065
 H401 H 0.44456 0.54084 0.45842
 H402 H 0.50801 0.57753 0.47533
 H403 H 0.51053 0.43405 0.52437
 H404 H 0.53518 0.45641 0.54379
 H405 H 0.54080 0.56281 0.46375
 H406 H 0.53724 0.51122 0.44187
 H407 H 0.47885 0.48891 0.56684
 H408 H 0.45577 0.46496 0.54388
 O409 O 0.45447 -0.04286 0.49786
 O410 O 0.47290 -0.04675 0.46285
 O411 O 0.50882 -0.04514 0.54470
 O412 O 0.54059 -0.02671 0.54986
 O413 O 0.45821 0.00653 0.54951
 O414 O 0.45065 0.04009 0.52928
 O415 O 0.56352 0.01732 0.48330
 O416 O 0.56682 -0.01855 0.49792
 O417 O 0.51151 0.01594 0.43562
 O418 O 0.47562 0.00253 0.43527
 O419 O 0.51170 0.06590 0.48379
 O420 O 0.50115 0.06771 0.52320
 O421 O 0.54799 0.04798 0.49959
 O422 O 0.52830 0.05305 0.53635
 O423 O 0.49477 0.05073 0.45386
 O424 O 0.45872 0.02941 0.45182
 O425 O 0.54413 0.00153 0.44950
 O426 O 0.54736 -0.03554 0.46796
 O427 O 0.43876 -0.01202 0.51370
 O428 O 0.43619 0.02663 0.50120
 O429 O 0.49043 -0.00870 0.56346
 O430 O 0.52892 0.00526 0.56140
 O431 O 0.49099 -0.06041 0.51527
 O432 O 0.50774 -0.05930 0.47683
 Zr433 Zr 0.48796 -0.03381 0.49182
 O434 O 0.50633 -0.01361 0.46919
 Zr435 Zr 0.51198 -0.01112 0.53561
 O436 O 0.53197 0.00932 0.51468
 Zr437 Zr 0.46503 0.01116 0.51511
 O438 O 0.48301 0.03306 0.49377
 Zr439 Zr 0.53704 -0.00549 0.48349
 O440 O 0.51953 -0.02744 0.50560
 Zr441 Zr 0.49000 0.01713 0.46352
 O442 O 0.47005 -0.00406 0.48403
 Zr443 Zr 0.51465 0.03928 0.50723
 O444 O 0.49540 0.01975 0.53012
 O445 O 0.48117 -0.01898 0.52237
 O446 O 0.52118 0.02503 0.47633
 C447 C 0.43781 -0.03190 0.50607
 C448 C 0.50007 -0.06160 0.53465
 C449 C 0.47041 -0.00106 0.56560
 C450 C 0.56445 0.03730 0.49063
 C451 C 0.53189 0.00930 0.43353
 C452 C 0.50344 0.06708 0.46405
 H453 H 0.50847 -0.02171 0.45505
 H454 H 0.47421 0.04699 0.49145
 H455 H 0.47216 -0.02859 0.53257
 H456 H 0.54638 0.01191 0.52212
 H457 H 0.56284 -0.03285 0.50550
 H458 H 0.55357 -0.02205 0.54060
 H459 H 0.45486 0.04308 0.46011
 H460 H 0.43381 0.01968 0.48655
 H461 H 0.56212 -0.03298 0.46068
 H462 H 0.50086 -0.07403 0.47996
 H463 H 0.48610 0.07069 0.51698
 H464 H 0.46255 0.04695 0.53814
 H465 H 0.46767 -0.06212 0.46630
 H466 H 0.46769 -0.01088 0.44091
 H467 H 0.52041 0.01920 0.56439
 H468 H 0.54183 0.04420 0.54036
 O469 O 0.00459 0.45097 1.04303
 O470 O 0.03920 0.46995 1.04463
 O471 O -0.04460 0.50326 1.04741
 O472 O -0.05464 0.53420 1.02864
 O473 O -0.04886 0.45349 0.99531
 O474 O -0.02957 0.44860 0.96074
 O475 O 0.00942 0.56232 0.98274
 O476 O -0.00431 0.56382 1.01891
 O477 O 0.06024 0.51365 0.98184
 O478 O 0.06422 0.47729 0.99463
 O479 O 0.00882 0.51226 0.93372
 O480 O -0.02962 0.50061 0.93371
 O481 O -0.00743 0.54731 0.95259
 O482 O -0.04364 0.52647 0.94936
 O483 O 0.04098 0.49675 0.94745
 O484 O 0.04748 0.46046 0.96870
 O485 O 0.04479 0.54449 0.99777
 O486 O 0.02748 0.54499 1.03540
 O487 O -0.01138 0.43566 1.01256
 O488 O 0.00005 0.43500 0.97360
 O489 O -0.06447 0.48402 1.01165
 O490 O -0.06594 0.52337 0.99730
 O491 O -0.01307 0.48646 1.06135
 O492 O 0.02425 0.50375 1.05859
 Zr493 Zr 0.00865 0.48478 1.03357
 O494 O 0.02877 0.50513 1.01273
 Zr495 Zr -0.03824 0.50724 1.01285
 O496 O -0.01986 0.52920 0.99192
 Zr497 Zr -0.01536 0.46251 0.98946
 O498 O 0.00337 0.48249 0.96693
 Zr499 Zr 0.01170 0.53524 1.00553
 O500 O -0.00792 0.51571 1.02802
 Zr501 Zr 0.03398 0.49051 0.98157
 O502 O 0.01615 0.46857 1.00338
 Zr503 Zr -0.01283 0.51351 0.96154
 O504 O -0.03317 0.49222 0.98167
 O505 O -0.02222 0.47706 1.02002
 O506 O 0.01833 0.52112 0.97452
 C507 C -0.00320 0.43445 1.03236
 C508 C -0.03278 0.49492 1.06346
 C509 C -0.06546 0.46425 1.00381
 C510 C 0.00131 0.56359 0.96293
 C511 C 0.06123 0.53368 0.98903
 C512 C 0.02898 0.50503 0.93156
 H513 H 0.04314 0.50768 1.02029
 H514 H 0.00549 0.47434 0.95285
 H515 H -0.03130 0.46741 1.03013
 H516 H -0.02840 0.54333 0.98974
 H517 H -0.01095 0.55906 1.03346
 H518 H -0.04570 0.54764 1.02519
 H519 H 0.03836 0.45630 0.95574
 H520 H 0.01506 0.43306 0.98028
 H521 H 0.03359 0.56018 1.03286
 H522 H 0.02275 0.49592 1.07331
 H523 H -0.02309 0.48569 0.93077
 H524 H -0.04041 0.45983 0.95480
 H525 H 0.03716 0.46395 1.06011
 H526 H 0.06014 0.46884 1.00844
 H527 H -0.06929 0.51488 0.98373
 H528 H -0.04765 0.53980 0.95810
 O529 O 0.01550 0.43634 0.50619
 O530 O 0.00089 0.43815 0.46950
 O531 O 0.06665 0.48596 0.50457
 O532 O 0.06915 0.52253 0.49609
 O533 O 0.01883 0.48456 0.55905
 O534 O -0.01913 0.49598 0.56274
 O535 O 0.00392 0.55087 0.45360
 O536 O 0.03809 0.53396 0.44746
 O537 O -0.04444 0.50022 0.45180
 O538 O -0.04848 0.46536 0.46829
 O539 O -0.04472 0.54548 0.50481
 O540 O -0.02302 0.54861 0.53923
 O541 O -0.01033 0.56388 0.48642
 O542 O 0.00402 0.56267 0.52537
 O543 O -0.06060 0.51574 0.48833
 O544 O -0.06066 0.47493 0.50042
 O545 O -0.01457 0.51776 0.43572
 O546 O 0.02307 0.50070 0.43216
 O547 O 0.00063 0.44922 0.53882
 O548 O -0.03364 0.46916 0.54712
 O549 O 0.04911 0.50147 0.54309
 O550 O 0.05204 0.53798 0.52357
 O551 O 0.05088 0.45557 0.48905
 O552 O 0.03042 0.45869 0.45286
 Zr553 Zr 0.01703 0.46495 0.48524
 O554 O -0.00480 0.48566 0.46646
 Zr555 Zr 0.03970 0.50834 0.50977
 O556 O 0.01939 0.53085 0.49122
 Zr557 Zr -0.00458 0.48373 0.53298
 O558 O -0.02681 0.50561 0.51599
 Zr559 Zr 0.01001 0.51688 0.46082
 O560 O 0.03296 0.49550 0.47805
 Zr561 Zr -0.03414 0.49257 0.48462
 O562 O -0.01360 0.46948 0.50253
 Zr563 Zr -0.01093 0.53602 0.50851
 O564 O 0.01034 0.51516 0.52826
 O565 O 0.02535 0.47751 0.51627
 O566 O -0.01998 0.52359 0.47763
 C567 C 0.00822 0.43361 0.52632
 C568 C 0.06763 0.46627 0.49647
 C569 C 0.03860 0.49259 0.55979
 C570 C -0.00389 0.56644 0.46599
 C571 C -0.03445 0.50993 0.43525
 C572 C -0.06143 0.53532 0.49663
 H573 H -0.00817 0.47828 0.45224
 H574 H -0.04042 0.50775 0.52524
 H575 H 0.03527 0.46731 0.52502
 H576 H 0.02759 0.54491 0.48857
 H577 H 0.05117 0.52382 0.44950
 H578 H 0.06449 0.53247 0.48351
 H579 H -0.06552 0.48332 0.51373
 H580 H -0.03979 0.45936 0.53563
 H581 H 0.02158 0.51113 0.41911
 H582 H 0.03965 0.44481 0.45342
 H583 H -0.03481 0.53846 0.54490
 H584 H -0.01323 0.51120 0.56458
 H585 H 0.01134 0.42516 0.46887
 H586 H -0.03871 0.45226 0.47158
 H587 H 0.04202 0.54178 0.53625
 H588 H 0.01727 0.56745 0.51654
 O589 O 0.51252 0.93357 0.00890
 O590 O 0.49811 0.93524 -0.02786
 O591 O 0.56338 0.98356 0.00739
 O592 O 0.56571 1.02007 -0.00099
 O593 O 0.51534 0.98192 0.06178
 O594 O 0.47729 0.99303 0.06526
 O595 O 0.50061 1.04801 -0.04383
 O596 O 0.53501 1.03109 -0.04971
 O597 O 0.45253 0.99709 -0.04590
 O598 O 0.44857 0.96219 -0.02932
 O599 O 0.45174 1.04242 0.00702
 O600 O 0.47295 1.04587 0.04146
 O601 O 0.48614 1.06096 -0.01108
 O602 O 0.50037 1.05964 0.02813
 O603 O 0.43608 1.01257 -0.00947
 O604 O 0.43614 0.97180 0.00270
 O605 O 0.48235 1.01488 -0.06177
 O606 O 0.51990 0.99797 -0.06528
 O607 O 0.49741 0.94637 0.04145
 O608 O 0.46300 0.96617 0.04957
 O609 O 0.54560 0.99892 0.04587
 O610 O 0.54834 1.03547 0.02635
 O611 O 0.54789 0.95303 -0.00816
 O612 O 0.52752 0.95595 -0.04441
 Zr613 Zr 0.51399 0.96216 -0.01207
 O614 O 0.49214 0.98275 -0.03099
 Zr615 Zr 0.53627 1.00572 0.01252
 O616 O 0.51595 1.02811 -0.00614
 Zr617 Zr 0.49205 0.98086 0.03556
 O618 O 0.46978 1.00261 0.01843
 Zr619 Zr 0.50681 1.01404 -0.03657
 O620 O 0.52977 0.99280 -0.01921
 Zr621 Zr 0.46268 0.98952 -0.01299
 O622 O 0.48325 0.96655 0.00507
 Zr623 Zr 0.48552 1.03310 0.01101
 O624 O 0.50679 1.01238 0.03089
 O625 O 0.52210 0.97480 0.01899
 O626 O 0.47671 1.02061 -0.01991
 C627 C 0.50513 0.93079 0.02898
 C628 C 0.56455 0.96388 -0.00074
 C629 C 0.53508 0.99005 0.06256
 C630 C 0.49268 1.06355 -0.03148
 C631 C 0.46253 1.00692 -0.06238
 C632 C 0.43514 1.03218 -0.00126
 H633 H 0.48887 0.97534 -0.04521
 H634 H 0.45611 1.00470 0.02761
 H635 H 0.53204 0.96467 0.02779
 H636 H 0.52409 1.04221 -0.00875
 H637 H 0.54803 1.02086 -0.04770
 H638 H 0.56107 1.02995 -0.01363
 H639 H 0.43126 0.98011 0.01604
 H640 H 0.45697 0.95629 0.03807
 H641 H 0.51857 1.00850 -0.07826
 H642 H 0.53685 0.94214 -0.04380
 H643 H 0.46138 1.03552 0.04723
 H644 H 0.48286 1.00839 0.06695
 H645 H 0.50864 0.92231 -0.02839
 H646 H 0.45845 0.94917 -0.02603
 H647 H 0.53834 1.03913 0.03908
 H648 H 0.51347 1.06469 0.01923
 O649 O 0.54952 0.45376 0.00489
 O650 O 0.52976 0.44707 0.03887
 O651 O 0.49770 0.45268 -0.04471
 O652 O 0.46640 0.47151 -0.05306
 O653 O 0.54650 0.50605 -0.04493
 O654 O 0.54973 0.53899 -0.02382
 O655 O 0.43603 0.50836 0.01358
 O656 O 0.43637 0.47345 -0.00204
 O657 O 0.48392 0.50702 0.06461
 O658 O 0.52041 0.49379 0.06773
 O659 O 0.48483 0.55946 0.01777
 O660 O 0.49681 0.56454 -0.02028
 O661 O 0.45040 0.54093 -0.00043
 O662 O 0.47230 0.54909 -0.03618
 O663 O 0.50090 0.54290 0.04839
 O664 O 0.53737 0.52210 0.05298
 O665 O 0.45366 0.49184 0.04813
 O666 O 0.45487 0.45550 0.02910
 O667 O 0.56412 0.48643 -0.00862
 O668 O 0.56320 0.52417 0.00515
 O669 O 0.51656 0.49047 -0.06159
 O670 O 0.47693 0.50415 -0.06200
 O671 O 0.51476 0.43596 -0.01464
 O672 O 0.49656 0.43402 0.02296
 Zr673 Zr 0.51524 0.46119 0.00939
 O674 O 0.49402 0.47902 0.03119
 Zr675 Zr 0.49285 0.48615 -0.03559
 O676 O 0.47007 0.50415 -0.01558
 Zr677 Zr 0.53656 0.50857 -0.01121
 O678 O 0.51572 0.52820 0.00928
 Zr679 Zr 0.46397 0.48690 0.01480
 O680 O 0.48439 0.46739 -0.00656
 Zr681 Zr 0.50773 0.50997 0.03864
 O682 O 0.53048 0.49103 0.01911
 Zr683 Zr 0.48472 0.53421 -0.00624
 O684 O 0.50687 0.51717 -0.02821
 O685 O 0.52301 0.47836 -0.02027
 O686 O 0.47710 0.51753 0.02373
 C687 C 0.56586 0.46598 -0.00185
 C688 C 0.50649 0.43573 -0.03440
 C689 C 0.53629 0.49869 -0.06200
 C690 C 0.43422 0.52885 0.00702
 C691 C 0.46386 0.49965 0.06500
 C692 C 0.49211 0.55969 0.03790
 H693 H 0.49139 0.46999 0.04502
 H694 H 0.52347 0.54224 0.01246
 H695 H 0.53315 0.46957 -0.02999
 H696 H 0.45604 0.50666 -0.02396
 H697 H 0.44196 0.45986 -0.00954
 H698 H 0.45279 0.47341 -0.04374
 H699 H 0.54141 0.53609 0.04489
 H700 H 0.56536 0.51599 0.01956
 H701 H 0.43951 0.45696 0.03537
 H702 H 0.50460 0.41978 0.02000
 H703 H 0.51199 0.56672 -0.01435
 H704 H 0.53836 0.54551 -0.03408
 H705 H 0.53616 0.43213 0.03547
 H706 H 0.52969 0.48110 0.06250
 H707 H 0.48540 0.51810 -0.06449
 H708 H 0.45926 0.54040 -0.04087
 O709 O -0.01729 0.00892 0.56495
 O710 O 0.02028 -0.00466 0.56651
 O711 O -0.01480 0.06262 0.51665
 O712 O -0.00539 0.06789 0.48082
 O713 O -0.06568 0.01141 0.51219
 O714 O -0.06509 -0.02582 0.49935
 O715 O 0.04571 0.00718 0.45561
 O716 O 0.04681 0.04091 0.47386
 O717 O 0.04749 -0.04397 0.50399
 O718 O 0.02929 -0.05128 0.53759
 O719 O -0.00224 -0.04453 0.45473
 O720 O -0.03714 -0.02436 0.44826
 O721 O 0.01568 -0.00851 0.43909
 O722 O -0.02457 0.00448 0.43677
 O723 O 0.01324 -0.06145 0.48546
 O724 O -0.00112 -0.06472 0.52513
 O725 O 0.06206 -0.01178 0.48944
 O726 O 0.06082 0.02452 0.50819
 O727 O -0.04719 -0.00726 0.54865
 O728 O -0.05018 -0.04108 0.52733
 O729 O -0.05124 0.04377 0.49790
 O730 O -0.02945 0.04989 0.46277
 O731 O -0.00044 0.04581 0.54807
 O732 O 0.03670 0.02683 0.54877
 Zr733 Zr 0.00606 0.01270 0.53858
 O734 O 0.02828 -0.00642 0.51901
 Zr735 Zr -0.01686 0.03678 0.49341
 O736 O 0.00516 0.01930 0.47212
 Zr737 Zr -0.03783 -0.01030 0.51473
 O738 O -0.01733 -0.02983 0.49379
 Zr739 Zr 0.03493 0.01089 0.48883
 O740 O 0.01413 0.03109 0.50916
 Zr741 Zr 0.01345 -0.03624 0.50951
 O742 O -0.00797 -0.01852 0.53157
 Zr743 Zr -0.00889 -0.01156 0.46452
 O744 O -0.03205 0.00689 0.48413
 O745 O -0.02436 0.02011 0.52325
 O746 O 0.02149 -0.01953 0.47965
 C747 C -0.03694 0.00051 0.56556
 C748 C -0.00790 0.06287 0.53696
 C749 C -0.06753 0.03168 0.50499
 C750 C 0.03567 -0.00085 0.43876
 C751 C 0.06371 -0.03220 0.49618
 C752 C 0.00624 -0.06148 0.46522
 H753 H 0.04212 -0.00947 0.52757
 H754 H -0.02525 -0.04372 0.49041
 H755 H -0.03452 0.02903 0.53283
 H756 H 0.00828 0.02851 0.45854
 H757 H 0.04293 0.05303 0.48428
 H758 H 0.00875 0.06486 0.47266
 H759 H -0.01390 -0.06923 0.51594
 H760 H -0.03935 -0.04668 0.53863
 H761 H 0.07469 0.02476 0.49894
 H762 H 0.03428 0.03488 0.56293
 H763 H -0.04330 -0.03641 0.45799
 H764 H -0.06646 -0.01888 0.48423
 H765 H 0.01892 0.00481 0.57989
 H766 H 0.02425 -0.04271 0.55071
 H767 H -0.04105 0.03948 0.45780
 H768 H -0.01586 0.01792 0.43266
 O769 O 0.73947 0.18602 0.26316
 O770 O 0.77851 0.18805 0.25762
 O771 O 0.72686 0.23763 0.31172
 O772 O 0.73092 0.27445 0.31388
 O773 O 0.68510 0.23262 0.25289
 O774 O 0.68988 0.24413 0.21494
 O775 O 0.78759 0.30135 0.26026
 O776 O 0.78592 0.28459 0.29530
 O777 O 0.80370 0.25078 0.21479
 O778 O 0.79125 0.21472 0.20930
 O779 O 0.75022 0.29370 0.20042
 O780 O 0.71227 0.29787 0.21327
 O781 O 0.75911 0.31357 0.23781
 O782 O 0.71715 0.31150 0.24301
 O783 O 0.77127 0.26367 0.18997
 O784 O 0.76236 0.22285 0.18943
 O785 O 0.81102 0.26910 0.24683
 O786 O 0.80659 0.25181 0.28456
 O787 O 0.71114 0.19800 0.24040
 O788 O 0.71031 0.21768 0.20472
 O789 O 0.69234 0.25051 0.28520
 O790 O 0.70824 0.28822 0.29021
 O791 O 0.74682 0.20683 0.30123
 O792 O 0.78672 0.20957 0.28880
 Zr793 Zr 0.75805 0.21507 0.26850
 O794 O 0.78069 0.23573 0.25078
 Zr795 Zr 0.72643 0.25862 0.28300
 O796 O 0.74838 0.28103 0.26672
 Zr797 Zr 0.71612 0.23259 0.23586
 O798 O 0.73704 0.25434 0.21734
 Zr799 Zr 0.78086 0.26733 0.26525
 O800 O 0.75950 0.24615 0.28432
 Zr801 Zr 0.76997 0.24171 0.21790
 O802 O 0.74864 0.21872 0.23462
 Zr803 Zr 0.73897 0.28532 0.23308
 O804 O 0.71546 0.26450 0.24999
 O805 O 0.72528 0.22726 0.26901
 O806 O 0.77172 0.27317 0.23198
 C807 C 0.72211 0.18273 0.25122
 C808 C 0.73557 0.21821 0.31556
 C809 C 0.67922 0.24071 0.27181
 C810 C 0.77704 0.31659 0.24903
 C811 C 0.81666 0.26141 0.22770
 C812 C 0.76241 0.28302 0.18631
 H813 H 0.79576 0.22867 0.25094
 H814 H 0.73127 0.25596 0.20194
 H815 H 0.71507 0.21699 0.27719
 H816 H 0.74819 0.29527 0.27479
 H817 H 0.78144 0.27432 0.30772
 H818 H 0.74471 0.28329 0.31234
 H819 H 0.74971 0.23034 0.18164
 H820 H 0.72325 0.20765 0.20180
 H821 H 0.81898 0.26257 0.28580
 H822 H 0.78451 0.19610 0.29849
 H823 H 0.70847 0.28617 0.20257
 H824 H 0.68567 0.25925 0.22004
 H825 H 0.77713 0.17536 0.26849
 H826 H 0.78611 0.20169 0.21833
 H827 H 0.69774 0.29095 0.27769
 H828 H 0.72263 0.31719 0.25735
 O829 O 0.75238 0.70901 0.69934
 O830 O 0.78745 0.70447 0.71656
 O831 O 0.70621 0.70115 0.75509
 O832 O 0.69825 0.71792 0.78700
 O833 O 0.69812 0.75693 0.70714
 O834 O 0.71657 0.79116 0.70174
 O835 O 0.76300 0.75997 0.81234
 O836 O 0.75078 0.72398 0.81315
 O837 O 0.81117 0.76432 0.75979
 O838 O 0.81257 0.75392 0.72306
 O839 O 0.75991 0.81307 0.76355
 O840 O 0.72099 0.81494 0.75461
 O841 O 0.74517 0.79147 0.79929
 O842 O 0.70818 0.79741 0.78017
 O843 O 0.79070 0.80003 0.74507
 O844 O 0.79453 0.78120 0.70802
 O845 O 0.79804 0.74676 0.79135
 O846 O 0.78157 0.70928 0.79199
 O847 O 0.73507 0.74069 0.68604
 O848 O 0.74529 0.77951 0.68603
 O849 O 0.68489 0.73867 0.73824
 O850 O 0.68612 0.74980 0.77788
 O851 O 0.73629 0.68796 0.73549
 O852 O 0.77474 0.68893 0.75079
 Zr853 Zr 0.75790 0.71542 0.73329
 O854 O 0.77934 0.73450 0.75275
 Zr855 Zr 0.71272 0.73523 0.75939
 O856 O 0.73250 0.75424 0.78056
 Zr857 Zr 0.73218 0.76149 0.71392
 O858 O 0.75219 0.78225 0.73317
 Zr859 Zr 0.76448 0.73974 0.78415
 O860 O 0.74360 0.71898 0.76541
 Zr861 Zr 0.78332 0.76655 0.73865
 O862 O 0.76408 0.74663 0.71748
 Zr863 Zr 0.73830 0.78562 0.76538
 O864 O 0.71656 0.76736 0.74500
 O865 O 0.72648 0.72997 0.72791
 O866 O 0.77000 0.77165 0.77055
 C867 C 0.74383 0.72119 0.68360
 C868 C 0.71735 0.68553 0.74547
 C869 C 0.68238 0.74812 0.71894
 C870 C 0.75439 0.77951 0.81484
 C871 C 0.81360 0.75589 0.77955
 C872 C 0.77938 0.81548 0.75470
 H873 H 0.79393 0.72658 0.75410
 H874 H 0.75366 0.79684 0.72527
 H875 H 0.71684 0.72076 0.71849
 H876 H 0.72481 0.75540 0.79521
 H877 H 0.74394 0.70996 0.80823
 H878 H 0.70835 0.71988 0.79979
 H879 H 0.78522 0.79467 0.70489
 H880 H 0.76026 0.77299 0.68281
 H881 H 0.78872 0.71072 0.80679
 H882 H 0.77248 0.67470 0.74301
 H883 H 0.72614 0.81859 0.73920
 H884 H 0.70709 0.79679 0.71412
 H885 H 0.78495 0.68945 0.71041
 H886 H 0.80794 0.74066 0.71476
 H887 H 0.68206 0.76403 0.77010
 H888 H 0.70478 0.78761 0.79328
 O889 O 0.25182 0.21308 0.80440
 O890 O 0.21495 0.20826 0.79076
 O891 O 0.29395 0.19973 0.74822
 O892 O 0.29863 0.21252 0.71314
 O893 O 0.30376 0.25981 0.78642
 O894 O 0.28451 0.29454 0.78846
 O895 O 0.23099 0.25393 0.68654
 O896 O 0.24495 0.21784 0.68943
 O897 O 0.18708 0.26318 0.74087
 O898 O 0.18831 0.25672 0.77882
 O899 O 0.23737 0.31075 0.72701
 O900 O 0.27742 0.31231 0.73349
 O901 O 0.24910 0.28615 0.69401
 O902 O 0.28760 0.29286 0.70859
 O903 O 0.20782 0.29997 0.74878
 O904 O 0.20688 0.28506 0.78862
 O905 O 0.19849 0.24226 0.71140
 O906 O 0.21613 0.20498 0.71472
 O907 O 0.26954 0.24548 0.81212
 O908 O 0.25723 0.28406 0.80784
 O909 O 0.31537 0.23846 0.75735
 O910 O 0.31117 0.24539 0.71666
 O911 O 0.26504 0.18892 0.77095
 O912 O 0.22565 0.18882 0.75823
 Zr913 Zr 0.24312 0.21668 0.77049
 O914 O 0.22004 0.23400 0.74994
 Zr915 Zr 0.28616 0.23309 0.73883
 O916 O 0.26460 0.25028 0.71648
 Zr917 Zr 0.26914 0.26388 0.78157
 O918 O 0.24746 0.28293 0.76089
 Zr919 Zr 0.23271 0.23598 0.71711
 O920 O 0.25520 0.21685 0.73722
 Zr921 Zr 0.21628 0.26725 0.75968
 O922 O 0.23731 0.24923 0.78225
 Zr923 Zr 0.25921 0.28295 0.72762
 O924 O 0.28260 0.26644 0.74891
 O925 O 0.27453 0.23124 0.77158
 O926 O 0.22750 0.26901 0.72658
 C927 C 0.26180 0.22618 0.81766
 C928 C 0.28366 0.18535 0.76072
 C929 C 0.31891 0.24968 0.77501
 C930 C 0.23854 0.27327 0.68097
 C931 C 0.18352 0.25275 0.72273
 C932 C 0.21832 0.31424 0.73641
 H933 H 0.20557 0.22615 0.75069
 H934 H 0.24622 0.29821 0.76674
 H935 H 0.28510 0.22294 0.78146
 H936 H 0.27111 0.25005 0.70122
 H937 H 0.25240 0.20423 0.69566
 H938 H 0.28829 0.21439 0.70041
 H939 H 0.21618 0.29858 0.78916
 H940 H 0.24280 0.27770 0.81293
 H941 H 0.20801 0.20500 0.70032
 H942 H 0.22850 0.17557 0.76810
 H943 H 0.27217 0.31831 0.74794
 H944 H 0.29325 0.29878 0.77491
 H945 H 0.21813 0.19399 0.79897
 H946 H 0.19373 0.24442 0.78876
 H947 H 0.31505 0.26047 0.72174
 H948 H 0.29007 0.28183 0.69671
 O949 O 0.21536 0.80396 0.25050
 O950 O 0.21010 0.78986 0.21398
 O951 O 0.20128 0.74849 0.29415
 O952 O 0.21387 0.71379 0.30047
 O953 O 0.26225 0.78678 0.30244
 O954 O 0.29704 0.78768 0.28307
 O955 O 0.25380 0.68558 0.23279
 O956 O 0.21800 0.68895 0.24725
 O957 O 0.26355 0.73862 0.18728
 O958 O 0.25810 0.77665 0.18726
 O959 O 0.31167 0.72552 0.23791
 O960 O 0.31376 0.73239 0.27744
 O961 O 0.28642 0.69298 0.25045
 O962 O 0.29357 0.70817 0.28876
 O963 O 0.30098 0.74670 0.20768
 O964 O 0.28662 0.78652 0.20529
 O965 O 0.24195 0.70984 0.19984
 O966 O 0.20495 0.71388 0.21796
 O967 O 0.24827 0.81163 0.26753
 O968 O 0.28673 0.80665 0.25510
 O969 O 0.24031 0.75832 0.31518
 O970 O 0.24701 0.71737 0.31233
 O971 O 0.19065 0.77088 0.26467
 O972 O 0.18995 0.75783 0.22569
 Zr973 Zr 0.21829 0.76994 0.24269
 O974 O 0.23494 0.74876 0.22017
 Zr975 Zr 0.23459 0.73901 0.28670
 O976 O 0.25106 0.71606 0.26573
 Zr977 Zr 0.26605 0.78095 0.26802
 O978 O 0.28444 0.75967 0.24689
 Zr979 Zr 0.23639 0.71623 0.23394
 O980 O 0.21794 0.73698 0.25590
 Zr981 Zr 0.26841 0.75798 0.21584
 O982 O 0.25108 0.78116 0.23626
 Zr983 Zr 0.28394 0.72669 0.25974
 O984 O 0.26815 0.74862 0.28256
 O985 O 0.23321 0.77146 0.27396
 O986 O 0.26961 0.72518 0.22816
 C987 C 0.22891 0.81723 0.25991
 C988 C 0.18699 0.76085 0.28351
 C989 C 0.25182 0.77599 0.31803
 C990 C 0.27319 0.67997 0.24025
 C991 C 0.25254 0.72064 0.18439
 C992 C 0.31520 0.73455 0.21858
 H993 H 0.22691 0.74932 0.20575
 H994 H 0.29985 0.76533 0.24538
 H995 H 0.22512 0.78157 0.28422
 H996 H 0.25061 0.70094 0.27271
 H997 H 0.20468 0.69539 0.25484
 H998 H 0.21521 0.70089 0.29048
 H999 H 0.30019 0.78725 0.21457
 H1000 H 0.28028 0.81157 0.24058
 H1001 H 0.20457 0.69940 0.21022
 H1002 H 0.17694 0.76792 0.22826
 H1003 H 0.31962 0.74699 0.27222
 H1004 H 0.30095 0.77434 0.29238
 H1005 H 0.19602 0.79829 0.21696
 H1006 H 0.24571 0.78649 0.19229
 H1007 H 0.26204 0.72277 0.31621
 H1008 H 0.28257 0.69617 0.29136
 O1009 O 0.22672 0.73720 0.81198
 O1010 O 0.23555 0.77562 0.81332
 O1011 O 0.18548 0.73341 0.75374
 O1012 O 0.18808 0.74264 0.71739
 O1013 O 0.24036 0.68638 0.76283
 O1014 O 0.27952 0.68860 0.75854
 O1015 O 0.24947 0.79525 0.70141
 O1016 O 0.21237 0.79572 0.71245
 O1017 O 0.28751 0.80202 0.75998
 O1018 O 0.28768 0.78511 0.79514
 O1019 O 0.30375 0.75157 0.71485
 O1020 O 0.28886 0.71472 0.70703
 O1021 O 0.27076 0.76544 0.69062
 O1022 O 0.26264 0.72469 0.68887
 O1023 O 0.31162 0.76880 0.74736
 O1024 O 0.30649 0.75550 0.78729
 O1025 O 0.25906 0.81425 0.73758
 O1026 O 0.21911 0.81182 0.74812
 O1027 O 0.24850 0.70761 0.80147
 O1028 O 0.28663 0.70537 0.78761
 O1029 O 0.21140 0.69838 0.74098
 O1030 O 0.21175 0.71876 0.70466
 O1031 O 0.19314 0.74998 0.78673
 O1032 O 0.20795 0.78866 0.78804
 Zr1033 Zr 0.22701 0.75880 0.78371
 O1034 O 0.24878 0.78132 0.76733
 Zr1035 Zr 0.21636 0.73295 0.73641
 O1036 O 0.23696 0.75510 0.71800
 Zr1037 Zr 0.25867 0.71552 0.76832
 O1038 O 0.28127 0.73633 0.75078
 Zr1039 Zr 0.23890 0.78595 0.73392
 O1040 O 0.21573 0.76476 0.75077
 Zr1041 Zr 0.28126 0.76788 0.76545
 O1042 O 0.26020 0.74634 0.78443
 Zr1043 Zr 0.26996 0.74263 0.71800
 O1044 O 0.24892 0.71923 0.73463
 O1045 O 0.22594 0.72744 0.76937
 O1046 O 0.27177 0.77393 0.73236
 C1047 C 0.23648 0.71828 0.81577
 C1048 C 0.17986 0.74070 0.77309
 C1049 C 0.22271 0.68308 0.75136
 C1050 C 0.26173 0.78479 0.68719
 C1051 C 0.27702 0.81725 0.74870
 C1052 C 0.31701 0.76150 0.72800
 H1053 H 0.24858 0.79557 0.77542
 H1054 H 0.29628 0.72921 0.75090
 H1055 H 0.21591 0.71698 0.77754
 H1056 H 0.23102 0.75708 0.70269
 H1057 H 0.19833 0.79143 0.72025
 H1058 H 0.19223 0.75625 0.70873
 H1059 H 0.31428 0.74292 0.77993
 H1060 H 0.28886 0.71709 0.79877
 H1061 H 0.22028 0.82529 0.73823
 H1062 H 0.19672 0.78629 0.80014
 H1063 H 0.29932 0.71030 0.71911
 H1064 H 0.27729 0.68694 0.74227
 H1065 H 0.22310 0.77418 0.82433
 H1066 H 0.27669 0.77963 0.80639
 H1067 H 0.22408 0.70779 0.70252
 H1068 H 0.24941 0.73184 0.68176
 O1069 O 0.25180 0.20728 0.19977
 O1070 O 0.28702 0.20283 0.21677
 O1071 O 0.20607 0.19930 0.25589
 O1072 O 0.19845 0.21601 0.28794
 O1073 O 0.19741 0.25486 0.20798
 O1074 O 0.21561 0.28930 0.20253
 O1075 O 0.26314 0.25838 0.31262
 O1076 O 0.25100 0.22223 0.31350
 O1077 O 0.31083 0.26290 0.25971
 O1078 O 0.31198 0.25232 0.22298
 O1079 O 0.25951 0.31140 0.26383
 O1080 O 0.22046 0.31312 0.25514
 O1081 O 0.24514 0.28984 0.29968
 O1082 O 0.20797 0.29562 0.28091
 O1083 O 0.29017 0.29844 0.24509
 O1084 O 0.29377 0.27960 0.20804
 O1085 O 0.29799 0.24538 0.29142
 O1086 O 0.28186 0.20780 0.29220
 O1087 O 0.23428 0.23890 0.18659
 O1088 O 0.24420 0.27776 0.18646
 O1089 O 0.18450 0.23664 0.23924
 O1090 O 0.18599 0.24785 0.27882
 O1091 O 0.23602 0.18620 0.23602
 O1092 O 0.27458 0.18729 0.25108
 Zr1093 Zr 0.25755 0.21372 0.23368
 O1094 O 0.27909 0.23289 0.25294
 Zr1095 Zr 0.21252 0.23338 0.26016
 O1096 O 0.23241 0.25251 0.28113
 Zr1097 Zr 0.23149 0.25968 0.21449
 O1098 O 0.25160 0.28053 0.23353
 Zr1099 Zr 0.26446 0.23812 0.28446
 O1100 O 0.24351 0.21725 0.26591
 Zr1101 Zr 0.28283 0.26494 0.23877
 O1102 O 0.26347 0.24494 0.21778
 Zr1103 Zr 0.23797 0.28390 0.26586
 O1104 O 0.21612 0.26552 0.24570
 O1105 O 0.22604 0.22815 0.22857
 O1106 O 0.26974 0.27002 0.27076
 C1107 C 0.24310 0.21943 0.18409
 C1108 C 0.21715 0.18372 0.24614
 C1109 C 0.18181 0.24598 0.21992
 C1110 C 0.25455 0.27792 0.31517
 C1111 C 0.31342 0.25457 0.27949
 C1112 C 0.27891 0.31385 0.25482
 H1113 H 0.29372 0.22504 0.25419
 H1114 H 0.25297 0.29511 0.22560
 H1115 H 0.21637 0.21890 0.21922
 H1116 H 0.22483 0.25367 0.29584
 H1117 H 0.24430 0.20812 0.30861
 H1118 H 0.20857 0.21820 0.30067
 H1119 H 0.28435 0.29300 0.20494
 H1120 H 0.25922 0.27142 0.18318
 H1121 H 0.28904 0.20930 0.30698
 H1122 H 0.27230 0.17304 0.24331
 H1123 H 0.22553 0.31680 0.23971
 H1124 H 0.20612 0.29478 0.21497
 H1125 H 0.28451 0.18782 0.21061
 H1126 H 0.30728 0.23916 0.21458
 H1127 H 0.18185 0.26208 0.27108
 H1128 H 0.20468 0.28578 0.29403
 O1129 O 0.79531 0.70187 0.25021
 O1130 O 0.79581 0.71471 0.21247
 O1131 O 0.80437 0.76262 0.28671
 O1132 O 0.78644 0.79497 0.29176
 O1133 O 0.75226 0.71529 0.30588
 O1134 O 0.71597 0.70854 0.29173
 O1135 O 0.73830 0.81255 0.22748
 O1136 O 0.77549 0.81460 0.23668
 O1137 O 0.73135 0.75563 0.18800
 O1138 O 0.74426 0.71905 0.19044
 O1139 O 0.68751 0.76441 0.24191
 O1140 O 0.68946 0.76006 0.28180
 O1141 O 0.70867 0.80159 0.24918
 O1142 O 0.70688 0.78704 0.28921
 O1143 O 0.69882 0.74252 0.21316
 O1144 O 0.71937 0.70558 0.21274
 O1145 O 0.74872 0.78826 0.19525
 O1146 O 0.78804 0.79028 0.20774
 O1147 O 0.76549 0.69068 0.27152
 O1148 O 0.72581 0.68949 0.26446
 O1149 O 0.77034 0.74750 0.31328
 O1150 O 0.75602 0.78661 0.30776
 O1151 O 0.81593 0.73973 0.25877
 O1152 O 0.81092 0.75013 0.21855
 Zr1153 Zr 0.78674 0.73484 0.24004
 O1154 O 0.76498 0.75176 0.21768
 Zr1155 Zr 0.76953 0.76579 0.28270
 O1156 O 0.74790 0.78455 0.26174
 Zr1157 Zr 0.74373 0.71859 0.27195
 O1158 O 0.72043 0.73537 0.25121
 Zr1159 Zr 0.75959 0.78448 0.22850
 O1160 O 0.78291 0.76826 0.25001
 Zr1161 Zr 0.73324 0.73733 0.21840
 O1162 O 0.75572 0.71848 0.23873
 Zr1163 Zr 0.71672 0.76884 0.26070
 O1164 O 0.73774 0.75108 0.28356
 O1165 O 0.77504 0.73314 0.27293
 O1166 O 0.72789 0.77037 0.22761
 C1167 C 0.78453 0.68729 0.26198
 C1168 C 0.81949 0.75179 0.27586
 C1169 C 0.76245 0.72834 0.31900
 C1170 C 0.71919 0.81593 0.23682
 C1171 C 0.73832 0.77516 0.18236
 C1172 C 0.68387 0.75336 0.22417
 H1173 H 0.77147 0.75158 0.20238
 H1174 H 0.70611 0.72731 0.25207
 H1175 H 0.78562 0.72492 0.28287
 H1176 H 0.74669 0.79996 0.26731
 H1177 H 0.79028 0.81034 0.24291
 H1178 H 0.78303 0.80647 0.28013
 H1179 H 0.70686 0.70337 0.22348
 H1180 H 0.73137 0.68446 0.24972
 H1181 H 0.78520 0.80409 0.19867
 H1182 H 0.82569 0.74272 0.22080
 H1183 H 0.68638 0.74409 0.27949
 H1184 H 0.71130 0.72168 0.30049
 H1185 H 0.81128 0.70889 0.21459
 H1186 H 0.75813 0.71112 0.19511
 H1187 H 0.74283 0.77888 0.31422
 H1188 H 0.71631 0.80047 0.28978
 O1189 O 0.70257 0.24826 0.79596
 O1190 O 0.71633 0.21114 0.79779
 O1191 O 0.76286 0.28692 0.80193
 O1192 O 0.79506 0.29129 0.78321
 O1193 O 0.71393 0.30366 0.75087
 O1194 O 0.70613 0.28858 0.71527
 O1195 O 0.81177 0.22720 0.73628
 O1196 O 0.81499 0.23718 0.77298
 O1197 O 0.75507 0.18625 0.73258
 O1198 O 0.71886 0.18824 0.74691
 O1199 O 0.76124 0.23934 0.68661
 O1200 O 0.75654 0.27933 0.68760
 O1201 O 0.79929 0.24783 0.70628
 O1202 O 0.78440 0.28721 0.70337
 O1203 O 0.74018 0.21037 0.69964
 O1204 O 0.70420 0.20944 0.72147
 O1205 O 0.78825 0.19459 0.74861
 O1206 O 0.79149 0.20790 0.78731
 O1207 O 0.69012 0.26889 0.76594
 O1208 O 0.68759 0.26126 0.72674
 O1209 O 0.74686 0.31206 0.76736
 O1210 O 0.78546 0.30708 0.75241
 O1211 O 0.74085 0.25869 0.81520
 O1212 O 0.75223 0.21859 0.81125
 Zr1213 Zr 0.73555 0.23900 0.78688
 O1214 O 0.75197 0.21656 0.76531
 Zr1215 Zr 0.76535 0.28183 0.76724
 O1216 O 0.78353 0.26088 0.74561
 Zr1217 Zr 0.71732 0.26961 0.74336
 O1218 O 0.73345 0.24869 0.72024
 Zr1219 Zr 0.78439 0.22795 0.75843
 O1220 O 0.76874 0.24955 0.78161
 Zr1221 Zr 0.73636 0.21623 0.73407
 O1222 O 0.71811 0.23668 0.75646
 Zr1223 Zr 0.76669 0.25879 0.71504
 O1224 O 0.74949 0.28171 0.73592
 O1225 O 0.73297 0.27154 0.77411
 O1226 O 0.76911 0.22603 0.72726
 C1227 C 0.68744 0.25946 0.78525
 C1228 C 0.75255 0.27630 0.81775
 C1229 C 0.72733 0.31725 0.76001
 C1230 C 0.81427 0.23618 0.71674
 C1231 C 0.77495 0.18119 0.73910
 C1232 C 0.75024 0.22132 0.68393
 H1233 H 0.75224 0.20143 0.77233
 H1234 H 0.72483 0.24908 0.70620
 H1235 H 0.72490 0.28153 0.78452
 H1236 H 0.79882 0.26676 0.74366
 H1237 H 0.81120 0.24350 0.78774
 H1238 H 0.80681 0.28043 0.77883
 H1239 H 0.70120 0.22011 0.70895
 H1240 H 0.68312 0.24639 0.73269
 H1241 H 0.80546 0.19928 0.78439
 H1242 H 0.74551 0.22117 0.82622
 H1243 H 0.74054 0.27641 0.68497
 H1244 H 0.71903 0.29750 0.70992
 H1245 H 0.71114 0.21351 0.81339
 H1246 H 0.71125 0.19319 0.76074
 H1247 H 0.77748 0.31275 0.73895
 H1248 H 0.79791 0.28855 0.71266
 C1249 C 0.05453 0.99997 1.13130
 C1250 C 0.06251 1.01954 1.14122
 C1251 C 0.07261 1.01814 1.16263
 C1252 C 0.07466 0.99717 1.17393
 C1253 C 0.06602 0.97774 1.16433
 C1254 C 0.05590 0.97914 1.14293
 C1255 C 0.04752 0.95945 1.13355
 C1256 C 0.04908 0.93897 1.14503
 C1257 C 0.05899 0.93762 1.16598
 C1258 C 0.06741 0.95673 1.17560
 C1259 C 0.08066 1.03789 1.17217
 C1260 C 0.07879 1.05844 1.16087
 C1261 C 0.06892 1.05980 1.13990
 C1262 C 0.06084 1.04063 1.13011
 C1263 C 0.08683 0.99553 1.19475
 C1264 C 0.09782 0.99497 1.21153
 C1265 C 0.04545 1.00115 1.10891
 C1266 C 0.03805 1.00184 1.09025
 H1267 H 0.03965 0.95966 1.11731
 H1268 H 0.04256 0.92408 1.13763
 H1269 H 0.06015 0.92168 1.17484
 H1270 H 0.07493 0.95487 1.19195
 H1271 H 0.08842 1.03771 1.18847
 H1272 H 0.08503 1.07337 1.16842
 H1273 H 0.06755 1.07578 1.13117
 H1274 H 0.05325 1.04254 1.11379
 C1275 C 0.55521 0.50306 0.63050
 C1276 C 0.56314 0.52253 0.64066
 C1277 C 0.57331 0.52090 0.66202
 C1278 C 0.57545 0.49980 0.67307
 C1279 C 0.56687 0.48046 0.66324
 C1280 C 0.55669 0.48209 0.64188
 C1281 C 0.54835 0.46249 0.63228
 C1282 C 0.55002 0.44189 0.64350
 C1283 C 0.56000 0.44031 0.66440
 C1284 C 0.56838 0.45932 0.67424
 C1285 C 0.58133 0.54056 0.67179
 C1286 C 0.57930 0.56123 0.66076
 C1287 C 0.56932 0.56283 0.63986
 C1288 C 0.56131 0.54375 0.62983
 C1289 C 0.58763 0.49795 0.69387
 C1290 C 0.59861 0.49719 0.71065
 C1291 C 0.54613 0.50446 0.60812
 C1292 C 0.53877 0.50524 0.58944
 H1293 H 0.54043 0.46288 0.61606
 H1294 H 0.54353 0.42707 0.63593
 H1295 H 0.56125 0.42427 0.67306
 H1296 H 0.57596 0.45729 0.69055
 H1297 H 0.58917 0.54019 0.68804
 H1298 H 0.58550 0.57609 0.66849
 H1299 H 0.56776 0.57893 0.63137
 H1300 H 0.55365 0.54583 0.61357
 C1301 C 0.44477 -0.00086 0.62916
 C1302 C 0.44593 0.01883 0.64179
 C1303 C 0.43666 0.01921 0.66375
 C1304 C 0.42631 -0.00008 0.67291
 C1305 C 0.42563 -0.01994 0.66050
 C1306 C 0.43489 -0.02033 0.63854
 C1307 C 0.43390 -0.04031 0.62637
 C1308 C 0.42399 -0.05937 0.63564
 C1309 C 0.41489 -0.05898 0.65712
 C1310 C 0.41565 -0.03954 0.66948
 C1311 C 0.43783 0.03910 0.67603
 C1312 C 0.44794 0.05809 0.66686
 C1313 C 0.45703 0.05773 0.64538
 C1314 C 0.45608 0.03837 0.63290
 C1315 C 0.41506 0.00079 0.69445
 C1316 C 0.40462 0.00099 0.71176
 C1317 C 0.45357 -0.00103 0.60648
 C1318 C 0.46104 -0.00111 0.58771
 H1319 H 0.44076 -0.04144 0.60960
 H1320 H 0.42338 -0.07451 0.62610
 H1321 H 0.40720 -0.07382 0.66425
 H1322 H 0.40841 -0.04011 0.68614
 H1323 H 0.43104 0.04015 0.69283
 H1324 H 0.44871 0.07317 0.67648
 H1325 H 0.46487 0.07252 0.63833
 H1326 H 0.46340 0.03890 0.61627
 C1327 C -0.05870 0.49651 1.12684
 C1328 C -0.05647 0.51619 1.13933
 C1329 C -0.06586 0.51729 1.16120
 C1330 C -0.07740 0.49872 1.17041
 C1331 C -0.07918 0.47886 1.15814
 C1332 C -0.06981 0.47776 1.13626
 C1333 C -0.07194 0.45781 1.12421
 C1334 C -0.08303 0.43946 1.13354
 C1335 C -0.09219 0.44051 1.15496
 C1336 C -0.09034 0.45994 1.16720
 C1337 C -0.06358 0.53715 1.17335
 C1338 C -0.05228 0.55542 1.16413
 C1339 C -0.04308 0.55436 1.14273
 C1340 C -0.04510 0.53502 1.13038
 C1341 C -0.08853 0.50035 1.19195
 C1342 C -0.09877 0.50108 1.20935
 C1343 C -0.04976 0.49566 1.10426
 C1344 C -0.04220 0.49516 1.08554
 H1345 H -0.06508 0.45617 1.10750
 H1346 H -0.08455 0.42435 1.12409
 H1347 H -0.10079 0.42621 1.16215
 H1348 H -0.09770 0.45992 1.18381
 H1349 H -0.07042 0.53873 1.19008
 H1350 H -0.05066 0.57048 1.17366
 H1351 H -0.03432 0.56860 1.13564
 H1352 H -0.03766 0.53500 1.11380
 C1353 C -0.06672 0.50866 0.37529
 C1354 C -0.07653 0.52768 0.36461
 C1355 C -0.08688 0.52566 0.34341
 C1356 C -0.08732 0.50462 0.33303
 C1357 C -0.07784 0.48554 0.34389
 C1358 C -0.06753 0.48755 0.36507
 C1359 C -0.05812 0.46821 0.37555
 C1360 C -0.05889 0.44750 0.36541
 C1361 C -0.06897 0.44554 0.34470
 C1362 C -0.07836 0.46428 0.33398
 C1363 C -0.09654 0.54491 0.33305
 C1364 C -0.09601 0.56557 0.34333
 C1365 C -0.08589 0.56754 0.36404
 C1366 C -0.07622 0.54886 0.37463
 C1367 C -0.09698 0.50265 0.31095
 C1368 C -0.10460 0.50091 0.29246
 C1369 C -0.05559 0.51061 0.39666
 C1370 C -0.04605 0.51105 0.41434
 H1371 H -0.05011 0.46884 0.39168
 H1372 H -0.05163 0.43290 0.37368
 H1373 H -0.06953 0.42942 0.33689
 H1374 H -0.08605 0.46188 0.31790
 H1375 H -0.10464 0.54420 0.31696
 H1376 H -0.10352 0.58012 0.33520
 H1377 H -0.08553 0.58363 0.37195
 H1378 H -0.06855 0.55120 0.39074
 C1379 C 0.43099 1.00616 -0.12281
 C1380 C 0.42192 1.02542 -0.13370
 C1381 C 0.41210 1.02369 -0.15519
 C1382 C 0.41146 1.00271 -0.16567
 C1383 C 0.42015 0.98338 -0.15458
 C1384 C 0.42993 0.98510 -0.13311
 C1385 C 0.43857 0.96552 -0.12242
 C1386 C 0.43758 0.94486 -0.13264
 C1387 C 0.42803 0.94320 -0.15363
 C1388 C 0.41939 0.96217 -0.16456
 C1389 C 0.40317 1.04319 -0.16577
 C1390 C 0.40391 1.06380 -0.15541
 C1391 C 0.41353 1.06549 -0.13443
 C1392 C 0.42246 1.04657 -0.12362
 C1393 C 0.40240 1.00102 -0.18804
 C1394 C 0.39527 0.99943 -0.20674
 C1395 C 0.44175 1.00782 -0.10119
 C1396 C 0.45105 1.00810 -0.08337
 H1397 H 0.44614 0.96591 -0.10606
 H1398 H 0.44426 0.93007 -0.12420
 H1399 H 0.42729 0.92711 -0.16150
 H1400 H 0.41208 0.96000 -0.18086
 H1401 H 0.39548 1.04270 -0.18208
 H1402 H 0.39697 1.07854 -0.16372
 H1403 H 0.41407 1.08154 -0.12647
 H1404 H 0.42975 1.04868 -0.10730
 C1405 C 0.56904 0.50005 -0.12241
 C1406 C 0.56575 0.51850 -0.13732
 C1407 C 0.57604 0.51856 -0.15885
 C1408 C 0.58955 0.50017 -0.16536
 C1409 C 0.59327 0.48196 -0.15028
 C1410 C 0.58298 0.48190 -0.12872
 C1411 C 0.58686 0.46346 -0.11396
 C1412 C 0.60052 0.44560 -0.12030
 C1413 C 0.61057 0.44566 -0.14138
 C1414 C 0.60704 0.46358 -0.15627
 C1415 C 0.57240 0.53714 -0.17351
 C1416 C 0.55901 0.55515 -0.16706
 C1417 C 0.54896 0.55509 -0.14600
 C1418 C 0.55222 0.53703 -0.13123
 C1419 C 0.59902 0.49976 -0.18781
 C1420 C 0.60637 0.49951 -0.20665
 C1421 C 0.55767 0.49958 -0.10083
 C1422 C 0.54798 0.49921 -0.08305
 H1423 H 0.57943 0.46268 -0.09738
 H1424 H 0.60332 0.43164 -0.10879
 H1425 H 0.62117 0.43175 -0.14622
 H1426 H 0.61525 0.46289 -0.17246
 H1427 H 0.57989 0.53798 -0.19006
 H1428 H 0.55643 0.56922 -0.17848
 H1429 H 0.53857 0.56913 -0.14106
 H1430 H 0.54407 0.53778 -0.11501
 C1431 C 0.06868 -0.00114 0.37852
 C1432 C 0.06544 0.01718 0.36345
 C1433 C 0.07566 0.01697 0.34188
 C1434 C 0.08905 -0.00155 0.33551
 C1435 C 0.09270 -0.01965 0.35076
 C1436 C 0.08249 -0.01944 0.37235
 C1437 C 0.08631 -0.03774 0.38729
 C1438 C 0.09985 -0.05575 0.38109
 C1439 C 0.10980 -0.05597 0.35997
 C1440 C 0.10632 -0.03818 0.34491
 C1441 C 0.07208 0.03543 0.32706
 C1442 C 0.05881 0.05358 0.33337
 C1443 C 0.04883 0.05379 0.35447
 C1444 C 0.05204 0.03585 0.36939
 C1445 C 0.09848 -0.00219 0.31306
 C1446 C 0.10579 -0.00252 0.29421
 C1447 C 0.05736 -0.00130 0.40012
 C1448 C 0.04760 -0.00119 0.41786
 H1449 H 0.07895 -0.03830 0.40391
 H1450 H 0.10262 -0.06960 0.39273
 H1451 H 0.12029 -0.07000 0.35522
 H1452 H 0.11446 -0.03907 0.32869
 H1453 H 0.07951 0.03608 0.31048
 H1454 H 0.05626 0.06756 0.32183
 H1455 H 0.03855 0.06794 0.35930
 H1456 H 0.04395 0.03682 0.38563
 C1457 C 0.12773 1.05635 1.00583
 C1458 C 0.13348 1.07311 1.02101
 C1459 C 0.15464 1.08352 1.01912
 C1460 C 0.16987 1.07711 1.00205
 C1461 C 0.16434 1.05999 0.98722
 C1462 C 0.14318 1.04956 0.98912
 C1463 C 0.13794 1.03251 0.97405
 C1464 C 0.15321 1.02597 0.95760
 C1465 C 0.17390 1.03620 0.95575
 C1466 C 0.17949 1.05305 0.97034
 C1467 C 0.16001 1.10032 1.03445
 C1468 C 0.14491 1.10660 1.05114
 C1469 C 0.12420 1.09640 1.05296
 C1470 C 0.11846 1.07985 1.03810
 C1471 C 0.19099 1.08854 0.99965
 C1472 C 0.20809 1.09889 0.99857
 C1473 C 0.10568 1.04661 1.00697
 C1474 C 0.08726 1.03874 1.00749
 H1475 H 0.12206 1.02404 0.97485
 H1476 H 0.14895 1.01288 0.94624
 H1477 H 0.18570 1.03105 0.94295
 H1478 H 0.19579 1.06052 0.96828
 H1479 H 0.17590 1.10874 1.03375
 H1480 H 0.14932 1.11945 1.06273
 H1481 H 0.11252 1.10134 1.06595
 H1482 H 0.10216 1.07238 1.04021
 C1483 C 0.62931 0.55786 0.50511
 C1484 C 0.63601 0.57292 0.52161
 C1485 C 0.65740 0.58288 0.52005
 C1486 C 0.67194 0.57772 0.50196
 C1487 C 0.66544 0.56229 0.48574
 C1488 C 0.64404 0.55231 0.48732
 C1489 C 0.63781 0.53701 0.47083
 C1490 C 0.65234 0.53174 0.45329
 C1491 C 0.67327 0.54152 0.45174
 C1492 C 0.67984 0.55665 0.46774
 C1493 C 0.66370 0.59802 0.53669
 C1494 C 0.64925 0.60315 0.55433
 C1495 C 0.62831 0.59340 0.55584
 C1496 C 0.62167 0.57844 0.53972
 C1497 C 0.69318 0.58896 0.49980
 C1498 C 0.71035 0.59922 0.49884
 C1499 C 0.60707 0.54856 0.50608
 C1500 C 0.58853 0.54095 0.50651
 H1501 H 0.62172 0.52894 0.47132
 H1502 H 0.64732 0.51999 0.44082
 H1503 H 0.68449 0.53738 0.43808
 H1504 H 0.69630 0.56382 0.46588
 H1505 H 0.67982 0.60602 0.53629
 H1506 H 0.65435 0.61476 0.56689
 H1507 H 0.61714 0.59743 0.56958
 H1508 H 0.60523 0.57126 0.54163
 C1509 C 0.62871 0.43822 -0.00200
 C1510 C 0.63662 0.42630 -0.02075
 C1511 C 0.65834 0.41635 -0.02043
 C1512 C 0.67200 0.41838 -0.00135
 C1513 C 0.66424 0.43063 0.01723
 C1514 C 0.64253 0.44059 0.01690
 C1515 C 0.63510 0.45268 0.03572
 C1516 C 0.64873 0.45487 0.05432
 C1517 C 0.66996 0.44511 0.05463
 C1518 C 0.67771 0.43310 0.03635
 C1519 C 0.66585 0.40443 -0.03934
 C1520 C 0.65230 0.40240 -0.05802
 C1521 C 0.63105 0.41211 -0.05832
 C1522 C 0.62321 0.42394 -0.03995
 C1523 C 0.69359 0.40705 -0.00053
 C1524 C 0.71113 0.39688 -0.00014
 C1525 C 0.60633 0.44791 -0.00209
 C1526 C 0.58778 0.45604 -0.00204
 H1527 H 0.61872 0.46058 0.03627
 H1528 H 0.64279 0.46419 0.06856
 H1529 H 0.68048 0.44686 0.06911
 H1530 H 0.69436 0.42584 0.03735
 H1531 H 0.68226 0.39660 -0.03993
 H1532 H 0.65832 0.39324 -0.07233
 H1533 H 0.62057 0.41047 -0.07286
 H1534 H 0.60657 0.43121 -0.04098
 C1535 C 0.12679 -0.05939 0.49550
 C1536 C 0.14119 -0.05453 0.51341
 C1537 C 0.16323 -0.06371 0.51392
 C1538 C 0.17075 -0.07769 0.49652
 C1539 C 0.15649 -0.08224 0.47841
 C1540 C 0.13444 -0.07306 0.47791
 C1541 C 0.12044 -0.07792 0.45970
 C1542 C 0.12802 -0.09146 0.44247
 C1543 C 0.14958 -0.10044 0.44294
 C1544 C 0.16372 -0.09594 0.46066
 C1545 C 0.17728 -0.05871 0.53202
 C1546 C 0.16977 -0.04501 0.54916
 C1547 C 0.14821 -0.03603 0.54869
 C1548 C 0.13401 -0.04068 0.53107
 C1549 C 0.19274 -0.08822 0.49772
 C1550 C 0.21056 -0.09784 0.49855
 C1551 C 0.10416 -0.05029 0.49526
 C1552 C 0.08553 -0.04236 0.49544
 H1553 H 0.10354 -0.07132 0.45860
 H1554 H 0.11709 -0.09501 0.42867
 H1555 H 0.15540 -0.11094 0.42950
 H1556 H 0.18036 -0.10328 0.46025
 H1557 H 0.19421 -0.06527 0.53311
 H1558 H 0.18073 -0.04134 0.56288
 H1559 H 0.14244 -0.02541 0.56204
 H1560 H 0.11739 -0.03330 0.53145
 C1561 C 0.37659 -0.06196 0.50481
 C1562 C 0.37173 -0.08119 0.51813
 C1563 C 0.35049 -0.09151 0.51657
 C1564 C 0.33419 -0.08255 0.50169
 C1565 C 0.33905 -0.06331 0.48839
 C1566 C 0.36026 -0.05299 0.48996
 C1567 C 0.36465 -0.03376 0.47649
 C1568 C 0.34858 -0.02499 0.46188
 C1569 C 0.32787 -0.03509 0.46034
 C1570 C 0.32306 -0.05402 0.47339
 C1571 C 0.34606 -0.11069 0.53007
 C1572 C 0.36211 -0.11944 0.54471
 C1573 C 0.38284 -0.10936 0.54624
 C1574 C 0.38771 -0.09047 0.53313
 C1575 C 0.31235 -0.09289 0.50022
 C1576 C 0.29405 -0.10110 0.49899
 C1577 C 0.39841 -0.05153 0.50605
 C1578 C 0.41644 -0.04266 0.50646
 H1579 H 0.38050 -0.02528 0.47709
 H1580 H 0.35222 -0.01028 0.45171
 H1581 H 0.31544 -0.02822 0.44896
 H1582 H 0.30671 -0.06127 0.47158
 H1583 H 0.33017 -0.11911 0.52946
 H1584 H 0.35844 -0.13412 0.55492
 H1585 H 0.39522 -0.11620 0.55768
 H1586 H 0.40407 -0.08322 0.53490
 C1587 C -0.12635 0.43343 1.00399
 C1588 C -0.12877 0.41130 1.01248
 C1589 C -0.14983 0.40056 1.01125
 C1590 C -0.16836 0.41200 1.00156
 C1591 C -0.16599 0.43422 0.99331
 C1592 C -0.14496 0.44496 0.99453
 C1593 C -0.14306 0.46716 0.98615
 C1594 C -0.16139 0.47845 0.97683
 C1595 C -0.18193 0.46796 0.97563
 C1596 C -0.18431 0.44611 0.98374
 C1597 C -0.15180 0.37844 1.01981
 C1598 C -0.13353 0.36723 1.02934
 C1599 C -0.11297 0.37772 1.03055
 C1600 C -0.11052 0.39949 1.02223
 C1601 C -0.18992 0.40109 1.00019
 C1602 C -0.20806 0.39256 0.99900
 C1603 C -0.10467 0.44423 1.00454
 C1604 C -0.08674 0.45333 1.00451
 H1605 H -0.12744 0.47606 0.98673
 H1606 H -0.15964 0.49543 0.97052
 H1607 H -0.19612 0.47680 0.96839
 H1608 H -0.20064 0.43869 0.98243
 H1609 H -0.16745 0.36959 1.01925
 H1610 H -0.13534 0.35032 1.03582
 H1611 H -0.09884 0.36893 1.03797
 H1612 H -0.09422 0.40696 1.02357
 C1613 C -0.12278 0.56626 0.49847
 C1614 C -0.14065 0.55502 0.50939
 C1615 C -0.16225 0.56519 0.51021
 C1616 C -0.16587 0.58652 0.50008
 C1617 C -0.14798 0.59781 0.48925
 C1618 C -0.12636 0.58765 0.48845
 C1619 C -0.10874 0.59925 0.47753
 C1620 C -0.11237 0.62030 0.46770
 C1621 C -0.13352 0.63022 0.46845
 C1622 C -0.15119 0.61917 0.47907
 C1623 C -0.17985 0.55362 0.52122
 C1624 C -0.17622 0.53262 0.53113
 C1625 C -0.15511 0.52266 0.53030
 C1626 C -0.13747 0.53364 0.51958
 C1627 C -0.18808 0.59660 0.50056
 C1628 C -0.20673 0.60448 0.50094
 C1629 C -0.10080 0.55571 0.49754
 C1630 C -0.08272 0.54657 0.49700
 H1631 H -0.09200 0.59221 0.47650
 H1632 H -0.09870 0.62897 0.45947
 H1633 H -0.13626 0.64657 0.46078
 H1634 H -0.16734 0.62756 0.47923
 H1635 H -0.19658 0.56067 0.52231
 H1636 H -0.18987 0.52403 0.53949
 H1637 H -0.15237 0.50633 0.53801
 H1638 H -0.12136 0.52519 0.51938
 C1639 C 0.37409 1.06375 -0.00039
 C1640 C 0.37115 1.08527 -0.01033
 C1641 C 0.34974 1.09591 -0.00980
 C1642 C 0.33145 1.08496 0.00067
 C1643 C 0.33443 1.06347 0.01067
 C1644 C 0.35581 1.05283 0.01013
 C1645 C 0.35836 1.03132 0.02019
 C1646 C 0.34030 1.02064 0.03051
 C1647 C 0.31940 1.03105 0.03106
 C1648 C 0.31639 1.05221 0.02127
 C1649 C 0.34717 1.11740 -0.01988
 C1650 C 0.36524 1.12810 -0.03015
 C1651 C 0.38618 1.11771 -0.03066
 C1652 C 0.38919 1.09653 -0.02091
 C1653 C 0.30946 1.09552 0.00087
 C1654 C 0.29094 1.10371 0.00103
 C1655 C 0.39589 1.05280 -0.00094
 C1656 C 0.41386 1.04347 -0.00120
 H1657 H 0.37429 1.02252 0.02019
 H1658 H 0.34255 1.00420 0.03812
 H1659 H 0.30542 1.02270 0.03910
 H1660 H 0.29980 1.05961 0.02213
 H1661 H 0.33121 1.12615 -0.01989
 H1662 H 0.36299 1.14455 -0.03775
 H1663 H 0.40016 1.12610 -0.03863
 H1664 H 0.40578 1.08911 -0.02174
 C1665 C 0.00078 1.12540 1.06062
 C1666 C -0.00787 1.14404 1.04836
 C1667 C -0.00977 1.16516 1.05864
 C1668 C -0.00299 1.16747 1.08108
 C1669 C 0.00580 1.14884 1.09330
 C1670 C 0.00768 1.12774 1.08303
 C1671 C 0.01647 1.10933 1.09556
 C1672 C 0.02321 1.11173 1.11763
 C1673 C 0.02141 1.13240 1.12768
 C1674 C 0.01282 1.15079 1.11574
 C1675 C -0.01845 1.18358 1.04610
 C1676 C -0.02509 1.18119 1.02399
 C1677 C -0.02324 1.16052 1.01392
 C1678 C -0.01474 1.14210 1.02589
 C1679 C -0.00465 1.18897 1.09165
 C1680 C -0.00524 1.20641 1.10128
 C1681 C 0.00216 1.10372 1.05039
 C1682 C 0.00297 1.08558 1.04214
 H1683 H 0.01824 1.09292 1.08847
 H1684 H 0.02984 1.09748 1.12698
 H1685 H 0.02669 1.13419 1.14482
 H1686 H 0.01176 1.16651 1.12432
 H1687 H -0.02020 1.19998 1.05322
 H1688 H -0.03169 1.19545 1.01462
 H1689 H -0.02841 1.15874 0.99675
 H1690 H -0.01359 1.12637 1.01733
 C1691 C 0.50275 0.62929 0.55752
 C1692 C 0.48583 0.64473 0.55077
 C1693 C 0.48417 0.66589 0.56100
 C1694 C 0.49944 0.67144 0.57788
 C1695 C 0.51663 0.65616 0.58433
 C1696 C 0.51829 0.63501 0.57410
 C1697 C 0.53553 0.61994 0.58087
 C1698 C 0.55072 0.62564 0.59728
 C1699 C 0.54911 0.64633 0.60729
 C1700 C 0.53230 0.66148 0.60097
 C1701 C 0.46708 0.68103 0.55410
 C1702 C 0.45203 0.67542 0.53752
 C1703 C 0.45365 0.65471 0.52750
 C1704 C 0.47032 0.63947 0.53399
 C1705 C 0.49729 0.69259 0.58908
 C1706 C 0.49626 0.70972 0.59924
 C1707 C 0.50384 0.60733 0.54782
 C1708 C 0.50448 0.58899 0.53998
 H1709 H 0.53749 0.60366 0.57354
 H1710 H 0.56381 0.61393 0.60223
 H1711 H 0.56095 0.65069 0.62003
 H1712 H 0.53178 0.67737 0.60924
 H1713 H 0.46519 0.69734 0.56140
 H1714 H 0.43906 0.68720 0.53243
 H1715 H 0.44193 0.65043 0.51463
 H1716 H 0.47092 0.62359 0.52568
 C1717 C -0.00505 0.63034 0.44073
 C1718 C 0.01472 0.64302 0.44208
 C1719 C 0.01514 0.66518 0.43310
 C1720 C -0.00417 0.67447 0.42281
 C1721 C -0.02413 0.66202 0.42203
 C1722 C -0.02456 0.63986 0.43100
 C1723 C -0.04461 0.62763 0.42986
 C1724 C -0.06373 0.63707 0.42013
 C1725 C -0.06332 0.65877 0.41140
 C1726 C -0.04379 0.67119 0.41227
 C1727 C 0.03509 0.67753 0.43450
 C1728 C 0.05411 0.66823 0.44451
 C1729 C 0.05372 0.64654 0.45329
 C1730 C 0.03430 0.63400 0.45213
 C1731 C -0.00308 0.69616 0.41166
 C1732 C -0.00225 0.71363 0.40135
 C1733 C -0.00520 0.60750 0.44927
 C1734 C -0.00489 0.58862 0.45662
 H1735 H -0.04575 0.61070 0.43645
 H1736 H -0.07892 0.62748 0.41938
 H1737 H -0.07822 0.66605 0.40390
 H1738 H -0.04432 0.68803 0.40531
 H1739 H 0.03618 0.69449 0.42797
 H1740 H 0.06922 0.67791 0.44547
 H1741 H 0.06854 0.63939 0.46106
 H1742 H 0.03483 0.61721 0.45920
 C1743 C 0.49205 1.12746 -0.05664
 C1744 C 0.51191 1.13994 -0.05490
 C1745 C 0.51279 1.16200 -0.06407
 C1746 C 0.49384 1.17140 -0.07490
 C1747 C 0.47376 1.15919 -0.07601
 C1748 C 0.47286 1.13713 -0.06684
 C1749 C 0.45268 1.12514 -0.06829
 C1750 C 0.43391 1.13471 -0.07854
 C1751 C 0.43478 1.15631 -0.08751
 C1752 C 0.45443 1.16849 -0.08632
 C1753 C 0.53286 1.17412 -0.06233
 C1754 C 0.55153 1.16470 -0.05179
 C1755 C 0.55068 1.14311 -0.04280
 C1756 C 0.53115 1.13079 -0.04430
 C1757 C 0.49544 1.19296 -0.08622
 C1758 C 0.49674 1.21033 -0.09664
 C1759 C 0.49156 1.10462 -0.04813
 C1760 C 0.49172 1.08573 -0.04081
 H1761 H 0.45120 1.10831 -0.06151
 H1762 H 0.41862 1.12531 -0.07953
 H1763 H 0.42015 1.16368 -0.09544
 H1764 H 0.45428 1.18525 -0.09348
 H1765 H 0.53429 1.19100 -0.06900
 H1766 H 0.56673 1.17421 -0.05058
 H1767 H 0.56523 1.13586 -0.03462
 H1768 H 0.53131 1.11407 -0.03703
 C1769 C 0.50472 0.37599 -0.06623
 C1770 C 0.48389 0.36503 -0.06702
 C1771 C 0.48244 0.34389 -0.07723
 C1772 C 0.50183 0.33381 -0.08660
 C1773 C 0.52259 0.34492 -0.08614
 C1774 C 0.52404 0.36609 -0.07593
 C1775 C 0.54497 0.37685 -0.07561
 C1776 C 0.56395 0.36698 -0.08509
 C1777 C 0.56255 0.34628 -0.09504
 C1778 C 0.54215 0.33530 -0.09563
 C1779 C 0.46145 0.33323 -0.07773
 C1780 C 0.44243 0.34317 -0.06842
 C1781 C 0.44384 0.36385 -0.05844
 C1782 C 0.46428 0.37473 -0.05770
 C1783 C 0.50047 0.31176 -0.09612
 C1784 C 0.49923 0.29328 -0.10361
 C1785 C 0.50620 0.39729 -0.05517
 C1786 C 0.50675 0.41488 -0.04576
 H1787 H 0.54687 0.39298 -0.06807
 H1788 H 0.57984 0.37544 -0.08469
 H1789 H 0.57735 0.33866 -0.10233
 H1790 H 0.54188 0.31925 -0.10360
 H1791 H 0.45949 0.31714 -0.08533
 H1792 H 0.42652 0.33478 -0.06895
 H1793 H 0.42902 0.37151 -0.05124
 H1794 H 0.46449 0.39080 -0.04978
 C1795 C 0.00549 -0.12081 0.43256
 C1796 C -0.01572 -0.13034 0.42897
 C1797 C -0.01720 -0.15137 0.41854
 C1798 C 0.00253 -0.16279 0.41175
 C1799 C 0.02371 -0.15302 0.41484
 C1800 C 0.02519 -0.13197 0.42528
 C1801 C 0.04653 -0.12257 0.42825
 C1802 C 0.06588 -0.13364 0.42109
 C1803 C 0.06444 -0.15422 0.41089
 C1804 C 0.04364 -0.16388 0.40776
 C1805 C -0.03859 -0.16057 0.41519
 C1806 C -0.05796 -0.14931 0.42195
 C1807 C -0.05652 -0.12876 0.43217
 C1808 C -0.03571 -0.11931 0.43569
 C1809 C 0.00098 -0.18484 0.40221
 C1810 C -0.00051 -0.20329 0.39471
 C1811 C 0.00687 -0.09969 0.44399
 C1812 C 0.00714 -0.08222 0.45365
 H1813 H 0.04848 -0.10659 0.43607
 H1814 H 0.08207 -0.12621 0.42347
 H1815 H 0.07952 -0.16276 0.40539
 H1816 H 0.04336 -0.17989 0.39969
 H1817 H -0.04058 -0.17649 0.40728
 H1818 H -0.07418 -0.15658 0.41922
 H1819 H -0.07162 -0.12008 0.43738
 H1820 H -0.03549 -0.10327 0.44367
 C1821 C 0.49858 -0.12270 0.56657
 C1822 C 0.47970 -0.13636 0.56372
 C1823 C 0.47919 -0.15810 0.57377
 C1824 C 0.49757 -0.16603 0.58660
 C1825 C 0.51623 -0.15219 0.58985
 C1826 C 0.51675 -0.13045 0.57980
 C1827 C 0.53561 -0.11694 0.58322
 C1828 C 0.55347 -0.12469 0.59621
 C1829 C 0.55298 -0.14595 0.60603
 C1830 C 0.53462 -0.15962 0.60294
 C1831 C 0.46018 -0.17148 0.57061
 C1832 C 0.44218 -0.16363 0.55788
 C1833 C 0.44269 -0.14238 0.54805
 C1834 C 0.46117 -0.12882 0.55089
 C1835 C 0.49745 -0.18857 0.59609
 C1836 C 0.49744 -0.20735 0.60376
 C1837 C 0.49943 -0.10086 0.55556
 C1838 C 0.49990 -0.08286 0.54613
 H1839 H 0.53674 -0.10027 0.57596
 H1840 H 0.56776 -0.11413 0.59866
 H1841 H 0.56689 -0.15189 0.61611
 H1842 H 0.53498 -0.17600 0.61096
 H1843 H 0.45899 -0.18812 0.57795
 H1844 H 0.42778 -0.17409 0.55563
 H1845 H 0.42870 -0.13637 0.53813
 H1846 H 0.46074 -0.11240 0.54296
 C1847 C -0.00265 0.37306 1.06375
 C1848 C -0.01887 0.36767 1.08037
 C1849 C -0.01869 0.34610 1.09082
 C1850 C -0.00230 0.33007 1.08458
 C1851 C 0.01400 0.33550 1.06806
 C1852 C 0.01383 0.35706 1.05762
 C1853 C 0.03026 0.36209 1.04112
 C1854 C 0.04640 0.34626 1.03510
 C1855 C 0.04656 0.32518 1.04531
 C1856 C 0.03060 0.31976 1.06161
 C1857 C -0.03509 0.34107 1.10736
 C1858 C -0.05122 0.35691 1.11340
 C1859 C -0.05140 0.37799 1.10317
 C1860 C -0.03546 0.38341 1.08684
 C1861 C -0.00235 0.30789 1.09488
 C1862 C -0.00239 0.28937 1.10320
 C1863 C -0.00298 0.39495 1.05281
 C1864 C -0.00312 0.41303 1.04354
 H1865 H 0.03084 0.37827 1.03271
 H1866 H 0.05883 0.35039 1.02245
 H1867 H 0.05913 0.31294 1.04057
 H1868 H 0.03143 0.30314 1.06907
 H1869 H -0.03563 0.32490 1.11579
 H1870 H -0.06363 0.35279 1.12608
 H1871 H -0.06397 0.39022 1.10791
 H1872 H -0.03628 0.40003 1.07937
 C1873 C 0.77034 0.30982 0.12303
 C1874 C 0.76844 0.29540 0.10466
 C1875 C 0.76797 0.30441 0.08243
 C1876 C 0.76940 0.32776 0.07865
 C1877 C 0.77266 0.34203 0.09691
 C1878 C 0.77311 0.33304 0.11915
 C1879 C 0.77605 0.34769 0.13712
 C1880 C 0.77852 0.37057 0.13325
 C1881 C 0.77809 0.37936 0.11152
 C1882 C 0.77517 0.36534 0.09350
 C1883 C 0.76575 0.28971 0.06439
 C1884 C 0.76409 0.26673 0.06817
 C1885 C 0.76454 0.25792 0.08989
 C1886 C 0.76666 0.27201 0.10798
 C1887 C 0.76528 0.33734 0.05644
 C1888 C 0.76041 0.34592 0.03863
 C1889 C 0.76825 0.30087 0.14581
 C1890 C 0.76587 0.29306 0.16449
 H1891 H 0.77656 0.34161 0.15431
 H1892 H 0.78079 0.38154 0.14719
 H1893 H 0.78003 0.39714 0.10861
 H1894 H 0.77506 0.37293 0.07689
 H1895 H 0.76543 0.29580 0.04720
 H1896 H 0.76246 0.25572 0.05417
 H1897 H 0.76324 0.24006 0.09273
 H1898 H 0.76700 0.26436 0.12456
 C1899 C 0.26932 0.81262 0.62438
 C1900 C 0.26885 0.79840 0.60575
 C1901 C 0.26824 0.80771 0.58365
 C1902 C 0.26813 0.83119 0.58029
 C1903 C 0.26990 0.84536 0.59886
 C1904 C 0.27049 0.83605 0.62096
 C1905 C 0.27195 0.85057 0.63924
 C1906 C 0.27284 0.87364 0.63581
 C1907 C 0.27226 0.88275 0.61422
 C1908 C 0.27079 0.86886 0.59590
 C1909 C 0.26745 0.79319 0.56533
 C1910 C 0.26735 0.77008 0.56872
 C1911 C 0.26796 0.76096 0.59031
 C1912 C 0.26867 0.77488 0.60867
 C1913 C 0.26425 0.84087 0.55810
 C1914 C 0.25978 0.84962 0.54027
 C1915 C 0.26737 0.80321 0.64696
 C1916 C 0.26509 0.79510 0.66551
 H1917 H 0.27251 0.84425 0.65634
 H1918 H 0.27399 0.88451 0.64999
 H1919 H 0.27296 0.90069 0.61165
 H1920 H 0.27049 0.87673 0.57942
 H1921 H 0.26705 0.79952 0.54823
 H1922 H 0.26681 0.75919 0.55451
 H1923 H 0.26790 0.74300 0.59285
 H1924 H 0.26920 0.76700 0.62514
 C1925 C 0.74657 0.69603 0.62064
 C1926 C 0.72832 0.68401 0.61231
 C1927 C 0.72991 0.67431 0.59087
 C1928 C 0.74977 0.67667 0.57791
 C1929 C 0.76783 0.68905 0.58605
 C1930 C 0.76623 0.69879 0.60749
 C1931 C 0.78456 0.71102 0.61535
 C1932 C 0.80390 0.71355 0.60238
 C1933 C 0.80545 0.70400 0.58142
 C1934 C 0.78766 0.69186 0.57325
 C1935 C 0.71146 0.66224 0.58295
 C1936 C 0.69207 0.65981 0.59585
 C1937 C 0.69054 0.66931 0.61682
 C1938 C 0.70840 0.68129 0.62504
 C1939 C 0.75161 0.66549 0.55669
 C1940 C 0.75143 0.65506 0.53970
 C1941 C 0.74527 0.70508 0.64293
 C1942 C 0.74435 0.71242 0.66152
 H1943 H 0.78413 0.71876 0.63155
 H1944 H 0.81777 0.72297 0.60865
 H1945 H 0.82051 0.70601 0.57142
 H1946 H 0.78959 0.68475 0.55684
 H1947 H 0.71176 0.65457 0.56673
 H1948 H 0.67815 0.65051 0.58952
 H1949 H 0.67544 0.66738 0.62679
 H1950 H 0.70640 0.68839 0.64145
 C1951 C 0.24538 0.19410 0.12118
 C1952 C 0.22849 0.17953 0.11420
 C1953 C 0.22994 0.16991 0.09271
 C1954 C 0.24831 0.17492 0.07835
 C1955 C 0.26500 0.18975 0.08519
 C1956 C 0.26354 0.19939 0.10669
 C1957 C 0.28047 0.21415 0.11321
 C1958 C 0.29832 0.21923 0.09889
 C1959 C 0.29974 0.20977 0.07787
 C1960 C 0.28331 0.19517 0.07101
 C1961 C 0.21284 0.15531 0.08613
 C1962 C 0.19489 0.15038 0.10036
 C1963 C 0.19351 0.15979 0.12138
 C1964 C 0.21006 0.17420 0.12831
 C1965 C 0.24992 0.16429 0.05681
 C1966 C 0.24953 0.15431 0.03955
 C1967 C 0.24426 0.20325 0.14344
 C1968 C 0.24347 0.21064 0.16201
 H1969 H 0.28007 0.22193 0.12938
 H1970 H 0.31112 0.23057 0.10414
 H1971 H 0.31363 0.21378 0.06682
 H1972 H 0.28508 0.18823 0.05450
 H1973 H 0.21310 0.14757 0.06995
 H1974 H 0.18199 0.13919 0.09503
 H1975 H 0.17953 0.15591 0.13239
 H1976 H 0.20822 0.18113 0.14481
 C1977 C 0.26841 0.20009 0.88101
 C1978 C 0.26284 0.21242 0.90026
 C1979 C 0.26144 0.20137 0.92153
 C1980 C 0.26561 0.17808 0.92336
 C1981 C 0.27259 0.16604 0.90434
 C1982 C 0.27397 0.17707 0.88309
 C1983 C 0.28058 0.16459 0.86422
 C1984 C 0.28571 0.14187 0.86632
 C1985 C 0.28438 0.13108 0.88712
 C1986 C 0.27789 0.14294 0.90597
 C1987 C 0.25552 0.21394 0.94051
 C1988 C 0.25117 0.23683 0.93855
 C1989 C 0.25252 0.24764 0.91775
 C1990 C 0.25825 0.23565 0.89876
 C1991 C 0.26084 0.16609 0.94419
 C1992 C 0.25594 0.15538 0.96078
 C1993 C 0.26684 0.21051 0.85891
 C1994 C 0.26484 0.21822 0.84022
 H1995 H 0.28194 0.17226 0.84770
 H1996 H 0.29076 0.13259 0.85173
 H1997 H 0.28840 0.11344 0.88867
 H1998 H 0.27718 0.13383 0.92180
 H1999 H 0.25434 0.20624 0.95703
 H2000 H 0.24673 0.24622 0.95325
 H2001 H 0.24913 0.26542 0.91633
 H2002 H 0.25917 0.24477 0.88294
 C2003 C 0.76959 0.70234 0.38230
 C2004 C 0.77669 0.67974 0.38439
 C2005 C 0.77546 0.66847 0.40553
 C2006 C 0.76709 0.67987 0.42441
 C2007 C 0.76141 0.70286 0.42262
 C2008 C 0.76266 0.71414 0.40148
 C2009 C 0.75656 0.73704 0.39999
 C2010 C 0.74953 0.74850 0.41891
 C2011 C 0.74833 0.73746 0.43960
 C2012 C 0.75413 0.71488 0.44153
 C2013 C 0.78233 0.64577 0.40717
 C2014 C 0.79023 0.63454 0.38844
 C2015 C 0.79141 0.64555 0.36775
 C2016 C 0.78473 0.66788 0.36564
 C2017 C 0.76245 0.66742 0.44500
 C2018 C 0.75770 0.65635 0.46140
 C2019 C 0.76780 0.71276 0.36022
 C2020 C 0.76564 0.72045 0.34155
 H2021 H 0.75731 0.74632 0.38425
 H2022 H 0.74500 0.76604 0.41750
 H2023 H 0.74288 0.74645 0.45424
 H2024 H 0.75303 0.70700 0.45797
 H2025 H 0.78181 0.63653 0.42293
 H2026 H 0.79546 0.61719 0.39001
 H2027 H 0.79755 0.63675 0.35325
 H2028 H 0.78603 0.67575 0.34921
 C2029 C 0.25429 0.80217 0.38074
 C2030 C 0.23569 0.81477 0.38852
 C2031 C 0.23659 0.82524 0.40962
 C2032 C 0.25611 0.82310 0.42286
 C2033 C 0.27454 0.81018 0.41527
 C2034 C 0.27363 0.79967 0.39415
 C2035 C 0.29231 0.78691 0.38690
 C2036 C 0.31134 0.78459 0.40010
 C2037 C 0.31222 0.79488 0.42071
 C2038 C 0.29407 0.80756 0.42829
 C2039 C 0.21776 0.83783 0.41693
 C2040 C 0.19867 0.84004 0.40380
 C2041 C 0.19783 0.82981 0.38319
 C2042 C 0.21606 0.81730 0.37556
 C2043 C 0.25714 0.83487 0.44388
 C2044 C 0.25607 0.84574 0.46065
 C2045 C 0.25363 0.79234 0.35870
 C2046 C 0.25281 0.78465 0.34022
 H2047 H 0.29240 0.77859 0.37101
 H2048 H 0.32549 0.77476 0.39431
 H2049 H 0.32705 0.79302 0.43089
 H2050 H 0.29548 0.81523 0.44444
 H2051 H 0.21752 0.84607 0.43284
 H2052 H 0.18446 0.84974 0.40968
 H2053 H 0.18296 0.83156 0.37306
 H2054 H 0.21456 0.80964 0.35941
 C2055 C 0.75618 0.30342 0.88002
 C2056 C 0.77091 0.29477 0.89663
 C2057 C 0.77185 0.30496 0.91791
 C2058 C 0.75808 0.32375 0.92248
 C2059 C 0.74345 0.33250 0.90579
 C2060 C 0.74250 0.32231 0.88456
 C2061 C 0.72769 0.33134 0.86823
 C2062 C 0.71420 0.34989 0.87273
 C2063 C 0.71512 0.35986 0.89347
 C2064 C 0.72954 0.35136 0.90985
 C2065 C 0.78663 0.29599 0.93422
 C2066 C 0.80016 0.27747 0.92967
 C2067 C 0.79927 0.26752 0.90889
 C2068 C 0.78483 0.27600 0.89250
 C2069 C 0.75819 0.33391 0.94441
 C2070 C 0.75629 0.34342 0.96195
 C2071 C 0.75510 0.29312 0.85821
 C2072 C 0.75394 0.28515 0.83986
 H2073 H 0.72634 0.32419 0.85184
 H2074 H 0.70298 0.35656 0.86005
 H2075 H 0.70462 0.37428 0.89690
 H2076 H 0.72963 0.35978 0.92568
 H2077 H 0.78789 0.30320 0.95061
 H2078 H 0.81140 0.27081 0.94233
 H2079 H 0.80981 0.25314 0.90545
 H2080 H 0.78471 0.26769 0.87660
 C2081 C 0.80365 0.37917 0.25080
 C2082 C 0.79631 0.39461 0.26703
 C2083 C 0.80656 0.41588 0.26816
 C2084 C 0.82405 0.42157 0.25308
 C2085 C 0.83130 0.40615 0.23675
 C2086 C 0.82107 0.38491 0.23561
 C2087 C 0.82864 0.36979 0.21919
 C2088 C 0.84581 0.37549 0.20429
 C2089 C 0.85581 0.39624 0.20537
 C2090 C 0.84873 0.41144 0.22137
 C2091 C 0.79900 0.43100 0.28453
 C2092 C 0.78176 0.42531 0.29937
 C2093 C 0.77174 0.40454 0.29827
 C2094 C 0.77888 0.38929 0.28233
 C2095 C 0.83477 0.44319 0.25402
 C2096 C 0.84486 0.46051 0.25302
 C2097 C 0.79370 0.35718 0.24997
 C2098 C 0.78589 0.33873 0.24935
 H2099 H 0.82139 0.35343 0.21767
 H2100 H 0.85137 0.36372 0.19184
 H2101 H 0.86915 0.40060 0.19376
 H2102 H 0.85711 0.42734 0.22151
 H2103 H 0.80631 0.44734 0.28601
 H2104 H 0.77617 0.43707 0.31179
 H2105 H 0.75836 0.40020 0.30984
 H2106 H 0.77057 0.37335 0.28211
 C2107 C 0.30383 0.87977 0.75012
 C2108 C 0.29795 0.89452 0.76751
 C2109 C 0.30845 0.91565 0.76872
 C2110 C 0.32475 0.92191 0.75254
 C2111 C 0.33043 0.90726 0.73497
 C2112 C 0.31994 0.88616 0.73376
 C2113 C 0.32598 0.87178 0.71612
 C2114 C 0.34193 0.87807 0.70012
 C2115 C 0.35219 0.89870 0.70127
 C2116 C 0.34658 0.91318 0.71844
 C2117 C 0.30240 0.93004 0.78630
 C2118 C 0.28639 0.92376 0.80225
 C2119 C 0.27611 0.90313 0.80108
 C2120 C 0.28176 0.88860 0.78395
 C2121 C 0.33606 0.94319 0.75383
 C2122 C 0.34659 0.96024 0.75326
 C2123 C 0.29385 0.85779 0.74935
 C2124 C 0.28599 0.83936 0.74883
 H2125 H 0.31845 0.85557 0.71448
 H2126 H 0.34634 0.86687 0.68676
 H2127 H 0.36457 0.90352 0.68880
 H2128 H 0.35505 0.92903 0.71856
 H2129 H 0.30996 0.94626 0.78787
 H2130 H 0.28194 0.93498 0.81559
 H2131 H 0.26369 0.89834 0.81352
 H2132 H 0.27330 0.87274 0.78372
 C2133 C 0.20553 0.88133 0.26567
 C2134 C 0.18811 0.88605 0.28115
 C2135 C 0.17707 0.90723 0.28037
 C2136 C 0.18353 0.92352 0.26411
 C2137 C 0.20193 0.91932 0.24966
 C2138 C 0.21297 0.89815 0.25044
 C2139 C 0.23108 0.89419 0.23556
 C2140 C 0.23812 0.91071 0.22037
 C2141 C 0.22731 0.93141 0.21961
 C2142 C 0.20940 0.93575 0.23403
 C2143 C 0.15947 0.91148 0.29577
 C2144 C 0.15299 0.89526 0.31154
 C2145 C 0.16376 0.87453 0.31229
 C2146 C 0.18112 0.86988 0.29728
 C2147 C 0.16992 0.94355 0.26068
 C2148 C 0.15798 0.95950 0.25674
 C2149 C 0.21461 0.85879 0.26426
 C2150 C 0.22151 0.83989 0.26249
 H2151 H 0.24005 0.87837 0.23560
 H2152 H 0.25203 0.90742 0.20914
 H2153 H 0.23285 0.94419 0.20778
 H2154 H 0.20158 0.95214 0.23289
 H2155 H 0.15068 0.92740 0.29587
 H2156 H 0.13953 0.89880 0.32324
 H2157 H 0.15866 0.86198 0.32456
 H2158 H 0.18907 0.85356 0.29856
 C2159 C 0.70407 0.38151 0.76507
 C2160 C 0.68755 0.38703 0.78123
 C2161 C 0.67689 0.40840 0.78034
 C2162 C 0.68285 0.42410 0.76332
 C2163 C 0.70043 0.41911 0.74812
 C2164 C 0.71105 0.39774 0.74897
 C2165 C 0.72831 0.39299 0.73333
 C2166 C 0.73493 0.40893 0.71735
 C2167 C 0.72455 0.42985 0.71654
 C2168 C 0.70747 0.43496 0.73168
 C2169 C 0.66016 0.41344 0.79644
 C2170 C 0.65419 0.39782 0.81301
 C2171 C 0.66463 0.37692 0.81390
 C2172 C 0.68111 0.37148 0.79820
 C2173 C 0.66958 0.44438 0.76002
 C2174 C 0.65793 0.46056 0.75612
 C2175 C 0.71283 0.35881 0.76401
 C2176 C 0.71967 0.33987 0.76244
 H2177 H 0.73693 0.37698 0.73336
 H2178 H 0.74819 0.40504 0.70556
 H2179 H 0.72978 0.44219 0.70412
 H2180 H 0.69996 0.45149 0.73046
 H2181 H 0.65166 0.42952 0.79646
 H2182 H 0.64141 0.40196 0.82524
 H2183 H 0.65995 0.36486 0.82681
 H2184 H 0.68882 0.35506 0.79959
 C2185 C 0.69062 0.62305 0.74886
 C2186 C 0.67017 0.61882 0.73809
 C2187 C 0.66080 0.59715 0.73954
 C2188 C 0.67195 0.57982 0.75175
 C2189 C 0.69227 0.58409 0.76269
 C2190 C 0.70166 0.60578 0.76124
 C2191 C 0.72205 0.60966 0.77228
 C2192 C 0.73283 0.59260 0.78442
 C2193 C 0.72362 0.57140 0.78584
 C2194 C 0.70357 0.56710 0.77513
 C2195 C 0.64032 0.59333 0.72856
 C2196 C 0.62948 0.61041 0.71653
 C2197 C 0.63867 0.63160 0.71512
 C2198 C 0.65877 0.63586 0.72575
 C2199 C 0.66263 0.55755 0.75229
 C2200 C 0.65376 0.53966 0.75123
 C2201 C 0.70017 0.64519 0.74731
 C2202 C 0.70799 0.66363 0.74621
 H2203 H 0.72986 0.62587 0.77165
 H2204 H 0.74841 0.59585 0.79276
 H2205 H 0.73206 0.55821 0.79531
 H2206 H 0.69702 0.55036 0.77672
 H2207 H 0.63244 0.57716 0.72918
 H2208 H 0.61385 0.60717 0.70824
 H2209 H 0.63019 0.64481 0.70574
 H2210 H 0.66524 0.65262 0.72416
 C2211 C 0.19030 0.12130 0.24912
 C2212 C 0.17118 0.11658 0.23635
 C2213 C 0.16168 0.09496 0.23767
 C2214 C 0.17138 0.07818 0.25177
 C2215 C 0.19044 0.08292 0.26459
 C2216 C 0.19994 0.10456 0.26327
 C2217 C 0.21902 0.10892 0.27624
 C2218 C 0.22845 0.09237 0.29009
 C2219 C 0.21915 0.07121 0.29137
 C2220 C 0.20035 0.06644 0.27879
 C2221 C 0.14255 0.09064 0.22470
 C2222 C 0.13314 0.10718 0.21082
 C2223 C 0.14245 0.12832 0.20953
 C2224 C 0.16123 0.13307 0.22212
 C2225 C 0.16177 0.05605 0.25256
 C2226 C 0.15271 0.03824 0.25172
 C2227 C 0.19991 0.14342 0.24778
 C2228 C 0.20778 0.16184 0.24680
 H2229 H 0.22685 0.12513 0.27580
 H2230 H 0.24305 0.09599 0.29990
 H2231 H 0.22653 0.05842 0.30216
 H2232 H 0.19367 0.04975 0.28033
 H2233 H 0.13465 0.07448 0.22510
 H2234 H 0.11854 0.10356 0.20101
 H2235 H 0.13510 0.14110 0.19871
 H2236 H 0.16786 0.14977 0.22055
 C2237 C 0.30983 0.12207 0.76706
 C2238 C 0.33123 0.11770 0.77624
 C2239 C 0.34042 0.09568 0.77601
 C2240 C 0.32818 0.07820 0.76652
 C2241 C 0.30627 0.08233 0.75852
 C2242 C 0.29706 0.10433 0.75879
 C2243 C 0.27521 0.10809 0.75044
 C2244 C 0.26281 0.09060 0.74213
 C2245 C 0.27183 0.06909 0.74188
 C2246 C 0.29332 0.06491 0.74993
 C2247 C 0.36192 0.09172 0.78511
 C2248 C 0.37401 0.10904 0.79419
 C2249 C 0.36504 0.13059 0.79436
 C2250 C 0.34391 0.13497 0.78549
 C2251 C 0.33892 0.05667 0.76291
 C2252 C 0.34852 0.03944 0.75863
 C2253 C 0.30118 0.14483 0.76536
 C2254 C 0.29354 0.16351 0.76341
 H2255 H 0.26744 0.12451 0.75034
 H2256 H 0.24610 0.09376 0.73586
 H2257 H 0.26212 0.05555 0.73543
 H2258 H 0.29959 0.04788 0.74950
 H2259 H 0.36953 0.07520 0.78545
 H2260 H 0.39041 0.10572 0.80112
 H2261 H 0.37450 0.14398 0.80144
 H2262 H 0.33760 0.15198 0.78604
 C2263 C 0.80981 0.62362 0.26753
 C2264 C 0.83145 0.61874 0.27589
 C2265 C 0.84018 0.59655 0.27513
 C2266 C 0.82724 0.57942 0.26590
 C2267 C 0.80514 0.58407 0.25872
 C2268 C 0.79639 0.60623 0.25954
 C2269 C 0.77433 0.61050 0.25199
 C2270 C 0.76130 0.59338 0.24389
 C2271 C 0.76987 0.57171 0.24309
 C2272 C 0.79154 0.56701 0.25038
 C2273 C 0.86193 0.59210 0.28340
 C2274 C 0.87470 0.60909 0.29216
 C2275 C 0.86618 0.63079 0.29286
 C2276 C 0.84481 0.63566 0.28483
 C2277 C 0.83740 0.55771 0.26178
 C2278 C 0.84648 0.54029 0.25714
 C2279 C 0.80160 0.64656 0.26625
 C2280 C 0.79423 0.66536 0.26454
 H2281 H 0.76689 0.62707 0.25235
 H2282 H 0.74445 0.59695 0.23822
 H2283 H 0.75967 0.55847 0.23681
 H2284 H 0.79745 0.54988 0.24954
 H2285 H 0.86922 0.57545 0.28330
 H2286 H 0.89131 0.60540 0.29844
 H2287 H 0.87617 0.64393 0.29968
 H2288 H 0.83885 0.65277 0.28578
 C2289 C 0.88099 0.26676 0.20480
 C2290 C 0.88712 0.28310 0.18847
 C2291 C 0.90825 0.28150 0.17746
 C2292 C 0.92306 0.26359 0.18290
 C2293 C 0.91759 0.24824 0.20040
 C2294 C 0.89647 0.24982 0.21138
 C2295 C 0.89118 0.23402 0.22853
 C2296 C 0.90637 0.21718 0.23470
 C2297 C 0.92704 0.21565 0.22397
 C2298 C 0.93267 0.23094 0.20699
 C2299 C 0.91391 0.29777 0.16091
 C2300 C 0.89912 0.31521 0.15545
 C2301 C 0.87846 0.31679 0.16623
 C2302 C 0.87241 0.30093 0.18254
 C2303 C 0.94280 0.25958 0.16918
 C2304 C 0.95856 0.25510 0.15731
 C2305 C 0.85825 0.26614 0.21347
 C2306 C 0.83926 0.26451 0.22020
 H2307 H 0.87534 0.23459 0.23743
 H2308 H 0.90207 0.20526 0.24788
 H2309 H 0.93880 0.20255 0.22883
 H2310 H 0.94900 0.22915 0.19920
 H2311 H 0.92984 0.29727 0.15216
 H2312 H 0.90373 0.32757 0.14279
 H2313 H 0.86704 0.33038 0.16194
 H2314 H 0.85620 0.30285 0.19054
 C2315 C 0.38133 0.76595 0.70481
 C2316 C 0.38777 0.78303 0.68940
 C2317 C 0.40880 0.78156 0.67818
 C2318 C 0.42324 0.76306 0.68252
 C2319 C 0.41742 0.74680 0.69904
 C2320 C 0.39639 0.74824 0.71023
 C2321 C 0.39077 0.73159 0.72642
 C2322 C 0.40554 0.71401 0.73145
 C2323 C 0.42611 0.71259 0.72050
 C2324 C 0.43206 0.72873 0.70445
 C2325 C 0.41475 0.79860 0.66254
 C2326 C 0.40036 0.81666 0.65819
 C2327 C 0.37980 0.81812 0.66920
 C2328 C 0.37347 0.80151 0.68461
 C2329 C 0.44305 0.75964 0.66874
 C2330 C 0.45892 0.75577 0.65679
 C2331 C 0.35865 0.76551 0.71369
 C2332 C 0.33967 0.76417 0.72050
 H2333 H 0.37500 0.73203 0.73546
 H2334 H 0.40099 0.70144 0.74391
 H2335 H 0.43753 0.69891 0.72446
 H2336 H 0.44828 0.72697 0.69644
 H2337 H 0.43061 0.79821 0.65366
 H2338 H 0.40519 0.82960 0.64623
 H2339 H 0.36870 0.83219 0.66578
 H2340 H 0.35736 0.80338 0.69283
 C2341 C 0.38305 0.25401 0.79768
 C2342 C 0.39078 0.27463 0.80564
 C2343 C 0.41221 0.27574 0.81567
 C2344 C 0.42575 0.25626 0.81767
 C2345 C 0.41847 0.23590 0.80871
 C2346 C 0.39705 0.23477 0.79872
 C2347 C 0.38998 0.21414 0.79025
 C2348 C 0.40370 0.19517 0.79159
 C2349 C 0.42467 0.19627 0.80134
 C2350 C 0.43205 0.21635 0.80983
 C2351 C 0.41946 0.29641 0.82381
 C2352 C 0.40593 0.31550 0.82205
 C2353 C 0.38499 0.31443 0.81223
 C2354 C 0.37741 0.29427 0.80410
 C2355 C 0.44598 0.25638 0.83092
 C2356 C 0.46197 0.25481 0.84302
 C2357 C 0.36042 0.25237 0.78929
 C2358 C 0.34150 0.25099 0.78267
 H2359 H 0.37383 0.21246 0.78246
 H2360 H 0.39804 0.17953 0.78501
 H2361 H 0.43528 0.18150 0.80233
 H2362 H 0.44854 0.21639 0.81716
 H2363 H 0.43567 0.29804 0.83149
 H2364 H 0.41175 0.33120 0.82833
 H2365 H 0.37455 0.32931 0.81091
 H2366 H 0.36102 0.29427 0.79656
 C2367 C 0.88361 0.75681 0.29852
 C2368 C 0.89113 0.77749 0.30651
 C2369 C 0.91262 0.77886 0.31639
 C2370 C 0.92645 0.75956 0.31820
 C2371 C 0.91931 0.73911 0.30930
 C2372 C 0.89782 0.73773 0.29948
 C2373 C 0.89092 0.71701 0.29107
 C2374 C 0.90484 0.69819 0.29235
 C2375 C 0.92587 0.69953 0.30192
 C2376 C 0.93311 0.71970 0.31032
 C2377 C 0.91965 0.79959 0.32456
 C2378 C 0.90586 0.81850 0.32300
 C2379 C 0.88486 0.81719 0.31334
 C2380 C 0.87749 0.79697 0.30516
 C2381 C 0.94688 0.75993 0.33115
 C2382 C 0.96311 0.75846 0.34296
 C2383 C 0.86098 0.75493 0.29015
 C2384 C 0.84207 0.75334 0.28352
 H2385 H 0.87473 0.71515 0.28341
 H2386 H 0.89929 0.68248 0.28586
 H2387 H 0.93664 0.68486 0.30285
 H2388 H 0.94965 0.71992 0.31752
 H2389 H 0.93590 0.80141 0.33212
 H2390 H 0.91150 0.83425 0.32932
 H2391 H 0.87421 0.83193 0.31217
 H2392 H 0.86105 0.79678 0.29774
 C2393 C 0.12322 0.76587 0.30837
 C2394 C 0.11659 0.78177 0.32440
 C2395 C 0.09441 0.78163 0.33325
 C2396 C 0.07902 0.76559 0.32597
 C2397 C 0.08536 0.75038 0.30917
 C2398 C 0.10753 0.75049 0.30037
 C2399 C 0.11354 0.73492 0.28378
 C2400 C 0.09809 0.71970 0.27610
 C2401 C 0.07641 0.71960 0.28471
 C2402 C 0.07003 0.73471 0.30106
 C2403 C 0.08821 0.79752 0.34942
 C2404 C 0.10348 0.81319 0.35660
 C2405 C 0.12516 0.81335 0.34794
 C2406 C 0.13174 0.79783 0.33204
 C2407 C 0.05741 0.76330 0.33703
 C2408 C 0.03997 0.75994 0.34674
 C2409 C 0.14621 0.76490 0.30031
 C2410 C 0.16505 0.76336 0.29308
 H2411 H 0.13018 0.73435 0.27653
 H2412 H 0.10297 0.70794 0.26340
 H2413 H 0.06446 0.70776 0.27868
 H2414 H 0.05295 0.73403 0.30716
 H2415 H 0.07151 0.79809 0.35656
 H2416 H 0.09845 0.82531 0.36891
 H2417 H 0.13694 0.82556 0.35356
 H2418 H 0.14876 0.79860 0.32575
 C2419 C 0.62399 0.26181 0.81123
 C2420 C 0.61541 0.28001 0.82354
 C2421 C 0.59321 0.27934 0.83232
 C2422 C 0.57976 0.26050 0.82869
 C2423 C 0.58809 0.24264 0.81574
 C2424 C 0.61027 0.24327 0.80702
 C2425 C 0.61827 0.22511 0.79428
 C2426 C 0.60475 0.20688 0.79026
 C2427 C 0.58306 0.20626 0.79878
 C2428 C 0.57474 0.22387 0.81139
 C2429 C 0.58503 0.29765 0.84470
 C2430 C 0.59837 0.31615 0.84822
 C2431 C 0.62006 0.31681 0.83962
 C2432 C 0.62858 0.29897 0.82744
 C2433 C 0.55800 0.25856 0.83951
 C2434 C 0.54042 0.25555 0.84908
 C2435 C 0.64687 0.26193 0.80284
 C2436 C 0.66563 0.26119 0.79528
 H2437 H 0.63502 0.22479 0.78725
 H2438 H 0.61114 0.19316 0.78046
 H2439 H 0.57260 0.19207 0.79560
 H2440 H 0.55772 0.22264 0.81758
 H2441 H 0.56824 0.29790 0.85164
 H2442 H 0.59182 0.33006 0.85764
 H2443 H 0.63033 0.33124 0.84239
 H2444 H 0.64554 0.30023 0.82107
 C2445 C 0.61882 0.75161 0.69446
 C2446 C 0.61093 0.77160 0.68393
 C2447 C 0.58902 0.77261 0.67489
 C2448 C 0.57518 0.75365 0.67646
 C2449 C 0.58280 0.73390 0.68762
 C2450 C 0.60471 0.73287 0.69663
 C2451 C 0.61207 0.71286 0.70748
 C2452 C 0.59818 0.69440 0.70937
 C2453 C 0.57675 0.69540 0.70055
 C2454 C 0.56906 0.71487 0.68979
 C2455 C 0.58155 0.79265 0.66422
 C2456 C 0.59535 0.81121 0.66254
 C2457 C 0.61677 0.81024 0.67140
 C2458 C 0.62457 0.79071 0.68199
 C2459 C 0.55395 0.75363 0.66493
 C2460 C 0.53695 0.75221 0.65446
 C2461 C 0.64148 0.75023 0.70288
 C2462 C 0.66025 0.74908 0.71002
 H2463 H 0.62860 0.71127 0.71462
 H2464 H 0.60407 0.67924 0.71773
 H2465 H 0.56600 0.68101 0.70207
 H2466 H 0.55222 0.71485 0.68328
 H2467 H 0.56499 0.79420 0.65714
 H2468 H 0.58937 0.82641 0.65433
 H2469 H 0.62742 0.82471 0.67006
 H2470 H 0.64135 0.79076 0.68863
 C2471 C 0.11818 0.24875 0.19558
 C2472 C 0.10928 0.26933 0.18729
 C2473 C 0.08740 0.27022 0.17818
 C2474 C 0.07462 0.25055 0.17740
 C2475 C 0.08325 0.23011 0.18634
 C2476 C 0.10512 0.22921 0.19545
 C2477 C 0.11349 0.20856 0.20408
 C2478 C 0.10063 0.18933 0.20370
 C2479 C 0.07924 0.19020 0.19478
 C2480 C 0.07056 0.21030 0.18619
 C2481 C 0.07890 0.29089 0.16980
 C2482 C 0.09166 0.31018 0.17041
 C2483 C 0.11306 0.30932 0.17933
 C2484 C 0.12186 0.28918 0.18770
 C2485 C 0.05341 0.25074 0.16582
 C2486 C 0.03640 0.24947 0.15533
 C2487 C 0.14084 0.24760 0.20402
 C2488 C 0.15963 0.24669 0.21112
 H2489 H 0.13003 0.20704 0.21121
 H2490 H 0.10729 0.17368 0.21039
 H2491 H 0.06930 0.17522 0.19454
 H2492 H 0.05380 0.21013 0.17951
 H2493 H 0.06230 0.29237 0.16278
 H2494 H 0.08490 0.32587 0.16395
 H2495 H 0.12291 0.32435 0.17976
 H2496 H 0.13857 0.28935 0.19448
 C2497 C -0.05547 0.99476 0.87325
 C2498 C -0.05343 1.01469 0.86021
 C2499 C -0.06399 1.01660 0.83904
 C2500 C -0.07647 0.99856 0.83108
 C2501 C -0.07795 0.97838 0.84383
 C2502 C -0.06744 0.97649 0.86501
 C2503 C -0.06933 0.95627 0.87759
 C2504 C -0.08126 0.93839 0.86943
 C2505 C -0.09152 0.94020 0.84868
 C2506 C -0.08995 0.95992 0.83595
 C2507 C -0.06192 1.03672 0.82636
 C2508 C -0.04971 1.05449 0.83437
 C2509 C -0.03936 1.05264 0.85508
 C2510 C -0.04115 1.03302 0.86793
 C2511 C -0.08860 1.00093 0.81027
 C2512 C -0.09948 1.00206 0.79343
 C2513 C -0.04591 0.99340 0.89544
 C2514 C -0.03815 0.99289 0.91396
 H2515 H -0.06159 0.95405 0.89380
 H2516 H -0.08253 0.92304 0.87926
 H2517 H -0.10075 0.92626 0.84239
 H2518 H -0.09818 0.96049 0.81990
 H2519 H -0.06965 1.03891 0.81014
 H2520 H -0.04827 1.06976 0.82445
 H2521 H -0.02989 1.06648 0.86123
 H2522 H -0.03277 1.03237 0.88391
 C2523 C 0.44580 0.49541 0.37237
 C2524 C 0.44563 0.51580 0.35988
 C2525 C 0.43514 0.51704 0.33866
 C2526 C 0.42491 0.49790 0.33009
 C2527 C 0.42569 0.47732 0.34226
 C2528 C 0.43617 0.47608 0.36349
 C2529 C 0.43660 0.45541 0.37548
 C2530 C 0.42695 0.43648 0.36670
 C2531 C 0.41667 0.43768 0.34592
 C2532 C 0.41599 0.45782 0.33378
 C2533 C 0.43497 0.53763 0.32654
 C2534 C 0.44495 0.55647 0.33515
 C2535 C 0.45524 0.55526 0.35591
 C2536 C 0.45562 0.53522 0.36822
 C2537 C 0.41260 0.49952 0.30933
 C2538 C 0.40160 0.50022 0.29256
 C2539 C 0.45526 0.49457 0.39461
 C2540 C 0.46296 0.49448 0.41315
 H2541 H 0.44442 0.45365 0.39169
 H2542 H 0.42745 0.42079 0.37606
 H2543 H 0.40919 0.42293 0.33917
 H2544 H 0.40785 0.45790 0.31767
 H2545 H 0.42721 0.53935 0.31029
 H2546 H 0.44470 0.57208 0.32565
 H2547 H 0.46298 0.56994 0.36253
 H2548 H 0.46384 0.53511 0.38428
 C2549 C 0.55823 0.00879 0.37031
 C2550 C 0.57102 0.02675 0.36160
 C2551 C 0.58071 0.02543 0.33987
 C2552 C 0.57754 0.00613 0.32703
 C2553 C 0.56432 -0.01160 0.33552
 C2554 C 0.55461 -0.01027 0.35725
 C2555 C 0.54155 -0.02828 0.36548
 C2556 C 0.53820 -0.04705 0.35259
 C2557 C 0.54772 -0.04834 0.33134
 C2558 C 0.56065 -0.03087 0.32282
 C2559 C 0.59358 0.04353 0.33155
 C2560 C 0.59678 0.06239 0.34434
 C2561 C 0.58729 0.06368 0.36561
 C2562 C 0.57454 0.04611 0.37422
 C2563 C 0.58885 0.00414 0.30561
 C2564 C 0.59920 0.00297 0.28829
 C2565 C 0.54911 0.00968 0.39283
 C2566 C 0.54143 0.00989 0.41151
 H2567 H 0.53378 -0.02805 0.38190
 H2568 H 0.52816 -0.06067 0.35914
 H2569 H 0.54507 -0.06296 0.32140
 H2570 H 0.56768 -0.03261 0.30618
 H2571 H 0.60126 0.04335 0.31508
 H2572 H 0.60667 0.07608 0.33772
 H2573 H 0.58981 0.07837 0.37549
 H2574 H 0.56747 0.04789 0.39084
 C2575 C 0.05555 0.50499 0.86841
 C2576 C 0.06503 0.52443 0.85857
 C2577 C 0.07495 0.52350 0.83691
 C2578 C 0.07531 0.50314 0.82527
 C2579 C 0.06527 0.48387 0.83485
 C2580 C 0.05535 0.48479 0.85650
 C2581 C 0.04554 0.46526 0.86584
 C2582 C 0.04555 0.44540 0.85408
 C2583 C 0.05527 0.44452 0.83290
 C2584 C 0.06505 0.46348 0.82331
 C2585 C 0.08452 0.54310 0.82746
 C2586 C 0.08424 0.56304 0.83907
 C2587 C 0.07451 0.56394 0.86025
 C2588 C 0.06500 0.54490 0.86998
 C2589 C 0.08716 0.50174 0.80409
 C2590 C 0.09792 0.50089 0.78700
 C2591 C 0.04630 0.50560 0.89089
 C2592 C 0.03855 0.50565 0.90955
 H2593 H 0.03775 0.46511 0.88226
 H2594 H 0.03797 0.43063 0.86147
 H2595 H 0.05523 0.42906 0.82383
 H2596 H 0.07237 0.46200 0.80676
 H2597 H 0.09223 0.54325 0.81100
 H2598 H 0.09160 0.57788 0.83157
 H2599 H 0.07432 0.57947 0.86920
 H2600 H 0.05761 0.54642 0.88649
 C2601 C 0.07005 0.49381 0.62022
 C2602 C 0.07596 0.51498 0.62832
 C2603 C 0.08582 0.51659 0.64977
 C2604 C 0.08970 0.49704 0.66299
 C2605 C 0.08429 0.47583 0.65467
 C2606 C 0.07443 0.47421 0.63321
 C2607 C 0.06907 0.45285 0.62528
 C2608 C 0.07332 0.43361 0.63819
 C2609 C 0.08296 0.43519 0.65917
 C2610 C 0.08843 0.45600 0.66740
 C2611 C 0.09150 0.53794 0.65754
 C2612 C 0.08756 0.55715 0.64450
 C2613 C 0.07793 0.55558 0.62353
 C2614 C 0.07215 0.53479 0.61545
 C2615 C 0.09869 0.49885 0.68537
 C2616 C 0.10581 0.50043 0.70406
 C2617 C 0.05906 0.49239 0.59872
 C2618 C 0.04976 0.49198 0.58092
 H2619 H 0.06157 0.45079 0.60905
 H2620 H 0.06912 0.41740 0.63187
 H2621 H 0.08619 0.42020 0.66913
 H2622 H 0.09595 0.45637 0.68380
 H2623 H 0.09908 0.54002 0.67373
 H2624 H 0.09203 0.57333 0.65070
 H2625 H 0.07492 0.57054 0.61345
 H2626 H 0.06473 0.53445 0.59902
 C2627 C 0.56690 0.99257 0.12274
 C2628 C 0.57119 1.01410 0.13098
 C2629 C 0.58167 1.01634 0.15205
 C2630 C 0.58779 0.99704 0.16480
 C2631 C 0.58389 0.97551 0.15639
 C2632 C 0.57342 0.97327 0.13529
 C2633 C 0.56963 0.95159 0.12727
 C2634 C 0.57598 0.93264 0.13974
 C2635 C 0.58619 0.93482 0.16038
 C2636 C 0.59017 0.95597 0.16868
 C2637 C 0.58571 1.03803 0.15995
 C2638 C 0.57959 1.05698 0.14739
 C2639 C 0.56933 1.05481 0.12679
 C2640 C 0.56514 1.03367 0.11860
 C2641 C 0.59750 0.99940 0.18681
 C2642 C 0.60516 1.00145 0.20523
 C2643 C 0.55563 0.99047 0.10146
 C2644 C 0.54621 0.98967 0.08373
 H2645 H 0.56175 0.94906 0.11131
 H2646 H 0.57296 0.91617 0.13336
 H2647 H 0.59104 0.92005 0.17002
 H2648 H 0.59822 0.95681 0.18478
 H2649 H 0.59368 1.04058 0.17585
 H2650 H 0.58283 1.07344 0.15368
 H2651 H 0.56461 1.06958 0.11709
 H2652 H 0.55715 1.03288 0.10247
 C2653 C 0.43098 0.49934 0.12534
 C2654 C 0.42009 0.51878 0.13335
 C2655 C 0.40993 0.51845 0.15496
 C2656 C 0.41072 0.49869 0.16842
 C2657 C 0.42116 0.47911 0.16021
 C2658 C 0.43132 0.47943 0.13860
 C2659 C 0.44174 0.45967 0.13080
 C2660 C 0.44211 0.44016 0.14395
 C2661 C 0.43219 0.43985 0.16508
 C2662 C 0.42182 0.45905 0.17320
 C2663 C 0.39924 0.53812 0.16266
 C2664 C 0.39858 0.55754 0.14937
 C2665 C 0.40850 0.55785 0.12823
 C2666 C 0.41917 0.53874 0.12023
 C2667 C 0.40139 0.49861 0.19094
 C2668 C 0.39408 0.49841 0.20981
 C2669 C 0.44229 0.49986 0.10372
 C2670 C 0.45201 0.49995 0.08595
 H2671 H 0.44965 0.45905 0.11446
 H2672 H 0.45015 0.42520 0.13771
 H2673 H 0.43253 0.42465 0.17523
 H2674 H 0.41430 0.45796 0.18973
 H2675 H 0.39125 0.53867 0.17898
 H2676 H 0.39032 0.57242 0.15551
 H2677 H 0.40794 0.57298 0.11796
 H2678 H 0.42662 0.53978 0.10367
 C2679 C -0.06929 -0.00027 0.62620
 C2680 C -0.08025 0.01925 0.63394
 C2681 C -0.09042 0.01919 0.65555
 C2682 C -0.08956 -0.00038 0.66928
 C2683 C -0.07900 -0.02003 0.66136
 C2684 C -0.06884 -0.01998 0.63976
 C2685 C -0.05829 -0.03979 0.63225
 C2686 C -0.05780 -0.05910 0.64570
 C2687 C -0.06773 -0.05915 0.66682
 C2688 C -0.07824 -0.03989 0.67465
 C2689 C -0.10118 0.03893 0.66297
 C2690 C -0.10189 0.05817 0.64943
 C2691 C -0.09196 0.05823 0.62830
 C2692 C -0.08123 0.03904 0.62055
 C2693 C -0.09896 -0.00015 0.69176
 C2694 C -0.10637 0.00002 0.71057
 C2695 C -0.05807 0.00001 0.60453
 C2696 C -0.04851 0.00020 0.58668
 H2697 H -0.05035 -0.04059 0.61594
 H2698 H -0.04966 -0.07411 0.63969
 H2699 H -0.06731 -0.07420 0.67720
 H2700 H -0.08576 -0.04078 0.69119
 H2701 H -0.10918 0.03969 0.67927
 H2702 H -0.11020 0.07312 0.65536
 H2703 H -0.09256 0.07322 0.61783
 H2704 H -0.07378 0.03988 0.60399
 C2705 C -0.12680 0.94123 0.99337
 C2706 C -0.13246 0.92522 0.97738
 C2707 C -0.15354 0.91458 0.97878
 C2708 C -0.16877 0.92003 0.99619
 C2709 C -0.16331 0.93640 1.01188
 C2710 C -0.14224 0.94704 1.01047
 C2711 C -0.13706 0.96328 1.02643
 C2712 C -0.15229 0.96884 1.04327
 C2713 C -0.17292 0.95842 1.04462
 C2714 C -0.17847 0.94237 1.02915
 C2715 C -0.15882 0.89854 0.96265
 C2716 C -0.14369 0.89319 0.94564
 C2717 C -0.12307 0.90362 0.94427
 C2718 C -0.11742 0.91945 0.95993
 C2719 C -0.18981 0.90839 0.99815
 C2720 C -0.20697 0.89812 0.99920
 C2721 C -0.10485 0.95117 0.99273
 C2722 C -0.08655 0.95929 0.99279
 H2723 H -0.12124 0.97187 1.02605
 H2724 H -0.14806 0.98130 1.05534
 H2725 H -0.18471 0.96281 1.05772
 H2726 H -0.19473 0.93474 1.03085
 H2727 H -0.17466 0.89000 0.96296
 H2728 H -0.14801 0.88089 0.93344
 H2729 H -0.11140 0.89945 0.93100
 H2730 H -0.10120 0.92713 0.95816
 C2731 C 0.37431 0.44366 0.49231
 C2732 C 0.37013 0.42547 0.47828
 C2733 C 0.34932 0.41435 0.47981
 C2734 C 0.33283 0.42152 0.49535
 C2735 C 0.33681 0.44003 0.50901
 C2736 C 0.35763 0.45115 0.50747
 C2737 C 0.36130 0.46958 0.52137
 C2738 C 0.34486 0.47678 0.53635
 C2739 C 0.32450 0.46588 0.53784
 C2740 C 0.32042 0.44769 0.52437
 C2741 C 0.34555 0.39610 0.46569
 C2742 C 0.36190 0.38906 0.45053
 C2743 C 0.38227 0.39995 0.44905
 C2744 C 0.38643 0.41795 0.46273
 C2745 C 0.31196 0.40959 0.49740
 C2746 C 0.29493 0.39910 0.49850
 C2747 C 0.39606 0.45404 0.49182
 C2748 C 0.41427 0.46236 0.49201
 H2749 H 0.37685 0.47863 0.52077
 H2750 H 0.34794 0.49091 0.54684
 H2751 H 0.31178 0.47154 0.54950
 H2752 H 0.30432 0.43976 0.52610
 H2753 H 0.32997 0.38710 0.46619
 H2754 H 0.35873 0.37509 0.43986
 H2755 H 0.39491 0.39443 0.43724
 H2756 H 0.40252 0.42592 0.46093
 C2757 C 0.37122 0.55629 0.00727
 C2758 C 0.35626 0.55045 -0.00983
 C2759 C 0.33449 0.56028 -0.01063
 C2760 C 0.32782 0.57587 0.00567
 C2761 C 0.34262 0.58137 0.02304
 C2762 C 0.36439 0.57155 0.02384
 C2763 C 0.37892 0.57735 0.04130
 C2764 C 0.37215 0.59246 0.05751
 C2765 C 0.35088 0.60210 0.05672
 C2766 C 0.33621 0.59668 0.03973
 C2767 C 0.31987 0.55429 -0.02793
 C2768 C 0.32656 0.53899 -0.04400
 C2769 C 0.34783 0.52935 -0.04322
 C2770 C 0.36258 0.53495 -0.02637
 C2771 C 0.30611 0.58693 0.00417
 C2772 C 0.28851 0.59695 0.00321
 C2773 C 0.39370 0.54681 0.00761
 C2774 C 0.41230 0.53880 0.00757
 H2775 H 0.39562 0.57027 0.04264
 H2776 H 0.38347 0.59670 0.07076
 H2777 H 0.34569 0.61383 0.06935
 H2778 H 0.31983 0.60457 0.03988
 H2779 H 0.30314 0.56130 -0.02920
 H2780 H 0.31516 0.53459 -0.05712
 H2781 H 0.35294 0.51747 -0.05573
 H2782 H 0.37893 0.52698 -0.02645
 C2783 C -0.13003 0.06033 0.50492
 C2784 C -0.14656 0.05259 0.49023
 C2785 C -0.16803 0.06309 0.48965
 C2786 C -0.17284 0.08125 0.50376
 C2787 C -0.15641 0.08877 0.51869
 C2788 C -0.13495 0.07828 0.51927
 C2789 C -0.11879 0.08613 0.53428
 C2790 C -0.12369 0.10386 0.54831
 C2791 C -0.14466 0.11415 0.54773
 C2792 C -0.16090 0.10676 0.53314
 C2793 C -0.18425 0.05515 0.47478
 C2794 C -0.17940 0.03732 0.46086
 C2795 C -0.15842 0.02704 0.46142
 C2796 C -0.14212 0.03452 0.47591
 C2797 C -0.19441 0.09262 0.50262
 C2798 C -0.21192 0.10284 0.50201
 C2799 C -0.10789 0.05007 0.50504
 C2800 C -0.08945 0.04167 0.50508
 H2801 H -0.10224 0.07867 0.53536
 H2802 H -0.11114 0.10963 0.55970
 H2803 H -0.14839 0.12792 0.55866
 H2804 H -0.17697 0.11529 0.53335
 H2805 H -0.20082 0.06260 0.47378
 H2806 H -0.19200 0.03145 0.44958
 H2807 H -0.15474 0.01319 0.45058
 H2808 H -0.12606 0.02597 0.47576
 C2809 C 0.62518 0.06819 0.49200
 C2810 C 0.63304 0.08276 0.47475
 C2811 C 0.65415 0.09326 0.47681
 C2812 C 0.66726 0.08918 0.49614
 C2813 C 0.65935 0.07468 0.51343
 C2814 C 0.63829 0.06417 0.51136
 C2815 C 0.63080 0.04975 0.52891
 C2816 C 0.64371 0.04584 0.54793
 C2817 C 0.66428 0.05612 0.54995
 C2818 C 0.67210 0.07037 0.53295
 C2819 C 0.66164 0.10771 0.45931
 C2820 C 0.64866 0.11173 0.44035
 C2821 C 0.62804 0.10151 0.43836
 C2822 C 0.62024 0.08716 0.45531
 C2823 C 0.68902 0.09956 0.49821
 C2824 C 0.70725 0.10771 0.50019
 C2825 C 0.60356 0.05746 0.49017
 C2826 C 0.58568 0.04831 0.48971
 H2827 H 0.61493 0.04134 0.52816
 H2828 H 0.63771 0.03478 0.56118
 H2829 H 0.67424 0.05303 0.56476
 H2830 H 0.68821 0.07797 0.53532
 H2831 H 0.67756 0.11605 0.46011
 H2832 H 0.65462 0.12287 0.42715
 H2833 H 0.61803 0.10469 0.42360
 H2834 H 0.60411 0.07959 0.45302
 C2835 C 0.12248 0.56348 0.99109
 C2836 C 0.13049 0.57857 0.97437
 C2837 C 0.15180 0.58859 0.97673
 C2838 C 0.16497 0.58350 0.99583
 C2839 C 0.15692 0.56843 1.01255
 C2840 C 0.13566 0.55840 1.01018
 C2841 C 0.12805 0.54338 1.02715
 C2842 C 0.14103 0.53842 1.04590
 C2843 C 0.16180 0.54822 1.04821
 C2844 C 0.16974 0.56306 1.03179
 C2845 C 0.15945 0.60356 0.95976
 C2846 C 0.14643 0.60856 0.94103
 C2847 C 0.12560 0.59881 0.93875
 C2848 C 0.11765 0.58396 0.95518
 C2849 C 0.18687 0.59349 0.99823
 C2850 C 0.20520 0.60139 1.00038
 C2851 C 0.10063 0.55327 0.98897
 C2852 C 0.08258 0.54447 0.98830
 H2853 H 0.11202 0.53529 1.02615
 H2854 H 0.13494 0.52689 1.05870
 H2855 H 0.17182 0.54431 1.06281
 H2856 H 0.18600 0.57025 1.03437
 H2857 H 0.17553 0.61157 0.96078
 H2858 H 0.15252 0.62008 0.92821
 H2859 H 0.11555 0.60276 0.92418
 H2860 H 0.10137 0.57678 0.95268
 C2861 C 0.12850 0.43425 0.49597
 C2862 C 0.13718 0.42490 0.51612
 C2863 C 0.15857 0.41424 0.51612
 C2864 C 0.17115 0.41301 0.49598
 C2865 C 0.16229 0.42198 0.47575
 C2866 C 0.14091 0.43264 0.47575
 C2867 C 0.13242 0.44153 0.45533
 C2868 C 0.14471 0.43990 0.43548
 C2869 C 0.16562 0.42947 0.43549
 C2870 C 0.17440 0.42059 0.45534
 C2871 C 0.16692 0.40504 0.53646
 C2872 C 0.15447 0.40631 0.55624
 C2873 C 0.13356 0.41674 0.55624
 C2874 C 0.12493 0.42596 0.53647
 C2875 C 0.19340 0.40301 0.49614
 C2876 C 0.21200 0.39502 0.49632
 C2877 C 0.10691 0.44565 0.49606
 C2878 C 0.08899 0.45513 0.49619
 H2879 H 0.11623 0.44978 0.45447
 H2880 H 0.13796 0.44677 0.42001
 H2881 H 0.17509 0.42823 0.42002
 H2882 H 0.19072 0.41259 0.45448
 H2883 H 0.18309 0.39673 0.53730
 H2884 H 0.16110 0.39916 0.57165
 H2885 H 0.12395 0.41769 0.57165
 H2886 H 0.10857 0.43388 0.53731
 C2887 C 0.62608 0.93323 -0.00198
 C2888 C 0.63228 0.91778 0.01523
 C2889 C 0.65392 0.90765 0.01495
 C2890 C 0.66918 0.91299 -0.00256
 C2891 C 0.66292 0.92828 -0.01987
 C2892 C 0.64130 0.93844 -0.01958
 C2893 C 0.63545 0.95375 -0.03702
 C2894 C 0.65052 0.95887 -0.05426
 C2895 C 0.67166 0.94892 -0.05454
 C2896 C 0.67788 0.93379 -0.03760
 C2897 C 0.65979 0.89234 0.03239
 C2898 C 0.64471 0.88719 0.04961
 C2899 C 0.62353 0.89706 0.04985
 C2900 C 0.61729 0.91220 0.03291
 C2901 C 0.69144 0.90303 -0.00264
 C2902 C 0.71002 0.89498 -0.00271
 C2903 C 0.60417 0.94397 -0.00149
 C2904 C 0.58605 0.95304 -0.00115
 H2905 H 0.61919 0.96191 -0.03755
 H2906 H 0.64577 0.97062 -0.06745
 H2907 H 0.68331 0.95295 -0.06796
 H2908 H 0.69450 0.92648 -0.03857
 H2909 H 0.67607 0.88421 0.03291
 H2910 H 0.64948 0.87546 0.06282
 H2911 H 0.61186 0.89298 0.06325
 H2912 H 0.60063 0.91944 0.03382
 C2913 C -0.00331 0.87220 0.94401
 C2914 C -0.02321 0.86158 0.93767
 C2915 C -0.02204 0.84034 0.92756
 C2916 C -0.00096 0.82991 0.92384
 C2917 C 0.01889 0.84027 0.93071
 C2918 C 0.01772 0.86150 0.94082
 C2919 C 0.03782 0.87164 0.94741
 C2920 C 0.05846 0.86107 0.94412
 C2921 C 0.05959 0.84028 0.93423
 C2922 C 0.04008 0.82992 0.92755
 C2923 C -0.04215 0.83008 0.92122
 C2924 C -0.06283 0.84050 0.92482
 C2925 C -0.06396 0.86128 0.93472
 C2926 C -0.04443 0.87179 0.94108
 C2927 C 0.00029 0.80916 0.91185
 C2928 C 0.00073 0.79240 0.90110
 C2929 C -0.00438 0.89423 0.95355
 C2930 C -0.00483 0.91255 0.96144
 H2931 H 0.03781 0.88780 0.95518
 H2932 H 0.07366 0.86905 0.94928
 H2933 H 0.07566 0.83212 0.93173
 H2934 H 0.04179 0.81373 0.91997
 H2935 H -0.04214 0.81389 0.91352
 H2936 H -0.07804 0.83239 0.91992
 H2937 H -0.08005 0.86929 0.93750
 H2938 H -0.04616 0.88796 0.94873
 C2939 C 0.49554 0.37494 0.44339
 C2940 C 0.47813 0.36873 0.42899
 C2941 C 0.47922 0.34777 0.41835
 C2942 C 0.49771 0.33318 0.42219
 C2943 C 0.51484 0.33916 0.43700
 C2944 C 0.51375 0.36013 0.44765
 C2945 C 0.53114 0.36583 0.46232
 C2946 C 0.54908 0.35122 0.46632
 C2947 C 0.55013 0.33071 0.45588
 C2948 C 0.53325 0.32466 0.44136
 C2949 C 0.46168 0.34196 0.40389
 C2950 C 0.44361 0.35646 0.40008
 C2951 C 0.44257 0.37697 0.41051
 C2952 C 0.45958 0.38313 0.42482
 C2953 C 0.49935 0.31237 0.41033
 C2954 C 0.50012 0.29548 0.39978
 C2955 C 0.49508 0.39681 0.45329
 C2956 C 0.49510 0.41506 0.46132
 H2957 H 0.53105 0.38158 0.47086
 H2958 H 0.56223 0.35584 0.47760
 H2959 H 0.56410 0.31942 0.45904
 H2960 H 0.53478 0.30852 0.43365
 H2961 H 0.46171 0.32617 0.39542
 H2962 H 0.43036 0.35175 0.38898
 H2963 H 0.42850 0.38818 0.40751
 H2964 H 0.45800 0.39925 0.43258
 C2965 C 0.00861 0.37025 0.55292
 C2966 C -0.00693 0.35456 0.54523
 C2967 C -0.00795 0.33296 0.55549
 C2968 C 0.00657 0.32723 0.57332
 C2969 C 0.02254 0.34270 0.58059
 C2970 C 0.02356 0.36430 0.57035
 C2971 C 0.03951 0.37958 0.57800
 C2972 C 0.05407 0.37368 0.59529
 C2973 C 0.05309 0.35254 0.60532
 C2974 C 0.03755 0.33716 0.59812
 C2975 C -0.02372 0.31759 0.54769
 C2976 C -0.03808 0.32340 0.53020
 C2977 C -0.03708 0.34454 0.52015
 C2978 C -0.02172 0.36001 0.52751
 C2979 C 0.00451 0.30588 0.58497
 C2980 C 0.00316 0.28870 0.59569
 C2981 C 0.00878 0.39269 0.54336
 C2982 C 0.00868 0.41140 0.53558
 H2983 H 0.04095 0.39621 0.57070
 H2984 H 0.06618 0.38556 0.60092
 H2985 H 0.06443 0.34801 0.61874
 H2986 H 0.03749 0.32091 0.60641
 H2987 H -0.02506 0.30093 0.55496
 H2988 H -0.05004 0.31144 0.52443
 H2989 H -0.04827 0.34897 0.50657
 H2990 H -0.02155 0.37622 0.51915
 C2991 C 0.50560 0.86719 0.05505
 C2992 C 0.52233 0.86019 0.07036
 C2993 C 0.52150 0.83848 0.08038
 C2994 C 0.50393 0.82393 0.07499
 C2995 C 0.48757 0.83069 0.05920
 C2996 C 0.48841 0.85240 0.04917
 C2997 C 0.47180 0.85887 0.03350
 C2998 C 0.45483 0.84429 0.02793
 C2999 C 0.45401 0.82306 0.03778
 C3000 C 0.47015 0.81624 0.05325
 C3001 C 0.53831 0.83190 0.09581
 C3002 C 0.55544 0.84636 0.10117
 C3003 C 0.55627 0.86759 0.09133
 C3004 C 0.53995 0.87452 0.07609
 C3005 C 0.50220 0.80251 0.08659
 C3006 C 0.50128 0.78528 0.09729
 C3007 C 0.50573 0.88976 0.04579
 C3008 C 0.50560 0.90854 0.03818
 H3009 H 0.47176 0.87520 0.02537
 H3010 H 0.44227 0.84950 0.01590
 H3011 H 0.44080 0.81180 0.03341
 H3012 H 0.46887 0.79955 0.06043
 H3013 H 0.53845 0.81552 0.10385
 H3014 H 0.56814 0.84104 0.11301
 H3015 H 0.56962 0.87876 0.09553
 H3016 H 0.54133 0.89117 0.06885
 C3017 C 0.49342 0.61928 0.07000
 C3018 C 0.51479 0.62851 0.07349
 C3019 C 0.51659 0.64970 0.08354
 C3020 C 0.49704 0.66156 0.09005
 C3021 C 0.47570 0.65209 0.08709
 C3022 C 0.47389 0.63087 0.07703
 C3023 C 0.45240 0.62178 0.07417
 C3024 C 0.43322 0.63331 0.08105
 C3025 C 0.43498 0.65404 0.09086
 C3026 C 0.45593 0.66341 0.09390
 C3027 C 0.53812 0.65861 0.08675
 C3028 C 0.55733 0.64691 0.08026
 C3029 C 0.55558 0.62620 0.07043
 C3030 C 0.53461 0.61702 0.06704
 C3031 C 0.49891 0.68379 0.09908
 C3032 C 0.50061 0.70241 0.10611
 C3033 C 0.49172 0.59806 0.05882
 C3034 C 0.49128 0.58051 0.04932
 H3035 H 0.45021 0.60569 0.06663
 H3036 H 0.41691 0.62611 0.07874
 H3037 H 0.42002 0.66294 0.09614
 H3038 H 0.45646 0.67955 0.10167
 H3039 H 0.54036 0.67465 0.09437
 H3040 H 0.57366 0.65397 0.08288
 H3041 H 0.57055 0.61717 0.06542
 H3042 H 0.53414 0.60084 0.05936
 C3043 C -0.00655 0.12272 0.56857
 C3044 C 0.01382 0.12906 0.57840
 C3045 C 0.01552 0.15029 0.58838
 C3046 C -0.00315 0.16509 0.58847
 C3047 C -0.02370 0.15852 0.57918
 C3048 C -0.02540 0.13727 0.56919
 C3049 C -0.04606 0.13113 0.55988
 C3050 C -0.06454 0.14555 0.56046
 C3051 C -0.06290 0.16630 0.57025
 C3052 C -0.04275 0.17280 0.57953
 C3053 C 0.03608 0.15628 0.59803
 C3054 C 0.05445 0.14170 0.59781
 C3055 C 0.05280 0.12095 0.58803
 C3056 C 0.03277 0.11461 0.57842
 C3057 C -0.00099 0.18731 0.59743
 C3058 C 0.00085 0.20590 0.60448
 C3059 C -0.00786 0.10148 0.55742
 C3060 C -0.00830 0.08385 0.54806
 H3061 H -0.04816 0.11513 0.55212
 H3062 H -0.08022 0.14059 0.55326
 H3063 H -0.07731 0.17743 0.57067
 H3064 H -0.04231 0.18909 0.58701
 H3065 H 0.03817 0.17222 0.60588
 H3066 H 0.07004 0.14655 0.60527
 H3067 H 0.06711 0.10968 0.58791
 H3068 H 0.03231 0.09826 0.57106
 C3069 C 0.50269 0.12810 0.43188
 C3070 C 0.52266 0.13793 0.42369
 C3071 C 0.52196 0.15959 0.41344
 C3072 C 0.50130 0.17129 0.41148
 C3073 C 0.48127 0.16126 0.41922
 C3074 C 0.48197 0.13961 0.42946
 C3075 C 0.46172 0.12996 0.43714
 C3076 C 0.44138 0.14135 0.43473
 C3077 C 0.44070 0.16251 0.42471
 C3078 C 0.46036 0.17245 0.41703
 C3079 C 0.54214 0.16909 0.40541
 C3080 C 0.56244 0.15751 0.40743
 C3081 C 0.56312 0.13634 0.41747
 C3082 C 0.54351 0.12658 0.42554
 C3083 C 0.50065 0.19383 0.40199
 C3084 C 0.49992 0.21265 0.39441
 C3085 C 0.50342 0.10634 0.44310
 C3086 C 0.50365 0.08837 0.45261
 H3087 H 0.46137 0.11351 0.44502
 H3088 H 0.42605 0.13370 0.44068
 H3089 H 0.42485 0.17129 0.42287
 H3090 H 0.45896 0.18893 0.40932
 H3091 H 0.54245 0.18550 0.39744
 H3092 H 0.57771 0.16501 0.40119
 H3093 H 0.57892 0.12741 0.41901
 H3094 H 0.54487 0.11007 0.43319
 C3095 C 0.00091 0.62495 0.93142
 C3096 C 0.01928 0.63237 0.91821
 C3097 C 0.01876 0.65411 0.90813
 C3098 C -0.00010 0.66829 0.91133
 C3099 C -0.01862 0.66071 0.92421
 C3100 C -0.01811 0.63899 0.93429
 C3101 C -0.03679 0.63183 0.94717
 C3102 C -0.05545 0.64572 0.94999
 C3103 C -0.05595 0.66696 0.94012
 C3104 C -0.03780 0.67446 0.92738
 C3105 C 0.03733 0.66118 0.89504
 C3106 C 0.05586 0.64717 0.89198
 C3107 C 0.05637 0.62592 0.90186
 C3108 C 0.03833 0.61852 0.91485
 C3109 C -0.00035 0.69084 0.90185
 C3110 C -0.00074 0.70972 0.89441
 C3111 C 0.00158 0.60301 0.94228
 C3112 C 0.00169 0.58493 0.95159
 H3113 H -0.03722 0.61544 0.95517
 H3114 H -0.06959 0.63997 0.95988
 H3115 H -0.07048 0.67768 0.94235
 H3116 H -0.03901 0.69111 0.92002
 H3117 H 0.03769 0.67756 0.88700
 H3118 H 0.06990 0.65282 0.88189
 H3119 H 0.07081 0.61510 0.89945
 H3120 H 0.03948 0.60185 0.92218
 C3121 C 0.23171 0.69204 0.87949
 C3122 C 0.21977 0.67230 0.88470
 C3123 C 0.22061 0.66278 0.90672
 C3124 C 0.23345 0.67301 0.92336
 C3125 C 0.24446 0.69335 0.91843
 C3126 C 0.24359 0.70290 0.89645
 C3127 C 0.25496 0.72312 0.89190
 C3128 C 0.26682 0.73360 0.90857
 C3129 C 0.26768 0.72426 0.93004
 C3130 C 0.25667 0.70436 0.93501
 C3131 C 0.20868 0.64295 0.91150
 C3132 C 0.19627 0.63280 0.89500
 C3133 C 0.19549 0.64208 0.87347
 C3134 C 0.20709 0.66160 0.86829
 C3135 C 0.23696 0.66172 0.94486
 C3136 C 0.24105 0.65183 0.96219
 C3137 C 0.23256 0.70083 0.85660
 C3138 C 0.23401 0.70851 0.83780
 H3139 H 0.25475 0.73108 0.87547
 H3140 H 0.27539 0.74907 0.90480
 H3141 H 0.27690 0.73247 0.94294
 H3142 H 0.25774 0.69778 0.95199
 H3143 H 0.20871 0.63518 0.92802
 H3144 H 0.18721 0.61765 0.89894
 H3145 H 0.18584 0.63412 0.86072
 H3146 H 0.20594 0.66824 0.85133
 C3147 C 0.73007 0.19322 0.37974
 C3148 C 0.74055 0.20531 0.39677
 C3149 C 0.74139 0.19635 0.41900
 C3150 C 0.73174 0.17535 0.42411
 C3151 C 0.72015 0.16388 0.40738
 C3152 C 0.71935 0.17281 0.38512
 C3153 C 0.70795 0.16088 0.36864
 C3154 C 0.69755 0.14072 0.37399
 C3155 C 0.69830 0.13201 0.39575
 C3156 C 0.70947 0.14337 0.41232
 C3157 C 0.75220 0.20861 0.43565
 C3158 C 0.76187 0.22917 0.43052
 C3159 C 0.76105 0.23794 0.40881
 C3160 C 0.75056 0.22622 0.39206
 C3161 C 0.73562 0.16468 0.44587
 C3162 C 0.74019 0.15536 0.46339
 C3163 C 0.73115 0.20147 0.35666
 C3164 C 0.73282 0.20877 0.33772
 H3165 H 0.70688 0.16703 0.35151
 H3166 H 0.68885 0.13183 0.36119
 H3167 H 0.69017 0.11637 0.39982
 H3168 H 0.70952 0.13601 0.42903
 H3169 H 0.75316 0.20252 0.45281
 H3170 H 0.77001 0.23836 0.44348
 H3171 H 0.76858 0.25393 0.40492
 H3172 H 0.75033 0.23377 0.37545
 C3173 C 0.25181 0.30270 0.37827
 C3174 C 0.23467 0.31835 0.38349
 C3175 C 0.23347 0.32753 0.40520
 C3176 C 0.24942 0.32101 0.42151
 C3177 C 0.26605 0.30476 0.41655
 C3178 C 0.26726 0.29558 0.39484
 C3179 C 0.28418 0.27954 0.39017
 C3180 C 0.29946 0.27274 0.40651
 C3181 C 0.29827 0.28171 0.42775
 C3182 C 0.28180 0.29755 0.43280
 C3183 C 0.21635 0.34331 0.41000
 C3184 C 0.20081 0.34983 0.39381
 C3185 C 0.20196 0.34084 0.37257
 C3186 C 0.21866 0.32528 0.36737
 C3187 C 0.25014 0.33260 0.44253
 C3188 C 0.25198 0.34314 0.45932
 C3189 C 0.25354 0.29401 0.35585
 C3190 C 0.25449 0.28676 0.33722
 H3191 H 0.28577 0.27208 0.37389
 H3192 H 0.31228 0.26045 0.40266
 H3193 H 0.31017 0.27637 0.44039
 H3194 H 0.28148 0.30399 0.44958
 H3195 H 0.21473 0.35069 0.42632
 H3196 H 0.18781 0.36190 0.39777
 H3197 H 0.18985 0.34595 0.36004
 H3198 H 0.21886 0.31877 0.35062
 C3199 C 0.75011 0.80417 0.87791
 C3200 C 0.76099 0.79331 0.89614
 C3201 C 0.75912 0.80228 0.91790
 C3202 C 0.74642 0.82206 0.92126
 C3203 C 0.73480 0.83241 0.90321
 C3204 C 0.73668 0.82347 0.88144
 C3205 C 0.72512 0.83426 0.86358
 C3206 C 0.71205 0.85332 0.86716
 C3207 C 0.71020 0.86205 0.88847
 C3208 C 0.72143 0.85181 0.90634
 C3209 C 0.77029 0.79127 0.93587
 C3210 C 0.78292 0.77190 0.93243
 C3211 C 0.78476 0.76312 0.91114
 C3212 C 0.77397 0.77364 0.89313
 C3213 C 0.74724 0.83306 0.94259
 C3214 C 0.74926 0.84317 0.95962
 C3215 C 0.75254 0.79547 0.85555
 C3216 C 0.75396 0.78826 0.83693
 H3217 H 0.72602 0.82809 0.84671
 H3218 H 0.70330 0.86134 0.85332
 H3219 H 0.70000 0.87685 0.89117
 H3220 H 0.71940 0.85916 0.92264
 H3221 H 0.76926 0.79743 0.95275
 H3222 H 0.79131 0.76365 0.94637
 H3223 H 0.79459 0.74806 0.90855
 H3224 H 0.77588 0.76618 0.87688
 C3225 C 0.73143 0.79869 0.11809
 C3226 C 0.74451 0.78867 0.10108
 C3227 C 0.74620 0.79923 0.07962
 C3228 C 0.73475 0.81970 0.07531
 C3229 C 0.72037 0.82884 0.09179
 C3230 C 0.71873 0.81832 0.11329
 C3231 C 0.70459 0.82796 0.12967
 C3232 C 0.69230 0.84742 0.12489
 C3233 C 0.69387 0.85769 0.10384
 C3234 C 0.70776 0.84861 0.08742
 C3235 C 0.75972 0.78915 0.06298
 C3236 C 0.77117 0.76914 0.06742
 C3237 C 0.76949 0.75879 0.08841
 C3238 C 0.75637 0.76838 0.10512
 C3239 C 0.73942 0.83230 0.05481
 C3240 C 0.74432 0.84320 0.03834
 C3241 C 0.73260 0.78986 0.14087
 C3242 C 0.73467 0.78292 0.15983
 H3243 H 0.70278 0.82050 0.14624
 H3244 H 0.68150 0.85454 0.13759
 H3245 H 0.68426 0.87277 0.10020
 H3246 H 0.70838 0.85712 0.07126
 H3247 H 0.76145 0.79654 0.04637
 H3248 H 0.78139 0.76162 0.05449
 H3249 H 0.77839 0.74322 0.09176
 H3250 H 0.75551 0.75967 0.12116
 C3251 C 0.23324 0.29774 0.61682
 C3252 C 0.24652 0.28799 0.59979
 C3253 C 0.24859 0.29895 0.57855
 C3254 C 0.23736 0.31958 0.57447
 C3255 C 0.22292 0.32858 0.59099
 C3256 C 0.22087 0.31763 0.61225
 C3257 C 0.20665 0.32713 0.62865
 C3258 C 0.19473 0.34686 0.62415
 C3259 C 0.19672 0.35756 0.60334
 C3260 C 0.21066 0.34862 0.58690
 C3261 C 0.26227 0.28910 0.56191
 C3262 C 0.27355 0.26894 0.56613
 C3263 C 0.27151 0.25821 0.58690
 C3264 C 0.25819 0.26755 0.60361
 C3265 C 0.24213 0.33240 0.55411
 C3266 C 0.24695 0.34349 0.53774
 C3267 C 0.23387 0.28838 0.63944
 C3268 C 0.23545 0.28115 0.65837
 H3269 H 0.20450 0.31934 0.64504
 H3270 H 0.18388 0.35388 0.63686
 H3271 H 0.18742 0.37288 0.59992
 H3272 H 0.21161 0.35748 0.57094
 H3273 H 0.26428 0.29679 0.54546
 H3274 H 0.28391 0.26162 0.55320
 H3275 H 0.28029 0.24255 0.59009
 H3276 H 0.25705 0.25855 0.61948
 C3277 C 0.74325 0.19734 0.62059
 C3278 C 0.72899 0.17898 0.61739
 C3279 C 0.72700 0.16969 0.59579
 C3280 C 0.73932 0.17876 0.57746
 C3281 C 0.75282 0.19772 0.58045
 C3282 C 0.75481 0.20701 0.60206
 C3283 C 0.76865 0.22576 0.60463
 C3284 C 0.78018 0.23509 0.58641
 C3285 C 0.77822 0.22603 0.56531
 C3286 C 0.76472 0.20755 0.56227
 C3287 C 0.71284 0.15121 0.59309
 C3288 C 0.70096 0.14212 0.61121
 C3289 C 0.70289 0.15118 0.63232
 C3290 C 0.71671 0.16939 0.63547
 C3291 C 0.74011 0.16716 0.55629
 C3292 C 0.74242 0.15664 0.53939
 C3293 C 0.74623 0.20603 0.64295
 C3294 C 0.74842 0.21306 0.66160
 H3295 H 0.77067 0.23342 0.62071
 H3296 H 0.79069 0.24944 0.58867
 H3297 H 0.78720 0.23336 0.55121
 H3298 H 0.76362 0.20117 0.54552
 H3299 H 0.71070 0.14368 0.57696
 H3300 H 0.69018 0.12799 0.60885
 H3301 H 0.69362 0.14405 0.64633
 H3302 H 0.71763 0.17586 0.65220
 C3303 C 0.24602 0.69614 0.12131
 C3304 C 0.22917 0.68017 0.11783
 C3305 C 0.22685 0.67051 0.09645
 C3306 C 0.24138 0.67682 0.07864
 C3307 C 0.25761 0.69346 0.08187
 C3308 C 0.25995 0.70312 0.10325
 C3309 C 0.27648 0.71950 0.10610
 C3310 C 0.29031 0.72616 0.08834
 C3311 C 0.28803 0.71673 0.06745
 C3312 C 0.27190 0.70055 0.06416
 C3313 C 0.21006 0.65442 0.09346
 C3314 C 0.19593 0.64805 0.11109
 C3315 C 0.19819 0.65748 0.13199
 C3316 C 0.21458 0.67336 0.13542
 C3317 C 0.24136 0.66455 0.05789
 C3318 C 0.24295 0.65340 0.04135
 C3319 C 0.24913 0.70509 0.14350
 C3320 C 0.25119 0.71228 0.16209
 H3321 H 0.27886 0.72734 0.12204
 H3322 H 0.30286 0.73873 0.09081
 H3323 H 0.29880 0.72198 0.05371
 H3324 H 0.27068 0.69378 0.04758
 H3325 H 0.20761 0.64671 0.07747
 H3326 H 0.18316 0.63574 0.10851
 H3327 H 0.18717 0.65248 0.14562
 H3328 H 0.21565 0.68023 0.15197
 C3329 C 0.19995 0.61914 0.74727
 C3330 C 0.19518 0.61018 0.72612
 C3331 C 0.18556 0.58864 0.72481
 C3332 C 0.18081 0.57621 0.74465
 C3333 C 0.18639 0.58481 0.76577
 C3334 C 0.19595 0.60635 0.76708
 C3335 C 0.20106 0.61473 0.78839
 C3336 C 0.19685 0.60219 0.80786
 C3337 C 0.18753 0.58112 0.80660
 C3338 C 0.18232 0.57245 0.78585
 C3339 C 0.18067 0.58015 0.70353
 C3340 C 0.18519 0.59256 0.68405
 C3341 C 0.19460 0.61360 0.68530
 C3342 C 0.19956 0.62241 0.70605
 C3343 C 0.16847 0.55551 0.74373
 C3344 C 0.15712 0.53900 0.74462
 C3345 C 0.20829 0.64174 0.74876
 C3346 C 0.21493 0.66059 0.75006
 H3347 H 0.20837 0.63103 0.79024
 H3348 H 0.20087 0.60887 0.82401
 H3349 H 0.18431 0.57143 0.82177
 H3350 H 0.17517 0.55594 0.78576
 H3351 H 0.17341 0.56382 0.70175
 H3352 H 0.18138 0.58580 0.66788
 H3353 H 0.19808 0.62317 0.67011
 H3354 H 0.20688 0.63884 0.70618
 C3355 C 0.69934 0.11881 0.24662
 C3356 C 0.69420 0.11017 0.22541
 C3357 C 0.68463 0.08863 0.22393
 C3358 C 0.68027 0.07586 0.24364
 C3359 C 0.68620 0.08415 0.26480
 C3360 C 0.69573 0.10569 0.26628
 C3361 C 0.70121 0.11373 0.28763
 C3362 C 0.69737 0.10088 0.30698
 C3363 C 0.68807 0.07981 0.30554
 C3364 C 0.68253 0.07146 0.28476
 C3365 C 0.67938 0.08045 0.20261
 C3366 C 0.68352 0.09319 0.18323
 C3367 C 0.69288 0.11424 0.18465
 C3368 C 0.69818 0.12273 0.20546
 C3369 C 0.66792 0.05516 0.24266
 C3370 C 0.65656 0.03867 0.24381
 C3371 C 0.70765 0.14141 0.24832
 C3372 C 0.71430 0.16026 0.24980
 H3373 H 0.70852 0.13001 0.28962
 H3374 H 0.70165 0.10729 0.32316
 H3375 H 0.68514 0.06987 0.32062
 H3376 H 0.67542 0.05494 0.28454
 H3377 H 0.67215 0.06413 0.20070
 H3378 H 0.67944 0.08667 0.16704
 H3379 H 0.69605 0.12406 0.16955
 H3380 H 0.70546 0.13918 0.20572
 C3381 C 0.79932 0.11740 0.73327
 C3382 C 0.81952 0.11327 0.72141
 C3383 C 0.83016 0.09193 0.72315
 C3384 C 0.82051 0.07485 0.73672
 C3385 C 0.79958 0.07854 0.74737
 C3386 C 0.78896 0.09989 0.74566
 C3387 C 0.76823 0.10330 0.75679
 C3388 C 0.75824 0.08608 0.76919
 C3389 C 0.76861 0.06519 0.77083
 C3390 C 0.78906 0.06138 0.76011
 C3391 C 0.85054 0.08829 0.71145
 C3392 C 0.86009 0.10524 0.69832
 C3393 C 0.84966 0.12610 0.69659
 C3394 C 0.82963 0.13018 0.70800
 C3395 C 0.83300 0.05432 0.74138
 C3396 C 0.84384 0.03782 0.74627
 C3397 C 0.79013 0.13996 0.73419
 C3398 C 0.78293 0.15877 0.73594
 H3399 H 0.75948 0.11923 0.75593
 H3400 H 0.74235 0.08896 0.77756
 H3401 H 0.76077 0.05186 0.78046
 H3402 H 0.79646 0.04484 0.76179
 H3403 H 0.85919 0.07230 0.71221
 H3404 H 0.87565 0.10216 0.68943
 H3405 H 0.85711 0.13920 0.68632
 H3406 H 0.82209 0.14664 0.70609
 C3407 C 0.29712 0.61606 0.23434
 C3408 C 0.31699 0.61205 0.22188
 C3409 C 0.32781 0.59079 0.22335
 C3410 C 0.31874 0.57371 0.23733
 C3411 C 0.29812 0.57728 0.24862
 C3412 C 0.28727 0.59852 0.24712
 C3413 C 0.26688 0.60182 0.25888
 C3414 C 0.25743 0.58459 0.27170
 C3415 C 0.26803 0.56381 0.27315
 C3416 C 0.28816 0.56010 0.26179
 C3417 C 0.34781 0.58724 0.21099
 C3418 C 0.35687 0.60424 0.19756
 C3419 C 0.34632 0.62506 0.19617
 C3420 C 0.32661 0.62902 0.20817
 C3421 C 0.33160 0.55337 0.24177
 C3422 C 0.34290 0.53711 0.24637
 C3423 C 0.28786 0.63857 0.23546
 C3424 C 0.28080 0.65741 0.23725
 H3425 H 0.25798 0.61768 0.25819
 H3426 H 0.24180 0.58738 0.28056
 H3427 H 0.26062 0.55047 0.28312
 H3428 H 0.29575 0.54363 0.26334
 H3429 H 0.35656 0.57130 0.21149
 H3430 H 0.37216 0.60123 0.18818
 H3431 H 0.35344 0.63821 0.18574
 H3432 H 0.31895 0.64545 0.20650
 C3433 C 0.30661 0.37590 0.25377
 C3434 C 0.29672 0.39333 0.24066
 C3435 C 0.30673 0.41474 0.23955
 C3436 C 0.32653 0.41858 0.25157
 C3437 C 0.33645 0.40112 0.26466
 C3438 C 0.32644 0.37974 0.26578
 C3439 C 0.33659 0.36258 0.27902
 C3440 C 0.35610 0.36644 0.29083
 C3441 C 0.36594 0.38734 0.28971
 C3442 C 0.35632 0.40453 0.27681
 C3443 C 0.29659 0.43189 0.22634
 C3444 C 0.27707 0.42802 0.21455
 C3445 C 0.26725 0.40709 0.21563
 C3446 C 0.27689 0.38988 0.22851
 C3447 C 0.33663 0.44049 0.25106
 C3448 C 0.34603 0.45810 0.25204
 C3449 C 0.29663 0.35394 0.25463
 C3450 C 0.28852 0.33562 0.25505
 H3451 H 0.32957 0.34603 0.28044
 H3452 H 0.36360 0.35316 0.30093
 H3453 H 0.38112 0.39026 0.29890
 H3454 H 0.36465 0.42047 0.27648
 H3455 H 0.30365 0.44843 0.22498
 H3456 H 0.26952 0.44132 0.20451
 H3457 H 0.25208 0.40417 0.20645
 H3458 H 0.26862 0.37390 0.22885
 C3459 C 0.80673 0.87769 0.75362
 C3460 C 0.79708 0.89482 0.73994
 C3461 C 0.80683 0.91635 0.73891
 C3462 C 0.82613 0.92061 0.75156
 C3463 C 0.83580 0.90345 0.76523
 C3464 C 0.82605 0.88194 0.76626
 C3465 C 0.83596 0.86507 0.78006
 C3466 C 0.85496 0.86936 0.79252
 C3467 C 0.86451 0.89039 0.79153
 C3468 C 0.85513 0.90730 0.77807
 C3469 C 0.79694 0.93322 0.72516
 C3470 C 0.77790 0.92893 0.71275
 C3471 C 0.76834 0.90788 0.71375
 C3472 C 0.77775 0.89095 0.72716
 C3473 C 0.83599 0.94263 0.75108
 C3474 C 0.84525 0.96031 0.75219
 C3475 C 0.79696 0.85562 0.75449
 C3476 C 0.78896 0.83726 0.75492
 H3477 H 0.82915 0.84844 0.78140
 H3478 H 0.86227 0.85629 0.80303
 H3479 H 0.87927 0.89365 0.80124
 H3480 H 0.86323 0.92335 0.77787
 H3481 H 0.80380 0.94984 0.72385
 H3482 H 0.77052 0.94202 0.70231
 H3483 H 0.75355 0.90464 0.70409
 H3484 H 0.76971 0.87486 0.72740
 C3485 C 0.69351 0.87946 0.23258
 C3486 C 0.70159 0.89457 0.24844
 C3487 C 0.69234 0.91651 0.24947
 C3488 C 0.67503 0.92322 0.23466
 C3489 C 0.66769 0.90848 0.21811
 C3490 C 0.67696 0.88651 0.21708
 C3491 C 0.66923 0.87199 0.20055
 C3492 C 0.65285 0.87900 0.18539
 C3493 C 0.64381 0.90048 0.18638
 C3494 C 0.65104 0.91511 0.20257
 C3495 C 0.70053 0.93123 0.26561
 C3496 C 0.71740 0.92448 0.28031
 C3497 C 0.72644 0.90302 0.27932
 C3498 C 0.71869 0.88817 0.26362
 C3499 C 0.66369 0.94455 0.23777
 C3500 C 0.65385 0.96175 0.24167
 C3501 C 0.70189 0.85657 0.23284
 C3502 C 0.70938 0.83779 0.23412
 H3503 H 0.67581 0.85515 0.19912
 H3504 H 0.64717 0.86770 0.17280
 H3505 H 0.63117 0.90586 0.17452
 H3506 H 0.64356 0.93168 0.20267
 H3507 H 0.69410 0.94813 0.26698
 H3508 H 0.72349 0.93597 0.29252
 H3509 H 0.73955 0.89784 0.29078
 H3510 H 0.72630 0.87167 0.26351
 C3511 C 0.19250 0.37769 0.73120
 C3512 C 0.20398 0.39448 0.74264
 C3513 C 0.19470 0.41641 0.74369
 C3514 C 0.17399 0.42143 0.73332
 C3515 C 0.16310 0.40495 0.72089
 C3516 C 0.17238 0.38300 0.71984
 C3517 C 0.16109 0.36673 0.70754
 C3518 C 0.14119 0.37201 0.69653
 C3519 C 0.13210 0.39347 0.69757
 C3520 C 0.14284 0.40982 0.70960
 C3521 C 0.20634 0.43285 0.75546
 C3522 C 0.22660 0.42777 0.76587
 C3523 C 0.23569 0.40633 0.76483
 C3524 C 0.22459 0.38981 0.75339
 C3525 C 0.16305 0.44285 0.73705
 C3526 C 0.15346 0.46012 0.74122
 C3527 C 0.20099 0.35484 0.73203
 C3528 C 0.20852 0.33609 0.73359
 H3529 H 0.16756 0.34984 0.70622
 H3530 H 0.13280 0.35940 0.68714
 H3531 H 0.11665 0.39747 0.68899
 H3532 H 0.13520 0.42630 0.70984
 H3533 H 0.19998 0.44980 0.75663
 H3534 H 0.23530 0.44055 0.77477
 H3535 H 0.25144 0.40246 0.77294
 H3536 H 0.23238 0.37340 0.75300
 C3537 C 0.11549 0.73568 0.79612
 C3538 C 0.09868 0.75013 0.78727
 C3539 C 0.07749 0.75164 0.79815
 C3540 C 0.07324 0.73866 0.81778
 C3541 C 0.08951 0.72312 0.82576
 C3542 C 0.11072 0.72163 0.81490
 C3543 C 0.12689 0.70627 0.82340
 C3544 C 0.12221 0.69271 0.84209
 C3545 C 0.10146 0.69417 0.85271
 C3546 C 0.08523 0.70918 0.84472
 C3547 C 0.06108 0.76650 0.78924
 C3548 C 0.06547 0.77947 0.77009
 C3549 C 0.08620 0.77799 0.75944
 C3550 C 0.10269 0.76353 0.76788
 C3551 C 0.05310 0.74280 0.83088
 C3552 C 0.03702 0.74709 0.84239
 C3553 C 0.13810 0.73662 0.78710
 C3554 C 0.15709 0.73815 0.78030
 H3555 H 0.14323 0.70449 0.81564
 H3556 H 0.13475 0.68102 0.84835
 H3557 H 0.09792 0.68362 0.86722
 H3558 H 0.06930 0.70965 0.85346
 H3559 H 0.04467 0.76814 0.79690
 H3560 H 0.05271 0.79073 0.76348
 H3561 H 0.08952 0.78810 0.74456
 H3562 H 0.11853 0.76289 0.75898
 C3563 C 0.61480 0.23682 0.29485
 C3564 C 0.59828 0.25171 0.28619
 C3565 C 0.57721 0.25367 0.29723
 C3566 C 0.57281 0.24072 0.31684
 C3567 C 0.58877 0.22477 0.32464
 C3568 C 0.60986 0.22282 0.31361
 C3569 C 0.62573 0.20705 0.32195
 C3570 C 0.62087 0.19353 0.34061
 C3571 C 0.60023 0.19542 0.35137
 C3572 C 0.58431 0.21085 0.34357
 C3573 C 0.56108 0.26894 0.28850
 C3574 C 0.56563 0.28188 0.26936
 C3575 C 0.58624 0.27996 0.25856
 C3576 C 0.60246 0.26509 0.26682
 C3577 C 0.55282 0.24519 0.33005
 C3578 C 0.53685 0.24965 0.34164
 C3579 C 0.63738 0.23728 0.28570
 C3580 C 0.65638 0.23846 0.27889
 H3581 H 0.64197 0.20493 0.31406
 H3582 H 0.63318 0.18152 0.34673
 H3583 H 0.59653 0.18487 0.36584
 H3584 H 0.56845 0.21166 0.35244
 H3585 H 0.54477 0.27094 0.29628
 H3586 H 0.55308 0.29346 0.26288
 H3587 H 0.58969 0.29004 0.24369
 H3588 H 0.61822 0.26411 0.25780
 C3589 C 0.62007 0.74955 0.20036
 C3590 C 0.60921 0.76871 0.19108
 C3591 C 0.58787 0.76675 0.18106
 C3592 C 0.57751 0.74560 0.18031
 C3593 C 0.58805 0.72658 0.19019
 C3594 C 0.60940 0.72855 0.20025
 C3595 C 0.61970 0.70922 0.20982
 C3596 C 0.60920 0.68858 0.20949
 C3597 C 0.58834 0.68668 0.19966
 C3598 C 0.57781 0.70542 0.19007
 C3599 C 0.57746 0.78615 0.17172
 C3600 C 0.58783 0.80684 0.17222
 C3601 C 0.60871 0.80874 0.18198
 C3602 C 0.61935 0.78995 0.19133
 C3603 C 0.55678 0.74349 0.16808
 C3604 C 0.54021 0.74358 0.15672
 C3605 C 0.64253 0.75131 0.20923
 C3606 C 0.66134 0.75256 0.21620
 H3607 H 0.63591 0.70987 0.21767
 H3608 H 0.61732 0.67396 0.21690
 H3609 H 0.58026 0.67061 0.19947
 H3610 H 0.56157 0.70317 0.18265
 H3611 H 0.56119 0.78560 0.16399
 H3612 H 0.57961 0.82149 0.16499
 H3613 H 0.61672 0.82484 0.18232
 H3614 H 0.63557 0.79228 0.19877
 C3615 C 0.11944 0.24925 0.69965
 C3616 C 0.10635 0.26882 0.69590
 C3617 C 0.08479 0.26728 0.68626
 C3618 C 0.07646 0.24615 0.68037
 C3619 C 0.08917 0.22652 0.68492
 C3620 C 0.11073 0.22806 0.69460
 C3621 C 0.12324 0.20819 0.69876
 C3622 C 0.11469 0.18741 0.69353
 C3623 C 0.09362 0.18593 0.68406
 C3624 C 0.08094 0.20522 0.67974
 C3625 C 0.07213 0.28714 0.68242
 C3626 C 0.08052 0.30789 0.68796
 C3627 C 0.10159 0.30939 0.69739
 C3628 C 0.11444 0.29013 0.70135
 C3629 C 0.05583 0.24510 0.66779
 C3630 C 0.03946 0.24597 0.65616
 C3631 C 0.14208 0.25097 0.70804
 C3632 C 0.16098 0.25213 0.71478
 H3633 H 0.13970 0.20848 0.70613
 H3634 H 0.12448 0.17237 0.69684
 H3635 H 0.08706 0.16975 0.68003
 H3636 H 0.06460 0.20327 0.67243
 H3637 H 0.05561 0.28686 0.67520
 H3638 H 0.07059 0.32290 0.68492
 H3639 H 0.10803 0.32554 0.70169
 H3640 H 0.13073 0.29215 0.70875
 C3641 C 0.87647 0.23512 0.68789
 C3642 C 0.88412 0.25595 0.67935
 C3643 C 0.90610 0.25770 0.67030
 C3644 C 0.92032 0.23859 0.66973
 C3645 C 0.91263 0.21773 0.67810
 C3646 C 0.89063 0.21599 0.68724
 C3647 C 0.88333 0.19499 0.69557
 C3648 C 0.89735 0.17622 0.69486
 C3649 C 0.91882 0.17791 0.68588
 C3650 C 0.92647 0.19840 0.67756
 C3651 C 0.91335 0.27875 0.66192
 C3652 C 0.89930 0.29748 0.66245
 C3653 C 0.87780 0.29576 0.67128
 C3654 C 0.87021 0.27530 0.67965
 C3655 C 0.94254 0.24060 0.65989
 C3656 C 0.96038 0.24377 0.65089
 C3657 C 0.85424 0.23381 0.69782
 C3658 C 0.83585 0.23413 0.70627
 H3659 H 0.86674 0.19286 0.70265
 H3660 H 0.89153 0.16027 0.70134
 H3661 H 0.92963 0.16327 0.68536
 H3662 H 0.94330 0.19893 0.67074
 H3663 H 0.92993 0.28100 0.65488
 H3664 H 0.90514 0.31342 0.65598
 H3665 H 0.86693 0.31036 0.67164
 H3666 H 0.85332 0.27485 0.68629
 C3667 C 0.37902 0.73049 0.19375
 C3668 C 0.39364 0.74745 0.20056
 C3669 C 0.41569 0.74851 0.19154
 C3670 C 0.42299 0.73267 0.17573
 C3671 C 0.40876 0.71509 0.16975
 C3672 C 0.38669 0.71398 0.17880
 C3673 C 0.37271 0.69636 0.17246
 C3674 C 0.38035 0.68022 0.15765
 C3675 C 0.40192 0.68130 0.14880
 C3676 C 0.41602 0.69854 0.15468
 C3677 C 0.42993 0.76573 0.19845
 C3678 C 0.42261 0.78141 0.21386
 C3679 C 0.40105 0.78039 0.22267
 C3680 C 0.38665 0.76367 0.21614
 C3681 C 0.44433 0.73571 0.16433
 C3682 C 0.46147 0.73953 0.15426
 C3683 C 0.35601 0.73058 0.20181
 C3684 C 0.33713 0.73180 0.20903
 H3685 H 0.35582 0.69483 0.17895
 H3686 H 0.36947 0.66680 0.15302
 H3687 H 0.40778 0.66869 0.13735
 H3688 H 0.43269 0.69866 0.14743
 H3689 H 0.44689 0.76717 0.19214
 H3690 H 0.43375 0.79442 0.21900
 H3691 H 0.39543 0.79262 0.23464
 H3692 H 0.37005 0.76358 0.22351
 C3693 C 0.37667 0.25345 0.30476
 C3694 C 0.39063 0.27228 0.30240
 C3695 C 0.41249 0.27155 0.31154
 C3696 C 0.42023 0.25198 0.32296
 C3697 C 0.40650 0.23295 0.32475
 C3698 C 0.38463 0.23368 0.31563
 C3699 C 0.37112 0.21449 0.31779
 C3700 C 0.37901 0.19515 0.32864
 C3701 C 0.40041 0.19444 0.33756
 C3702 C 0.41407 0.21309 0.33570
 C3703 C 0.42610 0.29065 0.30917
 C3704 C 0.41835 0.30989 0.29803
 C3705 C 0.39698 0.31058 0.28904
 C3706 C 0.38319 0.29205 0.29118
 C3707 C 0.44151 0.25218 0.33438
 C3708 C 0.45859 0.25356 0.34474
 C3709 C 0.35412 0.25440 0.29602
 C3710 C 0.33545 0.25484 0.28864
 H3711 H 0.35435 0.21423 0.31113
 H3712 H 0.36846 0.18062 0.33013
 H3713 H 0.40647 0.17937 0.34596
 H3714 H 0.43063 0.21173 0.34283
 H3715 H 0.44288 0.29090 0.31579
 H3716 H 0.42899 0.32433 0.29633
 H3717 H 0.39106 0.32554 0.28034
 H3718 H 0.36670 0.29340 0.28392
 C3719 C 0.87679 0.75385 0.80500
 C3720 C 0.89061 0.77287 0.80394
 C3721 C 0.91246 0.77169 0.81309
 C3722 C 0.92033 0.75151 0.82327
 C3723 C 0.90674 0.73234 0.82378
 C3724 C 0.88488 0.73351 0.81463
 C3725 C 0.87151 0.71416 0.81550
 C3726 C 0.87952 0.69423 0.82513
 C3727 C 0.90090 0.69311 0.83408
 C3728 C 0.91442 0.71190 0.83347
 C3729 C 0.92592 0.79098 0.81200
 C3730 C 0.91802 0.81083 0.80212
 C3731 C 0.89666 0.81196 0.79315
 C3732 C 0.88302 0.79325 0.79402
 C3733 C 0.94160 0.75113 0.83475
 C3734 C 0.95869 0.75204 0.84519
 C3735 C 0.85426 0.75519 0.79622
 C3736 C 0.83560 0.75590 0.78879
 H3737 H 0.85477 0.71420 0.80876
 H3738 H 0.86907 0.67959 0.82565
 H3739 H 0.90704 0.67759 0.84153
 H3740 H 0.93097 0.71020 0.84058
 H3741 H 0.94269 0.79091 0.81867
 H3742 H 0.92856 0.82541 0.80140
 H3743 H 0.89062 0.82740 0.78546
 H3744 H 0.86652 0.79495 0.78682
   
