data_POSCAR
  _audit_creation_date              2014-09-24
  _audit_creation_method            'ToBaCCo'
  _symmetry_space_group_name_H-M    'P1'
  _symmetry_Int_Tables_number       1
  _symmetry_cell_setting            triclinic
  loop_
  _symmetry_equiv_pos_as_xyz
 x,y,z
_cell_length_a 47.3422
_cell_length_b 46.7903
_cell_length_c 55.5891
_cell_angle_alpha 89.632800
_cell_angle_beta 90.023800
_cell_angle_gamma 89.977100
loop_
  _atom_site_label
  _atom_site_type_symbol
  _atom_site_fract_x
  _atom_site_fract_y
  _atom_site_fract_z
B1 B 0.26435 0.24118 0.23046
 B2 B 0.27371 0.27507 0.23661
 B3 B 0.23967 0.26716 0.23072
 B4 B 0.23231 0.23478 0.24276
 B5 B 0.26226 0.22296 0.25664
 B6 B 0.28816 0.24786 0.25245
 B7 B 0.24577 0.27226 0.27875
 B8 B 0.23653 0.23840 0.27283
 B9 B 0.27049 0.24630 0.27857
 B10 B 0.27796 0.27863 0.26643
 B11 B 0.24782 0.29046 0.25290
 B12 B 0.22200 0.26535 0.25680
 B13 B 0.73179 0.75643 0.22752
 B14 B 0.72524 0.72260 0.23605
 B15 B 0.75824 0.73219 0.22857
 B16 B 0.76389 0.76592 0.23817
 B17 B 0.73369 0.77694 0.25208
 B18 B 0.70953 0.74986 0.25066
 B19 B 0.75463 0.73076 0.27690
 B20 B 0.76124 0.76459 0.26844
 B21 B 0.72820 0.75494 0.27584
 B22 B 0.72260 0.72128 0.26623
 B23 B 0.75278 0.71028 0.25241
 B24 B 0.77695 0.73732 0.25379
 B25 B 0.73461 0.24371 -0.27859
 B26 B 0.76805 0.23706 -0.27021
 B27 B 0.75861 0.27035 -0.27833
 B28 B 0.72543 0.27642 -0.26861
 B29 B 0.71450 0.24627 -0.25402
 B30 B 0.74110 0.22166 -0.25502
 B31 B 0.76022 0.26793 -0.22994
 B32 B 0.72679 0.27449 -0.23842
 B33 B 0.73617 0.24125 -0.23022
 B34 B 0.76946 0.23513 -0.23990
 B35 B 0.78041 0.26529 -0.25460
 B36 B 0.75375 0.28991 -0.25356
 B37 B 0.27064 0.75517 -0.27697
 B38 B 0.23692 0.76275 -0.27019
 B39 B 0.24649 0.72871 -0.27506
 B40 B 0.27934 0.72364 -0.26385
 B41 B 0.28977 0.75529 -0.25167
 B42 B 0.26332 0.77972 -0.25565
 B43 B 0.24297 0.73649 -0.22719
 B44 B 0.27672 0.72902 -0.23394
 B45 B 0.26715 0.76304 -0.22910
 B46 B 0.23431 0.76805 -0.24025
 B47 B 0.22386 0.73643 -0.25251
 B48 B 0.25034 0.71200 -0.24853
 B49 B 1.24185 1.26601 0.71988
 B50 B 1.23560 1.23234 0.72896
 B51 B 1.26865 1.24237 0.72192
 B52 B 1.27340 1.27640 0.73091
 B53 B 1.24267 1.28723 0.74392
 B54 B 1.21903 1.25974 0.74271
 B55 B 1.26390 1.24229 0.77017
 B56 B 1.26999 1.27597 0.76101
 B57 B 1.23701 1.26597 0.76813
 B58 B 1.23222 1.23186 0.75920
 B59 B 1.26296 1.22100 0.74605
 B60 B 1.28659 1.24858 0.74730
 B61 B 0.75338 0.72857 0.72450
 B62 B 0.75978 0.76314 0.73030
 B63 B 0.72661 0.75245 0.72454
 B64 B 0.72185 0.71960 0.73676
 B65 B 0.75277 0.71036 0.75047
 B66 B 0.77644 0.73750 0.74643
 B67 B 0.73206 0.75834 0.77248
 B68 B 0.72574 0.72373 0.76674
 B69 B 0.75888 0.73441 0.77244
 B70 B 0.76359 0.76723 0.76027
 B71 B 0.73270 0.77652 0.74648
 B72 B 0.70900 0.74934 0.75056
 B73 B 1.24342 0.73369 0.22822
 B74 B 1.27683 0.72719 0.23677
 B75 B 1.26740 0.76043 0.22861
 B76 B 1.23409 0.76644 0.23821
 B77 B 1.22314 0.73623 0.25282
 B78 B 1.24984 0.71167 0.25182
 B79 B 1.26880 0.75785 0.27698
 B80 B 1.23539 0.76445 0.26851
 B81 B 1.24484 0.73117 0.27661
 B82 B 1.27808 0.72518 0.26697
 B83 B 1.28902 0.75538 0.25245
 B84 B 1.26236 0.77994 0.25343
 B85 B 0.75924 1.26669 0.22983
 B86 B 0.72538 1.27374 0.23657
 B87 B 0.73531 1.23990 0.23152
 B88 B 0.76817 1.23511 0.24269
 B89 B 0.77828 1.26672 0.25518
 B90 B 0.75154 1.29091 0.25130
 B91 B 0.73164 1.24724 0.27944
 B92 B 0.76544 1.24010 0.27265
 B93 B 0.75550 1.27399 0.27773
 B94 B 0.72263 1.27880 0.26651
 B95 B 0.71258 1.24717 0.25412
 B96 B 0.73926 1.22299 0.25795
 N97 N 0.55110 1.03212 0.02647
 N98 N 0.57235 1.04911 0.03199
 N99 N 0.53002 0.97246 0.04309
 N100 N 0.53639 0.95373 0.06016
 N101 N 0.54927 0.97213 0.02607
 N102 N 0.56909 0.95318 0.03109
 N103 N 0.53182 1.03251 0.04347
 N104 N 0.53963 1.04976 0.06102
 C105 C 0.56480 1.06033 0.05342
 C106 C 0.56065 0.94155 0.05225
 N107 N 0.44935 0.97513 0.02624
 N108 N 0.42871 0.95709 0.03117
 N109 N 0.47037 1.03443 0.04354
 N110 N 0.46418 1.05286 0.06072
 N111 N 0.45097 1.03517 0.02663
 N112 N 0.43127 1.05411 0.03182
 N113 N 0.46872 0.97431 0.04316
 N114 N 0.46164 0.95567 0.06007
 Mn115 Mn 0.50022 1.00344 0.04353
 C116 C 0.43677 0.94480 0.05218
 C117 C 0.43989 1.06530 0.05298
 N118 N 0.54922 0.97298 -0.02584
 N119 N 0.56944 0.95478 -0.03147
 N120 N 0.53149 1.03388 -0.04230
 N121 N 0.53883 1.05221 -0.05938
 N122 N 0.55088 1.03297 -0.02539
 N123 N 0.57176 1.05066 -0.03049
 N124 N 0.52988 0.97382 -0.04279
 N125 N 0.53662 0.95622 -0.06042
 Mn126 Mn 0.55023 1.00254 0.00033
 C127 C 0.56117 0.94412 -0.05292
 C128 C 0.56385 1.06283 -0.05158
 N129 N 0.45085 1.03592 -0.02522
 N130 N 0.43080 1.05456 -0.03036
 N131 N 0.46843 0.97561 -0.04265
 N132 N 0.46082 0.95817 -0.06012
 N133 N 0.44911 0.97593 -0.02567
 N134 N 0.42802 0.95871 -0.03116
 N135 N 0.47011 1.03567 -0.04222
 N136 N 0.46348 1.05414 -0.05943
 Mn137 Mn 0.44994 1.00553 0.00050
 Mn138 Mn 0.49998 1.00475 -0.04270
 Cl139 Cl 0.50010 1.00406 0.00041
 C140 C 0.43909 1.06610 -0.05158
 C141 C 0.43572 0.94743 -0.05253
 N142 N 1.02971 0.45066 0.52428
 N143 N 1.04987 0.43154 0.52758
 N144 N 0.97065 0.47073 0.54154
 N145 N 0.94995 0.46600 0.55695
 N146 N 0.97032 0.45162 0.52435
 N147 N 0.94941 0.43335 0.52762
 N148 N 1.03010 0.46975 0.54149
 N149 N 1.05054 0.46411 0.55696
 C150 C 1.06281 0.44028 0.54798
 C151 C 0.93678 0.44268 0.54798
 N152 N 0.97173 0.55287 0.52716
 N153 N 0.95153 0.57159 0.53161
 N154 N 1.03105 0.53134 0.54322
 N155 N 1.05155 0.53491 0.55903
 N156 N 1.03129 0.55198 0.52711
 N157 N 1.05198 0.57014 0.53155
 N158 N 0.97152 0.53226 0.54330
 N159 N 0.95116 0.53640 0.55913
 Mn160 Mn 1.00084 0.50100 0.54266
 C161 C 0.93874 0.56096 0.55157
 C162 C 1.06457 0.55914 0.55147
 N163 N 0.97023 0.45378 0.47255
 N164 N 0.94935 0.43578 0.46834
 N165 N 1.03008 0.47341 0.45635
 N166 N 1.05074 0.46942 0.44076
 N167 N 1.02977 0.45284 0.47250
 N168 N 1.05023 0.43430 0.46835
 N169 N 0.97051 0.47432 0.45637
 N170 N 0.94982 0.47086 0.44071
 Mn171 Mn 1.00000 0.45191 0.49842
 C172 C 0.93668 0.44677 0.44847
 C173 C 1.06325 0.44497 0.44853
 N174 N 1.03119 0.55412 0.47522
 N175 N 1.05220 0.57229 0.47198
 N176 N 0.97147 0.53584 0.45810
 N177 N 0.95084 0.54106 0.44272
 N178 N 0.97173 0.55503 0.47523
 N179 N 0.95128 0.57386 0.47192
 N180 N 1.03089 0.53494 0.45809
 N181 N 1.05170 0.53950 0.44276
 Mn182 Mn 1.00148 0.55385 0.50118
 Mn183 Mn 1.00074 0.50466 0.45696
 Cl184 Cl 1.00077 0.50286 0.49981
 C185 C 1.06491 0.56281 0.45169
 C186 C 0.93833 0.56478 0.45161
 N187 N 1.02975 0.44846 0.02507
 N188 N 1.04744 0.42735 0.02978
 N189 N 0.97105 0.46887 0.04278
 N190 N 0.95340 0.46162 0.06021
 N191 N 0.97044 0.44977 0.02555
 N192 N 0.95238 0.42919 0.03082
 N193 N 1.03041 0.46756 0.04229
 N194 N 1.04858 0.45980 0.05918
 C195 C 1.05935 0.43483 0.05096
 C196 C 0.94156 0.43701 0.05232
 N197 N 0.97265 0.55097 0.02702
 N198 N 0.95478 0.57160 0.03241
 N199 N 1.03177 0.52962 0.04327
 N200 N 1.05018 0.53564 0.06042
 N201 N 1.03199 0.54966 0.02661
 N202 N 1.05055 0.56967 0.03194
 N203 N 0.97235 0.53093 0.04368
 N204 N 0.95425 0.53755 0.06089
 Mn205 Mn 1.00140 0.49924 0.04322
 C206 C 0.94315 0.56285 0.05343
 C207 C 1.06204 0.56054 0.05291
 N208 N 0.96988 0.45133 -0.02637
 N209 N 0.95142 0.43126 -0.03181
 N210 N 1.02954 0.47006 -0.04343
 N211 N 1.04730 0.46323 -0.06083
 N212 N 1.02921 0.44998 -0.02679
 N213 N 1.04674 0.42913 -0.03241
 N214 N 0.97015 0.47139 -0.04301
 N215 N 0.95185 0.46534 -0.06023
 Mn216 Mn 0.99981 0.44975 -0.00064
 C217 C 0.94001 0.44041 -0.05281
 C218 C 1.05819 0.43779 -0.05353
 N219 N 1.03145 0.55120 -0.02521
 N220 N 1.04947 0.57183 -0.03038
 N221 N 0.97153 0.53348 -0.04206
 N222 N 0.95378 0.54155 -0.05917
 N223 N 0.97217 0.55255 -0.02481
 N224 N 0.95488 0.57393 -0.02973
 N225 N 1.03088 0.53218 -0.04250
 N226 N 1.04850 0.53958 -0.05992
 Mn227 Mn 1.00206 0.55121 0.00091
 Mn228 Mn 1.00053 0.50178 -0.04296
 Cl229 Cl 1.00094 0.50049 0.00013
 C230 C 1.06029 0.56418 -0.05191
 C231 C 0.94321 0.56665 -0.05105
 N232 N 0.55283 1.02746 0.52631
 N233 N 0.57188 1.04749 0.53023
 N234 N 0.53167 0.96763 0.54272
 N235 N 0.53549 0.94639 0.55812
 N236 N 0.55123 0.96731 0.52598
 N237 N 0.56891 0.94585 0.52959
 N238 N 0.53331 1.02779 0.54307
 N239 N 0.53857 1.04806 0.55886
 C240 C 0.56263 1.06030 0.55055
 C241 C 0.55874 0.93287 0.54967
 N242 N 0.45115 0.97003 0.52634
 N243 N 0.43238 0.94960 0.53007
 N244 N 0.47238 1.02944 0.54331
 N245 N 0.46824 1.04986 0.55921
 N246 N 0.45269 1.03017 0.52668
 N247 N 0.43467 1.05109 0.53080
 N248 N 0.47085 0.96928 0.54296
 N249 N 0.46604 0.94830 0.55841
 Mn250 Mn 0.50206 0.99855 0.54329
 C251 C 0.44202 0.93609 0.55010
 C252 C 0.44472 1.06332 0.55108
 N253 N 0.55090 0.96829 0.47410
 N254 N 0.56872 0.94716 0.47004
 N255 N 0.53278 1.02929 0.45789
 N256 N 0.53753 1.05037 0.44252
 N257 N 0.55253 1.02844 0.47446
 N258 N 0.57127 1.04892 0.47080
 N259 N 0.53121 0.96913 0.45748
 N260 N 0.53510 0.94858 0.44166
 Mn261 Mn 0.55220 0.99786 0.50021
 C262 C 0.55852 0.93493 0.44980
 C263 C 0.56157 1.06254 0.45084
 N264 N 0.45235 1.03109 0.47487
 N265 N 0.43421 1.05207 0.47102
 N266 N 0.47034 0.97076 0.45770
 N267 N 0.46498 0.95068 0.44176
 N268 N 0.45085 0.97098 0.47449
 N269 N 0.43172 0.95108 0.47043
 N270 N 0.47188 1.03091 0.45811
 N271 N 0.46753 1.05175 0.44241
 Mn272 Mn 0.45146 1.00057 0.50060
 Mn273 Mn 0.50156 1.00003 0.45752
 Cl274 Cl 0.50182 0.99926 0.50040
 C275 C 0.44403 1.06492 0.45078
 C276 C 0.44090 0.93844 0.45002
 N277 N 1.05088 1.02098 0.52746
 N278 N 1.07151 1.03810 0.53435
 N279 N 1.02735 0.96059 0.53903
 N280 N 1.03214 0.94022 0.55495
 N281 N 1.04755 0.96144 0.52287
 N282 N 1.06681 0.94173 0.52760
 N283 N 1.03087 1.02011 0.54377
 N284 N 1.03718 1.03664 0.56207
 C285 C 1.06241 1.04798 0.55588
 C286 C 1.05657 0.92832 0.54746
 N287 N 0.94682 0.96743 0.52339
 N288 N 0.92549 0.95014 0.52837
 N289 N 0.97052 1.02373 0.54407
 N290 N 0.96660 1.04112 0.56229
 N291 N 0.95047 1.02695 0.52796
 N292 N 0.93223 1.04662 0.53492
 N293 N 0.96705 0.96421 0.53934
 N294 N 0.96023 0.94454 0.55533
 Mn295 Mn 0.99894 0.99214 0.54169
 C296 C 0.93448 0.93563 0.54814
 C297 C 0.94284 1.05549 0.55627
 N298 N 1.04735 0.96754 0.47105
 N299 N 1.06576 0.94809 0.46402
 N300 N 1.03068 1.03020 0.45963
 N301 N 1.03705 1.05045 0.44404
 N302 N 1.05089 1.02709 0.47561
 N303 N 1.07178 1.04509 0.47107
 N304 N 1.02729 0.97069 0.45494
 N305 N 1.03139 0.95347 0.43664
 Mn306 Mn 1.04952 0.99425 0.49924
 C307 C 1.05526 0.93926 0.44263
 C308 C 1.06254 1.05984 0.45150
 N309 N 0.95034 1.03304 0.47615
 N310 N 0.93153 1.05332 0.47183
 N311 N 0.96694 0.97429 0.45523
 N312 N 0.96068 0.95771 0.43696
 N313 N 0.94686 0.97349 0.47150
 N314 N 0.92624 0.95636 0.46458
 N315 N 0.97048 1.03378 0.45995
 N316 N 0.96614 1.05462 0.44439
 Mn317 Mn 0.94826 1.00024 0.49975
 Mn318 Mn 0.99885 1.00224 0.45730
 Cl319 Cl 0.99889 0.99720 0.49950
 C320 C 0.94200 1.06690 0.45213
 C321 C 0.93542 0.94641 0.44308
 N322 N 0.55031 0.50718 0.03221
 N323 N 0.57148 0.52242 0.04079
 N324 N 0.51962 0.44854 0.03568
 N325 N 0.52221 0.42612 0.04991
 N326 N 0.54071 0.44988 0.02039
 N327 N 0.55844 0.42848 0.02422
 N328 N 0.52970 0.50563 0.04794
 N329 N 0.53616 0.51971 0.06759
 C330 C 0.56218 0.53017 0.06288
 C331 C 0.54618 0.41345 0.04235
 N332 N 0.44129 0.46750 0.01961
 N333 N 0.41889 0.45065 0.02073
 N334 N 0.47020 0.51636 0.04749
 N335 N 0.46917 0.53245 0.06680
 N336 N 0.45148 0.52477 0.03155
 N337 N 0.43710 0.54690 0.03960
 N338 N 0.46047 0.45914 0.03516
 N339 N 0.45205 0.43622 0.04691
 Mn340 Mn 0.49496 0.48239 0.04174
 C341 C 0.42626 0.43093 0.03761
 C342 C 0.44855 0.55148 0.06160
 N343 N 0.54315 0.46474 -0.03009
 N344 N 0.55820 0.44328 -0.03852
 N345 N 0.53421 0.53047 -0.03372
 N346 N 0.54371 0.55154 -0.04719
 N347 N 0.55360 0.52187 -0.01842
 N348 N 0.57720 0.53659 -0.02160
 N349 N 0.52447 0.47324 -0.04604
 N350 N 0.52619 0.45783 -0.06571
 Mn351 Mn 0.54732 0.48586 0.00102
 C352 C 0.54715 0.43910 -0.06072
 C353 C 0.57032 0.55551 -0.03926
 N354 N 0.45389 0.53975 -0.01889
 N355 N 0.43617 0.56116 -0.02270
 N356 N 0.46503 0.48407 -0.04647
 N357 N 0.45796 0.47152 -0.06669
 N358 N 0.44434 0.48257 -0.03082
 N359 N 0.42250 0.46894 -0.04004
 N360 N 0.47504 0.54113 -0.03412
 N361 N 0.47252 0.56361 -0.04829
 Mn362 Mn 0.44736 0.50369 0.00040
 Mn363 Mn 0.49972 0.50725 -0.04021
 Cl364 Cl 0.49735 0.49481 0.00073
 C365 C 0.44852 0.57625 -0.04076
 C366 C 0.43152 0.46196 -0.06239
 C367 C 0.29335 1.22335 0.16586
 C368 C 0.30395 1.19566 0.16934
 C369 C 0.29913 1.18165 0.19120
 C370 C 0.28510 1.19554 0.20986
 C371 C 0.27557 1.22400 0.20721
 C372 C 0.27908 1.23730 0.18455
 C373 C 0.32120 1.18183 0.15137
 C374 C 0.33634 1.16932 0.13742
 C375 C 0.35454 1.15377 0.12201
 C376 C 0.37015 1.13989 0.10941
 C377 C 0.38860 1.12261 0.09471
 C378 C 0.41434 1.11251 0.10394
 C379 C 0.43145 1.09440 0.09019
 C380 C 0.42298 1.08606 0.06702
 C381 C 0.39739 1.09676 0.05771
 C382 C 0.38035 1.11485 0.07146
 H383 H 0.29684 1.23449 0.14898
 H384 H 0.30705 1.16018 0.19415
 H385 H 0.28282 1.18403 0.22668
 H386 H 0.27203 1.25901 0.18152
 H387 H 0.42098 1.11826 0.12193
 H388 H 0.45101 1.08651 0.09786
 H389 H 0.39029 1.09076 0.03993
 H390 H 0.36050 1.12242 0.06409
 C391 C 0.80695 0.70035 0.67682
 C392 C 0.79111 0.68014 0.66431
 C393 C 0.76253 0.67624 0.67006
 C394 C 0.75006 0.69223 0.68854
 C395 C 0.76601 0.71240 0.70147
 C396 C 0.79468 0.71612 0.69526
 C397 C 0.80514 0.66264 0.64665
 C398 C 0.81867 0.64850 0.63265
 C399 C 0.83616 0.63245 0.61709
 C400 C 0.85217 0.61914 0.60448
 C401 C 0.87239 0.60359 0.59016
 C402 C 0.88327 0.61566 0.56897
 C403 C 0.90448 0.60154 0.55611
 C404 C 0.91518 0.57518 0.56434
 C405 C 0.90375 0.56294 0.58536
 C406 C 0.88254 0.57707 0.59818
 H407 H 0.82912 0.70347 0.67271
 H408 H 0.75008 0.66042 0.66066
 H409 H 0.72825 0.68808 0.69313
 H410 H 0.80798 0.73098 0.70488
 H411 H 0.87572 0.63624 0.56264
 H412 H 0.91285 0.61149 0.53998
 H413 H 0.91152 0.54265 0.59212
 H414 H 0.87444 0.56756 0.61460
 C415 C 0.72057 0.80582 0.17107
 C416 C 0.69169 0.80200 0.16652
 C417 C 0.67641 0.78216 0.18012
 C418 C 0.68951 0.76691 0.19863
 C419 C 0.71842 0.77086 0.20384
 C420 C 0.73386 0.79037 0.18961
 C421 C 0.67686 0.81961 0.14925
 C422 C 0.66309 0.83427 0.13566
 C423 C 0.64589 0.85143 0.12055
 C424 C 0.63073 0.86615 0.10813
 C425 C 0.61244 0.88400 0.09367
 C426 C 0.58660 0.89356 0.10293
 C427 C 0.56934 0.91180 0.08928
 C428 C 0.57777 0.92074 0.06618
 C429 C 0.60351 0.91062 0.05686
 C430 C 0.62071 0.89240 0.07052
 H431 H 0.73260 0.82134 0.16079
 H432 H 0.65403 0.77912 0.17693
 H433 H 0.67661 0.75254 0.20928
 H434 H 0.75588 0.79458 0.19333
 H435 H 0.57995 0.88721 0.12083
 H436 H 0.54967 0.91926 0.09694
 H437 H 0.61057 0.91712 0.03912
 H438 H 0.64062 0.88516 0.06313
 C439 C 1.23362 0.31377 0.66231
 C440 C 1.20508 0.30982 0.65674
 C441 C 1.18898 0.29035 0.67005
 C442 C 1.20103 0.27557 0.68935
 C443 C 1.22961 0.27970 0.69556
 C444 C 1.24581 0.29885 0.68160
 C445 C 1.19135 0.32746 0.63895
 C446 C 1.17851 0.34246 0.62504
 C447 C 1.16208 0.36009 0.60984
 C448 C 1.14698 0.37507 0.59769
 C449 C 1.12776 0.39269 0.58407
 C450 C 1.11699 0.38308 0.56212
 C451 C 1.09632 0.39897 0.55002
 C452 C 1.08611 0.42461 0.55983
 C453 C 1.09757 0.43448 0.58157
 C454 C 1.11825 0.41857 0.59363
 H455 H 1.24620 0.32909 0.65230
 H456 H 1.16678 0.28734 0.66607
 H457 H 1.18759 0.26150 0.69981
 H458 H 1.26755 0.30338 0.68612
 H459 H 1.12408 0.36300 0.55463
 H460 H 1.08790 0.39088 0.53328
 H461 H 1.09013 0.45417 0.58952
 H462 H 1.12633 0.42612 0.61068
 C463 C 0.72722 1.19411 -0.17200
 C464 C 0.69783 1.19460 -0.16893
 C465 C 0.68115 1.21077 -0.18460
 C466 C 0.69348 1.22591 -0.20349
 C467 C 0.72300 1.22559 -0.20705
 C468 C 0.73975 1.20951 -0.19097
 C469 C 0.68398 1.17761 -0.15071
 C470 C 0.67052 1.16362 -0.13645
 C471 C 0.65321 1.14742 -0.12075
 C472 C 0.63765 1.13360 -0.10801
 C473 C 0.61857 1.11693 -0.09337
 C474 C 0.62657 1.10809 -0.07026
 C475 C 0.60845 1.09102 -0.05645
 C476 C 0.58206 1.08251 -0.06561
 C477 C 0.57394 1.09190 -0.08866
 C478 C 0.59211 1.10898 -0.10245
 H479 H 0.74036 1.18142 -0.16008
 H480 H 0.65839 1.21122 -0.18253
 H481 H 0.67961 1.23767 -0.21545
 H482 H 0.76237 1.20817 -0.19336
 H483 H 0.64696 1.11411 -0.06302
 H484 H 0.61529 1.08412 -0.03875
 H485 H 0.55379 1.08565 -0.09619
 H486 H 0.58567 1.11569 -0.12032
 C487 C 1.23806 0.68361 0.33460
 C488 C 1.20889 0.68432 0.33867
 C489 C 1.19152 0.70053 0.32355
 C490 C 1.20305 0.71566 0.30426
 C491 C 1.23237 0.71525 0.29986
 C492 C 1.24974 0.69892 0.31528
 C493 C 1.19607 0.66731 0.35735
 C494 C 1.18359 0.65314 0.37207
 C495 C 1.16720 0.63669 0.38820
 C496 C 1.15187 0.62278 0.40102
 C497 C 1.13217 0.60639 0.41517
 C498 C 1.12141 0.61737 0.43667
 C499 C 1.10000 0.60277 0.44901
 C500 C 1.08904 0.57712 0.43985
 C501 C 1.10053 0.56585 0.41862
 C502 C 1.12193 0.58043 0.40635
 H503 H 1.25168 0.67081 0.34604
 H504 H 1.16888 0.70104 0.32639
 H505 H 1.18879 0.72752 0.29270
 H506 H 1.27219 0.69727 0.31212
 H507 H 1.12904 0.63754 0.44357
 H508 H 1.09156 0.61192 0.46534
 H509 H 1.09255 0.54609 0.41118
 H510 H 1.12997 0.57183 0.38965
 C511 C 0.27410 0.81472 -0.17382
 C512 C 0.30347 0.81521 -0.17039
 C513 C 0.32077 0.79863 -0.18506
 C514 C 0.30909 0.78199 -0.20320
 C515 C 0.27962 0.78123 -0.20707
 C516 C 0.26224 0.79782 -0.19206
 C517 C 0.31667 0.83316 -0.15257
 C518 C 0.32970 0.84771 -0.13850
 C519 C 0.34660 0.86433 -0.12287
 C520 C 0.36189 0.87830 -0.11009
 C521 C 0.38077 0.89496 -0.09531
 C522 C 0.40729 0.90315 -0.10418
 C523 C 0.42545 0.91979 -0.09013
 C524 C 0.41731 0.92848 -0.06698
 C525 C 0.39081 0.91984 -0.05808
 C526 C 0.37268 0.90321 -0.07215
 H527 H 0.26045 0.82762 -0.16265
 H528 H 0.34349 0.79882 -0.18269
 H529 H 0.32344 0.76971 -0.21421
 H530 H 0.23960 0.79820 -0.19465
 H531 H 0.41385 0.89689 -0.12206
 H532 H 0.44569 0.92614 -0.09749
 H533 H 0.38392 0.92621 -0.04033
 H534 H 0.35227 0.89699 -0.06503
 C535 C 0.80795 0.30942 0.32274
 C536 C 0.79035 0.32671 0.33656
 C537 C 0.76115 0.32664 0.33232
 C538 C 0.74974 0.30949 0.31408
 C539 C 0.76742 0.29215 0.29993
 C540 C 0.79672 0.29251 0.30457
 C541 C 0.80311 0.34502 0.35429
 C542 C 0.81593 0.35978 0.36830
 C543 C 0.83294 0.37637 0.38380
 C544 C 0.84878 0.38995 0.39635
 C545 C 0.86902 0.40551 0.41059
 C546 C 0.87945 0.39367 0.43202
 C547 C 0.90103 0.40744 0.44468
 C548 C 0.91256 0.43321 0.43599
 C549 C 0.90151 0.44533 0.41476
 C550 C 0.87992 0.43153 0.40214
 H551 H 0.83057 0.30933 0.32575
 H552 H 0.74730 0.34013 0.34280
 H553 H 0.72726 0.31035 0.31077
 H554 H 0.81125 0.27978 0.29411
 H555 H 0.87134 0.37346 0.43868
 H556 H 0.90908 0.39762 0.46099
 H557 H 0.90992 0.46517 0.40765
 H558 H 0.87218 0.44083 0.38550
 C559 C 1.19906 0.27314 0.16904
 C560 C 1.19061 0.30187 0.16913
 C561 C 1.19732 0.31898 0.18875
 C562 C 1.21262 0.30783 0.20800
 C563 C 1.22234 0.27931 0.20795
 C564 C 1.21457 0.26184 0.18847
 C565 C 1.17439 0.31448 0.14982
 C566 C 1.16068 0.32732 0.13495
 C567 C 1.14452 0.34430 0.11890
 C568 C 1.13061 0.35983 0.10613
 C569 C 1.11375 0.37915 0.09174
 C570 C 1.10577 0.40572 0.10105
 C571 C 1.08855 0.42417 0.08760
 C572 C 1.07904 0.41624 0.06464
 C573 C 1.08754 0.38973 0.05524
 C574 C 1.10475 0.37131 0.06873
 H575 H 1.19349 0.25946 0.15412
 H576 H 1.19045 0.34106 0.18931
 H577 H 1.21648 0.32186 0.22302
 H578 H 1.22028 0.23945 0.18829
 H579 H 1.11258 0.41204 0.11885
 H580 H 1.08233 0.44441 0.09532
 H581 H 1.08054 0.38303 0.03761
 H582 H 1.11077 0.35083 0.06131
 C583 C 0.69311 0.80340 0.67660
 C584 C 0.67640 0.78500 0.66299
 C585 C 0.67622 0.75569 0.66838
 C586 C 0.69257 0.74497 0.68751
 C587 C 0.70934 0.76346 0.70142
 C588 C 0.70920 0.79286 0.69564
 C589 C 0.65877 0.79721 0.64443
 C590 C 0.64452 0.80980 0.62979
 C591 C 0.62841 0.82679 0.61374
 C592 C 0.61510 0.84280 0.60092
 C593 C 0.59965 0.86340 0.58667
 C594 C 0.57398 0.87424 0.59517
 C595 C 0.56032 0.89639 0.58278
 C596 C 0.57222 0.90809 0.56174
 C597 C 0.59762 0.89659 0.55295
 C598 C 0.61128 0.87442 0.56539
 H599 H 0.69334 0.82613 0.67274
 H600 H 0.66312 0.74124 0.65810
 H601 H 0.69151 0.72240 0.69170
 H602 H 0.72146 0.80803 0.70590
 H603 H 0.56485 0.86605 0.61170
 H604 H 0.54076 0.90476 0.58997
 H605 H 0.60727 0.90516 0.53678
 H606 H 0.63125 0.86638 0.55873
 C607 C 1.19056 0.72859 -0.17287
 C608 C 1.19464 0.69989 -0.16633
 C609 C 1.21545 0.68389 -0.17783
 C610 C 1.23147 0.69601 -0.19625
 C611 C 1.22740 0.72470 -0.20346
 C612 C 1.20684 0.74094 -0.19132
 C613 C 1.17649 0.68566 -0.14918
 C614 C 1.16177 0.67192 -0.13567
 C615 C 1.14495 0.65433 -0.12063
 C616 C 1.13079 0.63859 -0.10826
 C617 C 1.11389 0.61938 -0.09383
 C618 C 1.10467 0.59332 -0.10334
 C619 C 1.08770 0.57496 -0.08956
 C620 C 1.07971 0.58249 -0.06609
 C621 C 1.08943 0.60849 -0.05656
 C622 C 1.10638 0.62679 -0.07034
 H623 H 1.17428 0.74115 -0.16423
 H624 H 1.21870 0.66163 -0.17310
 H625 H 1.24657 0.68242 -0.20528
 H626 H 1.20250 0.76277 -0.19667
 H627 H 1.11038 0.58731 -0.12149
 H628 H 1.08050 0.55512 -0.09739
 H629 H 1.08362 0.61490 -0.03854
 H630 H 1.11339 0.64684 -0.06275
 C631 C 0.70458 1.19512 0.32937
 C632 C 0.68445 1.21156 0.34134
 C633 C 0.68058 1.24025 0.33474
 C634 C 0.69639 1.25219 0.31583
 C635 C 0.71632 1.23557 0.30330
 C636 C 0.72016 1.20686 0.31049
 C637 C 0.66667 1.19784 0.35903
 C638 C 0.65214 1.18445 0.37294
 C639 C 0.63555 1.16698 0.38824
 C640 C 0.62171 1.15086 0.40053
 C641 C 0.60555 1.13040 0.41432
 C642 C 0.61662 1.11868 0.43557
 C643 C 0.60202 1.09700 0.44780
 C644 C 0.57619 1.08669 0.43884
 C645 C 0.56492 1.09902 0.41779
 C646 C 0.57953 1.12069 0.40561
 H647 H 0.70763 1.17284 0.33414
 H648 H 0.66481 1.25313 0.34371
 H649 H 0.69218 1.27404 0.31050
 H650 H 0.73479 1.19303 0.30117
 H651 H 0.63681 1.12587 0.44243
 H652 H 0.61119 1.08794 0.46398
 H653 H 0.54505 1.09157 0.41048
 H654 H 0.57081 1.12946 0.38912
 C655 C 0.79002 0.67658 0.18410
 C656 C 0.80677 0.69346 0.16904
 C657 C 0.80712 0.72320 0.17205
 C658 C 0.79105 0.73586 0.19036
 C659 C 0.77445 0.71890 0.20589
 C660 C 0.77421 0.68905 0.20237
 C661 C 0.82447 0.67952 0.15153
 C662 C 0.83906 0.66616 0.13778
 C663 C 0.85599 0.64917 0.12251
 C664 C 0.87041 0.63403 0.10998
 C665 C 0.88778 0.61561 0.09540
 C666 C 0.89643 0.62451 0.07248
 C667 C 0.91400 0.60705 0.05866
 C668 C 0.92321 0.58041 0.06759
 C669 C 0.91406 0.57140 0.09047
 C670 C 0.89648 0.58892 0.10428
 H671 H 0.78963 0.65357 0.18208
 H672 H 0.82020 0.73651 0.16059
 H673 H 0.79230 0.75874 0.19273
 H674 H 0.76204 0.67503 0.21393
 H675 H 0.88982 0.64507 0.06538
 H676 H 0.92066 0.61458 0.04110
 H677 H 0.92081 0.55103 0.09782
 H678 H 0.88990 0.58176 0.12198
 C679 C 0.30289 1.18777 0.67797
 C680 C 0.31970 1.20524 0.66340
 C681 C 0.31953 1.23486 0.66674
 C682 C 0.30281 1.24691 0.68483
 C683 C 0.28592 1.22946 0.69974
 C684 C 0.28634 1.19968 0.69604
 C685 C 0.33794 1.19215 0.64591
 C686 C 0.35300 1.17965 0.63202
 C687 C 0.37026 1.16342 0.61655
 C688 C 0.38459 1.14837 0.60394
 C689 C 0.40110 1.12909 0.58955
 C690 C 0.39068 1.11959 0.56744
 C691 C 0.40530 1.09870 0.55457
 C692 C 0.43049 1.08699 0.56374
 C693 C 0.44124 1.09722 0.58563
 C694 C 0.42657 1.11811 0.59848
 H695 H 0.30298 1.16479 0.67567
 H696 H 0.33271 1.24858 0.65570
 H697 H 0.30380 1.26974 0.68749
 H698 H 0.27406 1.18536 0.70727
 H699 H 0.37090 1.12781 0.56043
 H700 H 0.39656 1.09126 0.53773
 H701 H 0.46060 1.08861 0.59311
 H702 H 0.43475 1.12518 0.61565
 C703 C 0.80884 0.28021 -0.17377
 C704 C 0.80494 0.30947 -0.16962
 C705 C 0.78552 0.32476 -0.18356
 C706 C 0.77066 0.31125 -0.20192
 C707 C 0.77459 0.28192 -0.20664
 C708 C 0.79380 0.26652 -0.19216
 C709 C 0.82192 0.32459 -0.15227
 C710 C 0.83605 0.33847 -0.13851
 C711 C 0.85260 0.35568 -0.12309
 C712 C 0.86682 0.37078 -0.11035
 C713 C 0.88409 0.38895 -0.09545
 C714 C 0.89342 0.41549 -0.10417
 C715 C 0.91112 0.43262 -0.09011
 C716 C 0.91976 0.42338 -0.06714
 C717 C 0.90987 0.39694 -0.05836
 C718 C 0.89219 0.37986 -0.07242
 H719 H 0.82404 0.26816 -0.16324
 H720 H 0.78242 0.34743 -0.18068
 H721 H 0.75651 0.32413 -0.21279
 H722 H 0.79803 0.24419 -0.19552
 H723 H 0.88731 0.42279 -0.12196
 H724 H 0.91841 0.45285 -0.09736
 H725 H 0.91615 0.38923 -0.04074
 H726 H 0.88512 0.35941 -0.06545
 C727 C 0.31728 0.76780 0.33337
 C728 C 0.31377 0.79691 0.33813
 C729 C 0.29473 0.81302 0.32444
 C730 C 0.27978 0.80035 0.30569
 C731 C 0.28328 0.77111 0.30044
 C732 C 0.30222 0.75499 0.31463
 C733 C 0.33105 0.81103 0.35575
 C734 C 0.34563 0.82406 0.36968
 C735 C 0.36269 0.84056 0.38512
 C736 C 0.37717 0.85559 0.39762
 C737 C 0.39423 0.87461 0.41179
 C738 C 0.42019 0.88431 0.40287
 C739 C 0.43575 0.90461 0.41560
 C740 C 0.42546 0.91553 0.43741
 C741 C 0.39970 0.90517 0.44655
 C742 C 0.38416 0.88487 0.43378
 H743 H 0.33227 0.75519 0.34366
 H744 H 0.29203 0.83564 0.32779
 H745 H 0.26593 0.81374 0.29499
 H746 H 0.30634 0.73278 0.31076
 H747 H 0.42812 0.87662 0.38581
 H748 H 0.45553 0.91217 0.40815
 H749 H 0.39128 0.91318 0.46332
 H750 H 0.36404 0.87762 0.44081
 C751 C 1.20634 1.20671 0.33269
 C752 C 1.18642 1.18719 0.32440
 C753 C 1.18218 1.18384 0.29966
 C754 C 1.19797 1.20005 0.28323
 C755 C 1.21818 1.21984 0.29140
 C756 C 1.22204 1.22286 0.31642
 C757 C 1.17038 1.17094 0.34159
 C758 C 1.15732 1.15789 0.35661
 C759 C 1.14212 1.14298 0.37444
 C760 C 1.12879 1.13023 0.38948
 C761 C 1.11209 1.11473 0.40669
 C762 C 1.08300 1.11241 0.40303
 C763 C 1.06675 1.09543 0.41835
 C764 C 1.07943 1.08052 0.43755
 C765 C 1.10851 1.08381 0.44175
 C766 C 1.12482 1.10082 0.42629
 H767 H 1.20975 1.20952 0.35181
 H768 H 1.16670 1.16874 0.29308
 H769 H 1.19428 1.19702 0.26421
 H770 H 1.23719 1.23775 0.32367
 H771 H 1.07296 1.12313 0.38795
 H772 H 1.04435 1.09336 0.41476
 H773 H 1.11877 1.07247 0.45638
 H774 H 1.14737 1.10251 0.42924
 C775 C 0.70077 0.69045 -0.17242
 C776 C 0.68455 0.66732 -0.17982
 C777 C 0.68045 0.66232 -0.20440
 C778 C 0.69297 0.68045 -0.22153
 C779 C 0.70962 0.70378 -0.21417
 C780 C 0.71314 0.70843 -0.18931
 C781 C 0.67203 0.64956 -0.16161
 C782 C 0.66201 0.63648 -0.14499
 C783 C 0.65012 0.62301 -0.12470
 C784 C 0.63899 0.61262 -0.10728
 C785 C 0.62381 0.60110 -0.08711
 C786 C 0.63541 0.57945 -0.07263
 C787 C 0.61868 0.56592 -0.05517
 C788 C 0.59025 0.57385 -0.05244
 C789 C 0.57944 0.59679 -0.06600
 C790 C 0.59615 0.61035 -0.08320
 H791 H 0.70405 0.69456 -0.15345
 H792 H 0.66773 0.64444 -0.21028
 H793 H 0.68983 0.67601 -0.24042
 H794 H 0.72598 0.72567 -0.18257
 H795 H 0.65686 0.57220 -0.07555
 H796 H 0.62731 0.54807 -0.04508
 H797 H 0.55756 0.60323 -0.06417
 H798 H 0.58703 0.62715 -0.09424
 C799 C 0.82677 1.18344 0.70955
 C800 C 0.82494 1.18553 0.68448
 C801 C 0.80525 1.20387 0.67390
 C802 C 0.78738 1.22008 0.68821
 C803 C 0.78879 1.21834 0.71351
 C804 C 0.80881 1.19977 0.72401
 C805 C 0.84277 1.16881 0.66918
 C806 C 0.85684 1.15529 0.65530
 C807 C 0.87246 1.13980 0.63826
 C808 C 0.88535 1.12654 0.62341
 C809 C 0.90046 1.11035 0.60575
 C810 C 0.92744 1.09997 0.61107
 C811 C 0.94155 1.08279 0.59456
 C812 C 0.92878 1.07574 0.57254
 C813 C 0.90197 1.08687 0.56702
 C814 C 0.88786 1.10409 0.58361
 H815 H 0.84198 1.16920 0.71790
 H816 H 0.80362 1.20559 0.65450
 H817 H 0.77242 1.23392 0.67922
 H818 H 0.81064 1.19774 0.74335
 H819 H 0.93735 1.10474 0.62816
 H820 H 0.96222 1.07455 0.59926
 H821 H 0.89168 1.08174 0.55019
 H822 H 0.86694 1.11207 0.57935
 C823 C 0.33895 0.67732 0.21778
 C824 C 0.33767 0.67937 0.19272
 C825 C 0.31668 0.69575 0.18168
 C826 C 0.29715 0.71038 0.19560
 C827 C 0.29823 0.70894 0.22090
 C828 C 0.31935 0.69204 0.23183
 C829 C 0.35740 0.66451 0.17788
 C830 C 0.37278 0.65230 0.16423
 C831 C 0.38924 0.63798 0.14717
 C832 C 0.40200 0.62530 0.13195
 C833 C 0.41570 0.60932 0.11348
 C834 C 0.40372 0.60830 0.09049
 C835 C 0.41502 0.59015 0.07316
 C836 C 0.43834 0.57284 0.07880
 C837 C 0.45090 0.57481 0.10165
 C838 C 0.43955 0.59294 0.11895
 H839 H 0.35512 0.66449 0.22643
 H840 H 0.31548 0.69733 0.16225
 H841 H 0.28150 0.72316 0.18634
 H842 H 0.32101 0.69033 0.25120
 H843 H 0.38513 0.62087 0.08620
 H844 H 0.40502 0.58903 0.05567
 H845 H 0.46897 0.56174 0.10641
 H846 H 0.44885 0.59354 0.13675
 C847 C 1.20174 0.78897 0.67007
 C848 C 1.18130 0.80796 0.67833
 C849 C 1.17843 0.81287 0.70302
 C850 C 1.19607 0.79867 0.71943
 C851 C 1.21680 0.77942 0.71128
 C852 C 1.21928 0.77486 0.68632
 C853 C 1.16360 0.82229 0.66111
 C854 C 1.14946 0.83379 0.64590
 C855 C 1.13344 0.84706 0.62766
 C856 C 1.11986 0.85865 0.61213
 C857 C 1.10343 0.87321 0.59414
 C858 C 1.07462 0.87766 0.59806
 C859 C 1.05906 0.89448 0.58206
 C860 C 1.07218 0.90710 0.56195
 C861 C 1.10083 0.90143 0.55746
 C862 C 1.11643 0.88460 0.57358
 H863 H 1.20416 0.78503 0.65099
 H864 H 1.16261 0.82762 0.70958
 H865 H 1.19338 0.80280 0.73842
 H866 H 1.23477 0.76032 0.67906
 H867 H 1.06439 0.86891 0.61391
 H868 H 1.03698 0.89841 0.58590
 H869 H 1.11143 0.91096 0.54213
 H870 H 1.13877 0.88125 0.57042
 C871 C 0.68966 0.29693 0.17641
 C872 C 0.66683 0.31311 0.18427
 C873 C 0.66300 0.31805 0.20888
 C874 C 0.68198 0.30631 0.22561
 C875 C 0.70490 0.28953 0.21782
 C876 C 0.70841 0.28524 0.19291
 C877 C 0.64758 0.32390 0.16652
 C878 C 0.63287 0.33197 0.15021
 C879 C 0.61706 0.34098 0.13016
 C880 C 0.60425 0.34912 0.11276
 C881 C 0.58928 0.36019 0.09231
 C882 C 0.55984 0.36192 0.09297
 C883 C 0.54548 0.37737 0.07527
 C884 C 0.56049 0.39135 0.05681
 C885 C 0.58985 0.38760 0.05518
 C886 C 0.60422 0.37216 0.07298
 H887 H 0.69277 0.29293 0.15740
 H888 H 0.64528 0.33063 0.21511
 H889 H 0.67838 0.30997 0.24457
 H890 H 0.72523 0.27215 0.18589
 H891 H 0.54812 0.35268 0.10784
 H892 H 0.52281 0.37984 0.07685
 H893 H 0.60189 0.39823 0.04119
 H894 H 0.62706 0.37090 0.07237
 C895 C 0.79273 0.80223 0.32489
 C896 C 0.81146 0.82179 0.31465
 C897 C 0.81420 0.82356 0.28962
 C898 C 0.79821 0.80559 0.27487
 C899 C 0.77932 0.78562 0.28503
 C900 C 0.77685 0.78435 0.31029
 C901 C 0.82805 0.83941 0.33025
 C902 C 0.84153 0.85329 0.34432
 C903 C 0.85707 0.86872 0.36146
 C904 C 0.87046 0.88155 0.37628
 C905 C 0.88687 0.89677 0.39371
 C906 C 0.91485 0.90389 0.38842
 C907 C 0.93079 0.91946 0.40485
 C908 C 0.91891 0.92812 0.42681
 C909 C 0.89096 0.92038 0.43227
 C910 C 0.87499 0.90477 0.41574
 H911 H 0.79050 0.80064 0.34425
 H912 H 0.82875 0.83867 0.28153
 H913 H 0.80080 0.80731 0.25557
 H914 H 0.76278 0.76940 0.31905
 H915 H 0.92425 0.89771 0.37146
 H916 H 0.95230 0.92507 0.40019
 H917 H 0.88132 0.92684 0.44904
 H918 H 0.85333 0.89925 0.41999
 C919 C 0.29766 0.31826 -0.18368
 C920 C 0.31419 0.33932 -0.19454
 C921 C 0.31727 0.34013 -0.21953
 C922 C 0.30358 0.31983 -0.23370
 C923 C 0.28671 0.29848 -0.22295
 C924 C 0.28405 0.29804 -0.19771
 C925 C 0.32838 0.35945 -0.17956
 C926 C 0.34013 0.37518 -0.16586
 C927 C 0.35402 0.39217 -0.14890
 C928 C 0.36640 0.40568 -0.13398
 C929 C 0.38207 0.42074 -0.11611
 C930 C 0.40953 0.42969 -0.12132
 C931 C 0.42560 0.44303 -0.10370
 C932 C 0.41432 0.44758 -0.08065
 C933 C 0.38665 0.43864 -0.07553
 C934 C 0.37057 0.42520 -0.09324
 H935 H 0.29527 0.31744 -0.16430
 H936 H 0.33020 0.35640 -0.22804
 H937 H 0.30614 0.32105 -0.25303
 H938 H 0.27126 0.28224 -0.18858
 H939 H 0.41861 0.42610 -0.13894
 H940 H 0.44687 0.44974 -0.10812
 H941 H 0.37754 0.44194 -0.05790
 H942 H 0.34935 0.41809 -0.08906
 C943 C 1.18960 0.27557 -0.17445
 C944 C 1.18864 0.30542 -0.17251
 C945 C 1.20357 0.32230 -0.18891
 C946 C 1.21904 0.30967 -0.20730
 C947 C 1.22025 0.27968 -0.20964
 C948 C 1.20530 0.26275 -0.19292
 C949 C 1.17177 0.31943 -0.15446
 C950 C 1.15789 0.33289 -0.14025
 C951 C 1.14181 0.35006 -0.12447
 C952 C 1.12810 0.36541 -0.11154
 C953 C 1.11156 0.38413 -0.09655
 C954 C 1.10320 0.37526 -0.07354
 C955 C 1.08633 0.39302 -0.05936
 C956 C 1.07754 0.41993 -0.06802
 C957 C 1.08644 0.42891 -0.09097
 C958 C 1.10332 0.41110 -0.10514
 H959 H 1.17795 0.26224 -0.16192
 H960 H 1.20296 0.34541 -0.18769
 H961 H 1.23003 0.32368 -0.21970
 H962 H 1.20525 0.23972 -0.19433
 H963 H 1.10944 0.35448 -0.06666
 H964 H 1.07983 0.38550 -0.04175
 H965 H 1.08000 0.44949 -0.09812
 H966 H 1.10968 0.41824 -0.12291
 C967 C 0.67876 0.76185 0.33205
 C968 C 0.67933 0.79135 0.33603
 C969 C 0.69614 0.80889 0.32153
 C970 C 0.71199 0.79719 0.30291
 C971 C 0.71170 0.76753 0.29858
 C972 C 0.69478 0.75000 0.31341
 C973 C 0.66178 0.80433 0.35406
 C974 C 0.64729 0.81687 0.36837
 C975 C 0.63068 0.83327 0.38422
 C976 C 0.61684 0.84855 0.39703
 C977 C 0.60082 0.86815 0.41150
 C978 C 0.61176 0.87790 0.43336
 C979 C 0.59759 0.89914 0.44619
 C980 C 0.57235 0.91097 0.43723
 C981 C 0.56110 0.90051 0.41560
 C982 C 0.57530 0.87926 0.40280
 H983 H 0.66553 0.74809 0.34301
 H984 H 0.69659 0.83179 0.32431
 H985 H 0.72428 0.81159 0.29177
 H986 H 0.69321 0.72730 0.31026
 H987 H 0.63159 0.86958 0.44019
 H988 H 0.60672 0.90676 0.46282
 H989 H 0.54168 0.90919 0.40829
 H990 H 0.56672 0.87201 0.38583
 C991 C 0.80959 0.73046 -0.17161
 C992 C 0.80991 0.70098 -0.16684
 C993 C 0.79320 0.68278 -0.18059
 C994 C 0.77676 0.69361 -0.19927
 C995 C 0.77624 0.72316 -0.20456
 C996 C 0.79283 0.74151 -0.19037
 C997 C 0.82809 0.68840 -0.14885
 C998 C 0.84284 0.67552 -0.13475
 C999 C 0.85963 0.65845 -0.11926
 C1000 C 0.87370 0.64280 -0.10673
 C1001 C 0.89043 0.62333 -0.09238
 C1002 C 0.89826 0.59673 -0.10172
 C1003 C 0.91498 0.57797 -0.08811
 C1004 C 0.92411 0.58561 -0.06497
 C1005 C 0.91580 0.61218 -0.05558
 C1006 C 0.89908 0.63091 -0.06921
 H1007 H 0.82264 0.74479 -0.16116
 H1008 H 0.79330 0.65994 -0.17719
 H1009 H 0.76458 0.67852 -0.20968
 H1010 H 0.79344 0.76421 -0.19410
 H1011 H 0.89164 0.59058 -0.11961
 H1012 H 0.92107 0.55768 -0.09582
 H1013 H 0.92251 0.61867 -0.03781
 H1014 H 0.89311 0.65137 -0.06176
 C1015 C 0.32183 1.23986 0.33375
 C1016 C 0.32025 1.21058 0.33903
 C1017 C 0.30188 1.19326 0.32595
 C1018 C 0.28566 1.20482 0.30738
 C1019 C 0.28717 1.23417 0.30158
 C1020 C 0.30540 1.25159 0.31513
 C1021 C 0.33836 1.19743 0.35678
 C1022 C 0.35319 1.18456 0.37081
 C1023 C 0.37011 1.16770 0.38632
 C1024 C 0.38416 1.15205 0.39885
 C1025 C 0.40046 1.13208 0.41303
 C1026 C 0.42605 1.12149 0.40415
 C1027 C 0.44063 1.10010 0.41674
 C1028 C 0.42972 1.08896 0.43837
 C1029 C 0.40437 1.10021 0.44750
 C1030 C 0.38981 1.12160 0.43487
 H1031 H 0.33618 1.25347 0.34364
 H1032 H 0.30055 1.17055 0.32977
 H1033 H 0.27217 1.19049 0.29737
 H1034 H 0.30765 1.27408 0.31097
 H1035 H 0.43442 1.12929 0.38720
 H1036 H 0.46011 1.09187 0.40929
 H1037 H 0.39546 1.09206 0.46412
 H1038 H 0.36994 1.12948 0.44185
 C1039 C 1.21824 0.67680 0.18186
 C1040 C 1.19853 0.69197 0.16812
 C1041 C 1.19450 0.72120 0.17230
 C1042 C 1.20968 0.73498 0.19056
 C1043 C 1.22914 0.71970 0.20489
 C1044 C 1.23323 0.69040 0.20010
 C1045 C 1.18135 0.67672 0.15099
 C1046 C 1.16704 0.66276 0.13743
 C1047 C 1.15028 0.64546 0.12225
 C1048 C 1.13589 0.63030 0.10971
 C1049 C 1.11842 0.61207 0.09502
 C1050 C 1.11023 0.62100 0.07198
 C1051 C 1.09240 0.60389 0.05809
 C1052 C 1.08244 0.57757 0.06708
 C1053 C 1.09118 0.56847 0.09006
 C1054 C 1.10903 0.58565 0.10394
 H1055 H 1.22144 0.65415 0.17896
 H1056 H 1.17907 0.73314 0.16194
 H1057 H 1.20532 0.75728 0.19399
 H1058 H 1.24755 0.67760 0.21087
 H1059 H 1.11735 0.64136 0.06484
 H1060 H 1.08606 0.61147 0.04045
 H1061 H 1.08384 0.54834 0.09747
 H1062 H 1.11522 0.57848 0.12175
 C1063 C 0.68577 1.23339 0.66528
 C1064 C 0.68928 1.20425 0.66063
 C1065 C 0.70847 1.18827 0.67428
 C1066 C 0.72354 1.20108 0.69287
 C1067 C 0.72004 1.23034 0.69802
 C1068 C 0.70098 1.24635 0.68387
 C1069 C 0.67187 1.18993 0.64321
 C1070 C 0.65724 1.17666 0.62947
 C1071 C 0.64019 1.15982 0.61429
 C1072 C 0.62578 1.14446 0.60200
 C1073 C 0.60885 1.12507 0.58807
 C1074 C 0.58302 1.11524 0.59716
 C1075 C 0.56761 1.09461 0.58466
 C1076 C 0.57793 1.08348 0.56294
 C1077 C 0.60357 1.09394 0.55364
 C1078 C 0.61896 1.11458 0.56617
 H1079 H 0.67068 1.24591 0.65502
 H1080 H 0.71118 1.16562 0.67102
 H1081 H 0.73748 1.18776 0.70356
 H1082 H 0.69688 1.26859 0.68766
 H1083 H 0.57506 1.12310 0.61415
 H1084 H 0.54791 1.08698 0.59222
 H1085 H 0.61202 1.08579 0.53694
 H1086 H 0.63899 1.12191 0.55903
 C1087 C 0.78654 0.31962 0.18056
 C1088 C 0.80720 0.30364 0.16883
 C1089 C 0.81137 0.27494 0.17531
 C1090 C 0.79530 0.26255 0.19388
 C1091 C 0.77483 0.27873 0.20618
 C1092 C 0.77071 0.30745 0.19909
 C1093 C 0.82507 0.31779 0.15141
 C1094 C 0.83964 0.33132 0.13762
 C1095 C 0.85640 0.34855 0.12221
 C1096 C 0.87058 0.36394 0.10955
 C1097 C 0.88758 0.38277 0.09483
 C1098 C 0.89523 0.37481 0.07150
 C1099 C 0.91232 0.39275 0.05749
 C1100 C 0.92204 0.41894 0.06665
 C1101 C 0.91392 0.42701 0.08996
 C1102 C 0.89681 0.40902 0.10395
 H1103 H 0.78321 0.34188 0.17586
 H1104 H 0.82753 0.26239 0.16651
 H1105 H 0.79971 0.24070 0.19913
 H1106 H 0.75563 0.32095 0.20822
 H1107 H 0.88819 0.35461 0.06420
 H1108 H 0.91822 0.38595 0.03960
 H1109 H 0.92109 0.44701 0.09751
 H1110 H 0.89101 0.41546 0.12197
 C1111 C 0.32172 0.76093 0.66768
 C1112 C 0.31805 0.78954 0.66076
 C1113 C 0.29809 0.80634 0.67257
 C1114 C 0.28244 0.79503 0.69159
 C1115 C 0.28605 0.76639 0.69907
 C1116 C 0.30585 0.74942 0.68673
 C1117 C 0.33593 0.80282 0.64292
 C1118 C 0.35059 0.81583 0.62887
 C1119 C 0.36737 0.83287 0.61339
 C1120 C 0.38137 0.84867 0.60096
 C1121 C 0.39771 0.86880 0.58699
 C1122 C 0.38674 0.88034 0.56564
 C1123 C 0.40147 0.90181 0.55328
 C1124 C 0.42731 0.91209 0.56221
 C1125 C 0.43850 0.89991 0.58335
 C1126 C 0.42376 0.87845 0.59567
 H1127 H 0.33738 0.74779 0.65884
 H1128 H 0.29521 0.82858 0.66756
 H1129 H 0.26794 0.80912 0.70078
 H1130 H 0.30992 0.72763 0.69229
 H1131 H 0.36652 0.87318 0.55882
 H1132 H 0.39235 0.91076 0.53702
 H1133 H 0.45839 0.90735 0.59064
 H1134 H 0.43240 0.86982 0.61224
 C1135 C 0.31886 1.21975 -0.18102
 C1136 C 0.30415 1.19923 -0.16769
 C1137 C 0.27566 1.19391 -0.17286
 C1138 C 0.26221 1.20860 -0.19175
 C1139 C 0.27710 1.22882 -0.20570
 C1140 C 0.30562 1.23421 -0.19988
 C1141 C 0.31935 1.18238 -0.15014
 C1142 C 0.33354 1.16845 -0.13634
 C1143 C 0.35130 1.15224 -0.12100
 C1144 C 0.36696 1.13833 -0.10839
 C1145 C 0.38584 1.12145 -0.09369
 C1146 C 0.37804 1.11368 -0.07027
 C1147 C 0.39576 1.09626 -0.05637
 C1148 C 0.42155 1.08632 -0.06572
 C1149 C 0.42955 1.09472 -0.08907
 C1150 C 0.41177 1.11216 -0.10297
 H1151 H 0.34096 1.22390 -0.17737
 H1152 H 0.26411 1.17781 -0.16282
 H1153 H 0.24057 1.20319 -0.19600
 H1154 H 0.31818 1.24906 -0.21035
 H1155 H 0.35807 1.12075 -0.06287
 H1156 H 0.38903 1.09018 -0.03844
 H1157 H 0.44926 1.08738 -0.09675
 H1158 H 0.41806 1.11805 -0.12107
 C1159 C 0.76366 0.68323 0.33468
 C1160 C 0.79235 0.68703 0.33985
 C1161 C 0.80847 0.70572 0.32579
 C1162 C 0.79625 0.72010 0.30638
 C1163 C 0.76743 0.71643 0.30078
 C1164 C 0.75128 0.69778 0.31525
 C1165 C 0.80617 0.67039 0.35828
 C1166 C 0.81931 0.65646 0.37278
 C1167 C 0.83627 0.64019 0.38865
 C1168 C 0.85190 0.62633 0.40126
 C1169 C 0.87177 0.60981 0.41520
 C1170 C 0.88138 0.58357 0.40644
 C1171 C 0.90261 0.56861 0.41863
 C1172 C 0.91456 0.57974 0.43974
 C1173 C 0.90431 0.60576 0.44879
 C1174 C 0.88307 0.62074 0.43653
 H1175 H 0.75105 0.66848 0.34525
 H1176 H 0.83077 0.70860 0.32944
 H1177 H 0.80967 0.73376 0.29553
 H1178 H 0.72936 0.69358 0.31116
 H1179 H 0.87290 0.57498 0.38988
 H1180 H 0.91003 0.54859 0.41126
 H1181 H 0.91313 0.61482 0.46501
 H1182 H 0.87592 0.64112 0.44339
 C1183 C 0.72863 1.18915 0.17561
 C1184 C 0.69926 1.18859 0.17220
 C1185 C 0.68189 1.20474 0.18713
 C1186 C 0.69348 1.22104 0.20550
 C1187 C 0.72296 1.22193 0.20933
 C1188 C 0.74042 1.20572 0.19409
 C1189 C 0.68608 1.17104 0.15412
 C1190 C 0.67290 1.15689 0.13989
 C1191 C 0.65569 1.14081 0.12413
 C1192 C 0.64007 1.12734 0.11128
 C1193 C 0.62079 1.11129 0.09642
 C1194 C 0.59426 1.10331 0.10539
 C1195 C 0.57572 1.08721 0.09126
 C1196 C 0.58352 1.07885 0.06794
 C1197 C 0.61003 1.08732 0.05894
 C1198 C 0.62852 1.10341 0.07309
 H1199 H 0.74234 1.17656 0.16423
 H1200 H 0.65917 1.20448 0.18477
 H1201 H 0.67905 1.23300 0.21668
 H1202 H 0.76306 1.20541 0.19667
 H1203 H 0.58798 1.10931 0.12341
 H1204 H 0.55549 1.08097 0.09869
 H1205 H 0.61665 1.08120 0.04105
 H1206 H 0.64894 1.10949 0.06590
 C1207 C 1.19334 0.69389 0.68012
 C1208 C 1.21070 0.67684 0.66588
 C1209 C 1.23994 0.67664 0.66995
 C1210 C 1.25162 0.69338 0.68835
 C1211 C 1.23420 0.71058 0.70284
 C1212 C 1.20484 0.71039 0.69843
 C1213 C 1.19769 0.65915 0.64781
 C1214 C 1.18472 0.64492 0.63350
 C1215 C 1.16762 0.62888 0.61764
 C1216 C 1.15176 0.61566 0.60481
 C1217 C 1.13159 0.60034 0.59027
 C1218 C 1.12110 0.61259 0.56901
 C1219 C 1.09971 0.59888 0.55605
 C1220 C 1.08844 0.57278 0.56426
 C1221 C 1.09953 0.56031 0.58533
 C1222 C 1.12091 0.57403 0.59825
 H1223 H 1.17069 0.69418 0.67726
 H1224 H 1.25362 0.66333 0.65915
 H1225 H 1.27414 0.69237 0.69148
 H1226 H 1.19047 0.72304 0.70913
 H1227 H 1.12904 0.63302 0.56271
 H1228 H 1.09162 0.60898 0.53988
 H1229 H 1.09131 0.54021 0.59209
 H1230 H 1.12870 0.56441 0.61475
 C1231 C 0.67771 0.78745 -0.18085
 C1232 C 0.69311 0.80845 -0.16887
 C1233 C 0.72176 0.81235 -0.17439
 C1234 C 0.73470 0.79569 -0.19222
 C1235 C 0.71915 0.77486 -0.20474
 C1236 C 0.69045 0.77100 -0.19863
 C1237 C 0.67859 0.82670 -0.15201
 C1238 C 0.66495 0.84153 -0.13859
 C1239 C 0.64776 0.85853 -0.12346
 C1240 C 0.63255 0.87287 -0.11089
 C1241 C 0.61412 0.88999 -0.09608
 C1242 C 0.62227 0.89733 -0.07271
 C1243 C 0.60475 0.91446 -0.05853
 C1244 C 0.57876 0.92455 -0.06753
 C1245 C 0.57050 0.91675 -0.09088
 C1246 C 0.58808 0.89959 -0.10505
 H1247 H 0.65552 0.78425 -0.17688
 H1248 H 0.73390 0.82872 -0.16537
 H1249 H 0.75656 0.79983 -0.19668
 H1250 H 0.67746 0.75557 -0.20791
 H1251 H 0.64230 0.89003 -0.06551
 H1252 H 0.61172 0.92010 -0.04063
 H1253 H 0.55066 0.92421 -0.09831
 H1254 H 0.58148 0.89404 -0.12309
 C1255 C 1.19409 0.30397 0.32629
 C1256 C 1.21105 0.32336 0.33865
 C1257 C 1.23982 0.32551 0.33291
 C1258 C 1.25136 0.30859 0.31457
 C1259 C 1.23426 0.28926 0.30178
 C1260 C 1.20543 0.28732 0.30801
 C1261 C 1.19787 0.34180 0.35608
 C1262 C 1.18470 0.35661 0.36983
 C1263 C 1.16731 0.37325 0.38502
 C1264 C 1.15122 0.38690 0.39730
 C1265 C 1.13077 0.40261 0.41124
 C1266 C 1.11969 0.39077 0.43244
 C1267 C 1.09811 0.40484 0.44487
 C1268 C 1.08721 0.43092 0.43619
 C1269 C 1.09885 0.44297 0.41518
 C1270 C 1.12044 0.42887 0.40278
 H1271 H 1.17177 0.30222 0.33039
 H1272 H 1.25314 0.34068 0.34219
 H1273 H 1.27338 0.31136 0.30995
 H1274 H 1.19124 0.27325 0.29847
 H1275 H 1.12735 0.37039 0.43911
 H1276 H 1.08960 0.39506 0.46101
 H1277 H 1.09094 0.46304 0.40808
 H1278 H 1.12869 0.43818 0.38633
 C1279 C 0.27609 0.80819 0.17076
 C1280 C 0.30548 0.80797 0.16770
 C1281 C 0.32226 0.79165 0.18320
 C1282 C 0.31001 0.77614 0.20193
 C1283 C 0.28050 0.77626 0.20549
 C1284 C 0.26365 0.79243 0.18955
 C1285 C 0.31918 0.82547 0.14974
 C1286 C 0.33240 0.83997 0.13568
 C1287 C 0.34934 0.85686 0.12021
 C1288 C 0.36457 0.87130 0.10765
 C1289 C 0.38323 0.88873 0.09325
 C1290 C 0.37491 0.89804 0.07034
 C1291 C 0.39264 0.91581 0.05678
 C1292 C 0.41894 0.92454 0.06597
 C1293 C 0.42736 0.91471 0.08881
 C1294 C 0.40959 0.89693 0.10236
 H1295 H 0.26287 0.82099 0.15899
 H1296 H 0.34503 0.79140 0.18114
 H1297 H 0.32394 0.76431 0.21379
 H1298 H 0.24102 0.79360 0.19194
 H1299 H 0.35459 0.89184 0.06308
 H1300 H 0.38557 0.92303 0.03923
 H1301 H 0.44746 0.92111 0.09636
 H1302 H 0.41627 0.88986 0.12007
 C1303 C 0.81168 0.30145 0.67475
 C1304 C 0.79423 0.31789 0.65987
 C1305 C 0.76506 0.31840 0.66398
 C1306 C 0.75348 0.30276 0.68315
 C1307 C 0.77094 0.28630 0.69840
 C1308 C 0.80024 0.28598 0.69389
 C1309 C 0.80695 0.33541 0.64149
 C1310 C 0.81929 0.35006 0.62702
 C1311 C 0.83549 0.36706 0.61116
 C1312 C 0.85063 0.38138 0.59852
 C1313 C 0.87011 0.39818 0.58448
 C1314 C 0.88044 0.42393 0.59364
 C1315 C 0.90164 0.43885 0.58140
 C1316 C 0.91283 0.42811 0.55985
 C1317 C 0.90176 0.40267 0.55038
 C1318 C 0.88056 0.38775 0.56267
 H1319 H 0.83432 0.30107 0.67188
 H1320 H 0.75138 0.33136 0.65272
 H1321 H 0.73103 0.30432 0.68636
 H1322 H 0.81456 0.27399 0.70531
 H1323 H 0.87263 0.43210 0.61058
 H1324 H 0.90972 0.45843 0.58908
 H1325 H 0.90996 0.39393 0.53379
 H1326 H 0.87285 0.36774 0.55550
 C1327 C 1.18379 1.17220 0.70824
 C1328 C 1.18697 1.17333 0.68323
 C1329 C 1.20579 1.19271 0.67287
 C1330 C 1.22125 1.21112 0.68732
 C1331 C 1.21826 1.21053 0.71255
 C1332 C 1.19937 1.19067 0.72285
 C1333 C 1.17052 1.15542 0.66778
 C1334 C 1.15704 1.14135 0.65387
 C1335 C 1.14142 1.12573 0.63692
 C1336 C 1.12792 1.11279 0.62226
 C1337 C 1.11136 1.09750 0.60500
 C1338 C 1.12297 1.08973 0.58281
 C1339 C 1.10685 1.07414 0.56638
 C1340 C 1.07903 1.06620 0.57211
 C1341 C 1.06742 1.07460 0.59424
 C1342 C 1.08352 1.09014 0.61057
 H1343 H 1.16914 1.15725 0.71642
 H1344 H 1.20834 1.19382 0.65351
 H1345 H 1.23534 1.22598 0.67848
 H1346 H 1.19640 1.18947 0.74213
 H1347 H 1.14452 1.09544 0.57833
 H1348 H 1.11627 1.06789 0.54946
 H1349 H 1.04602 1.06881 0.59911
 H1350 H 1.07434 1.09616 0.62767
 C1351 C 0.69457 0.68322 0.18025
 C1352 C 0.67754 0.66241 0.19092
 C1353 C 0.67516 0.66086 0.21596
 C1354 C 0.69001 0.68012 0.23034
 C1355 C 0.70741 0.70115 0.21978
 C1356 C 0.70936 0.70239 0.19450
 C1357 C 0.66259 0.64290 0.17583
 C1358 C 0.65041 0.62726 0.16229
 C1359 C 0.63632 0.60977 0.14575
 C1360 C 0.62408 0.59537 0.13132
 C1361 C 0.60895 0.57867 0.11410
 C1362 C 0.58196 0.56866 0.11977
 C1363 C 0.56677 0.55294 0.10297
 C1364 C 0.57845 0.54704 0.08029
 C1365 C 0.60560 0.55716 0.07468
 C1366 C 0.62079 0.57297 0.09156
 H1367 H 0.69652 0.68456 0.16085
 H1368 H 0.66193 0.64476 0.22435
 H1369 H 0.68793 0.67831 0.24967
 H1370 H 0.72254 0.71798 0.18550
 H1371 H 0.57262 0.57309 0.13715
 H1372 H 0.54588 0.54540 0.10776
 H1373 H 0.61502 0.55290 0.05732
 H1374 H 0.64167 0.58079 0.08703
 C1375 C 1.17564 0.81697 0.28852
 C1376 C 1.17740 0.81492 0.31359
 C1377 C 1.19753 0.79716 0.32425
 C1378 C 1.21586 0.78139 0.31001
 C1379 C 1.21446 0.78302 0.28471
 C1380 C 1.19407 0.80111 0.27413
 C1381 C 1.15887 0.83091 0.32882
 C1382 C 1.14420 0.84374 0.34270
 C1383 C 1.12790 0.85837 0.35980
 C1384 C 1.11449 0.87089 0.37476
 C1385 C 1.09887 0.88620 0.39262
 C1386 C 1.11119 0.89219 0.41493
 C1387 C 1.09663 0.90872 0.43171
 C1388 C 1.06967 0.91947 0.42621
 C1389 C 1.05716 0.91263 0.40404
 C1390 C 1.07171 0.89611 0.38733
 H1391 H 1.16007 0.83076 0.28012
 H1392 H 1.19907 0.79545 0.34366
 H1393 H 1.23103 0.76784 0.31906
 H1394 H 1.19223 0.80302 0.25478
 H1395 H 1.13224 0.88457 0.41915
 H1396 H 1.10673 0.91371 0.44865
 H1397 H 1.03637 0.92058 0.39936
 H1398 H 1.06203 0.89157 0.37011
 C1399 C 0.68698 0.30572 -0.18323
 C1400 C 0.66555 0.32155 -0.19419
 C1401 C 0.66410 0.32356 -0.21926
 C1402 C 0.68395 0.30924 -0.23337
 C1403 C 0.70543 0.29276 -0.22250
 C1404 C 0.70672 0.29147 -0.19720
 C1405 C 0.64523 0.33547 -0.17927
 C1406 C 0.62926 0.34666 -0.16548
 C1407 C 0.61198 0.35959 -0.14820
 C1408 C 0.59839 0.37097 -0.13277
 C1409 C 0.58354 0.38535 -0.11400
 C1410 C 0.55926 0.40111 -0.11936
 C1411 C 0.54670 0.41780 -0.10164
 C1412 C 0.55847 0.41894 -0.07843
 C1413 C 0.58222 0.40216 -0.07293
 C1414 C 0.59474 0.38546 -0.09070
 H1415 H 0.68826 0.30411 -0.16380
 H1416 H 0.64755 0.33593 -0.22786
 H1417 H 0.68210 0.31081 -0.25274
 H1418 H 0.72258 0.27892 -0.18798
 H1419 H 0.55056 0.40120 -0.13739
 H1420 H 0.52835 0.43049 -0.10631
 H1421 H 0.59164 0.40266 -0.05518
 H1422 H 0.61363 0.37335 -0.08646
 C1423 C 0.82371 1.18958 0.29915
 C1424 C 0.82077 1.19420 0.32387
 C1425 C 0.80047 1.21328 0.33224
 C1426 C 0.78309 1.22771 0.31607
 C1427 C 0.78561 1.22338 0.29108
 C1428 C 0.80625 1.20409 0.28282
 C1429 C 0.83810 1.17931 0.34099
 C1430 C 0.85192 1.16719 0.35607
 C1431 C 0.86754 1.15308 0.37408
 C1432 C 0.88078 1.14066 0.38936
 C1433 C 0.89678 1.12504 0.40697
 C1434 C 0.88348 1.11337 0.42728
 C1435 C 0.89857 1.09548 0.44291
 C1436 C 0.92700 1.08902 0.43818
 C1437 C 0.94046 1.10189 0.41835
 C1438 C 0.92541 1.11977 0.40283
 H1439 H 0.83941 1.17474 0.29252
 H1440 H 0.79799 1.21697 0.35135
 H1441 H 0.76763 1.24222 0.32340
 H1442 H 0.80895 1.20012 0.26380
 H1443 H 0.86127 1.11735 0.43058
 H1444 H 0.88773 1.08578 0.45805
 H1445 H 0.96239 1.09736 0.41434
 H1446 H 0.93586 1.12870 0.38716
 C1447 C 0.33671 0.68164 -0.20588
 C1448 C 0.33319 0.68702 -0.18130
 C1449 C 0.31166 0.70502 -0.17359
 C1450 C 0.29376 0.71784 -0.19021
 C1451 C 0.29688 0.71296 -0.21508
 C1452 C 0.31863 0.69456 -0.22272
 C1453 C 0.35121 0.67441 -0.16343
 C1454 C 0.36497 0.66475 -0.14712
 C1455 C 0.37985 0.65389 -0.12718
 C1456 C 0.39206 0.64428 -0.10997
 C1457 C 0.40653 0.63170 -0.08986
 C1458 C 0.39117 0.61903 -0.07108
 C1459 C 0.40513 0.60269 -0.05360
 C1460 C 0.43448 0.59875 -0.05500
 C1461 C 0.44988 0.61322 -0.07294
 C1462 C 0.43595 0.62957 -0.09031
 H1463 H 0.35340 0.66762 -0.21200
 H1464 H 0.30875 0.70932 -0.15461
 H1465 H 0.27762 0.73186 -0.18329
 H1466 H 0.32185 0.69031 -0.24164
 H1467 H 0.36835 0.62060 -0.07064
 H1468 H 0.39279 0.59167 -0.04001
 H1469 H 0.47256 0.61061 -0.07434
 H1470 H 0.44799 0.63933 -0.10475
 C1471 C 0.81113 0.82055 0.70333
 C1472 C 0.80754 0.81644 0.67860
 C1473 C 0.78867 0.79585 0.67037
 C1474 C 0.77353 0.77923 0.68669
 C1475 C 0.77690 0.78284 0.71169
 C1476 C 0.79588 0.80387 0.71981
 C1477 C 0.82357 0.83255 0.66134
 C1478 C 0.83678 0.84513 0.64614
 C1479 C 0.85229 0.85911 0.62798
 C1480 C 0.86597 0.87082 0.61258
 C1481 C 0.88315 0.88488 0.59486
 C1482 C 0.87086 0.89830 0.57483
 C1483 C 0.88772 0.91386 0.55874
 C1484 C 0.91694 0.91618 0.56274
 C1485 C 0.92915 0.90171 0.58239
 C1486 C 0.91234 0.88617 0.59834
 H1487 H 0.82583 0.83645 0.70986
 H1488 H 0.78581 0.79242 0.65126
 H1489 H 0.75937 0.76336 0.67946
 H1490 H 0.79916 0.80738 0.73883
 H1491 H 0.84824 0.89735 0.57200
 H1492 H 0.87782 0.92489 0.54377
 H1493 H 0.95162 0.90306 0.58584
 H1494 H 0.92204 0.87578 0.61374
 C1495 C 0.33007 0.29493 0.18849
 C1496 C 0.31843 0.31982 0.17857
 C1497 C 0.29534 0.33285 0.18963
 C1498 C 0.28257 0.31989 0.20950
 C1499 C 0.29229 0.29334 0.21816
 C1500 C 0.31733 0.28197 0.20842
 C1501 C 0.32924 0.33125 0.15640
 C1502 C 0.33807 0.34071 0.13770
 C1503 C 0.34897 0.35203 0.11611
 C1504 C 0.35953 0.36224 0.09836
 C1505 C 0.37427 0.37532 0.07863
 C1506 C 0.36165 0.39717 0.06501
 C1507 C 0.37818 0.41402 0.04957
 C1508 C 0.40741 0.40928 0.04810
 C1509 C 0.41940 0.38597 0.06043
 C1510 C 0.40290 0.36905 0.07557
 H1511 H 0.34827 0.28492 0.18027
 H1512 H 0.28661 0.35253 0.18243
 H1513 H 0.26450 0.33026 0.21741
 H1514 H 0.32597 0.26197 0.21502
 H1515 H 0.33952 0.40229 0.06741
 H1516 H 0.36858 0.43202 0.04035
 H1517 H 0.44191 0.38190 0.05949
 H1518 H 0.41287 0.35227 0.08608
   
