data_POSCAR
  _audit_creation_date              2014-09-24
  _audit_creation_method            'ToBaCCo'
  _symmetry_space_group_name_H-M    'P1'
  _symmetry_Int_Tables_number       1
  _symmetry_cell_setting            triclinic
  loop_
  _symmetry_equiv_pos_as_xyz
 x,y,z
_cell_length_a 67.8879
_cell_length_b 70.0538
_cell_length_c 68.7426
_cell_angle_alpha 89.112700
_cell_angle_beta 90.086300
_cell_angle_gamma 90.146400
loop_
  _atom_site_label
  _atom_site_type_symbol
  _atom_site_fract_x
  _atom_site_fract_y
  _atom_site_fract_z
N1 N 0.37408 0.33085 0.33087
 N2 N 0.37155 0.34361 0.31683
 C3 C 0.38507 0.34086 0.30289
 C4 C 0.39692 0.32580 0.30850
 C5 C 0.38959 0.31972 0.32641
 H6 H 0.38622 0.34914 0.28953
 H7 H 0.39482 0.30792 0.33530
 Cu8 Cu 0.35094 0.36275 0.31792
 Cu9 Cu 0.35672 0.32993 0.35368
 Cu10 Cu 0.31314 0.35543 0.34784
 N11 N 0.32984 0.38139 0.31987
 N12 N 0.31482 0.37814 0.33148
 C13 C 0.30131 0.39193 0.32887
 C14 C 0.30828 0.40465 0.31500
 C15 C 0.32648 0.39757 0.30955
 H16 H 0.28718 0.39236 0.33612
 H17 H 0.33607 0.40321 0.29830
 N18 N 0.31765 0.33716 0.36924
 N19 N 0.33396 0.32715 0.37162
 C20 C 0.33221 0.31638 0.38802
 C21 C 0.31409 0.32029 0.39635
 C22 C 0.30540 0.33352 0.38415
 H23 H 0.34347 0.30700 0.39382
 H24 H 0.29123 0.34023 0.38617
 H25 H 0.33435 0.33703 0.33593
 H26 H 0.34293 0.35663 0.35197
 N27 N 0.37306 0.82445 -0.17750
 N28 N 0.36872 0.83548 -0.19252
 C29 C 0.38273 0.83364 -0.20620
 C30 C 0.39650 0.82063 -0.19941
 C31 C 0.38992 0.81513 -0.18106
 H32 H 0.38263 0.84082 -0.22025
 H33 H 0.39642 0.80475 -0.17121
 Cu34 Cu 0.34464 0.85028 -0.19314
 Cu35 Cu 0.35552 0.82156 -0.15541
 Cu36 Cu 0.31948 0.85621 -0.15132
 N37 N 0.32587 0.87076 -0.19010
 N38 N 0.31645 0.87351 -0.17368
 C39 C 0.30492 0.88907 -0.17570
 C40 C 0.30732 0.89630 -0.19447
 C41 C 0.32066 0.88432 -0.20313
 H42 H 0.29541 0.89447 -0.16447
 H43 H 0.32629 0.88549 -0.21782
 N44 N 0.32506 0.83705 -0.13060
 N45 N 0.33921 0.82426 -0.13208
 C46 C 0.33935 0.81309 -0.11600
 C47 C 0.32435 0.81881 -0.10398
 C48 C 0.31553 0.83407 -0.11361
 H49 H 0.34906 0.80109 -0.11353
 H50 H 0.30294 0.84213 -0.10879
 H51 H 0.32904 0.83291 -0.16601
 H52 H 0.34844 0.85001 -0.15800
 N53 N 0.87495 0.32695 -0.17075
 N54 N 0.87350 0.33802 -0.18629
 C55 C 0.88727 0.33308 -0.19926
 C56 C 0.89810 0.31825 -0.19138
 C57 C 0.88996 0.31468 -0.17319
 H58 H 0.88929 0.33973 -0.21342
 H59 H 0.89425 0.30377 -0.16273
 Cu60 Cu 0.85409 0.35805 -0.18798
 Cu61 Cu 0.85676 0.32938 -0.14899
 Cu62 Cu 0.81443 0.35578 -0.15938
 N63 N 0.83660 0.37959 -0.18567
 N64 N 0.82024 0.37850 -0.17548
 C65 C 0.80972 0.39460 -0.17862
 C66 C 0.82042 0.40638 -0.19123
 C67 C 0.83740 0.39645 -0.19517
 H68 H 0.79544 0.39735 -0.17233
 H69 H 0.84904 0.40080 -0.20502
 N70 N 0.81613 0.33689 -0.13771
 N71 N 0.83250 0.32760 -0.13333
 C72 C 0.82910 0.31582 -0.11805
 C73 C 0.80962 0.31773 -0.11252
 C74 C 0.80184 0.33120 -0.12530
 H75 H 0.83982 0.30600 -0.11199
 H76 H 0.78682 0.33628 -0.12567
 H77 H 0.83484 0.33526 -0.16858
 H78 H 0.84342 0.35599 -0.15414
 N79 N 0.86714 0.81637 0.32647
 N80 N 0.87150 0.83144 0.31569
 C81 C 0.88860 0.82823 0.30633
 C82 C 0.89511 0.81014 0.31170
 C83 C 0.88116 0.80308 0.32443
 H84 H 0.89554 0.83813 0.29624
 H85 H 0.88100 0.78915 0.33144
 Cu86 Cu 0.85340 0.85297 0.31448
 Cu87 Cu 0.84311 0.81456 0.34150
 Cu88 Cu 0.82260 0.85842 0.35225
 N89 N 0.83583 0.87475 0.31585
 N90 N 0.82382 0.87693 0.33066
 C91 C 0.81312 0.89290 0.32775
 C92 C 0.81860 0.90097 0.30999
 C93 C 0.83305 0.88910 0.30292
 H94 H 0.80187 0.89784 0.33759
 H95 H 0.84068 0.89063 0.28918
 N96 N 0.81751 0.83495 0.36786
 N97 N 0.82491 0.81826 0.36307
 C98 C 0.81926 0.80496 0.37614
 C99 C 0.80769 0.81353 0.38985
 C100 C 0.80672 0.83261 0.38422
 H101 H 0.82371 0.79014 0.37601
 H102 H 0.79906 0.84392 0.39157
 H103 H 0.82605 0.83813 0.33220
 H104 H 0.84804 0.84229 0.34791
 N105 N 0.62434 0.67991 0.32391
 N106 N 0.62761 0.66567 0.31212
 C107 C 0.61339 0.66533 0.29848
 C108 C 0.60058 0.68018 0.30181
 C109 C 0.60794 0.68918 0.31812
 H110 H 0.61266 0.65531 0.28668
 H111 H 0.60222 0.70183 0.32491
 Cu112 Cu 0.65062 0.64945 0.31489
 Cu113 Cu 0.64273 0.68618 0.34467
 Cu114 Cu 0.67962 0.65330 0.35417
 N115 N 0.66858 0.62919 0.32268
 N116 N 0.67975 0.63058 0.33823
 C117 C 0.69144 0.61512 0.33958
 C118 C 0.68737 0.60345 0.32405
 C119 C 0.67272 0.61279 0.31363
 H120 H 0.70262 0.61286 0.35060
 H121 H 0.66599 0.60838 0.30016
 N122 N 0.67459 0.67534 0.37093
 N123 N 0.66055 0.68793 0.36732
 C124 C 0.66141 0.70168 0.38079
 C125 C 0.67672 0.69757 0.39342
 C126 C 0.68472 0.68073 0.38679
 H127 H 0.65195 0.71406 0.38116
 H128 H 0.69730 0.67321 0.39271
 H129 H 0.66780 0.67303 0.33500
 H130 H 0.65004 0.65790 0.34899
 N131 N 0.63495 0.18848 -0.17639
 N132 N 0.62841 0.17210 -0.18292
 C133 C 0.61088 0.17493 -0.19173
 C134 C 0.60637 0.19418 -0.19063
 C135 C 0.62201 0.20231 -0.18096
 H136 H 0.60230 0.16391 -0.19864
 H137 H 0.62383 0.21722 -0.17744
 Cu138 Cu 0.64411 0.14905 -0.17988
 Cu139 Cu 0.65985 0.19072 -0.16263
 Cu140 Cu 0.67856 0.14793 -0.14488
 N141 N 0.66348 0.12864 -0.17841
 N142 N 0.67662 0.12790 -0.16434
 C143 C 0.68792 0.11232 -0.16657
 C144 C 0.68173 0.10297 -0.18310
 C145 C 0.66610 0.11372 -0.19024
 H146 H 0.70011 0.10838 -0.15718
 H147 H 0.65734 0.11110 -0.20308
 N148 N 0.68532 0.17283 -0.13360
 N149 N 0.67906 0.18912 -0.14125
 C150 C 0.68647 0.20366 -0.13098
 C151 C 0.69781 0.19622 -0.11605
 C152 C 0.69685 0.17658 -0.11813
 H153 H 0.68335 0.21859 -0.13378
 H154 H 0.70406 0.16583 -0.10920
 H155 H 0.67386 0.16488 -0.16811
 H156 H 0.65351 0.16508 -0.14991
 N157 N 0.13055 0.67852 -0.17389
 N158 N 0.12640 0.66495 -0.18626
 C159 C 0.11021 0.66992 -0.19650
 C160 C 0.10408 0.68767 -0.19027
 C161 C 0.11738 0.69271 -0.17602
 H162 H 0.10393 0.66167 -0.20814
 H163 H 0.11764 0.70588 -0.16799
 Cu164 Cu 0.14409 0.64333 -0.18900
 Cu165 Cu 0.15337 0.67714 -0.15669
 Cu166 Cu 0.17276 0.63148 -0.15107
 N167 N 0.16123 0.62116 -0.18979
 N168 N 0.17242 0.61649 -0.17483
 C169 C 0.18298 0.60088 -0.17919
 C170 C 0.17827 0.59564 -0.19801
 C171 C 0.16445 0.60882 -0.20426
 H172 H 0.19365 0.59425 -0.16956
 H173 H 0.15755 0.60953 -0.21845
 N174 N 0.17753 0.65210 -0.13235
 N175 N 0.17059 0.66955 -0.13487
 C176 C 0.17689 0.68052 -0.12022
 C177 C 0.18848 0.66947 -0.10789
 C178 C 0.18857 0.65154 -0.11604
 H179 H 0.17330 0.69545 -0.11877
 H180 H 0.19641 0.63912 -0.11065
 H181 H 0.17053 0.65509 -0.16819
 H182 H 0.14778 0.64886 -0.15428
 N183 N 0.12875 0.18101 0.32224
 N184 N 0.12958 0.17018 0.30681
 C185 C 0.11515 0.17522 0.29437
 C186 C 0.10466 0.18997 0.30236
 C187 C 0.11364 0.19334 0.32012
 H188 H 0.11261 0.16884 0.28036
 H189 H 0.10996 0.20434 0.33035
 Cu190 Cu 0.14957 0.15080 0.30376
 Cu191 Cu 0.14857 0.17939 0.34285
 Cu192 Cu 0.18420 0.14438 0.33777
 N193 N 0.16471 0.12737 0.30545
 N194 N 0.17806 0.12476 0.31907
 C195 C 0.18722 0.10804 0.31624
 C196 C 0.17915 0.09974 0.29989
 C197 C 0.16493 0.11240 0.29341
 H198 H 0.19950 0.10287 0.32484
 H199 H 0.15594 0.11112 0.28049
 N200 N 0.18407 0.16236 0.35936
 N201 N 0.17030 0.17540 0.36171
 C202 C 0.17488 0.18583 0.37743
 C203 C 0.19237 0.17894 0.38521
 C204 C 0.19771 0.16411 0.37343
 H205 H 0.16662 0.19802 0.38229
 H206 H 0.21089 0.15556 0.37476
 H207 H 0.17057 0.16880 0.32609
 H208 H 0.15471 0.15075 0.33876
 N209 N 0.62443 0.31745 0.67592
 N210 N 0.62276 0.33319 0.68592
 C211 C 0.60501 0.33353 0.69454
 C212 C 0.59503 0.31706 0.68984
 C213 C 0.60779 0.30708 0.67798
 H214 H 0.60000 0.34456 0.70417
 H215 H 0.60546 0.29317 0.67176
 Cu216 Cu 0.64464 0.35076 0.68860
 Cu217 Cu 0.64877 0.31146 0.66223
 Cu218 Cu 0.67670 0.35201 0.65161
 N219 N 0.66486 0.37018 0.68679
 N220 N 0.67719 0.37107 0.67208
 C221 C 0.68914 0.38631 0.67428
 C222 C 0.68402 0.39517 0.69146
 C223 C 0.66864 0.38454 0.69897
 H224 H 0.70087 0.39029 0.66439
 H225 H 0.66080 0.38710 0.71236
 N226 N 0.67940 0.32774 0.63749
 N227 N 0.66944 0.31213 0.64220
 C228 C 0.67561 0.29768 0.63108
 C229 C 0.69006 0.30453 0.61869
 C230 C 0.69211 0.32366 0.62311
 H231 H 0.67002 0.28322 0.63192
 H232 H 0.70253 0.33368 0.61685
 H233 H 0.66952 0.33184 0.67195
 H234 H 0.64906 0.33952 0.65552
 N235 N 0.62743 0.82834 1.17052
 N236 N 0.62961 0.83981 1.18534
 C237 C 0.61544 0.83608 1.19853
 C238 C 0.60363 0.82164 1.19153
 C239 C 0.61160 0.81708 1.17365
 H240 H 0.61399 0.84306 1.21237
 H241 H 0.60676 0.80600 1.16394
 Cu242 Cu 0.65118 0.85805 1.18620
 Cu243 Cu 0.64592 0.82838 1.14875
 Cu244 Cu 0.69057 0.85056 1.15861
 N245 N 0.67233 0.87681 1.18464
 N246 N 0.68793 0.87356 1.17390
 C247 C 0.70109 0.88769 1.17634
 C248 C 0.69330 0.90056 1.18922
 C249 C 0.67497 0.89325 1.19424
 H250 H 0.71547 0.88831 1.16961
 H251 H 0.66466 0.89904 1.20455
 N252 N 0.68701 0.83239 1.13743
 N253 N 0.66993 0.82445 1.13311
 C254 C 0.67237 0.81316 1.11759
 C255 C 0.69195 0.81417 1.11196
 C256 C 0.70073 0.82645 1.12484
 H257 H 0.66085 0.80463 1.11115
 H258 H 0.71603 0.83081 1.12495
 H259 H 0.66757 0.83270 1.16845
 H260 H 0.66167 0.85382 1.15265
 N261 N 0.12821 0.32859 1.17325
 N262 N 0.12921 0.34452 1.18323
 C263 C 0.11358 0.34532 1.19525
 C264 C 0.10217 0.32918 1.19267
 C265 C 0.11188 0.31888 1.17859
 H266 H 0.11099 0.35649 1.20562
 H267 H 0.10784 0.30499 1.17321
 Cu268 Cu 0.15163 0.36247 1.18096
 Cu269 Cu 0.14918 0.32047 1.15530
 Cu270 Cu 0.19158 0.34534 1.15849
 N271 N 0.17635 0.37683 1.17979
 N272 N 0.19183 0.37003 1.17078
 C273 C 0.20664 0.38275 1.17163
 C274 C 0.20023 0.39837 1.18177
 C275 C 0.18088 0.39419 1.18681
 H276 H 0.22106 0.38082 1.16530
 H277 H 0.17084 0.40309 1.19481
 N278 N 0.18839 0.32478 1.14025
 N279 N 0.17175 0.31531 1.13856
 C280 C 0.17387 0.30199 1.12476
 C281 C 0.19291 0.30328 1.11758
 C282 C 0.20167 0.31781 1.12776
 H283 H 0.16259 0.29192 1.12059
 H284 H 0.21663 0.32294 1.12615
 H285 H 0.16319 0.33521 1.17721
 H286 H 0.15643 0.34878 1.15437
 N287 N 0.12890 0.81860 0.67615
 N288 N 0.13050 0.83209 0.68915
 C289 C 0.11643 0.82955 0.70276
 C290 C 0.10531 0.81379 0.69789
 C291 C 0.11363 0.80715 0.68091
 H292 H 0.11443 0.83845 0.71531
 H293 H 0.10932 0.79460 0.67298
 Cu294 Cu 0.15080 0.85170 0.68732
 Cu295 Cu 0.14763 0.81606 0.65493
 Cu296 Cu 0.17988 0.85366 0.64759
 N297 N 0.16670 0.87411 0.68097
 N298 N 0.17778 0.87491 0.66532
 C299 C 0.18778 0.89152 0.66497
 C300 C 0.18276 0.90168 0.68126
 C301 C 0.16928 0.89023 0.69113
 H302 H 0.19850 0.89565 0.65406
 H303 H 0.16230 0.89310 0.70489
 N304 N 0.17983 0.83080 0.63131
 N305 N 0.16778 0.81625 0.63433
 C306 C 0.17233 0.80227 0.62188
 C307 C 0.18788 0.80837 0.61042
 C308 C 0.19227 0.82653 0.61677
 H309 H 0.16517 0.78847 0.62141
 H310 H 0.20413 0.83565 0.61174
 H311 H 0.17070 0.83183 0.66621
 H312 H 0.15101 0.84534 0.65272
 N313 N 0.37347 0.67105 0.67261
 N314 N 0.37285 0.65675 0.68521
 C315 C 0.38613 0.65968 0.69936
 C316 C 0.39584 0.67656 0.69535
 C317 C 0.38753 0.68348 0.67818
 H318 H 0.38853 0.65030 0.71178
 H319 H 0.39106 0.69668 0.67059
 Cu320 Cu 0.35474 0.63569 0.68206
 Cu321 Cu 0.35541 0.67212 0.65034
 Cu322 Cu 0.31442 0.64222 0.65536
 N323 N 0.33704 0.61465 0.67702
 N324 N 0.32055 0.61739 0.66735
 C325 C 0.30964 0.60130 0.66837
 C326 C 0.32014 0.58776 0.67904
 C327 C 0.33746 0.59669 0.68413
 H328 H 0.29505 0.59977 0.66224
 H329 H 0.34894 0.59085 0.69336
 N330 N 0.31538 0.66427 0.63713
 N331 N 0.33120 0.67505 0.63456
 C332 C 0.32742 0.68824 0.62057
 C333 C 0.30828 0.68562 0.61410
 C334 C 0.30110 0.67039 0.62495
 H335 H 0.33768 0.69916 0.61580
 H336 H 0.28659 0.66409 0.62386
 H337 H 0.33442 0.66121 0.66825
 H338 H 0.34351 0.64444 0.64951
 N339 N 0.37325 0.17807 1.18325
 N340 N 0.37321 0.16383 1.19593
 C341 C 0.38806 0.16618 1.20865
 C342 C 0.39799 0.18275 1.20371
 C343 C 0.38822 0.19000 1.18748
 H344 H 0.39133 0.15664 1.22074
 H345 H 0.39150 0.20307 1.17955
 Cu346 Cu 0.35357 0.14380 1.19505
 Cu347 Cu 0.35340 0.18012 1.16270
 Cu348 Cu 0.32178 0.14139 1.15771
 N349 N 0.33856 0.12084 1.19015
 N350 N 0.32554 0.12008 1.17601
 C351 C 0.31625 0.10305 1.17692
 C352 C 0.32410 0.09263 1.19237
 C353 C 0.33828 0.10429 1.20031
 H354 H 0.30462 0.09866 1.16718
 H355 H 0.34724 0.10116 1.21298
 N356 N 0.32052 0.16440 1.14075
 N357 N 0.33230 0.17927 1.14290
 C358 C 0.32719 0.19294 1.12986
 C359 C 0.31167 0.18631 1.11886
 C360 C 0.30779 0.16816 1.12614
 H361 H 0.33413 0.20681 1.12849
 H362 H 0.29620 0.15864 1.12150
 H363 H 0.33149 0.16335 1.17506
 H364 H 0.35053 0.15082 1.16046
 N365 N 0.86165 0.68359 1.16755
 N366 N 0.86613 0.66880 1.17885
 C367 C 0.88157 0.67354 1.19018
 C368 C 0.88697 0.69218 1.18562
 C369 C 0.87404 0.69805 1.17130
 H370 H 0.88828 0.66415 1.20089
 H371 H 0.87395 0.71177 1.16385
 Cu372 Cu 0.85111 0.64459 1.17840
 Cu373 Cu 0.84118 0.68309 1.14739
 Cu374 Cu 0.81614 0.64244 1.14402
 N375 N 0.82927 0.62636 1.18022
 N376 N 0.81537 0.62597 1.16688
 C377 C 0.80168 0.61300 1.17207
 C378 C 0.80731 0.60468 1.18947
 C379 C 0.82498 0.61338 1.19430
 H380 H 0.78841 0.60999 1.16393
 H381 H 0.83373 0.61094 1.20726
 N382 N 0.81819 0.65992 1.12195
 N383 N 0.82762 0.67621 1.12359
 C384 C 0.82479 0.68682 1.10738
 C385 C 0.81306 0.67650 1.09483
 C386 C 0.80928 0.65944 1.10445
 H387 H 0.83043 0.70115 1.10523
 H388 H 0.79971 0.64810 1.09956
 H389 H 0.83083 0.66327 1.16830
 H390 H 0.84896 0.65528 1.14977
 N391 N 0.88359 0.17498 0.67408
 N392 N 0.88330 0.16046 0.68642
 C393 C 0.89995 0.16049 0.69702
 C394 C 0.91108 0.17605 0.69132
 C395 C 0.90033 0.18499 0.67669
 H396 H 0.90336 0.15048 0.70867
 H397 H 0.90416 0.19798 0.66887
 Cu398 Cu 0.86061 0.14386 0.68902
 Cu399 Cu 0.86175 0.18031 0.65640
 Cu400 Cu 0.82003 0.15205 0.66246
 N401 N 0.83992 0.12490 0.68699
 N402 N 0.82398 0.12816 0.67663
 C403 C 0.81144 0.11340 0.67896
 C404 C 0.82009 0.10019 0.69148
 C405 C 0.83812 0.10794 0.69627
 H406 H 0.79688 0.11278 0.67262
 H407 H 0.84880 0.10195 0.70632
 N408 N 0.82175 0.17309 0.64326
 N409 N 0.83783 0.18335 0.64032
 C410 C 0.83447 0.19598 0.62569
 C411 C 0.81532 0.19349 0.61924
 C412 C 0.80771 0.17895 0.63071
 H413 H 0.84501 0.20641 0.62039
 H414 H 0.79305 0.17295 0.62979
 H415 H 0.84093 0.17012 0.67501
 H416 H 0.84973 0.15291 0.65652
 N417 N 0.31911 0.37040 0.65426
 N418 N 0.33055 0.37043 0.66973
 C419 C 0.32606 0.38559 0.68068
 C420 C 0.31093 0.39557 0.67156
 C421 C 0.30696 0.38554 0.65483
 H422 H 0.33276 0.38861 0.69458
 H423 H 0.29558 0.38865 0.64422
 Cu424 Cu 0.34935 0.34990 0.67473
 Cu425 Cu 0.31994 0.34974 0.63544
 Cu426 Cu 0.33403 0.30770 0.65825
 N427 N 0.36312 0.32636 0.68168
 N428 N 0.35645 0.30985 0.67558
 C429 C 0.36777 0.29575 0.68279
 C430 C 0.38258 0.30376 0.69370
 C431 C 0.37923 0.32330 0.69281
 H432 H 0.36562 0.28074 0.67993
 H433 H 0.38770 0.33437 0.69977
 N434 N 0.31882 0.30852 0.63391
 N435 N 0.31453 0.32450 0.62443
 C436 C 0.30594 0.32017 0.60736
 C437 C 0.30486 0.30045 0.60618
 C438 C 0.31303 0.29359 0.62325
 H439 H 0.30079 0.33058 0.59676
 H440 H 0.31518 0.27876 0.62733
 H441 H 0.32079 0.33429 0.66010
 H442 H 0.34348 0.33218 0.64499
 N443 N 0.30297 0.85897 0.16850
 N444 N 0.31954 0.86474 0.17645
 C445 C 0.31602 0.88045 0.18691
 C446 C 0.29614 0.88466 0.18546
 C447 C 0.28831 0.87069 0.17378
 H448 H 0.32700 0.88794 0.19530
 H449 H 0.27309 0.86927 0.16934
 Cu450 Cu 0.34411 0.85088 0.17330
 Cu451 Cu 0.30193 0.83707 0.15153
 Cu452 Cu 0.34378 0.81291 0.14210
 N453 N 0.36594 0.83251 0.17189
 N454 N 0.36570 0.81780 0.16013
 C455 C 0.38182 0.80708 0.16348
 C456 C 0.39270 0.81546 0.17813
 C457 C 0.38221 0.83153 0.18308
 H458 H 0.38503 0.79388 0.15621
 H459 H 0.38582 0.84137 0.19453
 N460 N 0.32062 0.81128 0.12540
 N461 N 0.30417 0.82025 0.12945
 C462 C 0.29043 0.81580 0.11613
 C463 C 0.29876 0.80358 0.10293
 C464 C 0.31796 0.80096 0.10923
 H465 H 0.27548 0.82110 0.11600
 H466 H 0.32900 0.79190 0.10284
 H467 H 0.33130 0.82461 0.16684
 H468 H 0.33666 0.84095 0.14536
 N469 N 0.81195 0.37734 0.16441
 N470 N 0.82703 0.38048 0.17594
 C471 C 0.82252 0.39472 0.18809
 C472 C 0.80355 0.40075 0.18386
 C473 C 0.79732 0.38942 0.16880
 H474 H 0.83219 0.39996 0.19934
 H475 H 0.78309 0.38986 0.16171
 Cu476 Cu 0.85072 0.36516 0.17436
 Cu477 Cu 0.81235 0.35769 0.14477
 Cu478 Cu 0.85185 0.32648 0.14568
 N479 N 0.87039 0.34539 0.17778
 N480 N 0.87098 0.33032 0.16662
 C481 C 0.88565 0.31876 0.17282
 C482 C 0.89460 0.32712 0.18875
 C483 C 0.88453 0.34394 0.19144
 H484 H 0.88916 0.30514 0.16653
 H485 H 0.88704 0.35417 0.20281
 N486 N 0.83058 0.32531 0.12594
 N487 N 0.81538 0.33704 0.12603
 C488 C 0.80288 0.33229 0.11170
 C489 C 0.81054 0.31697 0.10201
 C490 C 0.82816 0.31283 0.11135
 H491 H 0.78904 0.33932 0.10859
 H492 H 0.83813 0.30129 0.10815
 H493 H 0.83039 0.33982 0.16143
 H494 H 0.84271 0.35426 0.14178
 N495 N 0.80514 0.87131 0.66582
 N496 N 0.81797 0.87480 0.67967
 C497 C 0.81224 0.89052 0.68924
 C498 C 0.79483 0.89704 0.68088
 C499 C 0.79077 0.88445 0.66617
 H500 H 0.81990 0.89647 0.70156
 H501 H 0.77820 0.88476 0.65648
 Cu502 Cu 0.84011 0.85752 0.68429
 Cu503 Cu 0.80756 0.84964 0.64866
 Cu504 Cu 0.85463 0.83093 0.64676
 N505 N 0.86174 0.83932 0.68697
 N506 N 0.86760 0.82935 0.67201
 C507 C 0.88273 0.81812 0.67745
 C508 C 0.88646 0.82101 0.69700
 C509 C 0.87283 0.83454 0.70259
 H510 H 0.88997 0.80818 0.66796
 H511 H 0.87106 0.84032 0.71698
 N512 N 0.83486 0.82698 0.62622
 N513 N 0.81675 0.83366 0.62728
 C514 C 0.80642 0.82779 0.61176
 C515 C 0.81862 0.81673 0.60043
 C516 C 0.83650 0.81647 0.61007
 H517 H 0.79107 0.83102 0.60919
 H518 H 0.84958 0.80876 0.60589
 H519 H 0.82937 0.83272 0.66201
 H520 H 0.83671 0.85521 0.64899
 N521 N 0.68249 0.62906 0.66181
 N522 N 0.67004 0.63002 0.67641
 C523 C 0.67445 0.61634 0.68965
 C524 C 0.69036 0.60615 0.68292
 C525 C 0.69508 0.61454 0.66513
 H526 H 0.66684 0.61416 0.70333
 H527 H 0.70721 0.61093 0.65570
 Cu528 Cu 0.64941 0.64924 0.67705
 Cu529 Cu 0.68216 0.64784 0.64047
 Cu530 Cu 0.66198 0.69047 0.65555
 N531 N 0.63320 0.67193 0.67972
 N532 N 0.63857 0.68814 0.67142
 C533 C 0.62584 0.70190 0.67625
 C534 C 0.61154 0.69390 0.68802
 C535 C 0.61662 0.67479 0.69004
 H536 H 0.62698 0.71669 0.67161
 H537 H 0.60919 0.66395 0.69868
 N538 N 0.67955 0.68855 0.63308
 N539 N 0.68668 0.67231 0.62665
 C540 C 0.69692 0.67586 0.61018
 C541 C 0.69593 0.69530 0.60617
 C542 C 0.68487 0.70281 0.62093
 H543 H 0.70426 0.66512 0.60173
 H544 H 0.68053 0.71756 0.62239
 H545 H 0.67760 0.66568 0.66237
 H546 H 0.65632 0.66387 0.64528
 N547 N 0.67657 0.12847 0.17095
 N548 N 0.66220 0.13261 0.18295
 C549 C 0.66169 0.11936 0.19739
 C550 C 0.67650 0.10627 0.19423
 C551 C 0.68564 0.11249 0.17728
 H552 H 0.65161 0.11939 0.20956
 H553 H 0.69824 0.10619 0.17029
 Cu554 Cu 0.64638 0.15549 0.17879
 Cu555 Cu 0.68322 0.14461 0.14856
 Cu556 Cu 0.65529 0.18558 0.14127
 N557 N 0.63057 0.17835 0.17462
 N558 N 0.63432 0.19023 0.16008
 C559 C 0.62193 0.20518 0.16099
 C560 C 0.60970 0.20249 0.17686
 C561 C 0.61559 0.18531 0.18521
 H562 H 0.62194 0.21725 0.15100
 H563 H 0.60978 0.17864 0.19827
 N564 N 0.67713 0.17826 0.12390
 N565 N 0.68772 0.16268 0.12676
 C566 C 0.70181 0.16192 0.11303
 C567 C 0.70001 0.17769 0.10091
 C568 C 0.68420 0.18778 0.10818
 H569 H 0.71285 0.15089 0.11202
 H570 H 0.67855 0.20124 0.10272
 H571 H 0.67305 0.16995 0.15992
 H572 H 0.65549 0.15628 0.14452
 N573 N 0.17889 0.63328 0.16047
 N574 N 0.16620 0.63567 0.17466
 C575 C 0.17036 0.62346 0.18936
 C576 C 0.18631 0.61260 0.18400
 C577 C 0.19138 0.61912 0.16553
 H578 H 0.16243 0.62258 0.20298
 H579 H 0.20364 0.61450 0.15676
 Cu580 Cu 0.14516 0.65421 0.17261
 Cu581 Cu 0.17875 0.64988 0.13730
 Cu582 Cu 0.15641 0.69331 0.14663
 N583 N 0.12782 0.67612 0.17204
 N584 N 0.13239 0.69155 0.16190
 C585 C 0.11869 0.70500 0.16490
 C586 C 0.10473 0.69754 0.17749
 C587 C 0.11097 0.67913 0.18178
 H588 H 0.11907 0.71928 0.15869
 H589 H 0.10418 0.66892 0.19163
 N590 N 0.17540 0.68967 0.12546
 N591 N 0.18309 0.67299 0.12109
 C592 C 0.19454 0.67519 0.10519
 C593 C 0.19396 0.69423 0.09945
 C594 C 0.18178 0.70293 0.11262
 H595 H 0.20299 0.66391 0.09865
 H596 H 0.17766 0.71784 0.11265
 H597 H 0.17296 0.67016 0.15677
 H598 H 0.15231 0.66554 0.13953
 N599 N 0.17841 0.12813 0.66842
 N600 N 0.16425 0.13044 0.68119
 C601 C 0.16552 0.11667 0.69499
 C602 C 0.18115 0.10501 0.69058
 C603 C 0.18906 0.11263 0.67358
 H604 H 0.15604 0.11533 0.70755
 H605 H 0.20190 0.10764 0.66589
 Cu606 Cu 0.14593 0.15154 0.67904
 Cu607 Cu 0.18245 0.14618 0.64677
 Cu608 Cu 0.14925 0.18383 0.64278
 N609 N 0.12761 0.17265 0.67692
 N610 N 0.12892 0.18531 0.66267
 C611 C 0.11501 0.19874 0.66505
 C612 C 0.10445 0.19424 0.68166
 C613 C 0.11283 0.17757 0.68884
 H614 H 0.11289 0.21106 0.65560
 H615 H 0.10885 0.16986 0.70197
 N616 N 0.17087 0.17993 0.62420
 N617 N 0.18383 0.16597 0.62596
 C618 C 0.19750 0.16808 0.61188
 C619 C 0.19276 0.18394 0.60066
 C620 C 0.17581 0.19111 0.60886
 H621 H 0.21016 0.15895 0.61003
 H622 H 0.16810 0.20394 0.60445
 H623 H 0.16989 0.16955 0.65975
 H624 H 0.15346 0.15458 0.64445
 N625 N 0.30964 0.64189 0.32452
 N626 N 0.32629 0.63782 0.31578
 C627 C 0.32332 0.62318 0.30366
 C628 C 0.30368 0.61787 0.30481
 C629 C 0.29543 0.63012 0.31809
 H630 H 0.33451 0.61717 0.29441
 H631 H 0.28023 0.63042 0.32276
 Cu632 Cu 0.34993 0.65280 0.32017
 Cu633 Cu 0.30767 0.66243 0.34328
 Cu634 Cu 0.35233 0.68053 0.35926
 N635 N 0.37034 0.67213 0.32274
 N636 N 0.37138 0.68291 0.33818
 C637 C 0.38660 0.69513 0.33617
 C638 C 0.39552 0.69187 0.31848
 C639 C 0.38482 0.67713 0.31031
 H640 H 0.39064 0.70584 0.34663
 H641 H 0.38706 0.67076 0.29627
 N642 N 0.32762 0.68375 0.37360
 N643 N 0.31045 0.67768 0.36709
 C644 C 0.29624 0.68314 0.37946
 C645 C 0.30492 0.69306 0.39446
 C646 C 0.32485 0.69318 0.39028
 H647 H 0.28070 0.68017 0.37771
 H648 H 0.33645 0.70013 0.39834
 H649 H 0.33298 0.67826 0.33719
 H650 H 0.33533 0.65613 0.35246
 N651 N 0.31589 0.12017 0.84884
 N652 N 0.32676 0.11997 0.83303
 C653 C 0.32094 0.10541 0.82182
 C654 C 0.30562 0.09594 0.83120
 C655 C 0.30288 0.10565 0.84833
 H656 H 0.32732 0.10208 0.80789
 H657 H 0.29202 0.10257 0.85945
 Cu658 Cu 0.34764 0.13863 0.82888
 Cu659 Cu 0.31943 0.13949 0.86865
 Cu660 Cu 0.34437 0.18001 0.85231
 N661 N 0.36786 0.15816 0.82610
 N662 N 0.36651 0.17446 0.83523
 C663 C 0.38178 0.18573 0.83005
 C664 C 0.39337 0.17584 0.81704
 C665 C 0.38408 0.15844 0.81488
 H666 H 0.38401 0.20010 0.83515
 H667 H 0.38864 0.14701 0.80550
 N668 N 0.32687 0.17982 0.87518
 N669 N 0.31815 0.16419 0.88186
 C670 C 0.30753 0.16849 0.89770
 C671 C 0.30967 0.18780 0.90116
 C672 C 0.32200 0.19453 0.88660
 H673 H 0.29841 0.15840 0.90565
 H674 H 0.32699 0.20909 0.88447
 H675 H 0.32405 0.15822 0.84635
 H676 H 0.34637 0.15258 0.86121
 N677 N 0.80443 0.63503 0.82447
 N678 N 0.82149 0.63140 0.81632
 C679 C 0.81940 0.61632 0.80453
 C680 C 0.79988 0.61044 0.80530
 C681 C 0.79084 0.62271 0.81795
 H682 H 0.83097 0.61055 0.79558
 H683 H 0.77548 0.62268 0.82212
 Cu684 Cu 0.84415 0.64794 0.82075
 Cu685 Cu 0.80083 0.65557 0.84269
 Cu686 Cu 0.84329 0.67785 0.85845
 N687 N 0.86275 0.66911 0.82263
 N688 N 0.86223 0.68094 0.83729
 C689 C 0.87607 0.69452 0.83465
 C690 C 0.88583 0.69100 0.81745
 C691 C 0.87702 0.67472 0.81018
 H692 H 0.87867 0.70625 0.84439
 H693 H 0.88028 0.66779 0.79661
 N694 N 0.81835 0.67884 0.87292
 N695 N 0.80210 0.67066 0.86655
 C696 C 0.78762 0.67326 0.87955
 C697 C 0.79503 0.68372 0.89474
 C698 C 0.81460 0.68710 0.89010
 H699 H 0.77283 0.66765 0.87826
 H700 H 0.82538 0.69468 0.89865
 H701 H 0.82502 0.67295 0.83628
 H702 H 0.82894 0.65172 0.85262
 N703 N 0.80922 0.13974 0.33323
 N704 N 0.82521 0.13379 0.32445
 C705 C 0.82091 0.11789 0.31450
 C706 C 0.80106 0.11388 0.31713
 C707 C 0.79413 0.12809 0.32895
 H708 H 0.83123 0.11028 0.30553
 H709 H 0.77918 0.12986 0.33404
 Cu710 Cu 0.84946 0.14855 0.32568
 Cu711 Cu 0.80904 0.16237 0.34918
 Cu712 Cu 0.85479 0.18120 0.36053
 N713 N 0.86952 0.16838 0.32385
 N714 N 0.87193 0.18103 0.33761
 C715 C 0.88649 0.19317 0.33236
 C716 C 0.89337 0.18788 0.31423
 C717 C 0.88228 0.17211 0.30934
 H718 H 0.89116 0.20527 0.34080
 H719 H 0.88317 0.16417 0.29599
 N720 N 0.83111 0.18584 0.37635
 N721 N 0.81360 0.17929 0.37133
 C722 C 0.80027 0.18470 0.38455
 C723 C 0.80974 0.19512 0.39861
 C724 C 0.82935 0.19567 0.39299
 H725 H 0.78481 0.18094 0.38426
 H726 H 0.84142 0.20263 0.40035
 H727 H 0.83442 0.17661 0.34019
 H728 H 0.83717 0.15637 0.35795
 N729 N 0.68821 0.37158 0.33485
 N730 N 0.67129 0.37459 0.32602
 C731 C 0.67238 0.39131 0.31599
 C732 C 0.69101 0.39898 0.31897
 C733 C 0.70058 0.38606 0.33088
 H734 H 0.66053 0.39748 0.30748
 H735 H 0.71544 0.38718 0.33645
 Cu736 Cu 0.64997 0.35594 0.32899
 Cu737 Cu 0.69319 0.34937 0.35112
 Cu738 Cu 0.65115 0.32776 0.36921
 N739 N 0.63011 0.33622 0.33370
 N740 N 0.63044 0.32549 0.34958
 C741 C 0.61507 0.31332 0.34929
 C742 C 0.60470 0.31637 0.33222
 C743 C 0.61463 0.33107 0.32265
 H744 H 0.61192 0.30272 0.36048
 H745 H 0.61098 0.33749 0.30871
 N746 N 0.67707 0.32566 0.38218
 N747 N 0.69314 0.33329 0.37456
 C748 C 0.70845 0.33001 0.38649
 C749 C 0.70184 0.31978 0.40243
 C750 C 0.68183 0.31710 0.39927
 H751 H 0.72324 0.33533 0.38411
 H752 H 0.67147 0.30991 0.40882
 H753 H 0.66891 0.33128 0.34625
 H754 H 0.66534 0.35315 0.36100
 N755 N 0.68188 0.87288 0.83289
 N756 N 0.66593 0.87660 0.82268
 C757 C 0.66827 0.89346 0.81328
 C758 C 0.68676 0.90055 0.81793
 C759 C 0.69496 0.88710 0.83031
 H760 H 0.65758 0.89974 0.80344
 H761 H 0.70954 0.88745 0.83668
 Cu762 Cu 0.64438 0.85829 0.82177
 Cu763 Cu 0.68504 0.84936 0.84777
 Cu764 Cu 0.64173 0.82457 0.85684
 N765 N 0.62635 0.83679 0.81981
 N766 N 0.62498 0.82382 0.83377
 C767 C 0.61130 0.81080 0.82887
 C768 C 0.60386 0.81585 0.81074
 C769 C 0.61373 0.83239 0.80544
 H770 H 0.60746 0.79844 0.83770
 H771 H 0.61193 0.84054 0.79206
 N772 N 0.66550 0.82151 0.87296
 N773 N 0.68221 0.83031 0.86880
 C774 C 0.69600 0.82489 0.88176
 C775 C 0.68760 0.81209 0.89471
 C776 C 0.66820 0.81019 0.88875
 H777 H 0.71103 0.83006 0.88193
 H778 H 0.65699 0.80108 0.89515
 H779 H 0.66238 0.83209 0.83735
 H780 H 0.65608 0.85131 0.85478
 N781 N 0.19616 0.35956 0.83069
 N782 N 0.18580 0.35511 0.81523
 C783 C 0.18967 0.36773 0.80081
 C784 C 0.20307 0.38088 0.80758
 C785 C 0.20694 0.37531 0.82664
 H786 H 0.18316 0.36744 0.78644
 H787 H 0.21705 0.38195 0.83666
 Cu788 Cu 0.16797 0.33348 0.81507
 Cu789 Cu 0.19538 0.34390 0.85439
 Cu790 Cu 0.15782 0.31053 0.85725
 N791 N 0.14479 0.31757 0.81813
 N792 N 0.14046 0.30901 0.83473
 C793 C 0.12382 0.29875 0.83252
 C794 C 0.11749 0.30107 0.81346
 C795 C 0.13113 0.31306 0.80478
 H796 H 0.11723 0.28984 0.84373
 H797 H 0.13121 0.31794 0.78978
 N798 N 0.17719 0.31413 0.87824
 N799 N 0.19185 0.32650 0.87696
 C800 C 0.20395 0.32387 0.89231
 C801 C 0.19649 0.30924 0.90382
 C802 C 0.17948 0.30341 0.89450
 H803 H 0.21767 0.33141 0.89453
 H804 H 0.17023 0.29142 0.89853
 H805 H 0.18367 0.31887 0.84338
 H806 H 0.16587 0.33824 0.84980
 N807 N 0.18291 0.86352 0.33050
 N808 N 0.16942 0.86220 0.31673
 C809 C 0.17234 0.87623 0.30345
 C810 C 0.18829 0.88697 0.30917
 C811 C 0.19468 0.87859 0.32641
 H812 H 0.16383 0.87823 0.29027
 H813 H 0.20748 0.88257 0.33480
 Cu814 Cu 0.14954 0.84177 0.31617
 Cu815 Cu 0.18567 0.84427 0.35161
 Cu816 Cu 0.15702 0.80512 0.34741
 N817 N 0.13127 0.82043 0.31823
 N818 N 0.13418 0.80611 0.33045
 C819 C 0.11951 0.79332 0.32850
 C820 C 0.10678 0.79997 0.31428
 C821 C 0.11467 0.81725 0.30803
 H822 H 0.11830 0.78004 0.33665
 H823 H 0.10898 0.82669 0.29680
 N824 N 0.17521 0.80809 0.36892
 N825 N 0.18597 0.82357 0.37095
 C826 C 0.19741 0.82148 0.38688
 C827 C 0.19359 0.80368 0.39513
 C828 C 0.17949 0.79560 0.38336
 H829 H 0.20824 0.83177 0.39159
 H830 H 0.17308 0.78152 0.38503
 H831 H 0.17460 0.82930 0.32838
 H832 H 0.15628 0.83970 0.34560
 C833 C 0.26238 0.93688 0.27334
 C834 C 0.27418 0.93723 0.25717
 C835 C 0.27090 0.95460 0.24778
 N836 N 0.25757 0.96489 0.25775
 C837 C 0.25242 0.95411 0.27342
 C838 C 0.27944 0.96024 0.22981
 C839 C 0.27786 0.97888 0.22176
 C840 C 0.28282 0.98391 0.20279
 C841 C 0.27986 1.00326 0.20086
 C842 C 0.27320 1.00955 0.21870
 N843 N 0.27215 0.99462 0.23139
 C844 C 0.26927 1.02883 0.22306
 C845 C 0.25945 1.03470 0.24003
 C846 C 0.25801 1.05348 0.24591
 C847 C 0.24711 1.05326 0.26265
 C848 C 0.24204 1.03437 0.26639
 N849 N 0.24956 1.02305 0.25249
 C850 C 0.22993 1.02804 0.28195
 C851 C 0.22694 1.00862 0.28692
 C852 C 0.21234 1.00192 0.29937
 C853 C 0.21458 0.98246 0.30081
 C854 C 0.23056 0.97779 0.28928
 N855 N 0.23812 0.99385 0.28101
 C856 C 0.23809 0.95913 0.28731
 H857 H 0.26133 0.92529 0.28388
 H858 H 0.28401 0.92593 0.25286
 H859 H 0.25127 0.99491 0.27339
 H860 H 0.28805 0.97460 0.19150
 H861 H 0.28242 1.01175 0.18781
 H862 H 0.26431 1.06604 0.23895
 H863 H 0.24339 1.06565 0.27110
 H864 H 0.20548 0.97286 0.30943
 H865 H 0.26977 0.99547 0.24625
 H866 H 0.20115 1.01019 0.30660
 C867 C 0.27077 0.43760 0.77227
 C868 C 0.28225 0.43837 0.75588
 C869 C 0.27725 0.45505 0.74594
 N870 N 0.26303 0.46440 0.75569
 C871 C 0.25913 0.45383 0.77184
 C872 C 0.28457 0.46050 0.72743
 C873 C 0.27986 0.47811 0.71815
 C874 C 0.28344 0.48262 0.69875
 C875 C 0.27797 0.50137 0.69593
 C876 C 0.27154 0.50795 0.71375
 N877 N 0.27273 0.49368 0.72718
 C878 C 0.26643 0.52712 0.71758
 C879 C 0.25734 0.53299 0.73498
 C880 C 0.25566 0.55182 0.74067
 C881 C 0.24593 0.55154 0.75812
 C882 C 0.24173 0.53258 0.76245
 N883 N 0.24870 0.52125 0.74826
 C884 C 0.23095 0.52606 0.77888
 C885 C 0.22941 0.50656 0.78425
 C886 C 0.21556 0.49914 0.79711
 C887 C 0.21925 0.47990 0.79889
 C888 C 0.23539 0.47610 0.78720
 N889 N 0.24155 0.49248 0.77842
 C890 C 0.24436 0.45799 0.78560
 H891 H 0.27091 0.42632 0.78321
 H892 H 0.29280 0.42766 0.75163
 H893 H 0.25447 0.49435 0.77054
 H894 H 0.28960 0.47354 0.68775
 H895 H 0.27908 0.50936 0.68238
 H896 H 0.26116 0.56445 0.73321
 H897 H 0.24251 0.56394 0.76666
 H898 H 0.21102 0.46989 0.80787
 H899 H 0.27120 0.49522 0.74208
 H900 H 0.20391 0.50677 0.80437
 C901 C 0.73186 -0.05486 0.25819
 C902 C 0.74651 -0.05511 0.27192
 C903 C 0.75154 -0.03625 0.27522
 N904 N 0.74024 -0.02451 0.26412
 C905 C 0.72837 -0.03584 0.25347
 C906 C 0.76544 -0.03018 0.28918
 C907 C 0.77081 -0.01090 0.29188
 C908 C 0.78123 -0.00421 0.30776
 C909 C 0.78455 0.01493 0.30439
 C910 C 0.77618 0.01942 0.28647
 N911 N 0.76795 0.00356 0.27890
 C912 C 0.77715 0.03761 0.27727
 C913 C 0.76589 0.04275 0.26067
 C914 C 0.76870 0.05919 0.24951
 C915 C 0.75421 0.05936 0.23558
 C916 C 0.74308 0.04296 0.23860
 N917 N 0.75016 0.03292 0.25403
 C918 C 0.72598 0.03820 0.22796
 C919 C 0.71609 0.02045 0.22986
 C920 C 0.69794 0.01624 0.22167
 C921 C 0.69447 -0.00286 0.22520
 C922 C 0.71061 -0.00985 0.23544
 N923 N 0.72371 0.00445 0.23814
 C924 C 0.71366 -0.02929 0.24037
 H925 H 0.72443 -0.06732 0.25262
 H926 H 0.75249 -0.06778 0.27890
 H927 H 0.73809 0.00281 0.24295
 H928 H 0.78605 -0.01230 0.32042
 H929 H 0.79239 0.02442 0.31400
 H930 H 0.77998 0.06997 0.25121
 H931 H 0.75207 0.07038 0.22458
 H932 H 0.68172 -0.01079 0.22036
 H933 H 0.76276 0.00221 0.26479
 H934 H 0.68836 0.02576 0.21353
 C935 C 0.76812 0.55824 0.71474
 C936 C 0.78013 0.55817 0.73079
 C937 C 0.77691 0.54095 0.74051
 N938 N 0.76351 0.53042 0.73077
 C939 C 0.75819 0.54094 0.71498
 C940 C 0.78525 0.53578 0.75872
 C941 C 0.78256 0.51767 0.76768
 C942 C 0.78608 0.51360 0.78718
 C943 C 0.78179 0.49456 0.79010
 C944 C 0.77596 0.48747 0.77227
 N945 N 0.77660 0.50162 0.75866
 C946 C 0.77132 0.46811 0.76879
 C947 C 0.76320 0.46157 0.75118
 C948 C 0.76242 0.44259 0.74587
 C949 C 0.75320 0.44214 0.72815
 C950 C 0.74832 0.46083 0.72333
 N951 N 0.75448 0.47271 0.73744
 C952 C 0.73718 0.46646 0.70680
 C953 C 0.73407 0.48574 0.70130
 C954 C 0.71960 0.49197 0.68846
 C955 C 0.72127 0.51151 0.68712
 C956 C 0.73686 0.51670 0.69903
 N957 N 0.74471 0.50085 0.70744
 C958 C 0.74370 0.53563 0.70129
 H959 H 0.76689 0.56968 0.70405
 H960 H 0.78993 0.56963 0.73493
 H961 H 0.75763 0.50016 0.71552
 H962 H 0.79104 0.52337 0.79821
 H963 H 0.78298 0.48682 0.80380
 H964 H 0.76811 0.43034 0.75384
 H965 H 0.75034 0.42942 0.71986
 H966 H 0.71204 0.52082 0.67834
 H967 H 0.77506 0.50004 0.74375
 H968 H 0.70875 0.48336 0.68105
 C969 C 0.25368 0.44884 0.23348
 C970 C 0.27029 0.44949 0.24479
 C971 C 0.27336 0.46849 0.24927
 N972 N 0.25931 0.47947 0.24079
 C973 C 0.24737 0.46753 0.23091
 C974 C 0.28816 0.47519 0.26201
 C975 C 0.29154 0.49471 0.26572
 C976 C 0.30227 0.50143 0.28138
 C977 C 0.30232 0.52101 0.27980
 C978 C 0.29179 0.52574 0.26310
 N979 N 0.28539 0.50958 0.25454
 C980 C 0.28920 0.54458 0.25584
 C981 C 0.27658 0.54927 0.24012
 C982 C 0.27688 0.56646 0.22990
 C983 C 0.26214 0.56551 0.21629
 C984 C 0.25316 0.54784 0.21878
 N985 N 0.26202 0.53794 0.23338
 C986 C 0.23639 0.54158 0.20843
 C987 C 0.22844 0.52298 0.21026
 C988 C 0.20971 0.51776 0.20426
 C989 C 0.20784 0.49851 0.20804
 C990 C 0.22553 0.49243 0.21613
 N991 N 0.23804 0.50745 0.21730
 C992 C 0.23017 0.47317 0.22065
 H993 H 0.24709 0.43595 0.22795
 H994 H 0.27889 0.43726 0.24941
 H995 H 0.25296 0.50686 0.22055
 H996 H 0.30918 0.49310 0.29288
 H997 H 0.30940 0.53064 0.28981
 H998 H 0.28682 0.57838 0.23190
 H999 H 0.25842 0.57663 0.20583
 H1000 H 0.19500 0.48992 0.20482
 H1001 H 0.27896 0.50861 0.24088
 H1002 H 0.19855 0.52688 0.19782
 C1003 C 0.74244 0.94481 0.73981
 C1004 C 0.72613 0.94540 0.75148
 C1005 C 0.72159 0.96452 0.75394
 N1006 N 0.73450 0.97551 0.74383
 C1007 C 0.74719 0.96356 0.73507
 C1008 C 0.70567 0.97130 0.76528
 C1009 C 0.70041 0.99078 0.76723
 C1010 C 0.68441 0.99709 0.77789
 C1011 C 0.68404 1.01664 0.77607
 C1012 C 0.69977 1.02187 0.76428
 N1013 N 0.70984 1.00604 0.75926
 C1014 C 0.70370 1.04087 0.75792
 C1015 C 0.71747 1.04597 0.74327
 C1016 C 0.71974 1.06424 0.73555
 C1017 C 0.73447 1.06331 0.72198
 C1018 C 0.74092 1.04453 0.72194
 N1019 N 0.73047 1.03401 0.73494
 C1020 C 0.75725 1.03797 0.71116
 C1021 C 0.76470 1.01906 0.71207
 C1022 C 0.78267 1.01347 0.70445
 C1023 C 0.78456 0.99426 0.70826
 C1024 C 0.76759 0.98844 0.71790
 N1025 N 0.75544 1.00361 0.71988
 C1026 C 0.76353 0.96929 0.72358
 H1027 H 0.74985 0.93194 0.73538
 H1028 H 0.71855 0.93302 0.75741
 H1029 H 0.74091 1.00316 0.72446
 H1030 H 0.67392 0.98851 0.78605
 H1031 H 0.67307 1.02589 0.78233
 H1032 H 0.71170 1.07697 0.73931
 H1033 H 0.74011 1.07527 0.71351
 H1034 H 0.79696 0.98555 0.70413
 H1035 H 0.72284 1.00574 0.75154
 H1036 H 0.79343 1.02223 0.69689
 C1037 C 0.73989 0.44319 0.26093
 C1038 C 0.75834 0.44312 0.25291
 C1039 C 0.76273 0.46187 0.24785
 N1040 N 0.74755 0.47339 0.25251
 C1041 C 0.73362 0.46202 0.26071
 C1042 C 0.78006 0.46786 0.23809
 C1043 C 0.78563 0.48720 0.23564
 C1044 C 0.80027 0.49359 0.22307
 C1045 C 0.80133 0.51306 0.22489
 C1046 C 0.78733 0.51809 0.23856
 N1047 N 0.77801 0.50219 0.24525
 C1048 C 0.78372 0.53701 0.24446
 C1049 C 0.76722 0.54246 0.25558
 C1050 C 0.76452 0.56045 0.26322
 C1051 C 0.74604 0.56058 0.27119
 C1052 C 0.73805 0.54258 0.26835
 N1053 N 0.75102 0.53159 0.25869
 C1054 C 0.71850 0.53713 0.27307
 C1055 C 0.71094 0.51851 0.27039
 C1056 C 0.69119 0.51350 0.27185
 C1057 C 0.69017 0.49398 0.27014
 C1058 C 0.70928 0.48760 0.26759
 N1059 N 0.72184 0.50261 0.26785
 C1060 C 0.71488 0.46823 0.26705
 H1061 H 0.73197 0.43068 0.26610
 H1062 H 0.76743 0.43063 0.25097
 H1063 H 0.73705 0.50173 0.26893
 H1064 H 0.80913 0.48515 0.21337
 H1065 H 0.81117 0.52245 0.21686
 H1066 H 0.77466 0.57239 0.26275
 H1067 H 0.73921 0.57277 0.27785
 H1068 H 0.67689 0.48543 0.27106
 H1069 H 0.76822 0.50142 0.25683
 H1070 H 0.67882 0.52284 0.27438
 C1071 C 0.23295 -0.05593 0.77706
 C1072 C 0.22008 -0.05639 0.76175
 C1073 C 0.22090 -0.03855 0.75272
 N1074 N 0.23386 -0.02726 0.76211
 C1075 C 0.24137 -0.03787 0.77691
 C1076 C 0.20988 -0.03328 0.73600
 C1077 C 0.21056 -0.01500 0.72683
 C1078 C 0.19734 -0.00886 0.71267
 C1079 C 0.20226 0.00965 0.70793
 C1080 C 0.21834 0.01446 0.71934
 N1081 N 0.22353 -0.00077 0.73058
 C1082 C 0.22719 0.03281 0.71932
 C1083 C 0.24150 0.03894 0.73290
 C1084 C 0.24982 0.05704 0.73288
 C1085 C 0.26198 0.05777 0.74874
 C1086 C 0.26096 0.04002 0.75790
 N1087 N 0.24841 0.02855 0.74818
 C1088 C 0.27186 0.03480 0.77473
 C1089 C 0.27162 0.01636 0.78356
 C1090 C 0.28547 0.01004 0.79703
 C1091 C 0.28122 -0.00873 0.80117
 C1092 C 0.26483 -0.01351 0.79017
 N1093 N 0.25881 0.00202 0.77977
 C1094 C 0.25657 -0.03210 0.78968
 H1095 H 0.23593 -0.06768 0.78703
 H1096 H 0.21130 -0.06860 0.75766
 H1097 H 0.24615 0.00306 0.77138
 H1098 H 0.18506 -0.01671 0.70667
 H1099 H 0.19451 0.01869 0.69757
 H1100 H 0.24729 0.06865 0.72262
 H1101 H 0.27062 0.07004 0.75295
 H1102 H 0.28961 -0.01795 0.81085
 H1103 H 0.23590 -0.00175 0.73937
 H1104 H 0.29785 0.01791 0.80282
 C1105 C 0.21866 0.22663 1.07039
 C1106 C 0.23334 0.21323 1.07040
 C1107 C 0.24193 0.21410 1.05213
 N1108 N 0.23303 0.22764 1.04100
 C1109 C 0.21875 0.23528 1.05212
 C1110 C 0.25822 0.20303 1.04631
 C1111 C 0.26479 0.20195 1.02684
 C1112 C 0.28241 0.19373 1.02123
 C1113 C 0.28294 0.19457 1.00124
 C1114 C 0.26564 0.20333 0.99515
 N1115 N 0.25462 0.20770 1.01085
 C1116 C 0.26009 0.20605 0.97547
 C1117 C 0.24454 0.21819 0.96942
 C1118 C 0.23689 0.21921 0.95071
 C1119 C 0.22268 0.23307 0.95076
 C1120 C 0.22196 0.23999 0.96952
 N1121 N 0.23542 0.23096 0.98088
 C1122 C 0.20946 0.25483 0.97564
 C1123 C 0.20632 0.25940 0.99534
 C1124 C 0.19677 0.27569 1.00153
 C1125 C 0.19586 0.27449 1.02148
 C1126 C 0.20487 0.25748 1.02697
 N1127 N 0.21107 0.24831 1.01092
 C1128 C 0.20647 0.25065 1.04637
 H1129 H 0.20900 0.22962 1.08247
 H1130 H 0.23719 0.20387 1.08249
 H1131 H 0.21633 0.23443 1.01049
 H1132 H 0.29370 0.18763 1.03055
 H1133 H 0.29471 0.18927 0.99222
 H1134 H 0.24098 0.21077 0.93831
 H1135 H 0.21375 0.23741 0.93842
 H1136 H 0.18930 0.28497 1.03087
 H1137 H 0.24011 0.21229 1.01055
 H1138 H 0.19099 0.28725 0.99259
 C1139 C 0.26621 0.77653 0.56569
 C1140 C 0.28000 0.76225 0.56603
 C1141 C 0.28021 0.75455 0.54757
 N1142 N 0.26696 0.76364 0.53600
 C1143 C 0.25847 0.77715 0.54703
 C1144 C 0.29199 0.73896 0.54191
 C1145 C 0.29388 0.73303 0.52242
 C1146 C 0.30201 0.71580 0.51690
 C1147 C 0.30197 0.71573 0.49690
 C1148 C 0.29391 0.73295 0.49070
 N1149 N 0.28910 0.74345 0.50637
 C1150 C 0.29216 0.73887 0.47100
 C1151 C 0.28128 0.75508 0.46488
 C1152 C 0.28220 0.76340 0.44647
 C1153 C 0.26879 0.77799 0.44616
 C1154 C 0.26014 0.77815 0.46441
 N1155 N 0.26777 0.76412 0.47582
 C1156 C 0.24472 0.79047 0.46987
 C1157 C 0.23847 0.79265 0.48930
 C1158 C 0.22141 0.80199 0.49476
 C1159 C 0.22103 0.80174 0.51476
 C1160 C 0.23785 0.79223 0.52099
 N1161 N 0.24847 0.78685 0.50538
 C1162 C 0.24337 0.78967 0.54069
 H1163 H 0.26245 0.78552 0.57779
 H1164 H 0.28892 0.75811 0.57844
 H1165 H 0.26267 0.78143 0.50569
 H1166 H 0.30742 0.70444 0.52630
 H1167 H 0.30740 0.70431 0.48795
 H1168 H 0.29161 0.75946 0.43450
 H1169 H 0.26581 0.78743 0.43391
 H1170 H 0.20965 0.80791 0.52369
 H1171 H 0.28487 0.75768 0.50614
 H1172 H 0.21040 0.80839 0.48534
 C1173 C 0.24144 0.74583 -0.07165
 C1174 C 0.25387 0.76122 -0.07079
 C1175 C 0.25777 0.76415 -0.05126
 N1176 N 0.24804 0.75111 -0.04015
 C1177 C 0.23809 0.73985 -0.05262
 C1178 C 0.26945 0.77923 -0.04413
 C1179 C 0.27518 0.78080 -0.02443
 C1180 C 0.28311 0.79710 -0.01628
 C1181 C 0.28734 0.79265 0.00283
 C1182 C 0.28183 0.77376 0.00584
 N1183 N 0.27461 0.76659 -0.01089
 C1184 C 0.28405 0.76359 0.02361
 C1185 C 0.27500 0.74577 0.02750
 C1186 C 0.27883 0.73433 0.04369
 C1187 C 0.26582 0.71936 0.04301
 C1188 C 0.25449 0.72214 0.02642
 N1189 N 0.26014 0.73827 0.01694
 C1190 C 0.23802 0.71087 0.02133
 C1191 C 0.22892 0.71172 0.00282
 C1192 C 0.21101 0.70325 -0.00164
 C1193 C 0.20738 0.70717 -0.02098
 C1194 C 0.22313 0.71796 -0.02782
 N1195 N 0.23631 0.72048 -0.01329
 C1196 C 0.22505 0.72495 -0.04715
 H1197 H 0.23550 0.73980 -0.08483
 H1198 H 0.25939 0.76931 -0.08317
 H1199 H 0.25028 0.72645 -0.01473
 H1200 H 0.28556 0.81082 -0.02333
 H1201 H 0.29366 0.80228 0.01332
 H1202 H 0.28967 0.73666 0.05497
 H1203 H 0.26466 0.70787 0.05365
 H1204 H 0.19443 0.70280 -0.02898
 H1205 H 0.27132 0.75236 -0.01343
 H1206 H 0.20144 0.69521 0.00804
 C1207 C 0.23774 0.24487 0.43112
 C1208 C 0.25510 0.25491 0.43137
 C1209 C 0.26100 0.25570 0.45065
 N1210 N 0.24802 0.24618 0.46214
 C1211 C 0.23373 0.23958 0.45024
 C1212 C 0.27829 0.26489 0.45718
 C1213 C 0.28209 0.26895 0.47696
 C1214 C 0.29994 0.27556 0.48408
 C1215 C 0.29720 0.27921 0.50350
 C1216 C 0.27782 0.27454 0.50777
 N1217 N 0.26868 0.26841 0.49151
 C1218 C 0.26892 0.27669 0.52618
 C1219 C 0.25113 0.26744 0.53158
 C1220 C 0.24085 0.27047 0.54869
 C1221 C 0.22553 0.25768 0.54903
 C1222 C 0.22667 0.24757 0.53193
 N1223 N 0.24237 0.25344 0.52134
 C1224 C 0.21365 0.23276 0.52671
 C1225 C 0.21163 0.22604 0.50754
 C1226 C 0.20012 0.21054 0.50233
 C1227 C 0.20095 0.20943 0.48239
 C1228 C 0.21314 0.22414 0.47599
 N1229 N 0.21943 0.23430 0.49137
 C1230 C 0.21755 0.22818 0.45629
 H1231 H 0.22910 0.24184 0.41830
 H1232 H 0.26236 0.26118 0.41880
 H1233 H 0.22681 0.24727 0.49060
 H1234 H 0.31350 0.27775 0.47608
 H1235 H 0.30826 0.28463 0.51336
 H1236 H 0.24401 0.28076 0.55985
 H1237 H 0.21461 0.25620 0.56041
 H1238 H 0.19353 0.19892 0.47362
 H1239 H 0.25365 0.26615 0.48999
 H1240 H 0.19176 0.20113 0.51187
 C1241 C 0.72789 0.74544 1.06348
 C1242 C 0.74581 0.73651 1.06305
 C1243 C 0.75260 0.73815 1.04409
 N1244 N 0.73950 0.74786 1.03295
 C1245 C 0.72437 0.75234 1.04479
 C1246 C 0.77113 0.73168 1.03771
 C1247 C 0.77683 0.73131 1.01797
 C1248 C 0.79595 0.72868 1.01153
 C1249 C 0.79513 0.72804 0.99156
 C1250 C 0.77552 0.73041 0.98634
 N1251 N 0.76447 0.73224 1.00256
 C1252 C 0.76818 0.72942 0.96712
 C1253 C 0.74904 0.73559 0.96175
 C1254 C 0.74097 0.73434 0.94325
 C1255 C 0.72310 0.74331 0.94380
 C1256 C 0.72089 0.75011 0.96249
 N1257 N 0.73675 0.74538 0.97343
 C1258 C 0.70533 0.76205 0.96850
 C1259 C 0.70192 0.76706 0.98804
 C1260 C 0.68913 0.78132 0.99379
 C1261 C 0.68990 0.78181 1.01375
 C1262 C 0.70317 0.76787 1.01968
 N1263 N 0.71023 0.75876 1.00393
 C1264 C 0.70812 0.76378 1.03928
 H1265 H 0.71858 0.74679 1.07615
 H1266 H 0.75304 0.72964 1.07533
 H1267 H 0.71894 0.74659 1.00410
 H1268 H 0.80913 0.72717 1.02029
 H1269 H 0.80757 0.72586 0.98204
 H1270 H 0.74735 0.72813 0.93042
 H1271 H 0.71310 0.74505 0.93163
 H1272 H 0.68178 0.79152 1.02282
 H1273 H 0.74919 0.73186 1.00327
 H1274 H 0.68027 0.79057 0.98457
 C1275 C 0.76823 0.27892 0.56888
 C1276 C 0.78435 0.26716 0.56884
 C1277 C 0.78432 0.25805 0.55108
 N1278 N 0.76862 0.26369 0.54037
 C1279 C 0.75877 0.27648 0.55120
 C1280 C 0.79806 0.24403 0.54552
 C1281 C 0.80056 0.23801 0.52612
 C1282 C 0.81202 0.22261 0.52068
 C1283 C 0.81125 0.22184 0.50072
 C1284 C 0.79924 0.23670 0.49447
 N1285 N 0.79298 0.24663 0.51002
 C1286 C 0.79470 0.24084 0.47477
 C1287 C 0.77899 0.25292 0.46894
 C1288 C 0.77524 0.25879 0.44995
 C1289 C 0.75780 0.26854 0.45018
 C1290 C 0.75165 0.26887 0.46941
 N1291 N 0.76455 0.25913 0.48080
 C1292 C 0.73377 0.27693 0.47597
 C1293 C 0.72917 0.27939 0.49583
 C1294 C 0.71098 0.28522 0.50272
 C1295 C 0.71307 0.28792 0.52239
 C1296 C 0.73244 0.28356 0.52701
 N1297 N 0.74217 0.27848 0.51075
 C1298 C 0.74082 0.28525 0.54572
 H1299 H 0.76394 0.28812 0.58063
 H1300 H 0.79496 0.26557 0.58052
 H1301 H 0.75731 0.27686 0.50956
 H1302 H 0.82011 0.21289 0.53009
 H1303 H 0.81853 0.21137 0.49184
 H1304 H 0.78397 0.25611 0.43712
 H1305 H 0.75056 0.27453 0.43748
 H1306 H 0.70166 0.29267 0.53215
 H1307 H 0.78551 0.25954 0.50954
 H1308 H 0.69766 0.28773 0.49440
 C1309 C 0.76874 0.22704 -0.06309
 C1310 C 0.78319 0.24076 -0.06325
 C1311 C 0.78248 0.24950 -0.04533
 N1312 N 0.76789 0.24181 -0.03435
 C1313 C 0.75942 0.22807 -0.04519
 C1314 C 0.79481 0.26472 -0.03965
 C1315 C 0.79760 0.27001 -0.02005
 C1316 C 0.80797 0.28603 -0.01421
 C1317 C 0.80827 0.28560 0.00579
 C1318 C 0.79794 0.26943 0.01167
 N1319 N 0.79167 0.25989 -0.00416
 C1320 C 0.79482 0.26386 0.03129
 C1321 C 0.78028 0.25050 0.03725
 C1322 C 0.77735 0.24422 0.05625
 C1323 C 0.76073 0.23306 0.05618
 C1324 C 0.75427 0.23248 0.03706
 N1325 N 0.76616 0.24328 0.02556
 C1326 C 0.73684 0.22336 0.03073
 C1327 C 0.73210 0.22063 0.01091
 C1328 C 0.71424 0.21357 0.00428
 C1329 C 0.71599 0.21150 -0.01551
 C1330 C 0.73482 0.21752 -0.02049
 N1331 N 0.74460 0.22287 -0.00430
 C1332 C 0.74268 0.21724 -0.03950
 H1333 H 0.76551 0.21745 -0.07486
 H1334 H 0.79327 0.24376 -0.07509
 H1335 H 0.75958 0.22580 -0.00351
 H1336 H 0.81471 0.29690 -0.02339
 H1337 H 0.81514 0.29615 0.01495
 H1338 H 0.78601 0.24762 0.06897
 H1339 H 0.75417 0.22629 0.06886
 H1340 H 0.70467 0.20622 -0.02515
 H1341 H 0.78542 0.24635 -0.00409
 H1342 H 0.70136 0.20992 0.01283
 C1343 C 0.73778 0.75130 0.43614
 C1344 C 0.74489 0.76959 0.43650
 C1345 C 0.74865 0.77374 0.45583
 N1346 N 0.74361 0.75864 0.46727
 C1347 C 0.73705 0.74486 0.45529
 C1348 C 0.75727 0.79105 0.46225
 C1349 C 0.76106 0.79560 0.48194
 C1350 C 0.77026 0.81227 0.48782
 C1351 C 0.77283 0.81077 0.50760
 C1352 C 0.76532 0.79315 0.51338
 N1353 N 0.75771 0.78423 0.49771
 C1354 C 0.76677 0.78562 0.53259
 C1355 C 0.76189 0.76662 0.53819
 C1356 C 0.76405 0.75911 0.55685
 C1357 C 0.75756 0.74062 0.55634
 C1358 C 0.75121 0.73743 0.53748
 N1359 N 0.75408 0.75329 0.52641
 C1360 C 0.74153 0.72058 0.53140
 C1361 C 0.73566 0.71693 0.51202
 C1362 C 0.72374 0.70174 0.50675
 C1363 C 0.72055 0.70343 0.48711
 C1364 C 0.73051 0.71968 0.48077
 N1365 N 0.74005 0.72762 0.49599
 C1366 C 0.73019 0.72658 0.46130
 H1367 H 0.73377 0.74367 0.42316
 H1368 H 0.74716 0.77869 0.42384
 H1369 H 0.75000 0.73886 0.49527
 H1370 H 0.77515 0.82412 0.47876
 H1371 H 0.78015 0.82120 0.51656
 H1372 H 0.76955 0.76615 0.56966
 H1373 H 0.75720 0.73078 0.56863
 H1374 H 0.71147 0.69399 0.47856
 H1375 H 0.75034 0.77132 0.49782
 H1376 H 0.71758 0.69071 0.51614
 C1377 C 0.93584 0.25843 0.26661
 C1378 C 0.93561 0.26752 0.24880
 C1379 C 0.95485 0.26760 0.24203
 N1380 N 0.96673 0.25859 0.25504
 C1381 C 0.95517 0.25305 0.27012
 C1382 C 0.96087 0.27468 0.22356
 C1383 C 0.98075 0.27559 0.21744
 C1384 C 0.98677 0.27928 0.19847
 C1385 C 1.00699 0.28056 0.19878
 C1386 C 1.01284 0.27762 0.21793
 N1387 N 0.99673 0.27475 0.22922
 C1388 C 1.03253 0.27890 0.22464
 C1389 C 1.03870 0.27213 0.24319
 C1390 C 1.05779 0.27327 0.25032
 C1391 C 1.05799 0.26354 0.26777
 C1392 C 1.03908 0.25661 0.27072
 N1393 N 1.02734 0.26184 0.25568
 C1394 C 1.03344 0.24441 0.28636
 C1395 C 1.01369 0.23940 0.29066
 C1396 C 1.00819 0.22538 0.30407
 C1397 C 0.98797 0.22484 0.30417
 C1398 C 0.98159 0.23846 0.29075
 N1399 N 0.99736 0.24748 0.28277
 C1400 C 0.96157 0.24228 0.28652
 H1401 H 0.92315 0.25592 0.27582
 H1402 H 0.92265 0.27317 0.24161
 H1403 H 0.99695 0.25949 0.27376
 H1404 H 0.97755 0.28118 0.18573
 H1405 H 1.01626 0.28360 0.18632
 H1406 H 1.07047 0.27995 0.24355
 H1407 H 1.07073 0.26152 0.27705
 H1408 H 0.97899 0.21527 0.31296
 H1409 H 0.99648 0.27459 0.24431
 H1410 H 1.01774 0.21635 0.31281
 C1411 C 0.55127 0.23834 0.72948
 C1412 C 0.55072 0.22393 0.74311
 C1413 C 0.53247 0.22487 0.75209
 N1414 N 0.52176 0.23921 0.74407
 C1415 C 0.53323 0.24754 0.73029
 C1416 C 0.52658 0.21308 0.76800
 C1417 C 0.50769 0.21336 0.77676
 C1418 C 0.50274 0.20298 0.79340
 C1419 C 0.48373 0.20772 0.79801
 C1420 C 0.47746 0.22096 0.78413
 N1421 N 0.49203 0.22402 0.77099
 C1422 C 0.45895 0.23032 0.78469
 C1423 C 0.45407 0.24680 0.77352
 C1424 C 0.43668 0.25697 0.77543
 C1425 C 0.43749 0.27176 0.76222
 C1426 C 0.45518 0.27006 0.75235
 N1427 N 0.46535 0.25490 0.75944
 C1428 C 0.46091 0.28175 0.73630
 C1429 C 0.47934 0.28059 0.72674
 C1430 C 0.48376 0.29006 0.70940
 C1431 C 0.50253 0.28489 0.70438
 C1432 C 0.50920 0.27236 0.71873
 N1433 N 0.49508 0.27004 0.73250
 C1434 C 0.52787 0.26334 0.71838
 H1435 H 0.56366 0.24161 0.72011
 H1436 H 0.56256 0.21400 0.74612
 H1437 H 0.49660 0.26278 0.74567
 H1438 H 0.51201 0.19331 0.80172
 H1439 H 0.47572 0.20250 0.81062
 H1440 H 0.42458 0.25411 0.78528
 H1441 H 0.42617 0.28242 0.76004
 H1442 H 0.51020 0.28949 0.69133
 H1443 H 0.49099 0.23218 0.75835
 H1444 H 0.47430 0.29944 0.70095
 C1445 C 0.06218 0.22032 0.76873
 C1446 C 0.06243 0.23140 0.78500
 C1447 C 0.04490 0.24150 0.78496
 N1448 N 0.03405 0.23708 0.76918
 C1449 C 0.04453 0.22407 0.75926
 C1450 C 0.03988 0.25559 0.79855
 C1451 C 0.02060 0.26282 0.80072
 C1452 C 0.01573 0.27832 0.81206
 C1453 C -0.00435 0.28051 0.81076
 C1454 C -0.01119 0.26639 0.79853
 N1455 N 0.00406 0.25550 0.79270
 C1456 C -0.03115 0.26368 0.79347
 C1457 C -0.03729 0.25259 0.77753
 C1458 C -0.05665 0.24757 0.77359
 C1459 C -0.05652 0.23831 0.75618
 C1460 C -0.03706 0.23776 0.75016
 N1461 N -0.02534 0.24658 0.76317
 C1462 C -0.03058 0.22968 0.73261
 C1463 C -0.01055 0.22625 0.72834
 C1464 C -0.00345 0.22099 0.71031
 C1465 C 0.01625 0.21707 0.71267
 C1466 C 0.02074 0.22039 0.73203
 N1467 N 0.00429 0.22585 0.74147
 C1468 C 0.03922 0.21691 0.74090
 H1469 H 0.07388 0.21092 0.76418
 H1470 H 0.07424 0.23208 0.79557
 H1471 H 0.00274 0.22677 0.75645
 H1472 H 0.02559 0.28719 0.82041
 H1473 H -0.01290 0.29142 0.81782
 H1474 H -0.06956 0.25034 0.78230
 H1475 H -0.06928 0.23250 0.74888
 H1476 H 0.02596 0.21210 0.70139
 H1477 H 0.00294 0.24283 0.78512
 H1478 H -0.01168 0.21966 0.69690
 C1479 C 0.56690 0.26339 0.25849
 C1480 C 0.56627 0.24946 0.24470
 C1481 C 0.54657 0.24667 0.24013
 N1482 N 0.53524 0.25830 0.25090
 C1483 C 0.54755 0.26847 0.26219
 C1484 C 0.53946 0.23322 0.22659
 C1485 C 0.51930 0.23060 0.22175
 C1486 C 0.51254 0.21751 0.20831
 C1487 C 0.49236 0.21889 0.20791
 C1488 C 0.48718 0.23261 0.22131
 N1489 N 0.50371 0.23997 0.22930
 C1490 C 0.46749 0.23696 0.22641
 C1491 C 0.46192 0.24777 0.24279
 C1492 C 0.44274 0.24961 0.24939
 C1493 C 0.44357 0.26037 0.26583
 C1494 C 0.46317 0.26533 0.26853
 N1495 N 0.47433 0.25749 0.25448
 C1496 C 0.47016 0.27772 0.28315
 C1497 C 0.49010 0.28348 0.28505
 C1498 C 0.49617 0.29925 0.29545
 C1499 C 0.51619 0.30084 0.29301
 C1500 C 0.52201 0.28582 0.28142
 N1501 N 0.50599 0.27514 0.27684
 C1502 C 0.54178 0.28247 0.27563
 H1503 H 0.58010 0.26890 0.26526
 H1504 H 0.57894 0.24222 0.23884
 H1505 H 0.50601 0.26215 0.26981
 H1506 H 0.52123 0.20782 0.19973
 H1507 H 0.48260 0.21023 0.19923
 H1508 H 0.42946 0.24363 0.24322
 H1509 H 0.43103 0.26425 0.27459
 H1510 H 0.52535 0.31197 0.29899
 H1511 H 0.50421 0.25116 0.23888
 H1512 H 0.48703 0.30899 0.30350
 C1513 C 1.05393 0.74020 0.72725
 C1514 C 1.05349 0.72520 0.74029
 C1515 C 1.03494 0.72520 0.74871
 N1516 N 1.02410 0.73977 0.74132
 C1517 C 1.03564 0.74889 0.72809
 C1518 C 1.02855 0.71218 0.76334
 C1519 C 1.00871 0.71037 0.76939
 C1520 C 1.00256 0.69989 0.78556
 C1521 C 0.98233 0.70070 0.78585
 C1522 C 0.97662 0.71169 0.76987
 N1523 N 0.99279 0.71746 0.75987
 C1524 C 0.95683 0.71510 0.76440
 C1525 C 0.95105 0.72905 0.75042
 C1526 C 0.93219 0.73087 0.74288
 C1527 C 0.93264 0.74605 0.73004
 C1528 C 0.95175 0.75309 0.73017
 N1529 N 0.96294 0.74275 0.74277
 C1530 C 0.95849 0.76889 0.71890
 C1531 C 0.97859 0.77397 0.71699
 C1532 C 0.98529 0.79097 0.70873
 C1533 C 1.00550 0.78992 0.70817
 C1534 C 1.01065 0.77232 0.71611
 N1535 N 0.99416 0.76267 0.72142
 C1536 C 1.03012 0.76525 0.71710
 H1537 H 1.06628 0.74413 0.71808
 H1538 H 1.06542 0.71531 0.74306
 H1539 H 0.99346 0.74839 0.72551
 H1540 H 1.01169 0.69230 0.79601
 H1541 H 0.97289 0.69386 0.79656
 H1542 H 0.91947 0.72204 0.74608
 H1543 H 0.92033 0.75111 0.72140
 H1544 H 1.01529 0.80082 0.70237
 H1545 H 0.99281 0.72389 0.74619
 H1546 H 0.97651 0.80284 0.70343
 C1547 C 0.43712 0.72365 0.23178
 C1548 C 0.43707 0.73596 0.21606
 C1549 C 0.45510 0.74531 0.21612
 N1550 N 0.46599 0.73931 0.23150
 C1551 C 0.45513 0.72595 0.24102
 C1552 C 0.46051 0.76017 0.20305
 C1553 C 0.47978 0.76788 0.20171
 C1554 C 0.48493 0.78380 0.19055
 C1555 C 0.50501 0.78589 0.19210
 C1556 C 0.51164 0.77121 0.20416
 N1557 N 0.49621 0.76020 0.20978
 C1558 C 0.53163 0.76800 0.20900
 C1559 C 0.53781 0.75563 0.22431
 C1560 C 0.55720 0.75072 0.22822
 C1561 C 0.55700 0.73959 0.24479
 C1562 C 0.53745 0.73775 0.25033
 N1563 N 0.52578 0.74772 0.23788
 C1564 C 0.53084 0.72792 0.26723
 C1565 C 0.51079 0.72413 0.27136
 C1566 C 0.50388 0.71650 0.28880
 C1567 C 0.48407 0.71314 0.28638
 C1568 C 0.47929 0.71900 0.26758
 N1569 N 0.49574 0.72548 0.25850
 C1570 C 0.46051 0.71697 0.25880
 H1571 H 0.42506 0.71441 0.23613
 H1572 H 0.42502 0.73796 0.20592
 H1573 H 0.49709 0.72834 0.24372
 H1574 H 0.47531 0.79286 0.18192
 H1575 H 0.51374 0.79696 0.18509
 H1576 H 0.57022 0.75480 0.22008
 H1577 H 0.56984 0.73358 0.25191
 H1578 H 0.47447 0.70676 0.29721
 H1579 H 0.49717 0.74707 0.21689
 H1580 H 0.51233 0.71318 0.30177
 C1581 C -0.06371 0.74015 0.24695
 C1582 C -0.06299 0.75837 0.25384
 C1583 C -0.04337 0.76401 0.25338
 N1584 N -0.03225 0.74988 0.24597
 C1585 C -0.04461 0.73528 0.24202
 C1586 C -0.03631 0.78199 0.25974
 C1587 C -0.01619 0.78736 0.26081
 C1588 C -0.00950 0.80449 0.26831
 C1589 C 0.01070 0.80352 0.26892
 C1590 C 0.01595 0.78586 0.26168
 N1591 N -0.00055 0.77629 0.25651
 C1592 C 0.03550 0.77878 0.26126
 C1593 C 0.04105 0.76090 0.25356
 C1594 C 0.06025 0.75422 0.25263
 C1595 C 0.05943 0.73673 0.24405
 C1596 C 0.03979 0.73330 0.23974
 N1597 N 0.02866 0.74808 0.24554
 C1598 C 0.03276 0.71719 0.22964
 C1599 C 0.01259 0.71260 0.22712
 C1600 C 0.00579 0.69823 0.21515
 C1601 C -0.01438 0.69835 0.21623
 C1602 C -0.01949 0.71287 0.22874
 N1603 N -0.00294 0.72124 0.23565
 C1604 C -0.03915 0.71799 0.23307
 H1605 H -0.07692 0.73159 0.24560
 H1606 H -0.07558 0.76645 0.25866
 H1607 H -0.00228 0.73120 0.24664
 H1608 H -0.01827 0.81622 0.27355
 H1609 H 0.02035 0.81440 0.27465
 H1610 H 0.07360 0.76123 0.25735
 H1611 H 0.07195 0.72767 0.24120
 H1612 H -0.02418 0.68906 0.20829
 H1613 H -0.00118 0.76274 0.25098
 H1614 H 0.01444 0.68876 0.20629
 C1615 C 0.44047 0.75638 0.75769
 C1616 C 0.44040 0.74454 0.74202
 C1617 C 0.45968 0.73869 0.73935
 N1618 N 0.47150 0.74688 0.75269
 C1619 C 0.45986 0.75771 0.76396
 C1620 C 0.46598 0.72634 0.72450
 C1621 C 0.48562 0.71996 0.72211
 C1622 C 0.49209 0.70968 0.70627
 C1623 C 0.51160 0.70560 0.70946
 C1624 C 0.51666 0.71350 0.72716
 N1625 N 0.50064 0.72198 0.73492
 C1626 C 0.53582 0.71276 0.73533
 C1627 C 0.54224 0.72391 0.75117
 C1628 C 0.56116 0.72366 0.75885
 C1629 C 0.56174 0.73723 0.77298
 C1630 C 0.54308 0.74513 0.77378
 N1631 N 0.53122 0.73696 0.76046
 C1632 C 0.53730 0.75913 0.78721
 C1633 C 0.51764 0.76506 0.79022
 C1634 C 0.51159 0.77578 0.80590
 C1635 C 0.49162 0.77813 0.80409
 C1636 C 0.48589 0.76893 0.78724
 N1637 N 0.50195 0.76127 0.77872
 C1638 C 0.46621 0.76815 0.78034
 H1639 H 0.42757 0.76304 0.76378
 H1640 H 0.42752 0.74066 0.73366
 H1641 H 0.50247 0.75503 0.76520
 H1642 H 0.48364 0.70551 0.69365
 H1643 H 0.52106 0.69787 0.69967
 H1644 H 0.57338 0.71473 0.75469
 H1645 H 0.57438 0.74060 0.78193
 H1646 H 0.48239 0.78579 0.81413
 H1647 H 0.49963 0.72727 0.74888
 H1648 H 0.52057 0.78112 0.81766
 C1649 C 0.41303 0.31800 0.29670
 C1650 C 0.42626 0.30545 0.30346
 C1651 C 0.44145 0.29791 0.29032
 C1652 C 0.45562 0.28617 0.29670
 H1653 H 0.42580 0.30061 0.31849
 H1654 H 0.44079 0.30163 0.27495
 H1655 H 0.41411 0.32305 0.28175
 H1656 H 0.45707 0.28304 0.31212
 C1657 C 0.41264 0.81385 0.79021
 C1658 C 0.42479 0.80049 0.79740
 C1659 C 0.44045 0.79229 0.78544
 C1660 C 0.45105 0.77763 0.79226
 H1661 H 0.42280 0.79483 0.81201
 H1662 H 0.44287 0.79766 0.77075
 H1663 H 0.41494 0.81931 0.77554
 H1664 H 0.44896 0.77254 0.80709
 C1665 C -0.08587 0.30830 0.79867
 C1666 C -0.07418 0.29561 0.80757
 C1667 C -0.05894 0.28575 0.79642
 C1668 C -0.04623 0.27379 0.80498
 H1669 H -0.07591 0.29240 0.82294
 H1670 H -0.05816 0.28814 0.78081
 H1671 H -0.08360 0.31168 0.78339
 H1672 H -0.04610 0.27212 0.82068
 C1673 C -0.08761 0.79946 0.30513
 C1674 C -0.07628 0.80508 0.29027
 C1675 C -0.06056 0.79244 0.28351
 C1676 C -0.05094 0.79586 0.26693
 H1677 H -0.07922 0.81835 0.28252
 H1678 H -0.05743 0.77942 0.29170
 H1679 H -0.08474 0.78583 0.31229
 H1680 H -0.05347 0.80893 0.25867
 C1681 C 0.58384 0.68564 0.28925
 C1682 C 0.57237 0.70067 0.29270
 C1683 C 0.55685 0.70631 0.27879
 C1684 C 0.54570 0.72165 0.28175
 H1685 H 0.57472 0.70920 0.30551
 H1686 H 0.55485 0.69820 0.26562
 H1687 H 0.58126 0.67723 0.27638
 H1688 H 0.54723 0.72971 0.29499
 C1689 C 0.58928 0.20470 0.80160
 C1690 C 0.57363 0.19629 0.79361
 C1691 C 0.55765 0.20811 0.78545
 C1692 C 0.54175 0.20052 0.77708
 H1693 H 0.57273 0.18088 0.79275
 H1694 H 0.55915 0.22353 0.78573
 H1695 H 0.58972 0.22014 0.80251
 H1696 H 0.53949 0.18520 0.77728
 C1697 C 1.08810 0.69980 0.80198
 C1698 C 1.07383 0.69311 0.79053
 C1699 C 1.05886 0.70604 0.78219
 C1700 C 1.04326 0.69927 0.77261
 H1701 H 1.07324 0.67808 0.78712
 H1702 H 1.06072 0.72134 0.78359
 H1703 H 1.08812 0.71473 0.80590
 H1704 H 1.04074 0.68400 0.77205
 C1705 C 1.08849 0.20028 0.29258
 C1706 C 1.07752 0.21353 0.30115
 C1707 C 1.06206 0.22345 0.28991
 C1708 C 1.04921 0.23522 0.29818
 H1709 H 1.07988 0.21701 0.31628
 H1710 H 1.06097 0.22095 0.27440
 H1711 H 1.08551 0.19670 0.27757
 H1712 H 1.04930 0.23707 0.31380
 C1713 C 0.57589 0.31119 0.69801
 C1714 C 0.56760 0.29425 0.69466
 C1715 C 0.54992 0.28826 0.70554
 C1716 C 0.54288 0.27052 0.70436
 H1717 H 0.57448 0.28433 0.68486
 H1718 H 0.54343 0.29800 0.71584
 H1719 H 0.56888 0.32085 0.70804
 H1720 H 0.54990 0.26047 0.69476
 C1721 C 0.58719 0.81246 0.20210
 C1722 C 0.57513 0.79978 0.19395
 C1723 C 0.55969 0.79019 0.20555
 C1724 C 0.54677 0.77835 0.19735
 H1725 H 0.57677 0.79622 0.17876
 H1726 H 0.55905 0.79252 0.22110
 H1727 H 0.58507 0.81623 0.21719
 H1728 H 0.54666 0.77672 0.18169
 C1729 C 1.08463 0.32371 0.20419
 C1730 C 1.07409 0.30795 0.20077
 C1731 C 1.05780 0.30210 0.21375
 C1732 C 1.04775 0.28597 0.21076
 H1733 H 1.07784 0.29889 0.18871
 H1734 H 1.05450 0.31059 0.22639
 H1735 H 1.08060 0.33275 0.21620
 H1736 H 1.05062 0.27765 0.19791
 C1737 C 1.08903 0.80537 0.70933
 C1738 C 1.07597 0.79336 0.70161
 C1739 C 1.06044 0.78438 0.71360
 C1740 C 1.04538 0.77525 0.70534
 H1741 H 1.07668 0.79007 0.68627
 H1742 H 1.06140 0.78500 0.72932
 H1743 H 1.08765 0.80937 0.72443
 H1744 H 1.04376 0.77543 0.68965
 C1745 C 0.41107 0.68493 0.70784
 C1746 C 0.42268 0.69941 0.70230
 C1747 C 0.43763 0.70665 0.71586
 C1748 C 0.45104 0.71959 0.71041
 H1749 H 0.42135 0.70570 0.68786
 H1750 H 0.43779 0.70123 0.73074
 H1751 H 0.41310 0.67848 0.72214
 H1752 H 0.45170 0.72469 0.69546
 C1753 C 0.41474 0.19077 0.21454
 C1754 C 0.42485 0.20609 0.20845
 C1755 C 0.44096 0.21382 0.22037
 C1756 C 0.45164 0.22875 0.21422
 H1757 H 0.42117 0.21309 0.19476
 H1758 H 0.44399 0.20749 0.23456
 H1759 H 0.41884 0.18374 0.22811
 H1760 H 0.44924 0.23484 0.19983
 C1761 C -0.09707 0.70400 0.19354
 C1762 C -0.08397 0.69765 0.20658
 C1763 C -0.06847 0.71057 0.21358
 C1764 C -0.05496 0.70485 0.22653
 H1765 H -0.08462 0.68308 0.21205
 H1766 H -0.06802 0.72515 0.20804
 H1767 H -0.09605 0.71862 0.18819
 H1768 H -0.05458 0.69007 0.23142
 C1769 C -0.07055 0.18221 0.70065
 C1770 C -0.06490 0.20045 0.70083
 C1771 C -0.04804 0.20625 0.71281
 C1772 C -0.04579 0.22435 0.71818
 H1773 H -0.07359 0.21129 0.69341
 H1774 H -0.03810 0.19542 0.71850
 H1775 H -0.06247 0.17168 0.70918
 H1776 H -0.05655 0.23498 0.71375
 C1777 C 0.29720 0.42085 0.30667
 C1778 C 0.30511 0.43340 0.29413
 C1779 C 0.29285 0.44824 0.28488
 C1780 C 0.30062 0.46108 0.27255
 H1781 H 0.32052 0.43243 0.29022
 H1782 H 0.27711 0.44831 0.28757
 H1783 H 0.28185 0.42222 0.31076
 H1784 H 0.31643 0.46172 0.27045
 C1785 C 0.29840 -0.08806 0.79635
 C1786 C 0.28608 -0.07611 0.80518
 C1787 C 0.27683 -0.06058 0.79381
 C1788 C 0.26589 -0.04711 0.80204
 H1789 H 0.28269 -0.07775 0.82051
 H1790 H 0.27880 -0.06019 0.77814
 H1791 H 0.30182 -0.08559 0.78110
 H1792 H 0.26432 -0.04660 0.81770
 C1793 C 0.81556 0.42393 0.80019
 C1794 C 0.79783 0.43204 0.80139
 C1795 C 0.79358 0.44923 0.78951
 C1796 C 0.77520 0.45357 0.78422
 H1797 H 0.78606 0.42525 0.80959
 H1798 H 0.80573 0.45739 0.78334
 H1799 H 0.82662 0.43069 0.79099
 H1800 H 0.76311 0.44452 0.78901
 C1801 C 0.81100 -0.08306 0.30017
 C1802 C 0.79680 -0.07197 0.30732
 C1803 C 0.78855 -0.05632 0.29532
 C1804 C 0.77456 -0.04484 0.30207
 H1805 H 0.79084 -0.07462 0.32172
 H1806 H 0.79351 -0.05448 0.28041
 H1807 H 0.81682 -0.07980 0.28581
 H1808 H 0.76962 -0.04613 0.31701
 C1809 C 0.31403 0.56874 0.68613
 C1810 C 0.29524 0.56313 0.68681
 C1811 C 0.28985 0.54558 0.69760
 C1812 C 0.27126 0.54224 0.70299
 H1813 H 0.28373 0.57230 0.68105
 H1814 H 0.30142 0.53616 0.70284
 H1815 H 0.32526 0.55980 0.69281
 H1816 H 0.25988 0.55239 0.69895
 C1817 C 0.31830 1.07375 0.20014
 C1818 C 0.30073 1.06593 0.19664
 C1819 C 0.29464 1.04845 0.20720
 C1820 C 0.27563 1.04395 0.20913
 H1821 H 0.29022 1.07323 0.18729
 H1822 H 0.30562 1.04008 0.21498
 H1823 H 0.32820 1.06686 0.21044
 H1824 H 0.26447 1.05309 0.20264
 C1825 C 0.79568 0.59035 0.20029
 C1826 C 0.80275 0.57991 0.21512
 C1827 C 0.78998 0.56553 0.22453
 C1828 C 0.79697 0.55223 0.23680
 H1829 H 0.81788 0.58154 0.21986
 H1830 H 0.77443 0.56533 0.22081
 H1831 H 0.78073 0.58789 0.19533
 H1832 H 0.81264 0.55137 0.23976
 C1833 C 0.81154 1.08266 0.70001
 C1834 C 0.79417 1.07570 0.69436
 C1835 C 0.78524 1.05931 0.70464
 C1836 C 0.76781 1.05241 0.69914
 H1837 H 0.78615 1.08245 0.68251
 H1838 H 0.79251 1.05330 0.71739
 H1839 H 0.81958 1.07559 0.71169
 H1840 H 0.76004 1.05893 0.68697
 C1841 C 0.69819 0.58600 0.31899
 C1842 C 0.69448 0.57628 0.30281
 C1843 C 0.70713 0.56032 0.29708
 C1844 C 0.70473 0.55196 0.27991
 H1845 H 0.68264 0.58065 0.29316
 H1846 H 0.71921 0.55595 0.30648
 H1847 H 0.71016 0.58154 0.32846
 H1848 H 0.69247 0.55595 0.27059
 C1849 C 0.69033 1.08659 0.80923
 C1850 C 0.68472 1.07891 0.79237
 C1851 C 0.69505 1.06221 0.78456
 C1852 C 0.69190 1.05648 0.76636
 H1853 H 0.67294 1.08524 0.78383
 H1854 H 0.70596 1.05491 0.79348
 H1855 H 0.70249 1.08019 0.81720
 H1856 H 0.68176 1.06424 0.75699
 C1857 C 0.18671 0.58031 0.79014
 C1858 C 0.19942 0.56743 0.79723
 C1859 C 0.20837 0.55314 0.78446
 C1860 C 0.22097 0.54012 0.79150
 H1861 H 0.20361 0.56760 0.81244
 H1862 H 0.20499 0.55350 0.76904
 H1863 H 0.18246 0.57981 0.77495
 H1864 H 0.22356 0.53913 0.80705
 C1865 C 0.18585 1.08264 0.28967
 C1866 C 0.19875 1.07038 0.29752
 C1867 C 0.20710 1.05490 0.28596
 C1868 C 0.21980 1.04248 0.29385
 H1869 H 0.20385 1.07219 0.31232
 H1870 H 0.20359 1.05412 0.27059
 H1871 H 0.18046 1.08043 0.27502
 H1872 H 0.22273 1.04262 0.30936
 C1873 C 0.69305 0.41169 0.70098
 C1874 C 0.70603 0.42333 0.69229
 C1875 C 0.71492 0.43901 0.70330
 C1876 C 0.72740 0.45150 0.69510
 H1877 H 0.71027 0.42118 0.67730
 H1878 H 0.71161 0.44014 0.71868
 H1879 H 0.68868 0.41438 0.71586
 H1880 H 0.73009 0.45121 0.67957
 C1881 C 0.70372 -0.08267 0.19681
 C1882 C 0.69581 -0.07079 0.20963
 C1883 C 0.70781 -0.05536 0.21785
 C1884 C 0.70068 -0.04363 0.23122
 H1885 H 0.68080 -0.07278 0.21457
 H1886 H 0.72312 -0.05398 0.21350
 H1887 H 0.71876 -0.08037 0.19201
 H1888 H 0.68533 -0.04441 0.23549
 C1889 C 0.21232 0.41533 0.18590
 C1890 C 0.20640 0.42956 0.19718
 C1891 C 0.22004 0.44532 0.20162
 C1892 C 0.21575 0.45826 0.21500
 H1893 H 0.19191 0.42923 0.20376
 H1894 H 0.23429 0.44588 0.19451
 H1895 H 0.22704 0.41577 0.17979
 H1896 H 0.20140 0.45817 0.22190
 C1897 C 0.19181 -0.08017 0.68723
 C1898 C 0.18758 -0.07177 0.70403
 C1899 C 0.19878 -0.05495 0.71038
 C1900 C 0.19626 -0.04789 0.72813
 H1901 H 0.17653 -0.07786 0.71365
 H1902 H 0.21013 -0.04898 0.70097
 H1903 H 0.20301 -0.07399 0.67781
 H1904 H 0.18560 -0.05444 0.73790
 C1905 C 0.30551 0.31342 0.41479
 C1906 C 0.30834 0.29585 0.42198
 C1907 C 0.29687 0.28937 0.43902
 C1908 C 0.29289 0.27092 0.44221
 H1909 H 0.31771 0.28591 0.41441
 H1910 H 0.29005 0.29995 0.44818
 H1911 H 0.29487 0.32264 0.42170
 H1912 H 0.29827 0.26037 0.43217
 C1913 C 0.31852 0.80902 -0.08579
 C1914 C 0.30039 0.81019 -0.07844
 C1915 C 0.29450 0.79771 -0.06203
 C1916 C 0.27552 0.79437 -0.05822
 H1917 H 0.28943 0.81915 -0.08549
 H1918 H 0.30571 0.78994 -0.05394
 H1919 H 0.32898 0.79915 -0.07926
 H1920 H 0.26428 0.80108 -0.06719
 C1921 C 0.79880 0.30696 -0.09729
 C1922 C 0.80791 0.29577 -0.08415
 C1923 C 0.79670 0.28470 -0.06947
 C1924 C 0.80589 0.27550 -0.05488
 H1925 H 0.82382 0.29476 -0.08407
 H1926 H 0.78076 0.28420 -0.07042
 H1927 H 0.78291 0.30835 -0.09687
 H1928 H 0.82172 0.27686 -0.05327
 C1929 C 0.79948 0.80350 0.40691
 C1930 C 0.78701 0.81121 0.41951
 C1931 C 0.77944 0.79918 0.43555
 C1932 C 0.76479 0.80457 0.44713
 H1933 H 0.78205 0.82582 0.41770
 H1934 H 0.78551 0.78496 0.43754
 H1935 H 0.80375 0.78868 0.40889
 H1936 H 0.75874 0.81884 0.44600
 C1937 C 0.70125 0.29317 0.60463
 C1938 C 0.71178 0.30116 0.59026
 C1939 C 0.72270 0.28931 0.57644
 C1940 C 0.73010 0.29691 0.56007
 H1941 H 0.71208 0.31655 0.58838
 H1942 H 0.72452 0.27418 0.57950
 H1943 H 0.70034 0.27775 0.60588
 H1944 H 0.72728 0.31175 0.55640
 C1945 C 0.70221 0.80434 1.09617
 C1946 C 0.69313 0.79315 1.08338
 C1947 C 0.70467 0.78368 1.06821
 C1948 C 0.69619 0.77286 1.05470
 H1949 H 0.67735 0.79094 1.08407
 H1950 H 0.72053 0.78562 1.06800
 H1951 H 0.71799 0.80649 1.09506
 H1952 H 0.68028 0.77166 1.05410
 C1953 C 0.20280 0.29162 1.10291
 C1954 C 0.19314 0.28034 1.09064
 C1955 C 0.20414 0.26939 1.07616
 C1956 C 0.19506 0.26071 1.06149
 H1957 H 0.17721 0.27952 1.09095
 H1958 H 0.22008 0.26877 1.07717
 H1959 H 0.21869 0.29285 1.10184
 H1960 H 0.17929 0.26225 1.05959
 C1961 C 0.19824 0.79704 0.59573
 C1962 C 0.21134 0.80478 0.58343
 C1963 C 0.22193 0.79302 0.56932
 C1964 C 0.23283 0.80116 0.55531
 H1965 H 0.21426 0.81999 0.58362
 H1966 H 0.22075 0.77759 0.57025
 H1967 H 0.19487 0.78194 0.59497
 H1968 H 0.23312 0.81657 0.55365
 C1969 C 0.29725 0.69664 0.59925
 C1970 C 0.30607 0.70831 0.58638
 C1971 C 0.29450 0.71908 0.57178
 C1972 C 0.30333 0.72825 0.55699
 H1973 H 0.32197 0.70974 0.58637
 H1974 H 0.27857 0.71941 0.57297
 H1975 H 0.28142 0.69468 0.59861
 H1976 H 0.31912 0.72699 0.55509
 C1977 C 0.30113 0.19710 1.10351
 C1978 C 0.28910 0.18873 1.09079
 C1979 C 0.27844 0.20011 1.07598
 C1980 C 0.26903 0.19173 1.06130
 H1981 H 0.28717 0.17337 1.09115
 H1982 H 0.27830 0.21554 1.07700
 H1983 H 0.30363 0.21237 1.10248
 H1984 H 0.27008 0.17641 1.05954
 C1985 C 0.80407 0.68287 1.07636
 C1986 C 0.80310 0.70131 1.07127
 C1987 C 0.79152 0.70762 1.05431
 C1988 C 0.78547 0.72568 1.05280
 H1989 H 0.80956 0.71204 1.08051
 H1990 H 0.78661 0.69724 1.04379
 H1991 H 0.79666 0.67231 1.06758
 H1992 H 0.78915 0.73572 1.06410
 C1993 C 0.80455 0.20401 0.60391
 C1994 C 0.81341 0.21539 0.59082
 C1995 C 0.80170 0.22544 0.57586
 C1996 C 0.81018 0.23464 0.56089
 H1997 H 0.82928 0.21709 0.59092
 H1998 H 0.78575 0.22506 0.57686
 H1999 H 0.78873 0.20191 0.60313
 H2000 H 0.82603 0.23415 0.55908
 C2001 C 0.68358 0.70969 0.40945
 C2002 C 0.69898 0.70504 0.42068
 C2003 C 0.70630 0.71809 0.43565
 C2004 C 0.72209 0.71357 0.44640
 H2005 H 0.70665 0.69170 0.41857
 H2006 H 0.69907 0.73170 0.43766
 H2007 H 0.67600 0.72307 0.41173
 H2008 H 0.72881 0.69964 0.44500
 C2009 C 0.70819 0.20756 -0.10135
 C2010 C 0.71590 0.19995 -0.08513
 C2011 C 0.72594 0.21219 -0.07094
 C2012 C 0.73251 0.20513 -0.05398
 H2013 H 0.71470 0.18476 -0.08219
 H2014 H 0.72801 0.22722 -0.07437
 H2015 H 0.70903 0.22287 -0.10379
 H2016 H 0.72941 0.19039 -0.05001
 C2017 C 0.19925 0.67533 -0.09027
 C2018 C 0.19880 0.69325 -0.08385
 C2019 C 0.21066 0.69927 -0.06705
 C2020 C 0.21160 0.71771 -0.06242
 H2021 H 0.19005 0.70392 -0.09141
 H2022 H 0.21931 0.68884 -0.05897
 H2023 H 0.20815 0.66475 -0.08271
 H2024 H 0.20367 0.72813 -0.07122
 C2025 C 0.20436 0.18650 0.40122
 C2026 C 0.19793 0.19987 0.41325
 C2027 C 0.21107 0.20766 0.42822
 C2028 C 0.20440 0.21982 0.44141
 H2029 H 0.18304 0.20528 0.41195
 H2030 H 0.22649 0.20363 0.42838
 H2031 H 0.21913 0.18087 0.40303
 H2032 H 0.18881 0.22309 0.44203
 C2033 C 0.29967 0.41205 0.67867
 C2034 C 0.30490 0.42174 0.69447
 C2035 C 0.29235 0.43706 0.70209
 C2036 C 0.29793 0.44695 0.71763
 H2037 H 0.31832 0.41807 0.70220
 H2038 H 0.27811 0.43980 0.69548
 H2039 H 0.28643 0.41608 0.67081
 H2040 H 0.31181 0.44363 0.72471
 C2041 C 0.28505 0.90002 0.19486
 C2042 C 0.29386 0.91522 0.20255
 C2043 C 0.28232 0.92977 0.21267
 C2044 C 0.29067 0.94594 0.21866
 H2045 H 0.30970 0.91692 0.20152
 H2046 H 0.26686 0.92712 0.21565
 H2047 H 0.26914 0.89882 0.19529
 H2048 H 0.30581 0.94917 0.21483
 C2049 C 0.79165 0.41548 0.19333
 C2050 C 0.79874 0.42682 0.20713
 C2051 C 0.78594 0.44104 0.21621
 C2052 C 0.79292 0.45322 0.22931
 H2053 H 0.81395 0.42566 0.21177
 H2054 H 0.77052 0.44167 0.21209
 H2055 H 0.77647 0.41703 0.18866
 H2056 H 0.80852 0.45339 0.23271
 C2057 C 0.78218 0.91317 0.68631
 C2058 C 0.78715 0.92598 0.69965
 C2059 C 0.77329 0.94129 0.70473
 C2060 C 0.77790 0.95444 0.71784
 H2061 H 0.80125 0.92509 0.70700
 H2062 H 0.75883 0.94161 0.69800
 H2063 H 0.76811 0.91448 0.67893
 H2064 H 0.79248 0.95469 0.72427
 C2065 C 0.70064 0.59078 0.69366
 C2066 C 0.71399 0.57946 0.68548
 C2067 C 0.72403 0.56467 0.69724
 C2068 C 0.73458 0.55086 0.68908
 H2069 H 0.71737 0.58090 0.67013
 H2070 H 0.72245 0.56478 0.71295
 H2071 H 0.69686 0.58862 0.70885
 H2072 H 0.73532 0.54984 0.67338
 C2073 C 0.68180 0.09003 0.20713
 C2074 C 0.69690 0.07845 0.20337
 C2075 C 0.70270 0.06309 0.21708
 C2076 C 0.71856 0.05244 0.21360
 H2077 H 0.70551 0.08053 0.19025
 H2078 H 0.69438 0.06079 0.23037
 H2079 H 0.67330 0.08785 0.22031
 H2080 H 0.72736 0.05519 0.20071
 C2081 C 0.19616 0.59820 0.19635
 C2082 C 0.20783 0.58477 0.18914
 C2083 C 0.21761 0.57094 0.20220
 C2084 C 0.22615 0.55531 0.19532
 H2085 H 0.21002 0.58383 0.17357
 H2086 H 0.21791 0.57354 0.21772
 H2087 H 0.19327 0.59840 0.21186
 H2088 H 0.22493 0.55196 0.18002
 C2089 C 0.18808 0.08897 0.70281
 C2090 C 0.20129 0.07622 0.69695
 C2091 C 0.20810 0.06121 0.71055
 C2092 C 0.21985 0.04710 0.70493
 H2093 H 0.20721 0.07695 0.68232
 H2094 H 0.20372 0.06184 0.72571
 H2095 H 0.18187 0.08758 0.71730
 H2096 H 0.22389 0.04571 0.68977
 C2097 C 0.29316 0.60290 0.29407
 C2098 C 0.30248 0.58971 0.28370
 C2099 C 0.29134 0.57491 0.27336
 C2100 C 0.30045 0.56010 0.26531
 H2101 H 0.31842 0.58954 0.28307
 H2102 H 0.27540 0.57584 0.27267
 H2103 H 0.27723 0.60252 0.29510
 H2104 H 0.31625 0.55850 0.26695
 C2105 C 0.29394 0.07950 0.82454
 C2106 C 0.29665 0.07160 0.80718
 C2107 C 0.28399 0.05590 0.80053
 C2108 C 0.28567 0.04930 0.78248
 H2109 H 0.30795 0.07706 0.79747
 H2110 H 0.27275 0.05009 0.81014
 H2111 H 0.28244 0.07406 0.83406
 H2112 H 0.29635 0.05568 0.77262
 C2113 C 0.78983 0.59534 0.79443
 C2114 C 0.79933 0.58099 0.78605
 C2115 C 0.78821 0.56647 0.77531
 C2116 C 0.79662 0.55030 0.76956
 H2117 H 0.81520 0.57982 0.78729
 H2118 H 0.77277 0.56895 0.77208
 H2119 H 0.77387 0.59581 0.79380
 H2120 H 0.81166 0.54708 0.77374
 C2121 C 0.78897 0.09868 0.30862
 C2122 C 0.79664 0.08326 0.30036
 C2123 C 0.78360 0.06879 0.29187
 C2124 C 0.79049 0.05207 0.28581
 H2125 H 0.81245 0.08124 0.29996
 H2126 H 0.76798 0.07180 0.29056
 H2127 H 0.77310 0.10012 0.30955
 H2128 H 0.80584 0.04843 0.28810
 C2129 C 0.69988 0.41696 0.31204
 C2130 C 0.69259 0.42790 0.29771
 C2131 C 0.70424 0.44447 0.29097
 C2132 C 0.70064 0.45368 0.27423
 H2133 H 0.67906 0.42406 0.29036
 H2134 H 0.71722 0.44844 0.29925
 H2135 H 0.71388 0.42082 0.31854
 H2136 H 0.68779 0.45029 0.26558
 C2137 C 0.69686 0.91775 0.81050
 C2138 C 0.68860 0.93002 0.79792
 C2139 C 0.70031 0.94573 0.78947
 C2140 C 0.69307 0.95694 0.77534
 H2141 H 0.67355 0.92798 0.79310
 H2142 H 0.71551 0.94753 0.79400
 H2143 H 0.71197 0.91999 0.81510
 H2144 H 0.67779 0.95566 0.77096
 C2145 C 0.21147 0.39678 0.79607
 C2146 C 0.22168 0.41106 0.80390
 C2147 C 0.22957 0.42645 0.79134
 C2148 C 0.23729 0.44236 0.79867
 H2149 H 0.22395 0.41159 0.81948
 H2150 H 0.22876 0.42494 0.77567
 H2151 H 0.20874 0.39688 0.78052
 H2152 H 0.23711 0.44459 0.81423
 C2153 C 0.19726 0.90267 0.29778
 C2154 C 0.21063 0.91458 0.30511
 C2155 C 0.21941 0.92960 0.29267
 C2156 C 0.22991 0.94387 0.30013
 H2157 H 0.21498 0.91341 0.32025
 H2158 H 0.21703 0.92920 0.27707
 H2159 H 0.19246 0.90457 0.28283
 H2160 H 0.23142 0.94516 0.31575
 C2161 C 0.39820 0.29284 0.70362
 C2162 C 0.41422 0.30070 0.71147
 C2163 C 0.42918 0.28825 0.72054
 C2164 C 0.44603 0.29502 0.72779
 H2165 H 0.41639 0.31603 0.71100
 H2166 H 0.42645 0.27299 0.72125
 H2167 H 0.39662 0.27743 0.70391
 H2168 H 0.44957 0.31007 0.72632
 C2169 C 0.41072 0.80847 0.18788
 C2170 C 0.41958 0.79218 0.18312
 C2171 C 0.43672 0.78514 0.19422
 C2172 C 0.44482 0.76825 0.19041
 H2173 H 0.41389 0.78366 0.17135
 H2174 H 0.44242 0.79350 0.20614
 H2175 H 0.41655 0.81681 0.19974
 H2176 H 0.43873 0.75941 0.17907
 C2177 C 0.91061 0.31993 0.20136
 C2178 C 0.92013 0.30356 0.19838
 C2179 C 0.93552 0.29713 0.21212
 C2180 C 0.94550 0.28097 0.20949
 H2181 H 0.91648 0.29482 0.18601
 H2182 H 0.93868 0.30563 0.22481
 H2183 H 0.91458 0.32850 0.21377
 H2184 H 0.94301 0.27259 0.19660
 C2185 C 0.90094 0.81111 0.70963
 C2186 C 0.91514 0.80010 0.70236
 C2187 C 0.92902 0.78949 0.71497
 C2188 C 0.94411 0.78010 0.70713
 H2189 H 0.91661 0.79877 0.68675
 H2190 H 0.92689 0.78918 0.73060
 H2191 H 0.89987 0.81291 0.72522
 H2192 H 0.94672 0.78130 0.69160
 C2193 C 0.58722 0.30553 0.32584
 C2194 C 0.57979 0.30718 0.30787
 C2195 C 0.56295 0.29543 0.30162
 C2196 C 0.55757 0.29521 0.28293
 H2197 H 0.58654 0.31686 0.29739
 H2198 H 0.55526 0.28647 0.31215
 H2199 H 0.58072 0.29541 0.33606
 H2200 H 0.56599 0.30335 0.27226
 C2201 C 0.58910 0.80589 0.79886
 C2202 C 0.57904 0.79066 0.80536
 C2203 C 0.56437 0.78137 0.79288
 C2204 C 0.55270 0.76749 0.79976
 H2205 H 0.58137 0.78516 0.81999
 H2206 H 0.56274 0.78617 0.77788
 H2207 H 0.58630 0.81145 0.78432
 H2208 H 0.55361 0.76291 0.81486
 C2209 C 0.10082 0.29201 0.80350
 C2210 C 0.08699 0.28181 0.81279
 C2211 C 0.07114 0.27271 0.80165
 C2212 C 0.05586 0.26411 0.81035
 H2213 H 0.08731 0.28018 0.82848
 H2214 H 0.07183 0.27317 0.78588
 H2215 H 0.09992 0.29387 0.78783
 H2216 H 0.05432 0.26448 0.82603
 C2217 C 0.08925 0.78985 0.30710
 C2218 C 0.07795 0.79668 0.29268
 C2219 C 0.06152 0.78525 0.28514
 C2220 C 0.05119 0.79100 0.26958
 H2221 H 0.08118 0.81039 0.28592
 H2222 H 0.05826 0.77149 0.29187
 H2223 H 0.08588 0.77603 0.31360
 H2224 H 0.05388 0.80494 0.26304
 C2225 C 0.59535 0.70453 0.69693
 C2226 C 0.58078 0.69623 0.70695
 C2227 C 0.56566 0.70810 0.71607
 C2228 C 0.55047 0.70043 0.72569
 H2229 H 0.58011 0.68084 0.70864
 H2230 H 0.56712 0.72353 0.71528
 H2231 H 0.59550 0.71994 0.69511
 H2232 H 0.54822 0.68511 0.72595
 C2233 C 0.59451 0.21588 0.18368
 C2234 C 0.58166 0.21119 0.19769
 C2235 C 0.56725 0.22506 0.20499
 C2236 C 0.55378 0.21968 0.21815
 H2237 H 0.58180 0.19695 0.20406
 H2238 H 0.56781 0.23979 0.19993
 H2239 H 0.59394 0.22998 0.17698
 H2240 H 0.55273 0.20482 0.22267
 C2241 C 0.08788 0.70799 0.18541
 C2242 C 0.07514 0.70015 0.19799
 C2243 C 0.05963 0.71185 0.20664
 C2244 C 0.04745 0.70476 0.22017
 H2245 H 0.07652 0.68533 0.20248
 H2246 H 0.05856 0.72681 0.20244
 H2247 H 0.08626 0.72286 0.18110
 H2248 H 0.04778 0.68970 0.22401
 C2249 C 0.08844 0.20555 0.69015
 C2250 C 0.07873 0.19968 0.70606
 C2251 C 0.06339 0.21144 0.71493
 C2252 C 0.05382 0.20508 0.73070
 H2253 H 0.08222 0.18607 0.71287
 H2254 H 0.06006 0.22544 0.70883
 H2255 H 0.08467 0.21907 0.68325
 H2256 H 0.05771 0.19143 0.73726
 C2257 C 0.41215 0.70280 0.31012
 C2258 C 0.42065 0.69818 0.29333
 C2259 C 0.43669 0.70985 0.28497
 C2260 C 0.44550 0.70474 0.26851
 H2261 H 0.41569 0.68575 0.28551
 H2262 H 0.44112 0.72290 0.29207
 H2263 H 0.41744 0.71508 0.31800
 H2264 H 0.44055 0.69211 0.26100
 C2265 C 0.41113 0.18226 0.80648
 C2266 C 0.41943 0.19935 0.80906
 C2267 C 0.43627 0.20556 0.79704
 C2268 C 0.44386 0.22308 0.79860
 H2269 H 0.41346 0.20907 0.81961
 H2270 H 0.44201 0.19606 0.78611
 H2271 H 0.41731 0.17267 0.79587
 H2272 H 0.43765 0.23288 0.80899
 C2273 C 0.90135 0.70305 0.80859
 C2274 C 0.91275 0.69707 0.79409
 C2275 C 0.92779 0.70969 0.78528
 C2276 C 0.94150 0.70274 0.77343
 H2277 H 0.91117 0.68267 0.78876
 H2278 H 0.92779 0.72478 0.78856
 H2279 H 0.90362 0.71718 0.81441
 H2280 H 0.94226 0.68750 0.77100
 C2281 C 0.90820 0.19726 0.30164
 C2282 C 0.91944 0.21182 0.30739
 C2283 C 0.93368 0.22080 0.29388
 C2284 C 0.94659 0.23388 0.29990
 H2285 H 0.91826 0.21710 0.32207
 H2286 H 0.93384 0.21650 0.27879
 H2287 H 0.90991 0.19188 0.28704
 H2288 H 0.94731 0.23744 0.31517
 C2289 C 0.29688 0.28854 0.59057
 C2290 C 0.29229 0.29540 0.57292
 C2291 C 0.28370 0.28270 0.55829
 C2292 C 0.27904 0.28906 0.54046
 H2293 H 0.29456 0.31036 0.56933
 H2294 H 0.28052 0.26798 0.56232
 H2295 H 0.29495 0.27345 0.59374
 H2296 H 0.28311 0.30343 0.53595
 C2297 C 0.28850 0.79472 0.08649
 C2298 C 0.29801 0.78673 0.07171
 C2299 C 0.28690 0.77767 0.05593
 C2300 C 0.29557 0.77267 0.03934
 H2301 H 0.31396 0.78699 0.07113
 H2302 H 0.27125 0.77509 0.05781
 H2303 H 0.27254 0.79515 0.08640
 H2304 H 0.31091 0.77619 0.03674
 C2305 C 0.80056 0.30697 0.08610
 C2306 C 0.80941 0.29426 0.07482
 C2307 C 0.79802 0.28458 0.05960
 C2308 C 0.80664 0.27359 0.04641
 H2309 H 0.82489 0.29103 0.07675
 H2310 H 0.78216 0.28642 0.05913
 H2311 H 0.78523 0.31049 0.08345
 H2312 H 0.82255 0.27249 0.04592
 C2313 C 0.81359 0.80602 0.58280
 C2314 C 0.79653 0.80848 0.57337
 C2315 C 0.79097 0.79631 0.55698
 C2316 C 0.77374 0.79876 0.54789
 H2317 H 0.78619 0.81919 0.57813
 H2318 H 0.80053 0.78467 0.55286
 H2319 H 0.82405 0.79557 0.57770
 H2320 H 0.76442 0.81073 0.55149
 C2321 C 0.29455 0.70237 0.41057
 C2322 C 0.30405 0.71004 0.42562
 C2323 C 0.29327 0.72036 0.44074
 C2324 C 0.30262 0.72752 0.45614
 H2325 H 0.31994 0.70905 0.42668
 H2326 H 0.27754 0.72256 0.43909
 H2327 H 0.27862 0.70306 0.40990
 H2328 H 0.31814 0.72456 0.45834
 C2329 C 0.30017 0.19930 0.91629
 C2330 C 0.29012 0.19136 0.93105
 C2331 C 0.27999 0.20310 0.94551
 C2332 C 0.27088 0.19490 0.96071
 H2333 H 0.28916 0.17597 0.93248
 H2334 H 0.27972 0.21850 0.94365
 H2335 H 0.30148 0.21471 0.91520
 H2336 H 0.27205 0.17960 0.96305
 C2337 C 0.78384 0.68918 0.91210
 C2338 C 0.79045 0.70171 0.92502
 C2339 C 0.77782 0.70734 0.94133
 C2340 C 0.78179 0.72280 0.95175
 H2341 H 0.80470 0.70849 0.92309
 H2342 H 0.76443 0.69930 0.94426
 H2343 H 0.76922 0.68313 0.91387
 H2344 H 0.79529 0.73072 0.94916
 C2345 C 0.79999 0.20339 0.41563
 C2346 C 0.80947 0.21258 0.42973
 C2347 C 0.79812 0.22096 0.44572
 C2348 C 0.80662 0.23133 0.45957
 H2349 H 0.82532 0.21431 0.42927
 H2350 H 0.78224 0.21917 0.44584
 H2351 H 0.78411 0.20183 0.41646
 H2352 H 0.82253 0.23247 0.46022
 C2353 C 0.71418 0.31440 0.41921
 C2354 C 0.70830 0.30272 0.43356
 C2355 C 0.72223 0.29753 0.44916
 C2356 C 0.71883 0.28292 0.46135
 H2357 H 0.69371 0.29642 0.43337
 H2358 H 0.73612 0.30517 0.45012
 H2359 H 0.72910 0.31998 0.41938
 H2360 H 0.70491 0.27533 0.46088
 C2361 C 0.69803 0.80266 0.91091
 C2362 C 0.68916 0.79141 0.92408
 C2363 C 0.70094 0.78220 0.93947
 C2364 C 0.69282 0.77117 0.95329
 H2365 H 0.67342 0.78889 0.92345
 H2366 H 0.71678 0.78433 0.93948
 H2367 H 0.71376 0.80517 0.91200
 H2368 H 0.67696 0.76965 0.95418
 C2369 C 0.20639 0.30014 0.92064
 C2370 C 0.19731 0.28745 0.93226
 C2371 C 0.20814 0.27714 0.94770
 C2372 C 0.19866 0.26609 0.96065
 H2373 H 0.18183 0.28429 0.93016
 H2374 H 0.22407 0.27823 0.94831
 H2375 H 0.22169 0.30375 0.92328
 H2376 H 0.18270 0.26565 0.96076
 C2377 C 0.20337 0.79408 0.41170
 C2378 C 0.21472 0.80326 0.42440
 C2379 C 0.22487 0.79257 0.44003
 C2380 C 0.23421 0.80145 0.45442
 H2381 H 0.21664 0.81859 0.42324
 H2382 H 0.22484 0.77709 0.43976
 H2383 H 0.20103 0.77883 0.41349
 H2384 H 0.23341 0.81685 0.45551
 C2385 C 0.70379 0.70652 0.58972
 C2386 C 0.71516 0.69940 0.57581
 C2387 C 0.72228 0.71226 0.56025
 C2388 C 0.73499 0.70675 0.54668
 H2389 H 0.71938 0.68449 0.57603
 H2390 H 0.71719 0.72695 0.55999
 H2391 H 0.70007 0.72157 0.58923
 H2392 H 0.73969 0.69200 0.54603
 C2393 C 0.71329 0.18260 0.08459
 C2394 C 0.71043 0.19764 0.07275
 C2395 C 0.72479 0.20249 0.05737
 C2396 C 0.72205 0.21756 0.04555
 H2397 H 0.69767 0.20669 0.07459
 H2398 H 0.73806 0.19403 0.05599
 H2399 H 0.72600 0.17355 0.08243
 H2400 H 0.70861 0.22581 0.04646
 C2401 C 0.20424 0.70411 0.08341
 C2402 C 0.21270 0.69513 0.06861
 C2403 C 0.22254 0.70641 0.05321
 C2404 C 0.22880 0.69868 0.03669
 H2405 H 0.21213 0.67972 0.06772
 H2406 H 0.22446 0.72163 0.05527
 H2407 H 0.20436 0.71959 0.08359
 H2408 H 0.22592 0.68376 0.03381
 C2409 C 0.20440 0.19212 0.58448
 C2410 C 0.19697 0.20506 0.57201
 C2411 C 0.20924 0.21371 0.55660
 C2412 C 0.20121 0.22395 0.54210
 H2413 H 0.18169 0.20933 0.57310
 H2414 H 0.22507 0.21168 0.55704
 H2415 H 0.21943 0.18726 0.58273
 H2416 H 0.18534 0.22520 0.54090
   
