data_POSCAR
  _audit_creation_date              2014-09-24
  _audit_creation_method            'ToBaCCo'
  _symmetry_space_group_name_H-M    'P1'
  _symmetry_Int_Tables_number       1
  _symmetry_cell_setting            triclinic
  loop_
  _symmetry_equiv_pos_as_xyz
 x,y,z
_cell_length_a 72.6371
_cell_length_b 72.3230
_cell_length_c 76.3748
_cell_angle_alpha 89.243000
_cell_angle_beta 90.371000
_cell_angle_gamma 91.224000
loop_
  _atom_site_label
  _atom_site_type_symbol
  _atom_site_fract_x
  _atom_site_fract_y
  _atom_site_fract_z
C1 C 0.40820 0.01118 0.27353
 C2 C 0.39582 0.02803 0.27083
 C3 C 0.38387 0.02676 0.25691
 C4 C 0.38600 0.00863 0.24661
 C5 C 0.39488 -0.00541 0.27430
 C6 C 0.38318 -0.00685 0.26043
 C7 C 0.41806 0.00963 0.25599
 C8 C 0.40665 0.00829 0.24183
 H9 H 0.39749 0.04048 0.27837
 H10 H 0.37665 0.00695 0.23523
 H11 H 0.39479 -0.01525 0.28513
 H12 H 0.43286 0.01118 0.25479
 C13 C 0.08969 -0.00295 0.76745
 C14 C 0.10357 -0.01871 0.76666
 C15 C 0.11489 -0.01780 0.75247
 C16 C 0.11109 -0.00111 0.74023
 C17 C 0.10146 0.01476 0.76629
 C18 C 0.11271 0.01590 0.75217
 C19 C 0.07992 -0.00400 0.75084
 C20 C 0.09143 -0.00287 0.73556
 H21 H 0.10325 -0.03062 0.77537
 H22 H 0.12085 0.00012 0.72924
 H23 H 0.10143 0.02518 0.77635
 H24 H 0.06544 -0.00771 0.75043
 C25 C 0.59015 0.49425 0.26755
 C26 C 0.60372 0.47828 0.26697
 C27 C 0.61566 0.47910 0.25322
 C28 C 0.61247 0.49587 0.24087
 C29 C 0.60217 0.51178 0.26666
 C30 C 0.61385 0.51282 0.25286
 C31 C 0.58037 0.49336 0.24975
 C32 C 0.59183 0.49443 0.23567
 H33 H 0.60297 0.46653 0.27585
 H34 H 0.62200 0.49697 0.22961
 H35 H 0.60190 0.52224 0.27669
 H36 H 0.56566 0.49101 0.24850
 C37 C 0.91412 0.51804 0.77352
 C38 C 0.90152 0.53470 0.77087
 C39 C 0.88899 0.53291 0.75749
 C40 C 0.89081 0.51452 0.74756
 C41 C 0.90101 0.50137 0.77522
 C42 C 0.88873 0.49942 0.76187
 C43 C 0.92324 0.51605 0.75566
 C44 C 0.91124 0.51416 0.74200
 H45 H 0.90335 0.54733 0.77813
 H46 H 0.88094 0.51248 0.73661
 H47 H 0.90151 0.49182 0.78627
 H48 H 0.93796 0.51772 0.75383
 C49 C 0.27238 0.37046 0.99155
 C50 C 0.27170 0.35560 1.00596
 C51 C 0.25650 0.34432 1.00560
 C52 C 0.24307 0.34892 0.99060
 C53 C 0.26994 0.35980 0.97441
 C54 C 0.25471 0.34845 0.97384
 C55 C 0.25411 0.38074 0.99332
 C56 C 0.23875 0.36952 0.99286
 H57 H 0.28205 0.35480 1.01621
 H58 H 0.23070 0.33968 0.99032
 H59 H 0.27956 0.36116 0.96368
 H60 H 0.25312 0.39562 0.99325
 C61 C 0.76829 0.13291 1.00594
 C62 C 0.76948 0.14804 0.99181
 C63 C 0.75484 0.15939 0.99113
 C64 C 0.74005 0.15456 1.00495
 C65 C 0.76531 0.14360 1.02304
 C66 C 0.75051 0.15495 1.02254
 C67 C 0.75079 0.12334 1.00280
 C68 C 0.73501 0.13501 1.00254
 H69 H 0.78098 0.14942 0.98288
 H70 H 0.72847 0.16424 1.00415
 H71 H 0.77369 0.14232 1.03466
 H72 H 0.74973 0.10840 1.00338
 C73 C 0.26717 0.63277 0.50108
 C74 C 0.26764 0.64614 0.48548
 C75 C 0.25309 0.65757 0.48432
 C76 C 0.23891 0.65443 0.49901
 C77 C 0.26486 0.64506 0.51712
 C78 C 0.25021 0.65652 0.51610
 C79 C 0.24851 0.62246 0.49966
 C80 C 0.23355 0.63359 0.49836
 H81 H 0.27870 0.64638 0.47601
 H82 H 0.22734 0.66409 0.49792
 H83 H 0.27334 0.64390 0.52876
 H84 H 0.24730 0.60764 0.50143
 C85 C 0.77194 0.87009 0.49401
 C86 C 0.77029 0.85695 0.50977
 C87 C 0.75488 0.84596 0.50993
 C88 C 0.74235 0.84888 0.49383
 C89 C 0.77017 0.85758 0.47801
 C90 C 0.75475 0.84648 0.47775
 C91 C 0.75377 0.88075 0.49385
 C92 C 0.73827 0.86971 0.49383
 H93 H 0.78050 0.85674 0.52018
 H94 H 0.72979 0.83988 0.49393
 H95 H 0.78018 0.85790 0.46755
 H96 H 0.75300 0.89559 0.49246
 C97 C -0.01287 0.27132 0.39404
 C98 C 0.00293 0.27492 0.38103
 C99 C 0.00609 0.26064 0.36998
 C100 C -0.00679 0.24377 0.37351
 C101 C -0.02860 0.26580 0.38345
 C102 C -0.02542 0.25078 0.37195
 C103 C -0.00714 0.25366 0.40383
 C104 C -0.00405 0.23921 0.39311
 H105 H 0.01141 0.28738 0.38142
 H106 H -0.00440 0.23154 0.36543
 H107 H -0.04110 0.27371 0.38318
 H108 H -0.00433 0.25277 0.41771
 C109 C 0.00815 0.75333 0.10209
 C110 C -0.00524 0.75919 0.11630
 C111 C -0.00920 0.74592 0.12860
 C112 C 0.00107 0.72787 0.12567
 C113 C 0.02518 0.74668 0.11207
 C114 C 0.02150 0.73355 0.12450
 C115 C -0.00044 0.73548 0.09460
 C116 C -0.00414 0.72217 0.10696
 H117 H -0.01096 0.77288 0.11643
 H118 H -0.00159 0.71676 0.13550
 H119 H 0.03893 0.75219 0.10969
 H120 H -0.00224 0.73293 0.08079
 C121 C 0.51452 0.25752 0.60645
 C122 C 0.49872 0.26241 0.61864
 C123 C 0.49547 0.24982 0.63169
 C124 C 0.50828 0.23328 0.63136
 C125 C 0.53103 0.25431 0.61863
 C126 C 0.52768 0.24202 0.63191
 C127 C 0.50943 0.23813 0.59980
 C128 C 0.50602 0.22547 0.61282
 H129 H 0.49111 0.27507 0.61724
 H130 H 0.50545 0.22299 0.64194
 H131 H 0.54411 0.26159 0.61710
 H132 H 0.50963 0.23427 0.58619
 C133 C 0.48312 0.77698 0.89285
 C134 C 0.50246 0.77957 0.88513
 C135 C 0.50712 0.76617 0.87377
 C136 C 0.49198 0.75121 0.87129
 C137 C 0.47028 0.77535 0.87696
 C138 C 0.47491 0.76196 0.86561
 C139 C 0.48325 0.75854 0.90074
 C140 C 0.48799 0.74405 0.88893
 H141 H 0.51188 0.79065 0.88892
 H142 H 0.49561 0.74108 0.86128
 H143 H 0.45828 0.78383 0.87515
 H144 H 0.48367 0.75647 0.91473
 C145 C -0.23306 0.66041 0.97916
 C146 C -0.21687 0.64723 0.98172
 C147 C -0.21898 0.63470 0.99521
 C148 C -0.23718 0.63709 1.00532
 C149 C -0.25005 0.64775 0.97771
 C150 C -0.25232 0.63549 0.99116
 C151 C -0.23467 0.66963 0.99699
 C152 C -0.23687 0.65764 1.01075
 H153 H -0.20427 0.64870 0.97436
 H154 H -0.23946 0.62724 1.01634
 H155 H -0.25959 0.64858 0.96677
 H156 H -0.23258 0.68437 0.99869
 C157 C -0.25496 0.34087 0.48458
 C158 C -0.27218 0.35282 0.48574
 C159 C -0.27171 0.36512 0.49915
 C160 C -0.25402 0.36398 0.51046
 C161 C -0.23885 0.35475 0.48386
 C162 C -0.23826 0.36698 0.49719
 C163 C -0.25374 0.33204 0.50169
 C164 C -0.25310 0.34450 0.51623
 H165 H -0.28418 0.35095 0.47744
 H166 H -0.25330 0.37446 0.52086
 H167 H -0.22875 0.35484 0.47347
 H168 H -0.25610 0.31730 0.50322
 C169 C 0.24746 -0.15441 -0.02252
 C170 C 0.23000 -0.14287 -0.02081
 C171 C 0.23015 -0.13147 -0.00670
 C172 C 0.24781 -0.13294 0.00461
 C173 C 0.26329 -0.14018 -0.02241
 C174 C 0.26358 -0.12883 -0.00840
 C175 C 0.24876 -0.16422 -0.00590
 C176 C 0.24907 -0.15269 0.00931
 H177 H 0.21796 -0.14447 -0.02908
 H178 H 0.24827 -0.12311 0.01556
 H179 H 0.27344 -0.13921 -0.03274
 H180 H 0.24700 -0.17909 -0.00528
 C181 C 0.26526 1.15790 0.47743
 C182 C 0.28195 1.14535 0.48012
 C183 C 0.28043 1.13312 0.49394
 C184 C 0.26222 1.13516 0.50413
 C185 C 0.24870 1.14462 0.47643
 C186 C 0.24701 1.13265 0.49017
 C187 C 0.26352 1.16751 0.49505
 C188 C 0.26192 1.15581 0.50909
 H189 H 0.29440 1.14710 0.47259
 H190 H 0.26029 1.12558 0.51541
 H191 H 0.23907 1.14477 0.46554
 H192 H 0.26526 1.18233 0.49642
 C193 C 0.11936 0.51997 0.25569
 C194 C 0.10694 0.51765 0.23961
 C195 C 0.09595 0.50219 0.23987
 C196 C 0.09830 0.49023 0.25651
 C197 C 0.10623 0.51886 0.27135
 C198 C 0.09501 0.50350 0.27181
 C199 C 0.12997 0.50183 0.25708
 C200 C 0.11911 0.48616 0.25724
 H201 H 0.10678 0.52768 0.22896
 H202 H 0.08923 0.47773 0.25657
 H203 H 0.10655 0.52891 0.28173
 H204 H 0.14476 0.50145 0.25866
 C205 C -0.11905 1.01663 0.24843
 C206 C -0.10533 1.01751 0.26362
 C207 C -0.09365 1.00313 0.26456
 C208 C -0.09700 0.98873 0.25011
 C209 C -0.10709 1.01457 0.23203
 C210 C -0.09542 1.00005 0.23288
 C211 C -0.12845 0.99876 0.25025
 C212 C -0.11655 0.98308 0.25125
 H213 H -0.10489 1.02880 0.27281
 H214 H -0.08683 0.97763 0.25105
 H215 H -0.10876 1.02281 0.22022
 H216 H -0.14314 0.99753 0.24819
 C217 C 0.38139 0.51951 -0.25244
 C218 C 0.39604 0.52083 -0.23807
 C219 C 0.40791 0.50660 -0.23749
 C220 C 0.40396 0.49189 -0.25145
 C221 C 0.39223 0.51703 -0.26943
 C222 C 0.40407 0.50263 -0.26898
 C223 C 0.37185 0.50050 -0.24947
 C224 C 0.38360 0.48599 -0.24908
 H225 H 0.39667 0.53210 -0.22886
 H226 H 0.41360 0.48021 -0.25085
 H227 H 0.39031 0.52572 -0.28091
 H228 H 0.35711 0.49830 -0.25030
 C229 C 0.62265 0.02515 -0.24027
 C230 C 0.61068 0.02344 -0.25672
 C231 C 0.59955 0.00811 -0.25716
 C232 C 0.60128 -0.00436 -0.24078
 C233 C 0.60907 0.02372 -0.22500
 C234 C 0.59771 0.00847 -0.22522
 C235 C 0.63305 0.00684 -0.23912
 C236 C 0.62202 -0.00870 -0.23966
 H237 H 0.61099 0.03375 -0.26714
 H238 H 0.59204 -0.01673 -0.24128
 H239 H 0.60911 0.03359 -0.21447
 H240 H 0.64773 0.00615 -0.23701
 C241 C 0.02480 0.23462 0.85198
 C242 C 0.03055 0.25220 0.86187
 C243 C 0.01828 0.25736 0.87414
 C244 C 0.00130 0.24441 0.87548
 C245 C 0.02155 0.22003 0.86656
 C246 C 0.00930 0.22522 0.87889
 C247 C 0.00657 0.23826 0.84505
 C248 C -0.00651 0.24397 0.85778
 H249 H 0.04334 0.25976 0.85943
 H250 H -0.00810 0.24873 0.88589
 H251 H 0.02785 0.20668 0.86726
 H252 H 0.00304 0.23553 0.83153
 C253 C 0.50990 0.26604 0.14840
 C254 C 0.51573 0.24965 0.13734
 C255 C 0.50376 0.24520 0.12423
 C256 C 0.48682 0.25745 0.12340
 C257 C 0.50656 0.28174 0.13514
 C258 C 0.49488 0.27714 0.12184
 C259 C 0.49054 0.26069 0.15490
 C260 C 0.47848 0.25604 0.14185
 H261 H 0.52863 0.24266 0.13938
 H262 H 0.47704 0.25363 0.11278
 H263 H 0.51331 0.29520 0.13596
 H264 H 0.48624 0.26170 0.16836
 C265 C 0.00750 0.76019 0.64811
 C266 C 0.01347 0.74444 0.63630
 C267 C 0.00145 0.74047 0.62312
 C268 C -0.01567 0.75245 0.62296
 C269 C 0.00378 0.77645 0.63556
 C270 C -0.00792 0.77231 0.62214
 C271 C -0.01172 0.75425 0.65456
 C272 C -0.02386 0.75008 0.64142
 H273 H 0.02649 0.73757 0.63791
 H274 H -0.02542 0.74892 0.61224
 H275 H 0.01026 0.78997 0.63699
 H276 H -0.01590 0.75475 0.66809
 C277 C 0.51845 0.73823 0.35175
 C278 C 0.52291 0.75413 0.36430
 C279 C 0.50938 0.75773 0.37598
 C280 C 0.49222 0.74513 0.37369
 C281 C 0.51300 0.72181 0.36364
 C282 C 0.49945 0.72543 0.37520
 C283 C 0.50029 0.74374 0.34288
 C284 C 0.48662 0.74738 0.35436
 H285 H 0.53559 0.76220 0.36336
 H286 H 0.48078 0.74746 0.38284
 H287 H 0.51987 0.70867 0.36336
 H288 H 0.49807 0.74474 0.32893
 Zr289 Zr 0.01543 -0.01598 1.02519
 O290 O 0.03236 -0.00784 1.04653
 O291 O 0.01448 -0.04484 1.02833
 O292 O 0.00270 -0.02155 1.04959
 O293 O 0.05066 -0.01403 0.99490
 O294 O -0.02608 -0.01003 1.04604
 O295 O 0.04287 -0.02449 1.02221
 O296 O -0.00442 -0.05452 1.00619
 O297 O -0.01191 -0.02268 1.01853
 O298 O 0.01571 -0.02471 0.99921
 O299 O 0.00076 0.00843 1.02883
 O300 O 0.02761 0.00615 1.01074
 Zr301 Zr -0.01539 0.01537 0.98026
 Zr302 Zr -0.02622 0.00197 1.02086
 Zr303 Zr 0.02640 -0.00250 0.98465
 Zr304 Zr -0.01152 -0.03034 0.99230
 O305 O 0.04867 0.01640 0.98067
 O306 O -0.03648 -0.04373 1.00003
 O307 O -0.00057 -0.00900 0.97636
 O308 O -0.02726 -0.00664 0.99482
 O309 O -0.01579 0.02439 1.00617
 O310 O 0.01192 0.02192 0.98701
 C311 C 0.00596 -0.05753 1.01960
 C312 C 0.05436 -0.02234 1.00950
 C313 C -0.01360 -0.01814 1.05516
 O314 O -0.04980 -0.01555 1.02319
 O315 O -0.04939 0.01625 1.01179
 O316 O -0.04215 0.02551 0.98399
 C317 C -0.05311 0.02454 0.99722
 O318 O 0.03042 0.03235 1.03434
 Zr319 Zr 0.01157 0.02987 1.01306
 O320 O -0.01462 0.04418 0.97707
 O321 O -0.03300 0.02209 1.03948
 O322 O -0.00086 0.04642 1.03222
 O323 O 0.03535 0.04499 1.00475
 O324 O 0.00226 0.05414 1.00050
 C325 C -0.00759 0.05701 0.98669
 O326 O -0.03356 0.00750 0.95974
 O327 O 0.03475 -0.02368 0.96775
 O328 O -0.00350 0.01871 0.95516
 O329 O 0.02496 0.00631 0.95840
 O330 O 0.00095 -0.04837 0.97443
 O331 O -0.02788 -0.03289 0.96925
 C332 C 0.01226 0.01396 0.94918
 H333 H 0.02324 -0.03576 0.99743
 H334 H -0.04007 -0.00928 0.99094
 H335 H 0.01736 0.03181 0.97945
 H336 H 0.00127 0.01226 1.04122
 H337 H -0.03602 -0.05672 0.99610
 H338 H -0.05768 -0.01017 1.03228
 H339 H -0.04519 0.01841 1.04432
 H340 H 0.00515 0.05884 1.03164
 H341 H -0.00576 -0.06043 0.97516
 H342 H 0.04685 -0.01974 0.96289
 H343 H 0.05663 0.01095 0.97169
 H344 H 0.03428 0.05778 1.00906
 H345 H -0.03263 -0.04577 0.96832
 H346 H -0.03695 0.01895 0.95330
 H347 H 0.03600 -0.01927 1.05288
 H348 H 0.03267 0.04560 1.03690
 Zr349 Zr 0.51539 0.48461 0.52423
 O350 O 0.53227 0.49308 0.54550
 O351 O 0.51474 0.45576 0.52751
 O352 O 0.50276 0.47902 0.54865
 O353 O 0.55057 0.48638 0.49387
 O354 O 0.47388 0.49030 0.54511
 O355 O 0.54287 0.47629 0.52132
 O356 O 0.49579 0.44576 0.50553
 O357 O 0.48808 0.47767 0.51771
 O358 O 0.51566 0.47567 0.49833
 O359 O 0.50059 0.50896 0.52774
 O360 O 0.52741 0.50670 0.50961
 Zr361 Zr 0.48425 0.51531 0.47919
 Zr362 Zr 0.47362 0.50225 0.51991
 Zr363 Zr 0.52622 0.49780 0.48360
 Zr364 Zr 0.48844 0.46979 0.49155
 O365 O 0.54835 0.51683 0.47951
 O366 O 0.46361 0.45629 0.49948
 O367 O 0.49925 0.49104 0.47543
 O368 O 0.47253 0.49338 0.49395
 O369 O 0.48389 0.52458 0.50501
 O370 O 0.51154 0.52213 0.48579
 C371 C 0.50631 0.44293 0.51887
 C372 C 0.55432 0.47828 0.50856
 C373 C 0.48644 0.48229 0.55422
 O374 O 0.45004 0.48473 0.52233
 O375 O 0.45044 0.51656 0.51087
 O376 O 0.45752 0.52551 0.48295
 C377 C 0.44667 0.52477 0.49626
 O378 O 0.53010 0.53317 0.53298
 Zr379 Zr 0.51121 0.53035 0.51176
 O380 O 0.48477 0.54403 0.47575
 O381 O 0.46685 0.52238 0.53854
 O382 O 0.49868 0.54696 0.53081
 O383 O 0.53488 0.54556 0.50328
 O384 O 0.50169 0.55446 0.49899
 C385 C 0.49168 0.55704 0.48522
 O386 O 0.46604 0.50705 0.45884
 O387 O 0.53470 0.47661 0.46679
 O388 O 0.49602 0.51853 0.45405
 O389 O 0.52462 0.50645 0.45730
 O390 O 0.50089 0.45166 0.47376
 O391 O 0.47202 0.46702 0.46855
 C392 C 0.51181 0.51389 0.44806
 H393 H 0.52326 0.46466 0.49659
 H394 H 0.45971 0.49067 0.49013
 H395 H 0.51688 0.53200 0.47814
 H396 H 0.50111 0.51288 0.54011
 H397 H 0.46413 0.44329 0.49562
 H398 H 0.44221 0.49012 0.53144
 H399 H 0.45467 0.51870 0.54338
 H400 H 0.50457 0.55943 0.53009
 H401 H 0.49418 0.43960 0.47455
 H402 H 0.54675 0.48064 0.46185
 H403 H 0.55635 0.51138 0.47057
 H404 H 0.53372 0.55838 0.50750
 H405 H 0.46722 0.45414 0.46777
 H406 H 0.46252 0.51840 0.45231
 H407 H 0.53603 0.48174 0.55192
 H408 H 0.53220 0.54646 0.53546
 Zr409 Zr 0.48063 0.99329 0.53573
 O410 O 0.46166 0.98080 0.55342
 O411 O 0.48357 1.02001 0.54572
 O412 O 0.49217 0.99143 0.56117
 O413 O 0.44801 1.00292 0.50396
 O414 O 0.51966 0.97757 0.55687
 O415 O 0.45430 1.00517 0.53317
 O416 O 0.50524 1.03356 0.52802
 O417 O 0.50882 0.99889 0.53237
 O418 O 0.48313 1.00904 0.51270
 O419 O 0.49304 0.96730 0.53452
 O420 O 0.46805 0.97711 0.51598
 Zr421 Zr 0.51238 0.97265 0.48685
 Zr422 Zr 0.52095 0.97309 0.52978
 Zr423 Zr 0.47207 0.99264 0.49289
 Zr424 Zr 0.51113 1.01377 0.50892
 O425 O 0.44881 0.97774 0.48328
 O426 O 0.53650 1.02212 0.52056
 O427 O 0.49994 0.99871 0.48788
 O428 O 0.52466 0.98867 0.50672
 O429 O 0.51005 0.95662 0.50980
 O430 O 0.48428 0.96700 0.49039
 C431 C 0.49412 1.03368 0.54109
 C432 C 0.44376 1.00743 0.51965
 C433 C 0.50754 0.98484 0.56674
 O434 O 0.54548 0.98706 0.53759
 O435 O 0.54365 0.95978 0.51896
 O436 O 0.53812 0.95974 0.48955
 C437 C 0.54804 0.95588 0.50314
 O438 O 0.46125 0.94548 0.53248
 Zr439 Zr 0.48195 0.95203 0.51372
 O440 O 0.50997 0.94569 0.47733
 O441 O 0.52459 0.94770 0.54333
 O442 O 0.49136 0.92958 0.52925
 O443 O 0.45794 0.94197 0.50073
 O444 O 0.49056 0.93121 0.49670
 C445 C 0.50137 0.93128 0.48339
 O446 O 0.53225 0.98456 0.46969
 O447 O 0.46683 1.01866 0.48107
 O448 O 0.50187 0.97677 0.46115
 O449 O 0.47476 0.99123 0.46565
 O450 O 0.50131 1.03748 0.49548
 O451 O 0.52923 1.02133 0.48815
 C452 C 0.48707 0.98460 0.45561
 H453 H 0.47668 1.02094 0.51316
 H454 H 0.53787 0.99113 0.50433
 H455 H 0.47870 0.96001 0.48057
 H456 H 0.49126 0.96024 0.54560
 H457 H 0.53731 1.03581 0.51985
 H458 H 0.55213 0.97851 0.54553
 H459 H 0.53659 0.94869 0.54953
 H460 H 0.48455 0.91830 0.52544
 H461 H 0.50870 1.04829 0.49958
 H462 H 0.45491 1.01741 0.47477
 H463 H 0.44205 0.98631 0.47545
 H464 H 0.45775 0.92831 0.50193
 H465 H 0.53464 1.03378 0.49032
 H466 H 0.53536 0.97500 0.46106
 H467 H 0.45842 0.99035 0.56201
 H468 H 0.45776 0.93220 0.53172
 Zr469 Zr -0.02169 0.48997 1.03418
 O470 O -0.04230 0.47600 1.04906
 O471 O -0.01945 0.51537 1.04690
 O472 O -0.01234 0.48533 1.06012
 O473 O -0.05095 0.50437 1.00111
 O474 O 0.01487 0.47067 1.05663
 O475 O -0.04751 0.50269 1.03079
 O476 O 0.00443 0.52997 1.03281
 O477 O 0.00683 0.49485 1.03373
 O478 O -0.01661 0.50822 1.01325
 O479 O -0.00992 0.46385 1.03127
 O480 O -0.03276 0.47673 1.01187
 Zr481 Zr 0.01398 0.47402 0.98616
 Zr482 Zr 0.01847 0.46909 1.02941
 Zr483 Zr -0.02615 0.49473 0.99097
 Zr484 Zr 0.01175 0.51231 1.01231
 O485 O -0.04864 0.48196 0.97775
 O486 O 0.03603 0.51822 1.02694
 O487 O 0.00224 0.50025 0.98895
 O488 O 0.02475 0.48714 1.00854
 O489 O 0.00908 0.45548 1.00699
 O490 O -0.01448 0.46910 0.98680
 C491 C -0.00816 0.52910 1.04462
 C492 C -0.05666 0.50694 1.01680
 C493 C 0.00229 0.47763 1.06618
 O494 O 0.04262 0.48098 1.04057
 O495 O 0.04178 0.45634 1.01910
 O496 O 0.03904 0.46001 0.98951
 C497 C 0.04757 0.45425 1.00335
 O498 O -0.04190 0.44364 1.02443
 Zr499 Zr -0.01941 0.45157 1.00812
 O500 O 0.01173 0.44851 0.97360
 O501 O 0.01999 0.44218 1.04047
 O502 O -0.01198 0.42709 1.02178
 O503 O -0.04245 0.44398 0.99239
 O504 O -0.01000 0.43268 0.98952
 C505 C 0.00203 0.43390 0.97722
 O506 O 0.03564 0.48723 0.97203
 O507 O -0.02970 0.52218 0.98178
 O508 O 0.00600 0.48122 0.96028
 O509 O -0.02062 0.49679 0.96410
 O510 O 0.00399 0.53778 1.00064
 O511 O 0.03206 0.52160 0.99412
 C512 C -0.00773 0.49060 0.95446
 H513 H -0.02282 0.52019 1.01442
 H514 H 0.03819 0.48938 1.00749
 H515 H -0.01931 0.46355 0.97587
 H516 H -0.01291 0.45566 1.04140
 H517 H 0.03727 0.53185 1.02780
 H518 H 0.04819 0.47132 1.04811
 H519 H 0.03138 0.44194 1.04768
 H520 H -0.01869 0.41661 1.01624
 H521 H 0.01120 0.54774 1.00647
 H522 H -0.04097 0.52211 0.97440
 H523 H -0.05437 0.49167 0.97039
 H524 H -0.04317 0.43028 0.99220
 H525 H 0.03762 0.53345 0.99812
 H526 H 0.03935 0.47866 0.96272
 H527 H -0.04615 0.48462 1.05828
 H528 H -0.04554 0.43062 1.02214
 Zr529 Zr -0.02686 0.49845 0.47664
 O530 O -0.04374 0.50749 0.45565
 O531 O -0.02666 0.46984 0.47283
 O532 O -0.01431 0.49406 0.45209
 O533 O -0.06165 0.49828 0.50739
 O534 O 0.01484 0.50574 0.45583
 O535 O -0.05449 0.48910 0.47985
 O536 O -0.00781 0.45930 0.49457
 O537 O 0.00036 0.49187 0.48301
 O538 O -0.02711 0.48843 0.50244
 O539 O -0.01151 0.52326 0.47338
 O540 O -0.03827 0.51968 0.49162
 Zr541 Zr 0.00523 0.52801 0.52203
 Zr542 Zr 0.01534 0.51683 0.48108
 Zr543 Zr -0.03704 0.50975 0.51752
 Zr544 Zr -0.00001 0.48285 0.50905
 O545 O -0.05886 0.52803 0.52188
 O546 O 0.02456 0.47029 0.50090
 O547 O -0.01022 0.50321 0.52554
 O548 O 0.01637 0.50692 0.50693
 O549 O 0.00566 0.53832 0.49630
 O550 O -0.02193 0.53449 0.51554
 C551 C -0.01833 0.45686 0.48113
 C552 C -0.06572 0.49044 0.49279
 C553 C 0.00218 0.49773 0.44663
 O554 O 0.03858 0.49996 0.47842
 O555 O 0.03884 0.53128 0.49015
 O556 O 0.03221 0.53896 0.51823
 C557 C 0.04293 0.53898 0.50481
 O558 O -0.04045 0.54710 0.46854
 Zr559 Zr -0.02157 0.54376 0.48967
 O560 O 0.00526 0.55658 0.52579
 O561 O 0.02242 0.53782 0.46261
 O562 O -0.00866 0.56142 0.47083
 O563 O -0.04493 0.55807 0.49836
 O564 O -0.01158 0.56754 0.50275
 C565 C -0.00151 0.56980 0.51654
 O566 O 0.02332 0.51934 0.54223
 O567 O -0.04571 0.48765 0.53417
 O568 O -0.00654 0.53014 0.54726
 O569 O -0.03537 0.51753 0.54382
 O570 O -0.01290 0.46369 0.52656
 O571 O 0.01643 0.47930 0.53192
 C572 C -0.02253 0.52505 0.55315
 H573 H -0.03490 0.47715 0.50408
 H574 H 0.02915 0.50433 0.51065
 H575 H -0.02708 0.54392 0.52329
 H576 H -0.01197 0.52765 0.46105
 H577 H 0.02376 0.45708 0.50449
 H578 H 0.04652 0.50590 0.46937
 H579 H 0.03451 0.53461 0.45768
 H580 H -0.01428 0.57374 0.47170
 H581 H -0.00658 0.45175 0.52546
 H582 H -0.05767 0.49113 0.53921
 H583 H -0.06693 0.52205 0.53080
 H584 H -0.04352 0.57110 0.49432
 H585 H 0.02076 0.46641 0.53256
 H586 H 0.02707 0.53052 0.54888
 H587 H -0.04774 0.49632 0.44911
 H588 H -0.04220 0.56044 0.46619
 Zr589 Zr 0.47562 0.00116 -0.02101
 O590 O 0.45937 0.01088 -0.04218
 O591 O 0.47502 -0.02742 -0.02506
 O592 O 0.48847 -0.00326 -0.04539
 O593 O 0.44029 0.00135 0.00916
 O594 O 0.51779 0.00773 -0.04113
 O595 O 0.44775 -0.00755 -0.01839
 O596 O 0.49311 -0.03878 -0.00310
 O597 O 0.50254 -0.00620 -0.01432
 O598 O 0.47465 -0.00918 0.00467
 O599 O 0.49160 0.02562 -0.02375
 O600 O 0.46443 0.02247 -0.00598
 Zr601 Zr 0.50755 0.02934 0.02521
 Zr602 Zr 0.51814 0.01843 -0.01571
 Zr603 Zr 0.46495 0.01218 0.01981
 Zr604 Zr 0.50148 -0.01554 0.01161
 O605 O 0.44350 0.03094 0.02395
 O606 O 0.52578 -0.02865 0.00353
 O607 O 0.49146 0.00488 0.02816
 O608 O 0.51846 0.00817 0.01004
 O609 O 0.50869 0.03997 -0.00039
 O610 O 0.48068 0.03656 0.01837
 C611 C 0.48268 -0.04077 -0.01668
 C612 C 0.43633 -0.00619 -0.00560
 C613 C 0.50509 0.00014 -0.05060
 O614 O 0.54099 0.00101 -0.01817
 O615 O 0.54179 0.03224 -0.00610
 O616 O 0.53477 0.03984 0.02191
 C617 C 0.54574 0.03976 0.00868
 O618 O 0.46340 0.05025 -0.02883
 Zr619 Zr 0.48174 0.04616 -0.00739
 O620 O 0.50804 0.05786 0.02943
 O621 O 0.52609 0.03946 -0.03383
 O622 O 0.49549 0.06375 -0.02574
 O623 O 0.45855 0.06093 0.00100
 O624 O 0.49193 0.06950 0.00622
 C625 C 0.50169 0.07136 0.02026
 O626 O 0.52516 0.01998 0.04552
 O627 O 0.45548 -0.00988 0.03612
 O628 O 0.49543 0.03128 0.05030
 O629 O 0.46631 0.01964 0.04621
 O630 O 0.48796 -0.03455 0.02884
 O631 O 0.51753 -0.01976 0.03463
 C632 C 0.47920 0.02660 0.05584
 H633 H 0.46656 -0.02027 0.00609
 H634 H 0.53111 0.00523 0.01393
 H635 H 0.47559 0.04601 0.02614
 H636 H 0.49147 0.03018 -0.03603
 H637 H 0.52458 -0.04188 0.00694
 H638 H 0.54922 0.00685 -0.02705
 H639 H 0.53817 0.03600 -0.03860
 H640 H 0.49018 0.07620 -0.02481
 H641 H 0.49403 -0.04662 0.02774
 H642 H 0.44350 -0.00618 0.04098
 H643 H 0.43511 0.02505 0.03266
 H644 H 0.46034 0.07397 -0.00288
 H645 H 0.52169 -0.03271 0.03509
 H646 H 0.52902 0.03097 0.05238
 H647 H 0.45520 -0.00010 -0.04890
 H648 H 0.46209 0.06367 -0.03110
 Zr649 Zr 0.52913 0.51351 -0.03174
 O650 O 0.54684 0.50452 -0.05168
 O651 O 0.52729 0.54180 -0.03775
 O652 O 0.51700 0.51591 -0.05695
 O653 O 0.56364 0.51517 -0.00032
 O654 O 0.48796 0.50399 -0.05310
 O655 O 0.55652 0.52370 -0.02837
 O656 O 0.50796 0.55236 -0.01690
 O657 O 0.50168 0.51952 -0.02622
 O658 O 0.52893 0.52439 -0.00651
 O659 O 0.51438 0.48824 -0.03394
 O660 O 0.54086 0.49305 -0.01538
 Zr661 Zr 0.49730 0.48454 0.01457
 Zr662 Zr 0.48728 0.49422 -0.02713
 Zr663 Zr 0.53914 0.50372 0.00994
 Zr664 Zr 0.50162 0.52937 -0.00067
 O665 O 0.56135 0.48619 0.01587
 O666 O 0.47643 0.54094 -0.00910
 O667 O 0.51212 0.50980 0.01711
 O668 O 0.48583 0.50489 -0.00185
 O669 O 0.49735 0.47349 -0.01062
 O670 O 0.52466 0.47854 0.00895
 C671 C 0.51795 0.55460 -0.03066
 C672 C 0.56774 0.52267 -0.01520
 C673 C 0.50071 0.51149 -0.06259
 O674 O 0.46395 0.51074 -0.03144
 O675 O 0.46384 0.47991 -0.01763
 O676 O 0.47036 0.47339 0.01099
 C677 C 0.45968 0.47284 -0.00258
 O678 O 0.54434 0.46530 -0.03667
 Zr679 Zr 0.52478 0.46854 -0.01643
 O680 O 0.49735 0.45600 0.01934
 O681 O 0.48065 0.47226 -0.04425
 O682 O 0.51300 0.45015 -0.03501
 O683 O 0.54805 0.45480 -0.00611
 O684 O 0.51451 0.44491 -0.00292
 C685 C 0.50409 0.44273 0.01055
 O686 O 0.47923 0.49348 0.03424
 O687 O 0.54704 0.52662 0.02547
 O688 O 0.50915 0.48284 0.04000
 O689 O 0.53745 0.49664 0.03659
 O690 O 0.51433 0.54970 0.01542
 O691 O 0.48552 0.53316 0.02210
 C692 C 0.52491 0.48862 0.04596
 H693 H 0.53637 0.53596 -0.00551
 H694 H 0.47297 0.50736 0.00150
 H695 H 0.52989 0.46938 0.01724
 H696 H 0.51510 0.48336 -0.04596
 H697 H 0.47687 0.55423 -0.00610
 H698 H 0.45613 0.50427 -0.04021
 H699 H 0.46859 0.47508 -0.04969
 H700 H 0.51896 0.43804 -0.03339
 H701 H 0.50763 0.56137 0.01354
 H702 H 0.55905 0.52366 0.03093
 H703 H 0.56920 0.49270 0.02459
 H704 H 0.54691 0.44167 -0.00959
 H705 H 0.48121 0.54605 0.02233
 H706 H 0.47557 0.48241 0.04131
 H707 H 0.55046 0.51558 -0.05879
 H708 H 0.54674 0.45199 -0.03817
 Zr709 Zr 0.03151 1.00756 0.46874
 O710 O 0.04851 0.99749 0.44873
 O711 O 0.03163 1.03598 0.46296
 O712 O 0.01936 1.01073 0.44358
 O713 O 0.06620 1.00763 0.50003
 O714 O -0.01025 1.00047 0.44761
 O715 O 0.05934 1.01637 0.47198
 O716 O 0.01328 1.04770 0.48403
 O717 O 0.00451 1.01515 0.47434
 O718 O 0.03204 1.01840 0.49398
 O719 O 0.01541 0.98313 0.46661
 O720 O 0.04225 0.98649 0.48504
 Zr721 Zr -0.00151 0.98042 0.51518
 Zr722 Zr -0.01125 0.99063 0.47354
 Zr723 Zr 0.04126 0.99724 0.51037
 Zr724 Zr 0.00513 1.02497 0.49990
 O725 O 0.06246 0.97842 0.51604
 O726 O -0.01917 1.03802 0.49110
 O727 O 0.01467 1.00484 0.51763
 O728 O -0.01197 1.00137 0.49882
 O729 O -0.00221 0.96937 0.49000
 O730 O 0.02541 0.97288 0.50947
 C731 C 0.02350 1.04940 0.47037
 C732 C 0.07051 1.01499 0.48514
 C733 C 0.00283 1.00726 0.43806
 O734 O -0.03373 1.00833 0.46945
 O735 O -0.03529 0.97743 0.48310
 O736 O -0.02890 0.97053 0.51168
 C737 C -0.03965 0.97048 0.49815
 O738 O 0.04409 0.95858 0.46377
 Zr739 Zr 0.02484 0.96289 0.48408
 O740 O -0.00291 0.95189 0.52005
 O741 O -0.01910 0.96911 0.45634
 O742 O 0.01205 0.94513 0.46553
 O743 O 0.04730 0.94782 0.49434
 O744 O 0.01332 0.93986 0.49760
 C745 C 0.00296 0.93825 0.51118
 O746 O -0.01908 0.99033 0.53481
 O747 O 0.05057 1.01959 0.52596
 O748 O 0.01024 0.97835 0.54061
 O749 O 0.03930 0.99033 0.53705
 O750 O 0.01876 1.04441 0.51631
 O751 O -0.01093 1.02972 0.52250
 C752 C 0.02629 0.98326 0.54652
 H753 H 0.04010 1.02954 0.49506
 H754 H -0.02465 1.00452 0.50222
 H755 H 0.03015 0.96345 0.51777
 H756 H 0.01578 0.97823 0.45458
 H757 H -0.01795 1.05130 0.49402
 H758 H -0.04191 1.00231 0.46068
 H759 H -0.03102 0.97258 0.45098
 H760 H 0.01738 0.93271 0.46711
 H761 H 0.01277 1.05648 0.51447
 H762 H 0.06240 1.01592 0.53137
 H763 H 0.07072 0.98444 0.52473
 H764 H 0.04541 0.93477 0.49086
 H765 H -0.01474 1.04278 0.52254
 H766 H -0.02328 0.97948 0.54193
 H767 H 0.05273 1.00832 0.44159
 H768 H 0.04581 0.94515 0.46230
 Zr769 Zr 0.73412 0.26603 0.22889
 O770 O 0.74280 0.28266 0.20732
 O771 O 0.70536 0.26639 0.22621
 O772 O 0.72785 0.25346 0.20466
 O773 O 0.73749 0.30140 0.25892
 O774 O 0.73815 0.22409 0.20826
 O775 O 0.72678 0.29392 0.23174
 O776 O 0.69512 0.24781 0.24859
 O777 O 0.72640 0.23884 0.23578
 O778 O 0.72563 0.26667 0.25497
 O779 O 0.75779 0.25036 0.22507
 O780 O 0.75669 0.27743 0.24300
 Zr781 Zr 0.76426 0.23388 0.27365
 Zr782 Zr 0.75034 0.22350 0.23326
 Zr783 Zr 0.74819 0.27659 0.26919
 Zr784 Zr 0.71897 0.23953 0.26210
 O785 O 0.76789 0.29821 0.27274
 O786 O 0.70460 0.21507 0.25453
 O787 O 0.74068 0.24975 0.27772
 O788 O 0.74188 0.22277 0.25940
 O789 O 0.77308 0.23314 0.24766
 O790 O 0.77186 0.26105 0.26668
 C791 C 0.69246 0.25847 0.23523
 C792 C 0.72931 0.30538 0.24436
 C793 C 0.73052 0.23695 0.19917
 O794 O 0.73211 0.20039 0.23141
 O795 O 0.76398 0.19980 0.24223
 O796 O 0.77356 0.20673 0.26990
 C797 C 0.77230 0.19583 0.25669
 O798 O 0.78274 0.27923 0.21914
 Zr799 Zr 0.77963 0.26037 0.24055
 O800 O 0.79289 0.23349 0.27659
 O801 O 0.76986 0.21597 0.21432
 O802 O 0.79547 0.24725 0.22127
 O803 O 0.79569 0.28362 0.24860
 O804 O 0.80345 0.24994 0.25291
 C805 C 0.80590 0.23990 0.26676
 O806 O 0.75575 0.21587 0.29428
 O807 O 0.72762 0.28586 0.28631
 O808 O 0.76814 0.24565 0.29866
 O809 O 0.75706 0.27478 0.29535
 O810 O 0.70167 0.25265 0.28020
 O811 O 0.71598 0.22312 0.28523
 C812 C 0.76412 0.26169 0.30459
 H813 H 0.71497 0.27468 0.25686
 H814 H 0.73882 0.21000 0.26338
 H815 H 0.78195 0.26610 0.27411
 H816 H 0.76153 0.25072 0.21263
 H817 H 0.69173 0.21604 0.25861
 H818 H 0.73707 0.19232 0.22225
 H819 H 0.76572 0.20385 0.20965
 H820 H 0.80806 0.25279 0.22170
 H821 H 0.68944 0.24632 0.27970
 H822 H 0.73207 0.29786 0.29103
 H823 H 0.76286 0.30645 0.28171
 H824 H 0.80834 0.28200 0.24417
 H825 H 0.70303 0.21870 0.28626
 H826 H 0.76701 0.21198 0.30064
 H827 H 0.73155 0.28681 0.20108
 H828 H 0.79599 0.28098 0.21645
 Zr829 Zr 0.74515 0.73170 0.71895
 O830 O 0.73211 0.71092 0.70372
 O831 O 0.77059 0.73497 0.70647
 O832 O 0.74051 0.74142 0.69309
 O833 O 0.75979 0.70209 0.75181
 O834 O 0.72512 0.76824 0.69677
 O835 O 0.75842 0.70605 0.72216
 O836 O 0.78430 0.75895 0.72102
 O837 O 0.74917 0.76045 0.71975
 O838 O 0.76288 0.73691 0.74006
 O839 O 0.71875 0.74267 0.72183
 O840 O 0.73199 0.71977 0.74107
 Zr841 Zr 0.72748 0.76602 0.76728
 Zr842 Zr 0.72310 0.77126 0.72403
 Zr843 Zr 0.74941 0.72651 0.76215
 Zr844 Zr 0.76609 0.76546 0.74135
 O845 O 0.73722 0.70332 0.77511
 O846 O 0.77142 0.79022 0.72692
 O847 O 0.75402 0.75511 0.76454
 O848 O 0.74058 0.77765 0.74511
 O849 O 0.70947 0.76099 0.74627
 O850 O 0.72348 0.73734 0.76626
 C851 C 0.78397 0.74654 0.70906
 C852 C 0.76265 0.69670 0.73608
 C853 C 0.73247 0.75597 0.68713
 O854 O 0.73443 0.79604 0.71320
 O855 O 0.70963 0.79409 0.73451
 O856 O 0.71291 0.79085 0.76409
 C857 C 0.70720 0.79956 0.75031
 O858 O 0.69941 0.70995 0.72808
 Zr859 Zr 0.70648 0.73231 0.74478
 O860 O 0.70199 0.76264 0.77970
 O861 O 0.69641 0.77227 0.71284
 O862 O 0.68206 0.73952 0.73119
 O863 O 0.69947 0.70849 0.76002
 O864 O 0.68722 0.74052 0.76356
 C865 C 0.68789 0.75233 0.77604
 O866 O 0.73977 0.78783 0.78178
 O867 O 0.77675 0.72361 0.77141
 O868 O 0.73445 0.75764 0.79313
 O869 O 0.75094 0.73156 0.78911
 O870 O 0.79151 0.75829 0.75317
 O871 O 0.77446 0.78579 0.75978
 C872 C 0.74415 0.74405 0.79885
 H873 H 0.77499 0.73103 0.73891
 H874 H 0.74240 0.79118 0.74631
 H875 H 0.71797 0.73206 0.77709
 H876 H 0.71082 0.73964 0.71162
 H877 H 0.78497 0.79189 0.72612
 H878 H 0.72475 0.80151 0.70567
 H879 H 0.69596 0.78383 0.70576
 H880 H 0.67172 0.73237 0.73658
 H881 H 0.80130 0.76598 0.74751
 H882 H 0.77693 0.71216 0.77869
 H883 H 0.74699 0.69769 0.78241
 H884 H 0.68585 0.70730 0.76011
 H885 H 0.78605 0.79191 0.75582
 H886 H 0.73098 0.79108 0.79108
 H887 H 0.74095 0.70750 0.69452
 H888 H 0.68645 0.70602 0.73012
 Zr889 Zr 0.24624 0.22690 0.76975
 O890 O 0.25308 0.21021 0.79173
 O891 O 0.21755 0.22818 0.77182
 O892 O 0.24085 0.24030 0.79364
 O893 O 0.24683 0.19106 0.74021
 O894 O 0.25387 0.26902 0.78971
 O895 O 0.23625 0.19937 0.76696
 O896 O 0.20923 0.24687 0.74897
 O897 O 0.24117 0.25430 0.76224
 O898 O 0.23799 0.22629 0.74348
 O899 O 0.27127 0.24142 0.77388
 O900 O 0.26786 0.21421 0.75632
 Zr901 Zr 0.27985 0.25675 0.72514
 Zr902 Zr 0.26644 0.26843 0.76507
 Zr903 Zr 0.25975 0.21509 0.72994
 Zr904 Zr 0.23394 0.25356 0.73579
 O905 O 0.27737 0.19239 0.72719
 O906 O 0.22185 0.27888 0.74259
 O907 O 0.25485 0.24207 0.72079
 O908 O 0.25835 0.26914 0.73873
 O909 O 0.28842 0.25748 0.75135
 O910 O 0.28478 0.22939 0.73276
 C911 C 0.20549 0.23667 0.76247
 C912 C 0.23803 0.18765 0.75450
 C913 C 0.24488 0.25682 0.79884
 O914 O 0.25039 0.29245 0.76618
 O915 O 0.28222 0.29126 0.75610
 O916 O 0.29148 0.28357 0.72874
 C917 C 0.29095 0.29473 0.74178
 O918 O 0.29355 0.21168 0.78093
 Zr919 Zr 0.29230 0.23009 0.75906
 O920 O 0.30848 0.25543 0.72290
 O921 O 0.28642 0.27525 0.78436
 O922 O 0.30915 0.24301 0.77832
 O923 O 0.30604 0.20575 0.75195
 O924 O 0.31716 0.23864 0.74692
 C925 C 0.32072 0.24824 0.73298
 O926 O 0.27340 0.27479 0.70402
 O927 O 0.23854 0.20673 0.71243
 O928 O 0.28285 0.24422 0.70038
 O929 O 0.26919 0.21575 0.70407
 O930 O 0.21564 0.24093 0.71754
 O931 O 0.23263 0.26965 0.71234
 C932 C 0.27757 0.22818 0.69475
 H933 H 0.22662 0.21882 0.74145
 H934 H 0.25650 0.28197 0.73451
 H935 H 0.29442 0.22362 0.72568
 H936 H 0.27483 0.24113 0.78642
 H937 H 0.20896 0.27851 0.73824
 H938 H 0.25602 0.30045 0.77529
 H939 H 0.28340 0.28765 0.78874
 H940 H 0.32123 0.23689 0.77828
 H941 H 0.20398 0.24780 0.71772
 H942 H 0.24183 0.19442 0.70800
 H943 H 0.27169 0.18426 0.71822
 H944 H 0.31877 0.20672 0.75664
 H945 H 0.22009 0.27456 0.71090
 H946 H 0.28509 0.27786 0.69788
 H947 H 0.24139 0.20679 0.79772
 H948 H 0.30659 0.20955 0.78408
 Zr949 Zr 0.25606 0.77783 0.27579
 O950 O 0.24370 0.79426 0.29502
 O951 O 0.28379 0.77864 0.28366
 O952 O 0.25756 0.76531 0.30099
 O953 O 0.25804 0.81312 0.24478
 O954 O 0.24822 0.73549 0.29623
 O955 O 0.26444 0.80600 0.27332
 O956 O 0.29780 0.76096 0.26337
 O957 O 0.26488 0.75104 0.27067
 O958 O 0.26906 0.77904 0.25145
 O959 O 0.23205 0.76101 0.27606
 O960 O 0.23622 0.78826 0.25807
 Zr961 Zr 0.23422 0.74470 0.22739
 Zr962 Zr 0.24089 0.73459 0.26964
 Zr963 Zr 0.24922 0.78800 0.23365
 Zr964 Zr 0.27687 0.75232 0.24593
 O965 O 0.23047 0.80896 0.22686
 O966 O 0.28974 0.72820 0.25566
 O967 O 0.25820 0.76166 0.22681
 O968 O 0.25383 0.73451 0.24523
 O969 O 0.22099 0.74328 0.25165
 O970 O 0.22541 0.77140 0.23267
 C971 C 0.29801 0.77103 0.27715
 C972 C 0.26399 0.81737 0.26014
 C973 C 0.25398 0.74859 0.30625
 O974 O 0.25875 0.71246 0.27499
 O975 O 0.22934 0.71029 0.25906
 O976 O 0.22457 0.71695 0.23014
 C977 C 0.22368 0.70598 0.24361
 O978 O 0.20630 0.78888 0.27715
 Zr979 Zr 0.21317 0.77010 0.25716
 O980 O 0.20648 0.74269 0.22022
 O981 O 0.21818 0.72584 0.28512
 O982 O 0.19431 0.75631 0.27422
 O983 O 0.19847 0.79240 0.24597
 O984 O 0.19189 0.75807 0.24178
 C985 C 0.19192 0.74794 0.22802
 O986 O 0.24649 0.72766 0.20861
 O987 O 0.27250 0.79809 0.21968
 O988 O 0.23389 0.75695 0.20197
 O989 O 0.24453 0.78639 0.20662
 O990 O 0.29722 0.76673 0.23098
 O991 O 0.28409 0.73659 0.22378
 C992 C 0.23861 0.77339 0.19659
 H993 H 0.28000 0.78743 0.25119
 H994 H 0.25761 0.72192 0.24204
 H995 H 0.21664 0.77607 0.22376
 H996 H 0.22611 0.76106 0.28769
 H997 H 0.30316 0.72984 0.25376
 H998 H 0.25222 0.70398 0.28327
 H999 H 0.22148 0.71388 0.29066
 H1000 H 0.18192 0.76118 0.27166
 H1001 H 0.30923 0.76105 0.23369
 H1002 H 0.26901 0.80997 0.21410
 H1003 H 0.23697 0.81753 0.21864
 H1004 H 0.18523 0.78999 0.24831
 H1005 H 0.29718 0.73314 0.22472
 H1006 H 0.23651 0.72325 0.20068
 H1007 H 0.25368 0.79870 0.30295
 H1008 H 0.19275 0.79005 0.27762
 Zr1009 Zr 0.23409 0.76929 0.72228
 O1010 O 0.24078 0.78616 0.70025
 O1011 O 0.20522 0.76777 0.72066
 O1012 O 0.22784 0.75612 0.69832
 O1013 O 0.23690 0.80518 0.75178
 O1014 O 0.24002 0.72749 0.70181
 O1015 O 0.22534 0.79676 0.72516
 O1016 O 0.19704 0.74895 0.74361
 O1017 O 0.22826 0.74181 0.72972
 O1018 O 0.22665 0.76979 0.74865
 O1019 O 0.25850 0.75499 0.71775
 O1020 O 0.25657 0.78211 0.73541
 Zr1021 Zr 0.26794 0.73957 0.76619
 Zr1022 Zr 0.25296 0.72788 0.72646
 Zr1023 Zr 0.24922 0.78115 0.76191
 Zr1024 Zr 0.22189 0.74245 0.75631
 O1025 O 0.26780 0.80387 0.76461
 O1026 O 0.20866 0.71705 0.74968
 O1027 O 0.24363 0.75407 0.77100
 O1028 O 0.24561 0.72704 0.75291
 O1029 O 0.27574 0.73895 0.73989
 O1030 O 0.27365 0.76700 0.75866
 C1031 C 0.19319 0.75916 0.73023
 C1032 C 0.22791 0.80854 0.73752
 C1033 C 0.23140 0.73979 0.69283
 O1034 O 0.23580 0.70391 0.72533
 O1035 O 0.26794 0.70497 0.73528
 O1036 O 0.27829 0.71281 0.76248
 C1037 C 0.27689 0.70158 0.74953
 O1038 O 0.28156 0.78499 0.71048
 Zr1039 Zr 0.28038 0.76642 0.73227
 O1040 O 0.29669 0.74093 0.76801
 O1041 O 0.27229 0.72113 0.70707
 O1042 O 0.29620 0.75386 0.71264
 O1043 O 0.29524 0.79078 0.73935
 O1044 O 0.30529 0.75787 0.74393
 C1045 C 0.30891 0.74819 0.75776
 O1046 O 0.26140 0.72147 0.78739
 O1047 O 0.22878 0.78944 0.77965
 O1048 O 0.27212 0.75188 0.79091
 O1049 O 0.25921 0.78022 0.78774
 O1050 O 0.20459 0.75486 0.77487
 O1051 O 0.22083 0.72631 0.77976
 C1052 C 0.26739 0.76771 0.79683
 H1053 H 0.21562 0.77720 0.75084
 H1054 H 0.24339 0.71419 0.75713
 H1055 H 0.28372 0.77276 0.76565
 H1056 H 0.26177 0.75539 0.70518
 H1057 H 0.19595 0.71731 0.75429
 H1058 H 0.24087 0.69598 0.71612
 H1059 H 0.26866 0.70874 0.70266
 H1060 H 0.30848 0.76011 0.71252
 H1061 H 0.19273 0.74782 0.77494
 H1062 H 0.23273 0.80171 0.78411
 H1063 H 0.26264 0.81194 0.77365
 H1064 H 0.30780 0.78990 0.73448
 H1065 H 0.20818 0.72124 0.78140
 H1066 H 0.27314 0.71836 0.79334
 H1067 H 0.22903 0.78951 0.69443
 H1068 H 0.29458 0.78739 0.70723
 Zr1069 Zr 0.24531 0.22852 0.21490
 O1070 O 0.23352 0.20937 0.19711
 O1071 O 0.27210 0.23183 0.20523
 O1072 O 0.24366 0.24015 0.18939
 O1073 O 0.25465 0.19575 0.24689
 O1074 O 0.22952 0.26760 0.19345
 O1075 O 0.25736 0.20219 0.21769
 O1076 O 0.28497 0.25366 0.22303
 O1077 O 0.25046 0.25688 0.21821
 O1078 O 0.26050 0.23113 0.23810
 O1079 O 0.21924 0.24064 0.21578
 O1080 O 0.22897 0.21560 0.23451
 Zr1081 Zr 0.22336 0.25993 0.26343
 Zr1082 Zr 0.22455 0.26873 0.22049
 Zr1083 Zr 0.24391 0.21973 0.25776
 Zr1084 Zr 0.26477 0.25928 0.24183
 O1085 O 0.22919 0.19616 0.26730
 O1086 O 0.27295 0.28490 0.23015
 O1087 O 0.24949 0.24778 0.26273
 O1088 O 0.23956 0.27255 0.24371
 O1089 O 0.20789 0.25749 0.24031
 O1090 O 0.21818 0.23167 0.25993
 C1091 C 0.28551 0.24253 0.21003
 C1092 C 0.25947 0.19158 0.23127
 C1093 C 0.23700 0.25552 0.18369
 O1094 O 0.23832 0.29355 0.21274
 O1095 O 0.21083 0.29133 0.23108
 O1096 O 0.21025 0.28563 0.26050
 C1097 C 0.20658 0.29562 0.24685
 O1098 O 0.19795 0.20843 0.21766
 Zr1099 Zr 0.20378 0.22922 0.23644
 O1100 O 0.19634 0.25708 0.27266
 O1101 O 0.19948 0.27212 0.20668
 O1102 O 0.18161 0.23847 0.22062
 O1103 O 0.19377 0.20493 0.24936
 O1104 O 0.18259 0.23747 0.25319
 C1105 C 0.18223 0.24826 0.26646
 O1106 O 0.23458 0.28001 0.28064
 O1107 O 0.26967 0.21479 0.26988
 O1108 O 0.22725 0.24941 0.28921
 O1109 O 0.24192 0.22229 0.28497
 O1110 O 0.28828 0.24975 0.25557
 O1111 O 0.27165 0.27745 0.26264
 C1112 C 0.23507 0.23460 0.29488
 H1113 H 0.27243 0.22480 0.23780
 H1114 H 0.24180 0.28583 0.24608
 H1115 H 0.21110 0.22593 0.26969
 H1116 H 0.21244 0.23881 0.20464
 H1117 H 0.28655 0.28590 0.23099
 H1118 H 0.22988 0.30016 0.20469
 H1119 H 0.20043 0.28420 0.20042
 H1120 H 0.17039 0.23145 0.22431
 H1121 H 0.29899 0.25738 0.25161
 H1122 H 0.26847 0.20278 0.27620
 H1123 H 0.23767 0.18942 0.27521
 H1124 H 0.18020 0.20453 0.24790
 H1125 H 0.28393 0.28321 0.26051
 H1126 H 0.22484 0.28295 0.28916
 H1127 H 0.24327 0.20628 0.18866
 H1128 H 0.18474 0.20481 0.21819
 Zr1129 Zr 0.74671 0.72379 0.27425
 O1130 O 0.75439 0.70683 0.29579
 O1131 O 0.71811 0.72495 0.27729
 O1132 O 0.74197 0.73684 0.29846
 O1133 O 0.74665 0.68840 0.24420
 O1134 O 0.75476 0.76565 0.29455
 O1135 O 0.73680 0.69622 0.27136
 O1136 O 0.70901 0.74401 0.25500
 O1137 O 0.74131 0.75127 0.26727
 O1138 O 0.73759 0.72353 0.24823
 O1139 O 0.77180 0.73839 0.27785
 O1140 O 0.76794 0.71144 0.25998
 Zr1141 Zr 0.77871 0.75448 0.22905
 Zr1142 Zr 0.76658 0.76549 0.26955
 Zr1143 Zr 0.75896 0.71268 0.23385
 Zr1144 Zr 0.73319 0.75088 0.24104
 O1145 O 0.77659 0.69015 0.23018
 O1146 O 0.72126 0.77608 0.24848
 O1147 O 0.75364 0.73975 0.22523
 O1148 O 0.75762 0.76654 0.24347
 O1149 O 0.78814 0.75486 0.25501
 O1150 O 0.78400 0.72705 0.23615
 C1151 C 0.70576 0.73365 0.26852
 C1152 C 0.73834 0.68470 0.25870
 C1153 C 0.74606 0.75332 0.30376
 O1154 O 0.75050 0.78943 0.27143
 O1155 O 0.78204 0.78850 0.26045
 O1156 O 0.79037 0.78127 0.23269
 C1157 C 0.79028 0.79220 0.24592
 O1158 O 0.79444 0.70867 0.28380
 Zr1159 Zr 0.79238 0.72741 0.26223
 O1160 O 0.80724 0.75337 0.22594
 O1161 O 0.78711 0.77211 0.28838
 O1162 O 0.80979 0.74015 0.28115
 O1163 O 0.80600 0.70325 0.25438
 O1164 O 0.81678 0.73626 0.24945
 C1165 C 0.81983 0.74609 0.23554
 O1166 O 0.77142 0.77276 0.20838
 O1167 O 0.73718 0.70446 0.21693
 O1168 O 0.78108 0.74230 0.20404
 O1169 O 0.76752 0.71378 0.20771
 O1170 O 0.71432 0.73836 0.22326
 O1171 O 0.73097 0.76727 0.21785
 C1172 C 0.77567 0.72634 0.19833
 H1173 H 0.72619 0.71602 0.24647
 H1174 H 0.75558 0.77943 0.23948
 H1175 H 0.79343 0.72143 0.22871
 H1176 H 0.77576 0.73793 0.29027
 H1177 H 0.70823 0.77569 0.24458
 H1178 H 0.75638 0.79730 0.28049
 H1179 H 0.78417 0.78442 0.29302
 H1180 H 0.82189 0.73412 0.28066
 H1181 H 0.70262 0.74511 0.22394
 H1182 H 0.74039 0.69226 0.21220
 H1183 H 0.77064 0.68213 0.22128
 H1184 H 0.81887 0.70423 0.25870
 H1185 H 0.71832 0.77202 0.21682
 H1186 H 0.78289 0.77603 0.20195
 H1187 H 0.74292 0.70326 0.30209
 H1188 H 0.80759 0.70661 0.28654
 Zr1189 Zr 0.76250 0.28330 0.78543
 O1190 O 0.75182 0.30049 0.80499
 O1191 O 0.79046 0.28271 0.79237
 O1192 O 0.76426 0.27092 0.81068
 O1193 O 0.76457 0.31828 0.75411
 O1194 O 0.75356 0.24143 0.80639
 O1195 O 0.77192 0.31112 0.78244
 O1196 O 0.80274 0.26406 0.77185
 O1197 O 0.76980 0.25605 0.78016
 O1198 O 0.77453 0.28374 0.76062
 O1199 O 0.73779 0.26759 0.78669
 O1200 O 0.74251 0.29453 0.76833
 Zr1201 Zr 0.73710 0.25085 0.73807
 Zr1202 Zr 0.74508 0.24070 0.78010
 Zr1203 Zr 0.75441 0.29345 0.74344
 Zr1204 Zr 0.78082 0.25660 0.75500
 O1205 O 0.73641 0.31516 0.73697
 O1206 O 0.79286 0.23182 0.76419
 O1207 O 0.76182 0.26664 0.73650
 O1208 O 0.75696 0.23988 0.75524
 O1209 O 0.72490 0.25024 0.76284
 O1210 O 0.72983 0.27801 0.74348
 C1211 C 0.80397 0.27415 0.78559
 C1212 C 0.77126 0.32244 0.76923
 C1213 C 0.76018 0.25437 0.81614
 O1214 O 0.76210 0.21779 0.78496
 O1215 O 0.73205 0.21683 0.77009
 O1216 O 0.72665 0.22346 0.74127
 C1217 C 0.72579 0.21261 0.75482
 O1218 O 0.71374 0.29686 0.78851
 Zr1219 Zr 0.71866 0.27750 0.76846
 O1220 O 0.70894 0.24992 0.73222
 O1221 O 0.72266 0.23311 0.79643
 O1222 O 0.69990 0.26491 0.78639
 O1223 O 0.70456 0.30036 0.75758
 O1224 O 0.69619 0.26633 0.75416
 C1225 C 0.69505 0.25598 0.74059
 O1226 O 0.74767 0.23322 0.71883
 O1227 O 0.77761 0.30239 0.72871
 O1228 O 0.73620 0.26296 0.71261
 O1229 O 0.74873 0.29180 0.71655
 O1230 O 0.80127 0.27008 0.73944
 O1231 O 0.78636 0.24058 0.73259
 C1232 C 0.74167 0.27904 0.70687
 H1233 H 0.78581 0.29163 0.75998
 H1234 H 0.76004 0.22711 0.75199
 H1235 H 0.72093 0.28300 0.73486
 H1236 H 0.73235 0.26800 0.79852
 H1237 H 0.80624 0.23280 0.76178
 H1238 H 0.75553 0.20965 0.79350
 H1239 H 0.72564 0.22106 0.80196
 H1240 H 0.68771 0.27049 0.78434
 H1241 H 0.81306 0.26383 0.74179
 H1242 H 0.77447 0.31438 0.72315
 H1243 H 0.74301 0.32339 0.72852
 H1244 H 0.69136 0.29866 0.76056
 H1245 H 0.79931 0.23659 0.73299
 H1246 H 0.73715 0.22922 0.71133
 H1247 H 0.76232 0.30449 0.81251
 H1248 H 0.70034 0.29881 0.78948
 C1249 C 0.42836 1.01953 0.31955
 C1250 C 0.44240 1.00658 0.32021
 C1251 C 0.44596 0.99600 0.30548
 C1252 C 0.43534 0.99813 0.29028
 C1253 C 0.42108 1.01108 0.28940
 C1254 C 0.41769 1.02170 0.30436
 C1255 C 0.45202 1.00309 0.33645
 C1256 C 0.45927 0.99999 0.35041
 C1257 C 0.46665 0.99639 0.36726
 C1258 C 0.47175 0.99359 0.38211
 C1259 C 0.47609 0.99083 0.40039
 C1260 C 0.49296 0.98366 0.40600
 C1261 C 0.49666 0.98136 0.42398
 C1262 C 0.48350 0.98626 0.43648
 C1263 C 0.46658 0.99329 0.43055
 C1264 C 0.46296 0.99553 0.41274
 H1265 H 0.42522 1.02755 0.33100
 H1266 H 0.45655 0.98569 0.30591
 H1267 H 0.43790 0.98918 0.27935
 H1268 H 0.40637 1.03111 0.30476
 H1269 H 0.50323 0.97993 0.39654
 H1270 H 0.50980 0.97593 0.42808
 H1271 H 0.45604 0.99717 0.43968
 H1272 H 0.44985 1.00103 0.40858
 C1273 C -0.04647 0.50503 0.80456
 C1274 C -0.05065 0.51495 0.81955
 C1275 C -0.06558 0.52685 0.81928
 C1276 C -0.07652 0.52859 0.80424
 C1277 C -0.07252 0.51864 0.78901
 C1278 C -0.05737 0.50674 0.78949
 C1279 C -0.04073 0.51175 0.83567
 C1280 C -0.03326 0.50891 0.84958
 C1281 C -0.02562 0.50565 0.86637
 C1282 C -0.02022 0.50315 0.88116
 C1283 C -0.01539 0.50075 0.89937
 C1284 C -0.02405 0.51164 0.91170
 C1285 C -0.02108 0.50859 0.92953
 C1286 C -0.00933 0.49454 0.93542
 C1287 C -0.00012 0.48401 0.92296
 C1288 C -0.00324 0.48704 0.90499
 H1289 H -0.03517 0.49548 0.80470
 H1290 H -0.06919 0.53431 0.83094
 H1291 H -0.08855 0.53708 0.80493
 H1292 H -0.05433 0.49817 0.77840
 H1293 H -0.03349 0.52226 0.90753
 H1294 H -0.02825 0.51709 0.93872
 H1295 H 0.00896 0.47308 0.92709
 H1296 H 0.00349 0.47846 0.89555
 C1297 C 0.05167 0.01171 0.79865
 C1298 C 0.05666 0.00277 0.81425
 C1299 C 0.07175 -0.00891 0.81452
 C1300 C 0.08206 -0.01142 0.79938
 C1301 C 0.07725 -0.00251 0.78351
 C1302 C 0.06193 0.00920 0.78345
 C1303 C 0.04729 0.00652 0.83036
 C1304 C 0.04036 0.00958 0.84430
 C1305 C 0.03338 0.01286 0.86117
 C1306 C 0.02850 0.01520 0.87603
 C1307 C 0.02414 0.01719 0.89428
 C1308 C 0.03842 0.01646 0.90660
 C1309 C 0.03453 0.01630 0.92445
 C1310 C 0.01623 0.01688 0.93033
 C1311 C 0.00195 0.01848 0.91788
 C1312 C 0.00590 0.01853 0.89992
 H1313 H 0.04019 0.02103 0.79834
 H1314 H 0.07596 -0.01562 0.82662
 H1315 H 0.09419 -0.01972 0.80051
 H1316 H 0.05822 0.01689 0.77174
 H1317 H 0.05258 0.01543 0.90241
 H1318 H 0.04587 0.01519 0.93366
 H1319 H -0.01227 0.01886 0.92200
 H1320 H -0.00528 0.01905 0.89048
 C1321 C 0.57245 0.48988 0.31466
 C1322 C 0.55653 0.50040 0.31377
 C1323 C 0.55093 0.50799 0.29773
 C1324 C 0.56136 0.50528 0.28268
 C1325 C 0.57745 0.49468 0.28335
 C1326 C 0.58292 0.48718 0.29967
 C1327 C 0.54694 0.50447 0.32966
 C1328 C 0.53985 0.50784 0.34345
 C1329 C 0.53275 0.51150 0.36019
 C1330 C 0.52783 0.51417 0.37497
 C1331 C 0.52346 0.51655 0.39315
 C1332 C 0.50519 0.51745 0.39881
 C1333 C 0.50130 0.51763 0.41677
 C1334 C 0.51566 0.51669 0.42919
 C1335 C 0.53397 0.51659 0.42329
 C1336 C 0.53781 0.51654 0.40544
 H1337 H 0.57713 0.48426 0.32709
 H1338 H 0.53884 0.51648 0.29695
 H1339 H 0.55718 0.51208 0.27063
 H1340 H 0.59568 0.47990 0.30115
 H1341 H 0.49397 0.51740 0.38940
 H1342 H 0.48707 0.51761 0.42093
 H1343 H 0.54536 0.51600 0.43249
 H1344 H 0.55199 0.51585 0.40122
 C1345 C 0.55969 0.49892 0.19637
 C1346 C 0.56980 0.49059 0.18323
 C1347 C 0.58750 0.48427 0.18699
 C1348 C 0.59490 0.48593 0.20389
 C1349 C 0.58465 0.49380 0.21735
 C1350 C 0.56705 0.50057 0.21326
 C1351 C 0.56203 0.48857 0.16591
 C1352 C 0.55565 0.48701 0.15135
 C1353 C 0.54865 0.48548 0.13409
 C1354 C 0.54341 0.48459 0.11909
 C1355 C 0.53843 0.48423 0.10078
 C1356 C 0.55214 0.48777 0.08837
 C1357 C 0.54769 0.48869 0.07061
 C1358 C 0.52936 0.48608 0.06484
 C1359 C 0.51566 0.48199 0.07734
 C1360 C 0.52018 0.48114 0.09525
 H1361 H 0.54607 0.50408 0.19360
 H1362 H 0.59553 0.47790 0.17690
 H1363 H 0.60842 0.48063 0.20642
 H1364 H 0.55891 0.50720 0.22309
 H1365 H 0.56630 0.49014 0.09245
 H1366 H 0.55866 0.49170 0.06140
 H1367 H 0.50144 0.47994 0.07334
 H1368 H 0.50943 0.47838 0.10476
 C1369 C 0.08834 0.99047 0.68674
 C1370 C 0.06932 0.99088 0.68397
 C1371 C 0.05774 0.99411 0.69804
 C1372 C 0.06503 0.99651 0.71486
 C1373 C 0.08424 0.99559 0.71816
 C1374 C 0.09575 0.99289 0.70355
 C1375 C 0.06172 0.98813 0.66668
 C1376 C 0.05556 0.98590 0.65212
 C1377 C 0.04883 0.98351 0.63485
 C1378 C 0.04382 0.98185 0.61984
 C1379 C 0.03905 0.98050 0.60153
 C1380 C 0.02068 0.97862 0.59593
 C1381 C 0.01639 0.97877 0.57797
 C1382 C 0.03045 0.98098 0.56547
 C1383 C 0.04886 0.98226 0.57132
 C1384 C 0.05308 0.98202 0.58915
 H1385 H 0.09750 0.98813 0.67589
 H1386 H 0.04298 0.99479 0.69603
 H1387 H 0.05534 0.99946 0.72504
 H1388 H 0.11048 0.99214 0.70470
 H1389 H 0.00967 0.97744 0.60541
 H1390 H 0.00210 0.97780 0.57390
 H1391 H 0.06008 0.98381 0.56210
 H1392 H 0.06734 0.98345 0.59329
 C1393 C -0.05828 0.50718 0.70251
 C1394 C -0.06756 0.51726 0.68956
 C1395 C -0.08442 0.52523 0.69344
 C1396 C -0.09172 0.52360 0.71032
 C1397 C -0.08222 0.51403 0.72359
 C1398 C -0.06556 0.50556 0.71940
 C1399 C -0.05962 0.51976 0.67240
 C1400 C -0.05317 0.52196 0.65797
 C1401 C -0.04612 0.52445 0.64086
 C1402 C -0.04084 0.52628 0.62597
 C1403 C -0.03581 0.52787 0.60776
 C1404 C -0.04973 0.52699 0.59508
 C1405 C -0.04531 0.52684 0.57735
 C1406 C -0.02682 0.52759 0.57192
 C1407 C -0.01285 0.52925 0.58469
 C1408 C -0.01734 0.52930 0.60256
 H1409 H -0.04529 0.50083 0.69966
 H1410 H -0.09175 0.53306 0.68352
 H1411 H -0.10435 0.53048 0.71310
 H1412 H -0.05800 0.49788 0.72925
 H1413 H -0.06406 0.52592 0.59891
 H1414 H -0.05644 0.52572 0.56789
 H1415 H 0.00150 0.52977 0.58093
 H1416 H -0.00643 0.52999 0.61228
 C1417 C 0.43868 0.00282 0.20324
 C1418 C 0.43011 0.01370 0.19043
 C1419 C 0.41322 0.02175 0.19405
 C1420 C 0.40519 0.01937 0.21056
 C1421 C 0.41395 0.00895 0.22370
 C1422 C 0.43067 0.00044 0.21975
 C1423 C 0.43877 0.01695 0.17369
 C1424 C 0.44578 0.01980 0.15959
 C1425 C 0.45344 0.02308 0.14283
 C1426 C 0.45921 0.02560 0.12818
 C1427 C 0.46481 0.02804 0.11020
 C1428 C 0.45122 0.02908 0.09722
 C1429 C 0.45608 0.02949 0.07959
 C1430 C 0.47467 0.02890 0.07457
 C1431 C 0.48837 0.02876 0.08768
 C1432 C 0.48344 0.02823 0.10544
 H1433 H 0.45170 -0.00359 0.20058
 H1434 H 0.40644 0.03021 0.18425
 H1435 H 0.39257 0.02635 0.21320
 H1436 H 0.43769 -0.00784 0.22954
 H1437 H 0.43678 0.02899 0.10071
 H1438 H 0.44518 0.02977 0.06984
 H1439 H 0.50278 0.02821 0.08422
 H1440 H 0.49409 0.02742 0.11539
 C1441 C 0.32395 0.38260 -0.00975
 C1442 C 0.32464 0.40076 -0.00370
 C1443 C 0.30827 0.40947 0.00054
 C1444 C 0.29129 0.40008 -0.00120
 C1445 C 0.29037 0.38180 -0.00747
 C1446 C 0.30703 0.37319 -0.01151
 C1447 C 0.34218 0.41033 -0.00175
 C1448 C 0.35694 0.41822 -0.00036
 C1449 C 0.37430 0.42743 0.00082
 C1450 C 0.38910 0.43537 0.00124
 C1451 C 0.40671 0.44502 0.00080
 C1452 C 0.41907 0.44404 0.01495
 C1453 C 0.43628 0.45322 0.01405
 C1454 C 0.44133 0.46345 -0.00106
 C1455 C 0.42870 0.46439 -0.01512
 C1456 C 0.41159 0.45528 -0.01416
 H1457 H 0.33651 0.37562 -0.01297
 H1458 H 0.30863 0.42347 0.00542
 H1459 H 0.27913 0.40715 0.00283
 H1460 H 0.30697 0.35899 -0.01585
 H1461 H 0.41548 0.43611 0.02660
 H1462 H 0.44567 0.45214 0.02506
 H1463 H 0.43202 0.47213 -0.02695
 H1464 H 0.40218 0.45615 -0.02520
 C1465 C -0.19200 0.90955 0.50039
 C1466 C -0.17560 0.90017 0.49786
 C1467 C -0.17630 0.88137 0.49381
 C1468 C -0.19326 0.87200 0.49234
 C1469 C -0.20995 0.88126 0.49467
 C1470 C -0.20903 0.90020 0.49892
 C1471 C -0.15802 0.90973 0.49950
 C1472 C -0.14323 0.91759 0.50067
 C1473 C -0.12582 0.92673 0.50166
 C1474 C -0.11096 0.93455 0.50200
 C1475 C -0.09325 0.94399 0.50158
 C1476 C -0.08833 0.95451 0.48677
 C1477 C -0.07104 0.96327 0.48583
 C1478 C -0.05828 0.96171 0.49972
 C1479 C -0.06341 0.95128 0.51469
 C1480 C -0.08078 0.94246 0.51558
 H1481 H -0.19163 0.92407 0.50370
 H1482 H -0.16372 0.87388 0.49194
 H1483 H -0.19336 0.85735 0.48957
 H1484 H -0.22124 0.90789 0.50159
 H1485 H -0.09783 0.95581 0.47585
 H1486 H -0.06766 0.97119 0.47411
 H1487 H -0.05392 0.94971 0.52558
 H1488 H -0.08440 0.93431 0.52710
 C1489 C -0.19675 0.09957 0.98728
 C1490 C -0.18358 0.09850 1.00065
 C1491 C -0.18628 0.10790 1.01627
 C1492 C -0.20188 0.11864 1.01845
 C1493 C -0.21517 0.12016 1.00495
 C1494 C -0.21238 0.11027 0.98941
 C1495 C -0.16702 0.08819 0.99826
 C1496 C -0.15297 0.07980 0.99656
 C1497 C -0.13635 0.07012 0.99507
 C1498 C -0.12210 0.06189 0.99439
 C1499 C -0.10507 0.05200 0.99444
 C1500 C -0.10103 0.04022 1.00854
 C1501 C -0.08427 0.03113 1.00926
 C1502 C -0.07120 0.03366 0.99585
 C1503 C -0.07547 0.04535 0.98155
 C1504 C -0.09230 0.05449 0.98089
 H1505 H -0.19483 0.09237 0.97510
 H1506 H -0.17616 0.10716 1.02673
 H1507 H -0.20299 0.12585 1.03062
 H1508 H -0.22220 0.11116 0.97872
 H1509 H -0.11077 0.03820 1.01911
 H1510 H -0.08153 0.02222 1.02044
 H1511 H -0.06571 0.04767 0.97105
 H1512 H -0.09525 0.06363 0.96993
 C1513 C 0.30049 0.59380 0.49092
 C1514 C 0.31687 0.60043 0.49852
 C1515 C 0.31701 0.61724 0.50738
 C1516 C 0.30090 0.62738 0.50861
 C1517 C 0.28418 0.62071 0.50132
 C1518 C 0.28435 0.60392 0.49213
 C1519 C 0.33363 0.59026 0.49687
 C1520 C 0.34773 0.58183 0.49561
 C1521 C 0.36428 0.57198 0.49442
 C1522 C 0.37842 0.56353 0.49383
 C1523 C 0.39528 0.55333 0.49386
 C1524 C 0.39924 0.54156 0.50799
 C1525 C 0.41578 0.53208 0.50857
 C1526 C 0.42872 0.53419 0.49499
 C1527 C 0.42452 0.54586 0.48067
 C1528 C 0.40791 0.55539 0.48014
 H1529 H 0.30027 0.58096 0.48376
 H1530 H 0.32967 0.62269 0.51308
 H1531 H 0.30169 0.64068 0.51493
 H1532 H 0.27217 0.59876 0.48543
 H1533 H 0.38959 0.53984 0.51868
 H1534 H 0.41848 0.52320 0.51979
 H1535 H 0.43418 0.54788 0.47004
 H1536 H 0.40502 0.56451 0.46914
 C1537 C 0.19260 0.59978 0.49484
 C1538 C 0.17806 0.61060 0.50032
 C1539 C 0.18133 0.62928 0.50397
 C1540 C 0.19915 0.63695 0.50272
 C1541 C 0.21415 0.62600 0.49805
 C1542 C 0.21042 0.60739 0.49360
 C1543 C 0.15988 0.60238 0.50235
 C1544 C 0.14485 0.59511 0.50399
 C1545 C 0.12741 0.58614 0.50561
 C1546 C 0.11269 0.57811 0.50649
 C1547 C 0.09530 0.56806 0.50664
 C1548 C 0.08284 0.56976 0.52045
 C1549 C 0.06587 0.56008 0.52013
 C1550 C 0.06117 0.54863 0.50593
 C1551 C 0.07394 0.54692 0.49226
 C1552 C 0.09080 0.55653 0.49264
 H1553 H 0.19022 0.58536 0.49167
 H1554 H 0.17014 0.63790 0.50799
 H1555 H 0.20097 0.65136 0.50575
 H1556 H 0.22118 0.59854 0.48915
 H1557 H 0.08616 0.57865 0.53138
 H1558 H 0.05636 0.56179 0.53082
 H1559 H 0.07088 0.53822 0.48114
 H1560 H 0.10031 0.55505 0.48190
 C1561 C 0.69493 0.10180 -0.00171
 C1562 C 0.68071 0.11183 0.00556
 C1563 C 0.68424 0.12993 0.01108
 C1564 C 0.70195 0.13784 0.00967
 C1565 C 0.71666 0.12771 0.00279
 C1566 C 0.71266 0.10960 -0.00311
 C1567 C 0.66265 0.10336 0.00759
 C1568 C 0.64769 0.09589 0.00915
 C1569 C 0.63032 0.08673 0.01063
 C1570 C 0.61564 0.07858 0.01137
 C1571 C 0.59829 0.06845 0.01136
 C1572 C 0.58549 0.07043 0.02484
 C1573 C 0.56850 0.06083 0.02428
 C1574 C 0.56409 0.04916 0.01016
 C1575 C 0.57720 0.04711 -0.00315
 C1576 C 0.59410 0.05665 -0.00253
 H1577 H 0.69236 0.08784 -0.00623
 H1578 H 0.67335 0.13784 0.01680
 H1579 H 0.70403 0.15151 0.01493
 H1580 H 0.72307 0.10136 -0.00912
 H1581 H 0.58856 0.07953 0.03568
 H1582 H 0.55871 0.06280 0.03469
 H1583 H 0.57437 0.03823 -0.01420
 H1584 H 0.60387 0.05495 -0.01303
 C1585 C 0.68728 0.87508 0.48373
 C1586 C 0.68354 0.89160 0.49227
 C1587 C 0.69769 0.90091 0.50130
 C1588 C 0.71545 0.89380 0.50180
 C1589 C 0.71937 0.87722 0.49327
 C1590 C 0.70506 0.86793 0.48423
 C1591 C 0.66522 0.89901 0.49200
 C1592 C 0.65003 0.90550 0.49216
 C1593 C 0.63238 0.91342 0.49286
 C1594 C 0.61746 0.92039 0.49398
 C1595 C 0.59984 0.92895 0.49606
 C1596 C 0.59407 0.93380 0.51278
 C1597 C 0.57723 0.94243 0.51504
 C1598 C 0.56579 0.94642 0.50056
 C1599 C 0.57165 0.94138 0.48376
 C1600 C 0.58856 0.93272 0.48154
 H1601 H 0.67647 0.86775 0.47667
 H1602 H 0.69499 0.91366 0.50803
 H1603 H 0.72605 0.90117 0.50910
 H1604 H 0.70765 0.85530 0.47729
 H1605 H 0.60265 0.93099 0.52413
 H1606 H 0.57325 0.94607 0.52817
 H1607 H 0.56322 0.94419 0.47232
 H1608 H 0.59287 0.92906 0.46851
 C1609 C 0.19796 0.39949 1.00328
 C1610 C 0.18381 0.39091 0.99363
 C1611 C 0.18758 0.37518 0.98388
 C1612 C 0.20541 0.36814 0.98371
 C1613 C 0.21974 0.37675 0.99329
 C1614 C 0.21577 0.39249 1.00312
 C1615 C 0.16549 0.39833 0.99375
 C1616 C 0.15027 0.40476 0.99407
 C1617 C 0.13254 0.41252 0.99476
 C1618 C 0.11752 0.41931 0.99571
 C1619 C 0.09970 0.42761 0.99740
 C1620 C 0.08982 0.43341 0.98257
 C1621 C 0.07277 0.44191 0.98441
 C1622 C 0.06538 0.44476 1.00115
 C1623 C 0.07539 0.43869 1.01594
 C1624 C 0.09237 0.43022 1.01406
 H1625 H 0.19523 0.41163 1.01094
 H1626 H 0.17678 0.36842 0.97632
 H1627 H 0.20801 0.35620 0.97577
 H1628 H 0.22640 0.39932 1.01084
 H1629 H 0.09533 0.43149 0.96959
 H1630 H 0.06547 0.44636 0.97275
 H1631 H 0.07019 0.44061 1.02904
 H1632 H 0.09987 0.42581 1.02564
 C1633 C -0.02239 0.32122 0.40593
 C1634 C -0.02439 0.32006 0.42407
 C1635 C -0.02329 0.30298 0.43272
 C1636 C -0.01978 0.28706 0.42326
 C1637 C -0.01697 0.28813 0.40500
 C1638 C -0.01886 0.30538 0.39646
 C1639 C -0.02662 0.33665 0.43376
 C1640 C -0.02774 0.35101 0.44133
 C1641 C -0.02815 0.36825 0.44951
 C1642 C -0.02773 0.38330 0.45594
 C1643 C -0.02639 0.40151 0.46300
 C1644 C -0.01481 0.40495 0.47733
 C1645 C -0.01227 0.42296 0.48332
 C1646 C -0.02124 0.43775 0.47497
 C1647 C -0.03307 0.43406 0.46071
 C1648 C -0.03559 0.41603 0.45475
 H1649 H -0.02333 0.33441 0.39912
 H1650 H -0.02502 0.30199 0.44679
 H1651 H -0.01950 0.27410 0.43039
 H1652 H -0.01742 0.30662 0.38238
 H1653 H -0.00752 0.39377 0.48368
 H1654 H -0.00312 0.42530 0.49436
 H1655 H -0.04026 0.44510 0.45404
 H1656 H -0.04446 0.41345 0.44355
 C1657 C 0.47616 -0.17357 -0.09259
 C1658 C 0.46995 -0.17593 -0.07545
 C1659 C 0.46695 -0.19371 -0.06851
 C1660 C 0.47068 -0.20917 -0.07859
 C1661 C 0.47785 -0.20695 -0.09567
 C1662 C 0.47995 -0.18891 -0.10265
 C1663 C 0.46786 -0.15994 -0.06487
 C1664 C 0.46720 -0.14589 -0.05672
 C1665 C 0.46765 -0.12887 -0.04810
 C1666 C 0.46895 -0.11393 -0.04149
 C1667 C 0.47142 -0.09579 -0.03446
 C1668 C 0.46278 -0.08082 -0.04253
 C1669 C 0.46644 -0.06289 -0.03675
 C1670 C 0.47886 -0.05975 -0.02282
 C1671 C 0.48731 -0.07496 -0.01466
 C1672 C 0.48363 -0.09287 -0.02049
 H1673 H 0.47844 -0.15982 -0.09810
 H1674 H 0.46195 -0.19562 -0.05526
 H1675 H 0.46788 -0.22263 -0.07284
 H1676 H 0.48491 -0.18669 -0.11587
 H1677 H 0.45344 -0.08297 -0.05347
 H1678 H 0.45960 -0.05153 -0.04325
 H1679 H 0.49689 -0.07303 -0.00388
 H1680 H 0.49052 -0.10440 -0.01431
 C1681 C 0.00690 -0.21367 1.06227
 C1682 C 0.01746 -0.19879 1.06858
 C1683 C 0.02569 -0.19988 1.08510
 C1684 C 0.02304 -0.21564 1.09550
 C1685 C 0.01233 -0.23076 1.08946
 C1686 C 0.00427 -0.22956 1.07264
 C1687 C 0.01811 -0.18154 1.05919
 C1688 C 0.01808 -0.16652 1.05231
 C1689 C 0.01737 -0.14850 1.04535
 C1690 C 0.01620 -0.13284 1.04014
 C1691 C 0.01419 -0.11401 1.03459
 C1692 C 0.02341 -0.09985 1.04361
 C1693 C 0.02068 -0.08142 1.03883
 C1694 C 0.00863 -0.07698 1.02497
 C1695 C -0.00053 -0.09138 1.01597
 C1696 C 0.00224 -0.10977 1.02078
 H1697 H 0.00012 -0.21272 1.04962
 H1698 H 0.03356 -0.18824 1.09025
 H1699 H 0.02889 -0.21577 1.10858
 H1700 H -0.00475 -0.24033 1.06765
 H1701 H 0.03260 -0.10305 1.05441
 H1702 H 0.02800 -0.07069 1.04597
 H1703 H -0.00986 -0.08846 1.00522
 H1704 H -0.00507 -0.12068 1.01384
 C1705 C 0.51434 0.28685 0.56407
 C1706 C 0.52178 0.30352 0.57027
 C1707 C 0.52756 0.30490 0.58766
 C1708 C 0.52558 0.28979 0.59898
 C1709 C 0.51805 0.27287 0.59306
 C1710 C 0.51244 0.27158 0.57539
 C1711 C 0.52168 0.31996 0.55965
 C1712 C 0.52109 0.33455 0.55201
 C1713 C 0.51981 0.35228 0.54450
 C1714 C 0.51822 0.36782 0.53908
 C1715 C 0.51578 0.38659 0.53355
 C1716 C 0.50335 0.39065 0.52009
 C1717 C 0.50014 0.40901 0.51541
 C1718 C 0.50932 0.42354 0.52422
 C1719 C 0.52182 0.41927 0.53775
 C1720 C 0.52500 0.40089 0.54239
 H1721 H 0.50944 0.28584 0.55068
 H1722 H 0.53298 0.31788 0.59266
 H1723 H 0.52946 0.29150 0.61259
 H1724 H 0.50587 0.25922 0.57033
 H1725 H 0.49602 0.37964 0.51332
 H1726 H 0.49046 0.41178 0.50491
 H1727 H 0.52917 0.43011 0.54473
 H1728 H 0.53453 0.39782 0.55296
 C1729 C 0.48587 1.18300 0.59080
 C1730 C 0.49253 1.16891 0.60166
 C1731 C 0.50292 1.17329 0.61656
 C1732 C 0.50699 1.19174 0.62040
 C1733 C 0.50084 1.20600 0.60930
 C1734 C 0.48996 1.20146 0.59461
 C1735 C 0.49024 1.15002 0.59656
 C1736 C 0.48915 1.13435 0.59157
 C1737 C 0.48884 1.11637 0.58485
 C1738 C 0.48936 1.10139 0.57831
 C1739 C 0.49079 1.08408 0.56958
 C1740 C 0.47928 1.06904 0.57406
 C1741 C 0.48048 1.05249 0.56495
 C1742 C 0.49321 1.05088 0.55124
 C1743 C 0.50484 1.06606 0.54703
 C1744 C 0.50362 1.08253 0.55616
 H1745 H 0.47789 1.17972 0.57917
 H1746 H 0.50831 1.16243 0.62492
 H1747 H 0.51550 1.19472 0.63169
 H1748 H 0.48471 1.21216 0.58599
 H1749 H 0.46929 1.07017 0.58445
 H1750 H 0.47132 1.04106 0.56851
 H1751 H 0.51481 1.06531 0.53659
 H1752 H 0.51258 1.09414 0.55262
 C1753 C -0.00788 0.67597 1.08468
 C1754 C -0.01875 0.66581 1.09656
 C1755 C -0.02594 0.67439 1.11124
 C1756 C -0.02177 0.69303 1.11428
 C1757 C -0.01032 0.70317 1.10270
 C1758 C -0.00366 0.69453 1.08771
 C1759 C -0.02115 0.64631 1.09408
 C1760 C -0.02177 0.63003 1.09117
 C1761 C -0.02096 0.61132 1.08660
 C1762 C -0.01909 0.59581 1.08158
 C1763 C -0.01569 0.57811 1.07420
 C1764 C -0.02899 0.56388 1.07492
 C1765 C -0.02624 0.54751 1.06585
 C1766 C -0.01021 0.54537 1.05586
 C1767 C 0.00334 0.55954 1.05578
 C1768 C 0.00060 0.57579 1.06490
 H1769 H -0.00213 0.66937 1.07335
 H1770 H -0.03435 0.66659 1.12052
 H1771 H -0.02728 0.69943 1.12581
 H1772 H 0.00548 0.70184 1.07873
 H1773 H -0.04169 0.56563 1.08201
 H1774 H -0.03695 0.53686 1.06613
 H1775 H 0.01586 0.55829 1.04831
 H1776 H 0.01094 0.58679 1.06424
 C1777 C 0.48749 0.70141 -0.08267
 C1778 C 0.49680 0.68908 -0.09312
 C1779 C 0.50208 0.69435 -0.11000
 C1780 C 0.49866 0.71219 -0.11624
 C1781 C 0.49014 0.72534 -0.10554
 C1782 C 0.48407 0.71927 -0.08880
 C1783 C 0.50130 0.67117 -0.08630
 C1784 C 0.50509 0.65635 -0.08014
 C1785 C 0.50928 0.63921 -0.07238
 C1786 C 0.51240 0.62469 -0.06526
 C1787 C 0.51533 0.60751 -0.05620
 C1788 C 0.52398 0.59295 -0.06451
 C1789 C 0.52548 0.57583 -0.05597
 C1790 C 0.51821 0.57312 -0.03906
 C1791 C 0.51003 0.58805 -0.03067
 C1792 C 0.50861 0.60511 -0.03921
 H1793 H 0.48301 0.69729 -0.06965
 H1794 H 0.50914 0.68476 -0.11828
 H1795 H 0.50337 0.71532 -0.12928
 H1796 H 0.47646 0.72805 -0.08024
 H1797 H 0.52918 0.59471 -0.07771
 H1798 H 0.53179 0.56460 -0.06281
 H1799 H 0.50437 0.58647 -0.01764
 H1800 H 0.50190 0.61632 -0.03268
 C1801 C 0.02103 1.19407 0.39749
 C1802 C 0.01323 1.18668 0.41280
 C1803 C -0.00015 1.19644 0.42170
 C1804 C -0.00577 1.21357 0.41528
 C1805 C 0.00192 1.22108 0.39985
 C1806 C 0.01540 1.21121 0.39105
 C1807 C 0.01853 1.16890 0.41928
 C1808 C 0.02225 1.15390 0.42506
 C1809 C 0.02555 1.13633 0.43228
 C1810 C 0.02733 1.12131 0.43888
 C1811 C 0.02809 1.10352 0.44726
 C1812 C 0.02029 1.10108 0.46383
 C1813 C 0.01919 1.08352 0.47150
 C1814 C 0.02589 1.06813 0.46267
 C1815 C 0.03422 1.07079 0.44621
 C1816 C 0.03524 1.08842 0.43852
 H1817 H 0.03143 1.18660 0.39055
 H1818 H -0.00633 1.19076 0.43353
 H1819 H -0.01629 1.22084 0.42224
 H1820 H 0.02185 1.21684 0.37942
 H1821 H 0.01464 1.11271 0.47064
 H1822 H 0.01280 1.08200 0.48423
 H1823 H 0.03950 1.05922 0.43907
 H1824 H 0.04119 1.09020 0.42562
 C1825 C 0.75500 0.70042 0.94806
 C1826 C 0.76489 0.69614 0.93307
 C1827 C 0.77640 0.68086 0.93332
 C1828 C 0.77777 0.66971 0.94836
 C1829 C 0.76787 0.67384 0.96359
 C1830 C 0.75635 0.68932 0.96312
 C1831 C 0.76216 0.70644 0.91700
 C1832 C 0.75973 0.71435 0.90319
 C1833 C 0.75694 0.72265 0.88655
 C1834 C 0.75485 0.72872 0.87189
 C1835 C 0.75294 0.73452 0.85385
 C1836 C 0.76509 0.72763 0.84156
 C1837 C 0.76250 0.73133 0.82377
 C1838 C 0.74768 0.74206 0.81791
 C1839 C 0.73590 0.74961 0.83036
 C1840 C 0.73846 0.74575 0.84827
 H1841 H 0.74577 0.71200 0.94794
 H1842 H 0.78384 0.67718 0.92166
 H1843 H 0.78599 0.65746 0.94767
 H1844 H 0.74784 0.69248 0.97422
 H1845 H 0.77632 0.71892 0.84569
 H1846 H 0.77194 0.72546 0.81455
 H1847 H 0.72434 0.75785 0.82623
 H1848 H 0.72890 0.75109 0.85768
 C1849 C 0.25106 0.19636 0.44554
 C1850 C 0.26068 0.19191 0.43043
 C1851 C 0.27290 0.17721 0.43089
 C1852 C 0.27519 0.16672 0.44625
 C1853 C 0.26548 0.17094 0.46156
 C1854 C 0.25332 0.18591 0.46090
 C1855 C 0.25676 0.20122 0.41406
 C1856 C 0.25319 0.20819 0.40003
 C1857 C 0.24894 0.21522 0.38316
 C1858 C 0.24551 0.22002 0.36832
 C1859 C 0.24194 0.22405 0.35009
 C1860 C 0.24468 0.21012 0.33795
 C1861 C 0.24203 0.21356 0.32014
 C1862 C 0.23656 0.23108 0.31403
 C1863 C 0.23341 0.24499 0.32634
 C1864 C 0.23615 0.24148 0.34430
 H1865 H 0.24128 0.20747 0.44527
 H1866 H 0.28014 0.17338 0.41916
 H1867 H 0.28391 0.15481 0.44575
 H1868 H 0.24494 0.18910 0.47209
 H1869 H 0.24908 0.19656 0.34225
 H1870 H 0.24447 0.20245 0.31113
 H1871 H 0.22924 0.25861 0.32207
 H1872 H 0.23395 0.25238 0.35360
 C1873 C 0.73990 0.32171 0.43813
 C1874 C 0.75177 0.30675 0.43876
 C1875 C 0.76062 0.30216 0.45449
 C1876 C 0.75780 0.31267 0.46945
 C1877 C 0.74581 0.32780 0.46905
 C1878 C 0.73708 0.33225 0.45304
 C1879 C 0.75585 0.29717 0.42287
 C1880 C 0.75916 0.29007 0.40907
 C1881 C 0.76270 0.28292 0.39234
 C1882 C 0.76523 0.27792 0.37756
 C1883 C 0.76745 0.27343 0.35939
 C1884 C 0.76775 0.25503 0.35386
 C1885 C 0.76774 0.25107 0.33593
 C1886 C 0.76719 0.26551 0.32340
 C1887 C 0.76769 0.28391 0.32916
 C1888 C 0.76783 0.28781 0.34698
 H1889 H 0.73329 0.32564 0.42592
 H1890 H 0.77014 0.29084 0.45505
 H1891 H 0.76554 0.30932 0.48119
 H1892 H 0.72866 0.34433 0.45168
 H1893 H 0.76739 0.24378 0.36336
 H1894 H 0.76725 0.23677 0.33189
 H1895 H 0.76740 0.29535 0.31987
 H1896 H 0.76759 0.30209 0.35109
 C1897 C 0.24108 0.82529 0.93139
 C1898 C 0.25543 0.81272 0.93100
 C1899 C 0.26643 0.81012 0.94586
 C1900 C 0.26328 0.82027 0.96095
 C1901 C 0.24892 0.83312 0.96156
 C1902 C 0.23789 0.83549 0.94646
 C1903 C 0.25966 0.80363 0.91490
 C1904 C 0.26312 0.79681 0.90101
 C1905 C 0.26683 0.78984 0.88425
 C1906 C 0.26944 0.78488 0.86949
 C1907 C 0.27163 0.78031 0.85134
 C1908 C 0.27269 0.76190 0.84601
 C1909 C 0.27245 0.75771 0.82813
 C1910 C 0.27091 0.77193 0.81547
 C1911 C 0.27073 0.79040 0.82101
 C1912 C 0.27110 0.79453 0.83879
 H1913 H 0.23268 0.82765 0.91983
 H1914 H 0.27777 0.80063 0.94564
 H1915 H 0.27244 0.81849 0.97206
 H1916 H 0.22728 0.84569 0.94579
 H1917 H 0.27304 0.75077 0.85564
 H1918 H 0.27250 0.74336 0.82426
 H1919 H 0.26967 0.80167 0.81161
 H1920 H 0.27027 0.80882 0.84275
 C1921 C 0.25161 0.81302 0.04656
 C1922 C 0.24643 0.82367 0.06071
 C1923 C 0.24324 0.84251 0.05814
 C1924 C 0.24466 0.85055 0.04140
 C1925 C 0.24905 0.83981 0.02669
 C1926 C 0.25303 0.82094 0.02983
 C1927 C 0.24430 0.81520 0.07780
 C1928 C 0.24249 0.80812 0.09212
 C1929 C 0.24046 0.80024 0.10906
 C1930 C 0.23895 0.79426 0.12383
 C1931 C 0.23758 0.78848 0.14193
 C1932 C 0.23811 0.80202 0.15479
 C1933 C 0.23794 0.79698 0.17246
 C1934 C 0.23724 0.77822 0.17768
 C1935 C 0.23615 0.76460 0.16468
 C1936 C 0.23640 0.76973 0.14687
 H1937 H 0.25451 0.79848 0.04842
 H1938 H 0.23940 0.85098 0.06907
 H1939 H 0.24167 0.86504 0.04030
 H1940 H 0.25756 0.81204 0.01955
 H1941 H 0.23897 0.81655 0.15117
 H1942 H 0.23860 0.80787 0.18205
 H1943 H 0.23563 0.75007 0.16827
 H1944 H 0.23598 0.75911 0.13700
 C1945 C 0.74150 0.34283 0.56527
 C1946 C 0.74473 0.32417 0.56890
 C1947 C 0.74962 0.31258 0.55532
 C1948 C 0.75080 0.31941 0.53815
 C1949 C 0.74690 0.33809 0.53399
 C1950 C 0.74269 0.34977 0.54808
 C1951 C 0.74302 0.31683 0.58651
 C1952 C 0.74165 0.31064 0.60122
 C1953 C 0.74025 0.30366 0.61859
 C1954 C 0.73937 0.29832 0.63362
 C1955 C 0.73887 0.29312 0.65193
 C1956 C 0.73568 0.27473 0.65740
 C1957 C 0.73612 0.27001 0.67531
 C1958 C 0.73987 0.28365 0.68791
 C1959 C 0.74269 0.30210 0.68218
 C1960 C 0.74219 0.30674 0.66441
 H1961 H 0.73785 0.35202 0.57573
 H1962 H 0.75252 0.29818 0.55798
 H1963 H 0.75514 0.30984 0.52834
 H1964 H 0.73967 0.36417 0.54615
 H1965 H 0.73309 0.26403 0.64784
 H1966 H 0.73392 0.25570 0.67926
 H1967 H 0.74548 0.31304 0.69144
 H1968 H 0.74465 0.32101 0.66039
 C1969 C 0.27508 0.16157 0.55691
 C1970 C 0.26719 0.17855 0.56066
 C1971 C 0.25647 0.18741 0.54793
 C1972 C 0.25412 0.17962 0.53137
 C1973 C 0.26249 0.16284 0.52729
 C1974 C 0.27273 0.15376 0.54036
 C1975 C 0.27045 0.18704 0.57742
 C1976 C 0.27327 0.19397 0.59150
 C1977 C 0.27645 0.20161 0.60823
 C1978 C 0.27882 0.20741 0.62284
 C1979 C 0.28094 0.21311 0.64078
 C1980 C 0.28173 0.23187 0.64526
 C1981 C 0.28174 0.23699 0.66294
 C1982 C 0.28077 0.22336 0.67624
 C1983 C 0.28083 0.20460 0.67153
 C1984 C 0.28092 0.19956 0.65398
 H1985 H 0.28341 0.15456 0.56665
 H1986 H 0.25018 0.20050 0.55069
 H1987 H 0.24599 0.18688 0.52165
 H1988 H 0.27961 0.14108 0.53761
 H1989 H 0.28173 0.24250 0.63514
 H1990 H 0.28159 0.25152 0.66617
 H1991 H 0.28021 0.19376 0.68144
 H1992 H 0.28033 0.18502 0.65071
 C1993 C 0.77437 0.66182 0.05921
 C1994 C 0.76702 0.67906 0.06298
 C1995 C 0.75726 0.68863 0.05000
 C1996 C 0.75536 0.68128 0.03321
 C1997 C 0.76323 0.66425 0.02912
 C1998 C 0.77245 0.65445 0.04241
 C1999 C 0.76984 0.68709 0.08001
 C2000 C 0.77227 0.69369 0.09431
 C2001 C 0.77500 0.70100 0.11126
 C2002 C 0.77700 0.70655 0.12601
 C2003 C 0.77876 0.71196 0.14407
 C2004 C 0.78001 0.73063 0.14882
 C2005 C 0.77998 0.73549 0.16658
 C2006 C 0.77850 0.72170 0.17969
 C2007 C 0.77799 0.70302 0.17472
 C2008 C 0.77813 0.69822 0.15710
 H2009 H 0.78194 0.65425 0.06914
 H2010 H 0.75138 0.70191 0.05277
 H2011 H 0.74794 0.68908 0.02335
 H2012 H 0.77886 0.64150 0.03971
 H2013 H 0.78050 0.74140 0.13884
 H2014 H 0.78029 0.74998 0.17000
 H2015 H 0.77700 0.69203 0.18447
 H2016 H 0.77721 0.68375 0.15363
 C2017 C 0.15821 0.55470 0.24336
 C2018 C 0.15069 0.57148 0.24832
 C2019 C 0.13326 0.57150 0.25600
 C2020 C 0.12342 0.55489 0.25874
 C2021 C 0.13098 0.53780 0.25421
 C2022 C 0.14839 0.53804 0.24609
 C2023 C 0.16070 0.58871 0.24536
 C2024 C 0.16898 0.60322 0.24317
 C2025 C 0.17868 0.62031 0.24114
 C2026 C 0.18702 0.63493 0.24011
 C2027 C 0.19711 0.65236 0.24000
 C2028 C 0.19499 0.66535 0.22637
 C2029 C 0.20409 0.68266 0.22713
 C2030 C 0.21530 0.68719 0.24163
 C2031 C 0.21762 0.67384 0.25501
 C2032 C 0.20862 0.65662 0.25418
 H2033 H 0.17157 0.55450 0.23714
 H2034 H 0.12715 0.58442 0.25966
 H2035 H 0.10970 0.55551 0.26408
 H2036 H 0.15432 0.52547 0.24139
 H2037 H 0.18606 0.66224 0.21533
 H2038 H 0.20193 0.69264 0.21667
 H2039 H 0.22620 0.67677 0.26633
 H2040 H 0.21040 0.64673 0.26481
 C2041 C 0.66244 0.06061 0.75247
 C2042 C 0.65360 0.07727 0.75551
 C2043 C 0.63505 0.07693 0.76028
 C2044 C 0.62537 0.06008 0.76197
 C2045 C 0.63411 0.04314 0.75922
 C2046 C 0.65278 0.04371 0.75415
 C2047 C 0.66345 0.09473 0.75358
 C2048 C 0.67154 0.10945 0.75217
 C2049 C 0.68095 0.12677 0.75097
 C2050 C 0.68901 0.14156 0.75054
 C2051 C 0.69874 0.15917 0.75098
 C2052 C 0.69769 0.17183 0.73695
 C2053 C 0.70674 0.18914 0.73795
 C2054 C 0.71688 0.19401 0.75304
 C2055 C 0.71799 0.18105 0.76693
 C2056 C 0.70902 0.16383 0.76588
 H2057 H 0.67674 0.06070 0.74853
 H2058 H 0.62797 0.08972 0.76249
 H2059 H 0.61088 0.06032 0.76517
 H2060 H 0.65993 0.03128 0.75095
 H2061 H 0.68974 0.16841 0.72535
 H2062 H 0.70553 0.19880 0.72706
 H2063 H 0.72570 0.18422 0.77873
 H2064 H 0.70995 0.15419 0.77682
 C2065 C 0.86258 0.06564 0.24097
 C2066 C 0.84741 0.06558 0.25216
 C2067 C 0.84276 0.04953 0.26169
 C2068 C 0.85325 0.03365 0.26009
 C2069 C 0.86841 0.03336 0.24861
 C2070 C 0.87310 0.04978 0.23934
 C2071 C 0.83700 0.08217 0.25422
 C2072 C 0.82845 0.09618 0.25581
 C2073 C 0.81853 0.11269 0.25736
 C2074 C 0.81009 0.12684 0.25825
 C2075 C 0.79996 0.14378 0.25857
 C2076 C 0.80270 0.15651 0.27206
 C2077 C 0.79340 0.17330 0.27175
 C2078 C 0.78129 0.17759 0.25788
 C2079 C 0.77844 0.16452 0.24456
 C2080 C 0.78769 0.14778 0.24493
 H2081 H 0.86652 0.07809 0.23375
 H2082 H 0.83122 0.04938 0.27061
 H2083 H 0.84972 0.02169 0.26815
 H2084 H 0.88521 0.05071 0.23121
 H2085 H 0.81221 0.15359 0.28268
 H2086 H 0.79598 0.18306 0.28216
 H2087 H 0.76921 0.16728 0.23369
 H2088 H 0.78546 0.13806 0.23441
 C2089 C 0.36720 0.56997 0.74283
 C2090 C 0.34935 0.56954 0.74956
 C2091 C 0.34146 0.55271 0.75525
 C2092 C 0.35140 0.53638 0.75431
 C2093 C 0.36939 0.53659 0.74743
 C2094 C 0.37716 0.55370 0.74188
 C2095 C 0.33937 0.58648 0.75092
 C2096 C 0.33127 0.60083 0.75190
 C2097 C 0.32193 0.61775 0.75271
 C2098 C 0.31398 0.63223 0.75297
 C2099 C 0.30440 0.64948 0.75259
 C2100 C 0.30710 0.66250 0.76584
 C2101 C 0.29804 0.67942 0.76503
 C2102 C 0.28620 0.68353 0.75089
 C2103 C 0.28353 0.67025 0.73773
 C2104 C 0.29254 0.65340 0.73860
 H2105 H 0.37354 0.58293 0.73853
 H2106 H 0.32771 0.55225 0.76068
 H2107 H 0.34506 0.52385 0.75949
 H2108 H 0.39115 0.55454 0.73708
 H2109 H 0.31629 0.65964 0.77672
 H2110 H 0.30047 0.68933 0.77534
 H2111 H 0.27450 0.67287 0.72667
 H2112 H 0.29036 0.64346 0.72826
 C2113 C 0.35368 0.44270 0.75715
 C2114 C 0.36259 0.43010 0.74651
 C2115 C 0.37885 0.43555 0.73795
 C2116 C 0.38597 0.45358 0.73977
 C2117 C 0.37689 0.46645 0.75016
 C2118 C 0.36075 0.46073 0.75897
 C2119 C 0.35472 0.41179 0.74409
 C2120 C 0.34770 0.39664 0.74226
 C2121 C 0.33896 0.37905 0.74055
 C2122 C 0.33102 0.36423 0.73969
 C2123 C 0.32094 0.34680 0.73968
 C2124 C 0.32302 0.33399 0.72624
 C2125 C 0.31315 0.31707 0.72668
 C2126 C 0.30110 0.31278 0.74061
 C2127 C 0.29909 0.32587 0.75394
 C2128 C 0.30890 0.34267 0.75345
 H2129 H 0.34111 0.43866 0.76389
 H2130 H 0.38586 0.42597 0.72963
 H2131 H 0.39822 0.45759 0.73253
 H2132 H 0.35353 0.47024 0.76718
 H2133 H 0.33231 0.33702 0.71549
 H2134 H 0.31509 0.30731 0.71626
 H2135 H 0.28995 0.32315 0.76486
 H2136 H 0.30713 0.35244 0.76391
 C2137 C 0.85046 0.94230 0.25267
 C2138 C 0.86200 0.92768 0.24906
 C2139 C 0.88090 0.93111 0.24734
 C2140 C 0.88816 0.94916 0.24864
 C2141 C 0.87659 0.96438 0.25141
 C2142 C 0.85760 0.96034 0.25395
 C2143 C 0.85427 0.90923 0.24714
 C2144 C 0.84727 0.89403 0.24564
 C2145 C 0.83847 0.87644 0.24422
 C2146 C 0.83048 0.86163 0.24354
 C2147 C 0.82037 0.84422 0.24366
 C2148 C 0.82183 0.83166 0.22991
 C2149 C 0.81192 0.81478 0.23042
 C2150 C 0.80043 0.81026 0.24471
 C2151 C 0.79903 0.82309 0.25835
 C2152 C 0.80889 0.83986 0.25780
 H2153 H 0.83582 0.93980 0.25442
 H2154 H 0.89006 0.91984 0.24478
 H2155 H 0.90281 0.95074 0.24699
 H2156 H 0.84794 0.97089 0.25715
 H2157 H 0.83067 0.83488 0.21887
 H2158 H 0.81339 0.80522 0.21975
 H2159 H 0.79034 0.82017 0.26957
 H2160 H 0.80759 0.84943 0.26850
 C2161 C 0.62623 0.93911 0.76670
 C2162 C 0.64390 0.93615 0.76026
 C2163 C 0.65435 0.95115 0.75373
 C2164 C 0.64725 0.96899 0.75374
 C2165 C 0.62953 0.97221 0.76036
 C2166 C 0.61909 0.95695 0.76671
 C2167 C 0.65129 0.91775 0.76013
 C2168 C 0.65764 0.90245 0.75981
 C2169 C 0.66529 0.88461 0.75912
 C2170 C 0.67198 0.86950 0.75816
 C2171 C 0.68018 0.85159 0.75644
 C2172 C 0.68621 0.84170 0.77123
 C2173 C 0.69475 0.82463 0.76933
 C2174 C 0.69742 0.81723 0.75259
 C2175 C 0.69106 0.82722 0.73785
 C2176 C 0.68254 0.84422 0.73979
 H2177 H 0.61795 0.92761 0.77174
 H2178 H 0.66799 0.94906 0.74854
 H2179 H 0.65559 0.98018 0.74826
 H2180 H 0.60547 0.95866 0.77188
 H2181 H 0.68447 0.84725 0.78420
 H2182 H 0.69943 0.81736 0.78096
 H2183 H 0.69282 0.82201 0.72476
 H2184 H 0.67796 0.85171 0.72824
 C2185 C 0.15158 0.44623 0.25033
 C2186 C 0.14164 0.43131 0.25769
 C2187 C 0.12427 0.43426 0.26484
 C2188 C 0.11691 0.45202 0.26469
 C2189 C 0.12685 0.46718 0.25746
 C2190 C 0.14427 0.46397 0.25017
 C2191 C 0.14924 0.41300 0.25766
 C2192 C 0.15583 0.39780 0.25736
 C2193 C 0.16380 0.38012 0.25661
 C2194 C 0.17079 0.36516 0.25552
 C2195 C 0.17939 0.34748 0.25355
 C2196 C 0.18447 0.34176 0.23687
 C2197 C 0.19316 0.32489 0.23473
 C2198 C 0.19697 0.31337 0.24928
 C2199 C 0.19168 0.31916 0.26602
 C2200 C 0.18296 0.33611 0.26813
 H2201 H 0.16497 0.44413 0.24460
 H2202 H 0.11639 0.42283 0.27053
 H2203 H 0.10356 0.45377 0.27042
 H2204 H 0.15219 0.47509 0.24405
 H2205 H 0.18180 0.35041 0.22548
 H2206 H 0.19699 0.32095 0.22164
 H2207 H 0.19435 0.31067 0.27751
 H2208 H 0.17911 0.34038 0.28112
 C2209 C 0.05565 0.24179 0.81218
 C2210 C 0.06635 0.22599 0.81270
 C2211 C 0.06273 0.21203 0.82508
 C2212 C 0.04890 0.21415 0.83745
 C2213 C 0.03854 0.23043 0.83765
 C2214 C 0.04181 0.24396 0.82450
 C2215 C 0.08261 0.22530 0.80228
 C2216 C 0.09700 0.22534 0.79465
 C2217 C 0.11454 0.22604 0.78704
 C2218 C 0.12998 0.22712 0.78157
 C2219 C 0.14876 0.22886 0.77612
 C2220 C 0.16233 0.21925 0.78530
 C2221 C 0.18081 0.22184 0.78092
 C2222 C 0.18594 0.23413 0.76728
 C2223 C 0.17214 0.24363 0.75804
 C2224 C 0.15365 0.24102 0.76248
 H2225 H 0.05850 0.25278 0.80274
 H2226 H 0.07111 0.19981 0.82564
 H2227 H 0.04706 0.20319 0.84699
 H2228 H 0.03407 0.25660 0.82422
 H2229 H 0.15863 0.20992 0.79599
 H2230 H 0.19106 0.21421 0.78822
 H2231 H 0.17560 0.25315 0.74744
 H2232 H 0.14321 0.24864 0.75542
 C2233 C 0.55069 0.73322 0.31229
 C2234 C 0.56676 0.72770 0.32083
 C2235 C 0.56692 0.72506 0.33896
 C2236 C 0.55112 0.72821 0.34860
 C2237 C 0.53482 0.73403 0.34029
 C2238 C 0.53478 0.73637 0.32191
 C2239 C 0.58358 0.72611 0.31137
 C2240 C 0.59820 0.72538 0.30419
 C2241 C 0.61577 0.72525 0.29667
 C2242 C 0.63111 0.72573 0.29091
 C2243 C 0.64966 0.72695 0.28471
 C2244 C 0.66350 0.71739 0.29356
 C2245 C 0.68179 0.71953 0.28829
 C2246 C 0.68642 0.73133 0.27412
 C2247 C 0.67232 0.74074 0.26521
 C2248 C 0.65405 0.73857 0.27052
 H2249 H 0.55056 0.73550 0.29823
 H2250 H 0.57938 0.72097 0.34570
 H2251 H 0.55170 0.72645 0.36270
 H2252 H 0.52286 0.74099 0.31478
 H2253 H 0.66019 0.70847 0.30465
 H2254 H 0.69227 0.71202 0.29538
 H2255 H 0.67538 0.74988 0.25422
 H2256 H 0.64340 0.74612 0.26370
 C2257 C 0.55576 0.28209 0.16779
 C2258 C 0.55423 0.27633 0.18523
 C2259 C 0.53785 0.26807 0.19125
 C2260 C 0.52306 0.26528 0.17970
 C2261 C 0.52453 0.27083 0.16197
 C2262 C 0.54115 0.27922 0.15624
 C2263 C 0.57043 0.27670 0.19599
 C2264 C 0.58487 0.27629 0.20369
 C2265 C 0.60247 0.27498 0.21121
 C2266 C 0.61791 0.27317 0.21653
 C2267 C 0.63656 0.27025 0.22185
 C2268 C 0.64037 0.25759 0.23529
 C2269 C 0.65857 0.25365 0.23956
 C2270 C 0.67320 0.26230 0.23036
 C2271 C 0.66919 0.27509 0.21690
 C2272 C 0.65096 0.27901 0.21267
 H2273 H 0.56857 0.28808 0.16292
 H2274 H 0.53676 0.26312 0.20466
 H2275 H 0.51099 0.25801 0.18460
 H2276 H 0.54310 0.28297 0.14259
 H2277 H 0.62927 0.25060 0.24231
 H2278 H 0.66116 0.24377 0.25002
 H2279 H 0.68011 0.28208 0.20964
 H2280 H 0.64808 0.28869 0.20211
 C2281 C 0.05333 0.77617 0.66756
 C2282 C 0.05224 0.76944 0.68473
 C2283 C 0.03614 0.76048 0.69060
 C2284 C 0.02119 0.75800 0.67915
 C2285 C 0.02224 0.76456 0.66170
 C2286 C 0.03859 0.77358 0.65611
 C2287 C 0.06861 0.76984 0.69525
 C2288 C 0.08329 0.76978 0.70256
 C2289 C 0.10123 0.76922 0.70945
 C2290 C 0.11698 0.76829 0.71416
 C2291 C 0.13603 0.76665 0.71872
 C2292 C 0.14125 0.75454 0.73215
 C2293 C 0.15987 0.75200 0.73580
 C2294 C 0.17350 0.76152 0.72598
 C2295 C 0.16808 0.77372 0.71251
 C2296 C 0.14943 0.77624 0.70890
 H2297 H 0.06591 0.78273 0.66279
 H2298 H 0.03539 0.75481 0.70378
 H2299 H 0.00933 0.75022 0.68385
 H2300 H 0.04025 0.77810 0.64263
 H2301 H 0.13095 0.74692 0.73969
 H2302 H 0.16355 0.74253 0.74629
 H2303 H 0.17820 0.78133 0.70477
 H2304 H 0.14546 0.78551 0.69834
 C2305 C 0.93305 0.73100 0.66350
 C2306 C 0.91944 0.73676 0.65173
 C2307 C 0.92437 0.74599 0.63624
 C2308 C 0.94285 0.74992 0.63270
 C2309 C 0.95665 0.74474 0.64466
 C2310 C 0.95158 0.73490 0.65997
 C2311 C 0.90041 0.73508 0.65638
 C2312 C 0.88454 0.73482 0.66072
 C2313 C 0.86628 0.73576 0.66647
 C2314 C 0.85104 0.73749 0.67213
 C2315 C 0.83347 0.74044 0.67988
 C2316 C 0.81916 0.72734 0.67821
 C2317 C 0.80269 0.72964 0.68720
 C2318 C 0.80048 0.74504 0.69804
 C2319 C 0.81478 0.75840 0.69914
 C2320 C 0.83115 0.75609 0.69011
 H2321 H 0.92932 0.72393 0.67561
 H2322 H 0.91389 0.75071 0.62716
 H2323 H 0.94614 0.75763 0.62093
 H2324 H 0.96189 0.73040 0.66930
 H2325 H 0.82089 0.71515 0.67034
 H2326 H 0.79196 0.71908 0.68611
 H2327 H 0.81350 0.77044 0.70730
 H2328 H 0.84220 0.76628 0.69147
 C2329 C 0.42673 0.25110 0.13703
 C2330 C 0.42212 0.24169 0.15254
 C2331 C 0.43595 0.23623 0.16420
 C2332 C 0.45435 0.24057 0.16057
 C2333 C 0.45910 0.25051 0.14523
 C2334 C 0.44513 0.25543 0.13336
 C2335 C 0.40319 0.23921 0.15731
 C2336 C 0.38744 0.23801 0.16196
 C2337 C 0.36931 0.23760 0.16825
 C2338 C 0.35416 0.23806 0.17440
 C2339 C 0.33660 0.23946 0.18265
 C2340 C 0.33445 0.25259 0.19570
 C2341 C 0.31774 0.25376 0.20442
 C2342 C 0.30292 0.24176 0.20020
 C2343 C 0.30513 0.22875 0.18684
 C2344 C 0.32193 0.22761 0.17813
 H2345 H 0.41608 0.25556 0.12802
 H2346 H 0.43248 0.22901 0.17630
 H2347 H 0.46484 0.23627 0.16981
 H2348 H 0.44826 0.26317 0.12155
 H2349 H 0.34577 0.26182 0.19927
 H2350 H 0.31652 0.26395 0.21459
 H2351 H 0.29401 0.21930 0.18328
 H2352 H 0.32352 0.21739 0.16804
 C2353 C 0.44105 0.77162 0.35202
 C2354 C 0.43271 0.76291 0.33771
 C2355 C 0.44195 0.74912 0.32883
 C2356 C 0.45953 0.74404 0.33424
 C2357 C 0.46802 0.75270 0.34863
 C2358 C 0.45863 0.76653 0.35746
 C2359 C 0.41466 0.76796 0.33200
 C2360 C 0.39956 0.77151 0.32661
 C2361 C 0.38202 0.77464 0.31947
 C2362 C 0.36722 0.77625 0.31259
 C2363 C 0.34996 0.77677 0.30344
 C2364 C 0.34911 0.77041 0.28626
 C2365 C 0.33223 0.76896 0.27760
 C2366 C 0.31593 0.77389 0.28603
 C2367 C 0.31696 0.78084 0.30315
 C2368 C 0.33393 0.78219 0.31185
 H2369 H 0.43401 0.78237 0.35892
 H2370 H 0.43554 0.74227 0.31775
 H2371 H 0.46638 0.73320 0.32733
 H2372 H 0.46500 0.77368 0.36830
 H2373 H 0.36146 0.76613 0.27968
 H2374 H 0.33195 0.76371 0.26438
 H2375 H 0.30464 0.78472 0.30998
 H2376 H 0.33449 0.78703 0.32521
 C2377 C 0.95332 0.26009 0.83130
 C2378 C 0.93975 0.26113 0.84406
 C2379 C 0.94381 0.25647 0.86142
 C2380 C 0.96146 0.25077 0.86605
 C2381 C 0.97543 0.24952 0.85331
 C2382 C 0.97094 0.25436 0.83582
 C2383 C 0.92148 0.26614 0.83899
 C2384 C 0.90627 0.26978 0.83391
 C2385 C 0.88868 0.27317 0.82700
 C2386 C 0.87385 0.27518 0.82025
 C2387 C 0.85652 0.27636 0.81129
 C2388 C 0.84126 0.28396 0.81938
 C2389 C 0.82416 0.28371 0.81085
 C2390 C 0.82220 0.27575 0.79420
 C2391 C 0.83778 0.26856 0.78607
 C2392 C 0.85479 0.26888 0.79458
 H2393 H 0.95028 0.26369 0.81779
 H2394 H 0.93326 0.25700 0.87136
 H2395 H 0.96359 0.24680 0.87955
 H2396 H 0.98103 0.25441 0.82550
 H2397 H 0.84249 0.28972 0.83237
 H2398 H 0.81242 0.28933 0.81747
 H2399 H 0.83680 0.26242 0.77324
 H2400 H 0.86655 0.26294 0.78824
 C2401 C 0.58184 1.00538 0.69620
 C2402 C 0.56413 0.99783 0.69856
 C2403 C 0.55814 0.99299 0.71546
 C2404 C 0.56976 0.99598 0.72994
 C2405 C 0.58744 1.00393 0.72763
 C2406 C 0.59340 1.00840 0.71057
 C2407 C 0.55243 0.99524 0.68344
 C2408 C 0.54366 0.99348 0.67007
 C2409 C 0.53465 0.99166 0.65370
 C2410 C 0.52811 0.99011 0.63922
 C2411 C 0.52181 0.98804 0.62140
 C2412 C 0.50665 0.99772 0.61491
 C2413 C 0.50165 0.99646 0.59718
 C2414 C 0.51188 0.98560 0.58574
 C2415 C 0.52688 0.97572 0.59254
 C2416 C 0.53176 0.97694 0.61018
 H2417 H 0.58670 1.00904 0.68320
 H2418 H 0.54447 0.98709 0.71744
 H2419 H 0.56477 0.99254 0.74293
 H2420 H 0.60706 1.01419 0.70832
 H2421 H 0.49890 1.00646 0.62346
 H2422 H 0.49008 1.00428 0.59237
 H2423 H 0.53502 0.96714 0.58419
 H2424 H 0.54356 0.96944 0.61501
 C2425 C 0.07665 0.49795 1.19390
 C2426 C 0.05918 0.49014 1.19699
 C2427 C 0.05385 0.48568 1.21417
 C2428 C 0.06592 0.48927 1.22820
 C2429 C 0.08337 0.49745 1.22515
 C2430 C 0.08865 0.50157 1.20782
 C2431 C 0.04702 0.48692 1.18231
 C2432 C 0.03783 0.48467 1.16925
 C2433 C 0.02834 0.48238 1.15319
 C2434 C 0.02140 0.48057 1.13890
 C2435 C 0.01466 0.47843 1.12123
 C2436 C 0.00099 0.48990 1.11438
 C2437 C -0.00373 0.48914 1.09656
 C2438 C 0.00536 0.47703 1.08539
 C2439 C 0.01858 0.46513 1.09259
 C2440 C 0.02317 0.46584 1.11034
 H2441 H 0.08100 0.50134 1.18067
 H2442 H 0.04036 0.47960 1.21672
 H2443 H 0.06143 0.48610 1.24141
 H2444 H 0.10212 0.50753 1.20500
 H2445 H -0.00559 0.49982 1.12266
 H2446 H -0.01389 0.49854 1.09140
 H2447 H 0.02576 0.45556 1.08440
 H2448 H 0.03381 0.45695 1.11545
 C2449 C -0.06480 0.00470 1.19296
 C2450 C -0.06236 -0.01383 1.18865
 C2451 C -0.07004 -0.02787 1.19927
 C2452 C -0.08041 -0.02337 1.21395
 C2453 C -0.08333 -0.00479 1.21811
 C2454 C -0.07520 0.00920 1.20758
 C2455 C -0.05316 -0.01826 1.17262
 C2456 C -0.04612 -0.02138 1.15874
 C2457 C -0.03874 -0.02424 1.14194
 C2458 C -0.03331 -0.02588 1.12716
 C2459 C -0.02805 -0.02670 1.10903
 C2460 C -0.00948 -0.02676 1.10414
 C2461 C -0.00466 -0.02507 1.08642
 C2462 C -0.01839 -0.02306 1.07348
 C2463 C -0.03699 -0.02388 1.07853
 C2464 C -0.04175 -0.02569 1.09614
 H2465 H -0.05899 0.01569 1.18481
 H2466 H -0.06841 -0.04226 1.19598
 H2467 H -0.08671 -0.03444 1.22159
 H2468 H -0.07699 0.02364 1.21056
 H2469 H 0.00126 -0.02744 1.11402
 H2470 H 0.00978 -0.02439 1.08296
 H2471 H -0.04791 -0.02250 1.06890
 H2472 H -0.05615 -0.02559 1.09975
 C2473 C 0.41746 0.49366 0.68408
 C2474 C 0.43510 0.48653 0.68619
 C2475 C 0.44260 0.48447 0.70303
 C2476 C 0.43249 0.48965 0.71768
 C2477 C 0.41483 0.49703 0.71561
 C2478 C 0.40739 0.49886 0.69864
 C2479 C 0.44537 0.48185 0.67087
 C2480 C 0.45309 0.47860 0.65735
 C2481 C 0.46100 0.47567 0.64080
 C2482 C 0.46667 0.47403 0.62611
 C2483 C 0.47203 0.47327 0.60802
 C2484 C 0.49061 0.47360 0.60318
 C2485 C 0.49544 0.47546 0.58548
 C2486 C 0.48170 0.47726 0.57252
 C2487 C 0.46310 0.47605 0.57751
 C2488 C 0.45833 0.47406 0.59510
 H2489 H 0.41149 0.49527 0.67112
 H2490 H 0.45627 0.47902 0.70482
 H2491 H 0.43863 0.48821 0.73057
 H2492 H 0.39369 0.50410 0.69660
 H2493 H 0.50134 0.47311 0.61308
 H2494 H 0.50988 0.47643 0.58204
 H2495 H 0.45218 0.47726 0.56786
 H2496 H 0.44392 0.47387 0.59868
 C2497 C 0.44515 0.52222 -0.20585
 C2498 C 0.44842 0.50591 -0.19643
 C2499 C 0.43965 0.48935 -0.20151
 C2500 C 0.42710 0.48929 -0.21555
 C2501 C 0.42305 0.50586 -0.22443
 C2502 C 0.43260 0.52221 -0.21975
 C2503 C 0.45914 0.50679 -0.18049
 C2504 C 0.46718 0.50823 -0.16668
 C2505 C 0.47541 0.51037 -0.14999
 C2506 C 0.48126 0.51222 -0.13528
 C2507 C 0.48666 0.51408 -0.11718
 C2508 C 0.47292 0.51417 -0.10446
 C2509 C 0.47761 0.51428 -0.08673
 C2510 C 0.49618 0.51432 -0.08136
 C2511 C 0.50999 0.51509 -0.09421
 C2512 C 0.50523 0.51488 -0.11206
 H2513 H 0.45180 0.53512 -0.20204
 H2514 H 0.44196 0.47665 -0.19423
 H2515 H 0.41987 0.47655 -0.21884
 H2516 H 0.42997 0.53512 -0.22657
 H2517 H 0.45851 0.51363 -0.10823
 H2518 H 0.46662 0.51380 -0.07720
 H2519 H 0.52440 0.51501 -0.09049
 H2520 H 0.51600 0.51483 -0.12181
 C2521 C -0.06183 0.98556 0.30044
 C2522 C -0.05308 1.00208 0.30568
 C2523 C -0.05661 1.01853 0.29658
 C2524 C -0.06930 1.01867 0.28278
 C2525 C -0.07874 1.00233 0.27788
 C2526 C -0.07453 0.98566 0.28650
 C2527 C -0.04190 1.00273 0.32134
 C2528 C -0.03337 1.00408 0.33490
 C2529 C -0.02450 1.00619 0.35131
 C2530 C -0.01809 1.00810 0.36581
 C2531 C -0.01205 1.01014 0.38372
 C2532 C 0.00657 1.00900 0.38850
 C2533 C 0.01174 1.00922 0.40625
 C2534 C -0.00173 1.01038 0.41934
 C2535 C -0.02026 1.01235 0.41429
 C2536 C -0.02534 1.01225 0.39666
 H2537 H -0.05931 0.97274 0.30746
 H2538 H -0.04997 1.03140 0.30050
 H2539 H -0.07199 1.03167 0.27615
 H2540 H -0.08165 0.97291 0.28302
 H2541 H 0.01699 1.00737 0.37859
 H2542 H 0.02608 1.00754 0.40976
 H2543 H -0.03095 1.01338 0.42403
 H2544 H -0.03977 1.01322 0.39315
 C2545 C 0.06543 0.47905 0.30639
 C2546 C 0.05753 0.49406 0.31472
 C2547 C 0.06108 0.51201 0.30838
 C2548 C 0.07283 0.51501 0.29415
 C2549 C 0.08135 0.50008 0.28603
 C2550 C 0.07717 0.48203 0.29209
 C2551 C 0.04695 0.49131 0.33052
 C2552 C 0.03881 0.48960 0.34422
 C2553 C 0.03023 0.48830 0.36080
 C2554 C 0.02394 0.48786 0.37541
 C2555 C 0.01793 0.48823 0.39338
 C2556 C 0.03123 0.48979 0.40661
 C2557 C 0.02598 0.49214 0.42395
 C2558 C 0.00725 0.49296 0.42846
 C2559 C -0.00614 0.49060 0.41522
 C2560 C -0.00081 0.48836 0.39773
 H2561 H 0.06289 0.46508 0.31121
 H2562 H 0.05507 0.52377 0.31469
 H2563 H 0.07535 0.52907 0.28961
 H2564 H 0.08345 0.47024 0.28627
 H2565 H 0.04575 0.48972 0.40345
 H2566 H 0.03666 0.49375 0.43381
 H2567 H -0.02066 0.49123 0.41826
 H2568 H -0.01125 0.48723 0.38759
 C2569 C 0.56324 0.01618 -0.18896
 C2570 C 0.55989 -0.00188 -0.18281
 C2571 C 0.56795 -0.01670 -0.19129
 C2572 C 0.57974 -0.01343 -0.20550
 C2573 C 0.58378 0.00472 -0.21133
 C2574 C 0.57504 0.01946 -0.20311
 C2575 C 0.54943 -0.00491 -0.16697
 C2576 C 0.54143 -0.00683 -0.15323
 C2577 C 0.53303 -0.00834 -0.13659
 C2578 C 0.52685 -0.00895 -0.12194
 C2579 C 0.52090 -0.00876 -0.10394
 C2580 C 0.50217 -0.00891 -0.09955
 C2581 C 0.49685 -0.00684 -0.08205
 C2582 C 0.51023 -0.00440 -0.06881
 C2583 C 0.52897 -0.00494 -0.07336
 C2584 C 0.53422 -0.00711 -0.09073
 H2585 H 0.55710 0.02778 -0.18254
 H2586 H 0.56556 -0.03075 -0.18660
 H2587 H 0.58621 -0.02507 -0.21140
 H2588 H 0.57750 0.03360 -0.20747
 H2589 H 0.49172 -0.01012 -0.10968
 H2590 H 0.48233 -0.00642 -0.07899
 H2591 H 0.53966 -0.00327 -0.06352
 H2592 H 0.54874 -0.00697 -0.09392
 C2593 C 0.71057 0.60211 -0.02485
 C2594 C 0.70046 0.59864 -0.00961
 C2595 C 0.70654 0.60623 0.00628
 C2596 C 0.72239 0.61769 0.00678
 C2597 C 0.73217 0.62178 -0.00866
 C2598 C 0.72629 0.61355 -0.02439
 C2599 C 0.68349 0.58792 -0.01066
 C2600 C 0.66921 0.57917 -0.01212
 C2601 C 0.65243 0.56905 -0.01406
 C2602 C 0.63808 0.56043 -0.01551
 C2603 C 0.62092 0.55003 -0.01654
 C2604 C 0.61686 0.53665 -0.00369
 C2605 C 0.59984 0.52733 -0.00372
 C2606 C 0.58647 0.53121 -0.01664
 C2607 C 0.59085 0.54425 -0.02989
 C2608 C 0.60797 0.55364 -0.02980
 H2609 H 0.70611 0.59627 -0.03720
 H2610 H 0.69883 0.60364 0.01819
 H2611 H 0.72655 0.62391 0.01904
 H2612 H 0.73374 0.61616 -0.03644
 H2613 H 0.62674 0.53368 0.00661
 H2614 H 0.59703 0.51731 0.00664
 H2615 H 0.58086 0.54762 -0.03996
 H2616 H 0.61094 0.56398 -0.03983
 C2617 C 0.21146 1.09715 0.47510
 C2618 C 0.20157 1.09358 0.49046
 C2619 C 0.20732 1.10188 0.50614
 C2620 C 0.22261 1.11410 0.50630
 C2621 C 0.23213 1.11826 0.49073
 C2622 C 0.22661 1.10935 0.47523
 C2623 C 0.18509 1.08208 0.48970
 C2624 C 0.17119 1.07271 0.48842
 C2625 C 0.15479 1.06195 0.48659
 C2626 C 0.14070 1.05289 0.48514
 C2627 C 0.12374 1.04218 0.48396
 C2628 C 0.11960 1.02892 0.49691
 C2629 C 0.10260 1.01952 0.49679
 C2630 C 0.08937 1.02322 0.48369
 C2631 C 0.09391 1.03607 0.47032
 C2632 C 0.11098 1.04553 0.47049
 H2633 H 0.20724 1.09078 0.46292
 H2634 H 0.19977 1.09923 0.51812
 H2635 H 0.22650 1.12083 0.51839
 H2636 H 0.23389 1.11200 0.46309
 H2637 H 0.12934 1.02617 0.50738
 H2638 H 0.09965 1.00968 0.50726
 H2639 H 0.08403 1.03933 0.46011
 H2640 H 0.11402 1.05577 0.46039
 C2641 C 0.18911 -0.10033 0.98715
 C2642 C 0.18388 -0.09732 1.00446
 C2643 C 0.19413 -0.10505 1.01822
 C2644 C 0.20938 -0.11591 1.01464
 C2645 C 0.21452 -0.11927 0.99727
 C2646 C 0.20429 -0.11118 0.98357
 C2647 C 0.16774 -0.08666 1.00789
 C2648 C 0.15402 -0.07784 1.01010
 C2649 C 0.13775 -0.06762 1.01191
 C2650 C 0.12374 -0.05897 1.01277
 C2651 C 0.10688 -0.04873 1.01290
 C2652 C 0.09381 -0.05176 1.02610
 C2653 C 0.07692 -0.04273 1.02536
 C2654 C 0.07286 -0.03060 1.01134
 C2655 C 0.08631 -0.02734 0.99840
 C2656 C 0.10315 -0.03633 0.99919
 H2657 H 0.18134 -0.09439 0.97637
 H2658 H 0.19021 -0.10288 1.03168
 H2659 H 0.21678 -0.12208 1.02547
 H2660 H 0.20804 -0.11321 0.97004
 H2661 H 0.09650 -0.06138 1.03675
 H2662 H 0.06688 -0.04564 1.03550
 H2663 H 0.08372 -0.01809 0.98743
 H2664 H 0.11312 -0.03388 0.98888
 C2665 C 0.68830 0.39709 0.49073
 C2666 C 0.68307 0.40147 0.50775
 C2667 C 0.69303 0.39443 0.52204
 C2668 C 0.70797 0.38286 0.51930
 C2669 C 0.71306 0.37810 0.50223
 C2670 C 0.70316 0.38553 0.48798
 C2671 C 0.66717 0.41276 0.51034
 C2672 C 0.65363 0.42201 0.51183
 C2673 C 0.63752 0.43263 0.51286
 C2674 C 0.62361 0.44150 0.51315
 C2675 C 0.60680 0.45184 0.51278
 C2676 C 0.59395 0.44981 0.52630
 C2677 C 0.57709 0.45886 0.52523
 C2678 C 0.57282 0.47002 0.51056
 C2679 C 0.58605 0.47230 0.49725
 C2680 C 0.60287 0.46327 0.49837
 H2681 H 0.68078 0.40248 0.47955
 H2682 H 0.68910 0.39767 0.53530
 H2683 H 0.71514 0.37725 0.53054
 H2684 H 0.70690 0.38243 0.47466
 H2685 H 0.59678 0.44095 0.53750
 H2686 H 0.56725 0.45672 0.53569
 H2687 H 0.58329 0.48077 0.48577
 H2688 H 0.61267 0.46493 0.48780
 C2689 C -0.20059 0.39968 0.51382
 C2690 C -0.19451 0.40792 0.49809
 C2691 C -0.20361 0.40370 0.48242
 C2692 C -0.21826 0.39090 0.48231
 C2693 C -0.22405 0.38202 0.49790
 C2694 C -0.21538 0.38685 0.51374
 C2695 C -0.17842 0.42000 0.49761
 C2696 C -0.16480 0.42982 0.49649
 C2697 C -0.14869 0.44106 0.49475
 C2698 C -0.13484 0.45049 0.49330
 C2699 C -0.11815 0.46164 0.49201
 C2700 C -0.10521 0.45839 0.47891
 C2701 C -0.08842 0.46834 0.47859
 C2702 C -0.08433 0.48160 0.49146
 C2703 C -0.09772 0.48515 0.50419
 C2704 C -0.11445 0.47525 0.50445
 H2705 H -0.19365 0.40283 0.52605
 H2706 H -0.19914 0.41002 0.47018
 H2707 H -0.22491 0.38774 0.46995
 H2708 H -0.21953 0.38017 0.52591
 H2709 H -0.10790 0.44787 0.46921
 H2710 H -0.07840 0.46517 0.46869
 H2711 H -0.09510 0.49528 0.51428
 H2712 H -0.12433 0.47793 0.51463
 C2713 C 0.30082 -0.09702 0.01037
 C2714 C 0.30690 -0.08766 -0.00481
 C2715 C 0.29789 -0.09084 -0.02075
 C2716 C 0.28335 -0.10371 -0.02170
 C2717 C 0.27757 -0.11370 -0.00671
 C2718 C 0.28613 -0.10992 0.00945
 C2719 C 0.32298 -0.07558 -0.00452
 C2720 C 0.33663 -0.06576 -0.00502
 C2721 C 0.35280 -0.05455 -0.00610
 C2722 C 0.36674 -0.04519 -0.00703
 C2723 C 0.38356 -0.03421 -0.00779
 C2724 C 0.39663 -0.03722 -0.02082
 C2725 C 0.41354 -0.02750 -0.02065
 C2726 C 0.41762 -0.01471 -0.00737
 C2727 C 0.40412 -0.01138 0.00531
 C2728 C 0.38726 -0.02105 0.00508
 H2729 H 0.30770 -0.09469 0.02279
 H2730 H 0.30239 -0.08366 -0.03256
 H2731 H 0.27679 -0.10608 -0.03427
 H2732 H 0.28200 -0.11747 0.02116
 H2733 H 0.39394 -0.04740 -0.03084
 H2734 H 0.42365 -0.03051 -0.03052
 H2735 H 0.40674 -0.00162 0.01571
 H2736 H 0.37728 -0.01858 0.01523
 C2737 C 0.32273 1.10275 0.49102
 C2738 C 0.32349 1.09489 0.50783
 C2739 C 0.30991 1.09902 0.51997
 C2740 C 0.29583 1.11116 0.51545
 C2741 C 0.29512 1.11961 0.49870
 C2742 C 0.30869 1.11490 0.48646
 C2743 C 0.33818 1.08256 0.51249
 C2744 C 0.35065 1.07230 0.51594
 C2745 C 0.36547 1.06030 0.51928
 C2746 C 0.37827 1.05006 0.52129
 C2747 C 0.39372 1.03784 0.52238
 C2748 C 0.40673 1.03920 0.53599
 C2749 C 0.42267 1.02855 0.53573
 C2750 C 0.42582 1.01657 0.52173
 C2751 C 0.41229 1.01481 0.50853
 C2752 C 0.39641 1.02533 0.50888
 H2753 H 0.33302 1.09948 0.48139
 H2754 H 0.31023 1.09290 0.53300
 H2755 H 0.28573 1.11386 0.52529
 H2756 H 0.30849 1.12034 0.47322
 H2757 H 0.40484 1.04889 0.54649
 H2758 H 0.43288 1.03032 0.54600
 H2759 H 0.41421 1.00566 0.49762
 H2760 H 0.38649 1.02413 0.49828
 C2761 C -0.17831 0.60245 0.99111
 C2762 C -0.17730 0.59460 1.00791
 C2763 C -0.19029 0.59930 1.02045
 C2764 C -0.20400 0.61203 1.01630
 C2765 C -0.20486 0.62049 0.99958
 C2766 C -0.19195 0.61518 0.98695
 C2767 C -0.16283 0.58185 1.01214
 C2768 C -0.15042 0.57135 1.01510
 C2769 C -0.13557 0.55921 1.01777
 C2770 C -0.12267 0.54900 1.01918
 C2771 C -0.10702 0.53699 1.01957
 C2772 C -0.09557 0.53571 1.03438
 C2773 C -0.07951 0.52525 1.03387
 C2774 C -0.07467 0.51609 1.01846
 C2775 C -0.08663 0.51701 1.00390
 C2776 C -0.10262 0.52734 1.00447
 H2777 H -0.16849 0.59877 0.98119
 H2778 H -0.18978 0.59322 1.03347
 H2779 H -0.21366 0.61524 1.02639
 H2780 H -0.19236 0.62065 0.97372
 H2781 H -0.09878 0.54317 1.04615
 H2782 H -0.07055 0.52493 1.04526
 H2783 H -0.08342 0.51007 0.99185
 H2784 H -0.11133 0.52820 0.99293
 C2785 C 0.00206 0.71634 0.57957
 C2786 C 0.01015 0.69961 0.58425
 C2787 C 0.01603 0.69647 0.60150
 C2788 C 0.01351 0.70991 0.61414
 C2789 C 0.00499 0.72659 0.60965
 C2790 C -0.00048 0.72980 0.59220
 C2791 C 0.01114 0.68504 0.57180
 C2792 C 0.01136 0.67220 0.56200
 C2793 C 0.01097 0.65642 0.55148
 C2794 C 0.01014 0.64226 0.54345
 C2795 C 0.00864 0.62465 0.53514
 C2796 C 0.01889 0.60996 0.54174
 C2797 C 0.01585 0.59218 0.53540
 C2798 C 0.00245 0.58886 0.52236
 C2799 C -0.00735 0.60384 0.51536
 C2800 C -0.00432 0.62165 0.52180
 H2801 H -0.00257 0.71883 0.56625
 H2802 H 0.02215 0.68346 0.60525
 H2803 H 0.01770 0.70704 0.62752
 H2804 H -0.00672 0.74269 0.58830
 H2805 H 0.02886 0.61216 0.55216
 H2806 H 0.02378 0.58099 0.54094
 H2807 H -0.01773 0.60174 0.50529
 H2808 H -0.01244 0.63295 0.51674
 C2809 C 0.50426 0.21859 0.08200
 C2810 C 0.51230 0.20210 0.08752
 C2811 C 0.51806 0.19988 0.10492
 C2812 C 0.51555 0.21403 0.11686
 C2813 C 0.50715 0.23050 0.11151
 C2814 C 0.50172 0.23275 0.09392
 C2815 C 0.51349 0.18693 0.07574
 C2816 C 0.51392 0.17371 0.06640
 C2817 C 0.51377 0.15765 0.05627
 C2818 C 0.51309 0.14339 0.04838
 C2819 C 0.51167 0.12580 0.04000
 C2820 C 0.52121 0.11083 0.04704
 C2821 C 0.51826 0.09317 0.04034
 C2822 C 0.50567 0.09027 0.02652
 C2823 C 0.49659 0.10553 0.01915
 C2824 C 0.49953 0.12320 0.02592
 H2825 H 0.49971 0.22038 0.06855
 H2826 H 0.52415 0.18708 0.10933
 H2827 H 0.51969 0.21187 0.13037
 H2828 H 0.49557 0.24545 0.08936
 H2829 H 0.53055 0.11273 0.05802
 H2830 H 0.52562 0.08177 0.04621
 H2831 H 0.48684 0.10376 0.00848
 H2832 H 0.49198 0.13472 0.02050
 C2833 C 0.01385 0.19140 0.91662
 C2834 C -0.00445 0.18937 0.92202
 C2835 C -0.01817 0.19985 0.91396
 C2836 C -0.01362 0.21200 0.90018
 C2837 C 0.00463 0.21355 0.89428
 C2838 C 0.01838 0.20342 0.90284
 C2839 C -0.00911 0.17502 0.93444
 C2840 C -0.01205 0.16199 0.94401
 C2841 C -0.01432 0.14572 0.95411
 C2842 C -0.01527 0.13109 0.96173
 C2843 C -0.01527 0.11299 0.96959
 C2844 C -0.02524 0.09858 0.96167
 C2845 C -0.02308 0.08039 0.96751
 C2846 C -0.01084 0.07639 0.98133
 C2847 C -0.00139 0.09107 0.98965
 C2848 C -0.00355 0.10925 0.98374
 H2849 H 0.02454 0.18326 0.92272
 H2850 H -0.03240 0.19819 0.91792
 H2851 H -0.02446 0.21954 0.89369
 H2852 H 0.03260 0.20463 0.89873
 H2853 H -0.03420 0.10134 0.95058
 H2854 H -0.03071 0.06945 0.96093
 H2855 H 0.00809 0.08847 1.00036
 H2856 H 0.00438 0.12031 0.98982
 C2857 C 0.48754 0.68014 0.39791
 C2858 C 0.48456 0.68594 0.41504
 C2859 C 0.48537 0.70479 0.41895
 C2860 C 0.48964 0.71777 0.40580
 C2861 C 0.49327 0.71196 0.38869
 C2862 C 0.49187 0.69306 0.38480
 C2863 C 0.48217 0.67224 0.42861
 C2864 C 0.48104 0.65982 0.43917
 C2865 C 0.48067 0.64423 0.45035
 C2866 C 0.48102 0.63008 0.45875
 C2867 C 0.48210 0.61235 0.46726
 C2868 C 0.49546 0.60916 0.48017
 C2869 C 0.49829 0.59119 0.48645
 C2870 C 0.48791 0.57624 0.47969
 C2871 C 0.47410 0.57973 0.46715
 C2872 C 0.47124 0.59766 0.46098
 H2873 H 0.48699 0.66557 0.39479
 H2874 H 0.48323 0.70937 0.43222
 H2875 H 0.49085 0.73225 0.40917
 H2876 H 0.49437 0.68825 0.37168
 H2877 H 0.50408 0.62044 0.48495
 H2878 H 0.50899 0.58895 0.49614
 H2879 H 0.46571 0.56856 0.46183
 H2880 H 0.46098 0.59998 0.45087
 C2881 C 0.49668 0.79475 0.40828
 C2882 C 0.51397 0.80191 0.41300
 C2883 C 0.52989 0.79410 0.40642
 C2884 C 0.52846 0.77942 0.39473
 C2885 C 0.51105 0.77252 0.38931
 C2886 C 0.49521 0.78015 0.39661
 C2887 C 0.51509 0.81795 0.42379
 C2888 C 0.51513 0.83177 0.43235
 C2889 C 0.51424 0.84823 0.44182
 C2890 C 0.51277 0.86249 0.44953
 C2891 C 0.51035 0.87962 0.45835
 C2892 C 0.51993 0.89555 0.45271
 C2893 C 0.51694 0.91241 0.46078
 C2894 C 0.50427 0.91352 0.47459
 C2895 C 0.49475 0.89736 0.48017
 C2896 C 0.49777 0.88053 0.47207
 H2897 H 0.48427 0.80073 0.41335
 H2898 H 0.54336 0.79951 0.41011
 H2899 H 0.54104 0.77360 0.38999
 H2900 H 0.48157 0.77535 0.39314
 H2901 H 0.52962 0.89496 0.44202
 H2902 H 0.52458 0.92455 0.45622
 H2903 H 0.48494 0.89770 0.49078
 H2904 H 0.49021 0.86825 0.47642
 C2905 C 0.02855 0.30694 0.88660
 C2906 C 0.02217 0.30700 0.90383
 C2907 C 0.01547 0.29063 0.91166
 C2908 C 0.01471 0.27430 0.90213
 C2909 C 0.02061 0.27422 0.88465
 C2910 C 0.02782 0.29061 0.87704
 C2911 C 0.02135 0.32403 0.91315
 C2912 C 0.01998 0.33826 0.92094
 C2913 C 0.01767 0.35477 0.93008
 C2914 C 0.01519 0.36875 0.93798
 C2915 C 0.01176 0.38522 0.94756
 C2916 C -0.00216 0.38510 0.96011
 C2917 C -0.00551 0.40101 0.96961
 C2918 C 0.00506 0.41727 0.96665
 C2919 C 0.01894 0.41728 0.95386
 C2920 C 0.02226 0.40133 0.94438
 H2921 H 0.03364 0.31960 0.88041
 H2922 H 0.01050 0.29056 0.92501
 H2923 H 0.00941 0.26179 0.90839
 H2924 H 0.03226 0.29097 0.86354
 H2925 H -0.01038 0.37268 0.96262
 H2926 H -0.01629 0.40051 0.97934
 H2927 H 0.02737 0.42953 0.95128
 H2928 H 0.03306 0.40152 0.93465
 C2929 C 0.50555 0.31099 0.08514
 C2930 C 0.48836 0.31247 0.07699
 C2931 C 0.47331 0.30192 0.08308
 C2932 C 0.47543 0.29012 0.09758
 C2933 C 0.49252 0.28906 0.10620
 C2934 C 0.50765 0.29935 0.09963
 C2935 C 0.48616 0.32628 0.06360
 C2936 C 0.48550 0.33900 0.05338
 C2937 C 0.48607 0.35502 0.04284
 C2938 C 0.48754 0.36953 0.03511
 C2939 C 0.49028 0.38753 0.02744
 C2940 C 0.48115 0.40250 0.03449
 C2941 C 0.48559 0.42046 0.02892
 C2942 C 0.49929 0.42366 0.01623
 C2943 C 0.50808 0.40846 0.00889
 C2944 C 0.50364 0.39048 0.01455
 H2945 H 0.51726 0.31918 0.08053
 H2946 H 0.45990 0.30314 0.07693
 H2947 H 0.46360 0.28232 0.10231
 H2948 H 0.52111 0.29844 0.10570
 H2949 H 0.47095 0.40033 0.04465
 H2950 H 0.47841 0.43182 0.03469
 H2951 H 0.51862 0.41046 -0.00096
 H2952 H 0.51096 0.37896 0.00922
 C2953 C 0.00179 0.80828 0.58696
 C2954 C -0.01525 0.80912 0.57843
 C2955 C -0.02990 0.79763 0.58385
 C2956 C -0.02753 0.78546 0.59802
 C2957 C -0.01059 0.78491 0.60700
 C2958 C 0.00413 0.79625 0.60112
 C2959 C -0.01770 0.82297 0.56512
 C2960 C -0.01852 0.83566 0.55488
 C2961 C -0.01799 0.85159 0.54422
 C2962 C -0.01637 0.86598 0.53633
 C2963 C -0.01321 0.88379 0.52841
 C2964 C -0.02145 0.89922 0.53560
 C2965 C -0.01629 0.91695 0.52988
 C2966 C -0.00275 0.91944 0.51691
 C2967 C 0.00506 0.90380 0.50940
 C2968 C -0.00009 0.88606 0.51520
 H2969 H 0.01320 0.81718 0.58285
 H2970 H -0.04318 0.79831 0.57736
 H2971 H -0.03907 0.77689 0.60215
 H2972 H 0.01752 0.79577 0.60740
 H2973 H -0.03145 0.89756 0.54600
 H2974 H -0.02274 0.92868 0.53579
 H2975 H 0.01545 0.90525 0.49934
 H2976 H 0.00655 0.87417 0.50976
 C2977 C 0.23243 0.31542 0.04071
 C2978 C 0.24732 0.30626 0.04840
 C2979 C 0.26487 0.30839 0.04111
 C2980 C 0.26769 0.32015 0.02668
 C2981 C 0.25298 0.33003 0.01934
 C2982 C 0.23522 0.32717 0.02620
 C2983 C 0.24509 0.29617 0.06468
 C2984 C 0.24368 0.28853 0.07877
 C2985 C 0.24233 0.28060 0.09574
 C2986 C 0.24122 0.27479 0.11059
 C2987 C 0.23970 0.26913 0.12870
 C2988 C 0.24885 0.25359 0.13523
 C2989 C 0.24787 0.24892 0.15310
 C2990 C 0.23781 0.25983 0.16464
 C2991 C 0.22856 0.27529 0.15783
 C2992 C 0.22951 0.27986 0.14005
 H2993 H 0.21880 0.31399 0.04632
 H2994 H 0.27651 0.30142 0.04694
 H2995 H 0.28147 0.32186 0.02151
 H2996 H 0.22367 0.33472 0.02093
 H2997 H 0.25687 0.24523 0.12657
 H2998 H 0.25518 0.23696 0.15790
 H2999 H 0.22060 0.28398 0.16624
 H3000 H 0.22242 0.29194 0.13518
 C3001 C 0.75120 0.82789 0.55658
 C3002 C 0.74291 0.81047 0.55426
 C3003 C 0.73792 0.80476 0.53737
 C3004 C 0.74148 0.81640 0.52287
 C3005 C 0.75020 0.83376 0.52513
 C3006 C 0.75479 0.83944 0.54220
 C3007 C 0.73979 0.79877 0.56944
 C3008 C 0.73773 0.79004 0.58289
 C3009 C 0.73576 0.78109 0.59938
 C3010 C 0.73429 0.77459 0.61395
 C3011 C 0.73262 0.76826 0.63187
 C3012 C 0.74387 0.75433 0.63862
 C3013 C 0.74343 0.74977 0.65653
 C3014 C 0.73183 0.75925 0.66790
 C3015 C 0.72021 0.77283 0.66084
 C3016 C 0.72062 0.77727 0.64300
 H3017 H 0.75499 0.83254 0.56957
 H3018 H 0.73144 0.79131 0.53541
 H3019 H 0.73783 0.81163 0.50991
 H3020 H 0.76108 0.85290 0.54448
 H3021 H 0.75332 0.74735 0.63016
 H3022 H 0.75259 0.73932 0.66155
 H3023 H 0.71103 0.78033 0.66915
 H3024 H 0.71191 0.78812 0.63797
 C3025 C 0.22246 0.68252 0.54946
 C3026 C 0.23643 0.69030 0.55990
 C3027 C 0.25487 0.68787 0.55544
 C3028 C 0.25934 0.67733 0.54091
 C3029 C 0.24540 0.66900 0.53062
 C3030 C 0.22692 0.67200 0.53490
 C3031 C 0.23198 0.69954 0.57589
 C3032 C 0.22874 0.70659 0.58974
 C3033 C 0.22566 0.71398 0.60648
 C3034 C 0.22380 0.71945 0.62121
 C3035 C 0.22271 0.72482 0.63928
 C3036 C 0.22240 0.74349 0.64395
 C3037 C 0.22401 0.74846 0.66159
 C3038 C 0.22618 0.73479 0.67469
 C3039 C 0.22551 0.71606 0.66989
 C3040 C 0.22378 0.71115 0.65234
 H3041 H 0.20813 0.68415 0.55285
 H3042 H 0.26582 0.69379 0.56343
 H3043 H 0.27372 0.67555 0.53784
 H3044 H 0.21589 0.66564 0.52748
 H3045 H 0.22166 0.75420 0.63394
 H3046 H 0.22459 0.76299 0.66487
 H3047 H 0.22703 0.70519 0.67964
 H3048 H 0.22406 0.69667 0.64891
 C3049 C 0.73163 0.19326 0.05044
 C3050 C 0.73377 0.18573 0.06731
 C3051 C 0.74103 0.16808 0.06945
 C3052 C 0.74633 0.15806 0.05489
 C3053 C 0.74450 0.16556 0.03790
 C3054 C 0.73692 0.18320 0.03579
 C3055 C 0.72913 0.19601 0.08264
 C3056 C 0.72596 0.20371 0.09618
 C3057 C 0.72315 0.21161 0.11275
 C3058 C 0.72162 0.21730 0.12744
 C3059 C 0.72097 0.22270 0.14552
 C3060 C 0.72181 0.24136 0.15025
 C3061 C 0.72382 0.24617 0.16791
 C3062 C 0.72525 0.23233 0.18094
 C3063 C 0.72350 0.21367 0.17607
 C3064 C 0.72137 0.20893 0.15853
 H3065 H 0.72607 0.20694 0.04862
 H3066 H 0.74270 0.16207 0.08242
 H3067 H 0.75173 0.14436 0.05697
 H3068 H 0.73546 0.18938 0.02289
 H3069 H 0.72162 0.25215 0.14028
 H3070 H 0.72521 0.26064 0.17124
 H3071 H 0.72442 0.20267 0.18579
 H3072 H 0.72079 0.19445 0.15504
 C3073 C 0.76951 0.19759 0.95959
 C3074 C 0.75332 0.20026 0.94997
 C3075 C 0.73708 0.19078 0.95492
 C3076 C 0.73725 0.17813 0.96900
 C3077 C 0.75373 0.17469 0.97809
 C3078 C 0.76972 0.18495 0.97355
 C3079 C 0.75407 0.21113 0.93400
 C3080 C 0.75545 0.21936 0.92020
 C3081 C 0.75757 0.22785 0.90352
 C3082 C 0.75947 0.23396 0.88884
 C3083 C 0.76149 0.23965 0.87077
 C3084 C 0.76217 0.22603 0.85800
 C3085 C 0.76262 0.23095 0.84029
 C3086 C 0.76242 0.24965 0.83498
 C3087 C 0.76255 0.26337 0.84789
 C3088 C 0.76200 0.25837 0.86572
 H3089 H 0.78216 0.20478 0.95589
 H3090 H 0.72448 0.19262 0.94749
 H3091 H 0.72479 0.17034 0.97216
 H3092 H 0.78255 0.18280 0.98051
 H3093 H 0.76187 0.21151 0.86171
 H3094 H 0.76264 0.22002 0.83073
 H3095 H 0.76228 0.27788 0.84422
 H3096 H 0.76151 0.26906 0.87550
 C3097 C 0.26686 0.69328 0.44991
 C3098 C 0.25021 0.69588 0.44102
 C3099 C 0.23410 0.68699 0.44714
 C3100 C 0.23480 0.67507 0.46176
 C3101 C 0.25167 0.67178 0.47023
 C3102 C 0.26760 0.68135 0.46440
 C3103 C 0.25023 0.70628 0.42477
 C3104 C 0.25099 0.71420 0.41077
 C3105 C 0.25241 0.72242 0.39391
 C3106 C 0.25377 0.72836 0.37912
 C3107 C 0.25524 0.73394 0.36097
 C3108 C 0.25523 0.72027 0.34822
 C3109 C 0.25554 0.72513 0.33050
 C3110 C 0.25586 0.74384 0.32513
 C3111 C 0.25652 0.75758 0.33803
 C3112 C 0.25615 0.75264 0.35587
 H3113 H 0.27941 0.70004 0.44531
 H3114 H 0.22115 0.68880 0.44029
 H3115 H 0.22237 0.66780 0.46593
 H3116 H 0.28073 0.67935 0.47086
 H3117 H 0.25462 0.70576 0.35197
 H3118 H 0.25514 0.71416 0.32098
 H3119 H 0.25670 0.77209 0.33434
 H3120 H 0.25620 0.76337 0.36564
 C3121 C 0.75056 0.82920 0.43118
 C3122 C 0.74186 0.81193 0.43361
 C3123 C 0.73684 0.80608 0.45052
 C3124 C 0.74076 0.81741 0.46493
 C3125 C 0.74988 0.83462 0.46258
 C3126 C 0.75451 0.84045 0.44549
 C3127 C 0.73862 0.80037 0.41857
 C3128 C 0.73670 0.79165 0.40527
 C3129 C 0.73537 0.78262 0.38896
 C3130 C 0.73503 0.77607 0.37448
 C3131 C 0.73566 0.76987 0.35659
 C3132 C 0.73512 0.75102 0.35246
 C3133 C 0.73765 0.74546 0.33508
 C3134 C 0.74096 0.75873 0.32175
 C3135 C 0.74081 0.77760 0.32603
 C3136 C 0.73818 0.78308 0.34325
 H3137 H 0.75441 0.83396 0.41817
 H3138 H 0.73010 0.79274 0.45260
 H3139 H 0.73706 0.81250 0.47790
 H3140 H 0.76110 0.85380 0.44311
 H3141 H 0.73326 0.74064 0.36268
 H3142 H 0.73775 0.73084 0.33222
 H3143 H 0.74316 0.78821 0.31610
 H3144 H 0.73864 0.79769 0.34624
 C3145 C 0.24963 0.33315 0.92669
 C3146 C 0.24160 0.31550 0.92871
 C3147 C 0.23739 0.30875 0.94553
 C3148 C 0.24140 0.31956 0.96024
 C3149 C 0.24977 0.33719 0.95830
 C3150 C 0.25367 0.34391 0.94132
 C3151 C 0.23826 0.30440 0.91339
 C3152 C 0.23616 0.29590 0.89998
 C3153 C 0.23454 0.28697 0.88365
 C3154 C 0.23394 0.28039 0.86919
 C3155 C 0.23426 0.27398 0.85138
 C3156 C 0.23406 0.25507 0.84751
 C3157 C 0.23653 0.24930 0.83020
 C3158 C 0.23947 0.26242 0.81667
 C3159 C 0.23889 0.28134 0.82066
 C3160 C 0.23630 0.28704 0.83783
 H3161 H 0.25290 0.33857 0.91375
 H3162 H 0.23123 0.29509 0.94728
 H3163 H 0.23839 0.31392 0.97313
 H3164 H 0.25977 0.35756 0.93932
 H3165 H 0.23258 0.24482 0.85789
 H3166 H 0.23699 0.23464 0.82755
 H3167 H 0.24095 0.29182 0.81056
 H3168 H 0.23649 0.30170 0.84062
 C3169 C 0.85403 0.46359 0.77844
 C3170 C 0.84996 0.45368 0.76326
 C3171 C 0.85770 0.45947 0.74726
 C3172 C 0.86985 0.47482 0.74658
 C3173 C 0.87450 0.48439 0.76194
 C3174 C 0.86615 0.47881 0.77780
 C3175 C 0.83848 0.43718 0.76447
 C3176 C 0.82913 0.42325 0.76604
 C3177 C 0.81838 0.40681 0.76810
 C3178 C 0.80930 0.39270 0.76966
 C3179 C 0.79851 0.37574 0.77083
 C3180 C 0.78530 0.37187 0.75793
 C3181 C 0.77587 0.35485 0.75795
 C3182 C 0.77948 0.34132 0.77089
 C3183 C 0.79224 0.34558 0.78426
 C3184 C 0.80175 0.36268 0.78418
 H3185 H 0.84808 0.45934 0.79087
 H3186 H 0.85466 0.45191 0.73540
 H3187 H 0.87613 0.47875 0.73423
 H3188 H 0.86917 0.48613 0.78980
 H3189 H 0.78263 0.38184 0.74756
 H3190 H 0.76607 0.35211 0.74750
 H3191 H 0.79542 0.33545 0.79434
 H3192 H 0.81197 0.36551 0.79425
 C3193 C 0.35197 0.95436 0.24353
 C3194 C 0.34351 0.94816 0.25906
 C3195 C 0.34727 0.95737 0.27470
 C3196 C 0.35974 0.97232 0.27497
 C3197 C 0.36875 0.97832 0.25958
 C3198 C 0.36447 0.96943 0.24377
 C3199 C 0.33159 0.93192 0.25933
 C3200 C 0.32187 0.91817 0.26016
 C3201 C 0.31075 0.90190 0.26143
 C3202 C 0.30146 0.88787 0.26241
 C3203 C 0.29059 0.87092 0.26304
 C3204 C 0.29310 0.85792 0.27659
 C3205 C 0.28372 0.84077 0.27622
 C3206 C 0.27180 0.83638 0.26220
 C3207 C 0.26887 0.84985 0.24903
 C3208 C 0.27819 0.86694 0.24947
 H3209 H 0.34919 0.94733 0.23133
 H3210 H 0.34078 0.95278 0.28678
 H3211 H 0.36245 0.97910 0.28730
 H3212 H 0.37127 0.97368 0.23175
 H3213 H 0.30270 0.86082 0.28717
 H3214 H 0.28639 0.83069 0.28648
 H3215 H 0.25976 0.84700 0.23807
 H3216 H 0.27610 0.87686 0.23892
 C3217 C 0.14289 0.94696 0.72818
 C3218 C 0.15162 0.93774 0.74207
 C3219 C 0.14902 0.94367 0.75923
 C3220 C 0.13747 0.95843 0.76255
 C3221 C 0.12828 0.96751 0.74873
 C3222 C 0.13133 0.96178 0.73149
 C3223 C 0.16263 0.92174 0.73894
 C3224 C 0.17164 0.90809 0.73690
 C3225 C 0.18201 0.89186 0.73517
 C3226 C 0.19074 0.87786 0.73433
 C3227 C 0.20105 0.86101 0.73415
 C3228 C 0.21397 0.85760 0.74740
 C3229 C 0.22308 0.84077 0.74818
 C3230 C 0.21941 0.82699 0.73568
 C3231 C 0.20674 0.83073 0.72211
 C3232 C 0.19759 0.84760 0.72139
 H3233 H 0.14472 0.94248 0.71484
 H3234 H 0.15572 0.93670 0.77010
 H3235 H 0.13562 0.96266 0.77596
 H3236 H 0.12430 0.96825 0.72060
 H3237 H 0.21675 0.86782 0.75737
 H3238 H 0.23275 0.83844 0.75879
 H3239 H 0.20351 0.82044 0.71231
 H3240 H 0.18757 0.85004 0.71110
 C3241 C 0.64916 0.44039 0.26255
 C3242 C 0.65439 0.43550 0.24567
 C3243 C 0.64783 0.44559 0.23124
 C3244 C 0.63570 0.46014 0.23366
 C3245 C 0.62977 0.46471 0.25054
 C3246 C 0.63704 0.45488 0.26498
 C3247 C 0.66588 0.41968 0.24329
 C3248 C 0.67514 0.40611 0.24184
 C3249 C 0.68563 0.38989 0.24074
 C3250 C 0.69429 0.37582 0.24031
 C3251 C 0.70428 0.35876 0.24045
 C3252 C 0.70150 0.34582 0.22716
 C3253 C 0.71012 0.32868 0.22808
 C3254 C 0.72160 0.32419 0.24240
 C3255 C 0.72465 0.33752 0.25546
 C3256 C 0.71605 0.35463 0.25447
 H3257 H 0.65424 0.43281 0.27385
 H3258 H 0.65181 0.44199 0.21809
 H3259 H 0.63064 0.46737 0.22225
 H3260 H 0.63332 0.45829 0.27823
 H3261 H 0.69236 0.34880 0.21626
 H3262 H 0.70738 0.31877 0.21784
 H3263 H 0.73339 0.33460 0.26666
 H3264 H 0.71828 0.36449 0.26487
 C3265 C 0.65825 0.54060 0.24624
 C3266 C 0.65276 0.55830 0.25104
 C3267 C 0.63429 0.56128 0.25495
 C3268 C 0.62151 0.54660 0.25474
 C3269 C 0.62699 0.52863 0.25062
 C3270 C 0.64540 0.52583 0.24595
 C3271 C 0.66595 0.57340 0.25273
 C3272 C 0.67640 0.58646 0.25456
 C3273 C 0.68812 0.60215 0.25685
 C3274 C 0.69782 0.61579 0.25857
 C3275 C 0.70918 0.63233 0.25999
 C3276 C 0.72336 0.63560 0.24798
 C3277 C 0.73334 0.65233 0.24811
 C3278 C 0.72930 0.66613 0.26027
 C3279 C 0.71550 0.66246 0.27277
 C3280 C 0.70546 0.64567 0.27257
 H3281 H 0.67252 0.53812 0.24316
 H3282 H 0.62983 0.57490 0.25858
 H3283 H 0.60737 0.54923 0.25815
 H3284 H 0.65000 0.51211 0.24287
 H3285 H 0.72639 0.62542 0.23819
 H3286 H 0.74392 0.65461 0.23835
 H3287 H 0.71197 0.67280 0.28223
 H3288 H 0.69447 0.64332 0.28192
 C3289 C 0.15673 0.04396 0.74426
 C3290 C 0.15128 0.06165 0.74915
 C3291 C 0.13294 0.06451 0.75363
 C3292 C 0.12025 0.04974 0.75385
 C3293 C 0.12570 0.03180 0.74960
 C3294 C 0.14397 0.02910 0.74441
 C3295 C 0.16444 0.07683 0.75034
 C3296 C 0.17494 0.08992 0.75177
 C3297 C 0.18677 0.10559 0.75361
 C3298 C 0.19659 0.11920 0.75500
 C3299 C 0.20809 0.13568 0.75612
 C3300 C 0.22215 0.13874 0.74395
 C3301 C 0.23235 0.15534 0.74392
 C3302 C 0.22866 0.16924 0.75609
 C3303 C 0.21490 0.16580 0.76870
 C3304 C 0.20466 0.14915 0.76867
 H3305 H 0.17090 0.04156 0.74076
 H3306 H 0.12851 0.07812 0.75734
 H3307 H 0.10621 0.05228 0.75767
 H3308 H 0.14858 0.01541 0.74124
 H3309 H 0.22495 0.12846 0.73417
 H3310 H 0.24286 0.15744 0.73405
 H3311 H 0.21161 0.17622 0.77817
 H3312 H 0.19376 0.14697 0.77814
 C3313 C 0.35056 0.05700 0.23080
 C3314 C 0.34619 0.07037 0.24307
 C3315 C 0.35363 0.06921 0.25997
 C3316 C 0.36559 0.05499 0.26451
 C3317 C 0.37055 0.04164 0.25215
 C3318 C 0.36253 0.04274 0.23530
 C3319 C 0.33407 0.08526 0.23844
 C3320 C 0.32398 0.09790 0.23503
 C3321 C 0.31217 0.11291 0.23174
 C3322 C 0.30207 0.12585 0.22979
 C3323 C 0.28997 0.14143 0.22874
 C3324 C 0.27753 0.14412 0.24231
 C3325 C 0.26703 0.16005 0.24262
 C3326 C 0.26874 0.17364 0.22932
 C3327 C 0.28070 0.17050 0.21528
 C3328 C 0.29133 0.15451 0.21505
 H3329 H 0.34476 0.05761 0.21770
 H3330 H 0.35018 0.07933 0.26969
 H3331 H 0.37071 0.05446 0.27782
 H3332 H 0.36543 0.03281 0.22537
 H3333 H 0.27633 0.13415 0.25298
 H3334 H 0.25789 0.16195 0.25358
 H3335 H 0.28244 0.18075 0.20492
 H3336 H 0.30097 0.15262 0.20449
 C3337 C 0.85441 0.56244 0.73225
 C3338 C 0.85008 0.57566 0.74468
 C3339 C 0.85795 0.57460 0.76141
 C3340 C 0.87032 0.56063 0.76561
 C3341 C 0.87524 0.54746 0.75308
 C3342 C 0.86678 0.54842 0.73642
 C3343 C 0.83761 0.59037 0.74042
 C3344 C 0.82729 0.60293 0.73742
 C3345 C 0.81531 0.61791 0.73472
 C3346 C 0.80515 0.63087 0.73332
 C3347 C 0.79315 0.64653 0.73299
 C3348 C 0.78326 0.65056 0.74806
 C3349 C 0.77283 0.66651 0.74873
 C3350 C 0.77205 0.67880 0.73430
 C3351 C 0.78148 0.67435 0.71892
 C3352 C 0.79205 0.65833 0.71831
 H3353 H 0.84829 0.56299 0.71929
 H3354 H 0.85454 0.58460 0.77125
 H3355 H 0.87580 0.56016 0.77879
 H3356 H 0.86969 0.53858 0.72642
 H3357 H 0.78398 0.64159 0.75951
 H3358 H 0.76567 0.66942 0.76075
 H3359 H 0.78125 0.68356 0.70763
 H3360 H 0.79970 0.65539 0.70657
 C3361 C 0.96470 0.73975 0.17132
 C3362 C 0.95055 0.75232 0.16897
 C3363 C 0.94967 0.76306 0.15367
 C3364 C 0.96283 0.76113 0.14064
 C3365 C 0.97716 0.74843 0.14276
 C3366 C 0.97790 0.73779 0.15832
 C3367 C 0.93603 0.75318 0.18151
 C3368 C 0.92316 0.75360 0.19128
 C3369 C 0.90728 0.75375 0.20166
 C3370 C 0.89300 0.75359 0.20951
 C3371 C 0.87525 0.75308 0.21757
 C3372 C 0.86137 0.76414 0.21064
 C3373 C 0.84341 0.76215 0.21679
 C3374 C 0.83911 0.74902 0.22996
 C3375 C 0.85329 0.73839 0.23729
 C3376 C 0.87127 0.74036 0.23104
 H3377 H 0.96534 0.73120 0.18307
 H3378 H 0.93855 0.77261 0.15161
 H3379 H 0.96132 0.76920 0.12872
 H3380 H 0.98850 0.72784 0.16057
 H3381 H 0.86432 0.77394 0.20012
 H3382 H 0.83285 0.77068 0.21099
 H3383 H 0.85041 0.72817 0.24746
 H3384 H 0.88194 0.73163 0.23636
 C3385 C 0.45057 0.26164 0.65314
 C3386 C 0.45352 0.25520 0.67026
 C3387 C 0.47035 0.24744 0.67492
 C3388 C 0.48415 0.24592 0.66240
 C3389 C 0.48117 0.25208 0.64509
 C3390 C 0.46431 0.26011 0.64062
 C3391 C 0.43875 0.25565 0.68258
 C3392 C 0.42563 0.25580 0.69206
 C3393 C 0.40942 0.25573 0.70199
 C3394 C 0.39486 0.25547 0.70937
 C3395 C 0.37679 0.25496 0.71678
 C3396 C 0.37231 0.24240 0.73025
 C3397 C 0.35410 0.24049 0.73590
 C3398 C 0.34019 0.25103 0.72798
 C3399 C 0.34498 0.26400 0.71480
 C3400 C 0.36316 0.26592 0.70924
 H3401 H 0.43750 0.26753 0.64940
 H3402 H 0.47272 0.24240 0.68815
 H3403 H 0.49714 0.24000 0.66629
 H3404 H 0.46155 0.26478 0.62735
 H3405 H 0.38278 0.23375 0.73604
 H3406 H 0.35085 0.23041 0.74608
 H3407 H 0.33464 0.27246 0.70856
 H3408 H 0.36650 0.27560 0.69873
 C3409 C 0.44514 0.76889 0.82547
 C3410 C 0.44121 0.75060 0.82077
 C3411 C 0.44930 0.73601 0.83003
 C3412 C 0.46086 0.73972 0.84432
 C3413 C 0.46421 0.75805 0.84955
 C3414 C 0.45658 0.77261 0.83977
 C3415 C 0.42706 0.74699 0.80801
 C3416 C 0.41417 0.74473 0.79827
 C3417 C 0.39802 0.74296 0.78814
 C3418 C 0.38342 0.74214 0.78065
 C3419 C 0.36526 0.74191 0.77318
 C3420 C 0.35145 0.73099 0.78106
 C3421 C 0.33317 0.73270 0.77572
 C3422 C 0.32845 0.74543 0.76243
 C3423 C 0.34253 0.75585 0.75410
 C3424 C 0.36084 0.75415 0.75953
 H3425 H 0.43882 0.78026 0.81847
 H3426 H 0.44612 0.72180 0.82663
 H3427 H 0.46646 0.72826 0.85175
 H3428 H 0.45920 0.78686 0.84338
 H3429 H 0.35473 0.72161 0.79175
 H3430 H 0.32270 0.72433 0.78228
 H3431 H 0.33936 0.76574 0.74381
 H3432 H 0.37143 0.76282 0.75349
 C3433 C 0.95324 0.23059 0.33153
 C3434 C 0.93470 0.23426 0.33434
 C3435 C 0.92934 0.24259 0.34982
 C3436 C 0.94244 0.24768 0.36232
 C3437 C 0.96131 0.24453 0.35963
 C3438 C 0.96646 0.23558 0.34410
 C3439 C 0.92101 0.23060 0.32118
 C3440 C 0.90853 0.22863 0.31092
 C3441 C 0.89286 0.22759 0.30007
 C3442 C 0.87865 0.22768 0.29193
 C3443 C 0.86092 0.22882 0.28370
 C3444 C 0.84608 0.21874 0.29081
 C3445 C 0.82821 0.22203 0.28497
 C3446 C 0.82496 0.23553 0.27193
 C3447 C 0.84005 0.24506 0.26432
 C3448 C 0.85794 0.24178 0.27027
 H3449 H 0.95752 0.22431 0.31947
 H3450 H 0.91496 0.24539 0.35214
 H3451 H 0.93755 0.25379 0.37423
 H3452 H 0.98072 0.23331 0.34096
 H3453 H 0.84824 0.20882 0.30134
 H3454 H 0.81693 0.21429 0.29095
 H3455 H 0.83800 0.25549 0.25424
 H3456 H 0.86935 0.24983 0.26485
 C3457 C 0.04260 0.24539 0.33812
 C3458 C 0.05070 0.26231 0.33316
 C3459 C 0.04353 0.27879 0.33920
 C3460 C 0.02864 0.27830 0.35069
 C3461 C 0.02088 0.26127 0.35652
 C3462 C 0.02776 0.24485 0.34960
 C3463 C 0.06711 0.26250 0.32285
 C3464 C 0.08123 0.26200 0.31478
 C3465 C 0.09803 0.26070 0.30592
 C3466 C 0.11256 0.25905 0.29874
 C3467 C 0.12998 0.25657 0.29050
 C3468 C 0.13148 0.24382 0.27702
 C3469 C 0.14852 0.24097 0.26930
 C3470 C 0.16430 0.25085 0.27501
 C3471 C 0.16262 0.26364 0.28862
 C3472 C 0.14555 0.26645 0.29632
 H3473 H 0.04805 0.23254 0.33344
 H3474 H 0.04965 0.29199 0.33530
 H3475 H 0.02338 0.29134 0.35501
 H3476 H 0.02223 0.23144 0.35323
 H3477 H 0.11948 0.23604 0.27252
 H3478 H 0.14929 0.23106 0.25884
 H3479 H 0.17446 0.27154 0.29328
 H3480 H 0.14450 0.27630 0.30682
 C3481 C 0.55115 0.78192 0.85137
 C3482 C 0.55980 0.76503 0.84911
 C3483 C 0.55127 0.74857 0.85490
 C3484 C 0.53409 0.74897 0.86291
 C3485 C 0.52526 0.76582 0.86521
 C3486 C 0.53396 0.78233 0.85941
 C3487 C 0.57728 0.76445 0.84058
 C3488 C 0.59180 0.76358 0.83323
 C3489 C 0.60857 0.76213 0.82436
 C3490 C 0.62270 0.76054 0.81648
 C3491 C 0.63924 0.75829 0.80670
 C3492 C 0.63972 0.74489 0.79370
 C3493 C 0.65561 0.74283 0.78382
 C3494 C 0.67125 0.75418 0.78685
 C3495 C 0.67067 0.76754 0.80008
 C3496 C 0.65473 0.76957 0.80993
 H3497 H 0.55764 0.79472 0.84685
 H3498 H 0.55791 0.73544 0.85324
 H3499 H 0.52792 0.73613 0.86759
 H3500 H 0.52736 0.79550 0.86089
 H3501 H 0.62776 0.73611 0.79112
 H3502 H 0.65557 0.73242 0.77377
 H3503 H 0.68245 0.77652 0.80273
 H3504 H 0.65445 0.77999 0.81998
 C3505 C 0.56368 0.25250 0.66638
 C3506 C 0.56591 0.23513 0.67421
 C3507 C 0.55524 0.21997 0.66864
 C3508 C 0.54254 0.22218 0.65497
 C3509 C 0.54065 0.23950 0.64666
 C3510 C 0.55113 0.25471 0.65272
 C3511 C 0.58029 0.23302 0.68693
 C3512 C 0.59327 0.23264 0.69671
 C3513 C 0.60936 0.23377 0.70693
 C3514 C 0.62373 0.23591 0.71456
 C3515 C 0.64137 0.23961 0.72235
 C3516 C 0.65699 0.23172 0.71523
 C3517 C 0.67447 0.23704 0.72118
 C3518 C 0.67652 0.25040 0.73432
 C3519 C 0.66068 0.25799 0.74165
 C3520 C 0.64320 0.25266 0.73562
 H3521 H 0.57192 0.26431 0.67061
 H3522 H 0.55700 0.20643 0.67458
 H3523 H 0.53463 0.21028 0.65063
 H3524 H 0.54961 0.26834 0.64694
 H3525 H 0.65568 0.22177 0.70478
 H3526 H 0.68635 0.23077 0.71539
 H3527 H 0.66179 0.26823 0.75184
 H3528 H 0.63116 0.25902 0.74102
 C3529 C 0.06789 0.71838 0.14107
 C3530 C 0.06472 0.71729 0.15910
 C3531 C 0.04701 0.71969 0.16561
 C3532 C 0.03264 0.72405 0.15417
 C3533 C 0.03592 0.72618 0.13616
 C3534 C 0.05355 0.72279 0.12963
 C3535 C 0.08009 0.71667 0.17089
 C3536 C 0.09337 0.71769 0.18030
 C3537 C 0.10930 0.72046 0.19050
 C3538 C 0.12326 0.72391 0.19842
 C3539 C 0.14028 0.72895 0.20683
 C3540 C 0.14057 0.74172 0.22044
 C3541 C 0.15737 0.74796 0.22742
 C3542 C 0.17404 0.74156 0.22073
 C3543 C 0.17352 0.72854 0.20717
 C3544 C 0.15674 0.72231 0.20028
 H3545 H 0.08162 0.71672 0.13594
 H3546 H 0.04450 0.71917 0.17958
 H3547 H 0.01934 0.72690 0.15955
 H3548 H 0.05637 0.72415 0.11576
 H3549 H 0.12784 0.74707 0.22543
 H3550 H 0.15730 0.75791 0.23789
 H3551 H 0.18607 0.72319 0.20181
 H3552 H 0.15662 0.71256 0.18963
   
