data_POSCAR
  _audit_creation_date              2014-09-24
  _audit_creation_method            'ToBaCCo'
  _symmetry_space_group_name_H-M    'P1'
  _symmetry_Int_Tables_number       1
  _symmetry_cell_setting            triclinic
  loop_
  _symmetry_equiv_pos_as_xyz
 x,y,z
_cell_length_a 41.5169
_cell_length_b 42.7796
_cell_length_c 48.3376
_cell_angle_alpha 90.350400
_cell_angle_beta 90.134600
_cell_angle_gamma 90.255000
loop_
  _atom_site_label
  _atom_site_type_symbol
  _atom_site_fract_x
  _atom_site_fract_y
  _atom_site_fract_z
Zr1 Zr 0.24451 0.24714 0.29880
 O2 O 0.26643 0.26911 0.33353
 O3 O 0.21192 0.21635 0.31823
 O4 O 0.21308 0.27583 0.32179
 O5 O 0.30867 0.19660 0.28837
 O6 O 0.18902 0.30663 0.28936
 O7 O 0.27582 0.21801 0.32122
 O8 O 0.18528 0.19358 0.28194
 O9 O 0.20361 0.24931 0.27347
 O10 O 0.24678 0.20798 0.27280
 O11 O 0.24813 0.29003 0.27793
 O12 O 0.28901 0.25045 0.27788
 Zr13 Zr 0.25286 0.25631 0.20281
 Zr14 Zr 0.20824 0.29104 0.25130
 Zr15 Zr 0.28949 0.21230 0.25037
 Zr16 Zr 0.20727 0.21118 0.24642
 O17 O 0.34030 0.21629 0.24977
 O18 O 0.15688 0.21820 0.24280
 O19 O 0.24983 0.21295 0.22330
 O20 O 0.20891 0.25268 0.22412
 O21 O 0.25096 0.29572 0.22864
 O22 O 0.29361 0.25391 0.22822
 C23 C 0.19049 0.19789 0.30778
 C24 C 0.29993 0.20127 0.31362
 C25 C 0.19435 0.29820 0.31447
 O26 O 0.15753 0.28669 0.24924
 O27 O 0.19184 0.31027 0.21367
 O28 O 0.22308 0.28714 0.18058
 C29 C 0.20028 0.30542 0.18839
 O30 O 0.30997 0.30544 0.29416
 Zr31 Zr 0.29065 0.29196 0.25508
 O32 O 0.28396 0.28832 0.18334
 O33 O 0.21275 0.34023 0.25394
 O34 O 0.28343 0.34079 0.25953
 O35 O 0.34131 0.28578 0.25487
 O36 O 0.30812 0.31390 0.21947
 C37 C 0.30294 0.30922 0.19364
 O38 O 0.22982 0.23544 0.16810
 O39 O 0.28593 0.16294 0.25051
 O40 O 0.28252 0.22604 0.17969
 O41 O 0.30509 0.19400 0.21200
 O42 O 0.21364 0.16201 0.24576
 O43 O 0.19282 0.19314 0.20722
 C44 C 0.29981 0.20254 0.18689
 H45 H 0.24654 0.18812 0.28320
 H46 H 0.19030 0.25269 0.21130
 H47 H 0.31390 0.25430 0.21750
 H48 H 0.24832 0.30793 0.29098
 H49 H 0.14615 0.19767 0.24529
 H50 H 0.14872 0.30814 0.25049
 H51 H 0.19062 0.34879 0.25331
 H52 H 0.30452 0.35126 0.25680
 H53 H 0.19216 0.15223 0.24828
 H54 H 0.30823 0.15484 0.25130
 H55 H 0.34886 0.19476 0.24838
 H56 H 0.35132 0.30666 0.25243
 H57 H 0.17497 0.17799 0.20968
 H58 H 0.23928 0.24473 0.15116
 H59 H 0.25713 0.25969 0.35047
 H60 H 0.32542 0.32290 0.29169
 Zr61 Zr 0.74858 0.74851 0.29984
 O62 O 0.72408 0.72230 0.33043
 O63 O 0.77638 0.77921 0.32444
 O64 O 0.77922 0.71951 0.32314
 O65 O 0.68458 0.79857 0.28781
 O66 O 0.80759 0.69211 0.29064
 O67 O 0.71368 0.77447 0.32167
 O68 O 0.80581 0.80616 0.29256
 O69 O 0.79215 0.74956 0.27804
 O70 O 0.74779 0.78967 0.27672
 O71 O 0.74893 0.70751 0.27556
 O72 O 0.70669 0.74599 0.27505
 Zr73 Zr 0.75076 0.74762 0.20306
 Zr74 Zr 0.79141 0.70984 0.25228
 Zr75 Zr 0.70796 0.78634 0.25057
 Zr76 Zr 0.79015 0.78978 0.25382
 O77 O 0.65754 0.78119 0.24571
 O78 O 0.84074 0.78341 0.25552
 O79 O 0.75032 0.78903 0.22705
 O80 O 0.79219 0.75040 0.22818
 O81 O 0.75138 0.70613 0.22587
 O82 O 0.70758 0.74677 0.22523
 C83 C 0.79736 0.79986 0.31741
 C84 C 0.69036 0.79171 0.31324
 C85 C 0.79970 0.69856 0.31581
 O86 O 0.84201 0.71544 0.25405
 O87 O 0.81180 0.69380 0.21466
 O88 O 0.78298 0.71873 0.18110
 C89 C 0.80538 0.70019 0.18921
 O90 O 0.68679 0.68853 0.28534
 Zr91 Zr 0.70909 0.70657 0.24921
 O92 O 0.72164 0.71782 0.17857
 O93 O 0.78822 0.66049 0.25142
 O94 O 0.71785 0.65777 0.24958
 O95 O 0.65839 0.71134 0.24606
 O96 O 0.69523 0.68844 0.21071
 C97 C 0.70191 0.69609 0.18581
 O98 O 0.77730 0.77175 0.17239
 O99 O 0.71003 0.83563 0.25437
 O100 O 0.72304 0.77953 0.17994
 O101 O 0.69559 0.80742 0.21266
 O102 O 0.78247 0.83875 0.25499
 O103 O 0.80947 0.81113 0.21786
 C104 C 0.70396 0.80161 0.18753
 H105 H 0.74596 0.80868 0.28837
 H106 H 0.81203 0.75179 0.21694
 H107 H 0.68838 0.74704 0.21305
 H108 H 0.74818 0.68855 0.28718
 H109 H 0.85059 0.80368 0.26097
 H110 H 0.85129 0.69414 0.25453
 H111 H 0.81061 0.65255 0.25176
 H112 H 0.69751 0.64704 0.24432
 H113 H 0.80314 0.84886 0.26027
 H114 H 0.68750 0.84316 0.25412
 H115 H 0.64843 0.80255 0.24537
 H116 H 0.64934 0.69053 0.24120
 H117 H 0.82749 0.82517 0.22321
 H118 H 0.76984 0.76404 0.15403
 H119 H 0.73086 0.73051 0.34881
 H120 H 0.67259 0.67075 0.28021
 Zr121 Zr 0.75857 0.24040 -0.29910
 O122 O 0.73618 0.26403 -0.33239
 O123 O 0.79218 0.21243 -0.32056
 O124 O 0.78909 0.27215 -0.31986
 O125 O 0.69553 0.18732 -0.29225
 O126 O 0.81232 0.30128 -0.28537
 O127 O 0.72772 0.21217 -0.32355
 O128 O 0.81937 0.18783 -0.28591
 O129 O 0.79939 0.24206 -0.27359
 O130 O 0.75743 0.19927 -0.27595
 O131 O 0.75372 0.28140 -0.27518
 O132 O 0.71408 0.24050 -0.27793
 Zr133 Zr 0.75012 0.24182 -0.20255
 Zr134 Zr 0.79364 0.28183 -0.24854
 Zr135 Zr 0.71470 0.20032 -0.25323
 Zr136 Zr 0.79682 0.20181 -0.24930
 O137 O 0.66380 0.20229 -0.25228
 O138 O 0.84701 0.21009 -0.24498
 O139 O 0.75431 0.20029 -0.22611
 O140 O 0.79409 0.24147 -0.22412
 O141 O 0.75086 0.28314 -0.22558
 O142 O 0.70944 0.23990 -0.22814
 C143 C 0.81426 0.19414 -0.31138
 C144 C 0.70389 0.19431 -0.31712
 C145 C 0.80720 0.29461 -0.31104
 O146 O 0.84444 0.27888 -0.24675
 O147 O 0.80945 0.29888 -0.20967
 O148 O 0.77913 0.27210 -0.17824
 C149 C 0.80121 0.29195 -0.18478
 O150 O 0.69144 0.29579 -0.29022
 Zr151 Zr 0.71124 0.28000 -0.25222
 O152 O 0.71811 0.27103 -0.18081
 O153 O 0.78780 0.33092 -0.24771
 O154 O 0.71709 0.32927 -0.25301
 O155 O 0.66077 0.27210 -0.25258
 O156 O 0.69310 0.29827 -0.21511
 C157 C 0.69850 0.29193 -0.18965
 O158 O 0.77383 0.21920 -0.16941
 O159 O 0.71980 0.15130 -0.25713
 O160 O 0.72136 0.20862 -0.18168
 O161 O 0.69970 0.17846 -0.21628
 O162 O 0.79166 0.15254 -0.25229
 O163 O 0.81166 0.18120 -0.21147
 C164 C 0.70469 0.18515 -0.19059
 H165 H 0.75820 0.18032 -0.28779
 H166 H 0.81272 0.24119 -0.21132
 H167 H 0.68916 0.23871 -0.21746
 H168 H 0.75296 0.30025 -0.28692
 H169 H 0.85825 0.19013 -0.24878
 H170 H 0.85271 0.30064 -0.24630
 H171 H 0.80967 0.34016 -0.24625
 H172 H 0.69575 0.33874 -0.24943
 H173 H 0.81337 0.14367 -0.25546
 H174 H 0.69775 0.14245 -0.25845
 H175 H 0.65593 0.18039 -0.25258
 H176 H 0.65021 0.29238 -0.24871
 H177 H 0.82971 0.16667 -0.21500
 H178 H 0.76407 0.22679 -0.15189
 H179 H 0.74583 0.25618 -0.34987
 H180 H 0.67577 0.31269 -0.28653
 Zr181 Zr 0.25176 0.75585 -0.29673
 O182 O 0.27525 0.73440 -0.33075
 O183 O 0.21968 0.78582 -0.31746
 O184 O 0.22186 0.72596 -0.32060
 O185 O 0.31454 0.80798 -0.28388
 O186 O 0.19717 0.69482 -0.28872
 O187 O 0.28417 0.78525 -0.31801
 O188 O 0.19084 0.80816 -0.28248
 O189 O 0.20986 0.75244 -0.27288
 O190 O 0.25187 0.79524 -0.27088
 O191 O 0.25553 0.71322 -0.27548
 O192 O 0.29527 0.75422 -0.27404
 Zr193 Zr 0.25624 0.74727 -0.20028
 Zr194 Zr 0.21465 0.71105 -0.25019
 Zr195 Zr 0.29348 0.79247 -0.24666
 Zr196 Zr 0.21130 0.79085 -0.24598
 O197 O 0.34432 0.79076 -0.24380
 O198 O 0.16106 0.78178 -0.24459
 O199 O 0.25274 0.79044 -0.22111
 O200 O 0.21319 0.74955 -0.22326
 O201 O 0.25648 0.70774 -0.22603
 O202 O 0.29787 0.75110 -0.22431
 C203 C 0.19744 0.80388 -0.30811
 C204 C 0.30767 0.80254 -0.30946
 C205 C 0.20320 0.70320 -0.31370
 O206 O 0.16379 0.71359 -0.24970
 O207 O 0.19706 0.69138 -0.21316
 O208 O 0.22637 0.71537 -0.17906
 C209 C 0.20424 0.69646 -0.18759
 O210 O 0.31798 0.69969 -0.28958
 Zr211 Zr 0.29707 0.71289 -0.25117
 O212 O 0.28805 0.71685 -0.17960
 O213 O 0.22067 0.66204 -0.25262
 O214 O 0.29150 0.66376 -0.25527
 O215 O 0.34747 0.72104 -0.24970
 O216 O 0.31424 0.69225 -0.21497
 C217 C 0.30832 0.69694 -0.18931
 O218 O 0.23118 0.76702 -0.16629
 O219 O 0.28817 0.84163 -0.24739
 O220 O 0.28373 0.77893 -0.17627
 O221 O 0.30662 0.81172 -0.20785
 O222 O 0.21646 0.84019 -0.24492
 O223 O 0.19431 0.80855 -0.20752
 C224 C 0.30048 0.80310 -0.18292
 H225 H 0.25173 0.81501 -0.28141
 H226 H 0.19407 0.74895 -0.21109
 H227 H 0.31774 0.75159 -0.21295
 H228 H 0.25666 0.69524 -0.28841
 H229 H 0.14981 0.80184 -0.24767
 H230 H 0.15561 0.69185 -0.25125
 H231 H 0.19879 0.65269 -0.25255
 H232 H 0.31281 0.65414 -0.25188
 H233 H 0.19491 0.84932 -0.24828
 H234 H 0.31019 0.85065 -0.24758
 H235 H 0.35200 0.81265 -0.24211
 H236 H 0.35808 0.70059 -0.24690
 H237 H 0.17587 0.82265 -0.21081
 H238 H 0.24041 0.75817 -0.14907
 H239 H 0.26649 0.74369 -0.34797
 H240 H 0.33388 0.68287 -0.28653
 Zr241 Zr 1.25044 1.24948 0.80095
 O242 O 1.22674 1.22479 0.83296
 O243 O 1.28066 1.27983 0.82393
 O244 O 1.28136 1.22064 0.82416
 O245 O 1.18547 1.29851 0.78947
 O246 O 1.30920 1.19291 0.79158
 O247 O 1.21664 1.27646 0.82308
 O248 O 1.30867 1.30562 0.79043
 O249 O 1.29309 1.25016 0.77791
 O250 O 1.24851 1.28994 0.77696
 O251 O 1.25006 1.20776 0.77762
 O252 O 1.20768 1.24585 0.77729
 Zr253 Zr 1.24934 1.24559 0.70427
 Zr254 Zr 1.29179 1.20965 0.75335
 Zr255 Zr 1.20771 1.28545 0.75187
 Zr256 Zr 1.28988 1.28962 0.75277
 O257 O 1.15723 1.27975 0.74824
 O258 O 1.34068 1.28470 0.75157
 O259 O 1.24917 1.28775 0.72718
 O260 O 1.29154 1.24942 0.72824
 O261 O 1.25099 1.20491 0.72807
 O262 O 1.20677 1.24508 0.72730
 C263 C 1.30216 1.29939 0.81567
 C264 C 1.19256 1.29287 0.81491
 C265 C 1.30176 1.19966 0.81676
 O266 O 1.34233 1.21600 0.75401
 O267 O 1.31108 1.19272 0.71574
 O268 O 1.28156 1.21690 0.68220
 C269 C 1.30416 1.19863 0.69032
 O270 O 1.18758 1.18959 0.78929
 Zr271 Zr 1.20935 1.20570 0.75223
 O272 O 1.22143 1.21353 0.68121
 O273 O 1.28922 1.16027 0.75354
 O274 O 1.21804 1.15698 0.75493
 O275 O 1.15862 1.20997 0.74884
 O276 O 1.19621 1.18479 0.71446
 C277 C 1.20319 1.19099 0.68926
 O278 O 1.27418 1.26934 0.67235
 O279 O 1.20932 1.33482 0.75470
 O280 O 1.22019 1.27605 0.68104
 O281 O 1.19423 1.30538 0.71371
 O282 O 1.28161 1.33848 0.75449
 O283 O 1.30618 1.31045 0.71549
 C284 C 1.20161 1.29855 0.68853
 H285 H 1.24729 1.30917 0.78841
 H286 H 1.31099 1.25069 0.71649
 H287 H 1.18736 1.24456 0.71537
 H288 H 1.24972 1.18917 0.78969
 H289 H 1.35033 1.30543 0.75577
 H290 H 1.35194 1.19485 0.75458
 H291 H 1.31170 1.15258 0.75351
 H292 H 1.19763 1.14598 0.75038
 H293 H 1.30247 1.34880 0.75881
 H294 H 1.18670 1.34212 0.75468
 H295 H 1.14793 1.30102 0.74753
 H296 H 1.14985 1.18890 0.74457
 H297 H 1.32318 1.32606 0.71975
 H298 H 1.26640 1.26082 0.65436
 H299 H 1.23442 1.23345 0.85092
 H300 H 1.17272 1.17205 0.78497
 Zr301 Zr 0.74910 0.75375 0.79620
 O302 O 0.77000 0.77795 0.83023
 O303 O 0.71870 0.72186 0.81658
 O304 O 0.71610 0.78138 0.81849
 O305 O 0.81507 0.70541 0.78661
 O306 O 0.69084 0.81055 0.78555
 O307 O 0.78184 0.72677 0.81920
 O308 O 0.69281 0.69669 0.78110
 O309 O 0.70797 0.75359 0.77104
 O310 O 0.75282 0.71398 0.77108
 O311 O 0.75079 0.79610 0.77441
 O312 O 0.79335 0.75803 0.77510
 Zr313 Zr 0.75681 0.76045 0.70001
 Zr314 Zr 0.71083 0.79478 0.74783
 Zr315 Zr 0.79516 0.71921 0.74840
 Zr316 Zr 0.71302 0.71486 0.74488
 O317 O 0.84579 0.72502 0.74732
 O318 O 0.66235 0.72006 0.74203
 O319 O 0.75537 0.71767 0.72153
 O320 O 0.71306 0.75572 0.72154
 O321 O 0.75334 0.80047 0.72498
 O322 O 0.79765 0.76024 0.72540
 C323 C 0.69838 0.70184 0.80681
 C324 C 0.80642 0.71060 0.81178
 C325 C 0.69637 0.80274 0.81079
 O326 O 0.66034 0.78831 0.74580
 O327 O 0.69360 0.81235 0.70986
 O328 O 0.72604 0.78985 0.67730
 C329 C 0.70243 0.80733 0.68472
 O330 O 0.81163 0.81449 0.79025
 Zr331 Zr 0.79317 0.79889 0.75148
 O332 O 0.78749 0.79239 0.67977
 O333 O 0.71314 0.84415 0.74952
 O334 O 0.78360 0.84749 0.75418
 O335 O 0.84407 0.79487 0.75198
 O336 O 0.81055 0.81967 0.71545
 C337 C 0.80601 0.81391 0.68973
 O338 O 0.73427 0.73831 0.66566
 O339 O 0.79369 0.66978 0.74986
 O340 O 0.78680 0.72993 0.67745
 O341 O 0.81080 0.69990 0.71049
 O342 O 0.72168 0.66603 0.74451
 O343 O 0.69838 0.69542 0.70625
 C344 C 0.80471 0.70712 0.68519
 H345 H 0.75359 0.69440 0.78187
 H346 H 0.69444 0.75469 0.70874
 H347 H 0.81794 0.76088 0.71469
 H348 H 0.75018 0.81435 0.78707
 H349 H 0.65246 0.69926 0.74521
 H350 H 0.65060 0.80940 0.74650
 H351 H 0.69069 0.85177 0.74823
 H352 H 0.80418 0.85878 0.75117
 H353 H 0.70077 0.65536 0.74759
 H354 H 0.81631 0.66257 0.75092
 H355 H 0.85516 0.70377 0.74661
 H356 H 0.85323 0.81608 0.74932
 H357 H 0.68097 0.67992 0.70926
 H358 H 0.74356 0.74736 0.64855
 H359 H 0.76128 0.76865 0.84745
 H360 H 0.82558 0.83302 0.78745
 Zr361 Zr 1.25011 0.74733 0.20254
 O362 O 1.22883 0.76903 0.16773
 O363 O 1.28450 0.71871 0.18299
 O364 O 1.28097 0.77857 0.18155
 O365 O 1.18837 0.69279 0.20963
 O366 O 1.30156 0.81002 0.21568
 O367 O 1.22061 0.71761 0.17834
 O368 O 1.31139 0.69633 0.21898
 O369 O 1.28986 0.75150 0.22906
 O370 O 1.24938 0.70726 0.22713
 O371 O 1.24299 0.78921 0.22467
 O372 O 1.20482 0.74684 0.22236
 Zr373 Zr 1.23746 0.75313 0.29861
 Zr374 Zr 1.28163 0.79212 0.25254
 Zr375 Zr 1.20582 0.70791 0.24861
 Zr376 Zr 1.28769 0.71234 0.25466
 O377 O 1.15484 0.70790 0.24840
 O378 O 1.33735 0.72296 0.25935
 O379 O 1.24433 0.71071 0.27676
 O380 O 1.28233 0.75296 0.27837
 O381 O 1.23781 0.79333 0.27411
 O382 O 1.19808 0.74846 0.27182
 C383 C 1.30641 0.70094 0.19314
 C384 C 1.19716 0.69930 0.18477
 C385 C 1.29804 0.80188 0.19017
 O386 O 1.33238 0.79112 0.25627
 O387 O 1.29540 0.81143 0.29113
 O388 O 1.26425 0.78560 0.32257
 C389 C 1.28630 0.80544 0.31599
 O390 O 1.18161 0.80126 0.20699
 Zr391 Zr 1.19959 0.78746 0.24627
 O392 O 1.20229 0.78131 0.31795
 O393 O 1.27412 0.84095 0.25110
 O394 O 1.20391 0.83683 0.24451
 O395 O 1.14954 0.77766 0.24372
 O396 O 1.17802 0.80596 0.28176
 C397 C 1.18172 0.80042 0.30756
 O398 O 1.26053 0.73363 0.33363
 O399 O 1.21289 0.65898 0.24657
 O400 O 1.20979 0.71954 0.31990
 O401 O 1.19067 0.68696 0.28594
 O402 O 1.28417 0.66287 0.25430
 O403 O 1.30232 0.69438 0.29361
 C404 C 1.19466 0.69493 0.31148
 H405 H 1.25105 0.68777 0.21608
 H406 H 1.30038 0.75392 0.29175
 H407 H 1.17735 0.74684 0.28180
 H408 H 1.24225 0.80746 0.21221
 H409 H 1.34950 0.70335 0.25636
 H410 H 1.33990 0.81313 0.25587
 H411 H 1.29560 0.85098 0.25287
 H412 H 1.18205 0.84570 0.24673
 H413 H 1.30623 0.65447 0.25203
 H414 H 1.19127 0.64929 0.24473
 H415 H 1.14787 0.68572 0.24868
 H416 H 1.13793 0.79768 0.24620
 H417 H 1.32152 0.68102 0.29114
 H418 H 1.24948 0.74164 0.35043
 H419 H 1.23930 0.76047 0.15086
 H420 H 1.16535 0.81790 0.20948
 Zr421 Zr 0.74355 1.25757 0.20206
 O422 O 0.76610 1.23563 0.16781
 O423 O 0.71187 1.28833 0.18168
 O424 O 0.71266 1.22852 0.17843
 O425 O 0.80767 1.30820 0.21427
 O426 O 0.68762 1.19772 0.21036
 O427 O 0.77617 1.28633 0.18043
 O428 O 0.68424 1.31122 0.21715
 O429 O 0.70190 1.25520 0.22631
 O430 O 0.74504 1.29689 0.22796
 O431 O 0.74655 1.21482 0.22324
 O432 O 0.78730 1.25467 0.22433
 Zr433 Zr 0.74899 1.24894 0.29839
 Zr434 Zr 0.70588 1.21363 0.24879
 Zr435 Zr 0.78691 1.29299 0.25164
 Zr436 Zr 0.70474 1.29351 0.25331
 O437 O 0.83771 1.28976 0.25389
 O438 O 0.65426 1.28595 0.25525
 O439 O 0.74651 1.29216 0.27763
 O440 O 0.70573 1.25210 0.27583
 O441 O 0.74785 1.20933 0.27272
 O442 O 0.79043 1.25160 0.27402
 C443 C 0.69024 1.30681 0.19147
 C444 C 0.80014 1.30307 0.18880
 C445 C 0.69364 1.20608 0.18536
 O446 O 0.65514 1.21764 0.24969
 O447 O 0.68847 1.19435 0.28599
 O448 O 0.71887 1.21763 0.31985
 C449 C 0.69627 1.19922 0.31144
 O450 O 0.80844 1.19908 0.20889
 Zr451 Zr 0.78830 1.21330 0.24732
 O452 O 0.78034 1.21817 0.31894
 O453 O 0.71022 1.16445 0.24623
 O454 O 0.78087 1.16436 0.24369
 O455 O 0.83893 1.22016 0.24802
 O456 O 0.80566 1.19261 0.28362
 C457 C 0.80020 1.19785 0.30931
 O458 O 0.72445 1.26949 0.33229
 O459 O 0.78315 1.34231 0.25100
 O460 O 0.77748 1.27996 0.32220
 O461 O 0.80113 1.31179 0.29026
 O462 O 0.71126 1.34270 0.25435
 O463 O 0.68875 1.31144 0.29200
 C464 C 0.79496 1.30353 0.31527
 H465 H 0.74527 1.31670 0.21747
 H466 H 0.68674 1.25194 0.28816
 H467 H 0.81044 1.25167 0.28519
 H468 H 0.74707 1.19684 0.21028
 H469 H 0.64361 1.30637 0.25241
 H470 H 0.64631 1.19612 0.24840
 H471 H 0.68805 1.15578 0.24663
 H472 H 0.80181 1.15405 0.24712
 H473 H 0.68992 1.35239 0.25127
 H474 H 0.80543 1.35069 0.25082
 H475 H 0.84612 1.31143 0.25521
 H476 H 0.84903 1.19949 0.25097
 H477 H 0.67087 1.32628 0.28896
 H478 H 0.73357 1.26065 0.34956
 H479 H 0.75737 1.24512 0.15067
 H480 H 0.82351 1.18155 0.21194
 O481 O 0.54785 1.06012 0.04507
 O482 O 0.58237 1.02641 0.02281
 C483 C 0.57636 1.04975 0.03937
 O484 O 0.45493 0.95309 0.05961
 O485 O 0.41843 0.97757 0.03131
 C486 C 0.42580 0.95958 0.05203
 O487 O 0.54366 0.95334 0.05993
 O488 O 0.58030 0.97375 0.02929
 C489 C 0.57284 0.95794 0.05135
 O490 O 0.45903 1.06687 0.04232
 O491 O 0.42050 1.03369 0.02443
 C492 C 0.42932 1.05860 0.03815
 Zr493 Zr 0.50230 1.04424 0.03182
 O494 O 0.50188 1.04850 0.07541
 O495 O 0.50781 1.09304 0.02652
 Zr496 Zr 0.49933 0.96753 0.04322
 O497 O 0.50057 0.98178 0.08516
 O498 O 0.49730 0.91976 0.05427
 O499 O 0.53010 1.00577 0.04214
 O500 O 0.47230 1.00784 0.04303
 O501 O 0.45554 1.04706 -0.05227
 O502 O 0.41883 1.02589 -0.02212
 C503 C 0.42642 1.04272 -0.04350
 O504 O 0.53993 0.93379 -0.03919
 O505 O 0.57850 0.96595 -0.01994
 C506 C 0.56958 0.94223 -0.03517
 O507 O 0.45120 0.93477 -0.03447
 O508 O 0.41664 0.97062 -0.01525
 C509 C 0.42260 0.94526 -0.02933
 O510 O 0.54393 1.04066 -0.05614
 O511 O 0.58055 1.01835 -0.02663
 C512 C 0.57312 1.03425 -0.04864
 Zr513 Zr 0.49978 1.03117 -0.03666
 O514 O 0.49477 1.02450 -0.07987
 O515 O 0.50542 1.08000 -0.04210
 Zr516 Zr 0.49675 0.95384 -0.02522
 O517 O 0.49152 0.94597 -0.06831
 O518 O 0.49774 0.90511 -0.01791
 Zr519 Zr 0.54831 0.99735 0.00209
 Zr520 Zr 0.45073 1.00089 0.00408
 O521 O 0.46990 0.99252 -0.03554
 O522 O 0.52689 0.99036 -0.03708
 O523 O 0.47235 1.04490 -0.00280
 O524 O 0.52609 0.95388 0.00923
 O525 O 0.52960 1.04244 -0.00380
 O526 O 0.46901 0.95557 0.01045
 H527 H 0.45820 1.01133 0.05927
 H528 H 0.53990 0.93524 0.01140
 H529 H 0.45501 0.98988 -0.05144
 H530 H 0.54484 1.06002 -0.00657
 H531 H 0.50760 0.90760 0.03930
 H532 H 0.48207 0.90067 -0.00303
 H533 H 0.51052 0.95513 -0.07760
 H534 H 0.50913 1.00714 -0.08526
 H535 H 0.48605 1.09039 -0.03457
 H536 H 0.49289 1.09932 0.01160
 H537 H 0.50253 1.07122 0.07955
 H538 H 0.49893 0.96239 0.09620
 O539 O 1.04478 0.55088 0.55660
 O540 O 1.08152 0.52494 0.52945
 C541 C 1.07400 0.54380 0.54966
 O542 O 0.95473 0.43943 0.54781
 O543 O 0.91873 0.47111 0.52526
 C544 C 0.92573 0.44785 0.54149
 O545 O 1.04310 0.44408 0.55402
 O546 O 1.08077 0.47146 0.52905
 C547 C 1.07254 0.45170 0.54821
 O548 O 0.95617 0.55477 0.55309
 O549 O 0.91949 0.52706 0.52683
 C550 C 0.92702 0.54751 0.54587
 Zr551 Zr 1.00050 0.53720 0.53915
 O552 O 0.99852 0.53211 0.58260
 O553 O 1.00419 0.58651 0.54145
 Zr554 Zr 0.99934 0.45913 0.53696
 O555 O 0.99639 0.46253 0.58055
 O556 O 1.00250 0.40981 0.53803
 O557 O 1.02883 0.49773 0.54379
 O558 O 0.97124 0.49820 0.54264
 O559 O 0.95800 0.55627 0.45442
 O560 O 0.92023 0.52806 0.47849
 C561 C 0.92853 0.54874 0.46011
 O562 O 1.04492 0.44674 0.45124
 O563 O 1.08156 0.47184 0.47942
 C564 C 1.07406 0.45337 0.45891
 O565 O 0.95596 0.44523 0.45189
 O566 O 0.91933 0.47347 0.47728
 C567 C 0.92680 0.45314 0.45828
 O568 O 1.04640 0.55104 0.45234
 O569 O 1.08247 0.52456 0.47956
 C570 C 1.07542 0.54341 0.45941
 Zr571 Zr 1.00183 0.53959 0.47021
 O572 O 1.00085 0.54733 0.42709
 O573 O 1.00630 0.58853 0.47625
 Zr574 Zr 1.00051 0.46074 0.46783
 O575 O 0.99850 0.45975 0.42407
 O576 O 1.00306 0.41130 0.46886
 Zr577 Zr 1.04939 0.49858 0.50400
 Zr578 Zr 0.95155 0.49965 0.50257
 O579 O 0.97338 0.50060 0.46327
 O580 O 1.02977 0.49994 0.46374
 O581 O 0.97196 0.54494 0.50433
 O582 O 1.02829 0.45379 0.50267
 O583 O 1.02989 0.54387 0.50514
 O584 O 0.97074 0.45402 0.50170
 H585 H 0.95645 0.49753 0.55869
 H586 H 1.04256 0.43529 0.50258
 H587 H 0.95999 0.50106 0.44629
 H588 H 1.04502 0.56185 0.50559
 H589 H 0.98973 0.40166 0.52226
 H590 H 0.98199 0.40326 0.47529
 H591 H 1.01373 0.47581 0.41728
 H592 H 0.99944 0.52653 0.41816
 H593 H 0.98459 0.59689 0.48020
 H594 H 0.98763 0.59518 0.52895
 H595 H 0.99858 0.55355 0.59052
 H596 H 0.99549 0.44080 0.58748
 O597 O 1.05768 0.46187 0.04769
 O598 O 1.02691 0.42454 0.02549
 C599 C 1.04862 0.43320 0.04354
 O600 O 0.94342 0.54839 0.04624
 O601 O 0.97221 0.58194 0.01859
 C602 C 0.95064 0.57609 0.03748
 O603 O 0.94834 0.46276 0.05486
 O604 O 0.97314 0.42492 0.02860
 C605 C 0.95497 0.43384 0.04909
 O606 O 1.06383 0.54716 0.03799
 O607 O 1.03030 0.58127 0.01550
 C608 C 1.05500 0.57507 0.03117
 Zr609 Zr 1.04217 0.50364 0.02958
 O610 O 1.04198 0.50930 0.07307
 O611 O 1.09289 0.49942 0.02819
 Zr612 Zr 0.96216 0.50451 0.03536
 O613 O 0.97105 0.50965 0.07823
 O614 O 0.91170 0.50236 0.04105
 O615 O 1.00234 0.47642 0.03927
 O616 O 1.00292 0.53226 0.03598
 O617 O 1.05205 0.53984 -0.05735
 O618 O 1.02658 0.57771 -0.03167
 C619 C 1.04599 0.56876 -0.05132
 O620 O 0.93622 0.45529 -0.04522
 O621 O 0.96830 0.42132 -0.02103
 C622 C 0.94485 0.42740 -0.03811
 O623 O 0.93538 0.54173 -0.04723
 O624 O 0.96873 0.57869 -0.02762
 C625 C 0.94440 0.57046 -0.04314
 O626 O 1.04719 0.45389 -0.05524
 O627 O 1.02299 0.42082 -0.02424
 C628 C 1.04040 0.42627 -0.04607
 Zr629 Zr 1.03537 0.49820 -0.03949
 O630 O 1.03240 0.49772 -0.08319
 O631 O 1.08615 0.49392 -0.04124
 Zr632 Zr 0.95492 0.49924 -0.03371
 O633 O 0.95475 0.49657 -0.07737
 O634 O 0.90393 0.50094 -0.03272
 Zr635 Zr 0.99804 0.45417 0.00041
 Zr636 Zr 0.99922 0.54866 -0.00476
 O637 O 0.99488 0.52582 -0.04325
 O638 O 0.99415 0.47031 -0.04056
 O639 O 1.04557 0.52884 -0.00704
 O640 O 0.95217 0.47451 0.00283
 O641 O 1.04448 0.47334 -0.00383
 O642 O 0.95253 0.52976 -0.00029
 H643 H 1.00446 0.54784 0.05119
 H644 H 0.93333 0.46055 0.00531
 H645 H 0.99326 0.53853 -0.06026
 H646 H 1.06309 0.45892 -0.00423
 H647 H 0.90181 0.51232 0.02470
 H648 H 0.89628 0.48679 -0.01802
 H649 H 0.93184 0.49729 -0.08311
 H650 H 1.01321 0.48512 -0.08827
 H651 H 1.09571 0.51391 -0.03480
 H652 H 1.10038 0.51152 0.01206
 H653 H 1.06486 0.50989 0.07892
 H654 H 0.94963 0.51094 0.08715
 O655 O 0.43146 0.95497 0.45834
 O656 O 0.46599 0.92031 0.47917
 C657 C 0.44152 0.92695 0.46340
 O658 O 0.54451 1.04151 0.44141
 O659 O 0.52128 1.07761 0.47049
 C660 C 0.53884 1.06997 0.44925
 O661 O 0.54117 0.95524 0.44048
 O662 O 0.51990 0.92038 0.47155
 C663 C 0.53569 0.92706 0.44909
 O664 O 0.42829 1.04142 0.46118
 O665 O 0.46413 1.07749 0.47882
 C666 C 0.43808 1.06991 0.46522
 Zr667 Zr 0.44998 0.99856 0.47137
 O668 O 0.44378 0.99908 0.42795
 O669 O 0.39983 0.99514 0.47862
 Zr670 Zr 0.52868 0.99877 0.45773
 O671 O 0.51239 0.99832 0.41627
 O672 O 0.57739 0.99863 0.44497
 O673 O 0.48828 0.97030 0.45975
 O674 O 0.48819 1.02635 0.45928
 O675 O 0.45209 1.04382 0.55591
 O676 O 0.47409 1.07871 0.52525
 C677 C 0.45745 1.07193 0.54720
 O678 O 0.56487 0.95788 0.53865
 O679 O 0.52983 0.92164 0.52013
 C680 C 0.55518 0.92940 0.53457
 O681 O 0.56655 1.04401 0.53518
 O682 O 0.53052 1.07884 0.51681
 C683 C 0.55668 1.07215 0.53045
 O684 O 0.45598 0.95775 0.55915
 O685 O 0.47610 0.92157 0.52852
 C686 C 0.46108 0.92924 0.55117
 Zr687 Zr 0.46579 1.00030 0.53937
 O688 O 0.47268 1.00446 0.58259
 O689 O 0.41537 0.99650 0.54527
 Zr690 Zr 0.54519 1.00056 0.52580
 O691 O 0.55492 1.00488 0.56870
 O692 O 0.59508 0.99807 0.51709
 Zr693 Zr 0.49771 0.95222 0.49943
 Zr694 Zr 0.49744 1.04691 0.49813
 O695 O 0.50665 1.02784 0.53739
 O696 O 0.50693 0.97260 0.53852
 O697 O 0.45154 1.02761 0.50612
 O698 O 0.54298 0.97230 0.49116
 O699 O 0.45212 0.97181 0.50675
 O700 O 0.54323 1.02764 0.49032
 H701 H 0.48461 1.04014 0.44317
 H702 H 0.56167 0.95836 0.48827
 H703 H 0.51047 1.04200 0.55336
 H704 H 0.43368 0.95751 0.50996
 H705 H 0.59035 0.99068 0.46055
 H706 H 0.59995 1.01405 0.50296
 H707 H 0.54566 0.98639 0.57802
 H708 H 0.49285 0.99340 0.58705
 H709 H 0.40545 1.01638 0.53940
 H710 H 0.39443 1.01075 0.49302
 H711 H 0.42021 0.99917 0.42461
 H712 H 0.53197 0.99916 0.40462
 O713 O 1.04962 0.93197 0.52962
 O714 O 1.03386 0.96641 0.56353
 C715 C 1.04906 0.94159 0.55507
 O716 O 1.06569 1.04032 0.45270
 O717 O 1.02463 1.02095 0.42557
 C718 C 1.05155 1.03603 0.42908
 O719 O 1.07967 1.03629 0.52806
 O720 O 1.04749 1.01753 0.56281
 C721 C 1.07325 1.03156 0.55394
 O722 O 1.03085 0.92984 0.45459
 O723 O 1.00917 0.96713 0.42618
 C724 C 1.02271 0.94030 0.43048
 Zr725 Zr 1.02936 0.95123 0.49386
 O726 O 1.07830 0.94112 0.48582
 O727 O 1.01734 0.90337 0.49782
 Zr728 Zr 1.05242 1.02594 0.49242
 O729 O 1.09841 1.00611 0.48629
 O730 O 1.07192 1.07165 0.49143
 O731 O 1.05072 0.98673 0.51715
 O732 O 1.04255 0.98731 0.46810
 O733 O 0.92616 0.96100 0.46760
 O734 O 0.95807 0.98017 0.43284
 C735 C 0.93300 0.96509 0.44176
 O736 O 0.96898 1.06787 0.54100
 O737 O 0.99298 1.03176 0.56927
 C738 C 0.97702 1.05732 0.56507
 O739 O 0.95982 1.06996 0.46466
 O740 O 0.97318 1.03386 0.43131
 C741 C 0.96038 1.06007 0.43925
 O742 O 0.93595 0.96567 0.54361
 O743 O 0.97894 0.98131 0.57037
 C744 C 0.95039 0.96936 0.56718
 Zr745 Zr 0.95258 0.97317 0.50325
 O746 O 0.90310 0.98449 0.50587
 O747 O 0.94096 0.92521 0.50785
 Zr748 Zr 0.97557 1.04861 0.50138
 O749 O 0.92681 1.06261 0.50427
 O750 O 0.99090 1.09588 0.50275
 Zr751 Zr 1.00888 0.99943 0.53904
 Zr752 Zr 0.99572 1.00028 0.45652
 O753 O 0.95444 1.01270 0.47907
 O754 O 0.96181 1.01250 0.52753
 O755 O 0.98518 0.95647 0.47422
 O756 O 1.01941 1.04272 0.52073
 O757 O 0.99317 0.95631 0.52279
 O758 O 1.01193 1.04358 0.47235
 H759 H 1.05832 0.98241 0.45333
 H760 H 1.02657 1.06033 0.53265
 H761 H 0.93431 1.01783 0.46902
 H762 H 0.99004 0.93861 0.53565
 H763 H 1.05477 1.08596 0.49769
 H764 H 1.00310 1.10006 0.48559
 H765 H 0.91783 1.05361 0.52143
 H766 H 0.90143 1.00330 0.51774
 H767 H 0.94472 0.91474 0.48985
 H768 H 0.99728 0.89974 0.48719
 H769 H 1.07989 0.91804 0.48479
 H770 H 1.11351 1.02391 0.48399
 O771 O 0.56775 0.55230 -0.03708
 O772 O 0.54027 0.52402 -0.07017
 C773 C 0.56240 0.54381 -0.06244
 O774 O 0.54931 0.44301 0.04159
 O775 O 0.51981 0.47603 0.06925
 C776 C 0.53891 0.45245 0.06542
 O777 O 0.56529 0.44469 -0.03370
 O778 O 0.53938 0.47086 -0.06860
 C779 C 0.56055 0.45105 -0.05956
 O780 O 0.55248 0.56110 0.03788
 O781 O 0.52144 0.53191 0.06751
 C782 C 0.54190 0.55412 0.06224
 Zr783 Zr 0.54444 0.53920 -0.00045
 O784 O 0.59423 0.53251 0.00631
 O785 O 0.55160 0.58809 -0.00275
 Zr786 Zr 0.54240 0.46164 0.00198
 O787 O 0.59249 0.46620 0.00892
 O788 O 0.54632 0.41239 0.00099
 O789 O 0.55272 0.49909 -0.02351
 O790 O 0.54610 0.50154 0.02593
 O791 O 0.44491 0.56166 0.02757
 O792 O 0.46821 0.53306 0.06218
 C793 C 0.44964 0.55532 0.05343
 O794 O 0.44796 0.44622 -0.04527
 O795 O 0.48329 0.47147 -0.07413
 C796 C 0.45954 0.45250 -0.06942
 O797 O 0.44214 0.44602 0.03115
 O798 O 0.46663 0.47695 0.06401
 C799 C 0.44724 0.45452 0.05652
 O800 O 0.45039 0.55368 -0.04864
 O801 O 0.48450 0.52454 -0.07577
 C802 C 0.46150 0.54459 -0.07233
 Zr803 Zr 0.46378 0.54090 -0.00837
 O804 O 0.41280 0.54167 -0.00968
 O805 O 0.46553 0.59005 -0.01310
 Zr806 Zr 0.46161 0.46268 -0.00594
 O807 O 0.41066 0.46482 -0.00724
 O808 O 0.45945 0.41326 -0.00799
 Zr809 Zr 0.50818 0.49892 -0.04456
 Zr810 Zr 0.49760 0.50313 0.03817
 O811 O 0.45363 0.50309 0.01649
 O812 O 0.45944 0.50063 -0.03243
 O813 O 0.50111 0.54756 0.01972
 O814 O 0.50495 0.45490 -0.02567
 O815 O 0.50732 0.54475 -0.02859
 O816 O 0.49866 0.45701 0.02251
 H817 H 0.56281 0.50186 0.04062
 H818 H 0.50617 0.43578 -0.03729
 H819 H 0.43338 0.50401 0.02727
 H820 H 0.50925 0.56251 -0.04154
 H821 H 0.52512 0.40396 0.00650
 H822 H 0.47151 0.40506 0.00806
 H823 H 0.40443 0.47509 -0.02472
 H824 H 0.40581 0.52827 -0.02534
 H825 H 0.47837 0.59869 0.00246
 H826 H 0.53148 0.59714 -0.01005
 H827 H 0.60390 0.55369 0.00738
 H828 H 0.60077 0.44466 0.01102
 C829 C 0.39273 1.12874 0.07318
 C830 C 0.36605 1.11551 0.08631
 C831 C 0.35759 1.08430 0.08070
 C832 C 0.37679 1.06601 0.06308
 C833 C 0.31361 1.18393 0.16510
 C834 C 0.41197 1.11055 0.05587
 C835 C 0.34962 1.13348 0.10729
 C836 C 0.33758 1.14919 0.12532
 C837 C 0.32459 1.16796 0.14674
 C838 C 0.40481 1.07876 0.05130
 H839 H 0.39952 1.15281 0.07729
 H840 H 0.33703 1.07375 0.09081
 H841 H 0.37094 1.04152 0.06012
 H842 H 0.43335 1.12103 0.04699
 C843 C 0.86113 0.60384 0.56554
 C844 C 0.86500 0.60436 0.59442
 C845 C 0.88585 0.58315 0.60698
 C846 C 0.90414 0.56283 0.59086
 C847 C 0.81772 0.68719 0.66398
 C848 C 0.87939 0.58317 0.54928
 C849 C 0.85012 0.62800 0.61144
 C850 C 0.83934 0.64738 0.62709
 C851 C 0.82772 0.66933 0.64662
 C852 C 0.90171 0.56321 0.56189
 H853 H 0.84513 0.62024 0.55557
 H854 H 0.88912 0.58331 0.62923
 H855 H 0.92150 0.54783 0.60094
 H856 H 0.87769 0.58423 0.52695
 C857 C 0.64411 0.90773 0.07133
 C858 C 0.63814 0.90372 0.09968
 C859 C 0.61337 0.92054 0.11233
 C860 C 0.59359 0.93988 0.09666
 C861 C 0.69146 0.82196 0.16647
 C862 C 0.62434 0.92744 0.05553
 C863 C 0.65533 0.88092 0.11589
 C864 C 0.66781 0.86188 0.13082
 C865 C 0.68091 0.83998 0.14959
 C866 C 0.59827 0.94290 0.06800
 H867 H 0.66320 0.89480 0.06127
 H868 H 0.60848 0.91775 0.13419
 H869 H 0.57370 0.95156 0.10679
 H870 H 0.62818 0.92907 0.03343
 C871 C 1.14445 0.40353 0.57052
 C872 C 1.13638 0.39803 0.59829
 C873 C 1.10977 0.41301 0.60988
 C874 C 1.09036 0.43204 0.59366
 C875 C 1.18881 0.31826 0.66720
 C876 C 1.12500 0.42298 0.55416
 C877 C 1.15348 0.37569 0.61499
 C878 C 1.16568 0.35708 0.63045
 C879 C 1.17841 0.33576 0.64985
 C880 C 1.09724 0.43661 0.56551
 H881 H 1.16501 0.39201 0.56131
 H882 H 1.10327 0.40905 0.63128
 H883 H 1.06912 0.44235 0.60291
 H884 H 1.13056 0.42591 0.53245
 C885 C 0.61272 1.06630 -0.11241
 C886 C 0.63781 1.08423 -0.10114
 C887 C 0.64452 1.08225 -0.07270
 C888 C 0.62510 1.06366 -0.05548
 C889 C 0.69112 1.16434 -0.17026
 C890 C 0.59325 1.04808 -0.09532
 C891 C 0.65450 1.10626 -0.11873
 C892 C 0.66680 1.12478 -0.13438
 C893 C 0.68007 1.14633 -0.15351
 C894 C 0.59863 1.04722 -0.06660
 H895 H 0.60726 1.06747 -0.13431
 H896 H 0.66384 1.09602 -0.06367
 H897 H 0.62940 1.06382 -0.03337
 H898 H 0.57295 1.03572 -0.10439
 C899 C 1.14072 0.59788 0.43461
 C900 C 1.13691 0.59462 0.40584
 C901 C 1.11662 0.57119 0.39532
 C902 C 1.09873 0.55252 0.41326
 C903 C 1.18220 0.67421 0.33234
 C904 C 1.12287 0.57892 0.45269
 C905 C 1.15109 0.61676 0.38688
 C906 C 1.16141 0.63514 0.37013
 C907 C 1.17259 0.65641 0.34986
 C908 C 1.10100 0.55679 0.44202
 H909 H 1.15623 0.61601 0.44304
 H910 H 1.11335 0.56841 0.37319
 H911 H 1.08166 0.53585 0.40464
 H912 H 1.12443 0.58302 0.47478
 C913 C 0.35405 0.92402 -0.07706
 C914 C 0.35786 0.89147 -0.07859
 C915 C 0.37901 0.87667 -0.06038
 C916 C 0.39804 0.89436 -0.04227
 C917 C 0.31253 0.82236 -0.16065
 C918 C 0.37296 0.94183 -0.05864
 C919 C 0.34335 0.87343 -0.10071
 C920 C 0.33297 0.85762 -0.11955
 C921 C 0.32191 0.83865 -0.14176
 C922 C 0.39603 0.92714 -0.04192
 H923 H 0.33782 0.93576 -0.09112
 H924 H 0.38219 0.85156 -0.06132
 H925 H 0.41585 0.88257 -0.02971
 H926 H 0.37145 0.96709 -0.05911
 C927 C 0.85573 0.40295 0.43675
 C928 C 0.86128 0.40073 0.40815
 C929 C 0.88576 0.41853 0.39614
 C930 C 0.90573 0.43713 0.41262
 C931 C 0.80794 0.32274 0.33711
 C932 C 0.87566 0.42198 0.45337
 C933 C 0.84404 0.37873 0.39088
 C934 C 0.83160 0.36053 0.37492
 C935 C 0.81858 0.33977 0.35494
 C936 C 0.90138 0.43843 0.44139
 H937 H 0.83688 0.38917 0.44627
 H938 H 0.89028 0.41707 0.37410
 H939 H 0.92545 0.44966 0.40301
 H940 H 0.87223 0.42240 0.47557
 C941 C 1.08956 0.40058 0.10628
 C942 C 1.10251 0.37271 0.09620
 C943 C 1.09509 0.36272 0.06916
 C944 C 1.07568 0.38132 0.05200
 C945 C 1.18132 0.31989 0.16713
 C946 C 1.07060 0.41911 0.08928
 C947 C 1.12463 0.35595 0.11368
 C948 C 1.14309 0.34390 0.12969
 C949 C 1.16418 0.33099 0.14957
 C950 C 1.06403 0.41011 0.06180
 H951 H 1.09502 0.40857 0.12710
 H952 H 1.10507 0.34117 0.06111
 H953 H 1.07121 0.37408 0.03082
 H954 H 1.06182 0.44115 0.09738
 C955 C 0.57950 0.86123 0.57936
 C956 C 0.61222 0.86827 0.58358
 C957 C 0.62663 0.89243 0.56870
 C958 C 0.60819 0.91072 0.55102
 C959 C 0.68330 0.82075 0.66307
 C960 C 0.56090 0.87956 0.56142
 C961 C 0.63070 0.85326 0.60496
 C962 C 0.64705 0.84248 0.62319
 C963 C 0.66667 0.83087 0.64471
 C964 C 0.57496 0.90519 0.54791
 H965 H 0.56809 0.84257 0.59084
 H966 H 0.65184 0.89815 0.57178
 H967 H 0.61963 0.93030 0.54080
 H968 H 0.53529 0.87507 0.55958
 C969 C 1.09675 0.63806 -0.07407
 C970 C 1.10393 0.62903 -0.10136
 C971 C 1.08930 0.60239 -0.11265
 C972 C 1.06896 0.58402 -0.09656
 C973 C 1.18642 0.68283 -0.16893
 C974 C 1.07603 0.61964 -0.05784
 C975 C 1.12729 0.64560 -0.11791
 C976 C 1.14666 0.65780 -0.13309
 C977 C 1.16867 0.67118 -0.15205
 C978 C 1.06268 0.59196 -0.06881
 H979 H 1.10788 0.65871 -0.06510
 H980 H 1.09443 0.59521 -0.13372
 H981 H 1.05892 0.56289 -0.10562
 H982 H 1.07183 0.62606 -0.03645
 C983 C 0.57650 1.10813 0.38766
 C984 C 0.59416 1.13236 0.39998
 C985 C 0.59040 1.13883 0.42829
 C986 C 0.57016 1.11996 0.44446
 C987 C 0.67673 1.18459 0.33214
 C988 C 0.55665 1.08926 0.40369
 C989 C 0.61756 1.14860 0.38342
 C990 C 0.63695 1.16047 0.36817
 C991 C 0.65893 1.17338 0.34911
 C992 C 0.55403 1.09439 0.43233
 H993 H 0.57912 1.10295 0.36581
 H994 H 0.60399 1.15757 0.43802
 H995 H 0.56873 1.12409 0.46655
 H996 H 0.54436 1.06971 0.39389
 C997 C 0.92925 0.64380 0.08431
 C998 C 0.89611 0.63825 0.08780
 C999 C 0.88071 0.61578 0.07126
 C1000 C 0.89847 0.59755 0.05280
 C1001 C 0.82548 0.68662 0.16803
 C1002 C 0.94713 0.62556 0.06556
 C1003 C 0.87807 0.65320 0.10975
 C1004 C 0.86200 0.66418 0.12825
 C1005 C 0.84242 0.67619 0.14985
 C1006 C 0.93197 0.60153 0.05042
 H1007 H 0.94152 0.66112 0.09697
 H1008 H 0.85518 0.61120 0.07366
 H1009 H 0.88629 0.57898 0.04150
 H1010 H 0.97298 0.62867 0.06442
 C1011 C 0.42584 1.11310 0.61003
 C1012 C 0.40518 1.13508 0.59831
 C1013 C 0.40501 1.13936 0.56953
 C1014 C 0.42429 1.12046 0.55248
 C1015 C 0.32432 1.18510 0.66935
 C1016 C 0.44473 1.09414 0.59313
 C1017 C 0.38250 1.15081 0.61606
 C1018 C 0.36367 1.16226 0.63213
 C1019 C 0.34210 1.17458 0.65195
 C1020 C 0.44343 1.09700 0.56422
 H1021 H 0.42626 1.10958 0.63221
 H1022 H 0.38903 1.15628 0.56024
 H1023 H 0.42261 1.12272 0.53022
 H1024 H 0.45929 1.07615 0.60259
 C1025 C 0.92221 0.35616 -0.08092
 C1026 C 0.88913 0.36149 -0.08485
 C1027 C 0.87421 0.38588 -0.07048
 C1028 C 0.89234 0.40589 -0.05364
 C1029 C 0.81926 0.30636 -0.16256
 C1030 C 0.94048 0.37620 -0.06378
 C1031 C 0.87072 0.34433 -0.10539
 C1032 C 0.85452 0.33164 -0.12305
 C1033 C 0.83529 0.31790 -0.14419
 C1034 C 0.92575 0.40181 -0.05070
 H1035 H 0.93409 0.33743 -0.09201
 H1036 H 0.84874 0.39035 -0.07328
 H1037 H 0.88048 0.42552 -0.04380
 H1038 H 0.96628 0.37293 -0.06220
 C1039 C 0.41283 0.87766 0.40410
 C1040 C 0.38242 0.86821 0.41346
 C1041 C 0.37363 0.87423 0.44098
 C1042 C 0.39441 0.89114 0.45849
 C1043 C 0.30391 0.82037 0.33818
 C1044 C 0.43363 0.89437 0.42161
 C1045 C 0.35962 0.85466 0.39412
 C1046 C 0.34109 0.84401 0.37713
 C1047 C 0.32037 0.83160 0.35640
 C1048 C 0.42427 0.90182 0.44871
 H1049 H 0.41988 0.87340 0.38285
 H1050 H 0.35019 0.86710 0.44851
 H1051 H 0.38648 0.89736 0.47912
 H1052 H 0.45614 0.90326 0.41344
 C1053 C 1.06671 1.09159 0.37103
 C1054 C 1.10040 1.09346 0.37248
 C1055 C 1.11762 1.07232 0.38858
 C1056 C 1.10125 1.05100 0.40498
 C1057 C 1.17100 1.17936 0.32557
 C1058 C 1.05017 1.07002 0.38749
 C1059 C 1.11771 1.11846 0.35967
 C1060 C 1.13381 1.13889 0.34977
 C1061 C 1.15377 1.16156 0.33772
 C1062 C 1.06746 1.05068 0.40550
 H1063 H 1.05326 1.10785 0.35843
 H1064 H 1.14368 1.07357 0.38974
 H1065 H 1.11494 1.03627 0.41883
 H1066 H 1.02407 1.07031 0.38789
 C1067 C 0.58678 0.58883 -0.12568
 C1068 C 0.61771 0.59868 -0.11776
 C1069 C 0.63169 0.58739 -0.09353
 C1070 C 0.61414 0.56773 -0.07636
 C1071 C 0.68115 0.68242 -0.17446
 C1072 C 0.56920 0.56883 -0.10855
 C1073 C 0.63453 0.62192 -0.13330
 C1074 C 0.64906 0.64166 -0.14572
 C1075 C 0.66634 0.66424 -0.16055
 C1076 C 0.58248 0.55900 -0.08335
 H1077 H 0.57585 0.59754 -0.14446
 H1078 H 0.65567 0.59477 -0.08737
 H1079 H 0.62484 0.56031 -0.05703
 H1080 H 0.54468 0.56267 -0.11410
 C1081 C 0.94737 1.12657 0.60396
 C1082 C 0.92486 1.11240 0.62135
 C1083 C 0.92437 1.07982 0.62419
 C1084 C 0.94467 1.06130 0.60792
 C1085 C 0.83547 1.17896 0.66971
 C1086 C 0.96730 1.10815 0.58752
 C1087 C 0.90025 1.13110 0.63386
 C1088 C 0.87933 1.14677 0.64394
 C1089 C 0.85517 1.16462 0.65670
 C1090 C 0.96517 1.07546 0.58861
 H1091 H 0.94811 1.15174 0.60176
 H1092 H 0.90699 1.06873 0.63768
 H1093 H 0.94221 1.03607 0.60864
 H1094 H 0.98268 1.11933 0.57243
 C1095 C 0.41403 0.58660 0.12034
 C1096 C 0.39858 0.61354 0.11077
 C1097 C 0.40048 0.62158 0.08291
 C1098 C 0.41734 0.60268 0.06451
 C1099 C 0.32649 0.68385 0.17450
 C1100 C 0.43113 0.56756 0.10187
 C1101 C 0.37979 0.63272 0.12898
 C1102 C 0.36333 0.64916 0.14337
 C1103 C 0.34355 0.66824 0.15990
 C1104 C 0.43266 0.57530 0.07368
 H1105 H 0.41258 0.58018 0.14194
 H1106 H 0.38862 0.64236 0.07531
 H1107 H 0.41825 0.60957 0.04300
 H1108 H 0.44269 0.54667 0.10953
 C1109 C 1.10978 0.88425 0.58248
 C1110 C 1.10634 0.88785 0.61100
 C1111 C 1.08386 0.90910 0.62166
 C1112 C 1.06487 0.92682 0.60363
 C1113 C 1.18030 0.81963 0.67439
 C1114 C 1.09085 0.90166 0.56457
 C1115 C 1.12629 0.86958 0.62888
 C1116 C 1.14349 0.85373 0.64302
 C1117 C 1.16360 0.83509 0.65947
 C1118 C 1.06814 0.92313 0.57487
 H1119 H 1.12726 0.86805 0.57404
 H1120 H 1.08106 0.91206 0.64379
 H1121 H 1.04773 0.94324 0.61214
 H1122 H 1.09447 0.89856 0.54255
 C1123 C 0.56611 0.38289 0.10443
 C1124 C 0.58775 0.39667 0.12306
 C1125 C 0.58885 0.42926 0.12618
 C1126 C 0.56988 0.44814 0.10918
 C1127 C 0.67085 0.32457 0.17301
 C1128 C 0.54743 0.40164 0.08739
 C1129 C 0.61089 0.37728 0.13661
 C1130 C 0.63040 0.36050 0.14722
 C1131 C 0.65275 0.34083 0.16017
 C1132 C 0.55010 0.43430 0.08897
 H1133 H 0.56512 0.35772 0.10189
 H1134 H 0.60566 0.44007 0.14055
 H1135 H 0.57267 0.47330 0.11021
 H1136 H 0.53254 0.39069 0.07160
 C1137 C 0.90581 0.91181 0.38453
 C1138 C 0.87369 0.90679 0.39214
 C1139 C 0.85992 0.92447 0.41338
 C1140 C 0.87884 0.94571 0.42825
 C1141 C 0.81176 0.81909 0.33821
 C1142 C 0.92473 0.93329 0.39924
 C1143 C 0.85555 0.88220 0.37921
 C1144 C 0.84100 0.86141 0.36792
 C1145 C 0.82482 0.83779 0.35311
 C1146 C 0.91160 0.94954 0.42182
 H1147 H 0.91659 0.89811 0.36808
 H1148 H 0.83501 0.92088 0.41921
 H1149 H 0.86835 0.95803 0.44566
 H1150 H 0.95009 0.93541 0.39433
 C1151 C 0.43512 0.38645 -0.11500
 C1152 C 0.40304 0.39465 -0.12007
 C1153 C 0.39203 0.42451 -0.11313
 C1154 C 0.41233 0.44532 -0.09918
 C1155 C 0.32105 0.31636 -0.16466
 C1156 C 0.45552 0.40736 -0.10108
 C1157 C 0.38066 0.37190 -0.13049
 C1158 C 0.36142 0.35335 -0.13941
 C1159 C 0.33910 0.33268 -0.15153
 C1160 C 0.44377 0.43644 -0.09234
 H1161 H 0.44379 0.36335 -0.12037
 H1162 H 0.36725 0.43103 -0.11703
 H1163 H 0.40275 0.46737 -0.09181
 H1164 H 0.47946 0.39991 -0.09517
 C1165 C 1.08990 0.35563 -0.06608
 C1166 C 1.09107 0.35934 -0.09492
 C1167 C 1.07222 0.38226 -0.10745
 C1168 C 1.05388 0.40256 -0.09133
 C1169 C 1.17165 0.30558 -0.16417
 C1170 C 1.07113 0.37590 -0.04981
 C1171 C 1.11338 0.34201 -0.11192
 C1172 C 1.13203 0.32943 -0.12754
 C1173 C 1.15361 0.31623 -0.14698
 C1174 C 1.05388 0.40019 -0.06235
 H1175 H 1.10445 0.33801 -0.05611
 H1176 H 1.07283 0.38539 -0.12968
 H1177 H 1.04077 0.42114 -0.10145
 H1178 H 1.07177 0.37393 -0.02749
 C1179 C 0.58133 0.85410 0.42813
 C1180 C 0.58684 0.86028 0.40004
 C1181 C 0.57248 0.88623 0.38778
 C1182 C 0.55414 0.90679 0.40362
 C1183 C 0.66880 0.80418 0.33373
 C1184 C 0.56262 0.87469 0.44410
 C1185 C 0.60908 0.84199 0.38381
 C1186 C 0.62800 0.82874 0.36892
 C1187 C 0.65017 0.81501 0.35033
 C1188 C 0.54973 0.90176 0.43208
 H1189 H 0.59238 0.83408 0.43787
 H1190 H 0.57650 0.89129 0.36611
 H1191 H 0.54435 0.92737 0.39378
 H1192 H 0.55980 0.87044 0.46603
 C1193 C 0.88176 0.60609 -0.08992
 C1194 C 0.89225 0.63700 -0.09187
 C1195 C 0.91898 0.64712 -0.07636
 C1196 C 0.93566 0.62592 -0.05951
 C1197 C 0.82584 0.69736 -0.16671
 C1198 C 0.89817 0.58508 -0.07327
 C1199 C 0.87585 0.65708 -0.11104
 C1200 C 0.86079 0.67139 -0.12810
 C1201 C 0.84214 0.68596 -0.14876
 C1202 C 0.92570 0.59446 -0.05821
 H1203 H 0.86120 0.59799 -0.10186
 H1204 H 0.92724 0.67111 -0.07774
 H1205 H 0.95669 0.63384 -0.04816
 H1206 H 0.88959 0.56114 -0.07281
 C1207 C 0.36891 1.10772 0.42779
 C1208 C 0.38409 1.13321 0.41532
 C1209 C 0.41614 1.14044 0.42223
 C1210 C 0.43336 1.12122 0.44045
 C1211 C 0.31877 1.18715 0.33518
 C1212 C 0.38603 1.08850 0.44576
 C1213 C 0.36728 1.14989 0.39383
 C1214 C 0.35245 1.16230 0.37540
 C1215 C 0.33444 1.17579 0.35364
 C1216 C 0.41871 1.09444 0.45164
 H1217 H 0.34419 1.10184 0.42266
 H1218 H 0.42820 1.16007 0.41264
 H1219 H 0.45859 1.12613 0.44432
 H1220 H 0.37408 1.06806 0.45406
 C1221 C 1.07772 0.64404 0.07609
 C1222 C 1.11071 0.63837 0.07990
 C1223 C 1.12586 0.61533 0.06403
 C1224 C 1.10784 0.59649 0.04606
 C1225 C 1.17867 0.68609 0.16232
 C1226 C 1.05962 0.62533 0.05776
 C1227 C 1.12856 0.65333 0.10201
 C1228 C 1.14417 0.66420 0.12091
 C1229 C 1.16281 0.67595 0.14327
 C1230 C 1.07439 0.60058 0.04348
 H1231 H 1.06568 0.66175 0.08833
 H1232 H 1.15132 0.61070 0.06672
 H1233 H 1.11973 0.57744 0.03538
 H1234 H 1.03382 0.62858 0.05643
 C1235 C 0.58070 1.14016 0.57637
 C1236 C 0.61384 1.13456 0.57934
 C1237 C 0.62849 1.11178 0.56282
 C1238 C 0.60997 1.09325 0.54494
 C1239 C 0.68460 1.18187 0.66048
 C1240 C 0.56206 1.12171 0.55818
 C1241 C 0.63245 1.14948 0.60110
 C1242 C 0.64869 1.16033 0.61966
 C1243 C 0.66809 1.17202 0.64166
 C1244 C 0.57643 1.09730 0.54311
 H1245 H 0.56901 1.15767 0.58907
 H1246 H 0.65403 1.10718 0.56482
 H1247 H 0.62160 1.07450 0.53365
 H1248 H 0.53621 1.12492 0.55752
 C1249 C 0.91111 0.36135 0.07415
 C1250 C 0.90213 0.37119 0.10078
 C1251 C 0.91329 0.39982 0.11108
 C1252 C 0.93197 0.41925 0.09455
 C1253 C 0.82076 0.31639 0.16815
 C1254 C 0.93013 0.38086 0.05748
 C1255 C 0.87990 0.35350 0.11740
 C1256 C 0.86098 0.34072 0.13253
 C1257 C 0.83898 0.32732 0.15135
 C1258 C 0.93991 0.41040 0.06734
 H1259 H 0.90261 0.33917 0.06599
 H1260 H 0.90662 0.40766 0.13164
 H1261 H 0.93938 0.44177 0.10281
 H1262 H 0.93576 0.37359 0.03655
 C1263 C 0.42625 0.89197 0.61467
 C1264 C 0.40915 0.86673 0.60334
 C1265 C 0.41271 0.85936 0.57517
 C1266 C 0.43200 0.87825 0.55816
 C1267 C 0.32661 0.81472 0.67192
 C1268 C 0.44521 0.91085 0.59779
 C1269 C 0.38632 0.85040 0.62056
 C1270 C 0.36713 0.83841 0.63602
 C1271 C 0.34494 0.82553 0.65507
 C1272 C 0.44748 0.90482 0.56923
 H1273 H 0.42383 0.89790 0.63639
 H1274 H 0.39960 0.83986 0.56615
 H1275 H 0.43310 0.87331 0.53618
 H1276 H 0.45699 0.93112 0.60687
 C1277 C 0.38582 1.07860 -0.10478
 C1278 C 0.36459 1.09954 -0.09220
 C1279 C 0.36025 1.09871 -0.06340
 C1280 C 0.37845 1.07804 -0.04719
 C1281 C 0.31569 1.18080 -0.16181
 C1282 C 0.40404 1.05828 -0.08873
 C1283 C 0.34950 1.12300 -0.10914
 C1284 C 0.33843 1.14211 -0.12477
 C1285 C 0.32629 1.16356 -0.14434
 C1286 C 0.40124 1.05841 -0.05977
 H1287 H 0.38938 1.07891 -0.12698
 H1288 H 0.34388 1.11483 -0.05341
 H1289 H 0.37629 1.07888 -0.02487
 H1290 H 0.42158 1.04345 -0.09885
 C1291 C 0.89215 0.58657 0.39765
 C1292 C 0.86571 0.60226 0.40875
 C1293 C 0.85739 0.59761 0.43662
 C1294 C 0.87646 0.57831 0.45351
 C1295 C 0.81350 0.67971 0.33737
 C1296 C 0.91115 0.56771 0.41437
 C1297 C 0.84894 0.62421 0.39133
 C1298 C 0.83695 0.64230 0.37522
 C1299 C 0.82425 0.66290 0.35513
 C1300 C 0.90408 0.56400 0.44259
 H1301 H 0.89881 0.58977 0.37618
 H1302 H 0.83689 0.60958 0.44546
 H1303 H 0.87065 0.57593 0.47521
 H1304 H 0.93221 0.55677 0.40539
 C1305 C 0.62482 1.07853 0.09935
 C1306 C 0.63674 1.10683 0.08906
 C1307 C 0.63335 1.11355 0.06084
 C1308 C 0.61628 1.09298 0.04344
 C1309 C 0.67997 1.18732 0.16345
 C1310 C 0.60786 1.05802 0.08200
 C1311 C 0.64945 1.12993 0.10810
 C1312 C 0.65903 1.14883 0.12491
 C1313 C 0.66997 1.17016 0.14541
 C1314 C 0.60274 1.06550 0.05413
 H1315 H 0.62706 1.07313 0.12113
 H1316 H 0.64237 1.13539 0.05263
 H1317 H 0.61177 1.09951 0.02217
 H1318 H 0.59671 1.03739 0.09078
 C1319 C 1.11364 0.58334 0.61025
 C1320 C 1.13797 0.60065 0.59745
 C1321 C 1.14429 0.59595 0.56920
 C1322 C 1.12514 0.57513 0.55360
 C1323 C 1.18963 0.68416 0.66456
 C1324 C 1.09446 0.56292 0.59476
 C1325 C 1.15434 0.62453 0.61342
 C1326 C 1.16622 0.64423 0.62831
 C1327 C 1.17891 0.66644 0.64727
 C1328 C 1.09939 0.55929 0.56618
 H1329 H 1.10853 0.58665 0.63205
 H1330 H 1.16307 0.60923 0.55905
 H1331 H 1.12904 0.57300 0.53152
 H1332 H 1.07470 0.55100 0.60489
 C1333 C 0.60607 0.87354 -0.07202
 C1334 C 0.63041 0.88785 -0.08738
 C1335 C 0.63777 0.91953 -0.08278
 C1336 C 0.61963 0.93715 -0.06384
 C1337 C 0.68100 0.82056 -0.16774
 C1338 C 0.58788 0.89105 -0.05340
 C1339 C 0.64561 0.87027 -0.10924
 C1340 C 0.65691 0.85476 -0.12773
 C1341 C 0.66959 0.83621 -0.14939
 C1342 C 0.59383 0.92320 -0.04972
 H1343 H 0.60016 0.84910 -0.07534
 H1344 H 0.65655 0.93087 -0.09461
 H1345 H 0.62434 0.96197 -0.06164
 H1346 H 0.56810 0.87976 -0.04275
 C1347 C 1.11549 0.42089 0.39666
 C1348 C 1.13444 0.39748 0.40837
 C1349 C 1.13742 0.39567 0.43726
 C1350 C 1.12000 0.41620 0.45431
 C1351 C 1.18030 0.31680 0.33611
 C1352 C 1.09797 0.44109 0.41357
 C1353 C 1.14831 0.37414 0.39041
 C1354 C 1.15855 0.35515 0.37412
 C1355 C 1.16998 0.33386 0.35395
 C1356 C 1.09939 0.43835 0.44246
 H1357 H 1.11296 0.42254 0.37440
 H1358 H 1.15192 0.37755 0.44657
 H1359 H 1.12081 0.41331 0.47655
 H1360 H 1.08185 0.45777 0.40408
 C1361 C 0.38530 0.92455 0.11381
 C1362 C 0.36323 0.90400 0.10141
 C1363 C 0.35838 0.90503 0.07266
 C1364 C 0.37678 0.92545 0.05631
 C1365 C 0.31261 0.82164 0.16962
 C1366 C 0.40379 0.94461 0.09758
 C1367 C 0.34781 0.88061 0.11837
 C1368 C 0.33638 0.86135 0.13374
 C1369 C 0.32371 0.83944 0.15277
 C1370 C 0.40034 0.94469 0.06865
 H1371 H 0.38930 0.92406 0.13596
 H1372 H 0.34145 0.88916 0.06279
 H1373 H 0.37424 0.92465 0.03400
 H1374 H 0.42204 0.95900 0.10751
 C1375 C 0.88537 0.37719 0.57094
 C1376 C 0.86540 0.39053 0.59100
 C1377 C 0.86112 0.42310 0.59151
 C1378 C 0.87836 0.44226 0.57316
 C1379 C 0.82098 0.31502 0.66842
 C1380 C 0.90265 0.39620 0.55284
 C1381 C 0.85200 0.37077 0.61234
 C1382 C 0.84213 0.35344 0.63016
 C1383 C 0.83104 0.33266 0.65092
 C1384 C 0.90012 0.42891 0.55434
 H1385 H 0.88895 0.35212 0.57024
 H1386 H 0.84575 0.43378 0.60694
 H1387 H 0.87658 0.46744 0.57511
 H1388 H 0.91964 0.38544 0.53875
 C1389 C 1.10411 1.07170 0.61838
 C1390 C 1.13320 1.08408 0.60866
 C1391 C 1.14458 1.07567 0.58252
 C1392 C 1.12598 1.05643 0.56540
 C1393 C 1.18973 1.17031 0.66901
 C1394 C 1.08543 1.05236 0.60126
 C1395 C 1.14991 1.10751 0.62447
 C1396 C 1.16316 1.12771 0.63765
 C1397 C 1.17782 1.15118 0.65381
 C1398 C 1.09570 1.04550 0.57423
 H1399 H 1.09520 1.07812 0.63867
 H1400 H 1.16713 1.08508 0.57489
 H1401 H 1.13462 1.05142 0.54473
 H1402 H 1.06213 1.04445 0.60853
 C1403 C 0.59728 0.57814 0.11915
 C1404 C 0.59760 0.61055 0.11514
 C1405 C 0.57511 0.62438 0.09756
 C1406 C 0.55401 0.60565 0.08231
 C1407 C 0.68409 0.67942 0.16527
 C1408 C 0.57593 0.55934 0.10399
 C1409 C 0.62238 0.62946 0.12735
 C1410 C 0.64303 0.64549 0.13762
 C1411 C 0.66615 0.66410 0.15114
 C1412 C 0.55514 0.57302 0.08472
 H1413 H 0.61467 0.56732 0.13277
 H1414 H 0.57512 0.64944 0.09446
 H1415 H 0.53838 0.61642 0.06715
 H1416 H 0.57761 0.53415 0.10551
 C1417 C 1.06777 0.91482 0.36772
 C1418 C 1.06913 0.88258 0.37248
 C1419 C 1.04961 0.86906 0.39268
 C1420 C 1.03112 0.88803 0.40988
 C1421 C 1.15985 0.81651 0.32530
 C1422 C 1.04901 0.93388 0.38484
 C1423 C 1.09355 0.86403 0.35955
 C1424 C 1.11475 0.84863 0.34957
 C1425 C 1.13954 0.83101 0.33744
 C1426 C 1.03198 0.92066 0.40693
 H1427 H 1.08289 0.92547 0.35213
 H1428 H 1.05048 0.84414 0.39646
 H1429 H 1.01819 0.87744 0.42690
 H1430 H 1.05041 0.95902 0.38255
 C1431 C 0.58607 0.40339 -0.12164
 C1432 C 0.61590 0.39229 -0.11237
 C1433 C 0.62869 0.40288 -0.08728
 C1434 C 0.61114 0.42340 -0.07083
 C1435 C 0.68123 0.31046 -0.17011
 C1436 C 0.56845 0.42421 -0.10518
 C1437 C 0.63318 0.36919 -0.12786
 C1438 C 0.64821 0.34987 -0.14044
 C1439 C 0.66609 0.32795 -0.15568
 C1440 C 0.58058 0.43369 -0.07932
 H1441 H 0.57608 0.39532 -0.14115
 H1442 H 0.65185 0.39462 -0.08006
 H1443 H 0.62111 0.43058 -0.05104
 H1444 H 0.54483 0.43162 -0.11199
 C1445 C 0.90910 1.08354 0.37818
 C1446 C 0.90131 1.11427 0.38568
 C1447 C 0.91551 1.12805 0.40897
 C1448 C 0.93642 1.11083 0.42542
 C1449 C 0.81897 1.18002 0.32826
 C1450 C 0.93019 1.06620 0.39465
 C1451 C 0.87794 1.13155 0.37025
 C1452 C 0.85850 1.14661 0.35764
 C1453 C 0.83654 1.16462 0.34244
 C1454 C 0.94337 1.07949 0.41885
 H1455 H 0.89810 1.07271 0.36015
 H1456 H 0.90964 1.15182 0.41491
 H1457 H 0.94622 1.12172 0.44391
 H1458 H 0.93478 1.04202 0.38927
 C1459 C 0.39411 0.56936 -0.11715
 C1460 C 0.40607 0.59794 -0.12662
 C1461 C 0.43861 0.60566 -0.12279
 C1462 C 0.45854 0.58588 -0.10756
 C1463 C 0.32671 0.67815 -0.17089
 C1464 C 0.41395 0.54966 -0.10192
 C1465 C 0.38422 0.62045 -0.13776
 C1466 C 0.36560 0.63924 -0.14681
 C1467 C 0.34410 0.66071 -0.15854
 C1468 C 0.44588 0.55838 -0.09625
 H1469 H 0.36896 0.56322 -0.12002
 H1470 H 0.44802 0.62778 -0.13008
 H1471 H 0.48289 0.59327 -0.10264
 H1472 H 0.40369 0.52890 -0.09264
 C1473 C 0.92974 0.91683 0.62586
 C1474 C 0.89606 0.91825 0.62465
 C1475 C 0.88098 0.94097 0.60863
 C1476 C 0.89937 0.96040 0.59186
 C1477 C 0.82375 0.83350 0.67152
 C1478 C 0.94828 0.93654 0.60923
 C1479 C 0.87675 0.89452 0.63722
 C1480 C 0.85992 0.87461 0.64703
 C1481 C 0.84011 0.85187 0.65915
 C1482 C 0.93301 0.95733 0.59115
 H1483 H 0.94156 0.89926 0.63828
 H1484 H 0.85493 0.94230 0.60773
 H1485 H 0.88720 0.97619 0.57788
 H1486 H 0.97415 0.93349 0.60853
 C1487 C 0.40227 0.43207 0.12163
 C1488 C 0.39237 0.40169 0.11445
 C1489 C 0.40187 0.38845 0.08937
 C1490 C 0.42045 0.40564 0.07107
 C1491 C 0.32025 0.32908 0.17530
 C1492 C 0.42120 0.44943 0.10323
 C1493 C 0.37206 0.38361 0.13213
 C1494 C 0.35513 0.36694 0.14579
 C1495 C 0.33591 0.34654 0.16133
 C1496 C 0.42987 0.43645 0.07756
 H1497 H 0.39501 0.44241 0.14113
 H1498 H 0.39453 0.36491 0.08375
 H1499 H 0.42723 0.39484 0.05162
 H1500 H 0.42817 0.47312 0.10863
   
