data_POSCAR
  _audit_creation_date              2014-09-24
  _audit_creation_method            'ToBaCCo'
  _symmetry_space_group_name_H-M    'P1'
  _symmetry_Int_Tables_number       1
  _symmetry_cell_setting            triclinic
  loop_
  _symmetry_equiv_pos_as_xyz
 x,y,z
_cell_length_a 68.5981
_cell_length_b 69.4200
_cell_length_c 69.8995
_cell_angle_alpha 89.889200
_cell_angle_beta 90.165900
_cell_angle_gamma 89.885800
loop_
  _atom_site_label
  _atom_site_type_symbol
  _atom_site_fract_x
  _atom_site_fract_y
  _atom_site_fract_z
C1 C 0.37693 0.29537 -0.00482
 C2 C 0.37619 0.29526 0.01476
 C3 C 0.35795 0.30220 0.01968
 N4 N 0.34745 0.30644 0.00380
 C5 C 0.35897 0.30204 -0.01124
 C6 C 0.35074 0.30319 0.03854
 C7 C 0.33417 0.31417 0.04338
 C8 C 0.32415 0.31294 0.06054
 C9 C 0.31006 0.32710 0.06011
 C10 C 0.31194 0.33653 0.04270
 N11 N 0.32664 0.32855 0.03261
 C12 C 0.30129 0.35299 0.03703
 C13 C 0.30093 0.35956 0.01792
 C14 C 0.29445 0.37755 0.01217
 C15 C 0.29516 0.37770 -0.00742
 C16 C 0.30175 0.35965 -0.01301
 N17 N 0.30549 0.34863 0.00255
 C18 C 0.30303 0.35312 -0.03217
 C19 C 0.31443 0.33675 -0.03703
 C20 C 0.31203 0.32582 -0.05347
 C21 C 0.32606 0.31169 -0.05304
 C22 C 0.33674 0.31431 -0.03635
 N23 N 0.32940 0.32950 -0.02655
 C24 C 0.35296 0.30289 -0.03065
 H25 H 0.38929 0.29093 -0.01335
 H26 H 0.38774 0.29063 0.02430
 H27 H 0.33533 0.33560 -0.01423
 H28 H 0.32686 0.30306 0.07224
 H29 H 0.29980 0.33025 0.07141
 H30 H 0.28973 0.38935 0.02115
 H31 H 0.29117 0.38972 -0.01651
 H32 H 0.32793 0.30054 -0.06367
 H33 H 0.33266 0.33405 0.02010
 H34 H 0.30106 0.32760 -0.06449
 C35 C 0.72478 0.64199 0.01452
 C36 C 0.72552 0.64244 -0.00508
 C37 C 0.70803 0.65036 -0.01126
 N38 N 0.69667 0.65479 0.00385
 C39 C 0.70684 0.64961 0.01961
 C40 C 0.70193 0.65149 -0.03052
 C41 C 0.68589 0.66285 -0.03647
 C42 C 0.67730 0.66209 -0.05441
 C43 C 0.66341 0.67637 -0.05496
 C44 C 0.66348 0.68525 -0.03713
 N45 N 0.67746 0.67702 -0.02609
 C46 C 0.65236 0.70175 -0.03201
 C47 C 0.65035 0.70782 -0.01270
 C48 C 0.64075 0.72438 -0.00669
 C49 C 0.63985 0.72354 0.01287
 C50 C 0.64857 0.70636 0.01828
 N51 N 0.65498 0.69680 0.00267
 C52 C 0.64867 0.69886 0.03712
 C53 C 0.65989 0.68267 0.04260
 C54 C 0.65734 0.67220 0.05933
 C55 C 0.67168 0.65831 0.05972
 C56 C 0.68256 0.66069 0.04321
 N57 N 0.67534 0.67562 0.03290
 C58 C 0.69920 0.64976 0.03833
 H59 H 0.73598 0.63635 0.02392
 H60 H 0.73742 0.63723 -0.01380
 H61 H 0.68176 0.68185 0.02093
 H62 H 0.68092 0.65254 -0.06609
 H63 H 0.65467 0.67992 -0.06736
 H64 H 0.63437 0.73567 -0.01535
 H65 H 0.63302 0.73414 0.02200
 H66 H 0.67380 0.64766 0.07087
 H67 H 0.68255 0.68224 -0.01307
 H68 H 0.64629 0.67431 0.07015
 C69 C 0.62298 0.29198 0.98647
 C70 C 0.62216 0.29314 1.00602
 C71 C 0.63870 0.30301 1.01184
 N72 N 0.64971 0.30765 0.99651
 C73 C 0.64009 0.30097 0.98098
 C74 C 0.64428 0.30600 1.03108
 C75 C 0.66051 0.31732 1.03646
 C76 C 0.66933 0.31687 1.05433
 C77 C 0.68385 0.33044 1.05408
 C78 C 0.68320 0.33929 1.03625
 N79 N 0.66897 0.33109 1.02556
 C80 C 0.69524 0.35487 1.03045
 C81 C 0.69723 0.36012 1.01092
 C82 C 0.70465 0.37753 1.00442
 C83 C 0.70522 0.37644 0.98487
 C84 C 0.69788 0.35853 0.98003
 N85 N 0.69295 0.34856 0.99594
 C86 C 0.69702 0.35123 0.96122
 C87 C 0.68596 0.33488 0.95623
 C88 C 0.68746 0.32498 0.93909
 C89 C 0.67328 0.31099 0.93931
 C90 C 0.66354 0.31276 0.95659
 N91 N 0.67133 0.32738 0.96678
 C92 C 0.64719 0.30172 0.96203
 H93 H 0.61231 0.28504 0.97738
 H94 H 0.61082 0.28706 1.01487
 H95 H 0.66560 0.33336 0.97918
 H96 H 0.66582 0.30771 1.06636
 H97 H 0.69375 0.33339 1.06578
 H98 H 0.70913 0.38980 1.01287
 H99 H 0.71037 0.38759 0.97531
 H100 H 0.67039 0.30078 0.92798
 H101 H 0.66396 0.33598 1.01235
 H102 H 0.69758 0.32767 0.92755
 C103 C 0.27834 0.63858 0.98654
 C104 C 0.27892 0.63793 1.00612
 C105 C 0.29716 0.64461 1.01162
 N106 N 0.30745 0.64995 0.99603
 C107 C 0.29595 0.64627 0.98070
 C108 C 0.30464 0.64448 1.03058
 C109 C 0.32133 0.65549 1.03556
 C110 C 0.33339 0.65178 1.05111
 C111 C 0.34741 0.66587 1.05127
 C112 C 0.34360 0.67789 1.03581
 N113 N 0.32782 0.67130 1.02612
 C114 C 0.35452 0.69460 1.03111
 C115 C 0.35442 0.70218 1.01223
 C116 C 0.36091 0.72037 1.00699
 C117 C 0.36044 0.72112 0.98741
 C118 C 0.35303 0.70363 0.98131
 N119 N 0.34935 0.69206 0.99648
 C120 C 0.35140 0.69790 0.96201
 C121 C 0.34025 0.68186 0.95621
 C122 C 0.34027 0.67393 0.93801
 C123 C 0.32621 0.65982 0.93786
 C124 C 0.31800 0.65953 0.95597
 N125 N 0.32654 0.67310 0.96699
 C126 C 0.30189 0.64820 0.96147
 H127 H 0.26629 0.63391 0.97769
 H128 H 0.26727 0.63286 1.01523
 H129 H 0.32173 0.67765 0.98033
 H130 H 0.33243 0.63994 1.06115
 H131 H 0.35927 0.66693 1.06145
 H132 H 0.36575 0.73187 1.01627
 H133 H 0.36506 0.73318 0.97874
 H134 H 0.32218 0.65114 0.92563
 H135 H 0.32084 0.67819 1.01474
 H136 H 0.34911 0.67817 0.92593
 C137 C -0.00611 0.29658 0.37868
 C138 C 0.01384 0.29715 0.37873
 C139 C 0.01933 0.30435 0.36107
 N140 N 0.00345 0.30800 0.35012
 C141 C -0.01216 0.30303 0.36081
 C142 C 0.03878 0.30617 0.35488
 C143 C 0.04419 0.31773 0.33914
 C144 C 0.06254 0.31803 0.33090
 C145 C 0.06228 0.33244 0.31736
 C146 C 0.04368 0.34033 0.31752
 N147 N 0.03281 0.33135 0.33093
 C148 C 0.03759 0.35649 0.30674
 C149 C 0.01776 0.36164 0.30451
 C150 C 0.01118 0.37862 0.29627
 C151 C -0.00873 0.37748 0.29567
 C152 C -0.01373 0.35960 0.30307
 N153 N 0.00251 0.34998 0.30861
 C154 C -0.03291 0.35201 0.30367
 C155 C -0.03767 0.33578 0.31514
 C156 C -0.05390 0.32419 0.31242
 C157 C -0.05360 0.31052 0.32662
 C158 C -0.03718 0.31403 0.33770
 N159 N -0.02741 0.32936 0.33048
 C160 C -0.03170 0.30324 0.35414
 H161 H -0.01512 0.29186 0.39048
 H162 H 0.02325 0.29286 0.39044
 H163 H -0.01541 0.33610 0.33670
 H164 H 0.07497 0.30913 0.33456
 H165 H 0.07454 0.33676 0.30867
 H166 H 0.01973 0.39061 0.29110
 H167 H -0.01839 0.38857 0.29026
 H168 H -0.06412 0.29905 0.32836
 H169 H 0.01922 0.33581 0.33577
 H170 H -0.06472 0.32527 0.30117
 C171 C -0.00569 0.64335 0.72377
 C172 C 0.01415 0.64230 0.72183
 C173 C 0.01825 0.64788 0.70326
 N174 N 0.00164 0.65223 0.69371
 C175 C -0.01307 0.64920 0.70617
 C176 C 0.03686 0.64705 0.69478
 C177 C 0.04132 0.65742 0.67798
 C178 C 0.05767 0.65459 0.66671
 C179 C 0.05708 0.66845 0.65260
 C180 C 0.04036 0.67929 0.65566
 N181 N 0.03089 0.67249 0.67117
 C182 C 0.03472 0.69561 0.64487
 C183 C 0.01558 0.70319 0.64533
 C184 C 0.00978 0.72039 0.63694
 C185 C -0.01011 0.72133 0.63865
 C186 C -0.01578 0.70481 0.64830
 N187 N -0.00008 0.69372 0.65232
 C188 C -0.03526 0.69908 0.65128
 C189 C -0.04038 0.68327 0.66296
 C190 C -0.05821 0.67394 0.66254
 C191 C -0.05757 0.65998 0.67651
 C192 C -0.03956 0.66152 0.68551
 N193 N -0.02913 0.67570 0.67703
 C194 C -0.03314 0.65026 0.70133
 H195 H -0.01379 0.63994 0.73660
 H196 H 0.02440 0.63782 0.73278
 H197 H -0.01582 0.68113 0.68176
 H198 H 0.06890 0.64376 0.66850
 H199 H 0.06775 0.67033 0.64138
 H200 H 0.01886 0.73099 0.62994
 H201 H -0.01933 0.73269 0.63307
 H202 H -0.06908 0.64980 0.67952
 H203 H 0.01910 0.67901 0.67795
 H204 H -0.07040 0.67672 0.65307
 C205 C 0.98541 0.71806 0.36271
 C206 C 1.00534 0.71898 0.36291
 C207 C 1.01213 0.70160 0.35570
 N208 N 0.99694 0.69031 0.35062
 C209 C 0.98061 0.70039 0.35487
 C210 C 1.03202 0.69596 0.35483
 C211 C 1.03823 0.68030 0.34324
 C212 C 1.05602 0.67090 0.34490
 C213 C 1.05699 0.65779 0.33028
 C214 C 1.03944 0.65889 0.32037
 N215 N 1.02814 0.67274 0.32836
 C216 C 1.03490 0.64872 0.30330
 C217 C 1.01546 0.64677 0.29659
 C218 C 1.00989 0.63783 0.27967
 C219 C 0.98997 0.63655 0.27994
 C220 C 0.98393 0.64445 0.29710
 N221 N 0.99950 0.65068 0.30724
 C222 C 0.96454 0.64414 0.30393
 C223 C 0.95837 0.65478 0.32005
 C224 C 0.94061 0.65254 0.32923
 C225 C 0.93966 0.66650 0.34314
 C226 C 0.95699 0.67668 0.34225
 N227 N 0.96824 0.66955 0.32808
 C228 C 0.96149 0.69311 0.35324
 H229 H 0.97563 0.72915 0.36779
 H230 H 1.01384 0.73109 0.36791
 H231 H 0.98088 0.67584 0.32280
 H232 H 1.06734 0.67335 0.35543
 H233 H 1.06945 0.64874 0.32733
 H234 H 1.01910 0.63211 0.26851
 H235 H 0.98101 0.63006 0.26894
 H236 H 0.92750 0.66896 0.35267
 H237 H 1.01527 0.67829 0.32263
 H238 H 0.92934 0.64211 0.32608
 C239 C 0.98568 0.28270 0.63409
 C240 C 1.00566 0.28237 0.63383
 C241 C 1.01186 0.29907 0.64283
 N242 N 0.99634 0.30950 0.64867
 C243 C 0.98032 0.29947 0.64343
 C244 C 1.03148 0.30512 0.64418
 C245 C 1.03763 0.32071 0.65574
 C246 C 1.05597 0.32898 0.65506
 C247 C 1.05676 0.34234 0.66950
 C248 C 1.03868 0.34228 0.67845
 N249 N 1.02721 0.32884 0.67004
 C250 C 1.03375 0.35294 0.69512
 C251 C 1.01419 0.35508 0.70144
 C252 C 1.00840 0.36465 0.71792
 C253 C 0.98846 0.36550 0.71753
 C254 C 0.98258 0.35674 0.70070
 N255 N 0.99830 0.35042 0.69089
 C256 C 0.96313 0.35626 0.69392
 C257 C 0.95705 0.34489 0.67823
 C258 C 0.93904 0.34637 0.66923
 C259 C 0.93833 0.33206 0.65567
 C260 C 0.95603 0.32242 0.65653
 N261 N 0.96727 0.33021 0.67044
 C262 C 0.96098 0.30615 0.64546
 H263 H 0.97624 0.27194 0.62782
 H264 H 1.01458 0.27123 0.62748
 H265 H 0.98022 0.32448 0.67573
 H266 H 1.06779 0.32546 0.64546
 H267 H 1.06951 0.35070 0.67313
 H268 H 1.01744 0.37102 0.72889
 H269 H 0.97936 0.37224 0.72823
 H270 H 0.92611 0.32911 0.64631
 H271 H 1.01400 0.32380 0.67524
 H272 H 0.92750 0.35655 0.67224
 C273 C 0.29800 -0.00690 0.38024
 C274 C 0.29864 0.01281 0.38009
 C275 C 0.30603 0.01813 0.36245
 N276 N 0.30980 0.00236 0.35172
 C277 C 0.30469 -0.01300 0.36252
 C278 C 0.30780 0.03731 0.35601
 C279 C 0.31929 0.04249 0.34013
 C280 C 0.31871 0.06019 0.33093
 C281 C 0.33301 0.05981 0.31716
 C282 C 0.34190 0.04188 0.31838
 N283 N 0.33349 0.03145 0.33245
 C284 C 0.35800 0.03591 0.30733
 C285 C 0.36386 0.01645 0.30596
 C286 C 0.38098 0.01013 0.29755
 C287 C 0.38025 -0.00961 0.29754
 C288 C 0.36270 -0.01466 0.30594
 N289 N 0.35271 0.00128 0.31110
 C290 C 0.35532 -0.03357 0.30708
 C291 C 0.33881 -0.03842 0.31810
 C292 C 0.32810 -0.05518 0.31595
 C293 C 0.31387 -0.05485 0.32974
 C294 C 0.31645 -0.03801 0.34015
 N295 N 0.33164 -0.02802 0.33285
 C296 C 0.30513 -0.03240 0.35618
 H297 H 0.29314 -0.01573 0.39207
 H298 H 0.29422 0.02218 0.39166
 H299 H 0.33795 -0.01576 0.33877
 H300 H 0.30909 0.07219 0.33391
 H301 H 0.33652 0.07144 0.30744
 H302 H 0.39266 0.01883 0.29179
 H303 H 0.39123 -0.01915 0.29174
 H304 H 0.30279 -0.06574 0.33174
 H305 H 0.33850 0.01839 0.33791
 H306 H 0.33020 -0.06640 0.30543
 C307 C 0.63541 -0.00911 0.71667
 C308 C 0.63552 0.01061 0.71760
 C309 C 0.64423 0.01708 0.70092
 N310 N 0.64918 0.00198 0.68974
 C311 C 0.64376 -0.01405 0.69931
 C312 C 0.64588 0.03661 0.69545
 C313 C 0.65692 0.04275 0.67952
 C314 C 0.65668 0.06123 0.67192
 C315 C 0.67037 0.06163 0.65758
 C316 C 0.67861 0.04339 0.65682
 N317 N 0.67046 0.03205 0.67033
 C318 C 0.69445 0.03810 0.64508
 C319 C 0.70057 0.01883 0.64262
 C320 C 0.71806 0.01333 0.63442
 C321 C 0.71790 -0.00638 0.63360
 C322 C 0.70002 -0.01233 0.64074
 N323 N 0.68953 0.00315 0.64645
 C324 C 0.69320 -0.03166 0.64105
 C325 C 0.67701 -0.03712 0.65248
 C326 C 0.66588 -0.05360 0.64983
 C327 C 0.65224 -0.05397 0.66419
 C328 C 0.65514 -0.03757 0.67508
 N329 N 0.67022 -0.02733 0.66785
 C330 C 0.64444 -0.03288 0.69169
 H331 H 0.62945 -0.01869 0.72739
 H332 H 0.62956 0.01914 0.72913
 H333 H 0.67673 -0.01537 0.67416
 H334 H 0.64788 0.07333 0.67646
 H335 H 0.67412 0.07409 0.64903
 H336 H 0.72980 0.02250 0.62959
 H337 H 0.72965 -0.01527 0.62826
 H338 H 0.64128 -0.06497 0.66624
 H339 H 0.67549 0.01854 0.67446
 H340 H 0.66729 -0.06423 0.63862
 C341 C 0.37162 1.00757 0.71184
 C342 C 0.37278 0.98788 0.71099
 C343 C 0.35622 0.98165 0.70142
 N344 N 0.34486 0.99688 0.69668
 C345 C 0.35428 1.01274 0.70297
 C346 C 0.35110 0.96214 0.69852
 C347 C 0.33482 0.95638 0.68748
 C348 C 0.32705 0.93794 0.68714
 C349 C 0.31234 0.93804 0.67374
 C350 C 0.31171 0.95645 0.66606
 N351 N 0.32545 0.96752 0.67448
 C352 C 0.29978 0.96219 0.65057
 C353 C 0.29748 0.98159 0.64491
 C354 C 0.28991 0.98744 0.62746
 C355 C 0.28918 1.00714 0.62790
 C356 C 0.29595 1.01271 0.64579
 N357 N 0.30120 0.99702 0.65613
 C358 C 0.29661 1.03195 0.65259
 C359 C 0.30786 1.03703 0.66890
 C360 C 0.30538 1.05368 0.67960
 C361 C 0.31957 1.05358 0.69350
 C362 C 0.33019 1.03676 0.69112
 N363 N 0.32296 1.02671 0.67613
 C364 C 0.34675 1.03167 0.70209
 H365 H 0.38222 1.01696 0.71849
 H366 H 0.38438 0.97922 0.71705
 H367 H 0.32926 1.01459 0.66994
 H368 H 0.33162 0.92555 0.69543
 H369 H 0.30344 0.92581 0.66981
 H370 H 0.28557 0.97844 0.61557
 H371 H 0.28431 1.01629 0.61628
 H372 H 0.32177 1.06461 0.70421
 H373 H 0.32971 0.98113 0.66994
 H374 H 0.29442 1.06476 0.67766
 C375 C 0.70467 0.98664 0.37562
 C376 C 0.70474 1.00637 0.37603
 C377 C 0.69859 1.01258 0.35811
 N378 N 0.69430 0.99729 0.34693
 C379 C 0.69811 0.98144 0.35762
 C380 C 0.69810 1.03203 0.35186
 C381 C 0.68721 1.03756 0.33543
 C382 C 0.69049 1.05406 0.32469
 C383 C 0.67670 1.05437 0.31041
 C384 C 0.66527 1.03806 0.31276
 N385 N 0.67194 1.02775 0.32792
 C386 C 0.64897 1.03320 0.30119
 C387 C 0.64197 1.01402 0.30027
 C388 C 0.62373 1.00859 0.29353
 C389 C 0.62345 0.98887 0.29341
 C390 C 0.64138 0.98287 0.30037
 N391 N 0.65268 0.99824 0.30466
 C392 C 0.64761 0.96351 0.30135
 C393 C 0.66394 0.95777 0.31226
 C394 C 0.67324 0.94007 0.31096
 C395 C 0.68734 0.93975 0.32503
 C396 C 0.68619 0.95726 0.33448
 N397 N 0.67192 0.96814 0.32661
 C398 C 0.69706 0.96234 0.35085
 H399 H 0.70890 0.97719 0.38725
 H400 H 0.70894 1.01512 0.38815
 H401 H 0.66644 0.98096 0.33213
 H402 H 0.70188 1.06464 0.32670
 H403 H 0.67545 1.06524 0.29936
 H404 H 0.61187 1.01789 0.28907
 H405 H 0.61142 0.97994 0.28876
 H406 H 0.69712 0.92788 0.32811
 H407 H 0.66536 1.01560 0.33383
 H408 H 0.67005 0.92851 0.30107
 O409 O 0.81840 0.84556 0.51788
 O410 O 0.84522 0.81641 0.48279
 O411 O 0.81925 0.84347 0.48100
 O412 O 0.84478 0.81842 0.52011
 O413 O 0.82185 0.79619 0.52060
 O414 O 0.79571 0.82189 0.48201
 O415 O 0.82197 0.79451 0.48350
 O416 O 0.79539 0.82345 0.51924
 Cu417 Cu 0.83428 0.83311 0.50044
 Cu418 Cu 0.80640 0.80681 0.50145
 C419 C 0.80221 0.83964 0.52440
 C420 C 0.83816 0.80053 0.47706
 C421 C 0.80303 0.83712 0.47492
 C422 C 0.83784 0.80291 0.52690
 O423 O 0.17892 0.15295 0.52109
 O424 O 0.15553 0.18005 0.48214
 O425 O 0.18168 0.15323 0.48396
 O426 O 0.15260 0.18008 0.51891
 O427 O 0.17595 0.20177 0.52143
 O428 O 0.20470 0.17532 0.48544
 O429 O 0.17818 0.20246 0.48428
 O430 O 0.20233 0.17462 0.52268
 Cu431 Cu 0.16492 0.16433 0.50141
 Cu432 Cu 0.19265 0.19074 0.50365
 C433 C 0.19469 0.15901 0.52848
 C434 C 0.16267 0.19598 0.47667
 C435 C 0.19807 0.15971 0.47856
 C436 C 0.15918 0.19558 0.52603
 O437 O 0.17838 0.84834 0.48038
 O438 O 0.15151 0.82039 0.51623
 O439 O 0.17814 0.84700 0.51761
 O440 O 0.15163 0.82182 0.47956
 O441 O 0.17438 0.79932 0.47885
 O442 O 0.20131 0.82493 0.51686
 O443 O 0.17456 0.79816 0.51608
 O444 O 0.20126 0.82599 0.47958
 Cu445 Cu 0.16271 0.83670 0.49850
 Cu446 Cu 0.19022 0.80987 0.49777
 C447 C 0.19439 0.84200 0.47380
 C448 C 0.15826 0.80440 0.52211
 C449 C 0.19426 0.84036 0.52374
 C450 C 0.15821 0.80610 0.47294
 O451 O 0.82009 0.15319 0.47981
 O452 O 0.84502 0.18163 0.51684
 O453 O 0.81864 0.15497 0.51695
 O454 O 0.84671 0.17996 0.47971
 O455 O 0.82382 0.20221 0.47749
 O456 O 0.79553 0.17703 0.51474
 O457 O 0.82224 0.20402 0.51460
 O458 O 0.79713 0.17537 0.47760
 Cu459 Cu 0.83490 0.16522 0.49850
 Cu460 Cu 0.80737 0.19188 0.49591
 C461 C 0.80429 0.15930 0.47244
 C462 C 0.83796 0.19772 0.52201
 C463 C 0.80226 0.16166 0.52218
 C464 C 0.84019 0.19542 0.47231
 O465 O 0.48461 0.84739 0.82035
 O466 O 0.52250 0.82164 0.84749
 O467 O 0.52192 0.84769 0.82049
 O468 O 0.48435 0.82112 0.84712
 O469 O 0.48513 0.79800 0.82553
 O470 O 0.52238 0.82487 0.79855
 O471 O 0.52296 0.79874 0.82566
 O472 O 0.48439 0.82422 0.79873
 Cu473 Cu 0.50332 0.83666 0.83616
 Cu474 Cu 0.50378 0.80914 0.80994
 C475 C 0.47824 0.84037 0.80479
 C476 C 0.52921 0.80579 0.84127
 C477 C 0.52824 0.84106 0.80475
 C478 C 0.47836 0.80498 0.84093
 O479 O 0.51951 0.18116 0.15178
 O480 O 0.48468 0.15346 0.18051
 O481 O 0.48208 0.17996 0.15456
 O482 O 0.52249 0.15430 0.17805
 O483 O 0.52318 0.17616 0.20089
 O484 O 0.48358 0.20273 0.17650
 O485 O 0.48532 0.17589 0.20281
 O486 O 0.52154 0.20298 0.17465
 Cu487 Cu 0.50218 0.16495 0.16402
 Cu488 Cu 0.50353 0.19169 0.19098
 C489 C 0.52634 0.19686 0.15820
 C490 C 0.47890 0.15995 0.19650
 C491 C 0.47605 0.19584 0.16134
 C492 C 0.52955 0.16062 0.19364
 O493 O 0.51511 0.15038 0.82164
 O494 O 0.47853 0.17675 0.84980
 O495 O 0.47719 0.15033 0.82342
 O496 O 0.51633 0.17658 0.84803
 O497 O 0.51521 0.19926 0.82591
 O498 O 0.47591 0.17291 0.80121
 O499 O 0.47733 0.19943 0.82769
 O500 O 0.51374 0.17284 0.79929
 Cu501 Cu 0.49688 0.16124 0.83793
 Cu502 Cu 0.49543 0.18838 0.81130
 C503 C 0.52065 0.15705 0.80562
 C504 C 0.47177 0.19267 0.84368
 C505 C 0.46990 0.15704 0.80806
 C506 C 0.52244 0.19244 0.84126
 O507 O 0.47762 0.81982 0.15283
 O508 O 0.51506 0.84655 0.17931
 O509 O 0.51504 0.82018 0.15287
 O510 O 0.47710 0.84610 0.17940
 O511 O 0.47740 0.82355 0.20167
 O512 O 0.51580 0.79767 0.17521
 O513 O 0.51535 0.82415 0.20173
 O514 O 0.47784 0.79708 0.17491
 Cu515 Cu 0.49615 0.83549 0.16396
 Cu516 Cu 0.49660 0.80835 0.19065
 C517 C 0.47160 0.80372 0.15907
 C518 C 0.52162 0.84001 0.19505
 C519 C 0.52173 0.80439 0.15934
 C520 C 0.47080 0.83935 0.19510
 O521 O 0.84895 0.52108 0.82464
 O522 O 0.82253 0.48153 0.84779
 O523 O 0.84902 0.48418 0.82136
 O524 O 0.82232 0.51874 0.85109
 O525 O 0.79972 0.52151 0.82871
 O526 O 0.82565 0.48539 0.79961
 O527 O 0.79904 0.48398 0.82630
 O528 O 0.82632 0.52285 0.80221
 Cu529 Cu 0.83796 0.50119 0.83847
 Cu530 Cu 0.81033 0.50362 0.81200
 C531 C 0.84240 0.52850 0.80930
 C532 C 0.80620 0.47607 0.84117
 C533 C 0.84200 0.47893 0.80538
 C534 C 0.80654 0.52613 0.84499
 O535 O 0.17826 0.48362 0.15517
 O536 O 0.15467 0.52388 0.18035
 O537 O 0.18044 0.52079 0.15318
 O538 O 0.15249 0.48675 0.18253
 O539 O 0.17676 0.48523 0.20330
 O540 O 0.20356 0.52160 0.17517
 O541 O 0.17752 0.52274 0.20260
 O542 O 0.20250 0.48415 0.17595
 Cu543 Cu 0.16411 0.50377 0.16565
 Cu544 Cu 0.19246 0.50345 0.19143
 C545 C 0.19462 0.47725 0.16100
 C546 C 0.16180 0.52991 0.19601
 C547 C 0.19676 0.52704 0.15910
 C548 C 0.15985 0.48012 0.19788
 O549 O 0.82151 0.51487 0.15289
 O550 O 0.84702 0.47634 0.17889
 O551 O 0.82072 0.47766 0.15233
 O552 O 0.84826 0.51356 0.17965
 O553 O 0.82523 0.51417 0.20162
 O554 O 0.79757 0.47790 0.17416
 O555 O 0.82423 0.47660 0.20108
 O556 O 0.79857 0.51542 0.17495
 Cu557 Cu 0.83668 0.49566 0.16375
 Cu558 Cu 0.80908 0.49604 0.19019
 C559 C 0.80558 0.52158 0.15930
 C560 C 0.84008 0.46988 0.19445
 C561 C 0.80442 0.47166 0.15846
 C562 C 0.84161 0.51987 0.19537
 O563 O 0.17981 0.51648 0.84441
 O564 O 0.15418 0.47788 0.81854
 O565 O 0.18036 0.47898 0.84542
 O566 O 0.15351 0.51510 0.81742
 O567 O 0.17709 0.51570 0.79602
 O568 O 0.20339 0.47816 0.82348
 O569 O 0.17695 0.47822 0.79632
 O570 O 0.20348 0.51564 0.82312
 Cu571 Cu 0.16468 0.49717 0.83365
 Cu572 Cu 0.19258 0.49690 0.80756
 C573 C 0.19615 0.52250 0.83834
 C574 C 0.16100 0.47167 0.80284
 C575 C 0.19640 0.47229 0.83927
 C576 C 0.16058 0.52152 0.80191
 C577 C 0.26795 0.38544 0.07808
 C578 C 0.25876 0.37667 0.06234
 C579 C 0.26954 0.36587 0.04924
 C580 C 0.28975 0.36366 0.05156
 C581 C 0.29895 0.37208 0.06741
 C582 C 0.28816 0.38286 0.08057
 C583 C 0.25661 0.39767 0.09145
 N584 N 0.26524 0.40581 0.10696
 N585 N 0.25518 0.41733 0.11856
 C586 C 0.23606 0.42122 0.11513
 N587 N 0.22741 0.41298 0.09969
 N588 N 0.23746 0.40144 0.08811
 C589 C 0.22506 0.43472 0.12754
 C590 C 0.20590 0.44021 0.12279
 C591 C 0.19589 0.45373 0.13386
 C592 C 0.20477 0.46202 0.15000
 C593 C 0.22374 0.45619 0.15504
 C594 C 0.23378 0.44272 0.14392
 H595 H 0.24323 0.37828 0.05999
 H596 H 0.26218 0.35939 0.03714
 H597 H 0.31455 0.37057 0.06940
 H598 H 0.29573 0.38940 0.09251
 H599 H 0.19871 0.43433 0.11030
 H600 H 0.18128 0.45787 0.12960
 H601 H 0.23099 0.46231 0.16739
 H602 H 0.24848 0.43878 0.14805
 C603 C 0.72771 0.61199 0.07857
 C604 C 0.71973 0.60477 0.06151
 C605 C 0.70988 0.61695 0.04887
 C606 C 0.70813 0.63669 0.05281
 C607 C 0.71558 0.64389 0.07011
 C608 C 0.72518 0.63159 0.08298
 C609 C 0.73930 0.59917 0.09114
 N610 N 0.74166 0.60303 0.11006
 N611 N 0.75231 0.59140 0.12115
 C612 C 0.76121 0.57560 0.11369
 N613 N 0.75888 0.57183 0.09478
 N614 N 0.74810 0.58333 0.08376
 C615 C 0.77315 0.56262 0.12575
 C616 C 0.78771 0.55119 0.11735
 C617 C 0.79857 0.53830 0.12841
 C618 C 0.79489 0.53627 0.14806
 C619 C 0.78047 0.54782 0.15655
 C620 C 0.76983 0.56104 0.14552
 H621 H 0.72124 0.58969 0.05784
 H622 H 0.70400 0.61106 0.03573
 H623 H 0.71435 0.65908 0.07341
 H624 H 0.73120 0.63754 0.09603
 H625 H 0.79069 0.55219 0.10217
 H626 H 0.80954 0.52954 0.12145
 H627 H 0.77736 0.54657 0.17168
 H628 H 0.75865 0.56964 0.15234
 C629 C 0.73063 0.38213 0.91935
 C630 C 0.71025 0.38066 0.91741
 C631 C 0.69935 0.37020 0.93074
 C632 C 0.70862 0.36104 0.94619
 C633 C 0.72897 0.36199 0.94784
 C634 C 0.73987 0.37242 0.93457
 C635 C 0.74212 0.39440 0.90617
 N636 N 0.76156 0.39682 0.90897
 N637 N 0.77179 0.40862 0.89784
 C638 C 0.76304 0.41852 0.88340
 N639 N 0.74363 0.41596 0.88044
 N640 N 0.73339 0.40416 0.89160
 C641 C 0.77432 0.43245 0.87175
 C642 C 0.76563 0.44226 0.85629
 C643 C 0.77608 0.45615 0.84605
 C644 C 0.79539 0.46060 0.85113
 C645 C 0.80417 0.45052 0.86634
 C646 C 0.79380 0.43659 0.87648
 H647 H 0.70266 0.38791 0.90586
 H648 H 0.68364 0.36962 0.92928
 H649 H 0.73635 0.35493 0.95966
 H650 H 0.75552 0.37316 0.93647
 H651 H 0.75068 0.43938 0.85222
 H652 H 0.76891 0.46366 0.83439
 H653 H 0.81906 0.45354 0.87057
 H654 H 0.80098 0.42933 0.88828
 C655 C 0.27081 0.61432 0.91998
 C656 C 0.26278 0.63164 0.92683
 C657 C 0.27308 0.64296 0.93993
 C658 C 0.29140 0.63698 0.94665
 C659 C 0.29955 0.61983 0.93972
 C660 C 0.28943 0.60868 0.92638
 C661 C 0.25968 0.60188 0.90668
 N662 N 0.26886 0.58809 0.89628
 N663 N 0.25880 0.57644 0.88482
 C664 C 0.23911 0.57800 0.88337
 N665 N 0.22992 0.59184 0.89372
 N666 N 0.24001 0.60358 0.90509
 C667 C 0.22789 0.56448 0.87123
 C668 C 0.20780 0.56184 0.87412
 C669 C 0.19744 0.54831 0.86334
 C670 C 0.20689 0.53735 0.84925
 C671 C 0.22687 0.54033 0.84603
 C672 C 0.23729 0.55364 0.85700
 H673 H 0.24852 0.63642 0.92209
 H674 H 0.26663 0.65619 0.94515
 H675 H 0.31367 0.61502 0.94480
 H676 H 0.29599 0.59539 0.92145
 H677 H 0.20014 0.56992 0.88501
 H678 H 0.18204 0.54638 0.86610
 H679 H 0.23457 0.53207 0.83530
 H680 H 0.25273 0.55540 0.85436
 C681 C 0.08152 0.27317 0.38609
 C682 C 0.06671 0.26398 0.37557
 C683 C 0.05311 0.27475 0.36521
 C684 C 0.05401 0.29492 0.36512
 C685 C 0.06896 0.30420 0.37525
 C686 C 0.08262 0.29341 0.38565
 C687 C 0.09519 0.26163 0.39796
 N688 N 0.10962 0.27018 0.40823
 N689 N 0.12127 0.25978 0.41954
 C690 C 0.11896 0.24039 0.42107
 N691 N 0.10466 0.23186 0.41066
 N692 N 0.09304 0.24224 0.39935
 C693 C 0.13110 0.22884 0.43442
 C694 C 0.12661 0.20939 0.43782
 C695 C 0.13712 0.19869 0.45127
 C696 C 0.15250 0.20712 0.46157
 C697 C 0.15742 0.22640 0.45781
 C698 C 0.14677 0.23718 0.44442
 H699 H 0.06542 0.24844 0.37553
 H700 H 0.04168 0.26738 0.35742
 H701 H 0.06981 0.31977 0.37535
 H702 H 0.09383 0.30094 0.39358
 H703 H 0.11468 0.20246 0.43038
 H704 H 0.13303 0.18384 0.45375
 H705 H 0.16919 0.23330 0.46554
 H706 H 0.15067 0.25211 0.44210
 C707 C 0.07543 0.72388 0.60748
 C708 C 0.05806 0.71605 0.60019
 C709 C 0.04518 0.70634 0.61222
 C710 C 0.04920 0.70464 0.63185
 C711 C 0.06677 0.71201 0.63909
 C712 C 0.07986 0.72144 0.62698
 C713 C 0.08833 0.73527 0.59490
 N714 N 0.10748 0.73782 0.59924
 N715 N 0.11884 0.74855 0.58804
 C716 C 0.11143 0.75731 0.57221
 N717 N 0.09230 0.75475 0.56791
 N718 N 0.08101 0.74390 0.57898
 C719 C 0.12373 0.76965 0.55996
 C720 C 0.11509 0.78418 0.54878
 C721 C 0.12645 0.79573 0.53688
 C722 C 0.14666 0.79276 0.53561
 C723 C 0.15537 0.77826 0.54681
 C724 C 0.14401 0.76693 0.55906
 H725 H 0.05437 0.71753 0.58518
 H726 H 0.03183 0.70050 0.60631
 H727 H 0.07014 0.71079 0.65420
 H728 H 0.09312 0.72736 0.63298
 H729 H 0.09951 0.78670 0.54928
 H730 H 0.11932 0.80672 0.52834
 H731 H 0.17093 0.77570 0.54610
 H732 H 0.15103 0.75579 0.56749
 C733 C 0.91835 0.72282 0.38659
 C734 C 0.92424 0.73016 0.36874
 C735 C 0.93771 0.72011 0.35756
 C736 C 0.94575 0.70274 0.36416
 C737 C 0.93964 0.69516 0.38175
 C738 C 0.92592 0.70503 0.39280
 C739 C 0.90511 0.73408 0.39901
 N740 N 0.89539 0.72552 0.41364
 N741 N 0.88414 0.73585 0.42528
 C742 C 0.88227 0.75519 0.42289
 N743 N 0.89194 0.76373 0.40823
 N744 N 0.90307 0.75339 0.39650
 C745 C 0.87050 0.76683 0.43634
 C746 C 0.87384 0.78671 0.43817
 C747 C 0.86333 0.79762 0.45139
 C748 C 0.84899 0.78897 0.46284
 C749 C 0.84536 0.76917 0.46077
 C750 C 0.85613 0.75817 0.44777
 H751 H 0.91859 0.74377 0.36351
 H752 H 0.94232 0.72614 0.34401
 H753 H 0.94579 0.68179 0.38706
 H754 H 0.92174 0.69904 0.40650
 H755 H 0.88486 0.79379 0.42963
 H756 H 0.86639 0.81287 0.45262
 H757 H 0.83443 0.76211 0.46945
 H758 H 0.85318 0.74290 0.44664
 C759 C 0.91800 0.27573 0.61241
 C760 C 0.92465 0.26826 0.62998
 C761 C 0.93814 0.27846 0.64102
 C762 C 0.94540 0.29617 0.63457
 C763 C 0.93863 0.30383 0.61720
 C764 C 0.92491 0.29378 0.60628
 C765 C 0.90462 0.26440 0.60016
 N766 N 0.89461 0.27290 0.58561
 N767 N 0.88321 0.26252 0.57412
 C768 C 0.88145 0.24319 0.57663
 N769 N 0.89139 0.23472 0.59123
 N770 N 0.90268 0.24511 0.60279
 C771 C 0.86959 0.23148 0.56327
 C772 C 0.87271 0.21152 0.56185
 C773 C 0.86232 0.20056 0.54855
 C774 C 0.84834 0.20926 0.53659
 C775 C 0.84484 0.22913 0.53833
 C776 C 0.85548 0.24016 0.55143
 H777 H 0.91955 0.25445 0.63513
 H778 H 0.94330 0.27236 0.65438
 H779 H 0.94421 0.31744 0.61199
 H780 H 0.92016 0.29988 0.59278
 H781 H 0.88352 0.20440 0.57072
 H782 H 0.86527 0.18526 0.54759
 H783 H 0.83419 0.23623 0.52926
 H784 H 0.85269 0.25549 0.55225
 C785 C 0.39011 0.07711 0.27389
 C786 C 0.38944 0.07870 0.29395
 C787 C 0.37880 0.06547 0.30483
 C788 C 0.36862 0.05049 0.29584
 C789 C 0.36888 0.04913 0.27583
 C790 C 0.37954 0.06227 0.26496
 C791 C 0.40218 0.09042 0.26232
 N792 N 0.40438 0.08753 0.24324
 N793 N 0.41575 0.09900 0.23288
 C794 C 0.42539 0.11391 0.24112
 N795 N 0.42309 0.11692 0.26019
 N796 N 0.41174 0.10540 0.27057
 C797 C 0.43857 0.12620 0.22960
 C798 C 0.44731 0.14267 0.23754
 C799 C 0.46021 0.15384 0.22673
 C800 C 0.46472 0.14868 0.20782
 C801 C 0.45583 0.13234 0.19985
 C802 C 0.44287 0.12127 0.21058
 H803 H 0.39739 0.08995 0.30128
 H804 H 0.37872 0.06673 0.32027
 H805 H 0.36098 0.03772 0.26867
 H806 H 0.37963 0.06066 0.24956
 H807 H 0.44428 0.14690 0.25213
 H808 H 0.46684 0.16635 0.23327
 H809 H 0.45893 0.12800 0.18529
 H810 H 0.43642 0.10869 0.20400
 C811 C 0.61167 0.07718 0.72760
 C812 C 0.62932 0.07000 0.73507
 C813 C 0.64072 0.05721 0.72442
 C814 C 0.63452 0.05116 0.70628
 C815 C 0.61703 0.05839 0.69870
 C816 C 0.60578 0.07142 0.70919
 C817 C 0.59916 0.09011 0.73912
 N818 N 0.58488 0.10078 0.73070
 N819 N 0.57322 0.11194 0.74114
 C820 C 0.57525 0.11279 0.76046
 N821 N 0.58956 0.10216 0.76887
 N822 N 0.60131 0.09111 0.75842
 C823 C 0.56179 0.12462 0.77213
 C824 C 0.55977 0.12109 0.79183
 C825 C 0.54646 0.13167 0.80270
 C826 C 0.53509 0.14622 0.79418
 C827 C 0.53739 0.15003 0.77457
 C828 C 0.55049 0.13924 0.76363
 H829 H 0.63430 0.07423 0.74916
 H830 H 0.65420 0.05172 0.73046
 H831 H 0.61202 0.05379 0.68473
 H832 H 0.59223 0.07660 0.70306
 H833 H 0.56821 0.10989 0.79880
 H834 H 0.54507 0.12845 0.81781
 H835 H 0.52880 0.16112 0.76759
 H836 H 0.55176 0.14236 0.74850
 C837 C 0.38743 0.92039 0.72688
 C838 C 0.36829 0.92361 0.73322
 C839 C 0.35638 0.93708 0.72393
 C840 C 0.36324 0.94706 0.70783
 C841 C 0.38210 0.94332 0.70106
 C842 C 0.39420 0.93028 0.71067
 C843 C 0.40066 0.90760 0.73769
 N844 N 0.41987 0.91199 0.73924
 N845 N 0.43178 0.90103 0.74968
 C846 C 0.42501 0.88511 0.75877
 N847 N 0.40584 0.88055 0.75704
 N848 N 0.39385 0.89168 0.74680
 C849 C 0.43820 0.87344 0.77078
 C850 C 0.43657 0.85329 0.77145
 C851 C 0.44966 0.84237 0.78244
 C852 C 0.46410 0.85155 0.79339
 C853 C 0.46539 0.87171 0.79303
 C854 C 0.45275 0.88254 0.78161
 H855 H 0.36282 0.91626 0.74578
 H856 H 0.34190 0.93991 0.72939
 H857 H 0.38760 0.95091 0.68865
 H858 H 0.40888 0.92798 0.70548
 H859 H 0.42547 0.84599 0.76315
 H860 H 0.44842 0.82682 0.78254
 H861 H 0.47652 0.87909 0.80124
 H862 H 0.45421 0.89808 0.78140
 C863 C 0.61442 0.92230 0.26880
 C864 C 0.61657 0.92013 0.28873
 C865 C 0.62763 0.93330 0.29928
 C866 C 0.63678 0.94883 0.29011
 C867 C 0.63506 0.95077 0.27020
 C868 C 0.62398 0.93767 0.25966
 C869 C 0.60181 0.90906 0.25766
 N870 N 0.59833 0.91235 0.23879
 N871 N 0.58647 0.90094 0.22887
 C872 C 0.57756 0.88571 0.23735
 N873 N 0.58114 0.88231 0.25619
 N874 N 0.59300 0.89376 0.26614
 C875 C 0.56381 0.87349 0.22636
 C876 C 0.55558 0.85688 0.23457
 C877 C 0.54210 0.84580 0.22432
 C878 C 0.53648 0.85116 0.20570
 C879 C 0.54489 0.86762 0.19743
 C880 C 0.55842 0.87861 0.20760
 H881 H 0.60943 0.90847 0.29623
 H882 H 0.62878 0.93161 0.31465
 H883 H 0.64210 0.96261 0.26287
 H884 H 0.62274 0.93975 0.24435
 H885 H 0.55944 0.85249 0.24896
 H886 H 0.53588 0.83320 0.23110
 H887 H 0.54093 0.87212 0.18309
 H888 H 0.56444 0.89129 0.20081
 C889 C 0.38387 0.26880 0.92884
 C890 C 0.37833 0.28780 0.92436
 C891 C 0.36788 0.29893 0.93751
 C892 C 0.36283 0.29142 0.95558
 C893 C 0.36799 0.27219 0.95975
 C894 C 0.37835 0.26109 0.94661
 C895 C 0.39573 0.25716 0.91537
 N896 N 0.40128 0.23896 0.92006
 N897 N 0.41245 0.22865 0.90835
 C898 C 0.41857 0.23607 0.89142
 N899 N 0.41292 0.25424 0.88665
 N900 N 0.40174 0.26457 0.89838
 C901 C 0.43156 0.22472 0.87874
 C902 C 0.43802 0.23227 0.86119
 C903 C 0.45084 0.22178 0.84965
 C904 C 0.45753 0.20350 0.85542
 C905 C 0.45085 0.19584 0.87283
 C906 C 0.43802 0.20630 0.88433
 H907 H 0.38231 0.29420 0.91079
 H908 H 0.36440 0.31370 0.93380
 H909 H 0.36379 0.26559 0.97317
 H910 H 0.38215 0.24645 0.95050
 H911 H 0.43333 0.24639 0.85642
 H912 H 0.45571 0.22809 0.83632
 H913 H 0.45568 0.18179 0.87769
 H914 H 0.43335 0.19999 0.89772
 C915 C 0.61991 0.73241 0.92617
 C916 C 0.61572 0.71300 0.93015
 C917 C 0.62652 0.70286 0.94383
 C918 C 0.64197 0.71179 0.95363
 C919 C 0.64638 0.73110 0.94941
 C920 C 0.63541 0.74132 0.93589
 C921 C 0.60779 0.74342 0.91238
 N922 N 0.60820 0.76298 0.91212
 N923 N 0.59673 0.77291 0.90025
 C924 C 0.58445 0.76369 0.88806
 N925 N 0.58418 0.74413 0.88818
 N926 N 0.59557 0.73421 0.90013
 C927 C 0.57112 0.77472 0.87540
 C928 C 0.56145 0.76561 0.86015
 C929 C 0.54820 0.77583 0.84876
 C930 C 0.54414 0.79530 0.85253
 C931 C 0.55401 0.80448 0.86760
 C932 C 0.56745 0.79434 0.87883
 H933 H 0.60376 0.70576 0.92304
 H934 H 0.62254 0.68811 0.94708
 H935 H 0.65829 0.73828 0.95667
 H936 H 0.63908 0.75623 0.93308
 H937 H 0.56403 0.75054 0.85707
 H938 H 0.54080 0.76835 0.83726
 H939 H 0.55125 0.81950 0.87081
 H940 H 0.57462 0.80177 0.89049
 C941 C 0.38958 0.72312 0.07264
 C942 C 0.39676 0.71947 0.05422
 C943 C 0.38550 0.70959 0.04084
 C944 C 0.36649 0.70338 0.04529
 C945 C 0.35963 0.70639 0.06407
 C946 C 0.37107 0.71611 0.07759
 C947 C 0.40116 0.73487 0.08617
 N948 N 0.39781 0.73433 0.10532
 N949 N 0.40821 0.74524 0.11727
 C950 C 0.42221 0.75727 0.11049
 N951 N 0.42548 0.75780 0.09135
 N952 N 0.41523 0.74681 0.07947
 C953 C 0.43380 0.76962 0.12347
 C954 C 0.44319 0.78601 0.11619
 C955 C 0.45493 0.79733 0.12797
 C956 C 0.45780 0.79241 0.14727
 C957 C 0.44816 0.77619 0.15470
 C958 C 0.43612 0.76498 0.14293
 H959 H 0.41114 0.72432 0.05009
 H960 H 0.39176 0.70676 0.02691
 H961 H 0.34507 0.70200 0.06810
 H962 H 0.36514 0.71872 0.09169
 H963 H 0.44157 0.79007 0.10130
 H964 H 0.46217 0.80970 0.12177
 H965 H 0.45009 0.77205 0.16954
 H966 H 0.42907 0.75240 0.14892
 C967 C 0.61053 0.27599 0.07333
 C968 C 0.60297 0.29241 0.06417
 C969 C 0.61423 0.30253 0.05092
 C970 C 0.63300 0.29607 0.04625
 C971 C 0.64059 0.27966 0.05539
 C972 C 0.62956 0.26987 0.06907
 C973 C 0.59830 0.26481 0.08661
 N974 N 0.60623 0.25574 0.10202
 N975 N 0.59514 0.24527 0.11369
 C976 C 0.57576 0.24326 0.11022
 N977 N 0.56786 0.25230 0.09479
 N978 N 0.57889 0.26297 0.08328
 C979 C 0.56352 0.23113 0.12263
 C980 C 0.54846 0.22012 0.11460
 C981 C 0.53674 0.20860 0.12620
 C982 C 0.53949 0.20833 0.14610
 C983 C 0.55445 0.21946 0.15420
 C984 C 0.56660 0.23055 0.14249
 H985 H 0.58835 0.29741 0.06727
 H986 H 0.60816 0.31513 0.04394
 H987 H 0.65500 0.27440 0.05179
 H988 H 0.63562 0.25714 0.07584
 H989 H 0.54589 0.22027 0.09930
 H990 H 0.52520 0.20024 0.11965
 H991 H 0.55682 0.21944 0.16952
 H992 H 0.57811 0.23899 0.14898
 C993 C 0.26385 0.07405 0.62197
 C994 C 0.28303 0.07796 0.62791
 C995 C 0.29367 0.06432 0.63839
 C996 C 0.28545 0.04634 0.64307
 C997 C 0.26598 0.04280 0.63766
 C998 C 0.25536 0.05643 0.62726
 C999 C 0.25297 0.08783 0.60969
 N1000 N 0.23462 0.08369 0.60365
 N1001 N 0.22512 0.09553 0.59186
 C1002 C 0.23355 0.11204 0.58556
 N1003 N 0.25185 0.11629 0.59173
 N1004 N 0.26136 0.10444 0.60354
 C1005 C 0.22326 0.12467 0.57168
 C1006 C 0.23194 0.14170 0.56491
 C1007 C 0.22255 0.15305 0.55111
 C1008 C 0.20430 0.14758 0.54374
 C1009 C 0.19548 0.13075 0.55076
 C1010 C 0.20482 0.11946 0.56456
 H1011 H 0.29001 0.09141 0.62412
 H1012 H 0.30865 0.06754 0.64212
 H1013 H 0.25890 0.02942 0.64154
 H1014 H 0.24055 0.05299 0.62314
 H1015 H 0.24611 0.14617 0.57010
 H1016 H 0.22973 0.16595 0.54601
 H1017 H 0.18139 0.12616 0.54543
 H1018 H 0.19766 0.10647 0.56945
 C1019 C 0.73147 0.07317 0.38298
 C1020 C 0.71253 0.07768 0.37664
 C1021 C 0.70167 0.06433 0.36610
 C1022 C 0.70939 0.04602 0.36175
 C1023 C 0.72861 0.04184 0.36767
 C1024 C 0.73945 0.05518 0.37813
 C1025 C 0.74273 0.08682 0.39501
 N1026 N 0.76087 0.08212 0.40134
 N1027 N 0.77079 0.09397 0.41271
 C1028 C 0.76302 0.11107 0.41827
 N1029 N 0.74492 0.11586 0.41184
 N1030 N 0.73499 0.10398 0.40046
 C1031 C 0.77388 0.12388 0.43151
 C1032 C 0.76591 0.14157 0.43744
 C1033 C 0.77589 0.15322 0.45051
 C1034 C 0.79404 0.14744 0.45796
 C1035 C 0.80213 0.12991 0.45181
 C1036 C 0.79219 0.11829 0.43874
 H1037 H 0.70594 0.09142 0.38008
 H1038 H 0.68689 0.06807 0.36199
 H1039 H 0.73540 0.02824 0.36402
 H1040 H 0.75407 0.05127 0.38255
 H1041 H 0.75186 0.14635 0.43214
 H1042 H 0.76926 0.16665 0.45495
 H1043 H 0.81610 0.12503 0.45724
 H1044 H 0.79880 0.10479 0.43449
 C1045 C 0.72272 0.92736 0.60621
 C1046 C 0.71783 0.94563 0.59900
 C1047 C 0.70767 0.95884 0.61024
 C1048 C 0.70242 0.95436 0.62922
 C1049 C 0.70687 0.93577 0.63620
 C1050 C 0.71682 0.92242 0.62481
 C1051 C 0.73443 0.91389 0.59450
 N1052 N 0.73476 0.89468 0.59833
 N1053 N 0.74552 0.88273 0.58779
 C1054 C 0.75653 0.88953 0.57312
 N1055 N 0.75621 0.90873 0.56936
 N1056 N 0.74536 0.92063 0.57978
 C1057 C 0.76863 0.87644 0.56137
 C1058 C 0.78424 0.88382 0.55066
 C1059 C 0.79540 0.87174 0.53908
 C1060 C 0.79104 0.85203 0.53768
 C1061 C 0.77553 0.84456 0.54849
 C1062 C 0.76454 0.85663 0.56037
 H1063 H 0.72184 0.94975 0.58459
 H1064 H 0.70382 0.97262 0.60398
 H1065 H 0.70335 0.93177 0.65077
 H1066 H 0.72042 0.90846 0.63078
 H1067 H 0.78785 0.89899 0.55122
 H1068 H 0.80720 0.87794 0.53087
 H1069 H 0.77185 0.82942 0.54772
 H1070 H 0.75258 0.85053 0.56842
 C1071 C 0.27057 0.92672 0.38615
 C1072 C 0.26276 0.94463 0.38068
 C1073 C 0.27403 0.95791 0.37061
 C1074 C 0.29348 0.95370 0.36571
 C1075 C 0.30109 0.93550 0.37072
 C1076 C 0.28980 0.92221 0.38087
 C1077 C 0.25883 0.91317 0.39778
 N1078 N 0.26643 0.89615 0.40394
 N1079 N 0.25605 0.88439 0.41503
 C1080 C 0.23765 0.88917 0.42043
 N1081 N 0.23003 0.90610 0.41413
 N1082 N 0.24039 0.91784 0.40306
 C1083 C 0.22630 0.87656 0.43341
 C1084 C 0.20770 0.88223 0.43965
 C1085 C 0.19729 0.87088 0.45255
 C1086 C 0.20519 0.85354 0.45951
 C1087 C 0.22363 0.84764 0.45302
 C1088 C 0.23409 0.85904 0.44012
 H1089 H 0.24795 0.94854 0.38432
 H1090 H 0.26741 0.97148 0.36648
 H1091 H 0.31606 0.93179 0.36742
 H1092 H 0.29627 0.90854 0.38484
 H1093 H 0.20121 0.89561 0.43477
 H1094 H 0.18309 0.87582 0.45722
 H1095 H 0.23011 0.83434 0.45811
 H1096 H 0.24836 0.85421 0.43559
 C1097 C 0.07664 0.38360 0.72642
 C1098 C 0.06664 0.36809 0.73483
 C1099 C 0.05287 0.35768 0.72434
 C1100 C 0.04863 0.36263 0.70526
 C1101 C 0.05878 0.37801 0.69680
 C1102 C 0.07273 0.38827 0.70721
 C1103 C 0.09051 0.39526 0.73783
 N1104 N 0.10296 0.40770 0.72916
 N1105 N 0.11491 0.41870 0.73947
 C1106 C 0.11483 0.41782 0.75889
 N1107 N 0.10244 0.40532 0.76755
 N1108 N 0.09058 0.39423 0.75724
 C1109 C 0.12741 0.43075 0.77038
 C1110 C 0.12359 0.43374 0.78990
 C1111 C 0.13468 0.44681 0.80050
 C1112 C 0.15001 0.45701 0.79189
 C1113 C 0.15420 0.45363 0.77251
 C1114 C 0.14294 0.44074 0.76184
 H1115 H 0.06939 0.36405 0.74956
 H1116 H 0.04534 0.34582 0.73118
 H1117 H 0.05553 0.38241 0.68225
 H1118 H 0.08005 0.40023 0.70035
 H1119 H 0.11172 0.42631 0.79692
 H1120 H 0.13114 0.44906 0.81542
 H1121 H 0.16589 0.46131 0.76546
 H1122 H 0.14632 0.43869 0.74686
 C1123 C 0.07819 0.61842 0.27232
 C1124 C 0.06867 0.63442 0.26417
 C1125 C 0.05475 0.64470 0.27458
 C1126 C 0.04992 0.63914 0.29332
 C1127 C 0.05953 0.62322 0.30151
 C1128 C 0.07362 0.61308 0.29119
 C1129 C 0.09221 0.60691 0.26096
 N1130 N 0.10429 0.59401 0.26960
 N1131 N 0.11631 0.58309 0.25930
 C1132 C 0.11668 0.58453 0.23992
 N1133 N 0.10468 0.59752 0.23130
 N1134 N 0.09274 0.60851 0.24160
 C1135 C 0.12921 0.57160 0.22840
 C1136 C 0.12558 0.56906 0.20877
 C1137 C 0.13643 0.55580 0.19817
 C1138 C 0.15135 0.54498 0.20690
 C1139 C 0.15544 0.54798 0.22637
 C1140 C 0.14439 0.56106 0.23704
 H1141 H 0.07190 0.63895 0.24969
 H1142 H 0.04758 0.65694 0.26794
 H1143 H 0.05575 0.61830 0.31575
 H1144 H 0.08054 0.60071 0.29782
 H1145 H 0.11398 0.57692 0.20167
 H1146 H 0.13298 0.55385 0.18317
 H1147 H 0.16680 0.53982 0.23351
 H1148 H 0.14763 0.56276 0.25212
 C1149 C 0.92414 0.37963 0.26918
 C1150 C 0.91998 0.37454 0.28821
 C1151 C 0.93390 0.36498 0.29944
 C1152 C 0.95243 0.36050 0.29198
 C1153 C 0.95621 0.36500 0.27269
 C1154 C 0.94229 0.37441 0.26148
 C1155 C 0.91011 0.39104 0.25759
 N1156 N 0.91421 0.39552 0.23912
 N1157 N 0.90228 0.40668 0.22893
 C1158 C 0.88570 0.41389 0.23673
 N1159 N 0.88145 0.40924 0.25515
 N1160 N 0.89341 0.39805 0.26536
 C1161 C 0.87314 0.42726 0.22559
 C1162 C 0.85621 0.43532 0.23362
 C1163 C 0.84516 0.44887 0.22338
 C1164 C 0.85087 0.45467 0.20496
 C1165 C 0.86752 0.44626 0.19680
 C1166 C 0.87849 0.43272 0.20696
 H1167 H 0.90611 0.37828 0.29458
 H1168 H 0.93046 0.36185 0.31424
 H1169 H 0.97002 0.36117 0.26622
 H1170 H 0.94595 0.37789 0.24682
 H1171 H 0.85164 0.43142 0.24792
 H1172 H 0.83239 0.45508 0.23005
 H1173 H 0.87228 0.45032 0.18259
 H1174 H 0.89139 0.42679 0.20027
 C1175 C 0.92713 0.61654 0.73388
 C1176 C 0.94523 0.60903 0.72831
 C1177 C 0.95802 0.62000 0.71736
 C1178 C 0.95331 0.63903 0.71193
 C1179 C 0.93499 0.64645 0.71741
 C1180 C 0.92200 0.63528 0.72813
 C1181 C 0.91398 0.60479 0.74585
 N1182 N 0.89443 0.60798 0.74604
 N1183 N 0.88272 0.59695 0.75660
 C1184 C 0.89015 0.58245 0.76752
 N1185 N 0.90969 0.57941 0.76741
 N1186 N 0.92135 0.59030 0.75676
 C1187 C 0.87736 0.56979 0.77897
 C1188 C 0.88523 0.55903 0.79419
 C1189 C 0.87367 0.54610 0.80436
 C1190 C 0.85401 0.54340 0.79938
 C1191 C 0.84598 0.55442 0.78440
 C1192 C 0.85752 0.56762 0.77438
 H1193 H 0.94946 0.59451 0.73223
 H1194 H 0.97158 0.61341 0.71288
 H1195 H 0.93093 0.66113 0.71393
 H1196 H 0.90817 0.64147 0.73234
 H1197 H 0.90043 0.56048 0.79816
 H1198 H 0.88030 0.53781 0.81580
 H1199 H 0.83085 0.55268 0.78030
 H1200 H 0.85108 0.57569 0.76269
 C1201 C 0.73204 0.61493 0.92957
 C1202 C 0.73080 0.63487 0.92619
 C1203 C 0.72097 0.64684 0.93907
 C1204 C 0.71195 0.63898 0.95531
 C1205 C 0.71274 0.61901 0.95836
 C1206 C 0.72284 0.60713 0.94574
 C1207 C 0.74323 0.60225 0.91668
 N1208 N 0.75072 0.58539 0.92331
 N1209 N 0.76091 0.57388 0.91188
 C1210 C 0.76390 0.57866 0.89329
 N1211 N 0.75635 0.59549 0.88659
 N1212 N 0.74629 0.60712 0.89809
 C1213 C 0.77514 0.56569 0.88072
 C1214 C 0.77224 0.56584 0.86081
 C1215 C 0.78240 0.55294 0.84913
 C1216 C 0.79592 0.53998 0.85712
 C1217 C 0.79908 0.54012 0.87698
 C1218 C 0.78866 0.55272 0.88867
 H1219 H 0.73782 0.64125 0.91386
 H1220 H 0.72055 0.66222 0.93651
 H1221 H 0.70571 0.61265 0.97071
 H1222 H 0.72340 0.59181 0.94861
 H1223 H 0.76185 0.57565 0.85432
 H1224 H 0.77975 0.55316 0.83384
 H1225 H 0.80936 0.53024 0.88353
 H1226 H 0.79127 0.55235 0.90395
 C1227 C 0.27010 0.38323 0.92555
 C1228 C 0.26171 0.37812 0.94314
 C1229 C 0.27243 0.36800 0.95685
 C1230 C 0.29194 0.36264 0.95343
 C1231 C 0.30012 0.36720 0.93550
 C1232 C 0.28937 0.37746 0.92179
 C1233 C 0.25889 0.39501 0.91159
 N1234 N 0.26714 0.40139 0.89510
 N1235 N 0.25718 0.41265 0.88306
 C1236 C 0.23855 0.41800 0.88701
 N1237 N 0.23029 0.41148 0.90341
 N1238 N 0.24023 0.40025 0.91542
 C1239 C 0.22758 0.43120 0.87416
 C1240 C 0.20869 0.43726 0.87909
 C1241 C 0.19856 0.45037 0.86761
 C1242 C 0.20700 0.45774 0.85085
 C1243 C 0.22574 0.45143 0.84565
 C1244 C 0.23594 0.43831 0.85720
 H1245 H 0.24684 0.38211 0.94649
 H1246 H 0.26534 0.36417 0.97015
 H1247 H 0.31512 0.36350 0.93236
 H1248 H 0.29628 0.38112 0.90836
 H1249 H 0.20175 0.43209 0.89200
 H1250 H 0.18413 0.45486 0.87201
 H1251 H 0.23264 0.45684 0.83281
 H1252 H 0.25045 0.43393 0.85295
 C1253 C 0.27617 0.60906 0.07167
 C1254 C 0.28285 0.62747 0.07676
 C1255 C 0.29250 0.63904 0.06337
 C1256 C 0.29580 0.63243 0.04457
 C1257 C 0.28986 0.61357 0.03994
 C1258 C 0.28004 0.60216 0.05321
 C1259 C 0.26465 0.59724 0.08517
 N1260 N 0.25318 0.58281 0.07851
 N1261 N 0.24241 0.57234 0.09042
 C1262 C 0.24271 0.57577 0.10953
 N1263 N 0.25427 0.59014 0.11626
 N1264 N 0.26496 0.60073 0.10430
 C1265 C 0.23061 0.56401 0.12258
 C1266 C 0.23505 0.56260 0.14218
 C1267 C 0.22398 0.55072 0.15418
 C1268 C 0.20809 0.54030 0.14684
 C1269 C 0.20342 0.54210 0.12734
 C1270 C 0.21462 0.55370 0.11533
 H1271 H 0.28007 0.63319 0.09089
 H1272 H 0.29666 0.65349 0.06752
 H1273 H 0.29291 0.60752 0.02599
 H1274 H 0.27545 0.58787 0.04896
 H1275 H 0.24731 0.57035 0.14817
 H1276 H 0.22790 0.54963 0.16916
 H1277 H 0.19131 0.53422 0.12122
 H1278 H 0.21074 0.55457 0.10033
 C1279 C 0.72801 0.38606 0.07179
 C1280 C 0.70819 0.38208 0.07491
 C1281 C 0.69740 0.37170 0.06142
 C1282 C 0.70614 0.36510 0.04442
 C1283 C 0.72606 0.36895 0.04151
 C1284 C 0.73682 0.37926 0.05498
 C1285 C 0.73946 0.39755 0.08570
 N1286 N 0.75855 0.40139 0.08239
 N1287 N 0.76881 0.41214 0.09449
 C1288 C 0.76046 0.41953 0.11046
 N1289 N 0.74139 0.41560 0.11388
 N1290 N 0.73110 0.40482 0.10175
 C1291 C 0.77186 0.43212 0.12344
 C1292 C 0.76351 0.43986 0.14011
 C1293 C 0.77417 0.45242 0.15176
 C1294 C 0.79335 0.45755 0.14693
 C1295 C 0.80178 0.44951 0.13047
 C1296 C 0.79119 0.43694 0.11891
 H1297 H 0.70093 0.38716 0.08768
 H1298 H 0.68203 0.36932 0.06403
 H1299 H 0.73346 0.36370 0.02887
 H1300 H 0.75208 0.38194 0.05213
 H1301 H 0.74867 0.43640 0.14404
 H1302 H 0.76727 0.45839 0.16435
 H1303 H 0.81655 0.45309 0.12638
 H1304 H 0.79814 0.43124 0.10623
 C1305 C 0.92141 0.72933 0.61826
 C1306 C 0.92788 0.71096 0.61264
 C1307 C 0.94179 0.70106 0.62351
 C1308 C 0.94919 0.70917 0.64037
 C1309 C 0.94248 0.72728 0.64630
 C1310 C 0.92880 0.73735 0.63526
 C1311 C 0.90759 0.74028 0.60609
 N1312 N 0.90616 0.75974 0.60759
 N1313 N 0.89438 0.76970 0.59603
 C1314 C 0.88344 0.76059 0.58259
 N1315 N 0.88471 0.74111 0.58124
 N1316 N 0.89658 0.73118 0.59271
 C1317 C 0.87098 0.77169 0.56917
 C1318 C 0.85603 0.76255 0.55886
 C1319 C 0.84489 0.77283 0.54551
 C1320 C 0.84869 0.79239 0.54197
 C1321 C 0.86347 0.80160 0.55245
 C1322 C 0.87439 0.79140 0.56603
 H1323 H 0.92257 0.70444 0.59957
 H1324 H 0.94696 0.68714 0.61869
 H1325 H 0.94815 0.73374 0.65926
 H1326 H 0.92405 0.75144 0.63999
 H1327 H 0.85299 0.74740 0.56103
 H1328 H 0.83363 0.76533 0.53761
 H1329 H 0.86668 0.81669 0.55008
 H1330 H 0.88585 0.79885 0.57370
 C1331 C 0.92665 0.26919 0.38396
 C1332 C 0.94501 0.26160 0.37920
 C1333 C 0.95852 0.27266 0.36916
 C1334 C 0.95415 0.29171 0.36358
 C1335 C 0.93547 0.29905 0.36778
 C1336 C 0.92194 0.28796 0.37791
 C1337 C 0.91285 0.25771 0.39564
 N1338 N 0.89537 0.26512 0.40110
 N1339 N 0.88340 0.25501 0.41224
 C1340 C 0.88839 0.23709 0.41841
 N1341 N 0.90578 0.22965 0.41283
 N1342 N 0.91774 0.23974 0.40170
 C1343 C 0.87551 0.22608 0.43148
 C1344 C 0.88138 0.20799 0.43855
 C1345 C 0.86977 0.19795 0.45156
 C1346 C 0.85197 0.20571 0.45781
 C1347 C 0.84587 0.22362 0.45047
 C1348 C 0.85752 0.23370 0.43747
 H1349 H 0.94908 0.24712 0.38340
 H1350 H 0.97242 0.26619 0.36558
 H1351 H 0.93157 0.31367 0.36388
 H1352 H 0.90791 0.29425 0.38128
 H1353 H 0.89511 0.20164 0.43425
 H1354 H 0.87488 0.18417 0.45688
 H1355 H 0.83222 0.22999 0.45499
 H1356 H 0.85252 0.24757 0.43229
 C1357 C 0.07289 0.27456 0.60937
 C1358 C 0.05709 0.28433 0.60094
 C1359 C 0.04400 0.29466 0.61223
 C1360 C 0.04619 0.29506 0.63219
 C1361 C 0.06211 0.28552 0.64064
 C1362 C 0.07547 0.27550 0.62930
 C1363 C 0.08614 0.26295 0.59740
 N1364 N 0.10471 0.25913 0.60310
 N1365 N 0.11648 0.24846 0.59226
 C1366 C 0.11005 0.24103 0.57542
 N1367 N 0.09149 0.24482 0.56978
 N1368 N 0.07980 0.25562 0.58051
 C1369 C 0.12286 0.22899 0.56340
 C1370 C 0.11467 0.21549 0.55081
 C1371 C 0.12657 0.20434 0.53904
 C1372 C 0.14689 0.20671 0.53934
 C1373 C 0.15513 0.22016 0.55198
 C1374 C 0.14322 0.23106 0.56408
 H1375 H 0.05484 0.28399 0.58561
 H1376 H 0.03191 0.30208 0.60544
 H1377 H 0.06402 0.28567 0.65603
 H1378 H 0.08749 0.26804 0.63616
 H1379 H 0.09903 0.21350 0.55007
 H1380 H 0.11981 0.19415 0.52938
 H1381 H 0.17077 0.22224 0.55251
 H1382 H 0.14989 0.24141 0.57363
 C1383 C 0.07262 0.72700 0.38894
 C1384 C 0.07729 0.72201 0.37005
 C1385 C 0.06403 0.71168 0.35881
 C1386 C 0.04589 0.70588 0.36631
 C1387 C 0.04168 0.71039 0.38551
 C1388 C 0.05476 0.72095 0.39658
 C1389 C 0.08592 0.73894 0.40058
 N1390 N 0.07881 0.74951 0.41531
 N1391 N 0.09056 0.76048 0.42580
 C1392 C 0.10995 0.76126 0.42208
 N1393 N 0.11714 0.75062 0.40739
 N1394 N 0.10532 0.73975 0.39677
 C1395 C 0.12282 0.77336 0.43403
 C1396 C 0.14281 0.76927 0.43583
 C1397 C 0.15451 0.78007 0.44826
 C1398 C 0.14646 0.79535 0.45880
 C1399 C 0.12661 0.79979 0.45645
 C1400 C 0.11491 0.78884 0.44433
 H1401 H 0.09092 0.72659 0.36376
 H1402 H 0.06771 0.70882 0.34403
 H1403 H 0.02824 0.70561 0.39207
 H1404 H 0.05090 0.72432 0.41121
 H1405 H 0.14928 0.75739 0.42807
 H1406 H 0.16978 0.77634 0.44977
 H1407 H 0.11996 0.81144 0.46441
 H1408 H 0.09958 0.79244 0.44312
 C1409 C 0.60977 0.92493 0.72130
 C1410 C 0.62975 0.92163 0.71827
 C1411 C 0.64098 0.93511 0.70825
 C1412 C 0.63234 0.95193 0.70091
 C1413 C 0.61219 0.95470 0.70307
 C1414 C 0.60106 0.94145 0.71335
 C1415 C 0.59816 0.91185 0.73349
 N1416 N 0.58210 0.91855 0.74263
 N1417 N 0.57185 0.90712 0.75411
 C1418 C 0.57715 0.88847 0.75685
 N1419 N 0.59314 0.88167 0.74760
 N1420 N 0.60352 0.89318 0.73623
 C1421 C 0.56562 0.87598 0.76970
 C1422 C 0.56512 0.85591 0.76714
 C1423 C 0.55318 0.84441 0.77869
 C1424 C 0.54189 0.85276 0.79326
 C1425 C 0.54293 0.87274 0.79617
 C1426 C 0.55451 0.88424 0.78441
 H1427 H 0.63684 0.90903 0.72424
 H1428 H 0.65649 0.93269 0.70666
 H1429 H 0.60519 0.96743 0.69726
 H1430 H 0.58565 0.94425 0.71524
 H1431 H 0.57351 0.84918 0.75588
 H1432 H 0.55266 0.82904 0.77615
 H1433 H 0.53432 0.87961 0.80720
 H1434 H 0.55472 0.89964 0.78681
 C1435 C 0.38376 0.92351 0.27260
 C1436 C 0.37441 0.93941 0.26403
 C1437 C 0.36489 0.95311 0.27523
 C1438 C 0.36459 0.95127 0.29520
 C1439 C 0.37345 0.93522 0.30382
 C1440 C 0.38296 0.92144 0.29262
 C1441 C 0.39487 0.90966 0.26074
 N1442 N 0.40366 0.89403 0.26874
 N1443 N 0.41439 0.88211 0.25816
 C1444 C 0.41680 0.88534 0.23913
 N1445 N 0.40787 0.90087 0.23112
 N1446 N 0.39713 0.91275 0.24168
 C1447 C 0.42962 0.87277 0.22751
 C1448 C 0.43414 0.87780 0.20855
 C1449 C 0.44722 0.86672 0.19794
 C1450 C 0.45599 0.85028 0.20598
 C1451 C 0.45105 0.84491 0.22474
 C1452 C 0.43805 0.85607 0.23542
 H1453 H 0.37463 0.94142 0.24867
 H1454 H 0.35796 0.96534 0.26835
 H1455 H 0.37329 0.93357 0.31923
 H1456 H 0.38998 0.90938 0.29968
 H1457 H 0.42791 0.89054 0.20198
 H1458 H 0.45065 0.87121 0.18349
 H1459 H 0.45757 0.83231 0.23134
 H1460 H 0.43482 0.85174 0.24996
 C1461 C 0.62010 0.07541 0.26706
 C1462 C 0.62562 0.07962 0.28598
 C1463 C 0.63548 0.06592 0.29712
 C1464 C 0.63993 0.04758 0.28967
 C1465 C 0.63488 0.04371 0.27050
 C1466 C 0.62513 0.05740 0.25939
 C1467 C 0.60856 0.08934 0.25552
 N1468 N 0.60326 0.08503 0.23729
 N1469 N 0.59209 0.09701 0.22716
 C1470 C 0.58571 0.11384 0.23479
 N1471 N 0.59116 0.11827 0.25297
 N1472 N 0.60235 0.10627 0.26312
 C1473 C 0.57238 0.12659 0.22378
 C1474 C 0.56528 0.14381 0.23175
 C1475 C 0.55173 0.15513 0.22178
 C1476 C 0.54496 0.14947 0.20364
 C1477 C 0.55245 0.13253 0.19548
 C1478 C 0.56600 0.12125 0.20541
 H1479 H 0.62201 0.09338 0.29234
 H1480 H 0.63892 0.06942 0.31185
 H1481 H 0.63864 0.03005 0.26399
 H1482 H 0.62132 0.05370 0.24481
 H1483 H 0.56991 0.14840 0.24584
 H1484 H 0.54626 0.16812 0.22846
 H1485 H 0.54759 0.12778 0.18151
 H1486 H 0.57119 0.10813 0.19878
 C1487 C 0.37701 0.07431 0.73542
 C1488 C 0.36745 0.05887 0.74444
 C1489 C 0.35719 0.04531 0.73367
 C1490 C 0.35640 0.04685 0.71367
 C1491 C 0.36540 0.06252 0.70464
 C1492 C 0.37560 0.07616 0.71541
 C1493 C 0.38907 0.08788 0.74672
 N1494 N 0.39759 0.10337 0.73829
 N1495 N 0.40921 0.11499 0.74827
 C1496 C 0.41287 0.11160 0.76709
 N1497 N 0.40422 0.09621 0.77555
 N1498 N 0.39256 0.08462 0.76559
 C1499 C 0.42663 0.12389 0.77795
 C1500 C 0.43258 0.11861 0.79650
 C1501 C 0.44641 0.12953 0.80636
 C1502 C 0.45453 0.14607 0.79796
 C1503 C 0.44825 0.15164 0.77961
 C1504 C 0.43449 0.14064 0.76969
 H1505 H 0.36812 0.05707 0.75982
 H1506 H 0.35017 0.03337 0.74087
 H1507 H 0.36489 0.06394 0.68921
 H1508 H 0.38275 0.08787 0.70800
 H1509 H 0.42684 0.10581 0.80332
 H1510 H 0.45089 0.12489 0.82051
 H1511 H 0.45422 0.16431 0.77275
 H1512 H 0.43019 0.14516 0.75545
 C1513 C 0.61078 0.72689 0.07742
 C1514 C 0.60320 0.71861 0.06066
 C1515 C 0.61543 0.70899 0.04793
 C1516 C 0.63554 0.70783 0.05149
 C1517 C 0.64310 0.71568 0.06845
 C1518 C 0.63079 0.72501 0.08140
 C1519 C 0.59791 0.73812 0.09015
 N1520 N 0.60245 0.74079 0.10890
 N1521 N 0.59090 0.75126 0.12014
 C1522 C 0.57450 0.75964 0.11300
 N1523 N 0.57002 0.75698 0.09427
 N1524 N 0.58144 0.74638 0.08310
 C1525 C 0.56173 0.77155 0.12520
 C1526 C 0.54990 0.78582 0.11686
 C1527 C 0.53734 0.79681 0.12810
 C1528 C 0.53605 0.79351 0.14789
 C1529 C 0.54796 0.77933 0.15630
 C1530 C 0.56087 0.76857 0.14507
 H1531 H 0.58780 0.71965 0.05733
 H1532 H 0.60928 0.70279 0.03505
 H1533 H 0.65858 0.71488 0.07145
 H1534 H 0.63701 0.73130 0.09419
 H1535 H 0.55036 0.78852 0.10161
 H1536 H 0.52827 0.80757 0.12121
 H1537 H 0.54727 0.77653 0.17153
 H1538 H 0.56980 0.75762 0.15184
 C1539 C 0.38205 0.27027 0.08093
 C1540 C 0.37263 0.26107 0.06556
 C1541 C 0.36213 0.27176 0.05208
 C1542 C 0.36081 0.29185 0.05367
 C1543 C 0.36972 0.30108 0.06923
 C1544 C 0.38025 0.29039 0.08276
 C1545 C 0.39429 0.25897 0.09443
 N1546 N 0.40380 0.26764 0.10916
 N1547 N 0.41554 0.25755 0.12065
 C1548 C 0.41829 0.23836 0.11789
 N1549 N 0.40863 0.22969 0.10328
 N1550 N 0.39689 0.23976 0.09182
 C1551 C 0.43218 0.22723 0.12991
 C1552 C 0.43658 0.20800 0.12534
 C1553 C 0.45054 0.19777 0.13579
 C1554 C 0.46039 0.20645 0.15117
 C1555 C 0.45563 0.22549 0.15612
 C1556 C 0.44171 0.23581 0.14556
 H1557 H 0.37362 0.24562 0.06371
 H1558 H 0.35526 0.26440 0.04019
 H1559 H 0.36886 0.31659 0.07065
 H1560 H 0.38729 0.29793 0.09442
 H1561 H 0.42953 0.20090 0.11342
 H1562 H 0.45379 0.18308 0.13165
 H1563 H 0.46298 0.23258 0.16790
 H1564 H 0.43862 0.25057 0.14951
 C1565 C 0.61611 0.26785 0.92050
 C1566 C 0.61684 0.28805 0.91881
 C1567 C 0.62729 0.29901 0.93208
 C1568 C 0.63721 0.29000 0.94722
 C1569 C 0.63703 0.26985 0.94862
 C1570 C 0.62655 0.25887 0.93542
 C1571 C 0.60387 0.25629 0.90733
 N1572 N 0.60141 0.23711 0.91032
 N1573 N 0.58963 0.22685 0.89913
 C1574 C 0.57982 0.23531 0.88443
 N1575 N 0.58244 0.25445 0.88130
 N1576 N 0.59420 0.26472 0.89253
 C1577 C 0.56594 0.22404 0.87265
 C1578 C 0.55669 0.23237 0.85666
 C1579 C 0.54284 0.22199 0.84619
 C1580 C 0.53787 0.20312 0.85157
 C1581 C 0.54739 0.19468 0.86733
 C1582 C 0.56129 0.20499 0.87770
 H1583 H 0.60901 0.29543 0.90750
 H1584 H 0.62732 0.31456 0.93080
 H1585 H 0.64472 0.26267 0.96017
 H1586 H 0.62640 0.24337 0.93709
 H1587 H 0.55997 0.24699 0.85233
 H1588 H 0.53577 0.22889 0.83411
 H1589 H 0.54395 0.18014 0.87180
 H1590 H 0.56813 0.19811 0.88992
 C1591 C 0.38587 0.72942 0.92134
 C1592 C 0.39169 0.71102 0.92759
 C1593 C 0.38034 0.70075 0.94065
 C1594 C 0.36281 0.70854 0.94744
 C1595 C 0.35664 0.72666 0.94085
 C1596 C 0.36817 0.73710 0.92803
 C1597 C 0.39851 0.74070 0.90834
 N1598 N 0.39669 0.76015 0.90704
 N1599 N 0.40860 0.77035 0.89593
 C1600 C 0.42273 0.76150 0.88556
 N1601 N 0.42442 0.74204 0.88673
 N1602 N 0.41261 0.73186 0.89794
 C1603 C 0.43638 0.77284 0.87363
 C1604 C 0.44736 0.76382 0.85925
 C1605 C 0.46070 0.77436 0.84839
 C1606 C 0.46359 0.79407 0.85187
 C1607 C 0.45253 0.80313 0.86618
 C1608 C 0.43895 0.79265 0.87684
 H1609 H 0.40527 0.70473 0.92277
 H1610 H 0.38529 0.68679 0.94564
 H1611 H 0.34312 0.73283 0.94596
 H1612 H 0.36325 0.75119 0.92339
 H1613 H 0.44565 0.74860 0.85637
 H1614 H 0.46904 0.76696 0.83749
 H1615 H 0.45439 0.81832 0.86914
 H1616 H 0.43077 0.80000 0.88787
 C1617 C 0.72954 0.91980 0.38263
 C1618 C 0.73910 0.93520 0.37353
 C1619 C 0.72856 0.94874 0.36292
 C1620 C 0.70826 0.94719 0.36118
 C1621 C 0.69867 0.93163 0.36984
 C1622 C 0.70922 0.91804 0.38047
 C1623 C 0.74069 0.90615 0.39483
 N1624 N 0.73171 0.89123 0.40380
 N1625 N 0.74167 0.87953 0.41541
 C1626 C 0.76103 0.88226 0.41855
 N1627 N 0.77001 0.89707 0.40945
 N1628 N 0.76007 0.90874 0.39784
 C1629 C 0.77201 0.86991 0.43218
 C1630 C 0.79143 0.87434 0.43690
 C1631 C 0.80154 0.86347 0.45052
 C1632 C 0.79254 0.84784 0.45971
 C1633 C 0.77330 0.84307 0.45468
 C1634 C 0.76311 0.85403 0.44110
 H1635 H 0.75472 0.93700 0.37482
 H1636 H 0.73620 0.96063 0.35627
 H1637 H 0.68299 0.93025 0.36866
 H1638 H 0.70140 0.90636 0.38725
 H1639 H 0.79877 0.88644 0.43032
 H1640 H 0.81637 0.86749 0.45401
 H1641 H 0.76596 0.83110 0.46152
 H1642 H 0.74820 0.85018 0.43776
 C1643 C 0.26793 0.92053 0.61746
 C1644 C 0.28842 0.91980 0.61829
 C1645 C 0.29880 0.93310 0.62932
 C1646 C 0.28888 0.94727 0.63976
 C1647 C 0.26846 0.94777 0.63933
 C1648 C 0.25807 0.93455 0.62828
 C1649 C 0.25685 0.90731 0.60486
 N1650 N 0.23733 0.90956 0.60249
 N1651 N 0.22741 0.89830 0.59057
 C1652 C 0.23657 0.88425 0.58050
 N1653 N 0.25608 0.88186 0.58299
 N1654 N 0.26602 0.89317 0.59490
 C1655 C 0.22557 0.87235 0.56661
 C1656 C 0.23445 0.85665 0.55737
 C1657 C 0.22419 0.84599 0.54368
 C1658 C 0.20491 0.85092 0.53886
 C1659 C 0.19597 0.86644 0.54829
 C1660 C 0.20615 0.87698 0.56204
 H1661 H 0.29646 0.90921 0.61013
 H1662 H 0.31459 0.93257 0.62946
 H1663 H 0.26058 0.95860 0.64734
 H1664 H 0.24232 0.93551 0.62805
 H1665 H 0.24937 0.85266 0.56059
 H1666 H 0.23147 0.83411 0.53665
 H1667 H 0.18111 0.87056 0.54496
 H1668 H 0.19885 0.88897 0.56885
 C1669 C 0.27478 0.07935 0.38743
 C1670 C 0.26534 0.06459 0.37724
 C1671 C 0.27609 0.05129 0.36666
 C1672 C 0.29647 0.05244 0.36605
 C1673 C 0.30596 0.06744 0.37572
 C1674 C 0.29521 0.08081 0.38632
 C1675 C 0.26335 0.09254 0.39974
 N1676 N 0.27211 0.10703 0.40956
 N1677 N 0.26185 0.11826 0.42128
 C1678 C 0.24241 0.11542 0.42369
 N1679 N 0.23366 0.10104 0.41376
 N1680 N 0.24390 0.08985 0.40204
 C1681 C 0.23103 0.12727 0.43731
 C1682 C 0.21163 0.12240 0.44153
 C1683 C 0.20099 0.13300 0.45484
 C1684 C 0.20941 0.14884 0.46419
 C1685 C 0.22871 0.15394 0.45981
 C1686 C 0.23944 0.14322 0.44655
 H1687 H 0.24964 0.06307 0.37767
 H1688 H 0.26854 0.03984 0.35921
 H1689 H 0.32171 0.06850 0.37540
 H1690 H 0.30293 0.09200 0.39397
 H1691 H 0.20468 0.11020 0.43472
 H1692 H 0.18612 0.12873 0.45782
 H1693 H 0.23560 0.16608 0.46679
 H1694 H 0.25433 0.14738 0.44360
 C1695 C 0.72520 0.08083 0.61241
 C1696 C 0.73306 0.07379 0.62969
 C1697 C 0.72284 0.06028 0.64060
 C1698 C 0.70476 0.05337 0.63426
 C1699 C 0.69673 0.06053 0.61721
 C1700 C 0.70679 0.07425 0.60643
 C1701 C 0.73644 0.09436 0.60032
 N1702 N 0.72756 0.10453 0.58612
 N1703 N 0.73783 0.11607 0.57472
 C1704 C 0.75742 0.11783 0.57696
 N1705 N 0.76627 0.10774 0.59123
 N1706 N 0.75599 0.09630 0.60270
 C1707 C 0.76899 0.12983 0.56365
 C1708 C 0.78921 0.12700 0.56200
 C1709 C 0.80001 0.13748 0.54865
 C1710 C 0.79090 0.15124 0.53687
 C1711 C 0.77078 0.15447 0.53886
 C1712 C 0.75991 0.14376 0.55201
 H1713 H 0.74715 0.07865 0.63472
 H1714 H 0.72919 0.05489 0.65377
 H1715 H 0.68277 0.05529 0.61215
 H1716 H 0.70036 0.07931 0.59318
 H1717 H 0.79664 0.11634 0.57070
 H1718 H 0.81551 0.13473 0.54750
 H1719 H 0.76336 0.16496 0.52994
 H1720 H 0.74437 0.14634 0.55301
 C1721 C 0.92452 0.60703 0.27409
 C1722 C 0.92037 0.62677 0.27603
 C1723 C 0.93325 0.63885 0.28586
 C1724 C 0.95029 0.63131 0.29418
 C1725 C 0.95408 0.61149 0.29282
 C1726 C 0.94143 0.59950 0.28270
 C1727 C 0.91174 0.59439 0.26262
 N1728 N 0.91904 0.57817 0.25452
 N1729 N 0.90779 0.56689 0.24382
 C1730 C 0.88871 0.57127 0.24091
 N1731 N 0.88134 0.58743 0.24912
 N1732 N 0.89267 0.59884 0.25969
 C1733 C 0.87639 0.55866 0.22893
 C1734 C 0.85610 0.55795 0.23151
 C1735 C 0.84469 0.54536 0.22060
 C1736 C 0.85335 0.53361 0.20663
 C1737 C 0.87358 0.53468 0.20379
 C1738 C 0.88499 0.54693 0.21495
 H1739 H 0.90747 0.63296 0.26948
 H1740 H 0.93010 0.65411 0.28675
 H1741 H 0.96705 0.60537 0.29932
 H1742 H 0.94491 0.58432 0.28160
 H1743 H 0.84911 0.56680 0.24225
 H1744 H 0.82912 0.54484 0.22304
 H1745 H 0.88066 0.52573 0.19320
 H1746 H 0.90058 0.54727 0.21256
 C1747 C 0.92263 0.39330 0.72308
 C1748 C 0.91912 0.37339 0.72202
 C1749 C 0.93211 0.36133 0.71233
 C1750 C 0.94860 0.36904 0.70329
 C1751 C 0.95166 0.38902 0.70370
 C1752 C 0.93892 0.40101 0.71367
 C1753 C 0.91000 0.40594 0.73468
 N1754 N 0.91727 0.42243 0.74226
 N1755 N 0.90626 0.43361 0.75328
 C1756 C 0.88748 0.42886 0.75705
 N1757 N 0.88011 0.41246 0.74934
 N1758 N 0.89120 0.40115 0.73844
 C1759 C 0.87556 0.44122 0.76961
 C1760 C 0.85517 0.44195 0.76770
 C1761 C 0.84414 0.45424 0.77930
 C1762 C 0.85330 0.46560 0.79329
 C1763 C 0.87363 0.46453 0.79542
 C1764 C 0.88465 0.45262 0.78358
 H1765 H 0.90670 0.36708 0.72920
 H1766 H 0.92953 0.34594 0.71216
 H1767 H 0.96421 0.39525 0.69665
 H1768 H 0.94189 0.41632 0.71411
 H1769 H 0.84782 0.43333 0.75700
 H1770 H 0.82847 0.45480 0.77741
 H1771 H 0.88108 0.47322 0.80600
 H1772 H 0.90033 0.45225 0.78544
 C1773 C 0.07805 0.60922 0.72247
 C1774 C 0.08309 0.62849 0.71873
 C1775 C 0.06993 0.64079 0.70937
 C1776 C 0.05166 0.63392 0.70339
 C1777 C 0.04701 0.61447 0.70642
 C1778 C 0.05998 0.60231 0.71597
 C1779 C 0.09098 0.59650 0.73386
 N1780 N 0.08347 0.58098 0.74305
 N1781 N 0.09476 0.56968 0.75377
 C1782 C 0.11409 0.57334 0.75568
 N1783 N 0.12170 0.58880 0.74638
 N1784 N 0.11034 0.60023 0.73575
 C1785 C 0.12637 0.56073 0.76783
 C1786 C 0.14660 0.55930 0.76494
 C1787 C 0.15785 0.54662 0.77605
 C1788 C 0.14911 0.53546 0.79046
 C1789 C 0.12898 0.53728 0.79359
 C1790 C 0.11773 0.54963 0.78231
 H1791 H 0.09691 0.63422 0.72361
 H1792 H 0.07378 0.65576 0.70720
 H1793 H 0.03308 0.60883 0.70174
 H1794 H 0.05575 0.58749 0.71844
 H1795 H 0.15363 0.56766 0.75385
 H1796 H 0.17335 0.54553 0.77335
 H1797 H 0.12180 0.52882 0.80453
 H1798 H 0.10221 0.55051 0.78497
 C1799 C 0.07903 0.39213 0.27730
 C1800 C 0.07527 0.37333 0.27088
 C1801 C 0.06191 0.36167 0.28053
 C1802 C 0.05256 0.36842 0.29705
 C1803 C 0.05688 0.38691 0.30390
 C1804 C 0.06979 0.39879 0.29393
 C1805 C 0.09179 0.40506 0.26623
 N1806 N 0.08765 0.42415 0.26498
 N1807 N 0.09863 0.43580 0.25438
 C1808 C 0.11432 0.42885 0.24480
 N1809 N 0.11862 0.40979 0.24621
 N1810 N 0.10747 0.39808 0.25661
 C1811 C 0.12612 0.44175 0.23271
 C1812 C 0.14640 0.43933 0.23135
 C1813 C 0.15750 0.45194 0.22016
 C1814 C 0.14837 0.46672 0.20969
 C1815 C 0.12806 0.46888 0.21079
 C1816 C 0.11707 0.45668 0.22242
 H1817 H 0.08212 0.36794 0.25802
 H1818 H 0.05866 0.34745 0.27503
 H1819 H 0.04982 0.39232 0.31665
 H1820 H 0.07253 0.41320 0.29920
 H1821 H 0.15368 0.42794 0.23922
 H1822 H 0.17315 0.45001 0.21949
 H1823 H 0.12073 0.48025 0.20293
 H1824 H 0.10143 0.45875 0.22317
   
