data_POSCAR
  _audit_creation_date              2014-09-24
  _audit_creation_method            'ToBaCCo'
  _symmetry_space_group_name_H-M    'P1'
  _symmetry_Int_Tables_number       1
  _symmetry_cell_setting            triclinic
  loop_
  _symmetry_equiv_pos_as_xyz
 x,y,z
_cell_length_a 42.1300
_cell_length_b 42.9145
_cell_length_c 42.4975
_cell_angle_alpha 88.967600
_cell_angle_beta 89.131400
_cell_angle_gamma 90.098900
loop_
  _atom_site_label
  _atom_site_type_symbol
  _atom_site_fract_x
  _atom_site_fract_y
  _atom_site_fract_z
C1 C 0.74660 0.62295 1.04346
 C2 C 0.76046 0.64043 1.01880
 C3 C 0.78789 0.65800 1.02402
 C4 C 0.80065 0.65965 1.05437
 C5 C 0.78679 0.64122 1.07876
 C6 C 0.76041 0.62192 1.07337
 C7 C 0.74671 0.63945 0.98723
 C8 C 0.71671 0.65228 0.98152
 C9 C 0.70348 0.65065 0.95149
 C10 C 0.72084 0.63670 0.92704
 C11 C 0.75091 0.62381 0.93255
 C12 C 0.76340 0.62481 0.96293
 H13 H 0.72512 0.60984 1.03912
 H14 H 0.79829 0.67150 1.00467
 H15 H 0.70371 0.66350 1.00037
 H16 H 0.78609 0.61400 0.96778
 H17 H 0.79802 0.64026 1.10154
 H18 H 0.71082 0.63573 0.90373
 C19 C 0.74367 0.39685 0.46735
 C20 C 0.75607 0.38056 0.49326
 C21 C 0.78425 0.36351 0.48977
 C22 C 0.79988 0.36246 0.46042
 C23 C 0.78699 0.37849 0.43454
 C24 C 0.75930 0.39633 0.43797
 C25 C 0.73950 0.38140 0.52398
 C26 C 0.70867 0.36923 0.52748
 C27 C 0.69285 0.36993 0.55677
 C28 C 0.70805 0.38323 0.58249
 C29 C 0.73846 0.39616 0.57892
 C30 C 0.75438 0.39466 0.54981
 H31 H 0.72203 0.41020 0.47015
 H32 H 0.79367 0.35062 0.50971
 H33 H 0.69722 0.35882 0.50755
 H34 H 0.77802 0.40445 0.54707
 H35 H 0.79859 0.37711 0.41167
 H36 H 0.69626 0.38350 0.60533
 C37 C 0.24433 -0.10083 -0.05586
 C38 C 0.25761 -0.11695 -0.03045
 C39 C 0.28464 -0.13535 -0.03510
 C40 C 0.29788 -0.13925 -0.06536
 C41 C 0.28457 -0.12230 -0.09067
 C42 C 0.25822 -0.10277 -0.08597
 C43 C 0.24411 -0.11433 0.00148
 C44 C 0.21550 -0.12917 0.00982
 C45 C 0.20471 -0.12990 0.04141
 C46 C 0.22491 -0.11802 0.06457
 C47 C 0.25342 -0.10251 0.05634
 C48 C 0.26167 -0.09935 0.02434
 H49 H 0.22370 -0.08624 -0.05207
 H50 H 0.29554 -0.14638 -0.01481
 H51 H 0.20157 -0.13957 -0.00848
 H52 H 0.28249 -0.08612 0.01700
 H53 H 0.29405 -0.12487 -0.11433
 H54 H 0.21862 -0.12135 0.08922
 C55 C 0.24233 0.11995 0.52189
 C56 C 0.25908 0.13166 0.49545
 C57 C 0.28947 0.14451 0.49907
 C58 C 0.30280 0.14577 0.52907
 C59 C 0.28604 0.13355 0.55523
 C60 C 0.25568 0.12087 0.55184
 C61 C 0.24430 0.13072 0.46428
 C62 C 0.21439 0.14426 0.45979
 C63 C 0.19946 0.14225 0.43070
 C64 C 0.21420 0.12612 0.40615
 C65 C 0.24378 0.11185 0.41060
 C66 C 0.25909 0.11484 0.43952
 H67 H 0.21888 0.10999 0.51915
 H68 H 0.30231 0.15416 0.47886
 H69 H 0.20274 0.15640 0.47889
 H70 H 0.28191 0.10381 0.44312
 H71 H 0.29654 0.13422 0.57835
 H72 H 0.20253 0.12440 0.38369
 C73 C 0.10449 0.53938 0.25251
 C74 C 0.11905 0.51431 0.26812
 C75 C 0.13083 0.51827 0.29847
 C76 C 0.12831 0.54716 0.31309
 C77 C 0.11366 0.57214 0.29726
 C78 C 0.10050 0.56827 0.26728
 C79 C 0.12015 0.48347 0.25340
 C80 C 0.13432 0.47963 0.22359
 C81 C 0.13426 0.45030 0.20953
 C82 C 0.12040 0.42475 0.22561
 C83 C 0.10616 0.42835 0.25533
 C84 C 0.10578 0.45789 0.26890
 H85 H 0.09602 0.53618 0.22882
 H86 H 0.14190 0.49886 0.31073
 H87 H 0.14518 0.49938 0.21132
 H88 H 0.09387 0.46109 0.29140
 H89 H 0.11136 0.59420 0.30910
 H90 H 0.12068 0.40201 0.21489
 C91 C -0.10939 -0.03898 0.23425
 C92 C -0.12761 -0.01539 0.24793
 C93 C -0.14303 -0.02107 0.27701
 C94 C -0.14102 -0.05048 0.29215
 C95 C -0.12048 -0.07291 0.27915
 C96 C -0.10462 -0.06740 0.25029
 C97 C -0.12961 0.01553 0.23220
 C98 C -0.13806 0.01834 0.20040
 C99 C -0.13780 0.04764 0.18476
 C100 C -0.12964 0.07416 0.20207
 C101 C -0.12149 0.07154 0.23381
 C102 C -0.12145 0.04223 0.24874
 H103 H -0.09810 -0.03485 0.21147
 H104 H -0.15799 -0.00304 0.28681
 H105 H -0.14403 -0.00250 0.18770
 H106 H -0.11433 0.04015 0.27310
 H107 H -0.11661 -0.09480 0.29163
 H108 H -0.13070 0.09721 0.19131
 C109 C 0.38368 0.44768 0.75200
 C110 C 0.36733 0.47161 0.76712
 C111 C 0.35342 0.46596 0.79693
 C112 C 0.35475 0.43604 0.81120
 C113 C 0.37310 0.41291 0.79633
 C114 C 0.38774 0.41866 0.76694
 C115 C 0.36547 0.50261 0.75170
 C116 C 0.35421 0.50571 0.72084
 C117 C 0.35443 0.53486 0.70535
 C118 C 0.36585 0.56100 0.72109
 C119 C 0.37747 0.55806 0.75169
 C120 C 0.37702 0.52888 0.76703
 H121 H 0.39412 0.45195 0.72884
 H122 H 0.34005 0.48444 0.80801
 H123 H 0.34544 0.48542 0.70885
 H124 H 0.38663 0.52646 0.79046
 H125 H 0.37645 0.39043 0.80784
 H126 H 0.36580 0.58370 0.70948
 C127 C 0.60268 1.03174 0.74267
 C128 C 0.62037 1.00753 0.75614
 C129 C 0.63623 1.01225 0.78451
 C130 C 0.63512 1.04153 0.79909
 C131 C 0.61626 1.06522 0.78561
 C132 C 0.60020 1.06041 0.75754
 C133 C 0.62150 0.97729 0.74036
 C134 C 0.63468 0.97531 0.70992
 C135 C 0.63256 0.94751 0.69328
 C136 C 0.61715 0.92164 0.70722
 C137 C 0.60364 0.92354 0.73747
 C138 C 0.60639 0.95124 0.75423
 H139 H 0.59052 1.02816 0.72072
 H140 H 0.64932 0.99316 0.79516
 H141 H 0.64599 0.99554 0.69896
 H142 H 0.59551 0.95295 0.77741
 H143 H 0.61492 1.08795 0.79631
 H144 H 0.61527 0.90015 0.69433
 C145 C -0.03127 0.24575 -0.11541
 C146 C -0.00679 0.26332 -0.12954
 C147 C -0.01366 0.29183 -0.14457
 C148 C -0.04528 0.30229 -0.14696
 C149 C -0.06952 0.28447 -0.13195
 C150 C -0.06276 0.25600 -0.11678
 C151 C 0.02559 0.25047 -0.13074
 C152 C 0.03150 0.22312 -0.14743
 C153 C 0.06240 0.21079 -0.14990
 C154 C 0.08691 0.22553 -0.13345
 C155 C 0.08107 0.25270 -0.11643
 C156 C 0.05042 0.26528 -0.11541
 H157 H -0.02583 0.22379 -0.10367
 H158 H 0.00546 0.30472 -0.15619
 H159 H 0.01208 0.21233 -0.15971
 H160 H 0.04581 0.28625 -0.10227
 H161 H -0.09383 0.29268 -0.13204
 H162 H 0.11048 0.21545 -0.13305
 C163 C 0.55156 0.24090 0.12207
 C164 C 0.52558 0.25594 0.13602
 C165 C 0.52878 0.28681 0.14591
 C166 C 0.55782 0.30256 0.14189
 C167 C 0.58366 0.28727 0.12774
 C168 C 0.58062 0.25646 0.11782
 C169 C 0.49491 0.23951 0.13926
 C170 C 0.49301 0.21055 0.15503
 C171 C 0.46432 0.19390 0.15636
 C172 C 0.43719 0.20694 0.14254
 C173 C 0.43898 0.23561 0.12609
 C174 C 0.46785 0.25197 0.12500
 H175 H 0.54903 0.21723 0.11394
 H176 H 0.50879 0.29848 0.15687
 H177 H 0.51393 0.20085 0.16603
 H178 H 0.46951 0.27403 0.11224
 H179 H 0.60622 0.29923 0.12478
 H180 H 0.41483 0.19443 0.14398
 C181 C 1.04208 0.74809 0.62267
 C182 C 1.01587 0.76445 0.63434
 C183 C 1.02038 0.79329 0.64876
 C184 C 1.05123 0.80524 0.65285
 C185 C 1.07715 0.78895 0.63974
 C186 C 1.07261 0.76049 0.62493
 C187 C 0.98390 0.75070 0.63238
 C188 C 0.97802 0.72074 0.64482
 C189 C 0.94784 0.70724 0.64271
 C190 C 0.92320 0.72434 0.62879
 C191 C 0.92873 0.75446 0.61639
 C192 C 0.95938 0.76726 0.61781
 H193 H 1.03871 0.72584 0.61148
 H194 H 0.99997 0.80532 0.65848
 H195 H 0.99689 0.70796 0.65634
 H196 H 0.96423 0.79004 0.60737
 H197 H 1.10096 0.79844 0.64081
 H198 H 0.89971 0.71413 0.62756
 C199 C 0.46366 0.73234 0.40067
 C200 C 0.48543 0.74904 0.38169
 C201 C 0.47613 0.77702 0.36693
 C202 C 0.44520 0.78867 0.37150
 C203 C 0.42433 0.77243 0.39215
 C204 C 0.43269 0.74336 0.40506
 C205 C 0.51760 0.73649 0.37682
 C206 C 0.52175 0.70711 0.36344
 C207 C 0.55206 0.69375 0.36130
 C208 C 0.57834 0.71025 0.37237
 C209 C 0.57450 0.73995 0.38518
 C210 C 0.54402 0.75296 0.38731
 H211 H 0.47060 0.71035 0.41147
 H212 H 0.49270 0.78917 0.35127
 H213 H 0.50136 0.69461 0.35481
 H214 H 0.54077 0.77556 0.39788
 H215 H 0.40080 0.78155 0.39682
 H216 H 0.60176 0.69988 0.37120
 C217 C 0.40903 -0.04124 0.29560
 H218 H 0.41450 -0.01795 0.30319
 C219 C 0.41698 -0.06701 0.31471
 H220 H 0.42860 -0.06332 0.33689
 C221 C 0.38502 -0.07440 0.25900
 H222 H 0.37030 -0.07779 0.23894
 C223 C 0.39429 -0.10059 0.27615
 H224 H 0.38866 -0.12341 0.26730
 N225 N 0.39288 -0.04527 0.26841
 C226 C 0.41544 0.02409 0.20238
 H227 H 0.40591 0.00847 0.18531
 C228 C 0.43167 0.05066 0.19178
 H229 H 0.43431 0.05505 0.16670
 C230 C 0.42049 0.03935 0.25538
 H231 H 0.41450 0.03568 0.28000
 C232 C 0.43694 0.06635 0.24573
 H233 H 0.44412 0.08302 0.26309
 Zn234 Zn 0.37706 -0.00979 0.24538
 N235 N 0.40927 0.01937 0.23363
 C236 C 0.33987 0.04117 0.26486
 N237 N 0.34770 0.01107 0.27171
 C238 C 0.33647 -0.00364 0.29824
 C239 C 0.31702 0.01218 0.31943
 C240 C 0.32032 0.05782 0.28538
 C241 C 0.37079 -0.04433 0.18986
 C242 C 0.35533 -0.05627 0.16399
 C243 C 0.31385 -0.01839 0.17159
 C244 C 0.32874 -0.00908 0.19908
 N245 N 0.35657 -0.02240 0.20793
 H246 H 0.34937 0.05242 0.24376
 H247 H 0.34295 -0.02754 0.30326
 H248 H 0.30891 0.00047 0.34088
 H249 H 0.31460 0.08190 0.27997
 H250 H 0.39368 -0.05359 0.19636
 H251 H 0.36566 -0.07614 0.15240
 H252 H 0.29210 -0.00693 0.16470
 H253 H 0.31814 0.00897 0.21314
 C254 C 0.44193 0.07259 0.21347
 C255 C 0.40890 -0.09722 0.30530
 C256 C 0.32679 -0.04279 0.15380
 C257 C 0.30872 0.04325 0.31303
 C258 C 0.10631 1.04284 0.79063
 H259 H 0.11613 1.02368 0.80411
 C260 C 0.09565 1.06936 0.80619
 H261 H 0.09758 1.07063 0.83152
 C262 C 0.09334 1.06554 0.74125
 H263 H 0.09319 1.06446 0.71594
 C264 C 0.08238 1.09242 0.75585
 H265 H 0.07391 1.11183 0.74167
 N266 N 0.10646 1.04205 0.75859
 C267 C 0.11807 0.96698 0.69291
 H268 H 0.13911 0.97628 0.68130
 C269 C 0.10482 0.93947 0.68220
 H270 H 0.11537 0.92803 0.66209
 C271 C 0.08100 0.96822 0.73547
 H272 H 0.07286 0.97890 0.75699
 C273 C 0.06706 0.94050 0.72558
 H274 H 0.04799 0.92985 0.73939
 Zn275 Zn 0.13153 1.01177 0.73750
 N276 N 0.10636 0.98053 0.71935
 C277 C 0.16016 0.96015 0.76758
 N278 N 0.15913 0.99186 0.76656
 C279 C 0.17666 1.00911 0.78653
 C280 C 0.19532 0.99446 0.80929
 C281 C 0.17887 0.94461 0.78959
 C282 C 0.14032 1.04073 0.67835
 C283 C 0.15663 1.05597 0.65379
 C284 C 0.20435 1.05357 0.68458
 C285 C 0.18716 1.03812 0.70854
 N286 N 0.15563 1.03225 0.70515
 H287 H 0.14625 0.94675 0.75152
 H288 H 0.17543 1.03428 0.78535
 H289 H 0.20820 1.00842 0.82582
 H290 H 0.17918 0.91936 0.79032
 H291 H 0.11545 1.03521 0.67584
 H292 H 0.14424 1.06254 0.63253
 H293 H 0.22938 1.05832 0.68744
 H294 H 0.19905 1.03096 0.72977
 C295 C 0.07966 0.92560 0.69912
 C296 C 0.08490 1.09495 0.78851
 C297 C 0.18888 1.06268 0.65698
 C298 C 0.19663 0.96179 0.81086
 C299 C 0.60786 0.52876 0.30245
 H300 H 0.61952 0.51098 0.31634
 C301 C 0.59282 0.55338 0.31764
 H302 H 0.59367 0.55466 0.34304
 C303 C 0.59417 0.54988 0.25262
 H304 H 0.59536 0.54896 0.22730
 C305 C 0.57862 0.57479 0.26687
 H306 H 0.56797 0.59282 0.25235
 N307 N 0.60955 0.52817 0.27045
 C308 C 0.63571 0.45170 0.20911
 H309 H 0.66067 0.45722 0.20630
 C310 C 0.62277 0.42705 0.19271
 H311 H 0.63787 0.41345 0.17736
 C312 C 0.58588 0.46216 0.23340
 H313 H 0.57182 0.47587 0.24952
 C314 C 0.57193 0.43746 0.21746
 H315 H 0.54703 0.43211 0.22131
 Zn316 Zn 0.63850 0.50032 0.25069
 N317 N 0.61732 0.46851 0.22912
 C318 C 0.66650 0.45029 0.28471
 N319 N 0.66504 0.48189 0.28173
 C320 C 0.68096 0.50059 0.30170
 C321 C 0.69862 0.48763 0.32619
 C322 C 0.68442 0.43639 0.30845
 C323 C 0.64886 0.53030 0.19269
 C324 C 0.66564 0.54577 0.16858
 C325 C 0.71208 0.54522 0.20125
 C326 C 0.69436 0.52974 0.22483
 N327 N 0.66325 0.52277 0.22024
 H328 H 0.65336 0.43573 0.26906
 H329 H 0.67904 0.52565 0.29922
 H330 H 0.71012 0.50280 0.34264
 H331 H 0.68516 0.41121 0.31064
 H332 H 0.62445 0.52362 0.18911
 H333 H 0.65393 0.55155 0.14673
 H334 H 0.73687 0.55053 0.20499
 H335 H 0.70565 0.52308 0.24655
 C336 C 0.59053 0.41975 0.19676
 C337 C 0.57870 0.57720 0.29973
 C338 C 0.69770 0.55304 0.17267
 C339 C 0.70068 0.45512 0.32959
 C340 C 0.89835 0.47046 0.80297
 H341 H 0.88753 0.48747 0.81812
 C342 C 0.91163 0.44357 0.81632
 H343 H 0.91056 0.43986 0.84159
 C344 C 0.91173 0.45352 0.75173
 H345 H 0.91107 0.45700 0.72655
 C346 C 0.92538 0.42640 0.76408
 H347 H 0.93510 0.40917 0.74833
 N348 N 0.89705 0.47410 0.77110
 C349 C 0.87282 0.55076 0.70760
 H350 H 0.84850 0.54377 0.70393
 C351 C 0.88485 0.57703 0.69191
 H352 H 0.86992 0.59000 0.67582
 C353 C 0.92117 0.54366 0.73473
 H354 H 0.93472 0.53099 0.75217
 C355 C 0.93421 0.57003 0.71945
 H356 H 0.95798 0.57764 0.72496
 Zn357 Zn 0.86897 0.50391 0.75281
 N358 N 0.89079 0.53493 0.72884
 C359 C 0.84523 0.55604 0.78476
 N360 N 0.84481 0.52431 0.78469
 C361 C 0.82867 0.50777 0.80746
 C362 C 0.81371 0.52313 0.83238
 C363 C 0.82990 0.57225 0.80864
 C364 C 0.85501 0.47604 0.69618
 C365 C 0.83689 0.46172 0.67344
 C366 C 0.79232 0.46101 0.70990
 C367 C 0.81132 0.47562 0.73202
 N368 N 0.84210 0.48278 0.72480
 H369 H 0.85785 0.56904 0.76658
 H370 H 0.82838 0.48258 0.80689
 H371 H 0.80190 0.50968 0.85092
 H372 H 0.83042 0.59749 0.80818
 H373 H 0.87926 0.48260 0.69064
 H374 H 0.84738 0.45693 0.65061
 H375 H 0.76785 0.45534 0.71575
 H376 H 0.80139 0.48135 0.75475
 C377 C 0.91564 0.58715 0.69816
 C378 C 0.92388 0.42058 0.79661
 C379 C 0.80511 0.45436 0.68010
 C380 C 0.81500 0.55578 0.83350
 C381 C 0.30625 0.38660 -0.01518
 H382 H 0.32129 0.37625 0.00250
 C383 C 0.31992 0.39902 -0.04287
 H384 H 0.34539 0.39789 -0.04654
 C385 C 0.25472 0.39884 -0.03327
 H386 H 0.22926 0.39764 -0.02993
 C387 C 0.26737 0.41153 -0.06122
 H388 H 0.25162 0.42013 -0.07930
 N389 N 0.27409 0.38538 -0.01164
 C390 C 0.21255 0.36490 0.06943
 H391 H 0.21001 0.34006 0.06634
 C392 C 0.19532 0.37960 0.09307
 H393 H 0.17959 0.36599 0.10835
 C394 C 0.23642 0.41283 0.05340
 H395 H 0.25253 0.42553 0.03779
 C396 C 0.21966 0.42852 0.07702
 H397 H 0.22286 0.45338 0.07966
 Zn398 Zn 0.25426 0.35864 0.01882
 N399 N 0.23260 0.38155 0.05018
 C400 C 0.28597 0.32988 0.07021
 N401 N 0.28491 0.33201 0.03823
 C402 C 0.30628 0.31646 0.02000
 C403 C 0.33001 0.29836 0.03383
 C404 C 0.30882 0.31144 0.08496
 C405 C 0.19344 0.34653 -0.00381
 C406 C 0.17051 0.33250 -0.02218
 C407 C 0.20970 0.29493 -0.03873
 C408 C 0.23197 0.30970 -0.01999
 N409 N 0.22357 0.33511 -0.00304
 H410 H 0.26942 0.34276 0.08452
 H411 H 0.30570 0.31904 -0.00533
 H412 H 0.34759 0.28720 0.01900
 H413 H 0.30931 0.31009 0.11043
 H414 H 0.18739 0.36728 0.00897
 H415 H 0.14681 0.34218 -0.02301
 H416 H 0.21664 0.27495 -0.05242
 H417 H 0.25602 0.30119 -0.01956
 C418 C 0.19862 0.41177 0.09690
 C419 C 0.30020 0.41036 -0.06670
 C420 C 0.17875 0.30676 -0.04028
 C421 C 0.33122 0.29538 0.06674
 C422 C 0.79342 0.08764 1.01414
 H423 H 0.80130 0.08620 0.98986
 C424 C 0.81077 0.07285 1.03795
 H425 H 0.83188 0.05972 1.03200
 C426 C 0.75771 0.10834 1.05200
 H427 H 0.73770 0.12295 1.05768
 C428 C 0.77428 0.09402 1.07638
 H429 H 0.76675 0.09757 1.10054
 N430 N 0.76783 0.10553 1.02161
 C431 C 0.71053 0.12638 0.93906
 H432 H 0.70920 0.15138 0.94166
 C433 C 0.69550 0.11234 0.91404
 H434 H 0.68263 0.12663 0.89730
 C435 C 0.72950 0.07747 0.95747
 H436 H 0.74291 0.06410 0.97446
 C437 C 0.71431 0.06233 0.93291
 H438 H 0.71591 0.03724 0.93110
 Zn439 Zn 0.74948 0.13179 0.99052
 N440 N 0.72787 0.10905 0.95961
 C441 C 0.78532 0.15768 0.93925
 N442 N 0.78282 0.15548 0.97119
 C443 C 0.80506 0.16848 0.98983
 C444 C 0.83122 0.18416 0.97641
 C445 C 0.81073 0.17355 0.92493
 C446 C 0.69133 0.14488 1.01908
 C447 C 0.66933 0.16151 1.03690
 C448 C 0.70533 0.20544 1.03576
 C449 C 0.72668 0.18799 1.01778
 N450 N 0.71960 0.15805 1.01044
 H451 H 0.76790 0.14688 0.92466
 H452 H 0.80278 0.16611 1.01515
 H453 H 0.84901 0.19401 0.99146
 H454 H 0.81221 0.17533 0.89949
 H455 H 0.68634 0.12104 1.01291
 H456 H 0.64713 0.15058 1.04414
 H457 H 0.71146 0.22896 1.04226
 H458 H 0.74922 0.19803 1.01056
 C459 C 0.69784 0.08004 0.91037
 C460 C 0.80166 0.07692 1.06950
 C461 C 0.67668 0.19182 1.04616
 C462 C 0.83445 0.18634 0.94354
 C463 C 0.28142 0.57663 0.53518
 H464 H 0.28843 0.57363 0.51084
 C465 C 0.29776 0.56081 0.55906
 H466 H 0.31689 0.54508 0.55302
 C467 C 0.24949 0.60227 0.57310
 H468 H 0.23148 0.61918 0.57878
 C469 C 0.26544 0.58739 0.59753
 H470 H 0.25926 0.59277 0.62167
 N471 N 0.25813 0.59732 0.54262
 C472 C 0.20060 0.62316 0.46161
 H473 H 0.19910 0.64777 0.46647
 C474 C 0.18378 0.61101 0.43667
 H475 H 0.16936 0.62632 0.42227
 C476 C 0.22183 0.57336 0.47402
 H477 H 0.23672 0.55885 0.48864
 C478 C 0.20549 0.56023 0.44901
 H479 H 0.20790 0.53561 0.44437
 Zn480 Zn 0.24180 0.62492 0.51152
 N481 N 0.21939 0.60443 0.47952
 C482 C 0.27842 0.65204 0.46185
 N483 N 0.27653 0.64720 0.49353
 C484 C 0.30012 0.65669 0.51271
 C485 C 0.32731 0.67113 0.50001
 C486 C 0.30490 0.66676 0.44827
 C487 C 0.18463 0.64040 0.54041
 C488 C 0.16287 0.65858 0.55683
 C489 C 0.19992 0.70166 0.55329
 C490 C 0.22101 0.68263 0.53675
 N491 N 0.21320 0.65248 0.53116
 H492 H 0.25958 0.64428 0.44695
 H493 H 0.29805 0.65247 0.53783
 H494 H 0.34621 0.67810 0.51540
 H495 H 0.30601 0.67064 0.42302
 H496 H 0.17905 0.61638 0.53545
 H497 H 0.14026 0.64867 0.56427
 H498 H 0.20645 0.72548 0.55817
 H499 H 0.24380 0.69174 0.52897
 C500 C 0.18617 0.57923 0.43016
 C501 C 0.29058 0.56724 0.59065
 C502 C 0.17079 0.68934 0.56403
 C503 C 0.33009 0.67573 0.46734
 C504 C 0.80014 0.90141 0.46308
 H505 H 0.81435 0.89245 0.48213
 C506 C 0.81517 0.91403 0.43619
 H507 H 0.84085 0.91432 0.43448
 C508 C 0.74961 0.91029 0.44093
 H509 H 0.72413 0.90798 0.44236
 C510 C 0.76364 0.92314 0.41369
 H511 H 0.74889 0.93051 0.39428
 N512 N 0.76796 0.89828 0.46426
 C513 C 0.70179 0.87592 0.54084
 H514 H 0.69768 0.85187 0.53489
 C515 C 0.68481 0.88900 0.56561
 H516 H 0.66747 0.87500 0.57859
 C517 C 0.73086 0.92281 0.53241
 H518 H 0.74934 0.93551 0.51970
 C519 C 0.71447 0.93680 0.55736
 H520 H 0.72017 0.96044 0.56378
 Zn521 Zn 0.74842 0.87091 0.49459
 N522 N 0.72438 0.89280 0.52489
 C523 C 0.77932 0.84654 0.54803
 N524 N 0.77990 0.84720 0.51599
 C525 C 0.80327 0.83249 0.49953
 C526 C 0.82818 0.81784 0.51534
 C527 C 0.80322 0.83147 0.56470
 C528 C 0.69130 0.85662 0.46599
 C529 C 0.66885 0.83883 0.45060
 C530 C 0.70590 0.79591 0.45021
 C531 C 0.72771 0.81454 0.46585
 N532 N 0.72012 0.84439 0.47325
 H533 H 0.76057 0.85805 0.56086
 H534 H 0.80319 0.83312 0.47407
 H535 H 0.84720 0.80714 0.50196
 H536 H 0.80229 0.83107 0.59019
 H537 H 0.68555 0.88019 0.47257
 H538 H 0.64594 0.84880 0.44512
 H539 H 0.71200 0.77217 0.44441
 H540 H 0.75057 0.80512 0.47205
 C541 C 0.69114 0.91971 0.57417
 C542 C 0.79678 0.92371 0.41068
 C543 C 0.67618 0.80823 0.44244
 C544 C 0.82869 0.81795 0.54836
 C545 C -0.03864 0.29157 0.40099
 H546 H -0.01910 0.30477 0.39075
 C547 C -0.06250 0.30709 0.41755
 H548 H -0.06149 0.33223 0.41924
 C549 C -0.06484 0.24322 0.40961
 H550 H -0.06618 0.21848 0.40581
 C551 C -0.08907 0.25779 0.42663
 H552 H -0.10885 0.24409 0.43582
 N553 N -0.04085 0.26037 0.39620
 C554 C 0.03366 0.19649 0.36794
 H555 H 0.02469 0.19118 0.34493
 C556 C 0.06185 0.18297 0.37797
 H557 H 0.07430 0.16685 0.36284
 C558 C 0.02993 0.22616 0.41444
 H559 H 0.01793 0.24392 0.42787
 C560 C 0.05810 0.21301 0.42548
 H561 H 0.06758 0.22026 0.44774
 Zn562 Zn -0.01321 0.24179 0.36612
 N563 N 0.01876 0.21817 0.38582
 C564 C 0.03948 0.27370 0.33956
 N565 N 0.00719 0.27364 0.34145
 C566 C -0.01005 0.29708 0.32811
 C567 C 0.00530 0.32274 0.31389
 C568 C 0.05566 0.29847 0.32502
 C569 C -0.04511 0.18664 0.35332
 C570 C -0.06176 0.16509 0.33581
 C571 C -0.06110 0.20170 0.29194
 C572 C -0.04427 0.22261 0.31031
 N573 N -0.03686 0.21484 0.34051
 H574 H 0.05295 0.25496 0.35002
 H575 H -0.03569 0.29655 0.32985
 H576 H -0.00859 0.34186 0.30449
 H577 H 0.08137 0.29829 0.32402
 H578 H -0.03810 0.18061 0.37703
 H579 H -0.06766 0.14252 0.34614
 H580 H -0.06685 0.20801 0.26790
 H581 H -0.03703 0.24488 0.30036
 C582 C 0.07488 0.19206 0.40649
 C583 C -0.08850 0.29024 0.42997
 C584 C -0.07024 0.17269 0.30486
 C585 C 0.03858 0.32395 0.31318
 C586 C 1.03709 0.79529 0.09121
 H587 H 1.01305 0.80388 0.08965
 C588 C 1.06199 0.81241 0.07722
 H589 H 1.05699 0.83380 0.06434
 C590 C 1.07347 0.75857 0.11210
 H591 H 1.07817 0.73835 0.12670
 C592 C 1.09899 0.77496 0.09853
 H593 H 1.12301 0.76696 0.10245
 N594 N 1.04321 0.76907 0.10856
 C595 C 0.96178 0.70824 0.12308
 H596 H 0.97011 0.69878 0.14518
 C597 C 0.93346 0.69716 0.11109
 H598 H 0.92056 0.67885 0.12369
 C599 C 0.96671 0.74531 0.08124
 H600 H 0.97915 0.76478 0.07032
 C601 C 0.93810 0.73502 0.06851
 H602 H 0.92877 0.74646 0.04771
 Zn603 Zn 1.00967 0.75087 0.13304
 N604 N 0.97751 0.73233 0.10855
 C605 C 0.95999 0.79107 0.15068
 N606 N 0.99068 0.78330 0.15645
 C607 C 1.00818 0.79945 0.17733
 C608 C 0.99460 0.82412 0.19382
 C609 C 0.94592 0.81621 0.16576
 C610 C 1.03824 0.69357 0.14597
 C611 C 1.04953 0.66866 0.16407
 C612 C 1.03535 0.69675 0.21100
 C613 C 1.02424 0.72117 0.19199
 N614 N 1.02606 0.71925 0.16007
 H615 H 0.94642 0.77818 0.13395
 H616 H 1.03264 0.79305 0.18127
 H617 H 1.00849 0.83616 0.21108
 H618 H 0.92166 0.82240 0.16039
 H619 H 1.03891 0.69243 0.12056
 H620 H 1.05912 0.64831 0.15261
 H621 H 1.03366 0.69834 0.23638
 H622 H 1.01372 0.74131 0.20282
 C623 C 0.92073 0.71143 0.08426
 C624 C 1.09337 0.80261 0.08161
 C625 C 1.04785 0.67008 0.19693
 C626 C 0.96332 0.83329 0.18744
 C627 C 0.52340 0.28766 0.59200
 H628 H 0.49912 0.29277 0.58583
 C629 C 0.54818 0.30566 0.57900
 H630 H 0.54303 0.32424 0.56228
 C631 C 0.55979 0.25823 0.62240
 H632 H 0.56421 0.24056 0.64019
 C633 C 0.58511 0.27589 0.61036
 H634 H 0.60890 0.27127 0.61854
 N635 N 0.52961 0.26445 0.61326
 C636 C 0.44101 0.21242 0.62282
 H637 H 0.44063 0.21101 0.64827
 C638 C 0.41639 0.19941 0.60602
 H639 H 0.39693 0.18794 0.61855
 C640 C 0.46679 0.22936 0.57551
 H641 H 0.48665 0.24086 0.56382
 C642 C 0.44245 0.21660 0.55766
 H643 H 0.44334 0.21861 0.53223
 Zn644 Zn 0.49558 0.24419 0.63477
 N645 N 0.46529 0.22742 0.60753
 C646 C 0.44675 0.28539 0.65338
 N647 N 0.47612 0.27441 0.66040
 C648 C 0.49299 0.28625 0.68447
 C649 C 0.48001 0.30953 0.70319
 C650 C 0.43320 0.30919 0.67102
 C651 C 0.52764 0.18827 0.64366
 C652 C 0.54068 0.16307 0.66005
 C653 C 0.51774 0.18296 0.70815
 C654 C 0.50531 0.20796 0.69086
 N655 N 0.51100 0.21045 0.65929
 H656 H 0.43409 0.27628 0.63362
 H657 H 0.51656 0.27753 0.68914
 H658 H 0.49340 0.31832 0.72270
 H659 H 0.41000 0.31808 0.66491
 H660 H 0.53129 0.19058 0.61847
 H661 H 0.55451 0.14587 0.64753
 H662 H 0.51356 0.18129 0.73333
 H663 H 0.49110 0.22522 0.70269
 C664 C 0.41690 0.20158 0.57313
 C665 C 0.57933 0.30032 0.58893
 C666 C 0.53583 0.16043 0.69263
 C667 C 0.45005 0.32176 0.69602
 C668 C 0.46695 0.78429 0.90218
 H669 H 0.49063 0.79396 0.90314
 C670 C 0.44134 0.80054 0.91538
 H671 H 0.44545 0.82242 0.92695
 C672 C 0.43208 0.74558 0.88356
 H673 H 0.42813 0.72483 0.87021
 C674 C 0.40600 0.76091 0.89648
 H675 H 0.38238 0.75170 0.89299
 N676 N 0.46181 0.75772 0.88593
 C677 C 0.54709 0.70236 0.86950
 H678 H 0.54090 0.69493 0.84620
 C679 C 0.57430 0.69057 0.88350
 H680 H 0.58904 0.67412 0.87095
 C681 C 0.53578 0.73317 0.91403
 H682 H 0.52085 0.75001 0.92565
 C683 C 0.56295 0.72183 0.92903
 H684 H 0.56893 0.72994 0.95218
 Zn685 Zn 0.49460 0.73994 0.86066
 N686 N 0.52869 0.72362 0.88455
 C687 C 0.53915 0.76589 0.81721
 N688 N 0.51094 0.77095 0.83230
 C689 C 0.49538 0.79855 0.82886
 C690 C 0.50886 0.82284 0.81088
 C691 C 0.55348 0.78956 0.79903
 C692 C 0.47147 0.67954 0.85399
 C693 C 0.45495 0.65548 0.83990
 C694 C 0.44986 0.68797 0.79317
 C695 C 0.46673 0.71141 0.80810
 N696 N 0.47670 0.70692 0.83813
 H697 H 0.55107 0.74380 0.81993
 H698 H 0.47271 0.80202 0.84046
 H699 H 0.49673 0.84502 0.80911
 H700 H 0.57634 0.78556 0.78784
 H701 H 0.47940 0.67677 0.87797
 H702 H 0.45062 0.63388 0.85285
 H703 H 0.44132 0.69193 0.76952
 H704 H 0.47091 0.73354 0.79616
 C705 C 0.58259 0.70053 0.91342
 C706 C 0.41040 0.78897 0.91214
 C707 C 0.44322 0.65994 0.80947
 C708 C 0.53839 0.81848 0.79600
 C709 C 0.44593 -0.12873 0.33826
 C710 C 0.45485 -0.15644 0.35335
 C711 C 0.43456 -0.18247 0.35449
 C712 C 0.40417 -0.17987 0.34050
 C713 C 0.39388 -0.15063 0.32842
 C714 C 0.41573 -0.12544 0.32518
 C715 C 0.36182 -0.14768 0.31989
 N716 N 0.34283 -0.17318 0.31945
 N717 N 0.35364 -0.20134 0.32725
 C718 C 0.38369 -0.20562 0.33740
 H719 H 0.46307 -0.10993 0.33630
 H720 H 0.47806 -0.15762 0.36393
 H721 H 0.35165 -0.12536 0.31362
 H722 H 0.39125 -0.22916 0.34257
 C723 C 0.95864 0.38576 0.82800
 C724 C 0.96659 0.35679 0.84098
 C725 C 0.94753 0.33028 0.83636
 C726 C 0.92100 0.33320 0.81599
 C727 C 0.91251 0.36292 0.80356
 C728 C 0.93163 0.38929 0.80959
 C729 C 0.88501 0.36528 0.78522
 N730 N 0.86866 0.33929 0.77782
 N731 N 0.87794 0.31113 0.78744
 C732 C 0.90365 0.30715 0.80588
 H733 H 0.97351 0.40573 0.83266
 H734 H 0.98700 0.35558 0.85616
 H735 H 0.87641 0.38747 0.77650
 H736 H 0.91060 0.28357 0.81176
 C737 C 0.05256 1.12983 0.82186
 C738 C 0.04672 1.15830 0.83607
 C739 C 0.06824 1.18341 0.83273
 C740 C 0.09547 1.17964 0.81273
 C741 C 0.10170 1.15031 0.79899
 C742 C 0.07990 1.12541 0.80353
 C743 C 0.12959 1.14690 0.78069
 N744 N 0.14871 1.17179 0.77476
 N745 N 0.14175 1.19984 0.78574
 C746 C 0.11571 1.20469 0.80411
 H747 H 0.03567 1.11096 0.82538
 H748 H 0.02579 1.16009 0.85106
 H749 H 0.13629 1.12477 0.77083
 H750 H 0.11071 1.22825 0.81099
 C751 C 0.58310 0.63424 0.30477
 C752 C 0.57734 0.66207 0.32007
 C753 C 0.55673 0.66316 0.34618
 C754 C 0.54120 0.63542 0.35679
 C755 C 0.54660 0.60710 0.34072
 C756 C 0.56834 0.60646 0.31493
 C757 C 0.52982 0.58035 0.35097
 N758 N 0.51008 0.58166 0.37641
 N759 N 0.50598 0.60788 0.39224
 C760 C 0.52093 0.63472 0.38342
 H761 H 0.59997 0.63425 0.28527
 H762 H 0.58931 0.68302 0.31154
 H763 H 0.53201 0.55849 0.33888
 H764 H 0.51695 0.65510 0.39749
 C765 C 0.56610 0.36730 0.19972
 C766 C 0.55847 0.33885 0.18644
 C767 C 0.56189 0.33447 0.15397
 C768 C 0.57108 0.36000 0.13424
 C769 C 0.57880 0.38899 0.14776
 C770 C 0.57735 0.39221 0.18090
 C771 C 0.58752 0.41395 0.12751
 N772 N 0.58856 0.40992 0.09593
 N773 N 0.58134 0.38270 0.08326
 C774 C 0.57257 0.35766 0.10128
 H775 H 0.56478 0.36938 0.22508
 H776 H 0.55127 0.31962 0.20182
 H777 H 0.59305 0.43673 0.13644
 H778 H 0.56643 0.33631 0.08966
 C779 C 0.04372 0.88880 0.67288
 C780 C 0.03659 0.85921 0.66189
 C781 C 0.05614 0.83345 0.66887
 C782 C 0.08134 0.83746 0.69051
 C783 C 0.08868 0.86766 0.70132
 C784 C 0.07022 0.89349 0.69159
 C785 C 0.11418 0.87105 0.72204
 N786 N 0.13027 0.84561 0.73230
 N787 N 0.12248 0.81707 0.72341
 C788 C 0.09845 0.81208 0.70322
 H789 H 0.02928 0.90842 0.66559
 H790 H 0.01698 0.85707 0.64586
 H791 H 0.12109 0.89359 0.73066
 H792 H 0.09251 0.78824 0.69800
 C793 C 0.91113 0.64424 0.69404
 C794 C 0.91846 0.67307 0.68033
 C795 C 0.94155 0.67578 0.65638
 C796 C 0.95769 0.64867 0.64614
 C797 C 0.95035 0.61927 0.66036
 C798 C 0.92673 0.61718 0.68436
 C799 C 0.96625 0.59275 0.64934
 N800 N 0.98802 0.59561 0.62563
 N801 N 0.99472 0.62310 0.61206
 C802 C 0.98021 0.64966 0.62135
 H803 H 0.89284 0.64294 0.71222
 H804 H 0.90593 0.69351 0.68846
 H805 H 0.96147 0.56979 0.65919
 H806 H 0.98618 0.67113 0.60897
 C807 C 0.43562 0.12988 0.21158
 C808 C 0.44032 0.15890 0.19708
 C809 C 0.46232 0.16283 0.17227
 C810 C 0.48093 0.13698 0.16274
 C811 C 0.47669 0.10757 0.17815
 C812 C 0.45290 0.10376 0.20189
 C813 C 0.49634 0.08275 0.16907
 N814 N 0.51772 0.08680 0.14518
 N815 N 0.52074 0.11396 0.12978
 C816 C 0.50301 0.13908 0.13758
 H817 H 0.41716 0.12751 0.22950
 H818 H 0.42600 0.17838 0.20476
 H819 H 0.49503 0.06024 0.18087
 H820 H 0.50626 0.16027 0.12382
 C821 C 0.32855 0.44471 -0.10539
 C822 C 0.34096 0.45129 -0.13540
 C823 C 0.33881 0.42956 -0.15977
 C824 C 0.32152 0.40136 -0.15374
 C825 C 0.30954 0.39453 -0.12297
 C826 C 0.31319 0.41643 -0.09875
 C827 C 0.29376 0.36593 -0.11745
 N828 N 0.28857 0.34647 -0.14159
 N829 N 0.29794 0.35372 -0.17086
 C830 C 0.31383 0.38052 -0.17781
 H831 H 0.33123 0.46172 -0.08708
 H832 H 0.35378 0.47300 -0.13902
 H833 H 0.28523 0.35894 -0.09425
 H834 H 0.31950 0.38552 -0.20225
 C835 C 0.82609 0.95867 0.37325
 C836 C 0.84041 0.96521 0.34406
 C837 C 0.84137 0.94283 0.32018
 C838 C 0.82528 0.91386 0.32570
 C839 C 0.81140 0.90709 0.35571
 C840 C 0.81187 0.92975 0.37951
 C841 C 0.79699 0.87776 0.36087
 N842 N 0.79480 0.85747 0.33695
 N843 N 0.80586 0.86457 0.30823
 C844 C 0.82062 0.89208 0.30169
 H845 H 0.82635 0.97624 0.39124
 H846 H 0.85223 0.98751 0.34081
 H847 H 0.78718 0.87083 0.38360
 H848 H 0.82775 0.89684 0.27758
 C849 C 0.80952 0.04255 1.11600
 C850 C 0.82463 0.03493 1.14404
 C851 C 0.85214 0.05091 1.15316
 C852 C 0.86659 0.07226 1.13113
 C853 C 0.85083 0.08038 1.10285
 C854 C 0.82164 0.06587 1.09576
 C855 C 0.86469 0.10326 1.08282
 N856 N 0.89347 0.11537 1.08958
 N857 N 0.90926 0.10626 1.11500
 C858 C 0.89699 0.08500 1.13581
 H859 H 0.78725 0.03122 1.11079
 H860 H 0.81291 0.01837 1.15987
 H861 H 0.85316 0.11147 1.06172
 H862 H 0.91134 0.07789 1.15554
 C863 C 0.29441 0.53755 0.64081
 C864 C 0.30980 0.52966 0.66859
 C865 C 0.34133 0.53863 0.67326
 C866 C 0.35833 0.55396 0.64840
 C867 C 0.34241 0.56289 0.62045
 C868 C 0.30996 0.55485 0.61688
 C869 C 0.35940 0.58062 0.59760
 N870 N 0.39055 0.58710 0.60175
 N871 N 0.40583 0.57739 0.62728
 C872 C 0.39083 0.56103 0.65070
 H873 H 0.26962 0.53133 0.63854
 H874 H 0.29643 0.51785 0.68726
 H875 H 0.34838 0.58955 0.57655
 H876 H 0.40449 0.55355 0.67079
 C877 C 0.18808 0.55595 0.37732
 C878 C 0.17410 0.54850 0.34890
 C879 C 0.14129 0.55158 0.34493
 C880 C 0.12194 0.56040 0.37085
 C881 C 0.13618 0.56807 0.39975
 C882 C 0.16963 0.56672 0.40257
 C883 C 0.11632 0.57660 0.42505
 N884 N 0.08441 0.57738 0.42147
 N885 N 0.07103 0.57009 0.39438
 C886 C 0.08865 0.56155 0.36901
 H887 H 0.21367 0.55473 0.37914
 H888 H 0.18918 0.54153 0.32938
 H889 H 0.12583 0.58223 0.44776
 H890 H 0.07644 0.55535 0.34781
 C891 C 0.65019 0.07039 0.87909
 C892 C 0.63511 0.06178 0.85175
 C893 C 0.65180 0.04749 0.82701
 C894 C 0.68499 0.04183 0.83049
 C895 C 0.70038 0.05090 0.85857
 C896 C 0.68273 0.06559 0.88284
 C897 C 0.73342 0.04664 0.86059
 N898 N 0.74993 0.03431 0.83624
 N899 N 0.73580 0.02650 0.80973
 C900 C 0.70416 0.03020 0.80584
 H901 H 0.63640 0.08178 0.89727
 H902 H 0.60988 0.06627 0.85001
 H903 H 0.74652 0.05344 0.88099
 H904 H 0.69476 0.02484 0.78312
 C905 C 0.69352 0.93949 0.62840
 C906 C 0.67930 0.94583 0.65742
 C907 C 0.64622 0.94528 0.66113
 C908 C 0.62704 0.94052 0.63455
 C909 C 0.64147 0.93408 0.60504
 C910 C 0.67500 0.93245 0.60233
 C911 C 0.62176 0.92956 0.57909
 N912 N 0.58978 0.93130 0.58270
 N913 N 0.57622 0.93737 0.61043
 C914 C 0.59373 0.94210 0.63643
 H915 H 0.71917 0.93836 0.62673
 H916 H 0.69425 0.94970 0.67751
 H917 H 0.63148 0.92510 0.55591
 H918 H 0.58150 0.94751 0.65819
 C919 C 0.19772 0.43943 0.14754
 C920 C 0.18208 0.44864 0.17499
 C921 C 0.14905 0.44572 0.17815
 C922 C 0.13122 0.43560 0.15223
 C923 C 0.14710 0.42629 0.12432
 C924 C 0.18071 0.42708 0.12255
 C925 C 0.12870 0.41642 0.09900
 N926 N 0.09659 0.41585 0.10172
 N927 N 0.08167 0.42454 0.12797
 C928 C 0.09784 0.43443 0.15328
 H929 H 0.22342 0.44025 0.14651
 H930 H 0.19600 0.45649 0.19457
 H931 H 0.13952 0.40955 0.07696
 H932 H 0.08446 0.44164 0.17381
 C933 C -0.14581 0.30156 0.42712
 C934 C -0.17248 0.31935 0.43399
 C935 C -0.17123 0.34326 0.45593
 C936 C -0.14252 0.34866 0.47203
 C937 C -0.11544 0.33004 0.46544
 C938 C -0.11691 0.30693 0.44204
 C939 C -0.08772 0.33520 0.48263
 N940 N -0.08688 0.35831 0.50394
 N941 N -0.11186 0.37654 0.50925
 C942 C -0.13957 0.37261 0.49397
 H943 H -0.14747 0.28417 0.40905
 H944 H -0.19423 0.31481 0.42156
 H945 H -0.06682 0.32093 0.47952
 H946 H -0.15888 0.38836 0.49907
 C947 C 0.37789 0.83646 0.90647
 C948 C 0.34985 0.85310 0.91052
 C949 C 0.32495 0.84163 0.92998
 C950 C 0.32876 0.81177 0.94496
 C951 C 0.35788 0.79539 0.94150
 C952 C 0.38227 0.80758 0.92153
 C953 C 0.36152 0.76683 0.95780
 N954 N 0.33684 0.75437 0.97453
 N955 N 0.30876 0.76847 0.97588
 C956 C 0.30375 0.79640 0.96141
 H957 H 0.39612 0.84593 0.89077
 H958 H 0.34815 0.87572 0.89893
 H959 H 0.38373 0.75423 0.95730
 H960 H 0.28000 0.80577 0.96230
 C961 C 1.14024 0.81083 0.04666
 C962 C 1.16697 0.82749 0.03641
 C963 C 1.17524 0.85603 0.05001
 C964 C 1.15414 0.86881 0.07304
 C965 C 1.12735 0.85133 0.08395
 C966 C 1.12049 0.82213 0.07057
 C967 C 1.10822 0.86374 0.10810
 N968 N 1.11414 0.89267 0.11885
 N969 N 1.13784 0.91002 0.10709
 C970 C 1.15776 0.89928 0.08442
 H971 H 1.13523 0.78852 0.03624
 H972 H 1.18226 0.81686 0.01894
 H973 H 1.08849 0.85088 0.11845
 H974 H 1.17574 0.91501 0.07510
 C975 C 0.63167 0.30616 0.56251
 C976 C 0.65894 0.32299 0.55442
 C977 C 0.66144 0.35469 0.56133
 C978 C 0.63508 0.37007 0.57520
 C979 C 0.60759 0.35275 0.58428
 C980 C 0.60606 0.32041 0.57793
 C981 C 0.58302 0.36836 0.60032
 N982 N 0.58522 0.39943 0.60516
 N983 N 0.61037 0.41591 0.59531
 C984 C 0.63532 0.40233 0.58047
 H985 H 0.63091 0.28150 0.55754
 H986 H 0.67882 0.31081 0.54386
 H987 H 0.56217 0.35629 0.60924
 H988 H 0.65496 0.41692 0.57271
 C989 C 0.36025 0.20365 0.56027
 C990 C 0.33253 0.19007 0.54964
 C991 C 0.33339 0.16156 0.53418
 C992 C 0.36299 0.14722 0.52788
 C993 C 0.39131 0.16103 0.53880
 C994 C 0.38966 0.18910 0.55581
 C995 C 0.42018 0.14549 0.53348
 N996 N 0.42051 0.11819 0.51787
 N997 N 0.39393 0.10529 0.50753
 C998 C 0.36518 0.11878 0.51212
 H999 H 0.35861 0.22501 0.57342
 H1000 H 0.31000 0.20117 0.55480
 H1001 H 0.44244 0.15470 0.54159
 H1002 H 0.34435 0.10715 0.50346
 C1003 C 0.88369 0.68820 0.04629
 C1004 C 0.85413 0.67586 0.03883
 C1005 C 0.82817 0.67761 0.06004
 C1006 C 0.83154 0.69580 0.08755
 C1007 C 0.86163 0.70834 0.09499
 C1008 C 0.88812 0.70317 0.07484
 C1009 C 0.86414 0.72639 0.12220
 N1010 N 0.83807 0.73196 0.14029
 N1011 N 0.80964 0.72099 0.13287
 C1012 C 0.80542 0.70344 0.10706
 H1013 H 0.90365 0.68458 0.03041
 H1014 H 0.85245 0.66262 0.01745
 H1015 H 0.88639 0.73676 0.12889
 H1016 H 0.78151 0.69640 0.10164
 C1017 C 0.64105 0.70059 0.91346
 C1018 C 0.67016 0.68825 0.92232
 C1019 C 0.67185 0.66424 0.94501
 C1020 C 0.64343 0.65289 0.95953
 C1021 C 0.61375 0.66572 0.95063
 C1022 C 0.61269 0.68944 0.92709
 C1023 C 0.58595 0.65354 0.96486
 N1024 N 0.58787 0.63005 0.98652
 N1025 N 0.61564 0.61778 0.99465
 C1026 C 0.64342 0.62824 0.98182
 H1027 H 0.64055 0.71852 0.89518
 H1028 H 0.69160 0.69713 0.91093
 H1029 H 0.56274 0.66238 0.95891
 H1030 H 0.66511 0.61693 0.98896
 C1031 C 0.11148 0.14886 0.41920
 C1032 C 0.14160 0.13679 0.42459
 C1033 C 0.16799 0.15651 0.42606
 C1034 C 0.16404 0.18908 0.42207
 C1035 C 0.13343 0.20140 0.41619
 C1036 C 0.10693 0.18099 0.41496
 C1037 C 0.13069 0.23372 0.41058
 N1038 N 0.15674 0.25226 0.41166
 N1039 N 0.18537 0.24069 0.41763
 C1040 C 0.18994 0.20977 0.42275
 H1041 H 0.09156 0.13296 0.41786
 H1042 H 0.14441 0.11180 0.42744
 H1043 H 0.10827 0.24448 0.40500
 H1044 H 0.21381 0.20165 0.42702
 C1045 C 0.58356 0.13555 0.71436
 C1046 C 0.59905 0.11163 0.73039
 C1047 C 0.58208 0.08600 0.74269
 C1048 C 0.54868 0.08478 0.73939
 C1049 C 0.53289 0.10920 0.72311
 C1050 C 0.55064 0.13464 0.71045
 C1051 C 0.49983 0.10706 0.71966
 N1052 N 0.48375 0.08231 0.73228
 N1053 N 0.49852 0.05961 0.74801
 C1054 C 0.53039 0.06000 0.75203
 H1055 H 0.59737 0.15492 0.70477
 H1056 H 0.62460 0.11279 0.73269
 H1057 H 0.48663 0.12476 0.70705
 H1058 H 0.54108 0.04104 0.76518
 C1059 C 1.08546 0.64784 0.23520
 C1060 C 1.09803 0.62320 0.25269
 C1061 C 1.08453 0.59317 0.25198
 C1062 C 1.05580 0.58909 0.23506
 C1063 C 1.04341 0.61421 0.21684
 C1064 C 1.05889 0.64351 0.21648
 C1065 C 1.01506 0.60954 0.20044
 N1066 N 0.99965 0.58186 0.20296
 N1067 N 1.01042 0.55871 0.22107
 C1068 C 1.03760 0.56148 0.23746
 H1069 H 1.09722 0.67030 0.23547
 H1070 H 1.11969 0.62741 0.26536
 H1071 H 1.00458 0.62781 0.18620
 H1072 H 1.04406 0.54236 0.25293
 C1073 C 0.91827 0.85427 0.21847
 C1074 C 0.90206 0.87794 0.23373
 C1075 C 0.91530 0.90778 0.23600
 C1076 C 0.94611 0.91345 0.22304
 C1077 C 0.96189 0.88979 0.20585
 C1078 C 0.94800 0.85967 0.20407
 C1079 C 0.99074 0.89748 0.19043
 N1080 N 1.00404 0.92591 0.19430
 N1081 N 0.99035 0.94729 0.21227
 C1082 C 0.96197 0.94201 0.22686
 H1083 H 0.90724 0.83148 0.21757
 H1084 H 0.87860 0.87298 0.24338
 H1085 H 1.00278 0.88141 0.17510
 H1086 H 0.95227 0.96010 0.24149
 C1087 C 0.40584 0.34228 0.72847
 C1088 C 0.39107 0.36529 0.74606
 C1089 C 0.40613 0.39389 0.75098
 C1090 C 0.43723 0.39893 0.73856
 C1091 C 0.45173 0.37600 0.71948
 C1092 C 0.43597 0.34721 0.71481
 C1093 C 0.48128 0.38312 0.70515
 N1094 N 0.49613 0.41031 0.71143
 N1095 N 0.48336 0.43098 0.73084
 C1096 C 0.45453 0.42620 0.74468
 H1097 H 0.39347 0.32044 0.72524
 H1098 H 0.36733 0.36099 0.75531
 H1099 H 0.49267 0.36757 0.68879
 H1100 H 0.44556 0.44367 0.76049
 C1101 C 0.43573 0.62229 0.76686
 C1102 C 0.41991 0.59768 0.75302
 C1103 C 0.39214 0.58520 0.76677
 C1104 C 0.37939 0.59856 0.79442
 C1105 C 0.39533 0.62385 0.80837
 C1106 C 0.42418 0.63523 0.79478
 C1107 C 0.38136 0.63736 0.83514
 N1108 N 0.35369 0.62582 0.84726
 N1109 N 0.33892 0.60190 0.83430
 C1110 C 0.35073 0.58796 0.80827
 H1111 H 0.45760 0.63085 0.75606
 H1112 H 0.42980 0.58780 0.73174
 H1113 H 0.39184 0.65725 0.84630
 H1114 H 0.33740 0.56900 0.79846
 C1115 C -0.07139 0.13929 0.25808
 C1116 C -0.08367 0.11474 0.24105
 C1117 C -0.11148 0.09941 0.25112
 C1118 C -0.12825 0.11020 0.27793
 C1119 C -0.11588 0.13538 0.29515
 C1120 C -0.08665 0.14933 0.28560
 C1121 C -0.13355 0.14607 0.32115
 N1122 N -0.16141 0.13208 0.32944
 N1123 N -0.17289 0.10831 0.31339
 C1124 C -0.15735 0.09696 0.28789
 H1125 H -0.04911 0.14975 0.25037
 H1126 H -0.07073 0.10688 0.22045
 H1127 H -0.12577 0.16568 0.33467
 H1128 H -0.16811 0.07800 0.27544
 C1129 C 0.04974 0.36108 0.26910
 C1130 C 0.06653 0.38570 0.25501
 C1131 C 0.09009 0.40153 0.27139
 C1132 C 0.09678 0.39221 0.30281
 C1133 C 0.07878 0.36793 0.31758
 C1134 C 0.05567 0.35169 0.30018
 C1135 C 0.08433 0.36101 0.34954
 N1136 N 0.10772 0.37596 0.36483
 N1137 N 0.12582 0.39748 0.35042
 C1138 C 0.12126 0.40601 0.31997
 H1139 H 0.03218 0.34898 0.25547
 H1140 H 0.06098 0.39258 0.23106
 H1141 H 0.07018 0.34409 0.36265
 H1142 H 0.13702 0.42331 0.30948
 C1143 C 0.58317 0.85555 0.79111
 C1144 C 0.59863 0.88122 0.77743
 C1145 C 0.58588 0.89674 0.75130
 C1146 C 0.55682 0.88625 0.73878
 C1147 C 0.54124 0.85990 0.75252
 C1148 C 0.55443 0.84473 0.77916
 C1149 C 0.51305 0.84942 0.73884
 N1150 N 0.50086 0.86504 0.71379
 N1151 N 0.51497 0.89034 0.70148
 C1152 C 0.54244 0.90151 0.71314
 H1153 H 0.59350 0.84428 0.81154
 H1154 H 0.62080 0.88902 0.78725
 H1155 H 0.50069 0.82889 0.74766
 H1156 H 0.55260 0.92231 0.70240
 C1157 C 0.72818 0.59841 0.15205
 C1158 C 0.74376 0.61505 0.12802
 C1159 C 0.74762 0.60257 0.09778
 C1160 C 0.73776 0.57116 0.09298
 C1161 C 0.72155 0.55443 0.11751
 C1162 C 0.71608 0.56862 0.14693
 C1163 C 0.71238 0.52341 0.11222
 N1164 N 0.71971 0.50986 0.08451
 N1165 N 0.73594 0.52503 0.06192
 C1166 C 0.74555 0.55493 0.06532
 H1167 H 0.72456 0.60934 0.17461
 H1168 H 0.75114 0.63869 0.13275
 H1169 H 0.70015 0.50951 0.13007
 H1170 H 0.76004 0.56523 0.04671
 C1171 C 0.21401 1.06182 0.60430
 C1172 C 0.22982 1.07596 0.57886
 C1173 C 0.23823 1.10755 0.57944
 C1174 C 0.23006 1.12538 0.60617
 C1175 C 0.21429 1.11081 0.63225
 C1176 C 0.20635 1.07880 0.63115
 C1177 C 0.20631 1.12903 0.65837
 N1178 N 0.21349 1.15985 0.65812
 N1179 N 0.22790 1.17365 0.63348
 C1180 C 0.23628 1.15756 0.60747
 H1181 H 0.20779 1.03736 0.60313
 H1182 H 0.23579 1.06206 0.55858
 H1183 H 0.19424 1.11914 0.67887
 H1184 H 0.24732 1.17020 0.58799
 C1185 C 0.19736 0.92473 0.85596
 C1186 C 0.21202 0.90948 0.88093
 C1187 C 0.24413 0.91464 0.88720
 C1188 C 0.26181 0.93578 0.86770
 C1189 C 0.24704 0.95066 0.84163
 C1190 C 0.21433 0.94547 0.83616
 C1191 C 0.26576 0.96994 0.82165
 N1192 N 0.29662 0.97525 0.82842
 N1193 N 0.31006 0.96249 0.85370
 C1194 C 0.29373 0.94307 0.87360
 H1195 H 0.17234 0.92050 0.85224
 H1196 H 0.19814 0.89341 0.89552
 H1197 H 0.25630 0.98067 0.80061
 H1198 H 0.30585 0.93377 0.89391
 C1199 C 0.70036 0.41994 0.37631
 C1200 C 0.71422 0.40624 0.40261
 C1201 C 0.74564 0.41300 0.41041
 C1202 C 0.76335 0.43440 0.39122
 C1203 C 0.74956 0.44753 0.36372
 C1204 C 0.71753 0.44062 0.35658
 C1205 C 0.76861 0.46679 0.34402
 N1206 N 0.79864 0.47391 0.35242
 N1207 N 0.81098 0.46295 0.37905
 C1208 C 0.79437 0.44357 0.39877
 H1209 H 0.67584 0.41445 0.37139
 H1210 H 0.70031 0.38993 0.41689
 H1211 H 0.76009 0.47608 0.32192
 H1212 H 0.80553 0.43579 0.42023
 C1213 C 0.79548 0.41089 0.64416
 C1214 C 0.77970 0.39697 0.61953
 C1215 C 0.75362 0.41156 0.60563
 C1216 C 0.74322 0.44082 0.61673
 C1217 C 0.75941 0.45511 0.64172
 C1218 C 0.78573 0.43985 0.65555
 C1219 C 0.74932 0.48480 0.65120
 N1220 N 0.72439 0.49876 0.63692
 N1221 N 0.70909 0.48524 0.61361
 C1222 C 0.71772 0.45686 0.60293
 H1223 H 0.81576 0.39910 0.65426
 H1224 H 0.78798 0.37468 0.61111
 H1225 H 0.76114 0.49724 0.66955
 H1226 H 0.70480 0.44733 0.58354
 C1227 C 0.27608 -0.05857 0.12907
 C1228 C 0.25866 -0.07340 0.10616
 C1229 C 0.27373 -0.08847 0.08101
 C1230 C 0.30751 -0.08767 0.07901
 C1231 C 0.32481 -0.06879 0.09986
 C1232 C 0.30927 -0.05592 0.12659
 C1233 C 0.35716 -0.06338 0.09290
 N1234 N 0.37200 -0.07964 0.06995
 N1235 N 0.35657 -0.10057 0.05321
 C1236 C 0.32495 -0.10540 0.05720
 H1237 H 0.26324 -0.04938 0.14909
 H1238 H 0.23303 -0.07314 0.10840
 H1239 H 0.37076 -0.04633 0.10539
 H1240 H 0.31389 -0.12319 0.04341
 C1241 C 0.30371 0.08741 0.34932
 C1242 C 0.28841 0.10352 0.37328
 C1243 C 0.25876 0.09369 0.38507
 C1244 C 0.24414 0.06704 0.37222
 C1245 C 0.25945 0.05103 0.34733
 C1246 C 0.28983 0.06097 0.33633
 C1247 C 0.24363 0.02562 0.33410
 N1248 N 0.21514 0.01612 0.34607
 N1249 N 0.20139 0.03033 0.37028
 C1250 C 0.21492 0.05534 0.38383
 H1251 H 0.32696 0.09526 0.34129
 H1252 H 0.29988 0.12382 0.38283
 H1253 H 0.25349 0.01335 0.31424
 H1254 H 0.20275 0.06561 0.40364
 C1255 C 0.76838 0.56727 0.86762
 C1256 C 0.75280 0.58421 0.89081
 C1257 C 0.76851 0.60776 0.90696
 C1258 C 0.80083 0.61425 0.89941
 C1259 C 0.81714 0.59590 0.87693
 C1260 C 0.80040 0.57287 0.86015
 C1261 C 0.84992 0.60104 0.87231
 N1262 N 0.86459 0.62451 0.88734
 N1263 N 0.84880 0.64306 0.90682
 C1264 C 0.81745 0.63886 0.91325
 H1265 H 0.75517 0.54983 0.85511
 H1266 H 0.72820 0.57874 0.89632
 H1267 H 0.86415 0.58650 0.85716
 H1268 H 0.80588 0.65500 0.92889
 C1269 C 0.13611 0.73560 0.56783
 C1270 C 0.11226 0.75276 0.58249
 C1271 C 0.09985 0.74328 0.61186
 C1272 C 0.11262 0.71687 0.62748
 C1273 C 0.13711 0.69958 0.61275
 C1274 C 0.14819 0.70858 0.58221
 C1275 C 0.14994 0.67399 0.62934
 N1276 N 0.13838 0.66607 0.65836
 N1277 N 0.11503 0.68208 0.67197
 C1278 C 0.10178 0.70721 0.65757
 H1279 H 0.14443 0.74286 0.54458
 H1280 H 0.10270 0.77304 0.57042
 H1281 H 0.16928 0.66045 0.61974
 H1282 H 0.08313 0.71956 0.66987
 C1283 C 0.64110 0.23673 1.05531
 C1284 C 0.61798 0.25236 1.07267
 C1285 C 0.60746 0.24064 1.10199
 C1286 C 0.62169 0.21345 1.11480
 C1287 C 0.64539 0.19765 1.09725
 C1288 C 0.65442 0.20898 1.06683
 C1289 C 0.65968 0.17123 1.11107
 N1290 N 0.65037 0.16122 1.14022
 N1291 N 0.62796 0.17594 1.15659
 C1292 C 0.61339 0.20173 1.14496
 H1293 H 0.64795 0.24583 1.03224
 H1294 H 0.60742 0.27324 1.06267
 H1295 H 0.67847 0.15869 1.09923
 H1296 H 0.59580 0.21304 1.15958
 C1297 C 0.86784 0.23355 0.93598
 C1298 C 0.89207 0.25050 0.92094
 C1299 C 0.91128 0.23693 0.89774
 C1300 C 0.90584 0.20545 0.88957
 C1301 C 0.88189 0.18787 0.90571
 C1302 C 0.86218 0.20238 0.92852
 C1303 C 0.87875 0.15610 0.89862
 N1304 N 0.89698 0.14350 0.87560
 N1305 N 0.91823 0.16043 0.85928
 C1306 C 0.92318 0.19094 0.86535
 H1307 H 0.85303 0.24504 0.95330
 H1308 H 0.89592 0.27447 0.92752
 H1309 H 0.86220 0.14105 0.91130
 H1310 H 0.94045 0.20352 0.85097
 C1311 C 0.36753 0.72023 0.46266
 C1312 C 0.39197 0.73664 0.44737
 C1313 C 0.40830 0.72393 0.42165
 C1314 C 0.40018 0.69354 0.41164
 C1315 C 0.37617 0.67637 0.42809
 C1316 C 0.35886 0.69042 0.45295
 C1317 C 0.37024 0.64553 0.41902
 N1318 N 0.38588 0.63356 0.39391
 N1319 N 0.40705 0.65030 0.37729
 C1320 C 0.41458 0.67986 0.38511
 H1321 H 0.35461 0.73129 0.48164
 H1322 H 0.39781 0.75979 0.45529
 H1323 H 0.35351 0.63073 0.43176
 H1324 H 0.43149 0.69230 0.37025
 C1325 C 0.62517 0.78008 0.44432
 C1326 C 0.60054 0.76399 0.43041
 C1327 C 0.60192 0.75666 0.39841
 C1328 C 0.62893 0.76577 0.38008
 C1329 C 0.65420 0.78193 0.39439
 C1330 C 0.65208 0.78918 0.42674
 C1331 C 0.68039 0.79117 0.37554
 N1332 N 0.68107 0.78463 0.34444
 N1333 N 0.65725 0.76974 0.33092
 C1334 C 0.63118 0.76024 0.34759
 H1335 H 0.62314 0.78573 0.46902
 H1336 H 0.58010 0.75724 0.44475
 H1337 H 0.70021 0.80368 0.38514
 H1338 H 0.61237 0.74884 0.33516
 C1339 C 0.12801 0.27894 -0.04710
 C1340 C 0.10431 0.26627 -0.06545
 C1341 C 0.10680 0.26716 -0.09835
 C1342 C 0.13356 0.28159 -0.11307
 C1343 C 0.15779 0.29442 -0.09438
 C1344 C 0.15497 0.29280 -0.06109
 C1345 C 0.18362 0.30931 -0.10977
 N1346 N 0.18501 0.31092 -0.14166
 N1347 N 0.16222 0.29895 -0.15917
 C1348 C 0.13651 0.28450 -0.14599
 H1349 H 0.12536 0.27786 -0.02170
 H1350 H 0.08390 0.25545 -0.05388
 H1351 H 0.20254 0.31997 -0.09685
 H1352 H 0.11840 0.27592 -0.16135
 C1353 C 0.37551 0.29351 0.10436
 C1354 C 0.40150 0.27929 0.11836
 C1355 C 0.41068 0.24904 0.11039
 C1356 C 0.39286 0.23273 0.08780
 C1357 C 0.36553 0.24680 0.07446
 C1358 C 0.35736 0.27786 0.08219
 C1359 C 0.34711 0.22905 0.05401
 N1360 N 0.35665 0.20010 0.04590
 N1361 N 0.38325 0.18763 0.05695
 C1362 C 0.40173 0.20296 0.07745
 H1363 H 0.36982 0.31725 0.11057
 H1364 H 0.41474 0.29216 0.13552
 H1365 H 0.32509 0.23774 0.04458
 H1366 H 0.42326 0.19176 0.08516
 C1367 C 0.86312 0.77244 0.55952
 C1368 C 0.88665 0.75702 0.57633
 C1369 C 0.90286 0.77186 0.60046
 C1370 C 0.89498 0.80311 0.60771
 C1371 C 0.87209 0.81932 0.58952
 C1372 C 0.85534 0.80345 0.56582
 C1373 C 0.86712 0.85113 0.59547
 N1374 N 0.88221 0.86491 0.61950
 N1375 N 0.90208 0.84914 0.63787
 C1376 C 0.90886 0.81874 0.63292
 H1377 H 0.85065 0.75990 0.54155
 H1378 H 0.89239 0.73324 0.57029
 H1379 H 0.85165 0.86531 0.58112
 H1380 H 0.92482 0.80711 0.64893
   
