data_POSCAR
  _audit_creation_date              2014-09-24
  _audit_creation_method            'ToBaCCo'
  _symmetry_space_group_name_H-M    'P1'
  _symmetry_Int_Tables_number       1
  _symmetry_cell_setting            triclinic
  loop_
  _symmetry_equiv_pos_as_xyz
 x,y,z
_cell_length_a 75.0619
_cell_length_b 72.6630
_cell_length_c 77.5207
_cell_angle_alpha 89.624300
_cell_angle_beta 89.789400
_cell_angle_gamma 89.892600
loop_
  _atom_site_label
  _atom_site_type_symbol
  _atom_site_fract_x
  _atom_site_fract_y
  _atom_site_fract_z
N1 N 0.37777 0.32364 0.33581
 N2 N 0.37929 0.33731 0.32474
 C3 C 0.39166 0.33290 0.31279
 C4 C 0.39817 0.31544 0.31658
 C5 C 0.38905 0.31010 0.33134
 H6 H 0.39509 0.34145 0.30181
 H7 H 0.39031 0.29720 0.33824
 Cu8 Cu 0.36390 0.35883 0.32632
 Cu9 Cu 0.36077 0.32382 0.35481
 Cu10 Cu 0.33422 0.36259 0.35863
 N11 N 0.34373 0.37569 0.32483
 N12 N 0.33224 0.37710 0.33758
 C13 C 0.31939 0.38911 0.33316
 C14 C 0.32285 0.39552 0.31662
 C15 C 0.33851 0.38676 0.31177
 H16 H 0.30819 0.39260 0.34132
 H17 H 0.34527 0.38782 0.29946
 N18 N 0.33304 0.34176 0.37489
 N19 N 0.34286 0.32682 0.37322
 C20 C 0.33766 0.31433 0.38508
 C21 C 0.32373 0.32165 0.39466
 C22 C 0.32127 0.33916 0.38783
 H23 H 0.34317 0.30064 0.38617
 H24 H 0.31099 0.34892 0.39125
 H25 H 0.34254 0.34137 0.34330
 H26 H 0.36007 0.35162 0.35724
 N27 N 0.38173 0.83233 -0.15800
 N28 N 0.37939 0.84468 -0.17022
 C29 C 0.38991 0.84052 -0.18374
 C30 C 0.39948 0.82462 -0.17981
 C31 C 0.39396 0.82000 -0.16319
 H32 H 0.39014 0.84838 -0.19563
 H33 H 0.39786 0.80817 -0.15556
 Cu34 Cu 0.36216 0.86445 -0.16761
 Cu35 Cu 0.36773 0.83247 -0.13685
 Cu36 Cu 0.32851 0.85772 -0.13962
 N37 N 0.34044 0.87887 -0.16890
 N38 N 0.32714 0.87586 -0.15821
 C39 C 0.31327 0.88653 -0.16280
 C40 C 0.31804 0.89685 -0.17728
 C41 C 0.33554 0.89159 -0.18065
 H42 H 0.30058 0.88643 -0.15618
 H43 H 0.34394 0.89597 -0.19125
 N44 N 0.33277 0.83883 -0.12170
 N45 N 0.34777 0.82940 -0.12058
 C46 C 0.34616 0.81664 -0.10802
 C47 C 0.32933 0.81812 -0.10080
 C48 C 0.32127 0.83242 -0.10974
 H49 H 0.35625 0.80654 -0.10486
 H50 H 0.30767 0.83708 -0.10828
 H51 H 0.34663 0.84052 -0.15170
 H52 H 0.35548 0.85842 -0.13694
 N53 N 0.88348 0.32359 -0.16092
 N54 N 0.88641 0.33883 -0.16968
 C55 C 0.90076 0.33649 -0.17989
 C56 C 0.90721 0.31880 -0.17733
 C57 C 0.89596 0.31108 -0.16510
 H58 H 0.90554 0.34657 -0.18912
 H59 H 0.89602 0.29698 -0.16056
 Cu60 Cu 0.86974 0.35923 -0.16880
 Cu61 Cu 0.86215 0.32012 -0.14699
 Cu62 Cu 0.83394 0.35763 -0.14279
 N63 N 0.84925 0.37500 -0.17266
 N64 N 0.83507 0.37422 -0.16272
 C65 C 0.82267 0.38593 -0.16889
 C66 C 0.82943 0.39452 -0.18364
 C67 C 0.84644 0.38719 -0.18547
 H68 H 0.80968 0.38775 -0.16308
 H69 H 0.85597 0.38989 -0.19566
 N70 N 0.83169 0.33518 -0.12847
 N71 N 0.84237 0.32087 -0.13028
 C72 C 0.83723 0.30750 -0.11931
 C73 C 0.82245 0.31350 -0.11019
 C74 C 0.81936 0.33121 -0.11632
 H75 H 0.84377 0.29430 -0.11813
 H76 H 0.80862 0.34033 -0.11265
 H77 H 0.84565 0.33959 -0.15870
 H78 H 0.86006 0.34734 -0.14060
 N79 N 0.87389 0.81774 0.34601
 N80 N 0.87257 0.82913 0.33283
 C81 C 0.88430 0.82391 0.32052
 C82 C 0.89323 0.80833 0.32635
 C83 C 0.88632 0.80497 0.34259
 H84 H 0.88556 0.83030 0.30794
 H85 H 0.88960 0.79360 0.35106
 Cu86 Cu 0.85445 0.84851 0.33270
 Cu87 Cu 0.85785 0.81825 0.36563
 Cu88 Cu 0.82470 0.85124 0.36542
 N89 N 0.83526 0.86677 0.33270
 N90 N 0.82419 0.86806 0.34580
 C91 C 0.81222 0.88140 0.34256
 C92 C 0.81569 0.88891 0.32637
 C93 C 0.83053 0.87918 0.32054
 H94 H 0.80133 0.88473 0.35113
 H95 H 0.83731 0.88082 0.30831
 N96 N 0.82738 0.83294 0.38411
 N97 N 0.84032 0.82066 0.38431
 C98 C 0.83762 0.80888 0.39750
 C99 C 0.82208 0.81376 0.40601
 C100 C 0.81604 0.82922 0.39720
 H101 H 0.84578 0.79692 0.40000
 H102 H 0.80364 0.83643 0.39936
 H103 H 0.83653 0.82975 0.35234
 H104 H 0.85152 0.84596 0.36400
 N105 N 0.62361 0.67176 0.34100
 N106 N 0.62445 0.65809 0.33004
 C107 C 0.61219 0.66069 0.31763
 C108 C 0.60312 0.67692 0.32102
 C109 C 0.61072 0.68350 0.33602
 H110 H 0.61051 0.65177 0.30665
 H111 H 0.60789 0.69646 0.34224
 Cu112 Cu 0.64271 0.63934 0.33214
 Cu113 Cu 0.64089 0.67469 0.35945
 Cu114 Cu 0.67736 0.64522 0.35897
 N115 N 0.66439 0.62515 0.32970
 N116 N 0.67795 0.62725 0.34019
 C117 C 0.69148 0.61642 0.33484
 C118 C 0.68611 0.60724 0.32009
 C119 C 0.66881 0.61312 0.31731
 H120 H 0.70450 0.61594 0.34073
 H121 H 0.66015 0.60930 0.30681
 N122 N 0.67390 0.66448 0.37672
 N123 N 0.65989 0.67550 0.37682
 C124 C 0.66175 0.68789 0.38948
 C125 C 0.67773 0.68470 0.39779
 C126 C 0.68504 0.66962 0.38944
 H127 H 0.65239 0.69883 0.39212
 H128 H 0.69793 0.66349 0.39187
 H129 H 0.66123 0.66273 0.34513
 H130 H 0.65020 0.64773 0.36165
 N131 N 0.62152 0.16970 -0.16727
 N132 N 0.62159 0.15413 -0.17576
 C133 C 0.60855 0.15448 -0.18763
 C134 C 0.59977 0.17126 -0.18659
 C135 C 0.60840 0.18050 -0.17341
 H136 H 0.60627 0.14362 -0.19681
 H137 H 0.60588 0.19434 -0.16901
 Cu138 Cu 0.63987 0.13572 -0.17186
 Cu139 Cu 0.63949 0.17542 -0.15004
 Cu140 Cu 0.67592 0.14617 -0.14819
 N141 N 0.66176 0.12172 -0.17370
 N142 N 0.67601 0.12603 -0.16483
 C143 C 0.68962 0.11517 -0.16987
 C144 C 0.68357 0.10337 -0.18267
 C145 C 0.66570 0.10798 -0.18458
 H146 H 0.70297 0.11618 -0.16480
 H147 H 0.65635 0.10251 -0.19377
 N148 N 0.67294 0.16745 -0.13263
 N149 N 0.65912 0.17867 -0.13354
 C150 C 0.66117 0.19224 -0.12200
 C151 C 0.67702 0.18946 -0.11331
 C152 C 0.68410 0.17355 -0.12035
 H153 H 0.65185 0.20341 -0.12011
 H154 H 0.69673 0.16724 -0.11714
 H155 H 0.65883 0.16107 -0.16358
 H156 H 0.64876 0.14902 -0.14448
 N157 N 0.12153 0.67460 -0.15613
 N158 N 0.12164 0.66087 -0.16707
 C159 C 0.10835 0.66327 -0.17849
 C160 C 0.09939 0.67941 -0.17447
 C161 C 0.10814 0.68615 -0.16014
 H162 H 0.10584 0.65424 -0.18923
 H163 H 0.10565 0.69905 -0.15369
 Cu164 Cu 0.14006 0.64209 -0.16625
 Cu165 Cu 0.13992 0.67773 -0.13878
 Cu166 Cu 0.17578 0.64782 -0.14077
 N167 N 0.16161 0.62763 -0.16938
 N168 N 0.17545 0.62984 -0.15929
 C169 C 0.18881 0.61897 -0.16476
 C170 C 0.18310 0.60941 -0.17914
 C171 C 0.16569 0.61526 -0.18164
 H172 H 0.20184 0.61843 -0.15891
 H173 H 0.15685 0.61142 -0.19198
 N174 N 0.17353 0.66708 -0.12312
 N175 N 0.15994 0.67859 -0.12247
 C176 C 0.16302 0.69117 -0.11017
 C177 C 0.17936 0.68744 -0.10271
 C178 C 0.18559 0.67198 -0.11119
 H179 H 0.15428 0.70257 -0.10725
 H180 H 0.19842 0.66546 -0.10949
 H181 H 0.15917 0.66554 -0.15408
 H182 H 0.14863 0.65075 -0.13706
 N183 N 0.12367 0.17253 0.33800
 N184 N 0.12398 0.15767 0.32843
 C185 C 0.11169 0.15917 0.31597
 C186 C 0.10310 0.17593 0.31768
 C187 C 0.11095 0.18400 0.33197
 H188 H 0.10962 0.14900 0.30606
 H189 H 0.10830 0.19758 0.33702
 Cu190 Cu 0.14150 0.13836 0.33167
 Cu191 Cu 0.14100 0.17596 0.35659
 Cu192 Cu 0.18003 0.15168 0.34883
 N193 N 0.16286 0.12363 0.32913
 N194 N 0.17803 0.12904 0.33576
 C195 C 0.19114 0.11785 0.33031
 C196 C 0.18383 0.10476 0.31951
 C197 C 0.16577 0.10883 0.31917
 H198 H 0.20510 0.11992 0.33304
 H199 H 0.15564 0.10227 0.31149
 N200 N 0.17833 0.17184 0.36560
 N201 N 0.16352 0.18101 0.36886
 C202 C 0.16689 0.19367 0.38109
 C203 C 0.18471 0.19233 0.38573
 C204 C 0.19142 0.17825 0.37565
 H205 H 0.15714 0.20327 0.38604
 H206 H 0.20482 0.17282 0.37575
 H207 H 0.15804 0.16586 0.33919
 H208 H 0.15440 0.15047 0.35823
 N209 N 0.62000 0.32181 0.66130
 N210 N 0.62074 0.33340 0.67422
 C211 C 0.60721 0.32988 0.68520
 C212 C 0.59750 0.31524 0.67890
 C213 C 0.60603 0.31045 0.66368
 H214 H 0.60507 0.33685 0.69731
 H215 H 0.60255 0.29933 0.65515
 Cu216 Cu 0.64022 0.35082 0.67621
 Cu217 Cu 0.63783 0.32168 0.64290
 Cu218 Cu 0.67224 0.35339 0.64608
 N219 N 0.65971 0.36823 0.67818
 N220 N 0.67213 0.36928 0.66625
 C221 C 0.68444 0.38165 0.67105
 C222 C 0.67954 0.38875 0.68694
 C223 C 0.66371 0.37990 0.69102
 H224 H 0.69640 0.38471 0.66379
 H225 H 0.65587 0.38155 0.70262
 N226 N 0.67004 0.33608 0.62674
 N227 N 0.65713 0.32384 0.62562
 C228 C 0.66020 0.31310 0.61182
 C229 C 0.67581 0.31882 0.60386
 C230 C 0.68160 0.33347 0.61367
 H231 H 0.65195 0.30162 0.60814
 H232 H 0.69387 0.34103 0.61197
 H233 H 0.65857 0.33179 0.65741
 H234 H 0.64502 0.34895 0.64516
 N235 N 0.62697 0.81869 1.16351
 N236 N 0.62765 0.83164 1.17524
 C237 C 0.61576 0.82772 1.18783
 C238 C 0.60729 0.81135 1.18378
 C239 C 0.61475 0.80612 1.16822
 H240 H 0.61395 0.83577 1.19940
 H241 H 0.61177 0.79386 1.16096
 Cu242 Cu 0.64483 0.85168 1.17344
 Cu243 Cu 0.64279 0.81812 1.14363
 Cu244 Cu 0.67620 0.85063 1.14211
 N245 N 0.66546 0.86796 1.17375
 N246 N 0.67745 0.86757 1.16136
 C247 C 0.69062 0.87937 1.16507
 C248 C 0.68684 0.88765 1.18070
 C249 C 0.67066 0.88010 1.18581
 H250 H 0.70232 0.88140 1.15714
 H251 H 0.66356 0.88266 1.19772
 N252 N 0.67278 0.83224 1.12389
 N253 N 0.66008 0.81975 1.12454
 C254 C 0.66235 0.80794 1.11140
 C255 C 0.67728 0.81316 1.10204
 C256 C 0.68346 0.82873 1.11031
 H257 H 0.65420 0.79593 1.10929
 H258 H 0.69555 0.83618 1.10736
 H259 H 0.66333 0.83079 1.15672
 H260 H 0.64909 0.84579 1.14268
 N261 N 0.12399 0.32504 1.16708
 N262 N 0.12246 0.33928 1.17735
 C263 C 0.11008 0.33573 1.18947
 C264 C 0.10337 0.31827 1.18674
 C265 C 0.11245 0.31191 1.17231
 H266 H 0.10656 0.34505 1.19975
 H267 H 0.11126 0.29849 1.16648
 Cu268 Cu 0.13781 0.36049 1.17518
 Cu269 Cu 0.14161 0.32445 1.14836
 Cu270 Cu 0.16814 0.36346 1.14389
 N271 N 0.15798 0.37700 1.17707
 N272 N 0.16976 0.37835 1.16457
 C273 C 0.18247 0.39037 1.16914
 C274 C 0.17859 0.39675 1.18555
 C275 C 0.16287 0.38795 1.19015
 H276 H 0.19405 0.39355 1.16135
 H277 H 0.15563 0.38917 1.20217
 N278 N 0.16979 0.34223 1.12842
 N279 N 0.16016 0.32715 1.13023
 C280 C 0.16588 0.31464 1.11865
 C281 C 0.17990 0.32220 1.10929
 C282 C 0.18188 0.33973 1.11583
 H283 H 0.16083 0.30077 1.11766
 H284 H 0.19185 0.34975 1.11217
 H285 H 0.15954 0.34236 1.15953
 H286 H 0.14242 0.35210 1.14473
 N287 N 0.12264 0.82546 0.66479
 N288 N 0.12192 0.83885 0.67607
 C289 C 0.10893 0.83526 0.68761
 C290 C 0.10104 0.81866 0.68337
 C291 C 0.11012 0.81288 0.66876
 H292 H 0.10596 0.84377 0.69864
 H293 H 0.10805 0.80029 0.66169
 Cu294 Cu 0.13872 0.85911 0.67535
 Cu295 Cu 0.14051 0.82475 0.64646
 Cu296 Cu 0.17347 0.85798 0.64797
 N297 N 0.15905 0.87527 0.67819
 N298 N 0.17239 0.87506 0.66719
 C299 C 0.18492 0.88698 0.67240
 C300 C 0.17920 0.89507 0.68758
 C301 C 0.16267 0.88727 0.69087
 H302 H 0.19762 0.88894 0.66605
 H303 H 0.15406 0.88983 0.70180
 N304 N 0.17223 0.83935 0.62970
 N305 N 0.15980 0.82655 0.62916
 C306 C 0.16351 0.81498 0.61611
 C307 C 0.17910 0.82071 0.60809
 C308 C 0.18414 0.83628 0.61703
 H309 H 0.15594 0.80276 0.61324
 H310 H 0.19597 0.84443 0.61489
 H311 H 0.15921 0.83805 0.66130
 H312 H 0.14652 0.85242 0.64544
 N313 N 0.37144 0.68078 0.66236
 N314 N 0.37230 0.66709 0.67347
 C315 C 0.38458 0.67101 0.68552
 C316 C 0.39175 0.68817 0.68178
 C317 C 0.38310 0.69387 0.66693
 H318 H 0.38745 0.66239 0.69660
 H319 H 0.38477 0.70681 0.66017
 Cu320 Cu 0.35622 0.64626 0.67183
 Cu321 Cu 0.35413 0.68158 0.64377
 Cu322 Cu 0.32195 0.64754 0.64389
 N323 N 0.33631 0.62935 0.67384
 N324 N 0.32314 0.62967 0.66273
 C325 C 0.31079 0.61727 0.66762
 C326 C 0.31644 0.60878 0.68270
 C327 C 0.33275 0.61682 0.68624
 H328 H 0.29820 0.61530 0.66116
 H329 H 0.34121 0.61414 0.69723
 N330 N 0.32318 0.66705 0.62608
 N331 N 0.33545 0.68002 0.62612
 C332 C 0.33182 0.69230 0.61355
 C333 C 0.31644 0.68691 0.60521
 C334 C 0.31141 0.67074 0.61344
 H335 H 0.33941 0.70467 0.61112
 H336 H 0.29943 0.66292 0.61111
 H337 H 0.33531 0.66708 0.65796
 H338 H 0.34870 0.65369 0.64196
 N339 N 0.38048 0.17530 1.16235
 N340 N 0.38020 0.16104 1.17286
 C341 C 0.39253 0.16335 1.18521
 C342 C 0.40110 0.17995 1.18225
 C343 C 0.39313 0.18710 1.16756
 H344 H 0.39471 0.15388 1.19582
 H345 H 0.39563 0.20039 1.16169
 Cu346 Cu 0.36281 0.14160 1.17030
 Cu347 Cu 0.36303 0.17849 1.14396
 Cu348 Cu 0.32869 0.14665 1.14284
 N349 N 0.34189 0.12610 1.17191
 N350 N 0.32873 0.12788 1.16090
 C351 C 0.31554 0.11629 1.16544
 C352 C 0.32063 0.10682 1.18019
 C353 C 0.33749 0.11342 1.18391
 H354 H 0.30279 0.11560 1.15904
 H355 H 0.34578 0.10969 1.19477
 N356 N 0.33106 0.16687 1.12593
 N357 N 0.34397 0.17916 1.12648
 C358 C 0.34086 0.19222 1.11445
 C359 C 0.32521 0.18798 1.10593
 C360 C 0.31946 0.17175 1.11352
 H361 H 0.34903 0.20428 1.11247
 H362 H 0.30713 0.16464 1.11094
 H363 H 0.34344 0.16469 1.15755
 H364 H 0.35586 0.15131 1.14087
 N365 N 0.87952 0.67743 1.15691
 N366 N 0.87814 0.66505 1.16926
 C367 C 0.88950 0.66932 1.18203
 C368 C 0.89846 0.68531 1.17742
 C369 C 0.89181 0.68997 1.16132
 H370 H 0.89062 0.66174 1.19403
 H371 H 0.89534 0.70177 1.15347
 Cu372 Cu 0.86090 0.64518 1.16776
 Cu373 Cu 0.86475 0.67675 1.13639
 Cu374 Cu 0.82614 0.65093 1.14092
 N375 N 0.83944 0.63052 1.17012
 N376 N 0.82574 0.63308 1.15987
 C377 C 0.81232 0.62206 1.16503
 C378 C 0.81788 0.61205 1.17934
 C379 C 0.83523 0.61780 1.18214
 H380 H 0.79942 0.62156 1.15892
 H381 H 0.84392 0.61364 1.19256
 N382 N 0.82950 0.66961 1.12252
 N383 N 0.84434 0.67916 1.12075
 C384 C 0.84236 0.69141 1.10782
 C385 C 0.82545 0.68953 1.10102
 C386 C 0.81771 0.67548 1.11061
 H387 H 0.85235 0.70135 1.10401
 H388 H 0.80420 0.67049 1.10950
 H389 H 0.84427 0.66857 1.15217
 H390 H 0.85299 0.65059 1.13732
 N391 N 0.88120 0.18112 0.65239
 N392 N 0.88242 0.16913 0.66508
 C393 C 0.89421 0.17528 0.67672
 C394 C 0.90075 0.19209 0.67102
 C395 C 0.89221 0.19530 0.65546
 H396 H 0.89730 0.16830 0.68871
 H397 H 0.89367 0.20715 0.64706
 Cu398 Cu 0.86777 0.14717 0.66558
 Cu399 Cu 0.86509 0.17748 0.63312
 Cu400 Cu 0.83064 0.14677 0.64144
 N401 N 0.84851 0.13017 0.67039
 N402 N 0.83395 0.13009 0.66105
 C403 C 0.82240 0.11789 0.66790
 C404 C 0.83008 0.11002 0.68243
 C405 C 0.84671 0.11817 0.68356
 H406 H 0.80910 0.11553 0.66309
 H407 H 0.85660 0.11593 0.69346
 N408 N 0.83021 0.16472 0.62216
 N409 N 0.84350 0.17609 0.61890
 C410 C 0.83910 0.18708 0.60556
 C411 C 0.82214 0.18251 0.60004
 C412 C 0.81697 0.16819 0.61089
 H413 H 0.84742 0.19811 0.60077
 H414 H 0.80434 0.16109 0.61089
 H415 H 0.84709 0.16731 0.65061
 H416 H 0.85697 0.15003 0.63572
 N417 N 0.31987 0.37262 0.66101
 N418 N 0.33337 0.37341 0.67171
 C419 C 0.32985 0.38588 0.68400
 C420 C 0.31319 0.39339 0.68088
 C421 C 0.30729 0.38469 0.66609
 H422 H 0.33859 0.38881 0.69469
 H423 H 0.29444 0.38629 0.66001
 Cu424 Cu 0.35355 0.35695 0.66964
 Cu425 Cu 0.31891 0.35460 0.64244
 Cu426 Cu 0.35153 0.32073 0.64315
 N427 N 0.36959 0.33623 0.67223
 N428 N 0.36883 0.32204 0.66185
 C429 C 0.38061 0.30923 0.66717
 C430 C 0.38913 0.31570 0.68178
 C431 C 0.38177 0.33294 0.68455
 H432 H 0.38223 0.29587 0.66131
 H433 H 0.38467 0.34226 0.69497
 N434 N 0.33281 0.32200 0.62537
 N435 N 0.32046 0.33495 0.62501
 C436 C 0.30921 0.33156 0.61192
 C437 C 0.31466 0.31564 0.60367
 C438 C 0.32972 0.31002 0.61256
 H439 H 0.29747 0.33964 0.60907
 H440 H 0.33765 0.29789 0.61010
 H441 H 0.33277 0.33550 0.65694
 H442 H 0.34577 0.34850 0.64025
 N443 N 0.32769 0.87528 0.16057
 N444 N 0.33802 0.87260 0.17399
 C445 C 0.33290 0.88392 0.18674
 C446 C 0.31856 0.89434 0.18102
 C447 C 0.31575 0.88853 0.16424
 H448 H 0.33886 0.88409 0.19940
 H449 H 0.30530 0.89289 0.15556
 Cu450 Cu 0.35613 0.85349 0.17408
 Cu451 Cu 0.32977 0.86035 0.13989
 Cu452 Cu 0.35229 0.81904 0.14602
 N453 N 0.37374 0.83390 0.17312
 N454 N 0.37204 0.82024 0.16224
 C455 C 0.38437 0.80732 0.16580
 C456 C 0.39438 0.81316 0.17974
 C457 C 0.38726 0.83017 0.18395
 H458 H 0.38535 0.79429 0.15921
 H459 H 0.39078 0.83860 0.19485
 N460 N 0.33609 0.82362 0.12650
 N461 N 0.32780 0.83944 0.12402
 C462 C 0.31691 0.83793 0.11036
 C463 C 0.31846 0.82030 0.10384
 C464 C 0.33084 0.81167 0.11436
 H465 H 0.30803 0.84868 0.10592
 H466 H 0.33506 0.79745 0.11374
 H467 H 0.33431 0.83849 0.15575
 H468 H 0.35422 0.84652 0.14336
 N469 N 0.82058 0.36980 0.15820
 N470 N 0.83408 0.37158 0.16879
 C471 C 0.83026 0.38469 0.18042
 C472 C 0.81338 0.39153 0.17701
 C473 C 0.80767 0.38173 0.16275
 H474 H 0.83883 0.38831 0.19105
 H475 H 0.79492 0.38285 0.15639
 Cu476 Cu 0.85466 0.35551 0.16746
 Cu477 Cu 0.82033 0.35115 0.14013
 Cu478 Cu 0.85404 0.31849 0.14179
 N479 N 0.87125 0.33532 0.17072
 N480 N 0.87113 0.32091 0.16057
 C481 C 0.88323 0.30861 0.16629
 C482 C 0.89127 0.31564 0.18091
 C483 C 0.88331 0.33266 0.18329
 H484 H 0.88536 0.29518 0.16073
 H485 H 0.88573 0.34224 0.19363
 N486 N 0.83540 0.31861 0.12388
 N487 N 0.82262 0.33109 0.12315
 C488 C 0.81159 0.32696 0.11006
 C489 C 0.81763 0.31102 0.10223
 C490 C 0.83279 0.30618 0.11134
 H491 H 0.79960 0.33452 0.10694
 H492 H 0.84112 0.29426 0.10921
 H493 H 0.83473 0.33293 0.15515
 H494 H 0.84739 0.34595 0.13823
 N495 N 0.82839 0.87167 0.66261
 N496 N 0.84332 0.87300 0.67132
 C497 C 0.84147 0.88584 0.68359
 C498 C 0.82442 0.89306 0.68260
 C499 C 0.81652 0.88379 0.66903
 H500 H 0.85166 0.88925 0.69285
 H501 H 0.80292 0.88517 0.66465
 Cu502 Cu 0.86317 0.85658 0.66724
 Cu503 Cu 0.82529 0.85342 0.64439
 Cu504 Cu 0.86138 0.82442 0.63688
 N505 N 0.87874 0.83524 0.66801
 N506 N 0.87796 0.82258 0.65604
 C507 C 0.88936 0.80890 0.66000
 C508 C 0.89764 0.81312 0.67544
 C509 C 0.89058 0.83004 0.68009
 H510 H 0.89106 0.79660 0.65240
 H511 H 0.89321 0.83765 0.69174
 N512 N 0.83927 0.82349 0.62346
 N513 N 0.82531 0.83409 0.62644
 C514 C 0.81191 0.82882 0.61603
 C515 C 0.81772 0.81409 0.60617
 C516 C 0.83516 0.81122 0.61122
 H517 H 0.79870 0.83475 0.61612
 H518 H 0.84411 0.80060 0.60674
 H519 H 0.84325 0.83450 0.65424
 H520 H 0.85151 0.85146 0.63800
 N521 N 0.67165 0.61765 0.66136
 N522 N 0.65846 0.61433 0.67210
 C523 C 0.66316 0.60062 0.68292
 C524 C 0.68030 0.59503 0.67879
 C525 C 0.68523 0.60615 0.66497
 H526 H 0.65503 0.59581 0.69356
 H527 H 0.69788 0.60619 0.65826
 Cu528 Cu 0.63729 0.62958 0.67236
 Cu529 Cu 0.67055 0.63736 0.64418
 Cu530 Cu 0.63252 0.66474 0.64472
 N531 N 0.62087 0.64960 0.67705
 N532 N 0.61894 0.66333 0.66612
 C533 C 0.60720 0.67547 0.67264
 C534 C 0.60160 0.66911 0.68867
 C535 C 0.61058 0.65259 0.69100
 H536 H 0.60359 0.68831 0.66642
 H537 H 0.60993 0.64350 0.70208
 N538 N 0.65204 0.66816 0.62799
 N539 N 0.66658 0.65791 0.62783
 C540 C 0.67781 0.66454 0.61572
 C541 C 0.67004 0.67979 0.60800
 C542 C 0.65369 0.68164 0.61611
 H543 H 0.69101 0.65919 0.61324
 H544 H 0.64390 0.69233 0.61392
 H545 H 0.65360 0.65419 0.65818
 H546 H 0.64346 0.63835 0.64219
 N547 N 0.68195 0.12427 0.16176
 N548 N 0.67015 0.12596 0.17422
 C549 C 0.67431 0.11404 0.18703
 C550 C 0.68960 0.10450 0.18233
 C551 C 0.69393 0.11133 0.16616
 H552 H 0.66728 0.11303 0.19920
 H553 H 0.70531 0.10761 0.15834
 Cu554 Cu 0.65146 0.14470 0.17311
 Cu555 Cu 0.68245 0.14026 0.14164
 Cu556 Cu 0.65128 0.17511 0.13985
 N557 N 0.63468 0.16528 0.17208
 N558 N 0.63476 0.17696 0.15906
 C559 C 0.62286 0.19040 0.16208
 C560 C 0.61483 0.18712 0.17788
 C561 C 0.62259 0.17095 0.18384
 H562 H 0.62056 0.20200 0.15357
 H563 H 0.62024 0.16433 0.19617
 N564 N 0.66909 0.17111 0.12157
 N565 N 0.68101 0.15779 0.12228
 C566 C 0.69256 0.15986 0.10908
 C567 C 0.68776 0.17530 0.09961
 C568 C 0.67272 0.18199 0.10787
 H569 H 0.70414 0.15129 0.10704
 H570 H 0.66572 0.19462 0.10487
 H571 H 0.67109 0.16249 0.15420
 H572 H 0.65573 0.14717 0.14190
 N573 N 0.17634 0.62880 0.15597
 N574 N 0.16642 0.62897 0.16996
 C575 C 0.17385 0.61777 0.18188
 C576 C 0.18931 0.61031 0.17493
 C577 C 0.19034 0.61756 0.15842
 H578 H 0.16872 0.61572 0.19481
 H579 H 0.20064 0.61512 0.14891
 Cu580 Cu 0.14518 0.64450 0.17135
 Cu581 Cu 0.17099 0.64377 0.13585
 Cu582 Cu 0.14287 0.68049 0.14373
 N583 N 0.12842 0.66467 0.17490
 N584 N 0.12788 0.67869 0.16412
 C585 C 0.11614 0.69118 0.16993
 C586 C 0.10890 0.68482 0.18527
 C587 C 0.11695 0.66782 0.18801
 H588 H 0.11326 0.70409 0.16350
 H589 H 0.11516 0.65881 0.19903
 N590 N 0.15900 0.67950 0.12369
 N591 N 0.16934 0.66526 0.12046
 C592 C 0.17988 0.66926 0.10687
 C593 C 0.17607 0.68699 0.10126
 C594 C 0.16262 0.69295 0.11220
 H595 H 0.19043 0.66039 0.10230
 H596 H 0.15650 0.70640 0.11236
 H597 H 0.16327 0.66389 0.15273
 H598 H 0.14482 0.65289 0.14046
 N599 N 0.18180 0.12966 0.65239
 N600 N 0.16940 0.12639 0.66401
 C601 C 0.17547 0.11387 0.67543
 C602 C 0.19268 0.10900 0.67077
 C603 C 0.19621 0.11930 0.65601
 H604 H 0.16815 0.10936 0.68672
 H605 H 0.20844 0.11956 0.64863
 Cu606 Cu 0.14729 0.14014 0.66431
 Cu607 Cu 0.17862 0.14788 0.63403
 Cu608 Cu 0.13870 0.17213 0.63432
 N609 N 0.12974 0.15932 0.66828
 N610 N 0.12633 0.17178 0.65639
 C611 C 0.11415 0.18368 0.66248
 C612 C 0.10979 0.17857 0.67924
 C613 C 0.11997 0.16296 0.68244
 H614 H 0.10943 0.19558 0.65540
 H615 H 0.12052 0.15498 0.69425
 N616 N 0.15722 0.17578 0.61667
 N617 N 0.17252 0.16679 0.61658
 C618 C 0.18289 0.17371 0.60390
 C619 C 0.17376 0.18788 0.59577
 C620 C 0.15751 0.18873 0.60419
 H621 H 0.19648 0.16952 0.60142
 H622 H 0.14694 0.19858 0.60194
 H623 H 0.16113 0.16450 0.64753
 H624 H 0.15157 0.14649 0.63331
 N625 N 0.32232 0.62775 0.33732
 N626 N 0.33711 0.62772 0.32821
 C627 C 0.33663 0.61357 0.31704
 C628 C 0.32074 0.60419 0.31953
 C629 C 0.31206 0.61359 0.33252
 H630 H 0.34675 0.61070 0.30747
 H631 H 0.29875 0.61104 0.33735
 Cu632 Cu 0.35467 0.64715 0.33095
 Cu633 Cu 0.31605 0.64758 0.35273
 Cu634 Cu 0.35043 0.67668 0.36411
 N635 N 0.36909 0.66930 0.33248
 N636 N 0.36740 0.68089 0.34533
 C637 C 0.37881 0.69497 0.34294
 C638 C 0.38817 0.69204 0.32773
 C639 C 0.38163 0.67558 0.32149
 H640 H 0.38013 0.70648 0.35161
 H641 H 0.38535 0.66888 0.30959
 N642 N 0.32787 0.67505 0.37722
 N643 N 0.31475 0.66419 0.37248
 C644 C 0.30091 0.66640 0.38327
 C645 C 0.30532 0.67942 0.39548
 C646 C 0.32262 0.68462 0.39120
 H647 H 0.28846 0.65912 0.38209
 H648 H 0.33070 0.69485 0.39752
 H649 H 0.33413 0.66816 0.34535
 H650 H 0.34199 0.64943 0.36007
 N651 N 0.32262 0.12560 0.84573
 N652 N 0.33501 0.12655 0.83375
 C653 C 0.33055 0.11546 0.82062
 C654 C 0.31443 0.10710 0.82457
 C655 C 0.30988 0.11383 0.84070
 H656 H 0.33815 0.11416 0.80881
 H657 H 0.29805 0.11071 0.84815
 Cu658 Cu 0.35517 0.14306 0.83605
 Cu659 Cu 0.32368 0.14033 0.86657
 Cu660 Cu 0.35063 0.17894 0.86293
 N661 N 0.37040 0.16449 0.83418
 N662 N 0.36828 0.17871 0.84438
 C663 C 0.37949 0.19217 0.83937
 C664 C 0.38915 0.18608 0.82522
 C665 C 0.38302 0.16839 0.82235
 H666 H 0.38030 0.20551 0.84541
 H667 H 0.38676 0.15934 0.81193
 N668 N 0.33209 0.17615 0.88091
 N669 N 0.32217 0.16126 0.88246
 C670 C 0.31037 0.16367 0.89535
 C671 C 0.31291 0.18097 0.90233
 C672 C 0.32687 0.18844 0.89285
 H673 H 0.30033 0.15372 0.89899
 H674 H 0.33238 0.20209 0.89412
 H675 H 0.33297 0.16117 0.85119
 H676 H 0.34957 0.15115 0.86641
 N677 N 0.82693 0.61998 0.84174
 N678 N 0.84004 0.61945 0.83049
 C679 C 0.83570 0.60791 0.81766
 C680 C 0.81889 0.60083 0.82105
 C681 C 0.81381 0.60876 0.83653
 H682 H 0.84391 0.60544 0.80642
 H683 H 0.80138 0.60682 0.84340
 Cu684 Cu 0.86099 0.63477 0.83324
 Cu685 Cu 0.82768 0.63573 0.86191
 Cu686 Cu 0.85754 0.67206 0.85853
 N687 N 0.87761 0.65503 0.83126
 N688 N 0.87605 0.66976 0.84089
 C689 C 0.88830 0.68221 0.83583
 C690 C 0.89802 0.67494 0.82220
 C691 C 0.89082 0.65759 0.81974
 H692 H 0.88966 0.69573 0.84141
 H693 H 0.89426 0.64788 0.80977
 N694 N 0.83790 0.67136 0.87561
 N695 N 0.82674 0.65740 0.87692
 C696 C 0.81433 0.66125 0.88892
 C697 C 0.81779 0.67849 0.89558
 C698 C 0.83291 0.68445 0.88690
 H699 H 0.80330 0.65233 0.89220
 H700 H 0.83933 0.69767 0.88819
 H701 H 0.83935 0.65519 0.84640
 H702 H 0.85423 0.64460 0.86290
 N703 N 0.82417 0.12160 0.34831
 N704 N 0.83392 0.12346 0.33430
 C705 C 0.82808 0.11159 0.32230
 C706 C 0.81381 0.10184 0.32917
 C707 C 0.81183 0.10852 0.34576
 H708 H 0.83333 0.11071 0.30932
 H709 H 0.80187 0.10456 0.35518
 Cu710 Cu 0.85269 0.14195 0.33284
 Cu711 Cu 0.82739 0.13726 0.36835
 Cu712 Cu 0.84618 0.17919 0.35754
 N713 N 0.86752 0.16379 0.33035
 N714 N 0.86477 0.17830 0.34004
 C715 C 0.87582 0.19186 0.33504
 C716 C 0.88615 0.18560 0.32144
 C717 C 0.88052 0.16763 0.31885
 H718 H 0.87606 0.20537 0.34079
 H719 H 0.88501 0.15832 0.30892
 N720 N 0.83189 0.17523 0.37859
 N721 N 0.82524 0.15909 0.38302
 C722 C 0.81568 0.16093 0.39763
 C723 C 0.81632 0.17919 0.40270
 C724 C 0.82683 0.18778 0.39032
 H725 H 0.80825 0.14989 0.40367
 H726 H 0.83000 0.20226 0.38947
 H727 H 0.83014 0.15722 0.35038
 H728 H 0.85086 0.15233 0.36285
 N729 N 0.67783 0.37466 0.33900
 N730 N 0.66441 0.37547 0.32819
 C731 C 0.66838 0.38727 0.31530
 C732 C 0.68524 0.39434 0.31816
 C733 C 0.69079 0.38605 0.33341
 H734 H 0.65973 0.39020 0.30451
 H735 H 0.70353 0.38771 0.33966
 Cu736 Cu 0.64354 0.36010 0.33113
 Cu737 Cu 0.67769 0.35826 0.35910
 Cu738 Cu 0.63999 0.33114 0.36457
 N739 N 0.62726 0.33938 0.33061
 N740 N 0.62602 0.32793 0.34374
 C741 C 0.61443 0.31450 0.33988
 C742 C 0.60810 0.31761 0.32334
 C743 C 0.61651 0.33360 0.31788
 H744 H 0.61110 0.30318 0.34842
 H745 H 0.61543 0.34020 0.30538
 N746 N 0.65998 0.33101 0.38085
 N747 N 0.67456 0.34086 0.37863
 C748 C 0.68627 0.33634 0.39111
 C749 C 0.67874 0.32290 0.40166
 C750 C 0.66201 0.31998 0.39471
 H751 H 0.69953 0.34199 0.39204
 H752 H 0.65224 0.30999 0.39886
 H753 H 0.66064 0.33888 0.34880
 H754 H 0.65077 0.35765 0.36204
 N755 N 0.67516 0.87646 0.83521
 N756 N 0.66126 0.87786 0.82503
 C757 C 0.66457 0.89048 0.81269
 C758 C 0.68152 0.89745 0.81518
 C759 C 0.68781 0.88828 0.82970
 H760 H 0.65548 0.89383 0.80234
 H761 H 0.70094 0.88936 0.83529
 Cu762 Cu 0.64089 0.86177 0.82760
 Cu763 Cu 0.67644 0.85801 0.85364
 Cu764 Cu 0.64298 0.82515 0.85400
 N765 N 0.62442 0.84146 0.82539
 N766 N 0.62514 0.82721 0.83587
 C767 C 0.61316 0.81462 0.83081
 C768 C 0.60455 0.82127 0.81625
 C769 C 0.61206 0.83841 0.81322
 H770 H 0.61157 0.80119 0.83670
 H771 H 0.60919 0.84774 0.80267
 N772 N 0.66232 0.82556 0.87111
 N773 N 0.67508 0.83804 0.87104
 C774 C 0.68688 0.83382 0.88353
 C775 C 0.68134 0.81782 0.89178
 C776 C 0.66567 0.81308 0.88358
 H777 H 0.69906 0.84128 0.88588
 H778 H 0.65755 0.80111 0.88617
 H779 H 0.66163 0.83958 0.83962
 H780 H 0.64957 0.85273 0.85672
 N781 N 0.17438 0.37400 0.84277
 N782 N 0.16102 0.37547 0.83195
 C783 C 0.16521 0.38773 0.81951
 C784 C 0.18220 0.39432 0.82264
 C785 C 0.18756 0.38530 0.83757
 H786 H 0.15683 0.39089 0.80857
 H787 H 0.20022 0.38658 0.84405
 Cu788 Cu 0.14025 0.35980 0.83398
 Cu789 Cu 0.17396 0.35692 0.86231
 Cu790 Cu 0.13653 0.32916 0.86614
 N791 N 0.12445 0.33877 0.83226
 N792 N 0.12311 0.32670 0.84487
 C793 C 0.11197 0.31318 0.84014
 C794 C 0.10608 0.31689 0.82355
 C795 C 0.11425 0.33333 0.81900
 H796 H 0.10870 0.30139 0.84811
 H797 H 0.11342 0.34048 0.80675
 N798 N 0.15620 0.32864 0.88281
 N799 N 0.17063 0.33886 0.88122
 C800 C 0.18221 0.33404 0.89371
 C801 C 0.17476 0.32001 0.90355
 C802 C 0.15821 0.31704 0.89625
 H803 H 0.19543 0.33970 0.89501
 H804 H 0.14857 0.30671 0.89997
 H805 H 0.15725 0.33791 0.85102
 H806 H 0.14696 0.35591 0.86488
 N807 N 0.17587 0.87358 0.33583
 N808 N 0.16163 0.87637 0.32639
 C809 C 0.16515 0.88944 0.31449
 C810 C 0.18266 0.89514 0.31653
 C811 C 0.18896 0.88477 0.33031
 H812 H 0.15592 0.89369 0.30456
 H813 H 0.20225 0.88479 0.33563
 Cu814 Cu 0.14071 0.86104 0.32917
 Cu815 Cu 0.17700 0.85432 0.35331
 Cu816 Cu 0.13791 0.83047 0.36171
 N817 N 0.12420 0.84056 0.32849
 N818 N 0.12293 0.82858 0.34121
 C819 C 0.11092 0.81562 0.33696
 C820 C 0.10452 0.81960 0.32056
 C821 C 0.11324 0.83560 0.31569
 H822 H 0.10771 0.80379 0.34491
 H823 H 0.11202 0.84300 0.30360
 N824 N 0.15889 0.82919 0.37694
 N825 N 0.17377 0.83818 0.37355
 C826 C 0.18580 0.83424 0.38583
 C827 C 0.17827 0.82203 0.39751
 C828 C 0.16115 0.81909 0.39142
 H829 H 0.19925 0.83949 0.38595
 H830 H 0.15116 0.81009 0.39694
 H831 H 0.15692 0.83703 0.34451
 H832 H 0.15043 0.85632 0.35902
 C833 C 0.24827 0.96284 0.22379
 C834 C 0.23704 0.95334 0.23517
 C835 C 0.22551 0.96267 0.24629
 C836 C 0.22523 0.98213 0.24625
 C837 C 0.23664 0.99196 0.23485
 C838 C 0.24818 0.98230 0.22353
 C839 C 0.25973 0.99234 0.21271
 C840 C 0.25995 1.01148 0.21297
 C841 C 0.24870 1.02133 0.22413
 C842 C 0.23695 1.01149 0.23518
 C843 C 0.21430 0.99199 0.25771
 C844 C 0.21456 1.01112 0.25799
 C845 C 0.22584 1.02113 0.24689
 C846 C 0.22665 1.04054 0.24752
 C847 C 0.23835 1.05007 0.23664
 C848 C 0.24925 1.04076 0.22491
 H849 H 0.26894 0.98550 0.20409
 H850 H 0.26927 1.01848 0.20451
 H851 H 0.20559 0.98502 0.26677
 H852 H 0.20600 1.01798 0.26721
 H853 H 0.23735 0.93841 0.23544
 H854 H 0.23896 1.06497 0.23728
 C855 C 0.22599 0.46236 0.75333
 C856 C 0.23684 0.45283 0.74172
 C857 C 0.24750 0.46213 0.72969
 C858 C 0.24764 0.48159 0.72935
 C859 C 0.23680 0.49147 0.74113
 C860 C 0.22591 0.48184 0.75316
 C861 C 0.21567 0.49192 0.76503
 C862 C 0.21595 0.51106 0.76499
 C863 C 0.22650 0.52091 0.75310
 C864 C 0.23715 0.51103 0.74115
 C865 C 0.25869 0.49140 0.71787
 C866 C 0.25911 0.51055 0.71796
 C867 C 0.24843 0.52064 0.72947
 C868 C 0.24910 0.54008 0.72994
 C869 C 0.23854 0.54962 0.74179
 C870 C 0.22712 0.54037 0.75319
 H871 H 0.20751 0.48510 0.77465
 H872 H 0.20801 0.51804 0.77462
 H873 H 0.26733 0.48435 0.70886
 H874 H 0.26808 0.51736 0.70903
 H875 H 0.23688 0.43790 0.74194
 H876 H 0.23905 0.56454 0.74200
 C877 C 0.73598 0.03416 0.24779
 C878 C 0.74806 0.04314 0.25852
 C879 C 0.76061 0.03334 0.26820
 C880 C 0.76110 0.01390 0.26734
 C881 C 0.74883 0.00457 0.25661
 C882 C 0.73622 0.01473 0.24679
 C883 C 0.72449 0.00523 0.23593
 C884 C 0.72501 -0.01389 0.23483
 C885 C 0.73728 -0.02426 0.24454
 C886 C 0.74939 -0.01494 0.25546
 C887 C 0.77351 0.00358 0.27690
 C888 C 0.77411 -0.01553 0.27572
 C889 C 0.76221 -0.02505 0.26505
 C890 C 0.76297 -0.04442 0.26348
 C891 C 0.75104 -0.05340 0.25260
 C892 C 0.73809 -0.04368 0.24332
 H893 H 0.71484 0.01251 0.22809
 H894 H 0.71582 -0.02044 0.22609
 H895 H 0.78294 0.01019 0.28536
 H896 H 0.78411 -0.02276 0.28317
 H897 H 0.74796 0.05806 0.25903
 H898 H 0.75161 -0.06828 0.25161
 C899 C 0.76671 0.45707 0.75866
 C900 C 0.75536 0.44777 0.74747
 C901 C 0.74634 0.45704 0.73425
 C902 C 0.74832 0.47631 0.73237
 C903 C 0.75963 0.48597 0.74379
 C904 C 0.76898 0.47630 0.75690
 C905 C 0.78005 0.48616 0.76812
 C906 C 0.78194 0.50514 0.76650
 C907 C 0.77271 0.51502 0.75368
 C908 C 0.76138 0.50539 0.74227
 C909 C 0.73904 0.48623 0.71961
 C910 C 0.74079 0.50523 0.71810
 C911 C 0.75157 0.51515 0.72954
 C912 C 0.75286 0.53459 0.72857
 C913 C 0.76429 0.54383 0.73978
 C914 C 0.77420 0.53435 0.75222
 H915 H 0.78726 0.47931 0.77839
 H916 H 0.79055 0.51202 0.77556
 H917 H 0.73018 0.47943 0.71073
 H918 H 0.73355 0.51204 0.70785
 H919 H 0.75379 0.43299 0.74885
 H920 H 0.76516 0.55872 0.73912
 C921 C 0.27341 0.46288 0.25055
 C922 C 0.26074 0.45372 0.24062
 C923 C 0.24883 0.46338 0.23008
 C924 C 0.24910 0.48285 0.22983
 C925 C 0.26183 0.49234 0.23989
 C926 C 0.27415 0.48234 0.25016
 C927 C 0.28667 0.49205 0.26000
 C928 C 0.28716 0.51120 0.25966
 C929 C 0.27490 0.52139 0.24979
 C930 C 0.26210 0.51189 0.23983
 C931 C 0.23677 0.49305 0.22004
 C932 C 0.23697 0.51220 0.22006
 C933 C 0.24943 0.52190 0.22996
 C934 C 0.24965 0.54136 0.23016
 C935 C 0.26268 0.55053 0.23963
 C936 C 0.27513 0.54085 0.24956
 H937 H 0.29622 0.48495 0.26808
 H938 H 0.29727 0.51793 0.26727
 H939 H 0.22671 0.48634 0.21238
 H940 H 0.22727 0.51932 0.21217
 H941 H 0.26034 0.43879 0.24087
 H942 H 0.26266 0.56546 0.23986
 C943 C 0.74713 0.96407 0.76321
 C944 C 0.75622 0.95443 0.75033
 C945 C 0.76659 0.96357 0.73799
 C946 C 0.76797 0.98297 0.73837
 C947 C 0.75875 0.99296 0.75131
 C948 C 0.74832 0.98348 0.76381
 C949 C 0.73921 0.99366 0.77644
 C950 C 0.74044 1.01276 0.77689
 C951 C 0.75061 1.02246 0.76459
 C952 C 0.75993 1.01246 0.75173
 C953 C 0.77846 0.99260 0.72630
 C954 C 0.77969 1.01170 0.72676
 C955 C 0.77040 1.02192 0.73925
 C956 C 0.77150 1.04135 0.73977
 C957 C 0.76247 1.05099 0.75269
 C958 C 0.75187 1.04189 0.76491
 H959 H 0.73103 0.98695 0.78611
 H960 H 0.73338 1.01984 0.78708
 H961 H 0.78588 0.98542 0.71640
 H962 H 0.78812 1.01837 0.71726
 H963 H 0.75524 0.93954 0.74995
 H964 H 0.76317 1.06590 0.75285
 C965 C 0.77417 0.54089 0.24601
 C966 C 0.76369 0.55020 0.25811
 C967 C 0.75318 0.54069 0.27011
 C968 C 0.75290 0.52122 0.27001
 C969 C 0.76330 0.51156 0.25770
 C970 C 0.77396 0.52141 0.24563
 C971 C 0.78366 0.51156 0.23318
 C972 C 0.78308 0.49242 0.23268
 C973 C 0.77280 0.48235 0.24463
 C974 C 0.76272 0.49201 0.25720
 C975 C 0.74213 0.51121 0.28157
 C976 C 0.74157 0.49207 0.28110
 C977 C 0.75179 0.48218 0.26905
 C978 C 0.75100 0.46275 0.26822
 C979 C 0.76091 0.45345 0.25569
 C980 C 0.77190 0.46290 0.24403
 H981 H 0.79159 0.51856 0.22349
 H982 H 0.79059 0.48562 0.22262
 H983 H 0.73384 0.51809 0.29100
 H984 H 0.73284 0.48511 0.29014
 H985 H 0.76379 0.56513 0.25825
 H986 H 0.76030 0.43855 0.25520
 C987 C 0.26916 -0.03660 0.75687
 C988 C 0.25745 -0.04615 0.74620
 C989 C 0.24629 -0.03686 0.73465
 C990 C 0.24650 -0.01741 0.73392
 C991 C 0.25808 -0.00752 0.74490
 C992 C 0.26951 -0.01714 0.75638
 C993 C 0.28072 -0.00707 0.76730
 C994 C 0.28078 0.01208 0.76690
 C995 C 0.26962 0.02191 0.75558
 C996 C 0.25810 0.01203 0.74453
 C997 C 0.23526 -0.00758 0.72267
 C998 C 0.23533 0.01156 0.72227
 C999 C 0.24645 0.02166 0.73326
 C1000 C 0.24629 0.04113 0.73324
 C1001 C 0.25781 0.05068 0.74413
 C1002 C 0.26940 0.04137 0.75525
 H1003 H 0.28946 -0.01390 0.77639
 H1004 H 0.28958 0.01911 0.77570
 H1005 H 0.22619 -0.01461 0.71414
 H1006 H 0.22652 0.01836 0.71322
 H1007 H 0.25729 -0.06108 0.74662
 H1008 H 0.25754 0.06561 0.74415
 C1009 C 0.26224 0.24566 0.96911
 C1010 C 0.25106 0.25819 0.96073
 C1011 C 0.23856 0.26858 0.96988
 C1012 C 0.23701 0.26640 0.98795
 C1013 C 0.24840 0.25383 0.99664
 C1014 C 0.26111 0.24345 0.98720
 C1015 C 0.27238 0.23121 0.99608
 C1016 C 0.27130 0.22929 1.01393
 C1017 C 0.25877 0.23939 1.02354
 C1018 C 0.24714 0.25170 1.01482
 C1019 C 0.22446 0.27648 0.99753
 C1020 C 0.22314 0.27430 1.01536
 C1021 C 0.23439 0.26202 1.02426
 C1022 C 0.23341 0.25995 1.04239
 C1023 C 0.24515 0.24801 1.05084
 C1024 C 0.25773 0.23772 1.04169
 H1025 H 0.28226 0.22311 0.98929
 H1026 H 0.28044 0.21982 1.02014
 H1027 H 0.21555 0.28618 0.99131
 H1028 H 0.21330 0.28244 1.02215
 H1029 H 0.25203 0.25983 0.94683
 H1030 H 0.24446 0.24667 1.06477
 C1031 C 0.22402 0.75430 0.53905
 C1032 C 0.23628 0.74310 0.54769
 C1033 C 0.24827 0.73195 0.53869
 C1034 C 0.24840 0.73225 0.52047
 C1035 C 0.23602 0.74353 0.51151
 C1036 C 0.22363 0.75446 0.52081
 C1037 C 0.21152 0.76557 0.51164
 C1038 C 0.21148 0.76586 0.49367
 C1039 C 0.22377 0.75530 0.48423
 C1040 C 0.23625 0.74416 0.49321
 C1041 C 0.26086 0.72191 0.51100
 C1042 C 0.26123 0.72271 0.49305
 C1043 C 0.24912 0.73382 0.48392
 C1044 C 0.24947 0.73484 0.46572
 C1045 C 0.23686 0.74558 0.45704
 C1046 C 0.22408 0.75576 0.46601
 H1047 H 0.20197 0.77420 0.51827
 H1048 H 0.20185 0.77460 0.48723
 H1049 H 0.27060 0.71326 0.51738
 H1050 H 0.27110 0.71449 0.48640
 H1051 H 0.23648 0.74303 0.56168
 H1052 H 0.23718 0.74626 0.44305
 C1053 C 0.26759 0.76087 -0.03649
 C1054 C 0.25638 0.74920 -0.04572
 C1055 C 0.24520 0.73668 -0.03726
 C1056 C 0.24494 0.73590 -0.01904
 C1057 C 0.25649 0.74743 -0.00954
 C1058 C 0.26796 0.75988 -0.01829
 C1059 C 0.27950 0.77098 -0.00863
 C1060 C 0.27967 0.76997 0.00931
 C1061 C 0.26818 0.75797 0.01824
 C1062 C 0.25643 0.74664 0.00876
 C1063 C 0.23320 0.72417 -0.01009
 C1064 C 0.23290 0.72365 0.00786
 C1065 C 0.24451 0.73464 0.01753
 C1066 C 0.24430 0.73427 0.03577
 C1067 C 0.25597 0.74549 0.04494
 C1068 C 0.26799 0.75711 0.03645
 H1069 H 0.28857 0.78051 -0.01488
 H1070 H 0.28879 0.77884 0.01613
 H1071 H 0.22394 0.71544 -0.01688
 H1072 H 0.22338 0.71458 0.01405
 H1073 H 0.25629 0.74995 -0.05970
 H1074 H 0.25585 0.74503 0.05894
 C1075 C 0.25120 0.27415 0.53152
 C1076 C 0.24051 0.26081 0.53944
 C1077 C 0.22926 0.24955 0.52986
 C1078 C 0.22830 0.25179 0.51177
 C1079 C 0.23909 0.26522 0.50349
 C1080 C 0.25072 0.27635 0.51337
 C1081 C 0.26192 0.28894 0.50480
 C1082 C 0.26170 0.29061 0.48691
 C1083 C 0.25014 0.27989 0.47690
 C1084 C 0.23857 0.26721 0.48526
 C1085 C 0.21694 0.24085 0.50177
 C1086 C 0.21632 0.24290 0.48391
 C1087 C 0.22699 0.25602 0.47537
 C1088 C 0.22693 0.25779 0.45717
 C1089 C 0.23858 0.27022 0.44917
 C1090 C 0.25024 0.28107 0.45871
 H1091 H 0.27121 0.29740 0.51183
 H1092 H 0.27077 0.30034 0.48097
 H1093 H 0.20848 0.23052 0.50767
 H1094 H 0.20758 0.23386 0.47687
 H1095 H 0.24109 0.25900 0.55334
 H1096 H 0.23889 0.27116 0.43520
 C1097 C 0.74238 0.76778 1.03307
 C1098 C 0.75296 0.75509 1.04201
 C1099 C 0.76482 0.74350 1.03337
 C1100 C 0.76632 0.74455 1.01522
 C1101 C 0.75558 0.75727 1.00594
 C1102 C 0.74352 0.76891 1.01487
 C1103 C 0.73265 0.78102 1.00537
 C1104 C 0.73366 0.78177 0.98743
 C1105 C 0.74562 0.77049 0.97833
 C1106 C 0.75673 0.75816 0.98766
 C1107 C 0.77820 0.73317 1.00613
 C1108 C 0.77938 0.73411 0.98821
 C1109 C 0.76873 0.74645 0.97873
 C1110 C 0.76946 0.74713 0.96051
 C1111 C 0.75827 0.75916 0.95149
 C1112 C 0.74646 0.77085 0.96011
 H1113 H 0.72307 0.78987 1.01169
 H1114 H 0.72484 0.79120 0.98076
 H1115 H 0.78664 0.72337 1.01280
 H1116 H 0.78862 0.72491 0.98184
 H1117 H 0.75197 0.75423 1.05596
 H1118 H 0.75877 0.75944 0.93750
 C1119 C 0.76417 0.24475 0.46752
 C1120 C 0.75462 0.25866 0.45911
 C1121 C 0.74123 0.26859 0.46752
 C1122 C 0.73742 0.26481 0.48509
 C1123 C 0.74730 0.25102 0.49394
 C1124 C 0.76067 0.24090 0.48511
 C1125 C 0.77035 0.22739 0.49415
 C1126 C 0.76695 0.22382 0.51151
 C1127 C 0.75395 0.23383 0.52059
 C1128 C 0.74384 0.24738 0.51167
 C1129 C 0.72422 0.27461 0.49410
 C1130 C 0.72064 0.27084 0.51140
 C1131 C 0.73040 0.25742 0.52048
 C1132 C 0.72703 0.25365 0.53813
 C1133 C 0.73706 0.24020 0.54670
 C1134 C 0.75067 0.23054 0.53835
 H1135 H 0.78076 0.21951 0.48793
 H1136 H 0.77461 0.21304 0.51771
 H1137 H 0.71654 0.28536 0.48787
 H1138 H 0.71012 0.27860 0.51759
 H1139 H 0.75725 0.26140 0.44556
 H1140 H 0.73477 0.23783 0.56036
 C1141 C 0.73306 0.24345 -0.04266
 C1142 C 0.74420 0.25584 -0.05132
 C1143 C 0.75539 0.26781 -0.04240
 C1144 C 0.75543 0.26758 -0.02415
 C1145 C 0.74397 0.25530 -0.01513
 C1146 C 0.73271 0.24321 -0.02441
 C1147 C 0.72138 0.23127 -0.01521
 C1148 C 0.72139 0.23085 0.00274
 C1149 C 0.73264 0.24246 0.01219
 C1150 C 0.74404 0.25482 0.00319
 C1151 C 0.76697 0.27889 -0.01469
 C1152 C 0.76711 0.27833 0.00327
 C1153 C 0.75570 0.26648 0.01248
 C1154 C 0.75597 0.26556 0.03073
 C1155 C 0.74479 0.25317 0.03935
 C1156 C 0.73307 0.24179 0.03041
 H1157 H 0.71239 0.22210 -0.02182
 H1158 H 0.71260 0.22118 0.00914
 H1159 H 0.77618 0.28814 -0.02108
 H1160 H 0.77643 0.28716 0.00987
 H1161 H 0.74448 0.25586 -0.06532
 H1162 H 0.74500 0.25257 0.05334
 C1163 C 0.75474 0.76317 0.47002
 C1164 C 0.74498 0.75024 0.46075
 C1165 C 0.73406 0.73738 0.46908
 C1166 C 0.73275 0.73739 0.48729
 C1167 C 0.74261 0.75045 0.49687
 C1168 C 0.75365 0.76339 0.48821
 C1169 C 0.76348 0.77605 0.49795
 C1170 C 0.76240 0.77611 0.51588
 C1171 C 0.75144 0.76351 0.52473
 C1172 C 0.74148 0.75054 0.51516
 C1173 C 0.72168 0.72491 0.49614
 C1174 C 0.72057 0.72499 0.51408
 C1175 C 0.73051 0.73755 0.52385
 C1176 C 0.72965 0.73763 0.54208
 C1177 C 0.73947 0.75057 0.55133
 C1178 C 0.75035 0.76339 0.54293
 H1179 H 0.77216 0.78602 0.49179
 H1180 H 0.77026 0.78614 0.52275
 H1181 H 0.71371 0.71498 0.48927
 H1182 H 0.71176 0.71515 0.52022
 H1183 H 0.74596 0.75015 0.44678
 H1184 H 0.73893 0.75040 0.56532
 C1185 C 1.03343 0.23297 0.26119
 C1186 C 1.04282 0.24348 0.24905
 C1187 C 1.03406 0.25331 0.23604
 C1188 C 1.01525 0.25274 0.23509
 C1189 C 1.00553 0.24194 0.24720
 C1190 C 1.01465 0.23200 0.26029
 C1191 C 1.00477 0.22129 0.27206
 C1192 C 0.98626 0.22053 0.27115
 C1193 C 0.97692 0.23036 0.25837
 C1194 C 0.98663 0.24126 0.24633
 C1195 C 1.00589 0.26300 0.22262
 C1196 C 0.98737 0.26255 0.22193
 C1197 C 0.97748 0.25172 0.23360
 C1198 C 0.95865 0.25140 0.23317
 C1199 C 0.94927 0.24063 0.24512
 C1200 C 0.95808 0.22997 0.25753
 H1201 H 1.01127 0.21341 0.28212
 H1202 H 0.97934 0.21231 0.28072
 H1203 H 1.01280 0.27167 0.21339
 H1204 H 0.98085 0.27088 0.21220
 H1205 H 1.05725 0.24407 0.24979
 H1206 H 0.93483 0.24041 0.24463
 C1207 C 0.53258 0.22770 0.75370
 C1208 C 0.54135 0.23720 0.74047
 C1209 C 0.53190 0.24715 0.72801
 C1210 C 0.51307 0.24756 0.72863
 C1211 C 0.50398 0.23765 0.74180
 C1212 C 0.51377 0.22765 0.75438
 C1213 C 0.50454 0.21814 0.76746
 C1214 C 0.48601 0.21838 0.76816
 C1215 C 0.47601 0.22816 0.75582
 C1216 C 0.48508 0.23802 0.74260
 C1217 C 0.50313 0.25768 0.71651
 C1218 C 0.48461 0.25825 0.71742
 C1219 C 0.47531 0.24849 0.73033
 C1220 C 0.45652 0.24922 0.73155
 C1221 C 0.44777 0.23944 0.74464
 C1222 C 0.45717 0.22872 0.75658
 H1223 H 0.51159 0.21045 0.77732
 H1224 H 0.47962 0.21103 0.77867
 H1225 H 0.50961 0.26534 0.70625
 H1226 H 0.47765 0.26650 0.70792
 H1227 H 0.55580 0.23732 0.74017
 H1228 H 0.43333 0.23991 0.74534
 C1229 C -0.03138 0.24584 0.73141
 C1230 C -0.04035 0.25843 0.74190
 C1231 C -0.03109 0.26999 0.75305
 C1232 C -0.01229 0.26929 0.75363
 C1233 C -0.00298 0.25695 0.74273
 C1234 C -0.01254 0.24516 0.73158
 C1235 C -0.00302 0.23316 0.72078
 C1236 C 0.01551 0.23263 0.72101
 C1237 C 0.02527 0.24425 0.73191
 C1238 C 0.01593 0.25638 0.74300
 C1239 C -0.00258 0.28068 0.76475
 C1240 C 0.01593 0.27994 0.76519
 C1241 C 0.02546 0.26797 0.75434
 C1242 C 0.04427 0.26716 0.75466
 C1243 C 0.05332 0.25508 0.74373
 C1244 C 0.04412 0.24390 0.73216
 H1245 H -0.00979 0.22411 0.71194
 H1246 H 0.02209 0.22291 0.71261
 H1247 H -0.00922 0.29030 0.77324
 H1248 H 0.02270 0.28887 0.77415
 H1249 H -0.05480 0.25886 0.74176
 H1250 H 0.06777 0.25478 0.74386
 C1251 C 0.54486 0.24111 0.23660
 C1252 C 0.55359 0.25311 0.24775
 C1253 C 0.54415 0.26580 0.25773
 C1254 C 0.52535 0.26648 0.25677
 C1255 C 0.51631 0.25456 0.24534
 C1256 C 0.52609 0.24187 0.23515
 C1257 C 0.51687 0.23043 0.22369
 C1258 C 0.49838 0.23123 0.22243
 C1259 C 0.48842 0.24351 0.23257
 C1260 C 0.49744 0.25528 0.24416
 C1261 C 0.51536 0.27850 0.26716
 C1262 C 0.49685 0.27896 0.26624
 C1263 C 0.48762 0.26758 0.25473
 C1264 C 0.46879 0.26782 0.25379
 C1265 C 0.46011 0.25606 0.24237
 C1266 C 0.46962 0.24413 0.23167
 H1267 H 0.52387 0.22073 0.21557
 H1268 H 0.49195 0.22197 0.21353
 H1269 H 0.52175 0.28751 0.27630
 H1270 H 0.48984 0.28828 0.27473
 H1271 H 0.56801 0.25260 0.24865
 H1272 H 0.44568 0.25633 0.24168
 C1273 C 1.03540 0.72744 0.75700
 C1274 C 1.04457 0.73694 0.74398
 C1275 C 1.03602 0.74985 0.73343
 C1276 C 1.01751 0.75295 0.73544
 C1277 C 1.00797 0.74333 0.74852
 C1278 C 1.01696 0.73063 0.75942
 C1279 C 1.00723 0.72133 0.77232
 C1280 C 0.98910 0.72459 0.77462
 C1281 C 0.97985 0.73688 0.76379
 C1282 C 0.98941 0.74643 0.75068
 C1283 C 1.00826 0.76518 0.72456
 C1284 C 0.99007 0.76818 0.72665
 C1285 C 0.98042 0.75902 0.73968
 C1286 C 0.96196 0.76198 0.74187
 C1287 C 0.95271 0.75259 0.75487
 C1288 C 0.96132 0.74004 0.76580
 H1289 H 1.01353 0.71139 0.78078
 H1290 H 0.98244 0.71733 0.78501
 H1291 H 1.01497 0.77242 0.71417
 H1292 H 0.98362 0.77774 0.71790
 H1293 H 1.05880 0.73476 0.74249
 H1294 H 0.93849 0.75484 0.75628
 C1295 C 0.46133 0.76807 0.24745
 C1296 C 0.45177 0.75647 0.25856
 C1297 C 0.46041 0.74478 0.27022
 C1298 C 0.47924 0.74475 0.27103
 C1299 C 0.48914 0.75648 0.25985
 C1300 C 0.48016 0.76815 0.24798
 C1301 C 0.49025 0.77923 0.23667
 C1302 C 0.50879 0.77902 0.23713
 C1303 C 0.51797 0.76772 0.24890
 C1304 C 0.50806 0.75630 0.26035
 C1305 C 0.48842 0.73335 0.28272
 C1306 C 0.50696 0.73312 0.28316
 C1307 C 0.51703 0.74446 0.27208
 C1308 C 0.53587 0.74401 0.27216
 C1309 C 0.54544 0.75519 0.26070
 C1310 C 0.53681 0.76712 0.24923
 H1311 H 0.48392 0.78804 0.22720
 H1312 H 0.51586 0.78768 0.22801
 H1313 H 0.48136 0.72443 0.29163
 H1314 H 0.51331 0.72383 0.29221
 H1315 H 0.43733 0.75634 0.25791
 H1316 H 0.55989 0.75475 0.26084
 C1317 C 0.03802 0.74993 0.27476
 C1318 C 0.04761 0.73782 0.26430
 C1319 C 0.03908 0.72644 0.25244
 C1320 C 0.02031 0.72707 0.25095
 C1321 C 0.01040 0.73946 0.26135
 C1322 C 0.01927 0.75093 0.27332
 C1323 C 0.00923 0.76345 0.28313
 C1324 C -0.00916 0.76477 0.28119
 C1325 C -0.01820 0.75370 0.26929
 C1326 C -0.00838 0.74079 0.25939
 C1327 C 0.01126 0.71613 0.23894
 C1328 C -0.00717 0.71720 0.23726
 C1329 C -0.01725 0.72939 0.24738
 C1330 C -0.03595 0.73082 0.24554
 C1331 C -0.04542 0.74366 0.25533
 C1332 C -0.03684 0.75511 0.26706
 H1333 H 0.01552 0.77252 0.29229
 H1334 H -0.01623 0.77465 0.28906
 H1335 H 0.01836 0.70670 0.23063
 H1336 H -0.01341 0.70854 0.22772
 H1337 H 0.06203 0.73746 0.26518
 H1338 H -0.05976 0.74470 0.25384
 C1339 C 0.46114 0.73270 0.74698
 C1340 C 0.45246 0.74431 0.75863
 C1341 C 0.46202 0.75527 0.77007
 C1342 C 0.48084 0.75491 0.76982
 C1343 C 0.48984 0.74346 0.75786
 C1344 C 0.47997 0.73228 0.74641
 C1345 C 0.48919 0.72128 0.73447
 C1346 C 0.50772 0.72122 0.73381
 C1347 C 0.51776 0.73230 0.74494
 C1348 C 0.50875 0.74337 0.75721
 C1349 C 0.49086 0.76596 0.78098
 C1350 C 0.50939 0.76573 0.78046
 C1351 C 0.51860 0.75449 0.76872
 C1352 C 0.53742 0.75432 0.76797
 C1353 C 0.54613 0.74341 0.75577
 C1354 C 0.53660 0.73252 0.74423
 H1355 H 0.48217 0.71271 0.72540
 H1356 H 0.51410 0.71237 0.72445
 H1357 H 0.48447 0.77501 0.79016
 H1358 H 0.51643 0.77461 0.78927
 H1359 H 0.43801 0.74466 0.75895
 H1360 H 0.56058 0.74351 0.75516
 C1361 C 0.41208 0.28512 0.30920
 C1362 C 0.41109 0.30427 0.30654
 C1363 C 0.42233 0.31249 0.29412
 C1364 C 0.43427 0.30170 0.28446
 C1365 C 0.43494 0.28246 0.28722
 C1366 C 0.42385 0.27434 0.29965
 C1367 C 0.44652 0.27159 0.27737
 C1368 C 0.45755 0.27968 0.26483
 C1369 C 0.45698 0.29880 0.26219
 C1370 C 0.44544 0.30976 0.27197
 H1371 H 0.42185 0.32723 0.29198
 H1372 H 0.42419 0.25960 0.30189
 H1373 H 0.44690 0.25680 0.27930
 H1374 H 0.44513 0.32447 0.26964
 H1375 H 0.40353 0.27829 0.31849
 H1376 H 0.46530 0.30516 0.25240
 C1377 C 0.41414 0.82029 0.79213
 C1378 C 0.41123 0.81473 0.80938
 C1379 C 0.41999 0.79874 0.81544
 C1380 C 0.43088 0.78832 0.80445
 C1381 C 0.43321 0.79387 0.78709
 C1382 C 0.42494 0.80995 0.78113
 C1383 C 0.44362 0.78311 0.77596
 C1384 C 0.45179 0.76698 0.78204
 C1385 C 0.44969 0.76167 0.79934
 C1386 C 0.43930 0.77228 0.81049
 H1387 H 0.41835 0.79414 0.82865
 H1388 H 0.42668 0.81445 0.76787
 H1389 H 0.44528 0.78714 0.76256
 H1390 H 0.43770 0.76783 0.82378
 H1391 H 0.40787 0.83246 0.78683
 H1392 H 0.45594 0.74920 0.80411
 C1393 C -0.07069 0.29328 0.81932
 C1394 C -0.07905 0.30903 0.81251
 C1395 C -0.07510 0.31462 0.79552
 C1396 C -0.06352 0.30417 0.78523
 C1397 C -0.05544 0.28815 0.79214
 C1398 C -0.05889 0.28300 0.80927
 C1399 C -0.04442 0.27731 0.78166
 C1400 C -0.04162 0.28217 0.76433
 C1401 C -0.04955 0.29811 0.75755
 C1402 C -0.06034 0.30913 0.76797
 H1403 H -0.08160 0.32660 0.79002
 H1404 H -0.05277 0.27079 0.81478
 H1405 H -0.03835 0.26488 0.78678
 H1406 H -0.06646 0.32133 0.76245
 H1407 H -0.07340 0.28880 0.83241
 H1408 H -0.04749 0.30189 0.74416
 C1409 C -0.09316 0.77750 0.32108
 C1410 C -0.09421 0.79633 0.31683
 C1411 C -0.08327 0.80337 0.30358
 C1412 C -0.07133 0.79173 0.29481
 C1413 C -0.07058 0.77280 0.29918
 C1414 C -0.08152 0.76586 0.31231
 C1415 C -0.05901 0.76106 0.29025
 C1416 C -0.04804 0.76796 0.27709
 C1417 C -0.04859 0.78676 0.27290
 C1418 C -0.06017 0.79859 0.28170
 H1419 H -0.08389 0.81787 0.30027
 H1420 H -0.08113 0.75139 0.31579
 H1421 H -0.05861 0.74649 0.29339
 H1422 H -0.06050 0.81304 0.27817
 H1423 H -0.10158 0.77161 0.33102
 H1424 H -0.04024 0.79218 0.26264
 C1425 C 0.58837 0.68204 0.29239
 C1426 C 0.58992 0.68649 0.30994
 C1427 C 0.57937 0.70079 0.31668
 C1428 C 0.56791 0.71090 0.30594
 C1429 C 0.56687 0.70662 0.28820
 C1430 C 0.57698 0.69202 0.28161
 C1431 C 0.55603 0.71725 0.27731
 C1432 C 0.54616 0.73202 0.28395
 C1433 C 0.54698 0.73601 0.30160
 C1434 C 0.55775 0.72549 0.31255
 H1435 H 0.58019 0.70423 0.33022
 H1436 H 0.57630 0.68853 0.26806
 H1437 H 0.55542 0.71426 0.26363
 H1438 H 0.55836 0.72895 0.32611
 H1439 H 0.59635 0.67118 0.28679
 H1440 H 0.53950 0.74748 0.30681
 C1441 C 0.57877 0.16757 0.78843
 C1442 C 0.58566 0.17852 0.80176
 C1443 C 0.57944 0.19671 0.80343
 C1444 C 0.56712 0.20405 0.79169
 C1445 C 0.56066 0.19304 0.77811
 C1446 C 0.56640 0.17476 0.77674
 C1447 C 0.54890 0.20065 0.76595
 C1448 C 0.54365 0.21911 0.76723
 C1449 C 0.54985 0.22987 0.78087
 C1450 C 0.56146 0.22239 0.79308
 H1451 H 0.58442 0.20541 0.81360
 H1452 H 0.56153 0.16608 0.76647
 H1453 H 0.54414 0.19242 0.75530
 H1454 H 0.56626 0.23103 0.80340
 H1455 H 0.58305 0.15348 0.78680
 H1456 H 0.54590 0.24418 0.78188
 C1457 C 1.07564 0.70356 0.82281
 C1458 C 1.08511 0.68876 0.81557
 C1459 C 1.08148 0.68363 0.79846
 C1460 C 1.06917 0.69362 0.78853
 C1461 C 1.06015 0.70882 0.79582
 C1462 C 1.06327 0.71347 0.81305
 C1463 C 1.04857 0.71941 0.78563
 C1464 C 1.04593 0.71501 0.76823
 C1465 C 1.05470 0.69975 0.76114
 C1466 C 1.06616 0.68905 0.77123
 H1467 H 1.08866 0.67233 0.79261
 H1468 H 1.05638 0.72500 0.81888
 H1469 H 1.04202 0.73139 0.79102
 H1470 H 1.07297 0.67748 0.76541
 H1471 H 1.07788 0.70767 0.83601
 H1472 H 1.05289 0.69634 0.74767
 C1473 C 1.08893 0.17748 0.28856
 C1474 C 1.08999 0.18407 0.30555
 C1475 C 1.07877 0.19862 0.31061
 C1476 C 1.06681 0.20658 0.29877
 C1477 C 1.06618 0.19998 0.28166
 C1478 C 1.07719 0.18537 0.27674
 C1479 C 1.05480 0.20833 0.26962
 C1480 C 1.04395 0.22313 0.27446
 C1481 C 1.04429 0.22943 0.29153
 C1482 C 1.05564 0.22119 0.30363
 H1483 H 1.07934 0.20375 0.32369
 H1484 H 1.07687 0.18016 0.26367
 H1485 H 1.05459 0.20358 0.25639
 H1486 H 1.05588 0.22643 0.31668
 H1487 H 1.09749 0.16646 0.28417
 H1488 H 1.03607 0.24098 0.29534
 C1489 C 0.57254 0.31479 0.70039
 C1490 C 0.58258 0.30567 0.68769
 C1491 C 0.57898 0.28706 0.68426
 C1492 C 0.56621 0.27744 0.69403
 C1493 C 0.55657 0.28667 0.70711
 C1494 C 0.55959 0.30541 0.70994
 C1495 C 0.54459 0.27683 0.71756
 C1496 C 0.54238 0.25785 0.71531
 C1497 C 0.55170 0.24881 0.70214
 C1498 C 0.56342 0.25857 0.69144
 H1499 H 0.58668 0.27980 0.67461
 H1500 H 0.55227 0.31271 0.71985
 H1501 H 0.53754 0.28371 0.72793
 H1502 H 0.57069 0.25126 0.68151
 H1503 H 0.57485 0.32918 0.70312
 H1504 H 0.55019 0.23411 0.70042
 C1505 C 0.59208 0.78183 0.19163
 C1506 C 0.59419 0.80083 0.19428
 C1507 C 0.58388 0.80953 0.20706
 C1508 C 0.57171 0.79933 0.21711
 C1509 C 0.56996 0.78018 0.21443
 C1510 C 0.58014 0.77160 0.20162
 C1511 C 0.55823 0.76986 0.22473
 C1512 C 0.54809 0.77843 0.23761
 C1513 C 0.54965 0.79747 0.24010
 C1514 C 0.56137 0.80787 0.22990
 H1515 H 0.58524 0.82418 0.20915
 H1516 H 0.57896 0.75695 0.19941
 H1517 H 0.55707 0.75513 0.22290
 H1518 H 0.56250 0.82252 0.23215
 H1519 H 0.59993 0.77468 0.18204
 H1520 H 0.54200 0.80419 0.25013
 C1521 C 1.08784 0.31361 0.21503
 C1522 C 1.09042 0.30824 0.19779
 C1523 C 1.08071 0.29323 0.19139
 C1524 C 1.06863 0.28370 0.20209
 C1525 C 1.06638 0.28916 0.21944
 C1526 C 1.07599 0.30414 0.22575
 C1527 C 1.05473 0.27941 0.23029
 C1528 C 1.04518 0.26432 0.22403
 C1529 C 1.04724 0.25906 0.20676
 C1530 C 1.05887 0.26870 0.19583
 H1531 H 1.08245 0.28902 0.17810
 H1532 H 1.07444 0.30848 0.23902
 H1533 H 1.05319 0.28338 0.24368
 H1534 H 1.06039 0.26431 0.18258
 H1535 H 1.09525 0.32494 0.22042
 H1536 H 1.04006 0.24730 0.20184
 C1537 C 1.07696 0.81773 0.70591
 C1538 C 1.08697 0.80867 0.69314
 C1539 C 1.08383 0.78986 0.69019
 C1540 C 1.07130 0.78014 0.70016
 C1541 C 1.06158 0.78936 0.71316
 C1542 C 1.06437 0.80819 0.71579
 C1543 C 1.04957 0.77950 0.72358
 C1544 C 1.04721 0.76053 0.72120
 C1545 C 1.05677 0.75150 0.70817
 C1546 C 1.06864 0.76124 0.69764
 H1547 H 1.09145 0.78257 0.68051
 H1548 H 1.05698 0.81549 0.72566
 H1549 H 1.04241 0.78642 0.73385
 H1550 H 1.07599 0.75394 0.68776
 H1551 H 1.07886 0.83223 0.70836
 H1552 H 1.05519 0.73682 0.70633
 C1553 C 0.40593 0.71805 0.68990
 C1554 C 0.40460 0.69887 0.69216
 C1555 C 0.41534 0.69014 0.70462
 C1556 C 0.42708 0.70045 0.71478
 C1557 C 0.42807 0.71975 0.71250
 C1558 C 0.41752 0.72838 0.69998
 C1559 C 0.43944 0.73013 0.72290
 C1560 C 0.44994 0.72147 0.73547
 C1561 C 0.44906 0.70230 0.73762
 C1562 C 0.43773 0.69184 0.72731
 H1563 H 0.41461 0.67537 0.70641
 H1564 H 0.41812 0.74315 0.69807
 H1565 H 0.44009 0.74496 0.72133
 H1566 H 0.43716 0.67707 0.72926
 H1567 H 0.39775 0.72524 0.68057
 H1568 H 0.45701 0.69551 0.74741
 C1569 C 0.41566 0.18427 0.21096
 C1570 C 0.41434 0.18908 0.19341
 C1571 C 0.42527 0.20316 0.18677
 C1572 C 0.43702 0.21263 0.19759
 C1573 C 0.43782 0.20801 0.21533
 C1574 C 0.42725 0.19368 0.22183
 C1575 C 0.44891 0.21805 0.22631
 C1576 C 0.45928 0.23254 0.21977
 C1577 C 0.45877 0.23680 0.20211
 C1578 C 0.44773 0.22690 0.19107
 H1579 H 0.42457 0.20686 0.17323
 H1580 H 0.42774 0.18994 0.23537
 H1581 H 0.44928 0.21487 0.24000
 H1582 H 0.44732 0.23060 0.17751
 H1583 H 0.40735 0.17357 0.21647
 H1584 H 0.46665 0.24807 0.19698
 C1585 C -0.08578 0.71469 0.18432
 C1586 C -0.08877 0.69595 0.18793
 C1587 C -0.07982 0.68764 0.20189
 C1588 C -0.06830 0.69799 0.21224
 C1589 C -0.06572 0.71690 0.20865
 C1590 C -0.07441 0.72507 0.19459
 C1591 C -0.05475 0.72742 0.21934
 C1592 C -0.04622 0.71925 0.23352
 C1593 C -0.04856 0.70042 0.23689
 C1594 C -0.05950 0.68983 0.22631
 H1595 H -0.08182 0.67318 0.20473
 H1596 H -0.07257 0.73954 0.19166
 H1597 H -0.05299 0.74200 0.21683
 H1598 H -0.06129 0.67535 0.22926
 H1599 H -0.09255 0.72153 0.17378
 H1600 H -0.04217 0.69403 0.24792
 C1601 C -0.08593 0.22325 0.67587
 C1602 C -0.08673 0.20442 0.68010
 C1603 C -0.07579 0.19752 0.69335
 C1604 C -0.06442 0.20929 0.70242
 C1605 C -0.06396 0.22825 0.69822
 C1606 C -0.07468 0.23506 0.68487
 C1607 C -0.05293 0.24010 0.70758
 C1608 C -0.04226 0.23318 0.72095
 C1609 C -0.04266 0.21433 0.72497
 C1610 C -0.05363 0.20245 0.71574
 H1611 H -0.07608 0.18302 0.69665
 H1612 H -0.07449 0.24955 0.68148
 H1613 H -0.05267 0.25470 0.70457
 H1614 H -0.05382 0.18796 0.71914
 H1615 H -0.09427 0.22900 0.66583
 H1616 H -0.03461 0.20889 0.73539
 C1617 C 0.29343 0.41039 0.31040
 C1618 C 0.31151 0.40798 0.30612
 C1619 C 0.31851 0.41735 0.29167
 C1620 C 0.30759 0.42889 0.28163
 C1621 C 0.28939 0.43100 0.28601
 C1622 C 0.28248 0.42173 0.30042
 C1623 C 0.27838 0.44225 0.27586
 C1624 C 0.28535 0.45157 0.26146
 C1625 C 0.30342 0.44955 0.25719
 C1626 C 0.31449 0.43830 0.26721
 H1627 H 0.33245 0.41577 0.28830
 H1628 H 0.26856 0.42317 0.30394
 H1629 H 0.26439 0.44378 0.27909
 H1630 H 0.32839 0.43688 0.26365
 H1631 H 0.28757 0.40324 0.32131
 H1632 H 0.30888 0.45661 0.24602
 C1633 C 0.28906 -0.08852 0.81726
 C1634 C 0.30723 -0.09096 0.81307
 C1635 C 0.31421 -0.08120 0.79876
 C1636 C 0.30327 -0.06971 0.78871
 C1637 C 0.28503 -0.06786 0.79289
 C1638 C 0.27811 -0.07718 0.80726
 C1639 C 0.27397 -0.05683 0.78254
 C1640 C 0.28101 -0.04751 0.76818
 C1641 C 0.29917 -0.04917 0.76420
 C1642 C 0.31025 -0.06020 0.77439
 H1643 H 0.32811 -0.08246 0.79524
 H1644 H 0.26417 -0.07584 0.81070
 H1645 H 0.25991 -0.05553 0.78556
 H1646 H 0.32421 -0.06143 0.77099
 H1647 H 0.28301 -0.09557 0.82810
 H1648 H 0.30469 -0.04209 0.75307
 C1649 C 0.83001 0.41518 0.79120
 C1650 C 0.82078 0.40711 0.80522
 C1651 C 0.80262 0.41162 0.80754
 C1652 C 0.79383 0.42335 0.79586
 C1653 C 0.80331 0.43108 0.78181
 C1654 C 0.82140 0.42705 0.77970
 C1655 C 0.79446 0.44247 0.76992
 C1656 C 0.77621 0.44606 0.77184
 C1657 C 0.76684 0.43837 0.78579
 C1658 C 0.77561 0.42719 0.79781
 H1659 H 0.79506 0.40571 0.81810
 H1660 H 0.82888 0.43291 0.76902
 H1661 H 0.80162 0.44828 0.75900
 H1662 H 0.76809 0.42135 0.80847
 H1663 H 0.84398 0.41246 0.78893
 H1664 H 0.75270 0.44097 0.78730
 C1665 C 0.79156 -0.08826 0.32605
 C1666 C 0.80568 -0.09744 0.31762
 C1667 C 0.80916 -0.09298 0.30017
 C1668 C 0.79836 -0.08029 0.29125
 C1669 C 0.78412 -0.07152 0.29990
 C1670 C 0.78099 -0.07543 0.31733
 C1671 C 0.77297 -0.05930 0.29089
 C1672 C 0.77575 -0.05594 0.27326
 C1673 C 0.78995 -0.06458 0.26472
 C1674 C 0.80128 -0.07656 0.27367
 H1675 H 0.81985 -0.09971 0.29324
 H1676 H 0.77018 -0.06877 0.32418
 H1677 H 0.76186 -0.05276 0.29742
 H1678 H 0.81209 -0.08317 0.26678
 H1679 H 0.78848 -0.09083 0.33948
 H1680 H 0.79212 -0.06218 0.25107
 C1681 C 0.31064 0.59296 0.71103
 C1682 C 0.30635 0.59545 0.69352
 C1683 C 0.29196 0.58560 0.68658
 C1684 C 0.28176 0.57377 0.69704
 C1685 C 0.28599 0.57172 0.71471
 C1686 C 0.30054 0.58123 0.72152
 C1687 C 0.27543 0.56041 0.72530
 C1688 C 0.26079 0.55104 0.71843
 C1689 C 0.25679 0.55290 0.70085
 C1690 C 0.26722 0.56417 0.69020
 H1691 H 0.28861 0.58716 0.67307
 H1692 H 0.30398 0.57979 0.73503
 H1693 H 0.27844 0.55900 0.73892
 H1694 H 0.26380 0.56555 0.67669
 H1695 H 0.32155 0.60040 0.71679
 H1696 H 0.24543 0.54581 0.69546
 C1697 C 0.31366 1.09063 0.20807
 C1698 C 0.30964 1.09395 0.19062
 C1699 C 0.29468 1.08538 0.18334
 C1700 C 0.28369 1.07396 0.19341
 C1701 C 0.28767 1.07104 0.21103
 C1702 C 0.30276 1.07931 0.21819
 C1703 C 0.27641 1.06005 0.22122
 C1704 C 0.26134 1.05183 0.21397
 C1705 C 0.25754 1.05457 0.19644
 C1706 C 0.26865 1.06557 0.18621
 H1707 H 0.29152 1.08759 0.16986
 H1708 H 0.30602 1.07719 0.23166
 H1709 H 0.27928 1.05789 0.23479
 H1710 H 0.26540 1.06762 0.17273
 H1711 H 0.32499 1.09711 0.21407
 H1712 H 0.24589 1.04830 0.19077
 C1713 C 0.78855 0.59880 0.18881
 C1714 C 0.80724 0.59902 0.19002
 C1715 C 0.81564 0.58700 0.20177
 C1716 C 0.80553 0.57517 0.21233
 C1717 C 0.78674 0.57532 0.21115
 C1718 C 0.77840 0.58709 0.19928
 C1719 C 0.77661 0.56384 0.22200
 C1720 C 0.78502 0.55214 0.23393
 C1721 C 0.80367 0.55194 0.23495
 C1722 C 0.81388 0.56333 0.22420
 H1723 H 0.83003 0.58682 0.20276
 H1724 H 0.76402 0.58737 0.19821
 H1725 H 0.76218 0.56407 0.22129
 H1726 H 0.82826 0.56304 0.22530
 H1727 H 0.78165 0.60793 0.18000
 H1728 H 0.81030 0.54310 0.24424
 C1729 C 0.82824 1.09557 0.71184
 C1730 C 0.82174 1.09706 0.69489
 C1731 C 0.80692 1.08646 0.69010
 C1732 C 0.79854 1.07478 0.70212
 C1733 C 0.80501 1.07370 0.71921
 C1734 C 0.81994 1.08404 0.72389
 C1735 C 0.79630 1.06249 0.73138
 C1736 C 0.78132 1.05222 0.72663
 C1737 C 0.77508 1.05316 0.70961
 C1738 C 0.78364 1.06434 0.69742
 H1739 H 0.80187 1.08727 0.67704
 H1740 H 0.82508 1.08337 0.73692
 H1741 H 0.80104 1.06182 0.74457
 H1742 H 0.77850 1.06497 0.68439
 H1743 H 0.83953 1.10363 0.71597
 H1744 H 0.76342 1.04542 0.70586
 C1745 C 0.69203 0.59284 0.29140
 C1746 C 0.69681 0.59503 0.30880
 C1747 C 0.71186 0.58563 0.31515
 C1748 C 0.72193 0.57416 0.30426
 C1749 C 0.71701 0.57227 0.28677
 C1750 C 0.70204 0.58163 0.28050
 C1751 C 0.72719 0.56114 0.27578
 C1752 C 0.74214 0.55171 0.28207
 C1753 C 0.74691 0.55344 0.29946
 C1754 C 0.73688 0.56460 0.31050
 H1755 H 0.71563 0.58707 0.32855
 H1756 H 0.69810 0.58034 0.26712
 H1757 H 0.72358 0.55982 0.26231
 H1758 H 0.74085 0.56583 0.32387
 H1759 H 0.68068 0.60004 0.28605
 H1760 H 0.75851 0.54628 0.30441
 C1761 C 0.68487 1.07914 0.79545
 C1762 C 0.69344 1.09046 0.80760
 C1763 C 0.71210 1.08887 0.80940
 C1764 C 0.72195 1.07680 0.79892
 C1765 C 0.71308 1.06584 0.78667
 C1766 C 0.69456 1.06698 0.78518
 C1767 C 0.72291 1.05414 0.77589
 C1768 C 0.74153 1.05331 0.77715
 C1769 C 0.75030 1.06422 0.78932
 C1770 C 0.74058 1.07579 0.80023
 H1771 H 0.71918 1.09728 0.81856
 H1772 H 0.68755 1.05859 0.77591
 H1773 H 0.71617 1.04591 0.76630
 H1774 H 0.74764 1.08413 0.80949
 H1775 H 0.67060 1.07952 0.79371
 H1776 H 0.76469 1.06382 0.79030
 C1777 C 0.21241 0.59612 0.81143
 C1778 C 0.19375 0.59682 0.80987
 C1779 C 0.18542 0.58567 0.79751
 C1780 C 0.19557 0.57418 0.78677
 C1781 C 0.21432 0.57379 0.78840
 C1782 C 0.22259 0.58474 0.80081
 C1783 C 0.22451 0.56255 0.77751
 C1784 C 0.21619 0.55162 0.76507
 C1785 C 0.19757 0.55203 0.76351
 C1786 C 0.18732 0.56319 0.77432
 H1787 H 0.17106 0.58586 0.79620
 H1788 H 0.23694 0.58461 0.80221
 H1789 H 0.23891 0.56230 0.77863
 H1790 H 0.17297 0.56333 0.77286
 H1791 H 0.21929 0.60460 0.82067
 H1792 H 0.19103 0.54379 0.75383
 C1793 C 0.21156 1.08714 0.31225
 C1794 C 0.19370 1.09148 0.30859
 C1795 C 0.18570 1.08388 0.29388
 C1796 C 0.19556 1.07267 0.28267
 C1797 C 0.21364 1.06883 0.28628
 C1798 C 0.22144 1.07591 0.30121
 C1799 C 0.22369 1.05818 0.27478
 C1800 C 0.21584 1.05132 0.25977
 C1801 C 0.19786 1.05494 0.25632
 C1802 C 0.18775 1.06556 0.26771
 H1803 H 0.17199 1.08711 0.29077
 H1804 H 0.23524 1.07298 0.30424
 H1805 H 0.23761 1.05530 0.27738
 H1806 H 0.17391 1.06834 0.26475
 H1807 H 0.21803 1.09254 0.32358
 H1808 H 0.19172 1.04965 0.24474
 C1809 C 0.68513 0.40428 0.71524
 C1810 C 0.68969 0.40182 0.69778
 C1811 C 0.70431 0.41156 0.69091
 C1812 C 0.71442 0.42324 0.70137
 C1813 C 0.70981 0.42536 0.71894
 C1814 C 0.69508 0.41593 0.72570
 C1815 C 0.72012 0.43669 0.72951
 C1816 C 0.73497 0.44597 0.72273
 C1817 C 0.73948 0.44387 0.70527
 C1818 C 0.72922 0.43266 0.69463
 H1819 H 0.70796 0.41003 0.67747
 H1820 H 0.69137 0.41740 0.73914
 H1821 H 0.71673 0.43823 0.74304
 H1822 H 0.73298 0.43118 0.68120
 H1823 H 0.67407 0.39697 0.72101
 H1824 H 0.75104 0.45080 0.69995
 C1825 C 0.71657 -0.09785 0.18601
 C1826 C 0.69842 -0.09948 0.19036
 C1827 C 0.69161 -0.08900 0.20410
 C1828 C 0.70281 -0.07723 0.21345
 C1829 C 0.72107 -0.07596 0.20903
 C1830 C 0.72777 -0.08624 0.19525
 C1831 C 0.73239 -0.06464 0.21860
 C1832 C 0.72572 -0.05446 0.23251
 C1833 C 0.70756 -0.05559 0.23677
 C1834 C 0.69616 -0.06686 0.22727
 H1835 H 0.67764 -0.08995 0.20755
 H1836 H 0.74173 -0.08544 0.19170
 H1837 H 0.74645 -0.06385 0.21540
 H1838 H 0.68222 -0.06763 0.23087
 H1839 H 0.72233 -0.10581 0.17565
 H1840 H 0.70230 -0.04796 0.24761
 C1841 C 0.18725 0.40970 0.21425
 C1842 C 0.18960 0.40912 0.19625
 C1843 C 0.20294 0.42006 0.18858
 C1844 C 0.21398 0.43111 0.19873
 C1845 C 0.21170 0.43130 0.21685
 C1846 C 0.19821 0.42066 0.22445
 C1847 C 0.22304 0.44200 0.22703
 C1848 C 0.23650 0.45261 0.21930
 C1849 C 0.23863 0.45247 0.20131
 C1850 C 0.22742 0.44182 0.19109
 H1851 H 0.20479 0.41999 0.17472
 H1852 H 0.19625 0.42067 0.23831
 H1853 H 0.22147 0.44209 0.24094
 H1854 H 0.22936 0.44185 0.17723
 H1855 H 0.17719 0.40138 0.22056
 H1856 H 0.24907 0.46052 0.19524
 C1857 C 0.18502 -0.08990 0.71607
 C1858 C 0.18932 -0.09198 0.69852
 C1859 C 0.20374 -0.08202 0.69158
 C1860 C 0.21396 -0.07047 0.70205
 C1861 C 0.20973 -0.06879 0.71976
 C1862 C 0.19515 -0.07845 0.72660
 C1863 C 0.22025 -0.05763 0.73033
 C1864 C 0.23482 -0.04803 0.72336
 C1865 C 0.23884 -0.04960 0.70575
 C1866 C 0.22847 -0.06073 0.69515
 H1867 H 0.20709 -0.08325 0.67803
 H1868 H 0.19170 -0.07729 0.74014
 H1869 H 0.21722 -0.05643 0.74397
 H1870 H 0.23190 -0.06184 0.68160
 H1871 H 0.17407 -0.09745 0.72182
 H1872 H 0.25013 -0.04231 0.70028
 C1873 C 0.31483 0.29300 0.41076
 C1874 C 0.31248 0.31196 0.40768
 C1875 C 0.29881 0.32132 0.41656
 C1876 C 0.28732 0.31177 0.42781
 C1877 C 0.28962 0.29263 0.43036
 C1878 C 0.30353 0.28345 0.42197
 C1879 C 0.27773 0.28289 0.44094
 C1880 C 0.26352 0.29199 0.44899
 C1881 C 0.26142 0.31103 0.44675
 C1882 C 0.27330 0.32089 0.43626
 H1883 H 0.29684 0.33593 0.41455
 H1884 H 0.30548 0.26879 0.42383
 H1885 H 0.27924 0.26815 0.44266
 H1886 H 0.27132 0.33556 0.43448
 H1887 H 0.32516 0.28529 0.40428
 H1888 H 0.25040 0.31814 0.45285
 C1889 C 0.32714 0.78757 -0.08577
 C1890 C 0.32086 0.80568 -0.08801
 C1891 C 0.30590 0.81153 -0.07856
 C1892 C 0.29698 0.79934 -0.06741
 C1893 C 0.30308 0.78098 -0.06570
 C1894 C 0.31829 0.77532 -0.07475
 C1895 C 0.29364 0.76853 -0.05523
 C1896 C 0.27831 0.77429 -0.04639
 C1897 C 0.27257 0.79260 -0.04778
 C1898 C 0.28185 0.80507 -0.05823
 H1899 H 0.30107 0.82552 -0.07998
 H1900 H 0.32317 0.76133 -0.07355
 H1901 H 0.29799 0.75434 -0.05413
 H1902 H 0.27702 0.81909 -0.05934
 H1903 H 0.33856 0.78265 -0.09295
 H1904 H 0.26070 0.79711 -0.04102
 C1905 C 0.81401 0.28352 -0.09634
 C1906 C 0.81180 0.30273 -0.09752
 C1907 C 0.79919 0.31135 -0.08675
 C1908 C 0.78882 0.30090 -0.07516
 C1909 C 0.79113 0.28160 -0.07432
 C1910 C 0.80380 0.27308 -0.08486
 C1911 C 0.78050 0.27105 -0.06317
 C1912 C 0.76753 0.27947 -0.05283
 C1913 C 0.76537 0.29865 -0.05352
 C1914 C 0.77600 0.30932 -0.06457
 H1915 H 0.79738 0.32613 -0.08738
 H1916 H 0.80569 0.25830 -0.08439
 H1917 H 0.78206 0.25621 -0.06271
 H1918 H 0.77402 0.32409 -0.06502
 H1919 H 0.82341 0.27637 -0.10450
 H1920 H 0.75524 0.30527 -0.04573
 C1921 C 0.81819 0.78493 0.42365
 C1922 C 0.81249 0.80288 0.41942
 C1923 C 0.79703 0.80985 0.42741
 C1924 C 0.78704 0.79882 0.43881
 C1925 C 0.79266 0.78062 0.44242
 C1926 C 0.80839 0.77394 0.43501
 C1927 C 0.78226 0.76925 0.45306
 C1928 C 0.76631 0.77583 0.46014
 C1929 C 0.76093 0.79401 0.45690
 C1930 C 0.77126 0.80547 0.44631
 H1931 H 0.79251 0.82369 0.42454
 H1932 H 0.81292 0.76005 0.43771
 H1933 H 0.78632 0.75515 0.45557
 H1934 H 0.76674 0.81939 0.44373
 H1935 H 0.82998 0.77903 0.41786
 H1936 H 0.74858 0.79916 0.46229
 C1937 C 0.69943 0.31924 0.58089
 C1938 C 0.68547 0.30994 0.58939
 C1939 C 0.68150 0.29177 0.58457
 C1940 C 0.69181 0.28276 0.57205
 C1941 C 0.70614 0.29210 0.56400
 C1942 C 0.70963 0.31043 0.56830
 C1943 C 0.71710 0.28276 0.55224
 C1944 C 0.71399 0.26417 0.54854
 C1945 C 0.69955 0.25507 0.55633
 C1946 C 0.68845 0.26433 0.56790
 H1947 H 0.67088 0.28432 0.59100
 H1948 H 0.72049 0.31784 0.56218
 H1949 H 0.72845 0.28969 0.54645
 H1950 H 0.67754 0.25694 0.57395
 H1951 H 0.70264 0.33332 0.58409
 H1952 H 0.69713 0.24067 0.55370
 C1953 C 0.68238 0.78410 1.08543
 C1954 C 0.68633 0.80278 1.08809
 C1955 C 0.69972 0.81115 1.07800
 C1956 C 0.70950 0.80085 1.06596
 C1957 C 0.70576 0.78193 1.06387
 C1958 C 0.69200 0.77378 1.07345
 C1959 C 0.71617 0.77137 1.05260
 C1960 C 0.73025 0.77947 1.04337
 C1961 C 0.73364 0.79834 1.04515
 C1962 C 0.72329 0.80899 1.05633
 H1963 H 0.70279 0.82559 1.07969
 H1964 H 0.68893 0.75931 1.07195
 H1965 H 0.71365 0.75676 1.05127
 H1966 H 0.72634 0.82347 1.05774
 H1967 H 0.67224 0.77719 1.09298
 H1968 H 0.74459 0.80469 1.03820
 C1969 C 0.20899 0.31959 1.09362
 C1970 C 0.19161 0.31301 1.09651
 C1971 C 0.18576 0.29748 1.08740
 C1972 C 0.19717 0.28858 1.07569
 C1973 C 0.21471 0.29521 1.07316
 C1974 C 0.22043 0.31076 1.08210
 C1975 C 0.22633 0.28601 1.06192
 C1976 C 0.22062 0.27034 1.05311
 C1977 C 0.20315 0.26396 1.05537
 C1978 C 0.19147 0.27303 1.06659
 H1979 H 0.17236 0.29234 1.08939
 H1980 H 0.23382 0.31601 1.08032
 H1981 H 0.23989 0.29083 1.06018
 H1982 H 0.17809 0.26775 1.06831
 H1983 H 0.21399 0.33137 1.10055
 H1984 H 0.19868 0.25179 1.04867
 C1985 C 0.20739 0.81535 0.59155
 C1986 C 0.18934 0.81106 0.59443
 C1987 C 0.18145 0.79699 0.58468
 C1988 C 0.19156 0.78703 0.57262
 C1989 C 0.20978 0.79125 0.57022
 C1990 C 0.21749 0.80556 0.57958
 C1991 C 0.22011 0.78083 0.55878
 C1992 C 0.21248 0.76624 0.54969
 C1993 C 0.19432 0.76227 0.55183
 C1994 C 0.18389 0.77265 0.56319
 H1995 H 0.16753 0.79361 0.58656
 H1996 H 0.23144 0.80897 0.57786
 H1997 H 0.23418 0.78377 0.55717
 H1998 H 0.16995 0.76922 0.56484
 H1999 H 0.21395 0.82598 0.59885
 H2000 H 0.18836 0.75092 0.54497
 C2001 C 0.30908 0.71655 0.59014
 C2002 C 0.30624 0.69752 0.59216
 C2003 C 0.29306 0.68893 0.58219
 C2004 C 0.28256 0.69928 0.57072
 C2005 C 0.28526 0.71849 0.56919
 C2006 C 0.29868 0.72693 0.57880
 C2007 C 0.27427 0.72899 0.55835
 C2008 C 0.26069 0.72053 0.54894
 C2009 C 0.25827 0.70144 0.55018
 C2010 C 0.26915 0.69086 0.56099
 H2011 H 0.29084 0.67426 0.58344
 H2012 H 0.30094 0.74162 0.57775
 H2013 H 0.27605 0.74377 0.55740
 H2014 H 0.26690 0.67616 0.56196
 H2015 H 0.31899 0.72362 0.59770
 H2016 H 0.24773 0.69482 0.54303
 C2017 C 0.31904 0.21837 1.09156
 C2018 C 0.31538 0.19946 1.09324
 C2019 C 0.30162 0.19178 1.08334
 C2020 C 0.29128 0.20289 1.07240
 C2021 C 0.29477 0.22198 1.07123
 C2022 C 0.30882 0.22952 1.08068
 C2023 C 0.28394 0.23323 1.06088
 C2024 C 0.26974 0.22561 1.05166
 C2025 C 0.26653 0.20663 1.05258
 C2026 C 0.27725 0.19532 1.06288
 H2027 H 0.29879 0.17719 1.08427
 H2028 H 0.31171 0.24411 1.07988
 H2029 H 0.28634 0.24793 1.06014
 H2030 H 0.27440 0.18072 1.06359
 H2031 H 0.32946 0.22472 1.09904
 H2032 H 0.25556 0.20067 1.04553
 C2033 C 0.82351 0.71900 1.08417
 C2034 C 0.81691 0.70126 1.08767
 C2035 C 0.80181 0.69507 1.07872
 C2036 C 0.79321 0.70659 1.06673
 C2037 C 0.79975 0.72457 1.06367
 C2038 C 0.81500 0.73056 1.07233
 C2039 C 0.79071 0.73639 1.05229
 C2040 C 0.77528 0.73042 1.04391
 C2041 C 0.76906 0.71246 1.04665
 C2042 C 0.77798 0.70059 1.05797
 H2043 H 0.79669 0.68136 1.08113
 H2044 H 0.82019 0.74428 1.07012
 H2045 H 0.79541 0.75033 1.05020
 H2046 H 0.77280 0.68685 1.06011
 H2047 H 0.83502 0.72422 1.09093
 H2048 H 0.75707 0.70780 1.04030
 C2049 C 0.81901 0.20621 0.57648
 C2050 C 0.81142 0.19204 0.58655
 C2051 C 0.79337 0.18754 0.58401
 C2052 C 0.78299 0.19741 0.57206
 C2053 C 0.79074 0.21190 0.56240
 C2054 C 0.80879 0.21603 0.56456
 C2055 C 0.78022 0.22228 0.55101
 C2056 C 0.76205 0.21832 0.54906
 C2057 C 0.75447 0.20377 0.55854
 C2058 C 0.76487 0.19333 0.56990
 H2059 H 0.78719 0.17669 0.59154
 H2060 H 0.81496 0.22704 0.55719
 H2061 H 0.78602 0.23375 0.54396
 H2062 H 0.75868 0.18228 0.57720
 H2063 H 0.83286 0.20994 0.57785
 H2064 H 0.74042 0.20069 0.55730
 C2065 C 0.68046 0.71479 0.41302
 C2066 C 0.68592 0.69636 0.41124
 C2067 C 0.69940 0.68945 0.42208
 C2068 C 0.70740 0.70087 0.43442
 C2069 C 0.70195 0.71945 0.43580
 C2070 C 0.68841 0.72621 0.42514
 C2071 C 0.71036 0.73109 0.44758
 C2072 C 0.72409 0.72442 0.45809
 C2073 C 0.72925 0.70590 0.45699
 C2074 C 0.72094 0.69417 0.44524
 H2075 H 0.70364 0.67525 0.42094
 H2076 H 0.68409 0.74042 0.42603
 H2077 H 0.70648 0.74545 0.44838
 H2078 H 0.72530 0.67998 0.44441
 H2079 H 0.67030 0.72062 0.40477
 H2080 H 0.73998 0.70066 0.46494
 C2081 C 0.68032 0.22031 -0.09951
 C2082 C 0.68510 0.20161 -0.10020
 C2083 C 0.69782 0.19475 -0.08852
 C2084 C 0.70582 0.20647 -0.07646
 C2085 C 0.70115 0.22534 -0.07618
 C2086 C 0.68830 0.23207 -0.08766
 C2087 C 0.70965 0.23722 -0.06465
 C2088 C 0.72268 0.23049 -0.05331
 C2089 C 0.72701 0.21169 -0.05340
 C2090 C 0.71862 0.19975 -0.06486
 H2091 H 0.70150 0.18033 -0.08878
 H2092 H 0.68457 0.24648 -0.08761
 H2093 H 0.70643 0.25178 -0.06468
 H2094 H 0.72236 0.18534 -0.06486
 H2095 H 0.67068 0.22603 -0.10841
 H2096 H 0.73723 0.20638 -0.04486
 C2097 C 0.18464 0.71738 -0.08771
 C2098 C 0.18911 0.69875 -0.09003
 C2099 C 0.20343 0.69122 -0.08069
 C2100 C 0.21341 0.70222 -0.06950
 C2101 C 0.20904 0.72104 -0.06761
 C2102 C 0.19453 0.72843 -0.07663
 C2103 C 0.21938 0.73219 -0.05689
 C2104 C 0.23391 0.72471 -0.04795
 C2105 C 0.23804 0.70598 -0.04964
 C2106 C 0.22785 0.69479 -0.06036
 H2107 H 0.20690 0.67683 -0.08217
 H2108 H 0.19097 0.74281 -0.07529
 H2109 H 0.21625 0.74669 -0.05555
 H2110 H 0.23137 0.68039 -0.06162
 H2111 H 0.17378 0.72362 -0.09479
 H2112 H 0.24928 0.70012 -0.04281
 C2113 C 0.21356 0.20265 0.39853
 C2114 C 0.19482 0.20344 0.39839
 C2115 C 0.18605 0.21482 0.41039
 C2116 C 0.19589 0.22516 0.42233
 C2117 C 0.21469 0.22407 0.42226
 C2118 C 0.22337 0.21279 0.41034
 C2119 C 0.22459 0.23443 0.43398
 C2120 C 0.21601 0.24601 0.44579
 C2121 C 0.19734 0.24712 0.44585
 C2122 C 0.18732 0.23667 0.43427
 H2123 H 0.17164 0.21560 0.41053
 H2124 H 0.23778 0.21190 0.41007
 H2125 H 0.23902 0.23367 0.43384
 H2126 H 0.17293 0.23775 0.43452
 H2127 H 0.22084 0.19432 0.38938
 H2128 H 0.19056 0.25622 0.45474
 C2129 C 0.30797 0.40871 0.70932
 C2130 C 0.30318 0.40642 0.69194
 C2131 C 0.28853 0.41630 0.68538
 C2132 C 0.27866 0.42809 0.69608
 C2133 C 0.28346 0.42998 0.71361
 C2134 C 0.29818 0.42034 0.72005
 C2135 C 0.27333 0.44133 0.72444
 C2136 C 0.25857 0.45093 0.71795
 C2137 C 0.25398 0.44924 0.70051
 C2138 C 0.26396 0.43789 0.68963
 H2139 H 0.28478 0.41484 0.67198
 H2140 H 0.30204 0.42165 0.73344
 H2141 H 0.27680 0.44265 0.73794
 H2142 H 0.26010 0.43664 0.67623
 H2143 H 0.31906 0.40121 0.71482
 H2144 H 0.24254 0.45655 0.69542
 C2145 C 0.31000 0.90892 0.20914
 C2146 C 0.30757 0.90740 0.19121
 C2147 C 0.29415 0.91798 0.18322
 C2148 C 0.28310 0.92952 0.19303
 C2149 C 0.28554 0.93063 0.21106
 C2150 C 0.29911 0.92041 0.21895
 C2151 C 0.27424 0.94176 0.22095
 C2152 C 0.26055 0.95184 0.21304
 C2153 C 0.25822 0.95082 0.19513
 C2154 C 0.26946 0.93978 0.18516
 H2155 H 0.29214 0.91719 0.16943
 H2156 H 0.30117 0.92114 0.23276
 H2157 H 0.27596 0.94253 0.23481
 H2158 H 0.26738 0.93910 0.17136
 H2159 H 0.32011 0.90101 0.21576
 H2160 H 0.24759 0.95847 0.18893
 C2161 C 0.78453 0.40634 0.18587
 C2162 C 0.80316 0.40510 0.18737
 C2163 C 0.81190 0.41647 0.19928
 C2164 C 0.80218 0.42854 0.20981
 C2165 C 0.78342 0.42935 0.20842
 C2166 C 0.77475 0.41833 0.19630
 C2167 C 0.77364 0.44094 0.21937
 C2168 C 0.78238 0.45179 0.23162
 C2169 C 0.80102 0.45108 0.23280
 C2170 C 0.81086 0.43959 0.22194
 H2171 H 0.82626 0.41590 0.20047
 H2172 H 0.76039 0.41880 0.19505
 H2173 H 0.75923 0.44140 0.21855
 H2174 H 0.82523 0.43915 0.22319
 H2175 H 0.77737 0.39775 0.17691
 H2176 H 0.80790 0.45922 0.24234
 C2177 C 0.82333 0.90921 0.71103
 C2178 C 0.81608 0.90646 0.69453
 C2179 C 0.80069 0.91629 0.68974
 C2180 C 0.79257 0.92856 0.70132
 C2181 C 0.79986 0.93092 0.71796
 C2182 C 0.81528 0.92128 0.72263
 C2183 C 0.79148 0.94270 0.72974
 C2184 C 0.77598 0.95223 0.72506
 C2185 C 0.76893 0.95013 0.70847
 C2186 C 0.77717 0.93836 0.69665
 H2187 H 0.79504 0.91446 0.67702
 H2188 H 0.82104 0.92293 0.73532
 H2189 H 0.79684 0.94432 0.74261
 H2190 H 0.77140 0.93677 0.68396
 H2191 H 0.83504 0.90174 0.71519
 H2192 H 0.75689 0.95738 0.70480
 C2193 C 0.68347 0.56880 0.69972
 C2194 C 0.69142 0.58145 0.68825
 C2195 C 0.71008 0.58146 0.68641
 C2196 C 0.72066 0.56940 0.69623
 C2197 C 0.71250 0.55703 0.70797
 C2198 C 0.69390 0.55670 0.70947
 C2199 C 0.72307 0.54544 0.71823
 C2200 C 0.74172 0.54591 0.71681
 C2201 C 0.74974 0.55815 0.70506
 C2202 C 0.73929 0.56977 0.69480
 H2203 H 0.71648 0.59116 0.67774
 H2204 H 0.68742 0.54721 0.71831
 H2205 H 0.71687 0.53625 0.72754
 H2206 H 0.74579 0.57921 0.68592
 H2207 H 0.66915 0.56825 0.70125
 H2208 H 0.76411 0.55880 0.70396
 C2209 C 0.71831 0.08836 0.18876
 C2210 C 0.70024 0.09132 0.19279
 C2211 C 0.69267 0.08183 0.20691
 C2212 C 0.70304 0.06959 0.21683
 C2213 C 0.72123 0.06696 0.21265
 C2214 C 0.72869 0.07635 0.19859
 C2215 C 0.73174 0.05511 0.22270
 C2216 C 0.72434 0.04574 0.23684
 C2217 C 0.70626 0.04817 0.24089
 C2218 C 0.69566 0.06002 0.23094
 H2219 H 0.67874 0.08386 0.21012
 H2220 H 0.74261 0.07450 0.19524
 H2221 H 0.74574 0.05325 0.21965
 H2222 H 0.68176 0.06181 0.23436
 H2223 H 0.72465 0.09560 0.17817
 H2224 H 0.70045 0.04106 0.25187
 C2225 C 0.22025 0.59772 0.17737
 C2226 C 0.20256 0.59816 0.18342
 C2227 C 0.19774 0.58699 0.19755
 C2228 C 0.21040 0.57545 0.20546
 C2229 C 0.22817 0.57527 0.19930
 C2230 C 0.23293 0.58645 0.18527
 C2231 C 0.24089 0.56397 0.20733
 C2232 C 0.23603 0.55267 0.22128
 C2233 C 0.21837 0.55280 0.22729
 C2234 C 0.20563 0.56411 0.21944
 H2235 H 0.18413 0.58708 0.20226
 H2236 H 0.24649 0.58650 0.18040
 H2237 H 0.25457 0.56393 0.20277
 H2238 H 0.19209 0.56405 0.22435
 H2239 H 0.22443 0.60632 0.16666
 H2240 H 0.21453 0.54425 0.23817
 C2241 C 0.22342 0.09689 0.67682
 C2242 C 0.20501 0.09664 0.68032
 C2243 C 0.19852 0.08486 0.69337
 C2244 C 0.21021 0.07377 0.70298
 C2245 C 0.22870 0.07435 0.69949
 C2246 C 0.23514 0.08586 0.68632
 C2247 C 0.24042 0.06352 0.70932
 C2248 C 0.23385 0.05205 0.72250
 C2249 C 0.21549 0.05152 0.72588
 C2250 C 0.20373 0.06225 0.71616
 H2251 H 0.18438 0.08428 0.69614
 H2252 H 0.24927 0.08647 0.68346
 H2253 H 0.25464 0.06400 0.70680
 H2254 H 0.18961 0.06165 0.71904
 H2255 H 0.22889 0.10585 0.66696
 H2256 H 0.21031 0.04285 0.73615
 C2257 C 0.30046 0.57730 0.31662
 C2258 C 0.31308 0.58920 0.30915
 C2259 C 0.31705 0.58771 0.29149
 C2260 C 0.30771 0.57518 0.28119
 C2261 C 0.29468 0.56362 0.28880
 C2262 C 0.29143 0.56452 0.30657
 C2263 C 0.28462 0.55186 0.27843
 C2264 C 0.28722 0.55169 0.26052
 C2265 C 0.30029 0.56299 0.25303
 C2266 C 0.31061 0.57454 0.26331
 H2267 H 0.32663 0.59696 0.28558
 H2268 H 0.28154 0.55572 0.31261
 H2269 H 0.27432 0.54331 0.28415
 H2270 H 0.32048 0.58333 0.25724
 H2271 H 0.29733 0.57810 0.33025
 H2272 H 0.30230 0.56305 0.23918
 C2273 C 0.28545 0.09234 0.81669
 C2274 C 0.30375 0.09479 0.81348
 C2275 C 0.31166 0.08571 0.79940
 C2276 C 0.30140 0.07450 0.78861
 C2277 C 0.28297 0.07237 0.79188
 C2278 C 0.27516 0.08127 0.80598
 C2279 C 0.27264 0.06145 0.78094
 C2280 C 0.28053 0.05251 0.76688
 C2281 C 0.29883 0.05452 0.76373
 C2282 C 0.30922 0.06545 0.77453
 H2283 H 0.32577 0.08728 0.79684
 H2284 H 0.26106 0.07978 0.80867
 H2285 H 0.25848 0.05987 0.78331
 H2286 H 0.32332 0.06690 0.77183
 H2287 H 0.27893 0.09924 0.82730
 H2288 H 0.30501 0.04770 0.75286
 C2289 C 0.78961 0.58744 0.81218
 C2290 C 0.80818 0.58856 0.80996
 C2291 C 0.81635 0.57819 0.79684
 C2292 C 0.80610 0.56704 0.78600
 C2293 C 0.78741 0.56628 0.78824
 C2294 C 0.77932 0.57644 0.80141
 C2295 C 0.77711 0.55546 0.77719
 C2296 C 0.78527 0.54529 0.76405
 C2297 C 0.80381 0.54591 0.76195
 C2298 C 0.81419 0.55673 0.77286
 H2299 H 0.83066 0.57873 0.79507
 H2300 H 0.76502 0.57599 0.80330
 H2301 H 0.76275 0.55492 0.77875
 H2302 H 0.82849 0.55712 0.77096
 H2303 H 0.78289 0.59534 0.82204
 H2304 H 0.81020 0.53812 0.75179
 C2305 C 0.78458 0.08565 0.32613
 C2306 C 0.80211 0.08856 0.32025
 C2307 C 0.80814 0.07908 0.30557
 C2308 C 0.79674 0.06707 0.29676
 C2309 C 0.77902 0.06461 0.30261
 C2310 C 0.77314 0.07385 0.31737
 C2311 C 0.76741 0.05320 0.29344
 C2312 C 0.77332 0.04408 0.27860
 C2313 C 0.79099 0.04626 0.27302
 C2314 C 0.80264 0.05767 0.28204
 H2315 H 0.82166 0.08103 0.30099
 H2316 H 0.75962 0.07210 0.32205
 H2317 H 0.75371 0.05156 0.29767
 H2318 H 0.81617 0.05934 0.27737
 H2319 H 0.77950 0.09284 0.33729
 H2320 H 0.79563 0.03938 0.26149
 C2321 C 0.69074 0.40920 0.28937
 C2322 C 0.69546 0.40704 0.30681
 C2323 C 0.71012 0.41690 0.31321
 C2324 C 0.71998 0.42863 0.30232
 C2325 C 0.71520 0.43045 0.28476
 C2326 C 0.70054 0.42074 0.27845
 C2327 C 0.72526 0.44183 0.27377
 C2328 C 0.73994 0.45155 0.28014
 C2329 C 0.74455 0.44982 0.29760
 C2330 C 0.73463 0.43846 0.30863
 H2331 H 0.71382 0.41555 0.32665
 H2332 H 0.69670 0.42197 0.26503
 H2333 H 0.72178 0.44311 0.26025
 H2334 H 0.73849 0.43725 0.32204
 H2335 H 0.67966 0.40170 0.28400
 H2336 H 0.75596 0.45713 0.30260
 C2337 C 0.68566 0.91336 0.78668
 C2338 C 0.69139 0.91033 0.80373
 C2339 C 0.70684 0.91930 0.80952
 C2340 C 0.71654 0.93089 0.79838
 C2341 C 0.71076 0.93352 0.78120
 C2342 C 0.69525 0.92481 0.77553
 C2343 C 0.72069 0.94464 0.76989
 C2344 C 0.73626 0.95327 0.77556
 C2345 C 0.74188 0.95082 0.79266
 C2346 C 0.73207 0.93972 0.80402
 H2347 H 0.71135 0.91727 0.82266
 H2348 H 0.69064 0.92669 0.76241
 H2349 H 0.71643 0.94650 0.75664
 H2350 H 0.73671 0.93789 0.81714
 H2351 H 0.67394 0.90658 0.78174
 H2352 H 0.75397 0.95734 0.79712
 C2353 C 0.21143 0.40798 0.81339
 C2354 C 0.19281 0.40701 0.81160
 C2355 C 0.18447 0.41786 0.79886
 C2356 C 0.19458 0.42925 0.78789
 C2357 C 0.21331 0.42984 0.78966
 C2358 C 0.22158 0.41926 0.80252
 C2359 C 0.22346 0.44087 0.77844
 C2360 C 0.21511 0.45140 0.76557
 C2361 C 0.19651 0.45087 0.76394
 C2362 C 0.18630 0.43990 0.77505
 H2363 H 0.17014 0.41748 0.79741
 H2364 H 0.23591 0.41957 0.80406
 H2365 H 0.23785 0.44124 0.77962
 H2366 H 0.17196 0.43962 0.77350
 H2367 H 0.21828 0.39973 0.82296
 H2368 H 0.18996 0.45885 0.75395
 C2369 C 0.21153 0.90968 0.30735
 C2370 C 0.19298 0.90795 0.30531
 C2371 C 0.18452 0.91810 0.29214
 C2372 C 0.19445 0.92944 0.28099
 C2373 C 0.21310 0.93079 0.28306
 C2374 C 0.22147 0.92097 0.29635
 C2375 C 0.22310 0.94179 0.27174
 C2376 C 0.21468 0.95155 0.25840
 C2377 C 0.19617 0.95027 0.25639
 C2378 C 0.18609 0.93932 0.26764
 H2379 H 0.17025 0.91713 0.29040
 H2380 H 0.23576 0.92189 0.29813
 H2381 H 0.23743 0.94278 0.27321
 H2382 H 0.17181 0.93846 0.26584
 H2383 H 0.21855 0.90212 0.31727
 H2384 H 0.18958 0.95769 0.24606
 C2385 C 0.40512 0.31157 0.70988
 C2386 C 0.40205 0.30573 0.69289
 C2387 C 0.41107 0.29006 0.68677
 C2388 C 0.42276 0.28023 0.69755
 C2389 C 0.42548 0.28613 0.71468
 C2390 C 0.41669 0.30186 0.72067
 C2391 C 0.43677 0.27607 0.72561
 C2392 C 0.44547 0.26026 0.71959
 C2393 C 0.44290 0.25454 0.70254
 C2394 C 0.43164 0.26448 0.69156
 H2395 H 0.40902 0.28546 0.67367
 H2396 H 0.41864 0.30656 0.73377
 H2397 H 0.43872 0.28039 0.73883
 H2398 H 0.42972 0.25975 0.67847
 H2399 H 0.39831 0.32346 0.71506
 H2400 H 0.44946 0.24226 0.69784
 C2401 C 0.40953 0.78336 0.18733
 C2402 C 0.40773 0.80245 0.18973
 C2403 C 0.41809 0.81105 0.20245
 C2404 C 0.42948 0.80068 0.21305
 C2405 C 0.43073 0.78143 0.21080
 C2406 C 0.42091 0.77296 0.19775
 C2407 C 0.44150 0.77094 0.22187
 C2408 C 0.45105 0.77945 0.23512
 C2409 C 0.45000 0.79859 0.23714
 C2410 C 0.43933 0.80916 0.22614
 H2411 H 0.41712 0.82577 0.20435
 H2412 H 0.42177 0.75823 0.19583
 H2413 H 0.44230 0.75613 0.22038
 H2414 H 0.43853 0.82390 0.22805
 H2415 H 0.40177 0.77627 0.17771
 H2416 H 0.45723 0.80526 0.24741
 C2417 C 0.90604 0.31191 0.20967
 C2418 C 0.90418 0.30624 0.19246
 C2419 C 0.91434 0.29123 0.18655
 C2420 C 0.92593 0.28182 0.19776
 C2421 C 0.92734 0.28744 0.21513
 C2422 C 0.91747 0.30258 0.22090
 C2423 C 0.93839 0.27766 0.22651
 C2424 C 0.94814 0.26241 0.22073
 C2425 C 0.94696 0.25705 0.20342
 C2426 C 0.93594 0.26670 0.19199
 H2427 H 0.91323 0.28682 0.17328
 H2428 H 0.91842 0.30708 0.23417
 H2429 H 0.93928 0.28171 0.23992
 H2430 H 0.93506 0.26221 0.17873
 H2431 H 0.89833 0.32330 0.21466
 H2432 H 0.95434 0.24520 0.19888
 C2433 C 0.91145 0.78243 0.68207
 C2434 C 0.90995 0.80134 0.68561
 C2435 C 0.91985 0.80876 0.69928
 C2436 C 0.93075 0.79742 0.70950
 C2437 C 0.93183 0.77837 0.70600
 C2438 C 0.92227 0.77106 0.69217
 C2439 C 0.94228 0.76692 0.71651
 C2440 C 0.95167 0.77430 0.73043
 C2441 C 0.95079 0.79321 0.73375
 C2442 C 0.94039 0.80473 0.72333
 H2443 H 0.91904 0.82332 0.70207
 H2444 H 0.92297 0.75650 0.68930
 H2445 H 0.94302 0.75227 0.71403
 H2446 H 0.93975 0.81929 0.72619
 H2447 H 0.90395 0.77625 0.67174
 H2448 H 0.95800 0.79898 0.74450
 C2449 C 0.59388 0.28708 0.31771
 C2450 C 0.59600 0.30574 0.31327
 C2451 C 0.58680 0.31286 0.29892
 C2452 C 0.57581 0.30146 0.28903
 C2453 C 0.57406 0.28263 0.29346
 C2454 C 0.58306 0.27562 0.30788
 C2455 C 0.56349 0.27111 0.28330
 C2456 C 0.55451 0.27821 0.26889
 C2457 C 0.55608 0.29694 0.26467
 C2458 C 0.56666 0.30850 0.27467
 H2459 H 0.58813 0.32726 0.29545
 H2460 H 0.58185 0.26123 0.31146
 H2461 H 0.56228 0.25661 0.28649
 H2462 H 0.56781 0.32289 0.27110
 H2463 H 0.60089 0.28117 0.32859
 H2464 H 0.54928 0.30251 0.25349
 C2465 C 0.58904 0.81668 0.78801
 C2466 C 0.59165 0.81134 0.80529
 C2467 C 0.58230 0.79604 0.81185
 C2468 C 0.57079 0.78602 0.80123
 C2469 C 0.56859 0.79132 0.78379
 C2470 C 0.57765 0.80675 0.77735
 C2471 C 0.55751 0.78099 0.77303
 C2472 C 0.54851 0.76554 0.77955
 C2473 C 0.55054 0.76045 0.79691
 C2474 C 0.56161 0.77063 0.80770
 H2475 H 0.58397 0.79188 0.82519
 H2476 H 0.57609 0.81102 0.76402
 H2477 H 0.55591 0.78485 0.75959
 H2478 H 0.56312 0.76638 0.82104
 H2479 H 0.59612 0.82830 0.78254
 H2480 H 0.54368 0.74849 0.80202
 C2481 C 0.09214 0.28650 0.81662
 C2482 C 0.09457 0.30524 0.81263
 C2483 C 0.08622 0.31268 0.79793
 C2484 C 0.07572 0.30156 0.78731
 C2485 C 0.07356 0.28268 0.79137
 C2486 C 0.08177 0.27532 0.80607
 C2487 C 0.06327 0.27150 0.78062
 C2488 C 0.05498 0.27901 0.76601
 C2489 C 0.05708 0.29775 0.76207
 C2490 C 0.06739 0.30896 0.77265
 H2491 H 0.08778 0.32713 0.79477
 H2492 H 0.08026 0.26089 0.80937
 H2493 H 0.06162 0.25700 0.78360
 H2494 H 0.06888 0.32339 0.76935
 H2495 H 0.09851 0.28033 0.82774
 H2496 H 0.05075 0.30363 0.75077
 C2497 C 0.09175 0.81118 0.29191
 C2498 C 0.09224 0.80851 0.30989
 C2499 C 0.08121 0.79501 0.31744
 C2500 C 0.07000 0.78423 0.30713
 C2501 C 0.06987 0.78695 0.28905
 C2502 C 0.08070 0.80050 0.28160
 C2503 C 0.05909 0.77591 0.27866
 C2504 C 0.04835 0.76222 0.28609
 C2505 C 0.04831 0.75966 0.30404
 C2506 C 0.05905 0.77062 0.31451
 H2507 H 0.08131 0.79288 0.33128
 H2508 H 0.08076 0.80274 0.26776
 H2509 H 0.05914 0.77779 0.26477
 H2510 H 0.05894 0.76833 0.32834
 H2511 H 0.10017 0.82128 0.28564
 H2512 H 0.04015 0.74901 0.30987
 C2513 C 0.58955 0.67340 0.71860
 C2514 C 0.58966 0.67855 0.70108
 C2515 C 0.57860 0.69309 0.69558
 C2516 C 0.56782 0.70253 0.70743
 C2517 C 0.56807 0.69738 0.72505
 C2518 C 0.57888 0.68274 0.73047
 C2519 C 0.55764 0.70710 0.73698
 C2520 C 0.54688 0.72178 0.73147
 C2521 C 0.54656 0.72674 0.71396
 C2522 C 0.55694 0.71716 0.70200
 H2523 H 0.57835 0.69712 0.68211
 H2524 H 0.57922 0.67861 0.74393
 H2525 H 0.55791 0.70336 0.75054
 H2526 H 0.55659 0.72130 0.68855
 H2527 H 0.59798 0.66237 0.72328
 H2528 H 0.53841 0.73817 0.70962
 C2529 C 0.60110 0.21809 0.18257
 C2530 C 0.60203 0.19930 0.18695
 C2531 C 0.59088 0.19242 0.20011
 C2532 C 0.57901 0.20418 0.20880
 C2533 C 0.57844 0.22310 0.20438
 C2534 C 0.58947 0.22987 0.19122
 C2535 C 0.56698 0.23498 0.21331
 C2536 C 0.55596 0.22820 0.22651
 C2537 C 0.55635 0.20940 0.23072
 C2538 C 0.56780 0.19745 0.22192
 H2539 H 0.59135 0.17794 0.20353
 H2540 H 0.58919 0.24433 0.18768
 H2541 H 0.56671 0.24954 0.21015
 H2542 H 0.56801 0.18301 0.22548
 H2543 H 0.60963 0.22387 0.17265
 H2544 H 0.54797 0.20406 0.24099
 C2545 C 0.09474 0.71411 0.19504
 C2546 C 0.09632 0.69487 0.19661
 C2547 C 0.08587 0.68556 0.20900
 C2548 C 0.07395 0.69536 0.21957
 C2549 C 0.07261 0.71471 0.21781
 C2550 C 0.08304 0.72391 0.20553
 C2551 C 0.06096 0.72459 0.22844
 C2552 C 0.05051 0.71547 0.24080
 C2553 C 0.05173 0.69627 0.24250
 C2554 C 0.06336 0.68626 0.23193
 H2555 H 0.08688 0.67073 0.21030
 H2556 H 0.08220 0.73873 0.20407
 H2557 H 0.06005 0.73945 0.22721
 H2558 H 0.06417 0.67145 0.23349
 H2559 H 0.10275 0.72174 0.18586
 H2560 H 0.04381 0.68911 0.25212
 C2561 C 0.09817 0.18442 0.70915
 C2562 C 0.09786 0.18846 0.69138
 C2563 C 0.08641 0.20240 0.68531
 C2564 C 0.07572 0.21238 0.69680
 C2565 C 0.07632 0.20836 0.71465
 C2566 C 0.08750 0.19428 0.72067
 C2567 C 0.06585 0.21859 0.72617
 C2568 C 0.05472 0.23268 0.72000
 C2569 C 0.05419 0.23661 0.70227
 C2570 C 0.06456 0.22649 0.69073
 H2571 H 0.08580 0.20559 0.67167
 H2572 H 0.08813 0.19100 0.73431
 H2573 H 0.06632 0.21567 0.73989
 H2574 H 0.06396 0.22979 0.67709
 H2575 H 0.10687 0.17386 0.71428
 H2576 H 0.04580 0.24760 0.69740
 C2577 C 0.40220 0.72304 0.32330
 C2578 C 0.40160 0.70418 0.31943
 C2579 C 0.41360 0.69705 0.30718
 C2580 C 0.42576 0.70864 0.29864
 C2581 C 0.42592 0.72767 0.30233
 C2582 C 0.41420 0.73469 0.31479
 C2583 C 0.43759 0.73937 0.29329
 C2584 C 0.44920 0.73224 0.28076
 C2585 C 0.44917 0.71330 0.27737
 C2586 C 0.43757 0.70157 0.28627
 H2587 H 0.41350 0.68250 0.30423
 H2588 H 0.41417 0.74923 0.31781
 H2589 H 0.43754 0.75404 0.29581
 H2590 H 0.43764 0.68702 0.28329
 H2591 H 0.39307 0.72892 0.33260
 H2592 H 0.45794 0.70768 0.26759
 C2593 C 0.40254 0.21600 0.81536
 C2594 C 0.40200 0.19668 0.81450
 C2595 C 0.41340 0.18759 0.80287
 C2596 C 0.42481 0.19764 0.79197
 C2597 C 0.42492 0.21707 0.79271
 C2598 C 0.41387 0.22610 0.80456
 C2599 C 0.43585 0.22715 0.78138
 C2600 C 0.44672 0.21802 0.76939
 C2601 C 0.44671 0.19873 0.76887
 C2602 C 0.43589 0.18859 0.78012
 H2603 H 0.41334 0.17271 0.80218
 H2604 H 0.41381 0.24098 0.80532
 H2605 H 0.43578 0.24207 0.78170
 H2606 H 0.43598 0.17370 0.77937
 H2607 H 0.39390 0.22343 0.82409
 H2608 H 0.45490 0.19155 0.75954
 C2609 C 0.92178 0.67416 0.79932
 C2610 C 0.91180 0.68422 0.81145
 C2611 C 0.91464 0.70331 0.81274
 C2612 C 0.92680 0.71227 0.80175
 C2613 C 0.93639 0.70204 0.78934
 C2614 C 0.93393 0.68298 0.78838
 C2615 C 0.94800 0.71110 0.77789
 C2616 C 0.95024 0.73025 0.77878
 C2617 C 0.94080 0.74028 0.79125
 C2618 C 0.92922 0.73137 0.80269
 H2619 H 0.90711 0.71136 0.82193
 H2620 H 0.94126 0.67490 0.77902
 H2621 H 0.95504 0.70337 0.76807
 H2622 H 0.92196 0.73944 0.81210
 H2623 H 0.92016 0.65944 0.79813
 H2624 H 0.94228 0.75509 0.79197
 C2625 C 0.89939 0.21569 0.31201
 C2626 C 0.89929 0.19635 0.31117
 C2627 C 0.91159 0.18749 0.30024
 C2628 C 0.92363 0.19781 0.29018
 C2629 C 0.92336 0.21724 0.29103
 C2630 C 0.91128 0.22602 0.30205
 C2631 C 0.93499 0.22760 0.28065
 C2632 C 0.94695 0.21882 0.26945
 C2633 C 0.94732 0.19953 0.26878
 C2634 C 0.93579 0.18908 0.27911
 H2635 H 0.91182 0.17261 0.29954
 H2636 H 0.91089 0.24090 0.30284
 H2637 H 0.93462 0.24252 0.28107
 H2638 H 0.93620 0.17421 0.27827
 H2639 H 0.89004 0.22298 0.32013
 H2640 H 0.95635 0.19260 0.26002
 C2641 C 0.30902 0.28710 0.58654
 C2642 C 0.30541 0.30580 0.58958
 C2643 C 0.29246 0.31481 0.57948
 C2644 C 0.28293 0.30516 0.56688
 C2645 C 0.28642 0.28625 0.56429
 C2646 C 0.29962 0.27742 0.57403
 C2647 C 0.27639 0.27638 0.55227
 C2648 C 0.26291 0.28516 0.54278
 C2649 C 0.25971 0.30400 0.54515
 C2650 C 0.26969 0.31397 0.55708
 H2651 H 0.28964 0.32926 0.58149
 H2652 H 0.30247 0.26294 0.57218
 H2653 H 0.27877 0.26179 0.55050
 H2654 H 0.26683 0.32845 0.55888
 H2655 H 0.31880 0.27971 0.59412
 H2656 H 0.24920 0.31087 0.53804
 C2657 C 0.29101 0.81917 0.08556
 C2658 C 0.30767 0.81174 0.09009
 C2659 C 0.31359 0.79558 0.08199
 C2660 C 0.30279 0.78662 0.06995
 C2661 C 0.28582 0.79392 0.06589
 C2662 C 0.28017 0.81033 0.07359
 C2663 C 0.27465 0.78447 0.05451
 C2664 C 0.28031 0.76789 0.04714
 C2665 C 0.29731 0.76093 0.05085
 C2666 C 0.30851 0.77025 0.06217
 H2667 H 0.32650 0.78983 0.08517
 H2668 H 0.26723 0.81613 0.07060
 H2669 H 0.26146 0.78974 0.05164
 H2670 H 0.32149 0.76449 0.06508
 H2671 H 0.28605 0.83153 0.09164
 H2672 H 0.30172 0.74809 0.04524
 C2673 C 0.81257 0.28163 0.08621
 C2674 C 0.80881 0.30046 0.08833
 C2675 C 0.79613 0.30889 0.07751
 C2676 C 0.78701 0.29856 0.06507
 C2677 C 0.79060 0.27954 0.06344
 C2678 C 0.80354 0.27128 0.07391
 C2679 C 0.78088 0.26901 0.05166
 C2680 C 0.76764 0.27723 0.04145
 C2681 C 0.76441 0.29619 0.04282
 C2682 C 0.77406 0.30681 0.05451
 H2683 H 0.79322 0.32342 0.07882
 H2684 H 0.80648 0.25673 0.07280
 H2685 H 0.78327 0.25433 0.05069
 H2686 H 0.77113 0.32136 0.05556
 H2687 H 0.82215 0.27469 0.09437
 H2688 H 0.75407 0.30264 0.03516
 C2689 C 0.81304 0.78486 0.58988
 C2690 C 0.80724 0.80272 0.59404
 C2691 C 0.79132 0.80940 0.58676
 C2692 C 0.78131 0.79835 0.57557
 C2693 C 0.78726 0.78036 0.57168
 C2694 C 0.80315 0.77379 0.57885
 C2695 C 0.77715 0.76914 0.56082
 C2696 C 0.76121 0.77570 0.55373
 C2697 C 0.75540 0.79360 0.55741
 C2698 C 0.76540 0.80488 0.56827
 H2699 H 0.78673 0.82317 0.58971
 H2700 H 0.80788 0.76003 0.57602
 H2701 H 0.78156 0.75527 0.55796
 H2702 H 0.76063 0.81863 0.57105
 H2703 H 0.82509 0.77919 0.59539
 H2704 H 0.74306 0.79873 0.55200
 C2705 C 0.27620 0.67959 0.41149
 C2706 C 0.29349 0.68676 0.40927
 C2707 C 0.29901 0.70129 0.41993
 C2708 C 0.28724 0.70891 0.43212
 C2709 C 0.26975 0.70188 0.43373
 C2710 C 0.26447 0.68707 0.42354
 C2711 C 0.25768 0.71003 0.44520
 C2712 C 0.26286 0.72510 0.45515
 C2713 C 0.28034 0.73178 0.45389
 C2714 C 0.29248 0.72372 0.44246
 H2715 H 0.31226 0.70698 0.41856
 H2716 H 0.25117 0.68143 0.42472
 H2717 H 0.24412 0.70497 0.44615
 H2718 H 0.30583 0.72930 0.44146
 H2719 H 0.27145 0.66828 0.40380
 H2720 H 0.28441 0.74352 0.46145
 C2721 C 0.28533 0.18289 0.92065
 C2722 C 0.30200 0.19013 0.91581
 C2723 C 0.30787 0.20651 0.92354
 C2724 C 0.29707 0.21575 0.93552
 C2725 C 0.28019 0.20849 0.93996
 C2726 C 0.27454 0.19196 0.93260
 C2727 C 0.26909 0.21808 0.95141
 C2728 C 0.27464 0.23486 0.95837
 C2729 C 0.29149 0.24189 0.95417
 C2730 C 0.30269 0.23236 0.94287
 H2731 H 0.32075 0.21220 0.92017
 H2732 H 0.26165 0.18620 0.93587
 H2733 H 0.25599 0.21277 0.95462
 H2734 H 0.31559 0.23813 0.93964
 H2735 H 0.28033 0.17040 0.91493
 H2736 H 0.29582 0.25489 0.95945
 C2737 C 0.78866 0.68448 0.91036
 C2738 C 0.80674 0.68892 0.90804
 C2739 C 0.81400 0.70365 0.91735
 C2740 C 0.80329 0.71395 0.92864
 C2741 C 0.78504 0.70955 0.93055
 C2742 C 0.77790 0.69472 0.92146
 C2743 C 0.77416 0.72022 0.94132
 C2744 C 0.78133 0.73514 0.95029
 C2745 C 0.79949 0.73928 0.94864
 C2746 C 0.81043 0.72874 0.93789
 H2747 H 0.82796 0.70712 0.91584
 H2748 H 0.76395 0.69115 0.92280
 H2749 H 0.76009 0.71712 0.94259
 H2750 H 0.82438 0.73230 0.93662
 H2751 H 0.78264 0.67333 0.90327
 H2752 H 0.80510 0.75086 0.95546
 C2753 C 0.79211 0.17888 0.42518
 C2754 C 0.80627 0.18811 0.41692
 C2755 C 0.81016 0.20630 0.42174
 C2756 C 0.79962 0.21541 0.43400
 C2757 C 0.78510 0.20617 0.44180
 C2758 C 0.78164 0.18782 0.43751
 C2759 C 0.77397 0.21560 0.45335
 C2760 C 0.77717 0.23418 0.45711
 C2761 C 0.79180 0.24316 0.44956
 C2762 C 0.80303 0.23382 0.43818
 H2763 H 0.82116 0.21357 0.41575
 H2764 H 0.77059 0.18051 0.44340
 H2765 H 0.76250 0.20875 0.45899
 H2766 H 0.81410 0.24112 0.43233
 H2767 H 0.78871 0.16491 0.42181
 H2768 H 0.79430 0.25753 0.45226
 C2769 C 0.67821 0.29796 0.42432
 C2770 C 0.68732 0.31246 0.41600
 C2771 C 0.70492 0.31634 0.42101
 C2772 C 0.71350 0.30546 0.43352
 C2773 C 0.70434 0.29060 0.44134
 C2774 C 0.68662 0.28716 0.43685
 C2775 C 0.71322 0.27908 0.45312
 C2776 C 0.73118 0.28221 0.45710
 C2777 C 0.74009 0.29721 0.44956
 C2778 C 0.73130 0.30884 0.43794
 H2779 H 0.71219 0.32750 0.41495
 H2780 H 0.67936 0.27588 0.44277
 H2781 H 0.70642 0.26731 0.45871
 H2782 H 0.73855 0.32016 0.43209
 H2783 H 0.66463 0.29461 0.42101
 H2784 H 0.75400 0.29965 0.45240
 C2785 C 0.68727 0.78818 0.90743
 C2786 C 0.69105 0.80698 0.90504
 C2787 C 0.70455 0.81511 0.91496
 C2788 C 0.71438 0.80452 0.92681
 C2789 C 0.71068 0.78554 0.92875
 C2790 C 0.69700 0.77757 0.91914
 C2791 C 0.72095 0.77476 0.94002
 C2792 C 0.73481 0.78271 0.94945
 C2793 C 0.73824 0.80160 0.94778
 C2794 C 0.72807 0.81246 0.93654
 H2795 H 0.70750 0.82962 0.91343
 H2796 H 0.69399 0.76305 0.92050
 H2797 H 0.71840 0.76012 0.94130
 H2798 H 0.73109 0.82698 0.93527
 H2799 H 0.67709 0.78145 0.89993
 H2800 H 0.74901 0.80783 0.95493
 C2801 C 0.17678 0.29170 0.92218
 C2802 C 0.18348 0.30909 0.91740
 C2803 C 0.19904 0.31555 0.92539
 C2804 C 0.20815 0.30454 0.93743
 C2805 C 0.20154 0.28687 0.94170
 C2806 C 0.18571 0.28071 0.93421
 C2807 C 0.21117 0.27545 0.95298
 C2808 C 0.22734 0.28147 0.95991
 C2809 C 0.23364 0.29915 0.95599
 C2810 C 0.22406 0.31068 0.94489
 H2811 H 0.20428 0.32900 0.92208
 H2812 H 0.18045 0.26722 0.93736
 H2813 H 0.20645 0.26169 0.95594
 H2814 H 0.22932 0.32419 0.94179
 H2815 H 0.16489 0.28626 0.91627
 H2816 H 0.24620 0.30383 0.96121
 C2817 C 0.20330 0.82054 0.41871
 C2818 C 0.18738 0.81307 0.41230
 C2819 C 0.18090 0.79653 0.41947
 C2820 C 0.19070 0.78711 0.43218
 C2821 C 0.20704 0.79447 0.43798
 C2822 C 0.21301 0.81135 0.43143
 C2823 C 0.21745 0.78451 0.44977
 C2824 C 0.21181 0.76724 0.45572
 C2825 C 0.19538 0.76019 0.45038
 C2826 C 0.18482 0.77010 0.43873
 H2827 H 0.16869 0.79056 0.41468
 H2828 H 0.22542 0.81726 0.43584
 H2829 H 0.23025 0.78982 0.45384
 H2830 H 0.17234 0.76424 0.43447
 H2831 H 0.20845 0.83343 0.41375
 H2832 H 0.19100 0.74678 0.45484
 C2833 C 0.67233 0.71075 0.59372
 C2834 C 0.67829 0.69245 0.59522
 C2835 C 0.69262 0.68653 0.58491
 C2836 C 0.70120 0.69883 0.57360
 C2837 C 0.69539 0.71733 0.57258
 C2838 C 0.68083 0.72308 0.58254
 C2839 C 0.70446 0.72984 0.56187
 C2840 C 0.71917 0.72404 0.55210
 C2841 C 0.72466 0.70560 0.55289
 C2842 C 0.71572 0.69305 0.56354
 H2843 H 0.69721 0.67241 0.58574
 H2844 H 0.67618 0.73720 0.58187
 H2845 H 0.70031 0.74413 0.56131
 H2846 H 0.72034 0.67893 0.56414
 H2847 H 0.66141 0.71574 0.60155
 H2848 H 0.73611 0.70104 0.54551
 C2849 C 0.71623 0.18030 0.08322
 C2850 C 0.69809 0.18447 0.08566
 C2851 C 0.69019 0.19824 0.07535
 C2852 C 0.70042 0.20820 0.06332
 C2853 C 0.71878 0.20428 0.06146
 C2854 C 0.72648 0.19012 0.07126
 C2855 C 0.72924 0.21492 0.05020
 C2856 C 0.72157 0.22939 0.04074
 C2857 C 0.70327 0.23295 0.04228
 C2858 C 0.69273 0.22239 0.05346
 H2859 H 0.67618 0.20146 0.07688
 H2860 H 0.74052 0.18690 0.06995
 H2861 H 0.74342 0.21228 0.04905
 H2862 H 0.67868 0.22558 0.05469
 H2863 H 0.72276 0.16987 0.09096
 H2864 H 0.69726 0.24420 0.03513
 C2865 C 0.18342 0.71724 0.08710
 C2866 C 0.18611 0.69810 0.08834
 C2867 C 0.19914 0.68984 0.07780
 C2868 C 0.20979 0.70059 0.06676
 C2869 C 0.20725 0.71986 0.06605
 C2870 C 0.19387 0.72800 0.07606
 C2871 C 0.21835 0.73071 0.05559
 C2872 C 0.23194 0.72254 0.04582
 C2873 C 0.23428 0.70339 0.04637
 C2874 C 0.22323 0.69246 0.05673
 H2875 H 0.20130 0.67512 0.07835
 H2876 H 0.19171 0.74274 0.07560
 H2877 H 0.21664 0.74553 0.05518
 H2878 H 0.22537 0.67771 0.05711
 H2879 H 0.17354 0.72412 0.09493
 H2880 H 0.24483 0.69698 0.03895
 C2881 C 0.17394 0.21891 0.58154
 C2882 C 0.18085 0.20095 0.58273
 C2883 C 0.19513 0.19587 0.57197
 C2884 C 0.20278 0.20873 0.56057
 C2885 C 0.19610 0.22694 0.55995
 C2886 C 0.18153 0.23181 0.57030
 C2887 C 0.20442 0.24009 0.54935
 C2888 C 0.21923 0.23522 0.53931
 C2889 C 0.22548 0.21703 0.53955
 C2890 C 0.21730 0.20384 0.55010
 H2891 H 0.20044 0.18200 0.57260
 H2892 H 0.17622 0.24568 0.56995
 H2893 H 0.19971 0.25422 0.54921
 H2894 H 0.22257 0.18995 0.55036
 H2895 H 0.16303 0.22326 0.58973
 H2896 H 0.23701 0.21320 0.53192
   
