data_POSCAR
  _audit_creation_date              2014-09-24
  _audit_creation_method            'ToBaCCo'
  _symmetry_space_group_name_H-M    'P1'
  _symmetry_Int_Tables_number       1
  _symmetry_cell_setting            triclinic
  loop_
  _symmetry_equiv_pos_as_xyz
 x,y,z
_cell_length_a 54.8180
_cell_length_b 54.8358
_cell_length_c 54.8315
_cell_angle_alpha 89.982000
_cell_angle_beta 90.031300
_cell_angle_gamma 90.023100
loop_
  _atom_site_label
  _atom_site_type_symbol
  _atom_site_fract_x
  _atom_site_fract_y
  _atom_site_fract_z
C1 C 0.13390 -0.03371 0.25541
 C2 C 0.12433 -0.01050 0.26045
 C3 C 0.11517 -0.00547 0.28383
 C4 C 0.11542 -0.02349 0.30191
 C5 C 0.12517 -0.04654 0.29685
 C6 C 0.13452 -0.05163 0.27362
 C7 C 0.12398 0.00849 0.24136
 C8 C 0.11405 0.00347 0.21829
 C9 C 0.11361 0.02156 0.20024
 C10 C 0.12347 0.04464 0.20508
 C11 C 0.13357 0.04967 0.22799
 C12 C 0.13364 0.03172 0.24614
 H13 H 0.14132 -0.03758 0.23749
 H14 H 0.10745 0.01229 0.28778
 H15 H 0.10628 -0.01435 0.21459
 H16 H 0.14166 0.03565 0.26379
 H17 H 0.12547 -0.06041 0.31096
 H18 H 0.12333 0.05865 0.19110
 C19 C 0.36682 -0.03339 0.74436
 C20 C 0.37608 -0.01008 0.73915
 C21 C 0.38557 -0.00523 0.71585
 C22 C 0.38596 -0.02353 0.69805
 C23 C 0.37652 -0.04667 0.70332
 C24 C 0.36686 -0.05158 0.72643
 C25 C 0.37579 0.00921 0.75798
 C26 C 0.38529 0.00463 0.78134
 C27 C 0.38522 0.02299 0.79911
 C28 C 0.37528 0.04590 0.79371
 C29 C 0.36562 0.05052 0.77053
 C30 C 0.36604 0.03230 0.75265
 H31 H 0.35912 -0.03721 0.76217
 H32 H 0.39306 0.01261 0.71174
 H33 H 0.39315 -0.01305 0.78546
 H34 H 0.35837 0.03591 0.73478
 H35 H 0.37666 -0.06078 0.68947
 H36 H 0.37507 0.06012 0.80746
 C37 C 0.86587 0.46745 0.24571
 C38 C 0.87506 0.49088 0.24091
 C39 C 0.88467 0.49613 0.21775
 C40 C 0.88521 0.47814 0.19966
 C41 C 0.87584 0.45489 0.20449
 C42 C 0.86608 0.44956 0.22747
 C43 C 0.87448 0.50993 0.25997
 C44 C 0.88372 0.50514 0.28339
 C45 C 0.88351 0.52337 0.30130
 C46 C 0.87367 0.54635 0.29597
 C47 C 0.86425 0.55115 0.27272
 C48 C 0.86481 0.53306 0.25474
 H49 H 0.85806 0.46333 0.26340
 H50 H 0.89210 0.51407 0.21396
 H51 H 0.89156 0.48743 0.28743
 H52 H 0.85736 0.53683 0.23681
 H53 H 0.87609 0.44101 0.19041
 H54 H 0.87339 0.56049 0.30981
 C55 C 0.63491 0.46621 0.75523
 C56 C 0.62534 0.48942 0.76035
 C57 C 0.61563 0.49417 0.78358
 C58 C 0.61532 0.47588 0.80140
 C59 C 0.62507 0.45288 0.79623
 C60 C 0.63496 0.44806 0.77321
 C61 C 0.62552 0.50871 0.74152
 C62 C 0.61597 0.50411 0.71819
 C63 C 0.61585 0.52251 0.70047
 C64 C 0.62566 0.54546 0.70585
 C65 C 0.63541 0.55011 0.72899
 C66 C 0.63516 0.53185 0.74684
 H67 H 0.64276 0.46247 0.73748
 H68 H 0.60791 0.51192 0.78761
 H69 H 0.60817 0.48642 0.71402
 H70 H 0.64287 0.53548 0.76469
 H71 H 0.62499 0.43877 0.81010
 H72 H 0.62570 0.55967 0.69207
 C73 C 0.24571 0.13290 1.03213
 C74 C 0.24055 0.12327 1.00897
 C75 C 0.21730 0.11360 1.00422
 C76 C 0.19945 0.11339 1.02250
 C77 C 0.20467 0.12322 1.04550
 C78 C 0.22775 0.13307 1.05027
 C79 C 0.25935 0.12347 0.98969
 C80 C 0.28269 0.11394 0.99427
 C81 C 0.30044 0.11397 0.97588
 C82 C 0.29504 0.12392 0.95298
 C83 C 0.27188 0.13363 0.94838
 C84 C 0.25403 0.13323 0.96661
 H85 H 0.26349 0.14073 1.03583
 H86 H 0.21330 0.10587 0.98645
 H87 H 0.28681 0.10609 1.01196
 H88 H 0.23617 0.14093 0.96302
 H89 H 0.19083 0.12328 1.05965
 H90 H 0.30879 0.12412 0.93874
 C91 C 0.75454 0.36516 1.03364
 C92 C 0.75912 0.37461 1.01026
 C93 C 0.78218 0.38444 1.00496
 C94 C 0.80040 0.38501 1.02286
 C95 C 0.79579 0.37538 1.04606
 C96 C 0.77290 0.36534 1.05146
 C97 C 0.73985 0.37422 0.99138
 C98 C 0.71660 0.38375 0.99642
 C99 C 0.69845 0.38370 0.97839
 C100 C 0.70336 0.37372 0.95540
 C101 C 0.72641 0.36400 0.95033
 C102 C 0.74467 0.36443 0.96820
 H103 H 0.73687 0.35724 1.03774
 H104 H 0.78577 0.39206 0.98706
 H105 H 0.71287 0.39166 1.01416
 H106 H 0.76246 0.35676 0.96424
 H107 H 0.81001 0.37568 1.05983
 H108 H 0.68932 0.37353 0.94144
 C109 C 0.25702 0.86578 0.53421
 C110 C 0.26188 0.87536 0.51095
 C111 C 0.28507 0.88507 0.50594
 C112 C 0.30311 0.88540 0.52406
 C113 C 0.29816 0.87563 0.54715
 C114 C 0.27517 0.86574 0.55219
 C115 C 0.24273 0.87526 0.49196
 C116 C 0.21945 0.88466 0.49706
 C117 C 0.20132 0.88469 0.47906
 C118 C 0.20625 0.87495 0.45598
 C119 C 0.22936 0.86537 0.45082
 C120 C 0.24761 0.86571 0.46870
 H121 H 0.23929 0.85795 0.53815
 H122 H 0.28883 0.89281 0.48812
 H123 H 0.21561 0.89237 0.51486
 H124 H 0.26542 0.85811 0.46470
 H125 H 0.31213 0.87570 0.56118
 H126 H 0.19216 0.87482 0.44209
 C127 C 0.74672 0.63384 0.53198
 C128 C 0.74111 0.62426 0.50889
 C129 C 0.71766 0.61491 0.50447
 C130 C 0.70010 0.61495 0.52300
 C131 C 0.70575 0.62470 0.54590
 C132 C 0.72901 0.63423 0.55037
 C133 C 0.75971 0.62410 0.48939
 C134 C 0.78297 0.61431 0.49381
 C135 C 0.80057 0.61404 0.47529
 C136 C 0.79509 0.62394 0.45237
 C137 C 0.77200 0.63390 0.44792
 C138 C 0.75429 0.63379 0.46631
 H139 H 0.76466 0.64142 0.53546
 H140 H 0.71326 0.60719 0.48680
 H141 H 0.78716 0.60652 0.51152
 H142 H 0.73650 0.64170 0.46285
 H143 H 0.69209 0.62487 0.56020
 H144 H 0.80873 0.62393 0.43802
 C145 C -0.03377 0.25594 0.13271
 C146 C -0.01044 0.26055 0.12319
 C147 C -0.00511 0.28368 0.11355
 C148 C -0.02296 0.30195 0.11328
 C149 C -0.04612 0.29728 0.12301
 C150 C -0.05148 0.27432 0.13281
 C151 C 0.00839 0.24129 0.12344
 C152 C 0.00325 0.21805 0.11395
 C153 C 0.02122 0.19988 0.11400
 C154 C 0.04427 0.20475 0.12392
 C155 C 0.04942 0.22782 0.13358
 C156 C 0.03160 0.24609 0.13316
 H157 H -0.03793 0.23825 0.14053
 H158 H 0.01279 0.28725 0.10588
 H159 H -0.01454 0.21434 0.10611
 H160 H 0.03562 0.26387 0.14082
 H161 H -0.05994 0.31145 0.12301
 H162 H 0.05819 0.19069 0.12412
 C163 C -0.03322 0.74524 0.36576
 C164 C -0.01016 0.73978 0.37553
 C165 C -0.00561 0.71628 0.38465
 C166 C -0.02395 0.69851 0.38419
 C167 C -0.04682 0.70402 0.37425
 C168 C -0.05142 0.72735 0.36495
 C169 C 0.00912 0.75859 0.37622
 C170 C 0.00428 0.78170 0.38613
 C171 C 0.02260 0.79948 0.38689
 C172 C 0.04575 0.79439 0.37739
 C173 C 0.05064 0.77145 0.36731
 C174 C 0.03244 0.75354 0.36691
 H175 H -0.03680 0.76323 0.35837
 H176 H 0.01202 0.71199 0.39256
 H177 H -0.01357 0.78567 0.39364
 H178 H 0.03624 0.73587 0.35889
 H179 H -0.06099 0.69022 0.37378
 H180 H 0.05988 0.80823 0.37780
 C181 C 0.46796 0.24583 0.86583
 C182 C 0.49101 0.24035 0.87561
 C183 C 0.49554 0.21684 0.88474
 C184 C 0.47717 0.19907 0.88429
 C185 C 0.45430 0.20463 0.87432
 C186 C 0.44973 0.22796 0.86501
 C187 C 0.51035 0.25914 0.87622
 C188 C 0.50560 0.28229 0.88611
 C189 C 0.52399 0.30005 0.88677
 C190 C 0.54709 0.29485 0.87718
 C191 C 0.55187 0.27189 0.86713
 C192 C 0.53363 0.25402 0.86683
 H193 H 0.46440 0.26382 0.85843
 H194 H 0.51320 0.21259 0.89262
 H195 H 0.48775 0.28627 0.89367
 H196 H 0.53736 0.23633 0.85882
 H197 H 0.44006 0.19088 0.87381
 H198 H 0.56131 0.30861 0.87748
 C199 C 0.46693 0.75576 0.63484
 C200 C 0.49015 0.76076 0.62522
 C201 C 0.49497 0.78391 0.61535
 C202 C 0.47673 0.80178 0.61494
 C203 C 0.45371 0.79674 0.62474
 C204 C 0.44882 0.77378 0.63478
 C205 C 0.50936 0.74186 0.62548
 C206 C 0.50458 0.71846 0.61619
 C207 C 0.52290 0.70066 0.61614
 C208 C 0.54595 0.70603 0.62574
 C209 C 0.55078 0.72924 0.63521
 C210 C 0.53260 0.74717 0.63491
 H211 H 0.46314 0.73807 0.64281
 H212 H 0.51272 0.78784 0.60758
 H213 H 0.48682 0.71430 0.60854
 H214 H 0.53637 0.76507 0.64240
 H215 H 0.43964 0.81064 0.62458
 H216 H 0.56009 0.69220 0.62582
 C217 C 0.86630 1.03142 0.75627
 C218 C 0.87681 1.00856 0.76080
 C219 C 0.88686 1.00358 0.78380
 C220 C 0.88663 1.02140 0.80210
 C221 C 0.87585 1.04418 0.79756
 C222 C 0.86556 1.04911 0.77465
 C223 C 0.87713 0.98979 0.74157
 C224 C 0.88750 0.99488 0.71875
 C225 C 0.88794 0.97699 0.70052
 C226 C 0.87749 0.95402 0.70494
 C227 C 0.86687 0.94897 0.72768
 C228 C 0.86695 0.96675 0.74598
 H229 H 0.85829 1.03526 0.73859
 H230 H 0.89517 0.98596 0.78727
 H231 H 0.89555 1.01265 0.71539
 H232 H 0.85869 0.96284 0.76352
 H233 H 0.87544 1.05798 0.81172
 H234 H 0.87757 0.94016 0.69083
 C235 C 0.36435 0.53257 0.25505
 C236 C 0.37457 0.50971 0.26025
 C237 C 0.38495 0.50543 0.28323
 C238 C 0.38537 0.52392 0.30081
 C239 C 0.37490 0.54668 0.29564
 C240 C 0.36426 0.55095 0.27276
 C241 C 0.37461 0.49039 0.24158
 C242 C 0.38507 0.49476 0.21866
 C243 C 0.38541 0.47638 0.20098
 C244 C 0.37480 0.45365 0.20597
 C245 C 0.36409 0.44929 0.22879
 C246 C 0.36425 0.46755 0.24662
 H247 H 0.35613 0.53590 0.23736
 H248 H 0.39310 0.48786 0.28723
 H249 H 0.39330 0.51232 0.21477
 H250 H 0.35595 0.46417 0.26425
 H251 H 0.37503 0.56097 0.30931
 H252 H 0.37486 0.43946 0.19220
 C253 C 0.63444 1.03280 0.24406
 C254 C 0.62378 1.01006 0.23925
 C255 C 0.61320 1.00563 0.21639
 C256 C 0.61303 1.02386 0.19854
 C257 C 0.62395 1.04651 0.20331
 C258 C 0.63478 1.05091 0.22607
 C259 C 0.62375 0.99090 0.25807
 C260 C 0.61337 0.99540 0.28099
 C261 C 0.61310 0.97712 0.29883
 C262 C 0.62376 0.95436 0.29393
 C263 C 0.63439 0.94992 0.27109
 C264 C 0.63413 0.96807 0.25315
 H265 H 0.64284 1.03622 0.26164
 H266 H 0.60476 0.98812 0.21267
 H267 H 0.60516 1.01301 0.28472
 H268 H 0.64237 0.96461 0.23552
 H269 H 0.62403 1.06058 0.18941
 H270 H 0.62381 0.94021 0.30775
 C271 C 0.13495 0.53245 0.74478
 C272 C 0.12441 0.50960 0.74018
 C273 C 0.11373 0.50496 0.71740
 C274 C 0.11330 0.52310 0.69945
 C275 C 0.12408 0.54585 0.70403
 C276 C 0.13503 0.55046 0.72670
 C277 C 0.12445 0.49064 0.75923
 C278 C 0.11434 0.49553 0.78219
 C279 C 0.11414 0.47753 0.80028
 C280 C 0.12458 0.45463 0.79563
 C281 C 0.13495 0.44976 0.77274
 C282 C 0.13462 0.46766 0.75454
 H283 H 0.14340 0.53604 0.76230
 H284 H 0.10536 0.48739 0.71385
 H285 H 0.10626 0.51321 0.78581
 H286 H 0.14266 0.46389 0.73687
 H287 H 0.12394 0.55987 0.69007
 H288 H 0.12463 0.44073 0.80970
 C289 C 0.74607 0.86601 -0.03304
 C290 C 0.74097 0.87638 -0.01023
 C291 C 0.71789 0.88650 -0.00585
 C292 C 0.70012 0.88650 -0.02420
 C293 C 0.70522 0.87589 -0.04690
 C294 C 0.72819 0.86552 -0.05126
 C295 C 0.75972 0.87657 0.00904
 C296 C 0.78272 0.88684 0.00453
 C297 C 0.80052 0.88718 0.02286
 C298 C 0.79550 0.87674 0.04571
 C299 C 0.77258 0.86623 0.05018
 C300 C 0.75470 0.86641 0.03196
 H301 H 0.76381 0.85794 -0.03643
 H302 H 0.71393 0.89473 0.01169
 H303 H 0.78655 0.89489 -0.01314
 H304 H 0.73703 0.85822 0.03544
 H305 H 0.69141 0.87569 -0.06106
 H306 H 0.80929 0.87675 0.05991
 C307 C 0.24509 0.36494 0.46692
 C308 C 0.23984 0.37536 0.48967
 C309 C 0.21679 0.38559 0.49385
 C310 C 0.19917 0.38565 0.47539
 C311 C 0.20437 0.37498 0.45274
 C312 C 0.22734 0.36449 0.44856
 C313 C 0.25843 0.37560 0.50908
 C314 C 0.28131 0.38623 0.50487
 C315 C 0.29883 0.38685 0.52342
 C316 C 0.29372 0.37631 0.54617
 C317 C 0.27095 0.36543 0.55036
 C318 C 0.25328 0.36532 0.53193
 H319 H 0.26283 0.35681 0.46367
 H320 H 0.21274 0.39386 0.51135
 H321 H 0.28527 0.39441 0.48730
 H322 H 0.23568 0.35689 0.53520
 H323 H 0.19066 0.37482 0.43848
 H324 H 0.30737 0.37658 0.56049
 C325 C 0.25461 0.63455 -0.03121
 C326 C 0.25901 0.62387 -0.00839
 C327 C 0.28173 0.61312 -0.00361
 C328 C 0.29984 0.61280 -0.02160
 C329 C 0.29545 0.62373 -0.04432
 C330 C 0.27285 0.63473 -0.04906
 C331 C 0.23984 0.62395 0.01044
 C332 C 0.21690 0.61380 0.00547
 C333 C 0.19866 0.61375 0.02334
 C334 C 0.20320 0.62441 0.04619
 C335 C 0.22607 0.63483 0.05113
 C336 C 0.24439 0.63432 0.03336
 H337 H 0.23714 0.64306 -0.03490
 H338 H 0.28514 0.60467 0.01395
 H339 H 0.21344 0.60560 -0.01221
 H340 H 0.26204 0.64241 0.03718
 H341 H 0.30953 0.62368 -0.05820
 H342 H 0.18907 0.62464 0.06004
 C343 C 0.75786 0.13528 0.46728
 C344 C 0.76220 0.12477 0.49019
 C345 C 0.78500 0.11432 0.49520
 C346 C 0.80329 0.11410 0.47737
 C347 C 0.79895 0.12490 0.45453
 C348 C 0.77623 0.13561 0.44956
 C349 C 0.74292 0.12473 0.50891
 C350 C 0.72013 0.11423 0.50391
 C351 C 0.70191 0.11393 0.52178
 C352 C 0.70625 0.12464 0.54460
 C353 C 0.72892 0.13540 0.54957
 C354 C 0.74728 0.13519 0.53184
 H355 H 0.74031 0.14356 0.46342
 H356 H 0.78829 0.10600 0.51286
 H357 H 0.71676 0.10594 0.48628
 H358 H 0.76481 0.14352 0.53571
 H359 H 0.81310 0.12498 0.44072
 H360 H 0.69207 0.12460 0.55839
 C361 C 1.03238 0.75625 0.86647
 C362 C 1.00949 0.76057 0.87699
 C363 C 1.00450 0.78334 0.88749
 C364 C 1.02235 0.80162 0.88771
 C365 C 1.04516 0.79731 0.87690
 C366 C 1.05010 0.77462 0.86616
 C367 C 0.99069 0.74137 0.87675
 C368 C 0.99557 0.71840 0.88688
 C369 C 0.97765 0.70018 0.88674
 C370 C 0.95488 0.70477 0.87592
 C371 C 0.95006 0.72766 0.86553
 C372 C 0.96785 0.74594 0.86621
 H373 H 1.03621 0.73874 0.85811
 H374 H 0.98683 0.78663 0.89577
 H375 H 1.01319 0.71491 0.89521
 H376 H 0.96410 0.76361 0.85813
 H377 H 1.05898 0.81148 0.87680
 H378 H 0.94100 0.69066 0.87555
 C379 C 0.53184 0.25605 0.36441
 C380 C 0.50896 0.26076 0.37483
 C381 C 0.50435 0.28358 0.38539
 C382 C 0.52253 0.30150 0.38577
 C383 C 0.54530 0.29683 0.37509
 C384 C 0.54989 0.27411 0.36429
 C385 C 0.48986 0.24183 0.37472
 C386 C 0.49450 0.21883 0.38488
 C387 C 0.47628 0.20095 0.38512
 C388 C 0.45343 0.20585 0.37467
 C389 C 0.44881 0.22876 0.36425
 C390 C 0.46692 0.24676 0.36452
 H391 H 0.53541 0.23850 0.35604
 H392 H 0.48676 0.28722 0.39366
 H393 H 0.51214 0.21502 0.39300
 H394 H 0.46333 0.26445 0.35645
 H395 H 0.55933 0.31077 0.37519
 H396 H 0.43936 0.19195 0.37465
 C397 C 1.03266 0.24496 0.63413
 C398 C 1.00970 0.24003 0.62401
 C399 C 1.00491 0.21693 0.61414
 C400 C 1.02303 0.19892 0.61414
 C401 C 1.04592 0.20385 0.62455
 C402 C 1.05065 0.22688 0.63467
 C403 C 0.99065 0.25897 0.62393
 C404 C 0.99518 0.28175 0.61320
 C405 C 0.97705 0.29974 0.61306
 C406 C 0.95444 0.29514 0.62415
 C407 C 0.94997 0.27246 0.63511
 C408 C 0.96795 0.25437 0.63475
 H409 H 1.03633 0.26272 0.64202
 H410 H 0.98720 0.21317 0.60612
 H411 H 1.01269 0.28527 0.60468
 H412 H 0.96446 0.23686 0.64327
 H413 H 1.05995 0.18991 0.62481
 H414 H 0.94040 0.30909 0.62429
 C415 C 0.53125 0.74603 0.13392
 C416 C 0.50840 0.74075 0.12366
 C417 C 0.50411 0.71767 0.11353
 C418 C 0.52258 0.70006 0.11339
 C419 C 0.54532 0.70531 0.12389
 C420 C 0.54960 0.72829 0.13428
 C421 C 0.48905 0.75939 0.12341
 C422 C 0.49333 0.78219 0.11264
 C423 C 0.47492 0.79984 0.11208
 C424 C 0.45221 0.79493 0.12282
 C425 C 0.44793 0.77223 0.13385
 C426 C 0.46624 0.75444 0.13388
 H427 H 0.53458 0.76379 0.14195
 H428 H 0.48655 0.71359 0.10538
 H429 H 0.51088 0.78601 0.10434
 H430 H 0.46293 0.73691 0.14242
 H431 H 0.55959 0.69162 0.12396
 H432 H 0.43799 0.80867 0.12263
 O433 O 0.04846 1.05289 0.99710
 O434 O 0.02542 1.05653 0.95979
 O435 O -0.00457 1.04911 1.05327
 O436 O -0.04094 1.02439 1.05913
 O437 O 0.05191 0.99590 1.04994
 O438 O 0.05805 0.95967 1.02518
 O439 O -0.06874 0.98097 0.99190
 O440 O -0.07098 1.02355 1.00878
 O441 O -0.01984 0.99062 0.93288
 O442 O 0.02223 1.00719 0.92961
 O443 O -0.00960 0.93179 0.98189
 O444 O 0.00739 0.92964 1.02482
 O445 O -0.04846 0.94732 1.00497
 O446 O -0.02451 0.93893 1.03965
 O447 O 0.00343 0.95203 0.94822
 O448 O 0.03891 0.97690 0.94050
 O449 O -0.05345 1.00379 0.95312
 O450 O -0.06010 1.03862 0.97492
 O451 O 0.06799 1.01872 1.01028
 O452 O 0.07157 0.97834 0.99478
 O453 O 0.01804 1.00965 1.06946
 O454 O -0.02223 0.99403 1.07293
 O455 O 0.00920 1.06859 1.01937
 O456 O -0.00785 1.07144 0.97882
 Zr457 Zr 0.01204 1.04125 0.99269
 O458 O -0.01072 1.02030 0.96997
 Zr459 Zr -0.00849 1.01252 1.04201
 O460 O -0.03139 0.98979 1.02126
 Zr461 Zr 0.04066 0.99199 1.01333
 O462 O 0.01983 0.96901 0.99070
 Zr463 Zr -0.04151 1.00804 0.98920
 O464 O -0.02046 1.03196 1.01113
 Zr465 Zr 0.00751 0.98823 0.95986
 O466 O 0.03130 1.01025 0.98089
 Zr467 Zr -0.01220 0.95894 1.00903
 O468 O 0.00984 0.98000 1.03283
 O469 O 0.02306 1.02356 1.02432
 O470 O -0.02417 0.97629 0.97729
 C471 C 0.06774 1.04128 1.00387
 C472 C 0.00244 1.06836 1.04180
 C473 C 0.04048 1.00289 1.06921
 C474 C -0.06805 0.95853 0.99872
 C475 C -0.04230 0.99737 0.93357
 C476 C -0.00283 0.93247 0.95944
 H477 H -0.01555 1.03033 0.95577
 H478 H 0.02986 0.95472 0.98622
 H479 H 0.03347 1.03394 1.03479
 H480 H -0.04565 0.98527 1.03131
 H481 H -0.07456 1.01286 1.02287
 H482 H -0.04795 1.03728 1.04861
 H483 H 0.04742 0.96462 0.95061
 H484 H 0.07164 0.98619 0.97851
 H485 H -0.04981 1.05294 0.97870
 H486 H 0.00208 1.08645 0.98087
 H487 H 0.02127 0.92578 1.01396
 H488 H 0.04748 0.95247 1.03794
 H489 H 0.03858 1.04573 0.95378
 H490 H 0.01218 1.02192 0.92687
 H491 H -0.01421 0.97785 1.07321
 H492 H -0.03511 0.94985 1.04931
 O493 O 0.48035 0.49229 0.43236
 O494 O 0.51984 0.51200 0.43107
 O495 O 0.49097 0.43253 0.48131
 O496 O 0.50627 0.42936 0.52379
 O497 O 0.43061 0.48200 0.49303
 O498 O 0.42791 0.52268 0.50894
 O499 O 0.55288 0.49730 0.54888
 O500 O 0.55688 0.46105 0.52840
 O501 O 0.54796 0.55316 0.49799
 O502 O 0.52063 0.55793 0.45909
 O503 O 0.49689 0.54897 0.55377
 O504 O 0.45931 0.52363 0.56047
 O505 O 0.51906 0.51090 0.56865
 O506 O 0.47765 0.49459 0.57329
 O507 O 0.51022 0.56878 0.51993
 O508 O 0.49485 0.57425 0.48038
 O509 O 0.56735 0.51952 0.51241
 O510 O 0.56921 0.48004 0.49018
 O511 O 0.44691 0.50593 0.45279
 O512 O 0.43965 0.54049 0.47765
 O513 O 0.45087 0.44820 0.50579
 O514 O 0.47516 0.44062 0.54006
 O515 O 0.50353 0.45305 0.44752
 O516 O 0.54078 0.47639 0.44497
 Zr517 Zr 0.50726 0.48911 0.45971
 O518 O 0.53061 0.51103 0.48100
 Zr519 Zr 0.48736 0.45945 0.50871
 O520 O 0.50951 0.48047 0.53194
 Zr521 Zr 0.45806 0.50872 0.48939
 O522 O 0.47928 0.53201 0.51136
 Zr523 Zr 0.54044 0.49239 0.51293
 O524 O 0.51953 0.46909 0.49028
 Zr525 Zr 0.51148 0.54180 0.49297
 O526 O 0.48862 0.52110 0.46984
 Zr527 Zr 0.49146 0.51268 0.54210
 O528 O 0.46793 0.49007 0.52142
 O529 O 0.47578 0.47747 0.47754
 O530 O 0.52303 0.52410 0.52447
 C531 C 0.45812 0.49986 0.43311
 C532 C 0.49789 0.43334 0.45886
 C533 C 0.43123 0.45964 0.50013
 C534 C 0.54170 0.50477 0.56811
 C535 C 0.56702 0.54201 0.50596
 C536 C 0.50431 0.56821 0.54256
 H537 H 0.54519 0.51544 0.47132
 H538 H 0.46954 0.54648 0.51589
 H539 H 0.46523 0.46713 0.46713
 H540 H 0.51425 0.47052 0.54623
 H541 H 0.55465 0.44761 0.51658
 H542 H 0.52038 0.42598 0.51307
 H543 H 0.47801 0.57448 0.48684
 H544 H 0.45093 0.54912 0.46651
 H545 H 0.58459 0.48105 0.49966
 H546 H 0.53793 0.46998 0.42829
 H547 H 0.45299 0.53839 0.55226
 H548 H 0.42790 0.51438 0.52497
 H549 H 0.51819 0.50327 0.41531
 H550 H 0.53721 0.55238 0.45462
 H551 H 0.46503 0.45231 0.54937
 H552 H 0.48680 0.47917 0.57518
 O553 O 0.51981 0.00938 0.42963
 O554 O 0.48034 -0.01031 0.42852
 O555 O 0.50854 0.06913 0.47932
 O556 O 0.49667 0.07464 0.51782
 O557 O 0.57006 0.01929 0.48996
 O558 O 0.57280 -0.02133 0.50573
 O559 O 0.44794 0.00422 0.54651
 O560 O 0.44361 0.04074 0.52494
 O561 O 0.45270 -0.05181 0.49565
 O562 O 0.47962 -0.05653 0.45661
 O563 O 0.50395 -0.04741 0.55114
 O564 O 0.54131 -0.02237 0.55796
 O565 O 0.48187 -0.00952 0.56605
 O566 O 0.52357 0.00719 0.57025
 O567 O 0.49049 -0.06728 0.51738
 O568 O 0.50581 -0.07264 0.47759
 O569 O 0.43336 -0.01828 0.51034
 O570 O 0.43110 0.02095 0.48777
 O571 O 0.55337 -0.00441 0.44981
 O572 O 0.56062 -0.03918 0.47461
 O573 O 0.54988 0.05315 0.50263
 O574 O 0.52484 0.05846 0.53912
 O575 O 0.49670 0.04867 0.44522
 O576 O 0.45952 0.02529 0.44261
 Zr577 Zr 0.49311 0.01247 0.45717
 O578 O 0.46987 -0.00955 0.47848
 Zr579 Zr 0.51341 0.04194 0.50614
 O580 O 0.49108 0.02106 0.52941
 Zr581 Zr 0.54249 -0.00729 0.48646
 O582 O 0.52137 -0.03050 0.50861
 Zr583 Zr 0.46014 0.00900 0.51046
 O584 O 0.48111 0.03224 0.48795
 Zr585 Zr 0.48909 -0.04032 0.49036
 O586 O 0.51177 -0.01958 0.46709
 Zr587 Zr 0.50935 -0.01116 0.53940
 O588 O 0.53294 0.01128 0.51856
 O589 O 0.52475 0.02406 0.47482
 O590 O 0.47771 -0.02264 0.52192
 C591 C 0.54203 0.00175 0.43022
 C592 C 0.50184 0.06839 0.45680
 C593 C 0.56950 0.04167 0.49696
 C594 C 0.45924 -0.00337 0.56564
 C595 C 0.43370 -0.04077 0.50388
 C596 C 0.49646 -0.06666 0.54000
 H597 H 0.45525 -0.01399 0.46886
 H598 H 0.53113 -0.04496 0.51314
 H599 H 0.53514 0.03449 0.46435
 H600 H 0.48637 0.03091 0.54376
 H601 H 0.44672 0.05402 0.51310
 H602 H 0.48206 0.06996 0.52728
 H603 H 0.52254 -0.07306 0.48433
 H604 H 0.54927 -0.04764 0.46339
 H605 H 0.41575 0.01978 0.49728
 H606 H 0.46230 0.03175 0.42595
 H607 H 0.54795 -0.03675 0.54934
 H608 H 0.57280 -0.01326 0.52188
 H609 H 0.48186 -0.00152 0.41278
 H610 H 0.46309 -0.05082 0.45215
 H611 H 0.53773 0.04791 0.54609
 H612 H 0.51383 0.02216 0.57272
 O613 O -0.04832 0.44780 0.99542
 O614 O -0.02542 0.44309 0.95931
 O615 O 0.00367 0.45241 1.05220
 O616 O 0.04018 0.47844 1.05884
 O617 O -0.05295 0.50511 1.04801
 O618 O -0.05923 0.54101 1.02326
 O619 O 0.06846 0.51994 0.99009
 O620 O 0.07254 0.48359 1.00793
 O621 O 0.01927 0.51050 0.93131
 O622 O -0.02249 0.49429 0.92769
 O623 O 0.00898 0.56944 0.98033
 O624 O -0.00765 0.57207 1.02278
 O625 O 0.04800 0.55350 1.00330
 O626 O 0.02354 0.56194 1.03842
 O627 O -0.00402 0.54923 0.94664
 O628 O -0.03993 0.52383 0.93925
 O629 O 0.05302 0.49802 0.95182
 O630 O 0.05528 0.45942 0.97556
 O631 O -0.06832 0.48185 1.00825
 O632 O -0.07206 0.52238 0.99244
 O633 O -0.01908 0.49190 1.06792
 O634 O 0.02094 0.50795 1.07166
 O635 O -0.00942 0.43264 1.01821
 O636 O 0.01004 0.43112 0.97780
 Zr637 Zr -0.01200 0.45988 0.99143
 O638 O 0.01025 0.48109 0.96846
 Zr639 Zr 0.00772 0.48899 1.04079
 O640 O 0.03054 0.51141 1.01977
 Zr641 Zr -0.04134 0.50896 1.01150
 O642 O -0.02050 0.53214 0.98906
 Zr643 Zr 0.04098 0.49324 0.98783
 O644 O 0.02026 0.46944 1.01027
 Zr645 Zr -0.00810 0.51299 0.95826
 O646 O -0.03156 0.49062 0.97925
 Zr647 Zr 0.01152 0.54228 1.00746
 O648 O -0.01073 0.52131 1.03116
 O649 O -0.02352 0.47763 1.02284
 O650 O 0.02347 0.52490 0.97582
 C651 C -0.06777 0.45923 1.00198
 C652 C -0.00302 0.43304 1.04074
 C653 C -0.04158 0.49839 1.06742
 C654 C 0.06766 0.54236 0.99700
 C655 C 0.04182 0.50403 0.93216
 C656 C 0.00222 0.56879 0.95787
 H657 H 0.01505 0.47111 0.95423
 H658 H -0.03055 0.54641 0.98457
 H659 H -0.03398 0.46722 1.03323
 H660 H 0.04496 0.51578 1.02969
 H661 H 0.06843 0.46869 1.01721
 H662 H 0.04607 0.46337 1.05088
 H663 H -0.04781 0.53695 0.94878
 H664 H -0.07206 0.51423 0.97633
 H665 H 0.07186 0.46239 0.96896
 H666 H 0.00127 0.41545 0.98010
 H667 H -0.02216 0.57517 1.01251
 H668 H -0.04849 0.54868 1.03558
 H669 H -0.03733 0.45448 0.95195
 H670 H -0.01300 0.47910 0.92556
 H671 H 0.01290 0.52412 1.07157
 H672 H 0.03506 0.55139 1.04743
 O673 O 0.00773 0.43013 0.51853
 O674 O -0.01228 0.42876 0.47919
 O675 O 0.06723 0.47991 0.50672
 O676 O 0.07260 0.51836 0.49458
 O677 O 0.01760 0.49084 0.56838
 O678 O -0.02313 0.50636 0.57114
 O679 O 0.00208 0.54663 0.44604
 O680 O 0.03855 0.52505 0.44168
 O681 O -0.05397 0.49565 0.45122
 O682 O -0.05846 0.45667 0.47839
 O683 O -0.04952 0.55137 0.50203
 O684 O -0.02443 0.55841 0.53936
 O685 O -0.01166 0.56626 0.47987
 O686 O 0.00508 0.57071 0.52152
 O687 O -0.06937 0.51747 0.48891
 O688 O -0.07461 0.47779 0.50448
 O689 O -0.02053 0.51040 0.43174
 O690 O 0.01870 0.48784 0.42943
 O691 O -0.00598 0.45041 0.55203
 O692 O -0.04086 0.47507 0.55923
 O693 O 0.05137 0.50340 0.54796
 O694 O 0.05652 0.53975 0.52272
 O695 O 0.04679 0.44570 0.49512
 O696 O 0.02323 0.44280 0.45811
 Zr697 Zr 0.01054 0.45753 0.49165
 O698 O -0.01160 0.47865 0.46835
 Zr699 Zr 0.04000 0.50668 0.51154
 O700 O 0.01897 0.52978 0.48917
 Zr701 Zr -0.00909 0.48699 0.54092
 O702 O -0.03245 0.50896 0.51975
 Zr703 Zr 0.00686 0.51063 0.45839
 O704 O 0.03022 0.48829 0.47939
 Zr705 Zr -0.04234 0.49054 0.48760
 O706 O -0.02147 0.46745 0.51036
 Zr707 Zr -0.01322 0.53974 0.50749
 O708 O 0.00937 0.51910 0.53110
 O709 O 0.02223 0.47537 0.52313
 O710 O -0.02476 0.52208 0.47599
 C711 C 0.00024 0.43079 0.54078
 C712 C 0.06651 0.45736 0.50013
 C713 C 0.03998 0.49788 0.56766
 C714 C -0.00551 0.56579 0.45725
 C715 C -0.04301 0.50388 0.43217
 C716 C -0.06878 0.54014 0.49466
 H717 H -0.01608 0.46896 0.45380
 H718 H -0.04690 0.51349 0.52951
 H719 H 0.03274 0.46501 0.53354
 H720 H 0.02878 0.54413 0.48436
 H721 H 0.05185 0.51324 0.44480
 H722 H 0.06784 0.52780 0.47998
 H723 H -0.07490 0.48448 0.52122
 H724 H -0.04932 0.46375 0.54799
 H725 H 0.01745 0.49728 0.41404
 H726 H 0.02971 0.42615 0.46096
 H727 H -0.03884 0.54983 0.54602
 H728 H -0.01516 0.52256 0.57099
 H729 H -0.00346 0.41305 0.48078
 H730 H -0.05291 0.45222 0.46181
 H731 H 0.04598 0.54677 0.53558
 H732 H 0.02004 0.57317 0.51175
 O733 O 0.50810 0.93110 0.01689
 O734 O 0.48860 0.92989 -0.02269
 O735 O 0.56781 0.98040 0.00652
 O736 O 0.57078 1.02290 -0.00877
 O737 O 0.51831 0.99175 0.06684
 O738 O 0.47751 1.00741 0.06957
 O739 O 0.50268 1.04795 -0.05516
 O740 O 0.53908 1.02761 -0.05924
 O741 O 0.44705 0.99681 -0.05046
 O742 O 0.44251 0.95771 -0.02337
 O743 O 0.45102 1.05231 0.00085
 O744 O 0.47636 1.05898 0.03845
 O745 O 0.48900 1.06747 -0.02124
 O746 O 0.50531 1.07203 0.02014
 O747 O 0.43135 1.01845 -0.01262
 O748 O 0.42610 0.97875 0.00257
 O749 O 0.48063 1.01143 -0.06979
 O750 O 0.52020 0.98939 -0.07178
 O751 O 0.49449 0.95143 0.05041
 O752 O 0.45990 0.97607 0.05780
 O753 O 0.55205 1.00474 0.04661
 O754 O 0.55950 1.03904 0.02242
 O755 O 0.54749 0.94654 -0.00618
 O756 O 0.52418 0.94404 -0.04347
 Zr757 Zr 0.51134 0.95858 -0.00991
 O758 O 0.48931 0.97987 -0.03318
 Zr759 Zr 0.54077 1.00766 0.01015
 O760 O 0.51963 1.03088 -0.01189
 Zr761 Zr 0.49160 0.98803 0.03938
 O762 O 0.46818 1.00993 0.01825
 Zr763 Zr 0.50778 1.01194 -0.04289
 O764 O 0.53120 0.98931 -0.02208
 Zr765 Zr 0.45847 0.99162 -0.01402
 O766 O 0.47929 0.96853 0.00875
 Zr767 Zr 0.48737 1.04080 0.00622
 O768 O 0.51010 1.02016 0.02965
 O769 O 0.52291 0.97636 0.02163
 O770 O 0.47602 1.02326 -0.02542
 C771 C 0.50051 0.93178 0.03912
 C772 C 0.56714 0.95798 -0.00047
 C773 C 0.54063 0.99901 0.06623
 C774 C 0.49512 1.06708 -0.04387
 C775 C 0.45815 1.00492 -0.06948
 C776 C 0.43182 1.04105 -0.00660
 H777 H 0.48493 0.97024 -0.04780
 H778 H 0.45369 1.01435 0.02801
 H779 H 0.53327 0.96596 0.03216
 H780 H 0.52951 1.04524 -0.01656
 H781 H 0.55256 1.01582 -0.05710
 H782 H 0.57423 1.01219 -0.02285
 H783 H 0.42577 0.98523 0.01939
 H784 H 0.45124 0.96501 0.04644
 H785 H 0.51917 0.99895 -0.08710
 H786 H 0.53068 0.92739 -0.04068
 H787 H 0.46160 1.05070 0.04471
 H788 H 0.48577 1.02347 0.06969
 H789 H 0.49740 0.91417 -0.02108
 H790 H 0.44805 0.95338 -0.03998
 H791 H 0.54778 1.04831 0.03253
 H792 H 0.52072 1.07404 0.01100
 O793 O 0.43128 0.51743 0.00988
 O794 O 0.43010 0.47793 -0.00984
 O795 O 0.48046 0.50723 0.06945
 O796 O 0.52295 0.49210 0.07260
 O797 O 0.49183 0.56747 0.01977
 O798 O 0.50752 0.57017 -0.02097
 O799 O 0.54812 0.44548 0.00466
 O800 O 0.52772 0.44143 0.04098
 O801 O 0.49714 0.45008 -0.05111
 O802 O 0.45804 0.47710 -0.05583
 O803 O 0.55262 0.50144 -0.04713
 O804 O 0.55929 0.53902 -0.02190
 O805 O 0.56772 0.47938 -0.00905
 O806 O 0.57220 0.52084 0.00719
 O807 O 0.51879 0.48794 -0.06685
 O808 O 0.47912 0.50305 -0.07223
 O809 O 0.51166 0.43079 -0.01745
 O810 O 0.48950 0.42889 0.02209
 O811 O 0.45155 0.55095 -0.00387
 O812 O 0.47622 0.55819 -0.03863
 O813 O 0.50480 0.54737 0.05360
 O814 O 0.53917 0.52320 0.06116
 O815 O 0.44667 0.49437 0.04907
 O816 O 0.44417 0.45710 0.02580
 Zr817 Zr 0.45876 0.49066 0.01297
 O818 O 0.48009 0.46738 -0.00895
 Zr819 Zr 0.50778 0.51087 0.04246
 O820 O 0.53104 0.48878 0.02144
 Zr821 Zr 0.48818 0.53995 -0.00684
 O822 O 0.51019 0.51882 -0.03011
 Zr823 Zr 0.51212 0.45775 0.00963
 O824 O 0.48946 0.47859 0.03294
 Zr825 Zr 0.49190 0.48652 -0.03979
 O826 O 0.46871 0.50928 -0.01910
 Zr827 Zr 0.54104 0.50684 -0.01083
 O828 O 0.52031 0.53031 0.01176
 O829 O 0.47650 0.52224 0.02450
 O830 O 0.52351 0.47517 -0.02214
 C831 C 0.43193 0.53967 0.00233
 C832 C 0.45804 0.50016 0.06872
 C833 C 0.49904 0.56695 0.04210
 C834 C 0.56729 0.45676 -0.00287
 C835 C 0.50521 0.43108 -0.03995
 C836 C 0.54140 0.49398 -0.06634
 H837 H 0.47047 0.45276 -0.01331
 H838 H 0.51464 0.52856 -0.04461
 H839 H 0.46610 0.53276 0.03484
 H840 H 0.54537 0.48413 0.03137
 H841 H 0.51593 0.44363 0.05444
 H842 H 0.51232 0.47792 0.07599
 H843 H 0.48548 0.51992 -0.07250
 H844 H 0.46500 0.54687 -0.04713
 H845 H 0.49904 0.41356 0.02108
 H846 H 0.42749 0.45989 0.03223
 H847 H 0.55097 0.54532 -0.03662
 H848 H 0.52360 0.57028 -0.01276
 H849 H 0.41436 0.47952 -0.00108
 H850 H 0.45368 0.46050 -0.05024
 H851 H 0.54840 0.53337 0.04944
 H852 H 0.57423 0.51166 0.02258
 O853 O 0.05441 0.00336 0.45393
 O854 O 0.05940 0.03947 0.47675
 O855 O 0.04959 -0.05327 0.50608
 O856 O 0.02353 -0.05950 0.54272
 O857 O -0.00310 -0.04907 0.44950
 O858 O -0.03895 -0.02427 0.44311
 O859 O -0.01770 0.00954 0.57057
 O860 O 0.01854 -0.00840 0.57480
 O861 O -0.00808 0.06798 0.52109
 O862 O 0.00829 0.07142 0.47948
 O863 O -0.06719 0.01923 0.51081
 O864 O -0.06974 -0.02361 0.49442
 O865 O -0.05136 -0.00355 0.55013
 O866 O -0.06021 -0.03851 0.52622
 O867 O -0.04671 0.05275 0.49775
 O868 O -0.02108 0.05969 0.46180
 O869 O 0.00442 0.04767 0.55495
 O870 O 0.04292 0.02370 0.55740
 O871 O 0.02026 -0.00941 0.43401
 O872 O -0.02022 0.00637 0.43013
 O873 O 0.01005 -0.06891 0.48343
 O874 O -0.00607 -0.07238 0.52348
 O875 O 0.06951 -0.01942 0.49283
 O876 O 0.07124 0.02101 0.51227
 Zr877 Zr 0.04240 0.00749 0.49023
 O878 O 0.02130 0.03068 0.51232
 Zr879 Zr 0.01304 -0.04166 0.51013
 O880 O -0.00931 -0.02038 0.53279
 Zr881 Zr -0.00684 -0.01252 0.46097
 O882 O -0.02990 0.01016 0.48161
 Zr883 Zr 0.00903 0.01154 0.54312
 O884 O 0.03274 -0.01114 0.52255
 Zr885 Zr -0.01054 0.04092 0.49386
 O886 O 0.01172 0.01968 0.47057
 Zr887 Zr -0.04014 -0.00801 0.51371
 O888 O -0.01927 -0.03197 0.49165
 O889 O 0.02447 -0.02388 0.47883
 O890 O -0.02257 0.02360 0.52550
 C891 C 0.04289 -0.00319 0.43451
 C892 C 0.06901 -0.04193 0.49928
 C893 C 0.00358 -0.06846 0.46092
 C894 C -0.04018 0.00278 0.56977
 C895 C -0.00162 0.06726 0.54364
 C896 C -0.06637 0.04165 0.50392
 H897 H 0.03135 0.04489 0.51706
 H898 H -0.04414 0.01465 0.47150
 H899 H 0.03482 -0.03435 0.46841
 H900 H -0.01375 -0.03020 0.54726
 H901 H 0.03333 -0.01787 0.57073
 H902 H 0.03872 -0.05164 0.54848
 H903 H -0.03448 0.05037 0.45411
 H904 H -0.01205 0.02247 0.43004
 H905 H 0.03997 0.03046 0.57391
 H906 H 0.08691 0.01861 0.50353
 H907 H -0.07308 -0.01318 0.48008
 H908 H -0.04660 -0.03661 0.45385
 H909 H 0.04801 0.04689 0.46486
 H910 H 0.02350 0.07349 0.48897
 H911 H -0.02221 -0.07231 0.51536
 H912 H -0.04940 -0.04796 0.53713
 O913 O 0.73067 0.18160 0.25874
 O914 O 0.76991 0.18018 0.23859
 O915 O 0.74320 0.23102 0.31849
 O916 O 0.75531 0.26948 0.32394
 O917 O 0.68115 0.24237 0.26915
 O918 O 0.67818 0.25823 0.22860
 O919 O 0.80361 0.29787 0.25334
 O920 O 0.80812 0.27607 0.28963
 O921 O 0.79785 0.24717 0.19706
 O922 O 0.77054 0.20835 0.19251
 O923 O 0.74728 0.30307 0.20194
 O924 O 0.71011 0.31010 0.22736
 O925 O 0.76978 0.31772 0.23983
 O926 O 0.72831 0.32230 0.25669
 O927 O 0.76013 0.26919 0.18192
 O928 O 0.74438 0.22957 0.17665
 O929 O 0.81762 0.26169 0.23043
 O930 O 0.82010 0.23893 0.26954
 O931 O 0.69719 0.20212 0.24530
 O932 O 0.68988 0.22701 0.21060
 O933 O 0.70176 0.25471 0.30290
 O934 O 0.72718 0.29096 0.30810
 O935 O 0.75445 0.19687 0.29781
 O936 O 0.79127 0.19396 0.27403
 Zr937 Zr 0.75770 0.20888 0.26160
 O938 O 0.78094 0.23004 0.23943
 Zr939 Zr 0.73816 0.25795 0.29138
 O940 O 0.76049 0.28107 0.27032
 Zr941 Zr 0.70843 0.23866 0.24234
 O942 O 0.72953 0.26066 0.21897
 Zr943 Zr 0.79114 0.26189 0.25797
 O944 O 0.77019 0.23950 0.28134
 Zr945 Zr 0.76154 0.24215 0.20885
 O946 O 0.73883 0.21904 0.22974
 Zr947 Zr 0.74204 0.29130 0.23825
 O948 O 0.71849 0.27063 0.26090
 O949 O 0.72635 0.22677 0.27352
 O950 O 0.77340 0.27357 0.22648
 C951 C 0.70838 0.18242 0.25133
 C952 C 0.74972 0.20845 0.31762
 C953 C 0.68198 0.24929 0.29155
 C954 C 0.79243 0.31712 0.24591
 C955 C 0.81701 0.25527 0.20794
 C956 C 0.75444 0.29188 0.18259
 H957 H 0.79542 0.22032 0.23484
 H958 H 0.71968 0.26529 0.20460
 H959 H 0.71597 0.21638 0.28404
 H960 H 0.76542 0.29535 0.28017
 H961 H 0.80502 0.26420 0.30289
 H962 H 0.76999 0.27877 0.31914
 H963 H 0.72770 0.23642 0.17641
 H964 H 0.70101 0.21568 0.20203
 H965 H 0.83552 0.24831 0.26825
 H966 H 0.78841 0.17729 0.28044
 H967 H 0.70337 0.30168 0.21290
 H968 H 0.67844 0.27437 0.23666
 H969 H 0.76830 0.16443 0.24734
 H970 H 0.78710 0.20377 0.19802
 H971 H 0.71428 0.29808 0.29765
 H972 H 0.73802 0.32449 0.27174
 O973 O 0.70314 0.75401 0.69650
 O974 O 0.72634 0.78979 0.69140
 O975 O 0.75492 0.69689 0.70176
 O976 O 0.79122 0.69027 0.72803
 O977 O 0.69806 0.70179 0.75422
 O978 O 0.69185 0.72685 0.78991
 O979 O 0.81972 0.75938 0.76896
 O980 O 0.82384 0.74111 0.73279
 O981 O 0.77092 0.81820 0.75882
 O982 O 0.72927 0.82191 0.74238
 O983 O 0.76013 0.76976 0.81812
 O984 O 0.74325 0.72737 0.82106
 O985 O 0.79904 0.74659 0.80256
 O986 O 0.77448 0.71160 0.81126
 O987 O 0.74746 0.80334 0.79752
 O988 O 0.71157 0.81060 0.77187
 O989 O 0.80459 0.79746 0.74658
 O990 O 0.80685 0.77335 0.70822
 O991 O 0.68300 0.74161 0.73063
 O992 O 0.67920 0.75750 0.77101
 O993 O 0.73186 0.68160 0.74131
 O994 O 0.77181 0.67784 0.75758
 O995 O 0.74201 0.73074 0.68163
 O996 O 0.76171 0.77103 0.67979
 Zr997 Zr 0.73948 0.75778 0.70861
 O998 O 0.76179 0.78085 0.72966
 Zr999 Zr 0.75883 0.70859 0.73826
 O1000 O 0.78169 0.72972 0.76055
 Zr1001 Zr 0.70989 0.73827 0.75780
 O1002 O 0.73074 0.76085 0.78082
 Zr1003 Zr 0.79237 0.76145 0.74211
 O1004 O 0.77160 0.73888 0.71846
 Zr1005 Zr 0.74338 0.79141 0.76140
 O1006 O 0.71990 0.77030 0.73916
 Zr1007 Zr 0.76262 0.74239 0.79123
 O1008 O 0.74033 0.71859 0.77042
 O1009 O 0.72771 0.72658 0.72660
 O1010 O 0.77480 0.77380 0.77358
 C1011 C 0.68361 0.74779 0.70800
 C1012 C 0.74837 0.70821 0.68226
 C1013 C 0.70934 0.68226 0.74774
 C1014 C 0.81876 0.75275 0.79146
 C1015 C 0.79349 0.81721 0.75245
 C1016 C 0.75356 0.79225 0.81721
 H1017 H 0.76669 0.79497 0.71956
 H1018 H 0.72067 0.76551 0.79501
 H1019 H 0.71721 0.71617 0.71625
 H1020 H 0.79605 0.71979 0.76507
 H1021 H 0.81976 0.73175 0.71793
 H1022 H 0.79727 0.69812 0.71296
 H1023 H 0.70374 0.80138 0.78526
 H1024 H 0.67940 0.77363 0.76290
 H1025 H 0.82346 0.77989 0.71118
 H1026 H 0.75300 0.76860 0.66410
 H1027 H 0.72882 0.73778 0.82406
 H1028 H 0.70249 0.71450 0.79768
 H1029 H 0.71457 0.79743 0.70275
 H1030 H 0.73886 0.82390 0.72723
 H1031 H 0.76371 0.67813 0.77372
 H1032 H 0.78596 0.70242 0.80081
 O1033 O 0.24598 0.19669 0.79718
 O1034 O 0.21007 0.19172 0.77419
 O1035 O 0.30287 0.20208 0.74525
 O1036 O 0.30933 0.22848 0.70900
 O1037 O 0.29829 0.25432 0.80231
 O1038 O 0.27335 0.28999 0.80882
 O1039 O 0.23992 0.26959 0.68108
 O1040 O 0.25828 0.23350 0.67666
 O1041 O 0.18150 0.25943 0.73009
 O1042 O 0.17792 0.24287 0.77162
 O1043 O 0.23013 0.31860 0.74091
 O1044 O 0.27268 0.32135 0.75749
 O1045 O 0.25295 0.30312 0.70173
 O1046 O 0.28815 0.31169 0.72606
 O1047 O 0.19657 0.29802 0.75370
 O1048 O 0.18951 0.27214 0.78951
 O1049 O 0.20206 0.24719 0.69630
 O1050 O 0.22615 0.20883 0.69375
 O1051 O 0.25857 0.23069 0.81743
 O1052 O 0.24267 0.27110 0.82148
 O1053 O 0.31833 0.24151 0.76838
 O1054 O 0.32190 0.25796 0.72848
 O1055 O 0.26904 0.18196 0.75822
 O1056 O 0.22862 0.18029 0.73864
 Zr1057 Zr 0.24203 0.20896 0.76096
 O1058 O 0.21885 0.23015 0.73891
 Zr1059 Zr 0.29120 0.23862 0.74152
 O1060 O 0.26995 0.26102 0.71885
 Zr1061 Zr 0.26176 0.25800 0.79067
 O1062 O 0.23913 0.28116 0.77003
 Zr1063 Zr 0.23813 0.24266 0.70830
 O1064 O 0.26080 0.21890 0.72882
 Zr1065 Zr 0.20845 0.26184 0.75750
 O1066 O 0.22964 0.23945 0.78074
 Zr1067 Zr 0.25743 0.29165 0.73809
 O1068 O 0.28132 0.27072 0.76018
 O1069 O 0.27332 0.22687 0.77265
 O1070 O 0.22591 0.27409 0.72603
 C1071 C 0.25236 0.20807 0.81672
 C1072 C 0.29155 0.18257 0.75180
 C1073 C 0.31777 0.24783 0.79093
 C1074 C 0.24656 0.29209 0.68204
 C1075 C 0.18238 0.25308 0.70751
 C1076 C 0.20767 0.31772 0.74764
 H1077 H 0.20469 0.22009 0.73404
 H1078 H 0.23456 0.29531 0.78019
 H1079 H 0.28378 0.21646 0.78306
 H1080 H 0.27980 0.26559 0.70445
 H1081 H 0.26770 0.21865 0.68063
 H1082 H 0.30144 0.21343 0.70295
 H1083 H 0.19875 0.28554 0.79730
 H1084 H 0.22657 0.26292 0.82139
 H1085 H 0.21951 0.21185 0.67720
 H1086 H 0.23109 0.16455 0.74724
 H1087 H 0.26237 0.32433 0.77199
 H1088 H 0.28563 0.29781 0.79814
 H1089 H 0.20247 0.20305 0.78600
 H1090 H 0.17593 0.22771 0.76206
 H1091 H 0.32167 0.27407 0.73664
 H1092 H 0.29727 0.30124 0.71455
 O1093 O 0.20216 0.74597 0.30438
 O1094 O 0.22529 0.71005 0.30907
 O1095 O 0.25396 0.80296 0.29893
 O1096 O 0.29014 0.80952 0.27240
 O1097 O 0.19664 0.79840 0.24701
 O1098 O 0.18997 0.77363 0.21123
 O1099 O 0.31793 0.74055 0.23079
 O1100 O 0.32250 0.75864 0.26700
 O1101 O 0.26898 0.68188 0.24098
 O1102 O 0.22763 0.67809 0.25778
 O1103 O 0.25776 0.73062 0.18208
 O1104 O 0.24101 0.77321 0.17964
 O1105 O 0.29701 0.75360 0.19742
 O1106 O 0.27259 0.78862 0.18906
 O1107 O 0.24512 0.69700 0.20264
 O1108 O 0.20942 0.68984 0.22874
 O1109 O 0.30285 0.70243 0.25306
 O1110 O 0.30565 0.72633 0.29154
 O1111 O 0.18172 0.75861 0.27050
 O1112 O 0.17746 0.74283 0.23005
 O1113 O 0.23063 0.81846 0.25971
 O1114 O 0.27044 0.82222 0.24306
 O1115 O 0.24114 0.76904 0.31900
 O1116 O 0.26087 0.72870 0.32043
 Zr1117 Zr 0.23835 0.74212 0.29191
 O1118 O 0.26032 0.71909 0.27050
 Zr1119 Zr 0.25756 0.79141 0.26233
 O1120 O 0.28010 0.77032 0.23969
 Zr1121 Zr 0.20832 0.76194 0.24308
 O1122 O 0.22884 0.73945 0.21972
 Zr1123 Zr 0.29084 0.73846 0.25787
 O1124 O 0.27043 0.76097 0.28185
 Zr1125 Zr 0.24153 0.70876 0.23888
 O1126 O 0.21839 0.72980 0.26147
 Zr1127 Zr 0.26069 0.75786 0.20911
 O1128 O 0.23871 0.78162 0.23027
 O1129 O 0.22651 0.77342 0.27416
 O1130 O 0.27291 0.72632 0.22649
 C1131 C 0.18255 0.75237 0.29311
 C1132 C 0.24749 0.79158 0.31843
 C1133 C 0.20802 0.81787 0.25355
 C1134 C 0.31681 0.74730 0.20832
 C1135 C 0.29161 0.68276 0.24715
 C1136 C 0.25107 0.70815 0.18294
 H1137 H 0.26528 0.70490 0.28047
 H1138 H 0.21860 0.73491 0.20560
 H1139 H 0.21615 0.78380 0.28466
 H1140 H 0.29446 0.78023 0.23509
 H1141 H 0.31859 0.76798 0.28191
 H1142 H 0.29623 0.80163 0.28744
 H1143 H 0.20161 0.69903 0.21532
 H1144 H 0.17759 0.72672 0.23820
 H1145 H 0.32219 0.71973 0.28837
 H1146 H 0.25234 0.73107 0.33621
 H1147 H 0.22659 0.76278 0.17661
 H1148 H 0.20057 0.78598 0.20341
 H1149 H 0.21335 0.70251 0.29781
 H1150 H 0.23723 0.67614 0.27294
 H1151 H 0.26214 0.82207 0.22702
 H1152 H 0.28395 0.79788 0.19958
 O1153 O 0.23027 0.68140 0.76001
 O1154 O 0.26963 0.67978 0.74021
 O1155 O 0.24255 0.73079 0.81985
 O1156 O 0.25526 0.76908 0.82532
 O1157 O 0.18096 0.74249 0.77041
 O1158 O 0.17819 0.75828 0.72977
 O1159 O 0.30378 0.79732 0.75469
 O1160 O 0.30803 0.77563 0.79116
 O1161 O 0.29793 0.74655 0.69862
 O1162 O 0.27037 0.70786 0.69407
 O1163 O 0.24757 0.80273 0.70333
 O1164 O 0.21039 0.80999 0.72859
 O1165 O 0.27003 0.81731 0.74118
 O1166 O 0.22851 0.82207 0.75802
 O1167 O 0.26036 0.76879 0.68338
 O1168 O 0.24447 0.72928 0.67803
 O1169 O 0.31769 0.76096 0.73206
 O1170 O 0.31990 0.73834 0.77124
 O1171 O 0.19689 0.70205 0.74651
 O1172 O 0.18972 0.72699 0.71188
 O1173 O 0.20158 0.75482 0.80415
 O1174 O 0.22718 0.79084 0.80942
 O1175 O 0.25374 0.69658 0.79924
 O1176 O 0.29082 0.69357 0.77575
 Zr1177 Zr 0.25737 0.70857 0.76307
 O1178 O 0.28079 0.72959 0.74096
 Zr1179 Zr 0.23801 0.75776 0.79273
 O1180 O 0.26051 0.78077 0.77173
 Zr1181 Zr 0.20829 0.73856 0.74364
 O1182 O 0.22958 0.76042 0.72032
 Zr1183 Zr 0.29110 0.76141 0.75949
 O1184 O 0.26997 0.73914 0.78282
 Zr1185 Zr 0.26154 0.74175 0.71031
 O1186 O 0.23864 0.71879 0.73114
 Zr1187 Zr 0.24218 0.79102 0.73962
 O1188 O 0.21846 0.77049 0.76220
 O1189 O 0.22607 0.72663 0.77487
 O1190 O 0.27349 0.77314 0.72795
 C1191 C 0.20802 0.68229 0.75251
 C1192 C 0.24887 0.70817 0.81901
 C1193 C 0.18180 0.74948 0.79279
 C1194 C 0.29269 0.81661 0.74721
 C1195 C 0.31712 0.75451 0.70957
 C1196 C 0.25476 0.79150 0.68403
 H1197 H 0.29524 0.71978 0.73643
 H1198 H 0.21981 0.76509 0.70591
 H1199 H 0.21557 0.71630 0.78532
 H1200 H 0.26549 0.79503 0.78157
 H1201 H 0.30485 0.76381 0.80444
 H1202 H 0.26983 0.77856 0.82054
 H1203 H 0.22779 0.73615 0.67776
 H1204 H 0.20085 0.71569 0.70328
 H1205 H 0.33537 0.74765 0.77001
 H1206 H 0.28784 0.67694 0.78221
 H1207 H 0.20362 0.80154 0.71416
 H1208 H 0.17849 0.77442 0.73785
 H1209 H 0.26795 0.66406 0.74899
 H1210 H 0.28692 0.70322 0.69959
 H1211 H 0.21440 0.79808 0.79890
 H1212 H 0.23832 0.82435 0.77300
 O1213 O 0.25343 0.19613 0.20155
 O1214 O 0.28934 0.19126 0.22461
 O1215 O 0.19643 0.20107 0.25337
 O1216 O 0.18976 0.22717 0.28968
 O1217 O 0.20089 0.25350 0.19652
 O1218 O 0.22564 0.28931 0.19015
 O1219 O 0.25897 0.26859 0.31795
 O1220 O 0.24085 0.23228 0.32218
 O1221 O 0.31750 0.25909 0.26891
 O1222 O 0.32127 0.24269 0.22739
 O1223 O 0.26861 0.31787 0.25855
 O1224 O 0.22638 0.32077 0.24185
 O1225 O 0.24574 0.30210 0.29739
 O1226 O 0.21026 0.31032 0.27269
 O1227 O 0.30226 0.29757 0.24561
 O1228 O 0.30942 0.27192 0.20951
 O1229 O 0.29702 0.24659 0.30266
 O1230 O 0.27319 0.20798 0.30505
 O1231 O 0.24069 0.23013 0.18138
 O1232 O 0.25653 0.27068 0.17754
 O1233 O 0.18087 0.24045 0.23039
 O1234 O 0.17720 0.25681 0.27039
 O1235 O 0.23035 0.18115 0.24035
 O1236 O 0.27075 0.17959 0.26007
 Zr1237 Zr 0.25728 0.20829 0.23782
 O1238 O 0.28033 0.22952 0.25997
 Zr1239 Zr 0.20796 0.23762 0.25729
 O1240 O 0.22906 0.26000 0.28011
 Zr1241 Zr 0.23738 0.25734 0.20823
 O1242 O 0.25982 0.28056 0.22902
 Zr1243 Zr 0.26097 0.24178 0.29062
 O1244 O 0.23843 0.21800 0.26997
 Zr1245 Zr 0.29057 0.26135 0.24151
 O1246 O 0.26956 0.23891 0.21815
 Zr1247 Zr 0.24141 0.29078 0.26098
 O1248 O 0.21771 0.26983 0.23872
 O1249 O 0.22594 0.22609 0.22614
 O1250 O 0.27300 0.27335 0.27299
 C1251 C 0.24697 0.20752 0.18204
 C1252 C 0.20781 0.18166 0.24671
 C1253 C 0.18143 0.24684 0.20785
 C1254 C 0.25218 0.29104 0.31705
 C1255 C 0.31666 0.25273 0.29148
 C1256 C 0.29109 0.31714 0.25192
 H1257 H 0.29456 0.21954 0.26482
 H1258 H 0.26435 0.29480 0.21895
 H1259 H 0.21555 0.21568 0.21568
 H1260 H 0.21916 0.26442 0.29452
 H1261 H 0.23153 0.21739 0.31812
 H1262 H 0.19781 0.21221 0.29575
 H1263 H 0.30024 0.28546 0.20191
 H1264 H 0.27263 0.26251 0.17761
 H1265 H 0.27983 0.21100 0.32160
 H1266 H 0.26833 0.16388 0.25142
 H1267 H 0.23648 0.32358 0.22717
 H1268 H 0.21344 0.29712 0.20092
 H1269 H 0.29692 0.20267 0.21285
 H1270 H 0.32328 0.22746 0.23685
 H1271 H 0.17734 0.27291 0.26221
 H1272 H 0.20162 0.30008 0.28477
 O1273 O 0.80245 0.70265 0.24501
 O1274 O 0.80747 0.72573 0.20907
 O1275 O 0.79742 0.75433 0.30200
 O1276 O 0.77130 0.79067 0.30870
 O1277 O 0.74482 0.69761 0.29709
 O1278 O 0.70901 0.69150 0.27213
 O1279 O 0.73030 0.81928 0.23950
 O1280 O 0.76651 0.82335 0.25778
 O1281 O 0.74009 0.77049 0.18075
 O1282 O 0.75633 0.72888 0.17694
 O1283 O 0.68089 0.75991 0.22933
 O1284 O 0.67796 0.74304 0.27166
 O1285 O 0.69665 0.79873 0.25240
 O1286 O 0.68802 0.77417 0.28752
 O1287 O 0.70133 0.74715 0.19570
 O1288 O 0.72691 0.71114 0.18843
 O1289 O 0.75255 0.80410 0.20147
 O1290 O 0.79099 0.80627 0.22556
 O1291 O 0.76826 0.68256 0.25739
 O1292 O 0.72782 0.67887 0.24135
 O1293 O 0.75789 0.73134 0.31731
 O1294 O 0.74163 0.77134 0.32110
 O1295 O 0.81745 0.74143 0.26811
 O1296 O 0.81925 0.76111 0.22778
 Zr1297 Zr 0.79040 0.73896 0.24110
 O1298 O 0.76935 0.76129 0.21805
 Zr1299 Zr 0.76090 0.75835 0.29035
 O1300 O 0.73865 0.78128 0.26924
 Zr1301 Zr 0.74114 0.70948 0.26064
 O1302 O 0.71811 0.73040 0.23814
 Zr1303 Zr 0.75706 0.79189 0.23748
 O1304 O 0.78069 0.77108 0.26003
 Zr1305 Zr 0.73750 0.74297 0.20755
 O1306 O 0.75975 0.71945 0.22859
 Zr1307 Zr 0.70787 0.76229 0.25664
 O1308 O 0.72865 0.73993 0.28038
 O1309 O 0.77241 0.72725 0.27230
 O1310 O 0.72549 0.77441 0.22519
 C1311 C 0.79093 0.68316 0.25133
 C1312 C 0.81688 0.74772 0.29066
 C1313 C 0.75145 0.70882 0.31661
 C1314 C 0.70780 0.81840 0.24616
 C1315 C 0.74656 0.79303 0.18173
 C1316 C 0.68170 0.75333 0.20683
 H1317 H 0.77942 0.76617 0.20391
 H1318 H 0.70386 0.72037 0.23351
 H1319 H 0.78276 0.71674 0.28271
 H1320 H 0.73421 0.79566 0.27918
 H1321 H 0.78134 0.81922 0.26718
 H1322 H 0.78636 0.79671 0.30080
 H1323 H 0.71344 0.70341 0.19763
 H1324 H 0.73603 0.67899 0.22528
 H1325 H 0.78807 0.82287 0.21898
 H1326 H 0.83492 0.75238 0.23019
 H1327 H 0.67494 0.72858 0.26132
 H1328 H 0.70129 0.70216 0.28448
 H1329 H 0.79609 0.71393 0.20150
 H1330 H 0.77162 0.73828 0.17507
 H1331 H 0.72550 0.76320 0.32086
 H1332 H 0.69849 0.78572 0.29659
 O1333 O 0.81943 0.24014 0.73137
 O1334 O 0.82081 0.25991 0.77081
 O1335 O 0.77004 0.18023 0.74310
 O1336 O 0.73163 0.17458 0.75527
 O1337 O 0.75876 0.23008 0.68168
 O1338 O 0.74276 0.27066 0.67909
 O1339 O 0.70310 0.24477 0.80420
 O1340 O 0.72486 0.20839 0.80834
 O1341 O 0.75371 0.30107 0.79908
 O1342 O 0.79260 0.30591 0.77186
 O1343 O 0.69793 0.29658 0.74804
 O1344 O 0.69083 0.27136 0.71092
 O1345 O 0.68327 0.25856 0.77047
 O1346 O 0.67868 0.24191 0.72888
 O1347 O 0.73174 0.31653 0.76126
 O1348 O 0.77135 0.32205 0.74590
 O1349 O 0.73932 0.26745 0.81852
 O1350 O 0.76205 0.22833 0.82056
 O1351 O 0.79890 0.25385 0.69800
 O1352 O 0.77399 0.28858 0.69098
 O1353 O 0.74635 0.19615 0.70193
 O1354 O 0.71005 0.19067 0.72725
 O1355 O 0.80417 0.20085 0.75466
 O1356 O 0.80704 0.22423 0.79177
 Zr1357 Zr 0.79213 0.23699 0.75832
 O1358 O 0.77094 0.25889 0.78175
 Zr1359 Zr 0.74307 0.20733 0.73843
 O1360 O 0.71992 0.22811 0.76094
 Zr1361 Zr 0.76236 0.25666 0.70921
 O1362 O 0.74033 0.27977 0.73051
 Zr1363 Zr 0.73908 0.24021 0.79172
 O1364 O 0.76151 0.21708 0.77057
 Zr1365 Zr 0.75879 0.28963 0.76265
 O1366 O 0.78195 0.26902 0.73976
 Zr1367 Zr 0.70968 0.26031 0.74276
 O1368 O 0.73038 0.23795 0.71902
 O1369 O 0.77425 0.22534 0.72685
 O1370 O 0.72736 0.27184 0.77427
 C1371 C 0.81861 0.24772 0.70915
 C1372 C 0.79262 0.18108 0.74963
 C1373 C 0.75186 0.20767 0.68229
 C1374 C 0.68386 0.25231 0.79307
 C1375 C 0.74570 0.28997 0.81814
 C1376 C 0.70910 0.31589 0.75532
 H1377 H 0.78065 0.26336 0.79629
 H1378 H 0.73570 0.29421 0.72077
 H1379 H 0.78466 0.21495 0.71638
 H1380 H 0.70564 0.21820 0.76576
 H1381 H 0.73672 0.19516 0.80513
 H1382 H 0.72221 0.17922 0.76992
 H1383 H 0.76474 0.32231 0.72912
 H1384 H 0.78537 0.29703 0.70217
 H1385 H 0.75267 0.22943 0.83598
 H1386 H 0.82372 0.21786 0.78885
 H1387 H 0.69941 0.28570 0.70412
 H1388 H 0.72670 0.26240 0.67911
 H1389 H 0.83657 0.25120 0.76914
 H1390 H 0.79713 0.30032 0.78841
 H1391 H 0.70294 0.20123 0.71444
 H1392 H 0.67645 0.22684 0.73854
 C1393 C 0.07977 1.00948 1.13669
 C1394 C 0.05453 1.01300 1.13608
 C1395 C 0.04175 1.01038 1.11423
 C1396 C 0.10284 1.01701 1.17834
 C1397 C 0.07942 1.00025 1.09342
 C1398 C 0.09220 1.00293 1.11538
 C1399 C 0.09273 1.01331 1.15917
 C1400 C 0.05405 1.00418 1.09256
 H1401 H 0.04474 1.01807 1.15248
 H1402 H 0.02225 1.01351 1.11432
 H1403 H 0.08946 0.99554 1.07708
 H1404 H 0.11177 1.00020 1.11566
 C1405 C 0.58161 0.51183 0.63525
 C1406 C 0.59377 0.50466 0.61398
 C1407 C 0.58084 0.50211 0.59207
 C1408 C 0.60468 0.51823 0.67710
 C1409 C 0.54361 0.51383 0.61283
 C1410 C 0.55653 0.51633 0.63461
 C1411 C 0.59462 0.51506 0.65781
 C1412 C 0.55559 0.50675 0.59124
 H1413 H 0.61322 0.50118 0.61428
 H1414 H 0.59065 0.49672 0.57581
 H1415 H 0.52421 0.51757 0.61294
 H1416 H 0.54694 0.52192 0.65095
 C1417 C 0.41972 -0.01157 0.63283
 C1418 C 0.44490 -0.01543 0.63213
 C1419 C 0.45769 -0.01248 0.61035
 C1420 C 0.39694 -0.01888 0.67467
 C1421 C 0.42013 -0.00152 0.58972
 C1422 C 0.40733 -0.00452 0.61162
 C1423 C 0.40685 -0.01531 0.65538
 C1424 C 0.44548 -0.00558 0.58882
 H1425 H 0.45466 -0.02090 0.64843
 H1426 H 0.47717 -0.01577 0.61042
 H1427 H 0.41016 0.00371 0.57348
 H1428 H 0.38780 -0.00152 0.61198
 C1429 C -0.08098 0.49138 1.13475
 C1430 C -0.05561 0.48898 1.13436
 C1431 C -0.04284 0.49179 1.11256
 C1432 C -0.10378 0.48327 1.17641
 C1433 C -0.08078 0.49993 1.09132
 C1434 C -0.09356 0.49705 1.11324
 C1435 C -0.09386 0.48723 1.15721
 C1436 C -0.05526 0.49707 1.09070
 H1437 H -0.04570 0.48460 1.15090
 H1438 H -0.02321 0.48952 1.11283
 H1439 H -0.09090 0.50390 1.07482
 H1440 H -0.11324 0.49891 1.11336
 C1441 C -0.08313 0.51227 0.36530
 C1442 C -0.09507 0.50385 0.38626
 C1443 C -0.08208 0.50088 0.40808
 C1444 C -0.10608 0.51916 0.32346
 C1445 C -0.04525 0.51471 0.38788
 C1446 C -0.05823 0.51763 0.36619
 C1447 C -0.09614 0.51577 0.34278
 C1448 C -0.05700 0.50635 0.40914
 H1449 H -0.11438 0.49968 0.38576
 H1450 H -0.09170 0.49449 0.42410
 H1451 H -0.02600 0.51914 0.38794
 H1452 H -0.04881 0.52418 0.35009
 C1453 C 0.41851 1.01253 -0.13673
 C1454 C 0.40649 1.00410 -0.11583
 C1455 C 0.41932 1.00143 -0.09388
 C1456 C 0.39570 1.01895 -0.17873
 C1457 C 0.45616 1.01557 -0.11384
 C1458 C 0.44334 1.01820 -0.13566
 C1459 C 0.40563 1.01576 -0.15936
 C1460 C 0.44433 1.00719 -0.09263
 H1461 H 0.38724 0.99971 -0.11647
 H1462 H 0.40964 0.99500 -0.07791
 H1463 H 0.47536 1.02022 -0.11363
 H1464 H 0.45281 1.02477 -0.15172
 C1465 C 0.58112 0.48689 -0.13351
 C1466 C 0.59330 0.49429 -0.11231
 C1467 C 0.58044 0.49684 -0.09039
 C1468 C 0.60413 0.48035 -0.17532
 C1469 C 0.54323 0.48467 -0.11099
 C1470 C 0.55609 0.48217 -0.13278
 C1471 C 0.59409 0.48361 -0.15605
 C1472 C 0.55523 0.49197 -0.08948
 H1473 H 0.61272 0.49794 -0.11268
 H1474 H 0.59025 0.50242 -0.07418
 H1475 H 0.52386 0.48075 -0.11104
 H1476 H 0.54649 0.47639 -0.14908
 C1477 C 0.08214 -0.01063 0.36715
 C1478 C 0.09481 -0.00514 0.38865
 C1479 C 0.08208 -0.00214 0.41059
 C1480 C 0.10469 -0.01861 0.32534
 C1481 C 0.04402 -0.00979 0.38938
 C1482 C 0.05674 -0.01273 0.36756
 C1483 C 0.09491 -0.01475 0.34463
 C1484 C 0.05653 -0.00468 0.41123
 H1485 H 0.11451 -0.00349 0.38851
 H1486 H 0.09227 0.00170 0.42707
 H1487 H 0.02437 -0.01182 0.38912
 H1488 H 0.04676 -0.01695 0.35103
 C1489 C 0.13543 1.08021 1.01080
 C1490 C 0.11413 1.09283 1.00453
 C1491 C 0.09209 1.08019 1.00177
 C1492 C 0.17735 1.10288 1.01817
 C1493 C 0.11280 1.04230 1.01130
 C1494 C 0.13472 1.05494 1.01400
 C1495 C 0.15805 1.09298 1.01458
 C1496 C 0.09114 1.05477 1.00534
 H1497 H 0.11449 1.11242 1.00204
 H1498 H 0.07577 1.09036 0.99725
 H1499 H 0.11282 1.02276 1.01415
 H1500 H 0.15110 1.04500 1.01886
 C1501 C 0.63444 0.58143 0.51295
 C1502 C 0.61353 0.59348 0.50459
 C1503 C 0.59151 0.58073 0.50215
 C1504 C 0.67658 0.60406 0.51889
 C1505 C 0.61143 0.54392 0.51641
 C1506 C 0.63332 0.55666 0.51881
 C1507 C 0.65715 0.59422 0.51591
 C1508 C 0.59021 0.55577 0.50808
 H1509 H 0.61421 0.61269 0.50005
 H1510 H 0.57553 0.59042 0.49575
 H1511 H 0.61118 0.52475 0.52119
 H1512 H 0.64939 0.54717 0.52533
 C1513 C 0.63457 0.41719 -0.01022
 C1514 C 0.63387 0.44231 -0.01442
 C1515 C 0.61205 0.45512 -0.01179
 C1516 C 0.67641 0.39427 -0.01718
 C1517 C 0.59138 0.41770 -0.00050
 C1518 C 0.61332 0.40488 -0.00318
 C1519 C 0.65714 0.40426 -0.01372
 C1520 C 0.59048 0.44299 -0.00489
 H1521 H 0.65020 0.45201 -0.01991
 H1522 H 0.61212 0.47456 -0.01532
 H1523 H 0.57512 0.40778 0.00476
 H1524 H 0.61366 0.38539 0.00006
 C1525 C 0.13627 -0.08151 0.49189
 C1526 C 0.13583 -0.05619 0.48907
 C1527 C 0.11406 -0.04336 0.49197
 C1528 C 0.17798 -0.10436 0.48399
 C1529 C 0.09293 -0.08114 0.50100
 C1530 C 0.11482 -0.09398 0.49804
 C1531 C 0.15874 -0.09444 0.48783
 C1532 C 0.09227 -0.05567 0.49777
 H1533 H 0.15231 -0.04636 0.48432
 H1534 H 0.11431 -0.02379 0.48937
 H1535 H 0.07649 -0.09119 0.50538
 H1536 H 0.11497 -0.11361 0.50025
 C1537 C 0.36678 -0.08077 0.51241
 C1538 C 0.36771 -0.05588 0.51779
 C1539 C 0.38941 -0.04294 0.51483
 C1540 C 0.32509 -0.10391 0.51960
 C1541 C 0.40952 -0.07976 0.50091
 C1542 C 0.38770 -0.09271 0.50392
 C1543 C 0.34431 -0.09382 0.51605
 C1544 C 0.41064 -0.05470 0.50640
 H1545 H 0.35164 -0.04647 0.52440
 H1546 H 0.38953 -0.02370 0.51927
 H1547 H 0.42551 -0.08939 0.49447
 H1548 H 0.38717 -0.11202 0.49976
 C1549 C -0.13497 0.41950 1.00944
 C1550 C -0.13466 0.44487 1.01188
 C1551 C -0.11291 0.45776 1.00892
 C1552 C -0.17647 0.39633 1.01769
 C1553 C -0.09159 0.41996 1.00056
 C1554 C -0.11345 0.40706 1.00358
 C1555 C -0.15737 0.40647 1.01368
 C1556 C -0.09103 0.44547 1.00345
 H1557 H -0.15120 0.45468 1.01641
 H1558 H -0.11323 0.47737 1.01124
 H1559 H -0.07510 0.40991 0.99644
 H1560 H -0.11350 0.38740 1.00168
 C1561 C -0.13564 0.58021 0.48621
 C1562 C -0.11443 0.59234 0.49368
 C1563 C -0.09263 0.57936 0.49671
 C1564 C -0.17736 0.60336 0.47929
 C1565 C -0.11337 0.54212 0.48492
 C1566 C -0.13504 0.55510 0.48192
 C1567 C -0.15811 0.59326 0.48262
 C1568 C -0.09184 0.55408 0.49228
 H1569 H -0.11470 0.61181 0.49702
 H1570 H -0.07640 0.58914 0.50232
 H1571 H -0.11350 0.52271 0.48131
 H1572 H -0.15135 0.54553 0.47613
 C1573 C 0.36453 1.08062 -0.01371
 C1574 C 0.38571 1.09283 -0.00628
 C1575 C 0.40766 1.08002 -0.00373
 C1576 C 0.32258 1.10346 -0.02009
 C1577 C 0.38716 1.04279 -0.01597
 C1578 C 0.36533 1.05560 -0.01847
 C1579 C 0.34192 1.09351 -0.01692
 C1580 C 0.40864 1.05483 -0.00863
 H1581 H 0.38528 1.11224 -0.00259
 H1582 H 0.42385 1.08986 0.00189
 H1583 H 0.38716 1.02345 -0.01992
 H1584 H 0.34905 1.04598 -0.02426
 C1585 C 0.00906 1.13600 1.08080
 C1586 C 0.00249 1.11474 1.09333
 C1587 C -0.00019 1.09272 1.08066
 C1588 C 0.01661 1.17783 1.10352
 C1589 C 0.01000 1.11338 1.04291
 C1590 C 0.01262 1.13528 1.05558
 C1591 C 0.01289 1.15857 1.09361
 C1592 C 0.00376 1.09176 1.05530
 H1593 H -0.00027 1.11511 1.11289
 H1594 H -0.00493 1.07642 1.09076
 H1595 H 0.01315 1.11339 1.02342
 H1596 H 0.01771 1.15163 1.04571
 C1597 C 0.51177 0.63534 0.58234
 C1598 C 0.50449 0.61412 0.59455
 C1599 C 0.50181 0.59221 0.58168
 C1600 C 0.51844 0.67724 0.60520
 C1601 C 0.51362 0.61287 0.54440
 C1602 C 0.51625 0.63465 0.55727
 C1603 C 0.51513 0.65791 0.59527
 C1604 C 0.50643 0.59133 0.55643
 H1605 H 0.50103 0.61447 0.61400
 H1606 H 0.49633 0.57598 0.59151
 H1607 H 0.51734 0.61295 0.52501
 H1608 H 0.52192 0.65096 0.54765
 C1609 C -0.01309 0.63298 0.41763
 C1610 C -0.00591 0.61178 0.40534
 C1611 C -0.00317 0.58986 0.41817
 C1612 C -0.01969 0.67498 0.39496
 C1613 C -0.01471 0.61045 0.45555
 C1614 C -0.01740 0.63224 0.44273
 C1615 C -0.01645 0.65559 0.40478
 C1616 C -0.00763 0.58894 0.44345
 H1617 H -0.00257 0.61217 0.38587
 H1618 H 0.00222 0.57364 0.40828
 H1619 H -0.01831 0.61049 0.47496
 H1620 H -0.02299 0.64854 0.45241
 C1621 C 0.48767 1.13456 -0.08312
 C1622 C 0.49486 1.11343 -0.09552
 C1623 C 0.49754 1.09140 -0.08283
 C1624 C 0.48117 1.17675 -0.10554
 C1625 C 0.48590 1.11176 -0.04535
 C1626 C 0.48327 1.13365 -0.05804
 C1627 C 0.48437 1.15728 -0.09583
 C1628 C 0.49301 1.09032 -0.05757
 H1629 H 0.49827 1.11394 -0.11497
 H1630 H 0.50295 1.07525 -0.09280
 H1631 H 0.48224 1.11169 -0.02595
 H1632 H 0.47768 1.14988 -0.04826
 C1633 C 0.51300 0.36387 -0.07954
 C1634 C 0.51852 0.36491 -0.05468
 C1635 C 0.51582 0.38671 -0.04187
 C1636 C 0.51973 0.32205 -0.10252
 C1637 C 0.50189 0.40671 -0.07877
 C1638 C 0.50464 0.38479 -0.09159
 C1639 C 0.51639 0.34131 -0.09247
 C1640 C 0.50752 0.40793 -0.05374
 H1641 H 0.52505 0.34884 -0.04519
 H1642 H 0.52037 0.38690 -0.02265
 H1643 H 0.49552 0.42269 -0.08848
 H1644 H 0.50036 0.38418 -0.11087
 C1645 C 0.01035 -0.13574 0.42136
 C1646 C 0.01347 -0.13531 0.44665
 C1647 C 0.01077 -0.11353 0.45950
 C1648 C 0.01789 -0.17733 0.39822
 C1649 C 0.00135 -0.09242 0.42180
 C1650 C 0.00411 -0.11431 0.40895
 C1651 C 0.01421 -0.15818 0.40835
 C1652 C 0.00489 -0.09174 0.44724
 H1653 H 0.01829 -0.15180 0.45643
 H1654 H 0.01359 -0.11376 0.47905
 H1655 H -0.00310 -0.07599 0.41178
 H1656 H 0.00168 -0.11446 0.38934
 C1657 C 0.48843 -0.13346 0.58024
 C1658 C 0.49582 -0.11220 0.59231
 C1659 C 0.49874 -0.09042 0.57927
 C1660 C 0.48132 -0.17502 0.60358
 C1661 C 0.48697 -0.11128 0.54209
 C1662 C 0.48410 -0.13294 0.55513
 C1663 C 0.48480 -0.15586 0.59339
 C1664 C 0.49424 -0.08970 0.55399
 H1665 H 0.49918 -0.11242 0.61178
 H1666 H 0.50427 -0.07415 0.58901
 H1667 H 0.48332 -0.11147 0.52268
 H1668 H 0.47835 -0.14928 0.54562
 C1669 C -0.01008 0.36561 1.07999
 C1670 C -0.00404 0.38701 1.09256
 C1671 C -0.00119 0.40897 1.07982
 C1672 C -0.01811 0.32392 1.10278
 C1673 C -0.01012 0.38797 1.04193
 C1674 C -0.01291 0.36614 1.05467
 C1675 C -0.01417 0.34312 1.09285
 C1676 C -0.00444 0.40973 1.05435
 H1677 H -0.00185 0.38679 1.11220
 H1678 H 0.00311 0.42537 1.08994
 H1679 H -0.01272 0.38781 1.02236
 H1680 H -0.01760 0.34968 1.04478
 C1681 C 0.76216 0.33188 0.11553
 C1682 C 0.76634 0.30675 0.11614
 C1683 C 0.76360 0.29382 0.13788
 C1684 C 0.76885 0.35484 0.07362
 C1685 C 0.75227 0.33113 0.15869
 C1686 C 0.75506 0.34407 0.13682
 C1687 C 0.76557 0.34487 0.09296
 C1688 C 0.75659 0.30582 0.15949
 H1689 H 0.77186 0.29712 0.09979
 H1690 H 0.76711 0.27439 0.13773
 H1691 H 0.74694 0.34095 0.17497
 H1692 H 0.75181 0.36355 0.13654
 C1693 C 0.26319 0.83156 0.61717
 C1694 C 0.26695 0.80637 0.61768
 C1695 C 0.26395 0.79340 0.63936
 C1696 C 0.27051 0.85463 0.57549
 C1697 C 0.25315 0.83081 0.66028
 C1698 C 0.25620 0.84379 0.63847
 C1699 C 0.26695 0.84459 0.59472
 C1700 C 0.25710 0.80545 0.66098
 H1701 H 0.27238 0.79673 0.60131
 H1702 H 0.26716 0.77392 0.63914
 H1703 H 0.24795 0.84066 0.67658
 H1704 H 0.25328 0.86332 0.63827
 C1705 C 0.74212 0.66848 0.61505
 C1706 C 0.74794 0.65608 0.63660
 C1707 C 0.75050 0.66897 0.65850
 C1708 C 0.73431 0.64539 0.57350
 C1709 C 0.74169 0.70668 0.63713
 C1710 C 0.73920 0.69379 0.61535
 C1711 C 0.73821 0.65546 0.59263
 C1712 C 0.74716 0.69443 0.65904
 H1713 H 0.75017 0.63645 0.63655
 H1714 H 0.75465 0.65898 0.67503
 H1715 H 0.73905 0.72625 0.63680
 H1716 H 0.73466 0.70356 0.59878
 C1717 C 0.24034 0.16762 0.11494
 C1718 C 0.24612 0.15526 0.13653
 C1719 C 0.24883 0.16822 0.15837
 C1720 C 0.23266 0.14436 0.07344
 C1721 C 0.24030 0.20592 0.13689
 C1722 C 0.23764 0.19296 0.11516
 C1723 C 0.23643 0.15452 0.09256
 C1724 C 0.24571 0.19371 0.15883
 H1725 H 0.24821 0.13562 0.13655
 H1726 H 0.25292 0.15825 0.17493
 H1727 H 0.23781 0.22551 0.13649
 H1728 H 0.23317 0.20270 0.09855
 C1729 C 0.25893 0.16815 0.88380
 C1730 C 0.25340 0.15576 0.86217
 C1731 C 0.25070 0.16872 0.84032
 C1732 C 0.26678 0.14492 0.92527
 C1733 C 0.25876 0.20647 0.86189
 C1734 C 0.26139 0.19351 0.88362
 C1735 C 0.26291 0.15507 0.90617
 C1736 C 0.25361 0.19423 0.83991
 H1737 H 0.25151 0.13609 0.86212
 H1738 H 0.24682 0.15873 0.82373
 H1739 H 0.26106 0.22608 0.86232
 H1740 H 0.26568 0.20328 0.90026
 C1741 C 0.75858 0.66861 0.38349
 C1742 C 0.76108 0.69397 0.38338
 C1743 C 0.75821 0.70703 0.36173
 C1744 C 0.76680 0.64522 0.42482
 C1745 C 0.74981 0.66939 0.34011
 C1746 C 0.75275 0.65633 0.36187
 C1747 C 0.76279 0.65542 0.40577
 C1748 C 0.75278 0.69490 0.33976
 H1749 H 0.76559 0.70366 0.40001
 H1750 H 0.76058 0.72663 0.36221
 H1751 H 0.74572 0.65948 0.32352
 H1752 H 0.75080 0.63667 0.36176
 C1753 C 0.24122 0.83121 0.38577
 C1754 C 0.24723 0.84362 0.36426
 C1755 C 0.24979 0.83076 0.34234
 C1756 C 0.23401 0.85423 0.42751
 C1757 C 0.24061 0.79307 0.36355
 C1758 C 0.23811 0.80592 0.38536
 C1759 C 0.23756 0.84420 0.40828
 C1760 C 0.24629 0.80532 0.34170
 H1761 H 0.24965 0.86323 0.36438
 H1762 H 0.25409 0.84077 0.32586
 H1763 H 0.23781 0.77352 0.36382
 H1764 H 0.23346 0.79613 0.40189
 C1765 C 0.73779 0.32974 0.88525
 C1766 C 0.74612 0.34175 0.86430
 C1767 C 0.74891 0.32888 0.84241
 C1768 C 0.73099 0.35277 0.92705
 C1769 C 0.73507 0.29200 0.86251
 C1770 C 0.73233 0.30487 0.88428
 C1771 C 0.73437 0.34272 0.90780
 C1772 C 0.74335 0.30383 0.84126
 H1773 H 0.75035 0.36104 0.86485
 H1774 H 0.75525 0.33856 0.82640
 H1775 H 0.73058 0.27277 0.86237
 H1776 H 0.72583 0.29540 0.90037
 C1777 C 0.83230 0.38423 0.23862
 C1778 C 0.84456 0.36290 0.24549
 C1779 C 0.83165 0.34101 0.24815
 C1780 C 0.85517 0.42612 0.23193
 C1781 C 0.79424 0.36188 0.23714
 C1782 C 0.80714 0.38365 0.23454
 C1783 C 0.84525 0.40679 0.23524
 C1784 C 0.80632 0.34024 0.24390
 H1785 H 0.86407 0.36317 0.24864
 H1786 H 0.84152 0.32469 0.25328
 H1787 H 0.77479 0.36205 0.23372
 H1788 H 0.79748 0.40004 0.22919
 C1789 C 0.33289 0.88342 0.73896
 C1790 C 0.34514 0.86201 0.74562
 C1791 C 0.33213 0.84022 0.74866
 C1792 C 0.35591 0.92508 0.73136
 C1793 C 0.29464 0.86137 0.73852
 C1794 C 0.30764 0.88303 0.73554
 C1795 C 0.34594 0.90585 0.73509
 C1796 C 0.30670 0.83964 0.74501
 H1797 H 0.36473 0.86212 0.74827
 H1798 H 0.34199 0.82383 0.75357
 H1799 H 0.27511 0.86168 0.73556
 H1800 H 0.29798 0.89948 0.73036
 C1801 C 0.16819 0.88488 0.26104
 C1802 C 0.15577 0.86335 0.25516
 C1803 C 0.16870 0.84154 0.25215
 C1804 C 0.14511 0.92640 0.26902
 C1805 C 0.20649 0.86293 0.26060
 C1806 C 0.19356 0.88463 0.26355
 C1807 C 0.15517 0.90725 0.26516
 C1808 C 0.19422 0.84105 0.25508
 H1809 H 0.13610 0.86337 0.25320
 H1810 H 0.15868 0.82503 0.24799
 H1811 H 0.22610 0.86330 0.26295
 H1812 H 0.20335 0.90119 0.26809
 C1813 C 0.66922 0.38303 0.76193
 C1814 C 0.65704 0.36171 0.75486
 C1815 C 0.66996 0.33980 0.75248
 C1816 C 0.64614 0.42481 0.76850
 C1817 C 0.70719 0.36064 0.76414
 C1818 C 0.69429 0.38243 0.76648
 C1819 C 0.65620 0.40556 0.76517
 C1820 C 0.69520 0.33901 0.75719
 H1821 H 0.63759 0.36199 0.75137
 H1822 H 0.66015 0.32350 0.74715
 H1823 H 0.72658 0.36078 0.76792
 H1824 H 0.70388 0.39880 0.77201
 C1825 C 0.66961 0.61497 0.74171
 C1826 C 0.69496 0.61526 0.73912
 C1827 C 0.70785 0.63705 0.74159
 C1828 C 0.64656 0.57332 0.73406
 C1829 C 0.67005 0.65850 0.74973
 C1830 C 0.65716 0.63658 0.74719
 C1831 C 0.65661 0.59250 0.73785
 C1832 C 0.69555 0.65901 0.74669
 H1833 H 0.70478 0.59864 0.73486
 H1834 H 0.72745 0.63670 0.73919
 H1835 H 0.66002 0.67506 0.75358
 H1836 H 0.63750 0.63654 0.74918
 C1837 C 0.16801 0.11452 0.23987
 C1838 C 0.15569 0.13594 0.24629
 C1839 C 0.16863 0.15780 0.24902
 C1840 C 0.14481 0.07292 0.23256
 C1841 C 0.20620 0.13666 0.23917
 C1842 C 0.19327 0.11492 0.23650
 C1843 C 0.15494 0.09209 0.23612
 C1844 C 0.19404 0.15844 0.24528
 H1845 H 0.13611 0.13581 0.24892
 H1846 H 0.15869 0.17422 0.25366
 H1847 H 0.22572 0.13641 0.23618
 H1848 H 0.20297 0.09844 0.23153
 C1849 C 0.33125 0.11529 0.75789
 C1850 C 0.34365 0.13683 0.75200
 C1851 C 0.33077 0.15875 0.74949
 C1852 C 0.35437 0.07368 0.76545
 C1853 C 0.29307 0.13743 0.75848
 C1854 C 0.30595 0.11564 0.76092
 C1855 C 0.34428 0.09283 0.76168
 C1856 C 0.30532 0.15933 0.75294
 H1857 H 0.36328 0.13675 0.74966
 H1858 H 0.34077 0.17525 0.74528
 H1859 H 0.27351 0.13712 0.76122
 H1860 H 0.29617 0.09908 0.76551
 C1861 C 0.83040 0.61595 0.25904
 C1862 C 0.84303 0.63753 0.25377
 C1863 C 0.83023 0.65940 0.25062
 C1864 C 0.85322 0.57437 0.26754
 C1865 C 0.79217 0.63798 0.25765
 C1866 C 0.80497 0.61622 0.26073
 C1867 C 0.84327 0.59353 0.26344
 C1868 C 0.80463 0.65991 0.25280
 H1869 H 0.86274 0.63750 0.25245
 H1870 H 0.84038 0.67595 0.24701
 H1871 H 0.77250 0.63762 0.25940
 H1872 H 0.79502 0.59962 0.26478
 C1873 C 0.88358 0.26339 0.16737
 C1874 C 0.88291 0.26885 0.19225
 C1875 C 0.86131 0.26604 0.20538
 C1876 C 0.92520 0.27000 0.14402
 C1877 C 0.84078 0.25212 0.16875
 C1878 C 0.86251 0.25498 0.15561
 C1879 C 0.90599 0.26675 0.15418
 C1880 C 0.83994 0.25768 0.19381
 H1881 H 0.89910 0.27539 0.20152
 H1882 H 0.86140 0.27053 0.22461
 H1883 H 0.82467 0.24573 0.15927
 H1884 H 0.86284 0.25073 0.13632
 C1885 C 0.38393 0.76224 0.66928
 C1886 C 0.36279 0.75420 0.65738
 C1887 C 0.34100 0.75143 0.67042
 C1888 C 0.42557 0.76912 0.64602
 C1889 C 0.36158 0.76469 0.70726
 C1890 C 0.38325 0.76740 0.69423
 C1891 C 0.40637 0.76570 0.65615
 C1892 C 0.34014 0.75673 0.69554
 H1893 H 0.36313 0.75020 0.63803
 H1894 H 0.32483 0.74535 0.66083
 H1895 H 0.36166 0.76897 0.72654
 H1896 H 0.39948 0.77368 0.70361
 C1897 C 0.38508 0.24126 0.83059
 C1898 C 0.36353 0.24696 0.84304
 C1899 C 0.34162 0.24968 0.83017
 C1900 C 0.42662 0.23323 0.85373
 C1901 C 0.36296 0.24131 0.79237
 C1902 C 0.38475 0.23866 0.80524
 C1903 C 0.40751 0.23720 0.84361
 C1904 C 0.34105 0.24662 0.80467
 H1905 H 0.36359 0.24896 0.86270
 H1906 H 0.32510 0.25369 0.84021
 H1907 H 0.36327 0.23888 0.77277
 H1908 H 0.40132 0.23423 0.79542
 C1909 C 0.88400 0.74067 0.33048
 C1910 C 0.86250 0.74672 0.34286
 C1911 C 0.84065 0.74956 0.32993
 C1912 C 0.92548 0.73260 0.35368
 C1913 C 0.86195 0.74060 0.29224
 C1914 C 0.88369 0.73782 0.30516
 C1915 C 0.90638 0.73658 0.34355
 C1916 C 0.84009 0.74629 0.30446
 H1917 H 0.86256 0.74892 0.36249
 H1918 H 0.82416 0.75386 0.33991
 H1919 H 0.86226 0.73798 0.27267
 H1920 H 0.90022 0.73313 0.29541
 C1921 C 0.11557 0.75904 0.33321
 C1922 C 0.13728 0.75368 0.34559
 C1923 C 0.15910 0.75094 0.33259
 C1924 C 0.07397 0.76666 0.35630
 C1925 C 0.13736 0.75861 0.29483
 C1926 C 0.11566 0.76128 0.30783
 C1927 C 0.09317 0.76294 0.34628
 C1928 C 0.15941 0.75362 0.30704
 H1929 H 0.13739 0.75193 0.36527
 H1930 H 0.17574 0.74719 0.34255
 H1931 H 0.13685 0.76074 0.27520
 H1932 H 0.09897 0.76542 0.29807
 C1933 C 0.61687 0.25985 0.83304
 C1934 C 0.61734 0.26362 0.80784
 C1935 C 0.63905 0.26089 0.79490
 C1936 C 0.57517 0.26708 0.85608
 C1937 C 0.66010 0.25030 0.83234
 C1938 C 0.63825 0.25310 0.84529
 C1939 C 0.59440 0.26351 0.84607
 C1940 C 0.66076 0.25430 0.80698
 H1941 H 0.60090 0.26888 0.79819
 H1942 H 0.63881 0.26410 0.77542
 H1943 H 0.67647 0.24531 0.84221
 H1944 H 0.63808 0.25019 0.86484
 C1945 C 0.61599 0.74189 0.66878
 C1946 C 0.61641 0.73970 0.69417
 C1947 C 0.63832 0.74211 0.70687
 C1948 C 0.57410 0.73431 0.64613
 C1949 C 0.65963 0.74941 0.66882
 C1950 C 0.63759 0.74693 0.65611
 C1951 C 0.59340 0.73808 0.65599
 C1952 C 0.66027 0.74676 0.69437
 H1953 H 0.59980 0.73579 0.70415
 H1954 H 0.63806 0.74003 0.72651
 H1955 H 0.67618 0.75291 0.65863
 H1956 H 0.63746 0.74860 0.63642
 C1957 C 0.11428 0.23997 0.16801
 C1958 C 0.13578 0.24608 0.15566
 C1959 C 0.15765 0.24886 0.16860
 C1960 C 0.07267 0.23248 0.14482
 C1961 C 0.13635 0.23970 0.20625
 C1962 C 0.11461 0.23698 0.19331
 C1963 C 0.09185 0.23612 0.15494
 C1964 C 0.15821 0.24547 0.19405
 H1965 H 0.13571 0.24841 0.13604
 H1966 H 0.17413 0.25322 0.15863
 H1967 H 0.13604 0.23700 0.22581
 H1968 H 0.09806 0.23226 0.20305
 C1969 C -0.08070 1.00672 0.86586
 C1970 C -0.05658 0.99834 0.86583
 C1971 C -0.04430 0.99443 0.88785
 C1972 C -0.10268 1.01658 0.82402
 C1973 C -0.08050 1.00668 0.91005
 C1974 C -0.09272 1.01056 0.88801
 C1975 C -0.09283 1.01205 0.84318
 C1976 C -0.05600 0.99892 0.91026
 H1977 H -0.04711 0.99526 0.84876
 H1978 H -0.02547 0.98851 0.88729
 H1979 H -0.09011 1.01031 0.92691
 H1980 H -0.11141 1.01699 0.88825
 C1981 C 0.41965 0.51029 0.36556
 C1982 C 0.44365 0.50157 0.36538
 C1983 C 0.45602 0.49752 0.38734
 C1984 C 0.39707 0.51945 0.32389
 C1985 C 0.42018 0.51046 0.40974
 C1986 C 0.40788 0.51449 0.38778
 C1987 C 0.40724 0.51531 0.34296
 C1988 C 0.44452 0.50218 0.40981
 H1989 H 0.45292 0.49821 0.34826
 H1990 H 0.47472 0.49119 0.38668
 H1991 H 0.41072 0.51426 0.42665
 H1992 H 0.38929 0.52118 0.38814
 C1993 C 0.57991 -0.00898 0.36243
 C1994 C 0.55590 -0.00028 0.36239
 C1995 C 0.54372 0.00391 0.38442
 C1996 C 0.60213 -0.01846 0.32068
 C1997 C 0.57979 -0.00885 0.40662
 C1998 C 0.59189 -0.01300 0.38458
 C1999 C 0.59210 -0.01417 0.33978
 C2000 C 0.55544 -0.00060 0.40683
 H2001 H 0.54647 0.00296 0.34532
 H2002 H 0.52501 0.01020 0.38387
 H2003 H 0.58941 -0.01252 0.42347
 H2004 H 0.61049 -0.01967 0.38484
 C2005 C 0.08046 0.49334 0.86483
 C2006 C 0.05618 0.50126 0.86449
 C2007 C 0.04382 0.50570 0.88637
 C2008 C 0.10273 0.48271 0.82336
 C2009 C 0.08026 0.49497 0.90900
 C2010 C 0.09256 0.49055 0.88712
 C2011 C 0.09274 0.48753 0.84236
 C2012 C 0.05559 0.50222 0.90892
 H2013 H 0.04666 0.50356 0.84733
 H2014 H 0.02486 0.51119 0.88559
 H2015 H 0.08994 0.49210 0.92598
 H2016 H 0.11138 0.48452 0.88760
 C2017 C 0.07851 0.50869 0.63512
 C2018 C 0.05421 0.50081 0.63541
 C2019 C 0.04179 0.49661 0.61350
 C2020 C 0.10134 0.51829 0.67656
 C2021 C 0.07817 0.50770 0.59095
 C2022 C 0.09052 0.51187 0.61286
 C2023 C 0.09101 0.51392 0.65763
 C2024 C 0.05355 0.50027 0.59097
 H2025 H 0.04475 0.49824 0.65257
 H2026 H 0.02287 0.49097 0.61422
 H2027 H 0.08784 0.51071 0.57400
 H2028 H 0.10934 0.51790 0.61242
 C2029 C 0.57874 1.00979 0.13391
 C2030 C 0.59081 1.01328 0.11172
 C2031 C 0.57860 1.00912 0.08974
 C2032 C 0.60126 1.01923 0.17553
 C2033 C 0.54226 0.99745 0.11205
 C2034 C 0.55453 1.00164 0.13404
 C2035 C 0.59108 1.01495 0.15650
 C2036 C 0.55407 1.00141 0.08960
 H2037 H 0.60956 1.01952 0.11141
 H2038 H 0.58830 1.01236 0.07284
 H2039 H 0.52341 0.99159 0.11266
 H2040 H 0.54504 0.99882 0.15114
 C2041 C 0.41962 0.49016 0.13629
 C2042 C 0.40759 0.48659 0.11408
 C2043 C 0.41989 0.49053 0.09211
 C2044 C 0.39710 0.48094 0.17793
 C2045 C 0.45622 0.50217 0.11450
 C2046 C 0.44386 0.49821 0.13646
 C2047 C 0.40725 0.48513 0.15888
 C2048 C 0.44446 0.49810 0.09203
 H2049 H 0.38881 0.48043 0.11374
 H2050 H 0.41023 0.48721 0.07520
 H2051 H 0.47510 0.50793 0.11514
 H2052 H 0.45332 0.50108 0.15357
 C2053 C -0.07879 -0.00755 0.63723
 C2054 C -0.09078 -0.01089 0.61496
 C2055 C -0.07850 -0.00664 0.59303
 C2056 C -0.10109 -0.01800 0.67876
 C2057 C -0.04226 0.00500 0.61556
 C2058 C -0.05462 0.00072 0.63748
 C2059 C -0.09105 -0.01323 0.65976
 C2060 C -0.05394 0.00100 0.59303
 H2061 H -0.10951 -0.01722 0.61453
 H2062 H -0.08810 -0.00991 0.57609
 H2063 H -0.02340 0.01081 0.61628
 H2064 H -0.04517 0.00343 0.65463
 C2065 C -0.13576 0.92023 1.00874
 C2066 C -0.13585 0.94436 1.00039
 C2067 C -0.11384 0.95663 0.99629
 C2068 C -0.17756 0.89805 1.01839
 C2069 C -0.09155 0.92040 1.00834
 C2070 C -0.11357 0.90820 1.01240
 C2071 C -0.15842 0.90801 1.01402
 C2072 C -0.09139 0.94490 1.00055
 H2073 H -0.15293 0.95384 0.99742
 H2074 H -0.11443 0.97546 0.99037
 H2075 H -0.07466 0.91077 1.01181
 H2076 H -0.11328 0.88950 1.01879
 C2077 C 0.36352 0.42137 0.51018
 C2078 C 0.36341 0.44561 0.50214
 C2079 C 0.38542 0.45795 0.49824
 C2080 C 0.32184 0.39871 0.51903
 C2081 C 0.40771 0.42162 0.51001
 C2082 C 0.38570 0.40936 0.51388
 C2083 C 0.34089 0.40896 0.51502
 C2084 C 0.40786 0.44617 0.50238
 H2085 H 0.34632 0.45507 0.49917
 H2086 H 0.38482 0.47681 0.49242
 H2087 H 0.42459 0.41195 0.51338
 H2088 H 0.38600 0.39059 0.52005
 C2089 C 0.36429 0.57814 -0.00748
 C2090 C 0.38650 0.58999 -0.01159
 C2091 C 0.40848 0.57767 -0.00777
 C2092 C 0.32271 0.60084 -0.01673
 C2093 C 0.38613 0.54165 0.00481
 C2094 C 0.36414 0.55404 0.00096
 C2095 C 0.34168 0.59056 -0.01245
 C2096 C 0.40859 0.55324 0.00022
 H2097 H 0.38683 0.60865 -0.01807
 H2098 H 0.42538 0.58721 -0.01149
 H2099 H 0.38551 0.52288 0.01092
 H2100 H 0.34703 0.54470 0.00423
 C2101 C -0.13364 0.08041 0.49285
 C2102 C -0.11131 0.09240 0.49000
 C2103 C -0.08946 0.08004 0.49446
 C2104 C -0.17501 0.10300 0.48231
 C2105 C -0.11221 0.04372 0.50533
 C2106 C -0.13405 0.05615 0.50083
 C2107 C -0.15608 0.09282 0.48709
 C2108 C -0.08961 0.05541 0.50184
 H2109 H -0.11076 0.11120 0.48392
 H2110 H -0.07245 0.08966 0.49159
 H2111 H -0.11303 0.02479 0.51090
 H2112 H -0.15126 0.04670 0.50317
 C2113 C 0.63730 0.07979 0.50705
 C2114 C 0.61514 0.09191 0.51053
 C2115 C 0.59310 0.07971 0.50658
 C2116 C 0.67896 0.10219 0.51668
 C2117 C 0.61532 0.04327 0.49510
 C2118 C 0.63735 0.05553 0.49908
 C2119 C 0.65994 0.09207 0.51223
 C2120 C 0.59290 0.05513 0.49909
 H2121 H 0.61488 0.11069 0.51666
 H2122 H 0.57624 0.08945 0.50984
 H2123 H 0.61587 0.02437 0.48939
 H2124 H 0.65443 0.04599 0.49629
 C2125 C 0.13516 0.58081 1.00789
 C2126 C 0.11290 0.59277 1.01132
 C2127 C 0.09096 0.58054 1.00689
 C2128 C 0.17679 0.60295 1.01842
 C2129 C 0.11346 0.54445 0.99491
 C2130 C 0.13540 0.55675 0.99936
 C2131 C 0.15772 0.59301 1.01365
 C2132 C 0.09094 0.55608 0.99899
 H2133 H 0.11249 0.61142 1.01783
 H2134 H 0.07401 0.59011 1.01024
 H2135 H 0.11417 0.52566 0.98890
 H2136 H 0.15254 0.54733 0.99657
 C2137 C 0.13423 0.41943 0.48910
 C2138 C 0.13434 0.44371 0.49699
 C2139 C 0.11234 0.45592 0.50124
 C2140 C 0.17599 0.39715 0.47980
 C2141 C 0.09004 0.41937 0.49016
 C2142 C 0.11205 0.40723 0.48593
 C2143 C 0.15686 0.40717 0.48397
 C2144 C 0.08990 0.44397 0.49761
 H2145 H 0.15143 0.45330 0.49957
 H2146 H 0.11295 0.47482 0.50691
 H2147 H 0.07315 0.40957 0.48717
 H2148 H 0.11175 0.38842 0.47990
 C2149 C 0.63499 0.91997 -0.01046
 C2150 C 0.63498 0.94410 -0.00213
 C2151 C 0.61292 0.95630 0.00182
 C2152 C 0.67690 0.89788 -0.01964
 C2153 C 0.59078 0.92003 -0.01041
 C2154 C 0.61285 0.90789 -0.01434
 C2155 C 0.65771 0.90779 -0.01547
 C2156 C 0.59053 0.94450 -0.00255
 H2157 H 0.65203 0.95361 0.00098
 H2158 H 0.61345 0.97511 0.00781
 H2159 H 0.57393 0.91035 -0.01398
 H2160 H 0.61264 0.88920 -0.02073
 C2161 C 0.00727 0.86491 0.92104
 C2162 C -0.00070 0.86472 0.94529
 C2163 C -0.00487 0.88668 0.95761
 C2164 C 0.01744 0.82336 0.89872
 C2165 C 0.00632 0.90909 0.92117
 C2166 C 0.01045 0.88713 0.90893
 C2167 C 0.01279 0.84236 0.90878
 C2168 C -0.00105 0.90916 0.94580
 H2169 H -0.00328 0.84761 0.95483
 H2170 H -0.01047 0.88602 0.97653
 H2171 H 0.00943 0.92600 0.91147
 H2172 H 0.01655 0.88749 0.89014
 C2173 C 0.50817 0.36594 0.42023
 C2174 C 0.50031 0.36565 0.44452
 C2175 C 0.49623 0.38755 0.45695
 C2176 C 0.51773 0.32445 0.39757
 C2177 C 0.50737 0.41011 0.42059
 C2178 C 0.51143 0.38820 0.40823
 C2179 C 0.51338 0.34342 0.40779
 C2180 C 0.50001 0.41008 0.44521
 H2181 H 0.49768 0.34849 0.45397
 H2182 H 0.49063 0.38682 0.47587
 H2183 H 0.51047 0.42706 0.41094
 H2184 H 0.51745 0.38864 0.38942
 C2185 C -0.00949 0.36315 0.57924
 C2186 C -0.01372 0.38533 0.59106
 C2187 C -0.00991 0.40733 0.57877
 C2188 C -0.01855 0.32148 0.60184
 C2189 C 0.00290 0.38504 0.54281
 C2190 C -0.00094 0.36305 0.55518
 C2191 C -0.01441 0.34052 0.59162
 C2192 C -0.00181 0.40747 0.55437
 H2193 H -0.02029 0.38563 0.60970
 H2194 H -0.01373 0.42420 0.58827
 H2195 H 0.00909 0.38444 0.52407
 H2196 H 0.00244 0.34596 0.54587
 C2197 C 0.48919 0.86427 0.07742
 C2198 C 0.48569 0.88652 0.08934
 C2199 C 0.49006 0.90844 0.07710
 C2200 C 0.47951 0.82278 0.10014
 C2201 C 0.50199 0.88593 0.04098
 C2202 C 0.49759 0.86401 0.05330
 C2203 C 0.48386 0.84174 0.08985
 C2204 C 0.49800 0.90845 0.05265
 H2205 H 0.47928 0.88695 0.10803
 H2206 H 0.48679 0.92538 0.08670
 H2207 H 0.50802 0.88523 0.02219
 H2208 H 0.50043 0.84686 0.04392
 C2209 C 0.50917 0.63492 0.07984
 C2210 C 0.51320 0.61284 0.09194
 C2211 C 0.50929 0.59074 0.07986
 C2212 C 0.51814 0.67685 0.10195
 C2213 C 0.49682 0.61273 0.04359
 C2214 C 0.50076 0.63483 0.05573
 C2215 C 0.51407 0.65767 0.09200
 C2216 C 0.50130 0.59039 0.05543
 H2217 H 0.51967 0.61269 0.11062
 H2218 H 0.51294 0.57393 0.08958
 H2219 H 0.49072 0.61319 0.02481
 H2220 H 0.49753 0.65184 0.04620
 C2221 C 0.00831 0.13501 0.58179
 C2222 C 0.01188 0.11286 0.59392
 C2223 C 0.00778 0.09082 0.58179
 C2224 C 0.01832 0.17690 0.60359
 C2225 C -0.00414 0.11301 0.54545
 C2226 C -0.00002 0.13504 0.55765
 C2227 C 0.01378 0.15770 0.59384
 C2228 C 0.00007 0.09060 0.55726
 H2229 H 0.01826 0.11262 0.61263
 H2230 H 0.01122 0.07395 0.59148
 H2231 H -0.01002 0.11356 0.52660
 H2232 H -0.00291 0.15209 0.54809
 C2233 C 0.49078 0.13609 0.41879
 C2234 C 0.48746 0.11391 0.40665
 C2235 C 0.49172 0.09191 0.41881
 C2236 C 0.48109 0.17782 0.39658
 C2237 C 0.50313 0.11421 0.45524
 C2238 C 0.49885 0.13620 0.44302
 C2239 C 0.48548 0.15872 0.40656
 C2240 C 0.49934 0.09176 0.44336
 H2241 H 0.48127 0.11361 0.38789
 H2242 H 0.48860 0.07502 0.40906
 H2243 H 0.50894 0.11481 0.47411
 H2244 H 0.50153 0.15328 0.45258
 C2245 C -0.00768 0.63650 0.91960
 C2246 C -0.01127 0.61433 0.90752
 C2247 C -0.00722 0.59231 0.91971
 C2248 C -0.01759 0.67828 0.89752
 C2249 C 0.00468 0.61455 0.95602
 C2250 C 0.00060 0.63657 0.94376
 C2251 C -0.01307 0.65916 0.90743
 C2252 C 0.00046 0.59212 0.94425
 H2253 H -0.01761 0.61406 0.88880
 H2254 H -0.01066 0.57543 0.91005
 H2255 H 0.01053 0.61513 0.97487
 H2256 H 0.00350 0.65364 0.95327
 C2257 C 0.25917 0.66952 0.88648
 C2258 C 0.25175 0.69394 0.88675
 C2259 C 0.24774 0.70641 0.86484
 C2260 C 0.26830 0.64666 0.92799
 C2261 C 0.25813 0.66984 0.84230
 C2262 C 0.26212 0.65744 0.86422
 C2263 C 0.26415 0.65697 0.90901
 C2264 C 0.25115 0.69457 0.84232
 H2265 H 0.24936 0.70345 0.90390
 H2266 H 0.24243 0.72541 0.86557
 H2267 H 0.26094 0.66011 0.82535
 H2268 H 0.26779 0.63853 0.86379
 C2269 C 0.76177 0.17010 0.38504
 C2270 C 0.75409 0.19445 0.38537
 C2271 C 0.74950 0.20680 0.36350
 C2272 C 0.77160 0.14740 0.42653
 C2273 C 0.75980 0.17027 0.34087
 C2274 C 0.76438 0.15799 0.36275
 C2275 C 0.76721 0.15763 0.40754
 C2276 C 0.75255 0.19493 0.34094
 H2277 H 0.75194 0.20399 0.40254
 H2278 H 0.74401 0.22575 0.36428
 H2279 H 0.76236 0.16052 0.32390
 H2280 H 0.77022 0.13912 0.36226
 C2281 C 0.24283 0.33017 0.38429
 C2282 C 0.25098 0.30598 0.38465
 C2283 C 0.25491 0.29343 0.36278
 C2284 C 0.23270 0.35277 0.42569
 C2285 C 0.24312 0.32952 0.34011
 C2286 C 0.23923 0.34199 0.36199
 C2287 C 0.23740 0.34259 0.40677
 C2288 C 0.25064 0.30494 0.34022
 H2289 H 0.25387 0.29665 0.40184
 H2290 H 0.26065 0.27456 0.36358
 H2291 H 0.23968 0.33900 0.32313
 H2292 H 0.23297 0.36073 0.36149
 C2293 C 0.74369 0.83128 0.88443
 C2294 C 0.75165 0.80702 0.88482
 C2295 C 0.75574 0.79451 0.86296
 C2296 C 0.73348 0.85385 0.92582
 C2297 C 0.74452 0.83075 0.84025
 C2298 C 0.74045 0.84319 0.86212
 C2299 C 0.73818 0.84370 0.90689
 C2300 C 0.75185 0.80612 0.84039
 H2301 H 0.75426 0.79763 0.90201
 H2302 H 0.76132 0.77559 0.86378
 H2303 H 0.74135 0.84029 0.82325
 H2304 H 0.73436 0.86198 0.86160
 C2305 C 0.75689 0.83215 0.11459
 C2306 C 0.74892 0.80789 0.11414
 C2307 C 0.74464 0.79536 0.13596
 C2308 C 0.76735 0.85469 0.07320
 C2309 C 0.75567 0.83159 0.15877
 C2310 C 0.75992 0.84406 0.13693
 C2311 C 0.76258 0.84458 0.09215
 C2312 C 0.74834 0.80695 0.15858
 H2313 H 0.74646 0.79851 0.09693
 H2314 H 0.73908 0.77643 0.13510
 H2315 H 0.75870 0.84113 0.17579
 H2316 H 0.76601 0.86285 0.13750
 C2317 C 0.25569 0.33133 0.61482
 C2318 C 0.24739 0.30718 0.61448
 C2319 C 0.24353 0.29462 0.63635
 C2320 C 0.26569 0.35384 0.57333
 C2321 C 0.25567 0.33059 0.65900
 C2322 C 0.25950 0.34309 0.63712
 C2323 C 0.26106 0.34374 0.59231
 C2324 C 0.24801 0.30606 0.65890
 H2325 H 0.24434 0.29791 0.59730
 H2326 H 0.23767 0.27577 0.63556
 H2327 H 0.25929 0.34001 0.67597
 H2328 H 0.26588 0.36179 0.63759
 C2329 C 0.74219 0.16954 0.61445
 C2330 C 0.73834 0.15747 0.63659
 C2331 C 0.74209 0.16969 0.65865
 C2332 C 0.73340 0.14709 0.57265
 C2333 C 0.75403 0.20604 0.63650
 C2334 C 0.75026 0.19376 0.61445
 C2335 C 0.73742 0.15722 0.59176
 C2336 C 0.74974 0.19423 0.65889
 H2337 H 0.73214 0.13871 0.63681
 H2338 H 0.73859 0.15999 0.67549
 H2339 H 0.75987 0.22490 0.63597
 H2340 H 0.75333 0.20327 0.59740
 C2341 C 0.24065 0.66927 0.11563
 C2342 C 0.24861 0.69354 0.11527
 C2343 C 0.25281 0.70602 0.13713
 C2344 C 0.23085 0.64657 0.07415
 C2345 C 0.24163 0.66976 0.15982
 C2346 C 0.23746 0.65734 0.13795
 C2347 C 0.23529 0.65678 0.09313
 C2348 C 0.24905 0.69438 0.15971
 H2349 H 0.25121 0.70294 0.09808
 H2350 H 0.25845 0.72493 0.13633
 H2351 H 0.23855 0.66018 0.17681
 H2352 H 0.23137 0.63855 0.13846
 C2353 C 0.16936 0.61496 0.74139
 C2354 C 0.19337 0.61462 0.75012
 C2355 C 0.20578 0.63650 0.75446
 C2356 C 0.14676 0.57346 0.73153
 C2357 C 0.16996 0.65914 0.74182
 C2358 C 0.15762 0.63725 0.73751
 C2359 C 0.15695 0.59245 0.73599
 C2360 C 0.19432 0.65906 0.75007
 H2361 H 0.20262 0.59745 0.75324
 H2362 H 0.22449 0.63572 0.76075
 H2363 H 0.16053 0.67611 0.73823
 H2364 H 0.13902 0.63773 0.73082
 C2365 C 0.66956 0.11512 0.24080
 C2366 C 0.65774 0.13742 0.23719
 C2367 C 0.67016 0.15929 0.24132
 C2368 C 0.64672 0.07376 0.23103
 C2369 C 0.70622 0.13663 0.25322
 C2370 C 0.69373 0.11476 0.24907
 C2371 C 0.65704 0.09266 0.23550
 C2372 C 0.69467 0.15919 0.24910
 H2373 H 0.63902 0.13792 0.23085
 H2374 H 0.66065 0.17627 0.23796
 H2375 H 0.72505 0.13584 0.25915
 H2376 H 0.70304 0.09757 0.25196
 C2377 C 0.83110 0.11361 0.76041
 C2378 C 0.84318 0.13587 0.76344
 C2379 C 0.83086 0.15779 0.75928
 C2380 C 0.85376 0.07209 0.76992
 C2381 C 0.79436 0.13525 0.74851
 C2382 C 0.80675 0.11334 0.75270
 C2383 C 0.84354 0.09108 0.76560
 C2384 C 0.80619 0.15778 0.75202
 H2385 H 0.86204 0.13629 0.76934
 H2386 H 0.84058 0.17473 0.76218
 H2387 H 0.77540 0.13453 0.74299
 H2388 H 0.79723 0.09620 0.75023
 C2389 C 0.33046 0.61542 0.25690
 C2390 C 0.34254 0.63769 0.25984
 C2391 C 0.33016 0.65959 0.25574
 C2392 C 0.35278 0.57394 0.26736
 C2393 C 0.29368 0.63701 0.24503
 C2394 C 0.30612 0.61512 0.24915
 C2395 C 0.34276 0.59292 0.26255
 C2396 C 0.30544 0.65955 0.24867
 H2397 H 0.36139 0.63814 0.26577
 H2398 H 0.33983 0.67656 0.25872
 H2399 H 0.27468 0.63626 0.23966
 H2400 H 0.29660 0.59796 0.24676
 C2401 C 0.32994 0.38468 0.24333
 C2402 C 0.30569 0.38482 0.25132
 C2403 C 0.29322 0.36285 0.25492
 C2404 C 0.35243 0.42632 0.23388
 C2405 C 0.32948 0.34050 0.24311
 C2406 C 0.34189 0.36248 0.23954
 C2407 C 0.34231 0.40729 0.23829
 C2408 C 0.30487 0.34040 0.25051
 H2409 H 0.29627 0.40192 0.25434
 H2410 H 0.27431 0.36348 0.26058
 H2411 H 0.33906 0.32360 0.23956
 H2412 H 0.36067 0.36216 0.23340
 C2413 C 0.83267 0.88436 0.74224
 C2414 C 0.80839 0.88479 0.75017
 C2415 C 0.79584 0.86297 0.75438
 C2416 C 0.85531 0.92585 0.73237
 C2417 C 0.83206 0.84018 0.74333
 C2418 C 0.84455 0.86202 0.73915
 C2419 C 0.84517 0.90683 0.73681
 C2420 C 0.80742 0.84036 0.75066
 H2421 H 0.79903 0.90200 0.75270
 H2422 H 0.77691 0.86383 0.75994
 H2423 H 0.84159 0.82316 0.74028
 H2424 H 0.86336 0.86146 0.73310
 C2425 C 0.66875 0.88561 0.25592
 C2426 C 0.69302 0.88600 0.24797
 C2427 C 0.70555 0.86415 0.24390
 C2428 C 0.64610 0.92699 0.26598
 C2429 C 0.66930 0.84145 0.25513
 C2430 C 0.65684 0.86330 0.25917
 C2431 C 0.65630 0.90806 0.26137
 C2432 C 0.69394 0.84158 0.24781
 H2433 H 0.70240 0.90320 0.24534
 H2434 H 0.72448 0.86496 0.23833
 H2435 H 0.65974 0.82445 0.25831
 H2436 H 0.63804 0.86278 0.26524
 C2437 C 0.16889 0.38508 0.75794
 C2438 C 0.19305 0.38539 0.74966
 C2439 C 0.20547 0.36349 0.74548
 C2440 C 0.14647 0.42666 0.76785
 C2441 C 0.16936 0.34089 0.75729
 C2442 C 0.15700 0.36279 0.76145
 C2443 C 0.15653 0.40762 0.76335
 C2444 C 0.19388 0.34094 0.74958
 H2445 H 0.20243 0.40255 0.74682
 H2446 H 0.22432 0.36426 0.73960
 H2447 H 0.15982 0.32392 0.76065
 H2448 H 0.13829 0.36233 0.76778
 C2449 C 0.11449 0.76065 0.83142
 C2450 C 0.13681 0.76380 0.84336
 C2451 C 0.15867 0.75953 0.83098
 C2452 C 0.07307 0.77010 0.85428
 C2453 C 0.13596 0.74843 0.79470
 C2454 C 0.11410 0.75273 0.80715
 C2455 C 0.09202 0.76585 0.84397
 C2456 C 0.15854 0.75203 0.80640
 H2457 H 0.13733 0.76985 0.86217
 H2458 H 0.17567 0.76250 0.84060
 H2459 H 0.13515 0.74274 0.77581
 H2460 H 0.09690 0.75017 0.79774
 C2461 C 0.61450 0.25978 0.33006
 C2462 C 0.63676 0.26340 0.34199
 C2463 C 0.65870 0.25934 0.32967
 C2464 C 0.57290 0.26927 0.35260
 C2465 C 0.63618 0.24751 0.29349
 C2466 C 0.61425 0.25159 0.30588
 C2467 C 0.59193 0.26494 0.34245
 C2468 C 0.65870 0.25160 0.30516
 H2469 H 0.63717 0.26969 0.36071
 H2470 H 0.67565 0.26270 0.33925
 H2471 H 0.63547 0.24161 0.27466
 H2472 H 0.59710 0.24869 0.29648
 C2473 C 0.61419 0.74386 0.16808
 C2474 C 0.61400 0.75201 0.19227
 C2475 C 0.63595 0.75596 0.20468
 C2476 C 0.57259 0.73370 0.14579
 C2477 C 0.65840 0.74422 0.16847
 C2478 C 0.63643 0.74029 0.15612
 C2479 C 0.59161 0.73841 0.15580
 C2480 C 0.65844 0.75174 0.19304
 H2481 H 0.59687 0.75487 0.20170
 H2482 H 0.63527 0.76170 0.22357
 H2483 H 0.67532 0.74079 0.15890
 H2484 H 0.63680 0.73403 0.13738
 C2485 C 0.11511 0.24260 0.66865
 C2486 C 0.13741 0.23995 0.65657
 C2487 C 0.15927 0.24429 0.66896
 C2488 C 0.07369 0.23207 0.64619
 C2489 C 0.13658 0.25464 0.70545
 C2490 C 0.11472 0.25028 0.69299
 C2491 C 0.09265 0.23685 0.65627
 C2492 C 0.15916 0.25131 0.69369
 H2493 H 0.13792 0.23410 0.63771
 H2494 H 0.17627 0.24155 0.65929
 H2495 H 0.13578 0.25995 0.72445
 H2496 H 0.09754 0.25246 0.70250
 C2497 C 0.88585 0.25820 0.67023
 C2498 C 0.88626 0.24990 0.69438
 C2499 C 0.86441 0.24580 0.70692
 C2500 C 0.92716 0.26768 0.64720
 C2501 C 0.84167 0.25785 0.67095
 C2502 C 0.86352 0.26191 0.65848
 C2503 C 0.90829 0.26335 0.65763
 C2504 C 0.84183 0.25001 0.69543
 H2505 H 0.90348 0.24692 0.70363
 H2506 H 0.86523 0.23982 0.72573
 H2507 H 0.82467 0.26127 0.66148
 H2508 H 0.86298 0.26827 0.63978
 C2509 C 0.38373 0.75711 0.16864
 C2510 C 0.38431 0.74885 0.19280
 C2511 C 0.36255 0.74479 0.20552
 C2512 C 0.42502 0.76713 0.14569
 C2513 C 0.33954 0.75665 0.16968
 C2514 C 0.36130 0.76068 0.15703
 C2515 C 0.40613 0.76254 0.15600
 C2516 C 0.33987 0.74900 0.19422
 H2517 H 0.40159 0.74597 0.20196
 H2518 H 0.36353 0.73896 0.22437
 H2519 H 0.32246 0.76007 0.16035
 H2520 H 0.36062 0.76700 0.13831
 C2521 C 0.38412 0.24367 0.33039
 C2522 C 0.38433 0.25163 0.30612
 C2523 C 0.36239 0.25547 0.29366
 C2524 C 0.42575 0.23384 0.35275
 C2525 C 0.33991 0.24401 0.32997
 C2526 C 0.36187 0.24020 0.34236
 C2527 C 0.40670 0.23837 0.34272
 C2528 C 0.33989 0.25133 0.30532
 H2529 H 0.40147 0.25443 0.29669
 H2530 H 0.36308 0.26105 0.27473
 H2531 H 0.32298 0.24065 0.33955
 H2532 H 0.36149 0.23410 0.36116
 C2533 C 0.88585 0.74254 0.83074
 C2534 C 0.88635 0.75039 0.80645
 C2535 C 0.86455 0.75461 0.79384
 C2536 C 0.92714 0.73251 0.85366
 C2537 C 0.84168 0.74372 0.83007
 C2538 C 0.86348 0.73954 0.84260
 C2539 C 0.90824 0.73705 0.84333
 C2540 C 0.84192 0.75096 0.80540
 H2541 H 0.90360 0.75285 0.79711
 H2542 H 0.86545 0.76010 0.77489
 H2543 H 0.82463 0.74074 0.83959
 H2544 H 0.86287 0.73355 0.86143
   
