data_POSCAR
  _audit_creation_date              2014-09-24
  _audit_creation_method            'ToBaCCo'
  _symmetry_space_group_name_H-M    'P1'
  _symmetry_Int_Tables_number       1
  _symmetry_cell_setting            triclinic
  loop_
  _symmetry_equiv_pos_as_xyz
 x,y,z
_cell_length_a 63.0041
_cell_length_b 62.5568
_cell_length_c 63.0520
_cell_angle_alpha 89.972500
_cell_angle_beta 90.083800
_cell_angle_gamma 90.026300
loop_
  _atom_site_label
  _atom_site_type_symbol
  _atom_site_fract_x
  _atom_site_fract_y
  _atom_site_fract_z
C1 C 0.30079 0.32914 0.01092
 C2 C 0.29833 0.32688 -0.01136
 C3 C 0.31066 0.31136 -0.02191
 C4 C 0.32627 0.29920 -0.01129
 C5 C 0.32827 0.30153 0.01109
 C6 C 0.31562 0.31651 0.02171
 H7 H 0.31666 0.31772 0.03884
 H8 H 0.30970 0.31042 -0.03905
 C9 C 0.70553 0.67825 0.00840
 C10 C 0.70466 0.67682 -0.01396
 C11 C 0.69061 0.69004 -0.02520
 C12 C 0.67734 0.70491 -0.01489
 C13 C 0.67842 0.70625 0.00766
 C14 C 0.69272 0.69321 0.01883
 H15 H 0.69292 0.69379 0.03602
 H16 H 0.69078 0.68926 -0.04237
 C17 C 0.70696 0.32094 0.98835
 C18 C 0.70779 0.32087 1.01095
 C19 C 0.69504 0.30604 1.02200
 C20 C 0.68076 0.29249 1.01143
 C21 C 0.67970 0.29307 0.98906
 C22 C 0.69307 0.30692 0.97785
 H23 H 0.69241 0.30699 0.96066
 H24 H 0.69520 0.30581 1.03919
 C25 C 0.29242 0.67935 0.99180
 C26 C 0.29388 0.67757 1.01426
 C27 C 0.30868 0.69061 1.02498
 C28 C 0.32158 0.70560 1.01436
 C29 C 0.31987 0.70709 0.99190
 C30 C 0.30513 0.69426 0.98114
 H31 H 0.30458 0.69486 0.96395
 H32 H 0.30892 0.69032 1.04216
 C33 C 0.00911 0.29057 0.31890
 C34 C -0.01335 0.29125 0.31930
 C35 C -0.02407 0.30523 0.30556
 C36 C -0.01299 0.31873 0.29168
 C37 C 0.00946 0.31774 0.29099
 C38 C 0.02016 0.30354 0.30452
 H39 H 0.03736 0.30293 0.30422
 H40 H -0.04126 0.30596 0.30601
 C41 C 0.01075 0.70846 0.67939
 C42 C -0.01174 0.70702 0.67779
 C43 C -0.02237 0.69208 0.69074
 C44 C -0.01163 0.67904 0.70551
 C45 C 0.01085 0.68081 0.70692
 C46 C 0.02154 0.69567 0.69415
 H47 H 0.03874 0.69623 0.69466
 H48 H -0.03956 0.69182 0.69053
 C49 C 0.98876 0.70662 0.32214
 C50 C 1.01113 0.70658 0.32240
 C51 C 1.02218 0.69311 0.30851
 C52 C 1.01149 0.67942 0.29423
 C53 C 0.98884 0.67943 0.29436
 C54 C 0.97791 0.69312 0.30818
 H55 H 0.96070 0.69289 0.30845
 H56 H 1.03937 0.69375 0.30862
 C57 C 0.99024 0.29568 0.67488
 C58 C 1.01284 0.29468 0.67463
 C59 C 1.02423 0.30738 0.68922
 C60 C 1.01399 0.32163 0.70300
 C61 C 0.99159 0.32275 0.70287
 C62 C 0.98007 0.30957 0.68908
 H63 H 0.96287 0.31027 0.68930
 H64 H 1.04144 0.30714 0.68916
 C65 C 0.32445 0.00941 0.29524
 C66 C 0.32440 -0.01333 0.29461
 C67 C 0.30924 -0.02445 0.30685
 C68 C 0.29502 -0.01377 0.32047
 C69 C 0.29564 0.00891 0.32124
 C70 C 0.31000 0.02007 0.30839
 H71 H 0.30983 0.03740 0.30845
 H72 H 0.30892 -0.04173 0.30612
 C73 C 0.67509 0.00972 0.70382
 C74 C 0.67461 -0.01291 0.70321
 C75 C 0.68817 -0.02378 0.68925
 C76 C 0.70204 -0.01272 0.67574
 C77 C 0.70242 0.00990 0.67632
 C78 C 0.68926 0.02078 0.69061
 H79 H 0.68929 0.03812 0.69071
 H80 H 0.68806 -0.04111 0.68903
 C81 C 0.31792 0.99106 0.70881
 C82 C 0.31969 1.01368 0.70724
 C83 C 0.30651 1.02443 0.69260
 C84 C 0.29159 1.01363 0.67982
 C85 C 0.29031 0.99098 0.68144
 C86 C 0.30309 0.98021 0.69619
 H87 H 0.30259 0.96288 0.69676
 H88 H 0.30675 1.04174 0.69234
 C89 C 0.68421 0.98809 0.28894
 C90 C 0.68238 1.01059 0.28957
 C91 C 0.69537 1.02236 0.30336
 C92 C 0.71010 1.01236 0.31702
 C93 C 0.71150 0.98962 0.31656
 C94 C 0.69884 0.97797 0.30234
 H95 H 0.69989 0.96066 0.30223
 H96 H 0.69408 1.03964 0.30312
 O97 O 0.84775 0.87811 0.52010
 O98 O 0.87870 0.84953 0.47948
 O99 O 0.84881 0.87854 0.47876
 O100 O 0.87740 0.84922 0.52066
 O101 O 0.85332 0.82365 0.51927
 O102 O 0.82426 0.85340 0.47814
 O103 O 0.85390 0.82464 0.47789
 O104 O 0.82352 0.85266 0.51920
 Cu105 Cu 0.86560 0.86641 0.49982
 Cu106 Cu 0.83635 0.83601 0.49856
 C107 C 0.83032 0.87027 0.52659
 C108 C 0.87154 0.83224 0.47170
 C109 C 0.83154 0.87107 0.47140
 C110 C 0.87030 0.83134 0.52705
 O111 O 0.12265 0.14990 0.47658
 O112 O 0.15117 0.12147 0.51916
 O113 O 0.12219 0.15110 0.51783
 O114 O 0.15171 0.12016 0.47783
 O115 O 0.17662 0.14494 0.47752
 O116 O 0.14717 0.17581 0.51738
 O117 O 0.17613 0.14619 0.51866
 O118 O 0.14758 0.17465 0.47626
 Cu119 Cu 0.13443 0.13316 0.49786
 Cu120 Cu 0.16438 0.16286 0.49738
 C121 C 0.13015 0.16726 0.46926
 C122 C 0.16856 0.12897 0.52618
 C123 C 0.12961 0.16879 0.52440
 C124 C 0.16930 0.12723 0.47091
 O125 O 0.12301 0.84925 0.52091
 O126 O 0.15204 0.87896 0.47959
 O127 O 0.12280 0.84946 0.47968
 O128 O 0.15232 0.87874 0.52092
 O129 O 0.17699 0.85374 0.52081
 O130 O 0.14760 0.82459 0.47944
 O131 O 0.17681 0.85406 0.47952
 O132 O 0.14777 0.82434 0.52070
 Cu133 Cu 0.13508 0.86662 0.50031
 Cu134 Cu 0.16478 0.83670 0.50009
 C135 C 0.13037 0.83166 0.52782
 C136 C 0.16942 0.87158 0.47249
 C137 C 0.13013 0.83198 0.47253
 C138 C 0.16972 0.87126 0.52793
 O139 O 0.87473 0.15184 0.52145
 O140 O 0.84587 0.12294 0.47941
 O141 O 0.87540 0.15197 0.48007
 O142 O 0.84503 0.12277 0.52074
 O143 O 0.82065 0.14805 0.52032
 O144 O 0.85099 0.17725 0.47981
 O145 O 0.82143 0.14818 0.47911
 O146 O 0.85034 0.17713 0.52090
 Cu147 Cu 0.86271 0.13484 0.50049
 Cu148 Cu 0.83340 0.16516 0.50002
 C149 C 0.86754 0.16952 0.52826
 C150 C 0.82870 0.13063 0.47206
 C151 C 0.86839 0.16964 0.47301
 C152 C 0.82758 0.13038 0.52742
 O153 O 0.47665 0.87528 0.84622
 O154 O 0.51838 0.84569 0.87490
 O155 O 0.51801 0.87505 0.84570
 O156 O 0.47708 0.84594 0.87572
 O157 O 0.47635 0.82099 0.85103
 O158 O 0.51723 0.85011 0.82099
 O159 O 0.51763 0.82066 0.85028
 O160 O 0.47607 0.85024 0.82162
 Cu161 Cu 0.49756 0.86300 0.86311
 Cu162 Cu 0.49676 0.83298 0.83353
 C163 C 0.46930 0.86787 0.82894
 C164 C 0.52512 0.82807 0.86749
 C165 C 0.52458 0.86759 0.82817
 C166 C 0.46976 0.82844 0.86856
 O167 O 0.52100 0.15142 0.12233
 O168 O 0.47914 0.12295 0.15185
 O169 O 0.47957 0.15257 0.12283
 O170 O 0.52046 0.12187 0.15153
 O171 O 0.52155 0.14684 0.17619
 O172 O 0.48060 0.17735 0.14769
 O173 O 0.48036 0.14765 0.17678
 O174 O 0.52170 0.17635 0.14706
 Cu175 Cu 0.49996 0.13472 0.13463
 Cu176 Cu 0.50113 0.16452 0.16442
 C177 C 0.52843 0.16884 0.12960
 C178 C 0.47269 0.13037 0.16945
 C179 C 0.47314 0.17025 0.13035
 C180 C 0.52798 0.12910 0.16881
 O181 O 0.52015 0.12426 0.84644
 O182 O 0.47936 0.15432 0.87575
 O183 O 0.47885 0.12488 0.84658
 O184 O 0.52066 0.15367 0.87581
 O185 O 0.52077 0.17878 0.85124
 O186 O 0.47943 0.14970 0.82173
 O187 O 0.47957 0.17917 0.85093
 O188 O 0.52069 0.14939 0.82191
 Cu189 Cu 0.49975 0.13677 0.86362
 Cu190 Cu 0.50016 0.16675 0.83397
 C191 C 0.52736 0.13165 0.82911
 C192 C 0.47249 0.17191 0.86836
 C193 C 0.47205 0.13232 0.82910
 C194 C 0.52775 0.17125 0.86862
 O195 O 0.52316 0.87577 0.15165
 O196 O 0.48017 0.84706 0.12416
 O197 O 0.48178 0.87624 0.15358
 O198 O 0.52144 0.84619 0.12267
 O199 O 0.52206 0.82130 0.14745
 O200 O 0.48255 0.85126 0.17827
 O201 O 0.48087 0.82202 0.14880
 O202 O 0.52370 0.85090 0.17645
 Cu203 Cu 0.50157 0.86383 0.13555
 Cu204 Cu 0.50235 0.83387 0.16522
 C205 C 0.53078 0.86828 0.16877
 C206 C 0.47323 0.82956 0.13170
 C207 C 0.47542 0.86889 0.17126
 C208 C 0.52850 0.82855 0.12978
 O209 O 0.87830 0.52038 0.84702
 O210 O 0.84997 0.47773 0.87583
 O211 O 0.87923 0.47881 0.84657
 O212 O 0.84909 0.51945 0.87621
 O213 O 0.82433 0.51907 0.85144
 O214 O 0.85432 0.47838 0.82196
 O215 O 0.82510 0.47769 0.85117
 O216 O 0.85358 0.51988 0.82222
 Cu217 Cu 0.86663 0.49911 0.86391
 Cu218 Cu 0.83686 0.49873 0.83421
 C219 C 0.87084 0.52732 0.82960
 C220 C 0.83259 0.47052 0.86848
 C221 C 0.87196 0.47171 0.82913
 C222 C 0.83150 0.52616 0.86891
 O223 O 0.12018 0.52043 0.15215
 O224 O 0.15034 0.47967 0.12261
 O225 O 0.12018 0.47862 0.15106
 O226 O 0.14999 0.52110 0.12365
 O227 O 0.17448 0.51994 0.14866
 O228 O 0.14394 0.47865 0.17679
 O229 O 0.17389 0.47837 0.14854
 O230 O 0.14462 0.52018 0.17722
 Cu231 Cu 0.13270 0.49998 0.13486
 Cu232 Cu 0.16163 0.49924 0.16535
 C233 C 0.12736 0.52742 0.16967
 C234 C 0.16728 0.47206 0.13056
 C235 C 0.12691 0.47144 0.16869
 C236 C 0.16748 0.52761 0.13135
 O237 O 0.84627 0.52196 0.12415
 O238 O 0.87533 0.48025 0.15338
 O239 O 0.84619 0.48039 0.12400
 O240 O 0.87523 0.52181 0.15378
 O241 O 0.85041 0.52138 0.17841
 O242 O 0.82115 0.48044 0.14841
 O243 O 0.85029 0.47988 0.17778
 O244 O 0.82146 0.52201 0.14878
 Cu245 Cu 0.86325 0.50114 0.13637
 Cu246 Cu 0.83332 0.50092 0.16579
 C247 C 0.82886 0.52909 0.13140
 C248 C 0.86782 0.47294 0.17061
 C249 C 0.82863 0.47340 0.13107
 C250 C 0.86787 0.52855 0.17130
 O251 O 0.15460 0.52113 0.87481
 O252 O 0.12593 0.47965 0.84482
 O253 O 0.15527 0.47955 0.87383
 O254 O 0.12531 0.52129 0.84540
 O255 O 0.15011 0.52230 0.82077
 O256 O 0.17998 0.48061 0.84911
 O257 O 0.15051 0.48075 0.81997
 O258 O 0.17927 0.52212 0.85005
 Cu259 Cu 0.13779 0.50035 0.86219
 Cu260 Cu 0.16744 0.50152 0.83249
 C261 C 0.17191 0.52865 0.86764
 C262 C 0.13330 0.47312 0.82724
 C263 C 0.17281 0.47299 0.86635
 C264 C 0.13256 0.52889 0.82817
 C265 C 0.25956 0.36924 0.04804
 C266 C 0.28169 0.37246 0.04815
 C267 C 0.29507 0.35918 0.03641
 C268 C 0.28659 0.34275 0.02389
 C269 C 0.26460 0.33935 0.02376
 C270 C 0.25122 0.35237 0.03580
 C271 C 0.24529 0.38350 0.06051
 C272 C 0.22488 0.38869 0.05302
 C273 C 0.21162 0.40225 0.06461
 C274 C 0.21852 0.41131 0.08384
 C275 C 0.23893 0.40612 0.09131
 C276 C 0.25203 0.39226 0.07992
 C277 C 0.20468 0.42635 0.09590
 C278 C 0.20553 0.42718 0.11820
 C279 C 0.19332 0.44196 0.12944
 C280 C 0.17961 0.45595 0.11871
 C281 C 0.17826 0.45483 0.09652
 C282 C 0.19080 0.44036 0.08522
 H283 H 0.28872 0.38550 0.05698
 H284 H 0.31202 0.36206 0.03663
 H285 H 0.25782 0.32655 0.01438
 H286 H 0.23436 0.34905 0.03566
 H287 H 0.21919 0.38255 0.03800
 H288 H 0.19591 0.40554 0.05846
 H289 H 0.24501 0.41301 0.10584
 H290 H 0.26745 0.38839 0.08645
 H291 H 0.21559 0.41635 0.12706
 H292 H 0.19450 0.44235 0.14658
 H293 H 0.16794 0.46559 0.08784
 H294 H 0.18995 0.44055 0.06808
 C295 C 0.74323 0.63507 0.04599
 C296 C 0.74512 0.65730 0.04869
 C297 C 0.73283 0.67132 0.03652
 C298 C 0.71847 0.66337 0.02142
 C299 C 0.71627 0.64117 0.01900
 C300 C 0.72863 0.62716 0.03105
 C301 C 0.75640 0.62013 0.05871
 C302 C 0.76571 0.60215 0.04915
 C303 C 0.77791 0.58791 0.06112
 C304 C 0.78100 0.59128 0.08294
 C305 C 0.77175 0.60930 0.09250
 C306 C 0.75963 0.62361 0.08049
 C307 C 0.79362 0.57588 0.09568
 C308 C 0.78665 0.56939 0.11584
 C309 C 0.79818 0.55435 0.12754
 C310 C 0.81699 0.54555 0.11936
 C311 C 0.82412 0.55230 0.09933
 C312 C 0.81255 0.56726 0.08761
 H313 H 0.75635 0.66385 0.05996
 H314 H 0.73473 0.68839 0.03866
 H315 H 0.70496 0.63468 0.00777
 H316 H 0.72655 0.61011 0.02890
 H317 H 0.76368 0.59917 0.03235
 H318 H 0.78466 0.57406 0.05335
 H319 H 0.77401 0.61240 0.10925
 H320 H 0.75251 0.63723 0.08832
 H321 H 0.77201 0.57559 0.12238
 H322 H 0.79224 0.54948 0.14291
 H323 H 0.83858 0.54587 0.09259
 H324 H 0.81845 0.57217 0.07224
 C325 C 0.74672 0.36258 0.95105
 C326 C 0.72474 0.36132 0.94728
 C327 C 0.71200 0.34756 0.95916
 C328 C 0.72092 0.33462 0.97502
 C329 C 0.74298 0.33517 0.97828
 C330 C 0.75573 0.34914 0.96655
 C331 C 0.76000 0.37817 0.93913
 C332 C 0.78082 0.37305 0.93290
 C333 C 0.79309 0.38776 0.92153
 C334 C 0.78471 0.40780 0.91597
 C335 C 0.76400 0.41300 0.92231
 C336 C 0.75184 0.39842 0.93385
 C337 C 0.79735 0.42328 0.90344
 C338 C 0.78807 0.43404 0.88622
 C339 C 0.79965 0.44910 0.87469
 C340 C 0.82073 0.45391 0.88026
 C341 C 0.83009 0.44302 0.89740
 C342 C 0.81855 0.42773 0.90879
 H343 H 0.71732 0.37102 0.93513
 H344 H 0.69505 0.34733 0.95627
 H345 H 0.75025 0.32511 0.99024
 H346 H 0.77255 0.34978 0.96999
 H347 H 0.78752 0.35752 0.93646
 H348 H 0.80897 0.38332 0.91667
 H349 H 0.75730 0.42848 0.91855
 H350 H 0.73610 0.40315 0.93884
 H351 H 0.77182 0.43073 0.88163
 H352 H 0.79197 0.45720 0.86158
 H353 H 0.84631 0.44635 0.90204
 H354 H 0.82602 0.41974 0.92208
 C355 C 0.25623 0.63520 0.95377
 C356 C 0.27113 0.62766 0.96860
 C357 C 0.28304 0.64197 0.98077
 C358 C 0.28006 0.66411 0.97857
 C359 C 0.26545 0.67169 0.96352
 C360 C 0.25362 0.65738 0.95126
 C361 C 0.24343 0.61996 0.94102
 C362 C 0.23988 0.62359 0.91930
 C363 C 0.22799 0.60911 0.90728
 C364 C 0.21928 0.59075 0.91674
 C365 C 0.22272 0.58720 0.93848
 C366 C 0.23470 0.60161 0.95048
 C367 C 0.20685 0.57523 0.90395
 C368 C 0.18821 0.56604 0.91211
 C369 C 0.17673 0.55111 0.90023
 C370 C 0.18370 0.54496 0.87996
 C371 C 0.20227 0.55426 0.87175
 C372 C 0.21368 0.56926 0.88359
 H373 H 0.27376 0.61067 0.97062
 H374 H 0.29454 0.63579 0.99199
 H375 H 0.26297 0.68871 0.96154
 H376 H 0.24214 0.66365 0.94007
 H377 H 0.24655 0.63750 0.91154
 H378 H 0.22545 0.61237 0.89060
 H379 H 0.21639 0.57309 0.94617
 H380 H 0.23699 0.59850 0.96722
 H381 H 0.18241 0.57052 0.92764
 H382 H 0.16248 0.54427 0.90701
 H383 H 0.20808 0.54986 0.85620
 H384 H 0.22811 0.57589 0.87698
 C385 C 0.04543 0.25279 0.36291
 C386 C 0.04776 0.24986 0.34093
 C387 C 0.03599 0.26219 0.32664
 C388 C 0.02153 0.27748 0.33407
 C389 C 0.01922 0.28050 0.35600
 C390 C 0.03102 0.26824 0.37029
 C391 C 0.05813 0.23993 0.37811
 C392 C 0.06739 0.24963 0.39596
 C393 C 0.07939 0.23759 0.41027
 C394 C 0.08233 0.21556 0.40710
 C395 C 0.07303 0.20583 0.38928
 C396 C 0.06111 0.21791 0.37489
 C397 C 0.09495 0.20280 0.42245
 C398 C 0.08791 0.18256 0.42910
 C399 C 0.09945 0.17089 0.44411
 C400 C 0.11834 0.17917 0.45273
 C401 C 0.12554 0.19927 0.44580
 C402 C 0.11396 0.21096 0.43087
 H403 H 0.05892 0.23827 0.33479
 H404 H 0.03805 0.25972 0.30976
 H405 H 0.00828 0.29238 0.36203
 H406 H 0.02875 0.27072 0.38713
 H407 H 0.06554 0.26661 0.39874
 H408 H 0.08617 0.24549 0.42398
 H409 H 0.07516 0.18891 0.38634
 H410 H 0.05401 0.20997 0.36137
 H411 H 0.07322 0.17595 0.42303
 H412 H 0.09346 0.15547 0.44912
 H413 H 0.14004 0.20609 0.45209
 H414 H 0.11992 0.22639 0.42584
 C415 C 0.04789 0.74511 0.63504
 C416 C 0.03308 0.72996 0.62779
 C417 C 0.02129 0.71783 0.64218
 C418 C 0.02383 0.72084 0.66410
 C419 C 0.03892 0.73563 0.67140
 C420 C 0.05083 0.74768 0.65700
 C421 C 0.06010 0.75826 0.61971
 C422 C 0.08188 0.76205 0.62280
 C423 C 0.09339 0.77425 0.60820
 C424 C 0.08334 0.78303 0.59029
 C425 C 0.06153 0.77937 0.58730
 C426 C 0.05005 0.76707 0.60182
 C427 C 0.09558 0.79577 0.57463
 C428 C 0.08700 0.81454 0.56588
 C429 C 0.09837 0.82632 0.55085
 C430 C 0.11854 0.81951 0.54415
 C431 C 0.12716 0.80079 0.55300
 C432 C 0.11583 0.78909 0.56811
 H433 H 0.03075 0.72736 0.61097
 H434 H 0.01004 0.70620 0.63621
 H435 H 0.04117 0.73813 0.68825
 H436 H 0.06202 0.75933 0.66305
 H437 H 0.09007 0.75533 0.63635
 H438 H 0.11013 0.77696 0.61102
 H439 H 0.05340 0.78575 0.57355
 H440 H 0.03325 0.76461 0.59915
 H441 H 0.07153 0.82022 0.57079
 H442 H 0.09129 0.84068 0.54437
 H443 H 0.14265 0.79510 0.54818
 H444 H 0.12276 0.77456 0.57439
 C445 C 0.95402 0.74655 0.36506
 C446 C 0.96491 0.75565 0.34786
 C447 C 0.97620 0.74266 0.33380
 C448 C 0.97634 0.72040 0.33653
 C449 C 0.96508 0.71127 0.35342
 C450 C 0.95421 0.72428 0.36775
 C451 C 0.94254 0.76022 0.38028
 C452 C 0.94721 0.75904 0.40202
 C453 C 0.93610 0.77167 0.41652
 C454 C 0.91983 0.78530 0.40954
 C455 C 0.91513 0.78645 0.38779
 C456 C 0.92659 0.77418 0.37323
 C457 C 0.90746 0.79787 0.42501
 C458 C 0.88527 0.79603 0.42566
 C459 C 0.87359 0.80718 0.44090
 C460 C 0.88387 0.82073 0.45541
 C461 C 0.90604 0.82290 0.45445
 C462 C 0.91777 0.81135 0.43953
 H463 H 0.96498 0.77281 0.34558
 H464 H 0.98486 0.74991 0.32083
 H465 H 0.96513 0.69411 0.35575
 H466 H 0.94581 0.71698 0.38087
 H467 H 0.95952 0.74840 0.40773
 H468 H 0.93988 0.77049 0.43324
 H469 H 0.90266 0.79691 0.38211
 H470 H 0.92272 0.77523 0.35652
 H471 H 0.87705 0.78562 0.41466
 H472 H 0.85651 0.80529 0.44126
 H473 H 0.91435 0.83317 0.46552
 H474 H 0.93488 0.81300 0.43923
 C475 C 0.95176 0.25607 0.63417
 C476 C 0.94833 0.27826 0.63540
 C477 C 0.96063 0.29096 0.64883
 C478 C 0.97656 0.28179 0.66146
 C479 C 0.97950 0.25954 0.66094
 C480 C 0.96735 0.24682 0.64729
 C481 C 0.93937 0.24280 0.61897
 C482 C 0.93291 0.22194 0.62427
 C483 C 0.92120 0.20963 0.60988
 C484 C 0.91553 0.21801 0.58999
 C485 C 0.92204 0.23877 0.58464
 C486 C 0.93391 0.25098 0.59890
 C487 C 0.90281 0.20524 0.57479
 C488 C 0.88565 0.21461 0.56401
 C489 C 0.87400 0.20288 0.54919
 C490 C 0.87939 0.18157 0.54465
 C491 C 0.89645 0.17212 0.55557
 C492 C 0.90796 0.18381 0.57060
 H493 H 0.93614 0.28586 0.62592
 H494 H 0.95798 0.30807 0.64907
 H495 H 0.99151 0.25209 0.67077
 H496 H 0.97054 0.22984 0.64667
 H497 H 0.93658 0.21523 0.63967
 H498 H 0.91621 0.19371 0.61445
 H499 H 0.91819 0.24547 0.56927
 H500 H 0.93905 0.26676 0.59405
 H501 H 0.88121 0.23104 0.56712
 H502 H 0.86095 0.21062 0.54104
 H503 H 0.90095 0.15572 0.55245
 H504 H 0.92121 0.17626 0.57860
 C505 C 0.36617 0.04722 0.25614
 C506 C 0.35314 0.03143 0.24698
 C507 C 0.33925 0.01945 0.25954
 C508 C 0.33836 0.02276 0.28155
 C509 C 0.35096 0.03883 0.29064
 C510 C 0.36467 0.05095 0.27808
 C511 C 0.38150 0.05956 0.24300
 C512 C 0.40152 0.06512 0.25121
 C513 C 0.41590 0.07687 0.23905
 C514 C 0.41071 0.08317 0.21832
 C515 C 0.39083 0.07745 0.20995
 C516 C 0.37633 0.06585 0.22219
 C517 C 0.42607 0.09564 0.20552
 C518 C 0.43014 0.09017 0.18431
 C519 C 0.44521 0.10150 0.17253
 C520 C 0.45633 0.11868 0.18167
 C521 C 0.45196 0.12437 0.20278
 C522 C 0.43707 0.11291 0.21460
 H523 H 0.35399 0.02800 0.23018
 H524 H 0.32944 0.00733 0.25214
 H525 H 0.35044 0.04176 0.30756
 H526 H 0.37410 0.06329 0.28560
 H527 H 0.40624 0.06013 0.26697
 H528 H 0.43126 0.08076 0.24576
 H529 H 0.38636 0.08229 0.19406
 H530 H 0.36095 0.06212 0.21546
 H531 H 0.42199 0.07683 0.17698
 H532 H 0.44820 0.09676 0.15629
 H533 H 0.46025 0.13752 0.21028
 H534 H 0.43407 0.11759 0.23086
 C535 C 0.63207 0.04629 0.74244
 C536 C 0.62428 0.03111 0.72794
 C537 C 0.63822 0.01934 0.71530
 C538 C 0.66024 0.02232 0.71708
 C539 C 0.66806 0.03761 0.73138
 C540 C 0.65412 0.04946 0.74396
 C541 C 0.61723 0.05885 0.75579
 C542 C 0.62053 0.08082 0.75908
 C543 C 0.60636 0.09272 0.77137
 C544 C 0.58862 0.08288 0.78072
 C545 C 0.58543 0.06087 0.77758
 C546 C 0.59955 0.04900 0.76523
 C547 C 0.57333 0.09559 0.79343
 C548 C 0.56480 0.08733 0.81232
 C549 C 0.55007 0.09912 0.82404
 C550 C 0.54347 0.11942 0.81707
 C551 C 0.55212 0.12773 0.79826
 C552 C 0.56690 0.11597 0.78659
 H553 H 0.60737 0.02858 0.72614
 H554 H 0.63183 0.00793 0.70407
 H555 H 0.68499 0.04017 0.73297
 H556 H 0.66060 0.06090 0.75511
 H557 H 0.63390 0.08890 0.75187
 H558 H 0.60935 0.10961 0.77366
 H559 H 0.57180 0.05288 0.78441
 H560 H 0.59672 0.03205 0.76316
 H561 H 0.56964 0.07178 0.81812
 H562 H 0.54374 0.09227 0.83848
 H563 H 0.54735 0.14330 0.79243
 H564 H 0.57299 0.12266 0.77197
 C565 C 0.36222 0.95302 0.74462
 C566 C 0.36945 0.96723 0.72893
 C567 C 0.35506 0.97946 0.71721
 C568 C 0.33318 0.97782 0.72104
 C569 C 0.32587 0.96338 0.73643
 C570 C 0.34026 0.95118 0.74821
 C571 C 0.37754 0.94019 0.75720
 C572 C 0.37483 0.93757 0.77918
 C573 C 0.38942 0.92569 0.79104
 C574 C 0.40697 0.91607 0.78116
 C575 C 0.40962 0.91862 0.75918
 C576 C 0.39510 0.93058 0.74734
 C577 C 0.42253 0.90348 0.79371
 C578 C 0.43068 0.88419 0.78573
 C579 C 0.44567 0.87254 0.79728
 C580 C 0.45292 0.87995 0.81706
 C581 C 0.44463 0.89915 0.82513
 C582 C 0.42957 0.91076 0.81360
 H583 H 0.38626 0.96912 0.72593
 H584 H 0.36099 0.99034 0.70523
 H585 H 0.30903 0.96179 0.73949
 H586 H 0.33422 0.94015 0.75998
 H587 H 0.36157 0.94496 0.78724
 H588 H 0.38686 0.92385 0.80792
 H589 H 0.42310 0.91159 0.75116
 H590 H 0.39750 0.93215 0.73041
 H591 H 0.42534 0.87802 0.77059
 H592 H 0.45168 0.85779 0.79063
 H593 H 0.44991 0.90530 0.84030
 H594 H 0.42373 0.92568 0.82005
 C595 C 0.64288 0.95022 0.24956
 C596 C 0.64503 0.94575 0.27129
 C597 C 0.65868 0.95789 0.28393
 C598 C 0.67054 0.97467 0.27508
 C599 C 0.66889 0.97875 0.25323
 C600 C 0.65502 0.96677 0.24062
 C601 C 0.62761 0.93793 0.23646
 C602 C 0.61376 0.94852 0.22251
 C603 C 0.59854 0.93705 0.21104
 C604 C 0.59696 0.91471 0.21314
 C605 C 0.61118 0.90411 0.22678
 C606 C 0.62626 0.91561 0.23838
 C607 C 0.58027 0.90257 0.20155
 C608 C 0.56991 0.88521 0.21126
 C609 C 0.55401 0.87398 0.20054
 C610 C 0.54792 0.87994 0.17993
 C611 C 0.55826 0.89726 0.17018
 C612 C 0.57430 0.90839 0.18083
 H613 H 0.63571 0.93323 0.27863
 H614 H 0.65963 0.95450 0.30075
 H615 H 0.67817 0.99136 0.24599
 H616 H 0.65384 0.97037 0.22385
 H617 H 0.61428 0.96575 0.22095
 H618 H 0.58765 0.94577 0.20096
 H619 H 0.61072 0.88690 0.22846
 H620 H 0.63694 0.90704 0.24882
 H621 H 0.57381 0.88052 0.22732
 H622 H 0.54626 0.86080 0.20855
 H623 H 0.55402 0.90216 0.15425
 H624 H 0.58215 0.92145 0.17275
 C625 C 0.36791 0.26020 0.95232
 C626 C 0.34625 0.26150 0.94719
 C627 C 0.33259 0.27441 0.95905
 C628 C 0.34015 0.28617 0.97659
 C629 C 0.36203 0.28517 0.98128
 C630 C 0.37565 0.27229 0.96942
 C631 C 0.38249 0.24645 0.93981
 C632 C 0.39849 0.23459 0.94998
 C633 C 0.41253 0.22204 0.93822
 C634 C 0.41090 0.22103 0.91601
 C635 C 0.39476 0.23272 0.90585
 C636 C 0.38071 0.24528 0.91762
 C637 C 0.42622 0.20813 0.90350
 C638 C 0.43440 0.21597 0.88428
 C639 C 0.44925 0.20412 0.87278
 C640 C 0.45629 0.18417 0.88025
 C641 C 0.44795 0.17622 0.89936
 C642 C 0.43308 0.18806 0.91084
 H643 H 0.33976 0.25222 0.93423
 H644 H 0.31589 0.27447 0.95494
 H645 H 0.36887 0.29491 0.99372
 H646 H 0.39238 0.27215 0.97337
 H647 H 0.40011 0.23495 0.96708
 H648 H 0.42491 0.21341 0.94652
 H649 H 0.39294 0.23209 0.88879
 H650 H 0.36868 0.25437 0.90930
 H651 H 0.42966 0.23149 0.87833
 H652 H 0.45540 0.21073 0.85815
 H653 H 0.45297 0.16086 0.90551
 H654 H 0.42686 0.18144 0.92544
 C655 C 0.63480 0.74302 0.94858
 C656 C 0.63912 0.72178 0.94285
 C657 C 0.65332 0.70943 0.95466
 C658 C 0.66357 0.71789 0.97272
 C659 C 0.65980 0.73951 0.97785
 C660 C 0.64550 0.75182 0.96607
 C661 C 0.61898 0.75580 0.93648
 C662 C 0.62239 0.77763 0.93239
 C663 C 0.60739 0.78958 0.92110
 C664 C 0.58871 0.77992 0.91357
 C665 C 0.58528 0.75812 0.91766
 C666 C 0.60020 0.74622 0.92903
 C667 C 0.57276 0.79249 0.90153
 C668 C 0.56300 0.78382 0.88343
 C669 C 0.54769 0.79545 0.87228
 C670 C 0.54170 0.81598 0.87906
 C671 C 0.55156 0.82471 0.89710
 C672 C 0.56698 0.81312 0.90818
 H673 H 0.63145 0.71462 0.92921
 H674 H 0.65548 0.69289 0.95008
 H675 H 0.66822 0.74719 0.99072
 H676 H 0.64262 0.76817 0.97088
 H677 H 0.63682 0.78543 0.93764
 H678 H 0.61056 0.80629 0.91796
 H679 H 0.57086 0.75034 0.91236
 H680 H 0.59686 0.72956 0.93227
 H681 H 0.56733 0.76806 0.87779
 H682 H 0.54043 0.78827 0.85843
 H683 H 0.54731 0.84049 0.90273
 H684 H 0.57410 0.82012 0.92219
 C685 C 0.36342 0.74480 0.05052
 C686 C 0.35987 0.72341 0.05622
 C687 C 0.34601 0.71064 0.04444
 C688 C 0.33535 0.71885 0.02649
 C689 C 0.33853 0.74056 0.02130
 C690 C 0.35252 0.75327 0.03302
 C691 C 0.37866 0.75811 0.06269
 C692 C 0.39312 0.77146 0.05210
 C693 C 0.40797 0.78344 0.06352
 C694 C 0.40862 0.78246 0.08580
 C695 C 0.39393 0.76931 0.09638
 C696 C 0.37916 0.75724 0.08495
 C697 C 0.42478 0.79479 0.09790
 C698 C 0.43470 0.78583 0.11582
 C699 C 0.45023 0.79721 0.12693
 C700 C 0.45630 0.81778 0.12033
 C701 C 0.44629 0.82682 0.10252
 C702 C 0.43068 0.81548 0.09147
 H703 H 0.36826 0.71637 0.06950
 H704 H 0.34442 0.69401 0.04894
 H705 H 0.32976 0.74802 0.00853
 H706 H 0.35455 0.76988 0.02859
 H707 H 0.39328 0.77222 0.03494
 H708 H 0.41926 0.79312 0.05484
 H709 H 0.39374 0.76848 0.11353
 H710 H 0.36800 0.74732 0.09354
 H711 H 0.43078 0.76981 0.12101
 H712 H 0.45771 0.78975 0.14052
 H713 H 0.45051 0.84268 0.09710
 H714 H 0.42312 0.82299 0.07796
 C715 C 0.63742 0.25337 0.04737
 C716 C 0.65024 0.24417 0.03155
 C717 C 0.66473 0.25668 0.02022
 C718 C 0.66646 0.27869 0.02424
 C719 C 0.65403 0.28780 0.04032
 C720 C 0.63974 0.27528 0.05179
 C721 C 0.62147 0.24035 0.05904
 C722 C 0.60176 0.24924 0.06465
 C723 C 0.58691 0.23731 0.07604
 C724 C 0.59128 0.21612 0.08190
 C725 C 0.61078 0.20702 0.07600
 C726 C 0.62576 0.21903 0.06477
 C727 C 0.57557 0.20371 0.09434
 C728 C 0.57050 0.18257 0.08878
 C729 C 0.55520 0.17118 0.10023
 C730 C 0.54488 0.18064 0.11761
 C731 C 0.55023 0.20168 0.12333
 C732 C 0.56533 0.21312 0.11176
 H733 H 0.64878 0.22739 0.02761
 H734 H 0.67437 0.24924 0.00809
 H735 H 0.65512 0.30473 0.04374
 H736 H 0.63050 0.28282 0.06416
 H737 H 0.59769 0.26541 0.06007
 H738 H 0.57186 0.24460 0.08007
 H739 H 0.61461 0.19076 0.08049
 H740 H 0.64086 0.21176 0.06095
 H741 H 0.57807 0.17501 0.07533
 H742 H 0.55145 0.15499 0.09546
 H743 H 0.54257 0.20943 0.13664
 H744 H 0.56911 0.22931 0.11652
 C745 C 0.25220 0.04933 0.63784
 C746 C 0.24399 0.03171 0.64888
 C747 C 0.25674 0.02021 0.66299
 C748 C 0.27824 0.02573 0.66613
 C749 C 0.28615 0.04387 0.65541
 C750 C 0.27333 0.05544 0.64143
 C751 C 0.23890 0.06116 0.62235
 C752 C 0.23942 0.08360 0.62158
 C753 C 0.22746 0.09470 0.60650
 C754 C 0.21480 0.08363 0.59177
 C755 C 0.21410 0.06117 0.59273
 C756 C 0.22598 0.05007 0.60789
 C757 C 0.20273 0.09542 0.57520
 C758 C 0.18234 0.08867 0.56901
 C759 C 0.17122 0.09957 0.55314
 C760 C 0.18018 0.11752 0.54316
 C761 C 0.20049 0.12435 0.54944
 C762 C 0.21165 0.11340 0.56522
 H763 H 0.22758 0.02698 0.64681
 H764 H 0.24951 0.00728 0.67181
 H765 H 0.30261 0.04864 0.65698
 H766 H 0.28015 0.06883 0.63296
 H767 H 0.24900 0.09256 0.63274
 H768 H 0.22804 0.11200 0.60647
 H769 H 0.20478 0.05213 0.58142
 H770 H 0.22549 0.03277 0.60795
 H771 H 0.17489 0.07507 0.57658
 H772 H 0.15555 0.09396 0.54873
 H773 H 0.20790 0.13805 0.54199
 H774 H 0.22745 0.11882 0.56934
 C775 C 0.74693 0.04982 0.35982
 C776 C 0.72592 0.05549 0.35497
 C777 C 0.71400 0.04343 0.34061
 C778 C 0.72269 0.02519 0.33074
 C779 C 0.74413 0.02021 0.33495
 C780 C 0.75599 0.03222 0.34941
 C781 C 0.75917 0.06201 0.37598
 C782 C 0.78095 0.06611 0.37322
 C783 C 0.79241 0.07734 0.38862
 C784 C 0.78233 0.08481 0.40705
 C785 C 0.76058 0.08076 0.40979
 C786 C 0.74915 0.06944 0.39448
 C787 C 0.79442 0.09674 0.42343
 C788 C 0.78566 0.11499 0.43299
 C789 C 0.79685 0.12606 0.44866
 C790 C 0.81701 0.11904 0.45522
 C791 C 0.82581 0.10081 0.44561
 C792 C 0.81465 0.08982 0.42982
 H793 H 0.71858 0.06922 0.36239
 H794 H 0.69759 0.04792 0.33810
 H795 H 0.75197 0.00721 0.32682
 H796 H 0.77219 0.02745 0.35269
 H797 H 0.78908 0.06089 0.35903
 H798 H 0.80911 0.08047 0.38598
 H799 H 0.75248 0.08603 0.42399
 H800 H 0.73252 0.06618 0.39732
 H801 H 0.77019 0.12082 0.42820
 H802 H 0.78964 0.14006 0.45571
 H803 H 0.84131 0.09501 0.45030
 H804 H 0.82170 0.07568 0.42287
 C805 C 0.74152 0.95152 0.63267
 C806 C 0.75046 0.96712 0.64604
 C807 C 0.73777 0.97849 0.66028
 C808 C 0.71581 0.97477 0.66120
 C809 C 0.70689 0.95900 0.64810
 C810 C 0.71959 0.94747 0.63404
 C811 C 0.75490 0.93958 0.61726
 C812 C 0.74688 0.93412 0.59715
 C813 C 0.75928 0.92269 0.58274
 C814 C 0.78009 0.91664 0.58800
 C815 C 0.78826 0.92226 0.60796
 C816 C 0.77577 0.93351 0.62249
 C817 C 0.79317 0.90449 0.57265
 C818 C 0.81433 0.91034 0.56876
 C819 C 0.82645 0.89920 0.55384
 C820 C 0.81770 0.88184 0.54270
 C821 C 0.79661 0.87581 0.54685
 C822 C 0.78445 0.88709 0.56158
 H823 H 0.76723 0.97081 0.64530
 H824 H 0.74508 0.99032 0.67048
 H825 H 0.69000 0.95578 0.64859
 H826 H 0.71222 0.93528 0.62433
 H827 H 0.73106 0.93892 0.59239
 H828 H 0.75271 0.91885 0.56732
 H829 H 0.80419 0.91759 0.61248
 H830 H 0.78237 0.93714 0.63794
 H831 H 0.82138 0.92379 0.57697
 H832 H 0.84265 0.90421 0.55101
 H833 H 0.78941 0.86252 0.53852
 H834 H 0.76823 0.88213 0.56444
 C835 C 0.25440 0.95233 0.36272
 C836 C 0.27410 0.94383 0.35679
 C837 C 0.28720 0.95459 0.34253
 C838 C 0.28123 0.97455 0.33404
 C839 C 0.26143 0.98376 0.34046
 C840 C 0.24794 0.97193 0.35404
 C841 C 0.24061 0.94065 0.37792
 C842 C 0.22975 0.95169 0.39400
 C843 C 0.21762 0.94057 0.40894
 C844 C 0.21606 0.91816 0.40811
 C845 C 0.22656 0.90718 0.39175
 C846 C 0.23870 0.91829 0.37685
 C847 C 0.20393 0.90620 0.42448
 C848 C 0.21185 0.88689 0.43270
 C849 C 0.20063 0.87566 0.44822
 C850 C 0.18121 0.88348 0.45593
 C851 C 0.17325 0.90279 0.44771
 C852 C 0.18450 0.91403 0.43217
 H853 H 0.27961 0.92888 0.36349
 H854 H 0.30250 0.94759 0.33907
 H855 H 0.25301 0.99893 0.32934
 H856 H 0.23223 0.97808 0.35733
 H857 H 0.23112 0.96889 0.39537
 H858 H 0.20994 0.94947 0.42149
 H859 H 0.22533 0.88997 0.39041
 H860 H 0.24655 0.90937 0.36441
 H861 H 0.22693 0.88059 0.42736
 H862 H 0.20725 0.86089 0.45426
 H863 H 0.15831 0.90923 0.45327
 H864 H 0.17786 0.92873 0.42599
 C865 C 0.05117 0.36438 0.74171
 C866 C 0.03554 0.35131 0.75100
 C867 C 0.02378 0.33702 0.73860
 C868 C 0.02719 0.33575 0.71663
 C869 C 0.04307 0.34843 0.70742
 C870 C 0.05497 0.36252 0.71981
 C871 C 0.06328 0.38012 0.75464
 C872 C 0.06870 0.40018 0.74613
 C873 C 0.08030 0.41493 0.75807
 C874 C 0.08658 0.41007 0.77889
 C875 C 0.08099 0.39016 0.78755
 C876 C 0.06955 0.37530 0.77553
 C877 C 0.09886 0.42582 0.79148
 C878 C 0.09342 0.43013 0.81264
 C879 C 0.10462 0.44547 0.82428
 C880 C 0.12165 0.45662 0.81506
 C881 C 0.12728 0.45206 0.79398
 C882 C 0.11593 0.43689 0.78229
 H883 H 0.03207 0.35243 0.76777
 H884 H 0.01180 0.32718 0.74610
 H885 H 0.04603 0.34769 0.69052
 H886 H 0.06718 0.37198 0.71220
 H887 H 0.06373 0.40465 0.73029
 H888 H 0.08408 0.43030 0.75113
 H889 H 0.08582 0.38594 0.80351
 H890 H 0.06592 0.35990 0.78249
 H891 H 0.08021 0.42194 0.82005
 H892 H 0.09992 0.44860 0.84050
 H893 H 0.14032 0.46037 0.78643
 H894 H 0.12059 0.43371 0.76607
 C895 C 0.04719 0.63847 0.25385
 C896 C 0.05399 0.64270 0.27463
 C897 C 0.04246 0.65643 0.28773
 C898 C 0.02361 0.66622 0.28048
 C899 C 0.01738 0.66255 0.25928
 C900 C 0.02888 0.64871 0.24625
 C901 C 0.05896 0.62310 0.24035
 C902 C 0.04799 0.60799 0.22801
 C903 C 0.05907 0.59286 0.21606
 C904 C 0.08139 0.59255 0.21611
 C905 C 0.09234 0.60794 0.22815
 C906 C 0.08126 0.62300 0.24016
 C907 C 0.09321 0.57597 0.20405
 C908 C 0.11151 0.56651 0.21272
 C909 C 0.12258 0.55081 0.20154
 C910 C 0.11558 0.54411 0.18144
 C911 C 0.09727 0.55352 0.17275
 C912 C 0.08623 0.56930 0.18392
 H913 H 0.06793 0.63486 0.28102
 H914 H 0.04782 0.65846 0.30392
 H915 H 0.00389 0.67077 0.25249
 H916 H 0.02359 0.64620 0.23009
 H917 H 0.03080 0.60750 0.22807
 H918 H 0.05015 0.58105 0.20721
 H919 H 0.10952 0.60841 0.22822
 H920 H 0.09014 0.63466 0.24925
 H921 H 0.11712 0.57101 0.22833
 H922 H 0.13656 0.54382 0.20873
 H923 H 0.09152 0.54878 0.15726
 H924 H 0.07235 0.57645 0.17668
 C925 C 0.95120 0.36407 0.25481
 C926 C 0.94687 0.34206 0.25337
 C927 C 0.95851 0.32736 0.26537
 C928 C 0.97472 0.33438 0.27897
 C929 C 0.97890 0.35635 0.28064
 C930 C 0.96734 0.37105 0.26859
 C931 C 0.93885 0.37970 0.24207
 C932 C 0.94903 0.39711 0.23231
 C933 C 0.93739 0.41191 0.22045
 C934 C 0.91531 0.40968 0.21811
 C935 C 0.90514 0.39224 0.22783
 C936 C 0.91679 0.37740 0.23965
 C937 C 0.90293 0.42557 0.20572
 C938 C 0.88313 0.43279 0.21304
 C939 C 0.87166 0.44805 0.20157
 C940 C 0.87971 0.45640 0.18251
 C941 C 0.89943 0.44903 0.17510
 C942 C 0.91091 0.43380 0.18658
 H943 H 0.93469 0.33618 0.24274
 H944 H 0.95503 0.31047 0.26388
 H945 H 0.99108 0.36212 0.29134
 H946 H 0.97079 0.38792 0.27031
 H947 H 0.96604 0.39918 0.23371
 H948 H 0.94565 0.42529 0.21334
 H949 H 0.88819 0.38997 0.22615
 H950 H 0.90847 0.36427 0.24715
 H951 H 0.87668 0.42694 0.22785
 H952 H 0.85654 0.45342 0.20775
 H953 H 0.90606 0.45508 0.16045
 H954 H 0.92598 0.42834 0.18039
 C955 C 0.95263 0.63614 0.74399
 C956 C 0.94689 0.63996 0.72280
 C957 C 0.95849 0.65420 0.71030
 C958 C 0.97634 0.66502 0.71856
 C959 C 0.98154 0.66167 0.74008
 C960 C 0.96998 0.64732 0.75254
 C961 C 0.94064 0.62041 0.75699
 C962 C 0.93643 0.62433 0.77855
 C963 C 0.92505 0.60950 0.79065
 C964 C 0.91753 0.59051 0.78142
 C965 C 0.92180 0.58655 0.75992
 C966 C 0.93327 0.60128 0.74787
 C967 C 0.90525 0.57482 0.79409
 C968 C 0.88709 0.56505 0.78549
 C969 C 0.87578 0.54987 0.79714
 C970 C 0.88244 0.54400 0.81762
 C971 C 0.90049 0.55392 0.82631
 C972 C 0.91173 0.56923 0.81469
 H973 H 0.93336 0.63192 0.71581
 H974 H 0.95389 0.65601 0.69384
 H975 H 0.99428 0.67050 0.74756
 H976 H 0.97481 0.64482 0.76884
 H977 H 0.94162 0.63902 0.78599
 H978 H 0.92180 0.61305 0.80713
 H979 H 0.91651 0.57187 0.75249
 H980 H 0.93661 0.59754 0.73145
 H981 H 0.88158 0.56924 0.76975
 H982 H 0.86192 0.54256 0.79000
 H983 H 0.90603 0.54976 0.84205
 H984 H 0.92577 0.57639 0.82163
 C985 C 0.74396 0.63271 0.95123
 C986 C 0.75303 0.64665 0.96623
 C987 C 0.74038 0.66120 0.97731
 C988 C 0.71836 0.66187 0.97390
 C989 C 0.70931 0.64817 0.95876
 C990 C 0.72196 0.63380 0.94751
 C991 C 0.75731 0.61706 0.93952
 C992 C 0.74938 0.59661 0.93463
 C993 C 0.76165 0.58205 0.92321
 C994 C 0.78223 0.58748 0.91661
 C995 C 0.79035 0.60773 0.92174
 C996 C 0.77799 0.62241 0.93298
 C997 C 0.79505 0.57207 0.90422
 C998 C 0.81640 0.56825 0.90943
 C999 C 0.82828 0.55334 0.89797
 C1000 C 0.81912 0.54218 0.88091
 C1001 C 0.79784 0.54625 0.87555
 C1002 C 0.78590 0.56095 0.88716
 H1003 H 0.76986 0.64613 0.96966
 H1004 H 0.74777 0.67185 0.98866
 H1005 H 0.69238 0.64845 0.95579
 H1006 H 0.71450 0.62364 0.93578
 H1007 H 0.73373 0.59175 0.93982
 H1008 H 0.75515 0.56641 0.91973
 H1009 H 0.80610 0.61237 0.91665
 H1010 H 0.78449 0.63811 0.93618
 H1011 H 0.82376 0.57653 0.92260
 H1012 H 0.84465 0.55056 0.90245
 H1013 H 0.79031 0.53789 0.86251
 H1014 H 0.76953 0.56377 0.88270
 C1015 C 0.25974 0.36814 0.95137
 C1016 C 0.26055 0.34617 0.94697
 C1017 C 0.27324 0.33258 0.95921
 C1018 C 0.28507 0.34055 0.97651
 C1019 C 0.28418 0.36267 0.98071
 C1020 C 0.27167 0.37623 0.96835
 C1021 C 0.24685 0.38274 0.93806
 C1022 C 0.25535 0.40231 0.93117
 C1023 C 0.24318 0.41628 0.91890
 C1024 C 0.22220 0.41108 0.91340
 C1025 C 0.21369 0.39148 0.92024
 C1026 C 0.22595 0.37738 0.93236
 C1027 C 0.20921 0.42625 0.90083
 C1028 C 0.18821 0.43082 0.90674
 C1029 C 0.17631 0.44588 0.89546
 C1030 C 0.18511 0.45653 0.87791
 C1031 C 0.20598 0.45163 0.87177
 C1032 C 0.21793 0.43672 0.88316
 H1033 H 0.25162 0.33956 0.93382
 H1034 H 0.27331 0.31569 0.95544
 H1035 H 0.29391 0.36980 0.99295
 H1036 H 0.27140 0.39314 0.97205
 H1037 H 0.27148 0.40674 0.93518
 H1038 H 0.25007 0.43136 0.91400
 H1039 H 0.19760 0.38703 0.91609
 H1040 H 0.21899 0.36245 0.93758
 H1041 H 0.18116 0.42311 0.92041
 H1042 H 0.16026 0.44928 0.90057
 H1043 H 0.21322 0.45954 0.85831
 H1044 H 0.23401 0.43333 0.87814
 C1045 C 0.25514 0.63510 0.05016
 C1046 C 0.27639 0.63875 0.05585
 C1047 C 0.28900 0.65281 0.04416
 C1048 C 0.28079 0.66361 0.02629
 C1049 C 0.25923 0.66039 0.02110
 C1050 C 0.24666 0.64621 0.03275
 C1051 C 0.24198 0.61964 0.06230
 C1052 C 0.22048 0.62390 0.06651
 C1053 C 0.20816 0.60928 0.07791
 C1054 C 0.21712 0.59016 0.08544
 C1055 C 0.23859 0.58590 0.08125
 C1056 C 0.25086 0.60043 0.06975
 C1057 C 0.20414 0.57461 0.09754
 C1058 C 0.21244 0.56459 0.11569
 C1059 C 0.20043 0.54955 0.12683
 C1060 C 0.17990 0.54409 0.11997
 C1061 C 0.17153 0.55424 0.10190
 C1062 C 0.18350 0.56940 0.09085
 H1063 H 0.28332 0.63073 0.06941
 H1064 H 0.30548 0.65453 0.04874
 H1065 H 0.25180 0.66919 0.00833
 H1066 H 0.23033 0.64382 0.02796
 H1067 H 0.21323 0.63868 0.06128
 H1068 H 0.19171 0.61308 0.08113
 H1069 H 0.24581 0.57113 0.08656
 H1070 H 0.26724 0.59646 0.06643
 H1071 H 0.22821 0.56849 0.12135
 H1072 H 0.20733 0.54204 0.14070
 H1073 H 0.15576 0.55039 0.09622
 H1074 H 0.17678 0.57673 0.07680
 C1075 C 0.74426 0.36531 0.04680
 C1076 C 0.73301 0.37200 0.02875
 C1077 C 0.72097 0.35747 0.01699
 C1078 C 0.72002 0.33571 0.02279
 C1079 C 0.73094 0.32921 0.04124
 C1080 C 0.74302 0.34376 0.05296
 C1081 C 0.75708 0.38079 0.05927
 C1082 C 0.75734 0.37992 0.08154
 C1083 C 0.76924 0.39462 0.09327
 C1084 C 0.78115 0.41056 0.08299
 C1085 C 0.78097 0.41137 0.06071
 C1086 C 0.76909 0.39665 0.04899
 C1087 C 0.79350 0.42642 0.09547
 C1088 C 0.81367 0.43314 0.08865
 C1089 C 0.82513 0.44831 0.10025
 C1090 C 0.81670 0.45706 0.11895
 C1091 C 0.79660 0.45024 0.12584
 C1092 C 0.78513 0.43512 0.11423
 H1093 H 0.73312 0.38862 0.02395
 H1094 H 0.71181 0.36351 0.00375
 H1095 H 0.73085 0.31264 0.04622
 H1096 H 0.75170 0.33804 0.06665
 H1097 H 0.74809 0.36805 0.08995
 H1098 H 0.76924 0.39341 0.11040
 H1099 H 0.78977 0.42359 0.05232
 H1100 H 0.76942 0.39760 0.03185
 H1101 H 0.82069 0.42652 0.07444
 H1102 H 0.84060 0.45316 0.09455
 H1103 H 0.78960 0.45673 0.14013
 H1104 H 0.76951 0.43053 0.11975
 C1105 C 0.95208 0.74618 0.63600
 C1106 C 0.94638 0.72479 0.63955
 C1107 C 0.95816 0.71203 0.65341
 C1108 C 0.97611 0.72026 0.66406
 C1109 C 0.98131 0.74197 0.66088
 C1110 C 0.96958 0.75467 0.64690
 C1111 C 0.93991 0.75947 0.62077
 C1112 C 0.95050 0.77286 0.60636
 C1113 C 0.93907 0.78485 0.59153
 C1114 C 0.91678 0.78379 0.59085
 C1115 C 0.90620 0.77060 0.60548
 C1116 C 0.91764 0.75854 0.62023
 C1117 C 0.90466 0.79615 0.57475
 C1118 C 0.88682 0.78714 0.56473
 C1119 C 0.87558 0.79862 0.54938
 C1120 C 0.88197 0.81934 0.54361
 C1121 C 0.89975 0.82840 0.55367
 C1122 C 0.91093 0.81695 0.56909
 H1123 H 0.93310 0.71774 0.63116
 H1124 H 0.95366 0.69540 0.65500
 H1125 H 0.99410 0.74942 0.66964
 H1126 H 0.97401 0.77128 0.64487
 H1127 H 0.96767 0.77367 0.60622
 H1128 H 0.94773 0.79458 0.58027
 H1129 H 0.88904 0.76972 0.60564
 H1130 H 0.90904 0.74859 0.63136
 H1131 H 0.88175 0.77104 0.56848
 H1132 H 0.86201 0.79114 0.54185
 H1133 H 0.90502 0.84437 0.54966
 H1134 H 0.92440 0.82448 0.57673
 C1135 C 0.95094 0.25338 0.36384
 C1136 C 0.94733 0.27548 0.36187
 C1137 C 0.95879 0.28764 0.34727
 C1138 C 0.97402 0.27799 0.33420
 C1139 C 0.97726 0.25583 0.33567
 C1140 C 0.96596 0.24367 0.35045
 C1141 C 0.93918 0.24063 0.37991
 C1142 C 0.93251 0.21963 0.37547
 C1143 C 0.92129 0.20781 0.39058
 C1144 C 0.91632 0.21680 0.41036
 C1145 C 0.92305 0.23770 0.41487
 C1146 C 0.93445 0.24944 0.39988
 C1147 C 0.90395 0.20456 0.42622
 C1148 C 0.88704 0.21429 0.43701
 C1149 C 0.87540 0.20287 0.45206
 C1150 C 0.88057 0.18155 0.45681
 C1151 C 0.89752 0.17182 0.44603
 C1152 C 0.90901 0.18318 0.43077
 H1153 H 0.93558 0.28342 0.37158
 H1154 H 0.95597 0.30470 0.34638
 H1155 H 0.98870 0.24797 0.32553
 H1156 H 0.96928 0.22674 0.35165
 H1157 H 0.93561 0.21245 0.36017
 H1158 H 0.91608 0.19179 0.38665
 H1159 H 0.91971 0.24489 0.43013
 H1160 H 0.93975 0.26536 0.40404
 H1161 H 0.88269 0.23069 0.43364
 H1162 H 0.86244 0.21082 0.46011
 H1163 H 0.90185 0.15540 0.44932
 H1164 H 0.92208 0.17537 0.42277
 C1165 C 0.04762 0.25723 0.63040
 C1166 C 0.05407 0.25856 0.65169
 C1167 C 0.04272 0.27099 0.66615
 C1168 C 0.02436 0.28220 0.65982
 C1169 C 0.01826 0.28117 0.63832
 C1170 C 0.02966 0.26877 0.62386
 C1171 C 0.05968 0.24397 0.61504
 C1172 C 0.04900 0.23186 0.59957
 C1173 C 0.06035 0.21946 0.58506
 C1174 C 0.08265 0.21887 0.58570
 C1175 C 0.09332 0.23091 0.60122
 C1176 C 0.08197 0.24333 0.61571
 C1177 C 0.09475 0.20590 0.57012
 C1178 C 0.11365 0.21380 0.56126
 C1179 C 0.12500 0.20170 0.54652
 C1180 C 0.11769 0.18143 0.54026
 C1181 C 0.09881 0.17350 0.54913
 C1182 C 0.08748 0.18559 0.56392
 H1183 H 0.06770 0.24964 0.65730
 H1184 H 0.04791 0.27110 0.68254
 H1185 H 0.00508 0.29052 0.63240
 H1186 H 0.02465 0.26859 0.60743
 H1187 H 0.03183 0.23182 0.59879
 H1188 H 0.05167 0.21056 0.57316
 H1189 H 0.11047 0.23061 0.60230
 H1190 H 0.09069 0.25265 0.62727
 H1191 H 0.11951 0.22952 0.56545
 H1192 H 0.13943 0.20833 0.53991
 H1193 H 0.09280 0.15791 0.54469
 H1194 H 0.07314 0.17893 0.57067
 C1195 C 0.04662 0.74588 0.36577
 C1196 C 0.04977 0.74768 0.34377
 C1197 C 0.03824 0.73489 0.32969
 C1198 C 0.02335 0.72011 0.33735
 C1199 C 0.02038 0.71809 0.35931
 C1200 C 0.03180 0.73093 0.37339
 C1201 C 0.05888 0.75935 0.38079
 C1202 C 0.04892 0.76854 0.39850
 C1203 C 0.06054 0.78084 0.41291
 C1204 C 0.08241 0.78414 0.40997
 C1205 C 0.09234 0.77507 0.39218
 C1206 C 0.08069 0.76285 0.37771
 C1207 C 0.09485 0.79670 0.42561
 C1208 C 0.11499 0.78969 0.43221
 C1209 C 0.12649 0.80120 0.44735
 C1210 C 0.11814 0.82004 0.45616
 C1211 C 0.09809 0.82717 0.44939
 C1212 C 0.08655 0.81561 0.43431
 H1213 H 0.06095 0.75917 0.33745
 H1214 H 0.04077 0.73666 0.31279
 H1215 H 0.00934 0.70643 0.36557
 H1216 H 0.02933 0.72890 0.39026
 H1217 H 0.03209 0.76629 0.40117
 H1218 H 0.05249 0.78745 0.42657
 H1219 H 0.10913 0.77752 0.38939
 H1220 H 0.08883 0.75582 0.36431
 H1221 H 0.12168 0.77504 0.42598
 H1222 H 0.14188 0.79526 0.45223
 H1223 H 0.09122 0.84164 0.45583
 H1224 H 0.07118 0.82153 0.42934
 C1225 C 0.63139 0.95066 0.74191
 C1226 C 0.63283 0.94702 0.71994
 C1227 C 0.64696 0.95876 0.70751
 C1228 C 0.66008 0.97433 0.71675
 C1229 C 0.65912 0.97763 0.73875
 C1230 C 0.64480 0.96605 0.75119
 C1231 C 0.61585 0.93854 0.75497
 C1232 C 0.62097 0.93195 0.77570
 C1233 C 0.60634 0.92043 0.78784
 C1234 C 0.58638 0.91508 0.77944
 C1235 C 0.58121 0.92168 0.75879
 C1236 C 0.59573 0.93337 0.74674
 C1237 C 0.57093 0.90263 0.79212
 C1238 C 0.55988 0.88546 0.78294
 C1239 C 0.54504 0.87391 0.79474
 C1240 C 0.54077 0.87943 0.81591
 C1241 C 0.55189 0.89657 0.82512
 C1242 C 0.56692 0.90797 0.81337
 H1243 H 0.62309 0.93499 0.71233
 H1244 H 0.64748 0.95587 0.69058
 H1245 H 0.66932 0.98933 0.74628
 H1246 H 0.64399 0.96941 0.76800
 H1247 H 0.63642 0.93535 0.78242
 H1248 H 0.61078 0.91534 0.80365
 H1249 H 0.56579 0.91806 0.75208
 H1250 H 0.59105 0.93859 0.73104
 H1251 H 0.56283 0.88089 0.76664
 H1252 H 0.53672 0.86080 0.78719
 H1253 H 0.54898 0.90119 0.84141
 H1254 H 0.57513 0.92124 0.82077
 C1255 C 0.36925 0.95122 0.25867
 C1256 C 0.37577 0.96889 0.27074
 C1257 C 0.36108 0.98050 0.28264
 C1258 C 0.33943 0.97479 0.28276
 C1259 C 0.33313 0.95660 0.27113
 C1260 C 0.34781 0.94514 0.25905
 C1261 C 0.38479 0.93915 0.24575
 C1262 C 0.37990 0.93325 0.22480
 C1263 C 0.39462 0.92200 0.21256
 C1264 C 0.41441 0.91623 0.22111
 C1265 C 0.41925 0.92206 0.24208
 C1266 C 0.40463 0.93350 0.25424
 C1267 C 0.42993 0.90407 0.20824
 C1268 C 0.44075 0.88655 0.21704
 C1269 C 0.45539 0.87505 0.20497
 C1270 C 0.45969 0.88095 0.18389
 C1271 C 0.44890 0.89852 0.17510
 C1272 C 0.43408 0.90989 0.18713
 H1273 H 0.39224 0.97386 0.27081
 H1274 H 0.36686 0.99364 0.29220
 H1275 H 0.31665 0.95167 0.27064
 H1276 H 0.34242 0.93141 0.25007
 H1277 H 0.36478 0.93756 0.21782
 H1278 H 0.39043 0.91757 0.19649
 H1279 H 0.43446 0.91796 0.24899
 H1280 H 0.40873 0.93772 0.27039
 H1281 H 0.43769 0.88160 0.23321
 H1282 H 0.46345 0.86161 0.21221
 H1283 H 0.45185 0.90345 0.15890
 H1284 H 0.42608 0.92344 0.18002
 C1285 C 0.63681 0.04506 0.25193
 C1286 C 0.63011 0.02897 0.26600
 C1287 C 0.64488 0.01779 0.27828
 C1288 C 0.66663 0.02234 0.27655
 C1289 C 0.67336 0.03841 0.26258
 C1290 C 0.65860 0.04964 0.25034
 C1291 C 0.62111 0.05726 0.23919
 C1292 C 0.62329 0.07946 0.23659
 C1293 C 0.60839 0.09104 0.22487
 C1294 C 0.59097 0.08068 0.21545
 C1295 C 0.58886 0.05845 0.21791
 C1296 C 0.60375 0.04686 0.22968
 C1297 C 0.57493 0.09310 0.20336
 C1298 C 0.56642 0.08512 0.18432
 C1299 C 0.55126 0.09683 0.17302
 C1300 C 0.54424 0.11676 0.18056
 C1301 C 0.55278 0.12473 0.19958
 C1302 C 0.56795 0.11304 0.21084
 H1303 H 0.61341 0.02532 0.26781
 H1304 H 0.63935 0.00566 0.28922
 H1305 H 0.69008 0.04212 0.26101
 H1306 H 0.66426 0.06176 0.23947
 H1307 H 0.63637 0.08795 0.24390
 H1308 H 0.61057 0.10811 0.22307
 H1309 H 0.57551 0.05005 0.21100
 H1310 H 0.60177 0.02974 0.23123
 H1311 H 0.57167 0.06991 0.17803
 H1312 H 0.54502 0.09026 0.15840
 H1313 H 0.54767 0.13999 0.20587
 H1314 H 0.57398 0.11948 0.22560
 C1315 C 0.36302 0.04986 0.74473
 C1316 C 0.35889 0.05549 0.72357
 C1317 C 0.34452 0.04373 0.71138
 C1318 C 0.33389 0.02585 0.71995
 C1319 C 0.33759 0.02075 0.74144
 C1320 C 0.35206 0.03247 0.75358
 C1321 C 0.37882 0.06205 0.75742
 C1322 C 0.37520 0.06649 0.77898
 C1323 C 0.39011 0.07797 0.79082
 C1324 C 0.40890 0.08536 0.78134
 C1325 C 0.41254 0.08091 0.75983
 C1326 C 0.39771 0.06933 0.74802
 C1327 C 0.42472 0.09765 0.79380
 C1328 C 0.43449 0.11581 0.78507
 C1329 C 0.44968 0.12719 0.79662
 C1330 C 0.45554 0.12057 0.81711
 C1331 C 0.44568 0.10245 0.82590
 C1332 C 0.43036 0.09116 0.81439
 H1333 H 0.36677 0.06905 0.71636
 H1334 H 0.34242 0.04825 0.69493
 H1335 H 0.32893 0.00801 0.74916
 H1336 H 0.35482 0.02773 0.76987
 H1337 H 0.36068 0.06139 0.78662
 H1338 H 0.38679 0.08140 0.80732
 H1339 H 0.42705 0.08610 0.75220
 H1340 H 0.40120 0.06582 0.73158
 H1341 H 0.43026 0.12132 0.76934
 H1342 H 0.45696 0.14109 0.78941
 H1343 H 0.44983 0.09694 0.84165
 H1344 H 0.42323 0.07710 0.82143
 C1345 C 0.63387 0.74274 0.04447
 C1346 C 0.62670 0.72711 0.03013
 C1347 C 0.64117 0.71519 0.01826
 C1348 C 0.66306 0.71875 0.02042
 C1349 C 0.67029 0.73408 0.03497
 C1350 C 0.65583 0.74607 0.04680
 C1351 C 0.61849 0.75549 0.05699
 C1352 C 0.62147 0.77757 0.05980
 C1353 C 0.60695 0.78958 0.07155
 C1354 C 0.58920 0.77972 0.08085
 C1355 C 0.58624 0.75763 0.07805
 C1356 C 0.60070 0.74566 0.06622
 C1357 C 0.57384 0.79239 0.09347
 C1358 C 0.56567 0.78425 0.11256
 C1359 C 0.55107 0.79606 0.12439
 C1360 C 0.54424 0.81625 0.11736
 C1361 C 0.55246 0.82443 0.09829
 C1362 C 0.56714 0.81264 0.08650
 H1363 H 0.60989 0.72431 0.02788
 H1364 H 0.63531 0.70325 0.00728
 H1365 H 0.68714 0.73692 0.03695
 H1366 H 0.66181 0.75778 0.05795
 H1367 H 0.63493 0.78561 0.05270
 H1368 H 0.60973 0.80653 0.07359
 H1369 H 0.57260 0.74964 0.08484
 H1370 H 0.59809 0.72864 0.06448
 H1371 H 0.57075 0.76882 0.11847
 H1372 H 0.54509 0.78931 0.13903
 H1373 H 0.54750 0.83991 0.09243
 H1374 H 0.57300 0.81922 0.07174
 C1375 C 0.36809 0.26021 0.04861
 C1376 C 0.36870 0.28247 0.05150
 C1377 C 0.35568 0.29583 0.03940
 C1378 C 0.34173 0.28719 0.02428
 C1379 C 0.34067 0.26488 0.02184
 C1380 C 0.35391 0.25153 0.03371
 C1381 C 0.38247 0.24616 0.06090
 C1382 C 0.39420 0.23014 0.05067
 C1383 C 0.40844 0.21744 0.06211
 C1384 C 0.41106 0.22034 0.08409
 C1385 C 0.39894 0.23614 0.09434
 C1386 C 0.38491 0.24900 0.08284
 C1387 C 0.42668 0.20728 0.09619
 C1388 C 0.43848 0.21644 0.11283
 C1389 C 0.45335 0.20433 0.12405
 C1390 C 0.45699 0.18284 0.11875
 C1391 C 0.44525 0.17363 0.10214
 C1392 C 0.43018 0.18568 0.09106
 H1393 H 0.37960 0.28955 0.06278
 H1394 H 0.35678 0.31297 0.04156
 H1395 H 0.32973 0.25782 0.01058
 H1396 H 0.35297 0.23440 0.03140
 H1397 H 0.39277 0.22781 0.03370
 H1398 H 0.41775 0.20571 0.05362
 H1399 H 0.40019 0.23854 0.11130
 H1400 H 0.37582 0.26108 0.09112
 H1401 H 0.43653 0.23311 0.11697
 H1402 H 0.46227 0.21193 0.13666
 H1403 H 0.44761 0.15706 0.09778
 H1404 H 0.42115 0.17800 0.07859
 C1405 C 0.63465 0.25585 0.95352
 C1406 C 0.62768 0.27070 0.96871
 C1407 C 0.64231 0.28278 0.98029
 C1408 C 0.66416 0.28019 0.97691
 C1409 C 0.67118 0.26550 0.96167
 C1410 C 0.65656 0.25335 0.95014
 C1411 C 0.61912 0.24318 0.94106
 C1412 C 0.62252 0.22131 0.93729
 C1413 C 0.60791 0.20943 0.92546
 C1414 C 0.58968 0.21921 0.91704
 C1415 C 0.58630 0.24108 0.92080
 C1416 C 0.60083 0.25293 0.93273
 C1417 C 0.57419 0.20668 0.90438
 C1418 C 0.56533 0.21529 0.88579
 C1419 C 0.55046 0.20367 0.87405
 C1420 C 0.54404 0.18322 0.88070
 C1421 C 0.55302 0.17454 0.89922
 C1422 C 0.56799 0.18612 0.91090
 H1423 H 0.61090 0.27284 0.97177
 H1424 H 0.63660 0.29420 0.99186
 H1425 H 0.68800 0.26338 0.95880
 H1426 H 0.66238 0.24222 0.93835
 H1427 H 0.63639 0.21335 0.94367
 H1428 H 0.61100 0.19264 0.92268
 H1429 H 0.57228 0.24899 0.91469
 H1430 H 0.59790 0.26980 0.93521
 H1431 H 0.57002 0.23098 0.88024
 H1432 H 0.54387 0.21081 0.85984
 H1433 H 0.54839 0.15884 0.90478
 H1434 H 0.57440 0.17917 0.92527
 C1435 C 0.36378 0.74359 0.95417
 C1436 C 0.37123 0.72857 0.96899
 C1437 C 0.35699 0.71656 0.98107
 C1438 C 0.33502 0.71956 0.97877
 C1439 C 0.32752 0.73429 0.96374
 C1440 C 0.34177 0.74623 0.95156
 C1441 C 0.37894 0.75648 0.94151
 C1442 C 0.37543 0.75999 0.91977
 C1443 C 0.38986 0.77195 0.90782
 C1444 C 0.40803 0.78075 0.91739
 C1445 C 0.41145 0.77735 0.93916
 C1446 C 0.39709 0.76531 0.95108
 C1447 C 0.42349 0.79324 0.90468
 C1448 C 0.43249 0.81208 0.91284
 C1449 C 0.44734 0.82363 0.90104
 C1450 C 0.45359 0.81653 0.88084
 C1451 C 0.44448 0.79776 0.87262
 C1452 C 0.42956 0.78627 0.88440
 H1453 H 0.38809 0.72593 0.97107
 H1454 H 0.36309 0.70496 0.99228
 H1455 H 0.31063 0.73679 0.96169
 H1456 H 0.33558 0.75780 0.94038
 H1457 H 0.36167 0.75323 0.91194
 H1458 H 0.38671 0.77446 0.89112
 H1459 H 0.42541 0.78376 0.94692
 H1460 H 0.40009 0.76305 0.96785
 H1461 H 0.42792 0.81797 0.92832
 H1462 H 0.45403 0.83804 0.90781
 H1463 H 0.44897 0.79185 0.85713
 H1464 H 0.42306 0.77168 0.87780
 C1465 C 0.74751 0.95388 0.36246
 C1466 C 0.73170 0.96827 0.36905
 C1467 C 0.71992 0.97978 0.35414
 C1468 C 0.72382 0.97720 0.33238
 C1469 C 0.73933 0.96260 0.32573
 C1470 C 0.75117 0.95113 0.34064
 C1471 C 0.76007 0.94173 0.37831
 C1472 C 0.78208 0.93915 0.37580
 C1473 C 0.79390 0.92773 0.39077
 C1474 C 0.78393 0.91855 0.40850
 C1475 C 0.76192 0.92115 0.41100
 C1476 C 0.75013 0.93265 0.39609
 C1477 C 0.79638 0.90625 0.42433
 C1478 C 0.78836 0.88706 0.43267
 C1479 C 0.79987 0.87558 0.44780
 C1480 C 0.81966 0.88306 0.45499
 C1481 C 0.82776 0.90219 0.44654
 C1482 C 0.81626 0.91364 0.43133
 H1483 H 0.72864 0.97084 0.38575
 H1484 H 0.70785 0.99081 0.35955
 H1485 H 0.74244 0.96031 0.30899
 H1486 H 0.76303 0.93993 0.33511
 H1487 H 0.79020 0.94615 0.36236
 H1488 H 0.81081 0.92584 0.38835
 H1489 H 0.75384 0.91445 0.42461
 H1490 H 0.73317 0.93422 0.39834
 H1491 H 0.77322 0.88082 0.42736
 H1492 H 0.79319 0.86087 0.45394
 H1493 H 0.84294 0.90839 0.45177
 H1494 H 0.82274 0.92849 0.42532
 C1495 C 0.25451 0.95354 0.63665
 C1496 C 0.25179 0.95046 0.65858
 C1497 C 0.26358 0.96244 0.67314
 C1498 C 0.27826 0.97773 0.66603
 C1499 C 0.28144 0.98036 0.64415
 C1500 C 0.26958 0.96850 0.62961
 C1501 C 0.24159 0.94134 0.62114
 C1502 C 0.23296 0.95160 0.60327
 C1503 C 0.22092 0.94015 0.58853
 C1504 C 0.21733 0.91815 0.59127
 C1505 C 0.22591 0.90789 0.60917
 C1506 C 0.23786 0.91938 0.62399
 C1507 C 0.20488 0.90594 0.57537
 C1508 C 0.21165 0.88565 0.56868
 C1509 C 0.20020 0.87436 0.55333
 C1510 C 0.18166 0.88308 0.54442
 C1511 C 0.17477 0.90329 0.55128
 C1512 C 0.18628 0.91462 0.56655
 H1513 H 0.24020 0.93913 0.66445
 H1514 H 0.26096 0.96012 0.68996
 H1515 H 0.29300 0.99177 0.63835
 H1516 H 0.27230 0.97092 0.61282
 H1517 H 0.23538 0.96856 0.60079
 H1518 H 0.21469 0.94844 0.57479
 H1519 H 0.22324 0.89099 0.61179
 H1520 H 0.24444 0.91103 0.63753
 H1521 H 0.22605 0.87866 0.57502
 H1522 H 0.20595 0.85883 0.54839
 H1523 H 0.16053 0.91044 0.54476
 H1524 H 0.18055 0.93012 0.57158
 C1525 C 0.25676 0.04245 0.36647
 C1526 C 0.24899 0.02424 0.35599
 C1527 C 0.26191 0.01262 0.34176
 C1528 C 0.28233 0.02087 0.33667
 C1529 C 0.29018 0.03876 0.34758
 C1530 C 0.27754 0.04939 0.36231
 C1531 C 0.24306 0.05466 0.38123
 C1532 C 0.24285 0.07710 0.38060
 C1533 C 0.23038 0.08873 0.39476
 C1534 C 0.21787 0.07821 0.40998
 C1535 C 0.21783 0.05572 0.41040
 C1536 C 0.23025 0.04407 0.39613
 C1537 C 0.20526 0.09072 0.42554
 C1538 C 0.18487 0.08401 0.43168
 C1539 C 0.17313 0.09586 0.44637
 C1540 C 0.18152 0.11471 0.45518
 C1541 C 0.20188 0.12141 0.44901
 C1542 C 0.21362 0.10954 0.43442
 H1543 H 0.23268 0.01925 0.35822
 H1544 H 0.30617 0.04447 0.34487
 H1545 H 0.28403 0.06313 0.37051
 H1546 H 0.25224 0.08568 0.36900
 H1547 H 0.23042 0.10601 0.39369
 H1548 H 0.20857 0.04714 0.42209
 H1549 H 0.23024 0.02678 0.39707
 H1550 H 0.17787 0.06973 0.42494
 H1551 H 0.15747 0.09030 0.45077
 H1552 H 0.20887 0.13577 0.45561
 H1553 H 0.22942 0.11496 0.43033
 C1554 C 0.74002 0.04668 0.63266
 C1555 C 0.74254 0.04931 0.65467
 C1556 C 0.73020 0.03747 0.66886
 C1557 C 0.71532 0.02263 0.66129
 C1558 C 0.71265 0.02008 0.63933
 C1559 C 0.72491 0.03197 0.62515
 C1560 C 0.75304 0.05927 0.61757
 C1561 C 0.74375 0.06829 0.59938
 C1562 C 0.75599 0.08007 0.58509
 C1563 C 0.77782 0.08302 0.58863
 C1564 C 0.78713 0.07399 0.60681
 C1565 C 0.77485 0.06230 0.62117
 C1566 C 0.79081 0.09538 0.57332
 C1567 C 0.81101 0.08811 0.56724
 C1568 C 0.82301 0.09952 0.55243
 C1569 C 0.81512 0.11850 0.54346
 C1570 C 0.79501 0.12589 0.54973
 C1571 C 0.78298 0.11443 0.56446
 H1572 H 0.75387 0.06073 0.66090
 H1573 H 0.73240 0.03970 0.68575
 H1574 H 0.70108 0.00886 0.63319
 H1575 H 0.72275 0.02947 0.60829
 H1576 H 0.72694 0.06639 0.59630
 H1577 H 0.74842 0.08665 0.57111
 H1578 H 0.80388 0.07616 0.61003
 H1579 H 0.78247 0.05538 0.63496
 H1580 H 0.81735 0.07337 0.57364
 H1581 H 0.83843 0.09340 0.54792
 H1582 H 0.78848 0.14047 0.54316
 H1583 H 0.76759 0.12056 0.56905
 C1584 C 0.95184 0.63460 0.25815
 C1585 C 0.96698 0.62731 0.27288
 C1586 C 0.97889 0.64185 0.28478
 C1587 C 0.97593 0.66392 0.28211
 C1588 C 0.96055 0.67124 0.26774
 C1589 C 0.94869 0.65672 0.25577
 C1590 C 0.93941 0.61921 0.24527
 C1591 C 0.93594 0.62293 0.22356
 C1592 C 0.92426 0.60841 0.21140
 C1593 C 0.91569 0.58992 0.22073
 C1594 C 0.91914 0.58622 0.24245
 C1595 C 0.93092 0.60067 0.25458
 C1596 C 0.90324 0.57452 0.20786
 C1597 C 0.88450 0.56549 0.21595
 C1598 C 0.87290 0.55076 0.20397
 C1599 C 0.87983 0.54467 0.18367
 C1600 C 0.89851 0.55380 0.17553
 C1601 C 0.91006 0.56862 0.18748
 H1602 H 0.96984 0.61037 0.27494
 H1603 H 0.99056 0.63592 0.29596
 H1604 H 0.95796 0.68822 0.26558
 H1605 H 0.93692 0.66277 0.24477
 H1606 H 0.94246 0.63698 0.21593
 H1607 H 0.92171 0.61176 0.19474
 H1608 H 0.91291 0.57200 0.25001
 H1609 H 0.93320 0.59748 0.27131
 H1610 H 0.87873 0.56994 0.23150
 H1611 H 0.85857 0.54404 0.21070
 H1612 H 0.90429 0.54942 0.15997
 H1613 H 0.92455 0.57517 0.18093
 C1614 C 0.95657 0.36656 0.74204
 C1615 C 0.95280 0.34444 0.74323
 C1616 C 0.96422 0.33026 0.73051
 C1617 C 0.97968 0.33791 0.71643
 C1618 C 0.98339 0.35999 0.71508
 C1619 C 0.97202 0.37418 0.72785
 C1620 C 0.94421 0.38163 0.75535
 C1621 C 0.95418 0.39915 0.76513
 C1622 C 0.94246 0.41343 0.77750
 C1623 C 0.92051 0.41054 0.78028
 C1624 C 0.91058 0.39297 0.77056
 C1625 C 0.92229 0.37867 0.75825
 C1626 C 0.90796 0.42595 0.79303
 C1627 C 0.88787 0.43270 0.78603
 C1628 C 0.87614 0.44743 0.79783
 C1629 C 0.88422 0.45572 0.81692
 C1630 C 0.90426 0.44885 0.82401
 C1631 C 0.91601 0.43415 0.81217
 H1632 H 0.94117 0.33807 0.75417
 H1633 H 0.96115 0.31327 0.73177
 H1634 H 0.99501 0.36623 0.70405
 H1635 H 0.97504 0.39116 0.72634
 H1636 H 0.97108 0.40173 0.76335
 H1637 H 0.95052 0.42693 0.78462
 H1638 H 0.89373 0.39020 0.77259
 H1639 H 0.91413 0.36544 0.75075
 H1640 H 0.88136 0.42688 0.77122
 H1641 H 0.86079 0.45244 0.79189
 H1642 H 0.91092 0.45490 0.83867
 H1643 H 0.93134 0.42904 0.81809
 C1644 C 0.04837 0.63661 0.74351
 C1645 C 0.05095 0.65878 0.74612
 C1646 C 0.03892 0.67313 0.73408
 C1647 C 0.02406 0.66557 0.71928
 C1648 C 0.02186 0.64345 0.71625
 C1649 C 0.03378 0.62910 0.72835
 C1650 C 0.06077 0.62133 0.75659
 C1651 C 0.05100 0.60307 0.76516
 C1652 C 0.06268 0.58855 0.77731
 C1653 C 0.08442 0.59191 0.78107
 C1654 C 0.09416 0.61023 0.77259
 C1655 C 0.08245 0.62481 0.76053
 C1656 C 0.09694 0.57617 0.79349
 C1657 C 0.11730 0.57007 0.78676
 C1658 C 0.12890 0.55484 0.79810
 C1659 C 0.12043 0.54541 0.81649
 C1660 C 0.10015 0.55169 0.82336
 C1661 C 0.08851 0.56686 0.81195
 H1662 H 0.06196 0.66502 0.75778
 H1663 H 0.04090 0.69015 0.73660
 H1664 H 0.01077 0.63730 0.70461
 H1665 H 0.03174 0.61212 0.72572
 H1666 H 0.03426 0.60009 0.76259
 H1667 H 0.05478 0.57448 0.78347
 H1668 H 0.11084 0.61334 0.77539
 H1669 H 0.09044 0.63866 0.75400
 H1670 H 0.12410 0.57677 0.77247
 H1671 H 0.14446 0.55035 0.79237
 H1672 H 0.09319 0.54476 0.83747
 H1673 H 0.07296 0.57143 0.81764
 C1674 C 0.04565 0.35956 0.25060
 C1675 C 0.02926 0.34698 0.24204
 C1676 C 0.01777 0.33302 0.25500
 C1677 C 0.02219 0.33171 0.27682
 C1678 C 0.03873 0.34410 0.28529
 C1679 C 0.05037 0.35785 0.27231
 C1680 C 0.05762 0.37474 0.23712
 C1681 C 0.07979 0.37621 0.23885
 C1682 C 0.09103 0.39130 0.22702
 C1683 C 0.08034 0.40542 0.21332
 C1684 C 0.05817 0.40364 0.21129
 C1685 C 0.04694 0.38840 0.22301
 C1686 C 0.09225 0.42229 0.20170
 C1687 C 0.08662 0.42805 0.18087
 C1688 C 0.09780 0.44407 0.17014
 C1689 C 0.11491 0.45458 0.17996
 C1690 C 0.12053 0.44880 0.20076
 C1691 C 0.10929 0.43293 0.21152
 H1692 H 0.02547 0.34784 0.22531
 H1693 H 0.00533 0.32333 0.24805
 H1694 H 0.04236 0.34345 0.30208
 H1695 H 0.06277 0.36753 0.27936
 H1696 H 0.08844 0.36564 0.24937
 H1697 H 0.10813 0.39189 0.22861
 H1698 H 0.04940 0.41444 0.20110
 H1699 H 0.02982 0.38774 0.22156
 H1700 H 0.07375 0.42000 0.17275
 H1701 H 0.09315 0.44810 0.15409
 H1702 H 0.13353 0.45670 0.20884
 H1703 H 0.11378 0.42922 0.22768
   
