data_POSCAR
  _audit_creation_date              2014-09-24
  _audit_creation_method            'ToBaCCo'
  _symmetry_space_group_name_H-M    'P1'
  _symmetry_Int_Tables_number       1
  _symmetry_cell_setting            triclinic
  loop_
  _symmetry_equiv_pos_as_xyz
 x,y,z
_cell_length_a 63.1919
_cell_length_b 63.1849
_cell_length_c 63.2750
_cell_angle_alpha 90.022700
_cell_angle_beta 89.982400
_cell_angle_gamma 90.037200
loop_
  _atom_site_label
  _atom_site_type_symbol
  _atom_site_fract_x
  _atom_site_fract_y
  _atom_site_fract_z
C1 C 0.19144 0.21141 0.22182
 C2 C 0.19478 0.22506 0.20471
 C3 C 0.21189 0.22170 0.19102
 C4 C 0.22565 0.20467 0.19446
 C5 C 0.22231 0.19101 0.21157
 C6 C 0.20520 0.19438 0.22525
 H7 H 0.18413 0.23825 0.20205
 H8 H 0.23889 0.20207 0.18387
 H9 H 0.20262 0.18380 0.23850
 C10 C 0.69127 0.71221 0.72222
 C11 C 0.70499 0.69513 0.72554
 C12 C 0.72206 0.69178 0.71181
 C13 C 0.72540 0.70551 0.69476
 C14 C 0.71169 0.72259 0.69143
 C15 C 0.69462 0.72595 0.70517
 H16 H 0.70240 0.68450 0.73875
 H17 H 0.73862 0.70291 0.68412
 H18 H 0.68400 0.73917 0.70259
 C19 C 0.30801 0.78835 0.72252
 C20 C 0.29428 0.80543 0.72586
 C21 C 0.27720 0.80877 0.71214
 C22 C 0.27388 0.79501 0.69507
 C23 C 0.28761 0.77793 0.69175
 C24 C 0.30467 0.77461 0.70547
 H25 H 0.29692 0.81605 0.73909
 H26 H 0.26067 0.79754 0.68441
 H27 H 0.31531 0.76139 0.70289
 C28 C 0.80894 0.28787 0.22241
 C29 C 0.79518 0.30493 0.22580
 C30 C 0.77811 0.30829 0.21209
 C31 C 0.77479 0.29461 0.19499
 C32 C 0.78852 0.27755 0.19159
 C33 C 0.80560 0.27418 0.20529
 H34 H 0.79772 0.31557 0.23903
 H35 H 0.76157 0.29722 0.18438
 H36 H 0.81621 0.26095 0.20261
 C37 C 0.80895 0.71199 0.27813
 C38 C 0.79523 0.69489 0.27480
 C39 C 0.77816 0.69152 0.28852
 C40 C 0.77481 0.70526 0.30557
 C41 C 0.78852 0.72236 0.30891
 C42 C 0.80560 0.72572 0.29519
 H43 H 0.79783 0.68425 0.26159
 H44 H 0.76158 0.70266 0.31620
 H45 H 0.81622 0.73897 0.29777
 C46 C 0.30937 0.21144 -0.22247
 C47 C 0.30598 0.22516 -0.20539
 C48 C 0.28887 0.22179 -0.19171
 C49 C 0.27515 0.20470 -0.19510
 C50 C 0.27852 0.19098 -0.21216
 C51 C 0.29563 0.19434 -0.22584
 H52 H 0.31658 0.23841 -0.20272
 H53 H 0.26190 0.20210 -0.18450
 H54 H 0.29819 0.18368 -0.23905
 C55 C 0.69107 0.28768 -0.22249
 C56 C 0.69448 0.27396 -0.20542
 C57 C 0.71158 0.27736 -0.19174
 C58 C 0.72527 0.29447 -0.19512
 C59 C 0.72188 0.30819 -0.21217
 C60 C 0.70478 0.30480 -0.22585
 H61 H 0.68390 0.26068 -0.20275
 H62 H 0.73851 0.29711 -0.18452
 H63 H 0.70220 0.31546 -0.23904
 C64 C 0.19180 0.78840 0.27790
 C65 C 0.20560 0.80543 0.27455
 C66 C 0.22268 0.80878 0.28829
 C67 C 0.22593 0.79505 0.30539
 C68 C 0.21212 0.77802 0.30873
 C69 C 0.19506 0.77470 0.29499
 H70 H 0.20302 0.81602 0.26129
 H71 H 0.23913 0.79758 0.31606
 H72 H 0.18437 0.76151 0.29759
 C73 C 0.46174 0.44135 0.47273
 C74 C 0.44464 0.45505 0.47606
 C75 C 0.44124 0.47207 0.46230
 C76 C 0.45494 0.47540 0.44522
 C77 C 0.47204 0.46170 0.44188
 C78 C 0.47544 0.44467 0.45565
 H79 H 0.43402 0.45247 0.48929
 H80 H 0.45231 0.48858 0.43456
 H81 H 0.48868 0.43407 0.45307
 C82 C -0.03830 -0.05799 0.97197
 C83 C -0.02465 -0.05472 0.95484
 C84 C -0.02804 -0.03771 0.94106
 C85 C -0.04510 -0.02396 0.94441
 C86 C -0.05878 -0.02722 0.96155
 C87 C -0.05536 -0.04425 0.97533
 H88 H -0.01143 -0.06536 0.95224
 H89 H -0.04768 -0.01080 0.93370
 H90 H -0.06592 -0.04683 0.98862
 C91 C 1.03812 0.55875 0.97204
 C92 C 1.02435 0.55534 0.95502
 C93 C 1.02765 0.53820 0.94137
 C94 C 1.04472 0.52447 0.94474
 C95 C 1.05849 0.52788 0.96175
 C96 C 1.05518 0.54502 0.97540
 H97 H 1.01114 0.56597 0.95242
 H98 H 1.04728 0.51119 0.93416
 H99 H 1.06585 0.54767 0.98857
 C100 C 0.53856 0.05832 0.47250
 C101 C 0.55568 0.04465 0.47583
 C102 C 0.55909 0.02757 0.46211
 C103 C 0.54534 0.02418 0.44505
 C104 C 0.52823 0.03786 0.44172
 C105 C 0.52484 0.05492 0.45545
 H106 H 0.56628 0.04733 0.48906
 H107 H 0.54792 0.01097 0.43438
 H108 H 0.51158 0.06551 0.45287
 C109 C -0.03865 0.05875 0.52764
 C110 C -0.05579 0.04507 0.52433
 C111 C -0.05916 0.02796 0.53803
 C112 C -0.04536 0.02456 0.55504
 C113 C -0.02822 0.03824 0.55833
 C114 C -0.02487 0.05533 0.54463
 H115 H -0.06643 0.04776 0.51115
 H116 H -0.04791 0.01133 0.56568
 H117 H -0.01159 0.06592 0.54718
 C118 C 0.46201 0.55883 0.02805
 C119 C 0.47572 0.55546 0.04512
 C120 C 0.47234 0.53836 0.05880
 C121 C 0.45525 0.52464 0.05542
 C122 C 0.44154 0.52800 0.03836
 C123 C 0.44492 0.54510 0.02468
 H124 H 0.48895 0.56609 0.04773
 H125 H 0.45264 0.51140 0.06602
 H126 H 0.43431 0.54771 0.01147
 C127 C 0.53802 -0.05886 0.02763
 C128 C 0.55513 -0.04513 0.02430
 C129 C 0.55857 -0.02813 0.03809
 C130 C 0.54492 -0.02484 0.05522
 C131 C 0.52781 -0.03855 0.05856
 C132 C 0.52436 -0.05556 0.04478
 H133 H 0.56575 -0.04764 0.01105
 H134 H 0.54758 -0.01167 0.06589
 H135 H 0.51109 -0.06615 0.04742
 C136 C 1.03803 0.44186 0.52723
 C137 C 1.02434 0.44517 0.54433
 C138 C 1.02772 0.46221 0.55808
 C139 C 1.04480 0.47596 0.55475
 C140 C 1.05851 0.47267 0.53764
 C141 C 1.05511 0.45560 0.52388
 H142 H 1.01111 0.43453 0.54692
 H143 H 1.04737 0.48915 0.56544
 H144 H 1.06569 0.45299 0.51062
 C145 C 0.40761 0.00930 0.22194
 H146 H 0.40850 0.02364 0.23124
 C147 C 0.42142 0.00629 0.20497
 H148 H 0.43297 0.01836 0.20110
 C149 C 0.39170 -0.02416 0.21577
 H150 H 0.38034 -0.03613 0.22020
 C151 C 0.40522 -0.02780 0.19868
 H152 H 0.40409 -0.04247 0.18988
 N153 N 0.39297 -0.00572 0.22685
 C154 C 0.34282 0.02799 0.26021
 H155 H 0.34192 0.01871 0.27455
 C156 C 0.32903 0.04498 0.25718
 H157 H 0.31749 0.04889 0.26923
 C158 C 0.35871 0.03409 0.22679
 H159 H 0.37005 0.02961 0.21483
 C160 C 0.34522 0.05120 0.22313
 H161 H 0.34635 0.05997 0.20846
 Zn162 Zn 0.37518 -0.00055 0.25038
 N163 N 0.35744 0.02303 0.24521
 C164 C 0.39172 0.02305 0.28499
 N165 N 0.39295 0.00461 0.27391
 C166 C 0.40755 -0.01042 0.27883
 C167 C 0.42137 -0.00741 0.29579
 C168 C 0.40525 0.02669 0.30207
 C169 C 0.34275 -0.02902 0.24050
 C170 C 0.32893 -0.04601 0.24348
 C171 C 0.34507 -0.05232 0.27753
 C172 C 0.35861 -0.03521 0.27391
 N173 N 0.35737 -0.02411 0.25551
 H174 H 0.38040 0.03503 0.28054
 H175 H 0.40841 -0.02478 0.26954
 H176 H 0.43289 -0.01950 0.29966
 H177 H 0.40416 0.04137 0.31085
 H178 H 0.34189 -0.01971 0.22618
 H179 H 0.31740 -0.04989 0.23141
 H180 H 0.34618 -0.06113 0.29217
 H181 H 0.36995 -0.03076 0.28588
 C182 C 0.33029 0.05671 0.23849
 C183 C 0.42016 -0.01241 0.19322
 C184 C 0.33015 -0.05778 0.26214
 C185 C 0.42016 0.01130 0.30753
 C186 C 0.09262 -0.01023 0.72095
 H187 H 0.09170 -0.02456 0.73025
 C188 C 0.07882 -0.00721 0.70399
 H189 H 0.06725 -0.01928 0.70012
 C190 C 0.10857 0.02320 0.71477
 H191 H 0.11994 0.03516 0.71921
 C192 C 0.09507 0.02684 0.69768
 H193 H 0.09621 0.04151 0.68889
 N194 N 0.10728 0.00478 0.72586
 C195 C 0.15731 -0.02886 0.75939
 H196 H 0.15818 -0.01952 0.77370
 C197 C 0.17111 -0.04587 0.75645
 H198 H 0.18261 -0.04973 0.76854
 C199 C 0.14149 -0.03512 0.72597
 H200 H 0.13017 -0.03069 0.71399
 C201 C 0.15499 -0.05225 0.72240
 H202 H 0.15388 -0.06110 0.70777
 Zn203 Zn 0.12500 -0.00036 0.74943
 N204 N 0.14272 -0.02397 0.74435
 C205 C 0.10834 -0.02386 0.78405
 N206 N 0.10716 -0.00544 0.77294
 C207 C 0.09257 0.00963 0.77781
 C208 C 0.07872 0.00668 0.79476
 C209 C 0.09478 -0.02743 0.80112
 C210 C 0.15749 0.02805 0.73958
 C211 C 0.17135 0.04500 0.74260
 C212 C 0.15516 0.05137 0.77662
 C213 C 0.14158 0.03429 0.77297
 N214 N 0.14282 0.02318 0.75457
 H215 H 0.11966 -0.03586 0.77964
 H216 H 0.09175 0.02396 0.76849
 H217 H 0.06721 0.01879 0.79860
 H218 H 0.09585 -0.04209 0.80994
 H219 H 0.15836 0.01873 0.72526
 H220 H 0.18292 0.04884 0.73055
 H221 H 0.15405 0.06018 0.79126
 H222 H 0.13021 0.02988 0.78492
 C223 C 0.16988 -0.05769 0.73781
 C224 C 0.08010 0.01148 0.69224
 C225 C 0.17013 0.05678 0.76126
 C226 C 0.07989 -0.01200 0.80654
 C227 C 0.59263 0.48997 0.22187
 H228 H 0.59173 0.47562 0.23115
 C229 C 0.57884 0.49299 0.20490
 H230 H 0.56730 0.48091 0.20100
 C231 C 0.60855 0.52343 0.21575
 H232 H 0.61989 0.53540 0.22022
 C233 C 0.59505 0.52708 0.19866
 H234 H 0.59618 0.54176 0.18989
 N235 N 0.60727 0.50499 0.22681
 C236 C 0.65738 0.47134 0.26024
 H237 H 0.65825 0.48066 0.27456
 C238 C 0.67119 0.45435 0.25724
 H239 H 0.68271 0.45049 0.26931
 C240 C 0.64153 0.46514 0.22682
 H241 H 0.63019 0.46958 0.21485
 C242 C 0.65504 0.44803 0.22319
 H243 H 0.65394 0.43922 0.20854
 Zn244 Zn 0.62501 0.49983 0.25036
 N245 N 0.64277 0.47625 0.24522
 C246 C 0.60843 0.47626 0.28495
 N247 N 0.60721 0.49469 0.27388
 C248 C 0.59260 0.50973 0.27879
 C249 C 0.57877 0.50673 0.29575
 C250 C 0.59489 0.47263 0.30203
 C251 C 0.65746 0.52827 0.24051
 C252 C 0.67131 0.54524 0.24350
 C253 C 0.65512 0.55160 0.27753
 C254 C 0.64157 0.53450 0.27390
 N255 N 0.64282 0.52338 0.25551
 H256 H 0.61976 0.46428 0.28051
 H257 H 0.59175 0.52408 0.26950
 H258 H 0.56725 0.51882 0.29962
 H259 H 0.59598 0.45796 0.31082
 H260 H 0.65834 0.51894 0.22619
 H261 H 0.68285 0.54910 0.23144
 H262 H 0.65401 0.56042 0.29217
 H263 H 0.63021 0.53008 0.28586
 C264 C 0.66996 0.44258 0.23857
 C265 C 0.58011 0.51170 0.19317
 C266 C 0.67007 0.55703 0.26216
 C267 C 0.57998 0.48803 0.30749
 C268 C 0.90731 0.50992 0.72137
 H269 H 0.90819 0.52425 0.73069
 C270 C 0.92113 0.50695 0.70440
 H271 H 0.93267 0.51903 0.70055
 C272 C 0.89142 0.47647 0.71512
 H273 H 0.88006 0.46449 0.71954
 C274 C 0.90494 0.47287 0.69803
 H275 H 0.90382 0.45821 0.68921
 N276 N 0.89267 0.49489 0.72624
 C277 C 0.84248 0.52848 0.75966
 H278 H 0.84158 0.51915 0.77396
 C279 C 0.82868 0.54547 0.75667
 H280 H 0.81713 0.54933 0.76873
 C281 C 0.85840 0.53470 0.72627
 H282 H 0.86975 0.53027 0.71431
 C283 C 0.84489 0.55181 0.72265
 H284 H 0.84602 0.56064 0.70802
 Zn285 Zn 0.87487 0.50001 0.74977
 N286 N 0.85712 0.52358 0.74465
 C287 C 0.89137 0.52355 0.78444
 N288 N 0.89262 0.50513 0.77333
 C289 C 0.90723 0.49009 0.77824
 C290 C 0.92101 0.49307 0.79523
 C291 C 0.90486 0.52715 0.80156
 C292 C 0.84247 0.47153 0.73985
 C293 C 0.82863 0.45454 0.74282
 C294 C 0.84475 0.44823 0.77688
 C295 C 0.85829 0.46534 0.77327
 N296 N 0.85708 0.47644 0.75487
 H297 H 0.88005 0.53553 0.78001
 H298 H 0.90811 0.47576 0.76892
 H299 H 0.93252 0.48098 0.79910
 H300 H 0.90374 0.54181 0.81038
 H301 H 0.84161 0.48084 0.72553
 H302 H 0.81711 0.45066 0.73074
 H303 H 0.84584 0.43942 0.79152
 H304 H 0.86962 0.46978 0.78525
 C305 C 0.82994 0.55726 0.73802
 C306 C 0.91988 0.48827 0.69261
 C307 C 0.82984 0.44277 0.76149
 C308 C 0.91976 0.51175 0.80701
 C309 C 0.22151 0.40712 0.00959
 H310 H 0.23080 0.40797 0.02392
 C311 C 0.20453 0.42093 0.00661
 H312 H 0.20064 0.43243 0.01870
 C313 C 0.21538 0.39132 -0.02388
 H314 H 0.21985 0.38001 -0.03586
 C315 C 0.19828 0.40484 -0.02748
 H316 H 0.18949 0.40375 -0.04215
 N317 N 0.22646 0.39253 -0.00546
 C318 C 0.25992 0.34236 0.02806
 H319 H 0.27429 0.34155 0.01880
 C320 C 0.25690 0.32850 0.04499
 H321 H 0.26901 0.31701 0.04886
 C322 C 0.22640 0.35811 0.03418
 H323 H 0.21440 0.36943 0.02974
 C324 C 0.22275 0.34454 0.05122
 H325 H 0.20805 0.34559 0.05998
 Zn326 Zn 0.25003 0.37478 -0.00034
 N327 N 0.24486 0.35695 0.02315
 C328 C 0.28463 0.39135 0.02330
 N329 N 0.27357 0.39259 0.00488
 C330 C 0.27850 0.40724 -0.01011
 C331 C 0.29546 0.42109 -0.00706
 C332 C 0.30171 0.40491 0.02697
 C333 C 0.24022 0.34242 -0.02887
 C334 C 0.24328 0.32861 -0.04583
 C335 C 0.27738 0.34482 -0.05202
 C336 C 0.27370 0.35833 -0.03494
 N337 N 0.25524 0.35706 -0.02390
 H338 H 0.28017 0.37999 0.03524
 H339 H 0.26922 0.40812 -0.02444
 H340 H 0.29934 0.43264 -0.01911
 H341 H 0.31049 0.40380 0.04164
 H342 H 0.22586 0.34152 -0.01960
 H343 H 0.23122 0.31707 -0.04974
 H344 H 0.29208 0.34595 -0.06077
 H345 H 0.28566 0.36968 -0.03045
 C346 C 0.23817 0.32966 0.05669
 C347 C 0.19279 0.41973 -0.01208
 C348 C 0.26201 0.32987 -0.05753
 C349 C 0.30719 0.41986 0.01163
 C350 C 0.72197 0.09234 -0.00995
 H351 H 0.73126 0.09146 -0.02429
 C352 C 0.70499 0.07850 -0.00693
 H353 H 0.70110 0.06696 -0.01899
 C354 C 0.71581 0.10823 0.02346
 H355 H 0.72025 0.11959 0.03541
 C356 C 0.69871 0.09469 0.02711
 H357 H 0.68991 0.09581 0.04177
 N358 N 0.72688 0.10698 0.00504
 C359 C 0.76019 0.15721 -0.02864
 H360 H 0.77455 0.15813 -0.01937
 C361 C 0.75714 0.17099 -0.04561
 H362 H 0.76919 0.18255 -0.04953
 C363 C 0.72675 0.14125 -0.03473
 H364 H 0.71480 0.12988 -0.03025
 C365 C 0.72307 0.15473 -0.05182
 H366 H 0.70838 0.15357 -0.06059
 Zn367 Zn 0.75042 0.12480 -0.00015
 N368 N 0.74520 0.14255 -0.02368
 C369 C 0.78505 0.10833 -0.02378
 N370 N 0.77400 0.10707 -0.00535
 C371 C 0.77897 0.09247 0.00965
 C372 C 0.79597 0.07868 0.00661
 C373 C 0.80217 0.09484 -0.02745
 C374 C 0.74055 0.15720 0.02831
 C375 C 0.74356 0.17102 0.04528
 C376 C 0.77767 0.15492 0.05150
 C377 C 0.77404 0.14139 0.03442
 N378 N 0.75559 0.14261 0.02337
 H379 H 0.78056 0.11965 -0.03573
 H380 H 0.76970 0.09158 0.02400
 H381 H 0.79990 0.06717 0.01867
 H382 H 0.81094 0.09596 -0.04212
 H383 H 0.72619 0.15805 0.01904
 H384 H 0.73146 0.18253 0.04918
 H385 H 0.79235 0.15383 0.06028
 H386 H 0.78602 0.13007 0.02995
 C387 C 0.73842 0.16969 -0.05733
 C388 C 0.69323 0.07975 0.01175
 C389 C 0.76227 0.16982 0.05700
 C390 C 0.80769 0.07994 -0.01209
 C391 C 0.22096 0.59258 0.49022
 H392 H 0.23030 0.59173 0.47591
 C393 C 0.20395 0.57876 0.49315
 H394 H 0.20009 0.56726 0.48105
 C395 C 0.21473 0.60839 0.52366
 H396 H 0.21917 0.61970 0.53566
 C397 C 0.19760 0.59486 0.52722
 H398 H 0.18877 0.59595 0.54186
 N399 N 0.22586 0.60717 0.50527
 C400 C 0.25944 0.65737 0.47182
 H401 H 0.27378 0.65822 0.48113
 C402 C 0.25650 0.67120 0.45487
 H403 H 0.26861 0.68272 0.45102
 C404 C 0.22596 0.64155 0.46559
 H405 H 0.21395 0.63023 0.47000
 C406 C 0.22238 0.65510 0.44852
 H407 H 0.20772 0.65402 0.43970
 Zn408 Zn 0.24946 0.62495 0.50020
 N409 N 0.24438 0.64276 0.47669
 C410 C 0.28414 0.60843 0.47668
 N411 N 0.27302 0.60717 0.49507
 C412 C 0.27791 0.59254 0.51007
 C413 C 0.29489 0.57872 0.50708
 C414 C 0.30125 0.59491 0.47306
 C415 C 0.23955 0.65731 0.52870
 C416 C 0.24254 0.67111 0.54568
 C417 C 0.27662 0.65496 0.55197
 C418 C 0.27300 0.64145 0.53487
 N419 N 0.25458 0.64269 0.52378
 H420 H 0.27972 0.61977 0.46472
 H421 H 0.26858 0.59165 0.52438
 H422 H 0.29874 0.56719 0.51914
 H423 H 0.31007 0.59603 0.45842
 H424 H 0.22522 0.65819 0.51940
 H425 H 0.23046 0.68264 0.54956
 H426 H 0.29128 0.65384 0.56077
 H427 H 0.28498 0.63011 0.53042
 C428 C 0.23782 0.67000 0.44309
 C429 C 0.19215 0.57997 0.51180
 C430 C 0.26123 0.66987 0.55744
 C431 C 0.30668 0.57997 0.48842
 C432 C 0.72149 0.90804 0.50992
 H433 H 0.73077 0.90894 0.52426
 C434 C 0.70450 0.92184 0.50690
 H435 H 0.70059 0.93337 0.51896
 C436 C 0.71537 0.89214 0.47651
 H437 H 0.71984 0.88079 0.46455
 C438 C 0.69825 0.90564 0.47285
 H439 H 0.68947 0.90450 0.45819
 N440 N 0.72643 0.89341 0.49492
 C441 C 0.75986 0.84331 0.52858
 H442 H 0.77422 0.84244 0.51930
 C443 C 0.75684 0.82949 0.54554
 H444 H 0.76892 0.81798 0.54943
 C445 C 0.72638 0.85914 0.53469
 H446 H 0.71440 0.87046 0.53023
 C447 C 0.72272 0.84561 0.55177
 H448 H 0.70803 0.84671 0.56054
 Zn449 Zn 0.75000 0.87567 0.50010
 N450 N 0.74483 0.85791 0.52364
 C451 C 0.78462 0.89227 0.52368
 N452 N 0.77355 0.89348 0.50526
 C453 C 0.77848 0.90810 0.49025
 C454 C 0.79545 0.92194 0.49326
 C455 C 0.80171 0.90582 0.52732
 C456 C 0.74018 0.84323 0.47167
 C457 C 0.74321 0.82939 0.45473
 C458 C 0.77731 0.84558 0.44846
 C459 C 0.77364 0.85912 0.46553
 N460 N 0.75520 0.85788 0.47659
 H461 H 0.78016 0.88094 0.53565
 H462 H 0.76919 0.90894 0.47591
 H463 H 0.79934 0.93346 0.48119
 H464 H 0.81049 0.90474 0.54198
 H465 H 0.72582 0.84235 0.48095
 H466 H 0.73114 0.81784 0.45085
 H467 H 0.79199 0.84669 0.43968
 H468 H 0.78561 0.87048 0.46997
 C469 C 0.73812 0.83071 0.55725
 C470 C 0.69276 0.92057 0.48822
 C471 C 0.76193 0.83063 0.44300
 C472 C 0.80719 0.92074 0.51194
 C473 C 0.00951 0.22170 0.40688
 H474 H 0.02386 0.23101 0.40774
 C475 C 0.00648 0.20476 0.42073
 H476 H 0.01855 0.20091 0.43226
 C477 C -0.02395 0.21549 0.39104
 H478 H -0.03591 0.21990 0.37970
 C479 C -0.02760 0.19842 0.40459
 H480 H -0.04228 0.18962 0.40350
 N481 N -0.00550 0.22658 0.39226
 C482 C 0.02819 0.25987 0.34207
 H483 H 0.01890 0.27421 0.34116
 C484 C 0.04518 0.25681 0.32828
 H485 H 0.04907 0.26885 0.31673
 C486 C 0.03432 0.22645 0.35801
 H487 H 0.02985 0.21450 0.36936
 C488 C 0.05142 0.22276 0.34451
 H489 H 0.06021 0.20808 0.34566
 Zn490 Zn -0.00032 0.25009 0.37445
 N491 N 0.02325 0.24488 0.35672
 C492 C 0.02328 0.28480 0.39088
 N493 N 0.00484 0.27371 0.39215
 C494 C -0.01019 0.27866 0.40674
 C495 C -0.00718 0.29567 0.42051
 C496 C 0.02692 0.30194 0.40436
 C497 C -0.02880 0.24013 0.34212
 C498 C -0.04579 0.24309 0.32832
 C499 C -0.05207 0.27723 0.34438
 C500 C -0.03496 0.27364 0.35789
 N501 N -0.02388 0.25520 0.35668
 H502 H 0.03526 0.28033 0.37956
 H503 H -0.02454 0.26935 0.40764
 H504 H -0.01926 0.29957 0.43203
 H505 H 0.04160 0.31074 0.40324
 H506 H -0.01951 0.22578 0.34127
 H507 H -0.04968 0.23098 0.31683
 H508 H -0.06086 0.29191 0.34546
 H509 H -0.03051 0.28565 0.36918
 C510 C 0.05691 0.23810 0.32957
 C511 C -0.01223 0.19300 0.41952
 C512 C -0.05754 0.26179 0.32951
 C513 C 0.01153 0.30743 0.41926
 C514 C -0.00967 0.72210 0.09247
 H515 H -0.02404 0.73138 0.09166
 C516 C -0.00668 0.70514 0.07863
 H517 H -0.01879 0.70125 0.06715
 C518 C 0.02384 0.71598 0.10820
 H519 H 0.03584 0.72044 0.11950
 C520 C 0.02747 0.69890 0.09465
 H521 H 0.04216 0.69013 0.09569
 N522 N 0.00539 0.72703 0.10704
 C523 C -0.02820 0.76035 0.15728
 H524 H -0.01891 0.77471 0.15815
 C525 C -0.04515 0.75729 0.17111
 H526 H -0.04902 0.76935 0.18266
 C527 C -0.03436 0.72689 0.14139
 H528 H -0.02992 0.71493 0.13004
 C529 C -0.05143 0.72320 0.15494
 H530 H -0.06021 0.70851 0.15383
 Zn531 Zn 0.00025 0.75055 0.12486
 N532 N -0.02329 0.74534 0.14264
 C533 C -0.02335 0.78523 0.10846
 N534 N -0.00492 0.77415 0.10718
 C535 C 0.01011 0.77911 0.09257
 C536 C 0.00708 0.79610 0.07880
 C537 C -0.02700 0.80234 0.09498
 C538 C 0.02875 0.74061 0.15715
 C539 C 0.04574 0.74358 0.17096
 C540 C 0.05204 0.77772 0.15492
 C541 C 0.03493 0.77412 0.14141
 N542 N 0.02383 0.75567 0.14260
 H543 H -0.03532 0.78075 0.11978
 H544 H 0.02445 0.76982 0.09167
 H545 H 0.01915 0.80001 0.06728
 H546 H -0.04168 0.81113 0.09611
 H547 H 0.01944 0.72625 0.15799
 H548 H 0.04961 0.73147 0.18243
 H549 H 0.06084 0.79240 0.15385
 H550 H 0.03048 0.78612 0.13012
 C551 C -0.05689 0.73857 0.16988
 C552 C 0.01204 0.69342 0.07978
 C553 C 0.05750 0.76229 0.16977
 C554 C -0.01162 0.80784 0.08006
 C555 C 0.49032 0.22139 0.59316
 H556 H 0.47598 0.23069 0.59230
 C557 C 0.49332 0.20442 0.57932
 H558 H 0.48124 0.20056 0.56780
 C559 C 0.52377 0.21519 0.60900
 H560 H 0.53574 0.21962 0.62033
 C561 C 0.52740 0.19811 0.59545
 H562 H 0.54207 0.18930 0.59655
 N563 N 0.50534 0.22628 0.60778
 C564 C 0.47171 0.25963 0.65796
 H565 H 0.48102 0.27398 0.65887
 C566 C 0.45472 0.25659 0.67176
 H567 H 0.45084 0.26865 0.68330
 C568 C 0.46552 0.22620 0.64203
 H569 H 0.46997 0.21424 0.63068
 C570 C 0.44841 0.22253 0.65553
 H571 H 0.43961 0.20786 0.65439
 Zn572 Zn 0.50020 0.24982 0.62558
 N573 N 0.47662 0.24463 0.64332
 C574 C 0.47664 0.28450 0.60914
 N575 N 0.49507 0.27342 0.60788
 C576 C 0.51010 0.27836 0.59328
 C577 C 0.50709 0.29535 0.57950
 C578 C 0.47300 0.30161 0.59565
 C579 C 0.52866 0.23987 0.65791
 C580 C 0.54566 0.24284 0.67171
 C581 C 0.55199 0.27696 0.65564
 C582 C 0.53488 0.27336 0.64213
 N583 N 0.52376 0.25493 0.64334
 H584 H 0.46466 0.28003 0.62046
 H585 H 0.52444 0.26906 0.59239
 H586 H 0.51917 0.29925 0.56798
 H587 H 0.45833 0.31040 0.59677
 H588 H 0.51934 0.22553 0.65876
 H589 H 0.54952 0.23074 0.68319
 H590 H 0.56082 0.29163 0.65455
 H591 H 0.53045 0.28536 0.63083
 C592 C 0.44295 0.23789 0.67048
 C593 C 0.51201 0.19266 0.58054
 C594 C 0.55744 0.26154 0.67051
 C595 C 0.48839 0.30710 0.58075
 C596 C 0.50972 0.72218 0.90763
 H597 H 0.52405 0.73153 0.90848
 C598 C 0.50676 0.70520 0.92143
 H599 H 0.51886 0.70136 0.93294
 C600 C 0.47626 0.71590 0.89182
 H601 H 0.46427 0.72030 0.88050
 C602 C 0.47267 0.69879 0.90533
 H603 H 0.45802 0.68994 0.90424
 N604 N 0.49467 0.72704 0.89303
 C605 C 0.52823 0.76047 0.84285
 H606 H 0.51892 0.77481 0.84198
 C607 C 0.54519 0.75746 0.82903
 H608 H 0.54906 0.76953 0.81749
 C609 C 0.53442 0.72703 0.85872
 H610 H 0.52998 0.71506 0.87006
 C611 C 0.55151 0.72339 0.84519
 H612 H 0.56031 0.70872 0.84629
 Zn613 Zn 0.49977 0.75060 0.87525
 N614 N 0.52333 0.74546 0.85748
 C615 C 0.52332 0.78533 0.89170
 N616 N 0.50490 0.77420 0.89297
 C617 C 0.48988 0.77910 0.90759
 C618 C 0.49287 0.79611 0.92138
 C619 C 0.52694 0.80246 0.90520
 C620 C 0.47128 0.74061 0.84293
 C621 C 0.45429 0.74356 0.82914
 C622 C 0.44795 0.77766 0.84525
 C623 C 0.46506 0.77408 0.85875
 N624 N 0.47618 0.75567 0.85752
 H625 H 0.53529 0.78090 0.88037
 H626 H 0.47555 0.76977 0.90848
 H627 H 0.48079 0.79997 0.93291
 H628 H 0.54160 0.81129 0.90407
 H629 H 0.48061 0.72628 0.84206
 H630 H 0.45042 0.73145 0.81764
 H631 H 0.43912 0.79232 0.84635
 H632 H 0.46950 0.78609 0.87006
 C633 C 0.55695 0.73876 0.83026
 C634 C 0.48809 0.69338 0.92022
 C635 C 0.44250 0.76224 0.83037
 C636 C 0.51155 0.80790 0.92012
 C637 C 0.10688 0.22817 0.28953
 C638 C 0.11064 0.24237 0.27264
 C639 C 0.12799 0.23892 0.25874
 C640 C 0.14146 0.22130 0.26183
 C641 C 0.13770 0.20710 0.27873
 C642 C 0.12035 0.21054 0.29262
 C643 C 0.11691 0.19613 0.30940
 C644 C 0.13022 0.17881 0.31237
 C645 C 0.14718 0.17544 0.29879
 C646 C 0.15095 0.18937 0.28214
 C647 C 0.13143 0.25333 0.24196
 C648 C 0.11812 0.27065 0.23899
 C649 C 0.10117 0.27403 0.25258
 C650 C 0.09740 0.26010 0.26924
 C651 C 0.15918 0.21778 0.24765
 C652 C 0.17389 0.21487 0.23587
 C653 C 0.08915 0.23168 0.30372
 C654 C 0.07445 0.23461 0.31550
 H655 H 0.10392 0.19807 0.32038
 H656 H 0.12735 0.16794 0.32528
 H657 H 0.15747 0.16196 0.30116
 H658 H 0.16435 0.18608 0.27200
 H659 H 0.14441 0.25138 0.23098
 H660 H 0.12099 0.28152 0.22608
 H661 H 0.09088 0.28751 0.25021
 H662 H 0.08401 0.26340 0.27938
 C663 C 0.60683 0.72889 0.79010
 C664 C 0.61072 0.74326 0.77337
 C665 C 0.62804 0.73982 0.75945
 C666 C 0.64136 0.72205 0.76233
 C667 C 0.63747 0.70768 0.77906
 C668 C 0.62015 0.71111 0.79298
 C669 C 0.61657 0.69652 0.80958
 C670 C 0.62973 0.67905 0.81235
 C671 C 0.64666 0.67570 0.79874
 C672 C 0.65057 0.68980 0.78226
 C673 C 0.63161 0.75440 0.74283
 C674 C 0.61845 0.77187 0.74006
 C675 C 0.60152 0.77522 0.75368
 C676 C 0.59762 0.76114 0.77017
 C677 C 0.65906 0.71855 0.74812
 C678 C 0.67375 0.71566 0.73631
 C679 C 0.58914 0.73239 0.80433
 C680 C 0.57446 0.73531 0.81615
 H681 H 0.60359 0.69845 0.82058
 H682 H 0.62676 0.66806 0.82513
 H683 H 0.65684 0.66211 0.80096
 H684 H 0.66394 0.68652 0.77208
 H685 H 0.64458 0.75246 0.73183
 H686 H 0.62142 0.78285 0.72728
 H687 H 0.59135 0.78882 0.75146
 H688 H 0.58426 0.76443 0.78035
 C689 C 0.39253 0.77191 0.79032
 C690 C 0.37916 0.78966 0.79321
 C691 C 0.36182 0.79302 0.77931
 C692 C 0.35795 0.77862 0.76260
 C693 C 0.37131 0.76088 0.75970
 C694 C 0.38865 0.75751 0.77360
 C695 C 0.40179 0.73965 0.77039
 C696 C 0.39791 0.72554 0.75392
 C697 C 0.38096 0.72883 0.74032
 C698 C 0.36776 0.74627 0.74310
 C699 C 0.34867 0.81087 0.78252
 C700 C 0.35255 0.82499 0.79900
 C701 C 0.36951 0.82170 0.81259
 C702 C 0.38271 0.80427 0.80981
 C703 C 0.34024 0.78206 0.74840
 C704 C 0.32554 0.78493 0.73660
 C705 C 0.41024 0.76847 0.80452
 C706 C 0.42495 0.76562 0.81631
 H707 H 0.41517 0.73641 0.78056
 H708 H 0.40812 0.71196 0.75169
 H709 H 0.37802 0.71782 0.72754
 H710 H 0.35478 0.74816 0.73211
 H711 H 0.33529 0.81411 0.77237
 H712 H 0.34234 0.83856 0.80122
 H713 H 0.37246 0.83272 0.82536
 H714 H 0.39570 0.80239 0.82079
 C715 C -0.10750 0.27150 0.28946
 C716 C -0.11135 0.25713 0.27271
 C717 C -0.12868 0.26052 0.25880
 C718 C -0.14207 0.27825 0.26173
 C719 C -0.13823 0.29260 0.27849
 C720 C -0.12089 0.28922 0.29239
 C721 C -0.11737 0.30379 0.30902
 C722 C -0.13059 0.32121 0.31184
 C723 C -0.14755 0.32451 0.29825
 C724 C -0.15140 0.31043 0.28174
 C725 C -0.13221 0.24595 0.24216
 C726 C -0.11899 0.22853 0.23935
 C727 C -0.10205 0.22522 0.25295
 C728 C -0.09819 0.23930 0.26946
 C729 C -0.15977 0.28171 0.24753
 C730 C -0.17446 0.28459 0.23573
 C731 C -0.08979 0.26804 0.30366
 C732 C -0.07508 0.26519 0.31545
 H733 H -0.10438 0.30190 0.32001
 H734 H -0.12767 0.33219 0.32465
 H735 H -0.15778 0.33806 0.30051
 H736 H -0.16478 0.31368 0.27158
 H737 H -0.14519 0.24786 0.23117
 H738 H -0.12192 0.21755 0.22654
 H739 H -0.09183 0.21166 0.25070
 H740 H -0.08482 0.23605 0.27963
 C741 C -0.10669 0.72864 0.21012
 C742 C -0.11054 0.74303 0.22685
 C743 C -0.12783 0.73961 0.24081
 C744 C -0.14117 0.72182 0.23797
 C745 C -0.13731 0.70742 0.22125
 C746 C -0.12002 0.71085 0.20728
 C747 C -0.11648 0.69624 0.19069
 C748 C -0.12965 0.67875 0.18796
 C749 C -0.14656 0.67541 0.20161
 C750 C -0.15043 0.68952 0.21809
 C751 C -0.13136 0.75421 0.25742
 C752 C -0.11819 0.77169 0.26015
 C753 C -0.10129 0.77504 0.24649
 C754 C -0.09743 0.76093 0.23000
 C755 C -0.15884 0.71833 0.25222
 C756 C -0.17352 0.71544 0.26404
 C757 C -0.08904 0.73215 0.19585
 C758 C -0.07438 0.73507 0.18400
 H759 H -0.10353 0.69816 0.17966
 H760 H -0.12672 0.66774 0.17519
 H761 H -0.15675 0.66180 0.19943
 H762 H -0.16378 0.68625 0.22830
 H763 H -0.14431 0.75228 0.26845
 H764 H -0.12112 0.78270 0.27293
 H765 H -0.09110 0.78865 0.24868
 H766 H -0.08409 0.76422 0.21979
 C767 C 0.39299 0.22799 0.71053
 C768 C 0.38912 0.24232 0.72730
 C769 C 0.37178 0.23888 0.74120
 C770 C 0.35841 0.22113 0.73825
 C771 C 0.36228 0.20680 0.72148
 C772 C 0.37962 0.21024 0.70758
 C773 C 0.38317 0.19569 0.69093
 C774 C 0.36996 0.17825 0.68809
 C775 C 0.35300 0.17490 0.70168
 C776 C 0.34912 0.18895 0.71821
 C777 C 0.36823 0.25342 0.75785
 C778 C 0.38144 0.27087 0.76069
 C779 C 0.39839 0.27423 0.74710
 C780 C 0.40226 0.26018 0.73056
 C781 C 0.34070 0.21762 0.75244
 C782 C 0.32599 0.21471 0.76423
 C783 C 0.41071 0.23149 0.69633
 C784 C 0.42542 0.23441 0.68455
 H785 H 0.39615 0.19763 0.67994
 H786 H 0.37290 0.16729 0.67528
 H787 H 0.34278 0.16133 0.69941
 H788 H 0.33574 0.18567 0.72836
 H789 H 0.35525 0.25148 0.76884
 H790 H 0.37850 0.28183 0.77351
 H791 H 0.40860 0.28781 0.74937
 H792 H 0.41564 0.26347 0.72041
 C793 C 0.60744 0.27125 0.71054
 C794 C 0.61142 0.25676 0.72714
 C795 C 0.62877 0.26015 0.74103
 C796 C 0.64203 0.27801 0.73824
 C797 C 0.63805 0.29249 0.72164
 C798 C 0.62070 0.28910 0.70775
 C799 C 0.61704 0.30380 0.69128
 C800 C 0.63015 0.32134 0.68860
 C801 C 0.64712 0.32465 0.70218
 C802 C 0.65110 0.31045 0.71854
 C803 C 0.63244 0.24546 0.75751
 C804 C 0.61934 0.22791 0.76018
 C805 C 0.60238 0.22459 0.74659
 C806 C 0.59839 0.23880 0.73023
 C807 C 0.65974 0.28148 0.75244
 C808 C 0.67445 0.28438 0.76422
 C809 C 0.58971 0.26779 0.69635
 C810 C 0.57499 0.26494 0.68457
 H811 H 0.60404 0.30191 0.68031
 H812 H 0.62712 0.33243 0.67592
 H813 H 0.65725 0.33830 0.70003
 H814 H 0.66449 0.31370 0.72869
 H815 H 0.64543 0.24736 0.76848
 H816 H 0.62237 0.21683 0.77287
 H817 H 0.59225 0.21093 0.74873
 H818 H 0.58501 0.23554 0.72007
 C819 C 0.10741 0.77199 0.20992
 C820 C 0.12094 0.78960 0.20694
 C821 C 0.13826 0.79296 0.22088
 C822 C 0.14193 0.77869 0.23773
 C823 C 0.12839 0.76107 0.24071
 C824 C 0.11108 0.75771 0.22676
 C825 C 0.09777 0.73998 0.23006
 C826 C 0.10146 0.72598 0.24666
 C827 C 0.11838 0.72927 0.26031
 C828 C 0.13174 0.74658 0.25744
 C829 C 0.15157 0.81068 0.21759
 C830 C 0.14789 0.82469 0.20098
 C831 C 0.13096 0.82141 0.18735
 C832 C 0.11759 0.80410 0.19021
 C833 C 0.15961 0.78212 0.25198
 C834 C 0.17429 0.78498 0.26380
 C835 C 0.08972 0.76856 0.19568
 C836 C 0.07503 0.76570 0.18386
 H837 H 0.08441 0.73675 0.21987
 H838 H 0.09112 0.71250 0.24896
 H839 H 0.12117 0.71835 0.27318
 H840 H 0.14470 0.74847 0.26847
 H841 H 0.16495 0.81391 0.22777
 H842 H 0.15823 0.83816 0.19869
 H843 H 0.12817 0.83233 0.17448
 H844 H 0.10463 0.80222 0.17919
 C845 C 0.29023 0.10665 0.22855
 C846 C 0.29332 0.12009 0.21091
 C847 C 0.27940 0.13741 0.20743
 C848 C 0.26248 0.14119 0.22161
 C849 C 0.25940 0.12776 0.23926
 C850 C 0.27332 0.11044 0.24274
 C851 C 0.26992 0.09724 0.26049
 C852 C 0.25325 0.10103 0.27440
 C853 C 0.23964 0.11796 0.27100
 C854 C 0.24260 0.13122 0.25366
 C855 C 0.28281 0.15063 0.18969
 C856 C 0.29948 0.14684 0.17578
 C857 C 0.31308 0.12990 0.17917
 C858 C 0.31011 0.11663 0.19651
 C859 C 0.24825 0.15886 0.21805
 C860 C 0.23643 0.17353 0.21509
 C861 C 0.30444 0.08895 0.23209
 C862 C 0.31623 0.07425 0.23502
 H863 H 0.28009 0.08387 0.26381
 H864 H 0.25088 0.09077 0.28790
 H865 H 0.22672 0.12084 0.28185
 H866 H 0.23160 0.14419 0.25168
 H867 H 0.27265 0.16400 0.18638
 H868 H 0.30185 0.15710 0.16229
 H869 H 0.32601 0.12702 0.16832
 H870 H 0.32111 0.10366 0.19848
 C871 C 0.78988 0.60724 0.72829
 C872 C 0.79280 0.62060 0.71057
 C873 C 0.77889 0.63795 0.70718
 C874 C 0.76215 0.64182 0.72155
 C875 C 0.75923 0.62847 0.73927
 C876 C 0.77314 0.61112 0.74266
 C877 C 0.76990 0.59799 0.76049
 C878 C 0.75340 0.60188 0.77458
 C879 C 0.73980 0.61884 0.77127
 C880 C 0.74260 0.63203 0.75385
 C881 C 0.78213 0.65109 0.68936
 C882 C 0.79863 0.64720 0.67527
 C883 C 0.81222 0.63023 0.67857
 C884 C 0.80942 0.61703 0.69599
 C885 C 0.74794 0.65953 0.71808
 C886 C 0.73614 0.67424 0.71522
 C887 C 0.80407 0.58951 0.73174
 C888 C 0.81587 0.57480 0.73460
 H889 H 0.78007 0.58460 0.76374
 H890 H 0.75116 0.59168 0.78814
 H891 H 0.72700 0.62179 0.78225
 H892 H 0.73161 0.64502 0.75195
 H893 H 0.77197 0.66448 0.68611
 H894 H 0.80088 0.65741 0.66172
 H895 H 0.82502 0.62728 0.66758
 H896 H 0.82040 0.60404 0.69788
 C897 C 0.78970 0.39280 0.77125
 C898 C 0.79248 0.37958 0.78910
 C899 C 0.77856 0.36222 0.79249
 C900 C 0.76194 0.35820 0.77802
 C901 C 0.75916 0.37142 0.76018
 C902 C 0.77309 0.38877 0.75678
 C903 C 0.77000 0.40176 0.73882
 C904 C 0.75362 0.39773 0.72463
 C905 C 0.74000 0.38077 0.72796
 C906 C 0.74267 0.36772 0.74550
 C907 C 0.78165 0.34923 0.81045
 C908 C 0.79802 0.35326 0.82464
 C909 C 0.81162 0.37023 0.82132
 C910 C 0.80896 0.38329 0.80378
 C911 C 0.74773 0.34047 0.78149
 C912 C 0.73594 0.32575 0.78438
 C913 C 0.80392 0.41052 0.76777
 C914 C 0.81574 0.42523 0.76490
 H915 H 0.78018 0.41515 0.73555
 H916 H 0.75148 0.40783 0.71098
 H917 H 0.72730 0.37771 0.71689
 H918 H 0.73167 0.35472 0.74741
 H919 H 0.77147 0.33584 0.81371
 H920 H 0.80015 0.34316 0.83829
 H921 H 0.82432 0.37329 0.83239
 H922 H 0.81995 0.39629 0.80188
 C923 C 0.29001 -0.10776 0.27189
 C924 C 0.29305 -0.12127 0.28948
 C925 C 0.27910 -0.13860 0.29288
 C926 C 0.26219 -0.14231 0.27867
 C927 C 0.25916 -0.12881 0.26107
 C928 C 0.27311 -0.11148 0.25767
 C929 C 0.26976 -0.09821 0.23997
 C930 C 0.25310 -0.10194 0.22603
 C931 C 0.23945 -0.11887 0.22936
 C932 C 0.24237 -0.13221 0.24665
 C933 C 0.28246 -0.15189 0.31057
 C934 C 0.29913 -0.14816 0.32450
 C935 C 0.31276 -0.13122 0.32118
 C936 C 0.30984 -0.11787 0.30390
 C937 C 0.24793 -0.15999 0.28215
 C938 C 0.23608 -0.17466 0.28504
 C939 C 0.30425 -0.09005 0.26842
 C940 C 0.31606 -0.07534 0.26555
 H941 H 0.27995 -0.08483 0.23671
 H942 H 0.25076 -0.09163 0.21258
 H943 H 0.22653 -0.12171 0.21849
 H944 H 0.23134 -0.14517 0.24857
 H945 H 0.27228 -0.16527 0.31382
 H946 H 0.30147 -0.15848 0.33795
 H947 H 0.32568 -0.12839 0.33205
 H948 H 0.32086 -0.10490 0.30198
 C949 C 0.20998 -0.10768 0.72824
 C950 C 0.20711 -0.12111 0.71055
 C951 C 0.22105 -0.13845 0.70723
 C952 C 0.23778 -0.14224 0.72161
 C953 C 0.24066 -0.12882 0.73930
 C954 C 0.22671 -0.11149 0.74263
 C955 C 0.22990 -0.09829 0.76043
 C956 C 0.24639 -0.10210 0.77454
 C957 C 0.26002 -0.11904 0.77128
 C958 C 0.25727 -0.13230 0.75390
 C959 C 0.21786 -0.15166 0.68943
 C960 C 0.20137 -0.14785 0.67533
 C961 C 0.18774 -0.13090 0.67857
 C962 C 0.19050 -0.11763 0.69595
 C963 C 0.25203 -0.15994 0.71821
 C964 C 0.26386 -0.17463 0.71536
 C965 C 0.19576 -0.08996 0.73162
 C966 C 0.18395 -0.07525 0.73444
 H967 H 0.21971 -0.08491 0.76364
 H968 H 0.24860 -0.09184 0.78807
 H969 H 0.27281 -0.12193 0.78229
 H970 H 0.26828 -0.14528 0.75204
 H971 H 0.22804 -0.16505 0.68624
 H972 H 0.19916 -0.15812 0.66180
 H973 H 0.17496 -0.12801 0.66757
 H974 H 0.17949 -0.10465 0.69780
 C975 C 0.71011 0.39266 0.22879
 C976 C 0.70724 0.37933 0.21102
 C977 C 0.72119 0.36202 0.20761
 C978 C 0.73792 0.35815 0.22197
 C979 C 0.74078 0.37147 0.23975
 C980 C 0.72683 0.38878 0.24316
 C981 C 0.73000 0.40188 0.26104
 C982 C 0.74648 0.39799 0.27514
 C983 C 0.76012 0.38107 0.27179
 C984 C 0.75738 0.36791 0.25433
 C985 C 0.71801 0.34891 0.18974
 C986 C 0.70153 0.35279 0.17564
 C987 C 0.68790 0.36972 0.17898
 C988 C 0.69064 0.38289 0.19643
 C989 C 0.75218 0.34048 0.21847
 C990 C 0.76401 0.32581 0.21556
 C991 C 0.69587 0.41036 0.23226
 C992 C 0.68405 0.42505 0.23514
 H993 H 0.71980 0.41524 0.26432
 H994 H 0.74868 0.40817 0.28873
 H995 H 0.77291 0.37812 0.28279
 H996 H 0.76840 0.35495 0.25240
 H997 H 0.72821 0.33555 0.18646
 H998 H 0.69933 0.34261 0.16205
 H999 H 0.67512 0.37267 0.16798
 H1000 H 0.67963 0.39586 0.19835
 C1001 C 0.71025 0.60697 0.27195
 C1002 C 0.70738 0.62029 0.28972
 C1003 C 0.72132 0.63763 0.29312
 C1004 C 0.73804 0.64154 0.27874
 C1005 C 0.74091 0.62821 0.26098
 C1006 C 0.72698 0.61087 0.25757
 C1007 C 0.73016 0.59777 0.23970
 C1008 C 0.74665 0.60168 0.22560
 C1009 C 0.76028 0.61863 0.22893
 C1010 C 0.75752 0.63180 0.24639
 C1011 C 0.71814 0.65074 0.31100
 C1012 C 0.70166 0.64682 0.32511
 C1013 C 0.68804 0.62987 0.32178
 C1014 C 0.69079 0.61670 0.30432
 C1015 C 0.75226 0.65926 0.28220
 C1016 C 0.76407 0.67397 0.28509
 C1017 C 0.69601 0.58926 0.26847
 C1018 C 0.68418 0.57456 0.26559
 H1019 H 0.71997 0.58439 0.23643
 H1020 H 0.74885 0.59150 0.21201
 H1021 H 0.77306 0.62160 0.21793
 H1022 H 0.76853 0.64478 0.24830
 H1023 H 0.72832 0.66412 0.31426
 H1024 H 0.69945 0.65700 0.33869
 H1025 H 0.67526 0.62689 0.33279
 H1026 H 0.67978 0.60371 0.30241
 C1027 C 0.21044 0.10660 0.77113
 C1028 C 0.22722 0.11044 0.75680
 C1029 C 0.24120 0.12773 0.76023
 C1030 C 0.23832 0.14109 0.77798
 C1031 C 0.22154 0.13724 0.79232
 C1032 C 0.20756 0.11995 0.78889
 C1033 C 0.19091 0.11642 0.80344
 C1034 C 0.18815 0.12960 0.82088
 C1035 C 0.20182 0.14652 0.82423
 C1036 C 0.21835 0.15037 0.81017
 C1037 C 0.25786 0.13125 0.74569
 C1038 C 0.26063 0.11807 0.72825
 C1039 C 0.24696 0.10116 0.72489
 C1040 C 0.23041 0.09731 0.73895
 C1041 C 0.25258 0.15877 0.78147
 C1042 C 0.26442 0.17345 0.78437
 C1043 C 0.19615 0.08894 0.76762
 C1044 C 0.18428 0.07427 0.76472
 H1045 H 0.17987 0.10346 0.80151
 H1046 H 0.17533 0.12668 0.83185
 H1047 H 0.19961 0.15672 0.83781
 H1048 H 0.22857 0.16373 0.81345
 H1049 H 0.26891 0.14420 0.74763
 H1050 H 0.27346 0.12099 0.71729
 H1051 H 0.24917 0.09096 0.71132
 H1052 H 0.22019 0.08396 0.73566
 C1053 C 0.22837 0.28945 0.10650
 C1054 C 0.20943 0.29080 0.11839
 C1055 C 0.20604 0.27688 0.13571
 C1056 C 0.22162 0.26169 0.14103
 C1057 C 0.24054 0.26032 0.12913
 C1058 C 0.24393 0.27424 0.11181
 C1059 C 0.26298 0.27258 0.10015
 C1060 C 0.27824 0.25758 0.10544
 C1061 C 0.27493 0.24396 0.12237
 C1062 C 0.25633 0.24524 0.13413
 C1063 C 0.18699 0.27854 0.14737
 C1064 C 0.17172 0.29352 0.14206
 C1065 C 0.17502 0.30713 0.12512
 C1066 C 0.19363 0.30586 0.11337
 C1067 C 0.21818 0.24750 0.15875
 C1068 C 0.21531 0.23573 0.17346
 C1069 C 0.23184 0.30369 0.08883
 C1070 C 0.23472 0.31553 0.07417
 H1071 H 0.26628 0.28282 0.08684
 H1072 H 0.29272 0.25652 0.09635
 H1073 H 0.28684 0.23234 0.12642
 H1074 H 0.25448 0.23430 0.14716
 H1075 H 0.18370 0.26831 0.16068
 H1076 H 0.15724 0.29457 0.15115
 H1077 H 0.16311 0.31873 0.12106
 H1078 H 0.19547 0.31679 0.10033
 C1079 C 0.72828 0.79056 0.60710
 C1080 C 0.74267 0.77383 0.61096
 C1081 C 0.73926 0.75988 0.62826
 C1082 C 0.72149 0.76275 0.64159
 C1083 C 0.70710 0.77949 0.63773
 C1084 C 0.71051 0.79343 0.62043
 C1085 C 0.69591 0.81004 0.61689
 C1086 C 0.67845 0.81279 0.63006
 C1087 C 0.67512 0.79916 0.64698
 C1088 C 0.68923 0.78267 0.65085
 C1089 C 0.75385 0.74326 0.63180
 C1090 C 0.77131 0.74051 0.61863
 C1091 C 0.77465 0.75415 0.60173
 C1092 C 0.76054 0.77064 0.59786
 C1093 C 0.71801 0.74851 0.65925
 C1094 C 0.71512 0.73669 0.67393
 C1095 C 0.73176 0.80480 0.58943
 C1096 C 0.73465 0.81662 0.57476
 H1097 H 0.69782 0.82105 0.60394
 H1098 H 0.66744 0.82558 0.62713
 H1099 H 0.66154 0.80137 0.65717
 H1100 H 0.68597 0.77248 0.66420
 H1101 H 0.75193 0.73225 0.64475
 H1102 H 0.78232 0.72772 0.62157
 H1103 H 0.78824 0.75194 0.59154
 H1104 H 0.76381 0.78083 0.58451
 C1105 C 0.77182 0.79040 0.39320
 C1106 C 0.78958 0.79331 0.37986
 C1107 C 0.79301 0.77935 0.36257
 C1108 C 0.77867 0.76256 0.35874
 C1109 C 0.76092 0.75964 0.37208
 C1110 C 0.75748 0.77360 0.38937
 C1111 C 0.73962 0.77037 0.40248
 C1112 C 0.72555 0.75382 0.39864
 C1113 C 0.72891 0.74016 0.38174
 C1114 C 0.74636 0.74296 0.36856
 C1115 C 0.81087 0.78258 0.34945
 C1116 C 0.82494 0.79913 0.35330
 C1117 C 0.82159 0.81278 0.37020
 C1118 C 0.80414 0.80998 0.38338
 C1119 C 0.78217 0.74830 0.34108
 C1120 C 0.78507 0.73647 0.32641
 C1121 C 0.76831 0.80467 0.41085
 C1122 C 0.76540 0.81651 0.42551
 H1123 H 0.73633 0.78058 0.41582
 H1124 H 0.71198 0.75158 0.40883
 H1125 H 0.71794 0.72733 0.37882
 H1126 H 0.74830 0.73193 0.35562
 H1127 H 0.81416 0.77239 0.33610
 H1128 H 0.83852 0.80138 0.34310
 H1129 H 0.83257 0.82561 0.37312
 H1130 H 0.80221 0.82101 0.39633
 C1131 C 0.27201 0.28971 -0.10736
 C1132 C 0.25765 0.27294 -0.11126
 C1133 C 0.26113 0.25899 -0.12856
 C1134 C 0.27893 0.26191 -0.14184
 C1135 C 0.29329 0.27867 -0.13793
 C1136 C 0.28982 0.29261 -0.12064
 C1137 C 0.30439 0.30925 -0.11704
 C1138 C 0.32189 0.31204 -0.13016
 C1139 C 0.32528 0.29841 -0.14707
 C1140 C 0.31120 0.28189 -0.15099
 C1141 C 0.24657 0.24234 -0.13214
 C1142 C 0.22907 0.23955 -0.11902
 C1143 C 0.22567 0.25318 -0.10212
 C1144 C 0.23975 0.26971 -0.09821
 C1145 C 0.28246 0.24768 -0.15951
 C1146 C 0.28539 0.23587 -0.17419
 C1147 C 0.26846 0.30396 -0.08970
 C1148 C 0.26552 0.31578 -0.07503
 H1149 H 0.30243 0.32027 -0.10409
 H1150 H 0.33288 0.32485 -0.12718
 H1151 H 0.33889 0.30065 -0.15721
 H1152 H 0.31451 0.27171 -0.16434
 H1153 H 0.24853 0.23132 -0.14509
 H1154 H 0.21809 0.22673 -0.12200
 H1155 H 0.21206 0.25094 -0.09198
 H1156 H 0.23643 0.27990 -0.08487
 C1157 C 0.72847 0.20966 -0.10728
 C1158 C 0.71106 0.20629 -0.12096
 C1159 C 0.70760 0.22016 -0.13829
 C1160 C 0.72156 0.23733 -0.14184
 C1161 C 0.73897 0.24071 -0.12817
 C1162 C 0.74244 0.22683 -0.11084
 C1163 C 0.75996 0.23052 -0.09739
 C1164 C 0.77365 0.24744 -0.10096
 C1165 C 0.77026 0.26102 -0.11790
 C1166 C 0.75315 0.25777 -0.13140
 C1167 C 0.69009 0.21647 -0.15175
 C1168 C 0.67639 0.19954 -0.14819
 C1169 C 0.67978 0.18598 -0.13124
 C1170 C 0.69689 0.18923 -0.11773
 C1171 C 0.71801 0.25151 -0.15954
 C1172 C 0.71508 0.26330 -0.17423
 C1173 C 0.73201 0.19550 -0.08957
 C1174 C 0.73494 0.18373 -0.07486
 H1175 H 0.76326 0.22040 -0.08400
 H1176 H 0.78697 0.25003 -0.09051
 H1177 H 0.78094 0.27414 -0.12060
 H1178 H 0.75117 0.26875 -0.14437
 H1179 H 0.68679 0.22658 -0.16515
 H1180 H 0.66308 0.19695 -0.15864
 H1181 H 0.66910 0.17286 -0.12854
 H1182 H 0.69886 0.17825 -0.10476
 C1183 C 0.22824 0.71015 0.39320
 C1184 C 0.20971 0.70827 0.38077
 C1185 C 0.20640 0.72220 0.36344
 C1186 C 0.22164 0.73792 0.35866
 C1187 C 0.24017 0.73980 0.37110
 C1188 C 0.24348 0.72587 0.38842
 C1189 C 0.26214 0.72806 0.40062
 C1190 C 0.27708 0.74356 0.39584
 C1191 C 0.27384 0.75718 0.37891
 C1192 C 0.25563 0.75540 0.36662
 C1193 C 0.18775 0.72001 0.35124
 C1194 C 0.17280 0.70451 0.35601
 C1195 C 0.17604 0.69090 0.37295
 C1196 C 0.19425 0.69268 0.38524
 C1197 C 0.21826 0.75215 0.34097
 C1198 C 0.21546 0.76395 0.32627
 C1199 C 0.23163 0.69592 0.41090
 C1200 C 0.23445 0.68410 0.42558
 H1201 H 0.26537 0.71783 0.41395
 H1202 H 0.29126 0.74501 0.40533
 H1203 H 0.28550 0.76920 0.37526
 H1204 H 0.25382 0.76637 0.35362
 H1205 H 0.18453 0.73023 0.33790
 H1206 H 0.15863 0.70306 0.34651
 H1207 H 0.16437 0.67888 0.37660
 H1208 H 0.19605 0.68172 0.39826
 C1209 C 0.27102 0.70999 0.60735
 C1210 C 0.28877 0.70708 0.62070
 C1211 C 0.29218 0.72101 0.63801
 C1212 C 0.27783 0.73777 0.64188
 C1213 C 0.26009 0.74069 0.62853
 C1214 C 0.25667 0.72675 0.61122
 C1215 C 0.23882 0.72998 0.59810
 C1216 C 0.22475 0.74650 0.60198
 C1217 C 0.22809 0.76013 0.61890
 C1218 C 0.24552 0.75733 0.63208
 C1219 C 0.31003 0.71778 0.65113
 C1220 C 0.32411 0.70126 0.64726
 C1221 C 0.32078 0.68764 0.63033
 C1222 C 0.30334 0.69044 0.61715
 C1223 C 0.28131 0.75200 0.65956
 C1224 C 0.28419 0.76382 0.67424
 C1225 C 0.26754 0.69576 0.58966
 C1226 C 0.26466 0.68395 0.57497
 H1227 H 0.23554 0.71980 0.58474
 H1228 H 0.21117 0.74874 0.59179
 H1229 H 0.21711 0.77294 0.62184
 H1230 H 0.24745 0.76834 0.64504
 H1231 H 0.31330 0.72796 0.66450
 H1232 H 0.33768 0.69902 0.65745
 H1233 H 0.33176 0.67484 0.62738
 H1234 H 0.30142 0.67943 0.60418
 C1235 C 0.77204 0.20988 0.10695
 C1236 C 0.78978 0.20696 0.12030
 C1237 C 0.79316 0.22084 0.13766
 C1238 C 0.77878 0.23757 0.14157
 C1239 C 0.76105 0.24051 0.12821
 C1240 C 0.75767 0.22662 0.11086
 C1241 C 0.73982 0.22987 0.09773
 C1242 C 0.72573 0.24636 0.10164
 C1243 C 0.72904 0.25994 0.11861
 C1244 C 0.74647 0.25713 0.13180
 C1245 C 0.81100 0.21760 0.15079
 C1246 C 0.82511 0.20111 0.14687
 C1247 C 0.82181 0.18754 0.12990
 C1248 C 0.80438 0.19035 0.11671
 C1249 C 0.78223 0.25174 0.15931
 C1250 C 0.78509 0.26351 0.17403
 C1251 C 0.76858 0.19569 0.08923
 C1252 C 0.76570 0.18390 0.07453
 H1253 H 0.73657 0.21972 0.08434
 H1254 H 0.71216 0.24862 0.09145
 H1255 H 0.71804 0.27274 0.12158
 H1256 H 0.74837 0.26810 0.14479
 H1257 H 0.81425 0.22774 0.16419
 H1258 H 0.83867 0.19885 0.15707
 H1259 H 0.83281 0.17475 0.12692
 H1260 H 0.80249 0.17938 0.10371
 C1261 C 0.47854 0.35702 0.54067
 C1262 C 0.49291 0.36092 0.52395
 C1263 C 0.48946 0.37823 0.51002
 C1264 C 0.47167 0.39153 0.51291
 C1265 C 0.45730 0.38764 0.52964
 C1266 C 0.46075 0.37033 0.54356
 C1267 C 0.44616 0.36674 0.56017
 C1268 C 0.42868 0.37989 0.56294
 C1269 C 0.42532 0.39682 0.54933
 C1270 C 0.43941 0.40072 0.53284
 C1271 C 0.50404 0.38181 0.49341
 C1272 C 0.52153 0.36867 0.49063
 C1273 C 0.52490 0.35175 0.50425
 C1274 C 0.51081 0.34784 0.52074
 C1275 C 0.46814 0.40920 0.49867
 C1276 C 0.46522 0.42386 0.48685
 C1277 C 0.48204 0.33933 0.55489
 C1278 C 0.48494 0.32463 0.56668
 H1279 H 0.44810 0.35378 0.57117
 H1280 H 0.41768 0.37692 0.57573
 H1281 H 0.41172 0.40698 0.55155
 H1282 H 0.43612 0.41408 0.52267
 H1283 H 0.50210 0.39477 0.48240
 H1284 H 0.53252 0.37163 0.47785
 H1285 H 0.53850 0.34159 0.50203
 H1286 H 0.51411 0.33449 0.53092
 C1287 C -0.02149 0.85775 0.03998
 C1288 C -0.00725 0.86149 0.02311
 C1289 C -0.01070 0.87879 0.00917
 C1290 C -0.02836 0.89224 0.01219
 C1291 C -0.04259 0.88850 0.02907
 C1292 C -0.03915 0.87120 0.04301
 C1293 C -0.05360 0.86778 0.05977
 C1294 C -0.07095 0.88108 0.06267
 C1295 C -0.07431 0.89799 0.04905
 C1296 C -0.06035 0.90174 0.03241
 C1297 C 0.00375 0.88221 -0.00759
 C1298 C 0.02111 0.86893 -0.01050
 C1299 C 0.02448 0.85202 0.00314
 C1300 C 0.01052 0.84827 0.01977
 C1301 C -0.03189 0.90989 -0.00206
 C1302 C -0.03482 0.92454 -0.01390
 C1303 C -0.01799 0.84006 0.05421
 C1304 C -0.01509 0.82537 0.06600
 H1305 H -0.05165 0.85484 0.07078
 H1306 H -0.08184 0.87823 0.07557
 H1307 H -0.08781 0.90827 0.05137
 H1308 H -0.06363 0.91509 0.02223
 H1309 H 0.00180 0.89516 -0.01862
 H1310 H 0.03200 0.87178 -0.02340
 H1311 H 0.03799 0.84175 0.00082
 H1312 H 0.01381 0.83492 0.02996
 C1313 C 0.02178 0.64349 0.03965
 C1314 C 0.00611 0.63802 0.02461
 C1315 C 0.00948 0.62066 0.01072
 C1316 C 0.02848 0.60886 0.01196
 C1317 C 0.04415 0.61434 0.02699
 C1318 C 0.04079 0.63171 0.04088
 C1319 C 0.05669 0.63689 0.05577
 C1320 C 0.07537 0.62524 0.05691
 C1321 C 0.07866 0.60826 0.04333
 C1322 C 0.06328 0.60279 0.02852
 C1323 C -0.00641 0.61550 -0.00419
 C1324 C -0.02509 0.62715 -0.00535
 C1325 C -0.02838 0.64413 0.00824
 C1326 C -0.01301 0.64957 0.02308
 C1327 C 0.03190 0.59110 -0.00220
 C1328 C 0.03473 0.57635 -0.01395
 C1329 C 0.01833 0.66120 0.05387
 C1330 C 0.01546 0.67590 0.06568
 H1331 H 0.05487 0.64996 0.06667
 H1332 H 0.08737 0.62942 0.06839
 H1333 H 0.09320 0.59926 0.04428
 H1334 H 0.06656 0.58945 0.01830
 H1335 H -0.00458 0.60243 -0.01510
 H1336 H -0.03707 0.62299 -0.01684
 H1337 H -0.04291 0.65313 0.00728
 H1338 H -0.01630 0.66291 0.03330
 C1339 C 0.52183 0.14276 0.54039
 C1340 C 0.53961 0.12943 0.54327
 C1341 C 0.54303 0.11211 0.52934
 C1342 C 0.52865 0.10822 0.51262
 C1343 C 0.51088 0.12154 0.50974
 C1344 C 0.50745 0.13886 0.52367
 C1345 C 0.48957 0.15196 0.52048
 C1346 C 0.47547 0.14806 0.50400
 C1347 C 0.47883 0.13112 0.49038
 C1348 C 0.49630 0.11797 0.49314
 C1349 C 0.56090 0.09900 0.53253
 C1350 C 0.57500 0.10290 0.54902
 C1351 C 0.57166 0.11984 0.56263
 C1352 C 0.55419 0.13301 0.55987
 C1353 C 0.53215 0.09053 0.49839
 C1354 C 0.53507 0.07584 0.48658
 C1355 C 0.51834 0.16045 0.55462
 C1356 C 0.51545 0.17514 0.56644
 H1357 H 0.48629 0.16532 0.53067
 H1358 H 0.46188 0.15823 0.50179
 H1359 H 0.46783 0.12816 0.47760
 H1360 H 0.49822 0.10500 0.48213
 H1361 H 0.56418 0.08563 0.52236
 H1362 H 0.58859 0.09272 0.55123
 H1363 H 0.58266 0.12281 0.57541
 H1364 H 0.55227 0.14598 0.57087
 C1365 C -0.02207 0.14317 0.45972
 C1366 C -0.00766 0.13932 0.47643
 C1367 C -0.01106 0.12201 0.49037
 C1368 C -0.02884 0.10866 0.48753
 C1369 C -0.04325 0.11251 0.47084
 C1370 C -0.03985 0.12982 0.45689
 C1371 C -0.05447 0.13336 0.44032
 C1372 C -0.07194 0.12017 0.43760
 C1373 C -0.07526 0.10325 0.45123
 C1374 C -0.06114 0.09939 0.46768
 C1375 C 0.00355 0.11848 0.50695
 C1376 C 0.02102 0.13166 0.50968
 C1377 C 0.02435 0.14858 0.49604
 C1378 C 0.01023 0.15244 0.47958
 C1379 C -0.03231 0.09097 0.50176
 C1380 C -0.03519 0.07628 0.51357
 C1381 C -0.01859 0.16084 0.44547
 C1382 C -0.01569 0.17551 0.43364
 H1383 H -0.05257 0.14632 0.42931
 H1384 H -0.08297 0.12311 0.42484
 H1385 H -0.08886 0.09305 0.44905
 H1386 H -0.06440 0.08602 0.47787
 H1387 H 0.00164 0.10552 0.51797
 H1388 H 0.03204 0.12873 0.52244
 H1389 H 0.03795 0.15877 0.49822
 H1390 H 0.01349 0.16580 0.46938
 C1391 C 0.47846 0.64339 0.96028
 C1392 C 0.49286 0.63955 0.97699
 C1393 C 0.48950 0.62221 0.99090
 C1394 C 0.47178 0.60879 0.98801
 C1395 C 0.45739 0.61262 0.97129
 C1396 C 0.46074 0.62997 0.95738
 C1397 C 0.44614 0.63347 0.94079
 C1398 C 0.42873 0.62021 0.93800
 C1399 C 0.42546 0.60325 0.95160
 C1400 C 0.43957 0.59942 0.96807
 C1401 C 0.50410 0.61870 1.00750
 C1402 C 0.52152 0.63194 1.01027
 C1403 C 0.52480 0.64890 0.99667
 C1404 C 0.51069 0.65274 0.98020
 C1405 C 0.46834 0.59108 1.00222
 C1406 C 0.46546 0.57638 1.01400
 C1407 C 0.48187 0.66112 0.94609
 C1408 C 0.48471 0.67583 0.93430
 H1409 H 0.44801 0.64646 0.92980
 H1410 H 0.41772 0.62313 0.92523
 H1411 H 0.41191 0.59300 0.94937
 H1412 H 0.43634 0.58602 0.97823
 H1413 H 0.50222 0.60571 1.01848
 H1414 H 0.53253 0.62903 1.02305
 H1415 H 0.53836 0.65914 0.99889
 H1416 H 0.51392 0.66613 0.97003
 C1417 C 0.52136 0.85783 0.96025
 C1418 C 0.50702 0.86164 0.97703
 C1419 C 0.51046 0.87893 0.99100
 C1420 C 0.52820 0.89232 0.98809
 C1421 C 0.54252 0.88853 0.97130
 C1422 C 0.53909 0.87123 0.95733
 C1423 C 0.55363 0.86775 0.94067
 C1424 C 0.57106 0.88098 0.93787
 C1425 C 0.57441 0.89790 0.95152
 C1426 C 0.56036 0.90170 0.96807
 C1427 C 0.49592 0.88242 1.00766
 C1428 C 0.47848 0.86920 1.01045
 C1429 C 0.47512 0.85230 0.99679
 C1430 C 0.48917 0.84848 0.98025
 C1431 C 0.53173 0.90996 1.00238
 C1432 C 0.53468 0.92460 1.01424
 C1433 C 0.51787 0.84014 0.94601
 C1434 C 0.51499 0.82544 0.93420
 H1435 H 0.55170 0.85480 0.92964
 H1436 H 0.58202 0.87810 0.92504
 H1437 H 0.58797 0.90813 0.94928
 H1438 H 0.56364 0.91506 0.97827
 H1439 H 0.49786 0.89537 1.01869
 H1440 H 0.46752 0.87210 1.02328
 H1441 H 0.46155 0.84208 0.99902
 H1442 H 0.48588 0.83514 0.97004
 C1443 C 0.02135 0.35742 0.45931
 C1444 C 0.03912 0.37078 0.45642
 C1445 C 0.04253 0.38811 0.47034
 C1446 C 0.02815 0.39198 0.48707
 C1447 C 0.01038 0.37862 0.48996
 C1448 C 0.00697 0.36129 0.47604
 C1449 C -0.01091 0.34817 0.47924
 C1450 C -0.02501 0.35205 0.49573
 C1451 C -0.02167 0.36899 0.50935
 C1452 C -0.00420 0.38218 0.50658
 C1453 C 0.06040 0.40125 0.46714
 C1454 C 0.07450 0.39737 0.45065
 C1455 C 0.07116 0.38042 0.43704
 C1456 C 0.05370 0.36722 0.43981
 C1457 C 0.03165 0.40967 0.50130
 C1458 C 0.03455 0.42435 0.51312
 C1459 C 0.01787 0.33970 0.44510
 C1460 C 0.01498 0.32499 0.43331
 H1461 H -0.01419 0.33479 0.46906
 H1462 H -0.03860 0.34185 0.49795
 H1463 H -0.03266 0.37194 0.52213
 H1464 H -0.00228 0.39515 0.51758
 H1465 H 0.06367 0.41463 0.47731
 H1466 H 0.08808 0.40757 0.44842
 H1467 H 0.08216 0.37747 0.42425
 H1468 H 0.05179 0.35424 0.42882
 C1469 C 0.35666 0.53989 0.47871
 C1470 C 0.36053 0.52317 0.49310
 C1471 C 0.37788 0.50926 0.48973
 C1472 C 0.39125 0.51214 0.47201
 C1473 C 0.38738 0.52886 0.45762
 C1474 C 0.37003 0.54277 0.46098
 C1475 C 0.36648 0.55937 0.44639
 C1476 C 0.37970 0.56214 0.42897
 C1477 C 0.39666 0.54854 0.42568
 C1478 C 0.40054 0.53206 0.43979
 C1479 C 0.38143 0.49266 0.50433
 C1480 C 0.36822 0.48989 0.52175
 C1481 C 0.35126 0.50350 0.52504
 C1482 C 0.34738 0.51997 0.51093
 C1483 C 0.40896 0.49793 0.46857
 C1484 C 0.42368 0.48613 0.46571
 C1485 C 0.33894 0.55410 0.48214
 C1486 C 0.32422 0.56590 0.48500
 H1487 H 0.35349 0.57036 0.44826
 H1488 H 0.37675 0.57491 0.41796
 H1489 H 0.40688 0.55076 0.41213
 H1490 H 0.41393 0.52190 0.43656
 H1491 H 0.39441 0.48166 0.50244
 H1492 H 0.37116 0.47711 0.53275
 H1493 H 0.34105 0.50128 0.53860
 H1494 H 0.33400 0.53014 0.51417
 C1495 C 0.85768 0.03990 -0.02196
 C1496 C 0.86220 0.02380 -0.00707
 C1497 C 0.87953 0.00988 -0.01050
 C1498 C 0.89225 0.01216 -0.02879
 C1499 C 0.88774 0.02826 -0.04367
 C1500 C 0.87040 0.04217 -0.04025
 C1501 C 0.86619 0.05815 -0.05535
 C1502 C 0.87876 0.06032 -0.07332
 C1503 C 0.89572 0.04672 -0.07666
 C1504 C 0.90023 0.03085 -0.06206
 C1505 C 0.88374 -0.00610 0.00460
 C1506 C 0.87118 -0.00826 0.02258
 C1507 C 0.85423 0.00534 0.02593
 C1508 C 0.84972 0.02122 0.01133
 C1509 C 0.90995 -0.00206 -0.03229
 C1510 C 0.92464 -0.01387 -0.03519
 C1511 C 0.83996 0.05410 -0.01847
 C1512 C 0.82524 0.06588 -0.01557
 H1513 H 0.85318 0.06911 -0.05345
 H1514 H 0.87533 0.07262 -0.08471
 H1515 H 0.90544 0.04847 -0.09065
 H1516 H 0.91359 0.02066 -0.06536
 H1517 H 0.89674 -0.01707 0.00270
 H1518 H 0.87462 -0.02057 0.03397
 H1519 H 0.84452 0.00359 0.03992
 H1520 H 0.83636 0.03141 0.01464
 C1521 C 0.64324 0.03965 0.02156
 C1522 C 0.63929 0.02294 0.00717
 C1523 C 0.62192 0.00904 0.01056
 C1524 C 0.60860 0.01193 0.02833
 C1525 C 0.61255 0.02864 0.04272
 C1526 C 0.62992 0.04254 0.03933
 C1527 C 0.63355 0.05912 0.05394
 C1528 C 0.62040 0.06190 0.07140
 C1529 C 0.60341 0.04831 0.07471
 C1530 C 0.59945 0.03185 0.06060
 C1531 C 0.61829 -0.00756 -0.00404
 C1532 C 0.63145 -0.01033 -0.02150
 C1533 C 0.64843 0.00326 -0.02482
 C1534 C 0.65238 0.01973 -0.01071
 C1535 C 0.59086 -0.00226 0.03179
 C1536 C 0.57613 -0.01405 0.03467
 C1537 C 0.66097 0.05385 0.01808
 C1538 C 0.67569 0.06566 0.01519
 H1539 H 0.64656 0.07010 0.05203
 H1540 H 0.62340 0.07467 0.08241
 H1541 H 0.59324 0.05054 0.08830
 H1542 H 0.58605 0.02170 0.06385
 H1543 H 0.60529 -0.01854 -0.00213
 H1544 H 0.62845 -0.02311 -0.03250
 H1545 H 0.65860 0.00103 -0.03841
 H1546 H 0.66578 0.02989 -0.01397
 C1547 C 0.14213 0.53985 0.52142
 C1548 C 0.13827 0.52312 0.50703
 C1549 C 0.12092 0.50918 0.51039
 C1550 C 0.10754 0.51207 0.52811
 C1551 C 0.11139 0.52881 0.54249
 C1552 C 0.12875 0.54274 0.53913
 C1553 C 0.13229 0.55935 0.55373
 C1554 C 0.11906 0.56213 0.57114
 C1555 C 0.10209 0.54851 0.57441
 C1556 C 0.09823 0.53201 0.56031
 C1557 C 0.11738 0.49257 0.49580
 C1558 C 0.13060 0.48979 0.47838
 C1559 C 0.14756 0.50342 0.47510
 C1560 C 0.15143 0.51992 0.48920
 C1561 C 0.08982 0.49784 0.53154
 C1562 C 0.07511 0.48602 0.53440
 C1563 C 0.15986 0.55408 0.51800
 C1564 C 0.17459 0.56589 0.51517
 H1565 H 0.14528 0.57036 0.55186
 H1566 H 0.12200 0.57492 0.58214
 H1567 H 0.09187 0.55073 0.58796
 H1568 H 0.08483 0.52184 0.56353
 H1569 H 0.10439 0.48156 0.49768
 H1570 H 0.12766 0.47700 0.46738
 H1571 H 0.15778 0.50120 0.46155
 H1572 H 0.16482 0.53010 0.48597
 C1573 C 0.14288 0.45988 -0.02178
 C1574 C 0.13923 0.47681 -0.00757
 C1575 C 0.12192 0.49077 -0.01093
 C1576 C 0.10836 0.48770 -0.02849
 C1577 C 0.11201 0.47077 -0.04269
 C1578 C 0.12932 0.45682 -0.03933
 C1579 C 0.13265 0.44001 -0.05375
 C1580 C 0.11926 0.43707 -0.07099
 C1581 C 0.10233 0.45070 -0.07428
 C1582 C 0.09867 0.46739 -0.06034
 C1583 C 0.11859 0.50758 0.00348
 C1584 C 0.13197 0.51052 0.02073
 C1585 C 0.14890 0.49687 0.02403
 C1586 C 0.15256 0.48019 0.01009
 C1587 C 0.09068 0.50196 -0.03193
 C1588 C 0.07600 0.51378 -0.03480
 C1589 C 0.16057 0.44564 -0.01835
 C1590 C 0.17526 0.43382 -0.01549
 H1591 H 0.14561 0.42898 -0.05186
 H1592 H 0.12204 0.42413 -0.08186
 H1593 H 0.09197 0.44835 -0.08770
 H1594 H 0.08529 0.47757 -0.06357
 H1595 H 0.10563 0.51861 0.00159
 H1596 H 0.12919 0.52346 0.03160
 H1597 H 0.15925 0.49923 0.03745
 H1598 H 0.16593 0.47000 0.01333
 C1599 C 0.64278 0.96061 0.47842
 C1600 C 0.63890 0.97737 0.49277
 C1601 C 0.62154 0.99127 0.48938
 C1602 C 0.60817 0.98832 0.47166
 C1603 C 0.61205 0.97156 0.45732
 C1604 C 0.62940 0.95766 0.46070
 C1605 C 0.63296 0.94103 0.44614
 C1606 C 0.61975 0.93819 0.42874
 C1607 C 0.60278 0.95178 0.42543
 C1608 C 0.59890 0.96829 0.43950
 C1609 C 0.61798 1.00791 0.50393
 C1610 C 0.63119 1.01074 0.52134
 C1611 C 0.64815 0.99716 0.52466
 C1612 C 0.65204 0.98063 0.51059
 C1613 C 0.59045 1.00251 0.46821
 C1614 C 0.57572 1.01428 0.46534
 C1615 C 0.66050 0.94641 0.48188
 C1616 C 0.67521 0.93463 0.48476
 H1617 H 0.64596 0.93005 0.44804
 H1618 H 0.62270 0.92539 0.41776
 H1619 H 0.59256 0.94951 0.41189
 H1620 H 0.58550 0.97844 0.43625
 H1621 H 0.60499 1.01890 0.50203
 H1622 H 0.62823 1.02355 0.53232
 H1623 H 0.65836 0.99942 0.53821
 H1624 H 0.66543 0.97048 0.51384
 C1625 C 0.85712 0.96092 0.52175
 C1626 C 0.87051 0.95797 0.53945
 C1627 C 0.88787 0.97189 0.54284
 C1628 C 0.89172 0.98867 0.52852
 C1629 C 0.87831 0.99163 0.51084
 C1630 C 0.86096 0.97771 0.50744
 C1631 C 0.84779 0.98098 0.48965
 C1632 C 0.85164 0.99753 0.47562
 C1633 C 0.86861 1.01115 0.47894
 C1634 C 0.88184 1.00831 0.49632
 C1635 C 0.90104 0.96862 0.56063
 C1636 C 0.89718 0.95208 0.57467
 C1637 C 0.88021 0.93847 0.57136
 C1638 C 0.86698 0.94131 0.55398
 C1639 C 0.90946 1.00287 0.53197
 C1640 C 0.92419 1.01466 0.53482
 C1641 C 0.83941 0.94668 0.51827
 C1642 C 0.82471 0.93485 0.51538
 H1643 H 0.83440 0.97081 0.48639
 H1644 H 0.84141 0.99981 0.46209
 H1645 H 0.87153 1.02398 0.46800
 H1646 H 0.89483 1.01931 0.49823
 H1647 H 0.91444 0.97879 0.56388
 H1648 H 0.90742 0.94981 0.58820
 H1649 H 0.87728 0.92565 0.58231
 H1650 H 0.85398 0.93031 0.55207
 C1651 C 0.35707 0.46007 0.02157
 C1652 C 0.36097 0.47683 0.00724
 C1653 C 0.37829 0.49078 0.01070
 C1654 C 0.39160 0.48787 0.02846
 C1655 C 0.38770 0.47111 0.04278
 C1656 C 0.37038 0.45717 0.03933
 C1657 C 0.36678 0.44053 0.05388
 C1658 C 0.37993 0.43774 0.07133
 C1659 C 0.39687 0.45137 0.07470
 C1660 C 0.40079 0.46789 0.06065
 C1661 C 0.38188 0.50743 -0.00384
 C1662 C 0.36873 0.51022 -0.02129
 C1663 C 0.35180 0.49658 -0.02467
 C1664 C 0.34789 0.48005 -0.01063
 C1665 C 0.40931 0.50210 0.03197
 C1666 C 0.42401 0.51391 0.03489
 C1667 C 0.33938 0.44581 0.01803
 C1668 C 0.32470 0.43398 0.01510
 H1669 H 0.35381 0.42951 0.05193
 H1670 H 0.37696 0.42493 0.08230
 H1671 H 0.40704 0.44914 0.08829
 H1672 H 0.41416 0.47808 0.06395
 H1673 H 0.39484 0.51845 -0.00188
 H1674 H 0.37170 0.52303 -0.03225
 H1675 H 0.34163 0.49881 -0.03825
 H1676 H 0.33452 0.46986 -0.01393
 C1677 C 0.53984 0.47823 0.35737
 C1678 C 0.54275 0.46048 0.37071
 C1679 C 0.52884 0.45707 0.38804
 C1680 C 0.51210 0.47145 0.39193
 C1681 C 0.50918 0.48919 0.37859
 C1682 C 0.52309 0.49260 0.36126
 C1683 C 0.51987 0.51046 0.34815
 C1684 C 0.50336 0.52454 0.35205
 C1685 C 0.48975 0.52121 0.36898
 C1686 C 0.49255 0.50377 0.38216
 C1687 C 0.53206 0.43922 0.40115
 C1688 C 0.54856 0.42512 0.39725
 C1689 C 0.56216 0.42845 0.38031
 C1690 C 0.55937 0.44589 0.36714
 C1691 C 0.49789 0.46798 0.40964
 C1692 C 0.48611 0.46511 0.42434
 C1693 C 0.55406 0.48171 0.33968
 C1694 C 0.56587 0.48460 0.32500
 H1695 H 0.53003 0.51372 0.33478
 H1696 H 0.50112 0.53812 0.34186
 H1697 H 0.47695 0.53220 0.37194
 H1698 H 0.48155 0.50185 0.39513
 H1699 H 0.52190 0.43596 0.41453
 H1700 H 0.55080 0.41155 0.40744
 H1701 H 0.57495 0.41745 0.37735
 H1702 H 0.57036 0.44780 0.35415
 C1703 C 0.03972 -0.02159 0.85643
 C1704 C 0.04272 -0.03919 0.86996
 C1705 C 0.02881 -0.04250 0.88730
 C1706 C 0.01197 -0.02819 0.89102
 C1707 C 0.00895 -0.01061 0.87749
 C1708 C 0.02287 -0.00729 0.86015
 C1709 C 0.01954 0.01040 0.84685
 C1710 C 0.00294 0.02442 0.85057
 C1711 C -0.01067 0.02118 0.86753
 C1712 C -0.00777 0.00390 0.88089
 C1713 C 0.03213 -0.06019 0.90061
 C1714 C 0.04872 -0.07422 0.89688
 C1715 C 0.06232 -0.07099 0.87992
 C1716 C 0.05943 -0.05370 0.86656
 C1717 C -0.00223 -0.03156 0.90875
 C1718 C -0.01400 -0.03436 0.92348
 C1719 C 0.05395 -0.01819 0.83874
 C1720 C 0.06578 -0.01537 0.82405
 H1721 H 0.02971 0.01359 0.83345
 H1722 H 0.00063 0.03788 0.84024
 H1723 H -0.02354 0.03212 0.87035
 H1724 H -0.01877 0.00205 0.89387
 H1725 H 0.02197 -0.06338 0.91400
 H1726 H 0.05104 -0.08767 0.90721
 H1727 H 0.07519 -0.08193 0.87708
 H1728 H 0.07043 -0.05186 0.85357
 C1729 C 0.03992 0.02137 0.64243
 C1730 C 0.04283 0.03915 0.62912
 C1731 C 0.02887 0.04261 0.61186
 C1732 C 0.01207 0.02827 0.60801
 C1733 C 0.00917 0.01049 0.62132
 C1734 C 0.02314 0.00703 0.63858
 C1735 C 0.01992 -0.01086 0.65166
 C1736 C 0.00337 -0.02492 0.64780
 C1737 C -0.01030 -0.02154 0.63093
 C1738 C -0.00751 -0.00406 0.61779
 C1739 C 0.03209 0.06049 0.59877
 C1740 C 0.04864 0.07455 0.60263
 C1741 C 0.06229 0.07118 0.61951
 C1742 C 0.05950 0.05371 0.63266
 C1743 C -0.00220 0.03181 0.59039
 C1744 C -0.01406 0.03474 0.57577
 C1745 C 0.05418 0.01786 0.66008
 C1746 C 0.06600 0.01494 0.67474
 H1747 H 0.03013 -0.01417 0.66498
 H1748 H 0.00113 -0.03852 0.65796
 H1749 H -0.02313 -0.03251 0.62800
 H1750 H -0.01854 -0.00211 0.60486
 H1751 H 0.02189 0.06379 0.58544
 H1752 H 0.05088 0.08815 0.59246
 H1753 H 0.07513 0.08215 0.62244
 H1754 H 0.07054 0.05176 0.64558
 C1755 C 0.54008 0.52159 0.14326
 C1756 C 0.54300 0.53941 0.13000
 C1757 C 0.52911 0.54285 0.11267
 C1758 C 0.51238 0.52847 0.10871
 C1759 C 0.50946 0.51065 0.12196
 C1760 C 0.52335 0.50720 0.13929
 C1761 C 0.52012 0.48928 0.15232
 C1762 C 0.50364 0.47517 0.14834
 C1763 C 0.49006 0.47854 0.13141
 C1764 C 0.49286 0.49605 0.11831
 C1765 C 0.53234 0.56077 0.09963
 C1766 C 0.54882 0.57488 0.10361
 C1767 C 0.56240 0.57152 0.12055
 C1768 C 0.55959 0.55401 0.13365
 C1769 C 0.49820 0.53199 0.09101
 C1770 C 0.48641 0.53490 0.07632
 C1771 C 0.55427 0.51807 0.16095
 C1772 C 0.56605 0.51516 0.17565
 H1773 H 0.53027 0.48598 0.16568
 H1774 H 0.50139 0.46154 0.15847
 H1775 H 0.47727 0.46754 0.12839
 H1776 H 0.48188 0.49800 0.10534
 H1777 H 0.52220 0.56407 0.08626
 H1778 H 0.55107 0.58851 0.09348
 H1779 H 0.57518 0.58253 0.12357
 H1780 H 0.57057 0.55207 0.14663
 C1781 C 0.46020 -0.02216 0.14325
 C1782 C 0.47695 -0.00778 0.13936
 C1783 C 0.49083 -0.01115 0.12200
 C1784 C 0.48788 -0.02888 0.10863
 C1785 C 0.47113 -0.04326 0.11251
 C1786 C 0.45725 -0.03990 0.12987
 C1787 C 0.44063 -0.05450 0.13344
 C1788 C 0.43780 -0.07192 0.12023
 C1789 C 0.45136 -0.07521 0.10325
 C1790 C 0.46787 -0.06110 0.09936
 C1791 C 0.50746 0.00344 0.11844
 C1792 C 0.51030 0.02087 0.13165
 C1793 C 0.49672 0.02416 0.14862
 C1794 C 0.48022 0.01006 0.15251
 C1795 C 0.50204 -0.03231 0.09088
 C1796 C 0.51380 -0.03516 0.07615
 C1797 C 0.44601 -0.01871 0.16097
 C1798 C 0.43423 -0.01584 0.17568
 H1799 H 0.42967 -0.05262 0.14645
 H1800 H 0.42500 -0.08293 0.12319
 H1801 H 0.44909 -0.08877 0.09303
 H1802 H 0.47800 -0.06433 0.08595
 H1803 H 0.51843 0.00155 0.10544
 H1804 H 0.52310 0.03187 0.12869
 H1805 H 0.49899 0.03772 0.15883
 H1806 H 0.47007 0.01330 0.16591
 C1807 C 0.95996 0.47858 0.64265
 C1808 C 0.97671 0.49297 0.63879
 C1809 C 0.99061 0.48960 0.62144
 C1810 C 0.98767 0.47187 0.60806
 C1811 C 0.97092 0.45749 0.61192
 C1812 C 0.95703 0.46085 0.62927
 C1813 C 0.94040 0.44625 0.63282
 C1814 C 0.93758 0.42883 0.61960
 C1815 C 0.95116 0.42555 0.60263
 C1816 C 0.96767 0.43966 0.59876
 C1817 C 1.00724 0.50420 0.61790
 C1818 C 1.01006 0.52162 0.63111
 C1819 C 0.99646 0.52491 0.64807
 C1820 C 0.97995 0.51081 0.65194
 C1821 C 1.00187 0.46844 0.59035
 C1822 C 1.01366 0.46559 0.57563
 C1823 C 0.94576 0.48201 0.66037
 C1824 C 0.93396 0.48486 0.67508
 H1825 H 0.92942 0.44813 0.64581
 H1826 H 0.92478 0.41782 0.62254
 H1827 H 0.94891 0.41199 0.59241
 H1828 H 0.97782 0.43643 0.58537
 H1829 H 1.01823 0.50231 0.60491
 H1830 H 1.02286 0.53263 0.62817
 H1831 H 0.99872 0.53848 0.65828
 H1832 H 0.96980 0.51404 0.66533
 C1833 C 0.95976 0.52148 0.85701
 C1834 C 0.95682 0.53922 0.87037
 C1835 C 0.97073 0.54263 0.88769
 C1836 C 0.98749 0.52828 0.89156
 C1837 C 0.99041 0.51052 0.87821
 C1838 C 0.97650 0.50711 0.86088
 C1839 C 0.97974 0.48925 0.84776
 C1840 C 0.99625 0.47517 0.85165
 C1841 C 1.00985 0.47850 0.86858
 C1842 C 1.00704 0.49595 0.88176
 C1843 C 0.96748 0.56047 0.90083
 C1844 C 0.95097 0.57455 0.89696
 C1845 C 0.93737 0.57122 0.88002
 C1846 C 0.94019 0.55379 0.86682
 C1847 C 1.00172 0.53179 0.90923
 C1848 C 1.01354 0.53471 0.92389
 C1849 C 0.94558 0.51801 0.83928
 C1850 C 0.93380 0.51515 0.82457
 H1851 H 0.96958 0.48598 0.83439
 H1852 H 0.99849 0.46159 0.84145
 H1853 H 1.02265 0.46752 0.87153
 H1854 H 1.01803 0.49787 0.89474
 H1855 H 0.97764 0.56374 0.91421
 H1856 H 0.94871 0.58812 0.90717
 H1857 H 0.92457 0.58220 0.87708
 H1858 H 0.92920 0.55187 0.85384
 C1859 C 0.46031 0.02114 0.35737
 C1860 C 0.45740 0.03890 0.37072
 C1861 C 0.47133 0.04232 0.38803
 C1862 C 0.48810 0.02798 0.39187
 C1863 C 0.49102 0.01023 0.37852
 C1864 C 0.47708 0.00680 0.36122
 C1865 C 0.48031 -0.01106 0.34809
 C1866 C 0.49684 -0.02512 0.35194
 C1867 C 0.51047 -0.02177 0.36885
 C1868 C 0.50767 -0.00433 0.38204
 C1869 C 0.46810 0.06018 0.40115
 C1870 C 0.45158 0.07426 0.39730
 C1871 C 0.43796 0.07091 0.38038
 C1872 C 0.44076 0.05346 0.36719
 C1873 C 0.50232 0.03147 0.40955
 C1874 C 0.51413 0.03438 0.42422
 C1875 C 0.44607 0.01764 0.33971
 C1876 C 0.43425 0.01474 0.32503
 H1877 H 0.47012 -0.01434 0.33474
 H1878 H 0.49908 -0.03870 0.34175
 H1879 H 0.52329 -0.03274 0.37178
 H1880 H 0.51868 -0.00239 0.39499
 H1881 H 0.47828 0.06346 0.41451
 H1882 H 0.44934 0.08783 0.40749
 H1883 H 0.42515 0.08189 0.37745
 H1884 H 0.42975 0.05154 0.35423
   
