data_POSCAR
  _audit_creation_date              2014-09-24
  _audit_creation_method            'ToBaCCo'
  _symmetry_space_group_name_H-M    'P1'
  _symmetry_Int_Tables_number       1
  _symmetry_cell_setting            triclinic
  loop_
  _symmetry_equiv_pos_as_xyz
 x,y,z
_cell_length_a 41.4977
_cell_length_b 41.6893
_cell_length_c 41.6192
_cell_angle_alpha 89.573300
_cell_angle_beta 92.318100
_cell_angle_gamma 88.766100
loop_
  _atom_site_label
  _atom_site_type_symbol
  _atom_site_fract_x
  _atom_site_fract_y
  _atom_site_fract_z
C1 C 0.12894 -0.02024 0.25652
 C2 C 0.11350 0.00512 0.27173
 C3 C 0.10705 0.00250 0.30433
 C4 C 0.11681 -0.02493 0.32210
 C5 C 0.13380 -0.04987 0.30696
 C6 C 0.13934 -0.04796 0.27369
 C7 C 0.10523 0.03491 0.25373
 C8 C 0.08981 0.03389 0.22303
 C9 C 0.08214 0.06245 0.20593
 C10 C 0.08995 0.09186 0.22015
 C11 C 0.10669 0.09279 0.24985
 C12 C 0.11425 0.06447 0.26670
 H13 H 0.13377 -0.01771 0.23123
 H14 H 0.09466 0.02212 0.31593
 H15 H 0.08338 0.01090 0.21300
 H16 H 0.12769 0.06540 0.28955
 H17 H 0.14129 -0.07103 0.32079
 H18 H 0.08483 0.11427 0.20735
 C19 C 0.38367 -0.05290 0.75276
 C20 C 0.39011 -0.02036 0.74787
 C21 C 0.40427 -0.01107 0.71932
 C22 C 0.41017 -0.03324 0.69512
 C23 C 0.40505 -0.06583 0.70073
 C24 C 0.39141 -0.07567 0.72944
 C25 C 0.37903 0.00452 0.77051
 C26 C 0.38122 -0.00042 0.80394
 C27 C 0.36982 0.02322 0.82505
 C28 C 0.35602 0.05193 0.81208
 C29 C 0.35592 0.05778 0.77889
 C30 C 0.36646 0.03385 0.75838
 H31 H 0.37174 -0.06045 0.77414
 H32 H 0.40930 0.01396 0.71503
 H33 H 0.39178 -0.02270 0.81337
 H34 H 0.36466 0.03835 0.73270
 H35 H 0.40892 -0.08305 0.68181
 H36 H 0.34813 0.07090 0.82782
 C37 C 0.88068 0.47696 0.24819
 C38 C 0.89279 0.50712 0.24070
 C39 C 0.90118 0.51333 0.20896
 C40 C 0.89482 0.49105 0.18464
 C41 C 0.88180 0.46114 0.19234
 C42 C 0.87585 0.45374 0.22454
 C43 C 0.89278 0.53298 0.26509
 C44 C 0.89616 0.52573 0.29816
 C45 C 0.88718 0.54840 0.32121
 C46 C 0.87686 0.57921 0.31088
 C47 C 0.87751 0.58766 0.27835
 C48 C 0.88488 0.56461 0.25559
 H49 H 0.87399 0.47143 0.27246
 H50 H 0.91145 0.53609 0.20270
 H51 H 0.90375 0.50179 0.30581
 H52 H 0.88221 0.57117 0.23039
 H53 H 0.87779 0.44339 0.17380
 H54 H 0.87012 0.59724 0.32817
 C55 C 0.61829 0.43716 0.75424
 C56 C 0.61359 0.46890 0.76479
 C57 C 0.61195 0.47414 0.79821
 C58 C 0.61919 0.44924 0.82035
 C59 C 0.62552 0.41830 0.80928
 C60 C 0.62368 0.41201 0.77633
 C61 C 0.61480 0.49645 0.74155
 C62 C 0.60838 0.49238 0.70827
 C63 C 0.61636 0.51615 0.68604
 C64 C 0.62890 0.54524 0.69718
 C65 C 0.63243 0.55080 0.73029
 C66 C 0.62602 0.52636 0.75210
 H67 H 0.62006 0.43180 0.72900
 H68 H 0.60645 0.49774 0.80739
 H69 H 0.59832 0.47033 0.69925
 H70 H 0.63154 0.53067 0.77728
 H71 H 0.63081 0.39892 0.82632
 H72 H 0.63455 0.56395 0.68021
 C73 C 0.25448 0.12254 1.05207
 C74 C 0.24778 0.11639 1.01934
 C75 C 0.21856 0.10243 1.01023
 C76 C 0.19535 0.09559 1.03258
 C77 C 0.20298 0.09991 1.06544
 C78 C 0.23226 0.11405 1.07522
 C79 C 0.27008 0.12519 0.99383
 C80 C 0.30343 0.11950 0.99785
 C81 C 0.32414 0.12628 0.97274
 C82 C 0.31088 0.13880 0.94336
 C83 C 0.27736 0.14221 0.93846
 C84 C 0.25740 0.13659 0.96395
 H85 H 0.27665 0.13410 1.05952
 H86 H 0.21371 0.09690 0.98512
 H87 H 0.31311 0.10961 1.02045
 H88 H 0.23165 0.14063 0.96006
 H89 H 0.18536 0.09477 1.08318
 H90 H 0.32620 0.14298 0.92332
 C91 C 0.77665 0.36243 1.04606
 C92 C 0.77202 0.37638 1.01533
 C93 C 0.79442 0.39809 1.00443
 C94 C 0.82234 0.40443 1.02281
 C95 C 0.82788 0.38910 1.05266
 C96 C 0.80482 0.36849 1.06497
 C97 C 0.74540 0.36655 0.99322
 C98 C 0.71354 0.36622 1.00305
 C99 C 0.68856 0.35586 0.98196
 C100 C 0.69614 0.34489 0.95113
 C101 C 0.72758 0.34767 0.94044
 C102 C 0.75203 0.35816 0.96158
 H103 H 0.75918 0.34558 1.05419
 H104 H 0.79044 0.40951 0.98107
 H105 H 0.70833 0.37410 1.02708
 H106 H 0.77646 0.35936 0.95340
 H107 H 0.84960 0.39431 1.06681
 H108 H 0.67721 0.33734 0.93432
 C109 C 0.24146 0.87306 0.54834
 C110 C 0.24089 0.87806 0.51513
 C111 C 0.26518 0.89601 0.50172
 C112 C 0.29071 0.90833 0.52075
 C113 C 0.29061 0.90371 0.55440
 C114 C 0.26621 0.88564 0.56815
 C115 C 0.21567 0.86390 0.49382
 C116 C 0.18294 0.86722 0.50034
 C117 C 0.15914 0.85731 0.47777
 C118 C 0.16826 0.84377 0.44850
 C119 C 0.20102 0.84126 0.44161
 C120 C 0.22437 0.85011 0.46482
 H121 H 0.22277 0.85900 0.55868
 H122 H 0.26414 0.90013 0.47595
 H123 H 0.17593 0.87892 0.52223
 H124 H 0.24966 0.84808 0.45933
 H125 H 0.31001 0.91270 0.56976
 H126 H 0.15005 0.83829 0.43008
 C127 C 0.74546 0.61249 0.54050
 C128 C 0.73347 0.60807 0.50871
 C129 C 0.69992 0.60510 0.50330
 C130 C 0.67880 0.61014 0.52830
 C131 C 0.69113 0.61617 0.55937
 C132 C 0.72447 0.61607 0.56570
 C133 C 0.75538 0.61090 0.48129
 C134 C 0.78863 0.60385 0.48545
 C135 C 0.81054 0.61419 0.46279
 C136 C 0.79848 0.62966 0.43448
 C137 C 0.76515 0.63320 0.42835
 C138 C 0.74387 0.62445 0.45187
 H139 H 0.77097 0.61537 0.54576
 H140 H 0.68991 0.60013 0.47949
 H141 H 0.79762 0.59195 0.50727
 H142 H 0.71847 0.62996 0.44751
 H143 H 0.67483 0.61978 0.57881
 H144 H 0.81480 0.63725 0.41634
 C145 C -0.02171 0.27253 0.15754
 C146 C -0.00180 0.28107 0.13272
 C147 C -0.00001 0.31321 0.12309
 C148 C -0.01717 0.33726 0.13921
 C149 C -0.03541 0.32851 0.16551
 C150 C -0.03820 0.29624 0.17408
 C151 C 0.01835 0.25632 0.11814
 C152 C 0.00402 0.23016 0.10327
 C153 C 0.02277 0.20464 0.09157
 C154 C 0.05686 0.20608 0.09513
 C155 C 0.07132 0.23215 0.11135
 C156 C 0.05179 0.25736 0.12207
 H157 H -0.02341 0.24759 0.16477
 H158 H 0.01535 0.31922 0.10360
 H159 H -0.02210 0.22984 0.10122
 H160 H 0.06251 0.27751 0.13451
 H161 H -0.04868 0.34654 0.17857
 H162 H 0.07196 0.18645 0.08715
 C163 C -0.05216 0.74900 0.37478
 C164 C -0.01903 0.74168 0.37592
 C165 C -0.00854 0.70983 0.38162
 C166 C -0.03093 0.68603 0.38802
 C167 C -0.06404 0.69415 0.38840
 C168 C -0.07472 0.72555 0.38066
 C169 C 0.00360 0.76747 0.36866
 C170 C -0.00232 0.79865 0.38017
 C171 C 0.01301 0.82491 0.36698
 C172 C 0.03571 0.81985 0.34358
 C173 C 0.04348 0.78881 0.33367
 C174 C 0.02758 0.76252 0.34621
 H175 H -0.06064 0.77308 0.36840
 H176 H 0.01696 0.70364 0.38162
 H177 H -0.02066 0.80274 0.39758
 H178 H 0.03201 0.73882 0.33657
 H179 H -0.08144 0.67572 0.39260
 H180 H 0.04726 0.84016 0.33282
 C181 C 0.45384 0.22976 0.85707
 C182 C 0.48697 0.22411 0.86276
 C183 C 0.49798 0.19263 0.86971
 C184 C 0.47624 0.16774 0.87435
 C185 C 0.44283 0.17488 0.87218
 C186 C 0.43174 0.20569 0.86254
 C187 C 0.50933 0.25147 0.86596
 C188 C 0.49856 0.28055 0.87906
 C189 C 0.52007 0.30495 0.88752
 C190 C 0.55331 0.29947 0.88349
 C191 C 0.56424 0.27097 0.86927
 C192 C 0.54212 0.24761 0.85983
 H193 H 0.44492 0.25346 0.84989
 H194 H 0.52351 0.18788 0.87423
 H195 H 0.47341 0.28356 0.88453
 H196 H 0.55081 0.22571 0.84898
 H197 H 0.42550 0.15635 0.87621
 H198 H 0.57065 0.31744 0.89043
 C199 C 0.44557 0.74668 0.62427
 C200 C 0.47721 0.74870 0.61360
 C201 C 0.48471 0.77355 0.59240
 C202 C 0.46126 0.79649 0.58262
 C203 C 0.42984 0.79423 0.59310
 C204 C 0.42171 0.76910 0.61353
 C205 C 0.50229 0.72446 0.62355
 C206 C 0.49547 0.69168 0.62283
 C207 C 0.51950 0.66858 0.63113
 C208 C 0.55053 0.67845 0.64099
 C209 C 0.55792 0.71119 0.64046
 C210 C 0.53374 0.73395 0.63188
 H211 H 0.43934 0.72730 0.64020
 H212 H 0.50871 0.77493 0.58319
 H213 H 0.47169 0.68403 0.61480
 H214 H 0.53949 0.75920 0.63176
 H215 H 0.41154 0.81163 0.58471
 H216 H 0.56942 0.66070 0.64664
 C217 C 0.85702 1.02299 0.75921
 C218 C 0.86847 0.99117 0.75801
 C219 C 0.88984 0.97929 0.78255
 C220 C 0.89981 0.99887 0.80822
 C221 C 0.88875 1.03107 0.80842
 C222 C 0.86795 1.04328 0.78372
 C223 C 0.86225 0.97178 0.72892
 C224 C 0.86593 0.98556 0.69858
 C225 C 0.86865 0.96650 0.67110
 C226 C 0.86616 0.93281 0.67440
 C227 C 0.85872 0.91919 0.70444
 C228 C 0.85711 0.93888 0.73143
 H229 H 0.84120 1.03250 0.73992
 H230 H 0.89934 0.95494 0.78115
 H231 H 0.87000 1.01110 0.69692
 H232 H 0.85337 0.92833 0.75484
 H233 H 0.89713 1.04723 0.82702
 H234 H 0.86835 0.91750 0.65366
 C235 C 0.34683 0.53173 0.24998
 C236 C 0.36682 0.50630 0.26131
 C237 C 0.37604 0.50455 0.29401
 C238 C 0.36542 0.52812 0.31535
 C239 C 0.34560 0.55391 0.30351
 C240 C 0.33633 0.55578 0.27062
 C241 C 0.37822 0.48207 0.23843
 C242 C 0.39052 0.49225 0.20933
 C243 C 0.39983 0.47012 0.18631
 C244 C 0.39727 0.43708 0.19258
 C245 C 0.38388 0.42649 0.22133
 C246 C 0.37474 0.44916 0.24427
 H247 H 0.33944 0.53279 0.22470
 H248 H 0.39127 0.48469 0.30282
 H249 H 0.39245 0.51769 0.20430
 H250 H 0.36413 0.44127 0.26627
 H251 H 0.33712 0.57209 0.31980
 H252 H 0.40351 0.41991 0.17431
 C253 C 0.65229 1.05172 0.23738
 C254 C 0.63366 1.02548 0.22890
 C255 C 0.62450 1.02054 0.19686
 C256 C 0.63419 1.04137 0.17275
 C257 C 0.65378 1.06772 0.18123
 C258 C 0.66283 1.07288 0.21390
 C259 C 0.62397 1.00280 0.25356
 C260 C 0.60571 1.01376 0.27872
 C261 C 0.59531 0.99254 0.30230
 C262 C 0.60358 0.95953 0.29996
 C263 C 0.62192 0.94835 0.27426
 C264 C 0.63213 0.97026 0.25138
 H265 H 0.65951 1.05506 0.26246
 H266 H 0.61022 0.99982 0.19076
 H267 H 0.59962 1.03916 0.27963
 H268 H 0.64592 0.96200 0.23136
 H269 H 0.66244 1.08338 0.16275
 H270 H 0.59547 0.94251 0.31750
 C271 C 0.12597 0.55645 0.75591
 C272 C 0.11936 0.52463 0.74656
 C273 C 0.10872 0.51908 0.71458
 C274 C 0.10772 0.54371 0.69171
 C275 C 0.11419 0.57511 0.70118
 C276 C 0.12243 0.58181 0.73338
 C277 C 0.12473 0.49669 0.76899
 C278 C 0.11908 0.49913 0.80208
 C279 C 0.12350 0.47216 0.82246
 C280 C 0.13237 0.44242 0.80949
 C281 C 0.13728 0.43952 0.77662
 C282 C 0.13458 0.46667 0.75681
 H283 H 0.13413 0.56155 0.78034
 H284 H 0.10250 0.49519 0.70683
 H285 H 0.11121 0.52177 0.81202
 H286 H 0.13958 0.46392 0.73164
 H287 H 0.11308 0.59431 0.68342
 H288 H 0.13441 0.42126 0.82480
 C289 C 0.73716 0.84554 -0.04340
 C290 C 0.72940 0.85817 -0.01331
 C291 C 0.69691 0.86448 -0.00691
 C292 C 0.67246 0.85886 -0.03028
 C293 C 0.68076 0.84781 -0.06079
 C294 C 0.71323 0.84158 -0.06759
 C295 C 0.75539 0.86874 0.00954
 C296 C 0.78198 0.88427 -0.00241
 C297 C 0.80681 0.89574 0.01806
 C298 C 0.80395 0.89250 0.05164
 C299 C 0.77682 0.87765 0.06416
 C300 C 0.75301 0.86539 0.04289
 H301 H 0.76214 0.84100 -0.04891
 H302 H 0.69064 0.87475 0.01590
 H303 H 0.78305 0.88777 -0.02815
 H304 H 0.73224 0.85379 0.05230
 H305 H 0.66216 0.84532 -0.07960
 H306 H 0.82241 0.90165 0.06804
 C307 C 0.24157 0.37124 0.44374
 C308 C 0.23502 0.37656 0.47626
 C309 C 0.20339 0.38560 0.48410
 C310 C 0.17862 0.38798 0.46026
 C311 C 0.18586 0.38363 0.42785
 C312 C 0.21750 0.37577 0.41942
 C313 C 0.26107 0.37224 0.50184
 C314 C 0.29330 0.37917 0.49535
 C315 C 0.31804 0.37431 0.51887
 C316 C 0.31044 0.36438 0.54985
 C317 C 0.27838 0.35861 0.55717
 C318 C 0.25401 0.36151 0.53297
 H319 H 0.26547 0.36364 0.43707
 H320 H 0.19760 0.39002 0.50883
 H321 H 0.29944 0.38821 0.47198
 H322 H 0.22951 0.35621 0.53888
 H323 H 0.16681 0.38578 0.40932
 H324 H 0.32935 0.36205 0.56853
 C325 C 0.28326 0.63324 -0.05402
 C326 C 0.29181 0.62568 -0.02199
 C327 C 0.32420 0.61987 -0.01267
 C328 C 0.34803 0.62159 -0.03549
 C329 C 0.33923 0.62867 -0.06776
 C330 C 0.30674 0.63443 -0.07698
 C331 C 0.26645 0.62486 0.00145
 C332 C 0.24006 0.60533 -0.00393
 C333 C 0.21267 0.60790 0.01486
 C334 C 0.21271 0.63042 0.04019
 C335 C 0.23987 0.64981 0.04581
 C336 C 0.26654 0.64660 0.02650
 H337 H 0.25815 0.63791 -0.06114
 H338 H 0.33081 0.61426 0.01224
 H339 H 0.24071 0.58893 -0.02401
 H340 H 0.28699 0.66215 0.03002
 H341 H 0.35752 0.62957 -0.08561
 H342 H 0.19188 0.63347 0.05480
 C343 C 0.74852 0.15305 0.47299
 C344 C 0.76081 0.13124 0.49621
 C345 C 0.79366 0.12272 0.49741
 C346 C 0.81467 0.13610 0.47541
 C347 C 0.80182 0.15821 0.45207
 C348 C 0.76865 0.16637 0.45061
 C349 C 0.73862 0.11641 0.51827
 C350 C 0.71394 0.09724 0.50588
 C351 C 0.69151 0.08403 0.52613
 C352 C 0.69409 0.09008 0.55936
 C353 C 0.71910 0.10922 0.57207
 C354 C 0.74126 0.12230 0.55128
 H355 H 0.72294 0.15907 0.47194
 H356 H 0.80253 0.10578 0.51570
 H357 H 0.71207 0.09288 0.48022
 H358 H 0.76059 0.13707 0.56066
 H359 H 0.81735 0.16864 0.43467
 H360 H 0.67692 0.07977 0.57520
 C361 C 1.05473 0.77123 0.85718
 C362 C 1.02310 0.76840 0.86708
 C363 C 1.01136 0.78976 0.88974
 C364 C 1.03081 0.81386 0.90306
 C365 C 1.06307 0.81597 0.89336
 C366 C 1.07537 0.79405 0.87089
 C367 C 1.00532 0.73870 0.86049
 C368 C 1.02091 0.70962 0.86873
 C369 C 1.00356 0.68158 0.87330
 C370 C 0.96985 0.68263 0.86676
 C371 C 0.95416 0.71136 0.85588
 C372 C 0.97207 0.73934 0.85302
 H373 H 1.06398 0.75356 0.84077
 H374 H 0.98717 0.78657 0.89799
 H375 H 1.04650 0.70982 0.87504
 H376 H 0.95985 0.76200 0.84714
 H377 H 1.07899 0.83343 0.90423
 H378 H 0.95565 0.66152 0.87041
 C379 C 0.53659 0.26384 0.34050
 C380 C 0.51228 0.27245 0.36130
 C381 C 0.50887 0.30426 0.37118
 C382 C 0.52961 0.32781 0.36048
 C383 C 0.55430 0.31896 0.33960
 C384 C 0.55781 0.28683 0.32949
 C385 C 0.49013 0.24823 0.37278
 C386 C 0.50186 0.22295 0.39253
 C387 C 0.48076 0.20041 0.40458
 C388 C 0.44747 0.20353 0.39671
 C389 C 0.43552 0.22897 0.37683
 C390 C 0.45709 0.25111 0.36490
 H391 H 0.53898 0.23910 0.33293
 H392 H 0.48965 0.31065 0.38697
 H393 H 0.52748 0.22097 0.39862
 H394 H 0.44818 0.27100 0.34989
 H395 H 0.57040 0.33694 0.33101
 H396 H 0.43094 0.18641 0.40615
 C397 C 1.03450 0.24264 0.63332
 C398 C 1.00148 0.23663 0.62931
 C399 C 0.99186 0.20533 0.62176
 C400 C 1.01448 0.18062 0.61619
 C401 C 1.04756 0.18785 0.61778
 C402 C 1.05760 0.21851 0.62769
 C403 C 0.97681 0.26279 0.63254
 C404 C 0.98215 0.29428 0.62123
 C405 C 0.95828 0.31858 0.62384
 C406 C 0.92811 0.31028 0.63554
 C407 C 0.92203 0.27881 0.64519
 C408 C 0.94684 0.25575 0.64530
 H409 H 1.04237 0.26623 0.64056
 H410 H 0.96643 0.20045 0.61843
 H411 H 1.00499 0.29994 0.61110
 H412 H 0.94205 0.23180 0.65388
 H413 H 1.06551 0.16926 0.61359
 H414 H 0.90867 0.32805 0.63602
 C415 C 0.54916 0.74709 0.12583
 C416 C 0.51723 0.73682 0.12411
 C417 C 0.51126 0.70431 0.11757
 C418 C 0.53680 0.68281 0.11150
 C419 C 0.56849 0.69399 0.11169
 C420 C 0.57474 0.72596 0.11982
 C421 C 0.49078 0.75981 0.13156
 C422 C 0.49166 0.79202 0.12137
 C423 C 0.46893 0.81482 0.13155
 C424 C 0.44386 0.80462 0.15098
 C425 C 0.44226 0.77216 0.16058
 C426 C 0.46602 0.75024 0.15110
 H427 H 0.55435 0.77152 0.13273
 H428 H 0.48681 0.69566 0.11708
 H429 H 0.51091 0.79962 0.10644
 H430 H 0.46550 0.72562 0.15956
 H431 H 0.58836 0.67734 0.10784
 H432 H 0.42613 0.82188 0.15908
 O433 O -0.01014 0.97275 0.91789
 O434 O 0.04162 0.99851 0.92192
 O435 O -0.01168 0.91047 0.99635
 O436 O 0.00136 0.91701 1.05542
 O437 O -0.08917 0.97521 0.97920
 O438 O -0.09817 1.03158 0.98908
 O439 O 0.05358 1.01663 1.08355
 O440 O 0.06392 0.96348 1.07190
 O441 O 0.06112 1.06968 0.99937
 O442 O 0.03737 1.07183 0.94883
 O443 O -0.02359 1.07958 1.05769
 O444 O -0.07189 1.04562 1.06350
 O445 O 0.00456 1.03928 1.09311
 O446 O -0.04933 1.01302 1.09316
 O447 O 0.01077 1.09529 1.01981
 O448 O -0.00936 1.09091 0.96000
 O449 O 0.08272 1.03247 1.03474
 O450 O 0.08932 0.97412 1.02184
 O451 O -0.05720 0.99874 0.92870
 O452 O -0.07543 1.04740 0.94923
 O453 O -0.06902 0.93821 1.01551
 O454 O -0.04291 0.93436 1.06551
 O455 O 0.01725 0.92821 0.95475
 O456 O 0.06575 0.95935 0.95765
 Zr457 Zr 0.01784 0.97786 0.96105
 O458 O 0.04178 1.01262 0.98863
 Zr459 Zr -0.02088 0.95200 1.02427
 O460 O 0.00170 0.98599 1.05456
 Zr461 Zr -0.05351 1.01010 0.97759
 O462 O -0.03256 1.04653 1.00546
 Zr463 Zr 0.04674 0.99757 1.03700
 O464 O 0.02572 0.96067 1.00869
 Zr465 Zr 0.01391 1.05509 0.98965
 O466 O -0.00879 1.02150 0.95900
 Zr467 Zr -0.02491 1.02945 1.05266
 O468 O -0.04954 0.99432 1.02567
 O469 O -0.02768 0.96693 0.97678
 O470 O 0.02057 1.04060 1.03719
 C471 C -0.03839 0.98408 0.90967
 C472 C 0.00441 0.90586 0.97079
 C473 C -0.09170 0.94998 0.99674
 C474 C 0.03431 1.03329 1.10063
 C475 C 0.08434 1.05798 1.01739
 C476 C -0.00628 1.10066 1.04433
 H477 H 0.06290 1.01586 0.97903
 H478 H -0.04658 1.06600 1.00429
 H479 H -0.03887 0.95088 0.96320
 H480 H 0.00429 0.97738 1.07674
 H481 H 0.06130 0.94214 1.06205
 H482 H 0.02137 0.90957 1.04538
 H483 H -0.02524 1.10266 0.97285
 H484 H -0.05765 1.05885 0.93933
 H485 H 0.10716 0.97942 1.03734
 H486 H 0.06719 0.94586 0.93821
 H487 H -0.07923 1.06120 1.04657
 H488 H -0.10316 1.02356 1.01073
 H489 H 0.04353 0.98233 0.90472
 H490 H 0.03175 1.05699 0.93114
 H491 H -0.05524 0.95272 1.07418
 H492 H -0.03471 0.99798 1.10550
 O493 O 0.54167 0.57840 0.50628
 O494 O 0.50018 0.58901 0.46530
 O495 O 0.49642 0.53694 0.58428
 O496 O 0.45713 0.49388 0.58788
 O497 O 0.57843 0.49439 0.54901
 O498 O 0.58754 0.45692 0.50461
 O499 O 0.41205 0.45509 0.49216
 O500 O 0.40348 0.50011 0.52984
 O501 O 0.45250 0.50181 0.41313
 O502 O 0.49655 0.53483 0.40540
 O503 O 0.49800 0.41595 0.45008
 O504 O 0.53237 0.40481 0.50140
 O505 O 0.45034 0.41530 0.49324
 O506 O 0.49260 0.39943 0.52625
 O507 O 0.49975 0.45661 0.41369
 O508 O 0.53433 0.50520 0.40996
 O509 O 0.41338 0.50329 0.44973
 O510 O 0.40246 0.53410 0.49233
 O511 O 0.57937 0.53814 0.50341
 O512 O 0.59031 0.49333 0.47002
 O513 O 0.53871 0.49148 0.58492
 O514 O 0.49335 0.45669 0.58970
 O515 O 0.49606 0.57725 0.54715
 O516 O 0.45996 0.58923 0.50040
 Zr517 Zr 0.49774 0.55406 0.50232
 O518 O 0.46802 0.52892 0.46965
 Zr519 Zr 0.49577 0.49495 0.55631
 O520 O 0.46643 0.46724 0.52550
 Zr521 Zr 0.55347 0.49541 0.50362
 O522 O 0.52633 0.46829 0.47025
 Zr523 Zr 0.43857 0.49757 0.49428
 O524 O 0.46548 0.52583 0.52759
 Zr525 Zr 0.49601 0.49859 0.44125
 O526 O 0.52638 0.52622 0.47194
 Zr527 Zr 0.49450 0.43937 0.49484
 O528 O 0.52434 0.46394 0.52890
 O529 O 0.52640 0.52471 0.53251
 O530 O 0.46472 0.46779 0.46387
 C531 C 0.57102 0.56787 0.50582
 C532 C 0.49683 0.56680 0.57635
 C533 C 0.56852 0.49331 0.57794
 C534 C 0.42084 0.42535 0.49347
 C535 C 0.42286 0.50496 0.42079
 C536 C 0.50131 0.42671 0.42135
 H537 H 0.45496 0.54476 0.45666
 H538 H 0.54172 0.45568 0.45765
 H539 H 0.54009 0.53751 0.54730
 H540 H 0.45301 0.45370 0.53896
 H541 H 0.40727 0.48168 0.54472
 H542 H 0.44226 0.51190 0.58144
 H543 H 0.54947 0.48666 0.41293
 H544 H 0.58375 0.50858 0.45250
 H545 H 0.41269 0.55354 0.50111
 H546 H 0.46882 0.61004 0.50760
 H547 H 0.54774 0.40818 0.48419
 H548 H 0.58081 0.44155 0.52116
 H549 H 0.51711 0.58165 0.45078
 H550 H 0.48431 0.55358 0.41330
 H551 H 0.50950 0.44031 0.58347
 H552 H 0.48397 0.40743 0.54657
 O553 O 0.51652 0.08655 0.48584
 O554 O 0.49789 0.08259 0.53897
 O555 O 0.58180 0.00624 0.47936
 O556 O 0.58106 -0.04673 0.48483
 O557 O 0.50960 0.02590 0.40503
 O558 O 0.45340 0.01482 0.39919
 O559 O 0.48700 -0.08050 0.54653
 O560 O 0.53902 -0.06372 0.55611
 O561 O 0.42789 0.00285 0.56013
 O562 O 0.42257 0.05314 0.53868
 O563 O 0.41434 -0.05722 0.47732
 O564 O 0.43807 -0.06332 0.42841
 O565 O 0.46488 -0.09266 0.49731
 O566 O 0.48052 -0.08498 0.43926
 O567 O 0.39839 -0.01653 0.50941
 O568 O 0.40130 0.04319 0.49301
 O569 O 0.46755 -0.03180 0.57850
 O570 O 0.52419 -0.01534 0.58339
 O571 O 0.48698 0.07566 0.44014
 O572 O 0.43681 0.05302 0.42539
 O573 O 0.55008 -0.00838 0.42221
 O574 O 0.55208 -0.06267 0.44651
 O575 O 0.56611 0.04933 0.50850
 O576 O 0.53826 0.04654 0.55934
 Zr577 Zr 0.51609 0.04322 0.51251
 O578 O 0.48363 0.01543 0.53782
 Zr579 Zr 0.53948 -0.01954 0.46999
 O580 O 0.50912 -0.05001 0.49479
 Zr581 Zr 0.47778 0.02640 0.44304
 O582 O 0.44445 -0.00275 0.46553
 Zr583 Zr 0.50040 -0.03242 0.54093
 O584 O 0.53466 -0.00415 0.51766
 Zr585 Zr 0.43897 0.01304 0.51274
 O586 O 0.46994 0.04436 0.48917
 Zr587 Zr 0.46354 -0.04954 0.47095
 O588 O 0.49491 -0.02144 0.44417
 O589 O 0.52326 0.02781 0.46584
 O590 O 0.45516 -0.03446 0.51759
 C591 C 0.50231 0.09492 0.45889
 C592 C 0.58773 0.03190 0.49528
 C593 C 0.53573 0.00970 0.40077
 C594 C 0.47473 -0.10022 0.52603
 C595 C 0.44153 -0.01509 0.58204
 C596 C 0.39317 -0.04239 0.49365
 H597 H 0.48146 0.02504 0.55932
 H598 H 0.42373 -0.00235 0.45294
 H599 H 0.53828 0.04163 0.45445
 H600 H 0.51933 -0.07167 0.49593
 H601 H 0.55906 -0.05147 0.55437
 H602 H 0.57535 -0.05892 0.50416
 H603 H 0.38947 0.03123 0.47600
 H604 H 0.42833 0.06474 0.44394
 H605 H 0.52178 -0.03142 0.60077
 H606 H 0.55288 0.06504 0.56020
 H607 H 0.42873 -0.04351 0.41829
 H608 H 0.46110 -0.00694 0.39338
 H609 H 0.51450 0.09933 0.54066
 H610 H 0.43904 0.06974 0.53656
 H611 H 0.53728 -0.06447 0.42738
 H612 H 0.49806 -0.09734 0.45084
 O613 O -0.05643 0.44876 1.00674
 O614 O -0.02117 0.42618 0.96873
 O615 O 0.00568 0.46438 1.08916
 O616 O 0.05449 0.49339 1.09809
 O617 O -0.06365 0.53096 1.05635
 O618 O -0.06128 0.57613 1.01886
 O619 O 0.10597 0.52215 1.00217
 O620 O 0.10462 0.47478 1.03596
 O621 O 0.04944 0.50406 0.92204
 O622 O -0.00183 0.48670 0.91024
 O623 O 0.03922 0.59072 0.96697
 O624 O 0.01486 0.61110 1.01192
 O625 O 0.08453 0.57202 1.00941
 O626 O 0.04459 0.59422 1.04900
 O627 O 0.01855 0.55933 0.92712
 O628 O -0.03147 0.52436 0.91999
 O629 O 0.08738 0.48431 0.95818
 O630 O 0.08728 0.44396 1.00354
 O631 O -0.07924 0.49887 1.00413
 O632 O -0.07527 0.55067 0.97876
 O633 O -0.02343 0.51797 1.09319
 O634 O 0.03124 0.53972 1.10069
 O635 O -0.00854 0.42989 1.04913
 O636 O 0.01655 0.41212 1.00027
 Zr637 Zr -0.00657 0.45725 1.00622
 O638 O 0.02800 0.47461 0.97537
 Zr639 Zr 0.01644 0.50667 1.06503
 O640 O 0.05312 0.52520 1.03721
 Zr641 Zr -0.04075 0.52995 1.01195
 O642 O -0.00700 0.55056 0.98212
 Zr643 Zr 0.06729 0.49112 1.00331
 O644 O 0.03409 0.47080 1.03435
 Zr645 Zr 0.00996 0.51562 0.95038
 O646 O -0.02643 0.49564 0.97797
 Zr647 Zr 0.03427 0.56394 1.00946
 O648 O -0.00185 0.54761 1.04010
 O649 O -0.02326 0.49050 1.03838
 O650 O 0.05088 0.53095 0.97617
 C651 C -0.08092 0.46820 1.00436
 C652 C -0.00347 0.43699 1.07897
 C653 C -0.05319 0.52456 1.08529
 C654 C 0.10844 0.55254 1.00526
 C655 C 0.07721 0.49118 0.92934
 C656 C 0.03028 0.58564 0.93756
 H657 H 0.03436 0.45739 0.96055
 H658 H -0.01766 0.56909 0.97079
 H659 H -0.03960 0.48014 1.05134
 H660 H 0.07134 0.53161 1.05160
 H661 H 0.10581 0.49003 1.05403
 H662 H 0.06527 0.47427 1.08904
 H663 H -0.03788 0.54722 0.92222
 H664 H -0.07611 0.53658 0.95974
 H665 H 0.07800 0.43271 0.98459
 H666 H 0.03563 0.41144 1.01534
 H667 H -0.00862 0.60957 1.00737
 H668 H -0.04926 0.58569 1.03734
 H669 H -0.03381 0.43954 0.95277
 H670 H -0.00025 0.46413 0.91766
 H671 H 0.01887 0.55994 1.09619
 H672 H 0.06165 0.58347 1.06273
 O673 O -0.00156 0.41283 0.54463
 O674 O -0.03776 0.41023 0.49767
 O675 O 0.08207 0.46027 0.50659
 O676 O 0.09357 0.50558 0.48382
 O677 O 0.03500 0.49910 0.59321
 O678 O -0.01268 0.52777 0.60049
 O679 O -0.00327 0.55043 0.42525
 O680 O 0.03732 0.51106 0.41836
 O681 O -0.08505 0.50564 0.45394
 O682 O -0.09182 0.45798 0.49466
 O683 O -0.05484 0.58006 0.49924
 O684 O -0.01446 0.58938 0.54680
 O685 O -0.00992 0.58534 0.46637
 O686 O 0.02367 0.59401 0.51675
 O687 O -0.09095 0.53992 0.49963
 O688 O -0.09990 0.49115 0.53058
 O689 O -0.04428 0.50877 0.41927
 O690 O 0.00017 0.46763 0.41460
 O691 O -0.00920 0.44905 0.58438
 O692 O -0.04500 0.49227 0.59443
 O693 O 0.07559 0.50376 0.55863
 O694 O 0.08334 0.54196 0.51537
 O695 O 0.04652 0.41968 0.50138
 O696 O 0.00477 0.41380 0.46164
 Zr697 Zr 0.00091 0.44265 0.50331
 O698 O -0.02949 0.47126 0.47208
 Zr699 Zr 0.05305 0.50175 0.51265
 O700 O 0.02509 0.53244 0.48170
 Zr701 Zr -0.00642 0.49471 0.56290
 O702 O -0.03738 0.52532 0.53458
 Zr703 Zr -0.00200 0.50526 0.44859
 O704 O 0.02876 0.47480 0.47721
 Zr705 Zr -0.06168 0.49820 0.49929
 O706 O -0.03359 0.46734 0.53013
 Zr707 Zr -0.00966 0.55699 0.50823
 O708 O 0.02096 0.52910 0.53974
 O709 O 0.02746 0.46817 0.53803
 O710 O -0.03545 0.53114 0.47413
 C711 C -0.00850 0.42021 0.57360
 C712 C 0.07514 0.43090 0.50071
 C713 C 0.06440 0.50468 0.58690
 C714 C -0.00749 0.57887 0.43644
 C715 C -0.07424 0.51007 0.42582
 C716 C -0.08367 0.56951 0.49639
 H717 H -0.04108 0.45766 0.45626
 H718 H -0.05257 0.53687 0.54833
 H719 H 0.04163 0.45418 0.55212
 H720 H 0.03933 0.54723 0.47055
 H721 H 0.05237 0.49267 0.42289
 H722 H 0.08525 0.51250 0.46223
 H723 H -0.09736 0.50664 0.54834
 H724 H -0.06158 0.47889 0.58370
 H725 H -0.00377 0.47723 0.39289
 H726 H 0.01023 0.39135 0.46821
 H727 H -0.03613 0.58685 0.55543
 H728 H -0.00355 0.54817 0.59316
 H729 H -0.02972 0.38800 0.50213
 H730 H -0.09152 0.45061 0.47213
 H731 H 0.07433 0.55664 0.53146
 H732 H 0.03976 0.59275 0.49987
 O733 O 0.49782 0.90851 0.04769
 O734 O 0.46004 0.90219 0.00554
 O735 O 0.58130 0.94438 0.00188
 O736 O 0.59278 0.98437 -0.03010
 O737 O 0.54714 0.99599 0.08553
 O738 O 0.50289 1.02616 0.09689
 O739 O 0.49501 1.03512 -0.08204
 O740 O 0.53038 0.99218 -0.08969
 O741 O 0.41302 1.00074 -0.04060
 O742 O 0.40464 0.96161 -0.00019
 O743 O 0.45632 1.07700 -0.00410
 O744 O 0.50274 1.08521 0.03639
 O745 O 0.49707 1.07380 -0.04372
 O746 O 0.53683 1.08280 0.00242
 O747 O 0.41649 1.04118 0.00168
 O748 O 0.40847 0.99483 0.04043
 O749 O 0.44975 0.99691 -0.07954
 O750 O 0.48956 0.95236 -0.08542
 O751 O 0.49804 0.94720 0.08591
 O752 O 0.46659 0.99516 0.09519
 O753 O 0.58384 0.99487 0.04655
 O754 O 0.59032 1.02536 -0.00182
 O755 O 0.54187 0.90736 0.00127
 O756 O 0.49502 0.90538 -0.03715
 Zr757 Zr 0.49875 0.93474 0.00438
 O758 O 0.46723 0.96381 -0.02510
 Zr759 Zr 0.55631 0.98877 0.00368
 O760 O 0.52793 1.01923 -0.02711
 Zr761 Zr 0.50220 0.99119 0.06042
 O762 O 0.47175 1.02305 0.03270
 Zr763 Zr 0.49475 0.99249 -0.05468
 O764 O 0.52629 0.96164 -0.02706
 Zr765 Zr 0.44101 0.99629 0.00254
 O766 O 0.46935 0.96448 0.03244
 Zr767 Zr 0.49913 1.04936 0.00070
 O768 O 0.52977 1.02090 0.03156
 O769 O 0.53081 0.95998 0.03442
 O770 O 0.46708 1.02409 -0.02832
 C771 C 0.49530 0.91779 0.07686
 C772 C 0.57146 0.91544 -0.00079
 C773 C 0.57588 0.99948 0.07563
 C774 C 0.49564 1.06455 -0.07310
 C775 C 0.42082 1.00078 -0.07015
 C776 C 0.42651 1.06967 -0.00341
 H777 H 0.45240 0.95022 -0.03801
 H778 H 0.45953 1.03725 0.04695
 H779 H 0.54509 0.94614 0.04856
 H780 H 0.54210 1.03144 -0.04108
 H781 H 0.54405 0.97270 -0.08553
 H782 H 0.58279 0.99086 -0.05117
 H783 H 0.41190 1.01406 0.05382
 H784 H 0.44865 0.98137 0.08791
 H785 H 0.48439 0.96051 -0.10752
 H786 H 0.50273 0.88325 -0.03170
 H787 H 0.48306 1.08469 0.04901
 H788 H 0.51007 1.04615 0.08667
 H789 H 0.46878 0.87995 0.00843
 H790 H 0.41398 0.94205 0.01046
 H791 H 0.58438 1.04291 0.01285
 H792 H 0.54988 1.07935 -0.01668
 O793 O 0.55948 0.40119 0.01252
 O794 O 0.52339 0.40185 0.05590
 O795 O 0.50816 0.43449 -0.06902
 O796 O 0.47360 0.47991 -0.08152
 O797 O 0.59778 0.47515 -0.04223
 O798 O 0.61412 0.51546 -0.00345
 O799 O 0.43942 0.53890 0.00718
 O800 O 0.42120 0.49320 -0.01817
 O801 O 0.48538 0.49704 0.09362
 O802 O 0.53209 0.46744 0.10597
 O803 O 0.52780 0.57636 0.03937
 O804 O 0.55747 0.57983 -0.00571
 O805 O 0.47953 0.57342 -0.00260
 O806 O 0.52509 0.57232 -0.04218
 O807 O 0.52560 0.54377 0.08312
 O808 O 0.56757 0.49711 0.09521
 O809 O 0.44278 0.49978 0.05762
 O810 O 0.42793 0.45796 0.01465
 O811 O 0.60015 0.43666 0.00872
 O812 O 0.61625 0.48482 0.03685
 O813 O 0.55456 0.47640 -0.07765
 O814 O 0.50954 0.51284 -0.08853
 O815 O 0.51018 0.40104 -0.02550
 O816 O 0.47748 0.40290 0.02241
 Zr817 Zr 0.51827 0.43122 0.01414
 O818 O 0.49354 0.46448 0.04232
 Zr819 Zr 0.51422 0.48043 -0.04918
 O820 O 0.48891 0.51549 -0.02398
 Zr821 Zr 0.57715 0.48215 0.00289
 O822 O 0.55460 0.51800 0.03023
 Zr823 Zr 0.46310 0.49387 0.01247
 O824 O 0.48527 0.45815 -0.01563
 Zr825 Zr 0.52569 0.49663 0.06436
 O826 O 0.55126 0.46051 0.03938
 Zr827 Zr 0.52193 0.54497 0.00059
 O828 O 0.54763 0.51194 -0.02762
 O829 O 0.54550 0.45182 -0.02092
 O830 O 0.49386 0.52558 0.03629
 C831 C 0.58937 0.40794 0.01030
 C832 C 0.50698 0.40660 -0.05584
 C833 C 0.58497 0.47404 -0.07089
 C834 C 0.44969 0.56681 -0.00007
 C835 C 0.45497 0.49841 0.08646
 C836 C 0.52735 0.57165 0.06982
 H837 H 0.48167 0.45203 0.05813
 H838 H 0.57108 0.53175 0.04051
 H839 H 0.55670 0.43570 -0.03403
 H840 H 0.47468 0.52756 -0.03962
 H841 H 0.42737 0.50087 -0.03956
 H842 H 0.45718 0.46690 -0.07116
 H843 H 0.57839 0.51775 0.09209
 H844 H 0.60951 0.47368 0.05648
 H845 H 0.43176 0.44608 0.03516
 H846 H 0.48353 0.38001 0.01931
 H847 H 0.57805 0.57078 0.00355
 H848 H 0.60645 0.53005 -0.02116
 H849 H 0.54288 0.40886 0.06821
 H850 H 0.52065 0.44731 0.10138
 H851 H 0.52703 0.52846 -0.08570
 H852 H 0.50435 0.57057 -0.05458
 O853 O -0.05105 -0.00176 0.58098
 O854 O -0.00627 -0.03363 0.59231
 O855 O -0.00215 0.08270 0.53892
 O856 O 0.02463 0.09346 0.49616
 O857 O -0.09254 0.04814 0.49605
 O858 O -0.10540 0.00497 0.46263
 O859 O 0.07201 -0.01288 0.45497
 O860 O 0.08359 0.02766 0.49294
 O861 O 0.02886 -0.08765 0.49643
 O862 O -0.01087 -0.09296 0.53507
 O863 O -0.01348 -0.04573 0.41539
 O864 O -0.04728 0.00113 0.40303
 O865 O 0.03225 -0.00805 0.41588
 O866 O -0.01257 0.03467 0.40536
 O867 O -0.01364 -0.08421 0.45434
 O868 O -0.05218 -0.08938 0.50084
 O869 O 0.06985 -0.05235 0.49729
 O870 O 0.08012 -0.00948 0.53768
 O871 O -0.09168 0.00184 0.54267
 O872 O -0.10405 -0.03154 0.49668
 O873 O -0.05243 0.08398 0.49174
 O874 O -0.00481 0.08694 0.45625
 O875 O -0.00817 0.04642 0.57924
 O876 O 0.03506 0.00146 0.58349
 Zr877 Zr -0.00873 0.00168 0.55514
 O878 O 0.01784 -0.03177 0.52836
 Zr879 Zr -0.00911 0.05627 0.49655
 O880 O 0.01966 0.02613 0.46839
 Zr881 Zr -0.06799 0.00354 0.49865
 O882 O -0.04294 -0.02812 0.46874
 Zr883 Zr 0.04710 -0.00662 0.49744
 O884 O 0.02230 0.02711 0.52588
 Zr885 Zr -0.01269 -0.05830 0.49772
 O886 O -0.03965 -0.02827 0.52781
 Zr887 Zr -0.01119 -0.00251 0.44036
 O888 O -0.04010 0.02952 0.46659
 O889 O -0.03899 0.03255 0.52745
 O890 O 0.01771 -0.03435 0.46781
 C891 C -0.08102 -0.00163 0.57198
 C892 C -0.00384 0.07514 0.56875
 C893 C -0.08242 0.07668 0.49166
 C894 C 0.06190 -0.01294 0.42539
 C895 C 0.05885 -0.08096 0.49585
 C896 C -0.01304 -0.07509 0.42477
 H897 H 0.03086 -0.04609 0.54314
 H898 H -0.05851 -0.04040 0.45540
 H899 H -0.05211 0.04713 0.54061
 H900 H 0.03387 0.03906 0.45513
 H901 H 0.08116 0.04293 0.51083
 H902 H 0.04607 0.08281 0.49522
 H903 H -0.06538 -0.08737 0.48056
 H904 H -0.09707 -0.04861 0.51225
 H905 H 0.10155 -0.01578 0.52975
 H906 H 0.03156 0.01284 0.60392
 H907 H -0.06522 -0.01262 0.40908
 H908 H -0.09705 0.01699 0.44425
 H909 H -0.00779 -0.02285 0.61341
 H910 H -0.01805 -0.08170 0.55446
 H911 H -0.02366 0.08315 0.44152
 H912 H 0.00843 0.04549 0.40663
 O913 O 0.74204 0.17642 0.26922
 O914 O 0.79799 0.17283 0.26527
 O915 O 0.73131 0.25141 0.34099
 O916 O 0.73953 0.30325 0.34551
 O917 O 0.67107 0.25119 0.25225
 O918 O 0.68132 0.26802 0.19812
 O919 O 0.83005 0.33067 0.27353
 O920 O 0.82039 0.31043 0.32514
 O921 O 0.84637 0.25917 0.21197
 O922 O 0.82253 0.20857 0.20075
 O923 O 0.77436 0.32777 0.18522
 O924 O 0.72074 0.34045 0.20176
 O925 O 0.79407 0.35250 0.23643
 O926 O 0.73226 0.35946 0.24611
 O927 O 0.80523 0.28384 0.17420
 O928 O 0.78458 0.22764 0.16726
 O929 O 0.85740 0.28129 0.26084
 O930 O 0.84497 0.25863 0.31356
 O931 O 0.70530 0.19687 0.23214
 O932 O 0.70519 0.22713 0.18442
 O933 O 0.68273 0.27658 0.29925
 O934 O 0.71138 0.32679 0.30931
 O935 O 0.75643 0.20491 0.32672
 O936 O 0.81250 0.20067 0.31181
 Zr937 Zr 0.77260 0.21449 0.28060
 O938 O 0.80909 0.24028 0.25924
 Zr939 Zr 0.73297 0.28148 0.30009
 O940 O 0.76858 0.31022 0.28034
 Zr941 Zr 0.71615 0.24634 0.23031
 O942 O 0.75062 0.27404 0.20706
 Zr943 Zr 0.81273 0.28488 0.28181
 O944 O 0.77824 0.25809 0.30522
 Zr945 Zr 0.79626 0.25096 0.21116
 O946 O 0.76108 0.22175 0.23130
 Zr947 Zr 0.75741 0.31779 0.23111
 O948 O 0.71973 0.29181 0.25169
 O949 O 0.72706 0.23684 0.27871
 O950 O 0.80223 0.29477 0.23342
 C951 C 0.71877 0.17333 0.24821
 C952 C 0.74275 0.22298 0.34721
 C953 C 0.66273 0.26473 0.27851
 C954 C 0.82058 0.35301 0.25373
 C955 C 0.86572 0.27148 0.23327
 C956 C 0.79421 0.31228 0.16790
 H957 H 0.82963 0.22775 0.26108
 H958 H 0.74339 0.27754 0.18436
 H959 H 0.71078 0.22361 0.28904
 H960 H 0.77055 0.33067 0.29208
 H961 H 0.81225 0.29687 0.34256
 H962 H 0.76058 0.31388 0.34552
 H963 H 0.76914 0.24162 0.15463
 H964 H 0.72463 0.21479 0.17837
 H965 H 0.86427 0.27181 0.31783
 H966 H 0.80743 0.18110 0.32416
 H967 H 0.71376 0.32468 0.18541
 H968 H 0.67655 0.28966 0.20660
 H969 H 0.79366 0.15448 0.27969
 H970 H 0.81032 0.19059 0.20950
 H971 H 0.69840 0.33315 0.28972
 H972 H 0.74564 0.36989 0.26307
 O973 O 0.75733 0.65329 0.69904
 O974 O 0.79962 0.64460 0.73715
 O975 O 0.67848 0.67984 0.76011
 O976 O 0.66811 0.71884 0.79568
 O977 O 0.69477 0.73616 0.67418
 O978 O 0.73473 0.77492 0.66112
 O979 O 0.76211 0.76923 0.83692
 O980 O 0.73656 0.72495 0.84643
 O981 O 0.84484 0.73692 0.78288
 O982 O 0.84839 0.70522 0.73231
 O983 O 0.79044 0.81908 0.74774
 O984 O 0.73449 0.82497 0.72148
 O985 O 0.75298 0.81035 0.80123
 O986 O 0.71426 0.82425 0.76372
 O987 O 0.83167 0.78421 0.73838
 O988 O 0.84132 0.74230 0.70333
 O989 O 0.81383 0.73066 0.82612
 O990 O 0.77655 0.68641 0.83349
 O991 O 0.74274 0.69434 0.66472
 O992 O 0.77184 0.74208 0.65320
 O993 O 0.66463 0.72561 0.71720
 O994 O 0.66155 0.76059 0.76468
 O995 O 0.71901 0.64576 0.74625
 O996 O 0.76911 0.64101 0.78144
 Zr997 Zr 0.75937 0.67546 0.74431
 O998 O 0.79149 0.70352 0.77191
 Zr999 Zr 0.69813 0.72576 0.75644
 O1000 O 0.72795 0.75564 0.78418
 Zr1001 Zr 0.74274 0.73573 0.69322
 O1002 O 0.77465 0.76579 0.71851
 Zr1003 Zr 0.76632 0.72919 0.80652
 O1004 O 0.73431 0.69821 0.78131
 Zr1005 Zr 0.81139 0.73876 0.74308
 O1006 O 0.78161 0.70866 0.71436
 Zr1007 Zr 0.75053 0.78930 0.75525
 O1008 O 0.71714 0.76182 0.72738
 O1009 O 0.72180 0.70123 0.72104
 O1010 O 0.78869 0.76433 0.77926
 C1011 C 0.74974 0.66469 0.67090
 C1012 C 0.68973 0.65177 0.75364
 C1013 C 0.66772 0.73093 0.68709
 C1014 C 0.75497 0.79878 0.83005
 C1015 C 0.84132 0.73204 0.81311
 C1016 C 0.81943 0.81269 0.73937
 H1017 H 0.80819 0.68908 0.78214
 H1018 H 0.78312 0.78083 0.70261
 H1019 H 0.70728 0.68742 0.70809
 H1020 H 0.71417 0.76616 0.79998
 H1021 H 0.72202 0.70689 0.84176
 H1022 H 0.67863 0.72896 0.81464
 H1023 H 0.82874 0.75405 0.68614
 H1024 H 0.79045 0.72693 0.65617
 H1025 H 0.78473 0.69230 0.85534
 H1026 H 0.76371 0.61946 0.77311
 H1027 H 0.74949 0.82456 0.70360
 H1028 H 0.71876 0.78941 0.67095
 H1029 H 0.81313 0.65545 0.72150
 H1030 H 0.85004 0.68896 0.74977
 H1031 H 0.66214 0.77665 0.74707
 H1032 H 0.69628 0.81285 0.77329
 O1033 O 0.23921 0.17481 0.80367
 O1034 O 0.19293 0.17167 0.76353
 O1035 O 0.31956 0.19143 0.74610
 O1036 O 0.33198 0.23165 0.70560
 O1037 O 0.29828 0.24990 0.82686
 O1038 O 0.26131 0.29783 0.83079
 O1039 O 0.24321 0.28413 0.65778
 O1040 O 0.27262 0.23013 0.65531
 O1041 O 0.15816 0.25527 0.70480
 O1042 O 0.15212 0.22806 0.76095
 O1043 O 0.21170 0.33868 0.73962
 O1044 O 0.26544 0.34190 0.77096
 O1045 O 0.25098 0.32617 0.69140
 O1046 O 0.28900 0.33806 0.72958
 O1047 O 0.16822 0.30682 0.74264
 O1048 O 0.15280 0.27273 0.78030
 O1049 O 0.19317 0.24558 0.66530
 O1050 O 0.22965 0.20624 0.65733
 O1051 O 0.24959 0.21785 0.83549
 O1052 O 0.22064 0.26811 0.83987
 O1053 O 0.33190 0.23913 0.78628
 O1054 O 0.34213 0.26806 0.73811
 O1055 O 0.27659 0.16090 0.75769
 O1056 O 0.22914 0.15592 0.72335
 Zr1057 Zr 0.23764 0.19391 0.75615
 O1058 O 0.20970 0.22198 0.72282
 Zr1059 Zr 0.30159 0.23919 0.74455
 O1060 O 0.27549 0.27010 0.71257
 Zr1061 Zr 0.25253 0.25628 0.80321
 O1062 O 0.22298 0.28633 0.77317
 Zr1063 Zr 0.23856 0.24447 0.68926
 O1064 O 0.26631 0.21246 0.71965
 Zr1065 Zr 0.18803 0.26012 0.74709
 O1066 O 0.21432 0.23065 0.78137
 Zr1067 Zr 0.25123 0.30616 0.73775
 O1068 O 0.28180 0.27818 0.76962
 O1069 O 0.27419 0.21876 0.77932
 O1070 O 0.21476 0.28219 0.71199
 C1071 C 0.24488 0.18785 0.83130
 C1072 C 0.30657 0.16443 0.75232
 C1073 C 0.32613 0.24244 0.81621
 C1074 C 0.24891 0.31388 0.66322
 C1075 C 0.16452 0.24845 0.67553
 C1076 C 0.18128 0.33445 0.74191
 H1077 H 0.19383 0.20771 0.71226
 H1078 H 0.21297 0.30281 0.78676
 H1079 H 0.28731 0.20425 0.79371
 H1080 H 0.29060 0.27923 0.69737
 H1081 H 0.28898 0.24698 0.65421
 H1082 H 0.32199 0.21482 0.69210
 H1083 H 0.16468 0.27925 0.80019
 H1084 H 0.20147 0.25466 0.83632
 H1085 H 0.23070 0.18648 0.67066
 H1086 H 0.23090 0.13519 0.73522
 H1087 H 0.24846 0.34392 0.78688
 H1088 H 0.28139 0.30714 0.82313
 H1089 H 0.19713 0.15035 0.77375
 H1090 H 0.14852 0.21276 0.74316
 H1091 H 0.33933 0.28714 0.75183
 H1092 H 0.30774 0.32479 0.72338
 O1093 O 0.25464 0.66579 0.22346
 O1094 O 0.19776 0.66869 0.23322
 O1095 O 0.26264 0.73982 0.15186
 O1096 O 0.25891 0.79192 0.14693
 O1097 O 0.33077 0.73380 0.23625
 O1098 O 0.32562 0.74789 0.29115
 O1099 O 0.17926 0.83071 0.22407
 O1100 O 0.18071 0.80641 0.17341
 O1101 O 0.16126 0.75814 0.29080
 O1102 O 0.18192 0.70649 0.30069
 O1103 O 0.23960 0.81887 0.30916
 O1104 O 0.29281 0.82493 0.28857
 O1105 O 0.21958 0.84692 0.25848
 O1106 O 0.27945 0.84621 0.24655
 O1107 O 0.20933 0.77777 0.32604
 O1108 O 0.22446 0.71908 0.32935
 O1109 O 0.14827 0.78439 0.24386
 O1110 O 0.15114 0.76112 0.19139
 O1111 O 0.29607 0.68177 0.25641
 O1112 O 0.29971 0.70952 0.30570
 O1113 O 0.31689 0.76013 0.18961
 O1114 O 0.28990 0.81258 0.17999
 O1115 O 0.23600 0.69576 0.16795
 O1116 O 0.18368 0.69434 0.18749
 Zr1117 Zr 0.22521 0.70696 0.21557
 O1118 O 0.19289 0.73673 0.23998
 Zr1119 Zr 0.26713 0.76945 0.19228
 O1120 O 0.23586 0.80180 0.21470
 Zr1121 Zr 0.28734 0.73161 0.26087
 O1122 O 0.25754 0.76294 0.28675
 Zr1123 Zr 0.19013 0.78201 0.21773
 O1124 O 0.22018 0.75151 0.19146
 Zr1125 Zr 0.21042 0.74534 0.28711
 O1126 O 0.24114 0.71208 0.26398
 Zr1127 Zr 0.25209 0.80733 0.26261
 O1128 O 0.28548 0.77745 0.23922
 O1129 O 0.27198 0.72410 0.21334
 O1130 O 0.20559 0.79026 0.26516
 C1131 C 0.28025 0.66011 0.24109
 C1132 C 0.24916 0.71280 0.14646
 C1133 C 0.33779 0.74722 0.20954
 C1134 C 0.19311 0.85176 0.24185
 C1135 C 0.14127 0.77341 0.27147
 C1136 C 0.22287 0.80501 0.33015
 H1137 H 0.17153 0.72658 0.23992
 H1138 H 0.26714 0.76530 0.30870
 H1139 H 0.28657 0.70969 0.20153
 H1140 H 0.23460 0.82237 0.20268
 H1141 H 0.18558 0.79096 0.15620
 H1142 H 0.23764 0.80298 0.14755
 H1143 H 0.24309 0.72986 0.33979
 H1144 H 0.28082 0.69700 0.31164
 H1145 H 0.13368 0.77761 0.18819
 H1146 H 0.17908 0.71190 0.17172
 H1147 H 0.29860 0.80930 0.30597
 H1148 H 0.33057 0.76973 0.28354
 H1149 H 0.20089 0.64951 0.21957
 H1150 H 0.19037 0.68745 0.28947
 H1151 H 0.30480 0.81782 0.19828
 H1152 H 0.26788 0.85608 0.22760
 O1153 O 0.16929 0.76378 0.79096
 O1154 O 0.15931 0.79635 0.74621
 O1155 O 0.20633 0.67532 0.75109
 O1156 O 0.24394 0.66173 0.71749
 O1157 O 0.25676 0.71422 0.83208
 O1158 O 0.28913 0.75697 0.84223
 O1159 O 0.29129 0.75685 0.66352
 O1160 O 0.24941 0.72057 0.65600
 O1161 O 0.25718 0.83982 0.70261
 O1162 O 0.21935 0.85144 0.74208
 O1163 O 0.33645 0.79615 0.74392
 O1164 O 0.34717 0.75102 0.78155
 O1165 O 0.33200 0.75445 0.70181
 O1166 O 0.34282 0.71583 0.74869
 O1167 O 0.29968 0.83717 0.74582
 O1168 O 0.25358 0.84869 0.78321
 O1169 O 0.25257 0.80138 0.66439
 O1170 O 0.20823 0.76230 0.65878
 O1171 O 0.20926 0.76504 0.82990
 O1172 O 0.25820 0.79492 0.83876
 O1173 O 0.25818 0.67558 0.79395
 O1174 O 0.28720 0.66523 0.74531
 O1175 O 0.16765 0.71483 0.74974
 O1176 O 0.16342 0.75759 0.70609
 Zr1177 Zr 0.19393 0.75798 0.74836
 O1178 O 0.22139 0.78744 0.71878
 Zr1179 Zr 0.24972 0.69995 0.75011
 O1180 O 0.27831 0.72559 0.71862
 Zr1181 Zr 0.25266 0.75730 0.80530
 O1182 O 0.28331 0.78465 0.77717
 Zr1183 Zr 0.24968 0.75790 0.69023
 O1184 O 0.22048 0.72826 0.71806
 Zr1185 Zr 0.25473 0.81427 0.74606
 O1186 O 0.22403 0.78861 0.77594
 Zr1187 Zr 0.30912 0.75473 0.74620
 O1188 O 0.28226 0.72718 0.77786
 O1189 O 0.22133 0.72791 0.77966
 O1190 O 0.28210 0.78593 0.71627
 C1191 C 0.17940 0.76797 0.82014
 C1192 C 0.17674 0.68501 0.75006
 C1193 C 0.26145 0.68510 0.82308
 C1194 C 0.32129 0.75612 0.67237
 C1195 C 0.25635 0.83061 0.67324
 C1196 C 0.32872 0.82605 0.74389
 H1197 H 0.20692 0.80175 0.70536
 H1198 H 0.29785 0.79717 0.79141
 H1199 H 0.20834 0.71527 0.79444
 H1200 H 0.29026 0.71054 0.70494
 H1201 H 0.23024 0.70759 0.65996
 H1202 H 0.24899 0.67029 0.69611
 H1203 H 0.27363 0.84590 0.79672
 H1204 H 0.24313 0.81246 0.83146
 H1205 H 0.21565 0.76603 0.63673
 H1206 H 0.14210 0.74920 0.71139
 H1207 H 0.34411 0.76856 0.79708
 H1208 H 0.30823 0.74630 0.83317
 H1209 H 0.13750 0.78766 0.74898
 H1210 H 0.19949 0.84249 0.75060
 H1211 H 0.30480 0.67079 0.76090
 H1212 H 0.33955 0.70284 0.72907
 O1213 O 0.24718 0.16724 0.20628
 O1214 O 0.28521 0.15856 0.24761
 O1215 O 0.16824 0.21559 0.25254
 O1216 O 0.15612 0.26284 0.27264
 O1217 O 0.20670 0.24723 0.16023
 O1218 O 0.24978 0.28294 0.14986
 O1219 O 0.25625 0.29916 0.32762
 O1220 O 0.22057 0.26203 0.33764
 O1221 O 0.33770 0.25154 0.29046
 O1222 O 0.34776 0.21661 0.24889
 O1223 O 0.29889 0.33464 0.24429
 O1224 O 0.25814 0.34765 0.20968
 O1225 O 0.25155 0.33660 0.28756
 O1226 O 0.21703 0.34450 0.23499
 O1227 O 0.33664 0.29455 0.24254
 O1228 O 0.34252 0.24403 0.20918
 O1229 O 0.30027 0.25330 0.32877
 O1230 O 0.25450 0.21597 0.33436
 O1231 O 0.25145 0.20338 0.16548
 O1232 O 0.28766 0.24815 0.15454
 O1233 O 0.16868 0.25195 0.19776
 O1234 O 0.16466 0.29708 0.23903
 O1235 O 0.20456 0.17401 0.25265
 O1236 O 0.25273 0.16594 0.28928
 Zr1237 Zr 0.24972 0.19586 0.24770
 O1238 O 0.28213 0.22320 0.27561
 Zr1239 Zr 0.19515 0.25573 0.24223
 O1240 O 0.22426 0.28408 0.27243
 Zr1241 Zr 0.25038 0.24882 0.18772
 O1242 O 0.28109 0.27953 0.21432
 Zr1243 Zr 0.25569 0.25594 0.30254
 O1244 O 0.22277 0.22741 0.27605
 Zr1245 Zr 0.31039 0.25195 0.24669
 O1246 O 0.28132 0.22080 0.21834
 Zr1247 Zr 0.25491 0.31042 0.24403
 O1248 O 0.22380 0.28353 0.21292
 O1249 O 0.22007 0.22231 0.21568
 O1250 O 0.28589 0.28424 0.27565
 C1251 C 0.24889 0.17454 0.17631
 C1252 C 0.17582 0.18575 0.25523
 C1253 C 0.17721 0.24818 0.16855
 C1254 C 0.25180 0.32813 0.31750
 C1255 C 0.32953 0.25082 0.31992
 C1256 C 0.32812 0.32440 0.24191
 H1257 H 0.29549 0.20842 0.28956
 H1258 H 0.29384 0.29187 0.19913
 H1259 H 0.20549 0.20779 0.20366
 H1260 H 0.20967 0.29774 0.28495
 H1261 H 0.20321 0.24687 0.33215
 H1262 H 0.16556 0.26363 0.29480
 H1263 H 0.34000 0.26234 0.19396
 H1264 H 0.30291 0.23059 0.16140
 H1265 H 0.26142 0.22307 0.35622
 H1266 H 0.24410 0.14460 0.28364
 H1267 H 0.26049 0.33708 0.18868
 H1268 H 0.23414 0.30007 0.15547
 H1269 H 0.30221 0.16566 0.23330
 H1270 H 0.33931 0.19769 0.25998
 H1271 H 0.16783 0.30726 0.21784
 H1272 H 0.20282 0.34392 0.25350
 O1273 O 0.82983 0.71891 0.25333
 O1274 O 0.84133 0.76354 0.22007
 O1275 O 0.79252 0.76438 0.33659
 O1276 O 0.75082 0.80659 0.34125
 O1277 O 0.74291 0.68616 0.29914
 O1278 O 0.70968 0.67611 0.25242
 O1279 O 0.70514 0.85202 0.24610
 O1280 O 0.74811 0.86383 0.27808
 O1281 O 0.74850 0.80703 0.16530
 O1282 O 0.78435 0.75946 0.16024
 O1283 O 0.66529 0.76853 0.20181
 O1284 O 0.65581 0.73466 0.25211
 O1285 O 0.66570 0.81519 0.24743
 O1286 O 0.65196 0.77385 0.27861
 O1287 O 0.70439 0.76320 0.16553
 O1288 O 0.74990 0.72765 0.15974
 O1289 O 0.75248 0.84741 0.20142
 O1290 O 0.78737 0.85595 0.25236
 O1291 O 0.79022 0.68236 0.25755
 O1292 O 0.74577 0.67342 0.21952
 O1293 O 0.74660 0.72588 0.33617
 O1294 O 0.71189 0.77357 0.34137
 O1295 O 0.83116 0.76209 0.29944
 O1296 O 0.84117 0.79887 0.25531
 Zr1297 Zr 0.80543 0.76345 0.25469
 O1298 O 0.77886 0.79312 0.22177
 Zr1299 Zr 0.74911 0.76808 0.30848
 O1300 O 0.72009 0.79804 0.27790
 Zr1301 Zr 0.74708 0.70978 0.25468
 O1302 O 0.71814 0.73721 0.22196
 Zr1303 Zr 0.74840 0.82427 0.24663
 O1304 O 0.77809 0.79705 0.28026
 Zr1305 Zr 0.74737 0.76529 0.19347
 O1306 O 0.77678 0.73495 0.22375
 Zr1307 Zr 0.69045 0.77071 0.24695
 O1308 O 0.71670 0.74051 0.28044
 O1309 O 0.77775 0.73587 0.28423
 O1310 O 0.71733 0.79846 0.21607
 C1311 C 0.81992 0.69008 0.25572
 C1312 C 0.82203 0.76130 0.32863
 C1313 C 0.74392 0.69632 0.32821
 C1314 C 0.67548 0.84416 0.24848
 C1315 C 0.75252 0.83655 0.17251
 C1316 C 0.67479 0.76377 0.17313
 H1317 H 0.79425 0.80480 0.20875
 H1318 H 0.70473 0.72229 0.20915
 H1319 H 0.79068 0.72126 0.29874
 H1320 H 0.70740 0.81227 0.29174
 H1321 H 0.74165 0.85556 0.29914
 H1322 H 0.76912 0.81999 0.33534
 H1323 H 0.73453 0.71113 0.16601
 H1324 H 0.76245 0.67856 0.20404
 H1325 H 0.80270 0.85107 0.23538
 H1326 H 0.83494 0.81496 0.27143
 H1327 H 0.65717 0.72007 0.23355
 H1328 H 0.69228 0.68478 0.26566
 H1329 H 0.83352 0.74963 0.20235
 H1330 H 0.79984 0.77695 0.16366
 H1331 H 0.69565 0.75726 0.33574
 H1332 H 0.66089 0.78272 0.29898
 O1333 O 0.83009 0.22942 0.71945
 O1334 O 0.83753 0.25886 0.76933
 O1335 O 0.78539 0.14288 0.75869
 O1336 O 0.74131 0.13140 0.78410
 O1337 O 0.74559 0.18864 0.67137
 O1338 O 0.71259 0.23608 0.66211
 O1339 O 0.69716 0.23254 0.83665
 O1340 O 0.73389 0.18685 0.84503
 O1341 O 0.74659 0.30852 0.80588
 O1342 O 0.78573 0.31706 0.76758
 O1343 O 0.66396 0.27877 0.75078
 O1344 O 0.65320 0.23414 0.71381
 O1345 O 0.66049 0.23731 0.79469
 O1346 O 0.64990 0.19994 0.74801
 O1347 O 0.70445 0.31344 0.76153
 O1348 O 0.75165 0.32235 0.72631
 O1349 O 0.73979 0.26803 0.84164
 O1350 O 0.77887 0.22343 0.84991
 O1351 O 0.79281 0.23483 0.67821
 O1352 O 0.74883 0.26813 0.66543
 O1353 O 0.73990 0.14860 0.70784
 O1354 O 0.70262 0.14108 0.75067
 O1355 O 0.82620 0.17845 0.76218
 O1356 O 0.83492 0.21642 0.80075
 Zr1357 Zr 0.80239 0.22327 0.76056
 O1358 O 0.77486 0.25327 0.78991
 Zr1359 Zr 0.74296 0.17135 0.75269
 O1360 O 0.71283 0.19919 0.78189
 Zr1361 Zr 0.74824 0.23044 0.69962
 O1362 O 0.71867 0.26111 0.72621
 Zr1363 Zr 0.74109 0.22631 0.81401
 O1364 O 0.77101 0.19553 0.78757
 Zr1365 Zr 0.74693 0.28542 0.76100
 O1366 O 0.77692 0.25770 0.73168
 Zr1367 Zr 0.68736 0.23350 0.75297
 O1368 O 0.71451 0.20302 0.72337
 O1369 O 0.77586 0.19698 0.72661
 O1370 O 0.71414 0.25964 0.78642
 C1371 C 0.82186 0.23578 0.68991
 C1372 C 0.81532 0.14988 0.76294
 C1373 C 0.74046 0.15924 0.67886
 C1374 C 0.66841 0.23775 0.82489
 C1375 C 0.74255 0.29776 0.83445
 C1376 C 0.67463 0.30696 0.75627
 H1377 H 0.78938 0.26466 0.80523
 H1378 H 0.70675 0.27606 0.71125
 H1379 H 0.78974 0.18339 0.71318
 H1380 H 0.69821 0.18539 0.79374
 H1381 H 0.75265 0.17205 0.84287
 H1382 H 0.73240 0.13932 0.80430
 H1383 H 0.73227 0.32251 0.71167
 H1384 H 0.75969 0.28619 0.67635
 H1385 H 0.76910 0.22587 0.87114
 H1386 H 0.82397 0.20313 0.81662
 H1387 H 0.65966 0.25086 0.69851
 H1388 H 0.69509 0.22122 0.66693
 H1389 H 0.85906 0.25049 0.76336
 H1390 H 0.80380 0.30790 0.75556
 H1391 H 0.68693 0.15065 0.73461
 H1392 H 0.65083 0.18590 0.76731
 N1393 N 0.04362 1.08066 1.13171
 N1394 N 0.05611 1.08940 1.15988
 C1395 C 0.06745 1.06247 1.17503
 C1396 C 0.06180 1.03669 1.15480
 N1397 N 0.04703 1.04932 1.12817
 H1398 H 0.06741 1.01148 1.15885
 N1399 N 0.61989 0.51135 0.60055
 N1400 N 0.63292 0.51915 0.62896
 C1401 C 0.61204 0.51029 0.65121
 C1402 C 0.58587 0.49664 0.63555
 N1403 N 0.59166 0.49773 0.60396
 H1404 H 0.56386 0.48871 0.64593
 N1405 N 0.40890 0.01017 0.62142
 N1406 N 0.40100 0.00676 0.65162
 C1407 C 0.41526 -0.02074 0.66265
 C1408 C 0.43225 -0.03434 0.63804
 N1409 N 0.42758 -0.01411 0.61280
 H1410 H 0.44658 -0.05635 0.63846
 N1411 N -0.10703 0.51237 1.10152
 N1412 N -0.12131 0.50084 1.12696
 C1413 C -0.09893 0.50019 1.15132
 C1414 C -0.07070 0.51227 1.14022
 N1415 N -0.07671 0.51962 1.10899
 H1416 H -0.04768 0.51410 1.15322
 N1417 N -0.11757 0.54436 0.40478
 N1418 N -0.12721 0.55700 0.37664
 C1419 C -0.11157 0.54056 0.35397
 C1420 C -0.09224 0.51724 0.36919
 N1421 N -0.09654 0.52053 0.40081
 H1422 H -0.07409 0.50193 0.35877
 N1423 N 0.37340 1.03008 -0.09109
 N1424 N 0.35974 1.03778 -0.11952
 C1425 C 0.37435 1.01949 -0.14154
 C1426 C 0.39735 1.00019 -0.12551
 N1427 N 0.39611 1.00768 -0.09425
 H1428 H 0.41555 0.98481 -0.13574
 N1429 N 0.63280 0.45100 -0.09455
 N1430 N 0.64239 0.44304 -0.12350
 C1431 C 0.62011 0.45542 -0.14492
 C1432 C 0.59667 0.47114 -0.12836
 N1433 N 0.60538 0.46782 -0.09704
 H1434 H 0.57425 0.48178 -0.13800
 N1435 N 0.11243 -0.03621 0.40714
 N1436 N 0.12745 -0.04086 0.37994
 C1437 C 0.10866 -0.02704 0.35628
 C1438 C 0.08160 -0.01388 0.36986
 N1439 N 0.08494 -0.02000 0.40154
 H1440 H 0.06138 -0.00127 0.35788
 N1441 N 0.12436 1.08355 0.98704
 N1442 N 0.15457 1.09256 0.98991
 C1443 C 0.16459 1.08730 1.02081
 C1444 C 0.13920 1.07453 1.03698
 N1445 N 0.11472 1.07269 1.01486
 H1446 H 0.13864 1.06675 1.06182
 N1447 N 0.59314 0.61758 0.52628
 N1448 N 0.62188 0.62940 0.53365
 C1449 C 0.64385 0.60863 0.52209
 C1450 C 0.62787 0.58385 0.50748
 N1451 N 0.59630 0.59024 0.51062
 H1452 H 0.63823 0.56203 0.49791
 N1453 N 0.60468 0.35833 -0.01475
 N1454 N 0.63144 0.34422 -0.02446
 C1455 C 0.65632 0.35939 -0.00983
 C1456 C 0.64381 0.38318 0.00932
 N1457 N 0.61157 0.38197 0.00529
 H1458 H 0.65676 0.40228 0.02128
 N1459 N 0.07347 -0.13515 0.47959
 N1460 N 0.09979 -0.15242 0.47378
 C1461 C 0.12512 -0.13442 0.48286
 C1462 C 0.11359 -0.10556 0.49416
 N1463 N 0.08131 -0.10697 0.49177
 H1464 H 0.12731 -0.08486 0.50150
 N1465 N 0.34606 -0.06360 0.46628
 N1466 N 0.31832 -0.07662 0.47283
 C1467 C 0.31610 -0.07692 0.50516
 C1468 C 0.34372 -0.06298 0.51830
 N1469 N 0.36154 -0.05515 0.49312
 H1470 H 0.35085 -0.05994 0.54337
 N1471 N -0.13741 0.46941 0.98722
 N1472 N -0.16380 0.45299 0.99168
 C1473 C -0.15494 0.42771 1.01070
 C1474 C -0.12220 0.42884 1.01748
 N1475 N -0.11230 0.45514 1.00231
 H1476 H -0.10723 0.41283 1.03261
 N1477 N -0.10499 0.61396 0.46388
 N1478 N -0.13335 0.62541 0.45277
 C1479 C -0.15611 0.60962 0.46848
 C1480 C -0.14059 0.58810 0.48970
 N1481 N -0.10883 0.59161 0.48608
 H1482 H -0.15113 0.56996 0.50449
 N1483 N 0.40732 1.11569 -0.03478
 N1484 N 0.37974 1.13074 -0.04292
 C1485 C 0.35718 1.11864 -0.02406
 C1486 C 0.37198 1.09551 -0.00406
 N1487 N 0.40316 1.09439 -0.01165
 H1488 H 0.36083 1.07916 0.01225
 N1489 N -0.03288 1.14664 1.06728
 N1490 N -0.02574 1.17473 1.07985
 C1491 C 0.00652 1.17813 1.07849
 C1492 C 0.01897 1.15091 1.06406
 N1493 N -0.00650 1.13212 1.05752
 H1494 H 0.04385 1.14484 1.05952
 N1495 N 0.51573 0.58313 0.62979
 N1496 N 0.52322 0.60994 0.64509
 C1497 C 0.51299 0.63443 0.62566
 C1498 C 0.49916 0.62183 0.59800
 N1499 N 0.50128 0.58978 0.60147
 H1500 H 0.49070 0.63470 0.57647
 N1501 N 0.00547 0.60757 0.38734
 N1502 N 0.00014 0.63631 0.37399
 C1503 C -0.01967 0.65261 0.39333
 C1504 C -0.02618 0.63318 0.41899
 N1505 N -0.01002 0.60538 0.41442
 H1506 H -0.04053 0.63895 0.43940
 N1507 N 0.52324 1.09833 -0.10950
 N1508 N 0.51931 1.12727 -0.12252
 C1509 C 0.48854 1.13687 -0.11796
 C1510 C 0.47364 1.11249 -0.10187
 N1511 N 0.49612 1.08896 -0.09715
 H1512 H 0.45007 1.11309 -0.09161
 N1513 N 0.47306 0.36874 -0.08393
 N1514 N 0.47587 0.34078 -0.09847
 C1515 C 0.50774 0.33361 -0.09967
 C1516 C 0.52446 0.35850 -0.08539
 N1517 N 0.50190 0.37978 -0.07618
 H1518 H 0.55018 0.36042 -0.08062
 N1519 N -0.00511 -0.09148 0.37004
 N1520 N 0.00286 -0.11748 0.35392
 C1521 C 0.00338 -0.14214 0.37507
 C1522 C -0.00476 -0.13055 0.40470
 N1523 N -0.00978 -0.09879 0.40048
 H1524 H -0.00500 -0.14348 0.42734
 N1525 N 0.48023 -0.15679 0.51476
 N1526 N 0.47772 -0.18493 0.52924
 C1527 C 0.46893 -0.17869 0.55938
 C1528 C 0.46621 -0.14593 0.56320
 N1529 N 0.47350 -0.13325 0.53473
 H1530 H 0.45915 -0.13274 0.58420
 N1531 N -0.02269 0.42066 1.13054
 N1532 N -0.02712 0.39416 1.14731
 C1533 C -0.01640 0.36943 1.12957
 C1534 C -0.00555 0.38170 1.10106
 N1535 N -0.00997 0.41359 1.10278
 H1536 H 0.00405 0.36900 1.08085
 N1537 N 0.83578 0.33871 0.13919
 N1538 N 0.83924 0.35458 0.11194
 C1539 C 0.81058 0.35405 0.09533
 C1540 C 0.78923 0.33737 0.11364
 N1541 N 0.80602 0.32827 0.14057
 H1542 H 0.76399 0.33279 0.10849
 N1543 N 0.27468 0.88234 0.65400
 N1544 N 0.27856 0.89755 0.62634
 C1545 C 0.26701 0.87825 0.60290
 C1546 C 0.25606 0.85071 0.61705
 N1547 N 0.26116 0.85424 0.64885
 H1548 H 0.24606 0.82982 0.60536
 N1549 N 0.76662 0.61696 0.64194
 N1550 N 0.76076 0.60341 0.61363
 C1551 C 0.73752 0.62158 0.59834
 C1552 C 0.72948 0.64671 0.61775
 N1553 N 0.74817 0.64301 0.64463
 H1554 H 0.71232 0.66619 0.61259
 N1555 N 0.23554 0.12015 0.16069
 N1556 N 0.23050 0.10323 0.13420
 C1557 C 0.23821 0.12210 0.10933
 C1558 C 0.24794 0.15126 0.12138
 N1559 N 0.24590 0.14906 0.15352
 H1560 H 0.25382 0.17257 0.10800
 N1561 N 0.23235 0.14083 0.86350
 N1562 N 0.24045 0.12824 0.89212
 C1563 C 0.26243 0.14769 0.90612
 C1564 C 0.26741 0.17275 0.88538
 N1565 N 0.24811 0.16766 0.85919
 H1566 H 0.28329 0.19279 0.88898
 N1567 N 0.72408 0.64785 0.35270
 N1568 N 0.72897 0.63056 0.37935
 C1569 C 0.75206 0.64530 0.39717
 C1570 C 0.76102 0.67234 0.38088
 N1571 N 0.74290 0.67306 0.35338
 H1572 H 0.77904 0.68956 0.38807
 N1573 N 0.23920 0.84591 0.36718
 N1574 N 0.23428 0.85600 0.39654
 C1575 C 0.21173 0.83713 0.40866
 C1576 C 0.20274 0.81487 0.38557
 N1577 N 0.22075 0.82126 0.36011
 H1578 H 0.18564 0.79575 0.38733
 N1579 N 0.75478 0.34855 0.86029
 N1580 N 0.75152 0.36243 0.88855
 C1581 C 0.73491 0.34207 0.90668
 C1582 C 0.72821 0.31523 0.88885
 N1583 N 0.74110 0.32018 0.86014
 H1584 H 0.71611 0.29382 0.89631
 N1585 N 0.86957 0.38069 0.26751
 N1586 N 0.88561 0.40631 0.25937
 C1587 C 0.86811 0.42131 0.23555
 C1588 C 0.84020 0.40424 0.22963
 N1589 N 0.84214 0.37910 0.25032
 H1590 H 0.82018 0.41007 0.21298
 N1591 N 0.38282 0.83967 0.72950
 N1592 N 0.40039 0.86533 0.72498
 C1593 C 0.38222 0.89082 0.73345
 C1594 C 0.35286 0.88013 0.74305
 N1595 N 0.35425 0.84807 0.74021
 H1596 H 0.33209 0.89429 0.74988
 N1597 N 0.16931 0.89929 0.21641
 N1598 N 0.15491 0.92650 0.22432
 C1599 C 0.15420 0.92710 0.25677
 C1600 C 0.16918 0.89917 0.26859
 N1601 N 0.17821 0.88278 0.24258
 H1602 H 0.17274 0.89115 0.29330
 N1603 N 0.62517 0.33568 0.73855
 N1604 N 0.61100 0.36405 0.74291
 C1605 C 0.62969 0.37944 0.76487
 C1606 C 0.65568 0.36005 0.77367
 N1607 N 0.65201 0.33307 0.75675
 H1608 H 0.67569 0.36528 0.79018
 N1609 N 0.64274 0.62434 0.77213
 N1610 N 0.62677 0.59771 0.76634
 C1611 C 0.64215 0.58213 0.74292
 C1612 C 0.66837 0.59974 0.73479
 N1613 N 0.66790 0.62578 0.75368
 H1614 H 0.68602 0.59421 0.71707
 N1615 N 0.12006 0.17443 0.26503
 N1616 N 0.10052 0.14977 0.26473
 C1617 C 0.11918 0.12334 0.26096
 C1618 C 0.15067 0.13248 0.25841
 N1619 N 0.15014 0.16453 0.26100
 H1620 H 0.17116 0.11777 0.25184
 N1621 N 0.35297 0.13254 0.73691
 N1622 N 0.36650 0.10403 0.74321
 C1623 C 0.34849 0.08979 0.76528
 C1624 C 0.32335 0.11027 0.77228
 N1625 N 0.32701 0.13655 0.75397
 H1626 H 0.30432 0.10651 0.78886
 N1627 N 0.87190 0.66584 0.24397
 N1628 N 0.88814 0.63855 0.24957
 C1629 C 0.86932 0.62029 0.26764
 C1630 C 0.84105 0.63672 0.27265
 N1631 N 0.84358 0.66493 0.25742
 H1632 H 0.82055 0.62890 0.28574
 N1633 N 0.91980 0.28932 0.24585
 N1634 N 0.94617 0.29666 0.23080
 C1635 C 0.94122 0.28746 0.20011
 C1636 C 0.91109 0.27447 0.19657
 N1637 N 0.89852 0.27608 0.22572
 H1638 H 0.89854 0.26735 0.17453
 N1639 N 0.33626 0.76863 0.61809
 N1640 N 0.36254 0.77303 0.60177
 C1641 C 0.38791 0.76569 0.62195
 C1642 C 0.37644 0.75661 0.65121
 N1643 N 0.34410 0.75884 0.64776
 H1644 H 0.39018 0.75052 0.67316
 N1645 N 0.34692 0.21959 0.86703
 N1646 N 0.37449 0.20734 0.87948
 C1647 C 0.39718 0.21366 0.85818
 C1648 C 0.38287 0.23042 0.83262
 N1649 N 0.35155 0.23373 0.83901
 H1650 H 0.39391 0.23818 0.81082
 N1651 N 0.83957 0.73621 0.37954
 N1652 N 0.86667 0.72455 0.39362
 C1653 C 0.89085 0.73397 0.37531
 C1654 C 0.87780 0.75178 0.34978
 N1655 N 0.84580 0.75276 0.35326
 H1656 H 0.89021 0.76124 0.32948
 N1657 N 0.08714 0.79521 0.26284
 N1658 N 0.06030 0.79938 0.27848
 C1659 C 0.06537 0.78494 0.30734
 C1660 C 0.09626 0.77209 0.30926
 N1661 N 0.10900 0.77910 0.28093
 H1662 H 0.10881 0.76067 0.32974
 N1663 N 0.64996 0.26120 0.87444
 N1664 N 0.62271 0.27203 0.88645
 C1665 C 0.59881 0.26460 0.86505
 C1666 C 0.61217 0.24874 0.83972
 N1667 N 0.64405 0.24699 0.84652
 H1668 H 0.60004 0.24022 0.81800
 N1669 N 0.63503 0.74735 0.63968
 N1670 N 0.60579 0.74285 0.62675
 C1671 C 0.59121 0.72196 0.64607
 C1672 C 0.61229 0.71396 0.67143
 N1673 N 0.63927 0.73039 0.66656
 H1674 H 0.60831 0.69817 0.69159
 N1675 N 0.15771 0.22739 0.11672
 N1676 N 0.12995 0.22153 0.10107
 C1677 C 0.10634 0.23285 0.11951
 C1678 C 0.12059 0.24579 0.14698
 N1679 N 0.15258 0.24207 0.14426
 H1680 H 0.10882 0.25611 0.16735
 N1681 N -0.04506 0.95530 0.85891
 N1682 N -0.06232 0.95837 0.83147
 C1683 C -0.07876 0.98671 0.83256
 C1684 C -0.07104 1.00076 0.86166
 N1685 N -0.05013 0.98055 0.87723
 H1686 H -0.08042 1.02293 0.87135
 N1687 N 0.37057 0.52626 0.40129
 N1688 N 0.35494 0.53393 0.37380
 C1689 C 0.37423 0.52495 0.35002
 C1690 C 0.40227 0.51143 0.36389
 N1691 N 0.39896 0.51266 0.39588
 H1692 H 0.42320 0.50222 0.35195
 N1693 N 0.54775 0.03914 0.35259
 N1694 N 0.56382 0.03527 0.32608
 C1695 C 0.57659 0.00513 0.32683
 C1696 C 0.56788 -0.00937 0.35514
 N1697 N 0.55008 0.01276 0.37038
 H1698 H 0.57396 -0.03330 0.36401
 N1699 N 0.12369 0.46375 0.90778
 N1700 N 0.13658 0.45793 0.87978
 C1701 C 0.11852 0.47432 0.85727
 C1702 C 0.09394 0.49035 0.87237
 N1703 N 0.09803 0.48301 0.90387
 H1704 H 0.07432 0.50469 0.86144
 N1705 N 0.11167 0.53204 0.60740
 N1706 N 0.12293 0.54469 0.63458
 C1707 C 0.10291 0.53583 0.65757
 C1708 C 0.07928 0.51698 0.64381
 N1709 N 0.08560 0.51522 0.61242
 H1710 H 0.05882 0.50675 0.65520
 N1711 N 0.62774 1.02370 0.08880
 N1712 N 0.64331 1.03700 0.11364
 C1713 C 0.62465 1.03350 0.13914
 C1714 C 0.59726 1.01734 0.12908
 N1715 N 0.60021 1.01144 0.09767
 H1716 H 0.57697 1.01084 0.14316
 N1717 N 0.40336 0.50913 0.11018
 N1718 N 0.38770 0.50128 0.13609
 C1719 C 0.40796 0.48249 0.15453
 C1720 C 0.43690 0.47961 0.13950
 N1721 N 0.43300 0.49674 0.11197
 H1722 H 0.45841 0.46620 0.14751
 N1723 N -0.11804 0.02131 0.60901
 N1724 N -0.13101 0.01365 0.63646
 C1725 C -0.12491 -0.01796 0.64192
 C1726 C -0.10767 -0.02948 0.61641
 N1727 N -0.10392 -0.00414 0.59655
 H1728 H -0.09621 -0.05289 0.61416
 N1729 N -0.13898 0.93182 0.96718
 N1730 N -0.16640 0.91747 0.97222
 C1731 C -0.16693 0.91051 1.00398
 C1732 C -0.13825 0.92088 1.01830
 N1733 N -0.12167 0.93386 0.99438
 H1734 H -0.13038 0.91976 1.04340
 N1735 N 0.40301 0.37253 0.50893
 N1736 N 0.37621 0.35839 0.51712
 C1737 C 0.35183 0.37975 0.51116
 C1738 C 0.36447 0.40745 0.49896
 N1739 N 0.39653 0.40198 0.49796
 H1740 H 0.35190 0.42995 0.49337
 N1741 N 0.43344 0.61799 -0.02432
 N1742 N 0.40671 0.63304 -0.03523
 C1743 C 0.38195 0.61538 -0.02575
 C1744 C 0.39418 0.58913 -0.00867
 N1745 N 0.42643 0.59160 -0.00837
 H1746 H 0.38106 0.56900 0.00034
 N1747 N -0.10180 0.12666 0.46621
 N1748 N -0.12946 0.14262 0.46037
 C1749 C -0.15233 0.12722 0.47635
 C1750 C -0.13751 0.10113 0.49221
 N1751 N -0.10615 0.10168 0.48525
 H1752 H -0.14854 0.08248 0.50595
 N1753 N 0.64318 0.03094 0.47888
 N1754 N 0.67116 0.04406 0.48658
 C1755 C 0.66629 0.06349 0.51178
 C1756 C 0.63414 0.06213 0.51914
 N1757 N 0.62061 0.04163 0.49791
 H1758 H 0.62175 0.07510 0.53759
 N1759 N 0.16030 0.55107 0.98219
 N1760 N 0.18846 0.56504 0.98438
 C1761 C 0.18642 0.58836 1.00660
 C1762 C 0.15528 0.58838 1.01790
 N1763 N 0.13999 0.56473 1.00180
 H1764 H 0.14495 0.60344 1.03606
 N1765 N 0.09460 0.38304 0.47421
 N1766 N 0.12128 0.37170 0.46155
 C1767 C 0.14488 0.39221 0.46958
 C1768 C 0.13186 0.41639 0.48793
 N1769 N 0.10035 0.40979 0.49024
 H1770 H 0.14374 0.43745 0.49726
 N1771 N 0.58702 0.86350 -0.02233
 N1772 N 0.61329 0.84812 -0.03172
 C1773 C 0.63854 0.86651 -0.02332
 C1774 C 0.62692 0.89366 -0.00842
 N1775 N 0.59466 0.89086 -0.00825
 H1776 H 0.64041 0.91413 -0.00006
 N1777 N -0.01581 0.85255 0.96048
 N1778 N -0.00983 0.82793 0.94154
 C1779 C 0.01779 0.83395 0.92659
 C1780 C 0.02863 0.86329 0.93729
 N1781 N 0.00690 0.87409 0.95819
 H1782 H 0.04898 0.87652 0.92916
 N1783 N 0.52174 0.41304 0.36900
 N1784 N 0.53087 0.38747 0.35259
 C1785 C 0.52438 0.36152 0.37053
 C1786 C 0.51079 0.37216 0.39856
 N1787 N 0.50948 0.40441 0.39660
 H1788 H 0.50333 0.35792 0.41870
 N1789 N -0.04319 0.40210 0.61446
 N1790 N -0.05379 0.37544 0.62727
 C1791 C -0.03641 0.35082 0.61550
 C1792 C -0.01446 0.36364 0.59460
 N1793 N -0.01974 0.39578 0.59469
 H1794 H 0.00220 0.35094 0.57962
 N1795 N 0.47392 0.90073 0.12800
 N1796 N 0.46511 0.87402 0.14254
 C1797 C 0.47301 0.84931 0.12341
 C1798 C 0.48722 0.86194 0.09665
 N1799 N 0.48744 0.89404 0.10047
 H1800 H 0.49582 0.84912 0.07604
 N1801 N 0.51591 0.60047 0.11902
 N1802 N 0.51723 0.63002 0.13051
 C1803 C 0.53065 0.64827 0.10796
 C1804 C 0.53753 0.62900 0.08221
 N1805 N 0.52794 0.59936 0.09005
 H1806 H 0.54783 0.63594 0.05976
 N1807 N -0.02952 0.11018 0.60618
 N1808 N -0.02612 0.13946 0.61771
 C1809 C 0.00326 0.14954 0.60972
 C1810 C 0.01786 0.12502 0.59283
 N1811 N -0.00344 0.10095 0.59121
 H1812 H 0.04031 0.12568 0.58049
 N1813 N 0.52524 0.14834 0.45978
 N1814 N 0.52016 0.17674 0.44574
 C1815 C 0.49398 0.17419 0.42564
 C1816 C 0.48332 0.14315 0.42759
 N1817 N 0.50351 0.12783 0.44903
 H1818 H 0.46318 0.13262 0.41446
 N1819 N 0.05888 0.62837 0.91251
 N1820 N 0.05216 0.65459 0.89528
 C1821 C 0.02021 0.65479 0.88728
 C1822 C 0.00768 0.62702 0.89977
 N1823 N 0.03259 0.61149 0.91531
 H1824 H -0.01732 0.62022 0.90032
 N1825 N 0.28994 0.63577 0.83864
 N1826 N 0.30414 0.62227 0.86457
 C1827 C 0.29675 0.64109 0.88948
 C1828 C 0.27733 0.66630 0.87824
 N1829 N 0.27365 0.66211 0.84636
 H1830 H 0.26799 0.68636 0.89168
 N1831 N 0.72178 0.22194 0.40118
 N1832 N 0.72855 0.20774 0.42933
 C1833 C 0.75418 0.18783 0.42535
 C1834 C 0.76252 0.18981 0.39373
 N1835 N 0.74166 0.21115 0.37947
 H1836 H 0.78190 0.17712 0.38224
 N1837 N 0.22548 0.37770 0.33409
 N1838 N 0.21432 0.39033 0.36075
 C1839 C 0.22552 0.37148 0.38539
 C1840 C 0.24411 0.34708 0.37299
 N1841 N 0.24352 0.35173 0.34089
 H1842 H 0.25497 0.32662 0.38582
 N1843 N 0.72952 0.84734 0.84919
 N1844 N 0.71619 0.85852 0.87534
 C1845 C 0.72283 0.83688 0.89897
 C1846 C 0.74132 0.81217 0.88656
 N1847 N 0.74487 0.81963 0.85528
 H1848 H 0.74992 0.79035 0.89863
 N1849 N 0.77559 0.88491 0.15001
 N1850 N 0.78384 0.89593 0.12152
 C1851 C 0.77274 0.87501 0.09930
 C1852 C 0.75725 0.85098 0.11514
 N1853 N 0.75945 0.85798 0.14665
 H1854 H 0.74683 0.82957 0.10490
 N1855 N 0.26552 0.36437 0.64090
 N1856 N 0.27451 0.37677 0.61341
 C1857 C 0.26999 0.35411 0.59090
 C1858 C 0.25772 0.32726 0.60543
 N1859 N 0.25535 0.33473 0.63675
 H1860 H 0.25258 0.30426 0.59470
 N1861 N 0.72062 0.10867 0.65800
 N1862 N 0.71359 0.09491 0.63005
 C1863 C 0.72253 0.11533 0.60694
 C1864 C 0.73535 0.14210 0.62169
 N1865 N 0.73375 0.13696 0.65351
 H1866 H 0.74402 0.16358 0.61043
 N1867 N 0.25697 0.72015 0.08980
 N1868 N 0.25322 0.70474 0.06236
 C1869 C 0.24078 0.67598 0.06924
 C1870 C 0.23731 0.67403 0.10209
 N1871 N 0.24796 0.70208 0.11392
 H1872 H 0.22964 0.65378 0.11607
 N1873 N 0.12138 0.66665 0.74314
 N1874 N 0.10599 0.63935 0.73890
 C1875 C 0.12823 0.61535 0.74255
 C1876 C 0.15785 0.62884 0.74864
 N1877 N 0.15258 0.66087 0.74889
 H1878 H 0.18120 0.61670 0.75023
 N1879 N 0.72385 0.11607 0.25589
 N1880 N 0.71075 0.08907 0.24617
 C1881 C 0.68648 0.09690 0.22487
 C1882 C 0.68486 0.13019 0.22212
 N1883 N 0.70863 0.14111 0.24215
 H1884 H 0.66746 0.14487 0.20824
 N1885 N 0.86667 0.12874 0.78456
 N1886 N 0.88098 0.10077 0.79171
 C1887 C 0.86043 0.07791 0.78178
 C1888 C 0.83308 0.09273 0.76814
 N1889 N 0.83801 0.12440 0.77034
 H1890 H 0.81157 0.08168 0.75815
 N1891 N 0.28046 0.60484 0.22383
 N1892 N 0.29434 0.57680 0.23131
 C1893 C 0.31475 0.58150 0.25681
 C1894 C 0.31312 0.61375 0.26464
 N1895 N 0.29152 0.62739 0.24327
 H1896 H 0.32654 0.62607 0.28347
 N1897 N 0.38056 0.34077 0.22389
 N1898 N 0.39598 0.36745 0.21732
 C1899 C 0.37702 0.39217 0.22638
 C1900 C 0.34938 0.37974 0.23862
 N1901 N 0.35252 0.34760 0.23666
 H1902 H 0.32837 0.39281 0.24657
 N1903 N 0.86256 0.83350 0.70789
 N1904 N 0.87269 0.86115 0.69645
 C1905 C 0.85404 0.88440 0.70889
 C1906 C 0.83225 0.87003 0.72860
 N1907 N 0.83845 0.83826 0.72739
 H1908 H 0.81343 0.88151 0.74197
 N1909 N 0.62393 0.86287 0.26794
 N1910 N 0.60949 0.88990 0.27677
 C1911 C 0.62945 0.91387 0.26995
 C1912 C 0.65656 0.90060 0.25639
 N1913 N 0.65212 0.86877 0.25547
 H1914 H 0.67776 0.91280 0.24879
 N1915 N 0.12878 0.36093 0.74506
 N1916 N 0.11620 0.38848 0.75481
 C1917 C 0.14111 0.40763 0.76226
 C1918 C 0.16945 0.39110 0.75661
 N1919 N 0.16067 0.36204 0.74579
 H1920 H 0.19391 0.39868 0.76171
 N1921 N 0.16202 0.79097 0.87097
 N1922 N 0.13477 0.79980 0.88451
 C1923 C 0.11024 0.79200 0.86389
 C1924 C 0.12356 0.77789 0.83738
 N1925 N 0.15574 0.77746 0.84276
 H1926 H 0.11107 0.76884 0.81609
 N1927 N 0.60662 0.24887 0.27113
 N1928 N 0.57836 0.25436 0.28404
 C1929 C 0.58294 0.27653 0.30719
 C1930 C 0.61518 0.28424 0.30824
 N1931 N 0.62911 0.26639 0.28546
 H1932 H 0.62750 0.30027 0.32474
 N1933 N 0.65885 0.74144 0.12136
 N1934 N 0.63278 0.72972 0.10663
 C1935 C 0.60791 0.73686 0.12530
 C1936 C 0.61944 0.75333 0.15184
 N1937 N 0.65134 0.75569 0.14851
 H1938 H 0.60633 0.76058 0.17265
 N1939 N 0.14304 0.22574 0.62582
 N1940 N 0.11527 0.21618 0.61272
 C1941 C 0.09216 0.22546 0.63268
 C1942 C 0.10668 0.24116 0.65848
 N1943 N 0.13850 0.24080 0.65326
 H1944 H 0.09543 0.25028 0.67969
 N1945 N 0.83804 0.26290 0.64186
 N1946 N 0.86372 0.27627 0.63010
 C1947 C 0.88875 0.26911 0.65070
 C1948 C 0.87764 0.25047 0.67544
 N1949 N 0.84577 0.24723 0.66897
 H1950 H 0.89105 0.24136 0.69654
 N1951 N 0.39430 0.73059 0.21621
 N1952 N 0.42250 0.73716 0.20418
 C1953 C 0.41709 0.76031 0.18161
 C1954 C 0.38440 0.76746 0.17989
 N1955 N 0.37108 0.74824 0.20173
 H1956 H 0.37152 0.78442 0.16397
 N1957 N 0.34922 0.23326 0.37329
 N1958 N 0.37695 0.22590 0.38887
 C1959 C 0.40062 0.23310 0.36892
 C1960 C 0.38646 0.24523 0.34061
 N1961 N 0.35442 0.24499 0.34433
 H1962 H 0.39824 0.25248 0.31906
 N1963 N 0.86852 0.70867 0.86069
 N1964 N 0.89803 0.70128 0.87213
 C1965 C 0.91866 0.71331 0.85121
 C1966 C 0.90072 0.72858 0.82652
 N1967 N 0.86950 0.72513 0.83340
 H1968 H 0.90948 0.74018 0.80532
   
