data_POSCAR
  _audit_creation_date              2014-09-24
  _audit_creation_method            'ToBaCCo'
  _symmetry_space_group_name_H-M    'P1'
  _symmetry_Int_Tables_number       1
  _symmetry_cell_setting            triclinic
  loop_
  _symmetry_equiv_pos_as_xyz
 x,y,z
_cell_length_a 42.9587
_cell_length_b 42.9566
_cell_length_c 42.9505
_cell_angle_alpha 90.034900
_cell_angle_beta 90.034000
_cell_angle_gamma 89.996000
loop_
  _atom_site_label
  _atom_site_type_symbol
  _atom_site_fract_x
  _atom_site_fract_y
  _atom_site_fract_z
O1 O 0.22436 1.02971 0.02985
 O2 O 0.22412 0.96912 -0.03095
 O3 O 0.22373 0.96912 0.02965
 O4 O 0.22382 1.02977 -0.03078
 O5 O 0.27531 1.02968 -0.03085
 O6 O 0.27521 0.96893 0.02967
 O7 O 0.27559 0.96903 -0.03093
 O8 O 0.27584 1.02952 0.02977
 Cu9 Cu 0.21881 0.99945 -0.00056
 Cu10 Cu 0.28069 0.99928 -0.00060
 C11 C 0.25017 1.03983 0.04007
 C12 C 0.24985 0.95883 -0.04117
 C13 C 0.24943 0.95878 0.03986
 C14 C 0.24955 1.03999 -0.04100
 O15 O 0.77623 0.53063 0.53020
 O16 O 0.77640 0.47007 0.46955
 O17 O 0.77579 0.53072 0.46956
 O18 O 0.77597 0.46997 0.53022
 O19 O 0.72450 0.46987 0.53016
 O20 O 0.72431 0.53053 0.46957
 O21 O 0.72492 0.46988 0.46949
 O22 O 0.72475 0.53053 0.53022
 Cu23 Cu 0.78129 0.50036 0.49988
 Cu24 Cu 0.71943 0.50018 0.49986
 C25 C 0.75049 0.54081 0.54044
 C26 C 0.75072 0.45976 0.45927
 C27 C 0.74999 0.54088 0.45934
 C28 C 0.75024 0.45968 0.54043
 O29 O 0.72388 0.97006 1.03140
 O30 O 0.72422 1.03058 0.97072
 O31 O 0.72451 0.96995 0.97073
 O32 O 0.72446 1.03073 1.03136
 O33 O 0.77593 1.03056 1.03152
 O34 O 0.77599 0.96987 0.97097
 O35 O 0.77570 1.03050 0.97087
 O36 O 0.77535 0.96989 1.03163
 Cu37 Cu 0.71908 1.00034 1.00104
 Cu38 Cu 0.78093 1.00019 1.00128
 C39 C 0.74953 0.95973 1.04176
 C40 C 0.74999 1.04076 0.96054
 C41 C 0.75029 0.95968 0.96061
 C42 C 0.75021 1.04093 1.04165
 O43 O 0.22391 0.46970 0.53033
 O44 O 0.22372 0.53012 0.46972
 O45 O 0.22433 0.46950 0.46973
 O46 O 0.22422 0.53028 0.53036
 O47 O 0.27571 0.53036 0.53031
 O48 O 0.27581 0.46967 0.46977
 O49 O 0.27520 0.53029 0.46966
 O50 O 0.27540 0.46978 0.53037
 Cu51 Cu 0.21885 0.49990 0.50003
 Cu52 Cu 0.28073 0.50005 0.50002
 C53 C 0.24966 0.45954 0.54059
 C54 C 0.24940 0.54040 0.45945
 C55 C 0.25012 0.45932 0.45954
 C56 C 0.24998 0.54055 0.54058
 O57 O 1.03024 0.27531 0.02976
 O58 O 0.96945 0.27547 -0.03062
 O59 O 0.96963 0.27481 0.03001
 O60 O 1.03005 0.27493 -0.03084
 O61 O 1.02998 0.22344 -0.03094
 O62 O 0.96967 0.22332 0.02981
 O63 O 0.96938 0.22399 -0.03082
 O64 O 1.03028 0.22382 0.02967
 Cu65 Cu 0.99984 0.28033 -0.00040
 Cu66 Cu 0.99982 0.21844 -0.00059
 C67 C 1.04053 0.24957 0.03991
 C68 C 0.95915 0.24979 -0.04094
 C69 C 0.95947 0.24901 0.04017
 C70 C 1.04021 0.24917 -0.04114
 O71 O 0.53007 0.72467 0.53044
 O72 O 0.46918 0.72459 0.46996
 O73 O 0.52984 0.72413 0.46977
 O74 O 0.46944 0.72421 0.53061
 O75 O 0.46939 0.77570 0.53062
 O76 O 0.52987 0.77561 0.46969
 O77 O 0.46922 0.77607 0.46997
 O78 O 0.53002 0.77615 0.53036
 Cu79 Cu 0.49964 0.71921 0.50020
 Cu80 Cu 0.49963 0.78107 0.50015
 C81 C 0.54030 0.75046 0.54061
 C82 C 0.45892 0.75034 0.45978
 C83 C 0.54006 0.74983 0.45946
 C84 C 0.45922 0.74994 0.54090
 O85 O 0.03014 0.77565 -0.03127
 O86 O -0.03078 0.77583 0.02919
 O87 O 0.02984 0.77618 0.02939
 O88 O -0.03055 0.77617 -0.03145
 O89 O -0.03066 0.72470 -0.03145
 O90 O 0.02981 0.72470 0.02948
 O91 O -0.03081 0.72435 0.02919
 O92 O 0.03002 0.72417 -0.03118
 Cu93 Cu -0.00032 0.78115 -0.00105
 Cu94 Cu -0.00041 0.71929 -0.00100
 C95 C 0.04037 0.74985 -0.04142
 C96 C -0.04106 0.75010 0.03939
 C97 C 0.04001 0.75047 0.03973
 C98 C -0.04084 0.75046 -0.04170
 O99 O 0.53077 0.22404 0.46988
 O100 O 0.47004 0.22398 0.53019
 O101 O 0.47018 0.22455 0.46957
 O102 O 0.53067 0.22439 0.53049
 O103 O 0.53066 0.27588 0.53057
 O104 O 0.47025 0.27604 0.46974
 O105 O 0.47003 0.27547 0.53036
 O106 O 0.53085 0.27553 0.46996
 Cu107 Cu 0.50041 0.21904 0.50003
 Cu108 Cu 0.50045 0.28093 0.50018
 C109 C 0.54107 0.24977 0.45974
 C110 C 0.45977 0.24968 0.54046
 C111 C 0.46002 0.25035 0.45938
 C112 C 0.54088 0.25014 0.54078
 O113 O 1.02975 0.02975 0.22494
 O114 O 0.96909 -0.03098 0.22496
 O115 O 0.96914 0.02963 0.22450
 O116 O 1.02972 -0.03087 0.22443
 O117 O 1.02984 -0.03091 0.27592
 O118 O 0.96916 0.02969 0.27600
 O119 O 0.96921 -0.03093 0.27644
 O120 O 1.02977 0.02971 0.27643
 Cu121 Cu 0.99942 -0.00062 0.21951
 Cu122 Cu 0.99950 -0.00062 0.28139
 C123 C 1.03999 0.03997 0.25072
 C124 C 0.95890 -0.04119 0.25073
 C125 C 0.95892 0.03988 0.25023
 C126 C 1.04002 -0.04110 0.25013
 O127 O 0.53054 0.53039 0.77700
 O128 O 0.47013 0.46974 0.77691
 O129 O 0.53074 0.46978 0.77639
 O130 O 0.46988 0.53040 0.77651
 O131 O 0.46988 0.53041 0.72502
 O132 O 0.53064 0.46989 0.72490
 O133 O 0.47004 0.46975 0.72542
 O134 O 0.53055 0.53050 0.72551
 Cu135 Cu 0.50032 0.50008 0.78189
 Cu136 Cu 0.50026 0.50015 0.72002
 C137 C 0.54077 0.54066 0.75130
 C138 C 0.45990 0.45948 0.75118
 C139 C 0.54095 0.45961 0.75059
 C140 C 0.45961 0.54063 0.75075
 O141 O 0.96921 1.03093 0.72348
 O142 O 1.02977 0.97025 0.72348
 O143 O 0.96916 0.97028 0.72412
 O144 O 1.02988 1.03086 0.72380
 O145 O 1.02999 1.03098 0.77529
 O146 O 0.96937 0.97050 0.77561
 O147 O 1.02997 0.97037 0.77497
 O148 O 0.96933 1.03114 0.77497
 Cu149 Cu 0.99948 1.00058 0.71853
 Cu150 Cu 0.99967 1.00078 0.78040
 C151 C 0.95902 1.04129 0.74919
 C152 C 1.04010 0.96006 0.74920
 C153 C 0.95906 0.96016 0.74995
 C154 C 1.04021 1.04110 0.74953
 O155 O 0.46981 0.53028 0.22310
 O156 O 0.53029 0.46971 0.22305
 O157 O 0.46967 0.46967 0.22357
 O158 O 0.53042 0.53035 0.22353
 O159 O 0.53044 0.53033 0.27501
 O160 O 0.46978 0.46974 0.27506
 O161 O 0.53040 0.46969 0.27454
 O162 O 0.46983 0.53036 0.27459
 Cu163 Cu 0.50004 0.50000 0.21811
 Cu164 Cu 0.50013 0.50003 0.28000
 C165 C 0.45961 0.54054 0.24882
 C166 C 0.54055 0.45947 0.24876
 C167 C 0.45947 0.45947 0.24935
 C168 C 0.54067 0.54059 0.24929
 O169 O 0.25032 0.16895 0.20670
 O170 O 0.28571 0.16077 0.25026
 O171 O 0.16965 0.20626 0.25125
 O172 O 0.15786 0.24678 0.28178
 O173 O 0.20717 0.24999 0.16906
 O174 O 0.25030 0.28396 0.16025
 O175 O 0.25124 0.29249 0.33057
 O176 O 0.21505 0.25151 0.33899
 O177 O 0.33069 0.25096 0.29277
 O178 O 0.34013 0.21558 0.25310
 O179 O 0.29297 0.33001 0.25094
 O180 O 0.24850 0.33983 0.21605
 O181 O 0.25118 0.32984 0.29319
 O182 O 0.21534 0.33927 0.24882
 O183 O 0.33045 0.29273 0.25082
 O184 O 0.33895 0.24764 0.21453
 O185 O 0.29344 0.25114 0.33027
 O186 O 0.25110 0.21525 0.34020
 O187 O 0.25070 0.20630 0.16926
 O188 O 0.28519 0.24971 0.16074
 O189 O 0.16969 0.24965 0.20637
 O190 O 0.16238 0.28610 0.24984
 O191 O 0.20690 0.16860 0.24980
 O192 O 0.24801 0.16169 0.28655
 Zr193 Zr 0.24891 0.19374 0.24905
 O194 O 0.27817 0.22058 0.27779
 Zr195 Zr 0.19434 0.24857 0.24876
 O196 O 0.22101 0.27747 0.27821
 Zr197 Zr 0.24917 0.24841 0.19424
 O198 O 0.27803 0.27770 0.22091
 Zr199 Zr 0.25117 0.25045 0.30556
 O200 O 0.22153 0.22126 0.27906
 Zr201 Zr 0.30559 0.25053 0.25076
 O202 O 0.27919 0.22080 0.22149
 Zr203 Zr 0.25079 0.30508 0.25091
 O204 O 0.22158 0.27857 0.22124
 O205 O 0.22017 0.21965 0.22002
 O206 O 0.28015 0.27972 0.28000
 C207 C 0.25110 0.17771 0.17808
 C208 C 0.17834 0.17756 0.25112
 C209 C 0.17854 0.25039 0.17778
 C210 C 0.25129 0.32109 0.32179
 C211 C 0.32201 0.25119 0.32140
 C212 C 0.32160 0.32131 0.25089
 H213 H 0.29152 0.20654 0.29023
 H214 H 0.29078 0.29060 0.20677
 H215 H 0.20686 0.20634 0.20672
 H216 H 0.20704 0.29015 0.29140
 H217 H 0.19932 0.23603 0.33228
 H218 H 0.16474 0.25865 0.30027
 H219 H 0.33580 0.26560 0.20048
 H220 H 0.30126 0.23475 0.16775
 H221 H 0.26685 0.19947 0.33451
 H222 H 0.23247 0.16936 0.30174
 H223 H 0.26473 0.33517 0.20041
 H224 H 0.23622 0.30060 0.16771
 H225 H 0.27731 0.13995 0.24472
 H226 H 0.33093 0.19677 0.24351
 H227 H 0.16873 0.30083 0.23330
 H228 H 0.20044 0.33504 0.26585
 O229 O 0.74955 0.83142 0.20676
 O230 O 0.71424 0.83954 0.25036
 O231 O 0.83028 0.79399 0.25114
 O232 O 0.84216 0.75346 0.28153
 O233 O 0.79256 0.75033 0.16888
 O234 O 0.74936 0.71645 0.16005
 O235 O 0.74881 0.70775 0.33043
 O236 O 0.78503 0.74871 0.33888
 O237 O 0.66929 0.74935 0.29277
 O238 O 0.65979 0.78474 0.25317
 O239 O 0.70694 0.67030 0.25076
 O240 O 0.75126 0.66042 0.21587
 O241 O 0.74881 0.67042 0.29298
 O242 O 0.78462 0.66110 0.24849
 O243 O 0.66946 0.70757 0.25074
 O244 O 0.66088 0.75270 0.21454
 O245 O 0.70662 0.74913 0.33025
 O246 O 0.74904 0.78501 0.34016
 O247 O 0.74908 0.79411 0.16923
 O248 O 0.71448 0.75071 0.16071
 O249 O 0.83012 0.75061 0.20615
 O250 O 0.83748 0.71412 0.24959
 O251 O 0.79306 0.83167 0.24982
 O252 O 0.75203 0.83858 0.28663
 Zr253 Zr 0.75103 0.80656 0.24905
 O254 O 0.72181 0.77971 0.27778
 Zr255 Zr 0.80556 0.75170 0.24859
 O256 O 0.77896 0.72280 0.27805
 Zr257 Zr 0.75061 0.75195 0.19413
 O258 O 0.72182 0.72263 0.22080
 Zr259 Zr 0.74885 0.74981 0.30548
 O260 O 0.77845 0.77899 0.27898
 Zr261 Zr 0.69431 0.74978 0.25073
 O262 O 0.72066 0.77953 0.22149
 Zr263 Zr 0.74911 0.69522 0.25073
 O264 O 0.77824 0.72174 0.22104
 O265 O 0.77969 0.78067 0.21994
 O266 O 0.71981 0.72056 0.27990
 C267 C 0.74871 0.82270 0.17811
 C268 C 0.82161 0.82269 0.25108
 C269 C 0.82121 0.74988 0.17756
 C270 C 0.74874 0.67915 0.32161
 C271 C 0.67802 0.74910 0.32141
 C272 C 0.67831 0.67899 0.25075
 H273 H 0.70850 0.79374 0.29026
 H274 H 0.70903 0.70975 0.20665
 H275 H 0.79299 0.79397 0.20665
 H276 H 0.79295 0.71012 0.29120
 H277 H 0.80077 0.76416 0.33217
 H278 H 0.83529 0.74165 0.30005
 H279 H 0.66401 0.73475 0.20045
 H280 H 0.69847 0.76571 0.16775
 H281 H 0.73324 0.80077 0.33454
 H282 H 0.76760 0.83088 0.30178
 H283 H 0.73511 0.66520 0.20016
 H284 H 0.76342 0.69976 0.16748
 H285 H 0.72264 0.86036 0.24488
 H286 H 0.66898 0.80356 0.24362
 H287 H 0.83112 0.69945 0.23299
 H288 H 0.79946 0.66521 0.26562
 O289 O 0.75057 0.16966 0.79377
 O290 O 0.71308 0.16355 0.75064
 O291 O 0.83088 0.20652 0.74897
 O292 O 0.84281 0.24700 0.71829
 O293 O 0.79387 0.25084 0.83119
 O294 O 0.75057 0.28517 0.83976
 O295 O 0.74973 0.29303 0.66962
 O296 O 0.78629 0.25201 0.66148
 O297 O 0.67047 0.25060 0.70712
 O298 O 0.66376 0.21342 0.75441
 O299 O 0.70767 0.33037 0.74908
 O300 O 0.75210 0.34028 0.78425
 O301 O 0.74966 0.33039 0.70703
 O302 O 0.78519 0.33999 0.75138
 O303 O 0.67028 0.29301 0.74913
 O304 O 0.65859 0.25138 0.78217
 O305 O 0.70772 0.25157 0.66966
 O306 O 0.75016 0.21594 0.65971
 O307 O 0.75034 0.20713 0.83116
 O308 O 0.71599 0.25044 0.83986
 O309 O 0.83125 0.25010 0.79379
 O310 O 0.83866 0.28636 0.75056
 O311 O 0.79349 0.16899 0.75039
 O312 O 0.75272 0.16096 0.71516
 Zr313 Zr 0.75167 0.19442 0.75141
 O314 O 0.72275 0.22108 0.72211
 Zr315 Zr 0.80646 0.24903 0.75146
 O316 O 0.77988 0.27801 0.72204
 Zr317 Zr 0.75180 0.24923 0.80614
 O318 O 0.72278 0.27817 0.77932
 Zr319 Zr 0.74985 0.25097 0.69456
 O320 O 0.77916 0.22169 0.72126
 Zr321 Zr 0.69531 0.25095 0.74938
 O322 O 0.72170 0.22173 0.77904
 Zr323 Zr 0.74995 0.30559 0.74928
 O324 O 0.77932 0.27922 0.77893
 O325 O 0.78058 0.22031 0.78032
 O326 O 0.72070 0.28014 0.72010
 C327 C 0.74989 0.17850 0.82238
 C328 C 0.82208 0.17785 0.74905
 C329 C 0.82247 0.25103 0.82240
 C330 C 0.74961 0.32163 0.67841
 C331 C 0.67915 0.25112 0.67850
 C332 C 0.67905 0.32161 0.74904
 H333 H 0.70978 0.20696 0.70939
 H334 H 0.70985 0.29101 0.79337
 H335 H 0.79393 0.20699 0.79356
 H336 H 0.79387 0.29072 0.70893
 H337 H 0.80187 0.23640 0.66822
 H338 H 0.83625 0.25950 0.70010
 H339 H 0.66599 0.26307 0.80058
 H340 H 0.69984 0.23556 0.83281
 H341 H 0.73465 0.19993 0.66538
 H342 H 0.76655 0.16930 0.69874
 H343 H 0.73566 0.33573 0.79970
 H344 H 0.76503 0.30153 0.83241
 H345 H 0.72032 0.14243 0.75658
 H346 H 0.66437 0.20100 0.73502
 H347 H 0.83209 0.30133 0.76682
 H348 H 0.80041 0.33549 0.73470
 O349 O 0.24965 0.83047 0.79395
 O350 O 0.28717 0.83654 0.75096
 O351 O 0.16941 0.79349 0.74907
 O352 O 0.15754 0.75294 0.71837
 O353 O 0.20631 0.74933 0.83139
 O354 O 0.24969 0.71504 0.84005
 O355 O 0.25068 0.70695 0.66994
 O356 O 0.21413 0.74789 0.66168
 O357 O 0.32990 0.74947 0.70752
 O358 O 0.33645 0.78680 0.75491
 O359 O 0.29274 0.66974 0.74948
 O360 O 0.24831 0.65985 0.78457
 O361 O 0.25075 0.66964 0.70736
 O362 O 0.21523 0.66006 0.75165
 O363 O 0.33010 0.70713 0.74958
 O364 O 0.34178 0.74876 0.78256
 O365 O 0.29266 0.74842 0.67000
 O366 O 0.25017 0.78404 0.66002
 O367 O 0.24984 0.79310 0.83140
 O368 O 0.28418 0.74985 0.84026
 O369 O 0.16899 0.74997 0.79389
 O370 O 0.16168 0.71364 0.75066
 O371 O 0.20679 0.83104 0.75053
 O372 O 0.24758 0.83901 0.71536
 Zr373 Zr 0.24861 0.80563 0.75164
 O374 O 0.27759 0.77897 0.72242
 Zr375 Zr 0.19384 0.75100 0.75163
 O376 O 0.22050 0.72200 0.72229
 Zr377 Zr 0.24843 0.75094 0.80643
 O378 O 0.27754 0.72200 0.77968
 Zr379 Zr 0.25052 0.74903 0.69485
 O380 O 0.22115 0.77831 0.72146
 Zr381 Zr 0.30503 0.74917 0.74976
 O382 O 0.27856 0.77840 0.77937
 Zr383 Zr 0.25042 0.69449 0.74960
 O384 O 0.22099 0.72087 0.77917
 O385 O 0.21967 0.77979 0.78051
 O386 O 0.27967 0.71992 0.72045
 C387 C 0.25029 0.82171 0.82257
 C388 C 0.17820 0.82217 0.74915
 C389 C 0.17771 0.74908 0.82253
 C390 C 0.25081 0.67838 0.67874
 C391 C 0.32122 0.74890 0.67887
 C392 C 0.32135 0.67852 0.74948
 H393 H 0.29056 0.79308 0.70972
 H394 H 0.29047 0.70920 0.79376
 H395 H 0.20630 0.79312 0.79372
 H396 H 0.20653 0.70926 0.70915
 H397 H 0.19850 0.76347 0.66838
 H398 H 0.16412 0.74041 0.70020
 H399 H 0.33429 0.73731 0.80106
 H400 H 0.30034 0.76469 0.83323
 H401 H 0.26576 0.80000 0.66564
 H402 H 0.23373 0.83065 0.69893
 H403 H 0.26472 0.66447 0.80006
 H404 H 0.23521 0.69867 0.83269
 H405 H 0.27990 0.85767 0.75682
 H406 H 0.33601 0.79907 0.73543
 H407 H 0.16824 0.69870 0.76694
 H408 H 0.20000 0.66453 0.73495
 O409 O 0.25010 0.33051 0.70694
 O410 O 0.21473 0.33874 0.75049
 O411 O 0.33069 0.29307 0.75156
 O412 O 0.34243 0.25252 0.78204
 O413 O 0.29318 0.24942 0.66925
 O414 O 0.24999 0.21553 0.66029
 O415 O 0.24893 0.20695 0.83056
 O416 O 0.28522 0.24786 0.83913
 O417 O 0.16961 0.24869 0.79268
 O418 O 0.16030 0.28414 0.75307
 O419 O 0.20718 0.16961 0.75084
 O420 O 0.25168 0.15970 0.71594
 O421 O 0.24894 0.16963 0.79310
 O422 O 0.28476 0.16011 0.74883
 O423 O 0.16981 0.20699 0.75073
 O424 O 0.16138 0.25203 0.71447
 O425 O 0.20683 0.24836 0.83025
 O426 O 0.24923 0.28417 0.84036
 O427 O 0.24971 0.29317 0.66944
 O428 O 0.21520 0.24982 0.66074
 O429 O 0.33063 0.24968 0.70663
 O430 O 0.33787 0.21322 0.75004
 O431 O 0.29348 0.33076 0.75009
 O432 O 0.25244 0.33779 0.78676
 Zr433 Zr 0.25147 0.30571 0.74924
 O434 O 0.22217 0.27894 0.77789
 Zr435 Zr 0.30596 0.25080 0.74896
 O436 O 0.27924 0.22193 0.77830
 Zr437 Zr 0.25117 0.25107 0.69434
 O438 O 0.22223 0.22184 0.72089
 Zr439 Zr 0.24911 0.24901 0.80564
 O440 O 0.27881 0.27815 0.77925
 Zr441 Zr 0.19473 0.24909 0.75073
 O442 O 0.22119 0.27874 0.72155
 Zr443 Zr 0.24942 0.19441 0.75089
 O444 O 0.27871 0.22086 0.72133
 O445 O 0.28019 0.27977 0.72022
 O446 O 0.22010 0.21982 0.77996
 C447 C 0.24932 0.32175 0.67831
 C448 C 0.32201 0.32177 0.75145
 C449 C 0.32179 0.24896 0.67803
 C450 C 0.24882 0.17836 0.82171
 C451 C 0.17828 0.24840 0.82132
 C452 C 0.17858 0.17840 0.75078
 H453 H 0.20885 0.29300 0.79034
 H454 H 0.20946 0.20899 0.70671
 H455 H 0.29353 0.29306 0.70696
 H456 H 0.29318 0.20922 0.79149
 H457 H 0.30097 0.26332 0.83249
 H458 H 0.33552 0.24065 0.80051
 H459 H 0.16451 0.23407 0.70039
 H460 H 0.19913 0.26478 0.66775
 H461 H 0.23352 0.29999 0.83467
 H462 H 0.26791 0.33005 0.80200
 H463 H 0.23538 0.16433 0.70035
 H464 H 0.26404 0.19886 0.66775
 H465 H 0.22314 0.35954 0.74494
 H466 H 0.16948 0.30288 0.74336
 H467 H 0.33149 0.19850 0.73348
 H468 H 0.29970 0.16434 0.76584
 O469 O 0.75032 0.66995 0.70697
 O470 O 0.78787 0.66386 0.74999
 O471 O 0.67007 0.70680 0.75191
 O472 O 0.65802 0.74726 0.78250
 O473 O 0.70691 0.75110 0.66965
 O474 O 0.75018 0.78543 0.66104
 O475 O 0.75121 0.79324 0.83123
 O476 O 0.71476 0.75221 0.83942
 O477 O 0.83046 0.75093 0.79353
 O478 O 0.83711 0.71374 0.74615
 O479 O 0.79303 0.83063 0.75177
 O480 O 0.74869 0.84064 0.71678
 O481 O 0.75115 0.83061 0.79387
 O482 O 0.71545 0.84010 0.74950
 O483 O 0.83048 0.79333 0.75161
 O484 O 0.84224 0.75177 0.71851
 O485 O 0.79328 0.75187 0.83107
 O486 O 0.75083 0.71611 0.84098
 O487 O 0.75045 0.70740 0.66959
 O488 O 0.78477 0.75073 0.66088
 O489 O 0.66957 0.75034 0.70709
 O490 O 0.66224 0.78665 0.75045
 O491 O 0.70749 0.66928 0.75038
 O492 O 0.74830 0.66125 0.78553
 Zr493 Zr 0.74927 0.69471 0.74933
 O494 O 0.77821 0.72136 0.77862
 Zr495 Zr 0.69442 0.74929 0.74939
 O496 O 0.72099 0.77824 0.77885
 Zr497 Zr 0.74900 0.74951 0.69464
 O498 O 0.77800 0.77846 0.72147
 Zr499 Zr 0.75111 0.75120 0.80623
 O500 O 0.72177 0.72195 0.77953
 Zr501 Zr 0.80554 0.75125 0.75133
 O502 O 0.77916 0.72202 0.72166
 Zr503 Zr 0.75081 0.80583 0.75159
 O504 O 0.72148 0.77948 0.72190
 O505 O 0.72028 0.72058 0.72048
 O506 O 0.78015 0.78040 0.78068
 C507 C 0.75094 0.67878 0.67836
 C508 C 0.67890 0.67814 0.75178
 C509 C 0.67832 0.75129 0.67847
 C510 C 0.75127 0.82183 0.82247
 C511 C 0.82183 0.75145 0.82217
 C512 C 0.82164 0.82191 0.75176
 H513 H 0.79121 0.70725 0.79129
 H514 H 0.79089 0.79132 0.70742
 H515 H 0.70693 0.70725 0.70724
 H516 H 0.70700 0.79091 0.79201
 H517 H 0.69913 0.73666 0.83265
 H518 H 0.66466 0.75956 0.80081
 H519 H 0.83478 0.76339 0.70010
 H520 H 0.80092 0.73584 0.66788
 H521 H 0.76652 0.70024 0.83539
 H522 H 0.73450 0.66960 0.80199
 H523 H 0.76494 0.83597 0.70116
 H524 H 0.73572 0.80179 0.66843
 H525 H 0.78064 0.64273 0.74405
 H526 H 0.83660 0.70135 0.76556
 H527 H 0.66867 0.80154 0.73409
 H528 H 0.70040 0.83574 0.76636
 O529 O 0.24937 0.66915 0.29287
 O530 O 0.21405 0.66081 0.24929
 O531 O 0.33000 0.70651 0.24834
 O532 O 0.34188 0.74700 0.21795
 O533 O 0.29234 0.75032 0.33052
 O534 O 0.24912 0.78426 0.33922
 O535 O 0.24843 0.79234 0.16890
 O536 O 0.28470 0.75140 0.16055
 O537 O 0.16900 0.75083 0.20661
 O538 O 0.15961 0.71543 0.24628
 O539 O 0.20656 0.82995 0.24843
 O540 O 0.25088 0.84002 0.28331
 O541 O 0.24836 0.82978 0.20624
 O542 O 0.28418 0.83934 0.25067
 O543 O 0.16915 0.79261 0.24852
 O544 O 0.16060 0.74764 0.28481
 O545 O 0.20631 0.75100 0.16916
 O546 O 0.24875 0.71507 0.15936
 O547 O 0.24888 0.70658 0.33028
 O548 O 0.21432 0.74995 0.33874
 O549 O 0.32987 0.74996 0.29325
 O550 O 0.33713 0.78638 0.24973
 O551 O 0.29281 0.66880 0.24981
 O552 O 0.25180 0.66168 0.21307
 Zr553 Zr 0.25079 0.69384 0.25051
 O554 O 0.22153 0.72053 0.22168
 Zr555 Zr 0.30527 0.74877 0.25083
 O556 O 0.27862 0.77752 0.22129
 Zr557 Zr 0.25038 0.74862 0.30527
 O558 O 0.22151 0.77778 0.27852
 Zr559 Zr 0.24854 0.75037 0.19394
 O560 O 0.27818 0.72133 0.22053
 Zr561 Zr 0.19404 0.75048 0.24866
 O562 O 0.22044 0.72090 0.27802
 Zr563 Zr 0.24876 0.80513 0.24854
 O564 O 0.27797 0.77877 0.27830
 O565 O 0.27945 0.71986 0.27956
 O566 O 0.21949 0.77965 0.21943
 C567 C 0.24853 0.67797 0.32148
 C568 C 0.32133 0.67781 0.24848
 C569 C 0.32098 0.75074 0.32183
 C570 C 0.24831 0.82095 0.17765
 C571 C 0.17773 0.75103 0.17798
 C572 C 0.17795 0.82119 0.24845
 H573 H 0.20823 0.70644 0.20924
 H574 H 0.20871 0.79068 0.29263
 H575 H 0.29278 0.70660 0.29288
 H576 H 0.29259 0.79019 0.20811
 H577 H 0.30046 0.73599 0.16731
 H578 H 0.33495 0.75868 0.19936
 H579 H 0.16376 0.76559 0.29890
 H580 H 0.19828 0.73497 0.33172
 H581 H 0.23290 0.69936 0.16496
 H582 H 0.26729 0.66938 0.19786
 H583 H 0.23474 0.83528 0.29901
 H584 H 0.26323 0.80088 0.33179
 H585 H 0.22247 0.64002 0.25487
 H586 H 0.16878 0.69671 0.25605
 H587 H 0.33080 0.80108 0.26632
 H588 H 0.29905 0.83517 0.23360
 O589 O 0.75047 0.33045 0.29278
 O590 O 0.78583 0.33849 0.24916
 O591 O 0.66972 0.29315 0.24829
 O592 O 0.65772 0.25262 0.21794
 O593 O 0.70734 0.24947 0.33054
 O594 O 0.75047 0.21552 0.33939
 O595 O 0.75101 0.20675 0.16905
 O596 O 0.71479 0.24778 0.16063
 O597 O 0.83053 0.24827 0.20674
 O598 O 0.84010 0.28367 0.24634
 O599 O 0.79278 0.16933 0.24868
 O600 O 0.74843 0.15952 0.28357
 O601 O 0.75097 0.16945 0.20648
 O602 O 0.71512 0.16019 0.25093
 O603 O 0.83030 0.20656 0.24870
 O604 O 0.83899 0.25162 0.28494
 O605 O 0.79321 0.24806 0.16927
 O606 O 0.75089 0.28397 0.15931
 O607 O 0.75087 0.29314 0.33027
 O608 O 0.78538 0.24969 0.33878
 O609 O 0.66978 0.24982 0.29326
 O610 O 0.66234 0.21333 0.24983
 O611 O 0.70702 0.33076 0.24969
 O612 O 0.74802 0.33765 0.21296
 Zr613 Zr 0.74897 0.30560 0.25046
 O614 O 0.77810 0.27870 0.22170
 Zr615 Zr 0.69433 0.25083 0.25085
 O616 O 0.72086 0.22187 0.22140
 Zr617 Zr 0.74927 0.25101 0.30533
 O618 O 0.77801 0.22165 0.27866
 Zr619 Zr 0.75100 0.24883 0.19400
 O620 O 0.72148 0.27808 0.22051
 Zr621 Zr 0.80553 0.24877 0.24877
 O622 O 0.77926 0.27855 0.27804
 Zr623 Zr 0.75065 0.19428 0.24872
 O624 O 0.72157 0.22085 0.27841
 O625 O 0.72025 0.27976 0.27954
 O626 O 0.77999 0.21956 0.21958
 C627 C 0.75129 0.32172 0.32141
 C628 C 0.67847 0.32183 0.24838
 C629 C 0.67870 0.24908 0.32184
 C630 C 0.75106 0.17817 0.17787
 C631 C 0.82179 0.24802 0.17812
 C632 C 0.82141 0.17800 0.24868
 H633 H 0.79143 0.29271 0.20924
 H634 H 0.79078 0.20875 0.29280
 H635 H 0.70698 0.29310 0.29283
 H636 H 0.70685 0.20920 0.20824
 H637 H 0.69910 0.26330 0.16732
 H638 H 0.66457 0.24082 0.19940
 H639 H 0.83582 0.23369 0.29903
 H640 H 0.80142 0.26466 0.33177
 H641 H 0.76665 0.29975 0.16497
 H642 H 0.73250 0.32995 0.19775
 H643 H 0.76464 0.16423 0.29925
 H644 H 0.73637 0.19886 0.33196
 H645 H 0.77749 0.35933 0.25473
 H646 H 0.83099 0.30248 0.25601
 H647 H 0.66867 0.19864 0.26641
 H648 H 0.70028 0.16431 0.23380
 C649 C 0.25114 0.10689 0.10730
 C650 C 0.25158 0.13835 0.09893
 C651 C 0.25181 0.16140 0.12191
 C652 C 0.25038 0.06339 0.06373
 C653 C 0.25130 0.12151 0.16183
 C654 C 0.25107 0.09852 0.13878
 C655 C 0.25070 0.08320 0.08360
 C656 C 0.25160 0.15327 0.15368
 H657 H 0.25165 0.14507 0.07462
 H658 H 0.25200 0.18557 0.11476
 H659 H 0.25108 0.11438 0.18600
 H660 H 0.25074 0.07422 0.14551
 C661 C 0.75105 0.60799 0.60755
 C662 C 0.75124 0.63946 0.59918
 C663 C 0.75141 0.66251 0.62217
 C664 C 0.75054 0.56443 0.56404
 C665 C 0.75131 0.62261 0.66207
 C666 C 0.75114 0.59962 0.63902
 C667 C 0.75074 0.58429 0.58387
 C668 C 0.75139 0.65437 0.65393
 H669 H 0.75118 0.64619 0.57487
 H670 H 0.75143 0.68668 0.61503
 H671 H 0.75125 0.61546 0.68625
 H672 H 0.75100 0.57532 0.64576
 C673 C 0.74858 0.89372 0.10753
 C674 C 0.74870 0.90200 0.13904
 C675 C 0.74850 0.87894 0.16201
 C676 C 0.74931 0.93737 0.06409
 C677 C 0.74793 0.83916 0.12197
 C678 C 0.74813 0.86227 0.09905
 C679 C 0.74900 0.91749 0.08390
 C680 C 0.74818 0.84720 0.15377
 H681 H 0.74904 0.92628 0.14587
 H682 H 0.74875 0.88602 0.18622
 H683 H 0.74773 0.81500 0.11474
 H684 H 0.74802 0.85560 0.07472
 C685 C 0.24910 0.39254 0.60769
 C686 C 0.24924 0.40091 0.63917
 C687 C 0.24909 0.37792 0.66217
 C688 C 0.24961 0.43601 0.56420
 C689 C 0.24853 0.33804 0.62219
 C690 C 0.24868 0.36109 0.59925
 C691 C 0.24941 0.41620 0.58404
 C692 C 0.24879 0.34618 0.65396
 H693 H 0.24955 0.42522 0.64593
 H694 H 0.24935 0.38505 0.68636
 H695 H 0.24834 0.31388 0.61501
 H696 H 0.24855 0.35438 0.57493
 C697 C 0.74964 0.10780 0.89327
 C698 C 0.74940 0.13929 0.90161
 C699 C 0.74929 0.16230 0.87859
 C700 C 0.75001 0.06433 0.93688
 C701 C 0.74953 0.12233 0.83872
 C702 C 0.74965 0.09938 0.86180
 C703 C 0.74987 0.08414 0.91700
 C704 C 0.74940 0.15411 0.84683
 H705 H 0.74938 0.14607 0.92591
 H706 H 0.74923 0.18648 0.88572
 H707 H 0.74967 0.11514 0.81455
 H708 H 0.74981 0.07506 0.85508
 C709 C 0.24846 0.60733 0.39226
 C710 C 0.24859 0.59889 0.36080
 C711 C 0.24838 0.62183 0.33774
 C712 C 0.24920 0.56393 0.43582
 C713 C 0.24775 0.66180 0.37763
 C714 C 0.24797 0.63880 0.40063
 C715 C 0.24889 0.58371 0.41595
 C716 C 0.24802 0.65360 0.34588
 H717 H 0.24896 0.57458 0.35408
 H718 H 0.24864 0.61466 0.31357
 H719 H 0.24752 0.68598 0.38477
 H720 H 0.24785 0.64556 0.42494
 C721 C 0.25034 0.89272 0.89317
 C722 C 0.25043 0.90099 0.86167
 C723 C 0.25061 0.87792 0.83870
 C724 C 0.24987 0.93642 0.93655
 C725 C 0.25074 0.83815 0.87872
 C726 C 0.25055 0.86127 0.90164
 C727 C 0.25004 0.91650 0.91677
 C728 C 0.25072 0.84619 0.84694
 H729 H 0.25028 0.92527 0.85486
 H730 H 0.25055 0.88499 0.81450
 H731 H 0.25077 0.81400 0.88594
 H732 H 0.25050 0.85463 0.92597
 C733 C 0.75155 0.39263 0.39210
 C734 C 0.75142 0.40096 0.36062
 C735 C 0.75158 0.37794 0.33760
 C736 C 0.75090 0.43617 0.43563
 C737 C 0.75213 0.33810 0.37756
 C738 C 0.75198 0.36118 0.40052
 C739 C 0.75117 0.41634 0.41578
 C740 C 0.75187 0.34619 0.34578
 H741 H 0.75110 0.42525 0.35386
 H742 H 0.75132 0.38504 0.31341
 H743 H 0.75231 0.31394 0.38474
 H744 H 0.75209 0.35448 0.42483
 C745 C 0.10781 0.25031 0.10692
 C746 C 0.09942 0.25043 0.13839
 C747 C 0.12239 0.25069 0.16145
 C748 C 0.06422 0.24965 0.06343
 C749 C 0.16232 0.25083 0.12157
 C750 C 0.13928 0.25057 0.09856
 C751 C 0.08411 0.24990 0.08324
 C752 C 0.15415 0.25083 0.15333
 H753 H 0.07511 0.25025 0.14511
 H754 H 0.11523 0.25064 0.18562
 H755 H 0.18649 0.25088 0.11445
 H756 H 0.14602 0.25049 0.07426
 C757 C 0.60748 0.75129 0.60772
 C758 C 0.63893 0.75183 0.59933
 C759 C 0.66199 0.75206 0.62231
 C760 C 0.56393 0.75061 0.56420
 C761 C 0.62212 0.75134 0.66224
 C762 C 0.59913 0.75111 0.63920
 C763 C 0.58378 0.75089 0.58403
 C764 C 0.65387 0.75175 0.65408
 H765 H 0.64565 0.75199 0.57502
 H766 H 0.68616 0.75233 0.61515
 H767 H 0.61500 0.75104 0.68642
 H768 H 0.57483 0.75071 0.64594
 C769 C 0.10663 0.74903 0.89305
 C770 C 0.13807 0.74864 0.90156
 C771 C 0.16122 0.74843 0.87867
 C772 C 0.06285 0.74969 0.93637
 C773 C 0.12147 0.74888 0.83859
 C774 C 0.09839 0.74909 0.86153
 C775 C 0.08282 0.74941 0.91664
 C776 C 0.15320 0.74861 0.84687
 H777 H 0.14472 0.74858 0.92590
 H778 H 0.18536 0.74828 0.88593
 H779 H 0.11441 0.74907 0.81438
 H780 H 0.07411 0.74937 0.85468
 C781 C 0.60816 0.24906 0.39272
 C782 C 0.63964 0.24881 0.40106
 C783 C 0.66262 0.24860 0.37804
 C784 C 0.56470 0.24967 0.43622
 C785 C 0.62261 0.24875 0.33820
 C786 C 0.59970 0.24897 0.36127
 C787 C 0.58454 0.24943 0.41641
 C788 C 0.65438 0.24863 0.34630
 H789 H 0.64643 0.24887 0.42536
 H790 H 0.68682 0.24855 0.38514
 H791 H 0.61540 0.24882 0.31403
 H792 H 0.57537 0.24914 0.35458
 C793 C 0.89179 0.74960 0.10655
 C794 C 0.90025 0.74954 0.13801
 C795 C 0.87734 0.74942 0.16112
 C796 C 0.93528 0.75005 0.06296
 C797 C 0.83731 0.74930 0.12131
 C798 C 0.86028 0.74943 0.09826
 C799 C 0.91543 0.74988 0.08281
 C800 C 0.84555 0.74936 0.15306
 H801 H 0.92457 0.74966 0.14469
 H802 H 0.88456 0.74950 0.18527
 H803 H 0.81311 0.74931 0.11422
 H804 H 0.85347 0.74946 0.07396
 C805 C 0.39253 0.24886 0.60734
 C806 C 0.36107 0.24866 0.59891
 C807 C 0.33803 0.24845 0.62187
 C808 C 0.43610 0.24953 0.56394
 C809 C 0.37793 0.24853 0.66182
 C810 C 0.40091 0.24873 0.63881
 C811 C 0.41622 0.24926 0.58371
 C812 C 0.34618 0.24845 0.65363
 H813 H 0.35435 0.24874 0.57459
 H814 H 0.31385 0.24845 0.61470
 H815 H 0.38508 0.24857 0.68600
 H816 H 0.42521 0.24887 0.64557
 C817 C 0.89325 0.25080 0.89321
 C818 C 0.90163 0.25069 0.86174
 C819 C 0.87865 0.25101 0.83869
 C820 C 0.93679 0.24997 0.93675
 C821 C 0.83875 0.25168 0.87858
 C822 C 0.86179 0.25136 0.90158
 C823 C 0.91693 0.25031 0.91691
 C824 C 0.84689 0.25144 0.84682
 H825 H 0.92593 0.25028 0.85502
 H826 H 0.88579 0.25077 0.81451
 H827 H 0.81458 0.25196 0.88572
 H828 H 0.85505 0.25146 0.92589
 C829 C 0.39165 0.75099 0.39275
 C830 C 0.36018 0.75119 0.40108
 C831 C 0.33715 0.75134 0.37806
 C832 C 0.43522 0.75043 0.43625
 C833 C 0.37711 0.75121 0.33821
 C834 C 0.40006 0.75106 0.36129
 C835 C 0.41534 0.75065 0.41645
 C836 C 0.34534 0.75129 0.34631
 H837 H 0.35342 0.75114 0.42538
 H838 H 0.31297 0.75135 0.38516
 H839 H 0.38429 0.75113 0.31405
 H840 H 0.42438 0.75092 0.35459
 C841 C 0.10727 0.10702 0.25141
 C842 C 0.09902 0.13852 0.25220
 C843 C 0.12210 0.16149 0.25234
 C844 C 0.06362 0.06358 0.25083
 C845 C 0.16184 0.12144 0.25105
 C846 C 0.13871 0.09854 0.25090
 C847 C 0.08350 0.08340 0.25107
 C848 C 0.15383 0.15323 0.25170
 H849 H 0.07474 0.14535 0.25261
 H850 H 0.11504 0.18568 0.25280
 H851 H 0.18598 0.11420 0.25049
 H852 H 0.14536 0.07421 0.25031
 C853 C 0.60803 0.60756 0.75214
 C854 C 0.59972 0.63902 0.75309
 C855 C 0.62275 0.66200 0.75325
 C856 C 0.56440 0.56420 0.75146
 C857 C 0.66256 0.62201 0.75165
 C858 C 0.63947 0.59909 0.75150
 C859 C 0.58429 0.58396 0.75175
 C860 C 0.65448 0.65377 0.75245
 H861 H 0.57543 0.64581 0.75361
 H862 H 0.61565 0.68618 0.75382
 H863 H 0.68671 0.61481 0.75097
 H864 H 0.64613 0.57477 0.75078
 C865 C 0.89302 0.10712 0.74857
 C866 C 0.86156 0.09871 0.74914
 C867 C 0.83847 0.12166 0.74905
 C868 C 0.93666 0.06363 0.74909
 C869 C 0.87829 0.16162 0.74768
 C870 C 0.90132 0.13860 0.74777
 C871 C 0.91677 0.08345 0.74888
 C872 C 0.84654 0.15344 0.74839
 H873 H 0.85486 0.07440 0.74975
 H874 H 0.81432 0.11448 0.74966
 H875 H 0.88540 0.18580 0.74721
 H876 H 0.92561 0.14538 0.74731
 C877 C 0.39240 0.60745 0.24815
 C878 C 0.40064 0.63894 0.24738
 C879 C 0.37756 0.66187 0.24724
 C880 C 0.43603 0.56411 0.24872
 C881 C 0.33785 0.62176 0.24853
 C882 C 0.36099 0.59891 0.24866
 C883 C 0.41616 0.58390 0.24849
 C884 C 0.34585 0.65355 0.24788
 H885 H 0.42492 0.64579 0.24697
 H886 H 0.38458 0.68607 0.24680
 H887 H 0.31372 0.61449 0.24907
 H888 H 0.35439 0.57457 0.24924
 C889 C 0.10730 0.89291 0.74856
 C890 C 0.13876 0.90131 0.74915
 C891 C 0.16184 0.87835 0.74909
 C892 C 0.06371 0.93643 0.74909
 C893 C 0.12200 0.83841 0.74770
 C894 C 0.09898 0.86143 0.74777
 C895 C 0.08357 0.91659 0.74887
 C896 C 0.15375 0.84658 0.74843
 H897 H 0.14547 0.92562 0.74976
 H898 H 0.18599 0.88553 0.74971
 H899 H 0.11488 0.81423 0.74724
 H900 H 0.07469 0.85466 0.74730
 C901 C 0.60760 0.39240 0.24801
 C902 C 0.63904 0.40085 0.24848
 C903 C 0.66211 0.37793 0.24835
 C904 C 0.56409 0.43586 0.24862
 C905 C 0.62229 0.33794 0.24714
 C906 C 0.59927 0.36093 0.24727
 C907 C 0.58391 0.41603 0.24837
 C908 C 0.65402 0.34616 0.24775
 H909 H 0.64572 0.42517 0.24904
 H910 H 0.68627 0.38513 0.24887
 H911 H 0.61519 0.31375 0.24673
 H912 H 0.57498 0.35416 0.24690
 C913 C 0.89279 0.89314 0.25141
 C914 C 0.90099 0.86162 0.25215
 C915 C 0.87788 0.83870 0.25229
 C916 C 0.93651 0.93650 0.25084
 C917 C 0.83819 0.87880 0.25107
 C918 C 0.86136 0.90166 0.25094
 C919 C 0.91660 0.91672 0.25107
 C920 C 0.84616 0.84699 0.25168
 H921 H 0.92526 0.85476 0.25254
 H922 H 0.88491 0.81449 0.25271
 H923 H 0.81406 0.88607 0.25054
 H924 H 0.85474 0.92600 0.25037
 C925 C 0.39294 0.39230 0.75185
 C926 C 0.36151 0.40076 0.75142
 C927 C 0.33842 0.37785 0.75154
 C928 C 0.43641 0.43581 0.75128
 C929 C 0.37822 0.33783 0.75268
 C930 C 0.40126 0.36082 0.75255
 C931 C 0.41663 0.41594 0.75151
 C932 C 0.34650 0.34607 0.75210
 H933 H 0.35483 0.42508 0.75089
 H934 H 0.31428 0.38507 0.75104
 H935 H 0.38530 0.31364 0.75306
 H936 H 0.42555 0.35403 0.75291
 C937 C 0.10730 0.24854 0.89180
 C938 C 0.13874 0.24833 0.90030
 C939 C 0.16184 0.24816 0.87741
 C940 C 0.06375 0.24909 0.93523
 C941 C 0.12206 0.24825 0.83734
 C942 C 0.09901 0.24843 0.86030
 C943 C 0.08358 0.24887 0.91541
 C944 C 0.15379 0.24820 0.84562
 H945 H 0.14540 0.24837 0.92464
 H946 H 0.18599 0.24807 0.88465
 H947 H 0.11499 0.24823 0.81314
 H948 H 0.07472 0.24853 0.85348
 C949 C 0.60715 0.74913 0.39218
 C950 C 0.63862 0.74898 0.40057
 C951 C 0.66168 0.74884 0.37759
 C952 C 0.56362 0.74969 0.43577
 C953 C 0.62180 0.74887 0.33764
 C954 C 0.59880 0.74901 0.36068
 C955 C 0.58344 0.74945 0.41588
 C956 C 0.65356 0.74887 0.34581
 H957 H 0.64536 0.74903 0.42488
 H958 H 0.68585 0.74879 0.38477
 H959 H 0.61466 0.74884 0.31346
 H960 H 0.57449 0.74909 0.35391
 C961 C 0.89302 0.75108 0.89262
 C962 C 0.86160 0.75172 0.90116
 C963 C 0.83843 0.75193 0.87828
 C964 C 0.93677 0.75056 0.93598
 C965 C 0.87810 0.75097 0.83817
 C966 C 0.90122 0.75076 0.86110
 C967 C 0.91685 0.75077 0.91620
 C968 C 0.84639 0.75150 0.84648
 H969 H 0.85500 0.75202 0.92550
 H970 H 0.81430 0.75239 0.88555
 H971 H 0.88511 0.75067 0.81396
 H972 H 0.92548 0.75031 0.85424
 C973 C 0.39294 0.25113 0.39211
 C974 C 0.40126 0.25126 0.36062
 C975 C 0.37824 0.25142 0.33760
 C976 C 0.43647 0.25052 0.43569
 C977 C 0.33841 0.25144 0.37756
 C978 C 0.36149 0.25128 0.40052
 C979 C 0.41665 0.25078 0.41580
 C980 C 0.34649 0.25142 0.34578
 H981 H 0.42556 0.25118 0.35386
 H982 H 0.38534 0.25145 0.31341
 H983 H 0.31425 0.25149 0.38474
 H984 H 0.35479 0.25122 0.42484
 C985 C 0.10695 0.75105 0.10713
 C986 C 0.13842 0.75119 0.09879
 C987 C 0.16145 0.75130 0.12180
 C988 C 0.06351 0.75057 0.06346
 C989 C 0.12153 0.75128 0.16168
 C990 C 0.09856 0.75116 0.13861
 C991 C 0.08329 0.75077 0.08339
 C992 C 0.15330 0.75126 0.15356
 H993 H 0.14517 0.75115 0.07449
 H994 H 0.18562 0.75134 0.11467
 H995 H 0.11438 0.75130 0.18585
 H996 H 0.07425 0.75110 0.14532
 C997 C 0.60814 0.25069 0.60788
 C998 C 0.59986 0.25036 0.63938
 C999 C 0.62292 0.25059 0.66237
 C1000 C 0.56450 0.25019 0.56441
 C1001 C 0.66269 0.25159 0.62235
 C1002 C 0.63958 0.25136 0.59942
 C1003 C 0.58437 0.25038 0.58424
 C1004 C 0.65465 0.25114 0.65414
 H1005 H 0.57559 0.24989 0.64618
 H1006 H 0.61585 0.25027 0.68656
 H1007 H 0.68684 0.25207 0.61514
 H1008 H 0.64623 0.25167 0.57510
 C1009 C 0.89254 0.24816 0.10741
 C1010 C 0.86108 0.24796 0.09901
 C1011 C 0.83805 0.24776 0.12198
 C1012 C 0.93597 0.24884 0.06385
 C1013 C 0.87796 0.24781 0.16192
 C1014 C 0.90094 0.24800 0.13888
 C1015 C 0.91619 0.24855 0.08372
 C1016 C 0.84621 0.24778 0.15374
 H1017 H 0.85434 0.24803 0.07469
 H1018 H 0.81388 0.24770 0.11481
 H1019 H 0.88511 0.24777 0.18610
 H1020 H 0.92524 0.24811 0.14563
 C1021 C 0.39215 0.74932 0.60818
 C1022 C 0.36069 0.74856 0.59976
 C1023 C 0.33762 0.74833 0.62272
 C1024 C 0.43568 0.74986 0.56460
 C1025 C 0.37746 0.74951 0.66270
 C1026 C 0.40048 0.74974 0.63968
 C1027 C 0.41586 0.74965 0.58448
 C1028 C 0.34571 0.74887 0.65450
 H1029 H 0.35398 0.74819 0.57544
 H1030 H 0.31346 0.74779 0.61552
 H1031 H 0.38457 0.74990 0.68689
 H1032 H 0.42477 0.75029 0.64646
 C1033 C 0.24897 0.10739 0.89222
 C1034 C 0.24866 0.13882 0.90073
 C1035 C 0.24850 0.16194 0.87784
 C1036 C 0.24948 0.06369 0.93552
 C1037 C 0.24884 0.12216 0.83777
 C1038 C 0.24900 0.09911 0.86071
 C1039 C 0.24928 0.08361 0.91579
 C1040 C 0.24866 0.15389 0.84605
 H1041 H 0.24859 0.14547 0.92507
 H1042 H 0.24831 0.18609 0.88508
 H1043 H 0.24893 0.11509 0.81356
 H1044 H 0.24920 0.07482 0.85388
 C1045 C 0.74916 0.60820 0.39229
 C1046 C 0.74881 0.63966 0.40073
 C1047 C 0.74856 0.66276 0.37779
 C1048 C 0.74981 0.56455 0.43576
 C1049 C 0.74891 0.62292 0.33779
 C1050 C 0.74916 0.59989 0.36079
 C1051 C 0.74954 0.58444 0.41595
 C1052 C 0.74869 0.65468 0.34600
 H1053 H 0.74876 0.64636 0.42505
 H1054 H 0.74834 0.68692 0.38499
 H1055 H 0.74897 0.61582 0.31359
 H1056 H 0.74939 0.57560 0.35398
 C1057 C 0.75078 0.10711 0.10728
 C1058 C 0.75111 0.13855 0.09880
 C1059 C 0.75130 0.16169 0.12171
 C1060 C 0.75029 0.06337 0.06391
 C1061 C 0.75093 0.12193 0.16175
 C1062 C 0.75074 0.09886 0.13878
 C1063 C 0.75048 0.08331 0.08367
 C1064 C 0.75114 0.15367 0.15350
 H1065 H 0.75119 0.14519 0.07446
 H1066 H 0.75152 0.18584 0.11449
 H1067 H 0.75085 0.11487 0.18595
 H1068 H 0.75053 0.07458 0.14560
 C1069 C 0.25056 0.60759 0.60789
 C1070 C 0.25090 0.63906 0.59954
 C1071 C 0.25109 0.66209 0.62255
 C1072 C 0.25005 0.56412 0.56425
 C1073 C 0.25070 0.62218 0.66243
 C1074 C 0.25051 0.59920 0.63936
 C1075 C 0.25025 0.58393 0.58415
 C1076 C 0.25092 0.65394 0.65431
 H1077 H 0.25099 0.64581 0.57524
 H1078 H 0.25132 0.68627 0.61542
 H1079 H 0.25060 0.61503 0.68661
 H1080 H 0.25029 0.57489 0.64607
 C1081 C 0.75098 0.89259 0.89335
 C1082 C 0.75091 0.90098 0.86188
 C1083 C 0.75111 0.87801 0.83881
 C1084 C 0.75041 0.93608 0.93697
 C1085 C 0.75157 0.83809 0.87867
 C1086 C 0.75137 0.86111 0.90169
 C1087 C 0.75065 0.91626 0.91709
 C1088 C 0.75137 0.84625 0.84691
 H1089 H 0.75065 0.92529 0.85518
 H1090 H 0.75099 0.88517 0.81464
 H1091 H 0.75182 0.81391 0.88579
 H1092 H 0.75147 0.85436 0.92599
 C1093 C 0.25091 0.39199 0.39252
 C1094 C 0.25088 0.40031 0.36104
 C1095 C 0.25112 0.37729 0.33802
 C1096 C 0.25027 0.43564 0.43598
 C1097 C 0.25154 0.33745 0.37797
 C1098 C 0.25130 0.36054 0.40094
 C1099 C 0.25053 0.41574 0.41618
 C1100 C 0.25137 0.34554 0.34620
 H1101 H 0.25062 0.42461 0.35426
 H1102 H 0.25102 0.38440 0.31383
 H1103 H 0.25179 0.31329 0.38515
 H1104 H 0.25138 0.35384 0.42526
 C1105 C 0.24865 0.89164 0.10688
 C1106 C 0.24864 0.90005 0.13835
 C1107 C 0.24841 0.87709 0.16139
 C1108 C 0.24928 0.93516 0.06341
 C1109 C 0.24808 0.83715 0.12148
 C1110 C 0.24830 0.86017 0.09849
 C1111 C 0.24902 0.91531 0.08322
 C1112 C 0.24821 0.84533 0.15323
 H1113 H 0.24886 0.92436 0.14509
 H1114 H 0.24848 0.88426 0.18557
 H1115 H 0.24786 0.81297 0.11433
 H1116 H 0.24826 0.85342 0.07418
 C1117 C 0.74979 0.39249 0.60761
 C1118 C 0.74951 0.36100 0.59923
 C1119 C 0.74936 0.33795 0.62221
 C1120 C 0.75020 0.43605 0.56405
 C1121 C 0.74966 0.37785 0.66214
 C1122 C 0.74981 0.40084 0.63910
 C1123 C 0.75004 0.41620 0.58391
 C1124 C 0.74950 0.34608 0.65399
 H1125 H 0.74944 0.35426 0.57491
 H1126 H 0.74918 0.31378 0.61504
 H1127 H 0.74973 0.38499 0.68633
 H1128 H 0.74998 0.42515 0.64587
 C1129 C 0.10764 0.10785 0.75008
 C1130 C 0.09936 0.13934 0.75031
 C1131 C 0.12240 0.16230 0.75062
 C1132 C 0.06393 0.06456 0.74954
 C1133 C 0.16220 0.12227 0.75057
 C1134 C 0.13909 0.09936 0.75026
 C1135 C 0.08387 0.08428 0.74973
 C1136 C 0.15414 0.15404 0.75069
 H1137 H 0.07507 0.14616 0.75022
 H1138 H 0.11532 0.18649 0.75076
 H1139 H 0.18635 0.11505 0.75066
 H1140 H 0.14574 0.07503 0.75013
 C1141 C 0.60770 0.60794 0.25004
 C1142 C 0.59924 0.63940 0.25027
 C1143 C 0.62215 0.66252 0.25059
 C1144 C 0.56426 0.56426 0.24940
 C1145 C 0.66218 0.62274 0.25056
 C1146 C 0.63920 0.59968 0.25024
 C1147 C 0.58406 0.58416 0.24965
 C1148 C 0.65395 0.65448 0.25068
 H1149 H 0.57491 0.64607 0.25017
 H1150 H 0.61493 0.68667 0.25072
 H1151 H 0.68637 0.61567 0.25066
 H1152 H 0.64602 0.57539 0.25011
 C1153 C 0.10720 0.89191 0.24920
 C1154 C 0.13866 0.90032 0.24898
 C1155 C 0.16171 0.87735 0.24862
 C1156 C 0.06365 0.93536 0.24997
 C1157 C 0.12181 0.83742 0.24859
 C1158 C 0.09882 0.86045 0.24895
 C1159 C 0.08351 0.91556 0.24966
 C1160 C 0.15356 0.84559 0.24849
 H1161 H 0.14538 0.92463 0.24912
 H1162 H 0.18588 0.88450 0.24851
 H1163 H 0.11466 0.81325 0.24845
 H1164 H 0.07452 0.85370 0.24907
 C1165 C 0.60821 0.39246 0.74966
 C1166 C 0.63969 0.40082 0.74941
 C1167 C 0.66275 0.37782 0.74909
 C1168 C 0.56462 0.43601 0.75041
 C1169 C 0.62285 0.33792 0.74914
 C1170 C 0.59986 0.36097 0.74946
 C1171 C 0.58449 0.41617 0.75011
 C1172 C 0.65462 0.34605 0.74903
 H1173 H 0.64644 0.42512 0.74952
 H1174 H 0.68692 0.38497 0.74897
 H1175 H 0.61570 0.31375 0.74905
 H1176 H 0.57555 0.35423 0.74960
 C1177 C 0.89192 0.10705 0.24944
 C1178 C 0.90041 0.13848 0.24919
 C1179 C 0.87750 0.16159 0.24884
 C1180 C 0.93534 0.06347 0.25013
 C1181 C 0.83747 0.12179 0.24888
 C1182 C 0.86044 0.09875 0.24923
 C1183 C 0.91553 0.08332 0.24986
 C1184 C 0.84572 0.15352 0.24875
 H1185 H 0.92473 0.14515 0.24930
 H1186 H 0.88472 0.18574 0.24870
 H1187 H 0.81327 0.11472 0.24878
 H1188 H 0.85363 0.07446 0.24937
 C1189 C 0.39227 0.60773 0.75006
 C1190 C 0.40059 0.63922 0.74991
 C1191 C 0.37757 0.66226 0.74962
 C1192 C 0.43592 0.56422 0.75067
 C1193 C 0.33771 0.62232 0.74952
 C1194 C 0.36079 0.59934 0.74981
 C1195 C 0.41602 0.58404 0.75043
 C1196 C 0.34581 0.65410 0.74948
 H1197 H 0.42488 0.64600 0.75005
 H1198 H 0.38470 0.68644 0.74955
 H1199 H 0.31355 0.61515 0.74938
 H1200 H 0.35407 0.57503 0.74988
 C1201 C 0.89217 0.89286 0.75107
 C1202 C 0.86068 0.90116 0.75143
 C1203 C 0.83772 0.87811 0.75179
 C1204 C 0.93552 0.93651 0.75020
 C1205 C 0.87776 0.83831 0.75156
 C1206 C 0.90066 0.86142 0.75120
 C1207 C 0.91576 0.91662 0.75056
 C1208 C 0.84598 0.84638 0.75178
 H1209 H 0.85387 0.92544 0.75138
 H1210 H 0.81353 0.88518 0.75199
 H1211 H 0.88498 0.81416 0.75159
 H1212 H 0.92499 0.85477 0.75097
 C1213 C 0.39230 0.39227 0.25018
 C1214 C 0.40072 0.36080 0.25038
 C1215 C 0.37777 0.33771 0.25071
 C1216 C 0.43583 0.43586 0.24949
 C1217 C 0.33780 0.37755 0.25074
 C1218 C 0.36081 0.40058 0.25041
 C1219 C 0.41598 0.41600 0.24976
 C1220 C 0.34599 0.34579 0.25083
 H1221 H 0.42503 0.35409 0.25025
 H1222 H 0.38496 0.31355 0.25082
 H1223 H 0.31361 0.38465 0.25087
 H1224 H 0.35402 0.42487 0.25030
   
