data_POSCAR
  _audit_creation_date              2014-09-24
  _audit_creation_method            'ToBaCCo'
  _symmetry_space_group_name_H-M    'P1'
  _symmetry_Int_Tables_number       1
  _symmetry_cell_setting            triclinic
  loop_
  _symmetry_equiv_pos_as_xyz
 x,y,z
_cell_length_a 52.9709
_cell_length_b 53.0721
_cell_length_c 53.0062
_cell_angle_alpha 90.052800
_cell_angle_beta 90.001300
_cell_angle_gamma 90.000100
loop_
  _atom_site_label
  _atom_site_type_symbol
  _atom_site_fract_x
  _atom_site_fract_y
  _atom_site_fract_z
C1 C 0.25204 1.07917 -0.01308
 C2 C 0.25115 1.07933 0.01275
 C3 C 0.25096 1.05432 0.02043
 N4 N 0.25167 1.03902 0.00005
 C5 C 0.25232 1.05409 -0.02047
 C6 C 0.25086 1.04623 0.04588
 C7 C 0.25135 1.02067 0.05376
 C8 C 0.25475 1.01298 0.07857
 C9 C 0.25446 0.98712 0.07856
 C10 C 0.25092 0.97952 0.05376
 N11 N 0.24862 1.00010 0.03883
 C12 C 0.24999 0.95400 0.04591
 C13 C 0.25039 0.94571 0.02056
 C14 C 0.25069 0.92063 0.01318
 C15 C 0.25210 0.92046 -0.01263
 C16 C 0.25249 0.94548 -0.02030
 N17 N 0.25146 0.96078 0.00006
 C18 C 0.25296 0.95355 -0.04576
 C19 C 0.25215 0.97909 -0.05365
 C20 C 0.24863 0.98672 -0.07847
 C21 C 0.24841 1.01258 -0.07845
 C22 C 0.25183 1.02025 -0.05365
 N23 N 0.25451 0.99971 -0.03872
 C24 C 0.25234 1.04578 -0.04582
 H25 H 0.25230 1.09569 -0.02505
 H26 H 0.25081 1.09599 0.02454
 H27 H 0.25953 0.99979 -0.01986
 H28 H 0.25746 1.02477 0.09502
 H29 H 0.25693 0.97528 0.09499
 H30 H 0.25016 0.90411 0.02514
 H31 H 0.25257 0.90380 -0.02442
 H32 H 0.24572 1.02437 -0.09489
 H33 H 0.24359 1.00007 0.01996
 H34 H 0.24611 0.97488 -0.09492
 C35 C 0.75290 0.48722 0.57932
 C36 C 0.75196 0.51303 0.57932
 C37 C 0.75172 0.52052 0.55424
 N38 N 0.75246 0.50009 0.53904
 C39 C 0.75318 0.47970 0.55425
 C40 C 0.75161 0.54586 0.54604
 C41 C 0.75208 0.55373 0.52050
 C42 C 0.75541 0.57852 0.51286
 C43 C 0.75519 0.57855 0.48696
 C44 C 0.75178 0.55377 0.47930
 N45 N 0.74946 0.53883 0.49989
 C46 C 0.75103 0.54592 0.45375
 C47 C 0.75158 0.52057 0.44555
 C48 C 0.75201 0.51305 0.42048
 C49 C 0.75346 0.48726 0.42049
 C50 C 0.75377 0.47978 0.44556
 N51 N 0.75264 0.50019 0.46077
 C52 C 0.75420 0.45444 0.45375
 C53 C 0.75332 0.44656 0.47928
 C54 C 0.74978 0.42178 0.48684
 C55 C 0.74949 0.42176 0.51274
 C56 C 0.75289 0.44652 0.52047
 N57 N 0.75564 0.46145 0.49992
 C58 C 0.75330 0.45434 0.54604
 H59 H 0.75322 0.47536 0.59592
 H60 H 0.75162 0.52492 0.59592
 H61 H 0.76069 0.48029 0.49996
 H62 H 0.75803 0.59494 0.52471
 H63 H 0.75766 0.59498 0.47513
 H64 H 0.75151 0.52490 0.40388
 H65 H 0.75402 0.47538 0.40388
 H66 H 0.74675 0.40534 0.52452
 H67 H 0.74450 0.51997 0.49990
 H68 H 0.74729 0.40538 0.47495
 C69 C 0.74903 1.01306 1.08036
 C70 C 0.74764 0.98728 1.08036
 C71 C 0.74730 0.97972 1.05528
 N72 N 0.74834 1.00013 1.04007
 C73 C 0.74938 1.02057 1.05527
 C74 C 0.74688 0.95431 1.04707
 C75 C 0.74775 0.94649 1.02147
 C76 C 0.75130 0.92172 1.01373
 C77 C 0.75153 0.92178 0.98785
 C78 C 0.74809 0.94656 0.98026
 N79 N 0.74538 0.96143 1.00088
 C80 C 0.74758 0.95441 0.95472
 C81 C 0.74766 0.97975 0.94651
 C82 C 0.74794 0.98722 0.92144
 C83 C 0.74889 1.01303 0.92144
 C84 C 0.74912 1.02056 0.94651
 N85 N 0.74836 1.00017 0.96172
 C86 C 0.74924 1.04590 0.95471
 C87 C 0.74869 1.05375 0.98026
 C88 C 0.74530 1.07854 0.98790
 C89 C 0.74548 1.07858 1.01378
 C90 C 0.74896 1.05380 1.02147
 N91 N 0.75132 1.03886 1.00086
 C92 C 0.74982 1.04596 1.04706
 H93 H 0.74952 1.02493 1.09697
 H94 H 0.74715 0.97544 1.09698
 H95 H 0.75632 1.02001 1.00087
 H96 H 0.75383 0.90527 1.02553
 H97 H 0.75424 0.90539 0.97599
 H98 H 0.74765 0.97533 0.90484
 H99 H 0.74924 1.02489 0.90483
 H100 H 0.74298 1.09504 1.02561
 H101 H 0.74034 0.98027 1.00089
 H102 H 0.74265 1.09494 0.97607
 C103 C 0.24792 0.42056 0.48692
 C104 C 0.24643 0.42053 0.51274
 C105 C 0.24604 0.44556 0.52031
 N106 N 0.24715 0.46078 0.49992
 C107 C 0.24829 0.44561 0.47947
 C108 C 0.24553 0.45371 0.54571
 C109 C 0.24632 0.47920 0.55368
 C110 C 0.24976 0.48674 0.57852
 C111 C 0.25000 0.51260 0.57862
 C112 C 0.24666 0.52034 0.55384
 N113 N 0.24400 0.49983 0.53883
 C114 C 0.24624 0.54589 0.54609
 C115 C 0.24641 0.55413 0.52073
 C116 C 0.24670 0.57917 0.51327
 C117 C 0.24770 0.57920 0.48742
 C118 C 0.24797 0.55417 0.47985
 N119 N 0.24719 0.53896 0.50026
 C120 C 0.24814 0.54601 0.45446
 C121 C 0.24769 0.52050 0.44650
 C122 C 0.24440 0.51291 0.42166
 C123 C 0.24464 0.48704 0.42155
 C124 C 0.24806 0.47936 0.44634
 N125 N 0.25034 0.49991 0.46136
 C126 C 0.24885 0.45383 0.45411
 H127 H 0.24849 0.40400 0.47500
 H128 H 0.24590 0.40393 0.52458
 H129 H 0.25529 0.49991 0.48024
 H130 H 0.25223 0.47484 0.59492
 H131 H 0.25266 0.52436 0.59511
 H132 H 0.24635 0.59574 0.52519
 H133 H 0.24806 0.59580 0.47557
 H134 H 0.24221 0.47524 0.40506
 H135 H 0.23903 0.49989 0.51995
 H136 H 0.24176 0.52475 0.40525
 C137 C 1.07884 0.26033 -0.01391
 C138 C 1.07889 0.26057 0.01197
 C139 C 1.05448 0.25486 0.01956
 N140 N 1.03963 0.25101 -0.00084
 C141 C 1.05440 0.25451 -0.02133
 C142 C 1.04670 0.25163 0.04487
 C143 C 1.02133 0.24758 0.05218
 C144 C 1.01370 0.23966 0.07595
 C145 C 0.98775 0.23946 0.07588
 C146 C 0.98016 0.24729 0.05209
 N147 N 1.00074 0.25234 0.03784
 C148 C 0.95480 0.25106 0.04475
 C149 C 0.94694 0.25474 0.01959
 C150 C 0.92250 0.26060 0.01228
 C151 C 0.92241 0.26093 -0.01360
 C152 C 0.94681 0.25520 -0.02127
 N153 N 0.96167 0.25127 -0.00093
 C154 C 0.95455 0.25199 -0.04659
 C155 C 0.97990 0.24779 -0.05393
 C156 C 0.98742 0.23977 -0.07771
 C157 C 1.01337 0.23939 -0.07768
 C158 C 1.02109 0.24722 -0.05388
 N159 N 1.00055 0.25243 -0.03961
 C160 C 1.04653 0.25090 -0.04657
 H161 H 1.09503 0.26376 -0.02590
 H162 H 1.09512 0.26420 0.02385
 H163 H 1.00066 0.26142 -0.02222
 H164 H 1.02561 0.23475 0.09180
 H165 H 0.97583 0.23440 0.09167
 H166 H 0.90635 0.26401 0.02432
 H167 H 0.90617 0.26461 -0.02544
 H168 H 1.02522 0.23421 -0.09349
 H169 H 1.00070 0.26130 0.02045
 H170 H 0.97545 0.23490 -0.09353
 C171 C 0.48704 0.75058 0.57975
 C172 C 0.51291 0.74972 0.57971
 C173 C 0.52039 0.74922 0.55463
 N174 N 0.49991 0.74973 0.53946
 C175 C 0.47949 0.75056 0.55469
 C176 C 0.54578 0.74904 0.54639
 C177 C 0.55366 0.74932 0.52083
 C178 C 0.57853 0.75240 0.51315
 C179 C 0.57853 0.75217 0.48726
 C180 C 0.55367 0.74898 0.47963
 N181 N 0.53871 0.74681 0.50024
 C182 C 0.54578 0.74840 0.45409
 C183 C 0.52037 0.74905 0.44592
 C184 C 0.51283 0.74977 0.42087
 C185 C 0.48699 0.75120 0.42092
 C186 C 0.47950 0.75121 0.44600
 N187 N 0.49995 0.74992 0.46117
 C188 C 0.45412 0.75148 0.45424
 C189 C 0.44626 0.75037 0.47977
 C190 C 0.42149 0.74653 0.48736
 C191 C 0.42148 0.74621 0.51326
 C192 C 0.44626 0.74989 0.52095
 N193 N 0.46117 0.75283 0.50039
 C194 C 0.45408 0.75048 0.54651
 H195 H 0.47517 0.75104 0.59636
 H196 H 0.52483 0.74959 0.59630
 H197 H 0.47997 0.75817 0.50042
 H198 H 0.59500 0.75491 0.52497
 H199 H 0.59501 0.75449 0.47540
 H200 H 0.52470 0.74947 0.40425
 H201 H 0.47508 0.75193 0.40434
 H202 H 0.40507 0.74329 0.52506
 H203 H 0.51975 0.74211 0.50028
 H204 H 0.40507 0.74388 0.47548
 C205 C -0.01333 0.73982 -0.07837
 C206 C 0.01257 0.73958 -0.07833
 C207 C 0.02009 0.74535 -0.05391
 N208 N -0.00037 0.74924 -0.03915
 C209 C -0.02083 0.74570 -0.05397
 C210 C 0.04539 0.74859 -0.04606
 C211 C 0.05262 0.75269 -0.02068
 C212 C 0.07640 0.76062 -0.01299
 C213 C 0.07624 0.76087 0.01295
 C214 C 0.05239 0.75306 0.02045
 N215 N 0.03820 0.74798 -0.00015
 C216 C 0.04496 0.74934 0.04578
 C217 C 0.01975 0.74568 0.05355
 C218 C 0.01234 0.73985 0.07795
 C219 C -0.01356 0.73953 0.07795
 C220 C -0.02114 0.74522 0.05354
 N221 N -0.00073 0.74913 0.03875
 C222 C -0.04644 0.74842 0.04571
 C223 C -0.05370 0.75258 0.02035
 C224 C -0.07746 0.76059 0.01274
 C225 C -0.07733 0.76092 -0.01318
 C226 C -0.05351 0.75306 -0.02081
 N227 N -0.03930 0.74789 -0.00023
 C228 C -0.04610 0.74933 -0.04620
 H229 H -0.02527 0.73635 -0.09458
 H230 H 0.02450 0.73591 -0.09449
 H231 H -0.02191 0.73890 -0.00027
 H232 H 0.09230 0.76551 -0.02484
 H233 H 0.09200 0.76595 0.02491
 H234 H 0.02434 0.73646 0.09413
 H235 H -0.02546 0.73587 0.09414
 H236 H -0.09312 0.76608 -0.02509
 H237 H 0.02079 0.73902 -0.00017
 H238 H -0.09333 0.76548 0.02465
 C239 C 0.57961 0.24966 0.51282
 C240 C 0.57968 0.25060 0.48697
 C241 C 0.55461 0.25092 0.47938
 N242 N 0.53934 0.25023 0.49978
 C243 C 0.55450 0.24946 0.52026
 C244 C 0.54647 0.25105 0.45398
 C245 C 0.52093 0.25068 0.44601
 C246 C 0.51335 0.24741 0.42115
 C247 C 0.48743 0.24769 0.42103
 C248 C 0.47971 0.25110 0.44582
 N249 N 0.50028 0.25335 0.46085
 C250 C 0.45412 0.25187 0.45358
 C251 C 0.44585 0.25130 0.47894
 C252 C 0.42074 0.25085 0.48637
 C253 C 0.42067 0.24934 0.51219
 C254 C 0.44574 0.24902 0.51977
 N255 N 0.46101 0.25020 0.49940
 C256 C 0.45387 0.24852 0.54517
 C257 C 0.47938 0.24939 0.55316
 C258 C 0.48689 0.25289 0.57800
 C259 C 0.51281 0.25316 0.57812
 C260 C 0.52060 0.24979 0.55335
 N261 N 0.50008 0.24709 0.53832
 C262 C 0.54621 0.24934 0.54561
 H263 H 0.59619 0.24929 0.52475
 H264 H 0.59633 0.25088 0.47513
 H265 H 0.50017 0.24207 0.51945
 H266 H 0.52524 0.24476 0.40475
 H267 H 0.47563 0.24528 0.40453
 H268 H 0.40416 0.25136 0.47444
 H269 H 0.40402 0.24875 0.52401
 H270 H 0.52455 0.25585 0.59461
 H271 H 0.50025 0.25826 0.47975
 H272 H 0.47494 0.25535 0.59439
 C273 C 1.08044 -0.01281 0.25231
 C274 C 1.08043 0.01299 0.25137
 C275 C 1.05533 0.02051 0.25077
 N276 N 1.04012 0.00006 0.25127
 C277 C 1.05534 -0.02036 0.25220
 C278 C 1.04709 0.04590 0.25046
 C279 C 1.02146 0.05373 0.25071
 C280 C 1.01366 0.07856 0.25374
 C281 C 0.98777 0.07850 0.25340
 C282 C 0.98022 0.05366 0.25021
 N283 N 1.00089 0.03876 0.24815
 C284 C 0.95468 0.04576 0.24946
 C285 C 0.94650 0.02042 0.25008
 C286 C 0.92141 0.01292 0.25064
 C287 C 0.92143 -0.01287 0.25208
 C288 C 0.94652 -0.02035 0.25225
 N289 N 0.96173 0.00003 0.25105
 C290 C 0.95473 -0.04568 0.25257
 C291 C 0.98028 -0.05352 0.25160
 C292 C 0.98785 -0.07826 0.24780
 C293 C 1.01375 -0.07830 0.24760
 C294 C 1.02151 -0.05356 0.25134
 N295 N 1.00092 -0.03866 0.25416
 C296 C 1.04713 -0.04576 0.25210
 H297 H 1.09706 -0.02465 0.25284
 H298 H 1.09705 0.02486 0.25127
 H299 H 1.00095 -0.01988 0.25948
 H300 H 1.02542 0.09505 0.25626
 H301 H 0.97585 0.09492 0.25565
 H302 H 0.90479 0.02478 0.25022
 H303 H 0.90482 -0.02474 0.25271
 H304 H 1.02554 -0.09472 0.24475
 H305 H 1.00097 0.01983 0.24347
 H306 H 0.97596 -0.09463 0.24509
 C307 C 0.48674 0.57910 0.75113
 C308 C 0.51258 0.57915 0.75253
 C309 C 0.52013 0.55412 0.75302
 N310 N 0.49972 0.53890 0.75205
 C311 C 0.47925 0.55405 0.75091
 C312 C 0.54555 0.54597 0.75353
 C313 C 0.55348 0.52047 0.75281
 C314 C 0.57834 0.51291 0.74946
 C315 C 0.57838 0.48704 0.74920
 C316 C 0.55355 0.47933 0.75241
 N317 N 0.53857 0.49986 0.75503
 C318 C 0.54574 0.45378 0.75274
 C319 C 0.52035 0.44554 0.75255
 C320 C 0.51287 0.42049 0.75210
 C321 C 0.48700 0.42046 0.75119
 C322 C 0.47944 0.44548 0.75114
 N323 N 0.49987 0.46070 0.75197
 C324 C 0.45403 0.45364 0.75115
 C325 C 0.44613 0.47916 0.75173
 C326 C 0.42132 0.48678 0.75526
 C327 C 0.42127 0.51265 0.75504
 C328 C 0.44605 0.52030 0.75142
 N329 N 0.46102 0.49974 0.74898
 C330 C 0.45387 0.54583 0.75053
 H331 H 0.47482 0.59566 0.75054
 H332 H 0.52445 0.59575 0.75296
 H333 H 0.47986 0.49974 0.74383
 H334 H 0.59478 0.52478 0.74707
 H335 H 0.59487 0.47528 0.74659
 H336 H 0.52479 0.40393 0.75228
 H337 H 0.47513 0.40386 0.75075
 H338 H 0.40481 0.52447 0.75763
 H339 H 0.51965 0.49980 0.75988
 H340 H 0.40490 0.47495 0.75802
 C341 C 1.01378 1.07796 0.75939
 C342 C 0.98788 1.07798 0.75911
 C343 C 0.98044 1.05356 0.75349
 N344 N 1.00091 1.03873 0.75011
 C345 C 1.02134 1.05352 0.75388
 C346 C 0.95520 1.04577 0.74999
 C347 C 0.94777 1.02044 0.74647
 C348 C 0.92388 1.01283 0.73889
 C349 C 0.92379 0.98692 0.73921
 C350 C 0.94764 0.97937 0.74695
 N351 N 0.96205 0.99991 0.75151
 C352 C 0.95495 0.95408 0.75097
 C353 C 0.98021 0.94622 0.75416
 C354 C 0.98763 0.92182 0.75982
 C355 C 1.01353 0.92172 0.75962
 C356 C 1.02111 0.94608 0.75385
 N357 N 1.00069 0.96094 0.75035
 C358 C 1.04640 0.95382 0.75030
 C359 C 1.05382 0.97917 0.74655
 C360 C 1.07767 0.98675 0.73874
 C361 C 1.07776 1.01265 0.73890
 C362 C 1.05395 1.02030 0.74678
 N363 N 1.03958 0.99976 0.75155
 C364 C 1.04666 1.04566 0.75074
 H365 H 1.02569 1.09416 0.76292
 H366 H 0.97590 1.09417 0.76241
 H367 H 1.02215 0.99978 0.76048
 H368 H 0.90804 1.02472 0.73388
 H369 H 0.90789 0.97501 0.73448
 H370 H 0.97564 0.90570 0.76341
 H371 H 1.02543 0.90549 0.76304
 H372 H 1.09363 1.02452 0.73399
 H373 H 0.97954 0.99996 0.76031
 H374 H 1.09348 0.97484 0.73369
 C375 C 0.51286 0.57938 0.24875
 C376 C 0.48702 0.57938 0.24725
 C377 C 0.47951 0.55435 0.24677
 N378 N 0.49993 0.53915 0.24785
 C379 C 0.52037 0.55433 0.24904
 C380 C 0.45411 0.54617 0.24622
 C381 C 0.44622 0.52066 0.24693
 C382 C 0.42139 0.51307 0.25035
 C383 C 0.42138 0.48720 0.25053
 C384 C 0.44621 0.47953 0.24719
 N385 N 0.46116 0.50007 0.24457
 C386 C 0.45405 0.45400 0.24670
 C387 C 0.47944 0.44579 0.24685
 C388 C 0.48695 0.42075 0.24708
 C389 C 0.51281 0.42074 0.24808
 C390 C 0.52034 0.44578 0.24840
 N391 N 0.49989 0.46098 0.24765
 C392 C 0.54573 0.45398 0.24859
 C393 C 0.55360 0.47950 0.24822
 C394 C 0.57844 0.48716 0.24492
 C395 C 0.57845 0.51302 0.24524
 C396 C 0.55362 0.52063 0.24869
 N397 N 0.53866 0.50005 0.25093
 C398 C 0.54576 0.54614 0.24956
 H399 H 0.52475 0.59595 0.24936
 H400 H 0.47514 0.59597 0.24676
 H401 H 0.51977 0.50002 0.25590
 H402 H 0.40494 0.52492 0.25285
 H403 H 0.40492 0.47541 0.25316
 H404 H 0.47505 0.40417 0.24671
 H405 H 0.52471 0.40416 0.24841
 H406 H 0.59491 0.52487 0.24283
 H407 H 0.48005 0.50005 0.23960
 H408 H 0.59489 0.47536 0.24225
 O409 O 0.25036 0.18468 0.21404
 O410 O 0.27785 0.17752 0.24900
 O411 O 0.18420 0.21504 0.25048
 O412 O 0.17499 0.24779 0.27518
 O413 O 0.21466 0.25041 0.18357
 O414 O 0.24973 0.27795 0.17643
 O415 O 0.25013 0.28497 0.31437
 O416 O 0.22076 0.25117 0.32079
 O417 O 0.31491 0.25114 0.28387
 O418 O 0.32283 0.22258 0.24830
 O419 O 0.28423 0.31527 0.24972
 O420 O 0.24811 0.32287 0.22124
 O421 O 0.25030 0.31520 0.28393
 O422 O 0.22133 0.32263 0.24797
 O423 O 0.31472 0.28506 0.24968
 O424 O 0.32230 0.24874 0.22091
 O425 O 0.28463 0.25184 0.31433
 O426 O 0.25426 0.22295 0.32231
 O427 O 0.25024 0.21495 0.18360
 O428 O 0.27786 0.25012 0.17654
 O429 O 0.18430 0.25005 0.21400
 O430 O 0.17843 0.27930 0.24949
 O431 O 0.21459 0.18471 0.24919
 O432 O 0.25124 0.17713 0.27681
 Zr433 Zr 0.24885 0.20487 0.24823
 O434 O 0.27233 0.22665 0.27174
 Zr435 Zr 0.20445 0.24903 0.24828
 O436 O 0.22603 0.27264 0.27193
 Zr437 Zr 0.24879 0.24907 0.20385
 O438 O 0.27225 0.27277 0.22545
 Zr439 Zr 0.25051 0.25090 0.29414
 O440 O 0.22656 0.22680 0.27291
 Zr441 Zr 0.29466 0.25084 0.24969
 O442 O 0.27325 0.22688 0.22592
 Zr443 Zr 0.25010 0.29500 0.24972
 O444 O 0.22639 0.27338 0.22586
 O445 O 0.22536 0.22566 0.22477
 O446 O 0.27397 0.27455 0.27331
 C447 C 0.25093 0.19192 0.19094
 C448 C 0.19152 0.19198 0.25048
 C449 C 0.19157 0.25081 0.19090
 C450 C 0.25022 0.30800 0.30704
 C451 C 0.30770 0.25165 0.30697
 C452 C 0.30735 0.30808 0.24970
 H453 H 0.28259 0.21531 0.28240
 H454 H 0.28260 0.28317 0.21397
 H455 H 0.21457 0.21484 0.21403
 H456 H 0.21465 0.28289 0.28257
 H457 H 0.20947 0.23695 0.31646
 H458 H 0.18123 0.25628 0.29057
 H459 H 0.31902 0.26255 0.20882
 H460 H 0.29117 0.23845 0.18246
 H461 H 0.24394 0.20848 0.31680
 H462 H 0.23645 0.17931 0.28801
 H463 H 0.26153 0.31927 0.20877
 H464 H 0.23816 0.29132 0.18244
 H465 H 0.29131 0.18367 0.23760
 H466 H 0.31881 0.20992 0.26139
 H467 H 0.18346 0.29129 0.23610
 H468 H 0.20919 0.31917 0.26171
 O469 O 0.74945 0.81541 0.21448
 O470 O 0.72220 0.82272 0.24960
 O471 O 0.81573 0.78490 0.25059
 O472 O 0.82504 0.75212 0.27511
 O473 O 0.78477 0.74956 0.18377
 O474 O 0.74960 0.72208 0.17684
 O475 O 0.74998 0.71529 0.31479
 O476 O 0.77950 0.74900 0.32104
 O477 O 0.68514 0.74925 0.28468
 O478 O 0.67708 0.77777 0.24915
 O479 O 0.71543 0.68497 0.25035
 O480 O 0.75132 0.67720 0.22167
 O481 O 0.74956 0.68502 0.28435
 O482 O 0.77832 0.67746 0.24818
 O483 O 0.68502 0.71526 0.25051
 O484 O 0.67736 0.75154 0.22177
 O485 O 0.71559 0.74851 0.31497
 O486 O 0.74609 0.77735 0.32275
 O487 O 0.74927 0.78509 0.18403
 O488 O 0.72153 0.74997 0.17713
 O489 O 0.81531 0.74988 0.21402
 O490 O 0.82129 0.72061 0.24946
 O491 O 0.78544 0.81532 0.24947
 O492 O 0.74894 0.82307 0.27725
 Zr493 Zr 0.75111 0.79527 0.24866
 O494 O 0.72770 0.77359 0.27230
 Zr495 Zr 0.79537 0.75097 0.24843
 O496 O 0.77387 0.72747 0.27221
 Zr497 Zr 0.75077 0.75101 0.20427
 O498 O 0.72737 0.72741 0.22600
 Zr499 Zr 0.74959 0.74932 0.29457
 O500 O 0.77348 0.77331 0.27320
 Zr501 Zr 0.70517 0.74943 0.25038
 O502 O 0.72651 0.77329 0.22649
 Zr503 Zr 0.74961 0.70515 0.25013
 O504 O 0.77323 0.72666 0.22613
 O505 O 0.77440 0.77438 0.22505
 O506 O 0.72594 0.72570 0.27387
 C507 C 0.74869 0.80814 0.19138
 C508 C 0.80849 0.80797 0.25066
 C509 C 0.80791 0.74912 0.19096
 C510 C 0.74979 0.69225 0.30746
 C511 C 0.69248 0.74875 0.30774
 C512 C 0.69233 0.69222 0.25050
 H513 H 0.71753 0.78498 0.28302
 H514 H 0.71692 0.71701 0.21458
 H515 H 0.78515 0.78517 0.21426
 H516 H 0.78529 0.71721 0.28278
 H517 H 0.79081 0.76318 0.31664
 H518 H 0.81884 0.74376 0.29057
 H519 H 0.68053 0.73770 0.20967
 H520 H 0.70828 0.76168 0.18314
 H521 H 0.75647 0.79176 0.31721
 H522 H 0.76377 0.82087 0.28838
 H523 H 0.73787 0.68085 0.20925
 H524 H 0.76117 0.70869 0.18279
 H525 H 0.70864 0.81657 0.23830
 H526 H 0.68120 0.79043 0.26222
 H527 H 0.81618 0.70865 0.23606
 H528 H 0.79051 0.68088 0.26189
 O529 O 0.75003 0.18494 0.78547
 O530 O 0.72250 0.17756 0.75055
 O531 O 0.81611 0.21515 0.74881
 O532 O 0.82520 0.24778 0.72391
 O533 O 0.78575 0.25085 0.81563
 O534 O 0.75066 0.27841 0.82273
 O535 O 0.75002 0.28471 0.68479
 O536 O 0.77938 0.25088 0.67844
 O537 O 0.68529 0.25093 0.71551
 O538 O 0.67747 0.22255 0.75120
 O539 O 0.71593 0.31530 0.74941
 O540 O 0.75211 0.32305 0.77782
 O541 O 0.74985 0.31508 0.71514
 O542 O 0.77880 0.32277 0.75102
 O543 O 0.68548 0.28504 0.74959
 O544 O 0.67801 0.24886 0.77849
 O545 O 0.71551 0.25152 0.68500
 O546 O 0.74589 0.22267 0.67703
 O547 O 0.75017 0.21537 0.81580
 O548 O 0.72257 0.25055 0.82280
 O549 O 0.81604 0.25036 0.78513
 O550 O 0.82182 0.27942 0.74955
 O551 O 0.78577 0.18480 0.75027
 O552 O 0.74911 0.17704 0.72272
 Zr553 Zr 0.75148 0.20494 0.75119
 O554 O 0.72793 0.22657 0.72766
 Zr555 Zr 0.79582 0.24914 0.75090
 O556 O 0.77416 0.27262 0.72723
 Zr557 Zr 0.75157 0.24937 0.79542
 O558 O 0.72802 0.27292 0.77379
 Zr559 Zr 0.74967 0.25074 0.70514
 O560 O 0.77368 0.22676 0.72639
 Zr561 Zr 0.70560 0.25085 0.74965
 O562 O 0.72709 0.22705 0.77347
 Zr563 Zr 0.75009 0.29506 0.74941
 O564 O 0.77389 0.27359 0.77328
 O565 O 0.77498 0.22588 0.77454
 O566 O 0.72621 0.27447 0.72592
 C567 C 0.74948 0.19230 0.80855
 C568 C 0.80883 0.19209 0.74892
 C569 C 0.80883 0.25122 0.80824
 C570 C 0.74994 0.30778 0.69206
 C571 C 0.69246 0.25132 0.69239
 C572 C 0.69281 0.30808 0.74949
 H573 H 0.71766 0.21516 0.71705
 H574 H 0.71767 0.28337 0.78526
 H575 H 0.78580 0.21512 0.78530
 H576 H 0.78551 0.28283 0.71654
 H577 H 0.79068 0.23666 0.68279
 H578 H 0.81893 0.25625 0.70853
 H579 H 0.68130 0.26273 0.79053
 H580 H 0.70923 0.23886 0.81693
 H581 H 0.75614 0.20818 0.68262
 H582 H 0.76387 0.17920 0.71148
 H583 H 0.73869 0.31953 0.79029
 H584 H 0.76223 0.29175 0.81666
 H585 H 0.70906 0.18374 0.76196
 H586 H 0.68149 0.20984 0.73815
 H587 H 0.81679 0.29149 0.76289
 H588 H 0.79098 0.31920 0.73733
 O589 O 0.25039 0.81530 0.78591
 O590 O 0.27773 0.82245 0.75081
 O591 O 0.18402 0.78508 0.74972
 O592 O 0.17468 0.75236 0.72499
 O593 O 0.21470 0.74961 0.81647
 O594 O 0.24975 0.72200 0.82343
 O595 O 0.24958 0.71507 0.68551
 O596 O 0.22023 0.74894 0.67924
 O597 O 0.31453 0.74887 0.71575
 O598 O 0.32265 0.77734 0.75134
 O599 O 0.28394 0.68469 0.74996
 O600 O 0.24792 0.67715 0.77864
 O601 O 0.24982 0.68483 0.71593
 O602 O 0.22105 0.67739 0.75201
 O603 O 0.31446 0.71486 0.74987
 O604 O 0.32220 0.75113 0.77868
 O605 O 0.28414 0.74821 0.68541
 O606 O 0.25377 0.77707 0.67755
 O607 O 0.25036 0.78500 0.81632
 O608 O 0.27793 0.74979 0.82324
 O609 O 0.18422 0.75003 0.78615
 O610 O 0.17816 0.72083 0.75067
 O611 O 0.21444 0.81537 0.75091
 O612 O 0.25097 0.82291 0.72314
 Zr613 Zr 0.24868 0.79515 0.75170
 O614 O 0.27204 0.77334 0.72808
 Zr615 Zr 0.20423 0.75105 0.75179
 O616 O 0.22569 0.72742 0.72805
 Zr617 Zr 0.24876 0.75091 0.79604
 O618 O 0.27211 0.72720 0.77434
 Zr619 Zr 0.25010 0.74914 0.70575
 O620 O 0.22628 0.77326 0.72709
 Zr621 Zr 0.29444 0.74911 0.75001
 O622 O 0.27315 0.77308 0.77389
 Zr623 Zr 0.24983 0.70501 0.75015
 O624 O 0.22623 0.72665 0.77411
 O625 O 0.22527 0.77437 0.77524
 O626 O 0.27363 0.72544 0.72646
 C627 C 0.25106 0.80804 0.80900
 C628 C 0.19135 0.80813 0.74971
 C629 C 0.19158 0.74925 0.80922
 C630 C 0.24964 0.69204 0.69283
 C631 C 0.30724 0.74840 0.69267
 C632 C 0.30707 0.69185 0.74986
 H633 H 0.28227 0.78469 0.71739
 H634 H 0.28250 0.71677 0.78576
 H635 H 0.21454 0.78520 0.78604
 H636 H 0.21425 0.71719 0.71746
 H637 H 0.20900 0.76321 0.68361
 H638 H 0.18085 0.74384 0.70958
 H639 H 0.31897 0.73731 0.79075
 H640 H 0.29125 0.76141 0.81726
 H641 H 0.24359 0.79160 0.68316
 H642 H 0.23614 0.82074 0.71199
 H643 H 0.26145 0.68068 0.79101
 H644 H 0.23814 0.70865 0.81745
 H645 H 0.29122 0.81629 0.76216
 H646 H 0.31858 0.79002 0.73829
 H647 H 0.18323 0.70881 0.76402
 H648 H 0.20881 0.68092 0.73837
 O649 O 0.24846 0.31472 0.71486
 O650 O 0.22123 0.32190 0.75004
 O651 O 0.31476 0.28451 0.75088
 O652 O 0.32435 0.25185 0.77537
 O653 O 0.28410 0.24901 0.68405
 O654 O 0.24918 0.22145 0.67698
 O655 O 0.24883 0.21480 0.81511
 O656 O 0.27809 0.24788 0.82186
 O657 O 0.18424 0.24832 0.78466
 O658 O 0.17603 0.27647 0.74874
 O659 O 0.21506 0.18401 0.75062
 O660 O 0.25101 0.17634 0.72219
 O661 O 0.24900 0.18445 0.78474
 O662 O 0.27804 0.17701 0.74864
 O663 O 0.18447 0.21410 0.75070
 O664 O 0.17667 0.25017 0.72170
 O665 O 0.21459 0.24822 0.81505
 O666 O 0.24913 0.27750 0.82271
 O667 O 0.24840 0.28441 0.68439
 O668 O 0.22086 0.24903 0.67738
 O669 O 0.31462 0.24948 0.71432
 O670 O 0.32058 0.22000 0.74950
 O671 O 0.28428 0.31478 0.75029
 O672 O 0.24906 0.32170 0.77807
 Zr673 Zr 0.25015 0.29447 0.74895
 O674 O 0.22659 0.27280 0.77240
 Zr675 Zr 0.29467 0.25039 0.74869
 O676 O 0.27319 0.22696 0.77257
 Zr677 Zr 0.25009 0.25027 0.70452
 O678 O 0.22681 0.22650 0.72619
 Zr679 Zr 0.24873 0.24879 0.79482
 O680 O 0.27260 0.27254 0.77334
 Zr681 Zr 0.20438 0.24841 0.75044
 O682 O 0.22568 0.27242 0.72669
 Zr683 Zr 0.24909 0.20446 0.75048
 O684 O 0.27261 0.22601 0.72641
 O685 O 0.27359 0.27374 0.72535
 O686 O 0.22524 0.22495 0.77412
 C687 C 0.24773 0.30745 0.69177
 C688 C 0.30739 0.30755 0.75125
 C689 C 0.30722 0.24869 0.69127
 C690 C 0.24891 0.19175 0.80782
 C691 C 0.19151 0.24820 0.80774
 C692 C 0.19192 0.19110 0.75073
 H693 H 0.21602 0.28420 0.78267
 H694 H 0.21648 0.21600 0.71477
 H695 H 0.28430 0.28463 0.71461
 H696 H 0.28459 0.21677 0.78322
 H697 H 0.29091 0.26030 0.81636
 H698 H 0.31887 0.24218 0.79034
 H699 H 0.17994 0.23625 0.70971
 H700 H 0.20758 0.26074 0.68332
 H701 H 0.23593 0.28997 0.81849
 H702 H 0.26088 0.31583 0.79130
 H703 H 0.23778 0.18003 0.70956
 H704 H 0.26062 0.20800 0.68303
 H705 H 0.20763 0.31573 0.73882
 H706 H 0.17982 0.28921 0.76183
 H707 H 0.31548 0.20812 0.73602
 H708 H 0.29005 0.18040 0.76252
 O709 O 0.75123 0.68481 0.71541
 O710 O 0.77863 0.67749 0.75039
 O711 O 0.68500 0.71503 0.75184
 O712 O 0.67574 0.74774 0.77659
 O713 O 0.71563 0.75058 0.68507
 O714 O 0.75069 0.77818 0.67810
 O715 O 0.75079 0.78476 0.81600
 O716 O 0.72141 0.75097 0.82228
 O717 O 0.81562 0.75100 0.78556
 O718 O 0.82368 0.72261 0.74994
 O719 O 0.78506 0.81528 0.75156
 O720 O 0.74898 0.82291 0.72296
 O721 O 0.75102 0.81507 0.78565
 O722 O 0.72219 0.82266 0.74967
 O723 O 0.81554 0.78506 0.75153
 O724 O 0.82314 0.74880 0.72259
 O725 O 0.78528 0.75161 0.81596
 O726 O 0.75490 0.72272 0.82379
 O727 O 0.75122 0.71518 0.68507
 O728 O 0.77882 0.75036 0.67816
 O729 O 0.68521 0.75011 0.71544
 O730 O 0.67924 0.77929 0.75096
 O731 O 0.71537 0.68469 0.75051
 O732 O 0.75201 0.67705 0.77817
 Zr733 Zr 0.74965 0.70486 0.74967
 O734 O 0.77309 0.72658 0.77326
 Zr735 Zr 0.70526 0.74903 0.74975
 O736 O 0.72680 0.77257 0.77349
 Zr737 Zr 0.74971 0.74921 0.70543
 O738 O 0.77314 0.77284 0.72712
 Zr739 Zr 0.75121 0.75075 0.79569
 O740 O 0.72731 0.72671 0.77436
 Zr741 Zr 0.79548 0.75084 0.75135
 O742 O 0.77411 0.72695 0.72747
 Zr743 Zr 0.75092 0.79499 0.75139
 O744 O 0.72725 0.77344 0.72744
 O745 O 0.72622 0.72573 0.72622
 O746 O 0.77473 0.77447 0.77498
 C747 C 0.75187 0.69213 0.69234
 C748 C 0.69230 0.69197 0.75180
 C749 C 0.69253 0.75092 0.69237
 C750 C 0.75087 0.80780 0.80873
 C751 C 0.80835 0.75142 0.80865
 C752 C 0.80817 0.80809 0.75160
 H753 H 0.78333 0.71520 0.78391
 H754 H 0.78352 0.78328 0.71569
 H755 H 0.71546 0.71493 0.71543
 H756 H 0.71539 0.78279 0.78413
 H757 H 0.71012 0.73675 0.81788
 H758 H 0.68195 0.75620 0.79201
 H759 H 0.81997 0.76272 0.71061
 H760 H 0.79214 0.73870 0.68409
 H761 H 0.74457 0.70827 0.81823
 H762 H 0.73719 0.67917 0.78934
 H763 H 0.76249 0.81941 0.71057
 H764 H 0.73909 0.79152 0.68412
 H765 H 0.79213 0.68368 0.73907
 H766 H 0.81957 0.70986 0.76291
 H767 H 0.68429 0.79131 0.73762
 H768 H 0.70996 0.81910 0.76331
 O769 O 0.24860 0.68477 0.28506
 O770 O 0.22115 0.67754 0.25007
 O771 O 0.31475 0.71516 0.24868
 O772 O 0.32398 0.74793 0.22410
 O773 O 0.28417 0.75053 0.31565
 O774 O 0.24907 0.77803 0.32280
 O775 O 0.24882 0.78500 0.18492
 O776 O 0.27826 0.75126 0.17846
 O777 O 0.18408 0.75111 0.21526
 O778 O 0.17609 0.72260 0.25077
 O779 O 0.21465 0.81530 0.24956
 O780 O 0.25076 0.82290 0.27813
 O781 O 0.24860 0.81523 0.21541
 O782 O 0.27751 0.82274 0.25138
 O783 O 0.18418 0.78507 0.24948
 O784 O 0.17661 0.74874 0.27822
 O785 O 0.21440 0.75181 0.18484
 O786 O 0.24480 0.72298 0.17685
 O787 O 0.24863 0.71506 0.31553
 O788 O 0.22099 0.75018 0.32263
 O789 O 0.31457 0.75017 0.28525
 O790 O 0.32047 0.77942 0.24984
 O791 O 0.28440 0.68480 0.24990
 O792 O 0.24774 0.67718 0.22227
 Zr793 Zr 0.25012 0.70493 0.25089
 O794 O 0.22665 0.72669 0.22741
 Zr795 Zr 0.29447 0.74913 0.25096
 O796 O 0.27290 0.77272 0.22734
 Zr797 Zr 0.25007 0.74914 0.29533
 O798 O 0.22661 0.77282 0.27377
 Zr799 Zr 0.24848 0.75094 0.20508
 O800 O 0.27242 0.72686 0.22628
 Zr801 Zr 0.20426 0.75086 0.24946
 O802 O 0.22567 0.72693 0.27321
 Zr803 Zr 0.24879 0.79505 0.24957
 O804 O 0.27250 0.77346 0.27341
 O805 O 0.27356 0.72575 0.27441
 O806 O 0.22497 0.77458 0.22592
 C807 C 0.24798 0.69203 0.30816
 C808 C 0.30746 0.69210 0.24861
 C809 C 0.30726 0.75094 0.30834
 C810 C 0.24870 0.80802 0.19230
 C811 C 0.19133 0.75159 0.19217
 C812 C 0.19154 0.80809 0.24951
 H813 H 0.21640 0.71533 0.21672
 H814 H 0.21624 0.78321 0.28525
 H815 H 0.28435 0.71493 0.28514
 H816 H 0.28429 0.78298 0.21673
 H817 H 0.28957 0.73705 0.18277
 H818 H 0.31775 0.75641 0.20871
 H819 H 0.17982 0.76259 0.29030
 H820 H 0.20768 0.73852 0.31667
 H821 H 0.25516 0.70853 0.18233
 H822 H 0.26253 0.67935 0.21108
 H823 H 0.23726 0.81935 0.29052
 H824 H 0.26064 0.79141 0.31684
 H825 H 0.20767 0.68369 0.26144
 H826 H 0.18018 0.70991 0.23772
 H827 H 0.31542 0.79141 0.26323
 H828 H 0.28970 0.81925 0.23768
 O829 O 0.75146 0.31545 0.28439
 O830 O 0.77877 0.32274 0.24931
 O831 O 0.68520 0.28505 0.24808
 O832 O 0.67598 0.25229 0.22337
 O833 O 0.71591 0.24970 0.31487
 O834 O 0.75101 0.22214 0.32188
 O835 O 0.75108 0.21528 0.18400
 O836 O 0.72160 0.24904 0.17768
 O837 O 0.81585 0.24924 0.21434
 O838 O 0.82384 0.27775 0.24992
 O839 O 0.78541 0.18500 0.24849
 O840 O 0.74935 0.17735 0.27714
 O841 O 0.75138 0.18505 0.21443
 O842 O 0.72256 0.17748 0.25042
 O843 O 0.81584 0.21526 0.24843
 O844 O 0.82342 0.25156 0.27728
 O845 O 0.78549 0.24851 0.18396
 O846 O 0.75505 0.27729 0.17605
 O847 O 0.75150 0.28513 0.31479
 O848 O 0.77909 0.25000 0.32177
 O849 O 0.68547 0.25004 0.28452
 O850 O 0.67953 0.22079 0.24905
 O851 O 0.71553 0.31543 0.24936
 O852 O 0.75206 0.32311 0.22162
 Zr853 Zr 0.74983 0.29532 0.25017
 O854 O 0.77328 0.27361 0.22660
 Zr855 Zr 0.70551 0.25109 0.25020
 O856 O 0.72707 0.22753 0.22649
 Zr857 Zr 0.74998 0.25107 0.29451
 O858 O 0.77344 0.22744 0.27285
 Zr859 Zr 0.75143 0.24934 0.20424
 O860 O 0.72751 0.27339 0.22554
 Zr861 Zr 0.79572 0.24944 0.24856
 O862 O 0.77433 0.27333 0.27240
 Zr863 Zr 0.75124 0.20521 0.24863
 O864 O 0.72754 0.22676 0.27255
 O865 O 0.72645 0.27447 0.27368
 O866 O 0.77500 0.22572 0.22499
 C867 C 0.75215 0.30817 0.30747
 C868 C 0.69247 0.30812 0.24810
 C869 C 0.69280 0.24929 0.30759
 C870 C 0.75122 0.19226 0.19134
 C871 C 0.80857 0.24876 0.19126
 C872 C 0.80851 0.19223 0.24841
 H873 H 0.78349 0.28498 0.21592
 H874 H 0.78384 0.21705 0.28429
 H875 H 0.71569 0.28527 0.28446
 H876 H 0.71567 0.21727 0.21588
 H877 H 0.71031 0.26326 0.18204
 H878 H 0.68219 0.24380 0.20796
 H879 H 0.82027 0.23767 0.28931
 H880 H 0.79242 0.26163 0.31580
 H881 H 0.74479 0.29178 0.18163
 H882 H 0.73725 0.32090 0.21047
 H883 H 0.76288 0.18089 0.28950
 H884 H 0.73941 0.20879 0.31591
 H885 H 0.79229 0.31661 0.26065
 H886 H 0.81976 0.29041 0.23686
 H887 H 0.68462 0.20879 0.26241
 H888 H 0.71032 0.18099 0.23678
 C889 C 0.25129 0.06448 0.06426
 C890 C 0.25164 0.08056 0.08035
 C891 C 0.25201 0.09981 0.09947
 C892 C 0.25290 0.09315 0.12502
 C893 C 0.25306 0.11188 0.14360
 C894 C 0.25234 0.13736 0.13670
 C895 C 0.25151 0.14402 0.11114
 C896 C 0.25135 0.12528 0.09256
 C897 C 0.25212 0.15663 0.15583
 C898 C 0.25172 0.17276 0.17185
 H899 H 0.25340 0.07351 0.13056
 H900 H 0.25365 0.10652 0.16331
 H901 H 0.25091 0.16365 0.10559
 H902 H 0.25065 0.13064 0.07285
 C903 C 0.75209 0.56529 0.56528
 C904 C 0.75249 0.58139 0.58132
 C905 C 0.75291 0.60055 0.60050
 C906 C 0.75385 0.62603 0.59370
 C907 C 0.75404 0.64466 0.61238
 C908 C 0.75332 0.63787 0.63790
 C909 C 0.75245 0.61237 0.64469
 C910 C 0.75226 0.59375 0.62602
 C911 C 0.75311 0.65703 0.65710
 C912 C 0.75270 0.67307 0.67320
 H913 H 0.75435 0.63148 0.57401
 H914 H 0.75467 0.66432 0.60693
 H915 H 0.75184 0.60692 0.66437
 H916 H 0.75152 0.57408 0.63146
 C917 C 0.74675 0.93589 0.06524
 C918 C 0.74665 0.91969 0.08119
 C919 C 0.74659 0.90037 0.10020
 C920 C 0.74528 0.90693 0.12578
 C921 C 0.74539 0.88815 0.14427
 C922 C 0.74680 0.86272 0.13727
 C923 C 0.74806 0.85616 0.11169
 C924 C 0.74796 0.87494 0.09319
 C925 C 0.74723 0.84341 0.15632
 C926 C 0.74777 0.82728 0.17231
 H927 H 0.74424 0.92654 0.13140
 H928 H 0.74444 0.89344 0.16400
 H929 H 0.74920 0.83656 0.10607
 H930 H 0.74899 0.86966 0.07347
 C931 C 0.24541 0.43447 0.56510
 C932 C 0.24533 0.41843 0.58118
 C933 C 0.24529 0.39926 0.60032
 C934 C 0.24638 0.40601 0.62585
 C935 C 0.24654 0.38734 0.64445
 C936 C 0.24559 0.36186 0.63758
 C937 C 0.24444 0.35511 0.61205
 C938 C 0.24429 0.37378 0.59345
 C939 C 0.24610 0.34265 0.65670
 C940 C 0.24672 0.32657 0.67272
 H941 H 0.24718 0.42566 0.63135
 H942 H 0.24747 0.39276 0.66414
 H943 H 0.24375 0.33546 0.60654
 H944 H 0.24345 0.36837 0.57375
 C945 C 0.74885 0.06533 0.93547
 C946 C 0.74854 0.08145 0.91945
 C947 C 0.74824 0.10064 0.90030
 C948 C 0.74899 0.09387 0.87475
 C949 C 0.74889 0.11252 0.85612
 C950 C 0.74803 0.13802 0.86296
 C951 C 0.74722 0.14478 0.88851
 C952 C 0.74732 0.12613 0.90714
 C953 C 0.74828 0.15721 0.84379
 C954 C 0.74869 0.17325 0.82770
 H955 H 0.74971 0.07421 0.86926
 H956 H 0.74955 0.10708 0.83643
 H957 H 0.74659 0.16444 0.89401
 H958 H 0.74674 0.13156 0.92684
 C959 C 0.24768 0.56524 0.43506
 C960 C 0.24731 0.58126 0.41896
 C961 C 0.24691 0.60039 0.39979
 C962 C 0.24772 0.62589 0.40661
 C963 C 0.24755 0.64451 0.38796
 C964 C 0.24656 0.63770 0.36244
 C965 C 0.24569 0.61220 0.35563
 C966 C 0.24586 0.59358 0.37427
 C967 C 0.24678 0.65685 0.34326
 C968 C 0.24718 0.67291 0.32721
 H969 H 0.24855 0.63135 0.42629
 H970 H 0.24827 0.66418 0.39343
 H971 H 0.24497 0.60673 0.33594
 H972 H 0.24525 0.57391 0.36882
 C973 C 0.25309 0.93530 0.93586
 C974 C 0.25319 0.91923 0.91976
 C975 C 0.25325 0.90001 0.90059
 C976 C 0.25416 0.87454 0.90745
 C977 C 0.25405 0.85584 0.88883
 C978 C 0.25304 0.86254 0.86329
 C979 C 0.25218 0.88802 0.85644
 C980 C 0.25229 0.90672 0.87505
 C981 C 0.25259 0.84329 0.84414
 C982 C 0.25202 0.82718 0.82810
 H983 H 0.25489 0.86915 0.92715
 H984 H 0.25467 0.83619 0.89434
 H985 H 0.25136 0.89342 0.83675
 H986 H 0.25157 0.92637 0.86956
 C987 C 0.75433 0.43502 0.43451
 C988 C 0.75441 0.41892 0.41847
 C989 C 0.75445 0.39975 0.39929
 C990 C 0.75561 0.40654 0.37378
 C991 C 0.75546 0.38792 0.35511
 C992 C 0.75417 0.36244 0.36188
 C993 C 0.75306 0.35565 0.38739
 C994 C 0.75321 0.37428 0.40607
 C995 C 0.75369 0.34330 0.34267
 C996 C 0.75311 0.32726 0.32658
 H997 H 0.75656 0.42620 0.36835
 H998 H 0.75629 0.39337 0.33543
 H999 H 0.75202 0.33600 0.39282
 H1000 H 0.75229 0.36884 0.42575
 C1001 C 0.06486 0.25173 0.06332
 C1002 C 0.08084 0.25184 0.07953
 C1003 C 0.09992 0.25197 0.09885
 C1004 C 0.09349 0.24635 0.12385
 C1005 C 0.11207 0.24638 0.14261
 C1006 C 0.13715 0.25206 0.13644
 C1007 C 0.14358 0.25772 0.11143
 C1008 C 0.12500 0.25768 0.09268
 C1009 C 0.15632 0.25183 0.15569
 C1010 C 0.17240 0.25148 0.17179
 H1011 H 0.07415 0.24190 0.12882
 H1012 H 0.10690 0.24195 0.16188
 H1013 H 0.16292 0.26210 0.10644
 H1014 H 0.13017 0.26205 0.07339
 C1015 C 0.56525 0.74968 0.56560
 C1016 C 0.58140 0.75022 0.58160
 C1017 C 0.60063 0.75084 0.60073
 C1018 C 0.59387 0.75021 0.62628
 C1019 C 0.61256 0.75063 0.64489
 C1020 C 0.63808 0.75170 0.63804
 C1021 C 0.64484 0.75240 0.61249
 C1022 C 0.62614 0.75198 0.59387
 C1023 C 0.65732 0.75173 0.65719
 C1024 C 0.67341 0.75152 0.67325
 H1025 H 0.57418 0.74932 0.63177
 H1026 H 0.60714 0.75003 0.66459
 H1027 H 0.66452 0.75318 0.60699
 H1028 H 0.63155 0.75247 0.57416
 C1029 C 0.06391 0.74847 0.93585
 C1030 C 0.08015 0.74834 0.91991
 C1031 C 0.09949 0.74817 0.90084
 C1032 C 0.12451 0.75386 0.90725
 C1033 C 0.14328 0.75380 0.88868
 C1034 C 0.13710 0.74805 0.86362
 C1035 C 0.11208 0.74233 0.85722
 C1036 C 0.09332 0.74239 0.87579
 C1037 C 0.15636 0.74825 0.84446
 C1038 C 0.17246 0.74859 0.82838
 H1039 H 0.12948 0.75836 0.92657
 H1040 H 0.16256 0.75828 0.89384
 H1041 H 0.10709 0.73790 0.83790
 H1042 H 0.07402 0.73798 0.87063
 C1043 C 0.56577 0.25043 0.43460
 C1044 C 0.58184 0.24990 0.41851
 C1045 C 0.60103 0.24930 0.39934
 C1046 C 0.62657 0.25010 0.40615
 C1047 C 0.64524 0.24970 0.38750
 C1048 C 0.63843 0.24848 0.36198
 C1049 C 0.61288 0.24761 0.35519
 C1050 C 0.59421 0.24801 0.37384
 C1051 C 0.65762 0.24847 0.34279
 C1052 C 0.67370 0.24869 0.32671
 H1053 H 0.63203 0.25111 0.42582
 H1054 H 0.66494 0.25043 0.39295
 H1055 H 0.60741 0.24671 0.33551
 H1056 H 0.57450 0.24738 0.36839
 C1057 C 0.93506 0.74826 0.06383
 C1058 C 0.91886 0.74810 0.07982
 C1059 C 0.89961 0.74791 0.09897
 C1060 C 0.90589 0.74210 0.12397
 C1061 C 0.88721 0.74205 0.14263
 C1062 C 0.86217 0.74780 0.13636
 C1063 C 0.85588 0.75356 0.11134
 C1064 C 0.87456 0.75362 0.09268
 C1065 C 0.84300 0.74803 0.15561
 C1066 C 0.82697 0.74840 0.17175
 H1067 H 0.92521 0.73767 0.12903
 H1068 H 0.89230 0.73760 0.16191
 H1069 H 0.83659 0.75807 0.10629
 H1070 H 0.86950 0.75815 0.07340
 C1071 C 0.43455 0.24827 0.56455
 C1072 C 0.41845 0.24805 0.58061
 C1073 C 0.39920 0.24782 0.59972
 C1074 C 0.37370 0.24672 0.59282
 C1075 C 0.35496 0.24660 0.61140
 C1076 C 0.36167 0.24758 0.63695
 C1077 C 0.38718 0.24864 0.64385
 C1078 C 0.40592 0.24876 0.62526
 C1079 C 0.34240 0.24775 0.65606
 C1080 C 0.32630 0.24806 0.67212
 H1081 H 0.36832 0.24599 0.57311
 H1082 H 0.33529 0.24582 0.60587
 H1083 H 0.39257 0.24944 0.66355
 H1084 H 0.42559 0.24962 0.63079
 C1085 C 0.93636 0.25216 0.93500
 C1086 C 0.92030 0.25234 0.91886
 C1087 C 0.90108 0.25253 0.89968
 C1088 C 0.90728 0.24669 0.87465
 C1089 C 0.88855 0.24673 0.85604
 C1090 C 0.86355 0.25262 0.86238
 C1091 C 0.85737 0.25851 0.88741
 C1092 C 0.87610 0.25846 0.90602
 C1093 C 0.84423 0.25238 0.84328
 C1094 C 0.82805 0.25198 0.82728
 H1095 H 0.92654 0.24206 0.86955
 H1096 H 0.89354 0.24212 0.83676
 H1097 H 0.83810 0.26306 0.89253
 H1098 H 0.87111 0.26299 0.92532
 C1099 C 0.43463 0.75170 0.43503
 C1100 C 0.41846 0.75190 0.41904
 C1101 C 0.39921 0.75211 0.39992
 C1102 C 0.40595 0.75338 0.37440
 C1103 C 0.38724 0.75344 0.35579
 C1104 C 0.36173 0.75225 0.36264
 C1105 C 0.35499 0.75102 0.38818
 C1106 C 0.37370 0.75096 0.40678
 C1107 C 0.34250 0.75202 0.34349
 C1108 C 0.32640 0.75165 0.32744
 H1109 H 0.42564 0.75426 0.36891
 H1110 H 0.39265 0.75436 0.33610
 H1111 H 0.33531 0.75006 0.39367
 H1112 H 0.36830 0.74996 0.42648
 C1113 C 0.06526 0.06432 0.25091
 C1114 C 0.08122 0.08051 0.25128
 C1115 C 0.10026 0.09982 0.25167
 C1116 C 0.12586 0.09320 0.25159
 C1117 C 0.14438 0.11198 0.25175
 C1118 C 0.13737 0.13743 0.25200
 C1119 C 0.11176 0.14404 0.25214
 C1120 C 0.09323 0.12527 0.25198
 C1121 C 0.15643 0.15673 0.25176
 C1122 C 0.17243 0.17286 0.25133
 H1123 H 0.13148 0.07357 0.25134
 H1124 H 0.16413 0.10666 0.25160
 H1125 H 0.10613 0.16367 0.25228
 H1126 H 0.07348 0.13057 0.25203
 C1127 C 0.56500 0.56522 0.75362
 C1128 C 0.58114 0.58124 0.75368
 C1129 C 0.60038 0.60036 0.75372
 C1130 C 0.62591 0.59353 0.75270
 C1131 C 0.64461 0.61214 0.75260
 C1132 C 0.63786 0.63765 0.75353
 C1133 C 0.61233 0.64448 0.75458
 C1134 C 0.59362 0.62587 0.75468
 C1135 C 0.65709 0.65681 0.75314
 C1136 C 0.67318 0.67286 0.75265
 H1137 H 0.63133 0.57386 0.75194
 H1138 H 0.66430 0.60665 0.75174
 H1139 H 0.60689 0.66415 0.75527
 H1140 H 0.57394 0.63135 0.75546
 C1141 C 0.93580 0.06502 0.74934
 C1142 C 0.91972 0.08108 0.74883
 C1143 C 0.90059 0.10031 0.74830
 C1144 C 0.90698 0.12541 0.75346
 C1145 C 0.88836 0.14409 0.75317
 C1146 C 0.86327 0.13775 0.74771
 C1147 C 0.85689 0.11266 0.74248
 C1148 C 0.87551 0.09398 0.74277
 C1149 C 0.84406 0.15693 0.74782
 C1150 C 0.82797 0.17299 0.74816
 H1151 H 0.92632 0.13050 0.75777
 H1152 H 0.89350 0.16342 0.75728
 H1153 H 0.83754 0.10755 0.73828
 H1154 H 0.87037 0.07462 0.73877
 C1155 C 0.43465 0.56538 0.24616
 C1156 C 0.41851 0.58138 0.24612
 C1157 C 0.39929 0.60051 0.24613
 C1158 C 0.37376 0.59368 0.24724
 C1159 C 0.35508 0.61230 0.24743
 C1160 C 0.36186 0.63780 0.24651
 C1161 C 0.38739 0.64462 0.24536
 C1162 C 0.40607 0.62600 0.24517
 C1163 C 0.34266 0.65696 0.24702
 C1164 C 0.32658 0.67301 0.24763
 H1165 H 0.36833 0.57402 0.24800
 H1166 H 0.33540 0.60683 0.24836
 H1167 H 0.39283 0.66428 0.24468
 H1168 H 0.42576 0.63147 0.24433
 C1169 C 0.06475 0.93559 0.74980
 C1170 C 0.08082 0.91949 0.74939
 C1171 C 0.09990 0.90021 0.74896
 C1172 C 0.09332 0.87507 0.75361
 C1173 C 0.11188 0.85632 0.75338
 C1174 C 0.13709 0.86264 0.74849
 C1175 C 0.14366 0.88778 0.74378
 C1176 C 0.12509 0.90653 0.74401
 C1177 C 0.15624 0.84340 0.74863
 C1178 C 0.17227 0.82728 0.74898
 H1179 H 0.07389 0.86999 0.75747
 H1180 H 0.10660 0.83696 0.75709
 H1181 H 0.16310 0.89288 0.74002
 H1182 H 0.13038 0.92592 0.74040
 C1183 C 0.56519 0.43477 0.24807
 C1184 C 0.58134 0.41878 0.24765
 C1185 C 0.60056 0.39966 0.24720
 C1186 C 0.59377 0.37415 0.24668
 C1187 C 0.61246 0.35554 0.24646
 C1188 C 0.63801 0.36238 0.24676
 C1189 C 0.64480 0.38789 0.24721
 C1190 C 0.62611 0.40650 0.24742
 C1191 C 0.65723 0.34323 0.24695
 C1192 C 0.67333 0.32719 0.24733
 H1193 H 0.57407 0.36867 0.24651
 H1194 H 0.60701 0.33587 0.24616
 H1195 H 0.66450 0.39338 0.24749
 H1196 H 0.63155 0.42618 0.24784
 C1197 C 0.93550 0.93488 0.25265
 C1198 C 0.91947 0.91876 0.25271
 C1199 C 0.90032 0.89957 0.25274
 C1200 C 0.90714 0.87412 0.25114
 C1201 C 0.88848 0.85547 0.25102
 C1202 C 0.86295 0.86221 0.25250
 C1203 C 0.85614 0.88767 0.25415
 C1204 C 0.87479 0.90632 0.25427
 C1205 C 0.84375 0.84305 0.25208
 C1206 C 0.82765 0.82702 0.25155
 H1207 H 0.92683 0.86871 0.24994
 H1208 H 0.89395 0.83584 0.24970
 H1209 H 0.83645 0.89308 0.25527
 H1210 H 0.86933 0.92595 0.25550
 C1211 C 0.43458 0.43441 0.75165
 C1212 C 0.41844 0.41839 0.75205
 C1213 C 0.39922 0.39924 0.75247
 C1214 C 0.37369 0.40606 0.75349
 C1215 C 0.35500 0.38744 0.75367
 C1216 C 0.36177 0.36193 0.75285
 C1217 C 0.38731 0.35512 0.75191
 C1218 C 0.40600 0.37374 0.75173
 C1219 C 0.34254 0.34277 0.75260
 C1220 C 0.32647 0.32669 0.75215
 H1221 H 0.36825 0.42573 0.75406
 H1222 H 0.33531 0.39292 0.75435
 H1223 H 0.39276 0.33545 0.75122
 H1224 H 0.42569 0.36827 0.75093
 C1225 C 0.06470 0.25030 0.93502
 C1226 C 0.08071 0.24979 0.91887
 C1227 C 0.09986 0.24922 0.89966
 C1228 C 0.12498 0.25467 0.90586
 C1229 C 0.14361 0.25425 0.88716
 C1230 C 0.13717 0.24838 0.86220
 C1231 C 0.11205 0.24289 0.85601
 C1232 C 0.09343 0.24331 0.87471
 C1233 C 0.15631 0.24818 0.84295
 C1234 C 0.17237 0.24813 0.82685
 H1235 H 0.13015 0.25927 0.92510
 H1236 H 0.16297 0.25854 0.89215
 H1237 H 0.10687 0.23834 0.83676
 H1238 H 0.07405 0.23907 0.86973
 C1239 C 0.56525 0.74831 0.43482
 C1240 C 0.58139 0.74822 0.41878
 C1241 C 0.60062 0.74814 0.39961
 C1242 C 0.62616 0.74930 0.40641
 C1243 C 0.64484 0.74929 0.38776
 C1244 C 0.63807 0.74813 0.36222
 C1245 C 0.61253 0.74694 0.35543
 C1246 C 0.59385 0.74694 0.37408
 C1247 C 0.65729 0.74827 0.34302
 C1248 C 0.67337 0.74846 0.32692
 H1249 H 0.63160 0.75023 0.42609
 H1250 H 0.66453 0.75023 0.39322
 H1251 H 0.60708 0.74604 0.33575
 H1252 H 0.57416 0.74604 0.36862
 C1253 C 0.93553 0.74989 0.93558
 C1254 C 0.91942 0.75036 0.91952
 C1255 C 0.90025 0.75088 0.90033
 C1256 C 0.90655 0.74559 0.87522
 C1257 C 0.88789 0.74593 0.85656
 C1258 C 0.86285 0.75157 0.86296
 C1259 C 0.85656 0.75691 0.88807
 C1260 C 0.87523 0.75657 0.90673
 C1261 C 0.84362 0.75166 0.84380
 C1262 C 0.82751 0.75162 0.82774
 H1263 H 0.92585 0.74116 0.87008
 H1264 H 0.89295 0.74175 0.83720
 H1265 H 0.83725 0.76128 0.89322
 H1266 H 0.87016 0.76069 0.92611
 C1267 C 0.43493 0.25203 0.43405
 C1268 C 0.41891 0.25217 0.41789
 C1269 C 0.39972 0.25230 0.39867
 C1270 C 0.40651 0.25106 0.37315
 C1271 C 0.38783 0.25108 0.35449
 C1272 C 0.36229 0.25235 0.36127
 C1273 C 0.35551 0.25364 0.38679
 C1274 C 0.37419 0.25361 0.40545
 C1275 C 0.34305 0.25220 0.34208
 C1276 C 0.32692 0.25199 0.32604
 H1277 H 0.42620 0.25004 0.36771
 H1278 H 0.39328 0.25007 0.33481
 H1279 H 0.33583 0.25461 0.39225
 H1280 H 0.36874 0.25458 0.42513
 C1281 C 0.06435 0.74998 0.06506
 C1282 C 0.08043 0.75049 0.08114
 C1283 C 0.09956 0.75104 0.10037
 C1284 C 0.09323 0.74562 0.12545
 C1285 C 0.11185 0.74598 0.14414
 C1286 C 0.13687 0.75177 0.13783
 C1287 C 0.14319 0.75726 0.11276
 C1288 C 0.12456 0.75689 0.09406
 C1289 C 0.15607 0.75186 0.15702
 C1290 C 0.17217 0.75181 0.17309
 H1291 H 0.07394 0.74106 0.13051
 H1292 H 0.10677 0.74169 0.16347
 H1293 H 0.16248 0.76174 0.10767
 H1294 H 0.12964 0.76111 0.07472
 C1295 C 0.56539 0.24986 0.56515
 C1296 C 0.58139 0.25028 0.58134
 C1297 C 0.60054 0.25076 0.60058
 C1298 C 0.59368 0.25159 0.62610
 C1299 C 0.61232 0.25191 0.64480
 C1300 C 0.63790 0.25140 0.63806
 C1301 C 0.64475 0.25063 0.61253
 C1302 C 0.62611 0.25031 0.59384
 C1303 C 0.65709 0.25150 0.65729
 C1304 C 0.67322 0.25148 0.67334
 H1305 H 0.57396 0.25194 0.63152
 H1306 H 0.60681 0.25249 0.66448
 H1307 H 0.66446 0.25022 0.60710
 H1308 H 0.63162 0.24967 0.57416
 C1309 C 0.93558 0.25044 0.06419
 C1310 C 0.91954 0.24994 0.08031
 C1311 C 0.90035 0.24940 0.09948
 C1312 C 0.87523 0.25476 0.09321
 C1313 C 0.85657 0.25439 0.11186
 C1314 C 0.86296 0.24866 0.13685
 C1315 C 0.88808 0.24324 0.14311
 C1316 C 0.90674 0.24361 0.12445
 C1317 C 0.84379 0.24854 0.15607
 C1318 C 0.82771 0.24857 0.17216
 H1319 H 0.87009 0.25927 0.07394
 H1320 H 0.83720 0.25863 0.10683
 H1321 H 0.89322 0.23880 0.16239
 H1322 H 0.92612 0.23944 0.12949
 C1323 C 0.43461 0.74989 0.56575
 C1324 C 0.41845 0.74941 0.58177
 C1325 C 0.39921 0.74888 0.60093
 C1326 C 0.37368 0.74781 0.59409
 C1327 C 0.35498 0.74746 0.61272
 C1328 C 0.36173 0.74819 0.63827
 C1329 C 0.38726 0.74920 0.64511
 C1330 C 0.40596 0.74954 0.62648
 C1331 C 0.34248 0.74811 0.65745
 C1332 C 0.32638 0.74817 0.67353
 H1333 H 0.36825 0.74729 0.57438
 H1334 H 0.33530 0.74670 0.60722
 H1335 H 0.39270 0.74978 0.66481
 H1336 H 0.42565 0.75037 0.63198
 C1337 C 0.25173 0.06493 0.93470
 C1338 C 0.25120 0.08092 0.91858
 C1339 C 0.25057 0.10007 0.89942
 C1340 C 0.25129 0.12557 0.90626
 C1341 C 0.25077 0.14421 0.88764
 C1342 C 0.24952 0.13742 0.86212
 C1343 C 0.24875 0.11192 0.85529
 C1344 C 0.24927 0.09328 0.87391
 C1345 C 0.24919 0.15660 0.84297
 C1346 C 0.24901 0.17266 0.82692
 H1347 H 0.25229 0.13101 0.92594
 H1348 H 0.25139 0.16387 0.89313
 H1349 H 0.24780 0.10648 0.83561
 H1350 H 0.24870 0.07361 0.86844
 C1351 C 0.75087 0.56536 0.43452
 C1352 C 0.75071 0.58146 0.41848
 C1353 C 0.75049 0.60062 0.39928
 C1354 C 0.74949 0.59379 0.37376
 C1355 C 0.74930 0.61240 0.35508
 C1356 C 0.75011 0.63791 0.36185
 C1357 C 0.75109 0.64474 0.38738
 C1358 C 0.75129 0.62613 0.40606
 C1359 C 0.74997 0.65706 0.34264
 C1360 C 0.74988 0.67312 0.32655
 H1361 H 0.74887 0.57411 0.36832
 H1362 H 0.74854 0.60690 0.33541
 H1363 H 0.75172 0.66441 0.39283
 H1364 H 0.75206 0.63161 0.42574
 C1365 C 0.75003 0.06439 0.06524
 C1366 C 0.75025 0.08059 0.08119
 C1367 C 0.75051 0.09992 0.10020
 C1368 C 0.74935 0.12534 0.09320
 C1369 C 0.74957 0.14415 0.11169
 C1370 C 0.75095 0.13760 0.13726
 C1371 C 0.75213 0.11217 0.14425
 C1372 C 0.75191 0.09337 0.12576
 C1373 C 0.75109 0.15693 0.15629
 C1374 C 0.75116 0.17309 0.17228
 H1375 H 0.74826 0.13060 0.07348
 H1376 H 0.74864 0.16375 0.10608
 H1377 H 0.75320 0.10691 0.16397
 H1378 H 0.75282 0.07376 0.13136
 C1379 C 0.24677 0.56507 0.56561
 C1380 C 0.24724 0.58107 0.58178
 C1381 C 0.24780 0.60023 0.60101
 C1382 C 0.24730 0.62574 0.59424
 C1383 C 0.24779 0.64437 0.61292
 C1384 C 0.24879 0.63758 0.63844
 C1385 C 0.24931 0.61207 0.64520
 C1386 C 0.24882 0.59343 0.62652
 C1387 C 0.24916 0.65677 0.65765
 C1388 C 0.24941 0.67287 0.67372
 H1389 H 0.24652 0.63120 0.57457
 H1390 H 0.24737 0.66404 0.60747
 H1391 H 0.25007 0.60660 0.66487
 H1392 H 0.24922 0.57375 0.63196
 C1393 C 0.74813 0.93498 0.93548
 C1394 C 0.74861 0.91885 0.91947
 C1395 C 0.74919 0.89964 0.90034
 C1396 C 0.74806 0.90633 0.87480
 C1397 C 0.74854 0.88765 0.85619
 C1398 C 0.75016 0.86221 0.86305
 C1399 C 0.75133 0.85552 0.88859
 C1400 C 0.75085 0.87421 0.90720
 C1401 C 0.75050 0.84299 0.84391
 C1402 C 0.75071 0.82691 0.82785
 H1403 H 0.74678 0.92595 0.86930
 H1404 H 0.74762 0.89301 0.83650
 H1405 H 0.75258 0.83591 0.89409
 H1406 H 0.75174 0.86885 0.92690
 C1407 C 0.24906 0.43466 0.43458
 C1408 C 0.24927 0.41869 0.41837
 C1409 C 0.24953 0.39960 0.39908
 C1410 C 0.25095 0.37410 0.40576
 C1411 C 0.25116 0.35552 0.38701
 C1412 C 0.24996 0.36237 0.36152
 C1413 C 0.24855 0.38787 0.35484
 C1414 C 0.24834 0.40645 0.37359
 C1415 C 0.25009 0.34323 0.34224
 C1416 C 0.25016 0.32717 0.32614
 H1417 H 0.25188 0.36859 0.42541
 H1418 H 0.25225 0.33586 0.39239
 H1419 H 0.24761 0.39338 0.33519
 H1420 H 0.24723 0.42611 0.36822
 C1421 C 0.24977 0.93486 0.06541
 C1422 C 0.24957 0.91888 0.08155
 C1423 C 0.24932 0.89975 0.10073
 C1424 C 0.25093 0.90652 0.12623
 C1425 C 0.25072 0.88789 0.14488
 C1426 C 0.24892 0.86244 0.13808
 C1427 C 0.24729 0.85568 0.11257
 C1428 C 0.24749 0.87430 0.09393
 C1429 C 0.24880 0.84326 0.15724
 C1430 C 0.24874 0.82718 0.17327
 H1431 H 0.25235 0.92615 0.13168
 H1432 H 0.25200 0.89332 0.16455
 H1433 H 0.24589 0.83605 0.10712
 H1434 H 0.24624 0.86888 0.07426
 C1435 C 0.75270 0.43490 0.56525
 C1436 C 0.75219 0.41876 0.58126
 C1437 C 0.75158 0.39956 0.60039
 C1438 C 0.75239 0.40628 0.62594
 C1439 C 0.75189 0.38761 0.64455
 C1440 C 0.75058 0.36214 0.63769
 C1441 C 0.74974 0.35542 0.61213
 C1442 C 0.75023 0.37409 0.59352
 C1443 C 0.75025 0.34293 0.65685
 C1444 C 0.75006 0.32687 0.67291
 H1445 H 0.75343 0.42592 0.63146
 H1446 H 0.75257 0.39303 0.66426
 H1447 H 0.74873 0.33579 0.60661
 H1448 H 0.74960 0.36869 0.57381
 C1449 C 0.06513 0.06377 0.75077
 C1450 C 0.08130 0.07978 0.75083
 C1451 C 0.10048 0.09896 0.75093
 C1452 C 0.12552 0.09278 0.74507
 C1453 C 0.14414 0.11147 0.74512
 C1454 C 0.13780 0.13642 0.75102
 C1455 C 0.11276 0.14260 0.75690
 C1456 C 0.09414 0.12391 0.75685
 C1457 C 0.15692 0.15569 0.75096
 C1458 C 0.17292 0.17185 0.75087
 H1459 H 0.13062 0.07354 0.74047
 H1460 H 0.16344 0.10649 0.74054
 H1461 H 0.10764 0.16183 0.76148
 H1462 H 0.07483 0.12889 0.76141
 C1463 C 0.56523 0.56534 0.24981
 C1464 C 0.58137 0.58135 0.25002
 C1465 C 0.60057 0.60050 0.25027
 C1466 C 0.62611 0.59373 0.24914
 C1467 C 0.64477 0.61237 0.24930
 C1468 C 0.63796 0.63785 0.25059
 C1469 C 0.61242 0.64461 0.25176
 C1470 C 0.59376 0.62597 0.25160
 C1471 C 0.65715 0.65703 0.25062
 C1472 C 0.67322 0.67311 0.25059
 H1473 H 0.63157 0.57408 0.24810
 H1474 H 0.66446 0.60693 0.24838
 H1475 H 0.60695 0.66426 0.25276
 H1476 H 0.57406 0.63140 0.25248
 C1477 C 0.06531 0.93583 0.25168
 C1478 C 0.08128 0.91965 0.25128
 C1479 C 0.10032 0.90034 0.25081
 C1480 C 0.12590 0.90691 0.25213
 C1481 C 0.14442 0.88813 0.25173
 C1482 C 0.13743 0.86273 0.25000
 C1483 C 0.11184 0.85617 0.24864
 C1484 C 0.09332 0.87495 0.24904
 C1485 C 0.15648 0.84341 0.24974
 C1486 C 0.17248 0.82726 0.24959
 H1487 H 0.13151 0.92650 0.25349
 H1488 H 0.16416 0.89340 0.25280
 H1489 H 0.10623 0.83658 0.24730
 H1490 H 0.07358 0.86969 0.24800
 C1491 C 0.56525 0.43461 0.75213
 C1492 C 0.58145 0.41865 0.75162
 C1493 C 0.60076 0.39959 0.75101
 C1494 C 0.59438 0.37451 0.74573
 C1495 C 0.61313 0.35596 0.74524
 C1496 C 0.63834 0.36241 0.75003
 C1497 C 0.64472 0.38750 0.75527
 C1498 C 0.62596 0.40605 0.75575
 C1499 C 0.65760 0.34327 0.74973
 C1500 C 0.67370 0.32722 0.74957
 H1501 H 0.57495 0.36932 0.74204
 H1502 H 0.60799 0.33662 0.74119
 H1503 H 0.66414 0.39269 0.75901
 H1504 H 0.63110 0.42539 0.75985
 C1505 C 0.93541 0.06517 0.24923
 C1506 C 0.91937 0.08128 0.24901
 C1507 C 0.90021 0.10046 0.24876
 C1508 C 0.90706 0.12595 0.24929
 C1509 C 0.88842 0.14461 0.24911
 C1510 C 0.86286 0.13784 0.24840
 C1511 C 0.85602 0.11234 0.24785
 C1512 C 0.87466 0.09369 0.24803
 C1513 C 0.84368 0.15703 0.24834
 C1514 C 0.82761 0.17311 0.24834
 H1515 H 0.92677 0.13138 0.24986
 H1516 H 0.89391 0.16427 0.24955
 H1517 H 0.83631 0.10691 0.24731
 H1518 H 0.86917 0.07402 0.24762
 C1519 C 0.43435 0.56501 0.75039
 C1520 C 0.41817 0.58099 0.75025
 C1521 C 0.39892 0.60011 0.75007
 C1522 C 0.40567 0.62560 0.74874
 C1523 C 0.38697 0.64421 0.74861
 C1524 C 0.36144 0.63740 0.74980
 C1525 C 0.35469 0.61191 0.75111
 C1526 C 0.37339 0.59330 0.75125
 C1527 C 0.34221 0.65657 0.74977
 C1528 C 0.32614 0.67266 0.74979
 H1529 H 0.42535 0.63107 0.74782
 H1530 H 0.39240 0.66386 0.74759
 H1531 H 0.33500 0.60643 0.75205
 H1532 H 0.36797 0.57364 0.75228
 C1533 C 0.93541 0.93496 0.75108
 C1534 C 0.91922 0.91899 0.75121
 C1535 C 0.89997 0.89987 0.75140
 C1536 C 0.87492 0.90614 0.74569
 C1537 C 0.85623 0.88752 0.74583
 C1538 C 0.86252 0.86255 0.75168
 C1539 C 0.88757 0.85629 0.75740
 C1540 C 0.90625 0.87491 0.75727
 C1541 C 0.84331 0.84336 0.75171
 C1542 C 0.82725 0.82726 0.75169
 H1543 H 0.86986 0.92539 0.74113
 H1544 H 0.83692 0.89257 0.74137
 H1545 H 0.89264 0.83704 0.76194
 H1546 H 0.92557 0.86986 0.76170
 C1547 C 0.43457 0.43481 0.24722
 C1548 C 0.41842 0.41883 0.24767
 C1549 C 0.39918 0.39971 0.24822
 C1550 C 0.40594 0.37420 0.24757
 C1551 C 0.38725 0.35560 0.24803
 C1552 C 0.36173 0.36245 0.24914
 C1553 C 0.35497 0.38796 0.24983
 C1554 C 0.37367 0.40657 0.24937
 C1555 C 0.34250 0.34330 0.24944
 C1556 C 0.32643 0.32723 0.24960
 H1557 H 0.42563 0.36871 0.24668
 H1558 H 0.39267 0.33592 0.24748
 H1559 H 0.33529 0.39346 0.25068
 H1560 H 0.36825 0.42625 0.24989
   
