data_POSCAR
  _audit_creation_date              2014-09-24
  _audit_creation_method            'ToBaCCo'
  _symmetry_space_group_name_H-M    'P1'
  _symmetry_Int_Tables_number       1
  _symmetry_cell_setting            triclinic
  loop_
  _symmetry_equiv_pos_as_xyz
 x,y,z
_cell_length_a 54.2021
_cell_length_b 54.2279
_cell_length_c 54.2228
_cell_angle_alpha 90.013000
_cell_angle_beta 90.007100
_cell_angle_gamma 90.006900
loop_
  _atom_site_label
  _atom_site_type_symbol
  _atom_site_fract_x
  _atom_site_fract_y
  _atom_site_fract_z
O1 O 0.27560 1.02758 0.02095
 O2 O 0.27721 0.97919 -0.02649
 O3 O 0.27287 1.02689 -0.02666
 O4 O 0.27887 0.97962 0.02185
 O5 O 0.23834 0.97646 0.02350
 O6 O 0.23235 1.02329 -0.02499
 O7 O 0.23677 0.97564 -0.02450
 O8 O 0.23508 1.02442 0.02292
 Cu9 Cu 0.28022 1.00353 -0.00273
 Cu10 Cu 0.23159 0.99958 -0.00053
 C11 C 0.25509 1.03448 0.02989
 C12 C 0.25730 0.96925 -0.03389
 C13 C 0.25153 1.03316 -0.03410
 C14 C 0.25954 0.97003 0.03105
 O15 O 0.73629 0.52734 0.52102
 O16 O 0.73706 0.47671 0.47553
 O17 O 0.73440 0.47954 0.52363
 O18 O 0.73716 0.52459 0.47332
 O19 O 0.77784 0.52448 0.47507
 O20 O 0.77505 0.47817 0.52489
 O21 O 0.77774 0.47661 0.47665
 O22 O 0.77696 0.52627 0.52263
 Cu23 Cu 0.73215 0.50199 0.49824
 Cu24 Cu 0.78098 0.50115 0.50001
 C25 C 0.75659 0.53560 0.52941
 C26 C 0.75763 0.46830 0.46801
 C27 C 0.75416 0.47120 0.53298
 C28 C 0.75786 0.53252 0.46577
 O29 O 0.73931 0.97641 1.02511
 O30 O 0.73501 1.02383 0.97693
 O31 O 0.73829 0.97608 0.97706
 O32 O 0.73779 1.02446 1.02504
 O33 O 0.77833 1.02664 1.02302
 O34 O 0.77889 0.97834 0.97556
 O35 O 0.77560 1.02616 0.97528
 O36 O 0.77987 0.97857 1.02396
 Cu37 Cu 0.73356 0.99998 1.00124
 Cu38 Cu 0.78223 1.00254 0.99934
 C39 C 0.76023 0.96935 1.03295
 C40 C 0.75448 1.03305 0.96774
 C41 C 0.75875 0.96914 0.96793
 C42 C 0.75805 1.03398 1.03217
 O43 O 0.23581 0.47683 0.52190
 O44 O 0.23597 0.52479 0.47375
 O45 O 0.23807 0.47672 0.47395
 O46 O 0.23345 0.52464 0.52174
 O47 O 0.27406 0.52681 0.52360
 O48 O 0.27867 0.47874 0.47572
 O49 O 0.27656 0.52680 0.47592
 O50 O 0.27640 0.47894 0.52401
 Cu51 Cu 0.23177 0.50053 0.49757
 Cu52 Cu 0.28050 0.50291 0.49996
 C53 C 0.25608 0.46985 0.53137
 C54 C 0.25629 0.53415 0.46674
 C55 C 0.25912 0.46953 0.46661
 C56 C 0.25294 0.53394 0.53086
 O57 O 1.01939 0.23729 0.02765
 O58 O 0.97341 0.24162 -0.02213
 O59 O 1.02154 0.24050 -0.02035
 O60 O 0.97164 0.23845 0.02566
 O61 O 0.97244 0.27905 0.02830
 O62 O 1.02241 0.28107 -0.01766
 O63 O 0.97406 0.28214 -0.01932
 O64 O 1.02043 0.27787 0.03023
 Cu65 Cu 0.99647 0.23541 0.00235
 Cu66 Cu 0.99749 0.28410 0.00559
 C67 C 1.02768 0.25683 0.03757
 C68 C 0.96551 0.26258 -0.02904
 C69 C 1.03062 0.26112 -0.02680
 C70 C 0.96347 0.25841 0.03482
 O71 O 0.52566 0.76967 0.52142
 O72 O 0.47551 0.77129 0.47559
 O73 O 0.47782 0.76956 0.52333
 O74 O 0.52352 0.77148 0.47310
 O75 O 0.52405 0.73083 0.47201
 O76 O 0.47775 0.72890 0.52176
 O77 O 0.47595 0.73066 0.47374
 O78 O 0.52540 0.72902 0.52028
 Cu79 Cu 0.50073 0.77457 0.49845
 Cu80 Cu 0.50087 0.72578 0.49670
 C81 C 0.53372 0.74905 0.52912
 C82 C 0.46710 0.75124 0.46686
 C83 C 0.46999 0.74891 0.53118
 C84 C 0.53152 0.75149 0.46385
 O85 O 0.02506 0.73673 -0.02742
 O86 O -0.02451 0.73535 0.01901
 O87 O -0.02306 0.73758 -0.02854
 O88 O 0.02334 0.73426 0.02075
 O89 O 0.02423 0.77488 0.02271
 O90 O -0.02244 0.77816 -0.02658
 O91 O -0.02382 0.77599 0.02091
 O92 O 0.02593 0.77728 -0.02528
 Cu93 Cu 0.00027 0.73192 -0.00431
 Cu94 Cu 0.00118 0.78065 -0.00193
 C95 C 0.03409 0.75724 -0.03431
 C96 C -0.03286 0.75546 0.02768
 C97 C -0.03117 0.75838 -0.03567
 C98 C 0.03160 0.75398 0.03032
 O99 O 0.51954 0.21869 0.47896
 O100 O 0.47412 0.21972 0.52919
 O101 O 0.47152 0.22073 0.48131
 O102 O 0.52172 0.21906 0.52728
 O103 O 0.52274 0.25973 0.52732
 O104 O 0.47284 0.26139 0.48159
 O105 O 0.47499 0.26042 0.52927
 O106 O 0.52098 0.25934 0.47922
 Cu107 Cu 0.49670 0.21546 0.50405
 Cu108 Cu 0.49809 0.26429 0.50427
 C109 C 0.52805 0.23877 0.47046
 C110 C 0.46681 0.24020 0.53787
 C111 C 0.46341 0.24142 0.47383
 C112 C 0.53049 0.23921 0.53549
 O113 O 1.02238 0.01564 0.27887
 O114 O 0.97578 -0.03352 0.27263
 O115 O 1.02359 -0.03232 0.27522
 O116 O 0.97417 0.01405 0.27705
 O117 O 0.97593 0.01768 0.23657
 O118 O 1.02562 -0.02878 0.23475
 O119 O 0.97744 -0.02984 0.23219
 O120 O 1.02385 0.01922 0.23838
 Cu121 Cu 0.99888 -0.00933 0.28000
 Cu122 Cu 1.00098 -0.00510 0.23142
 C123 C 1.03105 0.02588 0.25964
 C124 C 0.96841 -0.03997 0.25131
 C125 C 1.03300 -0.03860 0.25472
 C126 C 0.96638 0.02362 0.25714
 O127 O 0.52007 0.52858 0.72021
 O128 O 0.47384 0.47890 0.71939
 O129 O 0.47239 0.52663 0.72138
 O130 O 0.52242 0.48048 0.71871
 O131 O 0.52300 0.47890 0.75934
 O132 O 0.47316 0.52493 0.76203
 O133 O 0.47475 0.47735 0.76002
 O134 O 0.52107 0.52699 0.76085
 Cu135 Cu 0.49720 0.50363 0.71583
 Cu136 Cu 0.49819 0.50180 0.76461
 C137 C 0.52825 0.53651 0.74067
 C138 C 0.46595 0.47001 0.73958
 C139 C 0.46419 0.53362 0.74220
 C140 C 0.53139 0.47191 0.73861
 O141 O 0.97384 1.02814 0.73318
 O142 O 1.02002 0.97818 0.73181
 O143 O 0.97188 0.98040 0.73179
 O144 O 1.02149 1.02643 0.73173
 O145 O 1.02261 1.02562 0.77239
 O146 O 0.97218 0.97984 0.77248
 O147 O 1.02008 0.97738 0.77248
 O148 O 0.97497 1.02784 0.77381
 Cu149 Cu 0.99684 1.00324 0.72805
 Cu150 Cu 0.99758 1.00253 0.77686
 C151 C 0.96668 1.03677 0.75379
 C152 C 1.02775 0.96907 0.75199
 C153 C 0.96335 0.97239 0.75206
 C154 C 1.03026 1.03426 0.75197
 O155 O 0.47748 0.51838 0.23529
 O156 O 0.52399 0.46887 0.23638
 O157 O 0.47595 0.47059 0.23455
 O158 O 0.52537 0.51708 0.23653
 O159 O 0.52468 0.51624 0.27719
 O160 O 0.47448 0.47028 0.27522
 O161 O 0.52224 0.46817 0.27702
 O162 O 0.47671 0.51839 0.27597
 Cu163 Cu 0.50089 0.49374 0.23161
 Cu164 Cu 0.49942 0.49326 0.28042
 C165 C 0.46923 0.52693 0.25548
 C166 C 0.53087 0.45986 0.25690
 C167 C 0.46668 0.46253 0.25450
 C168 C 0.53344 0.52470 0.25716
 O169 O 0.24283 0.18269 0.21930
 O170 O 0.26946 0.17322 0.25314
 O171 O 0.18090 0.21612 0.25437
 O172 O 0.17365 0.24819 0.27896
 O173 O 0.21373 0.25018 0.19010
 O174 O 0.24981 0.27399 0.18349
 O175 O 0.24948 0.27859 0.31888
 O176 O 0.21928 0.24819 0.32512
 O177 O 0.31048 0.24116 0.28853
 O178 O 0.31711 0.21494 0.25299
 O179 O 0.28491 0.30741 0.25646
 O180 O 0.25052 0.31790 0.22891
 O181 O 0.25205 0.30866 0.28983
 O182 O 0.22397 0.31844 0.25465
 O183 O 0.31268 0.27607 0.25707
 O184 O 0.31775 0.24105 0.22685
 O185 O 0.28106 0.24393 0.31822
 O186 O 0.24510 0.21710 0.32498
 O187 O 0.24576 0.21254 0.19000
 O188 O 0.27545 0.24523 0.18393
 O189 O 0.18371 0.25082 0.21938
 O190 O 0.17977 0.27954 0.25435
 O191 O 0.20858 0.18463 0.25437
 O192 O 0.24269 0.17492 0.28087
 Zr193 Zr 0.24322 0.20206 0.25289
 O194 O 0.26765 0.22119 0.27616
 Zr195 Zr 0.20288 0.24807 0.25311
 O196 O 0.22531 0.26904 0.27703
 Zr197 Zr 0.24661 0.24577 0.21018
 O198 O 0.27075 0.26719 0.23184
 Zr199 Zr 0.24765 0.24576 0.29845
 O200 O 0.22274 0.22461 0.27699
 Zr201 Zr 0.29100 0.24388 0.25518
 O202 O 0.26874 0.22214 0.23157
 Zr203 Zr 0.25041 0.28974 0.25594
 O204 O 0.22621 0.27069 0.23187
 O205 O 0.22191 0.22421 0.23002
 O206 O 0.27222 0.26778 0.27873
 C207 C 0.24424 0.18983 0.19674
 C208 C 0.18642 0.19306 0.25492
 C209 C 0.19105 0.25183 0.19684
 C210 C 0.25125 0.30130 0.31236
 C211 C 0.30360 0.24175 0.31118
 C212 C 0.30709 0.29911 0.25723
 H213 H 0.27713 0.20913 0.28598
 H214 H 0.28159 0.27698 0.22095
 H215 H 0.21069 0.21454 0.21934
 H216 H 0.21484 0.27958 0.28760
 H217 H 0.20569 0.23743 0.31936
 H218 H 0.17963 0.25684 0.29387
 H219 H 0.31633 0.25582 0.21625
 H220 H 0.28744 0.23270 0.18962
 H221 H 0.25795 0.20468 0.32134
 H222 H 0.23177 0.18127 0.29405
 H223 H 0.26320 0.31366 0.21650
 H224 H 0.24007 0.28812 0.18973
 H225 H 0.28285 0.17826 0.24180
 H226 H 0.31163 0.20172 0.26430
 H227 H 0.18557 0.29095 0.24133
 H228 H 0.21226 0.31593 0.26841
 O229 O 0.75140 0.80998 0.21035
 O230 O 0.72451 0.81787 0.24471
 O231 O 0.81390 0.77627 0.24599
 O232 O 0.82169 0.74310 0.26857
 O233 O 0.78195 0.74452 0.17965
 O234 O 0.74620 0.71908 0.17280
 O235 O 0.74763 0.71066 0.30720
 O236 O 0.77734 0.74314 0.31363
 O237 O 0.68493 0.74744 0.27889
 O238 O 0.67826 0.77634 0.24471
 O239 O 0.71113 0.68381 0.24474
 O240 O 0.74523 0.67480 0.21576
 O241 O 0.74440 0.68171 0.27708
 O242 O 0.77201 0.67330 0.24144
 O243 O 0.68293 0.71479 0.24490
 O244 O 0.67720 0.75128 0.21733
 O245 O 0.71486 0.74357 0.30796
 O246 O 0.74519 0.77103 0.31622
 O247 O 0.74871 0.78070 0.18045
 O248 O 0.72035 0.74785 0.17314
 O249 O 0.81160 0.74239 0.20925
 O250 O 0.81621 0.71329 0.24357
 O251 O 0.78608 0.80759 0.24457
 O252 O 0.75106 0.81688 0.27170
 Zr253 Zr 0.75153 0.78978 0.24360
 O254 O 0.72770 0.76947 0.26668
 Zr255 Zr 0.79238 0.74421 0.24286
 O256 O 0.77038 0.72195 0.26580
 Zr257 Zr 0.74880 0.74710 0.19980
 O258 O 0.72473 0.72499 0.22084
 Zr259 Zr 0.74794 0.74428 0.28796
 O260 O 0.77227 0.76690 0.26731
 Zr261 Zr 0.70432 0.74727 0.24515
 O262 O 0.72627 0.76978 0.22187
 Zr263 Zr 0.74544 0.70180 0.24397
 O264 O 0.76955 0.72190 0.22075
 O265 O 0.77316 0.76846 0.22027
 O266 O 0.72356 0.72272 0.26758
 C267 C 0.74985 0.80326 0.18764
 C268 C 0.80824 0.79928 0.24617
 C269 C 0.80456 0.74250 0.18662
 C270 C 0.74573 0.68822 0.29982
 C271 C 0.69216 0.74523 0.30138
 C272 C 0.68884 0.69182 0.24503
 H273 H 0.71839 0.78088 0.27744
 H274 H 0.71391 0.71552 0.20964
 H275 H 0.78425 0.77858 0.20988
 H276 H 0.78112 0.71122 0.27589
 H277 H 0.78848 0.75706 0.30962
 H278 H 0.81489 0.73636 0.28408
 H279 H 0.67930 0.73759 0.20545
 H280 H 0.70770 0.75944 0.17938
 H281 H 0.75437 0.78562 0.31039
 H282 H 0.76521 0.81356 0.28274
 H283 H 0.73200 0.67912 0.20397
 H284 H 0.75703 0.70548 0.17838
 H285 H 0.71120 0.81275 0.23330
 H286 H 0.68323 0.78845 0.25741
 H287 H 0.81060 0.70194 0.23041
 H288 H 0.78399 0.67560 0.25502
 O289 O 0.75040 0.19110 0.78806
 O290 O 0.72194 0.18326 0.75461
 O291 O 0.81380 0.21943 0.75006
 O292 O 0.82239 0.25097 0.72492
 O293 O 0.78523 0.25667 0.81493
 O294 O 0.75055 0.28372 0.82131
 O295 O 0.75026 0.28575 0.68668
 O296 O 0.77785 0.25170 0.68138
 O297 O 0.68604 0.25329 0.71773
 O298 O 0.67934 0.22583 0.75419
 O299 O 0.71544 0.31724 0.74845
 O300 O 0.75098 0.32567 0.77664
 O301 O 0.74915 0.31631 0.71531
 O302 O 0.77668 0.32540 0.75001
 O303 O 0.68611 0.28741 0.75069
 O304 O 0.67843 0.25349 0.77877
 O305 O 0.71557 0.25454 0.68803
 O306 O 0.74437 0.22534 0.68053
 O307 O 0.75123 0.22175 0.81667
 O308 O 0.72354 0.25579 0.82283
 O309 O 0.81429 0.25417 0.78481
 O310 O 0.81974 0.28220 0.74988
 O311 O 0.78406 0.18992 0.75194
 O312 O 0.74760 0.18081 0.72765
 Zr313 Zr 0.75070 0.20961 0.75384
 O314 O 0.72772 0.23002 0.73014
 Zr315 Zr 0.79410 0.25280 0.75174
 O316 O 0.77276 0.27527 0.72833
 Zr317 Zr 0.75148 0.25437 0.79566
 O318 O 0.72799 0.27654 0.77402
 Zr319 Zr 0.74887 0.25317 0.70750
 O320 O 0.77224 0.23017 0.72875
 Zr321 Zr 0.70600 0.25421 0.75115
 O322 O 0.72721 0.23189 0.77523
 Zr323 Zr 0.74915 0.29773 0.74941
 O324 O 0.77291 0.27746 0.77304
 O325 O 0.77404 0.23070 0.77568
 O326 O 0.72585 0.27683 0.72717
 C327 C 0.75074 0.19886 0.81049
 C328 C 0.80666 0.19681 0.75013
 C329 C 0.80777 0.25595 0.80752
 C330 C 0.75006 0.30860 0.69290
 C331 C 0.69297 0.25404 0.69505
 C332 C 0.69283 0.31008 0.74941
 H333 H 0.71766 0.21860 0.72006
 H334 H 0.71786 0.28700 0.78498
 H335 H 0.78487 0.22041 0.78617
 H336 H 0.78389 0.28500 0.71766
 H337 H 0.78857 0.23768 0.68608
 H338 H 0.81616 0.25920 0.70989
 H339 H 0.68314 0.26559 0.79159
 H340 H 0.71066 0.24392 0.81767
 H341 H 0.75356 0.21082 0.68651
 H342 H 0.76080 0.18321 0.71529
 H343 H 0.73726 0.32300 0.78836
 H344 H 0.76181 0.29658 0.81488
 H345 H 0.70963 0.18926 0.76668
 H346 H 0.68234 0.21386 0.74075
 H347 H 0.81479 0.29438 0.76256
 H348 H 0.78936 0.32086 0.73770
 O349 O 0.24847 0.81678 0.78332
 O350 O 0.27585 0.82562 0.74984
 O351 O 0.18480 0.78822 0.74562
 O352 O 0.17601 0.75719 0.72032
 O353 O 0.21429 0.75113 0.80983
 O354 O 0.24873 0.72384 0.81567
 O355 O 0.25153 0.72354 0.68083
 O356 O 0.22168 0.75532 0.67536
 O357 O 0.31299 0.75561 0.71245
 O358 O 0.32003 0.78219 0.74923
 O359 O 0.28351 0.69116 0.74264
 O360 O 0.24814 0.68200 0.76984
 O361 O 0.25068 0.69263 0.70909
 O362 O 0.22210 0.68327 0.74358
 O363 O 0.31289 0.72101 0.74353
 O364 O 0.32014 0.75447 0.77389
 O365 O 0.28354 0.75710 0.68267
 O366 O 0.24926 0.78520 0.67615
 O367 O 0.24823 0.78577 0.81156
 O368 O 0.27597 0.75164 0.81713
 O369 O 0.18491 0.75213 0.77992
 O370 O 0.17972 0.72502 0.74424
 O371 O 0.21432 0.81798 0.74729
 O372 O 0.24931 0.82675 0.72213
 Zr373 Zr 0.24782 0.79853 0.74898
 O374 O 0.27125 0.77871 0.72522
 Zr375 Zr 0.20475 0.75493 0.74664
 O376 O 0.22628 0.73327 0.72254
 Zr377 Zr 0.24776 0.75339 0.79027
 O378 O 0.27116 0.73145 0.76830
 Zr379 Zr 0.25009 0.75592 0.70210
 O380 O 0.22637 0.77794 0.72389
 Zr381 Zr 0.29302 0.75419 0.74577
 O382 O 0.27169 0.77626 0.76997
 Zr383 Zr 0.24992 0.71068 0.74342
 O384 O 0.22632 0.73036 0.76756
 O385 O 0.22476 0.77700 0.77071
 O386 O 0.27313 0.73205 0.72148
 C387 C 0.24858 0.80873 0.80565
 C388 C 0.19174 0.81091 0.74569
 C389 C 0.19170 0.75067 0.80260
 C390 C 0.25156 0.70061 0.68680
 C391 C 0.30614 0.75673 0.68977
 C392 C 0.30611 0.69834 0.74244
 H393 H 0.28149 0.79045 0.71578
 H394 H 0.28131 0.72080 0.77905
 H395 H 0.21393 0.78708 0.78142
 H396 H 0.21544 0.72359 0.71153
 H397 H 0.20888 0.76708 0.68100
 H398 H 0.18153 0.74824 0.70542
 H399 H 0.31669 0.74054 0.78514
 H400 H 0.28896 0.76330 0.81179
 H401 H 0.26208 0.79732 0.68075
 H402 H 0.23846 0.82145 0.70842
 H403 H 0.26104 0.68512 0.78235
 H404 H 0.23741 0.71105 0.80919
 H405 H 0.28894 0.81921 0.76084
 H406 H 0.31679 0.79470 0.73636
 H407 H 0.18484 0.71274 0.75675
 H408 H 0.21039 0.68709 0.73013
 O409 O 0.24485 0.31693 0.71515
 O410 O 0.21811 0.32542 0.74896
 O411 O 0.30923 0.28870 0.75257
 O412 O 0.31980 0.25704 0.77549
 O413 O 0.27904 0.25237 0.68754
 O414 O 0.24564 0.22429 0.68194
 O415 O 0.24595 0.22351 0.81737
 O416 O 0.27354 0.25653 0.82273
 O417 O 0.18210 0.25377 0.78615
 O418 O 0.17327 0.27977 0.75068
 O419 O 0.21288 0.19038 0.75675
 O420 O 0.24660 0.18111 0.72912
 O421 O 0.24607 0.19265 0.78903
 O422 O 0.27486 0.18462 0.75314
 O423 O 0.18263 0.21927 0.75474
 O424 O 0.17505 0.25380 0.72426
 O425 O 0.21162 0.25544 0.81584
 O426 O 0.24529 0.28539 0.82172
 O427 O 0.24374 0.28603 0.68681
 O428 O 0.21725 0.25061 0.68162
 O429 O 0.30899 0.25370 0.71685
 O430 O 0.31478 0.22543 0.75278
 O431 O 0.27977 0.31843 0.74978
 O432 O 0.24507 0.32615 0.77677
 Zr433 Zr 0.24629 0.29850 0.74931
 O434 O 0.22326 0.27815 0.77310
 Zr435 Zr 0.28978 0.25537 0.75063
 O436 O 0.26911 0.23365 0.77528
 Zr437 Zr 0.24603 0.25348 0.70778
 O438 O 0.22368 0.23082 0.73003
 Zr439 Zr 0.24507 0.25583 0.79606
 O440 O 0.26835 0.27805 0.77393
 Zr441 Zr 0.20172 0.25311 0.75279
 O442 O 0.22226 0.27594 0.72864
 Zr443 Zr 0.24575 0.21061 0.75468
 O444 O 0.26831 0.23064 0.72990
 O445 O 0.26910 0.27732 0.72703
 O446 O 0.22237 0.23146 0.77690
 C447 C 0.24360 0.30897 0.69283
 C448 C 0.30235 0.31135 0.75176
 C449 C 0.30176 0.25254 0.69429
 C450 C 0.24622 0.20060 0.81135
 C451 C 0.18899 0.25447 0.80880
 C452 C 0.19012 0.19685 0.75661
 H453 H 0.21282 0.28960 0.78267
 H454 H 0.21359 0.21993 0.71945
 H455 H 0.27950 0.28771 0.71620
 H456 H 0.28043 0.22428 0.78607
 H457 H 0.28623 0.26816 0.81661
 H458 H 0.31382 0.25069 0.79149
 H459 H 0.17733 0.23885 0.71406
 H460 H 0.20433 0.26246 0.68675
 H461 H 0.23144 0.29658 0.81780
 H462 H 0.25673 0.32100 0.78984
 H463 H 0.23498 0.18512 0.71565
 H464 H 0.25689 0.21146 0.68846
 H465 H 0.20466 0.31868 0.73862
 H466 H 0.17762 0.29342 0.76197
 H467 H 0.31081 0.21410 0.73902
 H468 H 0.28571 0.18750 0.76753
 O469 O 0.74789 0.68754 0.71469
 O470 O 0.77549 0.67930 0.74814
 O471 O 0.68490 0.71769 0.75004
 O472 O 0.67579 0.74954 0.77415
 O473 O 0.71617 0.75386 0.68560
 O474 O 0.75098 0.77900 0.67895
 O475 O 0.74987 0.78312 0.81462
 O476 O 0.72195 0.75106 0.82093
 O477 O 0.81311 0.74891 0.78374
 O478 O 0.82109 0.72347 0.74831
 O479 O 0.78421 0.81402 0.75282
 O480 O 0.74960 0.82309 0.72494
 O481 O 0.75089 0.81349 0.78579
 O482 O 0.72266 0.82196 0.75029
 O483 O 0.81344 0.78403 0.75287
 O484 O 0.82000 0.74952 0.72200
 O485 O 0.78378 0.75084 0.81361
 O486 O 0.74916 0.72129 0.82011
 O487 O 0.74949 0.71752 0.68541
 O488 O 0.77812 0.75163 0.67968
 O489 O 0.68600 0.75262 0.71471
 O490 O 0.68066 0.78109 0.75001
 O491 O 0.71421 0.68770 0.75019
 O492 O 0.74899 0.67955 0.77614
 Zr493 Zr 0.74785 0.70681 0.74829
 O494 O 0.77134 0.72700 0.77158
 Zr495 Zr 0.70522 0.75074 0.74857
 O496 O 0.72658 0.77261 0.77266
 Zr497 Zr 0.74909 0.75074 0.70571
 O498 O 0.77203 0.77334 0.72746
 Zr499 Zr 0.75014 0.75042 0.79399
 O500 O 0.72625 0.72825 0.77242
 Zr501 Zr 0.79340 0.75089 0.75058
 O502 O 0.77231 0.72811 0.72696
 Zr503 Zr 0.75060 0.79471 0.75172
 O504 O 0.72746 0.77456 0.72747
 O505 O 0.72544 0.72793 0.72547
 O506 O 0.77350 0.77371 0.77430
 C507 C 0.74876 0.69477 0.69214
 C508 C 0.69166 0.69496 0.75085
 C509 C 0.69343 0.75428 0.69221
 C510 C 0.75032 0.80593 0.80826
 C511 C 0.80635 0.74959 0.80640
 C512 C 0.80675 0.80675 0.75354
 H513 H 0.78145 0.71540 0.78134
 H514 H 0.78238 0.78374 0.71665
 H515 H 0.71459 0.71778 0.71485
 H516 H 0.71554 0.78252 0.78326
 H517 H 0.70875 0.73991 0.81500
 H518 H 0.68161 0.75762 0.78943
 H519 H 0.81822 0.76459 0.71187
 H520 H 0.79035 0.73918 0.68504
 H521 H 0.76353 0.71042 0.81726
 H522 H 0.73810 0.68541 0.78957
 H523 H 0.76262 0.81963 0.71264
 H524 H 0.74116 0.79293 0.68549
 H525 H 0.78840 0.68493 0.73651
 H526 H 0.81599 0.70963 0.75904
 H527 H 0.68568 0.79265 0.73680
 H528 H 0.71105 0.81881 0.76400
 O529 O 0.24987 0.68312 0.27769
 O530 O 0.22313 0.67715 0.24336
 O531 O 0.31601 0.70958 0.24250
 O532 O 0.32676 0.74099 0.21823
 O533 O 0.28807 0.74583 0.30759
 O534 O 0.25518 0.77418 0.31463
 O535 O 0.25439 0.78045 0.17957
 O536 O 0.28167 0.74706 0.17286
 O537 O 0.19031 0.75097 0.20950
 O538 O 0.18125 0.72335 0.24481
 O539 O 0.22317 0.81218 0.24191
 O540 O 0.25844 0.81831 0.27016
 O541 O 0.25645 0.81021 0.20900
 O542 O 0.28505 0.81633 0.24441
 O543 O 0.19212 0.78408 0.24272
 O544 O 0.18276 0.74940 0.27091
 O545 O 0.21991 0.75024 0.17985
 O546 O 0.25221 0.71899 0.17252
 O547 O 0.25179 0.71264 0.30742
 O548 O 0.22628 0.74845 0.31429
 O549 O 0.31761 0.74346 0.27794
 O550 O 0.32472 0.77231 0.24373
 O551 O 0.28493 0.68140 0.24274
 O552 O 0.25012 0.67607 0.21599
 Zr553 Zr 0.25254 0.70274 0.24433
 O554 O 0.23044 0.72490 0.22139
 Zr555 Zr 0.29799 0.74382 0.24444
 O556 O 0.27807 0.76767 0.22107
 Zr557 Zr 0.25470 0.74599 0.28771
 O558 O 0.23294 0.77023 0.26651
 Zr559 Zr 0.25316 0.74735 0.19949
 O560 O 0.27544 0.72311 0.22045
 Zr561 Zr 0.21001 0.74972 0.24294
 O562 O 0.22978 0.72539 0.26618
 Zr563 Zr 0.25557 0.79077 0.24262
 O564 O 0.27765 0.76872 0.26619
 O565 O 0.27644 0.72193 0.26732
 O566 O 0.23136 0.77167 0.21973
 C567 C 0.24977 0.69008 0.30036
 C568 C 0.30790 0.68731 0.24198
 C569 C 0.31071 0.74468 0.30059
 C570 C 0.25554 0.80310 0.18639
 C571 C 0.19731 0.75140 0.18685
 C572 C 0.20018 0.80634 0.24209
 H573 H 0.21957 0.71427 0.21134
 H574 H 0.22332 0.78098 0.27764
 H575 H 0.28640 0.71078 0.27779
 H576 H 0.28961 0.77712 0.21058
 H577 H 0.29375 0.73444 0.17820
 H578 H 0.32191 0.75088 0.20370
 H579 H 0.18689 0.76253 0.28289
 H580 H 0.21286 0.73745 0.30861
 H581 H 0.23772 0.70839 0.17575
 H582 H 0.26149 0.68150 0.20277
 H583 H 0.24514 0.81545 0.28232
 H584 H 0.26660 0.78702 0.30846
 H585 H 0.21002 0.68392 0.25412
 H586 H 0.18384 0.71126 0.23141
 H587 H 0.32034 0.78409 0.25698
 H588 H 0.29667 0.81240 0.23090
 O589 O 0.75114 0.30741 0.29091
 O590 O 0.77849 0.31429 0.25678
 O591 O 0.68682 0.27823 0.25529
 O592 O 0.67704 0.24606 0.23180
 O593 O 0.71678 0.24368 0.32079
 O594 O 0.75062 0.21602 0.32739
 O595 O 0.75081 0.20975 0.19255
 O596 O 0.72227 0.24220 0.18601
 O597 O 0.81396 0.24212 0.22223
 O598 O 0.82201 0.27007 0.25741
 O599 O 0.78396 0.17957 0.25479
 O600 O 0.74926 0.17190 0.28315
 O601 O 0.74976 0.18008 0.22212
 O602 O 0.72229 0.17283 0.25791
 O603 O 0.81371 0.20907 0.25459
 O604 O 0.82167 0.24379 0.28357
 O605 O 0.78433 0.24234 0.19260
 O606 O 0.75050 0.27119 0.18525
 O607 O 0.75105 0.27765 0.32047
 O608 O 0.77857 0.24323 0.32703
 O609 O 0.68687 0.24421 0.29141
 O610 O 0.68075 0.21509 0.25709
 O611 O 0.71679 0.30758 0.25528
 O612 O 0.75154 0.31465 0.22930
 Zr613 Zr 0.74999 0.28768 0.25740
 O614 O 0.77278 0.26647 0.23426
 Zr615 Zr 0.70623 0.24471 0.25767
 O616 O 0.72707 0.22174 0.23421
 Zr617 Zr 0.74988 0.24436 0.30065
 O618 O 0.77253 0.22107 0.27936
 Zr619 Zr 0.75098 0.24303 0.21242
 O620 O 0.72787 0.26633 0.23358
 Zr621 Zr 0.79436 0.24254 0.25567
 O622 O 0.77379 0.26603 0.27909
 Zr623 Zr 0.75063 0.19959 0.25566
 O624 O 0.72773 0.22070 0.27931
 O625 O 0.72697 0.26748 0.28038
 O626 O 0.77387 0.21964 0.23254
 C627 C 0.75140 0.30033 0.31357
 C628 C 0.69408 0.30079 0.25433
 C629 C 0.69406 0.24374 0.31402
 C630 C 0.75004 0.18710 0.19948
 C631 C 0.80697 0.24199 0.19959
 C632 C 0.80665 0.18649 0.25416
 H633 H 0.78312 0.27758 0.22419
 H634 H 0.78270 0.21073 0.29040
 H635 H 0.71646 0.27823 0.29072
 H636 H 0.71581 0.21182 0.22384
 H637 H 0.70969 0.25425 0.19152
 H638 H 0.68237 0.23674 0.21706
 H639 H 0.81846 0.23011 0.29520
 H640 H 0.79144 0.25482 0.32123
 H641 H 0.76391 0.28299 0.18892
 H642 H 0.74062 0.30878 0.21589
 H643 H 0.76226 0.17554 0.29541
 H644 H 0.73927 0.20301 0.32146
 H645 H 0.79149 0.30825 0.26809
 H646 H 0.81854 0.28232 0.24435
 H647 H 0.68553 0.20365 0.27049
 H648 H 0.71018 0.17641 0.24474
 C649 C 0.27598 0.06845 0.05315
 C650 C 0.27559 0.08761 0.07037
 C651 C 0.25401 0.09302 0.08353
 C652 C 0.23253 0.07925 0.07872
 C653 C 0.23284 0.06021 0.06130
 C654 C 0.25461 0.05453 0.04842
 C655 C 0.25445 0.11348 0.10163
 C656 C 0.23998 0.11403 0.12167
 C657 C 0.24138 0.13382 0.14044
 C658 C 0.23509 0.12826 0.16489
 C659 C 0.23625 0.14637 0.18317
 C660 C 0.24336 0.17062 0.17731
 C661 C 0.24922 0.17632 0.15270
 C662 C 0.24828 0.15811 0.13445
 H663 H 0.29300 0.06469 0.04339
 H664 H 0.29231 0.09809 0.07359
 H665 H 0.21536 0.08339 0.08802
 H666 H 0.21604 0.04994 0.05793
 H667 H 0.26836 0.12760 0.09918
 H668 H 0.22785 0.09862 0.12545
 H669 H 0.22949 0.10976 0.16992
 H670 H 0.23135 0.14139 0.20188
 H671 H 0.25460 0.19485 0.14753
 H672 H 0.25256 0.16322 0.11564
 C673 C 0.77871 0.56891 0.55243
 C674 C 0.77883 0.58880 0.56878
 C675 C 0.75701 0.59637 0.58040
 C676 C 0.73482 0.58409 0.57482
 C677 C 0.73464 0.56435 0.55824
 C678 C 0.75662 0.55644 0.54701
 C679 C 0.75798 0.61725 0.59794
 C680 C 0.74302 0.61883 0.61752
 C681 C 0.74502 0.63865 0.63615
 C682 C 0.73827 0.63343 0.66053
 C683 C 0.73987 0.65157 0.67871
 C684 C 0.74785 0.67553 0.67280
 C685 C 0.75424 0.68091 0.64826
 C686 C 0.75293 0.66262 0.63010
 H687 H 0.79591 0.56341 0.54389
 H688 H 0.79609 0.59811 0.57264
 H689 H 0.71755 0.58992 0.58295
 H690 H 0.71731 0.55523 0.55427
 H691 H 0.77269 0.63058 0.59567
 H692 H 0.73003 0.60408 0.62116
 H693 H 0.73193 0.61517 0.66559
 H694 H 0.73451 0.64687 0.69737
 H695 H 0.76028 0.69923 0.64310
 H696 H 0.75766 0.66740 0.61131
 C697 C 0.78427 0.94398 0.06174
 C698 C 0.78522 0.92633 0.08058
 C699 C 0.76354 0.91531 0.08944
 C700 C 0.74076 0.92275 0.07955
 C701 C 0.73973 0.94054 0.06096
 C702 C 0.76147 0.95139 0.05166
 C703 C 0.76507 0.89672 0.10944
 C704 C 0.74891 0.87809 0.11148
 C705 C 0.75004 0.85923 0.13121
 C706 C 0.74077 0.83558 0.12635
 C707 C 0.74089 0.81741 0.14461
 C708 C 0.74982 0.82265 0.16838
 C709 C 0.75882 0.84646 0.17340
 C710 C 0.75904 0.86456 0.15497
 H711 H 0.80142 0.95193 0.05527
 H712 H 0.80298 0.92107 0.08808
 H713 H 0.72362 0.91519 0.08646
 H714 H 0.72177 0.94577 0.05392
 H715 H 0.78060 0.89774 0.12196
 H716 H 0.73493 0.87569 0.09740
 H717 H 0.73352 0.83110 0.10827
 H718 H 0.73369 0.79931 0.14017
 H719 H 0.76583 0.85106 0.19153
 H720 H 0.76575 0.88280 0.15952
 C721 C 0.27759 0.44635 0.56487
 C722 C 0.27731 0.42941 0.58428
 C723 C 0.25561 0.41668 0.59036
 C724 C 0.23399 0.42154 0.57685
 C725 C 0.23420 0.43866 0.55757
 C726 C 0.25600 0.45124 0.55135
 C727 C 0.25596 0.39927 0.61140
 C728 C 0.24090 0.37971 0.61297
 C729 C 0.24170 0.36204 0.63378
 C730 C 0.23497 0.33743 0.62955
 C731 C 0.23560 0.32021 0.64870
 C732 C 0.24253 0.32736 0.67265
 C733 C 0.24873 0.35216 0.67701
 C734 C 0.24837 0.36933 0.65777
 H735 H 0.29464 0.45587 0.56066
 H736 H 0.29415 0.42614 0.59454
 H737 H 0.21675 0.41261 0.58147
 H738 H 0.21722 0.44214 0.54762
 H739 H 0.27004 0.40196 0.62532
 H740 H 0.22856 0.37554 0.59783
 H741 H 0.22952 0.33144 0.61128
 H742 H 0.23054 0.30129 0.64475
 H743 H 0.25409 0.35828 0.69526
 H744 H 0.25298 0.38832 0.66183
 C745 C 0.72981 0.05559 0.93587
 C746 C 0.72783 0.07299 0.91696
 C747 C 0.74823 0.08732 0.91008
 C748 C 0.77092 0.08353 0.92213
 C749 C 0.77299 0.06589 0.94086
 C750 C 0.75242 0.05181 0.94800
 C751 C 0.74542 0.10535 0.88974
 C752 C 0.75854 0.12627 0.88842
 C753 C 0.75543 0.14455 0.86834
 C754 C 0.76064 0.16942 0.87316
 C755 C 0.75855 0.18711 0.85454
 C756 C 0.75162 0.18024 0.83050
 C757 C 0.74654 0.15527 0.82562
 C758 C 0.74837 0.13761 0.84434
 H759 H 0.71367 0.04491 0.94080
 H760 H 0.71023 0.07540 0.90780
 H761 H 0.78719 0.09379 0.91682
 H762 H 0.79069 0.06330 0.94976
 H763 H 0.73106 0.10189 0.87630
 H764 H 0.77111 0.13092 0.90324
 H765 H 0.76632 0.17519 0.89143
 H766 H 0.76286 0.20612 0.85889
 H767 H 0.74131 0.14933 0.80728
 H768 H 0.74487 0.11850 0.83979
 C769 C 0.27814 0.56724 0.44308
 C770 C 0.27823 0.58625 0.42570
 C771 C 0.25679 0.59208 0.41246
 C772 C 0.23500 0.57883 0.41732
 C773 C 0.23483 0.55996 0.43489
 C774 C 0.25643 0.55391 0.44791
 C775 C 0.25765 0.61253 0.39439
 C776 C 0.24309 0.61354 0.37443
 C777 C 0.24478 0.63353 0.35591
 C778 C 0.23869 0.62837 0.33132
 C779 C 0.24035 0.64669 0.31328
 C780 C 0.24772 0.67075 0.31957
 C781 C 0.25326 0.67608 0.34434
 C782 C 0.25184 0.65766 0.36233
 H783 H 0.29504 0.56317 0.45293
 H784 H 0.29518 0.59632 0.42244
 H785 H 0.21794 0.58331 0.40796
 H786 H 0.21778 0.55014 0.43832
 H787 H 0.27186 0.62636 0.39687
 H788 H 0.23063 0.59841 0.37054
 H789 H 0.23297 0.60998 0.32597
 H790 H 0.23575 0.64201 0.29441
 H791 H 0.25889 0.69444 0.34982
 H792 H 0.25597 0.66247 0.38126
 C793 C 0.28043 0.94533 0.93560
 C794 C 0.28101 0.92827 0.91629
 C795 C 0.25937 0.91645 0.90850
 C796 C 0.23695 0.92231 0.92015
 C797 C 0.23627 0.93960 0.93928
 C798 C 0.25801 0.95140 0.94729
 C799 C 0.26066 0.89889 0.88762
 C800 C 0.24537 0.87960 0.88536
 C801 C 0.24694 0.86177 0.86474
 C802 C 0.23970 0.83729 0.86880
 C803 C 0.24061 0.82001 0.84971
 C804 C 0.24832 0.82699 0.82595
 C805 C 0.25523 0.85162 0.82177
 C806 C 0.25464 0.86884 0.84098
 H807 H 0.29758 0.95401 0.94107
 H808 H 0.29847 0.92418 0.90747
 H809 H 0.21981 0.91402 0.91415
 H810 H 0.21861 0.94380 0.94764
 H811 H 0.27557 0.90120 0.87452
 H812 H 0.23212 0.87581 0.89982
 H813 H 0.23347 0.83147 0.88687
 H814 H 0.23488 0.80125 0.85349
 H815 H 0.26112 0.85759 0.80364
 H816 H 0.25971 0.88774 0.83706
 C817 C 0.78055 0.44351 0.43658
 C818 C 0.78121 0.42586 0.41783
 C819 C 0.75981 0.41297 0.41115
 C820 C 0.73752 0.41839 0.42329
 C821 C 0.73678 0.43629 0.44187
 C822 C 0.75831 0.44898 0.44875
 C823 C 0.76125 0.39467 0.39095
 C824 C 0.74677 0.37468 0.38992
 C825 C 0.74877 0.35597 0.37014
 C826 C 0.74257 0.33145 0.37549
 C827 C 0.74392 0.31333 0.35723
 C828 C 0.75106 0.31945 0.33306
 C829 C 0.75699 0.34409 0.32761
 C830 C 0.75593 0.36217 0.34598
 H831 H 0.79741 0.45312 0.44129
 H832 H 0.79855 0.42215 0.40860
 H833 H 0.72054 0.40925 0.41813
 H834 H 0.71935 0.44022 0.45080
 H835 H 0.77575 0.39701 0.37741
 H836 H 0.73401 0.37100 0.40485
 H837 H 0.73679 0.32628 0.39390
 H838 H 0.73892 0.29458 0.36198
 H839 H 0.76238 0.34942 0.30914
 H840 H 0.76018 0.38104 0.34107
 C841 C 0.05016 0.23233 0.06965
 C842 C 0.06703 0.23066 0.08908
 C843 C 0.08024 0.25148 0.09687
 C844 C 0.07583 0.27425 0.08524
 C845 C 0.05874 0.27599 0.06600
 C846 C 0.04581 0.25502 0.05791
 C847 C 0.09792 0.24898 0.11755
 C848 C 0.11827 0.26289 0.11955
 C849 C 0.13647 0.25977 0.13967
 C850 C 0.16131 0.26529 0.13503
 C851 C 0.17903 0.26255 0.15354
 C852 C 0.17219 0.25469 0.17728
 C853 C 0.14721 0.24962 0.18208
 C854 C 0.12952 0.25205 0.16345
 H855 H 0.04035 0.21588 0.06398
 H856 H 0.06995 0.21297 0.09790
 H857 H 0.08520 0.29082 0.09125
 H858 H 0.05568 0.29377 0.05742
 H859 H 0.09484 0.23416 0.13058
 H860 H 0.12268 0.27597 0.10511
 H861 H 0.16707 0.27147 0.11692
 H862 H 0.19809 0.26681 0.14929
 H863 H 0.14134 0.24360 0.20020
 H864 H 0.11041 0.24828 0.16782
 C865 C 0.55826 0.72595 0.56073
 C866 C 0.57482 0.72541 0.58048
 C867 C 0.58622 0.74712 0.58872
 C868 C 0.58051 0.76954 0.57696
 C869 C 0.56377 0.77012 0.55733
 C870 C 0.55243 0.74833 0.54902
 C871 C 0.60326 0.74583 0.61006
 C872 C 0.62205 0.76158 0.61322
 C873 C 0.63976 0.75960 0.63392
 C874 C 0.66412 0.76743 0.63021
 C875 C 0.68148 0.76565 0.64915
 C876 C 0.67472 0.75645 0.67243
 C877 C 0.65014 0.74918 0.67638
 C878 C 0.63283 0.75063 0.65728
 H879 H 0.54969 0.70887 0.55493
 H880 H 0.57878 0.70795 0.58934
 H881 H 0.58842 0.78674 0.58324
 H882 H 0.55951 0.78768 0.54884
 H883 H 0.60111 0.73049 0.62266
 H884 H 0.62577 0.77538 0.59927
 H885 H 0.66983 0.77462 0.61247
 H886 H 0.70020 0.77163 0.64557
 H887 H 0.64437 0.74209 0.69414
 H888 H 0.61401 0.74506 0.66092
 C889 C 0.06449 0.78022 0.94146
 C890 C 0.08375 0.78069 0.92432
 C891 C 0.09187 0.75891 0.91304
 C892 C 0.08074 0.73644 0.91963
 C893 C 0.06170 0.73587 0.93702
 C894 C 0.05320 0.75778 0.94814
 C895 C 0.11243 0.76013 0.89510
 C896 C 0.11446 0.74460 0.87597
 C897 C 0.13456 0.74637 0.85757
 C898 C 0.12984 0.73934 0.83313
 C899 C 0.14835 0.74085 0.81526
 C900 C 0.17217 0.74891 0.82160
 C901 C 0.17706 0.75545 0.84622
 C902 C 0.15842 0.75429 0.86402
 H903 H 0.05865 0.79750 0.94963
 H904 H 0.09218 0.79820 0.91968
 H905 H 0.08703 0.71921 0.91175
 H906 H 0.05367 0.71818 0.94171
 H907 H 0.12539 0.77524 0.89690
 H908 H 0.10008 0.73112 0.87268
 H909 H 0.11166 0.73296 0.82779
 H910 H 0.14406 0.73551 0.79649
 H911 H 0.19523 0.76170 0.85168
 H912 H 0.16282 0.75923 0.88285
 C913 C 0.55047 0.21618 0.43702
 C914 C 0.56762 0.21550 0.41780
 C915 C 0.58127 0.23657 0.41162
 C916 C 0.57695 0.25863 0.42459
 C917 C 0.55958 0.25939 0.44364
 C918 C 0.54628 0.23813 0.45016
 C919 C 0.59936 0.23508 0.39124
 C920 C 0.61999 0.24869 0.39066
 C921 C 0.63860 0.24664 0.37078
 C922 C 0.66332 0.25195 0.37623
 C923 C 0.68137 0.25057 0.35791
 C924 C 0.67499 0.24424 0.33357
 C925 C 0.65016 0.23919 0.32803
 C926 C 0.63214 0.24032 0.34645
 H927 H 0.54037 0.19953 0.44147
 H928 H 0.57046 0.19837 0.40792
 H929 H 0.58666 0.27540 0.41982
 H930 H 0.55664 0.27661 0.45332
 H931 H 0.59632 0.22119 0.37720
 H932 H 0.62425 0.26071 0.40604
 H933 H 0.66870 0.25709 0.39478
 H934 H 0.70028 0.25486 0.36275
 H935 H 0.64462 0.23444 0.30944
 H936 H 0.61313 0.23678 0.34146
 C937 C 0.93427 0.77690 0.05206
 C938 C 0.91422 0.77637 0.06825
 C939 C 0.90617 0.75403 0.07848
 C940 C 0.91825 0.73206 0.07181
 C941 C 0.93817 0.73255 0.05545
 C942 C 0.94644 0.75499 0.04546
 C943 C 0.88488 0.75422 0.09557
 C944 C 0.88221 0.73772 0.11376
 C945 C 0.86178 0.73879 0.13181
 C946 C 0.86601 0.73030 0.15584
 C947 C 0.84739 0.73147 0.17358
 C948 C 0.82394 0.74071 0.16750
 C949 C 0.81944 0.74856 0.14321
 C950 C 0.83822 0.74770 0.12553
 H951 H 0.94005 0.79446 0.04451
 H952 H 0.90509 0.79350 0.07296
 H953 H 0.91209 0.71441 0.07879
 H954 H 0.94703 0.71533 0.05056
 H955 H 0.87200 0.76943 0.09413
 H956 H 0.89645 0.72406 0.11682
 H957 H 0.88393 0.72313 0.16104
 H958 H 0.85136 0.72505 0.19207
 H959 H 0.80153 0.75570 0.13796
 H960 H 0.83418 0.75377 0.10695
 C961 C 0.44366 0.21874 0.57150
 C962 C 0.42663 0.21891 0.59082
 C963 C 0.41396 0.24059 0.59694
 C964 C 0.41914 0.26238 0.58385
 C965 C 0.43641 0.26229 0.56471
 C966 C 0.44870 0.24043 0.55823
 C967 C 0.39591 0.24002 0.61734
 C968 C 0.37573 0.25427 0.61762
 C969 C 0.35713 0.25313 0.63751
 C970 C 0.33250 0.25864 0.63190
 C971 C 0.31445 0.25801 0.65025
 C972 C 0.32078 0.25229 0.67474
 C973 C 0.34554 0.24707 0.68043
 C974 C 0.36354 0.24743 0.66199
 H975 H 0.45302 0.20166 0.56707
 H976 H 0.42310 0.20198 0.60081
 H977 H 0.41018 0.27957 0.58859
 H978 H 0.44003 0.27931 0.55492
 H979 H 0.39851 0.22630 0.63162
 H980 H 0.37183 0.26610 0.60201
 H981 H 0.32718 0.26329 0.61321
 H982 H 0.29560 0.26239 0.64531
 H983 H 0.35102 0.24275 0.69915
 H984 H 0.38250 0.24375 0.66705
 C985 C 0.93674 0.28701 0.94610
 C986 C 0.91767 0.28832 0.92877
 C987 C 0.90874 0.26691 0.91735
 C988 C 0.91896 0.24400 0.92391
 C989 C 0.93781 0.24260 0.94143
 C990 C 0.94701 0.26409 0.95282
 C991 C 0.88827 0.26890 0.89934
 C992 C 0.88579 0.25334 0.88029
 C993 C 0.86565 0.25520 0.86194
 C994 C 0.87003 0.24688 0.83787
 C995 C 0.85135 0.24760 0.82016
 C996 C 0.82766 0.25621 0.82627
 C997 C 0.82315 0.26433 0.85048
 C998 C 0.84200 0.26395 0.86814
 H999 H 0.94314 0.30398 0.95447
 H1000 H 0.90996 0.30616 0.92414
 H1001 H 0.91203 0.22705 0.91596
 H1002 H 0.94503 0.22458 0.94613
 H1003 H 0.87577 0.28438 0.90112
 H1004 H 0.89980 0.23945 0.87713
 H1005 H 0.88801 0.23984 0.83272
 H1006 H 0.85538 0.24094 0.80176
 H1007 H 0.80506 0.27094 0.85578
 H1008 H 0.83785 0.26990 0.88673
 C1009 C 0.43407 0.77393 0.44381
 C1010 C 0.41490 0.77452 0.42657
 C1011 C 0.40839 0.75323 0.41338
 C1012 C 0.42101 0.73109 0.41826
 C1013 C 0.44001 0.73043 0.43568
 C1014 C 0.44685 0.75188 0.44854
 C1015 C 0.38805 0.75460 0.39520
 C1016 C 0.38710 0.74026 0.37507
 C1017 C 0.36725 0.74205 0.35638
 C1018 C 0.37253 0.73545 0.33194
 C1019 C 0.35427 0.73661 0.31380
 C1020 C 0.33014 0.74401 0.31981
 C1021 C 0.32474 0.75029 0.34438
 C1022 C 0.34311 0.74938 0.36249
 H1023 H 0.43876 0.79072 0.45354
 H1024 H 0.40530 0.79173 0.42330
 H1025 H 0.41598 0.71415 0.40896
 H1026 H 0.44939 0.71312 0.43903
 H1027 H 0.37435 0.76891 0.39774
 H1028 H 0.40217 0.72772 0.37126
 H1029 H 0.39092 0.72951 0.32683
 H1030 H 0.35901 0.73139 0.29511
 H1031 H 0.30631 0.75592 0.34965
 H1032 H 0.33821 0.75392 0.38129
 C1033 C 0.06168 0.05013 0.28448
 C1034 C 0.07981 0.06840 0.28631
 C1035 C 0.08604 0.08286 0.26577
 C1036 C 0.07406 0.07844 0.24319
 C1037 C 0.05614 0.06001 0.24129
 C1038 C 0.04974 0.04565 0.26190
 C1039 C 0.10593 0.10145 0.26809
 C1040 C 0.10680 0.12196 0.25430
 C1041 C 0.12724 0.14004 0.25575
 C1042 C 0.12264 0.16474 0.24957
 C1043 C 0.14174 0.18208 0.24975
 C1044 C 0.16596 0.17495 0.25567
 C1045 C 0.17057 0.15016 0.26172
 C1046 C 0.15143 0.13289 0.26181
 H1047 H 0.05726 0.03927 0.30065
 H1048 H 0.08897 0.07129 0.30383
 H1049 H 0.07891 0.08873 0.22680
 H1050 H 0.04737 0.05695 0.22361
 H1051 H 0.11977 0.09845 0.28218
 H1052 H 0.09162 0.12621 0.24203
 H1053 H 0.10421 0.17062 0.24458
 H1054 H 0.13759 0.20098 0.24479
 H1055 H 0.18904 0.14404 0.26628
 H1056 H 0.15579 0.11387 0.26597
 C1057 C 0.55112 0.57049 0.71935
 C1058 C 0.56774 0.59019 0.71968
 C1059 C 0.58003 0.59666 0.74149
 C1060 C 0.57492 0.58344 0.76322
 C1061 C 0.55812 0.56388 0.76295
 C1062 C 0.54615 0.55711 0.74098
 C1063 C 0.59766 0.61749 0.74104
 C1064 C 0.61738 0.61861 0.75591
 C1065 C 0.63587 0.63862 0.75453
 C1066 C 0.66037 0.63336 0.76092
 C1067 C 0.67845 0.65164 0.75963
 C1068 C 0.67232 0.67576 0.75236
 C1069 C 0.64765 0.68120 0.74649
 C1070 C 0.62959 0.66280 0.74750
 H1071 H 0.54203 0.56588 0.70217
 H1072 H 0.57122 0.60023 0.70276
 H1073 H 0.58353 0.58840 0.78053
 H1074 H 0.55453 0.55405 0.77996
 H1075 H 0.59524 0.63134 0.72685
 H1076 H 0.62119 0.60344 0.76833
 H1077 H 0.66560 0.61494 0.76661
 H1078 H 0.69724 0.64689 0.76449
 H1079 H 0.64233 0.69962 0.74091
 H1080 H 0.61072 0.66762 0.74310
 C1081 C 0.94303 0.06725 0.77715
 C1082 C 0.92662 0.08709 0.77785
 C1083 C 0.91613 0.09622 0.75608
 C1084 C 0.92279 0.08554 0.73342
 C1085 C 0.93947 0.06591 0.73262
 C1086 C 0.94976 0.05639 0.75450
 C1087 C 0.89873 0.11715 0.75757
 C1088 C 0.87971 0.11972 0.74203
 C1089 C 0.86145 0.13981 0.74437
 C1090 C 0.83692 0.13522 0.73760
 C1091 C 0.81911 0.15369 0.73973
 C1092 C 0.82561 0.17733 0.74814
 C1093 C 0.85030 0.18211 0.75443
 C1094 C 0.86806 0.16348 0.75268
 H1095 H 0.95060 0.06063 0.79441
 H1096 H 0.92188 0.09516 0.79550
 H1097 H 0.91548 0.09261 0.71624
 H1098 H 0.94426 0.05823 0.71481
 H1099 H 0.90064 0.12974 0.77298
 H1100 H 0.87627 0.10566 0.72826
 H1101 H 0.83147 0.11718 0.73096
 H1102 H 0.80028 0.14952 0.73450
 H1103 H 0.85585 0.20018 0.76091
 H1104 H 0.88698 0.16774 0.75747
 C1105 C 0.44526 0.56012 0.27683
 C1106 C 0.42820 0.57942 0.27644
 C1107 C 0.41607 0.58579 0.25451
 C1108 C 0.42170 0.57283 0.23276
 C1109 C 0.43897 0.55370 0.23308
 C1110 C 0.45087 0.54709 0.25514
 C1111 C 0.39839 0.60656 0.25476
 C1112 C 0.37896 0.60786 0.23952
 C1113 C 0.36112 0.62848 0.24020
 C1114 C 0.33646 0.62403 0.23377
 C1115 C 0.31912 0.64310 0.23440
 C1116 C 0.32626 0.66713 0.24101
 C1117 C 0.35110 0.67169 0.24690
 C1118 C 0.36836 0.65256 0.24655
 H1119 H 0.45426 0.55558 0.29408
 H1120 H 0.42433 0.58931 0.29337
 H1121 H 0.41319 0.57773 0.21538
 H1122 H 0.44300 0.54408 0.21605
 H1123 H 0.40074 0.62047 0.26890
 H1124 H 0.37509 0.59268 0.22712
 H1125 H 0.33053 0.60567 0.22858
 H1126 H 0.30017 0.63903 0.22957
 H1127 H 0.35721 0.69001 0.25201
 H1128 H 0.38738 0.65676 0.25091
 C1129 C 0.05004 0.93481 0.77336
 C1130 C 0.06671 0.91518 0.77327
 C1131 C 0.07969 0.90905 0.75177
 C1132 C 0.07520 0.92256 0.73007
 C1133 C 0.05827 0.94203 0.73007
 C1134 C 0.04564 0.94847 0.75177
 C1135 C 0.09733 0.88824 0.75255
 C1136 C 0.11771 0.88744 0.73859
 C1137 C 0.13619 0.86745 0.74058
 C1138 C 0.16100 0.87286 0.73568
 C1139 C 0.17903 0.85456 0.73757
 C1140 C 0.17254 0.83027 0.74396
 C1141 C 0.14760 0.82472 0.74838
 C1142 C 0.12959 0.84313 0.74678
 H1143 H 0.04043 0.93916 0.79032
 H1144 H 0.06970 0.90492 0.79015
 H1145 H 0.08442 0.91787 0.71300
 H1146 H 0.05514 0.95211 0.71311
 H1147 H 0.09434 0.87415 0.76638
 H1148 H 0.12203 0.90283 0.72662
 H1149 H 0.16650 0.89140 0.73067
 H1150 H 0.19804 0.85941 0.73380
 H1151 H 0.14198 0.80617 0.75321
 H1152 H 0.11052 0.83820 0.75003
 C1153 C 0.55307 0.42625 0.27940
 C1154 C 0.56981 0.40668 0.27994
 C1155 C 0.58304 0.40011 0.25872
 C1156 C 0.57877 0.41312 0.23668
 C1157 C 0.56182 0.43255 0.23606
 C1158 C 0.54889 0.43940 0.25746
 C1159 C 0.60064 0.37930 0.26009
 C1160 C 0.62098 0.37802 0.24611
 C1161 C 0.63924 0.35787 0.24839
 C1162 C 0.66405 0.36285 0.24307
 C1163 C 0.68185 0.34437 0.24517
 C1164 C 0.67513 0.32033 0.25221
 C1165 C 0.65017 0.31521 0.25705
 C1166 C 0.63239 0.33380 0.25522
 H1167 H 0.54324 0.43093 0.29614
 H1168 H 0.57263 0.39679 0.29707
 H1169 H 0.58816 0.40808 0.21980
 H1170 H 0.55887 0.44221 0.21884
 H1171 H 0.59757 0.36556 0.27426
 H1172 H 0.62539 0.39309 0.23376
 H1173 H 0.66972 0.38120 0.23756
 H1174 H 0.70088 0.34889 0.24108
 H1175 H 0.64438 0.29686 0.26240
 H1176 H 0.61330 0.32917 0.25878
 C1177 C 0.94041 0.93583 0.22547
 C1178 C 0.92142 0.91855 0.22313
 C1179 C 0.91192 0.90655 0.24394
 C1180 C 0.92152 0.91239 0.26731
 C1181 C 0.94029 0.92990 0.26975
 C1182 C 0.95001 0.94192 0.24885
 C1183 C 0.89135 0.88888 0.24081
 C1184 C 0.88799 0.86947 0.25571
 C1185 C 0.86746 0.85178 0.25252
 C1186 C 0.87092 0.82715 0.25958
 C1187 C 0.85180 0.81004 0.25720
 C1188 C 0.82861 0.81734 0.24818
 C1189 C 0.82503 0.84211 0.24140
 C1190 C 0.84428 0.85915 0.24346
 H1191 H 0.94724 0.94468 0.20891
 H1192 H 0.91418 0.91448 0.20496
 H1193 H 0.91414 0.90394 0.28382
 H1194 H 0.94703 0.93410 0.28808
 H1195 H 0.87939 0.89131 0.22498
 H1196 H 0.90143 0.86556 0.26997
 H1197 H 0.88854 0.82111 0.26682
 H1198 H 0.85509 0.79114 0.26277
 H1199 H 0.80736 0.84832 0.23444
 H1200 H 0.84081 0.87816 0.23846
 C1201 C 0.43365 0.44552 0.71729
 C1202 C 0.41368 0.42921 0.71736
 C1203 C 0.40567 0.41830 0.73941
 C1204 C 0.41788 0.42428 0.76153
 C1205 C 0.43776 0.44068 0.76148
 C1206 C 0.44584 0.45153 0.73937
 C1207 C 0.38421 0.40138 0.73882
 C1208 C 0.38117 0.38311 0.75518
 C1209 C 0.36045 0.36537 0.75410
 C1210 C 0.36423 0.34150 0.76321
 C1211 C 0.34533 0.32407 0.76244
 C1212 C 0.32199 0.33027 0.75295
 C1213 C 0.31795 0.35439 0.74438
 C1214 C 0.33704 0.37179 0.74485
 H1215 H 0.43928 0.45373 0.69997
 H1216 H 0.40447 0.42504 0.70012
 H1217 H 0.41178 0.41683 0.77900
 H1218 H 0.44657 0.44513 0.77884
 H1219 H 0.37142 0.40315 0.72358
 H1220 H 0.39530 0.37978 0.76890
 H1221 H 0.38201 0.33620 0.77065
 H1222 H 0.34899 0.30572 0.76941
 H1223 H 0.30015 0.35971 0.73703
 H1224 H 0.33334 0.39027 0.73829
 C1225 C 0.06385 0.28393 0.95051
 C1226 C 0.08329 0.28454 0.93357
 C1227 C 0.09002 0.26325 0.92049
 C1228 C 0.07732 0.24111 0.92514
 C1229 C 0.05803 0.24044 0.94224
 C1230 C 0.05099 0.26187 0.95502
 C1231 C 0.11067 0.26461 0.90264
 C1232 C 0.11195 0.25019 0.88258
 C1233 C 0.13201 0.25194 0.86413
 C1234 C 0.12699 0.24517 0.83969
 C1235 C 0.14542 0.24627 0.82173
 C1236 C 0.16947 0.25378 0.82792
 C1237 C 0.17464 0.26020 0.85251
 C1238 C 0.15608 0.25937 0.87044
 H1239 H 0.05901 0.30071 0.96020
 H1240 H 0.09294 0.30176 0.93047
 H1241 H 0.08250 0.22417 0.91595
 H1242 H 0.04862 0.22312 0.94544
 H1243 H 0.12432 0.27895 0.90534
 H1244 H 0.09694 0.23762 0.87860
 H1245 H 0.10867 0.23915 0.83442
 H1246 H 0.14086 0.24092 0.80303
 H1247 H 0.19301 0.26592 0.85790
 H1248 H 0.16076 0.26406 0.88927
 C1249 C 0.55487 0.77469 0.43133
 C1250 C 0.57133 0.77536 0.41149
 C1251 C 0.58306 0.75378 0.40335
 C1252 C 0.57755 0.73132 0.41513
 C1253 C 0.56091 0.73060 0.43483
 C1254 C 0.54944 0.75229 0.44322
 C1255 C 0.60039 0.75523 0.38223
 C1256 C 0.61956 0.73984 0.37955
 C1257 C 0.63766 0.74181 0.35917
 C1258 C 0.66184 0.73359 0.36325
 C1259 C 0.67950 0.73495 0.34456
 C1260 C 0.67327 0.74417 0.32113
 C1261 C 0.64891 0.75198 0.31684
 C1262 C 0.63128 0.75091 0.33571
 H1263 H 0.54620 0.79169 0.43720
 H1264 H 0.57510 0.79284 0.40260
 H1265 H 0.58568 0.71419 0.40889
 H1266 H 0.55698 0.71303 0.44346
 H1267 H 0.59816 0.77044 0.36948
 H1268 H 0.62321 0.72623 0.39370
 H1269 H 0.66716 0.72628 0.38107
 H1270 H 0.69802 0.72850 0.34842
 H1271 H 0.64349 0.75902 0.29896
 H1272 H 0.61262 0.75677 0.33173
 C1273 C 0.93927 0.78212 0.93977
 C1274 C 0.91940 0.78290 0.92333
 C1275 C 0.90983 0.76111 0.91322
 C1276 C 0.92026 0.73841 0.92012
 C1277 C 0.93998 0.73757 0.93666
 C1278 C 0.94975 0.75940 0.94681
 C1279 C 0.88862 0.76251 0.89608
 C1280 C 0.88517 0.74606 0.87798
 C1281 C 0.86459 0.74752 0.86017
 C1282 C 0.86829 0.73830 0.83633
 C1283 C 0.84937 0.73910 0.81894
 C1284 C 0.82610 0.74870 0.82518
 C1285 C 0.82216 0.75750 0.84924
 C1286 C 0.84130 0.75704 0.86658
 H1287 H 0.94612 0.79935 0.94722
 H1288 H 0.91154 0.80059 0.91840
 H1289 H 0.91288 0.72119 0.91324
 H1290 H 0.94731 0.71968 0.94169
 H1291 H 0.87643 0.77827 0.89755
 H1292 H 0.89884 0.73181 0.87495
 H1293 H 0.88599 0.73067 0.83105
 H1294 H 0.85292 0.73197 0.80062
 H1295 H 0.80441 0.76496 0.85456
 H1296 H 0.83771 0.76372 0.88505
 C1297 C 0.43051 0.26480 0.45145
 C1298 C 0.41076 0.26581 0.43494
 C1299 C 0.40303 0.24458 0.42238
 C1300 C 0.41504 0.22206 0.42714
 C1301 C 0.43465 0.22099 0.44387
 C1302 C 0.44269 0.24239 0.45609
 C1303 C 0.38218 0.24649 0.40486
 C1304 C 0.38021 0.23215 0.38484
 C1305 C 0.36023 0.23500 0.36645
 C1306 C 0.36501 0.22871 0.34185
 C1307 C 0.34670 0.23116 0.32391
 C1308 C 0.32300 0.23955 0.33029
 C1309 C 0.31805 0.24548 0.35504
 C1310 C 0.33650 0.24329 0.37296
 H1311 H 0.43612 0.28158 0.46074
 H1312 H 0.40167 0.28331 0.43175
 H1313 H 0.40909 0.20520 0.41828
 H1314 H 0.44354 0.20342 0.44720
 H1315 H 0.36913 0.26136 0.40763
 H1316 H 0.39467 0.21900 0.38072
 H1317 H 0.38308 0.22210 0.33643
 H1318 H 0.35108 0.22622 0.30506
 H1319 H 0.29996 0.25189 0.36057
 H1320 H 0.33201 0.24768 0.39190
 C1321 C 0.05441 0.73002 0.06252
 C1322 C 0.07152 0.72865 0.08174
 C1323 C 0.08478 0.74962 0.08905
 C1324 C 0.08016 0.77222 0.07719
 C1325 C 0.06283 0.77366 0.05815
 C1326 C 0.04988 0.75254 0.05051
 C1327 C 0.10281 0.74742 0.10942
 C1328 C 0.12321 0.76131 0.11078
 C1329 C 0.14177 0.75841 0.13057
 C1330 C 0.16654 0.76374 0.12536
 C1331 C 0.18459 0.76119 0.14356
 C1332 C 0.17816 0.75369 0.16753
 C1333 C 0.15326 0.74881 0.17289
 C1334 C 0.13524 0.75107 0.15458
 H1335 H 0.04458 0.71347 0.05719
 H1336 H 0.07461 0.71110 0.09076
 H1337 H 0.08958 0.78889 0.08285
 H1338 H 0.05963 0.79130 0.04936
 H1339 H 0.09995 0.73280 0.12273
 H1340 H 0.12737 0.77414 0.09605
 H1341 H 0.17197 0.76966 0.10707
 H1342 H 0.20357 0.76537 0.13890
 H1343 H 0.14770 0.74316 0.19122
 H1344 H 0.11619 0.74749 0.15938
 C1345 C 0.55569 0.21690 0.56727
 C1346 C 0.57266 0.21703 0.58672
 C1347 C 0.58400 0.23907 0.59416
 C1348 C 0.57777 0.26112 0.58199
 C1349 C 0.56073 0.26102 0.56269
 C1350 C 0.54947 0.23894 0.55512
 C1351 C 0.60159 0.23866 0.61507
 C1352 C 0.62017 0.25483 0.61715
 C1353 C 0.63827 0.25430 0.63756
 C1354 C 0.66220 0.26300 0.63308
 C1355 C 0.67988 0.26286 0.65177
 C1356 C 0.67388 0.25445 0.67555
 C1357 C 0.64972 0.24630 0.68026
 C1358 C 0.63208 0.24612 0.66140
 H1359 H 0.54717 0.19962 0.56203
 H1360 H 0.57700 0.19985 0.59594
 H1361 H 0.58556 0.27859 0.58770
 H1362 H 0.55617 0.27835 0.55387
 H1363 H 0.59993 0.22380 0.62831
 H1364 H 0.62333 0.26808 0.60255
 H1365 H 0.66732 0.26965 0.61495
 H1366 H 0.69826 0.26953 0.64761
 H1367 H 0.64454 0.23982 0.69843
 H1368 H 0.61357 0.23994 0.66563
 C1369 C 0.93061 0.27923 0.05974
 C1370 C 0.91140 0.27842 0.07690
 C1371 C 0.90480 0.25611 0.08820
 C1372 C 0.91736 0.23442 0.08154
 C1373 C 0.93638 0.23517 0.06416
 C1374 C 0.94330 0.25760 0.05317
 C1375 C 0.88437 0.25598 0.10629
 C1376 C 0.88342 0.24019 0.12528
 C1377 C 0.86349 0.24073 0.14390
 C1378 C 0.86882 0.23357 0.16816
 C1379 C 0.85051 0.23410 0.18628
 C1380 C 0.82632 0.24135 0.18036
 C1381 C 0.82083 0.24792 0.15589
 C1382 C 0.83924 0.24770 0.13784
 H1383 H 0.93538 0.29676 0.05145
 H1384 H 0.90183 0.29533 0.08158
 H1385 H 0.91226 0.21679 0.08939
 H1386 H 0.94572 0.21817 0.05937
 H1387 H 0.87059 0.27037 0.10477
 H1388 H 0.89856 0.22751 0.12831
 H1389 H 0.88731 0.22788 0.17319
 H1390 H 0.85527 0.22866 0.20490
 H1391 H 0.80234 0.25345 0.15071
 H1392 H 0.83436 0.25264 0.11913
 C1393 C 0.44619 0.72586 0.56344
 C1394 C 0.42934 0.72530 0.58297
 C1395 C 0.41750 0.74695 0.59074
 C1396 C 0.42330 0.76935 0.57902
 C1397 C 0.44032 0.76995 0.55967
 C1398 C 0.45186 0.74820 0.55158
 C1399 C 0.39965 0.74568 0.61139
 C1400 C 0.38027 0.76092 0.61316
 C1401 C 0.36174 0.75930 0.63314
 C1402 C 0.33752 0.76693 0.62823
 C1403 C 0.31949 0.76591 0.64658
 C1404 C 0.32540 0.75769 0.67045
 C1405 C 0.34978 0.75042 0.67552
 C1406 C 0.36778 0.75113 0.65702
 H1407 H 0.45493 0.70881 0.55779
 H1408 H 0.42534 0.70787 0.59185
 H1409 H 0.41507 0.78651 0.58502
 H1410 H 0.44443 0.78749 0.55104
 H1411 H 0.40170 0.73078 0.62452
 H1412 H 0.37685 0.77414 0.59859
 H1413 H 0.33248 0.77349 0.61005
 H1414 H 0.30093 0.77182 0.64211
 H1415 H 0.35491 0.74403 0.69373
 H1416 H 0.38644 0.74571 0.66158
 C1417 C 0.22618 0.05568 0.93461
 C1418 C 0.22371 0.07352 0.91620
 C1419 C 0.24378 0.08845 0.90963
 C1420 C 0.26662 0.08481 0.92139
 C1421 C 0.26918 0.06677 0.93961
 C1422 C 0.24895 0.05211 0.94649
 C1423 C 0.24056 0.10692 0.88985
 C1424 C 0.25333 0.12806 0.88909
 C1425 C 0.25036 0.14641 0.86914
 C1426 C 0.25519 0.17132 0.87417
 C1427 C 0.25335 0.18903 0.85555
 C1428 C 0.24708 0.18208 0.83137
 C1429 C 0.24231 0.15709 0.82633
 C1430 C 0.24392 0.13944 0.84500
 H1431 H 0.21030 0.04454 0.93938
 H1432 H 0.20602 0.07582 0.90720
 H1433 H 0.28266 0.09553 0.91624
 H1434 H 0.28698 0.06436 0.94836
 H1435 H 0.22636 0.10345 0.87623
 H1436 H 0.26566 0.13268 0.90412
 H1437 H 0.26039 0.17708 0.89258
 H1438 H 0.25730 0.20809 0.86000
 H1439 H 0.23748 0.15111 0.80788
 H1440 H 0.24075 0.12031 0.84030
 C1441 C 0.78072 0.56345 0.44010
 C1442 C 0.78102 0.58204 0.42224
 C1443 C 0.75929 0.58875 0.40988
 C1444 C 0.73711 0.57677 0.41598
 C1445 C 0.73677 0.55834 0.43393
 C1446 C 0.75855 0.55148 0.44620
 C1447 C 0.76012 0.60893 0.39156
 C1448 C 0.74442 0.61034 0.37251
 C1449 C 0.74507 0.63058 0.35427
 C1450 C 0.73708 0.62591 0.33013
 C1451 C 0.73735 0.64460 0.31243
 C1452 C 0.74521 0.66851 0.31866
 C1453 C 0.75266 0.67334 0.34302
 C1454 C 0.75265 0.65455 0.36065
 H1455 H 0.79777 0.55871 0.44937
 H1456 H 0.79828 0.59118 0.41802
 H1457 H 0.71986 0.58198 0.40738
 H1458 H 0.71935 0.54959 0.43833
 H1459 H 0.77481 0.62236 0.39326
 H1460 H 0.73139 0.59554 0.36932
 H1461 H 0.73087 0.60765 0.32488
 H1462 H 0.73124 0.64034 0.29389
 H1463 H 0.75868 0.69160 0.34844
 H1464 H 0.75819 0.65896 0.37931
 C1465 C 0.78041 0.06435 0.05688
 C1466 C 0.78064 0.08312 0.07450
 C1467 C 0.75881 0.09037 0.08627
 C1468 C 0.73651 0.07888 0.07966
 C1469 C 0.73617 0.06031 0.06172
 C1470 C 0.75816 0.05268 0.05015
 C1471 C 0.75989 0.11045 0.10474
 C1472 C 0.74474 0.11161 0.12422
 C1473 C 0.74662 0.13117 0.14319
 C1474 C 0.73993 0.12571 0.16756
 C1475 C 0.74140 0.14376 0.18591
 C1476 C 0.74913 0.16783 0.18014
 C1477 C 0.75550 0.17339 0.15563
 C1478 C 0.75433 0.15524 0.13734
 H1479 H 0.79775 0.05919 0.04839
 H1480 H 0.79801 0.09185 0.07916
 H1481 H 0.71925 0.08452 0.08796
 H1482 H 0.71865 0.05194 0.05701
 H1483 H 0.77475 0.12370 0.10305
 H1484 H 0.73156 0.09691 0.12732
 H1485 H 0.73376 0.10735 0.17246
 H1486 H 0.73615 0.13893 0.20456
 H1487 H 0.76144 0.19177 0.15056
 H1488 H 0.75900 0.16024 0.11859
 C1489 C 0.22836 0.55773 0.56190
 C1490 C 0.22660 0.57560 0.58038
 C1491 C 0.24728 0.58958 0.58718
 C1492 C 0.26999 0.58501 0.57546
 C1493 C 0.27182 0.56693 0.55717
 C1494 C 0.25101 0.55315 0.55014
 C1495 C 0.24481 0.60796 0.60721
 C1496 C 0.25868 0.62838 0.60857
 C1497 C 0.25616 0.64663 0.62872
 C1498 C 0.26187 0.67143 0.62406
 C1499 C 0.26005 0.68905 0.64280
 C1500 C 0.25289 0.68211 0.66674
 C1501 C 0.24750 0.65719 0.67147
 C1502 C 0.24908 0.63964 0.65267
 H1503 H 0.21204 0.54730 0.55702
 H1504 H 0.20898 0.57862 0.58932
 H1505 H 0.28646 0.59496 0.58075
 H1506 H 0.28955 0.56375 0.54853
 H1507 H 0.23022 0.60508 0.62056
 H1508 H 0.27150 0.63259 0.59384
 H1509 H 0.26763 0.67720 0.60582
 H1510 H 0.26458 0.70804 0.63860
 H1511 H 0.24208 0.65121 0.68973
 H1512 H 0.24526 0.62056 0.65709
 C1513 C 0.78101 0.94610 0.93465
 C1514 C 0.78133 0.92912 0.91527
 C1515 C 0.76003 0.91585 0.90904
 C1516 C 0.73815 0.92022 0.92232
 C1517 C 0.73775 0.93741 0.94156
 C1518 C 0.75919 0.95050 0.94797
 C1519 C 0.76108 0.89825 0.88816
 C1520 C 0.74684 0.87808 0.88688
 C1521 C 0.74840 0.86002 0.86644
 C1522 C 0.74232 0.83535 0.87116
 C1523 C 0.74326 0.81778 0.85235
 C1524 C 0.74987 0.82460 0.82821
 C1525 C 0.75568 0.84941 0.82339
 C1526 C 0.75502 0.86695 0.84232
 H1527 H 0.79779 0.95603 0.93898
 H1528 H 0.79835 0.92623 0.90519
 H1529 H 0.72119 0.91082 0.91756
 H1530 H 0.72061 0.94052 0.95134
 H1531 H 0.77508 0.90129 0.87424
 H1532 H 0.73463 0.87371 0.90207
 H1533 H 0.73698 0.82960 0.88954
 H1534 H 0.73848 0.79888 0.85669
 H1535 H 0.76077 0.85528 0.80499
 H1536 H 0.75919 0.88595 0.83789
 C1537 C 0.28334 0.44522 0.43552
 C1538 C 0.28468 0.42731 0.41700
 C1539 C 0.26367 0.41381 0.41019
 C1540 C 0.24108 0.41898 0.42186
 C1541 C 0.23967 0.43705 0.44017
 C1542 C 0.26079 0.45031 0.44728
 C1543 C 0.26560 0.39517 0.39030
 C1544 C 0.25132 0.37499 0.38957
 C1545 C 0.25266 0.35633 0.36967
 C1546 C 0.24553 0.33203 0.37489
 C1547 C 0.24551 0.31409 0.35640
 C1548 C 0.25219 0.32018 0.33210
 C1549 C 0.25928 0.34457 0.32683
 C1550 C 0.25957 0.36246 0.34542
 H1551 H 0.29989 0.45525 0.44046
 H1552 H 0.30223 0.42383 0.40809
 H1553 H 0.22435 0.40946 0.41655
 H1554 H 0.22199 0.44063 0.44877
 H1555 H 0.27994 0.39764 0.37662
 H1556 H 0.23877 0.37133 0.40468
 H1557 H 0.23993 0.32690 0.39338
 H1558 H 0.23982 0.29552 0.36108
 H1559 H 0.26451 0.34988 0.30830
 H1560 H 0.26455 0.38117 0.34059
 C1561 C 0.28432 0.94639 0.06222
 C1562 C 0.28594 0.92885 0.08107
 C1563 C 0.26501 0.91556 0.08850
 C1564 C 0.24223 0.92059 0.07716
 C1565 C 0.24055 0.93823 0.05851
 C1566 C 0.26158 0.95126 0.05074
 C1567 C 0.26723 0.89715 0.10853
 C1568 C 0.25287 0.87705 0.10965
 C1569 C 0.25463 0.85843 0.12950
 C1570 C 0.24747 0.83412 0.12437
 C1571 C 0.24812 0.81613 0.14275
 C1572 C 0.25554 0.82216 0.16686
 C1573 C 0.26246 0.84660 0.17210
 C1574 C 0.26209 0.86456 0.15359
 H1575 H 0.30081 0.95626 0.05678
 H1576 H 0.30364 0.92546 0.08972
 H1577 H 0.22556 0.91126 0.08297
 H1578 H 0.22272 0.94168 0.05017
 H1579 H 0.28185 0.89965 0.12191
 H1580 H 0.24003 0.87334 0.09480
 H1581 H 0.24140 0.82902 0.10602
 H1582 H 0.24242 0.79754 0.13814
 H1583 H 0.26814 0.85185 0.19052
 H1584 H 0.26707 0.88329 0.15835
 C1585 C 0.73024 0.45000 0.56619
 C1586 C 0.72861 0.43334 0.58575
 C1587 C 0.74917 0.41934 0.59280
 C1588 C 0.77168 0.42280 0.58033
 C1589 C 0.77340 0.43973 0.56094
 C1590 C 0.75263 0.45337 0.55356
 C1591 C 0.74661 0.40181 0.61355
 C1592 C 0.75950 0.38079 0.61493
 C1593 C 0.75620 0.36269 0.63509
 C1594 C 0.76079 0.33771 0.63029
 C1595 C 0.75829 0.32011 0.64892
 C1596 C 0.75155 0.32720 0.67295
 C1597 C 0.74709 0.35227 0.67781
 C1598 C 0.74935 0.36985 0.65908
 H1599 H 0.71396 0.46040 0.56110
 H1600 H 0.71115 0.43116 0.59522
 H1601 H 0.78806 0.41277 0.58577
 H1602 H 0.79093 0.44205 0.55165
 H1603 H 0.73244 0.40559 0.62711
 H1604 H 0.77181 0.37582 0.60000
 H1605 H 0.76625 0.33177 0.61200
 H1606 H 0.76205 0.30099 0.64456
 H1607 H 0.74197 0.35836 0.69614
 H1608 H 0.74629 0.38904 0.66359
 C1609 C 0.05447 0.06646 0.72952
 C1610 C 0.07101 0.08620 0.72927
 C1611 C 0.08274 0.09382 0.75102
 C1612 C 0.07740 0.08143 0.77320
 C1613 C 0.06066 0.06179 0.77349
 C1614 C 0.04899 0.05413 0.75165
 C1615 C 0.09971 0.11519 0.74995
 C1616 C 0.11872 0.11812 0.76546
 C1617 C 0.13644 0.13876 0.76326
 C1618 C 0.16099 0.13491 0.77037
 C1619 C 0.17838 0.15375 0.76808
 C1620 C 0.17148 0.17706 0.75903
 C1621 C 0.14671 0.18116 0.75256
 C1622 C 0.12935 0.16217 0.75457
 H1623 H 0.04565 0.06117 0.71240
 H1624 H 0.07469 0.09554 0.71200
 H1625 H 0.08561 0.08723 0.79044
 H1626 H 0.05666 0.05280 0.79087
 H1627 H 0.09736 0.12802 0.73482
 H1628 H 0.12266 0.10400 0.77902
 H1629 H 0.16682 0.11712 0.77737
 H1630 H 0.19724 0.15008 0.77356
 H1631 H 0.14079 0.19897 0.74574
 H1632 H 0.11038 0.16594 0.74961
 C1633 C 0.56567 0.54902 0.27982
 C1634 C 0.58414 0.56703 0.28034
 C1635 C 0.59003 0.58048 0.25903
 C1636 C 0.57749 0.57513 0.23696
 C1637 C 0.55924 0.55691 0.23636
 C1638 C 0.55304 0.54373 0.25781
 C1639 C 0.60999 0.59913 0.26013
 C1640 C 0.61047 0.61921 0.24568
 C1641 C 0.63065 0.63764 0.24644
 C1642 C 0.62560 0.66215 0.23984
 C1643 C 0.64437 0.67986 0.23968
 C1644 C 0.66874 0.67329 0.24565
 C1645 C 0.67382 0.64867 0.25205
 C1646 C 0.65500 0.63105 0.25248
 H1647 H 0.56142 0.53909 0.29662
 H1648 H 0.59373 0.57063 0.29750
 H1649 H 0.58206 0.58463 0.22001
 H1650 H 0.54991 0.55322 0.21908
 H1651 H 0.62408 0.59672 0.27408
 H1652 H 0.59505 0.62292 0.23353
 H1653 H 0.60703 0.66763 0.23488
 H1654 H 0.63986 0.69863 0.23453
 H1655 H 0.69238 0.64297 0.25675
 H1656 H 0.65971 0.61219 0.25700
 C1657 C 0.05743 0.92815 0.27536
 C1658 C 0.07548 0.90980 0.27494
 C1659 C 0.08941 0.90550 0.25358
 C1660 C 0.08466 0.91973 0.23240
 C1661 C 0.06637 0.93794 0.23273
 C1662 C 0.05258 0.94237 0.25424
 C1663 C 0.10780 0.88531 0.25380
 C1664 C 0.12801 0.88504 0.23953
 C1665 C 0.14623 0.86469 0.24033
 C1666 C 0.17109 0.86968 0.23513
 C1667 C 0.18870 0.85082 0.23589
 C1668 C 0.18169 0.82648 0.24147
 C1669 C 0.15668 0.82144 0.24616
 C1670 C 0.13915 0.84030 0.24561
 H1671 H 0.04703 0.93098 0.29218
 H1672 H 0.07864 0.89894 0.29141
 H1673 H 0.09460 0.91646 0.21540
 H1674 H 0.06298 0.94852 0.21613
 H1675 H 0.10513 0.87075 0.26721
 H1676 H 0.13212 0.90076 0.22792
 H1677 H 0.17694 0.88827 0.23075
 H1678 H 0.20777 0.85530 0.23193
 H1679 H 0.15059 0.80288 0.25033
 H1680 H 0.12002 0.83564 0.24894
 C1681 C 0.56422 0.44869 0.71551
 C1682 C 0.58395 0.43203 0.71495
 C1683 C 0.59153 0.41983 0.73649
 C1684 C 0.57933 0.42509 0.75878
 C1685 C 0.55977 0.44189 0.75939
 C1686 C 0.55192 0.45383 0.73776
 C1687 C 0.61253 0.40229 0.73529
 C1688 C 0.61449 0.38281 0.75041
 C1689 C 0.63489 0.36463 0.74921
 C1690 C 0.63039 0.34051 0.75735
 C1691 C 0.64913 0.32285 0.75715
 C1692 C 0.67306 0.32901 0.74923
 C1693 C 0.67772 0.35327 0.74132
 C1694 C 0.65880 0.37091 0.74121
 H1695 H 0.55876 0.45773 0.69856
 H1696 H 0.59318 0.42848 0.69759
 H1697 H 0.58513 0.41662 0.77590
 H1698 H 0.55084 0.44556 0.77687
 H1699 H 0.62588 0.40474 0.72063
 H1700 H 0.59977 0.37907 0.76339
 H1701 H 0.61221 0.33525 0.76380
 H1702 H 0.64492 0.30441 0.76355
 H1703 H 0.69595 0.35860 0.73514
 H1704 H 0.66307 0.38950 0.73538
 C1705 C 0.93261 0.04548 0.27989
 C1706 C 0.91286 0.06203 0.28053
 C1707 C 0.90613 0.07531 0.25939
 C1708 C 0.91921 0.07129 0.23733
 C1709 C 0.93884 0.05458 0.23663
 C1710 C 0.94582 0.04157 0.25793
 C1711 C 0.88517 0.09277 0.26084
 C1712 C 0.88368 0.11303 0.24677
 C1713 C 0.86352 0.13130 0.24904
 C1714 C 0.86847 0.15595 0.24307
 C1715 C 0.85005 0.17383 0.24497
 C1716 C 0.82607 0.16736 0.25249
 C1717 C 0.82094 0.14256 0.25800
 C1718 C 0.83951 0.12469 0.25637
 H1719 H 0.93738 0.03559 0.29657
 H1720 H 0.90294 0.06465 0.29768
 H1721 H 0.91407 0.08067 0.22048
 H1722 H 0.94851 0.05182 0.21937
 H1723 H 0.87153 0.08967 0.27510
 H1724 H 0.89865 0.11742 0.23430
 H1725 H 0.88675 0.16146 0.23714
 H1726 H 0.85457 0.19271 0.24029
 H1727 H 0.80261 0.13697 0.26367
 H1728 H 0.83490 0.10570 0.26045
 C1729 C 0.43136 0.55611 0.76569
 C1730 C 0.41204 0.57314 0.76682
 C1731 C 0.40516 0.58665 0.74587
 C1732 C 0.41760 0.58236 0.72351
 C1733 C 0.43676 0.56511 0.72230
 C1734 C 0.44393 0.55190 0.74341
 C1735 C 0.38456 0.60450 0.74782
 C1736 C 0.38318 0.62495 0.73400
 C1737 C 0.36313 0.64332 0.73660
 C1738 C 0.36812 0.66810 0.73115
 C1739 C 0.34969 0.68597 0.73332
 C1740 C 0.32567 0.67935 0.74056
 C1741 C 0.32053 0.65444 0.74557
 C1742 C 0.33908 0.63660 0.74369
 H1743 H 0.43631 0.54609 0.78224
 H1744 H 0.40258 0.57596 0.78420
 H1745 H 0.41231 0.59195 0.70683
 H1746 H 0.44598 0.56217 0.70483
 H1747 H 0.37102 0.60143 0.76219
 H1748 H 0.39808 0.62930 0.72142
 H1749 H 0.38644 0.67368 0.72541
 H1750 H 0.35420 0.70495 0.72904
 H1751 H 0.30217 0.64873 0.75103
 H1752 H 0.33442 0.61754 0.74735
 C1753 C 0.92953 0.95018 0.72994
 C1754 C 0.91030 0.93307 0.72942
 C1755 C 0.90439 0.91930 0.75049
 C1756 C 0.91767 0.92347 0.77240
 C1757 C 0.93674 0.94085 0.77301
 C1758 C 0.94298 0.95425 0.75172
 C1759 C 0.88394 0.90129 0.74907
 C1760 C 0.88331 0.88057 0.76251
 C1761 C 0.86340 0.86204 0.76002
 C1762 C 0.86881 0.83715 0.76445
 C1763 C 0.85051 0.81915 0.76206
 C1764 C 0.82626 0.82576 0.75560
 C1765 C 0.82075 0.85079 0.75165
 C1766 C 0.83912 0.86874 0.75380
 H1767 H 0.93376 0.96036 0.71328
 H1768 H 0.90018 0.93034 0.71240
 H1769 H 0.91313 0.91363 0.78916
 H1770 H 0.94670 0.94369 0.79010
 H1771 H 0.86990 0.90444 0.73521
 H1772 H 0.89866 0.87614 0.77451
 H1773 H 0.88732 0.83158 0.76950
 H1774 H 0.85531 0.80008 0.76553
 H1775 H 0.80223 0.85653 0.74685
 H1776 H 0.83415 0.88786 0.75097
 C1777 C 0.43415 0.43937 0.23130
 C1778 C 0.41513 0.42199 0.23032
 C1779 C 0.40853 0.40850 0.25137
 C1780 C 0.42098 0.41311 0.27367
 C1781 C 0.43980 0.43075 0.27474
 C1782 C 0.44666 0.44398 0.25353
 C1783 C 0.38799 0.39057 0.24963
 C1784 C 0.38653 0.37025 0.26365
 C1785 C 0.36603 0.35230 0.26152
 C1786 C 0.37042 0.32739 0.26699
 C1787 C 0.35140 0.31003 0.26530
 C1788 C 0.32744 0.31733 0.25854
 C1789 C 0.32298 0.34237 0.25346
 C1790 C 0.34205 0.35965 0.25488
 H1791 H 0.43888 0.44938 0.21468
 H1792 H 0.40565 0.41894 0.21299
 H1793 H 0.41589 0.40352 0.29041
 H1794 H 0.44904 0.43396 0.29216
 H1795 H 0.37437 0.39360 0.23533
 H1796 H 0.40145 0.36585 0.27618
 H1797 H 0.38867 0.32133 0.27240
 H1798 H 0.35540 0.29094 0.26959
 H1799 H 0.30472 0.34866 0.24835
 H1800 H 0.33783 0.37882 0.25125
   
