data_POSCAR
  _audit_creation_date              2014-09-24
  _audit_creation_method            'ToBaCCo'
  _symmetry_space_group_name_H-M    'P1'
  _symmetry_Int_Tables_number       1
  _symmetry_cell_setting            triclinic
  loop_
  _symmetry_equiv_pos_as_xyz
 x,y,z
_cell_length_a 59.3763
_cell_length_b 59.6389
_cell_length_c 59.9288
_cell_angle_alpha 89.942000
_cell_angle_beta 89.944200
_cell_angle_gamma 89.902900
loop_
  _atom_site_label
  _atom_site_type_symbol
  _atom_site_fract_x
  _atom_site_fract_y
  _atom_site_fract_z
N1 N 0.37944 0.31796 0.33376
 N2 N 0.37797 0.33241 0.31722
 C3 C 0.39531 0.32911 0.30309
 C4 C 0.40822 0.31174 0.31131
 C5 C 0.39773 0.30493 0.33070
 H6 H 0.39785 0.33803 0.28757
 H7 H 0.40245 0.29092 0.34118
 Cu8 Cu 0.35264 0.35296 0.31456
 Cu9 Cu 0.35603 0.31551 0.35635
 Cu10 Cu 0.31507 0.35676 0.35635
 N11 N 0.33227 0.37840 0.31719
 N12 N 0.31777 0.38003 0.33373
 C13 C 0.30487 0.39836 0.33065
 C14 C 0.31180 0.40870 0.31124
 C15 C 0.32912 0.39567 0.30304
 H16 H 0.29083 0.40320 0.34111
 H17 H 0.33808 0.39807 0.28749
 N18 N 0.31768 0.33415 0.38024
 N19 N 0.33334 0.31838 0.38024
 C20 C 0.32994 0.30471 0.39784
 C21 C 0.31136 0.31234 0.40934
 C22 C 0.30392 0.33093 0.39784
 H23 H 0.33965 0.28980 0.40153
 H24 H 0.28906 0.34076 0.40152
 H25 H 0.32942 0.33010 0.33984
 H26 H 0.34897 0.34934 0.35475
 N27 N 0.38036 0.81834 -0.16695
 N28 N 0.37876 0.83281 -0.18347
 C29 C 0.39607 0.82963 -0.19767
 C30 C 0.40909 0.81234 -0.18947
 C31 C 0.39871 0.80541 -0.17007
 H32 H 0.39847 0.83857 -0.21320
 H33 H 0.40351 0.79138 -0.15964
 Cu34 Cu 0.35329 0.85322 -0.18598
 Cu35 Cu 0.35702 0.81568 -0.14432
 Cu36 Cu 0.31572 0.85659 -0.14414
 N37 N 0.33277 0.87854 -0.18320
 N38 N 0.31827 0.87999 -0.16664
 C39 C 0.30526 0.89827 -0.16960
 C40 C 0.31216 0.90876 -0.18894
 C41 C 0.32953 0.89587 -0.19726
 H42 H 0.29119 0.90295 -0.15910
 H43 H 0.33846 0.89839 -0.21281
 N44 N 0.31854 0.83391 -0.12033
 N45 N 0.33435 0.81828 -0.12039
 C46 C 0.33111 0.80453 -0.10283
 C47 C 0.31247 0.81196 -0.09128
 C48 C 0.30483 0.83051 -0.10272
 H49 H 0.34096 0.78971 -0.09919
 H50 H 0.28989 0.84020 -0.09898
 H51 H 0.33026 0.83011 -0.16075
 H52 H 0.34966 0.84947 -0.14581
 N53 N 0.87954 0.31862 -0.16659
 N54 N 0.87806 0.33309 -0.18312
 C55 C 0.89542 0.32983 -0.19724
 C56 C 0.90834 0.31247 -0.18903
 C57 C 0.89785 0.30562 -0.16966
 H58 H 0.89794 0.33876 -0.21275
 H59 H 0.90257 0.29160 -0.15920
 Cu60 Cu 0.85270 0.35361 -0.18575
 Cu61 Cu 0.85611 0.31609 -0.14403
 Cu62 Cu 0.81506 0.35724 -0.14400
 N63 N 0.83227 0.37901 -0.18309
 N64 N 0.81775 0.38057 -0.16655
 C65 C 0.80480 0.39888 -0.16960
 C66 C 0.81176 0.40927 -0.18897
 C67 C 0.82910 0.39630 -0.19722
 H68 H 0.79071 0.40363 -0.15915
 H69 H 0.83806 0.39873 -0.21276
 N70 N 0.81769 0.33459 -0.12015
 N71 N 0.83339 0.31885 -0.12016
 C72 C 0.83001 0.30515 -0.10259
 C73 C 0.81140 0.31271 -0.09109
 C74 C 0.80392 0.33130 -0.10257
 H75 H 0.83975 0.29026 -0.09891
 H76 H 0.78903 0.34110 -0.09888
 H77 H 0.82949 0.33065 -0.16055
 H78 H 0.84897 0.34990 -0.14558
 N79 N 0.87916 0.81856 0.33388
 N80 N 0.87774 0.83303 0.31736
 C81 C 0.89508 0.82972 0.30324
 C82 C 0.90794 0.81231 0.31144
 C83 C 0.89743 0.80550 0.33082
 H84 H 0.89764 0.83865 0.28773
 H85 H 0.90211 0.79146 0.34128
 Cu86 Cu 0.85245 0.85365 0.31472
 Cu87 Cu 0.85573 0.81612 0.35646
 Cu88 Cu 0.81486 0.85746 0.35649
 N89 N 0.83215 0.87914 0.31739
 N90 N 0.81764 0.88077 0.33393
 C91 C 0.80477 0.89913 0.33087
 C92 C 0.81177 0.90948 0.31149
 C93 C 0.82906 0.89643 0.30325
 H94 H 0.79070 0.90394 0.34131
 H95 H 0.83802 0.89880 0.28770
 N96 N 0.81740 0.83480 0.38034
 N97 N 0.83304 0.81899 0.38033
 C98 C 0.82961 0.80531 0.39791
 C99 C 0.81103 0.81296 0.40941
 C100 C 0.80362 0.83157 0.39793
 H101 H 0.83929 0.79038 0.40158
 H102 H 0.78878 0.84143 0.40163
 H103 H 0.82916 0.83079 0.33995
 H104 H 0.84874 0.84997 0.35490
 N105 N 0.62041 0.68179 0.33431
 N106 N 0.62190 0.66734 0.31779
 C107 C 0.60457 0.67063 0.30368
 C108 C 0.59165 0.68800 0.31188
 C109 C 0.60212 0.69481 0.33124
 H110 H 0.60207 0.66173 0.28816
 H111 H 0.59740 0.70883 0.34169
 Cu112 Cu 0.64725 0.64682 0.31513
 Cu113 Cu 0.64381 0.68426 0.35686
 Cu114 Cu 0.68483 0.64307 0.35685
 N115 N 0.66764 0.62140 0.31778
 N116 N 0.68214 0.61979 0.33429
 C117 C 0.69507 0.60147 0.33121
 C118 C 0.68814 0.59113 0.31184
 C119 C 0.67080 0.60414 0.30365
 H120 H 0.70913 0.59666 0.34164
 H121 H 0.66184 0.60173 0.28813
 N122 N 0.68219 0.66567 0.38070
 N123 N 0.66650 0.68142 0.38070
 C124 C 0.66989 0.69510 0.39826
 C125 C 0.68849 0.68750 0.40973
 C126 C 0.69596 0.66892 0.39826
 H127 H 0.66016 0.70999 0.40193
 H128 H 0.71084 0.65912 0.40192
 H129 H 0.67045 0.66971 0.34032
 H130 H 0.65093 0.65044 0.35530
 N131 N 0.62055 0.18160 -0.16622
 N132 N 0.62202 0.16711 -0.18271
 C133 C 0.60467 0.17036 -0.19681
 C134 C 0.59176 0.18774 -0.18863
 C135 C 0.60225 0.19460 -0.16930
 H136 H 0.60214 0.16141 -0.21229
 H137 H 0.59753 0.20865 -0.15887
 Cu138 Cu 0.64737 0.14657 -0.18533
 Cu139 Cu 0.64397 0.18412 -0.14370
 Cu140 Cu 0.68495 0.14289 -0.14362
 N141 N 0.66774 0.12114 -0.18264
 N142 N 0.68224 0.11956 -0.16611
 C143 C 0.69517 0.10123 -0.16915
 C144 C 0.68820 0.09085 -0.18849
 C145 C 0.67089 0.10385 -0.19674
 H146 H 0.70924 0.09646 -0.15871
 H147 H 0.66194 0.10145 -0.21227
 N148 N 0.68234 0.16555 -0.11982
 N149 N 0.66667 0.18133 -0.11985
 C150 C 0.67006 0.19503 -0.10232
 C151 C 0.68865 0.18743 -0.09083
 C152 C 0.69610 0.16882 -0.10226
 H153 H 0.66035 0.20994 -0.09867
 H154 H 0.71096 0.15900 -0.09857
 H155 H 0.67059 0.16951 -0.16021
 H156 H 0.65105 0.15029 -0.14517
 N157 N 0.11995 0.68194 -0.16634
 N158 N 0.12154 0.66746 -0.18281
 C159 C 0.10423 0.67063 -0.19697
 C160 C 0.09121 0.68795 -0.18884
 C161 C 0.10159 0.69486 -0.16947
 H162 H 0.10180 0.66168 -0.21247
 H163 H 0.09679 0.70889 -0.15907
 Cu164 Cu 0.14701 0.64706 -0.18535
 Cu165 Cu 0.14331 0.68463 -0.14378
 Cu166 Cu 0.18465 0.64376 -0.14363
 N167 N 0.16757 0.62178 -0.18257
 N168 N 0.18209 0.62035 -0.16607
 C169 C 0.19512 0.60209 -0.16905
 C170 C 0.18823 0.59159 -0.18836
 C171 C 0.17081 0.60445 -0.19660
 H172 H 0.20921 0.59741 -0.15860
 H173 H 0.16185 0.60190 -0.21209
 N174 N 0.18183 0.66645 -0.11987
 N175 N 0.16601 0.68206 -0.11992
 C176 C 0.16926 0.69582 -0.10240
 C177 C 0.18792 0.68843 -0.09090
 C178 C 0.19557 0.66988 -0.10231
 H179 H 0.15940 0.71064 -0.09878
 H180 H 0.21053 0.66021 -0.09860
 H181 H 0.17005 0.67022 -0.16027
 H182 H 0.15070 0.65084 -0.14520
 N183 N 0.12056 0.18194 0.33397
 N184 N 0.12205 0.16751 0.31743
 C185 C 0.10474 0.17084 0.30330
 C186 C 0.09184 0.18821 0.31151
 C187 C 0.10228 0.19498 0.33089
 H188 H 0.10223 0.16195 0.28778
 H189 H 0.09755 0.20898 0.34137
 Cu190 Cu 0.14736 0.14693 0.31479
 Cu191 Cu 0.14392 0.18431 0.35658
 Cu192 Cu 0.18480 0.14298 0.35661
 N193 N 0.16768 0.12146 0.31744
 N194 N 0.18212 0.11977 0.33400
 C195 C 0.19501 0.10143 0.33091
 C196 C 0.18812 0.09115 0.31149
 C197 C 0.17085 0.10422 0.30328
 H198 H 0.20902 0.09655 0.34138
 H199 H 0.16193 0.10188 0.28772
 N200 N 0.18216 0.16555 0.38050
 N201 N 0.16653 0.18136 0.38048
 C202 C 0.16992 0.19500 0.39807
 C203 C 0.18846 0.18732 0.40958
 C204 C 0.19589 0.16873 0.39810
 H205 H 0.16025 0.20993 0.40173
 H206 H 0.21073 0.15886 0.40179
 H207 H 0.17055 0.16971 0.34009
 H208 H 0.15091 0.15048 0.35498
 N209 N 0.62024 0.31815 0.66621
 N210 N 0.62171 0.33253 0.68277
 C211 C 0.60438 0.32923 0.69690
 C212 C 0.59148 0.31192 0.68866
 C213 C 0.60196 0.30516 0.66926
 H214 H 0.60186 0.33809 0.71245
 H215 H 0.59726 0.29118 0.65877
 Cu216 Cu 0.64703 0.35301 0.68544
 Cu217 Cu 0.64365 0.31569 0.64361
 Cu218 Cu 0.68460 0.35680 0.64366
 N219 N 0.66743 0.37837 0.68284
 N220 N 0.68191 0.38000 0.66629
 C221 C 0.69483 0.39826 0.66940
 C222 C 0.68792 0.40856 0.68883
 C223 C 0.67060 0.39557 0.69702
 H224 H 0.70887 0.40308 0.65894
 H225 H 0.66165 0.39795 0.71258
 N226 N 0.68199 0.33427 0.61974
 N227 N 0.66633 0.31855 0.61972
 C228 C 0.66974 0.30492 0.60212
 C229 C 0.68833 0.31252 0.59064
 C230 C 0.69577 0.33105 0.60215
 H231 H 0.66005 0.29004 0.59843
 H232 H 0.71063 0.34084 0.59849
 H233 H 0.67025 0.33014 0.66015
 H234 H 0.65070 0.34949 0.64526
 N235 N 0.62059 0.81828 1.16653
 N236 N 0.62212 0.83266 1.18309
 C237 C 0.60481 0.82938 1.19726
 C238 C 0.59188 0.81209 1.18904
 C239 C 0.60230 0.80532 1.16961
 H240 H 0.60233 0.83825 1.21280
 H241 H 0.59754 0.79136 1.15913
 Cu242 Cu 0.64746 0.85310 1.18570
 Cu243 Cu 0.64394 0.81581 1.14386
 Cu244 Cu 0.68491 0.85690 1.14380
 N245 N 0.66784 0.87847 1.18304
 N246 N 0.68228 0.88010 1.16645
 C247 C 0.69520 0.89838 1.16952
 C248 C 0.68834 0.90868 1.18896
 C249 C 0.67105 0.89568 1.19721
 H250 H 0.70920 0.90320 1.15901
 H251 H 0.66214 0.89806 1.21278
 N252 N 0.68222 0.83438 1.11989
 N253 N 0.66655 0.81866 1.11992
 C254 C 0.66990 0.80503 1.10230
 C255 C 0.68846 0.81263 1.09077
 C256 C 0.69594 0.83116 1.10226
 H257 H 0.66020 0.79016 1.09864
 H258 H 0.71080 0.84094 1.09856
 H259 H 0.67060 0.83024 1.16032
 H260 H 0.65101 0.84961 1.14550
 N261 N 0.12039 0.31842 1.16606
 N262 N 0.12181 0.33291 1.18254
 C263 C 0.10449 0.32964 1.19669
 C264 C 0.09165 0.31224 1.18854
 C265 C 0.10216 0.30539 1.16918
 H266 H 0.10192 0.33858 1.21217
 H267 H 0.09750 0.29135 1.15877
 Cu268 Cu 0.14706 0.35349 1.18510
 Cu269 Cu 0.14381 0.31592 1.14348
 Cu270 Cu 0.18462 0.35716 1.14329
 N271 N 0.16739 0.37889 1.18236
 N272 N 0.18187 0.38047 1.16580
 C273 C 0.19476 0.39877 1.16883
 C274 C 0.18784 0.40915 1.18821
 C275 C 0.17054 0.39617 1.19647
 H276 H 0.20880 0.40355 1.15835
 H277 H 0.16161 0.39859 1.21202
 N278 N 0.18208 0.33449 1.11950
 N279 N 0.16648 0.31872 1.11957
 C280 C 0.16992 0.30500 1.10204
 C281 C 0.18848 0.31261 1.09050
 C282 C 0.19586 0.33123 1.10191
 H283 H 0.16027 0.29008 1.09842
 H284 H 0.21068 0.34105 1.09818
 H285 H 0.17036 0.33055 1.15994
 H286 H 0.15075 0.34975 1.14493
 N287 N 0.12010 0.81826 0.66611
 N288 N 0.12160 0.83261 0.68270
 C289 C 0.10424 0.82935 0.69680
 C290 C 0.09128 0.81211 0.68851
 C291 C 0.10176 0.80534 0.66911
 H292 H 0.10173 0.83818 0.71237
 H293 H 0.09702 0.79141 0.65859
 Cu294 Cu 0.14701 0.85297 0.68546
 Cu295 Cu 0.14353 0.81576 0.64354
 Cu296 Cu 0.18468 0.85668 0.64375
 N297 N 0.16752 0.87824 0.68295
 N298 N 0.18204 0.87984 0.66643
 C299 C 0.19503 0.89805 0.66958
 C300 C 0.18812 0.90835 0.68901
 C301 C 0.17073 0.89542 0.69716
 H302 H 0.20910 0.90283 0.65915
 H303 H 0.16176 0.89782 0.71269
 N304 N 0.18200 0.83421 0.61978
 N305 N 0.16627 0.81856 0.61970
 C306 C 0.16965 0.80495 0.60208
 C307 C 0.18829 0.81249 0.59064
 C308 C 0.19579 0.83097 0.60221
 H309 H 0.15990 0.79013 0.59833
 H310 H 0.21071 0.84070 0.59859
 H311 H 0.17017 0.83005 0.66016
 H312 H 0.15074 0.84952 0.64527
 N313 N 0.37969 0.68221 0.66623
 N314 N 0.37828 0.66774 0.68276
 C315 C 0.39557 0.67108 0.69689
 C316 C 0.40837 0.68850 0.68868
 C317 C 0.39789 0.69529 0.66930
 H318 H 0.39813 0.66216 0.71240
 H319 H 0.40253 0.70932 0.65883
 Cu320 Cu 0.35309 0.64709 0.68539
 Cu321 Cu 0.35632 0.68459 0.64362
 Cu322 Cu 0.31569 0.64317 0.64355
 N323 N 0.33286 0.62161 0.68275
 N324 N 0.31846 0.61992 0.66617
 C325 C 0.30563 0.60158 0.66926
 C326 C 0.31252 0.59129 0.68870
 C327 C 0.32973 0.60436 0.69693
 H328 H 0.29164 0.59672 0.65878
 H329 H 0.33862 0.60201 0.71251
 N330 N 0.31820 0.66579 0.61967
 N331 N 0.33373 0.68165 0.61970
 C332 C 0.33027 0.69532 0.60212
 C333 C 0.31178 0.68761 0.59059
 C334 C 0.30446 0.66897 0.60206
 H335 H 0.33985 0.71028 0.59846
 H336 H 0.28969 0.65907 0.59836
 H337 H 0.32977 0.66988 0.66010
 H338 H 0.34953 0.65074 0.64520
 N339 N 0.37983 0.18165 1.16613
 N340 N 0.37840 0.16714 1.18262
 C341 C 0.39571 0.17039 1.19674
 C342 C 0.40856 0.18779 1.18857
 C343 C 0.39808 0.19466 1.16922
 H344 H 0.39826 0.16142 1.21224
 H345 H 0.40275 0.20872 1.15879
 Cu346 Cu 0.35313 0.14657 1.18523
 Cu347 Cu 0.35644 0.18419 1.14356
 Cu348 Cu 0.31565 0.14292 1.14344
 N349 N 0.33280 0.12118 1.18255
 N350 N 0.31835 0.11960 1.16599
 C351 C 0.30545 0.10130 1.16904
 C352 C 0.31233 0.09093 1.18844
 C353 C 0.32961 0.10390 1.19668
 H354 H 0.29144 0.09653 1.15856
 H355 H 0.33851 0.10147 1.21224
 N356 N 0.31822 0.16560 1.11962
 N357 N 0.33381 0.18140 1.11967
 C358 C 0.33038 0.19512 1.10212
 C359 C 0.31186 0.18750 1.09060
 C360 C 0.30448 0.16887 1.10203
 H361 H 0.34002 0.21005 1.09848
 H362 H 0.28967 0.15903 1.09831
 H363 H 0.32987 0.16953 1.16005
 H364 H 0.34953 0.15036 1.14506
 N365 N 0.87948 0.68197 1.16629
 N366 N 0.87802 0.66750 1.18282
 C367 C 0.89530 0.67080 1.19698
 C368 C 0.90815 0.68819 1.18879
 C369 C 0.89770 0.69501 1.16939
 H370 H 0.89782 0.66187 1.21249
 H371 H 0.90240 0.70903 1.15893
 Cu372 Cu 0.85279 0.64690 1.18541
 Cu373 Cu 0.85615 0.68440 1.14366
 Cu374 Cu 0.81545 0.64305 1.14352
 N375 N 0.83254 0.62144 1.18273
 N376 N 0.81815 0.61978 1.16613
 C377 C 0.80531 0.60145 1.16919
 C378 C 0.81217 0.59113 1.18863
 C379 C 0.82938 0.60418 1.19689
 H380 H 0.79134 0.59660 1.15869
 H381 H 0.83825 0.60181 1.21247
 N382 N 0.81803 0.66568 1.11965
 N383 N 0.83359 0.68150 1.11971
 C384 C 0.83017 0.69519 1.10213
 C385 C 0.81168 0.68752 1.09058
 C386 C 0.80432 0.66889 1.10203
 H387 H 0.83978 0.71014 1.09850
 H388 H 0.78953 0.65902 1.09831
 H389 H 0.82955 0.66973 1.16009
 H390 H 0.84930 0.65056 1.14522
 N391 N 0.87990 0.18200 0.66626
 N392 N 0.87839 0.16760 0.68284
 C393 C 0.89571 0.17086 0.69695
 C394 C 0.90864 0.18816 0.68868
 C395 C 0.89819 0.19496 0.66928
 H396 H 0.89821 0.16199 0.71250
 H397 H 0.90293 0.20894 0.65877
 Cu398 Cu 0.85303 0.14717 0.68558
 Cu399 Cu 0.85651 0.18450 0.64368
 Cu400 Cu 0.81553 0.14342 0.64381
 N401 N 0.83261 0.12184 0.68304
 N402 N 0.81815 0.12022 0.66649
 C403 C 0.80521 0.10197 0.66963
 C404 C 0.81206 0.09167 0.68908
 C405 C 0.82938 0.10463 0.69725
 H406 H 0.79119 0.09717 0.65918
 H407 H 0.83830 0.10224 0.71281
 N408 N 0.81820 0.16595 0.61986
 N409 N 0.83386 0.18167 0.61981
 C410 C 0.83048 0.19531 0.60219
 C411 C 0.81191 0.18772 0.59072
 C412 C 0.80445 0.16918 0.60227
 H413 H 0.84018 0.21019 0.59847
 H414 H 0.78959 0.15940 0.59862
 H415 H 0.82987 0.17007 0.66025
 H416 H 0.84944 0.15071 0.64538
 N417 N 0.31796 0.38003 0.66609
 N418 N 0.33244 0.37840 0.68262
 C419 C 0.32930 0.39568 0.69673
 C420 C 0.31201 0.40873 0.68852
 C421 C 0.30507 0.39838 0.66915
 H422 H 0.33825 0.39807 0.71226
 H423 H 0.29104 0.40322 0.65870
 Cu424 Cu 0.35277 0.35293 0.68530
 Cu425 Cu 0.31523 0.35675 0.64355
 Cu426 Cu 0.35612 0.31543 0.64362
 N427 N 0.37807 0.33234 0.68267
 N428 N 0.37952 0.31786 0.66617
 C429 C 0.39779 0.30482 0.66925
 C430 C 0.40828 0.31163 0.68859
 C431 C 0.39540 0.32903 0.69678
 H432 H 0.40249 0.29078 0.65880
 H433 H 0.39794 0.33797 0.71227
 N434 N 0.33345 0.31830 0.61976
 N435 N 0.31782 0.33410 0.61973
 C436 C 0.30406 0.33089 0.60216
 C437 C 0.31148 0.31227 0.59071
 C438 C 0.33004 0.30462 0.60221
 H439 H 0.28921 0.34074 0.59846
 H440 H 0.33972 0.28969 0.59855
 H441 H 0.32952 0.33008 0.66013
 H442 H 0.34911 0.34927 0.64513
 N443 N 0.31797 0.87976 0.16563
 N444 N 0.33240 0.87823 0.18220
 C445 C 0.32911 0.89550 0.19630
 C446 C 0.31175 0.90842 0.18802
 C447 C 0.30495 0.89803 0.16864
 H448 H 0.33801 0.89797 0.21184
 H449 H 0.29093 0.90278 0.15813
 Cu450 Cu 0.35291 0.85292 0.18496
 Cu451 Cu 0.31551 0.85647 0.14305
 Cu452 Cu 0.35684 0.81558 0.14321
 N453 N 0.37839 0.83254 0.18244
 N454 N 0.38008 0.81814 0.16590
 C455 C 0.39842 0.80522 0.16906
 C456 C 0.40871 0.81204 0.18852
 C457 C 0.39564 0.82931 0.19667
 H458 H 0.40330 0.79125 0.15862
 H459 H 0.39798 0.83819 0.21222
 N460 N 0.33426 0.81828 0.11924
 N461 N 0.31844 0.83390 0.11919
 C462 C 0.30478 0.83054 0.10157
 C463 C 0.31246 0.81204 0.09011
 C464 C 0.33107 0.80459 0.10166
 H465 H 0.28983 0.84022 0.09785
 H466 H 0.34093 0.78977 0.09803
 H467 H 0.33000 0.82991 0.15962
 H468 H 0.34945 0.84936 0.14477
 N469 N 0.81801 0.38000 0.16577
 N470 N 0.83246 0.37836 0.18232
 C471 C 0.82926 0.39560 0.19647
 C472 C 0.81195 0.40862 0.18826
 C473 C 0.80508 0.39831 0.16885
 H474 H 0.83818 0.39797 0.21202
 H475 H 0.79105 0.40315 0.15838
 Cu476 Cu 0.85284 0.35293 0.18497
 Cu477 Cu 0.81537 0.35676 0.14318
 Cu478 Cu 0.85632 0.31550 0.14323
 N479 N 0.87820 0.33241 0.18233
 N480 N 0.87970 0.31796 0.16581
 C481 C 0.89800 0.30495 0.16889
 C482 C 0.90845 0.31177 0.18826
 C483 C 0.89552 0.32913 0.19645
 H484 H 0.90274 0.29094 0.15844
 H485 H 0.89802 0.33805 0.21196
 N486 N 0.83368 0.31838 0.11934
 N487 N 0.81802 0.33417 0.11932
 C488 C 0.80429 0.33096 0.10173
 C489 C 0.81173 0.31237 0.09026
 C490 C 0.83029 0.30472 0.10177
 H491 H 0.78943 0.34080 0.09804
 H492 H 0.83999 0.28980 0.09811
 H493 H 0.82968 0.33008 0.15972
 H494 H 0.84927 0.34932 0.14479
 N495 N 0.81753 0.88060 0.66627
 N496 N 0.83204 0.87896 0.68277
 C497 C 0.82890 0.89621 0.69692
 C498 C 0.81156 0.90923 0.68877
 C499 C 0.80461 0.89891 0.66939
 H500 H 0.83787 0.89859 0.71244
 H501 H 0.79055 0.90375 0.65897
 Cu502 Cu 0.85245 0.85354 0.68536
 Cu503 Cu 0.81481 0.85736 0.64369
 Cu504 Cu 0.85582 0.81616 0.64357
 N505 N 0.87778 0.83301 0.68264
 N506 N 0.87925 0.81859 0.66610
 C507 C 0.89754 0.80556 0.66912
 C508 C 0.90803 0.81233 0.68848
 C509 C 0.89513 0.82968 0.69673
 H510 H 0.90224 0.79155 0.65864
 H511 H 0.89766 0.83856 0.71225
 N512 N 0.83310 0.81903 0.61976
 N513 N 0.81742 0.83479 0.61980
 C514 C 0.80363 0.83157 0.60226
 C515 C 0.81108 0.81300 0.59074
 C516 C 0.82969 0.80539 0.60218
 H517 H 0.78874 0.84138 0.59862
 H518 H 0.83941 0.79049 0.59848
 H519 H 0.82921 0.83069 0.66017
 H520 H 0.84872 0.84998 0.64519
 N521 N 0.68189 0.61979 0.66650
 N522 N 0.66739 0.62139 0.68303
 C523 C 0.67053 0.60409 0.69716
 C524 C 0.68785 0.59107 0.68894
 C525 C 0.69479 0.60145 0.66955
 H526 H 0.66157 0.60166 0.71270
 H527 H 0.70885 0.59664 0.65910
 Cu528 Cu 0.64702 0.64683 0.68571
 Cu529 Cu 0.68464 0.64310 0.64394
 Cu530 Cu 0.64373 0.68440 0.64400
 N531 N 0.62173 0.66745 0.68308
 N532 N 0.62030 0.68193 0.66657
 C533 C 0.60203 0.69499 0.66964
 C534 C 0.59152 0.68817 0.68901
 C535 C 0.60439 0.67075 0.69721
 H536 H 0.59736 0.70903 0.65919
 H537 H 0.60182 0.66181 0.71271
 N538 N 0.66643 0.68156 0.62013
 N539 N 0.68207 0.66577 0.62010
 C540 C 0.69585 0.66901 0.60252
 C541 C 0.68843 0.68764 0.59105
 C542 C 0.66985 0.69526 0.60256
 H543 H 0.71070 0.65917 0.59882
 H544 H 0.66017 0.71019 0.59889
 H545 H 0.67030 0.66973 0.66052
 H546 H 0.65074 0.65055 0.64553
 N547 N 0.68239 0.11978 0.16615
 N548 N 0.66789 0.12139 0.18269
 C549 C 0.67108 0.10414 0.19686
 C550 C 0.68843 0.09114 0.18866
 C551 C 0.69533 0.10148 0.16925
 H552 H 0.66212 0.10173 0.21240
 H553 H 0.70939 0.09667 0.15879
 Cu554 Cu 0.64745 0.14678 0.18530
 Cu555 Cu 0.68504 0.14304 0.14352
 Cu556 Cu 0.64401 0.18422 0.14349
 N557 N 0.62208 0.16728 0.18262
 N558 N 0.62059 0.18173 0.16608
 C559 C 0.60227 0.19472 0.16913
 C560 C 0.59179 0.18789 0.18852
 C561 C 0.60473 0.17055 0.19674
 H562 H 0.59754 0.20873 0.15865
 H563 H 0.60221 0.16163 0.21227
 N564 N 0.66671 0.18139 0.11961
 N565 N 0.68239 0.16563 0.11962
 C566 C 0.69616 0.16887 0.10203
 C567 C 0.68869 0.18744 0.09052
 C568 C 0.67009 0.19505 0.10201
 H569 H 0.71104 0.15906 0.09835
 H570 H 0.66037 0.20994 0.09832
 H571 H 0.67064 0.16968 0.16002
 H572 H 0.65113 0.15040 0.14511
 N573 N 0.18207 0.62050 0.16572
 N574 N 0.16757 0.62195 0.18227
 C575 C 0.17080 0.60461 0.19632
 C576 C 0.18819 0.59172 0.18804
 C577 C 0.19507 0.60221 0.16870
 H578 H 0.16185 0.60208 0.21184
 H579 H 0.20914 0.59751 0.15821
 Cu580 Cu 0.14707 0.64727 0.18506
 Cu581 Cu 0.18464 0.64390 0.14323
 Cu582 Cu 0.14338 0.68485 0.14343
 N583 N 0.12162 0.66770 0.18256
 N584 N 0.12003 0.68220 0.16606
 C585 C 0.10169 0.69513 0.16922
 C586 C 0.09131 0.68822 0.18862
 C587 C 0.10432 0.67088 0.19675
 H588 H 0.09689 0.70916 0.15881
 H589 H 0.10188 0.66192 0.21226
 N590 N 0.16604 0.68225 0.11950
 N591 N 0.18184 0.66660 0.11943
 C592 C 0.19555 0.67001 0.10182
 C593 C 0.18793 0.68857 0.09040
 C594 C 0.16930 0.69600 0.10195
 H595 H 0.21049 0.66031 0.09808
 H596 H 0.15946 0.71084 0.09832
 H597 H 0.17012 0.67039 0.15986
 H598 H 0.15070 0.65106 0.14489
 N599 N 0.18236 0.11944 0.66666
 N600 N 0.16786 0.12107 0.68320
 C601 C 0.17103 0.10381 0.69737
 C602 C 0.18836 0.09079 0.68917
 C603 C 0.19528 0.10112 0.66976
 H604 H 0.16206 0.10141 0.71291
 H605 H 0.20932 0.09629 0.65930
 Cu606 Cu 0.14745 0.14649 0.68581
 Cu607 Cu 0.18505 0.14269 0.64403
 Cu608 Cu 0.14405 0.18389 0.64397
 N609 N 0.12212 0.16705 0.68314
 N610 N 0.12064 0.18147 0.66657
 C611 C 0.10235 0.19450 0.66961
 C612 C 0.09188 0.18773 0.68902
 C613 C 0.10478 0.17037 0.69727
 H614 H 0.09764 0.20850 0.65911
 H615 H 0.10226 0.16149 0.71281
 N616 N 0.16674 0.18103 0.62009
 N617 N 0.18242 0.16527 0.62011
 C618 C 0.19619 0.16849 0.60251
 C619 C 0.18872 0.18706 0.59099
 C620 C 0.17012 0.19468 0.60248
 H621 H 0.21106 0.15868 0.59885
 H622 H 0.16040 0.20957 0.59877
 H623 H 0.17067 0.16935 0.66052
 H624 H 0.15114 0.15007 0.64562
 N625 N 0.31806 0.61980 0.33364
 N626 N 0.33257 0.62143 0.31712
 C627 C 0.32944 0.60421 0.30295
 C628 C 0.31212 0.59121 0.31112
 C629 C 0.30517 0.60152 0.33053
 H630 H 0.33841 0.60183 0.28741
 H631 H 0.29111 0.59670 0.34097
 Cu632 Cu 0.35294 0.64682 0.31453
 Cu633 Cu 0.31530 0.64302 0.35626
 Cu634 Cu 0.35621 0.68417 0.35633
 N635 N 0.37823 0.66732 0.31722
 N636 N 0.37966 0.68173 0.33377
 C637 C 0.39793 0.69472 0.33075
 C638 C 0.40845 0.68795 0.31137
 C639 C 0.39559 0.67062 0.30312
 H640 H 0.40261 0.70871 0.34123
 H641 H 0.39815 0.66174 0.28759
 N642 N 0.33349 0.68131 0.38018
 N643 N 0.31785 0.66557 0.38016
 C644 C 0.30405 0.66879 0.39773
 C645 C 0.31145 0.68734 0.40924
 C646 C 0.33005 0.69495 0.39777
 H647 H 0.28919 0.65899 0.40139
 H648 H 0.33972 0.70983 0.40147
 H649 H 0.32964 0.66968 0.33976
 H650 H 0.34919 0.65037 0.35471
 N651 N 0.31847 0.11905 0.83423
 N652 N 0.33297 0.12061 0.81769
 C653 C 0.32987 0.10329 0.80363
 C654 C 0.31258 0.09031 0.81190
 C655 C 0.30562 0.10072 0.83125
 H656 H 0.33881 0.10085 0.78809
 H657 H 0.29156 0.09596 0.84171
 Cu658 Cu 0.35325 0.14605 0.81489
 Cu659 Cu 0.31565 0.14244 0.85667
 Cu660 Cu 0.35637 0.18377 0.85639
 N661 N 0.37845 0.16669 0.81741
 N662 N 0.37982 0.18124 0.83384
 C663 C 0.39803 0.19430 0.83069
 C664 C 0.40857 0.18741 0.81137
 C665 C 0.39578 0.16996 0.80327
 H666 H 0.40264 0.20839 0.84107
 H667 H 0.39839 0.16096 0.78781
 N668 N 0.33369 0.18100 0.88028
 N669 N 0.31812 0.16518 0.88039
 C670 C 0.30433 0.16847 0.89796
 C671 C 0.31166 0.18714 0.90932
 C672 C 0.33021 0.19475 0.89778
 H673 H 0.28953 0.15862 0.90172
 H674 H 0.33983 0.20969 0.90136
 H675 H 0.32987 0.16902 0.83995
 H676 H 0.34951 0.14992 0.85504
 N677 N 0.81802 0.61950 0.83397
 N678 N 0.83246 0.62111 0.81738
 C679 C 0.82935 0.60382 0.80330
 C680 C 0.81211 0.59079 0.81159
 C681 C 0.80518 0.60115 0.83098
 H682 H 0.83826 0.60141 0.78773
 H683 H 0.79117 0.59634 0.84148
 Cu684 Cu 0.85271 0.64658 0.81459
 Cu685 Cu 0.81523 0.64282 0.85647
 Cu686 Cu 0.85593 0.68419 0.85618
 N687 N 0.87792 0.66721 0.81710
 N688 N 0.87932 0.68172 0.83356
 C689 C 0.89754 0.69477 0.83042
 C690 C 0.90804 0.68792 0.81106
 C691 C 0.89522 0.67049 0.80294
 H692 H 0.90219 0.70882 0.84082
 H693 H 0.89780 0.66153 0.78747
 N694 N 0.83331 0.68134 0.88012
 N695 N 0.81775 0.66552 0.88024
 C696 C 0.80400 0.66875 0.89785
 C697 C 0.81135 0.68740 0.90923
 C698 C 0.82986 0.69505 0.89765
 H699 H 0.78921 0.65888 0.90161
 H700 H 0.83947 0.71000 0.90124
 H701 H 0.82938 0.66947 0.83978
 H702 H 0.84909 0.65034 0.85476
 N703 N 0.81846 0.11966 0.33403
 N704 N 0.83293 0.12126 0.31747
 C705 C 0.82980 0.10399 0.30336
 C706 C 0.81251 0.09099 0.31161
 C707 C 0.80559 0.10134 0.33100
 H708 H 0.83874 0.10158 0.28781
 H709 H 0.79155 0.09654 0.34148
 Cu710 Cu 0.85324 0.14668 0.31475
 Cu711 Cu 0.81570 0.14295 0.35656
 Cu712 Cu 0.85648 0.18422 0.35639
 N713 N 0.87849 0.16725 0.31733
 N714 N 0.87991 0.18173 0.33381
 C715 C 0.89815 0.19476 0.33070
 C716 C 0.90866 0.18792 0.31134
 C717 C 0.89582 0.17053 0.30319
 H718 H 0.90280 0.20880 0.34112
 H719 H 0.89839 0.16159 0.28770
 N720 N 0.83382 0.18140 0.38030
 N721 N 0.81822 0.16560 0.38037
 C722 C 0.80445 0.16885 0.39795
 C723 C 0.81182 0.18747 0.40938
 C724 C 0.83036 0.19509 0.39784
 H725 H 0.78963 0.15901 0.40168
 H726 H 0.84000 0.21002 0.40146
 H727 H 0.82993 0.16959 0.33993
 H728 H 0.84957 0.15039 0.35492
 N729 N 0.68164 0.37999 0.33376
 N730 N 0.66720 0.37838 0.31720
 C731 C 0.67038 0.39563 0.30304
 C732 C 0.68765 0.40863 0.31127
 C733 C 0.69453 0.39829 0.33069
 H734 H 0.66148 0.39804 0.28748
 H735 H 0.70853 0.40310 0.34116
 Cu736 Cu 0.64687 0.35297 0.31456
 Cu737 Cu 0.68433 0.35671 0.35636
 Cu738 Cu 0.64354 0.31545 0.35630
 N739 N 0.62160 0.33242 0.31720
 N740 N 0.62016 0.31795 0.33372
 C741 C 0.60191 0.30493 0.33065
 C742 C 0.59143 0.31178 0.31128
 C743 C 0.60429 0.32916 0.30308
 H744 H 0.59723 0.29090 0.34111
 H745 H 0.60175 0.33810 0.28757
 N746 N 0.66617 0.31828 0.38019
 N747 N 0.68176 0.33408 0.38022
 C748 C 0.69550 0.33085 0.39782
 C749 C 0.68812 0.31223 0.40928
 C750 C 0.66960 0.30459 0.39777
 H751 H 0.71031 0.34069 0.40152
 H752 H 0.65996 0.28966 0.40143
 H753 H 0.67013 0.33007 0.33980
 H754 H 0.65046 0.34927 0.35474
 N755 N 0.68138 0.88062 0.83419
 N756 N 0.66693 0.87906 0.81764
 C757 C 0.67008 0.89638 0.80354
 C758 C 0.68735 0.90935 0.81180
 C759 C 0.69426 0.89894 0.83117
 H760 H 0.66117 0.89883 0.78799
 H761 H 0.70828 0.90370 0.84164
 Cu762 Cu 0.64663 0.85365 0.81490
 Cu763 Cu 0.68412 0.85725 0.85669
 Cu764 Cu 0.64338 0.81593 0.85648
 N765 N 0.62139 0.83306 0.81747
 N766 N 0.61997 0.81851 0.83392
 C767 C 0.60173 0.80549 0.83081
 C768 C 0.59123 0.81241 0.81148
 C769 C 0.60407 0.82984 0.80335
 H770 H 0.59708 0.79140 0.84121
 H771 H 0.60151 0.83885 0.78788
 N772 N 0.66602 0.81869 0.88037
 N773 N 0.68159 0.83450 0.88045
 C774 C 0.69534 0.83121 0.89803
 C775 C 0.68799 0.81254 0.90942
 C776 C 0.66947 0.80493 0.89788
 H777 H 0.71014 0.84106 0.90177
 H778 H 0.65984 0.78998 0.90149
 H779 H 0.66993 0.83066 0.84002
 H780 H 0.65026 0.84977 0.85506
 N781 N 0.18177 0.38034 0.83390
 N782 N 0.16731 0.37878 0.81735
 C783 C 0.17048 0.39608 0.80324
 C784 C 0.18777 0.40904 0.81148
 C785 C 0.19466 0.39864 0.83086
 H786 H 0.16157 0.39852 0.78769
 H787 H 0.20869 0.40341 0.84132
 Cu788 Cu 0.14698 0.35339 0.81465
 Cu789 Cu 0.18449 0.35699 0.85642
 Cu790 Cu 0.14371 0.31572 0.85628
 N791 N 0.12172 0.33281 0.81725
 N792 N 0.12030 0.31828 0.83373
 C793 C 0.10206 0.30526 0.83063
 C794 C 0.09156 0.31215 0.81129
 C795 C 0.10440 0.32957 0.80313
 H796 H 0.09740 0.29119 0.84105
 H797 H 0.10184 0.33855 0.78765
 N798 N 0.16636 0.31849 0.88016
 N799 N 0.18194 0.33428 0.88022
 C800 C 0.19570 0.33100 0.89779
 C801 C 0.18832 0.31235 0.90921
 C802 C 0.16979 0.30475 0.89769
 H803 H 0.21050 0.34084 0.90152
 H804 H 0.16015 0.28981 0.90132
 H805 H 0.17027 0.33040 0.83979
 H806 H 0.15062 0.34956 0.85482
 N807 N 0.18156 0.88004 0.33370
 N808 N 0.16708 0.87845 0.31718
 C809 C 0.17025 0.89569 0.30300
 C810 C 0.18757 0.90866 0.31117
 C811 C 0.19448 0.89832 0.33058
 H812 H 0.16131 0.89810 0.28746
 H813 H 0.20852 0.90310 0.34102
 Cu814 Cu 0.14670 0.85308 0.31460
 Cu815 Cu 0.18426 0.85678 0.35632
 Cu816 Cu 0.14335 0.81563 0.35640
 N817 N 0.12138 0.83260 0.31731
 N818 N 0.11992 0.81815 0.33386
 C819 C 0.10164 0.80517 0.33083
 C820 C 0.09115 0.81201 0.31147
 C821 C 0.10404 0.82935 0.30322
 H822 H 0.09695 0.79116 0.34131
 H823 H 0.10150 0.83827 0.28770
 N824 N 0.16603 0.81843 0.38024
 N825 N 0.18167 0.83418 0.38021
 C826 C 0.19544 0.83092 0.39778
 C827 C 0.18803 0.81234 0.40929
 C828 C 0.16945 0.80475 0.39782
 H829 H 0.21029 0.84072 0.40143
 H830 H 0.15977 0.78986 0.40152
 H831 H 0.16994 0.83015 0.33983
 H832 H 0.15036 0.84943 0.35478
 C833 C 0.24175 1.07031 0.25774
 C834 C 0.25870 1.07027 0.24221
 C835 C 0.26351 1.04798 0.23758
 N836 N 0.25006 1.03449 0.24985
 C837 C 0.23673 1.04804 0.26221
 C838 C 0.27960 1.04070 0.22172
 C839 C 0.28406 1.01802 0.21627
 C840 C 0.29745 1.01123 0.19852
 C841 C 0.29731 0.98820 0.19841
 C842 C 0.28385 0.98141 0.21611
 N843 N 0.27617 0.99971 0.22713
 C844 C 0.27915 0.95873 0.22137
 C845 C 0.26298 0.95152 0.23717
 C846 C 0.25796 0.92925 0.24164
 C847 C 0.24103 0.92929 0.25720
 C848 C 0.23623 0.95158 0.26184
 N849 N 0.24967 0.96507 0.24955
 C850 C 0.22018 0.95885 0.27773
 C851 C 0.21571 0.98154 0.28317
 C852 C 0.20235 0.98833 0.30094
 C853 C 0.20246 1.01137 0.30102
 C854 C 0.21588 1.01815 0.28329
 N855 N 0.22356 0.99985 0.27227
 C856 C 0.22057 1.04083 0.27801
 H857 H 0.23411 1.08510 0.26500
 H858 H 0.26647 1.08502 0.23505
 H859 H 0.23224 0.99986 0.25729
 H860 H 0.30619 1.02177 0.18663
 H861 H 0.30594 0.97766 0.18643
 H862 H 0.26559 0.91446 0.23437
 H863 H 0.23327 0.91453 0.26436
 H864 H 0.19385 1.02191 0.31301
 H865 H 0.26746 0.99969 0.24210
 H866 H 0.19364 0.97780 0.31285
 C867 C 0.24142 0.42968 0.75775
 C868 C 0.25838 0.42963 0.74223
 C869 C 0.26340 0.45190 0.73773
 N870 N 0.25005 0.46546 0.75006
 C871 C 0.23660 0.45197 0.76234
 C872 C 0.27957 0.45910 0.72193
 C873 C 0.28426 0.48177 0.71664
 C874 C 0.29770 0.48854 0.69892
 C875 C 0.29780 0.51157 0.69898
 C876 C 0.28442 0.51838 0.71673
 N877 N 0.27656 0.50008 0.72763
 C878 C 0.27993 0.54107 0.72214
 C879 C 0.26385 0.54836 0.73799
 C880 C 0.25903 0.57065 0.74259
 C881 C 0.24207 0.57070 0.75812
 C882 C 0.23705 0.54844 0.76261
 N883 N 0.25039 0.53488 0.75027
 C884 C 0.22086 0.54123 0.77839
 C885 C 0.21617 0.51856 0.78368
 C886 C 0.20269 0.51179 0.80137
 C887 C 0.20258 0.48876 0.80131
 C888 C 0.21600 0.48195 0.78358
 N889 N 0.22389 0.50025 0.77270
 C890 C 0.22048 0.45926 0.77817
 H891 H 0.23365 0.41493 0.76492
 H892 H 0.26604 0.41484 0.73500
 H893 H 0.23261 0.50025 0.75775
 H894 H 0.30633 0.47799 0.68695
 H895 H 0.30652 0.52210 0.68706
 H896 H 0.26680 0.58540 0.73542
 H897 H 0.23442 0.58549 0.76536
 H898 H 0.19383 0.47823 0.81320
 H899 H 0.26786 0.50008 0.74260
 H900 H 0.19404 0.52234 0.81332
 C901 C 0.74186 -0.07069 0.24274
 C902 C 0.75878 -0.07072 0.25828
 C903 C 0.76372 -0.04845 0.26277
 N904 N 0.75037 -0.03490 0.25042
 C905 C 0.73698 -0.04840 0.23814
 C906 C 0.77983 -0.04123 0.27857
 C907 C 0.78445 -0.01855 0.28385
 C908 C 0.79786 -0.01177 0.30155
 C909 C 0.79790 0.01126 0.30149
 C910 C 0.78451 0.01806 0.28375
 N911 N 0.77671 -0.00024 0.27286
 C912 C 0.77997 0.04075 0.27834
 C913 C 0.76387 0.04802 0.26251
 C914 C 0.75898 0.07031 0.25791
 C915 C 0.74205 0.07034 0.24240
 C916 C 0.73711 0.04806 0.23790
 N917 N 0.75047 0.03452 0.25023
 C918 C 0.72099 0.04085 0.22211
 C919 C 0.71639 0.01817 0.21681
 C920 C 0.70299 0.01139 0.19910
 C921 C 0.70297 -0.01164 0.19914
 C922 C 0.71635 -0.01844 0.21689
 N923 N 0.72413 -0.00014 0.22779
 C924 C 0.72090 -0.04113 0.22229
 H925 H 0.73415 -0.08545 0.23557
 H926 H 0.76645 -0.08550 0.26552
 H927 H 0.73281 -0.00015 0.24275
 H928 H 0.80650 -0.02232 0.31351
 H929 H 0.80658 0.02179 0.31339
 H930 H 0.76670 0.08507 0.26508
 H931 H 0.73436 0.08512 0.23517
 H932 H 0.69430 -0.02217 0.18723
 H933 H 0.76803 -0.00024 0.25790
 H934 H 0.69434 0.02194 0.18714
 C935 C 0.74157 0.42914 0.74251
 C936 C 0.75855 0.42909 0.75798
 C937 C 0.76347 0.45136 0.76252
 N938 N 0.75004 0.46492 0.75026
 C939 C 0.73664 0.45143 0.73799
 C940 C 0.77962 0.45857 0.77829
 C941 C 0.78421 0.48124 0.78363
 C942 C 0.79766 0.48799 0.80130
 C943 C 0.79765 0.51102 0.80131
 C944 C 0.78418 0.51785 0.78365
 N945 N 0.77639 0.49957 0.77273
 C946 C 0.77957 0.54054 0.77832
 C947 C 0.76340 0.54783 0.76256
 C948 C 0.75846 0.57012 0.75805
 C949 C 0.74148 0.57016 0.74258
 C950 C 0.73657 0.54790 0.73803
 N951 N 0.74999 0.53434 0.75029
 C952 C 0.72042 0.54069 0.72226
 C953 C 0.71584 0.51802 0.71691
 C954 C 0.70241 0.51127 0.69922
 C955 C 0.70242 0.48824 0.69921
 C956 C 0.71587 0.48141 0.71690
 N957 N 0.72365 0.49969 0.72782
 C958 C 0.72048 0.45872 0.72222
 H959 H 0.73386 0.41438 0.73533
 H960 H 0.76628 0.41430 0.76516
 H961 H 0.73237 0.49966 0.74276
 H962 H 0.80638 0.47742 0.81320
 H963 H 0.80634 0.52153 0.81322
 H964 H 0.76616 0.58487 0.76523
 H965 H 0.73375 0.58495 0.73541
 H966 H 0.69374 0.47773 0.68730
 H967 H 0.76765 0.49960 0.75780
 H968 H 0.69371 0.52184 0.68732
 C969 C 0.25830 0.42965 0.25745
 C970 C 0.24139 0.42972 0.24192
 C971 C 0.23654 0.45202 0.23734
 N972 N 0.24994 0.46549 0.24964
 C973 C 0.26327 0.45191 0.26197
 C974 C 0.22046 0.45933 0.22150
 C975 C 0.21596 0.48203 0.21609
 C976 C 0.20259 0.48886 0.19836
 C977 C 0.20267 0.51190 0.19831
 C978 C 0.21610 0.51864 0.21601
 N979 N 0.22380 0.50031 0.22699
 C980 C 0.22075 0.54131 0.22131
 C981 C 0.23687 0.54849 0.23712
 C982 C 0.24185 0.57075 0.24163
 C983 C 0.25875 0.57068 0.25718
 C984 C 0.26358 0.54838 0.26178
 N985 N 0.25018 0.53491 0.24948
 C986 C 0.27962 0.54107 0.27766
 C987 C 0.28412 0.51837 0.28306
 C988 C 0.29745 0.51153 0.30082
 C989 C 0.29739 0.48850 0.30086
 C990 C 0.28402 0.48176 0.28312
 N991 N 0.27633 0.50009 0.27213
 C992 C 0.27938 0.45909 0.27779
 H993 H 0.26595 0.41485 0.26468
 H994 H 0.23366 0.41498 0.23473
 H995 H 0.26768 0.50012 0.25714
 H996 H 0.19389 0.47836 0.18646
 H997 H 0.19404 0.52247 0.18635
 H998 H 0.23422 0.58555 0.23439
 H999 H 0.26648 0.58542 0.26437
 H1000 H 0.30599 0.47793 0.31283
 H1001 H 0.23249 0.50028 0.24194
 H1002 H 0.30612 0.52203 0.31275
 C1003 C 0.75842 1.07106 0.74294
 C1004 C 0.74145 1.07109 0.75844
 C1005 C 0.73645 1.04881 0.76292
 N1006 N 0.74981 1.03527 0.75059
 C1007 C 0.76327 1.04877 0.73833
 C1008 C 0.72026 1.04159 0.77870
 C1009 C 0.71560 1.01891 0.78399
 C1010 C 0.70212 1.01213 0.80167
 C1011 C 0.70205 0.98910 0.80162
 C1012 C 0.71548 0.98230 0.78390
 N1013 N 0.72334 1.00061 0.77302
 C1014 C 0.72001 0.95962 0.77850
 C1015 C 0.73613 0.95235 0.76267
 C1016 C 0.74099 0.93006 0.75808
 C1017 C 0.75795 0.93003 0.74256
 C1018 C 0.76293 0.95230 0.73806
 N1019 N 0.74957 0.96585 0.75040
 C1020 C 0.77909 0.95953 0.72226
 C1021 C 0.78376 0.98221 0.71698
 C1022 C 0.79720 0.98899 0.69927
 C1023 C 0.79728 1.01202 0.69933
 C1024 C 0.78389 1.01881 0.71708
 N1025 N 0.77604 1.00051 0.72797
 C1026 C 0.77938 1.04150 0.72250
 H1027 H 0.76619 1.08581 0.73578
 H1028 H 0.73378 1.08587 0.76568
 H1029 H 0.76734 1.00050 0.74294
 H1030 H 0.69345 1.02267 0.81362
 H1031 H 0.69332 0.97856 0.81352
 H1032 H 0.73324 0.91530 0.76525
 H1033 H 0.76562 0.91525 0.73533
 H1034 H 0.80599 1.02256 0.68742
 H1035 H 0.73208 1.00062 0.75807
 H1036 H 0.80584 0.97846 0.68730
 C1037 C 0.74126 0.42936 0.25747
 C1038 C 0.75822 0.42936 0.24195
 C1039 C 0.76321 0.45163 0.23749
 N1040 N 0.74985 0.46516 0.24984
 C1041 C 0.73641 0.45164 0.26210
 C1042 C 0.77938 0.45888 0.22171
 C1043 C 0.78402 0.48156 0.21643
 C1044 C 0.79745 0.48837 0.19872
 C1045 C 0.79752 0.51140 0.19880
 C1046 C 0.78412 0.51817 0.21655
 N1047 N 0.77629 0.49985 0.22744
 C1048 C 0.77960 0.54085 0.22198
 C1049 C 0.76352 0.54810 0.23786
 C1050 C 0.75868 0.57038 0.24250
 C1051 C 0.74175 0.57038 0.25805
 C1052 C 0.73676 0.54811 0.26252
 N1053 N 0.75010 0.53458 0.25014
 C1054 C 0.72062 0.54086 0.27832
 C1055 C 0.71595 0.51817 0.28358
 C1056 C 0.70251 0.51136 0.30128
 C1057 C 0.70242 0.48833 0.30117
 C1058 C 0.71580 0.48157 0.28341
 N1059 N 0.72366 0.49989 0.27255
 C1060 C 0.72030 0.45889 0.27796
 H1061 H 0.73351 0.41459 0.26462
 H1062 H 0.76589 0.41458 0.23470
 H1063 H 0.73235 0.49992 0.25758
 H1064 H 0.80610 0.47785 0.18674
 H1065 H 0.80622 0.52195 0.18689
 H1066 H 0.76642 0.58515 0.23534
 H1067 H 0.73409 0.58516 0.26532
 H1068 H 0.69370 0.47778 0.31307
 H1069 H 0.76760 0.49982 0.24241
 H1070 H 0.69388 0.52188 0.31327
 C1071 C 0.24181 -0.07122 0.74275
 C1072 C 0.25879 -0.07130 0.75821
 C1073 C 0.26375 -0.04904 0.76276
 N1074 N 0.25035 -0.03546 0.75051
 C1075 C 0.23691 -0.04892 0.73824
 C1076 C 0.27994 -0.04187 0.77851
 C1077 C 0.28456 -0.01921 0.78386
 C1078 C 0.29805 -0.01249 0.80153
 C1079 C 0.29806 0.01054 0.80156
 C1080 C 0.28458 0.01740 0.78391
 N1081 N 0.27674 -0.00086 0.77299
 C1082 C 0.27999 0.04011 0.77861
 C1083 C 0.26382 0.04743 0.76286
 C1084 C 0.25891 0.06973 0.75836
 C1085 C 0.24194 0.06981 0.74289
 C1086 C 0.23701 0.04755 0.73832
 N1087 N 0.25041 0.03397 0.75057
 C1088 C 0.22086 0.04039 0.72253
 C1089 C 0.21625 0.01772 0.71717
 C1090 C 0.20282 0.01100 0.69947
 C1091 C 0.20279 -0.01203 0.69945
 C1092 C 0.21621 -0.01889 0.71714
 N1093 N 0.22401 -0.00062 0.72808
 C1094 C 0.22077 -0.04159 0.72247
 H1095 H 0.23406 -0.08595 0.73556
 H1096 H 0.26650 -0.08610 0.76538
 H1097 H 0.23272 -0.00068 0.74304
 H1098 H 0.30676 -0.02308 0.81340
 H1099 H 0.30678 0.02103 0.81346
 H1100 H 0.26663 0.08447 0.76557
 H1101 H 0.23423 0.08462 0.73573
 H1102 H 0.19410 -0.02252 0.68752
 H1103 H 0.26798 -0.00081 0.75807
 H1104 H 0.19415 0.02159 0.68756
 C1105 C 0.25797 0.24158 1.07009
 C1106 C 0.24244 0.25859 1.07007
 C1107 C 0.23785 0.26347 1.04789
 N1108 N 0.25014 0.25000 1.03445
 C1109 C 0.26248 0.23659 1.04792
 C1110 C 0.22200 0.27966 1.04066
 C1111 C 0.21660 0.28421 1.01809
 C1112 C 0.19881 0.29772 1.01133
 C1113 C 0.19877 0.29766 0.98841
 C1114 C 0.21654 0.28412 0.98165
 N1115 N 0.22754 0.27631 0.99987
 C1116 C 0.22186 0.27946 0.95908
 C1117 C 0.23767 0.26322 0.95188
 C1118 C 0.24218 0.25823 0.92971
 C1119 C 0.25770 0.24120 0.92973
 C1120 C 0.26229 0.23632 0.95191
 N1121 N 0.25000 0.24980 0.96535
 C1122 C 0.27813 0.22013 0.95913
 C1123 C 0.28354 0.21559 0.98171
 C1124 C 0.30133 0.20208 0.98847
 C1125 C 0.30138 0.20215 1.01139
 C1126 C 0.28362 0.21569 1.01814
 N1127 N 0.27260 0.22349 0.99993
 C1128 C 0.27830 0.22036 1.04072
 H1129 H 0.26521 0.23387 1.08479
 H1130 H 0.23525 0.26637 1.08476
 H1131 H 0.25757 0.23229 0.99994
 H1132 H 0.18686 0.30650 1.02182
 H1133 H 0.18678 0.30639 0.97793
 H1134 H 0.23495 0.26594 0.91501
 H1135 H 0.26489 0.23342 0.91504
 H1136 H 0.31338 0.19342 1.02187
 H1137 H 0.24258 0.26751 0.99986
 H1138 H 0.31329 0.19330 0.97798
 C1139 C 0.24224 0.75854 0.57011
 C1140 C 0.25779 0.74154 0.57011
 C1141 C 0.26229 0.73656 0.54794
 N1142 N 0.24993 0.74997 0.53448
 C1143 C 0.23764 0.76343 0.54794
 C1144 C 0.27812 0.72036 0.54072
 C1145 C 0.28343 0.71570 0.51814
 C1146 C 0.30120 0.70218 0.51136
 C1147 C 0.30114 0.70213 0.48844
 C1148 C 0.28334 0.71563 0.48170
 N1149 N 0.27240 0.72351 0.49993
 C1150 C 0.27792 0.72019 0.45913
 C1151 C 0.26205 0.73637 0.45192
 C1152 C 0.25746 0.74127 0.42975
 C1153 C 0.24192 0.75828 0.42976
 C1154 C 0.23741 0.76326 0.45193
 N1155 N 0.24976 0.74984 0.46538
 C1156 C 0.22160 0.77947 0.45915
 C1157 C 0.21628 0.78412 0.48173
 C1158 C 0.19851 0.79765 0.48850
 C1159 C 0.19856 0.79768 0.51142
 C1160 C 0.21636 0.78418 0.51816
 N1161 N 0.22730 0.77630 0.49993
 C1162 C 0.22177 0.77961 0.54073
 H1163 H 0.23506 0.76630 0.58481
 H1164 H 0.26504 0.73383 0.58480
 H1165 H 0.24234 0.76750 0.49991
 H1166 H 0.31321 0.69346 0.52183
 H1167 H 0.31310 0.69337 0.47794
 H1168 H 0.26464 0.73351 0.41505
 H1169 H 0.23467 0.76600 0.41506
 H1170 H 0.18660 0.80645 0.52192
 H1171 H 0.25736 0.73230 0.49996
 H1172 H 0.18651 0.80638 0.47803
 C1173 C 0.24175 0.74253 0.06977
 C1174 C 0.25866 0.75813 0.06973
 C1175 C 0.26358 0.76267 0.04754
 N1176 N 0.25021 0.75029 0.03412
 C1177 C 0.23684 0.73794 0.04761
 C1178 C 0.27968 0.77855 0.04028
 C1179 C 0.28425 0.78391 0.01769
 C1180 C 0.29765 0.80170 0.01089
 C1181 C 0.29765 0.80168 -0.01203
 C1182 C 0.28425 0.78389 -0.01874
 N1183 N 0.27647 0.77292 -0.00050
 C1184 C 0.27968 0.77849 -0.04131
 C1185 C 0.26358 0.76260 -0.04847
 C1186 C 0.25866 0.75802 -0.07063
 C1187 C 0.24174 0.74242 -0.07059
 C1188 C 0.23685 0.73786 -0.04840
 N1189 N 0.25022 0.75024 -0.03498
 C1190 C 0.22075 0.72198 -0.04114
 C1191 C 0.21619 0.71661 -0.01855
 C1192 C 0.20281 0.69881 -0.01175
 C1193 C 0.20281 0.69883 0.01117
 C1194 C 0.21619 0.71664 0.01788
 N1195 N 0.22396 0.72761 -0.00036
 C1196 C 0.22075 0.72204 0.04044
 H1197 H 0.23405 0.73531 0.08449
 H1198 H 0.26635 0.76539 0.08440
 H1199 H 0.23262 0.74265 -0.00040
 H1200 H 0.30632 0.81369 0.02135
 H1201 H 0.30632 0.81366 -0.02255
 H1202 H 0.26635 0.76525 -0.08535
 H1203 H 0.23405 0.73517 -0.08526
 H1204 H 0.19415 0.68685 0.02169
 H1205 H 0.26779 0.75789 -0.00046
 H1206 H 0.19415 0.68681 -0.02221
 C1207 C 0.25762 0.25834 0.42997
 C1208 C 0.24217 0.24131 0.43000
 C1209 C 0.23768 0.23633 0.45218
 N1210 N 0.24995 0.24978 0.46561
 C1211 C 0.26218 0.26326 0.45213
 C1212 C 0.22193 0.22010 0.45943
 C1213 C 0.21664 0.21544 0.48202
 C1214 C 0.19895 0.20187 0.48882
 C1215 C 0.19899 0.20183 0.51173
 C1216 C 0.21671 0.21537 0.51845
 N1217 N 0.22761 0.22328 0.50021
 C1218 C 0.22208 0.21997 0.54102
 C1219 C 0.23783 0.23620 0.54819
 C1220 C 0.24238 0.24112 0.57036
 C1221 C 0.25782 0.25818 0.57032
 C1222 C 0.26231 0.26315 0.54814
 N1223 N 0.25005 0.24969 0.53471
 C1224 C 0.27804 0.27940 0.54089
 C1225 C 0.28335 0.28404 0.51831
 C1226 C 0.30105 0.29760 0.51151
 C1227 C 0.30103 0.29762 0.48859
 C1228 C 0.28331 0.28408 0.48187
 N1229 N 0.27239 0.27619 0.50011
 C1230 C 0.27795 0.27948 0.45931
 H1231 H 0.26478 0.26611 0.41525
 H1232 H 0.23498 0.23358 0.41532
 H1233 H 0.25741 0.26736 0.50015
 H1234 H 0.18700 0.19311 0.47836
 H1235 H 0.18708 0.19303 0.52225
 H1236 H 0.23524 0.23335 0.58507
 H1237 H 0.26500 0.26592 0.58500
 H1238 H 0.31295 0.30640 0.47808
 H1239 H 0.24259 0.23211 0.50017
 H1240 H 0.31299 0.30637 0.52197
 C1241 C 0.74230 0.75861 1.07016
 C1242 C 0.75782 0.74158 1.07014
 C1243 C 0.76230 0.73661 1.04796
 N1244 N 0.74995 0.75005 1.03452
 C1245 C 0.73769 0.76352 1.04799
 C1246 C 0.77810 0.72038 1.04072
 C1247 C 0.78339 0.71574 1.01814
 C1248 C 0.80115 0.70221 1.01135
 C1249 C 0.80108 0.70218 0.98843
 C1250 C 0.78329 0.71570 0.98171
 N1251 N 0.77236 0.72358 0.99995
 C1252 C 0.77787 0.72028 0.95914
 C1253 C 0.76201 0.73648 0.95195
 C1254 C 0.75740 0.74139 0.92978
 C1255 C 0.74187 0.75841 0.92981
 C1256 C 0.73738 0.76338 0.95198
 N1257 N 0.74973 0.74994 0.96542
 C1258 C 0.72158 0.77960 0.95922
 C1259 C 0.71629 0.78424 0.98181
 C1260 C 0.69854 0.79779 0.98860
 C1261 C 0.69862 0.79782 1.01152
 C1262 C 0.71641 0.78430 1.01824
 N1263 N 0.72732 0.77641 1.00000
 C1264 C 0.72184 0.77972 1.04081
 H1265 H 0.73513 0.76637 1.08487
 H1266 H 0.76506 0.73385 1.08483
 H1267 H 0.74235 0.76760 0.99996
 H1268 H 0.81315 0.69346 1.02181
 H1269 H 0.81303 0.69341 0.97792
 H1270 H 0.76457 0.73363 0.91508
 H1271 H 0.73462 0.76614 0.91512
 H1272 H 0.68668 0.80660 1.02204
 H1273 H 0.75733 0.73238 0.99998
 H1274 H 0.68654 0.80653 0.97815
 C1275 C 0.74214 0.25831 0.42981
 C1276 C 0.75773 0.24135 0.42982
 C1277 C 0.76233 0.23647 0.45200
 N1278 N 0.74999 0.24991 0.46544
 C1279 C 0.73761 0.26328 0.45197
 C1280 C 0.77823 0.22034 0.45922
 C1281 C 0.78364 0.21580 0.48180
 C1282 C 0.80147 0.20234 0.48856
 C1283 C 0.80150 0.20239 0.51148
 C1284 C 0.78369 0.21587 0.51823
 N1285 N 0.77267 0.22366 0.50002
 C1286 C 0.77835 0.22051 0.54081
 C1287 C 0.76248 0.23669 0.54801
 C1288 C 0.75795 0.24166 0.57018
 C1289 C 0.74237 0.25864 0.57016
 C1290 C 0.73778 0.26352 0.54798
 N1291 N 0.75011 0.25008 0.53454
 C1292 C 0.72188 0.27966 0.54076
 C1293 C 0.71646 0.28419 0.51818
 C1294 C 0.69863 0.29765 0.51143
 C1295 C 0.69859 0.29759 0.48851
 C1296 C 0.71640 0.28410 0.48175
 N1297 N 0.72743 0.27633 0.49996
 C1298 C 0.72174 0.27946 0.45918
 H1299 H 0.73488 0.26600 0.41510
 H1300 H 0.76494 0.23360 0.41513
 H1301 H 0.74249 0.26757 0.49995
 H1302 H 0.81345 0.19360 0.47807
 H1303 H 0.81352 0.19369 0.52196
 H1304 H 0.76521 0.23397 0.58488
 H1305 H 0.73516 0.26639 0.58485
 H1306 H 0.68657 0.30628 0.47803
 H1307 H 0.75761 0.23241 0.50003
 H1308 H 0.68665 0.30639 0.52192
 C1309 C 0.74230 0.24155 -0.07046
 C1310 C 0.75775 0.25860 -0.07049
 C1311 C 0.76230 0.26352 -0.04833
 N1312 N 0.75007 0.25004 -0.03484
 C1313 C 0.73781 0.23658 -0.04827
 C1314 C 0.77807 0.27974 -0.04115
 C1315 C 0.78346 0.28431 -0.01858
 C1316 C 0.80119 0.29783 -0.01187
 C1317 C 0.80125 0.29778 0.01105
 C1318 C 0.78354 0.28423 0.01785
 N1319 N 0.77255 0.27641 -0.00034
 C1320 C 0.77824 0.27958 0.04044
 C1321 C 0.76247 0.26337 0.04769
 C1322 C 0.75797 0.25840 0.06987
 C1323 C 0.74249 0.24139 0.06990
 C1324 C 0.73792 0.23649 0.04774
 N1325 N 0.75018 0.24994 0.03426
 C1326 C 0.72212 0.22030 0.04056
 C1327 C 0.71676 0.21570 0.01799
 C1328 C 0.69903 0.20217 0.01127
 C1329 C 0.69902 0.20218 -0.01165
 C1330 C 0.71674 0.21572 -0.01844
 N1331 N 0.72770 0.22357 -0.00024
 C1332 C 0.72206 0.22035 -0.04103
 H1333 H 0.73511 0.23382 -0.08514
 H1334 H 0.76490 0.26637 -0.08520
 H1335 H 0.74269 0.23238 -0.00028
 H1336 H 0.81311 0.30662 -0.02238
 H1337 H 0.81321 0.30652 0.02151
 H1338 H 0.76518 0.26612 0.08455
 H1339 H 0.73532 0.23364 0.08462
 H1340 H 0.68707 0.19343 -0.02211
 H1341 H 0.75756 0.26760 -0.00030
 H1342 H 0.68710 0.19341 0.02178
 C1343 C 0.74204 0.74171 0.43008
 C1344 C 0.75743 0.75880 0.43004
 C1345 C 0.76194 0.76378 0.45220
 N1346 N 0.74974 0.75028 0.46569
 C1347 C 0.73754 0.73676 0.45227
 C1348 C 0.77764 0.78006 0.45937
 C1349 C 0.78296 0.78471 0.48193
 C1350 C 0.80064 0.79832 0.48865
 C1351 C 0.80064 0.79833 0.51157
 C1352 C 0.78297 0.78473 0.51836
 N1353 N 0.77205 0.77682 0.50017
 C1354 C 0.77765 0.78010 0.54095
 C1355 C 0.76195 0.76383 0.54821
 C1356 C 0.75744 0.75889 0.57039
 C1357 C 0.74204 0.74180 0.57044
 C1358 C 0.73753 0.73683 0.54828
 N1359 N 0.74974 0.75032 0.53479
 C1360 C 0.72183 0.72055 0.54111
 C1361 C 0.71651 0.71589 0.51854
 C1362 C 0.69884 0.70228 0.51182
 C1363 C 0.69885 0.70226 0.48891
 C1364 C 0.71652 0.71586 0.48211
 N1365 N 0.72743 0.72378 0.50030
 C1366 C 0.72184 0.72048 0.45952
 H1367 H 0.73490 0.73392 0.41540
 H1368 H 0.76458 0.76657 0.41532
 H1369 H 0.74239 0.73265 0.50027
 H1370 H 0.81254 0.80711 0.47813
 H1371 H 0.81255 0.80713 0.52202
 H1372 H 0.76459 0.76667 0.58507
 H1373 H 0.73489 0.73404 0.58515
 H1374 H 0.68694 0.69345 0.47844
 H1375 H 0.75708 0.76795 0.50020
 H1376 H 0.68693 0.69348 0.52233
 C1377 C 1.07097 0.25873 0.24233
 C1378 C 1.07100 0.24185 0.25787
 C1379 C 1.04863 0.23689 0.26237
 N1380 N 1.03503 0.25018 0.25002
 C1381 C 1.04858 0.26355 0.23773
 C1382 C 1.04138 0.22080 0.27817
 C1383 C 1.01860 0.21618 0.28348
 C1384 C 1.01178 0.20280 0.30119
 C1385 C 0.98865 0.20273 0.30115
 C1386 C 0.98183 0.21607 0.28340
 N1387 N 1.00021 0.22387 0.27250
 C1388 C 0.95904 0.22055 0.27799
 C1389 C 0.95173 0.23657 0.26213
 C1390 C 0.92934 0.24139 0.25752
 C1391 C 0.92931 0.25825 0.24197
 C1392 C 0.95168 0.26321 0.23747
 N1393 N 0.96529 0.24993 0.24983
 C1394 C 0.95894 0.27928 0.22165
 C1395 C 0.98172 0.28392 0.21636
 C1396 C 0.98853 0.29730 0.19864
 C1397 C 1.01167 0.29739 0.19871
 C1398 C 1.01849 0.28406 0.21646
 N1399 N 1.00010 0.27624 0.22735
 C1400 C 1.04128 0.27958 0.22188
 H1401 H 1.08579 0.26644 0.23516
 H1402 H 1.08585 0.23422 0.26511
 H1403 H 1.00009 0.26759 0.24233
 H1404 H 1.02237 0.19419 0.31315
 H1405 H 0.97807 0.19406 0.31306
 H1406 H 0.91452 0.23368 0.26470
 H1407 H 0.91447 0.26587 0.23472
 H1408 H 1.02225 0.30606 0.18680
 H1409 H 1.00022 0.23253 0.25752
 H1410 H 0.97795 0.30590 0.18667
 C1411 C 0.57081 0.25827 0.74228
 C1412 C 0.57086 0.24136 0.75777
 C1413 C 0.54849 0.23640 0.76229
 N1414 N 0.53488 0.24973 0.75000
 C1415 C 0.54842 0.26313 0.73772
 C1416 C 0.54125 0.22028 0.77806
 C1417 C 0.51847 0.21565 0.78339
 C1418 C 0.51168 0.20224 0.80108
 C1419 C 0.48854 0.20218 0.80106
 C1420 C 0.48170 0.21556 0.78336
 N1421 N 0.50007 0.22339 0.77245
 C1422 C 0.45891 0.22008 0.77800
 C1423 C 0.45159 0.23616 0.76220
 C1424 C 0.42920 0.24102 0.75765
 C1425 C 0.42916 0.25793 0.74216
 C1426 C 0.45153 0.26289 0.73764
 N1427 N 0.46514 0.24956 0.74993
 C1428 C 0.45877 0.27902 0.72187
 C1429 C 0.48154 0.28364 0.71654
 C1430 C 0.48834 0.29707 0.69886
 C1431 C 0.51147 0.29713 0.69888
 C1432 C 0.51831 0.28373 0.71657
 N1433 N 0.49994 0.27590 0.72748
 C1434 C 0.54111 0.27921 0.72193
 H1435 H 0.58563 0.26600 0.73510
 H1436 H 0.58571 0.23370 0.76496
 H1437 H 0.49995 0.26720 0.74242
 H1438 H 0.52228 0.19359 0.81301
 H1439 H 0.47797 0.19348 0.81297
 H1440 H 0.41438 0.23329 0.76483
 H1441 H 0.41431 0.26559 0.73496
 H1442 H 0.52204 0.30583 0.68698
 H1443 H 0.50007 0.23208 0.75750
 H1444 H 0.47774 0.30573 0.68694
 C1445 C 0.07097 0.24149 0.74243
 C1446 C 0.07093 0.25845 0.75784
 C1447 C 0.04854 0.26343 0.76230
 N1448 N 0.03499 0.25006 0.75005
 C1449 C 0.04860 0.23663 0.73786
 C1450 C 0.04122 0.27959 0.77799
 C1451 C 0.01842 0.28424 0.78326
 C1452 C 0.01155 0.29770 0.80088
 C1453 C -0.01158 0.29776 0.80082
 C1454 C -0.01835 0.28433 0.78317
 N1455 N 0.00006 0.27648 0.77232
 C1456 C -0.04112 0.27980 0.77779
 C1457 C -0.04836 0.26369 0.76205
 C1458 C -0.07073 0.25883 0.75747
 C1459 C -0.07069 0.24188 0.74206
 C1460 C -0.04830 0.23691 0.73760
 N1461 N -0.03475 0.25026 0.74986
 C1462 C -0.04098 0.22075 0.72191
 C1463 C -0.01818 0.21609 0.71665
 C1464 C -0.01131 0.20262 0.69903
 C1465 C 0.01183 0.20255 0.69910
 C1466 C 0.01859 0.21598 0.71675
 N1467 N 0.00018 0.22385 0.72758
 C1468 C 0.04137 0.22051 0.72213
 H1469 H 0.08582 0.23375 0.73531
 H1470 H 0.08574 0.26612 0.76503
 H1471 H 0.00013 0.23259 0.74249
 H1472 H 0.02210 0.30637 0.81278
 H1473 H -0.02220 0.30648 0.81268
 H1474 H -0.08558 0.26657 0.76459
 H1475 H -0.08550 0.23421 0.73486
 H1476 H 0.02244 0.19381 0.68726
 H1477 H 0.00011 0.26775 0.75741
 H1478 H -0.02186 0.19394 0.68713
 C1479 C 0.42914 0.25816 0.25772
 C1480 C 0.42919 0.24129 0.24223
 C1481 C 0.45158 0.23641 0.23768
 N1482 N 0.46513 0.24975 0.24996
 C1483 C 0.45151 0.26308 0.26225
 C1484 C 0.45891 0.22035 0.22188
 C1485 C 0.48171 0.21581 0.21651
 C1486 C 0.48857 0.20246 0.19881
 C1487 C 0.51170 0.20248 0.19879
 C1488 C 0.51848 0.21585 0.21649
 N1489 N 0.50007 0.22358 0.22743
 C1490 C 0.54125 0.22043 0.22182
 C1491 C 0.54848 0.23649 0.23761
 C1492 C 0.57085 0.24140 0.24214
 C1493 C 0.57080 0.25827 0.25764
 C1494 C 0.54841 0.26315 0.26220
 N1495 N 0.53486 0.24981 0.24991
 C1496 C 0.54108 0.27920 0.27800
 C1497 C 0.51828 0.28374 0.28336
 C1498 C 0.51142 0.29710 0.30106
 C1499 C 0.48829 0.29709 0.30107
 C1500 C 0.48151 0.28372 0.28337
 N1501 N 0.49992 0.27598 0.27244
 C1502 C 0.45874 0.27914 0.27804
 H1503 H 0.41429 0.26583 0.26492
 H1504 H 0.41438 0.23360 0.23504
 H1505 H 0.49995 0.26731 0.25749
 H1506 H 0.47801 0.19381 0.18690
 H1507 H 0.52231 0.19385 0.18686
 H1508 H 0.58571 0.23374 0.23493
 H1509 H 0.58561 0.26596 0.26483
 H1510 H 0.47768 0.30572 0.31299
 H1511 H 0.50004 0.23225 0.24238
 H1512 H 0.52198 0.30575 0.31297
 C1513 C 0.92879 0.75852 0.74194
 C1514 C 0.92878 0.74158 0.75740
 C1515 C 0.95116 0.73665 0.76194
 N1516 N 0.96475 0.75003 0.74969
 C1517 C 0.95117 0.76342 0.73742
 C1518 C 0.95843 0.72053 0.77771
 C1519 C 0.98122 0.71593 0.78305
 C1520 C 0.98802 0.70251 0.80074
 C1521 C 1.01116 0.70250 0.80075
 C1522 C 1.01798 0.71590 0.78306
 N1523 N 0.99961 0.72370 0.77214
 C1524 C 1.04077 0.72047 0.77773
 C1525 C 1.04806 0.73657 0.76196
 C1526 C 1.07044 0.74146 0.75743
 C1527 C 1.07044 0.75840 0.74197
 C1528 C 1.04807 0.76334 0.73744
 N1529 N 1.03448 0.74997 0.74970
 C1530 C 1.04080 0.77948 0.72169
 C1531 C 1.01801 0.78409 0.71636
 C1532 C 1.01120 0.79756 0.69870
 C1533 C 0.98807 0.79758 0.69870
 C1534 C 0.98124 0.78413 0.71635
 N1535 N 0.99962 0.77630 0.72726
 C1536 C 0.95845 0.77955 0.72168
 H1537 H 0.91396 0.76623 0.73476
 H1538 H 0.91395 0.73388 0.76457
 H1539 H 0.99961 0.76755 0.74218
 H1540 H 0.97743 0.69385 0.81266
 H1541 H 1.02173 0.69381 0.81267
 H1542 H 1.08527 0.73374 0.76461
 H1543 H 1.08528 0.76609 0.73480
 H1544 H 0.97749 0.80629 0.68681
 H1545 H 0.99962 0.73240 0.75719
 H1546 H 1.02180 0.80625 0.68682
 C1547 C 0.57098 0.74169 0.25828
 C1548 C 0.57101 0.75859 0.24277
 C1549 C 0.54864 0.76347 0.23815
 N1550 N 0.53504 0.75011 0.25040
 C1551 C 0.54859 0.73677 0.26274
 C1552 C 0.54140 0.77955 0.22232
 C1553 C 0.51863 0.78410 0.21690
 C1554 C 0.51185 0.79747 0.19916
 C1555 C 0.48872 0.79746 0.19909
 C1556 C 0.48186 0.78409 0.21679
 N1557 N 0.50021 0.77634 0.22778
 C1558 C 0.45906 0.77951 0.22207
 C1559 C 0.45175 0.76343 0.23784
 C1560 C 0.42936 0.75852 0.24232
 C1561 C 0.42933 0.74161 0.25781
 C1562 C 0.45170 0.73671 0.26242
 N1563 N 0.46530 0.75007 0.25017
 C1564 C 0.45894 0.72061 0.27822
 C1565 C 0.48172 0.71605 0.28364
 C1566 C 0.48849 0.70264 0.30136
 C1567 C 0.51162 0.70266 0.30143
 C1568 C 0.51848 0.71608 0.28377
 N1569 N 0.50013 0.72385 0.27279
 C1570 C 0.54128 0.72067 0.27850
 H1571 H 0.58580 0.73401 0.26552
 H1572 H 0.58586 0.76628 0.23563
 H1573 H 0.50018 0.73256 0.25784
 H1574 H 0.52247 0.80613 0.18726
 H1575 H 0.47817 0.80611 0.18713
 H1576 H 0.41454 0.76620 0.23508
 H1577 H 0.41448 0.73392 0.26496
 H1578 H 0.52217 0.69399 0.31338
 H1579 H 0.50017 0.76766 0.24275
 H1580 H 0.47787 0.69396 0.31323
 C1581 C -0.07120 0.74176 0.24242
 C1582 C -0.07122 0.75866 0.25790
 C1583 C -0.04885 0.76353 0.26243
 N1584 N -0.03525 0.75017 0.25015
 C1585 C -0.04881 0.73684 0.23788
 C1586 C -0.04160 0.77961 0.27820
 C1587 C -0.01882 0.78414 0.28355
 C1588 C -0.01202 0.79752 0.30123
 C1589 C 0.01111 0.79748 0.30124
 C1590 C 0.01795 0.78408 0.28356
 N1591 N -0.00042 0.77634 0.27264
 C1592 C 0.04075 0.77947 0.27823
 C1593 C 0.04805 0.76339 0.26246
 C1594 C 0.07043 0.75845 0.25793
 C1595 C 0.07046 0.74158 0.24243
 C1596 C 0.04809 0.73671 0.23789
 N1597 N 0.03449 0.75007 0.25017
 C1598 C 0.04083 0.72067 0.22209
 C1599 C 0.01805 0.71614 0.21674
 C1600 C 0.01126 0.70279 0.19904
 C1601 C -0.01188 0.70282 0.19904
 C1602 C -0.01872 0.71618 0.21675
 N1603 N -0.00035 0.72391 0.22768
 C1604 C -0.04151 0.72076 0.22209
 H1605 H -0.08602 0.73410 0.23523
 H1606 H -0.08607 0.76635 0.26508
 H1607 H -0.00037 0.73256 0.24263
 H1608 H -0.02263 0.80620 0.31313
 H1609 H 0.02168 0.80612 0.31315
 H1610 H 0.08526 0.76611 0.26512
 H1611 H 0.08530 0.73388 0.23525
 H1612 H -0.02245 0.69419 0.18712
 H1613 H -0.00039 0.76765 0.25771
 H1614 H 0.02186 0.69414 0.18711
 C1615 C 0.42898 0.74237 0.74203
 C1616 C 0.42894 0.75932 0.75744
 C1617 C 0.45131 0.76416 0.76203
 N1618 N 0.46492 0.75072 0.74985
 C1619 C 0.45136 0.73737 0.73759
 C1620 C 0.45855 0.78026 0.77778
 C1621 C 0.48132 0.78476 0.78319
 C1622 C 0.48808 0.79815 0.80087
 C1623 C 0.51122 0.79806 0.80096
 C1624 C 0.51809 0.78460 0.78333
 N1625 N 0.49974 0.77689 0.77236
 C1626 C 0.54089 0.77993 0.77810
 C1627 C 0.54821 0.76378 0.76239
 C1628 C 0.57060 0.75879 0.75794
 C1629 C 0.57063 0.74185 0.74251
 C1630 C 0.54826 0.73702 0.73792
 N1631 N 0.53465 0.75044 0.75011
 C1632 C 0.54103 0.72092 0.72217
 C1633 C 0.51825 0.71641 0.71677
 C1634 C 0.51149 0.70298 0.69912
 C1635 C 0.48835 0.70306 0.69905
 C1636 C 0.48148 0.71653 0.71666
 N1637 N 0.49984 0.72428 0.72760
 C1638 C 0.45868 0.72119 0.72191
 H1639 H 0.41416 0.73470 0.73483
 H1640 H 0.41409 0.76708 0.76455
 H1641 H 0.49979 0.73302 0.74251
 H1642 H 0.47746 0.80688 0.81272
 H1643 H 0.52176 0.80670 0.81289
 H1644 H 0.58541 0.76644 0.76515
 H1645 H 0.58548 0.73410 0.73539
 H1646 H 0.47780 0.69439 0.68714
 H1647 H 0.49979 0.76817 0.75744
 H1648 H 0.52210 0.69424 0.68728
 C1649 C 0.42652 0.30071 0.30012
 C1650 C 0.44140 0.29110 0.29030
 C1651 C 0.42634 0.80189 0.79982
 C1652 C 0.44122 0.79227 0.79000
 C1653 C -0.07335 0.30145 0.79978
 C1654 C -0.05846 0.29181 0.78999
 C1655 C -0.07378 0.80125 0.30025
 C1656 C -0.05891 0.79160 0.29044
 C1657 C 0.57339 0.69905 0.30066
 C1658 C 0.55856 0.70869 0.29081
 C1659 C 0.57346 0.19875 0.80016
 C1660 C 0.55858 0.20834 0.79034
 C1661 C 1.07292 0.69891 0.79988
 C1662 C 1.05807 0.70850 0.79002
 C1663 C 1.07356 0.19926 0.30030
 C1664 C 1.05869 0.20887 0.29047
 C1665 C 0.57322 0.30087 0.69987
 C1666 C 0.55838 0.29123 0.70968
 C1667 C 0.57359 0.80110 0.20026
 C1668 C 0.55872 0.79150 0.21008
 C1669 C 1.07340 0.30121 0.19978
 C1670 C 1.05856 0.29157 0.20962
 C1671 C 1.07298 0.80109 0.69968
 C1672 C 1.05811 0.79147 0.70946
 C1673 C 0.42660 0.69957 0.69987
 C1674 C 0.44142 0.70921 0.70967
 C1675 C 0.42681 0.19879 0.19979
 C1676 C 0.44164 0.20840 0.20961
 C1677 C -0.07362 0.69922 0.20001
 C1678 C -0.05879 0.70882 0.20983
 C1679 C -0.07309 0.19917 0.69986
 C1680 C -0.05825 0.20878 0.70966
 C1681 C 0.30086 0.42697 0.29999
 C1682 C 0.29130 0.44181 0.29012
 C1683 C 0.30164 -0.07401 0.80048
 C1684 C 0.29197 -0.05916 0.79071
 C1685 C 0.80128 0.42648 0.80036
 C1686 C 0.79164 0.44131 0.79054
 C1687 C 0.80135 -0.07330 0.30079
 C1688 C 0.79177 -0.05847 0.29091
 C1689 C 0.30156 0.57307 0.69997
 C1690 C 0.29194 0.55827 0.70984
 C1691 C 0.30131 1.07271 0.19966
 C1692 C 0.29166 1.05791 0.20948
 C1693 C 0.80120 0.57289 0.19987
 C1694 C 0.79159 0.55808 0.20970
 C1695 C 0.80105 1.07349 0.70036
 C1696 C 0.79141 1.05871 0.71022
 C1697 C 0.69911 0.57290 0.30058
 C1698 C 0.70869 0.55809 0.29069
 C1699 C 0.69867 1.07365 0.80085
 C1700 C 0.70829 1.05883 0.79100
 C1701 C 0.19928 0.57333 0.80049
 C1702 C 0.20890 0.55849 0.79068
 C1703 C 0.19908 1.07290 0.30024
 C1704 C 0.20865 1.05808 0.29036
 C1705 C 0.69890 0.42674 0.70009
 C1706 C 0.70850 0.44152 0.70994
 C1707 C 0.69932 -0.07313 0.20019
 C1708 C 0.70893 -0.05834 0.21002
 C1709 C 0.19883 0.42736 0.19941
 C1710 C 0.20845 0.44214 0.20923
 C1711 C 0.19913 -0.07351 0.70030
 C1712 C 0.20876 -0.05876 0.71017
 C1713 C 0.30007 0.30124 0.42743
 C1714 C 0.29022 0.29154 0.44214
 C1715 C 0.30135 0.80068 -0.07320
 C1716 C 0.29168 0.79081 -0.05848
 C1717 C 0.80013 0.30156 -0.07302
 C1718 C 0.79030 0.29184 -0.05831
 C1719 C 0.79973 0.80185 0.42748
 C1720 C 0.78988 0.79214 0.44220
 C1721 C 0.69966 0.30141 0.57258
 C1722 C 0.70955 0.29171 0.55789
 C1723 C 0.69973 0.80151 1.07268
 C1724 C 0.70957 0.79180 1.05796
 C1725 C 0.19980 0.30146 1.07247
 C1726 C 0.20969 0.29174 1.05779
 C1727 C 0.19960 0.80138 0.57257
 C1728 C 0.20947 0.79168 0.55787
 C1729 C 0.30043 0.69869 0.57254
 C1730 C 0.29050 0.70835 0.55785
 C1731 C 0.30054 0.19864 1.07255
 C1732 C 0.29064 0.20833 1.05786
 C1733 C 0.80036 0.69864 1.07253
 C1734 C 0.79045 0.70833 1.05784
 C1735 C 0.80060 0.19883 0.57265
 C1736 C 0.79070 0.20850 0.55795
 C1737 C 0.69977 0.69864 0.42775
 C1738 C 0.70960 0.70837 0.44242
 C1739 C 0.69994 0.19857 -0.07280
 C1740 C 0.70979 0.20828 -0.05813
 C1741 C 0.19907 0.69973 -0.07289
 C1742 C 0.20875 0.70963 -0.05824
 C1743 C 0.19976 0.19839 0.42763
 C1744 C 0.20963 0.20806 0.44232
 C1745 C 0.30106 0.42700 0.69975
 C1746 C 0.29149 0.44184 0.70960
 C1747 C 0.30070 0.92666 0.19920
 C1748 C 0.29109 0.94148 0.20904
 C1749 C 0.80095 0.42685 0.19951
 C1750 C 0.79134 0.44165 0.20937
 C1751 C 0.80060 0.92747 0.70004
 C1752 C 0.79103 0.94228 0.70992
 C1753 C 0.69882 0.57280 0.70016
 C1754 C 0.70843 0.55796 0.70999
 C1755 C 0.69942 0.07291 0.19992
 C1756 C 0.70902 0.05809 0.20979
 C1757 C 0.19921 0.57344 0.19920
 C1758 C 0.20881 0.55858 0.20901
 C1759 C 0.19931 0.07252 0.70042
 C1760 C 0.20890 0.05767 0.71025
 C1761 C 0.30117 0.57302 0.29985
 C1762 C 0.29159 0.55825 0.28998
 C1763 C 0.30161 0.07208 0.80071
 C1764 C 0.29199 0.05729 0.79089
 C1765 C 0.80115 0.57255 0.80040
 C1766 C 0.79155 0.55775 0.79059
 C1767 C 0.80155 0.07276 0.30041
 C1768 C 0.79195 0.05796 0.29059
 C1769 C 0.69865 0.42685 0.30003
 C1770 C 0.70828 0.44166 0.29021
 C1771 C 0.69835 0.92759 0.80059
 C1772 C 0.70798 0.94240 0.79077
 C1773 C 0.19878 0.42727 0.80025
 C1774 C 0.20843 0.44206 0.79043
 C1775 C 0.19856 0.92686 0.29989
 C1776 C 0.20817 0.94165 0.29003
 C1777 C 0.42657 0.30059 0.69979
 C1778 C 0.44144 0.29097 0.70961
 C1779 C 0.42696 0.80105 0.19983
 C1780 C 0.44179 0.79146 0.20972
 C1781 C 0.92675 0.30077 0.19948
 C1782 C 0.94162 0.29119 0.20933
 C1783 C 0.92630 0.80125 0.69965
 C1784 C 0.94116 0.79158 0.70945
 C1785 C 0.57318 0.30076 0.30008
 C1786 C 0.55835 0.29115 0.29026
 C1787 C 0.57299 0.80143 0.80024
 C1788 C 0.55816 0.79185 0.79039
 C1789 C 0.07332 0.30115 0.80007
 C1790 C 0.05849 0.29155 0.79025
 C1791 C 0.07288 0.80101 0.30029
 C1792 C 0.05803 0.79141 0.29049
 C1793 C 0.57323 0.69922 0.70020
 C1794 C 0.55836 0.70889 0.70998
 C1795 C 0.57348 0.19890 0.19972
 C1796 C 0.55859 0.20849 0.20954
 C1797 C 0.07302 0.69917 0.19991
 C1798 C 0.05815 0.70874 0.20978
 C1799 C 0.07358 0.19880 0.70019
 C1800 C 0.05870 0.20847 0.70995
 C1801 C 0.42674 0.69899 0.30021
 C1802 C 0.44162 0.70862 0.29043
 C1803 C 0.42681 0.19845 0.80011
 C1804 C 0.44163 0.20809 0.79027
 C1805 C 0.92629 0.69894 0.79981
 C1806 C 0.94113 0.70856 0.78997
 C1807 C 0.92691 0.19895 0.30010
 C1808 C 0.94175 0.20857 0.29027
 C1809 C 0.30018 0.30116 0.57268
 C1810 C 0.29031 0.29146 0.55800
 C1811 C 0.30135 0.80077 0.07206
 C1812 C 0.29168 0.79089 0.05739
 C1813 C 0.80044 0.30127 0.07222
 C1814 C 0.79056 0.29160 0.05755
 C1815 C 0.79977 0.80189 0.57272
 C1816 C 0.78991 0.79219 0.55805
 C1817 C 0.30012 0.69844 0.42730
 C1818 C 0.29022 0.70813 0.44199
 C1819 C 0.30032 0.19830 0.92734
 C1820 C 0.29043 0.20804 0.94201
 C1821 C 0.80003 0.69852 0.92729
 C1822 C 0.79016 0.70822 0.94199
 C1823 C 0.80048 0.19860 0.42742
 C1824 C 0.79057 0.20829 0.44210
 C1825 C 0.69945 0.30112 0.42734
 C1826 C 0.70937 0.29145 0.44204
 C1827 C 0.69932 0.80137 0.92744
 C1828 C 0.70923 0.79166 0.94211
 C1829 C 0.19964 0.30120 0.92725
 C1830 C 0.20953 0.29150 0.94194
 C1831 C 0.19935 0.80121 0.42733
 C1832 C 0.20925 0.79152 0.44202
 C1833 C 0.69973 0.69876 0.57298
 C1834 C 0.70958 0.70847 0.55827
 C1835 C 0.69998 0.19856 0.07244
 C1836 C 0.70984 0.20825 0.05772
 C1837 C 0.19907 0.69985 0.07233
 C1838 C 0.20874 0.70972 0.05761
 C1839 C 0.20000 0.19817 0.57290
 C1840 C 0.20984 0.20788 0.55818
   
