data_POSCAR
  _audit_creation_date              2014-09-24
  _audit_creation_method            'ToBaCCo'
  _symmetry_space_group_name_H-M    'P1'
  _symmetry_Int_Tables_number       1
  _symmetry_cell_setting            triclinic
  loop_
  _symmetry_equiv_pos_as_xyz
 x,y,z
_cell_length_a 59.3368
_cell_length_b 59.3284
_cell_length_c 59.4192
_cell_angle_alpha 90.016600
_cell_angle_beta 90.014700
_cell_angle_gamma 90.018700
loop_
  _atom_site_label
  _atom_site_type_symbol
  _atom_site_fract_x
  _atom_site_fract_y
  _atom_site_fract_z
C1 C 0.36287 0.33494 0.33544
 N2 N 0.35350 0.32559 0.35406
 C3 C 0.33490 0.33500 0.36344
 N4 N 0.32556 0.35366 0.35410
 C5 C 0.33492 0.36301 0.33548
 N6 N 0.35353 0.35360 0.32610
 C7 C 0.36341 0.83518 -0.16531
 N8 N 0.35393 0.85375 -0.17472
 C9 C 0.33527 0.86308 -0.16536
 N10 N 0.32598 0.85373 -0.14669
 C11 C 0.33545 0.83516 -0.13729
 N12 N 0.35411 0.82584 -0.14665
 C13 C 0.86265 0.33551 -0.16533
 N14 N 0.85330 0.32618 -0.14669
 C15 C 0.83470 0.33560 -0.13730
 N16 N 0.82536 0.35425 -0.14665
 C17 C 0.83471 0.36359 -0.16530
 N18 N 0.85331 0.35416 -0.17468
 C19 C 0.86353 0.83466 0.33504
 N20 N 0.85411 0.85325 0.32563
 C21 C 0.83550 0.86265 0.33500
 N22 N 0.82620 0.85335 0.35368
 C23 C 0.83561 0.83477 0.36310
 N24 N 0.85423 0.82537 0.35372
 C25 C 0.63718 0.66509 0.33523
 N26 N 0.64653 0.67438 0.35389
 C27 C 0.66513 0.66494 0.36326
 N28 N 0.67447 0.64631 0.35386
 C29 C 0.66512 0.63701 0.33520
 N30 N 0.64652 0.64645 0.32583
 C31 C 0.63664 0.16496 -0.16565
 N32 N 0.64611 0.14638 -0.17503
 C33 C 0.66478 0.13707 -0.16567
 N34 N 0.67407 0.14644 -0.14700
 C35 C 0.66461 0.16501 -0.13761
 N36 N 0.64595 0.17432 -0.14698
 C37 C 0.13748 0.66444 -0.16505
 N38 N 0.14686 0.67379 -0.14643
 C39 C 0.16547 0.66439 -0.13706
 N40 N 0.17480 0.64573 -0.14641
 C41 C 0.16542 0.63637 -0.16504
 N42 N 0.14681 0.64578 -0.17441
 C43 C 0.13676 0.16497 0.33448
 N44 N 0.14620 0.14637 0.32508
 C45 C 0.16479 0.13697 0.33449
 N46 N 0.17405 0.14626 0.35321
 C47 C 0.16463 0.16485 0.36261
 N48 N 0.14603 0.17425 0.35320
 C49 C 0.63699 0.33488 0.66463
 N50 N 0.64636 0.35351 0.67401
 C51 C 0.66499 0.36292 0.66466
 N52 N 0.67434 0.35358 0.64602
 C53 C 0.66497 0.33495 0.63663
 N54 N 0.64635 0.32555 0.64599
 C55 C 0.63671 0.83523 1.16535
 N56 N 0.64614 0.85386 1.17471
 C57 C 0.66478 0.86321 1.16534
 N58 N 0.67409 0.85384 1.14670
 C59 C 0.66467 0.83522 1.13733
 N60 N 0.64603 0.82587 1.14671
 C61 C 0.13665 0.33467 1.16513
 N62 N 0.14601 0.32534 1.14649
 C63 C 0.16460 0.33477 1.13710
 N64 N 0.17394 0.35343 1.14645
 C65 C 0.16459 0.36277 1.16509
 N66 N 0.14599 0.35334 1.17447
 C67 C 0.13679 0.83494 0.66545
 N68 N 0.14624 0.85352 0.67487
 C69 C 0.16487 0.86291 0.66550
 N70 N 0.17415 0.85361 0.64681
 C71 C 0.16471 0.83503 0.63739
 N72 N 0.14608 0.82564 0.64676
 C73 C 0.36294 0.66505 0.66500
 N74 N 0.35357 0.64641 0.67436
 C75 C 0.33496 0.63700 0.66498
 N76 N 0.32561 0.64634 0.64634
 C77 C 0.33497 0.66498 0.63698
 N78 N 0.35359 0.67438 0.64636
 C79 C 0.36311 0.16492 1.16544
 N80 N 0.35367 0.14634 1.17485
 C81 C 0.33503 0.13696 1.16549
 N82 N 0.32572 0.14628 1.14682
 C83 C 0.33515 0.16486 1.13740
 N84 N 0.35380 0.17423 1.14676
 C85 C 0.86267 0.66444 1.16514
 N86 N 0.85330 0.67380 1.14652
 C87 C 0.83468 0.66440 1.13714
 N88 N 0.82532 0.64575 1.14649
 C89 C 0.83469 0.63639 1.16512
 N90 N 0.85331 0.64579 1.17449
 C91 C 0.86310 0.16490 0.66510
 N92 N 0.85365 0.14633 0.67451
 C93 C 0.83501 0.13695 0.66514
 N94 N 0.82572 0.14625 0.64645
 C95 C 0.83517 0.16482 0.63703
 N96 N 0.85381 0.17419 0.64641
 C97 C 0.33482 0.36270 0.66527
 N98 N 0.35347 0.35333 0.67462
 C99 C 0.36283 0.33469 0.66527
 N100 N 0.35345 0.32531 0.64666
 C101 C 0.33481 0.33467 0.63730
 N102 N 0.32545 0.35331 0.64666
 C103 C 0.33528 0.86400 0.16476
 N104 N 0.35394 0.85465 0.17410
 C105 C 0.36332 0.83603 0.16472
 N106 N 0.35394 0.82665 0.14611
 C107 C 0.33528 0.83599 0.13677
 N108 N 0.32590 0.85462 0.14615
 C109 C 0.83558 0.36292 0.16456
 N110 N 0.85422 0.35353 0.17391
 C111 C 0.86356 0.33487 0.16456
 N112 N 0.85416 0.32550 0.14596
 C113 C 0.83552 0.33488 0.13660
 N114 N 0.82619 0.35354 0.14596
 C115 C 0.83549 0.86391 0.66513
 N116 N 0.85414 0.85456 0.67448
 C117 C 0.86351 0.83591 0.66514
 N118 N 0.85413 0.82651 0.64654
 C119 C 0.83548 0.83585 0.63718
 N120 N 0.82611 0.85450 0.64653
 C121 C 0.66490 0.63718 0.66537
 N122 N 0.64629 0.64657 0.67475
 C123 C 0.63692 0.66522 0.66541
 N124 N 0.64628 0.67458 0.64679
 C125 C 0.66489 0.66519 0.63740
 N126 N 0.67425 0.64654 0.64674
 C127 C 0.66451 0.13635 0.16430
 N128 N 0.67390 0.14574 0.14570
 C129 C 0.66453 0.16437 0.13634
 N130 N 0.64588 0.17373 0.14568
 C131 C 0.63649 0.16434 0.16427
 N132 N 0.64586 0.14571 0.17363
 C133 C 0.16472 0.63716 0.16476
 N134 N 0.14609 0.64655 0.17411
 C135 C 0.13674 0.66520 0.16477
 N136 N 0.14613 0.67457 0.14616
 C137 C 0.16476 0.66518 0.13680
 N138 N 0.17410 0.64653 0.14616
 C139 C 0.16447 0.13581 0.66492
 N140 N 0.14581 0.14517 0.67425
 C141 C 0.13642 0.16378 0.66487
 N142 N 0.14579 0.17315 0.64626
 C143 C 0.16444 0.16380 0.63692
 N144 N 0.17383 0.14519 0.64630
 C145 C 0.33525 0.63739 0.33499
 N146 N 0.35388 0.64678 0.32562
 C147 C 0.36324 0.66544 0.33497
 N148 N 0.35388 0.67480 0.35359
 C149 C 0.33526 0.66541 0.36296
 N150 N 0.32590 0.64676 0.35361
 C151 C 0.33520 0.13605 0.83538
 N152 N 0.32582 0.14543 0.85398
 C153 C 0.33519 0.16408 0.86335
 N154 N 0.35384 0.17344 0.85400
 C155 C 0.36322 0.16406 0.83540
 N156 N 0.35385 0.14542 0.82604
 C157 C 0.83549 0.63711 0.83537
 N158 N 0.85411 0.64650 0.82600
 C159 C 0.86346 0.66517 0.83533
 N160 N 0.85408 0.67456 0.85393
 C161 C 0.83546 0.66517 0.86331
 N162 N 0.82612 0.64650 0.85398
 C163 C 0.83545 0.13645 0.33472
 N164 N 0.85411 0.14581 0.32539
 C165 C 0.86352 0.16441 0.33479
 N166 N 0.85417 0.17377 0.35342
 C167 C 0.83550 0.16442 0.36275
 N168 N 0.82610 0.14582 0.35335
 C169 C 0.66499 0.36280 0.33465
 N170 N 0.67434 0.35343 0.35327
 C171 C 0.66496 0.33479 0.36262
 N172 N 0.64632 0.32542 0.35326
 C173 C 0.63696 0.33479 0.33464
 N174 N 0.64634 0.35343 0.32529
 C175 C 0.66496 0.86406 0.83546
 N176 N 0.67435 0.85468 0.85406
 C177 C 0.66498 0.83605 0.86343
 N178 N 0.64632 0.82669 0.85410
 C179 C 0.63691 0.83607 0.83551
 N180 N 0.64629 0.85470 0.82614
 C181 C 0.16444 0.36272 0.83529
 N182 N 0.17379 0.35332 0.85389
 C183 C 0.16444 0.33464 0.86318
 N184 N 0.14583 0.32525 0.85376
 C185 C 0.13647 0.33465 0.83515
 N186 N 0.14583 0.35334 0.82587
 C187 C 0.16468 0.86389 0.33520
 N188 N 0.14604 0.85449 0.32585
 C189 C 0.13667 0.83585 0.33522
 N190 N 0.14606 0.82650 0.35383
 C191 C 0.16470 0.83589 0.36318
 N192 N 0.17406 0.85453 0.35381
 O193 O 0.24750 1.02302 0.27858
 O194 O 0.27854 0.97906 0.24769
 O195 O 0.27857 1.02301 0.24774
 O196 O 0.24755 0.97907 0.27862
 O197 O 0.22131 0.97903 0.25232
 O198 O 0.25233 1.02301 0.22145
 O199 O 0.25229 0.97906 0.22140
 O200 O 0.22126 1.02298 0.25228
 Cu201 Cu 0.26567 1.00104 0.26579
 Cu202 Cu 0.23417 1.00102 0.23423
 C203 C 0.22911 1.03061 0.27067
 C204 C 0.27068 0.97145 0.22930
 C205 C 0.27072 1.03062 0.22936
 C206 C 0.22917 0.97143 0.27071
 O207 O 0.24743 0.52199 0.77895
 O208 O 0.27832 0.47798 0.74800
 O209 O 0.27835 0.52194 0.74795
 O210 O 0.24735 0.47803 0.77894
 O211 O 0.22103 0.47805 0.75272
 O212 O 0.25203 0.52193 0.72173
 O213 O 0.25200 0.47798 0.72178
 O214 O 0.22112 0.52200 0.75272
 Cu215 Cu 0.26550 0.49998 0.76609
 Cu216 Cu 0.23391 0.49999 0.73461
 C217 C 0.22904 0.52962 0.77108
 C218 C 0.27040 0.47036 0.72965
 C219 C 0.27045 0.52954 0.72958
 C220 C 0.22893 0.47043 0.77108
 O221 O 0.75227 -0.02253 0.27823
 O222 O 0.72124 0.02136 0.24727
 O223 O 0.72120 -0.02259 0.24737
 O224 O 0.75226 0.02142 0.27817
 O225 O 0.77849 0.02137 0.25188
 O226 O 0.74743 -0.02265 0.22108
 O227 O 0.74747 0.02130 0.22098
 O228 O 0.77850 -0.02257 0.25194
 Cu229 Cu 0.73411 -0.00058 0.26539
 Cu230 Cu 0.76560 -0.00064 0.23383
 C231 C 0.77065 -0.03015 0.27034
 C232 C 0.72909 0.02893 0.22887
 C233 C 0.72905 -0.03024 0.22900
 C234 C 0.77064 0.02902 0.27025
 O235 O 0.75254 0.47788 0.77879
 O236 O 0.72158 0.52187 0.74793
 O237 O 0.72160 0.47792 0.74781
 O238 O 0.75258 0.52184 0.77884
 O239 O 0.77887 0.52187 0.75261
 O240 O 0.74789 0.47798 0.72157
 O241 O 0.74787 0.52193 0.72169
 O242 O 0.77882 0.47791 0.75256
 Cu243 Cu 0.73444 0.49987 0.76597
 Cu244 Cu 0.76600 0.49992 0.73448
 C245 C 0.77093 0.47027 0.77091
 C246 C 0.72947 0.52952 0.72958
 C247 C 0.72949 0.47035 0.72942
 C248 C 0.77098 0.52946 0.77098
 O249 O 0.24750 0.47805 0.22153
 O250 O 0.27852 0.52205 0.25239
 O251 O 0.27846 0.47810 0.25250
 O252 O 0.24753 0.52200 0.22146
 O253 O 0.22124 0.52207 0.24769
 O254 O 0.25218 0.47818 0.27873
 O255 O 0.25223 0.52214 0.27863
 O256 O 0.22122 0.47812 0.24777
 Cu257 Cu 0.26564 0.50004 0.23434
 Cu258 Cu 0.23408 0.50014 0.26583
 C259 C 0.22910 0.47046 0.22942
 C260 C 0.27064 0.52972 0.27074
 C261 C 0.27057 0.47054 0.27088
 C262 C 0.22914 0.52964 0.22931
 O263 O 0.72148 0.97910 0.75239
 O264 O 0.75243 1.02303 0.72138
 O265 O 0.75246 0.97908 0.72146
 O266 O 0.72138 1.02305 0.75225
 O267 O 0.74764 1.02318 0.77853
 O268 O 0.77872 0.97918 0.74774
 O269 O 0.77868 1.02314 0.74766
 O270 O 0.74774 0.97922 0.77867
 Cu271 Cu 0.73431 1.00105 0.73424
 Cu272 Cu 0.76582 1.00119 0.76578
 C273 C 0.72936 0.97155 0.77079
 C274 C 0.77081 1.03069 0.72926
 C275 C 0.77085 0.97151 0.72938
 C276 C 0.72923 1.03073 0.77061
 O277 O 0.75258 0.52205 0.22109
 O278 O 0.72166 0.47804 0.25199
 O279 O 0.72166 0.52200 0.25209
 O280 O 0.75265 0.47809 0.22108
 O281 O 0.77896 0.47811 0.24732
 O282 O 0.74797 0.52199 0.27832
 O283 O 0.74796 0.47803 0.27822
 O284 O 0.77888 0.52207 0.24732
 Cu285 Cu 0.73450 0.50004 0.23393
 Cu286 Cu 0.76608 0.50005 0.26542
 C287 C 0.77097 0.52968 0.22897
 C288 C 0.72956 0.47042 0.27034
 C289 C 0.72956 0.52959 0.27046
 C290 C 0.77106 0.47050 0.22895
 O291 O 0.25240 -0.02312 0.77869
 O292 O 0.22132 0.02081 0.74782
 O293 O 0.22132 -0.02314 0.74784
 O294 O 0.25232 0.02083 0.77875
 O295 O 0.27855 0.02088 0.75246
 O296 O 0.24755 -0.02312 0.72155
 O297 O 0.24755 0.02083 0.72153
 O298 O 0.27863 -0.02307 0.75240
 Cu299 Cu 0.23421 -0.00116 0.76591
 Cu300 Cu 0.26570 -0.00112 0.73435
 C301 C 0.27079 -0.03070 0.77078
 C302 C 0.22917 0.02843 0.72944
 C303 C 0.22917 -0.03074 0.72946
 C304 C 0.27069 0.02847 0.77085
 O305 O 0.22124 0.25188 1.02208
 O306 O 0.25224 0.22086 0.97824
 O307 O 0.25228 0.22098 1.02213
 O308 O 0.22123 0.25181 0.97819
 O309 O 0.24747 0.27814 0.97814
 O310 O 0.27852 0.24731 1.02207
 O311 O 0.27848 0.24720 0.97818
 O312 O 0.24748 0.27822 1.02203
 Cu313 Cu 0.23412 0.23374 1.00017
 Cu314 Cu 0.26562 0.26535 1.00010
 C315 C 0.22911 0.27031 1.02965
 C316 C 0.27062 0.22877 0.97062
 C317 C 0.27066 0.22892 1.02971
 C318 C 0.22908 0.27021 0.97056
 O319 O 0.22122 0.75263 0.52194
 O320 O 0.25225 0.72180 0.47800
 O321 O 0.25221 0.72168 0.52188
 O322 O 0.22127 0.75277 0.47805
 O323 O 0.24754 0.77907 0.47817
 O324 O 0.27848 0.74798 0.52200
 O325 O 0.27853 0.74810 0.47811
 O326 O 0.24749 0.77893 0.52206
 Cu327 Cu 0.23411 0.73458 0.49995
 Cu328 Cu 0.26564 0.76616 0.50009
 C329 C 0.22909 0.77100 0.52961
 C330 C 0.27065 0.72972 0.47044
 C331 C 0.27059 0.72956 0.52953
 C332 C 0.22916 0.77119 0.47052
 O333 O 0.27898 0.75253 -0.02199
 O334 O 0.24794 0.72165 0.02193
 O335 O 0.24808 0.72146 -0.02196
 O336 O 0.27889 0.75267 0.02190
 O337 O 0.25257 0.77891 0.02175
 O338 O 0.22175 0.74770 -0.02212
 O339 O 0.22162 0.74788 0.02176
 O340 O 0.25265 0.77876 -0.02214
 Cu341 Cu 0.26611 0.73445 -0.00001
 Cu342 Cu 0.23451 0.76594 -0.00020
 C343 C 0.27108 0.77088 -0.02967
 C344 C 0.22951 0.72953 0.02945
 C345 C 0.22969 0.72928 -0.02964
 C346 C 0.27096 0.77108 0.02942
 O347 O 0.27824 0.25191 0.47827
 O348 O 0.24726 0.22077 0.52203
 O349 O 0.24725 0.22094 0.47814
 O350 O 0.27820 0.25181 0.52216
 O351 O 0.25191 0.27808 0.52222
 O352 O 0.22096 0.24721 0.47822
 O353 O 0.22097 0.24704 0.52211
 O354 O 0.25195 0.27818 0.47834
 Cu355 Cu 0.26537 0.23373 0.50015
 Cu356 Cu 0.23381 0.26526 0.50023
 C357 C 0.27035 0.27032 0.47072
 C358 C 0.22887 0.22862 0.52965
 C359 C 0.22885 0.22884 0.47056
 C360 C 0.27030 0.27018 0.52981
 O361 O 0.77848 0.74772 1.02225
 O362 O 0.74770 0.77893 0.97839
 O363 O 0.74758 0.77877 1.02228
 O364 O 0.77862 0.74790 0.97837
 O365 O 0.75228 0.72166 0.97817
 O366 O 0.72124 0.75254 1.02209
 O367 O 0.72136 0.75269 0.97821
 O368 O 0.75214 0.72148 1.02206
 Cu369 Cu 0.76573 0.76596 1.00034
 Cu370 Cu 0.73412 0.73447 1.00011
 C371 C 0.77053 0.72931 1.02975
 C372 C 0.72930 0.77111 0.97070
 C373 C 0.72915 0.77089 1.02979
 C374 C 0.77072 0.72955 0.97067
 O375 O 0.74787 0.27830 0.47771
 O376 O 0.77884 0.24739 0.52165
 O377 O 0.77887 0.24735 0.47776
 O378 O 0.74785 0.27836 0.52159
 O379 O 0.72158 0.25205 0.52160
 O380 O 0.75259 0.22104 0.47776
 O381 O 0.75256 0.22109 0.52165
 O382 O 0.72160 0.25200 0.47771
 Cu383 Cu 0.76599 0.26548 0.49967
 Cu384 Cu 0.73445 0.23391 0.49968
 C385 C 0.72948 0.27039 0.47010
 C386 C 0.77095 0.22900 0.52926
 C387 C 0.77099 0.22894 0.47016
 C388 C 0.72946 0.27046 0.52919
 O389 O 0.75222 0.27853 0.02167
 O390 O 0.72114 0.24770 -0.02229
 O391 O 0.72119 0.24758 0.02160
 O392 O 0.75209 0.27872 -0.02221
 O393 O 0.77837 0.25243 -0.02236
 O394 O 0.74747 0.22130 0.02147
 O395 O 0.74742 0.22141 -0.02241
 O396 O 0.77849 0.25225 0.02152
 Cu397 Cu 0.73403 0.26577 -0.00029
 Cu398 Cu 0.76557 0.23421 -0.00046
 C399 C 0.77063 0.27062 0.02921
 C400 C 0.72902 0.22932 -0.02996
 C401 C 0.72908 0.22916 0.02912
 C402 C 0.77047 0.27086 -0.02988
 O403 O 0.77896 0.75241 0.47847
 O404 O 0.74789 0.72158 0.52238
 O405 O 0.74792 0.72148 0.47849
 O406 O 0.77888 0.75256 0.52236
 O407 O 0.75263 0.77887 0.52224
 O408 O 0.72167 0.74779 0.47840
 O409 O 0.72164 0.74789 0.52228
 O410 O 0.75271 0.77872 0.47835
 Cu411 Cu 0.76604 0.73437 0.50044
 Cu412 Cu 0.73453 0.76595 0.50031
 C413 C 0.77110 0.77078 0.47080
 C414 C 0.72949 0.72950 0.52994
 C415 C 0.72955 0.72937 0.47084
 C416 C 0.77100 0.77099 0.52989
 O417 O 0.97875 0.25200 0.22116
 O418 O 1.02272 0.22107 0.25210
 O419 O 0.97877 0.22103 0.25209
 O420 O 1.02270 0.25206 0.22117
 O421 O 1.02267 0.27834 0.24742
 O422 O 0.97875 0.24732 0.27834
 O423 O 1.02270 0.24736 0.27835
 O424 O 0.97873 0.27829 0.24740
 Cu425 Cu 1.00074 0.23390 0.23400
 Cu426 Cu 1.00071 0.26546 0.26551
 C427 C 0.97112 0.27039 0.22903
 C428 C 1.03033 0.22896 0.27047
 C429 C 0.97115 0.22892 0.27046
 C430 C 1.03029 0.27046 0.22905
 O431 O 0.52219 0.22082 0.75236
 O432 O 0.47811 0.25177 0.72157
 O433 O 0.52206 0.25180 0.72143
 O434 O 0.47824 0.22077 0.75248
 O435 O 0.47830 0.24705 0.77874
 O436 O 0.52212 0.27808 0.74769
 O437 O 0.47818 0.27805 0.74783
 O438 O 0.52225 0.24710 0.77862
 Cu439 Cu 0.50014 0.23365 0.73433
 Cu440 Cu 0.50022 0.26520 0.76585
 C441 C 0.52985 0.22871 0.77071
 C442 C 0.47052 0.27016 0.72948
 C443 C 0.52968 0.27020 0.72930
 C444 C 0.47067 0.22864 0.77088
 O445 O -0.02269 0.22090 0.74738
 O446 O 0.02132 0.25180 0.77832
 O447 O -0.02261 0.25197 0.77824
 O448 O 0.02125 0.22076 0.74743
 O449 O 0.02138 0.24699 0.72114
 O450 O -0.02248 0.27819 0.75194
 O451 O 0.02146 0.27803 0.75203
 O452 O -0.02257 0.24712 0.72108
 Cu453 Cu -0.00070 0.23373 0.76548
 Cu454 Cu -0.00054 0.26521 0.73391
 C455 C -0.03026 0.22877 0.72899
 C456 C 0.02901 0.27016 0.77043
 C457 C -0.03014 0.27038 0.77032
 C458 C 0.02892 0.22858 0.72906
 O459 O 0.47762 0.27819 0.25219
 O460 O 0.52142 0.24720 0.22107
 O461 O 0.47747 0.24723 0.22122
 O462 O 0.52156 0.27817 0.25203
 O463 O 0.52164 0.25187 0.27826
 O464 O 0.47754 0.22092 0.24744
 O465 O 0.52149 0.22090 0.24729
 O466 O 0.47769 0.25188 0.27841
 Cu467 Cu 0.49951 0.26533 0.23400
 Cu468 Cu 0.49960 0.23376 0.26548
 C469 C 0.47007 0.27029 0.27058
 C470 C 0.52905 0.22880 0.22891
 C471 C 0.46987 0.22883 0.22911
 C472 C 0.52923 0.27027 0.27037
 O473 O 1.02265 0.77891 0.74772
 O474 O 0.97866 0.74800 0.77865
 O475 O 1.02260 0.74785 0.77858
 O476 O 0.97870 0.77902 0.74776
 O477 O 0.97859 0.75278 0.72147
 O478 O 1.02247 0.72161 0.75228
 O479 O 0.97853 0.72176 0.75235
 O480 O 1.02254 0.75267 0.72142
 Cu481 Cu 1.00067 0.76608 0.76581
 Cu482 Cu 1.00052 0.73458 0.73424
 C483 C 1.03022 0.77103 0.72933
 C484 C 0.97097 0.72964 0.77075
 C485 C 1.03014 0.72945 0.77066
 C486 C 0.97104 0.77119 0.72939
 O487 O 0.52233 0.72205 0.25222
 O488 O 0.47847 0.75309 0.22124
 O489 O 0.52241 0.75303 0.22128
 O490 O 0.47839 0.72210 0.25217
 O491 O 0.47841 0.74839 0.27842
 O492 O 0.52244 0.77932 0.24754
 O493 O 0.47849 0.77938 0.24750
 O494 O 0.52236 0.74834 0.27847
 Cu495 Cu 0.50040 0.73494 0.23410
 Cu496 Cu 0.50043 0.76649 0.26561
 C497 C 0.52994 0.72993 0.27060
 C498 C 0.47088 0.77150 0.22912
 C499 C 0.53005 0.77142 0.22917
 C500 C 0.47078 0.73000 0.27053
 O501 O -0.02226 0.72148 0.24789
 O502 O 0.02165 0.75261 0.27876
 O503 O -0.02230 0.75247 0.27883
 O504 O 0.02168 0.72164 0.24781
 O505 O 0.02156 0.74792 0.22157
 O506 O -0.02242 0.77876 0.25260
 O507 O 0.02152 0.77890 0.25253
 O508 O -0.02239 0.74777 0.22165
 Cu509 Cu -0.00029 0.73442 0.26595
 Cu510 Cu -0.00045 0.76597 0.23446
 C511 C -0.02993 0.72934 0.22954
 C512 C 0.02919 0.77103 0.27088
 C513 C -0.02998 0.77084 0.27097
 C514 C 0.02924 0.72955 0.22943
 O515 O 0.52172 0.75306 0.77902
 O516 O 0.47784 0.72199 0.74804
 O517 O 0.52179 0.72202 0.74813
 O518 O 0.47777 0.75301 0.77895
 O519 O 0.47779 0.77926 0.75267
 O520 O 0.52181 0.74827 0.72185
 O521 O 0.47787 0.74824 0.72176
 O522 O 0.52174 0.77931 0.75274
 Cu523 Cu 0.49978 0.73489 0.76617
 Cu524 Cu 0.49981 0.76640 0.73463
 C525 C 0.52933 0.77146 0.77113
 C526 C 0.47026 0.72984 0.72964
 C527 C 0.52942 0.72989 0.72976
 C528 C 0.47015 0.77138 0.77103
 C529 C 0.41668 0.30475 0.30520
 C530 C 0.42555 0.31371 0.28530
 C531 C 0.44312 0.30266 0.27417
 C532 C 0.38208 0.32456 0.32508
 C533 C 0.44319 0.27374 0.30298
 C534 C 0.42561 0.28482 0.31408
 C535 C 0.39798 0.31564 0.31614
 C536 C 0.45205 0.28246 0.28281
 H537 H 0.41872 0.32910 0.27826
 H538 H 0.44955 0.30982 0.25869
 H539 H 0.44967 0.25823 0.31008
 H540 H 0.41884 0.27772 0.32945
 C541 C 0.41645 0.80575 0.80526
 C542 C 0.42539 0.81469 0.78538
 C543 C 0.44308 0.80368 0.77438
 C544 C 0.38166 0.82545 0.82492
 C545 C 0.44309 0.77484 0.80328
 C546 C 0.42541 0.78588 0.81424
 C547 C 0.39765 0.81659 0.81607
 C548 C 0.45203 0.78354 0.78313
 H549 H 0.41855 0.83004 0.77826
 H550 H 0.44956 0.81082 0.75891
 H551 H 0.44959 0.75937 0.81046
 H552 H 0.41858 0.77880 0.82960
 C553 C -0.08355 0.30514 0.80460
 C554 C -0.07458 0.31399 0.78470
 C555 C -0.05700 0.30285 0.77368
 C556 C -0.11814 0.32511 0.82432
 C557 C -0.05714 0.27403 0.80259
 C558 C -0.07472 0.28521 0.81358
 C559 C -0.10224 0.31613 0.81544
 C560 C -0.04818 0.28265 0.78243
 H561 H -0.08133 0.32939 0.77758
 H562 H -0.05049 0.30993 0.75819
 H563 H -0.05074 0.25852 0.80977
 H564 H -0.08158 0.27818 0.82895
 C565 C -0.08356 0.80513 0.30546
 C566 C -0.07468 0.81411 0.28557
 C567 C -0.05705 0.80312 0.27448
 C568 C -0.11826 0.82486 0.32525
 C569 C -0.05694 0.77421 0.30331
 C570 C -0.07458 0.78524 0.31436
 C571 C -0.10232 0.81597 0.31635
 C572 C -0.04807 0.78296 0.28316
 H573 H -0.08155 0.82948 0.27851
 H574 H -0.05061 0.81030 0.25901
 H575 H -0.05042 0.75873 0.31043
 H576 H -0.08137 0.77812 0.32973
 C577 C 0.58337 0.69537 0.30508
 C578 C 0.57445 0.68645 0.28518
 C579 C 0.55686 0.69752 0.27409
 C580 C 0.61797 0.67550 0.32488
 C581 C 0.55689 0.72642 0.30294
 C582 C 0.57448 0.71531 0.31399
 C583 C 0.60206 0.68445 0.31597
 C584 C 0.54798 0.71773 0.28277
 H585 H 0.58124 0.67104 0.27810
 H586 H 0.55039 0.69038 0.25861
 H587 H 0.55045 0.74193 0.31007
 H588 H 0.58129 0.72239 0.32937
 C589 C 0.58359 0.19437 0.80492
 C590 C 0.57462 0.18542 0.78505
 C591 C 0.55693 0.19642 0.77406
 C592 C 0.61839 0.17469 0.82458
 C593 C 0.55695 0.22529 0.80294
 C594 C 0.57464 0.21426 0.81390
 C595 C 0.60240 0.18354 0.81572
 C596 C 0.54799 0.21657 0.78280
 H597 H 0.58145 0.17006 0.77793
 H598 H 0.55042 0.18926 0.75860
 H599 H 0.55047 0.24076 0.81011
 H600 H 0.58149 0.22136 0.82925
 C601 C 1.08361 0.69475 0.80492
 C602 C 1.07463 0.68588 0.78502
 C603 C 1.05703 0.69700 0.77401
 C604 C 1.11825 0.67483 0.82462
 C605 C 1.05717 0.72584 0.80292
 C606 C 1.07477 0.71468 0.81390
 C607 C 1.10233 0.68379 0.81574
 C608 C 1.04819 0.71720 0.78276
 H609 H 1.08138 0.67049 0.77789
 H610 H 1.05051 0.68990 0.75852
 H611 H 1.05076 0.74134 0.81010
 H612 H 1.08163 0.72172 0.82927
 C613 C 1.08390 0.19456 0.30488
 C614 C 1.07497 0.21447 0.31381
 C615 C 1.05733 0.22553 0.30278
 C616 C 1.11858 0.17478 0.32467
 C617 C 1.05734 0.19663 0.27393
 C618 C 1.07498 0.18561 0.28499
 C619 C 1.10264 0.18368 0.31576
 C620 C 1.04842 0.21681 0.28263
 H621 H 1.08178 0.22157 0.32917
 H622 H 1.05085 0.24103 0.30992
 H623 H 1.05087 0.18948 0.25846
 H624 H 1.08180 0.17023 0.27791
 C625 C 0.58312 0.30470 0.69477
 C626 C 0.57424 0.31363 0.71468
 C627 C 0.55665 0.30258 0.72578
 C628 C 0.61776 0.32451 0.67496
 C629 C 0.55658 0.27369 0.69692
 C630 C 0.57417 0.28477 0.68586
 C631 C 0.60183 0.31559 0.68387
 C632 C 0.54771 0.28239 0.71710
 H633 H 0.58108 0.32902 0.72175
 H634 H 0.55022 0.30973 0.74127
 H635 H 0.55009 0.25819 0.68979
 H636 H 0.58095 0.27769 0.67048
 C637 C 0.58372 0.80576 0.19485
 C638 C 0.57475 0.78587 0.18591
 C639 C 0.55709 0.77483 0.19690
 C640 C 0.61848 0.82547 0.17513
 C641 C 0.55713 0.80372 0.22576
 C642 C 0.57480 0.81472 0.21473
 C643 C 0.60250 0.81660 0.18401
 C644 C 0.54817 0.78355 0.21705
 H645 H 0.58157 0.77876 0.17055
 H646 H 0.55058 0.75935 0.18975
 H647 H 0.55066 0.81088 0.24123
 H648 H 0.58165 0.83009 0.22183
 C649 C 1.08381 0.30498 0.19467
 C650 C 1.07491 0.28505 0.18574
 C651 C 1.05729 0.27395 0.19676
 C652 C 1.11847 0.32483 0.17492
 C653 C 1.05726 0.30285 0.22561
 C654 C 1.07487 0.31392 0.21456
 C655 C 1.10254 0.31590 0.18381
 C656 C 1.04836 0.28265 0.21691
 H657 H 1.08173 0.27797 0.17038
 H658 H 1.05083 0.25845 0.18962
 H659 H 1.05077 0.31000 0.24108
 H660 H 1.08167 0.32932 0.22164
 C661 C 1.08385 0.80539 0.69497
 C662 C 1.07486 0.78551 0.68600
 C663 C 1.05720 0.77447 0.69701
 C664 C 1.11858 0.82514 0.67523
 C665 C 1.05731 0.80332 0.72592
 C666 C 1.07496 0.81433 0.71487
 C667 C 1.10262 0.81625 0.68411
 C668 C 1.04832 0.78317 0.71719
 H669 H 1.08165 0.77843 0.67063
 H670 H 1.05068 0.75900 0.68985
 H671 H 1.05087 0.81046 0.74140
 H672 H 1.08183 0.82969 0.72198
 C673 C 0.41680 0.69529 0.69516
 C674 C 0.42573 0.71520 0.68623
 C675 C 0.44333 0.72631 0.69728
 C676 C 0.38217 0.67543 0.67535
 C677 C 0.44329 0.69746 0.72617
 C678 C 0.42569 0.68638 0.71508
 C679 C 0.39809 0.68437 0.68427
 C680 C 0.45221 0.71764 0.71747
 H681 H 0.41894 0.72226 0.67085
 H682 H 0.44981 0.74180 0.69014
 H683 H 0.44974 0.69033 0.74166
 H684 H 0.41887 0.67100 0.72217
 C685 C 0.41614 0.19445 0.19487
 C686 C 0.42512 0.18549 0.21472
 C687 C 0.44281 0.19650 0.22572
 C688 C 0.38135 0.17471 0.17520
 C689 C 0.44274 0.22541 0.19690
 C690 C 0.42506 0.21436 0.18593
 C691 C 0.39734 0.18359 0.18405
 C692 C 0.45173 0.21668 0.21701
 H693 H 0.41831 0.17011 0.22181
 H694 H 0.44933 0.18934 0.24117
 H695 H 0.44921 0.24090 0.18975
 H696 H 0.41819 0.22147 0.17059
 C697 C -0.08343 0.69471 0.19521
 C698 C -0.07458 0.71465 0.18627
 C699 C -0.05697 0.72579 0.19727
 C700 C -0.11809 0.67482 0.17548
 C701 C -0.05683 0.69690 0.22612
 C702 C -0.07445 0.68580 0.21508
 C703 C -0.10216 0.68377 0.18436
 C704 C -0.04799 0.71711 0.21741
 H705 H -0.08144 0.72172 0.17092
 H706 H -0.05055 0.74130 0.19012
 H707 H -0.05031 0.68977 0.24158
 H708 H -0.08121 0.67039 0.22217
 C709 C -0.08392 0.19442 0.69462
 C710 C -0.07503 0.18549 0.71452
 C711 C -0.05737 0.19650 0.72557
 C712 C -0.11867 0.17469 0.67488
 C713 C -0.05726 0.22533 0.69667
 C714 C -0.07492 0.21429 0.68566
 C715 C -0.10270 0.18357 0.68376
 C716 C -0.04837 0.21663 0.71684
 H717 H -0.08191 0.17014 0.72163
 H718 H -0.05092 0.18936 0.74106
 H719 H -0.05073 0.24079 0.68951
 H720 H -0.08171 0.22137 0.67028
 C721 C 0.30491 0.41700 0.30538
 C722 C 0.31388 0.42588 0.28549
 C723 C 0.30287 0.44351 0.27440
 C724 C 0.32462 0.38229 0.32516
 C725 C 0.27398 0.44360 0.30323
 C726 C 0.28501 0.42597 0.31429
 C727 C 0.31575 0.39824 0.31627
 C728 C 0.28271 0.45247 0.28307
 H729 H 0.32925 0.41902 0.27842
 H730 H 0.31004 0.44994 0.25892
 H731 H 0.25849 0.45011 0.31035
 H732 H 0.27790 0.41919 0.32965
 C733 C 0.30544 -0.08416 0.80510
 C734 C 0.28552 -0.07531 0.81406
 C735 C 0.27437 -0.05771 0.80306
 C736 C 0.32539 -0.11877 0.82484
 C737 C 0.30321 -0.05761 0.77417
 C738 C 0.31432 -0.07521 0.78520
 C739 C 0.31641 -0.10287 0.81595
 C740 C 0.28302 -0.04876 0.78290
 H741 H 0.27847 -0.08215 0.82943
 H742 H 0.25887 -0.05128 0.81023
 H743 H 0.31032 -0.05111 0.75869
 H744 H 0.32971 -0.08198 0.77810
 C745 C 0.80526 0.41660 0.80523
 C746 C 0.78537 0.42556 0.81417
 C747 C 0.77434 0.44323 0.80318
 C748 C 0.82495 0.38183 0.82494
 C749 C 0.80323 0.44321 0.77433
 C750 C 0.81422 0.42554 0.78536
 C751 C 0.81609 0.39781 0.81607
 C752 C 0.78307 0.45216 0.78304
 H753 H 0.77827 0.41873 0.82952
 H754 H 0.75886 0.44972 0.81032
 H755 H 0.81039 0.44969 0.75887
 H756 H 0.82959 0.41870 0.77827
 C757 C 0.80522 -0.08357 0.30480
 C758 C 0.78531 -0.07465 0.31374
 C759 C 0.77419 -0.05707 0.30269
 C760 C 0.82511 -0.11815 0.32462
 C761 C 0.80303 -0.05710 0.27379
 C762 C 0.81411 -0.07468 0.28488
 C763 C 0.81616 -0.10226 0.31570
 C764 C 0.78285 -0.04819 0.28250
 H765 H 0.77826 -0.08144 0.32913
 H766 H 0.75870 -0.05060 0.30984
 H767 H 0.81014 -0.05065 0.25830
 H768 H 0.82949 -0.08149 0.27778
 C769 C 0.30487 0.58306 0.69511
 C770 C 0.31383 0.57416 0.71500
 C771 C 0.30280 0.55654 0.72608
 C772 C 0.32462 0.61774 0.67532
 C773 C 0.27388 0.55650 0.69725
 C774 C 0.28495 0.57412 0.68621
 C775 C 0.31573 0.60180 0.68422
 C776 C 0.28261 0.54760 0.71741
 H777 H 0.32922 0.58099 0.72206
 H778 H 0.30997 0.55008 0.74155
 H779 H 0.25838 0.55001 0.69013
 H780 H 0.27784 0.58092 0.67084
 C781 C 0.30529 1.08415 0.19504
 C782 C 0.28537 1.07525 0.18608
 C783 C 0.27425 1.05763 0.19707
 C784 C 0.32518 1.11879 0.17530
 C785 C 0.30310 1.05759 0.22597
 C786 C 0.31419 1.07521 0.21494
 C787 C 0.31623 1.10287 0.18419
 C788 C 0.28292 1.04870 0.21724
 H789 H 0.27832 1.08208 0.17070
 H790 H 0.25876 1.05118 0.18991
 H791 H 0.31022 1.05111 0.24145
 H792 H 0.32957 1.08201 0.22205
 C793 C 0.80525 0.58337 0.19461
 C794 C 0.78536 0.57438 0.18567
 C795 C 0.77435 0.55671 0.19668
 C796 C 0.82493 0.61815 0.17488
 C797 C 0.80325 0.55678 0.22553
 C798 C 0.81423 0.57445 0.21448
 C799 C 0.81607 0.60216 0.18376
 C800 C 0.78309 0.54780 0.21683
 H801 H 0.77824 0.58119 0.17032
 H802 H 0.75887 0.55019 0.18954
 H803 H 0.81043 0.55032 0.24099
 H804 H 0.82960 0.58132 0.22156
 C805 C 0.80529 1.08417 0.69478
 C806 C 0.78538 1.07523 0.68586
 C807 C 0.77429 1.05762 0.69691
 C808 C 0.82515 1.11879 0.67496
 C809 C 0.80316 1.05769 0.72578
 C810 C 0.81421 1.07529 0.71470
 C811 C 0.81620 1.10288 0.68388
 C812 C 0.78298 1.04875 0.71709
 H813 H 0.77830 1.08201 0.67047
 H814 H 0.75879 1.05113 0.68977
 H815 H 0.81030 1.05125 0.74127
 H816 H 0.82960 1.08212 0.72178
 C817 C 0.69517 0.58309 0.30499
 C818 C 0.68621 0.57421 0.28508
 C819 C 0.69723 0.55660 0.27398
 C820 C 0.67543 0.61776 0.32483
 C821 C 0.72613 0.55653 0.30283
 C822 C 0.71507 0.57414 0.31389
 C823 C 0.68431 0.60183 0.31590
 C824 C 0.71740 0.54765 0.28266
 H825 H 0.67083 0.58105 0.27802
 H826 H 0.69007 0.55015 0.25850
 H827 H 0.74162 0.55003 0.30995
 H828 H 0.72218 0.58093 0.32927
 C829 C 0.69460 1.08426 0.80485
 C830 C 0.68570 1.07526 0.78497
 C831 C 0.69681 1.05764 0.77396
 C832 C 0.67466 1.11890 0.82455
 C833 C 0.72567 1.05781 0.80285
 C834 C 0.71453 1.07543 0.81382
 C835 C 0.68363 1.10298 0.81568
 C836 C 0.71701 1.04881 0.78270
 H837 H 0.67030 1.08200 0.77786
 H838 H 0.68969 1.05110 0.75850
 H839 H 0.74118 1.05141 0.81002
 H840 H 0.72158 1.08231 0.82918
 C841 C 0.19480 0.58332 0.80546
 C842 C 0.18581 0.57439 0.78559
 C843 C 0.19678 0.55671 0.77454
 C844 C 0.17517 0.61812 0.82519
 C845 C 0.22570 0.55666 0.80337
 C846 C 0.21469 0.57434 0.81439
 C847 C 0.18400 0.60212 0.81631
 C848 C 0.21694 0.54774 0.78323
 H849 H 0.17044 0.58125 0.77851
 H850 H 0.18959 0.55024 0.75908
 H851 H 0.24117 0.55015 0.81051
 H852 H 0.22183 0.58116 0.82973
 C853 C 0.19453 1.08413 0.30497
 C854 C 0.21444 1.07526 0.31394
 C855 C 0.22557 1.05764 0.30295
 C856 C 0.17464 1.11879 0.32470
 C857 C 0.19672 1.05756 0.27405
 C858 C 0.18563 1.07517 0.28508
 C859 C 0.18359 1.10286 0.31581
 C860 C 0.21690 1.04868 0.28278
 H861 H 0.22150 1.08211 0.32931
 H862 H 0.24106 1.05120 0.31012
 H863 H 0.18960 1.05105 0.25857
 H864 H 0.17025 1.08196 0.27796
 C865 C 0.69508 0.41684 0.69487
 C866 C 0.68613 0.42571 0.71477
 C867 C 0.69715 0.44333 0.72588
 C868 C 0.67532 0.38217 0.67502
 C869 C 0.72605 0.44342 0.69704
 C870 C 0.71499 0.42581 0.68597
 C871 C 0.68422 0.39810 0.68395
 C872 C 0.71733 0.45229 0.71722
 H873 H 0.67075 0.41886 0.72183
 H874 H 0.69000 0.44976 0.74137
 H875 H 0.74153 0.44993 0.68993
 H876 H 0.72209 0.41903 0.67059
 C877 C 0.69448 -0.08387 0.19478
 C878 C 0.68559 -0.07489 0.21466
 C879 C 0.69667 -0.05724 0.22566
 C880 C 0.67461 -0.11858 0.17511
 C881 C 0.72550 -0.05733 0.19676
 C882 C 0.71439 -0.07498 0.18579
 C883 C 0.68355 -0.10263 0.18396
 C884 C 0.71684 -0.04835 0.21691
 H885 H 0.67021 -0.08168 0.22178
 H886 H 0.68956 -0.05072 0.24113
 H887 H 0.74099 -0.05088 0.18958
 H888 H 0.72144 -0.08184 0.17043
 C889 C 0.19466 0.41681 0.19511
 C890 C 0.18572 0.42578 0.21498
 C891 C 0.19675 0.44344 0.22601
 C892 C 0.17490 0.38206 0.17541
 C893 C 0.22564 0.44340 0.19716
 C894 C 0.21457 0.42573 0.18617
 C895 C 0.18379 0.39803 0.18428
 C896 C 0.21693 0.45235 0.21730
 H897 H 0.17034 0.41896 0.22208
 H898 H 0.18961 0.44994 0.24147
 H899 H 0.24113 0.44986 0.19001
 H900 H 0.22166 0.41889 0.17082
 C901 C 0.19461 -0.08427 0.69509
 C902 C 0.18572 -0.07535 0.71500
 C903 C 0.19680 -0.05773 0.72605
 C904 C 0.17472 -0.11892 0.67532
 C905 C 0.22564 -0.05775 0.69715
 C906 C 0.21452 -0.07537 0.68614
 C907 C 0.18367 -0.10300 0.68422
 C908 C 0.21697 -0.04882 0.71732
 H909 H 0.17034 -0.08215 0.72210
 H910 H 0.18968 -0.05125 0.74153
 H911 H 0.24113 -0.05129 0.68999
 H912 H 0.22158 -0.08219 0.67076
 C913 C 0.30478 0.30487 0.41731
 C914 C 0.31374 0.28496 0.42621
 C915 C 0.30271 0.27386 0.44380
 C916 C 0.32455 0.32467 0.38268
 C917 C 0.27379 0.30272 0.44382
 C918 C 0.28486 0.31379 0.42623
 C919 C 0.31565 0.31577 0.39860
 C920 C 0.28252 0.28254 0.45270
 H921 H 0.32913 0.27789 0.41940
 H922 H 0.30987 0.25837 0.45025
 H923 H 0.25829 0.30984 0.45028
 H924 H 0.27776 0.32917 0.41943
 C925 C 0.30549 0.80517 -0.08326
 C926 C 0.31446 0.78530 -0.07427
 C927 C 0.30343 0.77428 -0.05663
 C928 C 0.32519 0.82485 -0.11800
 C929 C 0.27451 0.80314 -0.05674
 C930 C 0.28557 0.81412 -0.07438
 C931 C 0.31634 0.81598 -0.10204
 C932 C 0.28324 0.78300 -0.04775
 H933 H 0.32984 0.77820 -0.08106
 H934 H 0.31060 0.75882 -0.05010
 H935 H 0.25901 0.81029 -0.05030
 H936 H 0.27846 0.82947 -0.08125
 C937 C 0.80473 0.30546 -0.08336
 C938 C 0.81371 0.28552 -0.07453
 C939 C 0.80273 0.27440 -0.05692
 C940 C 0.82439 0.32529 -0.11804
 C941 C 0.77384 0.30329 -0.05675
 C942 C 0.78485 0.31438 -0.07436
 C943 C 0.81553 0.31638 -0.10210
 C944 C 0.78258 0.28308 -0.04793
 H945 H 0.82906 0.27845 -0.08142
 H946 H 0.80990 0.25889 -0.05053
 H947 H 0.75837 0.31042 -0.05021
 H948 H 0.77773 0.32977 -0.08110
 C949 C 0.80559 0.80494 0.41718
 C950 C 0.81451 0.78506 0.42619
 C951 C 0.80346 0.77409 0.44385
 C952 C 0.82533 0.82452 0.38240
 C953 C 0.77461 0.80302 0.44371
 C954 C 0.78569 0.81395 0.42605
 C955 C 0.81646 0.81570 0.39839
 C956 C 0.78330 0.78287 0.45271
 H957 H 0.82988 0.77792 0.41941
 H958 H 0.81059 0.75862 0.45038
 H959 H 0.75913 0.81021 0.45014
 H960 H 0.77862 0.82931 0.41917
 C961 C 0.69504 0.30490 0.58269
 C962 C 0.71494 0.31386 0.57376
 C963 C 0.72600 0.30283 0.55615
 C964 C 0.67529 0.32464 0.61737
 C965 C 0.69712 0.27391 0.55615
 C966 C 0.68609 0.28498 0.57377
 C967 C 0.68418 0.31576 0.60143
 C968 C 0.71729 0.28264 0.54724
 H969 H 0.72203 0.32924 0.58058
 H970 H 0.74149 0.30999 0.54968
 H971 H 0.68997 0.25841 0.54969
 H972 H 0.67072 0.27787 0.58059
 C973 C 0.69470 0.80519 1.08336
 C974 C 0.68573 0.78532 1.07435
 C975 C 0.69677 0.77429 1.05672
 C976 C 0.67495 0.82489 1.11806
 C977 C 0.72570 0.80315 1.05687
 C978 C 0.71463 0.81414 1.07450
 C979 C 0.68383 0.81602 1.10211
 C980 C 0.71697 0.78301 1.04787
 H981 H 0.67033 0.77822 1.08112
 H982 H 0.68960 0.75883 1.05018
 H983 H 0.74122 0.81031 1.05045
 H984 H 0.72174 0.82949 1.08138
 C985 C 0.19468 0.30473 1.08316
 C986 C 0.21457 0.31370 1.07422
 C987 C 0.22563 0.30268 1.05660
 C988 C 0.17493 0.32446 1.11784
 C989 C 0.19678 0.27374 1.05663
 C990 C 0.18575 0.28480 1.07425
 C991 C 0.18382 0.31559 1.10190
 C992 C 0.21694 0.28248 1.04770
 H993 H 0.22165 0.32910 1.08102
 H994 H 0.24111 0.30985 1.05012
 H995 H 0.18964 0.25823 1.05017
 H996 H 0.17039 0.27768 1.08107
 C997 C 0.19467 0.80518 0.58327
 C998 C 0.21456 0.81419 0.57438
 C999 C 0.22562 0.80324 0.55671
 C1000 C 0.17497 0.82477 0.61807
 C1001 C 0.19675 0.77432 0.55659
 C1002 C 0.18573 0.78530 0.57427
 C1003 C 0.18382 0.81595 0.60208
 C1004 C 0.21692 0.78309 0.54771
 H1005 H 0.22165 0.82954 0.58127
 H1006 H 0.24110 0.81044 0.55027
 H1007 H 0.18961 0.75885 0.55006
 H1008 H 0.17036 0.77815 0.58106
 C1009 C 0.30494 0.69506 0.58303
 C1010 C 0.31390 0.71498 0.57416
 C1011 C 0.30290 0.72607 0.55654
 C1012 C 0.32466 0.67528 0.61772
 C1013 C 0.27401 0.69716 0.55644
 C1014 C 0.28505 0.68611 0.57406
 C1015 C 0.31578 0.68417 0.60177
 C1016 C 0.28274 0.71736 0.54758
 H1017 H 0.32927 0.72208 0.58101
 H1018 H 0.31006 0.74157 0.55012
 H1019 H 0.25853 0.69002 0.54994
 H1020 H 0.27794 0.67072 0.58084
 C1021 C 0.30512 0.19474 1.08334
 C1022 C 0.31405 0.21463 1.07437
 C1023 C 0.30301 0.22561 1.05671
 C1024 C 0.32487 0.17513 1.11811
 C1025 C 0.27416 0.19666 1.05677
 C1026 C 0.28524 0.18572 1.07443
 C1027 C 0.31599 0.18396 1.10213
 C1028 C 0.28285 0.21683 1.04781
 H1029 H 0.32941 0.22178 1.08117
 H1030 H 0.31014 0.24110 1.05020
 H1031 H 0.25869 0.18946 1.05032
 H1032 H 0.27816 0.17034 1.08129
 C1033 C 0.80470 0.69462 1.08324
 C1034 C 0.81373 0.71454 1.07442
 C1035 C 0.80278 0.72569 1.05681
 C1036 C 0.82435 0.67474 1.11790
 C1037 C 0.77381 0.69686 1.05662
 C1038 C 0.78479 0.68575 1.07423
 C1039 C 0.81549 0.68367 1.10197
 C1040 C 0.78260 0.71705 1.04781
 H1041 H 0.82911 0.72157 1.08130
 H1042 H 0.80999 0.74118 1.05042
 H1043 H 0.75832 0.68977 1.05008
 H1044 H 0.77764 0.67036 1.08097
 C1045 C 0.80527 0.19473 0.58292
 C1046 C 0.81423 0.21462 0.57398
 C1047 C 0.80324 0.22563 0.55631
 C1048 C 0.82492 0.17508 0.61772
 C1049 C 0.77436 0.19671 0.55629
 C1050 C 0.78539 0.18574 0.57396
 C1051 C 0.81608 0.18392 0.60172
 C1052 C 0.78309 0.21688 0.54736
 H1053 H 0.82959 0.22175 0.58082
 H1054 H 0.81040 0.24112 0.54983
 H1055 H 0.75889 0.18953 0.54980
 H1056 H 0.77828 0.17037 0.58080
 C1057 C 0.69518 0.69492 0.41728
 C1058 C 0.68623 0.71484 0.42619
 C1059 C 0.69724 0.72590 0.44383
 C1060 C 0.67546 0.67521 0.38255
 C1061 C 0.72611 0.69700 0.44388
 C1062 C 0.71507 0.68597 0.42624
 C1063 C 0.68434 0.68407 0.39851
 C1064 C 0.71740 0.71718 0.45278
 H1065 H 0.67086 0.72194 0.41935
 H1066 H 0.69008 0.74140 0.45029
 H1067 H 0.74159 0.68985 0.45037
 H1068 H 0.72217 0.67059 0.41943
 C1069 C 0.69458 0.19505 -0.08358
 C1070 C 0.68565 0.21494 -0.07462
 C1071 C 0.69668 0.22596 -0.05696
 C1072 C 0.67487 0.17535 -0.11833
 C1073 C 0.72553 0.19704 -0.05701
 C1074 C 0.71447 0.18606 -0.07467
 C1075 C 0.68373 0.18422 -0.10236
 C1076 C 0.71684 0.21721 -0.04806
 H1077 H 0.67028 0.22207 -0.08143
 H1078 H 0.68954 0.24145 -0.05046
 H1079 H 0.74101 0.18986 -0.05055
 H1080 H 0.72155 0.17069 -0.08151
 C1081 C 0.19548 0.69460 -0.08314
 C1082 C 0.18646 0.71451 -0.07430
 C1083 C 0.19742 0.72566 -0.05669
 C1084 C 0.17581 0.67472 -0.11781
 C1085 C 0.22638 0.69684 -0.05653
 C1086 C 0.21538 0.68573 -0.07414
 C1087 C 0.18467 0.68365 -0.10188
 C1088 C 0.21760 0.71703 -0.04770
 H1089 H 0.17108 0.72155 -0.08118
 H1090 H 0.19022 0.74116 -0.05028
 H1091 H 0.24187 0.68975 -0.05000
 H1092 H 0.22253 0.67034 -0.08090
 C1093 C 0.19452 0.19467 0.41681
 C1094 C 0.18555 0.21452 0.42582
 C1095 C 0.19654 0.22550 0.44352
 C1096 C 0.17487 0.17509 0.38196
 C1097 C 0.22544 0.19662 0.44342
 C1098 C 0.21441 0.18568 0.42572
 C1099 C 0.18370 0.18390 0.39797
 C1100 C 0.21671 0.21675 0.45242
 H1101 H 0.17018 0.22165 0.41902
 H1102 H 0.18938 0.24095 0.45006
 H1103 H 0.24093 0.18945 0.44987
 H1104 H 0.22153 0.17034 0.41883
 C1105 C 0.30475 0.41671 0.69530
 C1106 C 0.28483 0.42563 0.68638
 C1107 C 0.27379 0.44329 0.69738
 C1108 C 0.32450 0.38197 0.67558
 C1109 C 0.30272 0.44333 0.72620
 C1110 C 0.31373 0.42567 0.71516
 C1111 C 0.31561 0.39793 0.68445
 C1112 C 0.28253 0.45225 0.71751
 H1113 H 0.27771 0.41878 0.67104
 H1114 H 0.25829 0.44976 0.69025
 H1115 H 0.30990 0.44984 0.74165
 H1116 H 0.32912 0.41886 0.72224
 C1117 C 0.30514 0.91791 0.19490
 C1118 C 0.31405 0.92681 0.21482
 C1119 C 0.30301 0.94443 0.22589
 C1120 C 0.32493 0.88324 0.17511
 C1121 C 0.27418 0.94448 0.19697
 C1122 C 0.28525 0.92686 0.18595
 C1123 C 0.31603 0.89918 0.18402
 C1124 C 0.28286 0.95337 0.21716
 H1125 H 0.32942 0.91997 0.22193
 H1126 H 0.31014 0.95088 0.24138
 H1127 H 0.25870 0.95098 0.18981
 H1128 H 0.27818 0.92007 0.17056
 C1129 C 0.80551 0.41693 0.19458
 C1130 C 0.78559 0.42582 0.18565
 C1131 C 0.77451 0.44346 0.19666
 C1132 C 0.82527 0.38220 0.17488
 C1133 C 0.80343 0.44353 0.22549
 C1134 C 0.81447 0.42589 0.21445
 C1135 C 0.81638 0.39816 0.18375
 C1136 C 0.78324 0.45242 0.21680
 H1137 H 0.77848 0.41897 0.17031
 H1138 H 0.75901 0.44991 0.18952
 H1139 H 0.81059 0.45004 0.24095
 H1140 H 0.82986 0.41910 0.22153
 C1141 C 0.80535 0.91790 0.69512
 C1142 C 0.81427 0.92686 0.71501
 C1143 C 0.80321 0.94452 0.72602
 C1144 C 0.82515 0.88318 0.67543
 C1145 C 0.77437 0.94445 0.69712
 C1146 C 0.78546 0.92680 0.68615
 C1147 C 0.81625 0.89913 0.68430
 C1148 C 0.78305 0.95341 0.71728
 H1149 H 0.82964 0.92006 0.72213
 H1150 H 0.81034 0.95102 0.74150
 H1151 H 0.75888 0.95091 0.68995
 H1152 H 0.77838 0.91995 0.67078
 C1153 C 0.69503 0.58317 0.69533
 C1154 C 0.71494 0.57428 0.68638
 C1155 C 0.72602 0.55662 0.69736
 C1156 C 0.67524 0.61790 0.67566
 C1157 C 0.69712 0.55652 0.72619
 C1158 C 0.68608 0.57418 0.71518
 C1159 C 0.68414 0.60194 0.68452
 C1160 C 0.71730 0.54763 0.71747
 H1161 H 0.72204 0.58114 0.67105
 H1162 H 0.74152 0.55017 0.69021
 H1163 H 0.68996 0.55000 0.74163
 H1164 H 0.67069 0.58097 0.72228
 C1165 C 0.69463 0.08243 0.19442
 C1166 C 0.71451 0.07347 0.18547
 C1167 C 0.72559 0.05585 0.19651
 C1168 C 0.67485 0.11710 0.17463
 C1169 C 0.69676 0.05595 0.22542
 C1170 C 0.68572 0.07356 0.21434
 C1171 C 0.68375 0.10117 0.18354
 C1172 C 0.71691 0.04699 0.21670
 H1173 H 0.72158 0.08024 0.17008
 H1174 H 0.74106 0.04935 0.18936
 H1175 H 0.68964 0.04951 0.24091
 H1176 H 0.67036 0.08041 0.22144
 C1177 C 0.19477 0.58318 0.19485
 C1178 C 0.18581 0.57428 0.21473
 C1179 C 0.19682 0.55665 0.22581
 C1180 C 0.17504 0.61789 0.17508
 C1181 C 0.22572 0.55660 0.19698
 C1182 C 0.21467 0.57423 0.18593
 C1183 C 0.18392 0.60194 0.18397
 C1184 C 0.21699 0.54771 0.21713
 H1185 H 0.17043 0.58112 0.22180
 H1186 H 0.18966 0.55020 0.24128
 H1187 H 0.24121 0.55011 0.18985
 H1188 H 0.22178 0.58103 0.17057
 C1189 C 0.19465 0.08193 0.69505
 C1190 C 0.18575 0.07304 0.71497
 C1191 C 0.19681 0.05542 0.72603
 C1192 C 0.17483 0.11658 0.67527
 C1193 C 0.22564 0.05539 0.69712
 C1194 C 0.21454 0.07300 0.68610
 C1195 C 0.18374 0.10066 0.68418
 C1196 C 0.21697 0.04649 0.71730
 H1197 H 0.17038 0.07986 0.72207
 H1198 H 0.18970 0.04897 0.74152
 H1199 H 0.24111 0.04891 0.68995
 H1200 H 0.22160 0.07979 0.67071
 C1201 C 0.30512 0.58337 0.30500
 C1202 C 0.28520 0.57447 0.31395
 C1203 C 0.27411 0.55681 0.30297
 C1204 C 0.32492 0.61811 0.32469
 C1205 C 0.30301 0.55671 0.27413
 C1206 C 0.31406 0.57438 0.28515
 C1207 C 0.31601 0.60214 0.31582
 C1208 C 0.28282 0.54783 0.28285
 H1209 H 0.27811 0.58134 0.32929
 H1210 H 0.25862 0.55037 0.31013
 H1211 H 0.31015 0.55019 0.25868
 H1212 H 0.32944 0.58117 0.27805
 C1213 C 0.30511 0.08207 0.80525
 C1214 C 0.28524 0.07309 0.81421
 C1215 C 0.27417 0.05545 0.80318
 C1216 C 0.32487 0.11678 0.82504
 C1217 C 0.30300 0.05555 0.77427
 C1218 C 0.31403 0.07319 0.78534
 C1219 C 0.31598 0.10083 0.81613
 C1220 C 0.28286 0.04657 0.78300
 H1221 H 0.27816 0.07987 0.82959
 H1222 H 0.25871 0.04893 0.81034
 H1223 H 0.31013 0.04911 0.75878
 H1224 H 0.32938 0.08005 0.77824
 C1225 C 0.80541 0.58306 0.80538
 C1226 C 0.81437 0.57411 0.78551
 C1227 C 0.80334 0.55646 0.77446
 C1228 C 0.82516 0.61781 0.82508
 C1229 C 0.77443 0.55648 0.80329
 C1230 C 0.78550 0.57413 0.81430
 C1231 C 0.81627 0.60184 0.81622
 C1232 C 0.78315 0.54754 0.78315
 H1233 H 0.82975 0.58093 0.77843
 H1234 H 0.81050 0.54997 0.75900
 H1235 H 0.75893 0.55001 0.81042
 H1236 H 0.77839 0.58097 0.82965
 C1237 C 0.80520 0.08257 0.30458
 C1238 C 0.78530 0.07366 0.31355
 C1239 C 0.77419 0.05603 0.30254
 C1240 C 0.82507 0.11723 0.32436
 C1241 C 0.80301 0.05602 0.27363
 C1242 C 0.81409 0.07365 0.28467
 C1243 C 0.81613 0.10130 0.31545
 C1244 C 0.78284 0.04711 0.28237
 H1245 H 0.77825 0.08048 0.32893
 H1246 H 0.75871 0.04956 0.30971
 H1247 H 0.81012 0.04954 0.25814
 H1248 H 0.82946 0.08046 0.27756
 C1249 C 0.69513 0.41678 0.30464
 C1250 C 0.71506 0.42569 0.31358
 C1251 C 0.72613 0.44334 0.30259
 C1252 C 0.67533 0.38206 0.32434
 C1253 C 0.69721 0.44341 0.27376
 C1254 C 0.68617 0.42575 0.28479
 C1255 C 0.68425 0.39802 0.31547
 C1256 C 0.71740 0.45231 0.28247
 H1257 H 0.72216 0.41884 0.32892
 H1258 H 0.74163 0.44980 0.30973
 H1259 H 0.69004 0.44991 0.25831
 H1260 H 0.67078 0.41895 0.27770
 C1261 C 0.69501 0.91800 0.80529
 C1262 C 0.71489 0.92701 0.81422
 C1263 C 0.72593 0.94464 0.80316
 C1264 C 0.67529 0.88332 0.82512
 C1265 C 0.69707 0.94447 0.77428
 C1266 C 0.68607 0.92684 0.78537
 C1267 C 0.68417 0.89926 0.81620
 C1268 C 0.71722 0.95348 0.78297
 H1269 H 0.72199 0.92026 0.82961
 H1270 H 0.74140 0.95118 0.81030
 H1271 H 0.68992 0.95088 0.75878
 H1272 H 0.67071 0.91996 0.77829
 C1273 C 0.19451 0.41681 0.80539
 C1274 C 0.18554 0.42579 0.78555
 C1275 C 0.19657 0.44345 0.77452
 C1276 C 0.17476 0.38203 0.82504
 C1277 C 0.22550 0.44338 0.80334
 C1278 C 0.21444 0.42572 0.81432
 C1279 C 0.18365 0.39802 0.81620
 C1280 C 0.21677 0.45234 0.78322
 H1281 H 0.17015 0.41898 0.77846
 H1282 H 0.18939 0.44995 0.75908
 H1283 H 0.24101 0.44983 0.81047
 H1284 H 0.22156 0.41885 0.82966
 C1285 C 0.19475 0.91785 0.30509
 C1286 C 0.21463 0.92683 0.31405
 C1287 C 0.22569 0.94447 0.30303
 C1288 C 0.17500 0.88315 0.32486
 C1289 C 0.19686 0.94437 0.27412
 C1290 C 0.18583 0.92673 0.28517
 C1291 C 0.18389 0.89910 0.31596
 C1292 C 0.21701 0.95334 0.28285
 H1293 H 0.22171 0.92005 0.32944
 H1294 H 0.24116 0.95099 0.31020
 H1295 H 0.18973 0.95081 0.25862
 H1296 H 0.17047 0.91987 0.27807
 C1297 C 0.41684 0.30458 0.69526
 C1298 C 0.42574 0.28467 0.68629
 C1299 C 0.44341 0.27360 0.69726
 C1300 C 0.38210 0.32436 0.67558
 C1301 C 0.44349 0.30249 0.72613
 C1302 C 0.42582 0.31352 0.71513
 C1303 C 0.39807 0.31546 0.68444
 C1304 C 0.45239 0.28231 0.71739
 H1305 H 0.41888 0.27758 0.67095
 H1306 H 0.44987 0.25812 0.69009
 H1307 H 0.45001 0.30964 0.74159
 H1308 H 0.41902 0.32890 0.72224
 C1309 C 0.41733 0.80595 0.19474
 C1310 C 0.42624 0.78604 0.18580
 C1311 C 0.44388 0.77497 0.19681
 C1312 C 0.38260 0.82571 0.17502
 C1313 C 0.44390 0.80386 0.22567
 C1314 C 0.42627 0.81490 0.21462
 C1315 C 0.39856 0.81682 0.18390
 C1316 C 0.45281 0.78368 0.21697
 H1317 H 0.41941 0.77894 0.17044
 H1318 H 0.45034 0.75947 0.18967
 H1319 H 0.45039 0.81101 0.24114
 H1320 H 0.41946 0.83028 0.22171
 C1321 C 0.91752 0.30476 0.19464
 C1322 C 0.92644 0.31372 0.21452
 C1323 C 0.94409 0.30271 0.22558
 C1324 C 0.88281 0.32452 0.17488
 C1325 C 0.94411 0.27381 0.19673
 C1326 C 0.92646 0.28486 0.18571
 C1327 C 0.89876 0.31562 0.18377
 C1328 C 0.95303 0.28253 0.21688
 H1329 H 0.91961 0.32910 0.22161
 H1330 H 0.95056 0.30987 0.24105
 H1331 H 0.95059 0.25832 0.18959
 H1332 H 0.91964 0.27775 0.17035
 C1333 C 0.91749 0.80578 0.69514
 C1334 C 0.92638 0.78588 0.68615
 C1335 C 0.94401 0.77476 0.69712
 C1336 C 0.88278 0.82559 0.67546
 C1337 C 0.94409 0.80359 0.72605
 C1338 C 0.92646 0.81467 0.71504
 C1339 C 0.89874 0.81669 0.68433
 C1340 C 0.95297 0.78341 0.71729
 H1341 H 0.91953 0.77882 0.67078
 H1342 H 0.95046 0.75928 0.68993
 H1343 H 0.95060 0.81069 0.74153
 H1344 H 0.91967 0.83004 0.72217
 C1345 C 0.58294 0.30468 0.30462
 C1346 C 0.57403 0.28476 0.31356
 C1347 C 0.55635 0.27369 0.30259
 C1348 C 0.61768 0.32446 0.32432
 C1349 C 0.55627 0.30260 0.27376
 C1350 C 0.57395 0.31363 0.28477
 C1351 C 0.60172 0.31556 0.31545
 C1352 C 0.54737 0.28242 0.28247
 H1353 H 0.58089 0.27766 0.32890
 H1354 H 0.54989 0.25820 0.30973
 H1355 H 0.54975 0.30977 0.25832
 H1356 H 0.58075 0.32902 0.27768
 C1357 C 0.58289 0.80595 0.80551
 C1358 C 0.57397 0.81487 0.78562
 C1359 C 0.55633 0.80382 0.77457
 C1360 C 0.61763 0.82573 0.82522
 C1361 C 0.55632 0.77497 0.80345
 C1362 C 0.57396 0.78605 0.81446
 C1363 C 0.60166 0.81683 0.81635
 C1364 C 0.54740 0.78365 0.78329
 H1365 H 0.58079 0.83025 0.77851
 H1366 H 0.54986 0.81095 0.75909
 H1367 H 0.54984 0.75948 0.81060
 H1368 H 0.58078 0.77898 0.82983
 C1369 C 0.08258 0.30454 0.80491
 C1370 C 0.07358 0.28466 0.81385
 C1371 C 0.05595 0.27361 0.80279
 C1372 C 0.11724 0.32431 0.82477
 C1373 C 0.05612 0.30244 0.77388
 C1374 C 0.07375 0.31345 0.78498
 C1375 C 0.10132 0.31541 0.81583
 C1376 C 0.04711 0.28230 0.78259
 H1377 H 0.08033 0.27759 0.82925
 H1378 H 0.04941 0.25815 0.80994
 H1379 H 0.04971 0.30957 0.75838
 H1380 H 0.08063 0.32881 0.77789
 C1381 C 0.08273 0.80563 0.30520
 C1382 C 0.07386 0.78569 0.31414
 C1383 C 0.05624 0.77457 0.30315
 C1384 C 0.11742 0.82549 0.32491
 C1385 C 0.05612 0.80346 0.27430
 C1386 C 0.07374 0.81455 0.28533
 C1387 C 0.10147 0.81656 0.31603
 C1388 C 0.04726 0.78326 0.28301
 H1389 H 0.08073 0.77862 0.32949
 H1390 H 0.04981 0.75906 0.31029
 H1391 H 0.04960 0.81059 0.25884
 H1392 H 0.08052 0.82995 0.27824
 C1393 C 0.58301 0.69540 0.69548
 C1394 C 0.57407 0.68649 0.71537
 C1395 C 0.55643 0.69755 0.72639
 C1396 C 0.61769 0.67557 0.67575
 C1397 C 0.55646 0.72640 0.69750
 C1398 C 0.57410 0.71530 0.68652
 C1399 C 0.60175 0.68449 0.68464
 C1400 C 0.54752 0.71771 0.71766
 H1401 H 0.58087 0.67112 0.72248
 H1402 H 0.54994 0.69042 0.74186
 H1403 H 0.55000 0.74188 0.69034
 H1404 H 0.58093 0.72237 0.67115
 C1405 C 0.58253 0.19440 0.19437
 C1406 C 0.57364 0.18543 0.21426
 C1407 C 0.55603 0.19645 0.22536
 C1408 C 0.61722 0.17467 0.17459
 C1409 C 0.55597 0.22537 0.19654
 C1410 C 0.57358 0.21432 0.18548
 C1411 C 0.60128 0.18355 0.18348
 C1412 C 0.54709 0.21664 0.21670
 H1413 H 0.58048 0.17005 0.22131
 H1414 H 0.54958 0.18928 0.24083
 H1415 H 0.54948 0.24087 0.18943
 H1416 H 0.58037 0.22144 0.17012
 C1417 C 0.08281 0.69527 0.19491
 C1418 C 0.07394 0.68629 0.21481
 C1419 C 0.05631 0.69728 0.22591
 C1420 C 0.11749 0.67555 0.17510
 C1421 C 0.05618 0.72619 0.19708
 C1422 C 0.07382 0.71516 0.18602
 C1423 C 0.10155 0.68443 0.18401
 C1424 C 0.04733 0.71744 0.21724
 H1425 H 0.08081 0.67092 0.22187
 H1426 H 0.04988 0.69010 0.24138
 H1427 H 0.04966 0.74167 0.18996
 H1428 H 0.08059 0.72228 0.17065
 C1429 C 0.08244 0.19395 0.69483
 C1430 C 0.07347 0.18507 0.71472
 C1431 C 0.05584 0.19617 0.72573
 C1432 C 0.11715 0.17411 0.67517
 C1433 C 0.05593 0.22498 0.69680
 C1434 C 0.07356 0.21385 0.68584
 C1435 C 0.10119 0.18303 0.68403
 C1436 C 0.04698 0.21634 0.71696
 H1437 H 0.08026 0.16970 0.72186
 H1438 H 0.04934 0.18907 0.74121
 H1439 H 0.04950 0.24046 0.68961
 H1440 H 0.08041 0.22089 0.67047
 C1441 C 0.41718 0.69559 0.30488
 C1442 C 0.42611 0.71550 0.31382
 C1443 C 0.44376 0.72657 0.30281
 C1444 C 0.38249 0.67579 0.32463
 C1445 C 0.44374 0.69767 0.27395
 C1446 C 0.42610 0.68664 0.28500
 C1447 C 0.39843 0.68470 0.31574
 C1448 C 0.45268 0.71785 0.28266
 H1449 H 0.41930 0.72260 0.32918
 H1450 H 0.45024 0.74206 0.30996
 H1451 H 0.45022 0.69051 0.25849
 H1452 H 0.41928 0.67125 0.27791
 C1453 C 0.41718 0.19418 0.80534
 C1454 C 0.42613 0.21409 0.81427
 C1455 C 0.44374 0.22517 0.80323
 C1456 C 0.38249 0.17440 0.82509
 C1457 C 0.44369 0.19627 0.77437
 C1458 C 0.42608 0.18523 0.78544
 C1459 C 0.39843 0.18330 0.81621
 C1460 C 0.45263 0.21646 0.78306
 H1461 H 0.41933 0.22119 0.82964
 H1462 H 0.45023 0.24067 0.81036
 H1463 H 0.45014 0.18913 0.75889
 H1464 H 0.41924 0.16985 0.77836
 C1465 C 0.91739 0.69528 0.80518
 C1466 C 0.92639 0.71515 0.81413
 C1467 C 0.94403 0.72620 0.80309
 C1468 C 0.88270 0.67552 0.82498
 C1469 C 0.94388 0.69735 0.77419
 C1470 C 0.92624 0.68634 0.78526
 C1471 C 0.89864 0.68441 0.81607
 C1472 C 0.95288 0.71750 0.78291
 H1473 H 0.91963 0.72224 0.82952
 H1474 H 0.95056 0.74167 0.81025
 H1475 H 0.95030 0.69021 0.75869
 H1476 H 0.91936 0.67099 0.77816
 C1477 C 0.91755 0.19448 0.30480
 C1478 C 0.92649 0.21439 0.31374
 C1479 C 0.94413 0.22546 0.30274
 C1480 C 0.88281 0.17473 0.32449
 C1481 C 0.94414 0.19656 0.27389
 C1482 C 0.92649 0.18553 0.28492
 C1483 C 0.89878 0.18362 0.31563
 C1484 C 0.95306 0.21674 0.28260
 H1485 H 0.91966 0.22149 0.32910
 H1486 H 0.95061 0.24095 0.30989
 H1487 H 0.95062 0.18941 0.25842
 H1488 H 0.91966 0.17015 0.27783
 C1489 C 0.30471 0.30455 0.58339
 C1490 C 0.31366 0.28466 0.57445
 C1491 C 0.30263 0.27360 0.55681
 C1492 C 0.32448 0.32432 0.61806
 C1493 C 0.27374 0.30248 0.55684
 C1494 C 0.28480 0.31350 0.57448
 C1495 C 0.31558 0.31542 0.60213
 C1496 C 0.28246 0.28232 0.54790
 H1497 H 0.32904 0.27756 0.58126
 H1498 H 0.30979 0.25812 0.55032
 H1499 H 0.25825 0.30964 0.55038
 H1500 H 0.27770 0.32887 0.58131
 C1501 C 0.30523 0.80575 0.08290
 C1502 C 0.31423 0.78584 0.07404
 C1503 C 0.30325 0.77470 0.05644
 C1504 C 0.32494 0.82564 0.11754
 C1505 C 0.27429 0.80351 0.05632
 C1506 C 0.28531 0.81462 0.07393
 C1507 C 0.31606 0.81670 0.10162
 C1508 C 0.28306 0.78333 0.04747
 H1509 H 0.32962 0.77880 0.08089
 H1510 H 0.31045 0.75921 0.05002
 H1511 H 0.25879 0.81061 0.04981
 H1512 H 0.27817 0.83001 0.08069
 C1513 C 0.80525 0.30487 0.08273
 C1514 C 0.81415 0.28498 0.07371
 C1515 C 0.80306 0.27397 0.05610
 C1516 C 0.82515 0.32455 0.11738
 C1517 C 0.77418 0.30287 0.05629
 C1518 C 0.78531 0.31384 0.07391
 C1519 C 0.81620 0.31569 0.10145
 C1520 C 0.78285 0.28272 0.04728
 H1521 H 0.82956 0.27786 0.08045
 H1522 H 0.81018 0.25850 0.04955
 H1523 H 0.75867 0.31004 0.04990
 H1524 H 0.77825 0.32920 0.08080
 C1525 C 0.80539 0.80559 0.58334
 C1526 C 0.81432 0.78563 0.57451
 C1527 C 0.80331 0.77451 0.55691
 C1528 C 0.82514 0.82547 0.61797
 C1529 C 0.77445 0.80343 0.55676
 C1530 C 0.78551 0.81452 0.57436
 C1531 C 0.81625 0.81653 0.60205
 C1532 C 0.78316 0.78321 0.54794
 H1533 H 0.82969 0.77855 0.58138
 H1534 H 0.81045 0.75899 0.55051
 H1535 H 0.75898 0.81057 0.55024
 H1536 H 0.77842 0.82993 0.58110
 C1537 C 0.30515 0.69544 0.41689
 C1538 C 0.31407 0.71535 0.42586
 C1539 C 0.30302 0.72637 0.44349
 C1540 C 0.32494 0.67574 0.38221
 C1541 C 0.27415 0.69744 0.44340
 C1542 C 0.28524 0.68646 0.42577
 C1543 C 0.31604 0.68461 0.39815
 C1544 C 0.28284 0.71761 0.45236
 H1545 H 0.32945 0.72247 0.41908
 H1546 H 0.31015 0.74185 0.45001
 H1547 H 0.25866 0.69026 0.44983
 H1548 H 0.27816 0.67108 0.41891
 C1549 C 0.30506 0.19426 0.91718
 C1550 C 0.31398 0.21421 0.92605
 C1551 C 0.30294 0.22530 0.94364
 C1552 C 0.32484 0.17443 0.88256
 C1553 C 0.27410 0.19636 0.94372
 C1554 C 0.28517 0.18530 0.92613
 C1555 C 0.31593 0.18335 0.89847
 C1556 C 0.28278 0.21658 0.95258
 H1557 H 0.32934 0.22131 0.91921
 H1558 H 0.31008 0.24083 0.95007
 H1559 H 0.25862 0.18919 0.95021
 H1560 H 0.27809 0.16989 0.91936
 C1561 C 0.80527 0.69524 0.91717
 C1562 C 0.81422 0.71511 0.92619
 C1563 C 0.80315 0.72614 0.94380
 C1564 C 0.82511 0.67551 0.88253
 C1565 C 0.77420 0.69729 0.94359
 C1566 C 0.78531 0.68630 0.92598
 C1567 C 0.81619 0.68440 0.89845
 C1568 C 0.78292 0.71743 0.95260
 H1569 H 0.82964 0.72220 0.91946
 H1570 H 0.81030 0.74160 0.95035
 H1571 H 0.75867 0.69014 0.94997
 H1572 H 0.77821 0.67095 0.91909
 C1573 C 0.80543 0.19451 0.41667
 C1574 C 0.81437 0.21443 0.42559
 C1575 C 0.80334 0.22549 0.44320
 C1576 C 0.82518 0.17475 0.38200
 C1577 C 0.77446 0.19658 0.44320
 C1578 C 0.78552 0.18555 0.42559
 C1579 C 0.81629 0.18364 0.39793
 C1580 C 0.78316 0.21677 0.45211
 H1581 H 0.82974 0.22153 0.41878
 H1582 H 0.81048 0.24099 0.44967
 H1583 H 0.75897 0.18942 0.44967
 H1584 H 0.77843 0.17016 0.41877
 C1585 C 0.69506 0.30473 0.41655
 C1586 C 0.71496 0.31371 0.42547
 C1587 C 0.72603 0.30270 0.44310
 C1588 C 0.67529 0.32447 0.38187
 C1589 C 0.69715 0.27379 0.44310
 C1590 C 0.68612 0.28483 0.42547
 C1591 C 0.68419 0.31558 0.39780
 C1592 C 0.71732 0.28253 0.45202
 H1593 H 0.72205 0.32909 0.41865
 H1594 H 0.74151 0.30987 0.44957
 H1595 H 0.69000 0.25830 0.44958
 H1596 H 0.67074 0.27771 0.41866
 C1597 C 0.69506 0.80580 0.91726
 C1598 C 0.71498 0.81466 0.92624
 C1599 C 0.72599 0.80355 0.94383
 C1600 C 0.67534 0.82570 0.88265
 C1601 C 0.69702 0.77473 0.94369
 C1602 C 0.68604 0.78588 0.92610
 C1603 C 0.68423 0.81675 0.89855
 C1604 C 0.71721 0.78336 0.95266
 H1605 H 0.72213 0.83005 0.91949
 H1606 H 0.74150 0.81064 0.95035
 H1607 H 0.68981 0.75924 0.95009
 H1608 H 0.67065 0.77885 0.91924
 C1609 C 0.19457 0.30452 0.91705
 C1610 C 0.21446 0.31352 0.92596
 C1611 C 0.22556 0.30252 0.94358
 C1612 C 0.17476 0.32428 0.88241
 C1613 C 0.19673 0.27356 0.94358
 C1614 C 0.18567 0.28459 0.92597
 C1615 C 0.18367 0.31538 0.89833
 C1616 C 0.21689 0.28233 0.95249
 H1617 H 0.22153 0.32892 0.91915
 H1618 H 0.24104 0.30972 0.95004
 H1619 H 0.18961 0.25805 0.95006
 H1620 H 0.17030 0.27746 0.91916
 C1621 C 0.19479 0.80574 0.41706
 C1622 C 0.21469 0.81468 0.42603
 C1623 C 0.22574 0.80361 0.44363
 C1624 C 0.17505 0.82556 0.38241
 C1625 C 0.19685 0.77470 0.44351
 C1626 C 0.18584 0.78581 0.42591
 C1627 C 0.18394 0.81665 0.39834
 C1628 C 0.21701 0.78340 0.45248
 H1629 H 0.22180 0.83008 0.41927
 H1630 H 0.24122 0.81075 0.45014
 H1631 H 0.18969 0.75919 0.44993
 H1632 H 0.17047 0.77872 0.41906
 C1633 C 0.69500 0.69522 0.58347
 C1634 C 0.68608 0.71513 0.57452
 C1635 C 0.69714 0.72615 0.55690
 C1636 C 0.67521 0.67551 0.61815
 C1637 C 0.72598 0.69721 0.55695
 C1638 C 0.71489 0.68623 0.57458
 C1639 C 0.68411 0.68439 0.60222
 C1640 C 0.71730 0.71739 0.54801
 H1641 H 0.67071 0.72226 0.58132
 H1642 H 0.69001 0.74164 0.55040
 H1643 H 0.74146 0.69003 0.55050
 H1644 H 0.72196 0.67085 0.58142
 C1645 C 0.69468 0.19458 0.08253
 C1646 C 0.68573 0.21450 0.07367
 C1647 C 0.69675 0.22562 0.05609
 C1648 C 0.67489 0.17473 0.11713
 C1649 C 0.72565 0.19675 0.05601
 C1650 C 0.71459 0.18566 0.07359
 C1651 C 0.68380 0.18365 0.10123
 C1652 C 0.71693 0.21694 0.04715
 H1653 H 0.67034 0.22158 0.08049
 H1654 H 0.68960 0.24113 0.04966
 H1655 H 0.74114 0.18962 0.04952
 H1656 H 0.72169 0.17027 0.08036
 C1657 C 0.19496 0.69522 0.08294
 C1658 C 0.18602 0.71508 0.07393
 C1659 C 0.19709 0.72611 0.05632
 C1660 C 0.17511 0.67551 0.11758
 C1661 C 0.22603 0.69727 0.05651
 C1662 C 0.21492 0.68628 0.07412
 C1663 C 0.18404 0.68439 0.10166
 C1664 C 0.21731 0.71740 0.04751
 H1665 H 0.17060 0.72218 0.08066
 H1666 H 0.18994 0.74157 0.04977
 H1667 H 0.24155 0.69013 0.05012
 H1668 H 0.22201 0.67093 0.08101
 C1669 C 0.19450 0.19401 0.58307
 C1670 C 0.18553 0.21394 0.57421
 C1671 C 0.19654 0.22506 0.55663
 C1672 C 0.17477 0.17415 0.61770
 C1673 C 0.22545 0.19619 0.55652
 C1674 C 0.21440 0.18510 0.57411
 C1675 C 0.18366 0.18308 0.60178
 C1676 C 0.21672 0.21639 0.54768
 H1677 H 0.17016 0.22100 0.58106
 H1678 H 0.18938 0.24057 0.55021
 H1679 H 0.24093 0.18907 0.55002
 H1680 H 0.22151 0.16971 0.58087
   
