data_POSCAR
  _audit_creation_date              2014-09-24
  _audit_creation_method            'ToBaCCo'
  _symmetry_space_group_name_H-M    'P1'
  _symmetry_Int_Tables_number       1
  _symmetry_cell_setting            triclinic
  loop_
  _symmetry_equiv_pos_as_xyz
 x,y,z
_cell_length_a 52.2214
_cell_length_b 52.3798
_cell_length_c 52.1726
_cell_angle_alpha 89.957300
_cell_angle_beta 89.644700
_cell_angle_gamma 90.070700
loop_
  _atom_site_label
  _atom_site_type_symbol
  _atom_site_fract_x
  _atom_site_fract_y
  _atom_site_fract_z
N1 N 0.37930 1.36448 0.31395
 N2 N 0.35686 1.37425 0.30834
 C3 C 0.35564 1.37877 0.28311
 C4 C 0.37888 1.37224 0.27233
 C5 C 0.39383 1.36376 0.29246
 H6 H 0.33903 1.38640 0.27347
 H7 H 0.41276 1.35548 0.29118
 Cu8 Cu 0.33076 1.37953 0.33411
 Cu9 Cu 0.38415 1.34773 0.34718
 Cu10 Cu 0.32450 1.32682 0.36906
 N11 N 0.30089 1.37436 0.35506
 N12 N 0.29716 1.35234 0.36660
 C13 C 0.27306 1.35168 0.37580
 C14 C 0.26163 1.37499 0.37054
 C15 C 0.27996 1.38907 0.35761
 H16 H 0.26483 1.33578 0.38623
 H17 H 0.27775 1.40787 0.34931
 N18 N 0.35732 1.31025 0.37863
 N19 N 0.37988 1.31958 0.37180
 C20 C 0.39845 1.30505 0.38187
 C21 C 0.38713 1.28534 0.39540
 C22 C 0.36102 1.28914 0.39300
 H23 H 0.41869 1.30784 0.37833
 H24 H 0.34593 1.27735 0.40095
 H25 H 0.34813 1.33656 0.33921
 H26 H 0.35035 1.35584 0.36905
 N27 N 0.39229 0.86224 0.81967
 N28 N 0.38024 0.88423 0.82102
 C29 C 0.38231 0.89633 0.79842
 C30 C 0.39661 0.88136 0.78200
 C31 C 0.40267 0.85978 0.79603
 H32 H 0.37211 0.91360 0.79349
 H33 H 0.41149 0.84253 0.78879
 Cu34 Cu 0.35867 0.89328 0.85003
 Cu35 Cu 0.38867 0.83697 0.84722
 Cu36 Cu 0.32941 0.84339 0.87713
 N37 N 0.32912 0.89787 0.87206
 N38 N 0.31707 0.87821 0.88215
 C39 C 0.29540 0.88643 0.89363
 C40 C 0.29396 0.91266 0.89050
 C41 C 0.31575 0.91926 0.87684
 H42 H 0.28127 0.87414 0.90256
 H43 H 0.32070 0.93793 0.86947
 N44 N 0.34985 0.81165 0.87796
 N45 N 0.37297 0.80949 0.86775
 C46 C 0.38231 0.78609 0.87305
 C47 C 0.36401 0.77293 0.88708
 C48 C 0.34378 0.78967 0.88984
 H49 H 0.40085 0.77911 0.86692
 H50 H 0.32618 0.78633 0.90034
 H51 H 0.35191 0.84762 0.84458
 H52 H 0.36659 0.85542 0.87610
 N53 N 0.86749 1.35193 0.80931
 N54 N 0.84955 1.36605 0.79885
 C55 C 0.86018 1.38156 0.78116
 C56 C 0.88632 1.37733 0.78103
 C57 C 0.89033 1.35863 0.79935
 H58 H 0.84971 1.39495 0.76942
 H59 H 0.90824 1.34945 0.80405
 Cu60 Cu 0.81423 1.36319 0.81006
 Cu61 Cu 0.85938 1.32392 0.83281
 Cu62 Cu 0.79559 1.30575 0.83037
 N63 N 0.78023 1.35800 0.82438
 N64 N 0.77247 1.33496 0.83076
 C65 C 0.74849 1.33631 0.84012
 C66 C 0.74106 1.36162 0.84020
 C67 C 0.76166 1.37495 0.83010
 H68 H 0.73800 1.32027 0.84802
 H69 H 0.76329 1.39541 0.82776
 N70 N 0.82287 1.28314 0.84272
 N71 N 0.84702 1.29027 0.84486
 C72 C 0.86032 1.27126 0.85607
 C73 C 0.84354 1.25143 0.86143
 C74 C 0.82005 1.25963 0.85265
 H75 H 0.88049 1.27206 0.86062
 H76 H 0.80196 1.24967 0.85424
 H77 H 0.82841 1.31873 0.81061
 H78 H 0.82142 1.33129 0.84334
 N79 N 0.86462 0.84330 0.30374
 N80 N 0.85663 0.86713 0.30323
 C81 C 0.86636 0.87869 0.28220
 C82 C 0.88095 0.86093 0.26883
 C83 C 0.87921 0.83871 0.28301
 H84 H 0.86340 0.89852 0.27730
 H85 H 0.88913 0.82090 0.27954
 Cu86 Cu 0.83467 0.88039 0.33063
 Cu87 Cu 0.85924 0.82117 0.33315
 Cu88 Cu 0.84877 0.85580 0.38825
 N89 N 0.81635 0.89133 0.36164
 N90 N 0.82342 0.88266 0.38418
 C91 C 0.80917 0.89366 0.40259
 C92 C 0.79164 0.90959 0.39110
 C93 C 0.79657 0.90766 0.36499
 H94 H 0.81069 0.88937 0.42281
 H95 H 0.78664 0.91744 0.34973
 N96 N 0.86316 0.82106 0.38824
 N97 N 0.86588 0.80731 0.36725
 C98 C 0.87492 0.78407 0.37347
 C99 C 0.87785 0.78316 0.39974
 C100 C 0.87016 0.80686 0.40852
 H101 H 0.87909 0.76905 0.35987
 H102 H 0.86931 0.81325 0.42820
 H103 H 0.83301 0.84172 0.35661
 H104 H 0.86637 0.85417 0.35263
 N105 N 0.62871 0.63805 0.31259
 N106 N 0.64648 0.62029 0.31266
 C107 C 0.64022 0.60199 0.29582
 C108 C 0.61762 0.60889 0.28421
 C109 C 0.61083 0.63200 0.29505
 H110 H 0.65114 0.58475 0.29254
 H111 H 0.59367 0.64291 0.29137
 Cu112 Cu 0.67547 0.62155 0.33557
 Cu113 Cu 0.62954 0.66633 0.33679
 Cu114 Cu 0.67476 0.66196 0.38515
 N115 N 0.69619 0.61539 0.36554
 N116 N 0.69429 0.63034 0.38568
 C117 C 0.70824 0.62048 0.40483
 C118 C 0.71965 0.59837 0.39605
 C119 C 0.71187 0.59573 0.37096
 H120 H 0.71017 0.62891 0.42364
 H121 H 0.71640 0.58022 0.35803
 N122 N 0.64824 0.68863 0.38438
 N123 N 0.63029 0.68943 0.36666
 C124 C 0.61320 0.70757 0.37302
 C125 C 0.62114 0.71907 0.39539
 C126 C 0.64341 0.70674 0.40212
 H127 H 0.59594 0.71181 0.36249
 H128 H 0.65434 0.70970 0.41940
 H129 H 0.66772 0.66670 0.34654
 H130 H 0.64670 0.64399 0.36432
 N131 N 0.62091 0.13670 0.80367
 N132 N 0.63127 0.11475 0.81002
 C133 C 0.61980 0.09591 0.79693
 C134 C 0.60198 0.10671 0.78070
 C135 C 0.60330 0.13273 0.78529
 H136 H 0.62524 0.07602 0.79799
 H137 H 0.59206 0.14755 0.77633
 Cu138 Cu 0.66122 0.11292 0.83186
 Cu139 Cu 0.63066 0.16829 0.82084
 Cu140 Cu 0.66886 0.15970 0.87461
 N141 N 0.68449 0.10900 0.86045
 N142 N 0.68586 0.12679 0.87815
 C143 C 0.70141 0.11878 0.89694
 C144 C 0.71067 0.09496 0.89043
 C145 C 0.69966 0.08925 0.86710
 H146 H 0.70597 0.12960 0.91396
 H147 H 0.70174 0.07173 0.85633
 N148 N 0.65042 0.19167 0.86728
 N149 N 0.63562 0.19501 0.84710
 C150 C 0.62618 0.21901 0.84758
 C151 C 0.63607 0.23130 0.86876
 C152 C 0.65141 0.21357 0.88064
 H153 H 0.61397 0.22723 0.83310
 H154 H 0.66278 0.21666 0.89761
 H155 H 0.66669 0.15950 0.83552
 H156 H 0.63796 0.14714 0.85287
 N157 N 1.11981 0.64252 0.81603
 N158 N 1.13514 0.62286 0.81923
 C159 C 1.12649 0.60314 0.80525
 C160 C 1.10488 0.61100 0.79231
 C161 C 1.10115 0.63612 0.79949
 H162 H 1.13602 0.58489 0.80354
 H163 H 1.08631 0.64888 0.79289
 Cu164 Cu 1.16664 0.62541 0.83903
 Cu165 Cu 1.12607 0.67492 0.83343
 Cu166 Cu 1.19104 0.68455 0.83847
 N167 N 1.20164 0.63203 0.85018
 N168 N 1.21115 0.65523 0.84871
 C169 C 1.23529 0.65518 0.85730
 C170 C 1.24128 0.63073 0.86506
 C171 C 1.21951 0.61634 0.86017
 H172 H 1.24706 0.67208 0.85898
 H173 H 1.21664 0.59629 0.86425
 N174 N 1.16588 0.71239 0.84085
 N175 N 1.14089 0.70862 0.84062
 C176 C 1.12902 0.73010 0.84844
 C177 C 1.14759 0.74815 0.85394
 C178 C 1.17064 0.73635 0.84865
 H179 H 1.10861 0.73183 0.85160
 H180 H 1.18955 0.74373 0.85262
 H181 H 1.16092 0.66748 0.81941
 H182 H 1.15958 0.66830 0.85523
 N183 N 1.12026 0.14958 0.30297
 N184 N 1.13820 0.13214 0.30048
 C185 C 1.12960 0.11293 0.28595
 C186 C 1.10512 0.11870 0.27841
 C187 C 1.09964 0.14226 0.28924
 H188 H 1.14058 0.09617 0.28082
 H189 H 1.08194 0.15285 0.28784
 Cu190 Cu 1.17179 0.13586 0.31517
 Cu191 Cu 1.12581 0.17923 0.32540
 Cu192 Cu 1.17054 0.16344 0.37217
 N193 N 1.20073 0.13367 0.33782
 N194 N 1.19989 0.14339 0.36100
 C195 C 1.22114 0.13645 0.37376
 C196 C 1.23613 0.12199 0.35732
 C197 C 1.22263 0.12067 0.33470
 H198 H 1.22518 0.14132 0.39347
 H199 H 1.22769 0.10998 0.31769
 N200 N 1.14675 0.19250 0.37506
 N201 N 1.13029 0.19933 0.35717
 C202 C 1.12073 0.22255 0.36313
 C203 C 1.13217 0.23064 0.38559
 C204 C 1.14830 0.21112 0.39260
 H205 H 1.10827 0.23362 0.35093
 H206 H 1.16181 0.21134 0.40822
 H207 H 1.16507 0.17702 0.33544
 H208 H 1.14176 0.15256 0.34710
 N209 N 0.62261 1.37159 0.69164
 N210 N 0.63695 1.39149 0.68594
 C211 C 0.62941 1.41150 0.70043
 C212 C 0.60909 1.40348 0.71561
 C213 C 0.60530 1.37820 0.70954
 H214 H 0.63740 1.43053 0.69934
 H215 H 0.59074 1.36561 0.71729
 Cu216 Cu 0.66267 1.38905 0.65873
 Cu217 Cu 0.62692 1.33858 0.67524
 Cu218 Cu 0.65273 1.34303 0.61473
 N219 N 0.68812 1.38140 0.63232
 N220 N 0.68366 1.36385 0.61486
 C221 C 0.70493 1.36024 0.60078
 C222 C 0.72379 1.37613 0.60995
 C223 C 0.71252 1.38958 0.62984
 H224 H 0.70702 1.34578 0.58611
 H225 H 0.72189 1.40268 0.64278
 N226 N 0.63061 1.31454 0.62529
 N227 N 0.62273 1.31198 0.64922
 C228 C 0.61096 1.28937 0.65194
 C229 C 0.61132 1.27710 0.62854
 C230 C 0.62377 1.29361 0.61192
 H231 H 0.60258 1.28248 0.66964
 H232 H 0.62858 1.29017 0.59202
 H233 H 0.65957 1.34299 0.65261
 H234 H 0.62954 1.35980 0.64331
 N235 N 0.61816 0.87892 1.17770
 N236 N 0.63984 0.89149 1.17990
 C237 C 0.64084 0.90219 1.20337
 C238 C 0.61876 0.89564 1.21654
 C239 C 0.60486 0.88088 1.19971
 H240 H 0.65771 0.91107 1.21139
 H241 H 0.58773 0.87005 1.20415
 Cu242 Cu 0.66747 0.88686 1.15489
 Cu243 Cu 0.61145 0.85653 1.14883
 Cu244 Cu 0.66390 0.82618 1.12863
 N245 N 0.69695 0.86999 1.13889
 N246 N 0.69588 0.84623 1.13050
 C247 C 0.71927 0.83924 1.12230
 C248 C 0.73574 0.85960 1.12558
 C249 C 0.72100 0.87889 1.13601
 H250 H 0.72382 0.82094 1.11387
 H251 H 0.72732 0.89778 1.14147
 N252 N 0.62972 0.81475 1.11911
 N253 N 0.60906 0.82706 1.12656
 C254 C 0.58820 0.81399 1.11916
 C255 C 0.59626 0.79216 1.10658
 C256 C 0.62273 0.79326 1.10684
 H257 H 0.56874 0.81916 1.12406
 H258 H 0.63591 0.77894 1.09980
 H259 H 0.65641 0.85013 1.15909
 H260 H 0.65186 0.86272 1.12599
 N261 N 1.12926 1.36109 1.19315
 N262 N 1.14844 1.37662 1.18801
 C263 C 1.14890 1.39544 1.20532
 C264 C 1.12931 1.39151 1.22266
 C265 C 1.11684 1.36967 1.21427
 H266 H 1.16377 1.40979 1.20631
 H267 H 1.10139 1.35970 1.22391
 Cu268 Cu 1.17522 1.36872 1.16347
 Cu269 Cu 1.12539 1.32933 1.17350
 Cu270 Cu 1.18592 1.30616 1.15948
 N271 N 1.20743 1.35583 1.15060
 N272 N 1.21196 1.33117 1.15007
 C273 C 1.23637 1.32728 1.14276
 C274 C 1.24763 1.35082 1.13841
 C275 C 1.22871 1.36857 1.14346
 H276 H 1.24518 1.30871 1.14077
 H277 H 1.23044 1.38914 1.14274
 N278 N 1.15473 1.28482 1.15892
 N279 N 1.13135 1.29379 1.16254
 C280 C 1.11425 1.27573 1.15570
 C281 C 1.12771 1.25439 1.14757
 C282 C 1.15320 1.26082 1.15007
 H283 H 1.09372 1.27840 1.15537
 H284 H 1.16948 1.24971 1.14374
 H285 H 1.16249 1.32801 1.18255
 H286 H 1.15682 1.32945 1.14725
 N287 N 1.11455 0.88487 0.67570
 N288 N 1.13629 0.89750 0.67630
 C289 C 1.13952 0.90745 0.69987
 C290 C 1.11855 0.90077 0.71468
 C291 C 1.10317 0.88638 0.69881
 H292 H 1.15690 0.91650 0.70647
 H293 H 1.08621 0.87581 0.70438
 Cu294 Cu 1.16005 0.89556 0.64770
 Cu295 Cu 1.10516 0.86367 0.64657
 Cu296 Cu 1.15771 0.84272 0.61140
 N297 N 1.18167 0.89165 0.61775
 N298 N 1.18249 0.87018 0.60466
 C299 C 1.20164 0.87168 0.58722
 C300 C 1.21263 0.89567 0.58921
 C301 C 1.19948 0.90778 0.60864
 H302 H 1.20691 0.85668 0.57396
 H303 H 1.20339 0.92656 0.61629
 N304 N 1.12441 0.82438 0.61223
 N305 N 1.10415 0.83366 0.62428
 C306 C 1.08429 0.81769 0.62132
 C307 C 1.09231 0.79712 0.60691
 C308 C 1.11788 0.80191 0.60135
 H309 H 1.06575 0.82026 0.63027
 H310 H 1.13079 0.78984 0.59054
 H311 H 1.14237 0.85238 0.64724
 H312 H 1.13325 0.87133 0.61843
 N313 N 0.38737 0.62723 0.68801
 N314 N 0.36766 0.61170 0.69020
 C315 C 0.37248 0.59424 0.70854
 C316 C 0.39682 0.59874 0.71775
 C317 C 0.40580 0.61965 0.70421
 H318 H 0.35942 0.57931 0.71455
 H319 H 0.42391 0.62934 0.70678
 Cu320 Cu 0.33839 0.61513 0.66770
 Cu321 Cu 0.38644 0.65761 0.66617
 Cu322 Cu 0.32467 0.67447 0.64921
 N323 N 0.31213 0.62185 0.64233
 N324 N 0.30556 0.64531 0.63630
 C325 C 0.28618 0.64462 0.61939
 C326 C 0.28090 0.61933 0.61413
 C327 C 0.29767 0.60538 0.62897
 H328 H 0.27731 0.66123 0.61088
 H329 H 0.29899 0.58481 0.63025
 N330 N 0.35303 0.69902 0.65070
 N331 N 0.37702 0.69241 0.65493
 C332 C 0.39218 0.71302 0.65128
 C333 C 0.37676 0.73347 0.64469
 C334 C 0.35213 0.72390 0.64462
 H335 H 0.41279 0.71312 0.65321
 H336 H 0.33492 0.73391 0.63909
 H337 H 0.34931 0.65948 0.67731
 H338 H 0.35475 0.65124 0.64293
 N339 N 0.35465 0.15017 1.20128
 N340 N 0.33024 0.14862 1.20699
 C341 C 0.32748 0.13799 1.23035
 C342 C 0.35154 0.13242 1.23966
 C343 C 0.36845 0.14046 1.22077
 H344 H 0.30935 0.13320 1.23923
 H345 H 0.38902 0.13821 1.22057
 Cu346 Cu 0.30405 0.15600 1.18171
 Cu347 Cu 0.36623 0.16164 1.16757
 Cu348 Cu 0.31976 0.19018 1.12959
 N349 N 0.27916 0.16370 1.15536
 N350 N 0.28563 0.17529 1.13393
 C351 C 0.26523 0.17552 1.11810
 C352 C 0.24497 0.16385 1.13076
 C353 C 0.25443 0.15673 1.15428
 H354 H 0.26515 0.18364 1.09905
 H355 H 0.24427 0.14618 1.16898
 N356 N 0.35677 0.19614 1.12458
 N357 N 0.37434 0.18448 1.13844
 C358 C 0.39755 0.19370 1.13195
 C359 C 0.39449 0.21221 1.11334
 C360 C 0.36840 0.21319 1.10900
 H361 H 0.41517 0.18870 1.14149
 H362 H 0.35855 0.22621 1.09636
 H363 H 0.33595 0.18626 1.16628
 H364 H 0.33343 0.15783 1.14487
 N365 N 0.86945 0.63804 1.19765
 N366 N 0.84708 0.62645 1.19758
 C367 C 0.84300 0.61561 1.22057
 C368 C 0.86402 0.62047 1.23571
 C369 C 0.88063 0.63451 1.22057
 H370 H 0.82613 0.60476 1.22580
 H371 H 0.89908 0.64214 1.22596
 Cu372 Cu 0.82548 0.62603 1.16749
 Cu373 Cu 0.88147 0.65798 1.16849
 Cu374 Cu 0.83500 0.67096 1.12340
 N375 N 0.80826 0.62445 1.13458
 N376 N 0.81303 0.64174 1.11690
 C377 C 0.79841 0.63711 1.09633
 C378 C 0.78348 0.61595 1.10150
 C379 C 0.79005 0.60838 1.12599
 H380 H 0.79767 0.64911 1.07947
 H381 H 0.78184 0.59277 1.13686
 N382 N 0.86528 0.69238 1.12809
 N383 N 0.88387 0.68675 1.14415
 C384 C 0.90073 0.70628 1.14453
 C385 C 0.89194 0.72501 1.12817
 C386 C 0.86948 0.71565 1.11815
 H387 H 0.91655 0.70791 1.15771
 H388 H 0.85635 0.72575 1.10583
 H389 H 0.84436 0.66805 1.16255
 H390 H 0.85792 0.64458 1.13910
 N391 N 0.87399 0.12883 0.68621
 N392 N 0.85765 0.11127 0.67870
 C393 C 0.85940 0.09093 0.69434
 C394 C 0.87755 0.09622 0.71279
 C395 C 0.88638 0.12046 0.70716
 H396 H 0.84766 0.07397 0.69299
 H397 H 0.90072 0.13118 0.71746
 Cu398 Cu 0.83376 0.11743 0.65094
 Cu399 Cu 0.87786 0.16111 0.66826
 Cu400 Cu 0.84146 0.16921 0.61382
 N401 N 0.80591 0.13049 0.63003
 N402 N 0.80885 0.15135 0.61628
 C403 C 0.78667 0.15692 0.60466
 C404 C 0.76891 0.13849 0.61134
 C405 C 0.78173 0.12185 0.62735
 H406 H 0.78378 0.17311 0.59213
 H407 H 0.77392 0.10516 0.63681
 N408 N 0.87076 0.19119 0.62181
 N409 N 0.88474 0.18786 0.64252
 C410 C 0.90441 0.20443 0.64198
 C411 C 0.90245 0.21912 0.62011
 C412 C 0.88080 0.21042 0.60778
 H413 H 0.91928 0.20548 0.65628
 H414 H 0.87346 0.21696 0.58958
 H415 H 0.84164 0.16328 0.65189
 H416 H 0.86719 0.14548 0.63405
 N417 N 1.38122 0.38411 0.68191
 N418 N 1.38971 0.36082 0.68593
 C419 C 1.39851 0.35916 0.71012
 C420 C 1.39544 0.38271 0.72173
 C421 C 1.38442 0.39799 0.70329
 H422 H 1.40392 0.34152 0.71942
 H423 H 1.37664 0.41691 0.70622
 Cu424 Cu 1.38347 0.33384 0.66097
 Cu425 Cu 1.36084 0.39281 0.65186
 Cu426 Cu 1.32649 0.34018 0.63222
 N427 N 1.36900 0.30622 0.64088
 N428 N 1.34596 0.30850 0.63111
 C429 C 1.33937 0.28651 0.61976
 C430 C 1.35963 0.26967 0.62187
 C431 C 1.37825 0.28280 0.63538
 H432 H 1.32152 0.28350 0.60981
 H433 H 1.39687 0.27583 0.64105
 N434 N 1.31578 0.37557 0.62493
 N435 N 1.32971 0.39561 0.63124
 C436 C 1.31774 0.41696 0.62354
 C437 C 1.29510 0.41002 0.61184
 C438 C 1.29448 0.38364 0.61295
 H439 H 1.32452 0.43611 0.62724
 H440 H 1.27946 0.37129 0.60596
 H441 H 1.34442 0.35940 0.66157
 H442 H 1.36015 0.35899 0.62937
 N443 N 1.37338 0.87961 1.18654
 N444 N 1.39430 0.87198 1.17472
 C445 C 1.41471 0.87792 1.18909
 C446 C 1.40603 0.88936 1.21143
 C447 C 1.37962 0.89018 1.20918
 H448 H 1.43427 0.87337 1.18394
 H449 H 1.36600 0.89798 1.22278
 Cu450 Cu 1.39311 0.85393 1.14209
 Cu451 Cu 1.34051 0.87623 1.16996
 Cu452 Cu 1.33316 0.83363 1.12253
 N453 N 1.38770 0.82514 1.11821
 N454 N 1.36499 0.81548 1.11278
 C455 C 1.36824 0.79246 1.10150
 C456 C 1.39437 0.78772 1.09958
 C457 C 1.40595 0.80905 1.10998
 H458 H 1.35282 0.77985 1.09596
 H459 H 1.42611 0.81157 1.11379
 N460 N 1.31001 0.86321 1.12616
 N461 N 1.31371 0.87987 1.14467
 C462 C 1.29825 0.89998 1.14132
 C463 C 1.28390 0.89592 1.11965
 C464 C 1.29154 0.87223 1.11050
 H465 H 1.29832 0.91689 1.15322
 H466 H 1.28552 0.86318 1.09289
 H467 H 1.35954 0.83725 1.15351
 H468 H 1.35759 0.86232 1.12828
 N469 N 0.84820 0.36386 1.20666
 N470 N 0.85894 0.34122 1.20754
 C471 C 0.87894 0.34195 1.22346
 C472 C 0.88046 0.36612 1.23396
 C473 C 0.86030 0.37959 1.22324
 H474 H 0.89125 0.32583 1.22736
 H475 H 0.85597 0.39962 1.22578
 Cu476 Cu 0.84582 0.31235 1.18852
 Cu477 Cu 0.82168 0.37073 1.18125
 Cu478 Cu 0.81645 0.32417 1.13328
 N479 N 0.84174 0.28600 1.16302
 N480 N 0.83194 0.29098 1.14044
 C481 C 0.83395 0.26997 1.12556
 C482 C 0.84522 0.25088 1.13998
 C483 C 0.84982 0.26170 1.16361
 H484 H 0.82758 0.26863 1.10592
 H485 H 0.85939 0.25289 1.17967
 N486 N 0.80184 0.35874 1.13023
 N487 N 0.80427 0.37640 1.14818
 C488 C 0.79286 0.39795 1.14018
 C489 C 0.78232 0.39345 1.11644
 C490 C 0.78813 0.36843 1.11071
 H491 H 0.79169 0.41545 1.15111
 H492 H 0.78277 0.35816 1.09359
 H493 H 0.80866 0.33455 1.17046
 H494 H 0.83987 0.34581 1.15723
 N495 N 0.86095 0.87405 0.69609
 N496 N 0.87830 0.85645 0.69164
 C497 C 0.89885 0.86094 0.70632
 C498 C 0.89379 0.88216 0.72115
 C499 C 0.86949 0.88997 0.71442
 H500 H 0.91600 0.84938 0.70653
 H501 H 0.85915 0.90635 0.72169
 Cu502 Cu 0.87175 0.82895 0.66789
 Cu503 Cu 0.82959 0.87553 0.67633
 Cu504 Cu 0.82434 0.83256 0.62520
 N505 N 0.87125 0.80735 0.63797
 N506 N 0.85224 0.80780 0.62156
 C507 C 0.85688 0.79045 0.60296
 C508 C 0.88030 0.77919 0.60798
 C509 C 0.88888 0.79042 0.63016
 H510 H 0.84472 0.78706 0.58660
 H511 H 0.90671 0.78656 0.63986
 N512 N 0.80241 0.86320 0.62903
 N513 N 0.80496 0.87941 0.64828
 C514 C 0.79038 0.90001 0.64393
 C515 C 0.77779 0.89661 0.62113
 C516 C 0.78554 0.87300 0.61216
 H517 H 0.78977 0.91678 0.65600
 H518 H 0.78062 0.86448 0.59397
 H519 H 0.82556 0.83827 0.66375
 H520 H 0.84686 0.85914 0.64414
 N521 N 0.63035 0.61613 0.69076
 N522 N 0.61591 0.63668 0.69180
 C523 C 0.59703 0.63300 0.70917
 C524 C 0.59963 0.60867 0.71905
 C525 C 0.62089 0.59851 0.70699
 H526 H 0.58226 0.64671 0.71388
 H527 H 0.62914 0.57983 0.71010
 Cu528 Cu 0.62295 0.66585 0.66970
 Cu529 Cu 0.66106 0.61414 0.66928
 Cu530 Cu 0.65680 0.65329 0.61635
 N531 N 0.62849 0.69194 0.64362
 N532 N 0.64265 0.68696 0.62330
 C533 C 0.64520 0.70827 0.60920
 C534 C 0.63167 0.72756 0.62108
 C535 C 0.62112 0.71663 0.64287
 H536 H 0.65641 0.70972 0.59175
 H537 H 0.61005 0.72619 0.65758
 N538 N 0.67931 0.62319 0.61766
 N539 N 0.68266 0.60942 0.63856
 C540 C 0.70109 0.59189 0.63405
 C541 C 0.70925 0.59461 0.60891
 C542 C 0.69502 0.61453 0.59913
 H543 H 0.70756 0.57784 0.64776
 H544 H 0.69661 0.62266 0.58012
 H545 H 0.66483 0.65125 0.65422
 H546 H 0.63809 0.63032 0.64333
 N547 N 0.61366 1.10810 1.16824
 N548 N 0.60783 1.13005 1.17897
 C549 C 0.59375 1.12560 1.20031
 C550 C 0.59047 1.09938 1.20274
 C551 C 0.60290 1.08902 1.18172
 H552 H 0.58733 1.14019 1.21353
 H553 H 0.60607 1.06901 1.17773
 Cu554 Cu 0.62079 1.16185 1.16422
 Cu555 Cu 0.63928 1.10528 1.14112
 Cu556 Cu 0.67827 1.15831 1.13543
 N557 N 0.63509 1.19103 1.14571
 N558 N 0.65822 1.18974 1.13566
 C559 C 0.66400 1.21214 1.12451
 C560 C 0.64324 1.22826 1.12721
 C561 C 0.62511 1.21426 1.14075
 H562 H 0.68164 1.21597 1.11421
 H563 H 0.60612 1.22041 1.14635
 N564 N 0.68914 1.12403 1.12459
 N565 N 0.67375 1.10406 1.12572
 C566 C 0.68669 1.08320 1.11809
 C567 C 0.71136 1.09042 1.11174
 C568 C 0.71226 1.11648 1.11590
 H569 H 0.67904 1.06401 1.11839
 H570 H 0.72874 1.12884 1.11376
 H571 H 0.65768 1.13368 1.15983
 H572 H 0.64402 1.14279 1.12815
 N573 N 0.11453 0.61288 1.17084
 N574 N 0.10967 0.63598 1.17941
 C575 C 0.09780 0.63402 1.20250
 C576 C 0.09462 0.60821 1.20815
 C577 C 0.10510 0.59556 1.18734
 H578 H 0.09259 0.65004 1.21451
 H579 H 0.10786 0.57522 1.18524
 Cu580 Cu 0.11974 0.66565 1.15852
 Cu581 Cu 0.13774 0.60624 1.14224
 Cu582 Cu 0.17076 0.65884 1.11969
 N583 N 0.13118 0.69369 1.13610
 N584 N 0.15191 0.69050 1.12202
 C585 C 0.15792 0.71235 1.11020
 C586 C 0.13968 0.73036 1.11632
 C587 C 0.12262 0.71787 1.13269
 H588 H 0.17411 0.71459 1.09741
 H589 H 0.10572 0.72584 1.14176
 N590 N 0.18339 0.62392 1.11537
 N591 N 0.17064 0.60375 1.12373
 C592 C 0.18589 0.58313 1.12175
 C593 C 0.20919 0.59083 1.11170
 C594 C 0.20694 0.61670 1.10780
 H595 H 0.18097 0.56432 1.12883
 H596 H 0.22225 0.62960 1.10242
 H597 H 0.15741 0.63944 1.15153
 H598 H 0.13735 0.64136 1.12213
 N599 N 0.11841 1.11563 0.67257
 N600 N 0.10756 1.13701 0.68004
 C601 C 0.09270 1.13237 0.70082
 C602 C 0.09378 1.10641 0.70606
 C603 C 0.11004 1.09642 0.68751
 H604 H 0.08161 1.14663 0.71094
 H605 H 0.11643 1.07686 0.68573
 Cu606 Cu 0.11317 1.16792 0.66011
 Cu607 Cu 0.14413 1.11484 0.64515
 Cu608 Cu 0.16708 1.17420 0.62548
 N609 N 0.11650 1.19354 0.63329
 N610 N 0.13864 1.19821 0.62206
 C611 C 0.13620 1.21862 0.60646
 C612 C 0.11078 1.22609 0.60702
 C613 C 0.09884 1.20970 0.62415
 H614 H 0.15128 1.22622 0.59434
 H615 H 0.07899 1.21001 0.63021
 N616 N 0.18619 1.14226 0.61982
 N617 N 0.17706 1.11975 0.62680
 C618 C 0.19519 1.10200 0.62278
 C619 C 0.21651 1.11370 0.61228
 C620 C 0.21024 1.13929 0.61072
 H621 H 0.19381 1.08233 0.62898
 H622 H 0.22293 1.15479 0.60544
 H623 H 0.15614 1.14995 0.65635
 H624 H 0.13832 1.14870 0.62558
 N625 N 1.36855 0.61433 0.32262
 N626 N 1.39055 0.61556 0.33466
 C627 C 1.40859 0.60353 0.32076
 C628 C 1.39746 0.59443 0.29859
 C629 C 1.37194 0.60158 0.30037
 H630 H 1.42865 0.60292 0.32570
 H631 H 1.35723 0.59858 0.28619
 Cu632 Cu 1.39496 0.63618 0.36517
 Cu633 Cu 1.33792 0.63117 0.33629
 Cu634 Cu 1.34410 0.66063 0.39543
 N635 N 1.39799 0.66579 0.38742
 N636 N 1.37793 0.67633 0.39845
 C637 C 1.38520 0.69824 0.40991
 C638 C 1.41128 0.70144 0.40576
 C639 C 1.41874 0.68029 0.39171
 H640 H 1.37236 0.71117 0.41977
 H641 H 1.43749 0.67646 0.38370
 N642 N 1.31071 0.65127 0.38115
 N643 N 1.30831 0.64149 0.35794
 C644 C 1.28329 0.63744 0.35339
 C645 C 1.26944 0.64465 0.37486
 C646 C 1.28739 0.65323 0.39217
 H647 H 1.27580 0.62857 0.33629
 H648 H 1.28380 0.66015 0.41139
 H649 H 1.35504 0.65913 0.35836
 H650 H 1.34994 0.62704 0.37324
 N651 N 1.35301 1.11979 0.80676
 N652 N 1.37315 1.13446 0.81040
 C653 C 1.39301 1.12526 0.79678
 C654 C 1.38481 1.10396 0.78355
 C655 C 1.35929 1.10100 0.79020
 H656 H 1.41167 1.13418 0.79553
 H657 H 1.34624 1.08650 0.78336
 Cu658 Cu 1.37132 1.16592 0.83025
 Cu659 Cu 1.32045 1.12690 0.82409
 Cu660 Cu 1.31276 1.19187 0.83051
 N661 N 1.36590 1.20122 0.84075
 N662 N 1.34296 1.21141 0.83951
 C663 C 1.34407 1.23582 0.84720
 C664 C 1.36896 1.24123 0.85411
 C665 C 1.38246 1.21885 0.84971
 H666 H 1.32761 1.24823 0.84881
 H667 H 1.40257 1.21551 0.85322
 N668 N 1.28420 1.16746 0.83370
 N669 N 1.28721 1.14246 0.83274
 C670 C 1.26564 1.13110 0.84141
 C671 C 1.24836 1.14999 0.84825
 C672 C 1.26067 1.17271 0.84283
 H673 H 1.26344 1.11077 0.84431
 H674 H 1.25402 1.19169 0.84752
 H675 H 1.32910 1.16156 0.81074
 H676 H 1.32820 1.15966 0.84659
 N677 N 0.87147 0.60939 0.82918
 N678 N 0.88750 0.62794 0.82344
 C679 C 0.89670 0.62423 0.79950
 C680 C 0.88526 0.60252 0.78975
 C681 C 0.86959 0.59352 0.80912
 H682 H 0.90851 0.63772 0.78905
 H683 H 0.85624 0.57775 0.80801
 Cu684 Cu 0.88979 0.65800 0.84546
 Cu685 Cu 0.85066 0.60981 0.86011
 Cu686 Cu 0.83041 0.66841 0.87427
 N687 N 0.87942 0.69126 0.85893
 N688 N 0.85624 0.69566 0.86824
 C689 C 0.85464 0.72042 0.87488
 C690 C 0.87796 0.73189 0.86971
 C691 C 0.89329 0.71289 0.85974
 H692 H 0.83820 0.72914 0.88401
 H693 H 0.91303 0.71461 0.85357
 N694 N 0.81306 0.63802 0.88785
 N695 N 0.82218 0.61507 0.88335
 C696 C 0.80663 0.59754 0.89395
 C697 C 0.78628 0.61006 0.90538
 C698 C 0.79088 0.63581 0.90112
 H699 H 0.80903 0.57714 0.89186
 H700 H 0.77872 0.65162 0.90658
 H701 H 0.85150 0.65362 0.84432
 H702 H 0.86485 0.65059 0.87723
 N703 N 0.86066 1.11472 0.31814
 N704 N 0.87215 1.13472 0.30777
 C705 C 0.88665 1.12694 0.28788
 C706 C 0.88433 1.10080 0.28587
 C707 C 0.86772 1.09360 0.30530
 H708 H 0.89852 1.13928 0.27616
 H709 H 0.86085 1.07455 0.30950
 Cu710 Cu 0.87000 1.16931 0.32225
 Cu711 Cu 0.83624 1.11767 0.34677
 Cu712 Cu 0.83579 1.17436 0.37623
 N713 N 0.87459 1.19749 0.34594
 N714 N 0.86203 1.19909 0.36778
 C715 C 0.86941 1.22032 0.38029
 C716 C 0.88727 1.23274 0.36510
 C717 C 0.89002 1.21784 0.34346
 H718 H 0.86178 1.22660 0.39854
 H719 H 0.90250 1.22133 0.32720
 N720 N 0.80559 1.15286 0.37542
 N721 N 0.80583 1.13003 0.36494
 C722 C 0.78227 1.11962 0.36707
 C723 C 0.76652 1.13726 0.37901
 C724 C 0.78193 1.15803 0.38409
 H725 H 0.77677 1.10122 0.35945
 H726 H 0.77635 1.17573 0.39319
 H727 H 0.83556 1.15384 0.33418
 H728 H 0.86474 1.14601 0.35305
 N729 N 0.63235 0.38604 0.32286
 N730 N 0.61908 0.36658 0.31413
 C731 C 0.60630 0.37382 0.29295
 C732 C 0.61166 0.39936 0.28851
 C733 C 0.62803 0.40651 0.30801
 H734 H 0.59418 0.36144 0.28168
 H735 H 0.63734 0.42481 0.31043
 Cu736 Cu 0.61976 0.33391 0.33189
 Cu737 Cu 0.65636 0.38245 0.35108
 Cu738 Cu 0.68006 0.32308 0.35706
 N739 N 0.63098 0.30009 0.34289
 N740 N 0.65454 0.29555 0.35068
 C741 C 0.65626 0.27075 0.35731
 C742 C 0.63242 0.25949 0.35420
 C743 C 0.61685 0.27866 0.34496
 H744 H 0.67298 0.26217 0.36586
 H745 H 0.59665 0.27736 0.34072
 N746 N 0.69741 0.35278 0.37197
 N747 N 0.68717 0.37567 0.37064
 C748 C 0.70219 0.39242 0.38296
 C749 C 0.72328 0.37956 0.39231
 C750 C 0.71976 0.35437 0.38486
 H751 H 0.69842 0.41267 0.38431
 H752 H 0.73230 0.33842 0.38874
 H753 H 0.65760 0.34098 0.32967
 H754 H 0.64493 0.33927 0.36327
 N755 N 0.65069 0.87886 0.80933
 N756 N 0.62952 0.86544 0.80708
 C757 C 0.61843 0.87103 0.78448
 C758 C 0.63373 0.88872 0.77198
 C759 C 0.65389 0.89334 0.78832
 H760 H 0.60113 0.86225 0.77733
 H761 H 0.67003 0.90592 0.78502
 Cu762 Cu 0.61947 0.84118 0.83357
 Cu763 Cu 0.67357 0.87552 0.83853
 Cu764 Cu 0.66871 0.81561 0.86541
 N765 N 0.61415 0.81393 0.85842
 N766 N 0.63370 0.80410 0.87075
 C767 C 0.62516 0.78647 0.88742
 C768 C 0.59893 0.78516 0.88543
 C769 C 0.59237 0.80281 0.86689
 H770 H 0.63710 0.77596 0.90061
 H771 H 0.57327 0.80781 0.86077
 N772 N 0.69951 0.83699 0.86820
 N773 N 0.70082 0.86062 0.85952
 C774 C 0.72341 0.87093 0.86645
 C775 C 0.73689 0.85272 0.88002
 C776 C 0.72120 0.83149 0.88073
 H777 H 0.72961 0.89010 0.86176
 H778 H 0.72489 0.81361 0.89039
 H779 H 0.66618 0.83833 0.83278
 H780 H 0.65368 0.85098 0.86384
 N781 N 0.16211 0.36389 0.80340
 N782 N 0.13738 0.35981 0.80586
 C783 C 0.12543 0.36799 0.78457
 C784 C 0.14379 0.37748 0.76787
 C785 C 0.16685 0.37456 0.78043
 H786 H 0.10494 0.36745 0.78170
 H787 H 0.18556 0.38060 0.77382
 Cu788 Cu 0.12300 0.34533 0.83717
 Cu789 Cu 0.18541 0.35726 0.83138
 Cu790 Cu 0.16675 0.31979 0.88005
 N791 N 0.11381 0.31977 0.86346
 N792 N 0.13062 0.30864 0.87863
 C793 C 0.11909 0.28902 0.89089
 C794 C 0.09380 0.28789 0.88296
 C795 C 0.09113 0.30785 0.86586
 H796 H 0.12862 0.27608 0.90387
 H797 H 0.07447 0.31224 0.85447
 N798 N 0.19654 0.34261 0.88307
 N799 N 0.20344 0.35734 0.86378
 C800 C 0.22256 0.37277 0.87117
 C801 C 0.22833 0.36729 0.89631
 C802 C 0.21138 0.34814 0.90346
 H803 H 0.23070 0.38791 0.85956
 H804 H 0.20884 0.34015 0.92243
 H805 H 0.15513 0.32331 0.84136
 H806 H 0.15199 0.35088 0.86379
 N807 N 0.16454 0.86045 0.29871
 N808 N 0.14079 0.85211 0.29797
 C809 C 0.12992 0.86016 0.27599
 C810 C 0.14804 0.87407 0.26230
 C811 C 0.16977 0.87357 0.27720
 H812 H 0.11012 0.85705 0.27092
 H813 H 0.18759 0.88350 0.27360
 Cu814 Cu 0.12637 0.83318 0.32702
 Cu815 Cu 0.18541 0.85812 0.32944
 Cu816 Cu 0.14691 0.85557 0.38336
 N817 N 0.11369 0.81891 0.35936
 N818 N 0.11985 0.82994 0.38111
 C819 C 0.10770 0.81813 0.40051
 C820 C 0.09405 0.79773 0.39070
 C821 C 0.09824 0.79876 0.36439
 H822 H 0.11043 0.82286 0.42048
 H823 H 0.09082 0.78585 0.35007
 N824 N 0.18230 0.86897 0.38370
 N825 N 0.19742 0.86859 0.36334
 C826 C 0.22091 0.87677 0.36995
 C827 C 0.22057 0.88239 0.39582
 C828 C 0.19583 0.87722 0.40396
 H829 H 0.23712 0.87803 0.35700
 H830 H 0.18844 0.87850 0.42334
 H831 H 0.16365 0.83540 0.35499
 H832 H 0.15184 0.86765 0.34575
 O833 O 1.09156 1.03595 1.12219
 O834 O 1.12154 1.04032 1.15151
 C835 C 1.09921 1.04519 1.14330
 C836 C 1.08207 1.06206 1.15823
 C837 C 1.08639 1.06634 1.18436
 H838 H 1.10212 1.05678 1.19383
 O839 O 0.91694 0.96280 1.12996
 O840 O 0.88770 0.95931 1.16046
 C841 C 0.90923 0.95301 1.15094
 C842 C 0.92504 0.93339 1.16388
 C843 C 0.91501 0.91928 1.18468
 H844 H 0.89589 0.92324 1.19182
 O845 O 1.01125 1.13048 1.09232
 O846 O 1.00914 1.15901 1.12333
 C847 C 1.01850 1.15144 1.10212
 C848 C 1.03933 1.16611 1.08957
 C849 C 1.05422 1.18314 1.10412
 H850 H 1.04941 1.18679 1.12402
 O851 O 0.99628 0.87135 1.09516
 O852 O 1.00068 0.84232 1.12547
 C853 C 0.99005 0.85006 1.10506
 C854 C 0.96919 0.83490 1.09351
 C855 C 0.95768 0.81488 1.10747
 H856 H 0.96491 0.80953 1.12614
 O857 O 1.11276 1.11011 1.01826
 O858 O 1.13807 1.14384 1.01684
 C859 C 1.13211 1.12231 1.02643
 C860 C 1.14665 1.11227 1.04858
 C861 C 1.16369 1.12837 1.06179
 H862 H 1.16756 1.14749 1.05484
 O863 O 0.88895 0.89202 1.03011
 O864 O 0.86315 0.85863 1.03117
 C865 C 0.86973 0.88036 1.03956
 C866 C 0.85531 0.89158 1.06114
 C867 C 0.83442 0.87846 1.07176
 H868 H 0.82801 0.86082 1.06308
 O869 O 0.96685 1.08934 1.12843
 O870 O 0.96408 1.11793 1.15935
 C871 C 0.95803 1.09636 1.15008
 C872 C 0.94058 1.07907 1.16434
 C873 C 0.93469 1.08306 1.19045
 H874 H 0.94295 1.09909 1.20059
 O875 O 1.04326 0.91229 1.12731
 O876 O 1.04836 0.88303 1.15725
 C877 C 1.05437 0.90441 1.14739
 C878 C 1.07543 0.91965 1.15849
 C879 C 1.09021 0.90977 1.17862
 H880 H 1.08537 0.89141 1.18689
 O881 O 1.13372 0.99350 1.08511
 O882 O 1.16435 0.99911 1.11347
 C883 C 1.15596 0.98839 1.09335
 C884 C 1.17160 0.96868 1.08026
 C885 C 1.19596 0.96237 1.08943
 H886 H 1.20380 0.97302 1.10533
 O887 O 0.87576 1.00786 1.09520
 O888 O 0.84663 1.00472 1.12585
 C889 C 0.85423 1.01415 1.10465
 C890 C 0.83806 1.03294 1.09111
 C891 C 0.81250 1.03657 1.09865
 H892 H 0.80447 1.02521 1.11410
 O893 O 0.89435 1.11721 1.02685
 O894 O 0.86052 1.14232 1.02799
 C895 C 0.88246 1.13622 1.03633
 C896 C 0.89355 1.15020 1.05840
 C897 C 0.87877 1.16812 1.07223
 H898 H 0.85978 1.17323 1.06577
 O899 O 1.10946 0.88527 1.02222
 O900 O 1.14294 0.85968 1.02089
 C901 C 1.12138 0.86588 1.03049
 C902 C 1.11043 0.85096 1.05207
 C903 C 1.12284 0.82901 1.06087
 H904 H 1.13948 0.82221 1.05050
 O905 O 0.91080 1.01215 1.12975
 O906 O 0.88197 1.00869 1.16066
 C907 C 0.90149 1.01959 1.15098
 C908 C 0.91335 1.04118 1.16454
 C909 C 0.90794 1.04519 1.19048
 H910 H 0.89500 1.03233 1.20041
 O911 O 1.10115 0.98717 1.12199
 O912 O 1.13204 0.99203 1.15023
 C913 C 1.11274 0.97980 1.14206
 C914 C 1.10425 0.95631 1.15552
 C915 C 1.11884 0.94608 1.17559
 H916 H 1.13567 0.95621 1.18204
 O917 O 1.04579 0.87703 1.09277
 O918 O 1.05041 0.84760 1.12264
 C919 C 1.05722 0.85744 1.10139
 C920 C 1.07918 0.84667 1.08689
 C921 C 1.09205 0.82470 1.09558
 H922 H 1.08539 0.81491 1.11265
 O923 O 0.96154 1.12368 1.09297
 O924 O 0.95873 1.15241 1.12372
 C925 C 0.95039 1.14271 1.10302
 C926 C 0.92673 1.15283 1.09127
 C927 C 0.91154 1.17024 1.10486
 H928 H 0.91784 1.17723 1.12333
 O929 O 0.86605 1.07660 1.02853
 O930 O 0.83210 1.10159 1.02959
 C931 C 0.84434 1.08236 1.03798
 C932 C 0.83332 1.06662 1.05898
 C933 C 0.80789 1.07031 1.06720
 H934 H 0.79608 1.08456 1.05798
 O935 O 1.14037 0.92394 1.02130
 O936 O 1.17397 0.89848 1.02039
 C937 C 1.16246 0.91787 1.02939
 C938 C 1.17453 0.93341 1.04973
 C939 C 1.19877 0.92706 1.05952
 H940 H 1.20918 0.91089 1.05181
 O941 O 0.99345 0.90661 1.12966
 O942 O 0.99834 0.87763 1.15990
 C943 C 0.98648 0.89677 1.15083
 C944 C 0.96329 0.90648 1.16410
 C945 C 0.95317 0.89306 1.18509
 H946 H 0.96387 0.87731 1.19311
 O947 O 1.01608 1.09466 1.12594
 O948 O 1.01317 1.12294 1.15717
 C949 C 1.02389 1.10358 1.14712
 C950 C 1.04566 1.09120 1.16006
 C951 C 1.05069 1.09587 1.18609
 H952 H 1.03859 1.10874 1.19700
 O953 O 0.88055 0.95831 1.09694
 O954 O 0.85130 0.95516 1.12747
 C955 C 0.86113 0.94722 1.10667
 C956 C 0.85073 0.92426 1.09405
 C957 C 0.82973 0.91086 1.10453
 H958 H 0.82021 0.91783 1.12165
 O959 O 1.12486 1.04305 1.08572
 O960 O 1.15469 1.04853 1.11493
 C961 C 1.14350 1.05580 1.09464
 C962 C 1.15156 1.08002 1.08221
 C963 C 1.16802 1.09666 1.09525
 H964 H 1.17553 1.09137 1.11384
 O965 O 0.92877 0.86260 1.02901
 O966 O 0.90265 0.82949 1.03037
 C967 C 0.92221 0.84127 1.03860
 C968 C 0.93616 0.83077 1.06079
 C969 C 0.92496 0.81100 1.07508
 H970 H 0.90707 0.80252 1.06893
 O971 O 1.07341 1.13955 1.02053
 O972 O 1.09901 1.17308 1.01909
 C973 C 1.08070 1.16087 1.02957
 C974 C 1.06966 1.17051 1.05390
 C975 C 1.08434 1.18715 1.06891
 H976 H 1.10258 1.19414 1.06175
 Cu977 Cu 1.10986 1.01446 1.10078
 Cu978 Cu 1.14635 1.02071 1.13524
 Cu979 Cu 0.89889 0.98561 1.10980
 Cu980 Cu 0.86397 0.98182 1.14671
 Cu981 Cu 0.98912 1.10677 1.10677
 Cu982 Cu 0.98593 1.14127 1.14376
 Cu983 Cu 1.01925 0.89479 1.10826
 Cu984 Cu 1.02495 0.85979 1.14442
 C985 C 1.06140 1.07422 1.14634
 H986 H 1.05789 1.07087 1.12617
 C987 C 1.07066 1.08300 1.19839
 C988 C 0.94929 0.92696 1.15390
 H989 H 0.95685 0.93722 1.13747
 C990 C 0.92885 0.89879 1.19501
 C991 C 1.04710 1.16007 1.06436
 H992 H 1.03629 1.14629 1.05334
 C993 C 1.07711 1.19298 1.09409
 C994 C 0.95847 0.84250 1.06999
 H995 H 0.96676 0.85834 1.05946
 C996 C 0.93537 0.80331 1.09841
 C997 C 1.14094 1.08797 1.05880
 H998 H 1.12745 1.07566 1.04908
 C999 C 1.17393 1.12078 1.08530
 C1000 C 0.86326 0.91450 1.07228
 H1001 H 0.87978 0.92436 1.06442
 C1002 C 0.82172 0.88777 1.09351
 C1003 C 0.92986 1.05799 1.15164
 H1004 H 0.93396 1.05491 1.13150
 C1005 C 0.91868 1.06581 1.20366
 C1006 C 1.08251 0.94300 1.14720
 H1007 H 1.07151 0.95048 1.13135
 C1008 C 1.11218 0.92266 1.18701
 C1009 C 1.16123 0.95433 1.06014
 H1010 H 1.14231 0.95896 1.05313
 C1011 C 1.20969 0.94165 1.07922
 C1012 C 0.84822 1.04777 1.07100
 H1013 H 0.86794 1.04501 1.06507
 C1014 C 0.79730 1.05506 1.08671
 C1015 C 0.91768 1.14304 1.06793
 H1016 H 0.92892 1.12887 1.05778
 C1017 C 0.88755 1.17770 1.09570
 C1018 C 1.08843 0.85948 1.06500
 H1019 H 1.07893 0.87664 1.05845
 C1020 C 1.11408 0.81589 1.08276
 O1021 O 1.09316 0.98612 0.87007
 O1022 O 1.12261 0.98890 0.83972
 C1023 C 1.10329 0.97776 0.84952
 C1024 C 1.09286 0.95438 0.83749
 C1025 C 1.10365 0.94452 0.81473
 H1026 H 1.11919 0.95448 0.80516
 O1027 O 0.90039 1.01255 0.87611
 O1028 O 0.87010 1.00760 0.84724
 C1029 C 0.88999 1.01905 0.85515
 C1030 C 0.90128 1.03990 0.83965
 C1031 C 0.89380 1.04342 0.81418
 H1032 H 0.87935 1.03096 0.80623
 O1033 O 0.95598 1.12137 0.90291
 O1034 O 0.95088 1.15001 0.87239
 C1035 C 0.94403 1.14039 0.89379
 C1036 C 0.92149 1.15074 0.90797
 C1037 C 0.90641 1.17027 0.89728
 H1038 H 0.91169 1.17857 0.87897
 O1039 O 1.03908 0.87519 0.90909
 O1040 O 1.04150 0.84620 0.87854
 C1041 C 1.05004 0.85598 0.89909
 C1042 C 1.07392 0.84609 0.91057
 C1043 C 1.08842 0.82734 0.89781
 H1044 H 1.08125 0.81877 0.88037
 O1045 O 1.13820 0.92484 0.97158
 O1046 O 1.17221 0.89992 0.97060
 C1047 C 1.16008 0.91929 0.96244
 C1048 C 1.17133 0.93545 0.94200
 C1049 C 1.19698 0.93233 0.93432
 H1050 H 1.20884 0.91825 0.94374
 O1051 O 0.86288 1.07633 0.97876
 O1052 O 0.82913 1.10158 0.98011
 C1053 C 0.84045 1.08200 0.97128
 C1054 C 0.82747 1.06606 0.95181
 C1055 C 0.80158 1.07007 0.94629
 H1056 H 0.79095 1.08440 0.95688
 O1057 O 1.00944 1.09312 0.86658
 O1058 O 1.00503 1.12152 0.83573
 C1059 C 1.01648 1.10227 0.84508
 C1060 C 1.03834 1.09014 0.83134
 C1061 C 1.04288 1.09398 0.80484
 H1062 H 1.03028 1.10612 0.79382
 O1063 O 0.98519 0.90619 0.87657
 O1064 O 0.98820 0.87782 0.84546
 C1065 C 0.97752 0.89731 0.85534
 C1066 C 0.95584 0.90948 0.84195
 C1067 C 0.95149 0.90389 0.81614
 H1068 H 0.96425 0.89085 0.80630
 O1069 O 1.12063 1.04189 0.90252
 O1070 O 1.14936 1.04561 0.87157
 C1071 C 1.13937 1.05366 0.89229
 C1072 C 1.14881 1.07756 0.90403
 C1073 C 1.16789 1.09213 0.89172
 H1074 H 1.17664 1.08524 0.87416
 O1075 O 0.87371 0.95874 0.91289
 O1076 O 0.84356 0.95359 0.88395
 C1077 C 0.85449 0.94653 0.90444
 C1078 C 0.84551 0.92335 0.91812
 C1079 C 0.82473 0.90899 0.90879
 H1080 H 0.81449 0.91542 0.89200
 O1081 O 1.07098 1.13968 0.96999
 O1082 O 1.09607 1.17355 0.96877
 C1083 C 1.07657 1.16147 0.96079
 C1084 C 1.06085 1.17235 0.93989
 C1085 C 1.06511 1.19740 0.93113
 H1086 H 1.07915 1.20930 0.94058
 O1087 O 0.92638 0.86157 0.97866
 O1088 O 0.90035 0.82837 0.98040
 C1089 C 0.91902 0.84009 0.97012
 C1090 C 0.93051 0.82964 0.94656
 C1091 C 0.91645 0.81202 0.93222
 H1092 H 0.89853 0.80454 0.93969
 O1093 O 0.90787 0.96383 0.87719
 O1094 O 0.87805 0.95893 0.84782
 C1095 C 0.90027 0.95394 0.85638
 C1096 C 0.91769 0.93650 0.84226
 C1097 C 0.91347 0.93039 0.81633
 H1098 H 0.89726 0.93847 0.80635
 O1099 O 1.08494 1.03526 0.86911
 O1100 O 1.11370 1.03780 0.83805
 C1101 C 1.09202 1.04385 0.84743
 C1102 C 1.07496 1.06108 0.83292
 C1103 C 1.07901 1.06490 0.80670
 H1104 H 1.09459 1.05500 0.79715
 O1105 O 0.98924 0.86892 0.90886
 O1106 O 0.99132 0.84043 0.87780
 C1107 C 0.98189 0.84804 0.89888
 C1108 C 0.96101 0.83344 0.91123
 C1109 C 0.94664 0.81560 0.89706
 H1110 H 0.95187 0.81116 0.87743
 O1111 O 1.00525 1.12789 0.90185
 O1112 O 1.00068 1.15686 0.87156
 C1113 C 1.01065 1.14963 0.89256
 C1114 C 1.02888 1.16643 0.90630
 C1115 C 1.03328 1.19155 0.89798
 H1116 H 1.02304 1.19866 0.88149
 O1117 O 0.88773 0.89228 0.98010
 O1118 O 0.86202 0.85885 0.98167
 C1119 C 0.86802 0.88043 0.97226
 C1120 C 0.85237 0.89118 0.95130
 C1121 C 0.83159 0.87723 0.94177
 H1122 H 0.82624 0.85947 0.95096
 O1123 O 1.11087 1.11014 0.96807
 O1124 O 1.13596 1.14401 0.96667
 C1125 C 1.12966 1.12218 0.95821
 C1126 C 1.14372 1.11122 0.93606
 C1127 C 1.16256 1.12564 0.92326
 H1128 H 1.16764 1.14435 0.93043
 O1129 O 1.03498 0.91021 0.87450
 O1130 O 1.03764 0.88106 0.84409
 C1131 C 1.04444 0.90237 0.85342
 C1132 C 1.06414 0.91759 0.83984
 C1133 C 1.07539 0.90793 0.81745
 H1134 H 1.06886 0.88990 0.80967
 O1135 O 0.96001 1.08619 0.86842
 O1136 O 0.95534 1.11451 0.83751
 C1137 C 0.94969 1.09310 0.84756
 C1138 C 0.93057 1.07607 0.83551
 C1139 C 0.92274 1.07945 0.80992
 H1140 H 0.93115 1.09456 0.79843
 O1141 O 0.86653 1.00828 0.91238
 O1142 O 0.83589 1.00355 0.88391
 C1143 C 0.84442 1.01396 0.90418
 C1144 C 0.82910 1.03325 0.91842
 C1145 C 0.80320 1.03816 0.91259
 H1146 H 0.79376 1.02763 0.89748
 O1147 O 1.12773 0.99258 0.90492
 O1148 O 1.15716 0.99640 0.87464
 C1149 C 1.14968 0.98706 0.89590
 C1150 C 1.16636 0.96905 0.90992
 C1151 C 1.19213 0.96597 0.90278
 H1152 H 1.20001 0.97744 0.88737
 O1153 O 1.10865 0.88507 0.97219
 O1154 O 1.14249 0.85997 0.97061
 C1155 C 1.12038 0.86606 0.96264
 C1156 C 1.10864 0.85155 0.94135
 C1157 C 1.12288 0.83298 0.92819
 H1158 H 1.14195 0.82821 0.93464
 O1159 O 0.89391 1.11509 0.97612
 O1160 O 0.86010 1.14021 0.97714
 C1161 C 0.88142 1.13377 0.96708
 C1162 C 0.89105 1.14738 0.94388
 C1163 C 0.87621 1.16661 0.93262
 H1164 H 0.85847 1.17246 0.94174
 Cu1165 Cu 1.10373 1.01359 0.88976
 Cu1166 Cu 1.13867 1.01752 0.85295
 Cu1167 Cu 0.88996 0.98637 0.89768
 Cu1168 Cu 0.85369 0.98042 0.86298
 Cu1169 Cu 1.08940 1.12153 0.99418
 Cu1170 Cu 1.11974 1.16202 0.99253
 Cu1171 Cu 1.12079 0.90727 0.99696
 Cu1172 Cu 1.16122 0.87684 0.99545
 Cu1173 Cu 0.88280 1.09399 1.00244
 Cu1174 Cu 0.84226 1.12415 1.00380
 Cu1175 Cu 0.91070 0.88044 1.00437
 Cu1176 Cu 0.87958 0.84039 1.00607
 Cu1177 Cu 0.98321 1.10425 0.88786
 Cu1178 Cu 0.97762 1.13869 0.85127
 Cu1179 Cu 1.01184 0.89288 0.89549
 Cu1180 Cu 1.01485 0.85839 0.85847
 C1181 C 1.07293 0.94086 0.84975
 H1182 H 1.06468 0.94809 0.86740
 C1183 C 1.09516 0.92107 0.80495
 C1184 C 0.91983 1.05611 0.85007
 H1185 H 0.92557 1.05346 0.86982
 C1186 C 0.90464 1.06280 0.79898
 C1187 C 0.91377 1.13966 0.93146
 H1188 H 0.92500 1.12436 0.93966
 C1189 C 0.88354 1.17792 0.90931
 C1190 C 1.08406 0.85780 0.93255
 H1191 H 1.07325 0.87262 0.94219
 C1192 C 1.11306 0.82107 0.90627
 C1193 C 1.15624 0.95398 0.92980
 H1194 H 1.13633 0.95618 0.93533
 C1195 C 1.20759 0.94777 0.91497
 C1196 C 0.84094 1.04736 0.93809
 H1197 H 0.86095 1.04419 0.94238
 C1198 C 0.78928 1.05627 0.92691
 C1199 C 1.05450 1.07356 0.84505
 H1200 H 1.05133 1.07054 0.86537
 C1201 C 1.06292 1.08081 0.79238
 C1202 C 0.93909 0.92609 0.85481
 H1203 H 0.94238 0.93041 0.87483
 C1204 C 0.93068 0.91445 0.80306
 C1205 C 1.13709 1.08713 0.92636
 H1206 H 1.12215 1.07616 0.93577
 C1207 C 1.17456 1.11634 0.90100
 C1208 C 0.85911 0.91431 0.93948
 H1209 H 0.87547 0.92490 0.94646
 C1210 C 0.81790 0.88570 0.92036
 C1211 C 1.04252 1.15713 0.92749
 H1212 H 1.03944 1.13768 0.93387
 C1213 C 1.05130 1.20721 0.91030
 C1214 C 0.95291 0.84012 0.93609
 H1215 H 0.96331 0.85447 0.94678
 C1216 C 0.92399 0.80545 0.90739
 O1217 O 1.09269 0.53827 0.63097
 O1218 O 1.12254 0.54116 0.66059
 C1219 C 1.10053 0.54695 0.65224
 C1220 C 1.08372 0.56379 0.66741
 C1221 C 1.08749 0.56684 0.69372
 H1222 H 1.10303 0.55679 0.70299
 O1223 O 0.90955 0.46783 0.63195
 O1224 O 0.87958 0.46453 0.66171
 C1225 C 0.90159 0.45863 0.65312
 C1226 C 0.91842 0.44078 0.66727
 C1227 C 0.91272 0.43243 0.69240
 H1228 H 0.89566 0.43928 0.70208
 O1229 O 1.01676 0.62877 0.59824
 O1230 O 1.01339 0.65837 0.62810
 C1231 C 1.02318 0.65037 0.60717
 C1232 C 1.04195 0.66651 0.59298
 C1233 C 1.04507 0.69226 0.59961
 H1234 H 1.03392 0.70013 0.61529
 O1235 O 0.98925 0.37899 0.59616
 O1236 O 0.99196 0.34926 0.62597
 C1237 C 0.98275 0.35727 0.60495
 C1238 C 0.96444 0.34090 0.59078
 C1239 C 0.95996 0.31586 0.59913
 H1240 H 0.96988 0.30893 0.61590
 O1241 O 1.12185 0.61003 0.52602
 O1242 O 1.14891 0.64242 0.52640
 C1243 C 1.14201 0.62057 0.53451
 C1244 C 1.15708 0.60710 0.55424
 C1245 C 1.18333 0.61216 0.55779
 H1246 H 1.19307 0.62618 0.54595
 O1247 O 0.88623 0.39734 0.52582
 O1248 O 0.86030 0.36406 0.52633
 C1249 C 0.86676 0.38585 0.53487
 C1250 C 0.85168 0.39759 0.55587
 C1251 C 0.82859 0.38643 0.56369
 H1252 H 0.82141 0.37006 0.55331
 O1253 O 0.96871 0.58995 0.63259
 O1254 O 0.96453 0.61964 0.66225
 C1255 C 0.95801 0.59819 0.65289
 C1256 C 0.93733 0.58282 0.66513
 C1257 C 0.92618 0.59021 0.68869
 H1258 H 0.93302 0.60707 0.69852
 O1259 O 1.03653 0.41721 0.63190
 O1260 O 1.04011 0.38671 0.66081
 C1261 C 1.04712 0.40814 0.65181
 C1262 C 1.06878 0.42206 0.66365
 C1263 C 1.08342 0.41072 0.68323
 H1264 H 1.07802 0.39225 0.69091
 O1265 O 1.13341 0.49431 0.59444
 O1266 O 1.16372 0.49793 0.62353
 C1267 C 1.15542 0.48839 0.60284
 C1268 C 1.17112 0.46961 0.58877
 C1269 C 1.19690 0.46583 0.59501
 H1270 H 1.20564 0.47746 0.60973
 O1271 O 0.87008 0.51258 0.59566
 O1272 O 0.83930 0.50943 0.62462
 C1273 C 0.84814 0.51910 0.60405
 C1274 C 0.83343 0.53855 0.58968
 C1275 C 0.80711 0.54280 0.59428
 H1276 H 0.79691 0.53156 0.60848
 O1277 O 0.90105 0.61901 0.53000
 O1278 O 0.86858 0.64593 0.52962
 C1279 C 0.89017 0.63905 0.53834
 C1280 C 0.90318 0.65440 0.55814
 C1281 C 0.89764 0.68048 0.56153
 H1282 H 0.88318 0.68964 0.54989
 O1283 O 1.10667 0.38842 0.52956
 O1284 O 1.13867 0.36095 0.52938
 C1285 C 1.11685 0.36794 0.53761
 C1286 C 1.10271 0.35248 0.55669
 C1287 C 1.10612 0.32579 0.55888
 H1288 H 1.11982 0.31600 0.54671
 O1289 O 0.90636 0.51697 0.62858
 O1290 O 0.87605 0.51410 0.65807
 C1291 C 0.89613 0.52486 0.64918
 C1292 C 0.90728 0.54696 0.66286
 C1293 C 0.89672 0.55452 0.68629
 H1294 H 0.88142 0.54325 0.69464
 O1295 O 1.09827 0.48902 0.62893
 O1296 O 1.12871 0.49192 0.65792
 C1297 C 1.10902 0.48079 0.64906
 C1298 C 1.09924 0.45747 0.66176
 C1299 C 1.11369 0.44575 0.68097
 H1300 H 1.13128 0.45462 0.68736
 O1301 O 1.03869 0.38376 0.59581
 O1302 O 1.04101 0.35308 0.62478
 C1303 C 1.04862 0.36324 0.60399
 C1304 C 1.06890 0.35071 0.58898
 C1305 C 1.07242 0.32443 0.59107
 H1306 H 1.06045 0.31362 0.60423
 O1307 O 0.96716 0.62494 0.59774
 O1308 O 0.96377 0.65512 0.62707
 C1309 C 0.95675 0.64523 0.60600
 C1310 C 0.93633 0.65737 0.59082
 C1311 C 0.93106 0.68340 0.59355
 H1312 H 0.94206 0.69473 0.60694
 O1313 O 0.86896 0.58092 0.52946
 O1314 O 0.83635 0.60765 0.52899
 C1315 C 0.84692 0.58760 0.53752
 C1316 C 0.83326 0.57189 0.55686
 C1317 C 0.80701 0.57542 0.56120
 H1318 H 0.79670 0.58955 0.55014
 O1319 O 1.13954 0.42609 0.52940
 O1320 O 1.17198 0.39919 0.52966
 C1321 C 1.16126 0.41929 0.53790
 C1322 C 1.17390 0.43506 0.55761
 C1323 C 1.19962 0.43102 0.56449
 H1324 H 1.21069 0.41617 0.55515
 O1325 O 0.98625 0.41327 0.63222
 O1326 O 0.98989 0.38362 0.66201
 C1327 C 0.97892 0.40335 0.65322
 C1328 C 0.95690 0.41437 0.66718
 C1329 C 0.95117 0.40645 0.69215
 H1330 H 0.96350 0.39258 0.70120
 O1331 O 1.01838 0.59538 0.63494
 O1332 O 1.01461 0.62443 0.66529
 C1333 C 1.02547 0.60471 0.65622
 C1334 C 1.04697 0.59241 0.66978
 C1335 C 1.05129 0.59584 0.69622
 H1336 H 1.03868 0.60792 0.70745
 O1337 O 0.87701 0.46312 0.59472
 O1338 O 0.84669 0.45974 0.62413
 C1339 C 0.85718 0.45204 0.60346
 C1340 C 0.84671 0.42972 0.58953
 C1341 C 0.82351 0.41813 0.59715
 H1342 H 0.81275 0.42576 0.61321
 O1343 O 1.12633 0.54340 0.59422
 O1344 O 1.15649 0.54657 0.62350
 C1345 C 1.14647 0.55395 0.60264
 C1346 C 1.15881 0.57449 0.58767
 C1347 C 1.18492 0.57947 0.59074
 H1348 H 1.19594 0.56842 0.60436
 O1349 O 0.92467 0.36661 0.52563
 O1350 O 0.89919 0.33302 0.52586
 C1351 C 0.91841 0.34500 0.53475
 C1352 C 0.93324 0.33441 0.55651
 C1353 C 0.92884 0.30939 0.56550
 H1354 H 0.91505 0.29726 0.55597
 O1355 O 1.08270 0.64004 0.52772
 O1356 O 1.10910 0.67289 0.52905
 C1357 C 1.08942 0.66117 0.53751
 C1358 C 1.07422 0.67196 0.55906
 C1359 C 1.07722 0.69765 0.56629
 H1360 H 1.09046 0.70981 0.55587
 Cu1361 Cu 1.10961 0.51610 0.60919
 Cu1362 Cu 1.14579 0.51997 0.64447
 Cu1363 Cu 0.89362 0.49023 0.60970
 Cu1364 Cu 0.85733 0.48666 0.64508
 Cu1365 Cu 0.99318 0.60669 0.61306
 Cu1366 Cu 0.98877 0.64233 0.64872
 Cu1367 Cu 1.01228 0.40155 0.61125
 Cu1368 Cu 1.01588 0.36526 0.64651
 C1369 C 1.06333 0.57637 0.65568
 H1370 H 1.06040 0.57389 0.63528
 C1371 C 1.07126 0.58250 0.70831
 C1372 C 0.94069 0.43177 0.65506
 H1373 H 0.94508 0.43769 0.63562
 C1374 C 0.92937 0.41549 0.70512
 C1375 C 1.05643 0.65657 0.57246
 H1376 H 1.05409 0.63673 0.56712
 C1377 C 1.06232 0.70802 0.58620
 C1378 C 0.95123 0.34995 0.56925
 H1379 H 0.95450 0.36935 0.56282
 C1380 C 0.94245 0.29992 0.58664
 C1381 C 1.14506 0.58820 0.56926
 H1382 H 1.12486 0.58422 0.56673
 C1383 C 1.19730 0.59794 0.57575
 C1384 C 0.86058 0.41930 0.56879
 H1385 H 0.87866 0.42776 0.56302
 C1386 C 0.81451 0.39628 0.58439
 C1387 C 0.92772 0.56108 0.65244
 H1388 H 0.93578 0.55544 0.63412
 C1389 C 0.90563 0.57620 0.69917
 C1390 C 1.07673 0.44559 0.65331
 H1391 H 1.06587 0.45427 0.63798
 C1392 C 1.10617 0.42232 0.69155
 C1393 C 1.15994 0.45447 0.56978
 H1394 H 1.14001 0.45737 0.56495
 C1395 C 1.21131 0.44669 0.58290
 C1396 C 0.84621 0.55321 0.57091
 H1397 H 0.86650 0.55039 0.56748
 C1398 C 0.79376 0.56090 0.57958
 C1399 C 0.92252 0.64307 0.57289
 H1400 H 0.92676 0.62296 0.57052
 C1401 C 0.91205 0.69513 0.57875
 C1402 C 1.08394 0.36461 0.57172
 H1403 H 1.08102 0.38503 0.57003
 C1404 C 1.09034 0.31167 0.57568
 O1405 O 1.09608 0.49176 0.37517
 O1406 O 1.12580 0.49482 0.34508
 C1407 C 1.10581 0.48427 0.35409
 C1408 C 1.09489 0.46219 0.34043
 C1409 C 1.10572 0.45445 0.31712
 H1410 H 1.12016 0.46635 0.30815
 O1411 O 0.91161 0.51770 0.37727
 O1412 O 0.88162 0.51552 0.34780
 C1413 C 0.90112 0.52655 0.35728
 C1414 C 0.91038 0.55067 0.34550
 C1415 C 0.89594 0.56160 0.32587
 H1416 H 0.87939 0.55158 0.31850
 O1417 O 0.96786 0.63096 0.41091
 O1418 O 0.96375 0.66121 0.38179
 C1419 C 0.95679 0.65095 0.40283
 C1420 C 0.93548 0.66178 0.41823
 C1421 C 0.92701 0.68706 0.41467
 H1422 H 0.93615 0.69915 0.40044
 O1423 O 1.04297 0.38072 0.41017
 O1424 O 1.04708 0.35119 0.38033
 C1425 C 1.05419 0.36106 0.40133
 C1426 C 1.07599 0.35001 0.41551
 C1427 C 1.08776 0.32716 0.40742
 H1428 H 1.08064 0.31719 0.39074
 O1429 O 1.13682 0.42768 0.47958
 O1430 O 1.16917 0.40062 0.47942
 C1431 C 1.15786 0.42007 0.47014
 C1432 C 1.16819 0.43208 0.44658
 C1433 C 1.18539 0.41798 0.43177
 H1434 H 1.19284 0.40011 0.43912
 O1435 O 0.87169 0.58009 0.47961
 O1436 O 0.83873 0.60641 0.47945
 C1437 C 0.84995 0.58650 0.47106
 C1438 C 0.83733 0.57059 0.45141
 C1439 C 0.81112 0.57341 0.44708
 H1440 H 0.80024 0.58711 0.45827
 O1441 O 1.01961 0.60166 0.37366
 O1442 O 1.01553 0.63061 0.34328
 C1443 C 1.02662 0.61094 0.35224
 C1444 C 1.04813 0.59848 0.33832
 C1445 C 1.05242 0.60205 0.31178
 H1446 H 1.03980 0.61421 0.30080
 O1447 O 0.98984 0.41053 0.37523
 O1448 O 0.99426 0.38125 0.34518
 C1449 C 0.98280 0.40074 0.35416
 C1450 C 0.96057 0.41140 0.34023
 C1451 C 0.95308 0.40047 0.31708
 H1452 H 0.96481 0.38531 0.30968
 O1453 O 1.12710 0.54414 0.41052
 O1454 O 1.15688 0.54628 0.38048
 C1455 C 1.14690 0.55471 0.40104
 C1456 C 1.15769 0.57792 0.41306
 C1457 C 1.17714 0.59155 0.40049
 H1458 H 1.18527 0.58423 0.38280
 O1459 O 0.88101 0.46279 0.40964
 O1460 O 0.85082 0.46126 0.38030
 C1461 C 0.86064 0.45288 0.40085
 C1462 C 0.84822 0.43149 0.41474
 C1463 C 0.82259 0.42505 0.41010
 H1464 H 0.81163 0.43596 0.39633
 O1465 O 1.08261 0.64204 0.47746
 O1466 O 1.10847 0.67532 0.47867
 C1467 C 1.08897 0.66408 0.46948
 C1468 C 1.07386 0.67647 0.44894
 C1469 C 1.07718 0.70241 0.44335
 H1470 H 1.09042 0.71364 0.45464
 O1471 O 0.92437 0.36629 0.47529
 O1472 O 0.89793 0.33344 0.47494
 C1473 C 0.91735 0.34506 0.46588
 C1474 C 0.93128 0.33463 0.44338
 C1475 C 0.92069 0.31470 0.42864
 H1476 H 0.90264 0.30610 0.43429
 O1477 O 0.91506 0.46781 0.37330
 O1478 O 0.88535 0.46526 0.34363
 C1479 C 0.90701 0.45855 0.35231
 C1480 C 0.92306 0.43919 0.33883
 C1481 C 0.91551 0.42753 0.31555
 H1482 H 0.89785 0.43335 0.30652
 O1483 O 1.09208 0.54121 0.37547
 O1484 O 1.12174 0.54352 0.34525
 C1485 C 1.10010 0.55021 0.35425
 C1486 C 1.08400 0.56846 0.33977
 C1487 C 1.08780 0.57196 0.31340
 H1488 H 1.10264 0.56120 0.30363
 O1489 O 0.99319 0.37548 0.40990
 O1490 O 0.99737 0.34624 0.37977
 C1491 C 0.98686 0.35415 0.40030
 C1492 C 0.96580 0.33911 0.41185
 C1493 C 0.95536 0.31888 0.39792
 H1494 H 0.96459 0.31289 0.38030
 O1495 O 1.01728 0.63618 0.40912
 O1496 O 1.01363 0.66591 0.37944
 C1497 C 1.02357 0.65786 0.40013
 C1498 C 1.04259 0.67352 0.41424
 C1499 C 1.04667 0.69955 0.40848
 H1500 H 1.03603 0.70866 0.39324
 O1501 O 0.88510 0.39621 0.47605
 O1502 O 0.85840 0.36355 0.47650
 C1503 C 0.86511 0.38521 0.46771
 C1504 C 0.85014 0.39800 0.44735
 C1505 C 0.82448 0.39142 0.44215
 H1506 H 0.81503 0.37660 0.45320
 O1507 O 1.12159 0.61170 0.47626
 O1508 O 1.14773 0.64478 0.47630
 C1509 C 1.14102 0.62330 0.46718
 C1510 C 1.15507 0.61181 0.44523
 C1511 C 1.17501 0.62503 0.43251
 H1512 H 1.18127 0.64352 0.43936
 O1513 O 1.03931 0.41546 0.37471
 O1514 O 1.04365 0.38598 0.34483
 C1515 C 1.04931 0.40773 0.35384
 C1516 C 1.06808 0.42411 0.34037
 C1517 C 1.07970 0.41622 0.31722
 H1518 H 1.07458 0.39806 0.30873
 O1519 O 0.97008 0.59559 0.37669
 O1520 O 0.96527 0.62532 0.34718
 C1521 C 0.95908 0.60375 0.35668
 C1522 C 0.93824 0.58842 0.34498
 C1523 C 0.92338 0.59883 0.32510
 H1524 H 0.92767 0.61766 0.31757
 O1525 O 0.87588 0.51225 0.41107
 O1526 O 0.84568 0.51049 0.38173
 C1527 C 0.85415 0.51924 0.40279
 C1528 C 0.83902 0.53799 0.41783
 C1529 C 0.81271 0.54171 0.41325
 H1530 H 0.80304 0.53075 0.39859
 O1531 O 1.13102 0.49361 0.40993
 O1532 O 1.16044 0.49546 0.37948
 C1533 C 1.15174 0.48545 0.39998
 C1534 C 1.16491 0.46314 0.41159
 C1535 C 1.18165 0.44789 0.39665
 H1536 H 1.18577 0.45290 0.37690
 O1537 O 1.10755 0.38819 0.47975
 O1538 O 1.14007 0.36131 0.48009
 C1539 C 1.11867 0.36835 0.47114
 C1540 C 1.10710 0.35367 0.44999
 C1541 C 1.11832 0.33077 0.44195
 H1542 H 1.13433 0.32328 0.45260
 O1543 O 0.90166 0.61985 0.48002
 O1544 O 0.86882 0.64633 0.48002
 C1545 C 0.89077 0.63990 0.47171
 C1546 C 0.90365 0.65612 0.45231
 C1547 C 0.89590 0.68148 0.44896
 H1548 H 0.88067 0.68914 0.46087
 Cu1549 Cu 1.10876 0.51754 0.39601
 Cu1550 Cu 1.14449 0.52052 0.35985
 Cu1551 Cu 0.89895 0.49010 0.39569
 Cu1552 Cu 0.86306 0.48789 0.36020
 Cu1553 Cu 1.09958 0.62271 0.50179
 Cu1554 Cu 1.13112 0.66224 0.50277
 Cu1555 Cu 1.11937 0.41029 0.50496
 Cu1556 Cu 1.15845 0.37805 0.50490
 Cu1557 Cu 0.88916 0.59737 0.50488
 Cu1558 Cu 0.84981 0.62920 0.50442
 Cu1559 Cu 0.90779 0.38480 0.50056
 Cu1560 Cu 0.87649 0.34503 0.50103
 Cu1561 Cu 0.99424 0.61319 0.39549
 Cu1562 Cu 0.98921 0.64866 0.35981
 Cu1563 Cu 1.01614 0.39849 0.39560
 Cu1564 Cu 1.02101 0.36314 0.35958
 C1565 C 1.07574 0.44719 0.35171
 H1566 H 1.06754 0.45302 0.36992
 C1567 C 1.09891 0.43120 0.30575
 C1568 C 0.93158 0.56421 0.35508
 H1569 H 0.94242 0.55624 0.37080
 C1570 C 0.90188 0.58569 0.31604
 C1571 C 0.92366 0.64653 0.43715
 H1572 H 0.92971 0.62692 0.43977
 C1573 C 0.90755 0.69711 0.43045
 C1574 C 1.08582 0.36307 0.43682
 H1575 H 1.07731 0.38097 0.44280
 C1576 C 1.10916 0.31754 0.42049
 C1577 C 1.15804 0.45481 0.43647
 H1578 H 1.14406 0.46543 0.44756
 C1579 C 1.19111 0.42485 0.40656
 C1580 C 0.85111 0.55250 0.43705
 H1581 H 0.87140 0.55011 0.44049
 C1582 C 0.79867 0.55901 0.42832
 C1583 C 1.06407 0.58165 0.35198
 H1584 H 1.06099 0.57877 0.37234
 C1585 C 1.07196 0.58830 0.29917
 C1586 C 0.94577 0.43102 0.35072
 H1587 H 0.95156 0.43932 0.36879
 C1588 C 0.93056 0.40793 0.30442
 C1589 C 1.14689 0.58809 0.43549
 H1590 H 1.13137 0.57792 0.44486
 C1591 C 1.18576 0.61502 0.40991
 C1592 C 0.86173 0.41797 0.43344
 H1593 H 0.88147 0.42306 0.43718
 C1594 C 0.81055 0.40526 0.42379
 C1595 C 1.05635 0.66227 0.43446
 H1596 H 1.05365 0.64221 0.43878
 C1597 C 1.06360 0.71416 0.42341
 C1598 C 0.95386 0.34671 0.43474
 H1599 H 0.96163 0.36270 0.44532
 C1600 C 0.93240 0.30728 0.40550
 O1601 O 0.58610 1.03633 0.62137
 O1602 O 0.61555 1.03948 0.65136
 C1603 C 0.59376 1.04547 0.64251
 C1604 C 0.57724 1.06315 0.65713
 C1605 C 0.58109 1.06641 0.68339
 H1606 H 0.59614 1.05580 0.69285
 O1607 O 0.41036 0.96852 0.62307
 O1608 O 0.37937 0.96543 0.65179
 C1609 C 0.40119 0.95853 0.64333
 C1610 C 0.41568 0.93847 0.65718
 C1611 C 0.40526 0.92749 0.67942
 H1612 H 0.38701 0.93421 0.68671
 O1613 O 0.50935 1.13153 0.58865
 O1614 O 0.50692 1.16046 0.61925
 C1615 C 0.51639 1.15264 0.59816
 C1616 C 0.53683 1.16761 0.58544
 C1617 C 0.54819 1.18782 0.59863
 H1618 H 0.54050 1.19356 0.61708
 O1619 O 0.48624 0.86975 0.59520
 O1620 O 0.48878 0.84192 0.62682
 C1621 C 0.47867 0.84930 0.60598
 C1622 C 0.45668 0.83518 0.59498
 C1623 C 0.44344 0.81669 0.60960
 H1624 H 0.45029 0.81131 0.62840
 O1625 O 0.61235 1.10779 0.52010
 O1626 O 0.63977 1.13984 0.51904
 C1627 C 0.63251 1.11862 0.52827
 C1628 C 0.64734 1.10716 0.54935
 C1629 C 0.66915 1.11968 0.55852
 H1630 H 0.67585 1.13677 0.54892
 O1631 O 0.38136 0.89560 0.52612
 O1632 O 0.35249 0.86477 0.52610
 C1633 C 0.36008 0.88649 0.53375
 C1634 C 0.34417 0.90187 0.55134
 C1635 C 0.31737 0.89900 0.55232
 H1636 H 0.30802 0.88474 0.54058
 O1637 O 0.46364 1.09176 0.62435
 O1638 O 0.46109 1.12069 0.65499
 C1639 C 0.45480 1.09915 0.64581
 C1640 C 0.43716 1.08242 0.66023
 C1641 C 0.43307 1.08608 0.68649
 H1642 H 0.44303 1.10133 0.69633
 O1643 O 0.53360 0.91085 0.62677
 O1644 O 0.53700 0.88296 0.65823
 C1645 C 0.54379 0.90379 0.64765
 C1646 C 0.56448 0.91954 0.65897
 C1647 C 0.57819 0.91083 0.68050
 H1648 H 0.57312 0.89289 0.68954
 O1649 O 0.62721 0.99127 0.58605
 O1650 O 0.65708 0.99554 0.61545
 C1651 C 0.64903 0.98543 0.59488
 C1652 C 0.66486 0.96595 0.58174
 C1653 C 0.68977 0.96093 0.59015
 H1654 H 0.69764 0.97216 0.60564
 O1655 O 0.37284 1.01694 0.58793
 O1656 O 0.34292 1.01492 0.61786
 C1657 C 0.35157 1.02448 0.59710
 C1658 C 0.33689 1.04509 0.58423
 C1659 C 0.31440 1.05425 0.59570
 H1660 H 0.30726 1.04488 0.61276
 O1661 O 0.39717 1.12186 0.52010
 O1662 O 0.36443 1.14840 0.51914
 C1663 C 0.38560 1.14140 0.52874
 C1664 C 0.39607 1.15543 0.55099
 C1665 C 0.38267 1.17622 0.56118
 H1666 H 0.36583 1.18307 0.55136
 O1667 O 0.60292 0.88187 0.52597
 O1668 O 0.63609 0.85586 0.52631
 C1669 C 0.61444 0.86267 0.53525
 C1670 C 0.60291 0.84838 0.55701
 C1671 C 0.61533 0.82693 0.56696
 H1672 H 0.63259 0.82019 0.55762
 O1673 O 0.40492 1.01803 0.62582
 O1674 O 0.37511 1.01482 0.65580
 C1675 C 0.39529 1.02523 0.64707
 C1676 C 0.40772 1.04628 0.66117
 C1677 C 0.40320 1.05053 0.68750
 H1678 H 0.39033 1.03816 0.69815
 O1679 O 0.59261 0.98682 0.62162
 O1680 O 0.62269 0.99055 0.65087
 C1681 C 0.60306 0.97920 0.64218
 C1682 C 0.59318 0.95640 0.65589
 C1683 C 0.60632 0.94746 0.67739
 H1684 H 0.62244 0.95825 0.68459
 O1685 O 0.53620 0.87431 0.59368
 O1686 O 0.53939 0.84609 0.62485
 C1687 C 0.54720 0.85508 0.60353
 C1688 C 0.56999 0.84414 0.59037
 C1689 C 0.58290 0.82263 0.60018
 H1690 H 0.57561 0.81304 0.61712
 O1691 O 0.45969 1.12785 0.59062
 O1692 O 0.45660 1.15710 0.62083
 C1693 C 0.44882 1.14748 0.59991
 C1694 C 0.42656 1.15849 0.58625
 C1695 C 0.41267 1.17930 0.59634
 H1696 H 0.41859 1.18811 0.61413
 O1697 O 0.36569 1.08412 0.51972
 O1698 O 0.33291 1.11058 0.51863
 C1699 C 0.34407 1.09130 0.52836
 C1700 C 0.33272 1.07769 0.55078
 C1701 C 0.31035 1.08686 0.56302
 H1702 H 0.30061 1.10344 0.55544
 O1703 O 0.63451 0.91992 0.52345
 O1704 O 0.66784 0.89410 0.52387
 C1705 C 0.65647 0.91402 0.53190
 C1706 C 0.66846 0.93047 0.55154
 C1707 C 0.69328 0.92543 0.56056
 H1708 H 0.70416 0.90964 0.55273
 O1709 O 0.48372 0.90674 0.62746
 O1710 O 0.48657 0.87911 0.65922
 C1711 C 0.47565 0.89816 0.64879
 C1712 C 0.45245 0.90963 0.66066
 C1713 C 0.44181 0.89930 0.68329
 H1714 H 0.45134 0.88379 0.69310
 O1715 O 0.51282 1.09764 0.62458
 O1716 O 0.51017 1.12633 0.65544
 C1717 C 0.52055 1.10657 0.64583
 C1718 C 0.54182 1.09351 0.65913
 C1719 C 0.54616 1.09685 0.68561
 H1720 H 0.53397 1.10938 0.69680
 O1721 O 0.37476 0.96703 0.58850
 O1722 O 0.34350 0.96528 0.61713
 C1723 C 0.35376 0.95756 0.59644
 C1724 C 0.34123 0.93736 0.58141
 C1725 C 0.31458 0.93471 0.58183
 H1726 H 0.30310 0.94768 0.59330
 O1727 O 0.62215 1.04099 0.58722
 O1728 O 0.65154 1.04500 0.61713
 C1729 C 0.64157 1.05245 0.59633
 C1730 C 0.65203 1.07508 0.58286
 C1731 C 0.67389 1.08803 0.59198
 H1732 H 0.68383 1.08106 0.60875
 O1733 O 0.41946 0.86408 0.52933
 O1734 O 0.39073 0.83320 0.53042
 C1735 C 0.41071 0.84378 0.53937
 C1736 C 0.42313 0.83306 0.56246
 C1737 C 0.41014 0.81497 0.57745
 H1738 H 0.39161 0.80791 0.57141
 O1739 O 0.57431 1.13986 0.51978
 O1740 O 0.60210 1.17157 0.51966
 C1741 C 0.58223 1.16092 0.52890
 C1742 C 0.56915 1.17209 0.55159
 C1743 C 0.58041 1.19238 0.56535
 H1744 H 0.59796 1.20115 0.55848
 Cu1745 Cu 0.60409 1.01360 0.60099
 Cu1746 Cu 0.63968 1.01804 0.63668
 Cu1747 Cu 0.39381 0.99290 0.60343
 Cu1748 Cu 0.35716 0.98978 0.63852
 Cu1749 Cu 0.48657 1.10934 0.60398
 Cu1750 Cu 0.48334 1.14430 0.64054
 Cu1751 Cu 0.50973 0.89311 0.60763
 Cu1752 Cu 0.51331 0.85970 0.64543
 C1753 C 0.55740 1.07650 0.64517
 H1754 H 0.55430 1.07383 0.62483
 C1755 C 0.56544 1.08272 0.69784
 C1756 C 0.43935 0.92946 0.64793
 H1757 H 0.44720 0.93740 0.63039
 C1758 C 0.41803 0.90792 0.69246
 C1759 C 0.54720 1.16003 0.56176
 H1760 H 0.53886 1.14391 0.55182
 C1761 C 0.57026 1.19979 0.58920
 C1762 C 0.44649 0.84293 0.57127
 H1763 H 0.45617 0.85758 0.56019
 C1764 C 0.41992 0.80701 0.60107
 C1765 C 0.63903 1.08478 0.56146
 H1766 H 0.62196 1.07528 0.55461
 C1767 C 0.68233 1.11059 0.57998
 C1768 C 0.35586 0.92110 0.56593
 H1769 H 0.37649 0.92337 0.56533
 C1770 C 0.30252 0.91591 0.56703
 C1771 C 0.42469 1.06235 0.64782
 H1772 H 0.42793 1.05946 0.62748
 C1773 C 0.41637 1.07014 0.70030
 C1774 C 0.57214 0.94243 0.64685
 H1775 H 0.56217 0.94903 0.62995
 C1776 C 0.59946 0.92455 0.68942
 C1777 C 0.65452 0.95092 0.56212
 H1778 H 0.63519 0.95461 0.55571
 C1779 C 0.70410 0.94078 0.57972
 C1780 C 0.34580 1.05676 0.56163
 H1781 H 0.36335 1.04993 0.55285
 C1782 C 0.30133 1.07544 0.58580
 C1783 C 0.41811 1.14685 0.56349
 H1784 H 0.42829 1.13051 0.55583
 C1785 C 0.39042 1.18798 0.58401
 C1786 C 0.58015 0.85671 0.56868
 H1787 H 0.57071 0.87354 0.56125
 C1788 C 0.60579 0.81409 0.58865
 O1789 O 0.59360 0.98099 0.37128
 O1790 O 0.62387 0.98258 0.34164
 C1791 C 0.60398 0.97207 0.35112
 C1792 C 0.59308 0.94879 0.33932
 C1793 C 0.60346 0.93852 0.31656
 H1794 H 0.61917 0.94807 0.30682
 O1795 O 0.40681 1.01463 0.37038
 O1796 O 0.37671 1.01026 0.34121
 C1797 C 0.39597 1.02217 0.34999
 C1798 C 0.40459 1.04604 0.33731
 C1799 C 0.38880 1.05779 0.31913
 H1800 H 0.37130 1.04845 0.31318
 O1801 O 0.46570 1.12445 0.40187
 O1802 O 0.46380 1.15415 0.37192
 C1803 C 0.45628 1.14503 0.39334
 C1804 C 0.43636 1.15825 0.40860
 C1805 C 0.43230 1.18447 0.40567
 H1806 H 0.44395 1.19518 0.39215
 O1807 O 0.53535 0.87276 0.41179
 O1808 O 0.53774 0.84209 0.38285
 C1809 C 0.54534 0.85225 0.40353
 C1810 C 0.56598 0.84005 0.41813
 C1811 C 0.57092 0.81404 0.41519
 H1812 H 0.55933 0.80289 0.40215
 O1813 O 0.63294 0.91887 0.47373
 O1814 O 0.66609 0.89282 0.47404
 C1815 C 0.65477 0.91238 0.46514
 C1816 C 0.66732 0.92787 0.44484
 C1817 C 0.69351 0.92488 0.43962
 H1818 H 0.70462 0.91124 0.45052
 O1819 O 0.36719 1.08333 0.46941
 O1820 O 0.33505 1.11051 0.46768
 C1821 C 0.34626 1.09056 0.45950
 C1822 C 0.33552 1.07623 0.43753
 C1823 C 0.31623 1.08722 0.42230
 H1824 H 0.30854 1.10582 0.42712
 O1825 O 0.51546 1.09138 0.36528
 O1826 O 0.51194 1.11874 0.33333
 C1827 C 0.52238 1.09918 0.34329
 C1828 C 0.54310 1.08533 0.32974
 C1829 C 0.54716 1.08806 0.30319
 H1830 H 0.53493 1.10048 0.29205
 O1831 O 0.48371 0.90289 0.37548
 O1832 O 0.48696 0.87299 0.34586
 C1833 C 0.47671 0.89330 0.35431
 C1834 C 0.45660 0.90606 0.33933
 C1835 C 0.45374 0.90077 0.31324
 H1836 H 0.46633 0.88702 0.30416
 O1837 O 0.62161 1.03612 0.40419
 O1838 O 0.65131 1.03911 0.37414
 C1839 C 0.64094 1.04742 0.39464
 C1840 C 0.65081 1.07089 0.40718
 C1841 C 0.67215 1.08400 0.39700
 H1842 H 0.68214 1.07663 0.38032
 O1843 O 0.37800 0.96170 0.40726
 O1844 O 0.34789 0.95749 0.37809
 C1845 C 0.35790 0.95072 0.39914
 C1846 C 0.34605 0.92999 0.41447
 C1847 C 0.32017 0.92331 0.41105
 H1848 H 0.30874 0.93325 0.39696
 O1849 O 0.57525 1.13869 0.46879
 O1850 O 0.60260 1.17082 0.46901
 C1851 C 0.58366 1.15938 0.45915
 C1852 C 0.57352 1.16879 0.43455
 C1853 C 0.58896 1.18484 0.41953
 H1854 H 0.60665 1.19233 0.42730
 O1855 O 0.42016 0.86097 0.47928
 O1856 O 0.39269 0.82896 0.47989
 C1857 C 0.41298 0.83927 0.47119
 C1858 C 0.42840 0.82668 0.45100
 C1859 C 0.42584 0.80049 0.44547
 H1860 H 0.41250 0.78888 0.45639
 O1861 O 0.41254 0.96495 0.37100
 O1862 O 0.38285 0.96072 0.34141
 C1863 C 0.40467 0.95497 0.35030
 C1864 C 0.42114 0.93617 0.33703
 C1865 C 0.41818 0.93044 0.31081
 H1866 H 0.40360 0.94005 0.29971
 O1867 O 0.58761 1.03004 0.36863
 O1868 O 0.61716 1.03165 0.33825
 C1869 C 0.59529 1.03804 0.34691
 C1870 C 0.57860 1.05502 0.33173
 C1871 C 0.58196 1.05739 0.30519
 H1872 H 0.59678 1.04643 0.29560
 O1873 O 0.48581 0.86821 0.41128
 O1874 O 0.48857 0.83811 0.38182
 C1875 C 0.47930 0.84644 0.40274
 C1876 C 0.46094 0.83056 0.41743
 C1877 C 0.45850 0.80441 0.41236
 H1878 H 0.47008 0.79592 0.39734
 O1879 O 0.51519 1.12891 0.39734
 O1880 O 0.51369 1.15660 0.36551
 C1881 C 0.52336 1.14911 0.38646
 C1882 C 0.54487 1.16330 0.39815
 C1883 C 0.56078 1.17944 0.38326
 H1884 H 0.55675 1.18254 0.36315
 O1885 O 0.38451 0.89497 0.47685
 O1886 O 0.35635 0.86350 0.47710
 C1887 C 0.36422 0.88479 0.46833
 C1888 C 0.34924 0.89804 0.44843
 C1889 C 0.32328 0.89214 0.44523
 H1890 H 0.31435 0.87776 0.45727
 O1891 O 0.61154 1.10578 0.47022
 O1892 O 0.63881 1.13799 0.46953
 C1893 C 0.63145 1.11644 0.46104
 C1894 C 0.64581 1.10438 0.43962
 C1895 C 0.66685 1.11716 0.42893
 H1896 H 0.67314 1.13506 0.43718
 O1897 O 0.53338 0.90704 0.37630
 O1898 O 0.53646 0.87650 0.34736
 C1899 C 0.54334 0.89813 0.35592
 C1900 C 0.56348 0.91266 0.34216
 C1901 C 0.57421 0.90269 0.31968
 H1902 H 0.56693 0.88493 0.31196
 O1903 O 0.46560 1.08961 0.36684
 O1904 O 0.46165 1.11875 0.33661
 C1905 C 0.45470 1.09777 0.34673
 C1906 C 0.43307 1.08316 0.33572
 C1907 C 0.41713 1.09440 0.31722
 H1908 H 0.42122 1.11345 0.31019
 O1909 O 0.37343 1.01151 0.40633
 O1910 O 0.34353 1.00721 0.37695
 C1911 C 0.35211 1.01817 0.39689
 C1912 C 0.33815 1.04035 0.40759
 C1913 C 0.31878 1.05153 0.39298
 H1914 H 0.31259 1.04234 0.37550
 O1915 O 0.62811 0.98644 0.40582
 O1916 O 0.65857 0.98926 0.37648
 C1917 C 0.65003 0.97994 0.39735
 C1918 C 0.66529 0.96095 0.41175
 C1919 C 0.69149 0.95718 0.40634
 H1920 H 0.70101 0.96853 0.39174
 O1921 O 0.60345 0.87894 0.47626
 O1922 O 0.63612 0.85230 0.47641
 C1923 C 0.61417 0.85867 0.46828
 C1924 C 0.60045 0.84288 0.44931
 C1925 C 0.60572 0.81669 0.44575
 H1926 H 0.62069 0.80749 0.45666
 O1927 O 0.39863 1.12188 0.47009
 O1928 O 0.36675 1.14944 0.46930
 C1929 C 0.38861 1.14216 0.46132
 C1930 C 0.40279 1.15700 0.44156
 C1931 C 0.39853 1.18333 0.43794
 H1932 H 0.38443 1.19324 0.44956
 Cu1933 Cu 0.60484 1.00826 0.39053
 Cu1934 Cu 0.64085 1.01103 0.35472
 Cu1935 Cu 0.39580 0.98825 0.39164
 Cu1936 Cu 0.35972 0.98316 0.35651
 Cu1937 Cu 0.59031 1.12000 0.49501
 Cu1938 Cu 0.62339 1.15837 0.49429
 Cu1939 Cu 0.61512 0.90245 0.49973
 Cu1940 Cu 0.65487 0.87113 0.50008
 Cu1941 Cu 0.38532 1.10008 0.49477
 Cu1942 Cu 0.34638 1.13228 0.49338
 Cu1943 Cu 0.40436 0.88187 0.50290
 Cu1944 Cu 0.37045 0.84417 0.50333
 Cu1945 Cu 0.49082 1.10577 0.38586
 Cu1946 Cu 0.48736 1.13990 0.34870
 Cu1947 Cu 0.50911 0.89078 0.39667
 Cu1948 Cu 0.51262 0.85442 0.36144
 C1949 C 0.57293 0.93578 0.35182
 H1950 H 0.56499 0.94331 0.36949
 C1951 C 0.59423 0.91527 0.30694
 C1952 C 0.42675 1.05885 0.34547
 H1953 H 0.43864 1.05025 0.36006
 C1954 C 0.39470 1.08202 0.30932
 C1955 C 0.42175 1.14474 0.42679
 H1956 H 0.42499 1.12446 0.42927
 C1957 C 0.41378 1.19718 0.42047
 C1958 C 0.58061 0.85427 0.43531
 H1959 H 0.57664 0.87445 0.43759
 C1960 C 0.59045 0.80214 0.42905
 C1961 C 0.65343 0.94620 0.43106
 H1962 H 0.63323 0.94876 0.43516
 C1963 C 0.70572 0.93958 0.42068
 C1964 C 0.34637 1.05274 0.42998
 H1965 H 0.36185 1.04457 0.44100
 C1966 C 0.30840 1.07523 0.39963
 C1967 C 0.55891 1.06875 0.34376
 H1968 H 0.55617 1.06681 0.36428
 C1969 C 0.56618 1.07359 0.29080
 C1970 C 0.44050 0.92399 0.35098
 H1971 H 0.44278 0.92816 0.37117
 C1972 C 0.43497 0.91317 0.29871
 C1973 C 0.63785 1.08121 0.42863
 H1974 H 0.62117 1.07155 0.43640
 C1975 C 0.67991 1.10735 0.40762
 C1976 C 0.36041 0.91727 0.43327
 H1977 H 0.38037 0.92217 0.43595
 C1978 C 0.30858 0.90485 0.42685
 C1979 C 0.55137 1.15828 0.42382
 H1980 H 0.53980 1.14525 0.43515
 C1981 C 0.58322 1.18968 0.39385
 C1982 C 0.44606 0.84142 0.43693
 H1983 H 0.44791 0.86166 0.44083
 C1984 C 0.44131 0.78915 0.42647
 O1985 O 0.59389 0.52857 1.12604
 O1986 O 0.62494 0.53024 1.15450
 C1987 C 0.60304 0.53730 1.14675
 C1988 C 0.58811 0.55576 1.16206
 C1989 C 0.59418 0.55999 1.18776
 H1990 H 0.60987 0.54955 1.19632
 O1991 O 0.41903 0.46557 1.13311
 O1992 O 0.38992 0.46266 1.16379
 C1993 C 0.41088 0.45541 1.15371
 C1994 C 0.42444 0.43353 1.16525
 C1995 C 0.41230 0.41994 1.18494
 H1996 H 0.39448 0.42694 1.19305
 O1997 O 0.51916 0.62676 1.09746
 O1998 O 0.51865 0.65585 1.12804
 C1999 C 0.52664 0.64802 1.10636
 C2000 C 0.54478 0.66379 1.09129
 C2001 C 0.54761 0.68983 1.09663
 H2002 H 0.53633 0.69842 1.11183
 O2003 O 0.49170 0.36639 1.09279
 O2004 O 0.49479 0.33609 1.12197
 C2005 C 0.48522 0.34460 1.10122
 C2006 C 0.46581 0.32950 1.08704
 C2007 C 0.46027 0.30422 1.09404
 H2008 H 0.47088 0.29544 1.10946
 O2009 O 0.61971 0.60057 1.02466
 O2010 O 0.64799 0.63194 1.02453
 C2011 C 0.64051 0.61022 1.03254
 C2012 C 0.65635 0.59588 1.05088
 C2013 C 0.68244 0.60144 1.05322
 H2014 H 0.69074 0.61653 1.04164
 O2015 O 0.38731 0.39607 1.03084
 O2016 O 0.35945 0.36441 1.03194
 C2017 C 0.36796 0.38526 1.04097
 C2018 C 0.35560 0.39615 1.06409
 C2019 C 0.33713 0.38165 1.07712
 H2020 H 0.33134 0.36324 1.06965
 O2021 O 0.47363 0.58777 1.13429
 O2022 O 0.47287 0.61662 1.16508
 C2023 C 0.46543 0.59541 1.15590
 C2024 C 0.44702 0.57937 1.17031
 C2025 C 0.44253 0.58343 1.19650
 H2026 H 0.45290 0.59830 1.20650
 O2027 O 0.53721 0.40565 1.12853
 O2028 O 0.53967 0.37671 1.15915
 C2029 C 0.54622 0.39824 1.14981
 C2030 C 0.56481 0.41496 1.16313
 C2031 C 0.57012 0.41229 1.18949
 H2032 H 0.56017 0.39795 1.20073
 O2033 O 0.63083 0.48211 1.08828
 O2034 O 0.66177 0.48382 1.11684
 C2035 C 0.65264 0.47501 1.09614
 C2036 C 0.66758 0.45620 1.08126
 C2037 C 0.69325 0.45181 1.08726
 H2038 H 0.70206 0.46254 1.10261
 O2039 O 0.37840 0.51303 1.10070
 O2040 O 0.34941 0.50916 1.13137
 C2041 C 0.35697 0.51920 1.11050
 C2042 C 0.34074 0.53854 1.09794
 C2043 C 0.31548 0.54216 1.10628
 H2044 H 0.30829 0.52994 1.12131
 O2045 O 0.40016 0.62145 1.03666
 O2046 O 0.36825 0.64894 1.03869
 C2047 C 0.39020 0.64158 1.04593
 C2048 C 0.40467 0.65627 1.06527
 C2049 C 0.40114 0.68277 1.06851
 H2050 H 0.38712 0.69283 1.05709
 O2051 O 0.60367 0.37587 1.02352
 O2052 O 0.63659 0.34960 1.02187
 C2053 C 0.61558 0.35652 1.03203
 C2054 C 0.60553 0.34259 1.05467
 C2055 C 0.61911 0.32193 1.06493
 H2056 H 0.63621 0.31525 1.05523
 O2057 O 0.41324 0.51520 1.13606
 O2058 O 0.38426 0.51198 1.16683
 C2059 C 0.40406 0.52259 1.15744
 C2060 C 0.41660 0.54390 1.17115
 C2061 C 0.41172 0.54866 1.19731
 H2062 H 0.39857 0.53658 1.20795
 O2063 O 0.59764 0.47904 1.12528
 O2064 O 0.62841 0.48092 1.15403
 C2065 C 0.60777 0.47107 1.14584
 C2066 C 0.59512 0.45048 1.16061
 C2067 C 0.60042 0.44739 1.18663
 H2068 H 0.61452 0.45971 1.19539
 O2069 O 0.54140 0.36980 1.09471
 O2070 O 0.54487 0.34044 1.12477
 C2071 C 0.55252 0.35026 1.10384
 C2072 C 0.57487 0.33944 1.09007
 C2073 C 0.58863 0.31856 1.10003
 H2074 H 0.58249 0.30963 1.11777
 O2075 O 0.46955 0.62364 1.10048
 O2076 O 0.46907 0.65304 1.13076
 C2077 C 0.46024 0.64392 1.11004
 C2078 C 0.43929 0.65714 1.09652
 C2079 C 0.43586 0.68349 1.09928
 H2080 H 0.44836 0.69405 1.11196
 O2081 O 0.36840 0.58299 1.03703
 O2082 O 0.33601 0.60984 1.03955
 C2083 C 0.34711 0.58956 1.04691
 C2084 C 0.33564 0.57335 1.06735
 C2085 C 0.31028 0.57699 1.07619
 H2086 H 0.29879 0.59194 1.06778
 O2087 O 0.63492 0.41431 1.02108
 O2088 O 0.66790 0.38812 1.01911
 C2089 C 0.65713 0.40779 1.02842
 C2090 C 0.67006 0.42306 1.04844
 C2091 C 0.69575 0.41845 1.05519
 H2092 H 0.70664 0.40371 1.04549
 O2093 O 0.48797 0.39934 1.12953
 O2094 O 0.49014 0.36917 1.15895
 C2095 C 0.47967 0.38913 1.15006
 C2096 C 0.45719 0.40031 1.16317
 C2097 C 0.44423 0.38663 1.18261
 H2098 H 0.45090 0.36797 1.18854
 O2099 O 0.52316 0.59189 1.13247
 O2100 O 0.52259 0.62054 1.16343
 C2101 C 0.53207 0.60059 1.15333
 C2102 C 0.55371 0.58713 1.16557
 C2103 C 0.56037 0.59154 1.19137
 H2104 H 0.54963 0.60509 1.20283
 O2105 O 0.38241 0.46308 1.10037
 O2106 O 0.35353 0.45954 1.13121
 C2107 C 0.36307 0.45183 1.11013
 C2108 C 0.35255 0.42869 1.09760
 C2109 C 0.33364 0.41390 1.11011
 H2110 H 0.32564 0.42006 1.12829
 O2111 O 0.62816 0.53165 1.09007
 O2112 O 0.65950 0.53323 1.11820
 C2113 C 0.64896 0.54141 1.09794
 C2114 C 0.66072 0.56246 1.08313
 C2115 C 0.68683 0.56860 1.08567
 H2116 H 0.69871 0.55793 1.09883
 O2117 O 0.42328 0.36236 1.02670
 O2118 O 0.39541 0.33070 1.02733
 C2119 C 0.41613 0.34072 1.03518
 C2120 C 0.43178 0.32762 1.05492
 C2121 C 0.42622 0.30245 1.06259
 H2122 H 0.41087 0.29203 1.05341
 O2123 O 0.58377 0.63435 1.02707
 O2124 O 0.61149 0.66615 1.02695
 C2125 C 0.59150 0.65553 1.03602
 C2126 C 0.57689 0.66761 1.05721
 C2127 C 0.57997 0.69363 1.06323
 H2128 H 0.59331 0.70527 1.05234
 Cu2129 Cu 0.60955 0.50522 1.10454
 Cu2130 Cu 0.64681 0.50719 1.13879
 Cu2131 Cu 0.40117 0.48978 1.11446
 Cu2132 Cu 0.36638 0.48564 1.15139
 Cu2133 Cu 0.49646 0.60459 1.11316
 Cu2134 Cu 0.49571 0.63945 1.14992
 Cu2135 Cu 0.51435 0.38823 1.10844
 Cu2136 Cu 0.51769 0.35257 1.14415
 C2137 C 0.56761 0.56906 1.15123
 H2138 H 0.56272 0.56558 1.13138
 C2139 C 0.58021 0.57739 1.20266
 C2140 C 0.44712 0.42378 1.15461
 H2141 H 0.45636 0.43396 1.13900
 C2142 C 0.42148 0.39629 1.19303
 C2143 C 0.55917 0.65293 1.07132
 H2144 H 0.55686 0.63282 1.06702
 C2145 C 0.56489 0.70492 1.08256
 C2146 C 0.45172 0.34086 1.06716
 H2147 H 0.45571 0.36045 1.06179
 C2148 C 0.44056 0.29055 1.08195
 C2149 C 0.64569 0.57617 1.06564
 H2150 H 0.62552 0.57173 1.06376
 C2151 C 0.69787 0.58774 1.07027
 C2152 C 0.36325 0.41973 1.07440
 H2153 H 0.37804 0.43070 1.06476
 C2154 C 0.32633 0.39019 1.10009
 C2155 C 0.43421 0.55940 1.15790
 H2156 H 0.43782 0.55604 1.13771
 C2157 C 0.42509 0.56809 1.21011
 C2158 C 0.57721 0.43436 1.14905
 H2159 H 0.57322 0.43670 1.12882
 C2160 C 0.58759 0.42895 1.20146
 C2161 C 0.65620 0.44204 1.06160
 H2162 H 0.63626 0.44532 1.05705
 C2163 C 0.70750 0.43316 1.07433
 C2164 C 0.35054 0.55391 1.07827
 H2165 H 0.37012 0.55109 1.07188
 C2166 C 0.29980 0.56108 1.09554
 C2167 C 0.42375 0.64374 1.07938
 H2168 H 0.42661 0.62340 1.07690
 C2169 C 0.41730 0.69657 1.08496
 C2170 C 0.58342 0.35113 1.06731
 H2171 H 0.57320 0.36745 1.05976
 C2172 C 0.61104 0.31000 1.08772
 O2173 O 0.58934 0.48431 0.87359
 O2174 O 0.61703 0.48833 0.84169
 C2175 C 0.59733 0.47780 0.85148
 C2176 C 0.58373 0.45749 0.83734
 C2177 C 0.58776 0.45394 0.81088
 H2178 H 0.60075 0.46634 0.80041
 O2179 O 0.40450 0.51986 0.88040
 O2180 O 0.37458 0.51736 0.85084
 C2181 C 0.39510 0.52727 0.85925
 C2182 C 0.40833 0.54790 0.84489
 C2183 C 0.40566 0.55095 0.81815
 H2184 H 0.39346 0.53814 0.80741
 O2185 O 0.46225 0.62849 0.91564
 O2186 O 0.45853 0.65782 0.88559
 C2187 C 0.45118 0.64814 0.90677
 C2188 C 0.42913 0.65919 0.92108
 C2189 C 0.41583 0.68063 0.91172
 H2190 H 0.42210 0.68984 0.89418
 O2191 O 0.53356 0.37286 0.90633
 O2192 O 0.53540 0.34526 0.87452
 C2193 C 0.54403 0.35374 0.89562
 C2194 C 0.56694 0.34205 0.90766
 C2195 C 0.58052 0.32207 0.89561
 H2196 H 0.57378 0.31421 0.87767
 O2197 O 0.63179 0.41405 0.97108
 O2198 O 0.66419 0.38705 0.96914
 C2199 C 0.65237 0.40638 0.96051
 C2200 C 0.66153 0.41847 0.93660
 C2201 C 0.67592 0.40381 0.91933
 H2202 H 0.68160 0.38457 0.92447
 O2203 O 0.36735 0.58433 0.98691
 O2204 O 0.33505 0.61137 0.98909
 C2205 C 0.34593 0.59223 0.97873
 C2206 C 0.33451 0.58044 0.95566
 C2207 C 0.31608 0.59407 0.94188
 H2208 H 0.30908 0.61217 0.94915
 O2209 O 0.51428 0.59794 0.87933
 O2210 O 0.51139 0.62722 0.84905
 C2211 C 0.52170 0.60713 0.85799
 C2212 C 0.54238 0.59394 0.84362
 C2213 C 0.54599 0.59790 0.81708
 H2214 H 0.53379 0.61104 0.80677
 O2215 O 0.47914 0.40535 0.87618
 O2216 O 0.48033 0.37781 0.84422
 C2217 C 0.47013 0.39698 0.85523
 C2218 C 0.44712 0.40923 0.84409
 C2219 C 0.43642 0.39993 0.82118
 H2220 H 0.44541 0.38423 0.81108
 O2221 O 0.62303 0.53380 0.91015
 O2222 O 0.65219 0.53638 0.87947
 C2223 C 0.64332 0.54366 0.90100
 C2224 C 0.65648 0.56397 0.91551
 C2225 C 0.68290 0.56765 0.91285
 H2226 H 0.69381 0.55533 0.90018
 O2227 O 0.37374 0.46918 0.91833
 O2228 O 0.34234 0.46776 0.89028
 C2229 C 0.35286 0.45953 0.91062
 C2230 C 0.34122 0.43800 0.92508
 C2231 C 0.31588 0.43050 0.92050
 H2232 H 0.30438 0.44113 0.90697
 O2233 O 0.58156 0.63515 0.97727
 O2234 O 0.60954 0.66673 0.97695
 C2235 C 0.58883 0.65679 0.96903
 C2236 C 0.57297 0.67028 0.94996
 C2237 C 0.57684 0.69623 0.94462
 H2238 H 0.59150 0.70674 0.95478
 O2239 O 0.41987 0.36433 0.97660
 O2240 O 0.39099 0.33358 0.97734
 C2241 C 0.41068 0.34386 0.96737
 C2242 C 0.42204 0.33259 0.94395
 C2243 C 0.40778 0.31522 0.92940
 H2244 H 0.38906 0.30908 0.93609
 O2245 O 0.40767 0.47016 0.88195
 O2246 O 0.37649 0.46783 0.85374
 C2247 C 0.39816 0.46041 0.86184
 C2248 C 0.41196 0.43995 0.84777
 C2249 C 0.40159 0.43018 0.82509
 H2250 H 0.38413 0.43833 0.81760
 O2251 O 0.58599 0.53365 0.87720
 O2252 O 0.61459 0.53724 0.84608
 C2253 C 0.59340 0.54370 0.85628
 C2254 C 0.57710 0.56263 0.84319
 C2255 C 0.58004 0.56646 0.81682
 H2256 H 0.59432 0.55563 0.80629
 O2257 O 0.48373 0.36832 0.90815
 O2258 O 0.48481 0.34070 0.87628
 C2259 C 0.47579 0.34791 0.89775
 C2260 C 0.45440 0.33378 0.90996
 C2261 C 0.44004 0.31595 0.89582
 H2262 H 0.44592 0.31076 0.87656
 O2263 O 0.51203 0.63297 0.91398
 O2264 O 0.50884 0.66274 0.88427
 C2265 C 0.51883 0.65437 0.90477
 C2266 C 0.53887 0.66915 0.91809
 C2267 C 0.54357 0.69496 0.91230
 H2268 H 0.53239 0.70457 0.89778
 O2269 O 0.38293 0.39739 0.98098
 O2270 O 0.35418 0.36654 0.98238
 C2271 C 0.36163 0.38807 0.97386
 C2272 C 0.34565 0.40249 0.95536
 C2273 C 0.32038 0.39486 0.94991
 H2274 H 0.31216 0.37833 0.95939
 O2275 O 0.61948 0.60301 0.97515
 O2276 O 0.64800 0.63412 0.97500
 C2277 C 0.64006 0.61282 0.96649
 C2278 C 0.65490 0.59865 0.94682
 C2279 C 0.68145 0.60251 0.94353
 H2280 H 0.69133 0.61669 0.95490
 O2281 O 0.52857 0.41035 0.87398
 O2282 O 0.52973 0.38310 0.84178
 C2283 C 0.53653 0.40413 0.85182
 C2284 C 0.55385 0.42156 0.83766
 C2285 C 0.55757 0.41870 0.81120
 H2286 H 0.54757 0.40369 0.80104
 O2287 O 0.46499 0.59312 0.88099
 O2288 O 0.46216 0.62215 0.85045
 C2289 C 0.45589 0.60058 0.85979
 C2290 C 0.43828 0.58375 0.84562
 C2291 C 0.43593 0.58619 0.81907
 H2292 H 0.44688 0.60074 0.80905
 O2293 O 0.37078 0.51920 0.91722
 O2294 O 0.34068 0.51799 0.88779
 C2295 C 0.34976 0.52744 0.90823
 C2296 C 0.33643 0.54906 0.92093
 C2297 C 0.31768 0.56301 0.90757
 H2298 H 0.31215 0.55735 0.88841
 O2299 O 0.62578 0.48364 0.90662
 O2300 O 0.65333 0.48609 0.87447
 C2301 C 0.64558 0.47544 0.89497
 C2302 C 0.65851 0.45214 0.90436
 C2303 C 0.67327 0.43716 0.88736
 H2304 H 0.67662 0.44350 0.86784
 O2305 O 0.60048 0.37623 0.97315
 O2306 O 0.63301 0.34946 0.97160
 C2307 C 0.61131 0.35678 0.96344
 C2308 C 0.59948 0.34355 0.94131
 C2309 C 0.61267 0.32378 0.92895
 H2310 H 0.63044 0.31690 0.93698
 O2311 O 0.39886 0.62187 0.98677
 O2312 O 0.36653 0.64887 0.98881
 C2313 C 0.38754 0.64171 0.97867
 C2314 C 0.39827 0.65592 0.95649
 C2315 C 0.38530 0.67718 0.94680
 H2316 H 0.36839 0.68408 0.95668
 Cu2317 Cu 0.60337 0.50860 0.89520
 Cu2318 Cu 0.63736 0.51270 0.85748
 Cu2319 Cu 0.39217 0.49490 0.90238
 Cu2320 Cu 0.35534 0.49248 0.86790
 Cu2321 Cu 0.59825 0.61522 1.00095
 Cu2322 Cu 0.63203 0.65298 1.00082
 Cu2323 Cu 0.61441 0.39775 0.99759
 Cu2324 Cu 0.65366 0.36584 0.99539
 Cu2325 Cu 0.38690 0.59992 1.01196
 Cu2326 Cu 0.34811 0.63236 1.01452
 Cu2327 Cu 0.40624 0.38310 1.00357
 Cu2328 Cu 0.37221 0.34564 1.00485
 Cu2329 Cu 0.48869 0.61034 0.90059
 Cu2330 Cu 0.48481 0.64560 0.86443
 Cu2331 Cu 0.50629 0.39183 0.89443
 Cu2332 Cu 0.50798 0.35880 0.85608
 C2333 C 0.56669 0.44125 0.85051
 H2334 H 0.56385 0.44358 0.87096
 C2335 C 0.57429 0.43489 0.79770
 C2336 C 0.42474 0.56439 0.85833
 H2337 H 0.42683 0.56230 0.87887
 C2338 C 0.42012 0.56968 0.80513
 C2339 C 0.42025 0.64715 0.94361
 H2340 H 0.43002 0.63038 0.95074
 C2341 C 0.39367 0.68944 0.92435
 C2342 C 0.57654 0.35243 0.93063
 H2343 H 0.56661 0.36817 0.93975
 C2344 C 0.60366 0.31321 0.90600
 C2345 C 0.65284 0.44265 0.92902
 H2346 H 0.64077 0.45358 0.94192
 C2347 C 0.68125 0.41267 0.89461
 C2348 C 0.34457 0.55784 0.94509
 H2349 H 0.35951 0.54770 0.95516
 C2350 C 0.30809 0.58587 0.91771
 C2351 C 0.55802 0.57616 0.85645
 H2352 H 0.55546 0.57295 0.87682
 C2353 C 0.56443 0.58364 0.80360
 C2354 C 0.43481 0.42941 0.85714
 H2355 H 0.44270 0.43656 0.87490
 C2356 C 0.41349 0.41015 0.81181
 C2357 C 0.64267 0.57940 0.93264
 H2358 H 0.62224 0.57639 0.93492
 C2359 C 0.69556 0.58657 0.92701
 C2360 C 0.35581 0.42413 0.94286
 H2361 H 0.37540 0.42984 0.94649
 C2362 C 0.30533 0.40910 0.93288
 C2363 C 0.55372 0.65704 0.93687
 H2364 H 0.55064 0.63699 0.94097
 C2365 C 0.56220 0.70864 0.92590
 C2366 C 0.44549 0.34150 0.93425
 H2367 H 0.45610 0.35563 0.94503
 C2368 C 0.41646 0.30713 0.90531
 N2369 N 1.08159 1.06710 1.24170
 N2370 N 1.09028 1.07674 1.26330
 C2371 C 1.08954 1.10240 1.26184
 C2372 C 1.07961 1.10947 1.23830
 C2373 C 1.07523 1.08642 1.22597
 H2374 H 1.07933 1.12838 1.22993
 H2375 H 1.08168 1.04766 1.23724
 H2376 H 1.09844 1.06591 1.27795
 N2377 N 1.08146 0.56296 0.75027
 N2378 N 1.09084 0.57049 0.77242
 C2379 C 1.09092 0.59616 0.77302
 C2380 C 1.08076 0.60547 0.75032
 C2381 C 1.07539 0.58367 0.73622
 H2382 H 1.08057 0.62505 0.74371
 H2383 H 1.08082 0.54395 0.74427
 H2384 H 1.09841 0.55820 0.78621
 N2385 N 0.57340 1.06148 0.73920
 N2386 N 0.58509 1.06813 0.76211
 C2387 C 0.58751 1.09371 0.76247
 C2388 C 0.57695 1.10399 0.74025
 C2389 C 0.56911 1.08306 0.72584
 H2390 H 0.57831 1.12359 0.73377
 H2391 H 0.57148 1.04278 0.73252
 H2392 H 0.59207 1.05506 0.77546
 N2393 N 0.59394 0.55936 1.24426
 N2394 N 0.60425 0.56771 1.26566
 C2395 C 0.60346 0.59337 1.26571
 C2396 C 0.59180 0.60186 1.24343
 C2397 C 0.58652 0.57954 1.23009
 H2398 H 0.59033 0.62131 1.23659
 H2399 H 0.59336 0.54016 1.23890
 H2400 H 0.61281 0.55600 1.27936
 N2401 N 0.92223 0.85605 1.21457
 N2402 N 0.90869 0.84544 1.23509
 C2403 C 0.89575 0.86450 1.24672
 C2404 C 0.90034 0.88738 1.23389
 C2405 C 0.91727 0.88126 1.21410
 H2406 H 0.89305 0.90612 1.23881
 H2407 H 0.93356 0.84565 1.20176
 H2408 H 0.90870 0.82611 1.23980
 N2409 N 0.94225 0.39619 0.74688
 N2410 N 0.93006 0.38481 0.76775
 C2411 C 0.90471 0.38821 0.76489
 C2412 C 0.90013 0.40198 0.74253
 C2413 C 0.92409 0.40601 0.73144
 H2414 H 0.88171 0.40638 0.73425
 H2415 H 0.96203 0.39606 0.74390
 H2416 H 0.93941 0.37495 0.78235
 N2417 N 0.37992 0.89317 0.71715
 N2418 N 0.37438 0.88594 0.74074
 C2419 C 0.39626 0.88385 0.75403
 C2420 C 0.41682 0.88994 0.73820
 C2421 C 0.40549 0.89607 0.71496
 H2422 H 0.43670 0.89214 0.74349
 H2423 H 0.36623 0.89695 0.70314
 H2424 H 0.35579 0.88364 0.74791
 N2425 N 0.37945 0.37907 1.20489
 N2426 N 0.36691 0.37440 1.22796
 C2427 C 0.38482 0.37305 1.24634
 C2428 C 0.40903 0.37633 1.23557
 C2429 C 0.40468 0.38107 1.20974
 H2430 H 0.42679 0.37918 1.24578
 H2431 H 0.37025 0.38414 1.18791
 H2432 H 0.34704 0.37371 1.23025
 N2433 N 0.88675 1.04582 0.75800
 N2434 N 0.87947 1.05465 0.73552
 C2435 C 0.88479 1.07974 0.73437
 C2436 C 0.89618 1.08729 0.75711
 C2437 C 0.89672 1.06517 0.77182
 H2438 H 0.90182 1.10638 0.76268
 H2439 H 0.88472 1.02678 0.76360
 H2440 H 0.87079 1.04359 0.72136
 N2441 N 0.85866 0.59349 0.29820
 N2442 N 0.84866 0.60239 0.27687
 C2443 C 0.86765 0.61191 0.26215
 C2444 C 0.89079 0.60938 0.27479
 C2445 C 0.88421 0.59716 0.29745
 H2446 H 0.90979 0.61369 0.26759
 H2447 H 0.84814 0.58436 0.31263
 H2448 H 0.82926 0.60117 0.27227
 N2449 N 0.35043 1.09309 0.29581
 N2450 N 0.33911 1.10671 0.27786
 C2451 C 0.35721 1.11760 0.26295
 C2452 C 0.38122 1.11088 0.27200
 C2453 C 0.37599 1.09512 0.29279
 H2454 H 0.39975 1.11596 0.26412
 H2455 H 0.34067 1.08271 0.30990
 H2456 H 0.31929 1.10802 0.27576
 N2457 N 0.44199 0.57640 0.76340
 N2458 N 0.43587 0.58465 0.74035
 C2459 C 0.41021 0.58556 0.73861
 C2460 C 0.39940 0.57715 0.76153
 C2461 C 0.42035 0.57197 0.77693
 H2462 H 0.37947 0.57802 0.76725
 H2463 H 0.46072 0.57548 0.77026
 H2464 H 0.44913 0.59092 0.72665
 N2465 N 1.11089 0.88381 0.78017
 N2466 N 1.11691 0.87846 0.75621
 C2467 C 1.11729 0.90030 0.74266
 C2468 C 1.11140 0.92061 0.75865
 C2469 C 1.10717 0.90918 0.78231
 H2470 H 1.10798 0.94027 0.75331
 H2471 H 1.10824 0.87008 0.79448
 H2472 H 1.11952 0.86001 0.74906
 N2473 N 1.13808 0.42973 0.27851
 N2474 N 1.14583 0.41956 0.25678
 C2475 C 1.12680 0.40521 0.24713
 C2476 C 1.10587 0.40606 0.26369
 C2477 C 1.11378 0.42229 0.28325
 H2478 H 1.08743 0.39691 0.26142
 H2479 H 1.14966 0.44124 0.28997
 H2480 H 1.16410 0.42230 0.24900
 N2481 N 0.60736 0.87759 0.28128
 N2482 N 0.61350 0.87245 0.25731
 C2483 C 0.61584 0.89456 0.24440
 C2484 C 0.61121 0.91484 0.26084
 C2485 C 0.60550 0.90311 0.28406
 H2486 H 0.60971 0.93488 0.25604
 H2487 H 0.60358 0.86370 0.29518
 H2488 H 0.61512 0.85406 0.24976
 N2489 N 0.55775 0.42559 0.75423
 N2490 N 0.56715 0.41752 0.73212
 C2491 C 0.59288 0.41830 0.73311
 C2492 C 0.60028 0.42745 0.75688
 C2493 C 0.57733 0.43148 0.76981
 H2494 H 0.61935 0.42751 0.76486
 H2495 H 0.53831 0.42534 0.75903
 H2496 H 0.55610 0.40979 0.71743
 N2497 N 1.17974 1.14529 1.12528
 N2498 N 1.19862 1.15681 1.13737
 C2499 C 1.21906 1.15813 1.12158
 C2500 C 1.21288 1.14717 1.09820
 C2501 C 1.18778 1.13902 1.10156
 H2502 H 1.22569 1.14276 1.08244
 H2503 H 1.16224 1.14039 1.13376
 H2504 H 1.19794 1.16219 1.15663
 N2505 N 1.24103 0.58024 0.57525
 N2506 N 1.26305 0.58549 0.58631
 C2507 C 1.26166 0.60900 0.59657
 C2508 C 1.23780 0.61939 0.59151
 C2509 C 1.22520 0.60034 0.57812
 H2510 H 1.22968 0.63674 0.59935
 H2511 H 1.23629 0.56243 0.56762
 H2512 H 1.27818 0.57259 0.58800
 N2513 N 0.70667 1.15104 0.58643
 N2514 N 0.72945 1.15827 0.59438
 C2515 C 0.74204 1.13769 0.60317
 C2516 C 0.72646 1.11630 0.60096
 C2517 C 0.70425 1.12560 0.58977
 H2518 H 0.73129 1.09665 0.60515
 H2519 H 0.69322 1.16349 0.57857
 H2520 H 0.73630 1.17699 0.59342
 N2521 N 0.73914 0.60295 1.05154
 N2522 N 0.76174 0.61043 1.05982
 C2523 C 0.76298 0.60604 1.08519
 C2524 C 0.74026 0.59495 1.09348
 C2525 C 0.72545 0.59377 1.07152
 H2526 H 0.73441 0.59084 1.11299
 H2527 H 0.73303 0.60493 1.03262
 H2528 H 0.77563 0.61928 1.04837
 N2529 N 1.24929 0.96400 0.89770
 N2530 N 1.27203 0.95481 0.89156
 C2531 C 1.27247 0.92968 0.89702
 C2532 C 1.24901 0.92257 0.90737
 C2533 C 1.23474 0.94493 0.90727
 H2534 H 1.24280 0.90365 0.91301
 H2535 H 1.24395 0.98305 0.89524
 H2536 H 1.28675 0.96561 0.88333
 N2537 N 1.19762 0.38044 0.39259
 N2538 N 1.21845 0.36607 0.38436
 C2539 C 1.23688 0.38249 0.37701
 C2540 C 1.22826 0.40752 0.37994
 C2541 C 1.20393 0.40536 0.39066
 H2542 H 1.23957 0.42478 0.37820
 H2543 H 1.18154 0.37285 0.40187
 H2544 H 1.21956 0.34619 0.38530
 N2545 N 0.74991 0.93782 0.43748
 N2546 N 0.77254 0.92967 0.42976
 C2547 C 0.77131 0.92374 0.40467
 C2548 C 0.74673 0.92866 0.39591
 C2549 C 0.73369 0.93726 0.41754
 H2550 H 0.73878 0.92388 0.37742
 H2551 H 0.74535 0.94249 0.45644
 H2552 H 0.78819 0.92707 0.44186
 N2553 N 0.68167 0.37069 0.87294
 N2554 N 0.69745 0.35711 0.85862
 C2555 C 0.71763 0.37181 0.85209
 C2556 C 0.71435 0.39607 0.86237
 C2557 C 0.69139 0.39435 0.87575
 H2558 H 0.72792 0.41170 0.86243
 H2559 H 0.66512 0.36343 0.88165
 H2560 H 0.69491 0.33777 0.85449
 N2561 N 0.79926 0.84698 1.10347
 N2562 N 0.77653 0.83957 1.11176
 C2563 C 0.76291 0.86037 1.11835
 C2564 C 0.77771 0.88204 1.11446
 C2565 C 0.80054 0.87266 1.10462
 H2566 H 0.77199 0.90178 1.11653
 H2567 H 0.81335 0.83455 1.09665
 H2568 H 0.77037 0.82060 1.11221
 N2569 N 0.78585 0.35833 0.58753
 N2570 N 0.76193 0.35324 0.59383
 C2571 C 0.75097 0.37462 0.60296
 C2572 C 0.76876 0.39430 0.60275
 C2573 C 0.79062 0.38320 0.59228
 H2574 H 0.76569 0.41410 0.60776
 H2575 H 0.79847 0.34485 0.57989
 H2576 H 0.75329 0.33537 0.59167
 N2577 N 0.26032 0.93708 0.56416
 N2578 N 0.23632 0.93162 0.56988
 C2579 C 0.23454 0.90656 0.57534
 C2580 C 0.25850 0.89541 0.57269
 C2581 C 0.27438 0.91563 0.56597
 H2582 H 0.26415 0.87637 0.57839
 H2583 H 0.26717 0.95552 0.56071
 H2584 H 0.22180 0.94521 0.57175
 N2585 N 0.31228 0.34767 1.11586
 N2586 N 0.29144 0.33719 1.12569
 C2587 C 0.27409 0.35569 1.13001
 C2588 C 0.28447 0.37911 1.12304
 C2589 C 0.30866 0.37306 1.11392
 H2590 H 0.27515 0.39754 1.12280
 H2591 H 0.32840 0.33742 1.10992
 H2592 H 0.28902 0.31760 1.12854
 N2593 N 0.74514 1.06632 0.94150
 N2594 N 0.72447 1.07702 0.93188
 C2595 C 0.72738 1.07902 0.90634
 C2596 C 0.75101 1.06896 0.89926
 C2597 C 0.76186 1.06144 0.92233
 H2598 H 0.76028 1.07016 0.88069
 H2599 H 0.74836 1.06398 0.96111
 H2600 H 0.70930 1.08416 0.94285
 N2601 N 0.75482 0.56677 0.44471
 N2602 N 0.73394 0.57801 0.43622
 C2603 C 0.73637 0.58150 0.41079
 C2604 C 0.75966 0.57174 0.40257
 C2605 C 0.77103 0.56301 0.42486
 H2606 H 0.76858 0.57419 0.38394
 H2607 H 0.75866 0.56360 0.46408
 H2608 H 0.71910 0.58463 0.44796
 N2609 N 0.29349 1.08515 0.35556
 N2610 N 0.27465 1.09757 0.34445
 C2611 C 0.26024 1.10876 0.36271
 C2612 C 0.27052 1.10351 0.38661
 C2613 C 0.29144 1.08810 0.38117
 H2614 H 0.26301 1.10883 0.40523
 H2615 H 0.30738 1.07474 0.34560
 H2616 H 0.27164 1.09795 0.32469
 N2617 N 0.30058 0.62847 0.89882
 N2618 N 0.28331 0.64017 0.88476
 C2619 C 0.26488 0.62332 0.87845
 C2620 C 0.27092 0.59956 0.88868
 C2621 C 0.29367 0.60386 0.90164
 H2622 H 0.25981 0.58214 0.88793
 H2623 H 0.31668 0.63736 0.90658
 H2624 H 0.28399 0.65959 0.88026
 N2625 N 1.12021 1.19594 1.11321
 N2626 N 1.13342 1.21180 1.12761
 C2627 C 1.11813 1.23131 1.13469
 C2628 C 1.09382 1.22744 1.12467
 C2629 C 1.09617 1.20487 1.11096
 H2630 H 1.07747 1.24008 1.12557
 H2631 H 1.12777 1.17958 1.10460
 H2632 H 1.15284 1.20957 1.13170
 N2633 N 1.04388 0.74905 0.60186
 N2634 N 1.05170 0.77239 0.60701
 C2635 C 1.07682 0.77431 0.60125
 C2636 C 1.08535 0.75109 0.59167
 C2637 C 1.06382 0.73546 0.59267
 H2638 H 1.10465 0.74595 0.58604
 H2639 H 1.02512 0.74264 0.60467
 H2640 H 1.03995 0.78660 0.61472
 N2641 N 0.58446 1.21458 0.63194
 N2642 N 0.59498 1.23494 0.64229
 C2643 C 0.60128 1.25143 0.62350
 C2644 C 0.59480 1.24097 0.59993
 C2645 C 0.58375 1.21767 0.60630
 H2646 H 0.59625 1.24974 0.58119
 H2647 H 0.57754 1.19904 0.64246
 H2648 H 0.59731 1.23753 0.66199
 N2649 N 0.54627 0.74689 1.09514
 N2650 N 0.55449 0.76994 1.10129
 C2651 C 0.58012 0.77064 1.09839
 C2652 C 0.58859 0.74709 1.08961
 C2653 C 0.56649 0.73251 1.08807
 H2654 H 0.60813 0.74090 1.08653
 H2655 H 0.52715 0.74112 1.09628
 H2656 H 0.54270 0.78453 1.10814
 N2657 N 0.84012 1.19344 0.89765
 N2658 N 0.82968 1.21245 0.88487
 C2659 C 0.84844 1.22760 0.87560
 C2660 C 0.87202 1.21759 0.88260
 C2661 C 0.86580 1.19590 0.89672
 H2662 H 0.89087 1.22521 0.87850
 H2663 H 0.82969 1.17892 0.90665
 H2664 H 0.80997 1.21508 0.88296
 N2665 N 0.89287 0.73828 0.44917
 N2666 N 0.88502 0.76096 0.44110
 C2667 C 0.88645 0.76144 0.41538
 C2668 C 0.89586 0.73826 0.40654
 C2669 C 0.89956 0.72411 0.42868
 H2670 H 0.89864 0.73221 0.38690
 H2671 H 0.89339 0.73286 0.46838
 H2672 H 0.87835 0.77535 0.45318
 N2673 N 0.43309 1.24031 0.41790
 N2674 N 0.42610 1.26360 0.41120
 C2675 C 0.40065 1.26374 0.40727
 C2676 C 0.39083 1.23953 0.41214
 C2677 C 0.41222 1.22521 0.41851
 H2678 H 0.37154 1.23274 0.40895
 H2679 H 0.45202 1.23475 0.42090
 H2680 H 0.43885 1.27871 0.40836
 N2681 N 0.35267 0.71269 0.91731
 N2682 N 0.34494 0.73455 0.90757
 C2683 C 0.36532 0.74695 0.89768
 C2684 C 0.38709 0.73214 0.90101
 C2685 C 0.37821 0.71063 0.91390
 H2686 H 0.40667 0.73695 0.89611
 H2687 H 0.34049 0.69952 0.92622
 H2688 H 0.32598 0.74089 0.90800
 N2689 N 1.15511 0.80630 0.88899
 N2690 N 1.16408 0.78753 0.87470
 C2691 C 1.14440 0.77254 0.86754
 C2692 C 1.12180 0.78240 0.87747
 C2693 C 1.12952 0.80372 0.89117
 H2694 H 1.10269 0.77456 0.87594
 H2695 H 1.16648 0.82061 0.89700
 H2696 H 1.18346 0.78490 0.87045
 N2697 N 1.14702 0.28852 0.41829
 N2698 N 1.15278 0.26572 0.40944
 C2699 C 1.13241 0.25628 0.39693
 C2700 C 1.11268 0.27398 0.39769
 C2701 C 1.12265 0.29414 0.41190
 H2702 H 1.09355 0.27191 0.39011
 H2703 H 1.15988 0.29993 0.42839
 H2704 H 1.17053 0.25690 0.41189
 N2705 N 0.57336 0.75838 0.42379
 N2706 N 0.58137 0.73652 0.41417
 C2707 C 0.60679 0.73800 0.41027
 C2708 C 0.61552 0.76183 0.41793
 C2709 C 0.59350 0.77434 0.42605
 H2710 H 0.63435 0.76996 0.41484
 H2711 H 0.55413 0.76279 0.42716
 H2712 H 0.56937 0.72139 0.40913
 N2713 N 0.64544 0.29366 0.89404
 N2714 N 0.65392 0.27204 0.88426
 C2715 C 0.63383 0.25823 0.87616
 C2716 C 0.61138 0.27170 0.88082
 C2717 C 0.61966 0.29397 0.89271
 H2718 H 0.59190 0.26510 0.87846
 H2719 H 0.65722 0.30750 0.90225
 H2720 H 0.67313 0.26648 0.88410
 N2721 N 0.89604 0.79239 1.12214
 N2722 N 0.88410 0.77139 1.12937
 C2723 C 0.90031 0.75161 1.12680
 C2724 C 0.92368 0.76031 1.11762
 C2725 C 0.92002 0.78636 1.11474
 H2726 H 0.93969 0.74900 1.11089
 H2727 H 0.88725 0.81021 1.12039
 H2728 H 0.86474 0.77048 1.13444
 N2729 N 0.95580 0.26078 0.61039
 N2730 N 0.94510 0.23981 0.61954
 C2731 C 0.92068 0.23879 0.61161
 C2732 C 0.91553 0.25995 0.59649
 C2733 C 0.93830 0.27372 0.59659
 H2734 H 0.89736 0.26545 0.58832
 H2735 H 0.97470 0.26610 0.61401
 H2736 H 0.95441 0.22670 0.63134
 N2737 N 0.37871 0.79800 0.62283
 N2738 N 0.36726 0.77862 0.63426
 C2739 C 0.38422 0.75946 0.63685
 C2740 C 0.40779 0.76719 0.62701
 C2741 C 0.40325 0.79171 0.61800
 H2742 H 0.42487 0.75579 0.62440
 H2743 H 0.36949 0.81482 0.61738
 H2744 H 0.34783 0.77825 0.63908
 N2745 N 0.45163 0.24811 1.10093
 N2746 N 0.43951 0.22745 1.10900
 C2747 C 0.41440 0.22987 1.10382
 C2748 C 0.41039 0.25302 1.09155
 C2749 C 0.43452 0.26419 1.09039
 H2750 H 0.39229 0.26138 1.08607
 H2751 H 0.47126 0.25120 1.10314
 H2752 H 0.44832 0.21236 1.11860
 N2753 N 1.07228 1.05989 0.75097
 N2754 N 1.08208 1.06704 0.72718
 C2755 C 1.08226 1.09272 0.72614
 C2756 C 1.07211 1.10252 0.74897
 C2757 C 1.06676 1.08126 0.76424
 H2758 H 1.07163 1.12233 0.75485
 H2759 H 1.07179 1.04116 0.75784
 H2760 H 1.08902 1.05427 0.71345
 N2761 N 1.07648 0.56534 0.25809
 N2762 N 1.08328 0.57083 0.23288
 C2763 C 1.08536 0.59639 0.23055
 C2764 C 1.07931 0.60779 0.25408
 C2765 C 1.07433 0.58754 0.27087
 H2766 H 1.08047 0.62785 0.25888
 H2767 H 1.07499 0.54697 0.26573
 H2768 H 1.08704 0.55696 0.21901
 N2769 N 0.57247 1.05256 0.24877
 N2770 N 0.57936 1.05985 0.22403
 C2771 C 0.58035 1.08558 0.22341
 C2772 C 0.57333 1.09524 0.24732
 C2773 C 0.56911 1.07391 0.26270
 H2774 H 0.57378 1.11496 0.25347
 H2775 H 0.57179 1.03374 0.25537
 H2776 H 0.58435 1.04712 0.20946
 N2777 N 0.56973 0.56391 0.76088
 N2778 N 0.57973 0.57044 0.73855
 C2779 C 0.58372 0.59580 0.73840
 C2780 C 0.57559 0.60602 0.76161
 C2781 C 0.56721 0.58497 0.77551
 H2782 H 0.57877 0.62520 0.76863
 H2783 H 0.56654 0.54507 0.76666
 H2784 H 0.58520 0.55746 0.72434
 N2785 N 0.94644 0.90074 0.75999
 N2786 N 0.93664 0.89187 0.73854
 C2787 C 0.91099 0.89354 0.74002
 C2788 C 0.90401 0.90416 0.76336
 C2789 C 0.92716 0.90797 0.77573
 H2790 H 0.88489 0.90636 0.77115
 H2791 H 0.96602 0.90107 0.76388
 H2792 H 0.94740 0.88413 0.72350
 N2793 N 0.93666 0.37413 0.27084
 N2794 N 0.92217 0.36203 0.25228
 C2795 C 0.89977 0.37441 0.25041
 C2796 C 0.89934 0.39474 0.26778
 C2797 C 0.92266 0.39344 0.28094
 H2798 H 0.88346 0.40745 0.27156
 H2799 H 0.95502 0.36805 0.27550
 H2800 H 0.92841 0.34633 0.24163
 N2801 N 0.45489 0.90258 0.25665
 N2802 N 0.44673 0.89563 0.23230
 C2803 C 0.42098 0.89712 0.23210
 C2804 C 0.41219 0.90546 0.25593
 C2805 C 0.43400 0.90818 0.27085
 H2806 H 0.39250 0.90751 0.26218
 H2807 H 0.47395 0.90262 0.26255
 H2808 H 0.45885 0.88953 0.21755
 N2809 N 0.37567 0.40024 0.78467
 N2810 N 0.37102 0.39293 0.76098
 C2811 C 0.39339 0.38752 0.74932
 C2812 C 0.41332 0.39146 0.76631
 C2813 C 0.40118 0.39988 0.78853
 H2814 H 0.43366 0.39044 0.76240
 H2815 H 0.36150 0.40591 0.79767
 H2816 H 0.35286 0.39249 0.75272
 N2817 N 1.15443 0.91574 1.20819
 N2818 N 1.16381 0.90269 1.22757
 C2819 C 1.14475 0.88930 1.23878
 C2820 C 1.12215 0.89392 1.22575
 C2821 C 1.12910 0.91106 1.20652
 H2822 H 1.10328 0.88653 1.23014
 H2823 H 1.16544 0.92742 1.19621
 H2824 H 1.18301 0.90321 1.23307
 N2825 N 1.14922 0.41103 0.70837
 N2826 N 1.15910 0.39922 0.72832
 C2827 C 1.13989 0.38994 0.74291
 C2828 C 1.11663 0.39582 0.73156
 C2829 C 1.12347 0.40949 0.70977
 H2830 H 1.09755 0.39190 0.73876
 H2831 H 1.16007 0.42012 0.69415
 H2832 H 1.17870 0.39806 0.73197
 N2833 N 0.64125 0.91994 0.71159
 N2834 N 0.65013 0.91081 0.73330
 C2835 C 0.63081 0.89952 0.74618
 C2836 C 0.60852 0.90129 0.73189
 C2837 C 0.61597 0.91483 0.71017
 H2838 H 0.58947 0.89497 0.73719
 H2839 H 0.65250 0.92959 0.69809
 H2840 H 0.66915 0.91250 0.73914
 N2841 N 0.60133 0.44834 1.24269
 N2842 N 0.60861 0.43989 1.26682
 C2843 C 0.60406 0.41462 1.26799
 C2844 C 0.59341 0.40645 1.24496
 C2845 C 0.59274 0.42804 1.22936
 H2846 H 0.58905 0.38703 1.23944
 H2847 H 0.60335 0.46713 1.23631
 H2848 H 0.61696 0.45144 1.28076
 N2849 N 0.90679 1.04941 1.24698
 N2850 N 0.89717 1.05859 1.26850
 C2851 C 0.89645 1.08419 1.26675
 C2852 C 0.90636 1.09175 1.24322
 C2853 C 0.91230 1.06901 1.23106
 H2854 H 0.90692 1.11082 1.23523
 H2855 H 0.90876 1.02995 1.24309
 H2856 H 0.89054 1.04738 1.28373
 N2857 N 0.86807 0.57752 0.72874
 N2858 N 0.86303 0.58378 0.75266
 C2859 C 0.88406 0.59437 0.76292
 C2860 C 0.90347 0.59518 0.74463
 C2861 C 0.89259 0.58374 0.72325
 H2862 H 0.92300 0.60160 0.74705
 H2863 H 0.85479 0.56894 0.71658
 H2864 H 0.84540 0.58074 0.76173
 N2865 N 0.43412 1.07921 0.74326
 N2866 N 0.42578 1.08850 0.76525
 C2867 C 0.40005 1.08955 0.76472
 C2868 C 0.39153 1.08010 0.74140
 C2869 C 0.41389 1.07412 0.72818
 H2870 H 0.37226 1.08074 0.73390
 H2871 H 0.45344 1.07794 0.73810
 H2872 H 0.43766 1.09540 0.77973
 N2873 N 0.44375 0.57121 1.25348
 N2874 N 0.43655 0.57808 1.27674
 C2875 C 0.41119 0.58286 1.27669
 C2876 C 0.40172 0.57834 1.25223
 C2877 C 0.42317 0.57116 1.23811
 H2878 H 0.38255 0.58172 1.24526
 H2879 H 0.46267 0.56746 1.24806
 H2880 H 0.44912 0.58039 1.29204
 N2881 N 1.03923 1.24720 0.88714
 N2882 N 1.05126 1.26974 0.87953
 C2883 C 1.07535 1.26932 0.88863
 C2884 C 1.07911 1.24694 0.90243
 C2885 C 1.05619 1.23344 0.90074
 H2886 H 1.09671 1.24060 0.91121
 H2887 H 1.02041 1.24230 0.88261
 H2888 H 1.04277 1.28376 0.86819
 N2889 N 1.06817 0.75818 0.43983
 N2890 N 1.07738 0.78142 0.43076
 C2891 C 1.08130 0.77914 0.40531
 C2892 C 1.07403 0.75470 0.39747
 C2893 C 1.06661 0.74202 0.41985
 H2894 H 1.07666 0.74636 0.37867
 H2895 H 1.06519 0.75382 0.45915
 H2896 H 1.08167 0.79703 0.44241
 N2897 N 0.62797 1.19687 0.37988
 N2898 N 0.64200 1.21709 0.36961
 C2899 C 0.62522 1.23493 0.36184
 C2900 C 0.60028 1.22630 0.36624
 C2901 C 0.60291 1.20273 0.37819
 H2902 H 0.58275 1.23710 0.36420
 H2903 H 0.63594 1.18142 0.38966
 H2904 H 0.66195 1.21837 0.36978
 N2905 N 0.57175 0.75329 0.93877
 N2906 N 0.58098 0.77406 0.92773
 C2907 C 0.58212 0.77027 0.90224
 C2908 C 0.57314 0.74601 0.89675
 C2909 C 0.56696 0.73581 0.92051
 H2910 H 0.57442 0.73598 0.87865
 H2911 H 0.57041 0.75062 0.95858
 H2912 H 0.58830 0.78972 0.93769
 N2913 N 0.86752 1.18669 1.13778
 N2914 N 0.85647 1.20606 1.14953
 C2915 C 0.85250 1.22484 1.13239
 C2916 C 0.86104 1.21689 1.10840
 C2917 C 0.87081 1.19264 1.11286
 H2918 H 0.86266 1.22815 1.09106
 H2919 H 0.87396 1.17023 1.14703
 H2920 H 0.85293 1.20680 1.16925
 N2921 N 0.92876 0.73922 0.58233
 N2922 N 0.92022 0.76167 0.58988
 C2923 C 0.89466 0.76030 0.59301
 C2924 C 0.88642 0.73586 0.58693
 C2925 C 0.90882 0.72299 0.58064
 H2926 H 0.86761 0.72772 0.59015
 H2927 H 0.94812 0.73473 0.58002
 H2928 H 0.93198 0.77712 0.59452
 N2929 N 0.34897 1.21067 0.59016
 N2930 N 0.34055 1.23370 0.60036
 C2931 C 0.36075 1.24518 0.61140
 C2932 C 0.38232 1.22973 0.60885
 C2933 C 0.37424 1.20857 0.59489
 H2934 H 0.40167 1.23412 0.61473
 H2935 H 0.33728 1.19783 0.58037
 H2936 H 0.32184 1.24052 0.59892
 N2937 N 0.43932 0.73839 1.08669
 N2938 N 0.43291 0.76380 1.09086
 C2939 C 0.40718 0.76540 1.09218
 C2940 C 0.39658 0.74122 1.08820
 C2941 C 0.41746 0.72481 1.08550
 H2942 H 0.37658 0.73591 1.08944
 H2943 H 0.45802 0.73138 1.08579
 H2944 H 0.44627 0.77839 1.09346
 N2945 N 0.88076 0.79651 0.89058
 N2946 N 0.86834 0.77680 0.88104
 C2947 C 0.88531 0.75814 0.87602
 C2948 C 0.90974 0.76645 0.88222
 C2949 C 0.90588 0.79080 0.89174
 H2950 H 0.92718 0.75532 0.88274
 H2951 H 0.87191 0.81296 0.89767
 H2952 H 0.84844 0.77577 0.87934
 N2953 N 0.92345 0.29036 0.36189
 N2954 N 0.91173 0.27078 0.35134
 C2955 C 0.90045 0.25694 0.36995
 C2956 C 0.90496 0.26829 0.39354
 C2957 C 0.92009 0.28930 0.38754
 H2958 H 0.89931 0.26146 0.41232
 H2959 H 0.93354 0.30415 0.35146
 H2960 H 0.91167 0.26701 0.33168
 N2961 N 0.46049 0.74789 0.41260
 N2962 N 0.45200 0.72341 0.40672
 C2963 C 0.42670 0.72238 0.41187
 C2964 C 0.41862 0.74582 0.42159
 C2965 C 0.44026 0.76139 0.42123
 H2966 H 0.39926 0.75142 0.42646
 H2967 H 0.47927 0.75429 0.41003
 H2968 H 0.46352 0.70913 0.39885
 N2969 N 0.37452 0.30225 0.88420
 N2970 N 0.36208 0.28510 0.87055
 C2971 C 0.37770 0.26511 0.86614
 C2972 C 0.40141 0.26992 0.87714
 C2973 C 0.39836 0.29365 0.88857
 H2974 H 0.41783 0.25739 0.87811
 H2975 H 0.36654 0.31929 0.89082
 H2976 H 0.34298 0.28696 0.86512
 N2977 N 1.15352 0.78957 1.08607
 N2978 N 1.16028 0.76558 1.09501
 C2979 C 1.13970 0.75532 1.10683
 C2980 C 1.11940 0.77257 1.10595
 C2981 C 1.12872 0.79354 1.09213
 H2982 H 1.09998 0.76949 1.11266
 H2983 H 1.16597 0.80166 1.07608
 H2984 H 1.17842 0.75754 1.09264
 N2985 N 1.06804 0.27039 0.57903
 N2986 N 1.07353 0.24680 0.58986
 C2987 C 1.09899 0.24564 0.59335
 C2988 C 1.11040 0.26812 0.58454
 C2989 C 1.09016 0.28351 0.57671
 H2990 H 1.13008 0.27397 0.58728
 H2991 H 1.04955 0.27754 0.57660
 H2992 H 1.05978 0.23335 0.59538
 N2993 N 0.64580 0.78888 0.59495
 N2994 N 0.65245 0.76607 0.60328
 C2995 C 0.63169 0.75446 0.61319
 C2996 C 0.61071 0.77061 0.61125
 C2997 C 0.62047 0.79218 0.59901
 H2998 H 0.59096 0.76637 0.61598
 H2999 H 0.65855 0.80162 0.58625
 H3000 H 0.67086 0.75845 0.60164
 N3001 N 0.65268 0.28820 1.09565
 N3002 N 0.66107 0.26688 1.10603
 C3003 C 0.64108 0.25408 1.11622
 C3004 C 0.61885 0.26811 1.11238
 C3005 C 0.62708 0.28954 1.09887
 H3006 H 0.59941 0.26278 1.11732
 H3007 H 0.66446 0.30149 1.08638
 H3008 H 0.68021 0.26111 1.10573
 N3009 N 1.19145 1.15840 0.88594
 N3010 N 1.21044 1.16716 0.87162
 C3011 C 1.22430 1.14727 0.86290
 C3012 C 1.21349 1.12476 0.87191
 C3013 C 1.19274 1.13272 0.88663
 H3014 H 1.22027 1.10547 0.86893
 H3015 H 1.17778 1.16998 0.89486
 H3016 H 1.21391 1.18652 0.86830
 N3017 N 1.20266 0.63189 0.36880
 N3018 N 1.22499 0.63920 0.35937
 C3019 C 1.24171 0.64144 0.37875
 C3020 C 1.22935 0.63566 0.40171
 C3021 C 1.20463 0.62933 0.39441
 H3022 H 1.23789 0.63329 0.42041
 H3023 H 1.18680 0.62721 0.35763
 H3024 H 1.22894 0.64132 0.33983
 N3025 N 0.70130 1.14823 0.39629
 N3026 N 0.72421 1.15609 0.38907
 C3027 C 0.73897 1.13555 0.38440
 C3028 C 0.72473 1.11351 0.38843
 C3029 C 0.70100 1.12250 0.39643
 H3030 H 0.73133 1.09394 0.38789
 H3031 H 0.68641 1.16042 0.40172
 H3032 H 0.72972 1.17524 0.38807
 N3033 N 0.73840 0.56631 0.92725
 N3034 N 0.76226 0.57246 0.92162
 C3035 C 0.76342 0.59764 0.91648
 C3036 C 0.73913 0.60815 0.91947
 C3037 C 0.72378 0.58742 0.92600
 H3038 H 0.73309 0.62743 0.91515
 H3039 H 0.73212 0.54772 0.93096
 H3040 H 0.77723 0.55931 0.92033
 N3041 N 1.25042 0.95241 1.10133
 N3042 N 1.26969 0.94031 1.11209
 C3043 C 1.26715 0.91510 1.10780
 C3044 C 1.24533 0.91088 1.09334
 C3045 C 1.23501 0.93517 1.09003
 H3046 H 1.23711 0.89272 1.08787
 H3047 H 1.24780 0.97214 1.10224
 H3048 H 1.28406 0.94929 1.12261
 N3049 N 1.25403 0.46254 0.59695
 N3050 N 1.27607 0.45292 0.60449
 C3051 C 1.27497 0.42730 0.60256
 C3052 C 1.25124 0.42030 0.59300
 C3053 C 1.23844 0.44328 0.58993
 H3054 H 1.24379 0.40122 0.59019
 H3055 H 1.24969 0.48201 0.59703
 H3056 H 1.29124 0.46380 0.61154
 N3057 N 0.74466 0.95274 0.60165
 N3058 N 0.76391 0.94097 0.61281
 C3059 C 0.76173 0.91574 0.60853
 C3060 C 0.74031 0.91114 0.59372
 C3061 C 0.72971 0.93519 0.59018
 H3062 H 0.73229 0.89282 0.58850
 H3063 H 0.74159 0.97242 0.60263
 H3064 H 0.77785 0.95011 0.62377
 N3065 N 0.74944 0.44739 1.09152
 N3066 N 0.76905 0.43682 1.10325
 C3067 C 0.76683 0.41131 1.10151
 C3068 C 0.74502 0.40527 1.08775
 C3069 C 0.73420 0.42879 1.08225
 H3070 H 0.73656 0.38658 1.08513
 H3071 H 0.74590 0.46701 1.09121
 H3072 H 0.78295 0.44695 1.11337
 N3073 N 0.75494 1.03861 1.10183
 N3074 N 0.73222 1.04786 1.10797
 C3075 C 0.73273 1.07341 1.10498
 C3076 C 0.75676 1.08074 1.09628
 C3077 C 0.77028 1.05805 1.09455
 H3078 H 0.76365 1.09987 1.09245
 H3079 H 0.75972 1.01926 1.10258
 H3080 H 0.71688 1.03681 1.11459
 N3081 N 0.75056 0.56774 0.56149
 N3082 N 0.72837 0.57708 0.56917
 C3083 C 0.72886 0.58006 0.59477
 C3084 C 0.75242 0.57187 0.60394
 C3085 C 0.76580 0.56458 0.58200
 H3086 H 0.75983 0.57396 0.62316
 H3087 H 0.75566 0.56503 0.54230
 H3088 H 0.71368 0.58255 0.55684
 N3089 N 0.27474 1.08104 0.62546
 N3090 N 0.25252 1.09094 0.63221
 C3091 C 0.24226 1.10259 0.61178
 C3092 C 0.25866 1.10004 0.59087
 C3093 C 0.27903 1.08576 0.60033
 H3094 H 0.25549 1.10635 0.57139
 H3095 H 0.28656 1.07125 0.63816
 H3096 H 0.24447 1.08954 0.65053
 N3097 N 0.26114 0.54797 1.12183
 N3098 N 0.23724 0.55539 1.12536
 C3099 C 0.23292 0.57596 1.11068
 C3100 C 0.25499 0.58195 1.09700
 C3101 C 0.27267 0.56365 1.10455
 H3102 H 0.25767 0.59765 1.08374
 H3103 H 0.26896 0.53253 1.13162
 H3104 H 0.22452 0.54702 1.13843
 N3105 N 0.79600 0.84389 0.91306
 N3106 N 0.77480 0.83531 0.90250
 C3107 C 0.76212 0.85510 0.89215
 C3108 C 0.77595 0.87736 0.89614
 C3109 C 0.79728 0.86942 0.90980
 H3110 H 0.77072 0.89663 0.89083
 H3111 H 0.80931 0.83219 0.92219
 H3112 H 0.76917 0.81617 0.90259
 N3113 N 0.76611 0.42139 0.42539
 N3114 N 0.74332 0.41486 0.41681
 C3115 C 0.74468 0.39130 0.40656
 C3116 C 0.76961 0.38222 0.40909
 C3117 C 0.78259 0.40212 0.42105
 H3118 H 0.77761 0.36477 0.40139
 H3119 H 0.77052 0.43925 0.43311
 H3120 H 0.72736 0.42685 0.41723
 N3121 N 0.26573 0.89473 0.44566
 N3122 N 0.24247 0.88917 0.43754
 C3123 C 0.24248 0.88991 0.41174
 C3124 C 0.26672 0.89661 0.40301
 C3125 C 0.28091 0.89935 0.42519
 H3126 H 0.27338 0.89817 0.38337
 H3127 H 0.27104 0.89515 0.46493
 H3128 H 0.22716 0.88425 0.44955
 N3129 N 0.25949 0.41961 0.92603
 N3130 N 0.23892 0.40831 0.91684
 C3131 C 0.24414 0.38347 0.91283
 C3132 C 0.26930 0.37869 0.91982
 C3133 C 0.27838 0.40224 0.92797
 H3134 H 0.28026 0.36147 0.91651
 H3135 H 0.26092 0.43918 0.92958
 H3136 H 0.22214 0.41785 0.91177
   
