data_POSCAR
  _audit_creation_date              2014-09-24
  _audit_creation_method            'ToBaCCo'
  _symmetry_space_group_name_H-M    'P1'
  _symmetry_Int_Tables_number       1
  _symmetry_cell_setting            triclinic
  loop_
  _symmetry_equiv_pos_as_xyz
 x,y,z
_cell_length_a 55.8208
_cell_length_b 56.0423
_cell_length_c 56.3915
_cell_angle_alpha 90.277500
_cell_angle_beta 90.041300
_cell_angle_gamma 90.388000
loop_
  _atom_site_label
  _atom_site_type_symbol
  _atom_site_fract_x
  _atom_site_fract_y
  _atom_site_fract_z
N1 N 0.16884 0.22814 0.23166
 N2 N 0.17317 0.20723 0.24117
 C3 C 0.15843 0.20391 0.25977
 C4 C 0.14440 0.22398 0.26220
 C5 C 0.15126 0.23890 0.24394
 H6 H 0.15827 0.18834 0.27102
 H7 H 0.14407 0.25631 0.24001
 Cu8 Cu 0.19838 0.18679 0.22921
 Cu9 Cu 0.18673 0.24003 0.20449
 Cu10 Cu 0.23715 0.20815 0.18870
 N11 N 0.22899 0.17166 0.22342
 N12 N 0.24410 0.18004 0.20759
 C13 C 0.26382 0.16637 0.20738
 C14 C 0.26107 0.14873 0.22427
 C15 C 0.23860 0.15242 0.23387
 H16 H 0.27899 0.16894 0.19573
 H17 H 0.23003 0.14200 0.24759
 N18 N 0.22684 0.23704 0.17183
 N19 N 0.20736 0.24897 0.17760
 C20 C 0.20498 0.26757 0.16277
 C21 C 0.22409 0.26753 0.14724
 C22 C 0.23747 0.24784 0.15329
 H23 H 0.19061 0.28041 0.16333
 H24 H 0.25366 0.24182 0.14468
 H25 H 0.20017 0.20807 0.19164
 H26 H 0.21753 0.22329 0.21587
 N27 N 0.66634 0.72672 0.72565
 N28 N 0.67057 0.70606 0.73570
 C29 C 0.65588 0.70333 0.75442
 C30 C 0.64197 0.72354 0.75637
 C31 C 0.64886 0.73792 0.73770
 H32 H 0.65571 0.68809 0.76612
 H33 H 0.64183 0.75531 0.73339
 Cu34 Cu 0.69575 0.68521 0.72437
 Cu35 Cu 0.68430 0.73780 0.69819
 Cu36 Cu 0.73497 0.70567 0.68383
 N37 N 0.72642 0.66996 0.71927
 N38 N 0.74179 0.67811 0.70356
 C39 C 0.76155 0.66449 0.70394
 C40 C 0.75851 0.64711 0.72104
 C41 C 0.73588 0.65090 0.73019
 H42 H 0.77692 0.66689 0.69252
 H43 H 0.72707 0.64069 0.74392
 N44 N 0.72474 0.73401 0.66602
 N45 N 0.70509 0.74595 0.67117
 C46 C 0.70276 0.76407 0.65576
 C47 C 0.72206 0.76370 0.64049
 C48 C 0.73555 0.74435 0.64732
 H49 H 0.68835 0.77687 0.65582
 H50 H 0.75198 0.73832 0.63918
 H51 H 0.69795 0.70554 0.68632
 H52 H 0.71496 0.72142 0.71040
 N53 N 0.33169 0.77883 0.72961
 N54 N 0.32328 0.79525 0.74405
 C55 C 0.33911 0.79884 0.76179
 C56 C 0.35855 0.78414 0.75804
 C57 C 0.35309 0.77147 0.73763
 H58 H 0.33676 0.81117 0.77641
 H59 H 0.36377 0.75766 0.72945
 Cu60 Cu 0.29237 0.81002 0.73827
 Cu61 Cu 0.31432 0.76811 0.70155
 Cu62 Cu 0.25948 0.79457 0.69057
 N63 N 0.26182 0.82512 0.73158
 N64 N 0.24882 0.81859 0.71321
 C65 C 0.22865 0.83158 0.71275
 C66 C 0.22876 0.84708 0.73203
 C67 C 0.25043 0.84269 0.74329
 H68 H 0.21562 0.83078 0.69857
 H69 H 0.25722 0.85142 0.75908
 N70 N 0.27334 0.76994 0.66976
 N71 N 0.29412 0.75972 0.67406
 C72 C 0.29858 0.74362 0.65684
 C73 C 0.27991 0.74402 0.64079
 C74 C 0.26409 0.76068 0.64963
 H75 H 0.31427 0.73246 0.65588
 H76 H 0.24701 0.76544 0.64201
 H77 H 0.29574 0.79949 0.69643
 H78 H 0.28044 0.77575 0.71406
 N79 N 0.83368 0.27595 0.22959
 N80 N 0.82550 0.29255 0.24391
 C81 C 0.84163 0.29662 0.26122
 C82 C 0.86142 0.28224 0.25724
 C83 C 0.85543 0.26909 0.23714
 H84 H 0.83941 0.30959 0.27530
 H85 H 0.86552 0.25467 0.22929
 Cu86 Cu 0.79489 0.30783 0.23840
 Cu87 Cu 0.81495 0.26363 0.20305
 Cu88 Cu 0.76444 0.29549 0.18810
 N89 N 0.76986 0.32865 0.22673
 N90 N 0.75801 0.32378 0.20713
 C91 C 0.74191 0.34109 0.20324
 C92 C 0.74406 0.35788 0.22116
 C93 C 0.76176 0.34928 0.23595
 H94 H 0.72965 0.34158 0.18840
 H95 H 0.76815 0.35736 0.25224
 N96 N 0.77415 0.26630 0.17120
 N97 N 0.79344 0.25410 0.17694
 C98 C 0.79512 0.23499 0.16249
 C99 C 0.77585 0.23508 0.14711
 C100 C 0.76310 0.25532 0.15289
 H101 H 0.80932 0.22197 0.16300
 H102 H 0.74686 0.26140 0.14446
 H103 H 0.80035 0.29689 0.19713
 H104 H 0.78123 0.27479 0.21351
 N105 N 0.82861 0.72767 0.26113
 N106 N 0.82701 0.70535 0.25397
 C107 C 0.84473 0.70084 0.23847
 C108 C 0.85831 0.72141 0.23594
 C109 C 0.84731 0.73822 0.25023
 H110 H 0.84764 0.68387 0.22977
 H111 H 0.85294 0.75653 0.25305
 Cu112 Cu 0.80208 0.68428 0.26586
 Cu113 Cu 0.80703 0.74053 0.28523
 Cu114 Cu 0.78090 0.69662 0.31993
 N115 N 0.77525 0.66653 0.27897
 N116 N 0.76702 0.67114 0.30035
 C117 C 0.74833 0.65650 0.30484
 C118 C 0.74456 0.64226 0.28504
 C119 C 0.76211 0.64891 0.26909
 H120 H 0.73810 0.65644 0.32113
 H121 H 0.76482 0.64170 0.25148
 N122 N 0.78678 0.72939 0.33137
 N123 N 0.79433 0.74659 0.31730
 C124 C 0.79427 0.76734 0.32938
 C125 C 0.78735 0.76291 0.35261
 C126 C 0.78236 0.73861 0.35300
 H127 H 0.79884 0.78438 0.32165
 H128 H 0.77573 0.72839 0.36785
 H129 H 0.81115 0.70839 0.30092
 H130 H 0.78058 0.71424 0.28901
 N131 N 0.32793 0.22722 -0.23398
 N132 N 0.32554 0.20550 -0.24255
 C133 C 0.33927 0.20330 -0.26203
 C134 C 0.35049 0.22505 -0.26638
 C135 C 0.34303 0.23967 -0.24788
 H136 H 0.34060 0.18718 -0.27256
 H137 H 0.34921 0.25759 -0.24397
 Cu138 Cu 0.30470 0.18206 -0.22765
 Cu139 Cu 0.31241 0.23718 -0.20468
 Cu140 Cu 0.26945 0.19885 -0.18208
 N141 N 0.27755 0.16280 -0.21748
 N142 N 0.26386 0.16938 -0.19969
 C143 C 0.24656 0.15287 -0.19652
 C144 C 0.24969 0.13485 -0.21307
 C145 C 0.26933 0.14194 -0.22633
 H146 H 0.23264 0.15387 -0.18324
 H147 H 0.27677 0.13282 -0.24156
 N148 N 0.27794 0.22946 -0.16684
 N149 N 0.29470 0.24387 -0.17520
 C150 C 0.29734 0.26255 -0.16028
 C151 C 0.28147 0.25968 -0.14173
 C152 C 0.26929 0.23871 -0.14651
 H153 H 0.31000 0.27705 -0.16252
 H154 H 0.25564 0.23053 -0.13558
 H155 H 0.30532 0.20396 -0.19019
 H156 H 0.28287 0.21584 -0.21178
 N157 N 0.66910 0.26947 -0.23295
 N158 N 0.67231 0.29092 -0.24172
 C159 C 0.65744 0.29386 -0.26024
 C160 C 0.64457 0.27284 -0.26379
 C161 C 0.65224 0.25794 -0.24573
 H162 H 0.65670 0.30985 -0.27088
 H163 H 0.64533 0.24040 -0.24148
 Cu164 Cu 0.69631 0.31266 -0.22890
 Cu165 Cu 0.68674 0.25831 -0.20541
 Cu166 Cu 0.73478 0.29311 -0.18731
 N167 N 0.72629 0.32918 -0.22229
 N168 N 0.74128 0.32145 -0.20610
 C169 C 0.76081 0.33566 -0.20578
 C170 C 0.75804 0.35299 -0.22291
 C171 C 0.73578 0.34857 -0.23283
 H172 H 0.77600 0.33348 -0.19408
 H173 H 0.72737 0.35843 -0.24698
 N174 N 0.72508 0.26368 -0.17087
 N175 N 0.70682 0.25031 -0.17789
 C176 C 0.70488 0.23136 -0.16343
 C177 C 0.72298 0.23271 -0.14673
 C178 C 0.73523 0.25358 -0.15174
 H179 H 0.69121 0.21764 -0.16474
 H180 H 0.75051 0.26072 -0.14221
 H181 H 0.69791 0.29090 -0.19164
 H182 H 0.71693 0.27729 -0.21546
 N183 N 0.17191 0.77173 0.26760
 N184 N 0.18000 0.78953 0.25472
 C185 C 0.16620 0.79170 0.23528
 C186 C 0.14873 0.77410 0.23589
 C187 C 0.15267 0.76197 0.25680
 H188 H 0.16856 0.80512 0.22175
 H189 H 0.14253 0.74688 0.26339
 Cu190 Cu 0.20772 0.80819 0.26445
 Cu191 Cu 0.18770 0.76171 0.29666
 Cu192 Cu 0.24049 0.79157 0.31125
 N193 N 0.23071 0.82980 0.27923
 N194 N 0.24442 0.82274 0.29674
 C195 C 0.26031 0.84011 0.30202
 C196 C 0.25583 0.85959 0.28759
 C197 C 0.23703 0.85215 0.27312
 H198 H 0.27380 0.83879 0.31572
 H199 H 0.22953 0.86165 0.25823
 N200 N 0.22720 0.76519 0.33015
 N201 N 0.20684 0.75421 0.32499
 C202 C 0.20227 0.73776 0.34177
 C203 C 0.22036 0.73883 0.35846
 C204 C 0.23600 0.75620 0.35043
 H205 H 0.18685 0.72599 0.34203
 H206 H 0.25247 0.76197 0.35887
 H207 H 0.20435 0.79408 0.30488
 H208 H 0.22074 0.77232 0.28584
 N209 N 0.47817 0.42092 0.48029
 N210 N 0.46119 0.42942 0.49403
 C211 C 0.45970 0.41599 0.51373
 C212 C 0.47679 0.39830 0.51229
 C213 C 0.48796 0.40175 0.49072
 H214 H 0.44706 0.41865 0.52801
 H215 H 0.50228 0.39117 0.48330
 Cu216 Cu 0.44277 0.45722 0.48478
 Cu217 Cu 0.48663 0.43555 0.45015
 Cu218 Cu 0.45424 0.48534 0.43348
 N219 N 0.42461 0.48505 0.47513
 N220 N 0.42935 0.49607 0.45512
 C221 C 0.41454 0.51476 0.45282
 C222 C 0.39989 0.51564 0.47254
 C223 C 0.40652 0.49636 0.48619
 H224 H 0.41423 0.52672 0.43783
 H225 H 0.39875 0.49113 0.50296
 N226 N 0.48011 0.47177 0.41398
 N227 N 0.49250 0.45287 0.42035
 C228 C 0.50922 0.44844 0.40371
 C229 C 0.50700 0.46512 0.38592
 C230 C 0.48859 0.47980 0.39312
 H231 H 0.52228 0.43430 0.40450
 H232 H 0.48231 0.49552 0.38404
 H233 H 0.47553 0.46957 0.45891
 H234 H 0.45332 0.44990 0.44344
 N235 N -0.02375 -0.07249 0.98634
 N236 N -0.04574 -0.07286 0.99468
 C237 C -0.04744 -0.08942 1.01176
 C238 C -0.02524 -0.09981 1.01454
 C239 C -0.01063 -0.08878 0.99798
 H240 H -0.06361 -0.09366 1.02147
 H241 H 0.00797 -0.09264 0.99432
 Cu242 Cu -0.07004 -0.05155 0.98266
 Cu243 Cu -0.01413 -0.05075 0.96100
 Cu244 Cu -0.06169 -0.02753 0.92928
 N245 N -0.08998 -0.02559 0.97164
 N246 N -0.08688 -0.01633 0.95048
 C247 C -0.10227 0.00181 0.94761
 C248 C -0.11542 0.00419 0.96824
 C249 C -0.10743 -0.01368 0.98301
 H250 H -0.10329 0.01291 0.93200
 H251 H -0.11328 -0.01718 1.00095
 N252 N -0.02914 -0.02967 0.91642
 N253 N -0.01062 -0.03642 0.92921
 C254 C 0.00948 -0.03326 0.91637
 C255 C 0.00330 -0.02396 0.89444
 C256 C -0.02147 -0.02258 0.89498
 H257 H 0.02730 -0.03759 0.92245
 H258 H -0.03320 -0.01687 0.88087
 H259 H -0.04249 -0.02696 0.95962
 H260 H -0.04657 -0.05734 0.94651
 N261 N 1.02246 0.58014 0.97859
 N262 N 1.04131 0.57351 0.99084
 C263 C 1.04550 0.58966 1.00815
 C264 C 1.02835 0.60726 1.00657
 C265 C 1.01387 0.60056 0.98782
 H266 H 1.06002 0.58891 1.02082
 H267 H 0.99864 0.61022 0.98104
 Cu268 Cu 1.05906 0.54483 0.98271
 Cu269 Cu 1.01146 0.56277 0.95068
 Cu270 Cu 1.04376 0.51292 0.93405
 N271 N 1.07740 0.51724 0.97238
 N272 N 1.07147 0.50500 0.95328
 C273 C 1.08766 0.48768 0.94969
 C274 C 1.10473 0.48927 0.96738
 C275 C 1.09755 0.50800 0.98165
 H276 H 1.08724 0.47498 0.93519
 H277 H 1.10669 0.51468 0.99726
 N278 N 1.01519 0.52374 0.91680
 N279 N 1.00308 0.54295 0.92296
 C280 C 0.98548 0.54648 0.90703
 C281 C 0.98670 0.52871 0.89005
 C282 C 1.00549 0.51444 0.89688
 H283 H 0.97289 0.56105 0.90746
 H284 H 1.01198 0.49886 0.88758
 H285 H 1.02451 0.52981 0.96045
 H286 H 1.04471 0.54901 0.94209
 N287 N 0.52477 0.08294 0.48022
 N288 N 0.54438 0.07745 0.49185
 C289 C 0.54618 0.09145 0.51125
 C290 C 0.52645 0.10623 0.51195
 C291 C 0.51340 0.10057 0.49183
 H292 H 0.56059 0.09080 0.52406
 H293 H 0.49691 0.10875 0.48609
 Cu294 Cu 0.56551 0.05229 0.48085
 Cu295 Cu 0.51525 0.06668 0.45114
 Cu296 Cu 0.54749 0.01643 0.43599
 N297 N 0.58105 0.02204 0.47430
 N298 N 0.57385 0.00806 0.45688
 C299 C 0.58779 -0.01142 0.45617
 C300 C 0.60439 -0.00975 0.47433
 C301 C 0.59981 0.01189 0.48529
 H302 H 0.58629 -0.02558 0.44314
 H303 H 0.60945 0.01963 0.50012
 N304 N 0.52031 0.02803 0.41707
 N305 N 0.50847 0.04762 0.42250
 C306 C 0.49151 0.05129 0.40594
 C307 C 0.49280 0.03315 0.38937
 C308 C 0.51103 0.01857 0.39703
 H309 H 0.47892 0.06587 0.40601
 H310 H 0.51715 0.00242 0.38847
 H311 H 0.53001 0.03497 0.46256
 H312 H 0.54817 0.05299 0.44112
 N313 N -0.02067 0.07865 0.51860
 N314 N -0.04181 0.07409 0.50927
 C315 C -0.04529 0.08854 0.49060
 C316 C -0.02509 0.10264 0.48791
 C317 C -0.00991 0.09609 0.50610
 H318 H -0.06121 0.08870 0.47966
 H319 H 0.00751 0.10366 0.51007
 Cu320 Cu -0.06265 0.04957 0.52221
 Cu321 Cu -0.00898 0.06195 0.54651
 Cu322 Cu -0.04316 0.01410 0.56608
 N323 N -0.07890 0.01989 0.52989
 N324 N -0.07174 0.00646 0.54756
 C325 C -0.08614 -0.01287 0.54897
 C326 C -0.10288 -0.01157 0.53100
 C327 C -0.09788 0.00945 0.51926
 H328 H -0.08416 -0.02716 0.56162
 H329 H -0.10723 0.01645 0.50402
 N330 N -0.01350 0.02476 0.58207
 N331 N -0.00035 0.04285 0.57448
 C332 C 0.01891 0.04537 0.58870
 C333 C 0.01803 0.02779 0.60580
 C334 C -0.00291 0.01529 0.60128
 H335 H 0.03254 0.05904 0.58690
 H336 H -0.00971 0.00022 0.61117
 H337 H -0.02688 0.03070 0.53764
 H338 H -0.04146 0.05049 0.56010
 N339 N 0.47798 0.57909 0.01591
 N340 N 0.45599 0.57614 0.00801
 C341 C 0.45249 0.59054 -0.01068
 C342 C 0.47352 0.60293 -0.01492
 C343 C 0.48925 0.59546 0.00246
 H344 H 0.43595 0.59182 -0.02060
 H345 H 0.50743 0.60167 0.00521
 Cu346 Cu 0.43402 0.55368 0.02265
 Cu347 Cu 0.49022 0.56155 0.04304
 Cu348 Cu 0.45425 0.51581 0.06414
 N349 N 0.41596 0.52545 0.03160
 N350 N 0.42392 0.51062 0.04773
 C351 C 0.40812 0.49253 0.05013
 C352 C 0.38915 0.49641 0.03487
 C353 C 0.39487 0.51731 0.02315
 H354 H 0.41029 0.47757 0.06196
 H355 H 0.38468 0.52565 0.00917
 N356 N 0.48554 0.52410 0.07827
 N357 N 0.49920 0.54163 0.07031
 C358 C 0.51902 0.54323 0.08388
 C359 C 0.51794 0.52564 0.10097
 C360 C 0.49633 0.51407 0.09708
 H361 H 0.53300 0.55651 0.08185
 H362 H 0.48901 0.49954 0.10739
 H363 H 0.46939 0.53201 0.03481
 H364 H 0.45800 0.55220 0.05878
 N365 N 0.52361 -0.08700 0.02467
 N366 N 0.54211 -0.07981 0.01212
 C367 C 0.54649 -0.09599 -0.00504
 C368 C 0.53010 -0.11443 -0.00289
 C369 C 0.51567 -0.10803 0.01598
 H370 H 0.56033 -0.09442 -0.01836
 H371 H 0.50011 -0.11762 0.02240
 Cu372 Cu 0.55821 -0.04967 0.01885
 Cu373 Cu 0.51039 -0.06795 0.05042
 Cu374 Cu 0.53755 -0.01322 0.06163
 N375 N 0.57310 -0.01886 0.02531
 N376 N 0.56494 -0.00469 0.04205
 C377 C 0.57857 0.01519 0.04296
 C378 C 0.59600 0.01354 0.02563
 C379 C 0.59219 -0.00842 0.01497
 H380 H 0.57630 0.02960 0.05558
 H381 H 0.60268 -0.01616 0.00081
 N382 N 0.50967 -0.02501 0.07956
 N383 N 0.49961 -0.04606 0.07563
 C384 C 0.48121 -0.04899 0.09082
 C385 C 0.47942 -0.02868 0.10463
 C386 C 0.49785 -0.01396 0.09723
 H387 H 0.46970 -0.06456 0.09163
 H388 H 0.50229 0.00347 0.10435
 H389 H 0.52126 -0.03541 0.03688
 H390 H 0.54159 -0.04975 0.05886
 N391 N 1.02150 0.42114 0.51799
 N392 N 1.04100 0.42720 0.50635
 C393 C 1.04369 0.41236 0.48770
 C394 C 1.02472 0.39639 0.48753
 C395 C 1.01116 0.40224 0.50717
 H396 H 1.05830 0.41304 0.47513
 H397 H 0.99477 0.39363 0.51287
 Cu398 Cu 1.06077 0.45406 0.51652
 Cu399 Cu 1.01036 0.43889 0.54556
 Cu400 Cu 1.04503 0.48718 0.56384
 N401 N 1.08070 0.48036 0.52779
 N402 N 1.07437 0.49336 0.54619
 C403 C 1.09117 0.51027 0.55011
 C404 C 1.10914 0.50749 0.53350
 C405 C 1.10178 0.48856 0.51942
 H406 H 1.09048 0.52355 0.56406
 H407 H 1.11103 0.48152 0.50409
 N408 N 1.01481 0.47795 0.57946
 N409 N 1.00200 0.45914 0.57292
 C410 C 0.98276 0.45727 0.58722
 C411 C 0.98334 0.47597 0.60320
 C412 C 1.00395 0.48864 0.59797
 H413 H 0.96909 0.44356 0.58596
 H414 H 1.01052 0.50436 0.60712
 H415 H 1.02607 0.47108 0.53651
 H416 H 1.04377 0.45110 0.55620
 C417 C 0.40669 0.01069 0.21940
 H418 H 0.40926 0.02636 0.23042
 C419 C 0.42090 0.00735 0.19934
 H420 H 0.43456 0.02042 0.19495
 C421 C 0.38612 -0.02573 0.21196
 H422 H 0.37288 -0.03881 0.21714
 C423 C 0.39982 -0.02967 0.19161
 H424 H 0.39681 -0.04562 0.18107
 N425 N 0.38938 -0.00550 0.22506
 C426 C 0.33498 0.03411 0.26383
 H427 H 0.33352 0.02338 0.27966
 C428 C 0.32040 0.05404 0.26102
 H429 H 0.30769 0.05875 0.27474
 C430 C 0.35322 0.04105 0.22649
 H431 H 0.36578 0.03579 0.21293
 C432 C 0.33904 0.06116 0.22301
 H433 H 0.34086 0.07139 0.20686
 Zn434 Zn 0.37069 0.00126 0.25229
 N435 N 0.35127 0.02825 0.24686
 C436 C 0.39104 0.02785 0.29051
 N437 N 0.39223 0.00735 0.27755
 C438 C 0.40969 -0.00898 0.28149
 C439 C 0.42707 -0.00485 0.29888
 C440 C 0.40784 0.03251 0.30830
 C441 C 0.33333 -0.03138 0.24362
 C442 C 0.31706 -0.04961 0.24887
 C443 C 0.33467 -0.05256 0.28789
 C444 C 0.35099 -0.03464 0.28170
 N445 N 0.35004 -0.02447 0.25987
 H446 H 0.37723 0.04074 0.28698
 H447 H 0.41029 -0.02505 0.27081
 H448 H 0.44108 -0.01783 0.30164
 H449 H 0.40659 0.04879 0.31865
 H450 H 0.33267 -0.02268 0.22655
 H451 H 0.30419 -0.05530 0.23558
 H452 H 0.33542 -0.06029 0.30543
 H453 H 0.36408 -0.02855 0.29453
 C454 C 0.32268 0.06795 0.24057
 C455 C 0.41712 -0.01276 0.18490
 C456 C 0.31729 -0.06006 0.27143
 C457 C 0.42643 0.01629 0.31226
 C458 C 0.09143 -0.01159 0.71974
 H459 H 0.08973 -0.02804 0.72958
 C460 C 0.07748 -0.00805 0.69955
 H461 H 0.06505 -0.02183 0.69377
 C462 C 0.10953 0.02653 0.71538
 H463 H 0.12164 0.04017 0.72190
 C464 C 0.09587 0.03083 0.69507
 H465 H 0.09771 0.04765 0.68586
 N466 N 0.10735 0.00540 0.72703
 C467 C 0.15278 -0.03989 0.76999
 H468 H 0.15105 -0.03104 0.78698
 C469 C 0.16576 -0.06102 0.76815
 H470 H 0.17397 -0.06852 0.78382
 C471 C 0.14435 -0.04077 0.72876
 H472 H 0.13636 -0.03255 0.71341
 C473 C 0.15738 -0.06180 0.72609
 H474 H 0.15928 -0.06979 0.70867
 Zn475 Zn 0.12513 -0.00168 0.75471
 N476 N 0.14211 -0.03043 0.75053
 C477 C 0.09474 -0.02745 0.78548
 N478 N 0.10262 -0.00522 0.77965
 C479 C 0.09341 0.01452 0.79027
 C480 C 0.07676 0.01227 0.80857
 C481 C 0.07726 -0.03046 0.80296
 C482 C 0.16368 0.02860 0.74382
 C483 C 0.18126 0.04607 0.74763
 C484 C 0.16779 0.04965 0.78818
 C485 C 0.15052 0.03209 0.78362
 N486 N 0.14833 0.02239 0.76153
 H487 H 0.10167 -0.04288 0.77625
 H488 H 0.09923 0.03207 0.78472
 H489 H 0.07063 0.02815 0.81767
 H490 H 0.07098 -0.04826 0.80717
 H491 H 0.16213 0.02007 0.72663
 H492 H 0.19310 0.05121 0.73330
 H493 H 0.16922 0.05743 0.80576
 H494 H 0.13921 0.02599 0.79790
 C495 C 0.16793 -0.07232 0.74603
 C496 C 0.07987 0.01324 0.68684
 C497 C 0.18332 0.05680 0.77004
 C498 C 0.06800 -0.01042 0.81476
 C499 C 0.59331 0.48844 0.21486
 H500 H 0.59253 0.47204 0.22489
 C501 C 0.57889 0.49115 0.19484
 H502 H 0.56701 0.47679 0.18936
 C503 C 0.60963 0.52726 0.20983
 H504 H 0.62131 0.54144 0.21594
 C505 C 0.59555 0.53070 0.18966
 H506 H 0.59659 0.54744 0.18018
 N507 N 0.60859 0.50619 0.22172
 C508 C 0.66397 0.46858 0.26096
 H509 H 0.66321 0.47788 0.27780
 C510 C 0.68040 0.45019 0.25761
 H511 H 0.69219 0.44514 0.27196
 C512 C 0.64955 0.46379 0.22165
 H513 H 0.63778 0.46937 0.20755
 C514 C 0.66577 0.44538 0.21751
 H515 H 0.66623 0.43670 0.20031
 Zn516 Zn 0.62761 0.50044 0.24892
 N517 N 0.64881 0.47483 0.24318
 C518 C 0.60676 0.47128 0.28464
 N519 N 0.60636 0.49300 0.27396
 C520 C 0.58979 0.50966 0.27998
 C521 C 0.57291 0.50487 0.29760
 C522 C 0.59015 0.46573 0.30231
 C523 C 0.66288 0.53480 0.24013
 C524 C 0.67790 0.55427 0.24479
 C525 C 0.66026 0.55755 0.28378
 C526 C 0.64535 0.53816 0.27828
 N527 N 0.64672 0.52741 0.25662
 H528 H 0.61967 0.45807 0.27924
 H529 H 0.58969 0.52666 0.27098
 H530 H 0.55989 0.51830 0.30237
 H531 H 0.59053 0.44836 0.31064
 H532 H 0.66403 0.52553 0.22330
 H533 H 0.69052 0.56012 0.23141
 H534 H 0.65923 0.56582 0.30114
 H535 H 0.63299 0.53151 0.29145
 C536 C 0.68151 0.43855 0.23558
 C537 C 0.58024 0.51235 0.18185
 C538 C 0.67649 0.56601 0.26675
 C539 C 0.57286 0.48256 0.30875
 C540 C 0.90724 0.51165 0.71756
 H541 H 0.91003 0.52611 0.73006
 C542 C 0.92234 0.50930 0.69798
 H543 H 0.93690 0.52190 0.69549
 C544 C 0.88529 0.47716 0.70594
 H545 H 0.87106 0.46448 0.70923
 C546 C 0.89978 0.47433 0.68596
 H547 H 0.89649 0.45957 0.67389
 N548 N 0.88899 0.49584 0.72104
 C549 C 0.83214 0.53176 0.75991
 H550 H 0.83004 0.52009 0.77500
 C551 C 0.81735 0.55161 0.75747
 H552 H 0.80385 0.55532 0.77076
 C553 C 0.85222 0.54121 0.72408
 H554 H 0.86567 0.53701 0.71099
 C555 C 0.83784 0.56122 0.72097
 H556 H 0.84032 0.57239 0.70553
 Zn557 Zn 0.86942 0.50045 0.74808
 N558 N 0.84942 0.52719 0.74353
 C559 C 0.88725 0.52500 0.78872
 N560 N 0.89002 0.50566 0.77432
 C561 C 0.90835 0.49012 0.77756
 C562 C 0.92493 0.49385 0.79578
 C563 C 0.90326 0.52923 0.80731
 C564 C 0.83188 0.46866 0.73734
 C565 C 0.81706 0.44871 0.74021
 C566 C 0.83852 0.43935 0.77619
 C567 C 0.85294 0.45945 0.77263
 N568 N 0.84966 0.47341 0.75324
 H569 H 0.87279 0.53730 0.78575
 H570 H 0.91024 0.47501 0.76572
 H571 H 0.93960 0.48152 0.79803
 H572 H 0.90081 0.54460 0.81876
 H573 H 0.82938 0.48032 0.72232
 H574 H 0.80317 0.44489 0.72729
 H575 H 0.84135 0.42825 0.79160
 H576 H 0.86679 0.46382 0.78535
 C577 C 0.82046 0.56676 0.73801
 C578 C 0.91834 0.49073 0.68167
 C579 C 0.82062 0.43363 0.75962
 C580 C 0.92263 0.51380 0.81068
 C581 C 0.21886 0.41502 0.00775
 H582 H 0.23096 0.41838 0.02241
 C583 C 0.20012 0.43074 0.00331
 H584 H 0.19774 0.44622 0.01462
 C585 C 0.20757 0.39107 -0.02525
 H586 H 0.21071 0.37573 -0.03646
 C587 C 0.18844 0.40621 -0.03017
 H588 H 0.17674 0.40232 -0.04505
 N589 N 0.22231 0.39572 -0.00654
 C590 C 0.25952 0.33920 0.03059
 H591 H 0.27403 0.33601 0.01830
 C592 C 0.25688 0.32481 0.05056
 H593 H 0.26929 0.31036 0.05356
 C594 C 0.22540 0.36172 0.04149
 H595 H 0.21313 0.37605 0.03783
 C596 C 0.22226 0.34791 0.06183
 H597 H 0.20760 0.35174 0.07380
 Zn598 Zn 0.24934 0.37654 -0.00046
 N599 N 0.24403 0.35737 0.02657
 C600 C 0.28861 0.39535 0.02557
 N601 N 0.27566 0.39729 0.00521
 C602 C 0.28017 0.41501 -0.01062
 C603 C 0.29838 0.43168 -0.00625
 C604 C 0.30693 0.41165 0.03063
 C605 C 0.24108 0.33664 -0.02950
 C606 C 0.24557 0.32023 -0.04765
 C607 C 0.27931 0.34443 -0.05985
 C608 C 0.27441 0.36019 -0.04126
 N609 N 0.25552 0.35608 -0.02656
 H610 H 0.28452 0.38142 0.03811
 H611 H 0.26935 0.41638 -0.02647
 H612 H 0.30180 0.44578 -0.01889
 H613 H 0.31698 0.41010 0.04699
 H614 H 0.22625 0.33373 -0.01749
 H615 H 0.23413 0.30465 -0.04961
 H616 H 0.29424 0.34801 -0.07159
 H617 H 0.28579 0.37562 -0.03859
 C618 C 0.23837 0.32947 0.06669
 C619 C 0.18489 0.42656 -0.01606
 C620 C 0.26510 0.32390 -0.06286
 C621 C 0.31171 0.43023 0.01476
 C622 C 0.71217 0.08824 -0.01105
 H623 H 0.72302 0.08704 -0.02689
 C624 C 0.69191 0.07372 -0.00863
 H625 H 0.68709 0.06132 -0.02265
 C626 C 0.70524 0.10577 0.02666
 H627 H 0.71069 0.11797 0.04055
 C628 C 0.68484 0.09160 0.02980
 H629 H 0.67453 0.09309 0.04600
 N630 N 0.71815 0.10420 0.00626
 C631 C 0.75861 0.15898 -0.03134
 H632 H 0.77480 0.15958 -0.02078
 C633 C 0.75649 0.17351 -0.05126
 H634 H 0.77109 0.18532 -0.05613
 C635 C 0.71982 0.14276 -0.03798
 H636 H 0.70545 0.13099 -0.03261
 C637 C 0.71695 0.15698 -0.05802
 H638 H 0.70045 0.15598 -0.06811
 Zn639 Zn 0.74552 0.12356 0.00101
 N640 N 0.74064 0.14362 -0.02542
 C641 C 0.78295 0.10298 -0.02610
 N642 N 0.77154 0.10285 -0.00479
 C643 C 0.77776 0.08722 0.01251
 C644 C 0.79686 0.07161 0.00908
 C645 C 0.80199 0.08754 -0.03034
 C646 C 0.73463 0.15948 0.03382
 C647 C 0.73782 0.17413 0.05368
 C648 C 0.77669 0.15642 0.05969
 C649 C 0.77271 0.14201 0.03979
 N650 N 0.75171 0.14341 0.02762
 H651 H 0.77720 0.11488 -0.03996
 H652 H 0.76798 0.08707 0.02907
 H653 H 0.80191 0.05950 0.02311
 H654 H 0.81091 0.08774 -0.04739
 H655 H 0.71833 0.16061 0.02350
 H656 H 0.72391 0.18653 0.05874
 H657 H 0.79340 0.15509 0.06935
 H658 H 0.78645 0.12978 0.03412
 C659 C 0.73564 0.17218 -0.06505
 C660 C 0.67784 0.07567 0.01183
 C661 C 0.75888 0.17231 0.06707
 C662 C 0.80941 0.07197 -0.01243
 C663 C 0.21925 0.58752 0.49070
 H664 H 0.22861 0.58725 0.47391
 C665 C 0.20084 0.57112 0.49501
 H666 H 0.19585 0.55828 0.48143
 C667 C 0.21444 0.60442 0.52902
 H668 H 0.22008 0.61710 0.54241
 C669 C 0.19596 0.58832 0.53407
 H670 H 0.18727 0.58886 0.55123
 N671 N 0.22555 0.60385 0.50755
 C672 C 0.26157 0.66015 0.46782
 H673 H 0.27846 0.66076 0.47724
 C674 C 0.25733 0.67606 0.44937
 H675 H 0.27109 0.68879 0.44437
 C676 C 0.22290 0.64301 0.46303
 H677 H 0.20937 0.63041 0.46873
 C678 C 0.21785 0.65872 0.44455
 H679 H 0.20053 0.65798 0.43589
 Zn680 Zn 0.25144 0.62465 0.50068
 N681 N 0.24451 0.64399 0.47421
 C682 C 0.29012 0.60600 0.47354
 N683 N 0.27860 0.60550 0.49479
 C684 C 0.28586 0.59079 0.51248
 C685 C 0.30608 0.57657 0.50954
 C686 C 0.31036 0.59196 0.46980
 C687 C 0.23950 0.66086 0.53267
 C688 C 0.24307 0.67759 0.55076
 C689 C 0.28359 0.66334 0.55516
 C690 C 0.27921 0.64677 0.53708
 N691 N 0.25738 0.64573 0.52635
 H692 H 0.28364 0.61721 0.45943
 H693 H 0.27606 0.59039 0.52903
 H694 H 0.31195 0.56524 0.52390
 H695 H 0.31947 0.59253 0.45286
 H696 H 0.22245 0.65992 0.52357
 H697 H 0.22864 0.68938 0.55583
 H698 H 0.30106 0.66412 0.56352
 H699 H 0.29340 0.63508 0.53140
 C700 C 0.23510 0.67567 0.43781
 C701 C 0.18918 0.57132 0.51701
 C702 C 0.26545 0.67912 0.56198
 C703 C 0.31877 0.57742 0.48813
 C704 C 0.71883 0.91291 0.50986
 H705 H 0.72888 0.91205 0.52625
 C706 C 0.69928 0.92823 0.50810
 H707 H 0.69413 0.93907 0.52318
 C708 C 0.71328 0.89997 0.47016
 H709 H 0.71915 0.88961 0.45514
 C710 C 0.69359 0.91498 0.46765
 H711 H 0.68408 0.91560 0.45092
 N712 N 0.72489 0.89848 0.49135
 C713 C 0.76010 0.83846 0.52610
 H714 H 0.77569 0.83678 0.51485
 C715 C 0.75710 0.82318 0.54536
 H716 H 0.77031 0.80956 0.54882
 C717 C 0.72371 0.85803 0.53517
 H718 H 0.71050 0.87131 0.53098
 C719 C 0.72018 0.84332 0.55480
 H720 H 0.70443 0.84565 0.56576
 Zn721 Zn 0.75057 0.87685 0.49623
 N722 N 0.74382 0.85585 0.52170
 C723 C 0.79110 0.89225 0.52339
 N724 N 0.77811 0.89547 0.50324
 C725 C 0.78419 0.91259 0.48728
 C726 C 0.80423 0.92712 0.49114
 C727 C 0.81152 0.90615 0.52775
 C728 C 0.73846 0.84662 0.45725
 C729 C 0.74315 0.83280 0.43709
 C730 C 0.78542 0.83943 0.44345
 C731 C 0.77989 0.85415 0.46268
 N732 N 0.75669 0.85779 0.46900
 H733 H 0.78572 0.87891 0.53611
 H734 H 0.77334 0.91497 0.47158
 H735 H 0.80868 0.94090 0.47845
 H736 H 0.82188 0.90325 0.54371
 H737 H 0.72023 0.84864 0.46337
 H738 H 0.72832 0.82481 0.42746
 H739 H 0.80404 0.83603 0.43935
 H740 H 0.79420 0.86217 0.47296
 C741 C 0.73731 0.82606 0.56038
 C742 C 0.68612 0.92883 0.48697
 C743 C 0.76692 0.82929 0.42973
 C744 C 0.81844 0.92362 0.51134
 C745 C 0.00994 0.21751 0.41275
 H746 H 0.02531 0.22921 0.41481
 C747 C 0.00736 0.19764 0.42737
 H748 H 0.02071 0.19410 0.44083
 C749 C -0.02644 0.20810 0.39299
 H750 H -0.03977 0.21241 0.37985
 C751 C -0.02962 0.18792 0.40712
 H752 H -0.04526 0.17664 0.40458
 N753 N -0.00658 0.22210 0.39566
 C754 C 0.03158 0.26047 0.34024
 H755 H 0.02008 0.27583 0.33849
 C756 C 0.05137 0.25791 0.32539
 H757 H 0.05508 0.27128 0.31205
 C758 C 0.04040 0.22396 0.35934
 H759 H 0.03587 0.21058 0.37233
 C760 C 0.06051 0.22080 0.34497
 H761 H 0.07150 0.20511 0.34713
 Zn762 Zn -0.00064 0.24893 0.37616
 N763 N 0.02663 0.24376 0.35699
 C764 C 0.02554 0.28806 0.39547
 N765 N 0.00457 0.27557 0.39627
 C766 C -0.01317 0.28167 0.41163
 C767 C -0.01060 0.30166 0.42630
 C768 C 0.02890 0.30811 0.40990
 C769 C -0.03313 0.23782 0.33944
 C770 C -0.05108 0.24228 0.32280
 C771 C -0.05464 0.28222 0.33864
 C772 C -0.03693 0.27690 0.35522
 N773 N -0.02658 0.25497 0.35537
 H774 H 0.03967 0.28259 0.38360
 H775 H -0.02950 0.27118 0.41214
 H776 H -0.02501 0.30664 0.43814
 H777 H 0.04558 0.31806 0.40903
 H778 H -0.02422 0.22074 0.33953
 H779 H -0.05633 0.22841 0.31035
 H780 H -0.06247 0.29985 0.33849
 H781 H -0.03102 0.29056 0.36749
 C782 C 0.06633 0.23810 0.32800
 C783 C -0.01232 0.18228 0.42421
 C784 C -0.06168 0.26489 0.32200
 C785 C 0.01048 0.31533 0.42516
 C786 C -0.00810 0.72162 0.08318
 H787 H -0.02338 0.73327 0.08148
 C788 C -0.00465 0.70319 0.06678
 H789 H -0.01734 0.70062 0.05245
 C790 C 0.02735 0.71104 0.10364
 H791 H 0.04001 0.71430 0.11777
 C792 C 0.03131 0.69223 0.08785
 H793 H 0.04676 0.68090 0.09020
 N794 N 0.00782 0.72521 0.10114
 C795 C -0.02867 0.76174 0.15911
 H796 H -0.01732 0.77735 0.16104
 C797 C -0.04753 0.75793 0.17492
 H798 H -0.05078 0.77067 0.18904
 C799 C -0.03792 0.72572 0.13873
 H800 H -0.03392 0.71306 0.12481
 C801 C -0.05698 0.72122 0.15415
 H802 H -0.06773 0.70520 0.15194
 Zn803 Zn 0.00268 0.75142 0.12187
 N804 N -0.02425 0.74574 0.14145
 C805 C -0.02190 0.79250 0.10566
 N806 N -0.00203 0.77883 0.10296
 C807 C 0.01477 0.78405 0.08627
 C808 C 0.01228 0.80411 0.07191
 C809 C -0.02506 0.81276 0.09173
 C810 C 0.03406 0.73881 0.15843
 C811 C 0.05382 0.74099 0.17351
 C812 C 0.06318 0.77890 0.15537
 C813 C 0.04329 0.77598 0.14059
 N814 N 0.02947 0.75594 0.14206
 H815 H -0.03534 0.78777 0.11860
 H816 H 0.03018 0.77261 0.08421
 H817 H 0.02575 0.80814 0.05868
 H818 H -0.04085 0.82364 0.09414
 H819 H 0.02248 0.72330 0.15957
 H820 H 0.05755 0.72707 0.18622
 H821 H 0.07418 0.79483 0.15398
 H822 H 0.03898 0.78973 0.12798
 C823 C -0.06169 0.73731 0.17265
 C824 C 0.01543 0.68843 0.06890
 C825 C 0.06882 0.76104 0.17172
 C826 C -0.00768 0.81888 0.07486
 C827 C 0.48891 0.22204 0.58497
 H828 H 0.47559 0.23526 0.58067
 C829 C 0.49199 0.20222 0.57021
 H830 H 0.48107 0.20020 0.55444
 C831 C 0.51976 0.20870 0.61052
 H832 H 0.53060 0.21134 0.62620
 C833 C 0.52336 0.18857 0.59631
 H834 H 0.53693 0.17575 0.60114
 N835 N 0.50258 0.22479 0.60479
 C836 C 0.46683 0.26143 0.66255
 H837 H 0.48041 0.27446 0.66729
 C838 C 0.44648 0.25873 0.67672
 H839 H 0.44454 0.26956 0.69255
 C840 C 0.45309 0.23094 0.63651
 H841 H 0.45578 0.22003 0.62092
 C842 C 0.43230 0.22795 0.64995
 H843 H 0.41908 0.21477 0.64456
 Zn844 Zn 0.49772 0.25189 0.62427
 N845 N 0.46975 0.24761 0.64287
 C846 C 0.47569 0.29424 0.60822
 N847 N 0.49414 0.27890 0.60457
 C848 C 0.50998 0.28225 0.58654
 C849 C 0.50813 0.30214 0.57186
 C850 C 0.47310 0.31428 0.59386
 C851 C 0.52552 0.24305 0.66497
 C852 C 0.54535 0.24501 0.68000
 C853 C 0.56281 0.27352 0.65295
 C854 C 0.54252 0.27131 0.63863
 N855 N 0.52451 0.25603 0.64466
 H856 H 0.46302 0.29103 0.62234
 H857 H 0.52416 0.26950 0.58368
 H858 H 0.52102 0.30480 0.55775
 H859 H 0.45838 0.32641 0.59692
 H860 H 0.51097 0.23104 0.66939
 H861 H 0.54593 0.23468 0.69617
 H862 H 0.57720 0.28544 0.64773
 H863 H 0.54142 0.28159 0.62256
 C864 C 0.42874 0.24209 0.67020
 C865 C 0.50916 0.18506 0.57607
 C866 C 0.56451 0.26002 0.67372
 C867 C 0.48972 0.31859 0.57572
 C868 C 0.51063 0.71623 0.90920
 H869 H 0.52603 0.72782 0.91160
 C870 C 0.50778 0.69618 0.92349
 H871 H 0.52098 0.69233 0.93701
 C872 C 0.47429 0.70746 0.88907
 H873 H 0.46112 0.71211 0.87587
 C874 C 0.47078 0.68714 0.90294
 H875 H 0.45501 0.67610 0.90023
 N876 N 0.49418 0.72130 0.89218
 C877 C 0.53146 0.76157 0.83757
 H878 H 0.52008 0.77707 0.83646
 C879 C 0.55081 0.75912 0.82210
 H880 H 0.55427 0.77272 0.80894
 C881 C 0.54035 0.72450 0.85554
 H882 H 0.53601 0.71085 0.86829
 C883 C 0.56003 0.72147 0.84059
 H884 H 0.57087 0.70558 0.84209
 Zn885 Zn 0.49985 0.74896 0.87390
 N886 N 0.52674 0.74448 0.85400
 C887 C 0.52678 0.78661 0.89499
 N888 N 0.50567 0.77432 0.89540
 C889 C 0.48876 0.77883 0.91216
 C890 C 0.49269 0.79643 0.92934
 C891 C 0.53148 0.80430 0.91191
 C892 C 0.46817 0.74001 0.83640
 C893 C 0.44980 0.74477 0.82033
 C894 C 0.44256 0.78198 0.84086
 C895 C 0.46107 0.77652 0.85656
 N896 N 0.47339 0.75578 0.85411
 H897 H 0.54016 0.78247 0.88181
 H898 H 0.47227 0.76857 0.91224
 H899 H 0.47908 0.79996 0.94256
 H900 H 0.54839 0.81388 0.91156
 H901 H 0.47851 0.72384 0.83463
 H902 H 0.44579 0.73214 0.80626
 H903 H 0.43297 0.79862 0.84282
 H904 H 0.46582 0.78908 0.87039
 C905 C 0.56557 0.73905 0.82382
 C906 C 0.48785 0.68120 0.92014
 C907 C 0.43702 0.76612 0.82235
 C908 C 0.51442 0.80912 0.92949
 C909 C 0.08865 0.21441 0.29832
 C910 C 0.10748 0.21101 0.28252
 C911 C 0.12562 0.22820 0.28017
 C912 C 0.12536 0.24879 0.29489
 C913 C 0.10627 0.25216 0.31117
 C914 C 0.08749 0.23501 0.31244
 C915 C 0.10704 0.27230 0.32618
 N916 N 0.12550 0.28806 0.32465
 N917 N 0.14336 0.28494 0.30934
 C918 C 0.14400 0.26583 0.29453
 H919 H 0.07458 0.20104 0.29921
 H920 H 0.10757 0.19507 0.27157
 H921 H 0.09341 0.27550 0.33939
 H922 H 0.15931 0.26398 0.28299
 C923 C 0.58655 0.71530 0.79324
 C924 C 0.60497 0.71156 0.77706
 C925 C 0.62341 0.72836 0.77439
 C926 C 0.62381 0.74899 0.78906
 C927 C 0.60516 0.75269 0.80578
 C928 C 0.58613 0.73586 0.80748
 C929 C 0.60667 0.77278 0.82080
 N930 N 0.62535 0.78822 0.81884
 N931 N 0.64276 0.78482 0.80309
 C932 C 0.64271 0.76572 0.78825
 H933 H 0.57227 0.70217 0.79443
 H934 H 0.60456 0.69559 0.76615
 H935 H 0.59345 0.77619 0.83436
 H936 H 0.65767 0.76364 0.77631
 C937 C 0.39439 0.77378 0.81352
 C938 C 0.37554 0.77832 0.79803
 C939 C 0.37962 0.78110 0.77368
 C940 C 0.40346 0.78039 0.76495
 C941 C 0.42265 0.77565 0.78075
 C942 C 0.41790 0.77190 0.80515
 C943 C 0.44612 0.77550 0.77165
 N944 N 0.44999 0.77981 0.74833
 N945 N 0.43204 0.78448 0.73356
 C946 C 0.40898 0.78506 0.74106
 H947 H 0.39053 0.77122 0.83217
 H948 H 0.35750 0.77902 0.80506
 H949 H 0.46147 0.77236 0.78288
 H950 H 0.39534 0.78969 0.72833
 C951 C -0.10244 0.27864 0.31214
 C952 C -0.12090 0.28354 0.29638
 C953 C -0.11813 0.27998 0.27183
 C954 C -0.09503 0.27357 0.26307
 C955 C -0.07618 0.26859 0.27930
 C956 C -0.08027 0.27047 0.30406
 C957 C -0.05342 0.26302 0.27013
 N958 N -0.04971 0.26279 0.24640
 N959 N -0.06706 0.26821 0.23122
 C960 C -0.08938 0.27390 0.23869
 H961 H -0.10573 0.28066 0.33098
 H962 H -0.13798 0.28877 0.30379
 H963 H -0.03831 0.25948 0.28152
 H964 H -0.10200 0.27967 0.22547
 C965 C -0.10057 0.74844 0.19040
 C966 C -0.11973 0.74467 0.20578
 C967 C -0.12023 0.72492 0.22092
 C968 C -0.10041 0.70916 0.22123
 C969 C -0.08094 0.71296 0.20547
 C970 C -0.08129 0.73260 0.18971
 C971 C -0.06134 0.69734 0.20654
 N972 N -0.06134 0.67919 0.22234
 N973 N -0.07946 0.67575 0.23728
 C974 C -0.09888 0.69015 0.23738
 H975 H -0.10095 0.76368 0.17866
 H976 H -0.13456 0.75704 0.20550
 H977 H -0.04585 0.69955 0.19526
 H978 H -0.11259 0.68684 0.25047
 C979 C 0.40191 0.21572 0.69330
 C980 C 0.38253 0.21144 0.70819
 C981 C 0.36766 0.23011 0.71588
 C982 C 0.37127 0.25326 0.70599
 C983 C 0.39112 0.25754 0.69070
 C984 C 0.40698 0.23869 0.68500
 C985 C 0.39380 0.28037 0.68068
 N986 N 0.37756 0.29760 0.68537
 N987 N 0.35858 0.29346 0.69902
 C988 C 0.35470 0.27191 0.70917
 H989 H 0.41356 0.20099 0.68879
 H990 H 0.38025 0.19350 0.71491
 H991 H 0.40823 0.28456 0.66862
 H992 H 0.33813 0.26941 0.71867
 C993 C 0.59267 0.28476 0.69724
 C994 C 0.61251 0.28798 0.71183
 C995 C 0.62647 0.26854 0.71914
 C996 C 0.62122 0.24552 0.70937
 C997 C 0.60080 0.24230 0.69450
 C998 C 0.58613 0.26208 0.68895
 C999 C 0.59641 0.21954 0.68466
 N1000 N 0.61165 0.20138 0.68904
 N1001 N 0.63122 0.20452 0.70217
 C1002 C 0.63670 0.22592 0.71214
 H1003 H 0.58193 0.30014 0.69278
 H1004 H 0.61603 0.30582 0.71850
 H1005 H 0.58143 0.21607 0.67300
 H1006 H 0.65369 0.22750 0.72110
 C1007 C 0.08655 0.76471 0.21177
 C1008 C 0.10583 0.76775 0.22718
 C1009 C 0.12928 0.76975 0.21854
 C1010 C 0.13345 0.76762 0.19379
 C1011 C 0.11377 0.76454 0.17808
 C1012 C 0.09012 0.76350 0.18722
 C1013 C 0.11851 0.76186 0.15370
 N1014 N 0.14141 0.76233 0.14572
 N1015 N 0.15987 0.76506 0.16045
 C1016 C 0.15671 0.76756 0.18417
 H1017 H 0.06861 0.76370 0.21903
 H1018 H 0.10234 0.76909 0.24604
 H1019 H 0.10432 0.75900 0.14093
 H1020 H 0.17247 0.76897 0.19520
 C1021 C 0.28303 0.08637 0.23484
 C1022 C 0.26823 0.10587 0.23104
 C1023 C 0.27772 0.12905 0.22978
 C1024 C 0.30265 0.13269 0.23348
 C1025 C 0.31775 0.11275 0.23712
 C1026 C 0.30779 0.08943 0.23744
 C1027 C 0.34234 0.11690 0.24100
 N1028 N 0.35107 0.13952 0.24134
 N1029 N 0.33688 0.15825 0.23828
 C1030 C 0.31301 0.15564 0.23452
 H1031 H 0.27516 0.06865 0.23529
 H1032 H 0.24922 0.10275 0.22849
 H1033 H 0.35465 0.10244 0.24412
 H1034 H 0.30241 0.17159 0.23294
 C1035 C 0.78069 0.58490 0.73199
 C1036 C 0.76579 0.60430 0.72799
 C1037 C 0.77511 0.62757 0.72708
 C1038 C 0.79988 0.63142 0.73151
 C1039 C 0.81507 0.61161 0.73548
 C1040 C 0.80536 0.58817 0.73523
 C1041 C 0.83946 0.61601 0.74022
 N1042 N 0.84794 0.63872 0.74093
 N1043 N 0.83367 0.65731 0.73746
 C1044 C 0.80996 0.65447 0.73293
 H1045 H 0.77299 0.56710 0.73199
 H1046 H 0.74689 0.60103 0.72490
 H1047 H 0.85181 0.60168 0.74373
 H1048 H 0.79924 0.67030 0.73101
 C1049 C 0.78076 0.41530 0.76617
 C1050 C 0.76571 0.39584 0.77026
 C1051 C 0.77482 0.37263 0.77118
 C1052 C 0.79955 0.36889 0.76673
 C1053 C 0.81489 0.38875 0.76262
 C1054 C 0.80539 0.41215 0.76282
 C1055 C 0.83921 0.38443 0.75776
 N1056 N 0.84749 0.36176 0.75712
 N1057 N 0.83308 0.34312 0.76077
 C1058 C 0.80943 0.34587 0.76540
 H1059 H 0.77320 0.43306 0.76612
 H1060 H 0.74684 0.39901 0.77335
 H1061 H 0.85167 0.39879 0.75409
 H1062 H 0.79859 0.33000 0.76745
 C1063 C 0.30908 -0.10080 0.28624
 C1064 C 0.29407 -0.12015 0.29075
 C1065 C 0.26935 -0.11907 0.28609
 C1066 C 0.25941 -0.09673 0.27927
 C1067 C 0.27482 -0.07687 0.27497
 C1068 C 0.29997 -0.07934 0.27756
 C1069 C 0.26441 -0.05482 0.26923
 N1070 N 0.24028 -0.05278 0.26800
 N1071 N 0.22581 -0.07114 0.27256
 C1072 C 0.23448 -0.09286 0.27843
 H1073 H 0.32819 -0.10291 0.28879
 H1074 H 0.30233 -0.13662 0.29635
 H1075 H 0.27510 -0.03896 0.26639
 H1076 H 0.22169 -0.10644 0.28338
 C1077 C 0.20601 -0.09394 0.75102
 C1078 C 0.22065 -0.11372 0.74821
 C1079 C 0.21205 -0.13486 0.73753
 C1080 C 0.18712 -0.13651 0.73196
 C1081 C 0.17227 -0.11613 0.73469
 C1082 C 0.18209 -0.09451 0.74366
 C1083 C 0.14771 -0.11838 0.72935
 N1084 N 0.13855 -0.13971 0.72232
 N1085 N 0.15217 -0.15902 0.72067
 C1086 C 0.17594 -0.15825 0.72555
 H1087 H 0.21369 -0.07769 0.75834
 H1088 H 0.23931 -0.11173 0.75311
 H1089 H 0.13552 -0.10360 0.73130
 H1090 H 0.18547 -0.17492 0.72539
 C1091 C 0.68928 0.39623 0.22611
 C1092 C 0.70436 0.37687 0.22258
 C1093 C 0.72927 0.37946 0.22444
 C1094 C 0.73922 0.40238 0.22916
 C1095 C 0.72381 0.42214 0.23277
 C1096 C 0.69862 0.41886 0.23155
 C1097 C 0.73422 0.44476 0.23673
 N1098 N 0.75838 0.44728 0.23714
 N1099 N 0.77283 0.42880 0.23362
 C1100 C 0.76412 0.40652 0.22951
 H1101 H 0.67009 0.39347 0.22492
 H1102 H 0.69645 0.35956 0.21877
 H1103 H 0.72344 0.46053 0.23912
 H1104 H 0.77679 0.39246 0.22609
 C1105 C 0.71754 0.58245 0.27034
 C1106 C 0.73388 0.60078 0.27477
 C1107 C 0.72611 0.62356 0.28137
 C1108 C 0.70119 0.62807 0.28307
 C1109 C 0.68447 0.60941 0.27828
 C1110 C 0.69283 0.58633 0.27210
 C1111 C 0.65989 0.61480 0.27897
 N1112 N 0.65267 0.63719 0.28448
 N1113 N 0.66832 0.65463 0.28906
 C1114 C 0.69228 0.65090 0.28842
 H1115 H 0.72425 0.56500 0.26550
 H1116 H 0.75285 0.59711 0.27315
 H1117 H 0.64632 0.60160 0.27482
 H1118 H 0.70403 0.66593 0.29172
 C1119 C 0.19306 0.09884 0.77926
 C1120 C 0.20905 0.11755 0.78344
 C1121 C 0.23386 0.11384 0.78306
 C1122 C 0.24265 0.09042 0.77907
 C1123 C 0.22629 0.07140 0.77454
 C1124 C 0.20132 0.07581 0.77447
 C1125 C 0.23548 0.04835 0.77094
 N1126 N 0.25943 0.04466 0.77199
 N1127 N 0.27476 0.06239 0.77661
 C1128 C 0.26721 0.08505 0.78034
 H1129 H 0.17400 0.10243 0.77947
 H1130 H 0.20193 0.13521 0.78662
 H1131 H 0.22389 0.03318 0.76762
 H1132 H 0.28050 0.09841 0.78476
 C1133 C 0.21375 0.30256 0.09155
 C1134 C 0.21031 0.28770 0.11099
 C1135 C 0.22857 0.28439 0.12766
 C1136 C 0.25043 0.29717 0.12524
 C1137 C 0.25385 0.31255 0.10557
 C1138 C 0.23549 0.31476 0.08831
 C1139 C 0.27534 0.32577 0.10426
 N1140 N 0.29230 0.32335 0.12128
 N1141 N 0.28914 0.30884 0.13965
 C1142 C 0.26879 0.29579 0.14229
 H1143 H 0.19946 0.30420 0.07867
 H1144 H 0.19341 0.27824 0.11273
 H1145 H 0.27871 0.33831 0.09014
 H1146 H 0.26706 0.28484 0.15791
 C1147 C 0.71320 0.79730 0.58369
 C1148 C 0.70950 0.78237 0.60303
 C1149 C 0.72688 0.78029 0.62078
 C1150 C 0.74811 0.79426 0.61948
 C1151 C 0.75172 0.80979 0.59996
 C1152 C 0.73428 0.81087 0.58166
 C1153 C 0.77239 0.82433 0.59989
 N1154 N 0.78847 0.82291 0.61785
 N1155 N 0.78519 0.80817 0.63601
 C1156 C 0.76554 0.79390 0.63751
 H1157 H 0.69958 0.79807 0.57002
 H1158 H 0.69309 0.77198 0.60392
 H1159 H 0.77579 0.83712 0.58601
 H1160 H 0.76362 0.78277 0.65298
 C1161 C 0.76037 0.79169 0.40698
 C1162 C 0.76560 0.77567 0.38881
 C1163 C 0.78387 0.78038 0.37237
 C1164 C 0.79727 0.80197 0.37475
 C1165 C 0.79034 0.81931 0.39187
 C1166 C 0.77241 0.81366 0.40890
 C1167 C 0.80158 0.84187 0.39117
 N1168 N 0.82037 0.84568 0.37644
 N1169 N 0.82855 0.82853 0.36226
 C1170 C 0.81782 0.80679 0.36108
 H1171 H 0.74677 0.78672 0.41976
 H1172 H 0.75506 0.75942 0.38765
 H1173 H 0.79557 0.85657 0.40205
 H1174 H 0.82596 0.79339 0.34999
 C1175 C 0.25199 0.30143 -0.09856
 C1176 C 0.25593 0.28597 -0.11754
 C1177 C 0.27833 0.27545 -0.12095
 C1178 C 0.29692 0.27986 -0.10434
 C1179 C 0.29279 0.29526 -0.08472
 C1180 C 0.27024 0.30659 -0.08218
 C1181 C 0.31122 0.29817 -0.06787
 N1182 N 0.33242 0.28691 -0.07091
 N1183 N 0.33638 0.27272 -0.08948
 C1184 C 0.31936 0.26872 -0.10621
 H1185 H 0.23460 0.30974 -0.09682
 H1186 H 0.24148 0.28255 -0.12998
 H1187 H 0.30891 0.30892 -0.05210
 H1188 H 0.32346 0.25660 -0.12058
 C1189 C 0.73321 0.21158 -0.08437
 C1190 C 0.73029 0.22612 -0.10410
 C1191 C 0.72742 0.21624 -0.12681
 C1192 C 0.72859 0.19111 -0.12978
 C1193 C 0.73146 0.17630 -0.10965
 C1194 C 0.73336 0.18671 -0.08675
 C1195 C 0.73304 0.15148 -0.11320
 N1196 N 0.73181 0.14225 -0.13543
 N1197 N 0.72935 0.15614 -0.15434
 C1198 C 0.72785 0.18020 -0.15232
 H1199 H 0.73490 0.21979 -0.06701
 H1200 H 0.72969 0.24528 -0.10152
 H1201 H 0.73560 0.13933 -0.09860
 H1202 H 0.72662 0.19048 -0.16840
 C1203 C 0.22486 0.68373 0.39593
 C1204 C 0.22128 0.69898 0.37684
 C1205 C 0.22290 0.72377 0.37976
 C1206 C 0.22704 0.73343 0.40271
 C1207 C 0.23057 0.71789 0.42219
 C1208 C 0.23002 0.69282 0.41855
 C1209 C 0.23385 0.72803 0.44486
 N1210 N 0.23383 0.75206 0.44765
 N1211 N 0.23051 0.76664 0.42940
 C1212 C 0.22699 0.75818 0.40709
 H1213 H 0.22414 0.66463 0.39290
 H1214 H 0.21785 0.69131 0.35948
 H1215 H 0.23603 0.71713 0.46046
 H1216 H 0.22372 0.77092 0.39317
 C1217 C 0.27606 0.68832 0.60359
 C1218 C 0.27961 0.70396 0.62252
 C1219 C 0.27687 0.72860 0.61964
 C1220 C 0.27136 0.73773 0.59687
 C1221 C 0.26786 0.72177 0.57752
 C1222 C 0.26979 0.69681 0.58113
 C1223 C 0.26326 0.73143 0.55499
 N1224 N 0.26202 0.75540 0.55221
 N1225 N 0.26533 0.77037 0.57033
 C1226 C 0.27008 0.76240 0.59249
 H1227 H 0.27782 0.66932 0.60659
 H1228 H 0.28403 0.69670 0.63974
 H1229 H 0.26102 0.72024 0.53948
 H1230 H 0.27326 0.77547 0.60628
 C1231 C 0.76244 0.21220 0.08572
 C1232 C 0.76642 0.22728 0.10503
 C1233 C 0.77063 0.21802 0.12767
 C1234 C 0.76980 0.19296 0.13107
 C1235 C 0.76568 0.17758 0.11138
 C1236 C 0.76243 0.18738 0.08846
 C1237 C 0.76421 0.15285 0.11545
 N1238 N 0.76689 0.14423 0.13771
 N1239 N 0.77068 0.15864 0.15619
 C1240 C 0.77208 0.18266 0.15367
 H1241 H 0.75975 0.21997 0.06837
 H1242 H 0.76675 0.24638 0.10216
 H1243 H 0.76058 0.14029 0.10129
 H1244 H 0.77447 0.19338 0.16946
 C1245 C 0.48435 0.33621 0.53596
 C1246 C 0.48134 0.35541 0.52071
 C1247 C 0.48122 0.37887 0.52937
 C1248 C 0.48525 0.38310 0.55389
 C1249 C 0.48844 0.36350 0.56943
 C1250 C 0.48749 0.33985 0.56036
 C1251 C 0.49322 0.36832 0.59350
 N1252 N 0.49446 0.39118 0.60138
 N1253 N 0.49150 0.40955 0.58682
 C1254 C 0.48708 0.40632 0.56337
 H1255 H 0.48380 0.31827 0.52870
 H1256 H 0.47851 0.35188 0.50200
 H1257 H 0.49638 0.35421 0.60608
 H1258 H 0.48554 0.42196 0.55239
 C1259 C -0.03104 0.84096 0.04507
 C1260 C -0.03524 0.86054 0.03063
 C1261 C -0.01942 0.88007 0.03042
 C1262 C 0.00086 0.88000 0.04562
 C1263 C 0.00515 0.85997 0.06036
 C1264 C -0.01091 0.84024 0.05985
 C1265 C 0.02497 0.86075 0.07578
 N1266 N 0.03951 0.88022 0.07624
 N1267 N 0.03542 0.89905 0.06256
 C1268 C 0.01657 0.89968 0.04741
 H1269 H -0.04357 0.82611 0.04460
 H1270 H -0.05091 0.86032 0.01928
 H1271 H 0.02890 0.84627 0.08772
 H1272 H 0.01387 0.91576 0.03733
 C1273 C 0.00130 0.65152 0.04888
 C1274 C 0.00444 0.63195 0.03391
 C1275 C 0.02594 0.62878 0.02158
 C1276 C 0.04431 0.64627 0.02356
 C1277 C 0.04096 0.66644 0.03851
 C1278 C 0.01945 0.66870 0.05174
 C1279 C 0.05906 0.68405 0.03913
 N1280 N 0.07923 0.68129 0.02606
 N1281 N 0.08246 0.66228 0.01223
 C1282 C 0.06568 0.64476 0.01043
 H1283 H -0.01532 0.65303 0.05867
 H1284 H -0.00986 0.61886 0.03234
 H1285 H 0.05723 0.70020 0.04949
 H1286 H 0.06910 0.63007 -0.00154
 C1287 C 0.53524 0.16065 0.55030
 C1288 C 0.53944 0.14155 0.53501
 C1289 C 0.52124 0.12509 0.52961
 C1290 C 0.49859 0.12731 0.54081
 C1291 C 0.49433 0.14677 0.55645
 C1292 C 0.51274 0.16382 0.56077
 C1293 C 0.47193 0.14809 0.56780
 N1294 N 0.45499 0.13115 0.56358
 N1295 N 0.45900 0.11286 0.54900
 C1296 C 0.48020 0.11028 0.53759
 H1297 H 0.54957 0.17338 0.55361
 H1298 H 0.55691 0.14000 0.52679
 H1299 H 0.46781 0.16216 0.58028
 H1300 H 0.48257 0.09468 0.52656
 C1301 C -0.03578 0.15861 0.45309
 C1302 C -0.03886 0.13939 0.46836
 C1303 C -0.02129 0.12178 0.47032
 C1304 C -0.00066 0.12300 0.45570
 C1305 C 0.00238 0.14249 0.43996
 C1306 C -0.01512 0.16073 0.43914
 C1307 C 0.02258 0.14267 0.42503
 N1308 N 0.03870 0.12473 0.42613
 N1309 N 0.03589 0.10650 0.44094
 C1310 C 0.01674 0.10495 0.45565
 H1311 H -0.04942 0.17225 0.45252
 H1312 H -0.05483 0.13859 0.47924
 H1313 H 0.02555 0.15664 0.41221
 H1314 H 0.01516 0.08938 0.46677
 C1315 C 0.46406 0.65867 0.94958
 C1316 C 0.46064 0.63979 0.96519
 C1317 C 0.47758 0.62156 0.96700
 C1318 C 0.49785 0.62178 0.95184
 C1319 C 0.50130 0.64101 0.93587
 C1320 C 0.48447 0.65985 0.93520
 C1321 C 0.52123 0.64039 0.92061
 N1322 N 0.53664 0.62182 0.92147
 N1323 N 0.53336 0.60374 0.93636
 C1324 C 0.51447 0.60301 0.95145
 H1325 H 0.45094 0.67283 0.94916
 H1326 H 0.44494 0.63979 0.97647
 H1327 H 0.52452 0.65424 0.90772
 H1328 H 0.51244 0.58751 0.96259
 C1329 C 0.52297 0.85113 0.94013
 C1330 C 0.52685 0.86948 0.95642
 C1331 C 0.52700 0.86497 0.98084
 C1332 C 0.52411 0.84119 0.98894
 C1333 C 0.52019 0.82246 0.97230
 C1334 C 0.51920 0.82765 0.94772
 C1335 C 0.51811 0.79898 0.98084
 N1336 N 0.51969 0.79470 1.00442
 N1337 N 0.52345 0.81223 1.02001
 C1338 C 0.52585 0.83526 1.01310
 H1339 H 0.52248 0.85535 0.92141
 H1340 H 0.52921 0.88749 0.94989
 H1341 H 0.51563 0.78393 0.96902
 H1342 H 0.52957 0.84855 1.02656
 C1343 C 0.01269 0.33428 0.46479
 C1344 C 0.01602 0.35384 0.47977
 C1345 C 0.02023 0.37666 0.47057
 C1346 C 0.02003 0.37997 0.44563
 C1347 C 0.01659 0.36002 0.43036
 C1348 C 0.01335 0.33695 0.44012
 C1349 C 0.01579 0.36399 0.40574
 N1350 N 0.01841 0.38640 0.39713
 N1351 N 0.02152 0.40512 0.41144
 C1352 C 0.02228 0.40272 0.43534
 H1353 H 0.00997 0.31681 0.47252
 H1354 H 0.01585 0.35104 0.49877
 H1355 H 0.01271 0.34961 0.39325
 H1356 H 0.02414 0.41869 0.44597
 C1357 C 0.33810 0.53787 0.48663
 C1358 C 0.35767 0.52304 0.48302
 C1359 C 0.38021 0.53253 0.47732
 C1360 C 0.38327 0.55766 0.47623
 C1361 C 0.36331 0.57279 0.47999
 C1362 C 0.34046 0.56269 0.48479
 C1363 C 0.36710 0.59764 0.47956
 N1364 N 0.38932 0.60659 0.47544
 N1365 N 0.40804 0.59242 0.47198
 C1366 C 0.40583 0.56832 0.47237
 H1367 H 0.32082 0.52988 0.49052
 H1368 H 0.35507 0.50390 0.48414
 H1369 H 0.35275 0.61007 0.48283
 H1370 H 0.42183 0.55784 0.47014
 C1371 C 0.82551 0.03100 -0.01469
 C1372 C 0.84363 0.01468 -0.01936
 C1373 C 0.86647 0.02246 -0.02619
 C1374 C 0.87149 0.04727 -0.02728
 C1375 C 0.85308 0.06391 -0.02230
 C1376 C 0.82975 0.05559 -0.01648
 C1377 C 0.85888 0.08839 -0.02262
 N1378 N 0.88148 0.09558 -0.02790
 N1379 N 0.89873 0.07999 -0.03263
 C1380 C 0.89456 0.05613 -0.03238
 H1381 H 0.80786 0.02435 -0.01006
 H1382 H 0.83963 -0.00422 -0.01816
 H1383 H 0.84584 0.10190 -0.01834
 H1384 H 0.90947 0.04441 -0.03574
 C1385 C 0.65884 0.03599 0.01590
 C1386 C 0.63909 0.02107 0.01907
 C1387 C 0.61594 0.03042 0.02098
 C1388 C 0.61260 0.05540 0.01868
 C1389 C 0.63279 0.07062 0.01561
 C1390 C 0.65608 0.06074 0.01456
 C1391 C 0.62890 0.09525 0.01299
 N1392 N 0.60630 0.10393 0.01337
 N1393 N 0.58734 0.08965 0.01596
 C1394 C 0.58968 0.06573 0.01847
 H1395 H 0.67652 0.02818 0.01489
 H1396 H 0.64200 0.00204 0.02059
 H1397 H 0.64354 0.10766 0.01030
 H1398 H 0.57356 0.05508 0.01975
 C1399 C 0.14673 0.56293 0.52637
 C1400 C 0.12752 0.54755 0.53049
 C1401 C 0.13065 0.52276 0.53041
 C1402 C 0.15397 0.51335 0.52712
 C1403 C 0.17355 0.52907 0.52286
 C1404 C 0.16970 0.55403 0.52209
 C1405 C 0.19653 0.51924 0.52020
 N1406 N 0.19958 0.49532 0.52168
 N1407 N 0.18128 0.48060 0.52587
 C1408 C 0.15866 0.48876 0.52878
 H1409 H 0.14356 0.58199 0.52608
 H1410 H 0.10989 0.55508 0.53318
 H1411 H 0.21217 0.53032 0.51733
 H1412 H 0.14475 0.47596 0.53286
 C1413 C 0.14799 0.44737 -0.00360
 C1414 C 0.12878 0.46258 -0.00755
 C1415 C 0.12599 0.47405 -0.02937
 C1416 C 0.14351 0.47085 -0.04730
 C1417 C 0.16323 0.45552 -0.04319
 C1418 C 0.16515 0.44333 -0.02127
 C1419 C 0.18083 0.45356 -0.06095
 N1420 N 0.17853 0.46582 -0.08148
 N1421 N 0.16000 0.48011 -0.08537
 C1422 C 0.14252 0.48315 -0.06898
 H1423 H 0.14931 0.43841 0.01333
 H1424 H 0.11568 0.46503 0.00640
 H1425 H 0.19660 0.44276 -0.05863
 H1426 H 0.12833 0.49550 -0.07294
 C1427 C 0.66705 0.96852 0.48543
 C1428 C 0.64728 0.98328 0.48259
 C1429 C 0.62425 0.97363 0.47941
 C1430 C 0.62099 0.94850 0.48035
 C1431 C 0.64118 0.93349 0.48300
 C1432 C 0.66439 0.94368 0.48512
 C1433 C 0.63739 0.90866 0.48402
 N1434 N 0.61485 0.89961 0.48265
 N1435 N 0.59586 0.91369 0.48053
 C1436 C 0.59813 0.93777 0.47947
 H1437 H 0.68468 0.97653 0.48731
 H1438 H 0.65012 1.00241 0.48215
 H1439 H 0.65205 0.89637 0.48623
 H1440 H 0.58197 0.94820 0.47851
 C1441 C 0.84107 0.95154 0.53734
 C1442 C 0.86002 0.96715 0.54209
 C1443 C 0.87812 0.97088 0.52534
 C1444 C 0.87772 0.95782 0.50377
 C1445 C 0.85869 0.94151 0.49913
 C1446 C 0.83984 0.93889 0.51584
 C1447 C 0.85961 0.92786 0.47813
 N1448 N 0.87794 0.93093 0.46266
 N1449 N 0.89556 0.94652 0.46686
 C1450 C 0.89614 0.95998 0.48689
 H1451 H 0.82697 0.94967 0.55041
 H1452 H 0.86025 0.97686 0.55875
 H1453 H 0.84620 0.91448 0.47400
 H1454 H 0.91117 0.97196 0.48954
 C1455 C 0.35427 0.44014 0.02213
 C1456 C 0.37284 0.45606 0.02720
 C1457 C 0.36837 0.48042 0.03056
 C1458 C 0.34443 0.48874 0.02958
 C1459 C 0.32549 0.47249 0.02434
 C1460 C 0.33061 0.44806 0.02028
 C1461 C 0.30189 0.48116 0.02409
 N1462 N 0.29766 0.50451 0.02873
 N1463 N 0.31537 0.51970 0.03385
 C1464 C 0.33853 0.51263 0.03458
 H1465 H 0.35841 0.42148 0.01934
 H1466 H 0.39097 0.44934 0.02806
 H1467 H 0.28671 0.46960 0.02060
 H1468 H 0.35195 0.52568 0.03956
 C1469 C 0.56348 0.47212 0.35026
 C1470 C 0.54760 0.46778 0.36878
 C1471 C 0.52279 0.46822 0.36507
 C1472 C 0.51383 0.47204 0.34185
 C1473 C 0.53004 0.47649 0.32295
 C1474 C 0.55505 0.47699 0.32741
 C1475 C 0.52063 0.47962 0.30003
 N1476 N 0.49664 0.47847 0.29641
 N1477 N 0.48144 0.47417 0.31409
 C1478 C 0.48919 0.47079 0.33661
 H1479 H 0.58254 0.47221 0.35390
 H1480 H 0.55478 0.46471 0.38636
 H1481 H 0.53208 0.48259 0.28487
 H1482 H 0.47602 0.46667 0.35001
 C1483 C 0.05499 -0.03025 0.85188
 C1484 C 0.03980 -0.03310 0.87122
 C1485 C 0.01963 -0.01861 0.87423
 C1486 C 0.01509 -0.00048 0.85725
 C1487 C 0.02946 0.00106 0.83650
 C1488 C 0.05020 -0.01336 0.83426
 C1489 C 0.02233 0.01690 0.81857
 N1490 N 0.00385 0.03200 0.82237
 N1491 N -0.00807 0.03221 0.84279
 C1492 C -0.00296 0.01667 0.86040
 H1493 H 0.07075 -0.04137 0.85073
 H1494 H 0.04382 -0.04701 0.88385
 H1495 H 0.03111 0.01737 0.80152
 H1496 H -0.01269 0.01838 0.87683
 C1497 C 0.04024 0.01781 0.66794
 C1498 C 0.02540 0.02110 0.64840
 C1499 C 0.03498 0.02386 0.62561
 C1500 C 0.06019 0.02258 0.62243
 C1501 C 0.07533 0.01935 0.64242
 C1502 C 0.06517 0.01716 0.66535
 C1503 C 0.10017 0.01758 0.63864
 N1504 N 0.10914 0.01895 0.61636
 N1505 N 0.09497 0.02172 0.59760
 C1506 C 0.07085 0.02341 0.59983
 H1507 H 0.03220 0.01591 0.68532
 H1508 H 0.00621 0.02182 0.65117
 H1509 H 0.11254 0.01478 0.65310
 H1510 H 0.06035 0.02487 0.58384
 C1511 C 0.54043 0.51578 0.16306
 C1512 C 0.52548 0.51881 0.14356
 C1513 C 0.53494 0.52150 0.12069
 C1514 C 0.56013 0.52026 0.11741
 C1515 C 0.57538 0.51737 0.13737
 C1516 C 0.56534 0.51539 0.16036
 C1517 C 0.60022 0.51578 0.13352
 N1518 N 0.60909 0.51694 0.11119
 N1519 N 0.59481 0.51933 0.09245
 C1520 C 0.57069 0.52087 0.09476
 H1521 H 0.53249 0.51403 0.18051
 H1522 H 0.50631 0.51952 0.14643
 H1523 H 0.61266 0.51329 0.14798
 H1524 H 0.56010 0.52201 0.07880
 C1525 C 0.44540 -0.03717 0.16147
 C1526 C 0.46033 -0.04103 0.14209
 C1527 C 0.46214 -0.02415 0.12394
 C1528 C 0.44768 -0.00346 0.12479
 C1529 C 0.43228 0.00037 0.14445
 C1530 C 0.43164 -0.01642 0.16321
 C1531 C 0.41747 0.02060 0.14429
 N1532 N 0.41839 0.03603 0.12587
 N1533 N 0.43290 0.03249 0.10748
 C1534 C 0.44746 0.01326 0.10624
 H1535 H 0.44496 -0.05028 0.17553
 H1536 H 0.47109 -0.05704 0.14157
 H1537 H 0.40487 0.02414 0.15839
 H1538 H 0.45832 0.01106 0.09056
 C1539 C 0.94614 0.46619 0.65782
 C1540 C 0.96175 0.46263 0.63892
 C1541 C 0.96601 0.48073 0.62240
 C1542 C 0.95354 0.50259 0.62446
 C1543 C 0.93733 0.50610 0.64355
 C1544 C 0.93406 0.48786 0.66065
 C1545 C 0.92436 0.52754 0.64438
 N1546 N 0.92783 0.54438 0.62753
 N1547 N 0.94318 0.54116 0.60976
 C1548 C 0.95604 0.52084 0.60758
 H1549 H 0.94374 0.45199 0.67060
 H1550 H 0.97099 0.44575 0.63744
 H1551 H 0.91118 0.53096 0.65798
 H1552 H 0.96776 0.51906 0.59245
 C1553 C 0.94335 0.50056 0.84708
 C1554 C 0.95881 0.50415 0.86618
 C1555 C 0.97138 0.52568 0.86887
 C1556 C 0.96917 0.54359 0.85135
 C1557 C 0.95366 0.53981 0.83171
 C1558 C 0.94020 0.51829 0.82995
 C1559 C 0.95272 0.55749 0.81408
 N1560 N 0.96608 0.57767 0.81631
 N1561 N 0.98050 0.58128 0.83481
 C1562 C 0.98261 0.56493 0.85231
 H1563 H 0.93340 0.48392 0.84589
 H1564 H 0.96055 0.49020 0.87929
 H1565 H 0.94186 0.55535 0.79834
 H1566 H 0.99508 0.56864 0.86653
 C1567 C 0.44784 0.00414 0.34868
 C1568 C 0.46388 0.00817 0.36720
 C1569 C 0.47714 0.02941 0.36856
 C1570 C 0.47502 0.04651 0.35026
 C1571 C 0.45900 0.04222 0.33112
 C1572 C 0.44479 0.02110 0.33075
 C1573 C 0.45828 0.05899 0.31263
 N1574 N 0.47223 0.07887 0.31365
 N1575 N 0.48704 0.08301 0.33175
 C1576 C 0.48900 0.06750 0.35001
 H1577 H 0.43732 -0.01218 0.34859
 H1578 H 0.46549 -0.00515 0.38097
 H1579 H 0.44713 0.05635 0.29717
 H1580 H 0.50174 0.07157 0.36390
   
