data_POSCAR
  _audit_creation_date              2014-09-24
  _audit_creation_method            'ToBaCCo'
  _symmetry_space_group_name_H-M    'P1'
  _symmetry_Int_Tables_number       1
  _symmetry_cell_setting            triclinic
  loop_
  _symmetry_equiv_pos_as_xyz
 x,y,z
_cell_length_a 56.5963
_cell_length_b 56.6960
_cell_length_c 56.4419
_cell_angle_alpha 89.551300
_cell_angle_beta 89.566800
_cell_angle_gamma 90.319600
loop_
  _atom_site_label
  _atom_site_type_symbol
  _atom_site_fract_x
  _atom_site_fract_y
  _atom_site_fract_z
C1 C 0.11441 -0.00129 0.22516
 C2 C 0.13293 0.01834 0.22596
 C3 C 0.14576 0.01890 0.24617
 C4 C 0.13938 -0.00096 0.26394
 C5 C 0.12877 -0.02379 0.22936
 C6 C 0.14148 -0.02390 0.24970
 C7 C 0.09975 0.00169 0.24787
 C8 C 0.11253 0.00153 0.26835
 H9 H 0.13483 0.03161 0.21214
 H10 H 0.15049 -0.00102 0.28002
 H11 H 0.12973 -0.03837 0.21723
 H12 H 0.08074 0.00352 0.24741
 C13 C 0.38430 -0.00616 0.73449
 C14 C 0.36503 -0.02489 0.73803
 C15 C 0.35147 -0.02184 0.75767
 C16 C 0.35850 -0.00004 0.77230
 C17 C 0.37142 0.01739 0.73495
 C18 C 0.35812 0.02088 0.75469
 C19 C 0.39762 -0.00701 0.75647
 C20 C 0.38369 -0.00321 0.77759
 H21 H 0.36413 -0.04087 0.72764
 H22 H 0.34649 0.00294 0.78750
 H23 H 0.37406 0.03092 0.72150
 H24 H 0.41564 -0.01315 0.75699
 C25 C 0.88016 0.49333 0.22653
 C26 C 0.86093 0.47466 0.23031
 C27 C 0.84831 0.47697 0.25065
 C28 C 0.85597 0.49813 0.26576
 C29 C 0.86759 0.51696 0.22866
 C30 C 0.85515 0.51968 0.24909
 C31 C 0.89517 0.49148 0.24915
 C32 C 0.88264 0.49438 0.26974
 H33 H 0.85949 0.45912 0.21932
 H34 H 0.84521 0.50044 0.28207
 H35 H 0.87003 0.53116 0.21588
 H36 H 0.91372 0.48719 0.24911
 C37 C 0.61836 0.50225 0.72787
 C38 C 0.63431 0.52385 0.73040
 C39 C 0.64749 0.52407 0.75036
 C40 C 0.64323 0.50257 0.76672
 C41 C 0.63488 0.48114 0.73060
 C42 C 0.64781 0.48119 0.75078
 C43 C 0.60339 0.50213 0.75080
 C44 C 0.61627 0.50200 0.77123
 H45 H 0.63500 0.53801 0.71740
 H46 H 0.65437 0.50255 0.78279
 H47 H 0.63540 0.46674 0.71809
 H48 H 0.58440 0.50319 0.75108
 C49 C 0.22657 0.11533 0.99569
 C50 C 0.22715 0.13041 1.01797
 C51 C 0.24696 0.14370 1.02036
 C52 C 0.26502 0.14056 1.00021
 C53 C 0.23111 0.13269 0.97525
 C54 C 0.25107 0.14584 0.97755
 C55 C 0.24937 0.10066 0.99690
 C56 C 0.26953 0.11378 0.99943
 H57 H 0.21314 0.13005 1.03117
 H58 H 0.28103 0.15173 1.00222
 H59 H 0.22001 0.13369 0.95971
 H60 H 0.24999 0.08184 0.99436
 C61 C 0.72422 0.38531 0.99658
 C62 C 0.72713 0.36978 0.97660
 C63 C 0.74734 0.35487 0.97763
 C64 C 0.76106 0.35812 0.99950
 C65 C 0.72424 0.37018 1.01734
 C66 C 0.74462 0.35560 1.01972
 C67 C 0.74660 0.39833 0.99741
 C68 C 0.76730 0.38351 0.99934
 H69 H 0.71549 0.37028 0.96142
 H70 H 0.77614 0.34592 1.00081
 H71 H 0.71033 0.37077 1.03065
 H72 H 0.74805 0.41664 0.99226
 C73 C 0.23127 0.88771 0.50232
 C74 C 0.23485 0.87396 0.47946
 C75 C 0.25495 0.86112 0.47861
 C76 C 0.27018 0.86315 0.50096
 C77 C 0.23335 0.86941 0.52226
 C78 C 0.25360 0.85671 0.52173
 C79 C 0.25398 0.90270 0.50450
 C80 C 0.27440 0.88990 0.50370
 H81 H 0.22266 0.87488 0.46476
 H82 H 0.28643 0.85233 0.50013
 H83 H 0.22124 0.86872 0.53723
 H84 H 0.25418 0.92138 0.50794
 C85 C 0.73109 0.61784 0.49319
 C86 C 0.73514 0.62985 0.51691
 C87 C 0.75556 0.64236 0.51825
 C88 C 0.77052 0.64187 0.49539
 C89 C 0.73336 0.63754 0.47464
 C90 C 0.75387 0.65003 0.47558
 C91 C 0.75348 0.60283 0.48964
 C92 C 0.77423 0.61531 0.49079
 H93 H 0.72308 0.62788 0.53182
 H94 H 0.78687 0.65268 0.49626
 H95 H 0.72067 0.63992 0.46054
 H96 H 0.75326 0.58388 0.48840
 C97 C -0.00070 0.22798 0.11353
 C98 C 0.02233 0.23126 0.12696
 C99 C 0.02320 0.25075 0.14067
 C100 C 0.00064 0.26572 0.13982
 C101 C -0.02010 0.22890 0.13239
 C102 C -0.01966 0.24843 0.14623
 C103 C -0.00361 0.25115 0.09955
 C104 C -0.00251 0.27103 0.11310
 H105 H 0.03721 0.21944 0.12504
 H106 H 0.00156 0.28145 0.15135
 H107 H -0.03419 0.21590 0.13336
 H108 H -0.00696 0.25198 0.08081
 C109 C -0.00484 0.72608 0.38534
 C110 C -0.02145 0.72711 0.36610
 C111 C -0.02037 0.74807 0.35201
 C112 C -0.00220 0.76468 0.35999
 C113 C 0.01939 0.73042 0.37398
 C114 C 0.02097 0.75051 0.36080
 C115 C -0.00959 0.74869 0.39959
 C116 C -0.00764 0.76913 0.38653
 H117 H -0.03580 0.71444 0.36480
 H118 H -0.00033 0.78072 0.34878
 H119 H 0.03442 0.71910 0.37717
 H120 H -0.01378 0.74873 0.41824
 C121 C 0.49264 0.22846 0.88796
 C122 C 0.47332 0.23186 0.86958
 C123 C 0.47622 0.25106 0.85537
 C124 C 0.49840 0.26582 0.86109
 C125 C 0.51576 0.22888 0.87385
 C126 C 0.51901 0.24822 0.85979
 C127 C 0.49274 0.25181 0.90168
 C128 C 0.49609 0.27148 0.88778
 H129 H 0.45800 0.22037 0.86846
 H130 H 0.50083 0.28127 0.84916
 H131 H 0.52918 0.21553 0.87622
 H132 H 0.48929 0.25290 0.92046
 C133 C 0.50139 0.73115 0.61722
 C134 C 0.52494 0.73467 0.62965
 C135 C 0.52596 0.75385 0.64376
 C136 C 0.50303 0.76823 0.64436
 C137 C 0.48281 0.73123 0.63696
 C138 C 0.48349 0.75044 0.65119
 C139 C 0.49759 0.75462 0.60386
 C140 C 0.49845 0.77417 0.61800
 H141 H 0.54005 0.72339 0.62662
 H142 H 0.50377 0.78353 0.65643
 H143 H 0.46899 0.71797 0.63826
 H144 H 0.49625 0.75598 0.58486
 C145 C 0.88233 1.00784 0.77217
 C146 C 0.86790 1.02867 0.76921
 C147 C 0.85490 1.02972 0.74756
 C148 C 0.85795 1.00850 0.73316
 C149 C 0.86471 0.98740 0.77016
 C150 C 0.85224 0.98740 0.74970
 C151 C 0.89750 1.00649 0.74957
 C152 C 0.88488 1.00677 0.72905
 H153 H 0.86364 1.04024 0.78372
 H154 H 0.84766 1.00797 0.71657
 H155 H 0.86390 0.97278 0.78262
 H156 H 0.91661 1.00602 0.74999
 C157 C 0.38379 0.50653 0.27417
 C158 C 0.36438 0.52503 0.27181
 C159 C 0.35100 0.52293 0.25206
 C160 C 0.35802 0.50212 0.23622
 C161 C 0.37109 0.48284 0.27230
 C162 C 0.35769 0.48034 0.25267
 C163 C 0.39791 0.50851 0.25075
 C164 C 0.38451 0.50625 0.23078
 H165 H 0.36282 0.53986 0.28372
 H166 H 0.34653 0.50035 0.22050
 H167 H 0.37342 0.46869 0.28509
 H168 H 0.41689 0.50983 0.24982
 C169 C 0.61137 0.99179 0.27605
 C170 C 0.62693 0.97038 0.27124
 C171 C 0.64060 0.97229 0.25132
 C172 C 0.63793 0.99628 0.23830
 C173 C 0.62746 1.01148 0.27666
 C174 C 0.64161 1.01490 0.25590
 C175 C 0.59735 0.99480 0.25296
 C176 C 0.61116 0.99712 0.23306
 H177 H 0.62496 0.95386 0.28078
 H178 H 0.64917 0.99799 0.22222
 H179 H 0.62914 1.02230 0.29231
 H180 H 0.57829 0.99326 0.25234
 C181 C 0.11230 0.50215 0.76884
 C182 C 0.12419 0.47812 0.76696
 C183 C 0.13725 0.47516 0.74694
 C184 C 0.13761 0.49682 0.73040
 C185 C 0.13224 0.52023 0.76585
 C186 C 0.14549 0.51755 0.74596
 C187 C 0.09816 0.50468 0.74578
 C188 C 0.11121 0.50145 0.72558
 H189 H 0.12141 0.46414 0.77990
 H190 H 0.14878 0.49434 0.71439
 H191 H 0.13401 0.53555 0.77708
 H192 H 0.07974 0.50951 0.74531
 C193 C 0.76945 0.88581 0.00167
 C194 C 0.76706 0.86533 0.01933
 C195 C 0.74703 0.85229 0.01700
 C196 C 0.73095 0.86073 -0.00313
 C197 C 0.76681 0.87466 -0.02264
 C198 C 0.74692 0.86156 -0.02532
 C199 C 0.74652 0.89996 0.00488
 C200 C 0.72625 0.88693 0.00248
 H201 H 0.77916 0.86282 0.03393
 H202 H 0.71499 0.84951 -0.00511
 H203 H 0.77962 0.87724 -0.03682
 H204 H 0.74607 0.91878 0.00719
 C205 C 0.27395 0.38630 0.50332
 C206 C 0.27028 0.36931 0.52426
 C207 C 0.25049 0.35571 0.52285
 C208 C 0.23590 0.36017 0.50043
 C209 C 0.27316 0.37071 0.48143
 C210 C 0.25361 0.35688 0.47988
 C211 C 0.25084 0.40043 0.50199
 C212 C 0.23079 0.38690 0.50081
 H213 H 0.28190 0.36882 0.53942
 H214 H 0.22016 0.34851 0.49940
 H215 H 0.28688 0.37096 0.46792
 H216 H 0.25024 0.41937 0.50070
 C217 C 0.26801 0.61052 0.00457
 C218 C 0.26717 0.62551 -0.01799
 C219 C 0.24783 0.63948 -0.01997
 C220 C 0.23062 0.63715 0.00121
 C221 C 0.26514 0.62797 0.02479
 C222 C 0.24591 0.64202 0.02314
 C223 C 0.24456 0.59668 0.00471
 C224 C 0.22487 0.61046 0.00261
 H225 H 0.28025 0.62389 -0.03199
 H226 H 0.21516 0.64897 -0.00023
 H227 H 0.27708 0.62866 0.03971
 H228 H 0.24342 0.57785 0.00736
 C229 C 0.77569 0.11387 0.50745
 C230 C 0.77317 0.12350 0.48378
 C231 C 0.75277 0.13789 0.48044
 C232 C 0.73847 0.14006 0.50222
 C233 C 0.77493 0.13395 0.52318
 C234 C 0.75461 0.14853 0.52069
 C235 C 0.75348 0.10137 0.51236
 C236 C 0.73250 0.11541 0.50878
 H237 H 0.78625 0.12066 0.46996
 H238 H 0.72335 0.15194 0.49970
 H239 H 0.78646 0.13523 0.53840
 H240 H 0.75291 0.08433 0.52100
 C241 C 1.00543 0.77330 0.88615
 C242 C 1.02829 0.76758 0.87271
 C243 C 1.02704 0.74789 0.85912
 C244 C 1.00282 0.73541 0.86028
 C245 C 0.98642 0.77421 0.86730
 C246 C 0.98473 0.75459 0.85385
 C247 C 1.00015 0.75066 0.90037
 C248 C 0.99905 0.73061 0.88706
 H249 H 1.04463 0.77725 0.87491
 H250 H 1.00188 0.71964 0.84884
 H251 H 0.97403 0.78868 0.86595
 H252 H 0.99846 0.75067 0.91945
 C253 C 0.50203 0.27621 0.38873
 C254 C 0.52260 0.27382 0.37122
 C255 C 0.52193 0.25402 0.35774
 C256 C 0.50052 0.23798 0.36319
 C257 C 0.47987 0.27386 0.37372
 C258 C 0.47902 0.25422 0.36022
 C259 C 0.50241 0.25324 0.40335
 C260 C 0.50196 0.23311 0.39014
 H261 H 0.53706 0.28641 0.37038
 H262 H 0.49986 0.22213 0.35183
 H263 H 0.46578 0.28674 0.37391
 H264 H 0.50179 0.25271 0.42243
 C265 C 1.00426 0.26776 0.61244
 C266 C 0.97991 0.26592 0.62410
 C267 C 0.97652 0.24635 0.63772
 C268 C 0.99823 0.23016 0.63889
 C269 C 1.02181 0.26562 0.63270
 C270 C 1.01882 0.24623 0.64663
 C271 C 1.00711 0.24445 0.59896
 C272 C 1.00347 0.22465 0.61259
 H273 H 0.96601 0.27857 0.62077
 H274 H 0.99541 0.21456 0.65055
 H275 H 1.03673 0.27751 0.63462
 H276 H 1.01220 0.24355 0.58053
 C277 C 0.50340 0.77005 0.11551
 C278 C 0.48145 0.76943 0.13135
 C279 C 0.47886 0.74952 0.14472
 C280 C 0.49902 0.73172 0.14116
 C281 C 0.52408 0.76559 0.13211
 C282 C 0.52191 0.74580 0.14556
 C283 C 0.50184 0.74730 0.10089
 C284 C 0.49928 0.72715 0.11419
 H285 H 0.46796 0.78288 0.13029
 H286 H 0.49723 0.71580 0.15256
 H287 H 0.54001 0.77631 0.13197
 H288 H 0.50439 0.74682 0.08194
 O289 O -0.06887 0.98575 0.98737
 O290 O -0.07108 1.02414 0.99995
 O291 O -0.01559 0.98808 0.93227
 O292 O 0.02238 0.99742 0.92864
 O293 O -0.01370 0.93358 0.98702
 O294 O -0.00129 0.93311 1.02687
 O295 O 0.04727 1.04956 0.99265
 O296 O 0.02858 1.05265 0.95718
 O297 O -0.00624 1.05163 1.04526
 O298 O -0.04283 1.02989 1.05277
 O299 O 0.04546 0.99912 1.04891
 O300 O 0.05299 0.96265 1.02884
 O301 O 0.06364 1.01765 1.01071
 O302 O 0.06575 0.97520 0.99824
 O303 O 0.01263 1.01554 1.06500
 O304 O -0.02899 1.00093 1.06716
 O305 O 0.01126 1.06737 1.01238
 O306 O -0.00795 1.06700 0.97288
 O307 O -0.05258 0.95393 1.00571
 O308 O -0.03079 0.94881 1.04187
 O309 O 0.00242 0.94932 0.95345
 O310 O 0.04017 0.97153 0.94876
 O311 O -0.04887 1.00371 0.94833
 O312 O -0.05214 1.04188 0.96902
 Zr313 Zr -0.04051 1.00955 0.98405
 O314 O -0.02052 1.03252 1.00511
 Zr315 Zr 0.00758 0.98519 0.96098
 O316 O 0.02954 1.00778 0.98042
 Zr317 Zr -0.01665 0.96253 1.00981
 O318 O 0.00481 0.98352 1.03152
 Zr319 Zr 0.01198 1.03929 0.98828
 O320 O -0.00889 1.01803 0.96591
 Zr321 Zr -0.01178 1.01602 1.03720
 O322 O -0.03437 0.99403 1.01746
 Zr323 Zr 0.03633 0.99238 1.01360
 O324 O 0.01624 0.96849 0.99314
 O325 O -0.02462 0.97732 0.97707
 O326 O 0.02044 1.02452 1.02111
 C327 C -0.07024 0.96515 0.99700
 C328 C -0.03678 0.99593 0.93073
 C329 C -0.00553 0.93186 0.96583
 C330 C 0.06485 1.03852 1.00168
 C331 C 0.00288 1.06894 1.03352
 C332 C 0.03390 1.00799 1.06634
 H333 H -0.02947 1.04725 1.00757
 H334 H 0.00778 0.97495 1.04650
 H335 H -0.03468 0.96697 0.96726
 H336 H 0.04416 1.01087 0.97119
 H337 H 0.01813 1.04857 0.94380
 H338 H 0.03035 1.01256 0.93207
 H339 H -0.01981 0.98701 1.07225
 H340 H -0.04216 0.96062 1.04782
 H341 H 0.00163 1.08168 0.97352
 H342 H -0.06708 1.03905 0.96036
 H343 H 0.04190 0.95568 1.04061
 H344 H 0.01498 0.93182 1.02048
 H345 H -0.07151 1.01849 1.01658
 H346 H -0.04900 1.04217 1.04196
 H347 H 0.04463 0.95872 0.95984
 H348 H 0.07050 0.98417 0.98386
 O349 O 0.48578 0.49241 0.43429
 O350 O 0.52382 0.50646 0.43115
 O351 O 0.49006 0.43790 0.48788
 O352 O 0.50016 0.43471 0.52561
 O353 O 0.43425 0.48999 0.49079
 O354 O 0.43286 0.52977 0.50338
 O355 O 0.55099 0.50095 0.54915
 O356 O 0.55459 0.46549 0.53077
 O357 O 0.55118 0.55290 0.49530
 O358 O 0.52881 0.55946 0.45929
 O359 O 0.49846 0.55465 0.54837
 O360 O 0.46297 0.53310 0.55704
 O361 O 0.51870 0.51753 0.56635
 O362 O 0.47656 0.50326 0.56959
 O363 O 0.51414 0.57128 0.51505
 O364 O 0.49945 0.57251 0.47356
 O365 O 0.56787 0.52064 0.51222
 O366 O 0.56807 0.48119 0.49351
 O367 O 0.45371 0.50958 0.45137
 O368 O 0.44765 0.54520 0.47332
 O369 O 0.45091 0.45758 0.50746
 O370 O 0.47406 0.45372 0.54429
 O371 O 0.50511 0.45433 0.45412
 O372 O 0.54265 0.47646 0.44981
 Zr373 Zr 0.51000 0.49015 0.46222
 O374 O 0.53268 0.51210 0.48163
 Zr375 Zr 0.48679 0.46640 0.51117
 O376 O 0.50916 0.48673 0.53254
 Zr377 Zr 0.46256 0.51395 0.48721
 O378 O 0.48328 0.53647 0.50811
 Zr379 Zr 0.54028 0.49576 0.51412
 O380 O 0.51933 0.47258 0.49380
 Zr381 Zr 0.51553 0.54346 0.49072
 O382 O 0.49372 0.52283 0.46869
 Zr383 Zr 0.49296 0.51915 0.53959
 O384 O 0.46934 0.49778 0.52012
 O385 O 0.47810 0.48192 0.47899
 O386 O 0.52480 0.52790 0.52289
 C387 C 0.46495 0.50132 0.43338
 C388 C 0.49782 0.43657 0.46649
 C389 C 0.43305 0.46906 0.49962
 C390 C 0.53992 0.50953 0.56705
 C391 C 0.56894 0.54170 0.50374
 C392 C 0.50653 0.57239 0.53649
 H393 H 0.54726 0.51506 0.47227
 H394 H 0.47427 0.55102 0.51122
 H395 H 0.46785 0.47172 0.46922
 H396 H 0.51271 0.47777 0.54717
 H397 H 0.55078 0.45192 0.52052
 H398 H 0.51519 0.43877 0.53342
 H399 H 0.48535 0.57695 0.48295
 H400 H 0.45922 0.55169 0.46171
 H401 H 0.58288 0.48235 0.50273
 H402 H 0.53989 0.46773 0.43490
 H403 H 0.45525 0.54410 0.54587
 H404 H 0.43170 0.52308 0.51961
 H405 H 0.51775 0.52280 0.43085
 H406 H 0.54107 0.54898 0.45267
 H407 H 0.46117 0.46437 0.54928
 H408 H 0.48614 0.48949 0.57433
 O409 O 0.51383 0.01672 0.43904
 O410 O 0.47576 0.00290 0.43891
 O411 O 0.51375 0.07156 0.49098
 O412 O 0.50268 0.07493 0.52917
 O413 O 0.56871 0.02034 0.49238
 O414 O 0.57096 -0.01968 0.50510
 O415 O 0.45509 0.00708 0.55806
 O416 O 0.45050 0.04330 0.54018
 O417 O 0.45262 -0.04389 0.50529
 O418 O 0.47375 -0.05002 0.46765
 O419 O 0.50827 -0.04520 0.55491
 O420 O 0.54466 -0.02239 0.55990
 O421 O 0.48855 -0.00879 0.57337
 O422 O 0.53005 0.00620 0.57423
 O423 O 0.48934 -0.06140 0.52357
 O424 O 0.50351 -0.06338 0.48127
 O425 O 0.43644 -0.01166 0.52253
 O426 O 0.43508 0.02801 0.50380
 O427 O 0.54728 0.00062 0.45426
 O428 O 0.55493 -0.03489 0.47601
 O429 O 0.55264 0.05250 0.50986
 O430 O 0.53106 0.05679 0.54721
 O431 O 0.49583 0.05504 0.45914
 O432 O 0.45800 0.03294 0.45854
 Zr433 Zr 0.49136 0.01929 0.46859
 O434 O 0.46997 -0.00291 0.48982
 Zr435 Zr 0.51691 0.04346 0.51534
 O436 O 0.49603 0.02273 0.53860
 Zr437 Zr 0.54041 -0.00397 0.49073
 O438 O 0.52102 -0.02686 0.51326
 Zr439 Zr 0.46402 0.01341 0.52250
 O440 O 0.48355 0.03688 0.50040
 Zr441 Zr 0.48792 -0.03408 0.49825
 O442 O 0.50835 -0.01318 0.47454
 Zr443 Zr 0.51295 -0.00956 0.54505
 O444 O 0.53511 0.01224 0.52371
 O445 O 0.52408 0.02780 0.48299
 O446 O 0.48037 -0.01849 0.53064
 C447 C 0.53477 0.00831 0.43691
 C448 C 0.50472 0.07270 0.47015
 C449 C 0.57023 0.04120 0.50110
 C450 C 0.46707 -0.00170 0.57522
 C451 C 0.43517 -0.03285 0.51468
 C452 C 0.49828 -0.06256 0.54438
 H453 H 0.45496 -0.00601 0.48151
 H454 H 0.53022 -0.04137 0.51604
 H455 H 0.53389 0.03790 0.47238
 H456 H 0.49308 0.03153 0.55338
 H457 H 0.45349 0.05703 0.52960
 H458 H 0.48965 0.07030 0.54003
 H459 H 0.51748 -0.06816 0.49052
 H460 H 0.54240 -0.04201 0.46618
 H461 H 0.42084 0.02677 0.51409
 H462 H 0.45978 0.04159 0.44327
 H463 H 0.55077 -0.03482 0.54933
 H464 H 0.57286 -0.01307 0.52116
 H465 H 0.48178 -0.01345 0.43849
 H466 H 0.46037 -0.04025 0.46225
 H467 H 0.54344 0.04565 0.55234
 H468 H 0.52081 0.02017 0.57895
 O469 O 0.00592 0.56624 0.98245
 O470 O -0.00941 0.56754 1.02079
 O471 O 0.06092 0.51592 0.98449
 O472 O 0.06558 0.47817 0.99474
 O473 O 0.00816 0.51250 0.92988
 O474 O -0.03124 0.49837 0.92864
 O475 O 0.00006 0.44956 1.04595
 O476 O 0.03562 0.46904 1.04896
 O477 O -0.05312 0.50030 1.04762
 O478 O -0.06153 0.53634 1.02644
 O479 O -0.05374 0.44919 0.99355
 O480 O -0.03223 0.44320 0.95757
 O481 O -0.01611 0.43278 1.01334
 O482 O -0.00145 0.43188 0.97054
 O483 O -0.07100 0.48070 1.01106
 O484 O -0.07402 0.52284 0.99622
 O485 O -0.02011 0.48420 1.06348
 O486 O 0.01870 0.50493 1.06379
 O487 O -0.01209 0.55010 0.95039
 O488 O -0.04762 0.52689 0.94491
 O489 O 0.04132 0.49668 0.94576
 O490 O 0.04695 0.45944 0.96799
 O491 O 0.04390 0.54765 1.00198
 O492 O 0.02137 0.54982 1.03947
 Zr493 Zr 0.00815 0.53790 1.00651
 O494 O -0.01299 0.51663 1.02897
 Zr495 Zr 0.03321 0.49122 0.98175
 O496 O 0.01384 0.46805 1.00388
 Zr497 Zr -0.01555 0.51386 0.95867
 O498 O -0.03712 0.49099 0.97912
 Zr499 Zr 0.00459 0.48484 1.03558
 O500 O 0.02691 0.50696 1.01486
 Zr501 Zr -0.04428 0.50669 1.01192
 O502 O -0.02460 0.53060 0.99050
 Zr503 Zr -0.01857 0.46012 0.98785
 O504 O 0.00184 0.48159 0.96444
 O505 O 0.01645 0.52276 0.97408
 O506 O -0.02741 0.47520 1.02019
 C507 C -0.00316 0.56765 0.96166
 C508 C 0.06180 0.53675 0.99331
 C509 C 0.02940 0.50478 0.92823
 C510 C -0.00836 0.43181 1.03473
 C511 C -0.04153 0.49139 1.06497
 C512 C -0.07156 0.45958 1.00295
 H513 H -0.01616 0.52519 1.04386
 H514 H -0.05171 0.48748 0.97028
 H515 H 0.02633 0.53324 0.96391
 H516 H 0.02328 0.45376 1.00706
 H517 H 0.04879 0.48014 1.04545
 H518 H 0.06181 0.46896 1.00923
 H519 H -0.07896 0.51305 0.98268
 H520 H -0.05403 0.53792 0.95682
 H521 H 0.01812 0.49503 1.07836
 H522 H 0.02944 0.56524 1.03699
 H523 H -0.04362 0.45412 0.95016
 H524 H -0.02420 0.48251 0.92707
 H525 H -0.02548 0.56770 1.01401
 H526 H -0.05051 0.54382 1.03768
 H527 H 0.03620 0.45435 0.95524
 H528 H 0.01199 0.42687 0.98046
 O529 O 0.06690 0.48208 0.50780
 O530 O 0.06822 0.52046 0.49244
 O531 O 0.01568 0.48285 0.56272
 O532 O -0.02229 0.49170 0.56754
 O533 O 0.01344 0.42892 0.50894
 O534 O -0.00023 0.42798 0.46942
 O535 O -0.05038 0.54318 0.50309
 O536 O -0.03103 0.54623 0.53838
 O537 O 0.00162 0.54685 0.44945
 O538 O 0.03751 0.52651 0.44040
 O539 O -0.04927 0.49118 0.44773
 O540 O -0.05584 0.45563 0.46951
 O541 O -0.06640 0.51137 0.48463
 O542 O -0.06779 0.46872 0.50024
 O543 O -0.01789 0.51003 0.43069
 O544 O 0.02443 0.49638 0.42753
 O545 O -0.01541 0.56179 0.48265
 O546 O 0.00494 0.56184 0.52154
 O547 O 0.05116 0.45022 0.48913
 O548 O 0.02846 0.44503 0.45324
 O549 O -0.00304 0.44386 0.54240
 O550 O -0.04060 0.46527 0.54833
 O551 O 0.04761 0.50097 0.54578
 O552 O 0.05012 0.53843 0.52360
 Zr553 Zr 0.03838 0.50560 0.51001
 O554 O 0.01720 0.52787 0.48922
 Zr555 Zr -0.00861 0.47974 0.53485
 O556 O -0.03170 0.50166 0.51579
 Zr557 Zr 0.01488 0.45793 0.48562
 O558 O -0.00789 0.47816 0.46436
 Zr559 Zr -0.01491 0.53363 0.50699
 O560 O 0.00710 0.51306 0.52897
 Zr561 Zr 0.00774 0.51121 0.45758
 O562 O 0.03160 0.49002 0.47695
 Zr563 Zr -0.03911 0.48608 0.48306
 O564 O -0.01773 0.46283 0.50313
 O565 O 0.02326 0.47294 0.51795
 O566 O -0.02406 0.51866 0.47462
 C567 C 0.06852 0.46152 0.49845
 C568 C 0.03646 0.49209 0.56367
 C569 C 0.00540 0.42678 0.53018
 C570 C -0.06769 0.53224 0.49341
 C571 C -0.00753 0.56378 0.46135
 C572 C -0.03874 0.50096 0.42997
 H573 H 0.02577 0.54287 0.48628
 H574 H -0.01113 0.46941 0.44965
 H575 H 0.03363 0.46291 0.52778
 H576 H -0.04616 0.50444 0.52527
 H577 H -0.02007 0.54260 0.55149
 H578 H -0.03128 0.50620 0.56406
 H579 H 0.01496 0.48257 0.42259
 H580 H 0.03971 0.45709 0.44714
 H581 H -0.00499 0.57619 0.52114
 H582 H 0.06554 0.53612 0.53155
 H583 H -0.04467 0.44833 0.45822
 H584 H -0.01609 0.42580 0.47666
 H585 H 0.06888 0.51349 0.47643
 H586 H 0.04522 0.53712 0.45186
 H587 H -0.04554 0.45277 0.53723
 H588 H -0.07354 0.47899 0.51312
 O589 O 0.51167 0.93364 0.01644
 O590 O 0.49634 0.93272 -0.02141
 O591 O 0.56498 0.98659 0.01474
 O592 O 0.56780 1.02473 0.00359
 O593 O 0.51371 0.98693 0.07080
 O594 O 0.47372 0.99823 0.07389
 O595 O 0.49973 1.05153 -0.04304
 O596 O 0.53565 1.03414 -0.04870
 O597 O 0.44872 0.99720 -0.04415
 O598 O 0.44277 0.96038 -0.02305
 O599 O 0.44758 1.04762 0.01031
 O600 O 0.46987 1.05303 0.04694
 O601 O 0.48401 1.06665 -0.00925
 O602 O 0.49881 1.06760 0.03226
 O603 O 0.43105 1.01517 -0.00621
 O604 O 0.43032 0.97280 0.00757
 O605 O 0.48035 1.01571 -0.06112
 O606 O 0.52035 0.99769 -0.06344
 O607 O 0.49497 0.94833 0.05002
 O608 O 0.45853 0.96908 0.05780
 O609 O 0.54602 1.00439 0.05400
 O610 O 0.54941 1.04218 0.03236
 O611 O 0.54879 0.95457 -0.00315
 O612 O 0.52608 0.95280 -0.04030
 Zr613 Zr 0.51276 0.96281 -0.00660
 O614 O 0.49007 0.98327 -0.02761
 Zr615 Zr 0.53654 1.01007 0.01839
 O616 O 0.51545 1.03257 -0.00236
 Zr617 Zr 0.48941 0.98443 0.04289
 O618 O 0.46622 1.00634 0.02389
 Zr619 Zr 0.50595 1.01618 -0.03417
 O620 O 0.52990 0.99491 -0.01491
 Zr621 Zr 0.45890 0.99092 -0.00895
 O622 O 0.48025 0.96784 0.01108
 Zr623 Zr 0.48316 1.03837 0.01518
 O624 O 0.50526 1.01768 0.03716
 O625 O 0.52124 0.97755 0.02593
 O626 O 0.47402 1.02356 -0.01717
 C627 C 0.50358 0.93135 0.03768
 C628 C 0.56634 0.96593 0.00558
 C629 C 0.53474 0.99555 0.07185
 C630 C 0.49117 1.06858 -0.03087
 C631 C 0.45936 1.00695 -0.06190
 C632 C 0.42991 1.03629 0.00177
 H633 H 0.48693 0.97483 -0.04255
 H634 H 0.45172 1.00882 0.03339
 H635 H 0.53166 0.96737 0.03557
 H636 H 0.52415 1.04745 -0.00553
 H637 H 0.54952 1.02402 -0.04566
 H638 H 0.56298 1.03506 -0.00968
 H639 H 0.42556 0.98180 0.02176
 H640 H 0.45225 0.95804 0.04587
 H641 H 0.51860 1.00771 -0.07779
 H642 H 0.53484 0.93777 -0.03860
 H643 H 0.45735 1.04236 0.05312
 H644 H 0.47947 1.01468 0.07518
 H645 H 0.48036 0.93150 -0.01425
 H646 H 0.45337 0.95425 -0.03556
 H647 H 0.53859 1.04659 0.04544
 H648 H 0.51286 1.07250 0.02288
 O649 O 0.48253 0.51164 0.06692
 O650 O 0.52096 0.49678 0.06877
 O651 O 0.48383 0.56576 0.01549
 O652 O 0.49400 0.57059 -0.02250
 O653 O 0.43047 0.51110 0.01273
 O654 O 0.43008 0.47172 -0.00049
 O655 O 0.54663 0.50730 -0.04992
 O656 O 0.54908 0.54240 -0.03074
 O657 O 0.54910 0.45405 0.00234
 O658 O 0.52818 0.44480 0.03811
 O659 O 0.49489 0.45117 -0.04925
 O660 O 0.45938 0.47191 -0.05635
 O661 O 0.51504 0.48877 -0.06640
 O662 O 0.47211 0.50296 -0.06800
 O663 O 0.51279 0.43463 -0.01736
 O664 O 0.49808 0.43160 0.02503
 O665 O 0.56463 0.48740 -0.01418
 O666 O 0.56371 0.52632 0.00574
 O667 O 0.45109 0.49225 0.05103
 O668 O 0.44678 0.45608 0.02842
 O669 O 0.44556 0.54465 -0.00382
 O670 O 0.46804 0.55090 -0.04120
 O671 O 0.50173 0.54944 0.04757
 O672 O 0.53929 0.52804 0.05060
 Zr673 Zr 0.50674 0.51386 0.03858
 O674 O 0.52963 0.49342 0.01772
 Zr675 Zr 0.48176 0.53787 -0.00888
 O676 O 0.50444 0.51920 -0.03165
 Zr677 Zr 0.45968 0.48854 0.01472
 O678 O 0.48056 0.46767 -0.00787
 Zr679 Zr 0.53615 0.51107 -0.01448
 O680 O 0.51484 0.53272 0.00720
 Zr681 Zr 0.51329 0.46159 0.00818
 O682 O 0.49148 0.48061 0.03184
 Zr683 Zr 0.48920 0.48629 -0.03918
 O684 O 0.46527 0.50589 -0.01804
 O685 O 0.47433 0.52105 0.02306
 O686 O 0.52153 0.47853 -0.02372
 C687 C 0.46192 0.50202 0.06843
 C688 C 0.49270 0.56698 0.03637
 C689 C 0.42833 0.53215 0.00451
 C690 C 0.53596 0.49783 -0.06750
 C691 C 0.56639 0.46615 -0.00637
 C692 C 0.50439 0.43366 -0.03844
 H693 H 0.54444 0.49078 0.02651
 H694 H 0.47196 0.45285 -0.01118
 H695 H 0.46394 0.53070 0.03326
 H696 H 0.50751 0.52865 -0.04615
 H697 H 0.54500 0.55550 -0.01997
 H698 H 0.50871 0.56734 -0.03139
 H699 H 0.48458 0.42630 0.01535
 H700 H 0.45849 0.45052 0.04012
 H701 H 0.57839 0.52613 -0.00396
 H702 H 0.53658 0.53598 0.06599
 H703 H 0.45168 0.46082 -0.04506
 H704 H 0.42836 0.47856 -0.01657
 H705 H 0.51391 0.48077 0.06953
 H706 H 0.53818 0.45658 0.04617
 H707 H 0.45561 0.53968 -0.04620
 H708 H 0.48227 0.51614 -0.07362
 O709 O 0.04832 0.00381 0.44927
 O710 O 0.05307 0.03827 0.46983
 O711 O 0.05146 -0.04976 0.50443
 O712 O 0.03123 -0.06081 0.53628
 O713 O -0.00522 -0.05191 0.45138
 O714 O -0.03993 -0.02998 0.44582
 O715 O -0.01285 0.00836 0.56763
 O716 O 0.02442 -0.00747 0.56901
 O717 O -0.01285 0.06211 0.51761
 O718 O 0.00003 0.06633 0.47632
 O719 O -0.06562 0.01018 0.51484
 O720 O -0.06785 -0.02998 0.50172
 O721 O -0.04592 -0.00754 0.55140
 O722 O -0.05121 -0.04584 0.52879
 O723 O -0.04977 0.04346 0.49855
 O724 O -0.02769 0.05110 0.46090
 O725 O 0.00484 0.04516 0.54945
 O726 O 0.04363 0.02521 0.54921
 O727 O 0.01563 -0.01295 0.43299
 O728 O -0.02495 0.00095 0.43239
 O729 O 0.01279 -0.06909 0.48290
 O730 O -0.00239 -0.07083 0.52458
 O731 O 0.06735 -0.01708 0.48688
 O732 O 0.06731 0.02290 0.50412
 Zr733 Zr 0.03920 0.00692 0.48527
 O734 O 0.01875 0.02858 0.50741
 Zr735 Zr 0.01538 -0.04202 0.50817
 O736 O -0.00533 -0.02233 0.53193
 Zr737 Zr -0.00881 -0.01646 0.46126
 O738 O -0.03133 0.00372 0.48288
 Zr739 Zr 0.01084 0.01023 0.53891
 O740 O 0.03322 -0.01085 0.51776
 Zr741 Zr -0.01417 0.03527 0.49203
 O742 O 0.00746 0.01609 0.46837
 Zr743 Zr -0.03729 -0.01356 0.51552
 O744 O -0.01750 -0.03533 0.49243
 O745 O 0.02338 -0.02503 0.47639
 O746 O -0.02179 0.01860 0.52418
 C747 C 0.03666 -0.00422 0.43157
 C748 C 0.06898 -0.03793 0.49578
 C749 C 0.00349 -0.06984 0.46219
 C750 C -0.03434 0.00095 0.56896
 C751 C -0.00444 0.06284 0.53871
 C752 C -0.06715 0.03153 0.50731
 H753 H 0.02763 0.04327 0.51062
 H754 H -0.04621 0.00658 0.47430
 H755 H 0.03348 -0.03475 0.46596
 H756 H -0.00783 -0.03145 0.54675
 H757 H 0.03921 -0.01520 0.56383
 H758 H 0.02896 -0.05122 0.55066
 H759 H -0.04104 0.04127 0.45544
 H760 H -0.01693 0.01644 0.43061
 H761 H 0.04168 0.03174 0.56536
 H762 H 0.08222 0.02096 0.49497
 H763 H -0.07097 -0.02270 0.48608
 H764 H -0.04726 -0.04063 0.45780
 H765 H 0.04009 0.04563 0.46080
 H766 H 0.01528 0.06975 0.48406
 H767 H -0.01682 -0.07389 0.51526
 H768 H -0.04248 -0.05004 0.54332
 O769 O 0.73943 0.17627 0.26003
 O770 O 0.77877 0.17774 0.25109
 O771 O 0.73139 0.22924 0.31488
 O772 O 0.73919 0.26748 0.31856
 O773 O 0.68227 0.22689 0.25695
 O774 O 0.68433 0.23982 0.21677
 O775 O 0.79256 0.29820 0.25915
 O776 O 0.79483 0.27866 0.29419
 O777 O 0.80479 0.24506 0.20679
 O778 O 0.78642 0.20655 0.19849
 O779 O 0.74733 0.29132 0.19764
 O780 O 0.70923 0.29606 0.21567
 O781 O 0.76159 0.31159 0.23744
 O782 O 0.71825 0.30995 0.24631
 O783 O 0.76865 0.26058 0.18354
 O784 O 0.75829 0.21838 0.18127
 O785 O 0.81569 0.26452 0.24002
 O786 O 0.81401 0.24440 0.27923
 O787 O 0.70772 0.19013 0.23976
 O788 O 0.70345 0.21162 0.20342
 O789 O 0.69395 0.24511 0.29061
 O790 O 0.71267 0.28351 0.29684
 O791 O 0.75211 0.19801 0.30085
 O792 O 0.79215 0.19802 0.28255
 Zr793 Zr 0.76016 0.20680 0.26522
 O794 O 0.78314 0.22898 0.24551
 Zr795 Zr 0.72997 0.25244 0.28571
 O796 O 0.75204 0.27639 0.26738
 Zr797 Zr 0.71341 0.22671 0.23602
 O798 O 0.73448 0.24990 0.21535
 Zr799 Zr 0.78567 0.26188 0.26213
 O800 O 0.76446 0.23894 0.28326
 Zr801 Zr 0.76889 0.23648 0.21212
 O802 O 0.74708 0.21204 0.23071
 Zr803 Zr 0.73911 0.28206 0.23302
 O804 O 0.71536 0.25990 0.25233
 O805 O 0.72610 0.21977 0.26977
 O806 O 0.77321 0.26927 0.22810
 C807 C 0.71979 0.17329 0.24903
 C808 C 0.74130 0.20908 0.31752
 C809 C 0.67812 0.23566 0.27752
 C810 C 0.78092 0.31476 0.24892
 C811 C 0.82007 0.25598 0.21946
 C812 C 0.75866 0.28071 0.18104
 H813 H 0.79881 0.22145 0.24424
 H814 H 0.72693 0.25209 0.19977
 H815 H 0.71576 0.20881 0.27891
 H816 H 0.75290 0.29112 0.27659
 H817 H 0.79064 0.26753 0.30718
 H818 H 0.75284 0.27805 0.31553
 H819 H 0.74352 0.22568 0.17558
 H820 H 0.71693 0.20188 0.19812
 H821 H 0.82769 0.25539 0.27967
 H822 H 0.78984 0.18303 0.29150
 H823 H 0.70384 0.28419 0.20412
 H824 H 0.68080 0.25558 0.22329
 H825 H 0.77521 0.17732 0.23396
 H826 H 0.79885 0.20199 0.20985
 H827 H 0.70115 0.28766 0.28439
 H828 H 0.72517 0.31505 0.26149
 O829 O 0.76356 0.70543 0.69609
 O830 O 0.79874 0.70255 0.71503
 O831 O 0.71226 0.69954 0.75358
 O832 O 0.70228 0.71907 0.78554
 O833 O 0.70508 0.75588 0.69987
 O834 O 0.72503 0.79094 0.69178
 O835 O 0.76888 0.76746 0.81312
 O836 O 0.75732 0.72973 0.81572
 O837 O 0.82222 0.76967 0.75911
 O838 O 0.82504 0.75860 0.71898
 O839 O 0.76714 0.82005 0.75864
 O840 O 0.72660 0.81998 0.74731
 O841 O 0.75000 0.79883 0.79675
 O842 O 0.71221 0.80283 0.77439
 O843 O 0.80012 0.80652 0.74023
 O844 O 0.80672 0.78350 0.70289
 O845 O 0.80764 0.75248 0.79266
 O846 O 0.78955 0.71273 0.79452
 O847 O 0.74536 0.73715 0.67959
 O848 O 0.75575 0.77836 0.67763
 O849 O 0.68993 0.73799 0.73278
 O850 O 0.68985 0.75163 0.77417
 O851 O 0.74534 0.68531 0.73592
 O852 O 0.78627 0.68843 0.75047
 Zr853 Zr 0.76760 0.71499 0.73171
 O854 O 0.78924 0.73716 0.75206
 Zr855 Zr 0.71867 0.73597 0.75619
 O856 O 0.73845 0.75810 0.77833
 Zr857 Zr 0.74088 0.76113 0.70763
 O858 O 0.76078 0.78516 0.72764
 Zr859 Zr 0.77228 0.74436 0.78436
 O860 O 0.75124 0.72042 0.76487
 Zr861 Zr 0.79361 0.77023 0.73564
 O862 O 0.77450 0.74699 0.71367
 Zr863 Zr 0.74482 0.79038 0.76092
 O864 O 0.72306 0.76899 0.73944
 O865 O 0.73441 0.72859 0.72374
 O866 O 0.77835 0.77737 0.76858
 C867 C 0.75529 0.71683 0.67822
 C868 C 0.72492 0.68254 0.74568
 C869 C 0.68777 0.74753 0.71220
 C870 C 0.75883 0.78771 0.81452
 C871 C 0.82463 0.76138 0.78019
 C872 C 0.78763 0.82313 0.74918
 H873 H 0.80452 0.72917 0.75458
 H874 H 0.76240 0.80003 0.71852
 H875 H 0.72467 0.71790 0.71396
 H876 H 0.72964 0.75999 0.79338
 H877 H 0.74983 0.71460 0.81122
 H878 H 0.71280 0.72154 0.79919
 H879 H 0.79667 0.79691 0.69810
 H880 H 0.77171 0.77168 0.67526
 H881 H 0.79712 0.71528 0.81009
 H882 H 0.78450 0.67318 0.74213
 H883 H 0.73288 0.82327 0.73121
 H884 H 0.71530 0.79839 0.70427
 H885 H 0.80515 0.71576 0.70534
 H886 H 0.82837 0.74255 0.72503
 H887 H 0.68564 0.76605 0.76517
 H888 H 0.70806 0.79329 0.78859
 O889 O 0.29725 0.19950 0.74640
 O890 O 0.29754 0.21355 0.70799
 O891 O 0.30385 0.26307 0.78811
 O892 O 0.28352 0.29578 0.79448
 O893 O 0.25215 0.20883 0.80599
 O894 O 0.21363 0.19997 0.79114
 O895 O 0.23118 0.31273 0.72766
 O896 O 0.27022 0.31734 0.73730
 O897 O 0.22757 0.25345 0.68291
 O898 O 0.24077 0.21337 0.68502
 O899 O 0.18023 0.25750 0.74128
 O900 O 0.18277 0.25240 0.78281
 O901 O 0.20077 0.29831 0.75013
 O902 O 0.19992 0.28172 0.79194
 O903 O 0.19307 0.23681 0.70945
 O904 O 0.21660 0.19934 0.70692
 O905 O 0.24287 0.28920 0.69268
 O906 O 0.28476 0.29315 0.70570
 O907 O 0.26662 0.18514 0.76865
 O908 O 0.22499 0.18107 0.76141
 O909 O 0.26857 0.24415 0.81549
 O910 O 0.25198 0.28447 0.81133
 O911 O 0.31702 0.24150 0.75697
 O912 O 0.31144 0.25049 0.71432
 Zr913 Zr 0.28635 0.23393 0.73726
 O914 O 0.26250 0.25096 0.71434
 Zr915 Zr 0.26700 0.26410 0.78385
 O916 O 0.24303 0.28290 0.76264
 Zr917 Zr 0.24225 0.21289 0.77043
 O918 O 0.21666 0.22942 0.74926
 Zr919 Zr 0.25508 0.28465 0.72744
 O920 O 0.28074 0.26861 0.74928
 Zr921 Zr 0.22975 0.23347 0.71451
 O922 O 0.25449 0.21465 0.73521
 Zr923 Zr 0.21103 0.26410 0.76089
 O924 O 0.23428 0.24629 0.78424
 O925 O 0.27454 0.23037 0.77207
 O926 O 0.22236 0.26756 0.72584
 C927 C 0.28682 0.18296 0.75838
 C928 C 0.32047 0.25360 0.77584
 C929 C 0.26185 0.22303 0.82068
 C930 C 0.21086 0.31472 0.73772
 C931 C 0.23330 0.27493 0.67800
 C932 C 0.17662 0.24629 0.72191
 H933 H 0.26945 0.25194 0.69823
 H934 H 0.20202 0.21986 0.74989
 H935 H 0.28626 0.22225 0.78214
 H936 H 0.24095 0.29887 0.76923
 H937 H 0.28613 0.31382 0.74355
 H938 H 0.27905 0.30799 0.78279
 H939 H 0.20379 0.19570 0.71843
 H940 H 0.23061 0.17690 0.74533
 H941 H 0.28102 0.30767 0.69661
 H942 H 0.32698 0.24271 0.71631
 H943 H 0.18108 0.23520 0.78049
 H944 H 0.20862 0.21306 0.80151
 H945 H 0.28433 0.20274 0.70419
 H946 H 0.25614 0.21982 0.67951
 H947 H 0.23831 0.27542 0.81772
 H948 H 0.20897 0.29665 0.79297
 O949 O 0.19984 0.74987 0.30081
 O950 O 0.21350 0.71186 0.30291
 O951 O 0.26451 0.79151 0.30438
 O952 O 0.29680 0.79797 0.28271
 O953 O 0.20940 0.80684 0.25353
 O954 O 0.20081 0.79099 0.21521
 O955 O 0.31296 0.72818 0.23420
 O956 O 0.31767 0.73944 0.27271
 O957 O 0.25291 0.68369 0.23295
 O958 O 0.21297 0.68620 0.24657
 O959 O 0.25811 0.73953 0.18313
 O960 O 0.25377 0.78000 0.18301
 O961 O 0.29922 0.74963 0.20304
 O962 O 0.28224 0.79143 0.20078
 O963 O 0.23665 0.70859 0.19756
 O964 O 0.19898 0.70732 0.22193
 O965 O 0.28879 0.69389 0.24763
 O966 O 0.29286 0.70886 0.28903
 O967 O 0.18553 0.77020 0.26913
 O968 O 0.18169 0.76148 0.22753
 O969 O 0.24498 0.81743 0.26873
 O970 O 0.28544 0.81255 0.25078
 O971 O 0.24202 0.76160 0.31956
 O972 O 0.25070 0.71883 0.31579
 Zr973 Zr 0.23423 0.74041 0.28988
 O974 O 0.25085 0.71646 0.26678
 Zr975 Zr 0.26488 0.78595 0.26770
 O976 O 0.28356 0.76361 0.24470
 Zr977 Zr 0.21346 0.77129 0.24440
 O978 O 0.22988 0.74919 0.21952
 Zr979 Zr 0.28478 0.72909 0.25836
 O980 O 0.26906 0.75220 0.28312
 Zr981 Zr 0.23338 0.71521 0.23414
 O982 O 0.21483 0.73684 0.25832
 Zr983 Zr 0.26481 0.76045 0.21296
 O984 O 0.24703 0.78478 0.23520
 O985 O 0.23103 0.77443 0.27640
 O986 O 0.26773 0.72609 0.22585
 C987 C 0.18330 0.76102 0.28993
 C988 C 0.25474 0.78035 0.32180
 C989 C 0.22361 0.82193 0.26263
 C990 C 0.31539 0.73763 0.21358
 C991 C 0.27431 0.67894 0.23867
 C992 C 0.24649 0.72020 0.18046
 H993 H 0.25158 0.70073 0.27443
 H994 H 0.22036 0.74920 0.20491
 H995 H 0.22301 0.78482 0.28792
 H996 H 0.29964 0.77011 0.24220
 H997 H 0.31423 0.74650 0.28834
 H998 H 0.30846 0.78528 0.28034
 H999 H 0.19569 0.71787 0.20833
 H1000 H 0.17707 0.74588 0.23411
 H1001 H 0.30719 0.69948 0.28552
 H1002 H 0.24307 0.72160 0.33140
 H1003 H 0.23630 0.77978 0.18319
 H1004 H 0.21392 0.80147 0.20996
 H1005 H 0.20283 0.70718 0.28993
 H1006 H 0.21913 0.68158 0.26227
 H1007 H 0.27586 0.81897 0.23764
 H1008 H 0.29762 0.79247 0.20893
 O1009 O 0.25204 0.79439 0.69874
 O1010 O 0.21341 0.79565 0.71197
 O1011 O 0.29140 0.80136 0.76448
 O1012 O 0.29800 0.78048 0.79706
 O1013 O 0.30974 0.74668 0.71166
 O1014 O 0.29291 0.70969 0.70242
 O1015 O 0.22891 0.73118 0.81436
 O1016 O 0.23932 0.77026 0.81747
 O1017 O 0.18514 0.72637 0.75397
 O1018 O 0.18763 0.73961 0.71393
 O1019 O 0.24056 0.67890 0.76110
 O1020 O 0.28332 0.68081 0.75563
 O1021 O 0.25023 0.69992 0.80126
 O1022 O 0.29126 0.69676 0.78580
 O1023 O 0.21097 0.69198 0.73746
 O1024 O 0.20977 0.71619 0.69967
 O1025 O 0.19499 0.74184 0.78963
 O1026 O 0.20839 0.78408 0.79220
 O1027 O 0.27313 0.76287 0.68581
 O1028 O 0.26479 0.72151 0.68280
 O1029 O 0.31874 0.76562 0.74577
 O1030 O 0.31340 0.74914 0.78653
 O1031 O 0.26242 0.81461 0.74018
 O1032 O 0.21967 0.81026 0.74883
 Zr1033 Zr 0.24179 0.78433 0.73341
 O1034 O 0.21764 0.76144 0.75082
 Zr1035 Zr 0.28680 0.76451 0.76534
 O1036 O 0.26441 0.74138 0.78449
 Zr1037 Zr 0.27352 0.73905 0.71452
 O1038 O 0.25105 0.71438 0.73140
 Zr1039 Zr 0.22974 0.75424 0.78515
 O1040 O 0.25277 0.77904 0.76869
 Zr1041 Zr 0.21690 0.72849 0.73421
 O1042 O 0.23890 0.75226 0.71503
 Zr1043 Zr 0.26170 0.70909 0.76666
 O1044 O 0.28622 0.73145 0.74863
 O1045 O 0.27617 0.77165 0.73093
 O1046 O 0.22723 0.72138 0.76891
 C1047 C 0.26362 0.78319 0.68266
 C1048 C 0.28031 0.81795 0.75369
 C1049 C 0.32440 0.75686 0.72557
 C1050 C 0.23817 0.71073 0.81726
 C1051 C 0.18039 0.73191 0.77551
 C1052 C 0.22203 0.67555 0.74848
 H1053 H 0.20178 0.76867 0.75133
 H1054 H 0.25133 0.69964 0.72216
 H1055 H 0.28688 0.78290 0.72262
 H1056 H 0.27062 0.73952 0.80071
 H1057 H 0.24596 0.78597 0.81337
 H1058 H 0.28507 0.77809 0.80871
 H1059 H 0.22052 0.70287 0.69648
 H1060 H 0.24922 0.72758 0.67780
 H1061 H 0.19886 0.78057 0.80663
 H1062 H 0.22222 0.82550 0.74038
 H1063 H 0.27899 0.67696 0.73916
 H1064 H 0.30168 0.70354 0.71625
 H1065 H 0.20929 0.78228 0.70158
 H1066 H 0.18304 0.75543 0.71952
 H1067 H 0.31932 0.73522 0.77788
 H1068 H 0.29360 0.70736 0.79943
 O1069 O 0.25591 0.20496 0.19759
 O1070 O 0.29167 0.20039 0.21552
 O1071 O 0.20595 0.19691 0.25591
 O1072 O 0.19670 0.21528 0.28898
 O1073 O 0.19936 0.25637 0.20524
 O1074 O 0.21997 0.29186 0.19953
 O1075 O 0.26545 0.25989 0.31779
 O1076 O 0.25222 0.22236 0.31844
 O1077 O 0.31768 0.26349 0.26345
 O1078 O 0.31937 0.25419 0.22229
 O1079 O 0.26427 0.31591 0.26560
 O1080 O 0.22277 0.31674 0.25562
 O1081 O 0.24782 0.29307 0.30375
 O1082 O 0.20992 0.29973 0.28348
 O1083 O 0.29680 0.30167 0.24699
 O1084 O 0.30219 0.28114 0.20845
 O1085 O 0.30298 0.24497 0.29622
 O1086 O 0.28380 0.20567 0.29592
 O1087 O 0.23865 0.23831 0.18349
 O1088 O 0.24990 0.27916 0.18362
 O1089 O 0.18409 0.23703 0.23726
 O1090 O 0.18492 0.24873 0.27928
 O1091 O 0.23825 0.18320 0.23643
 O1092 O 0.27922 0.18411 0.25026
 Zr1093 Zr 0.26110 0.21237 0.23358
 O1094 O 0.28372 0.23243 0.25495
 Zr1095 Zr 0.21310 0.23318 0.26023
 O1096 O 0.23396 0.25351 0.28320
 Zr1097 Zr 0.23528 0.26060 0.21295
 O1098 O 0.25643 0.28268 0.23386
 Zr1099 Zr 0.26737 0.23832 0.28782
 O1100 O 0.24538 0.21624 0.26729
 Zr1101 Zr 0.28885 0.26616 0.24036
 O1102 O 0.26857 0.24513 0.21733
 Zr1103 Zr 0.24118 0.28660 0.26766
 O1104 O 0.21828 0.26706 0.24551
 O1105 O 0.22817 0.22734 0.22715
 O1106 O 0.27433 0.27197 0.27389
 C1107 C 0.24767 0.21773 0.18067
 C1108 C 0.21812 0.18018 0.24665
 C1109 C 0.18199 0.24752 0.21711
 C1110 C 0.25664 0.28055 0.32059
 C1111 C 0.32004 0.25420 0.28412
 C1112 C 0.28490 0.31852 0.25621
 H1113 H 0.29877 0.22385 0.25682
 H1114 H 0.25838 0.29793 0.22547
 H1115 H 0.21800 0.21748 0.21696
 H1116 H 0.22555 0.25486 0.29854
 H1117 H 0.24429 0.20773 0.31316
 H1118 H 0.20727 0.21717 0.30270
 H1119 H 0.29221 0.29483 0.20435
 H1120 H 0.26578 0.27249 0.18074
 H1121 H 0.29155 0.20709 0.31156
 H1122 H 0.27722 0.16960 0.24073
 H1123 H 0.22936 0.32119 0.23992
 H1124 H 0.20993 0.29820 0.21240
 H1125 H 0.29797 0.21393 0.20622
 H1126 H 0.32272 0.23803 0.22803
 H1127 H 0.18143 0.26394 0.27134
 H1128 H 0.20512 0.28868 0.29631
 O1129 O 0.80080 0.69934 0.24470
 O1130 O 0.80199 0.71176 0.20597
 O1131 O 0.80897 0.76457 0.28384
 O1132 O 0.78912 0.79787 0.28912
 O1133 O 0.75557 0.71211 0.30339
 O1134 O 0.71693 0.70409 0.28874
 O1135 O 0.73963 0.81429 0.22173
 O1136 O 0.77850 0.81714 0.23012
 O1137 O 0.73294 0.75277 0.17861
 O1138 O 0.74570 0.71251 0.18211
 O1139 O 0.68566 0.76056 0.23547
 O1140 O 0.68747 0.75734 0.27725
 O1141 O 0.70727 0.80097 0.24213
 O1142 O 0.70559 0.78672 0.28523
 O1143 O 0.69835 0.73726 0.20545
 O1144 O 0.72131 0.69963 0.20438
 O1145 O 0.74910 0.78848 0.18710
 O1146 O 0.79160 0.79120 0.19981
 O1147 O 0.76947 0.68659 0.26693
 O1148 O 0.72756 0.68376 0.25980
 O1149 O 0.77263 0.74742 0.31184
 O1150 O 0.75730 0.78807 0.30573
 O1151 O 0.82160 0.74110 0.25390
 O1152 O 0.81689 0.74852 0.21095
 Zr1153 Zr 0.79104 0.73365 0.23419
 O1154 O 0.76810 0.75041 0.21024
 Zr1155 Zr 0.77210 0.76619 0.27933
 O1156 O 0.74905 0.78485 0.25694
 Zr1157 Zr 0.74600 0.71525 0.26765
 O1158 O 0.72120 0.73173 0.24546
 Zr1159 Zr 0.76167 0.78481 0.22189
 O1160 O 0.78642 0.76890 0.24481
 Zr1161 Zr 0.73488 0.73383 0.21080
 O1162 O 0.75872 0.71516 0.23258
 Zr1163 Zr 0.71642 0.76712 0.25531
 O1164 O 0.73878 0.74949 0.27980
 O1165 O 0.77879 0.73180 0.26900
 O1166 O 0.72845 0.76866 0.22044
 C1167 C 0.78969 0.68345 0.25692
 C1168 C 0.82535 0.75407 0.27210
 C1169 C 0.76539 0.72661 0.31770
 C1170 C 0.71876 0.81691 0.23030
 C1171 C 0.73898 0.77398 0.17299
 C1172 C 0.68203 0.74800 0.21695
 H1173 H 0.77518 0.75054 0.19416
 H1174 H 0.70629 0.72259 0.24633
 H1175 H 0.79017 0.72373 0.27950
 H1176 H 0.74745 0.80112 0.26289
 H1177 H 0.79405 0.81312 0.23695
 H1178 H 0.78602 0.80942 0.27634
 H1179 H 0.70843 0.69657 0.21597
 H1180 H 0.73346 0.67843 0.24418
 H1181 H 0.78820 0.80515 0.18971
 H1182 H 0.83216 0.74037 0.21343
 H1183 H 0.68560 0.74004 0.27604
 H1184 H 0.71216 0.71784 0.29834
 H1185 H 0.78835 0.70152 0.20210
 H1186 H 0.76105 0.71867 0.17621
 H1187 H 0.74312 0.77978 0.31204
 H1188 H 0.71470 0.80166 0.28526
 O1189 O 0.69870 0.24899 0.79850
 O1190 O 0.71225 0.21126 0.79844
 O1191 O 0.76326 0.29052 0.80449
 O1192 O 0.79537 0.29845 0.78327
 O1193 O 0.70825 0.30901 0.75364
 O1194 O 0.69915 0.29463 0.71524
 O1195 O 0.81183 0.23168 0.73087
 O1196 O 0.81637 0.24075 0.77003
 O1197 O 0.75229 0.18719 0.72607
 O1198 O 0.71229 0.18850 0.74060
 O1199 O 0.75713 0.24556 0.68027
 O1200 O 0.75239 0.28652 0.68287
 O1201 O 0.79794 0.25425 0.70059
 O1202 O 0.78138 0.29621 0.70065
 O1203 O 0.73533 0.21405 0.69274
 O1204 O 0.69787 0.21108 0.71736
 O1205 O 0.78790 0.19703 0.74162
 O1206 O 0.79174 0.20898 0.78415
 O1207 O 0.68436 0.27139 0.76827
 O1208 O 0.68034 0.26454 0.72629
 O1209 O 0.74377 0.31858 0.76954
 O1210 O 0.78432 0.31466 0.75233
 O1211 O 0.74123 0.25953 0.81800
 O1212 O 0.74958 0.21707 0.81136
 Zr1213 Zr 0.73309 0.24038 0.78700
 O1214 O 0.74977 0.21784 0.76249
 Zr1215 Zr 0.76357 0.28717 0.76748
 O1216 O 0.78234 0.26633 0.74316
 Zr1217 Zr 0.71217 0.27372 0.74339
 O1218 O 0.72869 0.25314 0.71719
 Zr1219 Zr 0.78360 0.23118 0.75490
 O1220 O 0.76785 0.25268 0.78097
 Zr1221 Zr 0.73234 0.21837 0.72976
 O1222 O 0.71376 0.23853 0.75524
 Zr1223 Zr 0.76362 0.26486 0.71126
 O1224 O 0.74574 0.28773 0.73494
 O1225 O 0.72973 0.27518 0.77557
 O1226 O 0.76661 0.22993 0.72224
 C1227 C 0.68213 0.26076 0.78837
 C1228 C 0.75394 0.27812 0.82133
 C1229 C 0.72266 0.32370 0.76307
 C1230 C 0.81411 0.24171 0.71052
 C1231 C 0.77385 0.18258 0.73133
 C1232 C 0.74546 0.22648 0.67638
 H1233 H 0.75065 0.20168 0.76913
 H1234 H 0.71916 0.25395 0.70260
 H1235 H 0.72174 0.28503 0.78759
 H1236 H 0.79842 0.27295 0.74103
 H1237 H 0.81283 0.24669 0.78612
 H1238 H 0.80705 0.28589 0.78036
 H1239 H 0.69441 0.22249 0.70451
 H1240 H 0.67578 0.24867 0.73223
 H1241 H 0.80607 0.19988 0.77998
 H1242 H 0.74211 0.21891 0.82720
 H1243 H 0.73502 0.28491 0.68196
 H1244 H 0.71241 0.30484 0.70984
 H1245 H 0.70221 0.20680 0.78489
 H1246 H 0.71889 0.18272 0.75573
 H1247 H 0.77516 0.32136 0.73903
 H1248 H 0.79671 0.29674 0.70893
 C1249 C 0.07604 1.00415 1.15898
 C1250 C 0.07826 1.02369 1.17388
 C1251 C 0.08973 1.02146 1.19562
 C1252 C 0.09951 0.99975 1.20277
 C1253 C 0.09542 0.97985 1.18853
 C1254 C 0.08409 0.98212 1.16681
 C1255 C 0.06587 1.00659 1.13506
 C1256 C 0.07701 0.99584 1.11568
 C1257 C 0.06703 0.99698 1.09321
 C1258 C 0.04557 1.00880 1.08966
 C1259 C 0.03476 1.02016 1.10897
 C1260 C 0.04489 1.01914 1.13145
 H1261 H 0.09170 1.03696 1.20654
 H1262 H 0.10083 0.96238 1.19373
 H1263 H 0.07586 0.98809 1.07875
 H1264 H 0.01826 1.02948 1.10681
 H1265 H 0.08170 0.96659 1.15601
 H1266 H 0.09343 0.98639 1.11795
 H1267 H 0.07189 1.04083 1.16837
 H1268 H 0.03597 1.02755 1.14615
 C1269 C 0.58464 0.50472 0.65881
 C1270 C 0.57070 0.50180 0.67934
 C1271 C 0.58112 0.50054 0.70170
 C1272 C 0.60584 0.50227 0.70405
 C1273 C 0.61971 0.50444 0.68331
 C1274 C 0.60929 0.50583 0.66105
 C1275 C 0.57355 0.50660 0.63513
 C1276 C 0.58393 0.49572 0.61536
 C1277 C 0.57335 0.49722 0.59313
 C1278 C 0.55206 0.50951 0.59019
 C1279 C 0.54186 0.52068 0.60990
 C1280 C 0.55251 0.51928 0.63210
 H1281 H 0.56956 0.49812 0.71678
 H1282 H 0.63878 0.50553 0.68442
 H1283 H 0.58160 0.48825 0.57839
 H1284 H 0.52552 0.53039 0.60824
 H1285 H 0.62056 0.50823 0.64563
 H1286 H 0.59997 0.48557 0.61715
 H1287 H 0.55167 0.50028 0.67812
 H1288 H 0.54432 0.52823 0.64688
 C1289 C 0.42158 -0.00832 0.66703
 C1290 C 0.39780 -0.01519 0.66887
 C1291 C 0.38622 -0.01508 0.69071
 C1292 C 0.39823 -0.00869 0.71149
 C1293 C 0.42210 -0.00169 0.70954
 C1294 C 0.43370 -0.00177 0.68759
 C1295 C 0.43327 -0.00692 0.64353
 C1296 C 0.45661 -0.01462 0.64045
 C1297 C 0.46758 -0.01306 0.61824
 C1298 C 0.45542 -0.00371 0.59868
 C1299 C 0.43204 0.00395 0.60182
 C1300 C 0.42112 0.00238 0.62400
 H1301 H 0.36759 -0.01947 0.69118
 H1302 H 0.43171 0.00468 0.72471
 H1303 H 0.48559 -0.01917 0.61643
 H1304 H 0.42218 0.01132 0.58719
 H1305 H 0.45189 0.00418 0.68656
 H1306 H 0.46630 -0.02206 0.65517
 H1307 H 0.38802 -0.02036 0.65331
 H1308 H 0.40323 0.00881 0.62594
 C1309 C -0.08606 0.48925 1.15734
 C1310 C -0.11060 0.48669 1.15997
 C1311 C -0.12111 0.48792 1.18230
 C1312 C -0.10737 0.49118 1.20272
 C1313 C -0.08277 0.49403 1.19999
 C1314 C -0.07225 0.49292 1.17757
 C1315 C -0.07504 0.48893 1.13348
 C1316 C -0.05327 0.47773 1.12976
 C1317 C -0.04256 0.47815 1.10740
 C1318 C -0.05344 0.48975 1.08830
 C1319 C -0.07544 0.50056 1.09195
 C1320 C -0.08607 0.50021 1.11431
 H1321 H -0.14016 0.48641 1.18362
 H1322 H -0.07152 0.49781 1.21486
 H1323 H -0.02568 0.46952 1.10515
 H1324 H -0.08424 0.50975 1.07766
 H1325 H -0.05334 0.49562 1.17598
 H1326 H -0.04454 0.46860 1.14413
 H1327 H -0.12171 0.48375 1.14473
 H1328 H -0.10269 0.50929 1.11671
 C1329 C -0.08501 0.49810 0.33873
 C1330 C -0.07210 0.50400 0.31813
 C1331 C -0.08254 0.50270 0.29585
 C1332 C -0.10609 0.49506 0.29345
 C1333 C -0.11893 0.48886 0.31399
 C1334 C -0.10860 0.49053 0.33635
 C1335 C -0.07378 0.49953 0.36250
 C1336 C -0.07971 0.48317 0.38047
 C1337 C -0.06874 0.48408 0.40253
 C1338 C -0.05126 0.50111 0.40707
 C1339 C -0.04538 0.51759 0.38927
 C1340 C -0.05667 0.51696 0.36732
 H1341 H -0.07214 0.50806 0.28054
 H1342 H -0.13695 0.48253 0.31290
 H1343 H -0.07347 0.47097 0.41582
 H1344 H -0.03212 0.53105 0.39236
 H1345 H -0.11924 0.48610 0.35177
 H1346 H -0.09242 0.46922 0.37736
 H1347 H -0.05378 0.50947 0.31913
 H1348 H -0.05200 0.53021 0.35417
 C1349 C 0.41408 1.00288 -0.15362
 C1350 C 0.42830 1.00337 -0.17408
 C1351 C 0.41834 1.00116 -0.19652
 C1352 C 0.39370 0.99822 -0.19939
 C1353 C 0.37957 0.99741 -0.17864
 C1354 C 0.38960 0.99982 -0.15620
 C1355 C 0.42486 1.00508 -0.12973
 C1356 C 0.41604 0.99181 -0.11044
 C1357 C 0.42681 0.99301 -0.08829
 C1358 C 0.44684 1.00735 -0.08489
 C1359 C 0.45541 1.02101 -0.10401
 C1360 C 0.44448 1.01998 -0.12613
 H1361 H 0.43027 1.00257 -0.21149
 H1362 H 0.36076 0.99439 -0.17917
 H1363 H 0.41984 0.98211 -0.07400
 H1364 H 0.47069 1.03237 -0.10195
 H1365 H 0.37805 0.99945 -0.14082
 H1366 H 0.40121 0.97989 -0.11259
 H1367 H 0.44729 1.00531 -0.17280
 H1368 H 0.45145 1.03084 -0.14044
 C1369 C 0.58358 0.49867 -0.15907
 C1370 C 0.60651 0.50804 -0.16218
 C1371 C 0.61704 0.50929 -0.18470
 C1372 C 0.60512 0.50085 -0.20472
 C1373 C 0.58238 0.49106 -0.20150
 C1374 C 0.57170 0.49025 -0.17912
 C1375 C 0.57191 0.49797 -0.13520
 C1376 C 0.55563 0.47996 -0.12914
 C1377 C 0.54389 0.47994 -0.10723
 C1378 C 0.54854 0.49760 -0.09059
 C1379 C 0.56516 0.51527 -0.09629
 C1380 C 0.57651 0.51561 -0.11839
 H1381 H 0.63441 0.51717 -0.18630
 H1382 H 0.57271 0.48379 -0.21621
 H1383 H 0.53137 0.46594 -0.10318
 H1384 H 0.56895 0.52923 -0.08386
 H1385 H 0.55391 0.48327 -0.17769
 H1386 H 0.55199 0.46571 -0.14124
 H1387 H 0.61649 0.51434 -0.14720
 H1388 H 0.58850 0.53005 -0.12242
 C1389 C 0.08064 -0.00017 0.33841
 C1390 C 0.10415 0.00745 0.33511
 C1391 C 0.11431 0.00851 0.31243
 C1392 C 0.10138 0.00163 0.29242
 C1393 C 0.07785 -0.00598 0.29579
 C1394 C 0.06759 -0.00661 0.31836
 C1395 C 0.06974 -0.00150 0.36256
 C1396 C 0.07597 0.01479 0.38017
 C1397 C 0.06554 0.01363 0.40270
 C1398 C 0.04829 -0.00355 0.40802
 C1399 C 0.04202 -0.01984 0.39054
 C1400 C 0.05279 -0.01900 0.36818
 H1401 H 0.13230 0.01479 0.31080
 H1402 H 0.06727 -0.01194 0.28112
 H1403 H 0.07056 0.02656 0.41579
 H1404 H 0.02897 -0.03345 0.39425
 H1405 H 0.04931 -0.01213 0.32000
 H1406 H 0.08859 0.02878 0.37648
 H1407 H 0.11493 0.01229 0.35008
 H1408 H 0.04792 -0.03225 0.35539
 C1409 C 0.15749 1.08158 0.99513
 C1410 C 0.16001 1.10611 0.99285
 C1411 C 0.18238 1.11646 0.99212
 C1412 C 0.20291 1.10266 0.99381
 C1413 C 0.20035 1.07798 0.99561
 C1414 C 0.17790 1.06760 0.99613
 C1415 C 0.13364 1.07073 0.99707
 C1416 C 0.12945 1.05164 1.01261
 C1417 C 0.10701 1.04143 1.01444
 C1418 C 0.08822 1.05023 1.00092
 C1419 C 0.09230 1.06956 0.98568
 C1420 C 0.11479 1.07961 0.98368
 H1421 H 0.18369 1.13551 0.99101
 H1422 H 0.21534 1.06646 0.99721
 H1423 H 0.10439 1.02663 1.02644
 H1424 H 0.07825 1.07658 0.97483
 H1425 H 0.17652 1.04858 0.99751
 H1426 H 0.14348 1.04471 1.02354
 H1427 H 0.14469 1.11745 0.99240
 H1428 H 0.11749 1.09409 0.97132
 C1429 C 0.66133 0.58528 0.49568
 C1430 C 0.66439 0.60964 0.49861
 C1431 C 0.68684 0.61977 0.49703
 C1432 C 0.70694 0.60586 0.49268
 C1433 C 0.70371 0.58151 0.48900
 C1434 C 0.68117 0.57138 0.49055
 C1435 C 0.63755 0.57442 0.49828
 C1436 C 0.63466 0.55271 0.51014
 C1437 C 0.61231 0.54236 0.51243
 C1438 C 0.59233 0.55351 0.50292
 C1439 C 0.59520 0.57544 0.49142
 C1440 C 0.61756 0.58575 0.48910
 H1441 H 0.68866 0.63857 0.49982
 H1442 H 0.71827 0.56998 0.48510
 H1443 H 0.61076 0.52549 0.52146
 H1444 H 0.58023 0.58445 0.48375
 H1445 H 0.67924 0.55261 0.48768
 H1446 H 0.64968 0.54377 0.51778
 H1447 H 0.64950 0.62083 0.50275
 H1448 H 0.61926 0.60239 0.47968
 C1449 C 0.65819 0.42201 -0.00601
 C1450 C 0.65952 0.39771 -0.00993
 C1451 C 0.68108 0.38620 -0.00898
 C1452 C 0.70236 0.39862 -0.00473
 C1453 C 0.70083 0.42313 -0.00047
 C1454 C 0.67902 0.43465 -0.00133
 C1455 C 0.63487 0.43372 -0.00604
 C1456 C 0.63185 0.45591 -0.01678
 C1457 C 0.60956 0.46644 -0.01718
 C1458 C 0.58991 0.45493 -0.00683
 C1459 C 0.59306 0.43277 0.00396
 C1460 C 0.61526 0.42235 0.00443
 H1461 H 0.68113 0.36727 -0.01155
 H1462 H 0.71609 0.43357 0.00418
 H1463 H 0.60773 0.48356 -0.02560
 H1464 H 0.57841 0.42349 0.01234
 H1465 H 0.67836 0.45336 0.00233
 H1466 H 0.64663 0.46496 -0.02517
 H1467 H 0.64380 0.38748 -0.01374
 H1468 H 0.61711 0.40544 0.01325
 C1469 C 0.16197 -0.07953 0.50049
 C1470 C 0.18229 -0.06528 0.50203
 C1471 C 0.20476 -0.07537 0.50294
 C1472 C 0.20740 -0.10005 0.50249
 C1473 C 0.18693 -0.11419 0.50113
 C1474 C 0.16457 -0.10411 0.50009
 C1475 C 0.13812 -0.06891 0.49910
 C1476 C 0.11885 -0.07945 0.51103
 C1477 C 0.09635 -0.06963 0.50960
 C1478 C 0.09262 -0.04892 0.49634
 C1479 C 0.11187 -0.03839 0.48434
 C1480 C 0.13436 -0.04832 0.48566
 H1481 H 0.21972 -0.06358 0.50372
 H1482 H 0.18833 -0.13323 0.50049
 H1483 H 0.08197 -0.07808 0.51923
 H1484 H 0.10959 -0.02247 0.47390
 H1485 H 0.14934 -0.11561 0.49849
 H1486 H 0.12122 -0.09512 0.52181
 H1487 H 0.18082 -0.04626 0.50265
 H1488 H 0.14876 -0.04000 0.47594
 C1489 C 0.34335 -0.07828 0.51158
 C1490 C 0.32488 -0.06572 0.50091
 C1491 C 0.30263 -0.07608 0.49822
 C1492 C 0.29822 -0.09924 0.50627
 C1493 C 0.31673 -0.11185 0.51687
 C1494 C 0.33906 -0.10150 0.51945
 C1495 C 0.36704 -0.06721 0.51408
 C1496 C 0.38762 -0.07990 0.50867
 C1497 C 0.40981 -0.06895 0.50947
 C1498 C 0.41193 -0.04509 0.51583
 C1499 C 0.39138 -0.03266 0.52204
 C1500 C 0.36920 -0.04358 0.52109
 H1501 H 0.28898 -0.06601 0.48949
 H1502 H 0.31394 -0.12956 0.52361
 H1503 H 0.42525 -0.07909 0.50466
 H1504 H 0.39232 -0.01429 0.52708
 H1505 H 0.35290 -0.11153 0.52794
 H1506 H 0.38649 -0.09810 0.50308
 H1507 H 0.32777 -0.04796 0.49425
 H1508 H 0.35368 -0.03346 0.52571
 C1509 C -0.16304 0.41283 1.00349
 C1510 C -0.18312 0.42681 1.00698
 C1511 C -0.20576 0.41709 1.00580
 C1512 C -0.20937 0.39297 1.00067
 C1513 C -0.18905 0.37897 0.99720
 C1514 C -0.16630 0.38876 0.99864
 C1515 C -0.13896 0.42363 1.00448
 C1516 C -0.12086 0.41630 0.98903
 C1517 C -0.09877 0.42754 0.98897
 C1518 C -0.09434 0.44657 1.00416
 C1519 C -0.11219 0.45356 1.01999
 C1520 C -0.13413 0.44212 1.02028
 H1521 H -0.22029 0.42878 1.00956
 H1522 H -0.19024 0.36055 0.99269
 H1523 H -0.08540 0.42179 0.97649
 H1524 H -0.10922 0.46794 1.03215
 H1525 H -0.15124 0.37737 0.99602
 H1526 H -0.12396 0.40236 0.97641
 H1527 H -0.18143 0.44550 1.01042
 H1528 H -0.14737 0.44787 1.03287
 C1529 C -0.15750 0.58106 0.48950
 C1530 C -0.17714 0.57080 0.47833
 C1531 C -0.19899 0.58217 0.47816
 C1532 C -0.20209 0.60389 0.48967
 C1533 C -0.18244 0.61425 0.50065
 C1534 C -0.16043 0.60316 0.50032
 C1535 C -0.13429 0.56859 0.49031
 C1536 C -0.11903 0.57151 0.50969
 C1537 C -0.09734 0.55989 0.51051
 C1538 C -0.09060 0.54454 0.49233
 C1539 C -0.10579 0.54128 0.47310
 C1540 C -0.12724 0.55339 0.47193
 H1541 H -0.21345 0.57375 0.46901
 H1542 H -0.18397 0.63071 0.51006
 H1543 H -0.08601 0.56253 0.52566
 H1544 H -0.10084 0.52974 0.45870
 H1545 H -0.14573 0.61201 0.50866
 H1546 H -0.12392 0.58248 0.52451
 H1547 H -0.17587 0.55371 0.47006
 H1548 H -0.13811 0.55100 0.45644
 C1549 C 0.33859 1.08201 0.00133
 C1550 C 0.31874 1.06987 0.01034
 C1551 C 0.29646 1.08031 0.01004
 C1552 C 0.29343 1.10310 0.00055
 C1553 C 0.31339 1.11542 -0.00803
 C1554 C 0.33573 1.10499 -0.00764
 C1555 C 0.36210 1.07054 0.00107
 C1556 C 0.38252 1.08313 0.00743
 C1557 C 0.40456 1.07208 0.00757
 C1558 C 0.40667 1.04824 0.00121
 C1559 C 0.38624 1.03578 -0.00544
 C1560 C 0.36424 1.04679 -0.00546
 H1561 H 0.28165 1.07052 0.01743
 H1562 H 0.31181 1.13291 -0.01558
 H1563 H 0.41992 1.08223 0.01274
 H1564 H 0.38719 1.01742 -0.01050
 H1565 H 0.35068 1.11470 -0.01489
 H1566 H 0.38138 1.10141 0.01271
 H1567 H 0.32049 1.05233 0.01784
 H1568 H 0.34886 1.03674 -0.01079
 C1569 C 0.00112 1.16034 1.07792
 C1570 C 0.00258 1.16197 1.10264
 C1571 C 0.00158 1.18381 1.11363
 C1572 C -0.00075 1.20473 1.10028
 C1573 C -0.00210 1.20308 1.07543
 C1574 C -0.00123 1.18110 1.06442
 C1575 C 0.00184 1.13698 1.06644
 C1576 C 0.01442 1.13370 1.04517
 C1577 C 0.01504 1.11154 1.03452
 C1578 C 0.00316 1.09224 1.04503
 C1579 C -0.00928 1.09556 1.06637
 C1580 C -0.01000 1.11767 1.07689
 H1581 H 0.00293 1.18446 1.13275
 H1582 H -0.00367 1.21843 1.06419
 H1583 H 0.02481 1.10954 1.01810
 H1584 H -0.01882 1.08114 1.07483
 H1585 H -0.00264 1.18032 1.04532
 H1586 H 0.02397 1.14820 1.03689
 H1587 H 0.00484 1.14635 1.11353
 H1588 H -0.02017 1.11973 1.09306
 C1589 C 0.50270 0.66379 0.58101
 C1590 C 0.49806 0.68446 0.56796
 C1591 C 0.49723 0.70638 0.57919
 C1592 C 0.50112 0.70803 0.60374
 C1593 C 0.50549 0.68717 0.61664
 C1594 C 0.50639 0.66543 0.60546
 C1595 C 0.50369 0.64048 0.56938
 C1596 C 0.49391 0.62052 0.58073
 C1597 C 0.49527 0.59839 0.57025
 C1598 C 0.50631 0.59570 0.54806
 C1599 C 0.51610 0.61567 0.53666
 C1600 C 0.51481 0.63784 0.54724
 H1601 H 0.49351 0.72170 0.56844
 H1602 H 0.50855 0.68779 0.63555
 H1603 H 0.48732 0.58346 0.57942
 H1604 H 0.52472 0.61421 0.51955
 H1605 H 0.51035 0.64991 0.61597
 H1606 H 0.48490 0.62204 0.59764
 H1607 H 0.49481 0.68363 0.54910
 H1608 H 0.52278 0.65286 0.53824
 C1609 C -0.00721 0.65678 0.41895
 C1610 C -0.00424 0.65947 0.39440
 C1611 C -0.00322 0.68182 0.38414
 C1612 C -0.00573 0.70224 0.39797
 C1613 C -0.00861 0.69955 0.42265
 C1614 C -0.00932 0.67705 0.43299
 C1615 C -0.00769 0.63287 0.42975
 C1616 C -0.02287 0.62753 0.44889
 C1617 C -0.02311 0.60497 0.45901
 C1618 C -0.00835 0.58727 0.45001
 C1619 C 0.00660 0.59253 0.43071
 C1620 C 0.00705 0.61510 0.42081
 H1621 H -0.00071 0.68322 0.36513
 H1622 H -0.01004 0.71449 0.43425
 H1623 H -0.03488 0.60137 0.47384
 H1624 H 0.01842 0.57935 0.42360
 H1625 H -0.01113 0.67554 0.45205
 H1626 H -0.03471 0.64072 0.45593
 H1627 H -0.00291 0.64427 0.38299
 H1628 H 0.01931 0.61874 0.40641
 C1629 C 0.48820 1.16072 -0.07556
 C1630 C 0.49154 1.18139 -0.06237
 C1631 C 0.49248 1.20347 -0.07365
 C1632 C 0.48990 1.20533 -0.09839
 C1633 C 0.48647 1.18451 -0.11140
 C1634 C 0.48537 1.16260 -0.10016
 C1635 C 0.48863 1.13713 -0.06402
 C1636 C 0.50004 1.11825 -0.07524
 C1637 C 0.50055 1.09599 -0.06461
 C1638 C 0.48982 1.09207 -0.04240
 C1639 C 0.47839 1.11094 -0.03113
 C1640 C 0.47779 1.13324 -0.04185
 H1641 H 0.49601 1.21872 -0.06289
 H1642 H 0.48496 1.18517 -0.13051
 H1643 H 0.50968 1.08193 -0.07371
 H1644 H 0.46988 1.10850 -0.01403
 H1645 H 0.48248 1.14707 -0.11081
 H1646 H 0.50895 1.12077 -0.09212
 H1647 H 0.49422 1.18044 -0.04341
 H1648 H 0.46864 1.14738 -0.03290
 C1649 C 0.50238 0.34174 -0.08308
 C1650 C 0.50766 0.32169 -0.06935
 C1651 C 0.50581 0.29908 -0.07884
 C1652 C 0.49817 0.29572 -0.10226
 C1653 C 0.49292 0.31575 -0.11605
 C1654 C 0.49514 0.33844 -0.10665
 C1655 C 0.50391 0.36584 -0.07262
 C1656 C 0.48793 0.38357 -0.07934
 C1657 C 0.48860 0.40577 -0.06873
 C1658 C 0.50500 0.41072 -0.05084
 C1659 C 0.52121 0.39322 -0.04431
 C1660 C 0.52082 0.37114 -0.05523
 H1661 H 0.51061 0.28428 -0.06771
 H1662 H 0.48679 0.31406 -0.13405
 H1663 H 0.47573 0.41882 -0.07401
 H1664 H 0.53421 0.39660 -0.03075
 H1665 H 0.49126 0.35340 -0.11796
 H1666 H 0.47437 0.38014 -0.09230
 H1667 H 0.51292 0.32334 -0.05104
 H1668 H 0.53382 0.35823 -0.04996
 C1669 C -0.00335 -0.16148 0.41780
 C1670 C 0.00076 -0.18185 0.43145
 C1671 C -0.00091 -0.20422 0.42143
 C1672 C -0.00722 -0.20699 0.39751
 C1673 C -0.01174 -0.18661 0.38397
 C1674 C -0.00973 -0.16417 0.39393
 C1675 C -0.00095 -0.13763 0.42849
 C1676 C -0.01600 -0.11914 0.42172
 C1677 C -0.01413 -0.09699 0.43226
 C1678 C 0.00258 -0.09286 0.45006
 C1679 C 0.01780 -0.11120 0.45669
 C1680 C 0.01620 -0.13324 0.44589
 H1681 H 0.00336 -0.21921 0.43250
 H1682 H -0.01678 -0.18777 0.36561
 H1683 H -0.02626 -0.08326 0.42691
 H1684 H 0.03102 -0.10848 0.47019
 H1685 H -0.01277 -0.14891 0.38274
 H1686 H -0.02964 -0.12191 0.40869
 H1687 H 0.00529 -0.18058 0.45000
 H1688 H 0.02849 -0.14683 0.45116
 C1689 C 0.49567 -0.15482 0.58940
 C1690 C 0.50690 -0.15949 0.61108
 C1691 C 0.50776 -0.18242 0.62035
 C1692 C 0.49694 -0.20129 0.60848
 C1693 C 0.48515 -0.19652 0.58714
 C1694 C 0.48476 -0.17371 0.57761
 C1695 C 0.49580 -0.13057 0.57881
 C1696 C 0.47701 -0.12286 0.56451
 C1697 C 0.47782 -0.10074 0.55341
 C1698 C 0.49709 -0.08552 0.55685
 C1699 C 0.51549 -0.09271 0.57170
 C1700 C 0.51501 -0.11509 0.58232
 H1701 H 0.51740 -0.18524 0.63656
 H1702 H 0.47619 -0.21038 0.57763
 H1703 H 0.46325 -0.09545 0.54226
 H1704 H 0.53065 -0.08134 0.57446
 H1705 H 0.47626 -0.17108 0.56070
 H1706 H 0.46160 -0.13386 0.56184
 H1707 H 0.51514 -0.14545 0.62099
 H1708 H 0.53005 -0.12041 0.59276
 C1709 C -0.00580 0.34056 1.08141
 C1710 C 0.00297 0.32139 1.06855
 C1711 C 0.00437 0.29907 1.07896
 C1712 C -0.00318 0.29519 1.10252
 C1713 C -0.01125 0.31458 1.11562
 C1714 C -0.01262 0.33700 1.10517
 C1715 C -0.00759 0.36413 1.06997
 C1716 C -0.00080 0.38458 1.08208
 C1717 C -0.00139 0.40660 1.07078
 C1718 C -0.00885 0.40865 1.04712
 C1719 C -0.01619 0.38821 1.03523
 C1720 C -0.01554 0.36622 1.04652
 H1721 H 0.01171 0.28495 1.06849
 H1722 H -0.01689 0.31256 1.13381
 H1723 H 0.00432 0.42197 1.08051
 H1724 H -0.02216 0.38912 1.01707
 H1725 H -0.01944 0.35147 1.11554
 H1726 H 0.00557 0.38349 1.10010
 H1727 H 0.00904 0.32372 1.05043
 H1728 H -0.02125 0.35080 1.03686
 C1729 C 0.75722 0.32426 0.08733
 C1730 C 0.76650 0.31379 0.06664
 C1731 C 0.76346 0.32451 0.04423
 C1732 C 0.75028 0.34541 0.04199
 C1733 C 0.74232 0.35632 0.06294
 C1734 C 0.74608 0.34619 0.08506
 C1735 C 0.75807 0.31253 0.11120
 C1736 C 0.73960 0.31617 0.12765
 C1737 C 0.74032 0.30638 0.15036
 C1738 C 0.75916 0.29199 0.15723
 C1739 C 0.77739 0.28763 0.14077
 C1740 C 0.77698 0.29798 0.11804
 H1741 H 0.77006 0.31558 0.02866
 H1742 H 0.73364 0.37328 0.06251
 H1743 H 0.72570 0.30958 0.16238
 H1744 H 0.79209 0.27645 0.14556
 H1745 H 0.73998 0.35567 0.10049
 H1746 H 0.72423 0.32640 0.12295
 H1747 H 0.77534 0.29695 0.06761
 H1748 H 0.79158 0.29481 0.10602
 C1749 C 0.26703 0.82305 0.58803
 C1750 C 0.25458 0.81099 0.57031
 C1751 C 0.25140 0.82134 0.54799
 C1752 C 0.26103 0.84364 0.54295
 C1753 C 0.27440 0.85523 0.56018
 C1754 C 0.27731 0.84506 0.58260
 C1755 C 0.26788 0.81335 0.61247
 C1756 C 0.26216 0.82759 0.63196
 C1757 C 0.26108 0.81798 0.65486
 C1758 C 0.26603 0.79401 0.65875
 C1759 C 0.27244 0.77999 0.63928
 C1760 C 0.27318 0.78952 0.61639
 H1761 H 0.24061 0.81244 0.53502
 H1762 H 0.28146 0.87272 0.55671
 H1763 H 0.25614 0.82925 0.66947
 H1764 H 0.27629 0.76143 0.64160
 H1765 H 0.28706 0.85464 0.59590
 H1766 H 0.25777 0.84599 0.62936
 H1767 H 0.24629 0.79411 0.57413
 H1768 H 0.27775 0.77821 0.60169
 C1769 C 0.76591 0.67492 0.58540
 C1770 C 0.76872 0.68829 0.56440
 C1771 C 0.76721 0.67745 0.54220
 C1772 C 0.76266 0.65319 0.54078
 C1773 C 0.76129 0.63967 0.56168
 C1774 C 0.76291 0.65038 0.58373
 C1775 C 0.76428 0.68639 0.60895
 C1776 C 0.77416 0.67561 0.62905
 C1777 C 0.77092 0.68529 0.65152
 C1778 C 0.75779 0.70606 0.65446
 C1779 C 0.74817 0.71702 0.63430
 C1780 C 0.75136 0.70728 0.61182
 H1781 H 0.76818 0.68816 0.52624
 H1782 H 0.75780 0.62088 0.56093
 H1783 H 0.77889 0.67653 0.66656
 H1784 H 0.73806 0.73310 0.63587
 H1785 H 0.76046 0.63957 0.59947
 H1786 H 0.78444 0.65965 0.62741
 H1787 H 0.77139 0.70719 0.56515
 H1788 H 0.74317 0.71579 0.59675
 C1789 C 0.25268 0.18174 0.08515
 C1790 C 0.27223 0.16921 0.07634
 C1791 C 0.27105 0.15798 0.05436
 C1792 C 0.25022 0.15892 0.04113
 C1793 C 0.23119 0.17242 0.04937
 C1794 C 0.23241 0.18374 0.07113
 C1795 C 0.25257 0.19146 0.10945
 C1796 C 0.24233 0.21349 0.11397
 C1797 C 0.24052 0.22186 0.13709
 C1798 C 0.24890 0.20839 0.15626
 C1799 C 0.25939 0.18643 0.15169
 C1800 C 0.26121 0.17807 0.12852
 H1801 H 0.28587 0.14756 0.04833
 H1802 H 0.21499 0.17350 0.03932
 H1803 H 0.23257 0.23895 0.13989
 H1804 H 0.26616 0.17566 0.16600
 H1805 H 0.21701 0.19309 0.07748
 H1806 H 0.23571 0.22427 0.09959
 H1807 H 0.28818 0.16765 0.08670
 H1808 H 0.26886 0.16086 0.12559
 C1809 C 0.26764 0.18673 0.91603
 C1810 C 0.28267 0.16838 0.92316
 C1811 C 0.27839 0.15617 0.94439
 C1812 C 0.25891 0.16201 0.95859
 C1813 C 0.24464 0.18110 0.95216
 C1814 C 0.24911 0.19355 0.93114
 C1815 C 0.26914 0.19655 0.89170
 C1816 C 0.26746 0.22094 0.88750
 C1817 C 0.26602 0.22973 0.86431
 C1818 C 0.26568 0.21420 0.84503
 C1819 C 0.26800 0.18988 0.84925
 C1820 C 0.26989 0.18117 0.87234
 H1821 H 0.28925 0.14114 0.94885
 H1822 H 0.22934 0.18559 0.96283
 H1823 H 0.26423 0.24855 0.86152
 H1824 H 0.26799 0.17753 0.83470
 H1825 H 0.23711 0.20743 0.92590
 H1826 H 0.26683 0.23311 0.90218
 H1827 H 0.29705 0.16281 0.91177
 H1828 H 0.27086 0.16228 0.87512
 C1829 C 0.76900 0.69172 0.41381
 C1830 C 0.74872 0.69622 0.42747
 C1831 C 0.74444 0.68360 0.44846
 C1832 C 0.76062 0.66665 0.45638
 C1833 C 0.78174 0.66339 0.44369
 C1834 C 0.78578 0.67564 0.42239
 C1835 C 0.77098 0.70146 0.38943
 C1836 C 0.77405 0.68605 0.37032
 C1837 C 0.77271 0.69440 0.34703
 C1838 C 0.76875 0.71842 0.34236
 C1839 C 0.76678 0.73407 0.36144
 C1840 C 0.76755 0.72559 0.38482
 H1841 H 0.72801 0.68632 0.45799
 H1842 H 0.79433 0.65023 0.44937
 H1843 H 0.77443 0.68199 0.33263
 H1844 H 0.76364 0.75266 0.35828
 H1845 H 0.80155 0.67191 0.41213
 H1846 H 0.77643 0.66734 0.37341
 H1847 H 0.73543 0.70836 0.42112
 H1848 H 0.76507 0.73777 0.39931
 C1849 C 0.26486 0.82341 0.41396
 C1850 C 0.26564 0.81129 0.43582
 C1851 C 0.26414 0.82370 0.45721
 C1852 C 0.26149 0.84828 0.45694
 C1853 C 0.26168 0.86040 0.43519
 C1854 C 0.26343 0.84814 0.41396
 C1855 C 0.26410 0.81063 0.39107
 C1856 C 0.27658 0.81949 0.37131
 C1857 C 0.27374 0.80940 0.34903
 C1858 C 0.25837 0.79010 0.34588
 C1859 C 0.24653 0.78063 0.36583
 C1860 C 0.24937 0.79080 0.38820
 H1861 H 0.26377 0.81405 0.47385
 H1862 H 0.25950 0.87937 0.43464
 H1863 H 0.28344 0.81700 0.33420
 H1864 H 0.23465 0.76572 0.36407
 H1865 H 0.26249 0.85799 0.39748
 H1866 H 0.28831 0.83452 0.37301
 H1867 H 0.26692 0.79225 0.43634
 H1868 H 0.23934 0.78372 0.40307
 C1869 C 0.76274 0.31727 0.91485
 C1870 C 0.75419 0.34032 0.91399
 C1871 C 0.75020 0.35278 0.93466
 C1872 C 0.75485 0.34278 0.95711
 C1873 C 0.76524 0.32026 0.95801
 C1874 C 0.76857 0.30731 0.93699
 C1875 C 0.76426 0.30415 0.89227
 C1876 C 0.75054 0.28378 0.88866
 C1877 C 0.74753 0.27484 0.86571
 C1878 C 0.75822 0.28613 0.84602
 C1879 C 0.77304 0.30570 0.85004
 C1880 C 0.77596 0.31458 0.87282
 H1881 H 0.74350 0.37055 0.93287
 H1882 H 0.76914 0.31201 0.97489
 H1883 H 0.73619 0.25961 0.86332
 H1884 H 0.78189 0.31471 0.83546
 H1885 H 0.77538 0.28952 0.93800
 H1886 H 0.74104 0.27566 0.90335
 H1887 H 0.74977 0.34851 0.89720
 H1888 H 0.78654 0.33037 0.87514
 C1889 C 0.81354 0.41127 0.26080
 C1890 C 0.83565 0.41560 0.27129
 C1891 C 0.84577 0.43814 0.27059
 C1892 C 0.83417 0.45675 0.25917
 C1893 C 0.81150 0.45302 0.25013
 C1894 C 0.80111 0.43057 0.25123
 C1895 C 0.80456 0.38659 0.25808
 C1896 C 0.79160 0.38006 0.23790
 C1897 C 0.78405 0.35675 0.23479
 C1898 C 0.78973 0.33924 0.25149
 C1899 C 0.80279 0.34561 0.27155
 C1900 C 0.80989 0.36900 0.27493
 H1901 H 0.86358 0.44058 0.27707
 H1902 H 0.80250 0.46711 0.24085
 H1903 H 0.77402 0.35234 0.21916
 H1904 H 0.80703 0.33259 0.28497
 H1905 H 0.78380 0.42816 0.24359
 H1906 H 0.78762 0.39283 0.22418
 H1907 H 0.84600 0.40133 0.27856
 H1908 H 0.81941 0.37328 0.29090
 C1909 C 0.31387 0.91391 0.76761
 C1910 C 0.30238 0.93368 0.75782
 C1911 C 0.31371 0.95570 0.75678
 C1912 C 0.33643 0.95851 0.76603
 C1913 C 0.34711 0.93945 0.77761
 C1914 C 0.33602 0.91736 0.77833
 C1915 C 0.30401 0.88957 0.76475
 C1916 C 0.30834 0.87180 0.78170
 C1917 C 0.30090 0.84857 0.77794
 C1918 C 0.28852 0.84253 0.75734
 C1919 C 0.28362 0.86030 0.74065
 C1920 C 0.29145 0.88346 0.74419
 H1921 H 0.30541 0.97013 0.74736
 H1922 H 0.36494 0.94116 0.78427
 H1923 H 0.30459 0.83535 0.79135
 H1924 H 0.27416 0.85619 0.72458
 H1925 H 0.34567 0.90267 0.78577
 H1926 H 0.31751 0.87580 0.79795
 H1927 H 0.28509 0.93194 0.74994
 H1928 H 0.28820 0.89639 0.73041
 C1929 C 0.17899 0.91261 0.26727
 C1930 C 0.15570 0.91188 0.25885
 C1931 C 0.14343 0.93255 0.25422
 C1932 C 0.15412 0.95465 0.25755
 C1933 C 0.17706 0.95568 0.26680
 C1934 C 0.18949 0.93477 0.27151
 C1935 C 0.19221 0.89012 0.27006
 C1936 C 0.21597 0.88826 0.26274
 C1937 C 0.22687 0.86612 0.26148
 C1938 C 0.21400 0.84558 0.26713
 C1939 C 0.19083 0.84757 0.27580
 C1940 C 0.18018 0.86958 0.27758
 H1941 H 0.12561 0.93122 0.24746
 H1942 H 0.18565 0.97254 0.26952
 H1943 H 0.24481 0.86493 0.25481
 H1944 H 0.18074 0.83196 0.28073
 H1945 H 0.20734 0.93593 0.27816
 H1946 H 0.22572 0.90370 0.25673
 H1947 H 0.14711 0.89527 0.25493
 H1948 H 0.16214 0.87040 0.28403
 C1949 C 0.68711 0.41862 0.76574
 C1950 C 0.69165 0.43168 0.74495
 C1951 C 0.67957 0.45267 0.74057
 C1952 C 0.66317 0.46121 0.75713
 C1953 C 0.65967 0.44897 0.77857
 C1954 C 0.67134 0.42762 0.78272
 C1955 C 0.69690 0.39458 0.76826
 C1956 C 0.68154 0.37532 0.77175
 C1957 C 0.69006 0.35226 0.77067
 C1958 C 0.71419 0.34804 0.76660
 C1959 C 0.72976 0.36733 0.76434
 C1960 C 0.72113 0.39042 0.76484
 H1961 H 0.68246 0.46188 0.72390
 H1962 H 0.64692 0.45521 0.79146
 H1963 H 0.67771 0.33770 0.77259
 H1964 H 0.74842 0.36454 0.76107
 H1965 H 0.66757 0.41779 0.79885
 H1966 H 0.66276 0.37809 0.77416
 H1967 H 0.70355 0.42498 0.73152
 H1968 H 0.73325 0.40505 0.76205
 C1969 C 0.68841 0.58715 0.75609
 C1970 C 0.69204 0.57166 0.73713
 C1971 C 0.68006 0.55014 0.73635
 C1972 C 0.66425 0.54356 0.75454
 C1973 C 0.66178 0.55811 0.77434
 C1974 C 0.67372 0.57984 0.77508
 C1975 C 0.69834 0.61148 0.75481
 C1976 C 0.68451 0.63091 0.76142
 C1977 C 0.69301 0.65394 0.75826
 C1978 C 0.71556 0.65813 0.74837
 C1979 C 0.72949 0.63867 0.74203
 C1980 C 0.72100 0.61565 0.74524
 H1981 H 0.68210 0.53916 0.72085
 H1982 H 0.64947 0.55343 0.78841
 H1983 H 0.68182 0.66847 0.76345
 H1984 H 0.74705 0.64117 0.73465
 H1985 H 0.67084 0.59128 0.79009
 H1986 H 0.66681 0.62833 0.76844
 H1987 H 0.70300 0.57676 0.72212
 H1988 H 0.73219 0.60108 0.74018
 C1989 C 0.18353 0.08379 0.25318
 C1990 C 0.18798 0.06886 0.23390
 C1991 C 0.17721 0.04674 0.23270
 C1992 C 0.16174 0.03900 0.25071
 C1993 C 0.15844 0.05309 0.27076
 C1994 C 0.16920 0.07538 0.27196
 C1995 C 0.19266 0.10845 0.25269
 C1996 C 0.17840 0.12730 0.26012
 C1997 C 0.18644 0.15065 0.25798
 C1998 C 0.20889 0.15564 0.24825
 C1999 C 0.22316 0.13672 0.24104
 C2000 C 0.21519 0.11348 0.24330
 H2001 H 0.17988 0.03618 0.21700
 H2002 H 0.14629 0.04762 0.28468
 H2003 H 0.17504 0.16476 0.26383
 H2004 H 0.24068 0.13979 0.23377
 H2005 H 0.16572 0.08633 0.28721
 H2006 H 0.16079 0.12406 0.26709
 H2007 H 0.19871 0.07479 0.21903
 H2008 H 0.22675 0.09939 0.23771
 C2009 C 0.32926 0.09014 0.76355
 C2010 C 0.35353 0.08697 0.75936
 C2011 C 0.36292 0.06438 0.75745
 C2012 C 0.34835 0.04438 0.75994
 C2013 C 0.32439 0.04729 0.76552
 C2014 C 0.31486 0.07001 0.76717
 C2015 C 0.31901 0.11428 0.76302
 C2016 C 0.30043 0.12043 0.77837
 C2017 C 0.29032 0.14285 0.77714
 C2018 C 0.29860 0.15974 0.76059
 C2019 C 0.31748 0.15378 0.74556
 C2020 C 0.32748 0.13130 0.74668
 H2021 H 0.38158 0.06249 0.75355
 H2022 H 0.31289 0.03205 0.76745
 H2023 H 0.27591 0.14691 0.78914
 H2024 H 0.32415 0.16626 0.73249
 H2025 H 0.29606 0.07179 0.77029
 H2026 H 0.29373 0.10793 0.79141
 H2027 H 0.36527 0.10199 0.75718
 H2028 H 0.34147 0.12707 0.73427
 C2029 C 0.82880 0.58919 0.26170
 C2030 C 0.85312 0.58524 0.25867
 C2031 C 0.86168 0.56244 0.25565
 C2032 C 0.84619 0.54304 0.25593
 C2033 C 0.82213 0.54661 0.26048
 C2034 C 0.81344 0.56955 0.26322
 C2035 C 0.81951 0.61372 0.26167
 C2036 C 0.80022 0.62000 0.27608
 C2037 C 0.79088 0.64278 0.27496
 C2038 C 0.80065 0.65986 0.25944
 C2039 C 0.82025 0.65372 0.24544
 C2040 C 0.82949 0.63094 0.24646
 H2041 H 0.88040 0.55996 0.25246
 H2042 H 0.80994 0.53181 0.26067
 H2043 H 0.77584 0.64694 0.28611
 H2044 H 0.82811 0.66632 0.23316
 H2045 H 0.79459 0.57196 0.26541
 H2046 H 0.79232 0.60729 0.28821
 H2047 H 0.86553 0.59984 0.25807
 H2048 H 0.84406 0.62665 0.23476
 C2049 C 0.91692 0.25775 0.18650
 C2050 C 0.92902 0.23626 0.18736
 C2051 C 0.95084 0.23392 0.17604
 C2052 C 0.96086 0.25293 0.16329
 C2053 C 0.94970 0.27498 0.16411
 C2054 C 0.92786 0.27741 0.17572
 C2055 C 0.89197 0.25859 0.19436
 C2056 C 0.88416 0.27501 0.21112
 C2057 C 0.86064 0.27454 0.21912
 C2058 C 0.84450 0.25798 0.21003
 C2059 C 0.85229 0.24217 0.19262
 C2060 C 0.87578 0.24237 0.18503
 H2061 H 0.95926 0.21680 0.17608
 H2062 H 0.95685 0.28984 0.15434
 H2063 H 0.85512 0.28697 0.23251
 H2064 H 0.84038 0.22913 0.18534
 H2065 H 0.91878 0.29415 0.17486
 H2066 H 0.89639 0.28772 0.21846
 H2067 H 0.92104 0.22096 0.19588
 H2068 H 0.88139 0.22973 0.17188
 C2069 C 0.42185 0.75875 0.69425
 C2070 C 0.43432 0.73744 0.69457
 C2071 C 0.45556 0.73537 0.68215
 C2072 C 0.46468 0.75453 0.66901
 C2073 C 0.45336 0.77648 0.67042
 C2074 C 0.43202 0.77858 0.68302
 C2075 C 0.39702 0.75900 0.70259
 C2076 C 0.38877 0.77576 0.71882
 C2077 C 0.36513 0.77517 0.72654
 C2078 C 0.34936 0.75817 0.71765
 C2079 C 0.35769 0.74178 0.70108
 C2080 C 0.38124 0.74210 0.69378
 H2081 H 0.46418 0.71837 0.68168
 H2082 H 0.45999 0.79148 0.66035
 H2083 H 0.35914 0.78806 0.73928
 H2084 H 0.34607 0.72838 0.69397
 H2085 H 0.42263 0.79517 0.68252
 H2086 H 0.40067 0.78899 0.72576
 H2087 H 0.42693 0.72200 0.70338
 H2088 H 0.38713 0.72919 0.68101
 C2089 C 0.41627 0.26112 0.81112
 C2090 C 0.42461 0.27986 0.82512
 C2091 C 0.44560 0.27760 0.83801
 C2092 C 0.45844 0.25655 0.83716
 C2093 C 0.45107 0.23860 0.82186
 C2094 C 0.43028 0.24085 0.80896
 C2095 C 0.39208 0.26139 0.80085
 C2096 C 0.38751 0.25080 0.77888
 C2097 C 0.36435 0.24845 0.77066
 C2098 C 0.34516 0.25671 0.78416
 C2099 C 0.34981 0.26796 0.80578
 C2100 C 0.37295 0.27024 0.81403
 H2101 H 0.45083 0.29154 0.84991
 H2102 H 0.46068 0.22214 0.82107
 H2103 H 0.36150 0.23995 0.75380
 H2104 H 0.33551 0.27461 0.81665
 H2105 H 0.42437 0.22599 0.79859
 H2106 H 0.40185 0.24404 0.76815
 H2107 H 0.41440 0.29585 0.82689
 H2108 H 0.37574 0.27812 0.83119
 C2109 C 0.92100 0.75829 0.30720
 C2110 C 0.93128 0.73601 0.30971
 C2111 C 0.95152 0.73307 0.32319
 C2112 C 0.96229 0.75233 0.33462
 C2113 C 0.95337 0.77508 0.33011
 C2114 C 0.93259 0.77795 0.31693
 C2115 C 0.89727 0.76011 0.29632
 C2116 C 0.87907 0.77242 0.30783
 C2117 C 0.85576 0.77079 0.29982
 C2118 C 0.85017 0.75686 0.28007
 C2119 C 0.86863 0.74544 0.26797
 C2120 C 0.89185 0.74704 0.27601
 H2121 H 0.95844 0.71538 0.32505
 H2122 H 0.96104 0.79042 0.33834
 H2123 H 0.84205 0.77999 0.30944
 H2124 H 0.86510 0.73480 0.25253
 H2125 H 0.92515 0.79541 0.31498
 H2126 H 0.88268 0.78239 0.32370
 H2127 H 0.92290 0.72051 0.30236
 H2128 H 0.90555 0.73752 0.26668
 C2129 C 0.08984 0.76532 0.33241
 C2130 C 0.08625 0.76288 0.35696
 C2131 C 0.06358 0.75943 0.36623
 C2132 C 0.04395 0.75863 0.35121
 C2133 C 0.04713 0.76273 0.32690
 C2134 C 0.06994 0.76594 0.31751
 C2135 C 0.11425 0.76552 0.32238
 C2136 C 0.12009 0.77950 0.30252
 C2137 C 0.14267 0.77845 0.29236
 C2138 C 0.15999 0.76342 0.30184
 C2139 C 0.15435 0.74991 0.32208
 C2140 C 0.13174 0.75087 0.33216
 H2141 H 0.06141 0.75656 0.38512
 H2142 H 0.03217 0.76203 0.31505
 H2143 H 0.14646 0.78928 0.27689
 H2144 H 0.16718 0.73805 0.32975
 H2145 H 0.07207 0.76766 0.29850
 H2146 H 0.10718 0.79121 0.29476
 H2147 H 0.10105 0.76297 0.36900
 H2148 H 0.12777 0.73954 0.34720
 C2149 C 0.58755 0.25805 0.82769
 C2150 C 0.57677 0.23572 0.82836
 C2151 C 0.55402 0.23285 0.83760
 C2152 C 0.54154 0.25220 0.84668
 C2153 C 0.55183 0.27478 0.84500
 C2154 C 0.57465 0.27769 0.83549
 C2155 C 0.61234 0.26040 0.81923
 C2156 C 0.61876 0.27770 0.80244
 C2157 C 0.64168 0.27831 0.79292
 C2158 C 0.65870 0.26181 0.80027
 C2159 C 0.65251 0.24524 0.81791
 C2160 C 0.62955 0.24447 0.82717
 H2161 H 0.54636 0.21530 0.83807
 H2162 H 0.54274 0.28999 0.85201
 H2163 H 0.64592 0.29140 0.77946
 H2164 H 0.66515 0.23229 0.82395
 H2165 H 0.58258 0.29512 0.83508
 H2166 H 0.60582 0.29016 0.79601
 H2167 H 0.58607 0.22038 0.82190
 H2168 H 0.62511 0.23115 0.84036
 C2169 C 0.59362 0.76122 0.67528
 C2170 C 0.57319 0.76100 0.68971
 C2171 C 0.55067 0.76072 0.67952
 C2172 C 0.54841 0.76058 0.65483
 C2173 C 0.56868 0.76241 0.64049
 C2174 C 0.59103 0.76269 0.65057
 C2175 C 0.61756 0.75827 0.68549
 C2176 C 0.63707 0.77006 0.67530
 C2177 C 0.65985 0.76593 0.68353
 C2178 C 0.66373 0.75012 0.70239
 C2179 C 0.64422 0.73852 0.71284
 C2180 C 0.62138 0.74247 0.70440
 H2181 H 0.53518 0.75908 0.69080
 H2182 H 0.56721 0.76218 0.62136
 H2183 H 0.67440 0.77556 0.67537
 H2184 H 0.64659 0.72635 0.72751
 H2185 H 0.60628 0.76260 0.63888
 H2186 H 0.63475 0.78263 0.66097
 H2187 H 0.57462 0.76026 0.70882
 H2188 H 0.60678 0.73277 0.71237
 C2189 C 0.08917 0.25875 0.17594
 C2190 C 0.06793 0.25917 0.18912
 C2191 C 0.04605 0.25846 0.17761
 C2192 C 0.04522 0.25713 0.15284
 C2193 C 0.06633 0.25797 0.13970
 C2194 C 0.08804 0.25877 0.15108
 C2195 C 0.11253 0.25691 0.18767
 C2196 C 0.13223 0.26889 0.17812
 C2197 C 0.15467 0.26552 0.18753
 C2198 C 0.15806 0.25022 0.20693
 C2199 C 0.13829 0.23863 0.21692
 C2200 C 0.11575 0.24190 0.20734
 H2201 H 0.02991 0.25758 0.18801
 H2202 H 0.06600 0.25680 0.12055
 H2203 H 0.16938 0.27512 0.17963
 H2204 H 0.14025 0.22686 0.23197
 H2205 H 0.10397 0.25813 0.14037
 H2206 H 0.13031 0.28089 0.16324
 H2207 H 0.06826 0.25945 0.20830
 H2208 H 0.10098 0.23216 0.21491
 C2209 C -0.07840 1.00237 0.83788
 C2210 C -0.08667 1.02438 0.83022
 C2211 C -0.09840 1.02661 0.80871
 C2212 C -0.10278 1.00666 0.79459
 C2213 C -0.09272 0.98500 0.80151
 C2214 C -0.08084 0.98283 0.82301
 C2215 C -0.06796 0.99984 0.86168
 C2216 C -0.04704 0.98712 0.86507
 C2217 C -0.03703 0.98549 0.88759
 C2218 C -0.04792 0.99635 0.90712
 C2219 C -0.06918 1.00856 0.90372
 C2220 C -0.07903 1.01034 0.88123
 H2221 H -0.10396 1.04405 0.80344
 H2222 H -0.09464 0.96953 0.79055
 H2223 H -0.02066 0.97591 0.88963
 H2224 H -0.07806 1.01713 0.91834
 H2225 H -0.07428 0.96571 0.82838
 H2226 H -0.03817 0.97891 0.85023
 H2227 H -0.08413 1.03991 0.84098
 H2228 H -0.09540 1.01993 0.87912
 C2229 C 0.41942 0.50761 0.34214
 C2230 C 0.39483 0.50498 0.34063
 C2231 C 0.38373 0.50548 0.31869
 C2232 C 0.39687 0.50838 0.29757
 C2233 C 0.42149 0.51175 0.29920
 C2234 C 0.43260 0.51131 0.32124
 C2235 C 0.43122 0.50607 0.36546
 C2236 C 0.45269 0.49397 0.36790
 C2237 C 0.46354 0.49217 0.38998
 C2238 C 0.45312 0.50237 0.41011
 C2239 C 0.43161 0.51440 0.40763
 C2240 C 0.42083 0.51626 0.38557
 H2241 H 0.36476 0.50293 0.31811
 H2242 H 0.43251 0.51453 0.28377
 H2243 H 0.48009 0.48276 0.39126
 H2244 H 0.42318 0.52266 0.42270
 H2245 H 0.45155 0.51389 0.32194
 H2246 H 0.46093 0.48561 0.35279
 H2247 H 0.38417 0.50188 0.35637
 H2248 H 0.40446 0.52596 0.38420
 C2249 C 0.57414 -0.00367 0.34318
 C2250 C 0.56701 0.00993 0.32365
 C2251 C 0.57807 0.00731 0.30164
 C2252 C 0.59640 -0.00912 0.29856
 C2253 C 0.60309 -0.02305 0.31815
 C2254 C 0.59186 -0.02058 0.34002
 C2255 C 0.56408 0.00049 0.36708
 C2256 C 0.57871 -0.00025 0.38709
 C2257 C 0.56929 0.00284 0.40972
 C2258 C 0.54505 0.00699 0.41286
 C2259 C 0.53050 0.00848 0.39282
 C2260 C 0.53991 0.00519 0.37016
 H2261 H 0.57309 0.01900 0.28729
 H2262 H 0.61777 -0.03509 0.31721
 H2263 H 0.58099 0.00181 0.42479
 H2264 H 0.51170 0.01150 0.39468
 H2265 H 0.59756 -0.03153 0.35469
 H2266 H 0.59752 -0.00320 0.38525
 H2267 H 0.55366 0.02340 0.32562
 H2268 H 0.52818 0.00572 0.35510
 C2269 C 0.07549 0.50581 0.83652
 C2270 C 0.09998 0.50948 0.83488
 C2271 C 0.11151 0.50848 0.81305
 C2272 C 0.09883 0.50442 0.79210
 C2273 C 0.07428 0.50044 0.79383
 C2274 C 0.06274 0.50133 0.81578
 C2275 C 0.06355 0.50574 0.85994
 C2276 C 0.04127 0.51615 0.86293
 C2277 C 0.03014 0.51596 0.88511
 C2278 C 0.04111 0.50536 0.90474
 C2279 C 0.06340 0.49496 0.90168
 C2280 C 0.07444 0.49509 0.87954
 H2281 H 0.13053 0.51068 0.81259
 H2282 H 0.06393 0.49589 0.77852
 H2283 H 0.01300 0.52417 0.88689
 H2284 H 0.07228 0.48647 0.91634
 H2285 H 0.04393 0.49779 0.81661
 H2286 H 0.03258 0.52469 0.84817
 H2287 H 0.11030 0.51304 0.85055
 H2288 H 0.09140 0.48653 0.87770
 C2289 C 0.08053 0.49730 0.65587
 C2290 C 0.10419 0.50447 0.65870
 C2291 C 0.11402 0.50633 0.68129
 C2292 C 0.10054 0.50077 0.70160
 C2293 C 0.07689 0.49363 0.69875
 C2294 C 0.06698 0.49213 0.67625
 C2295 C 0.06988 0.49535 0.63189
 C2296 C 0.05272 0.47795 0.62718
 C2297 C 0.04192 0.47680 0.60502
 C2298 C 0.04836 0.49271 0.58690
 C2299 C 0.06591 0.50971 0.59133
 C2300 C 0.07640 0.51114 0.61361
 H2301 H 0.13215 0.51224 0.68273
 H2302 H 0.06600 0.48874 0.71385
 H2303 H 0.02864 0.46335 0.60203
 H2304 H 0.07109 0.52235 0.57775
 H2305 H 0.04859 0.48702 0.67490
 H2306 H 0.04763 0.46511 0.64058
 H2307 H 0.11528 0.50837 0.64345
 H2308 H 0.08921 0.52502 0.61662
 C2309 C 0.58040 0.99744 0.16341
 C2310 C 0.60265 0.98724 0.16718
 C2311 C 0.61285 0.98747 0.18970
 C2312 C 0.60108 0.99806 0.20886
 C2313 C 0.57910 1.00875 0.20489
 C2314 C 0.56886 1.00838 0.18246
 C2315 C 0.56899 0.99635 0.13984
 C2316 C 0.54484 0.99079 0.13807
 C2317 C 0.53386 0.99016 0.11600
 C2318 C 0.54671 0.99526 0.09515
 C2319 C 0.57095 1.00060 0.09691
 C2320 C 0.58199 1.00102 0.11901
 H2321 H 0.62958 0.97868 0.19220
 H2322 H 0.56976 1.01745 0.21915
 H2323 H 0.51518 0.98598 0.11533
 H2324 H 0.58140 1.00454 0.08120
 H2325 H 0.55189 1.01676 0.17998
 H2326 H 0.53446 0.98679 0.15380
 H2327 H 0.61184 0.97848 0.15287
 H2328 H 0.60059 1.00548 0.11986
 C2329 C 0.41558 0.50569 0.16039
 C2330 C 0.42671 0.51755 0.17909
 C2331 C 0.41639 0.51820 0.20162
 C2332 C 0.39489 0.50646 0.20641
 C2333 C 0.38372 0.49458 0.18776
 C2334 C 0.39379 0.49440 0.16503
 C2335 C 0.42685 0.50494 0.13635
 C2336 C 0.42375 0.48532 0.12147
 C2337 C 0.43479 0.48451 0.09920
 C2338 C 0.44964 0.50299 0.09157
 C2339 C 0.45275 0.52258 0.10626
 C2340 C 0.44125 0.52371 0.12821
 H2341 H 0.42540 0.52799 0.21525
 H2342 H 0.36738 0.48498 0.19066
 H2343 H 0.43221 0.46915 0.08820
 H2344 H 0.46382 0.53726 0.10060
 H2345 H 0.38438 0.48540 0.15111
 H2346 H 0.41322 0.47030 0.12714
 H2347 H 0.44368 0.52612 0.17655
 H2348 H 0.44359 0.53944 0.13867
 C2349 C -0.08167 0.00438 0.66023
 C2350 C -0.07166 -0.00733 0.67971
 C2351 C -0.08265 -0.00677 0.70193
 C2352 C -0.10383 0.00568 0.70526
 C2353 C -0.11396 0.01723 0.68572
 C2354 C -0.10303 0.01651 0.66342
 C2355 C -0.06970 0.00398 0.63676
 C2356 C -0.08263 -0.00009 0.61603
 C2357 C -0.07118 -0.00107 0.59401
 C2358 C -0.04657 0.00224 0.59224
 C2359 C -0.03372 0.00666 0.61298
 C2360 C -0.04515 0.00741 0.63499
 H2361 H -0.07463 -0.01632 0.71644
 H2362 H -0.13003 0.02730 0.68773
 H2363 H -0.08163 -0.00440 0.57838
 H2364 H -0.01477 0.00932 0.61227
 H2365 H -0.11100 0.02589 0.64875
 H2366 H -0.10155 -0.00296 0.61691
 H2367 H -0.05544 -0.01717 0.67768
 H2368 H -0.03479 0.01086 0.65065
 C2369 C -0.16200 0.92046 1.00345
 C2370 C -0.18245 0.93366 1.00790
 C2371 C -0.20467 0.92283 1.00810
 C2372 C -0.20691 0.89849 1.00372
 C2373 C -0.18622 0.88529 1.00005
 C2374 C -0.16409 0.89611 0.99984
 C2375 C -0.13856 0.93206 1.00202
 C2376 C -0.11871 0.92121 1.01200
 C2377 C -0.09649 0.93183 1.01013
 C2378 C -0.09367 0.95358 0.99827
 C2379 C -0.11357 0.96443 0.98829
 C2380 C -0.13579 0.95377 0.99015
 H2381 H -0.21975 0.93385 1.01146
 H2382 H -0.18729 0.86652 0.99671
 H2383 H -0.08158 0.92306 1.01818
 H2384 H -0.11201 0.98117 0.97903
 H2385 H -0.14866 0.88550 0.99616
 H2386 H -0.12039 0.90460 1.02148
 H2387 H -0.18124 0.95241 1.01120
 H2388 H -0.15075 0.96233 0.98197
 C2389 C 0.34172 0.42287 0.50492
 C2390 C 0.32075 0.43581 0.50724
 C2391 C 0.29878 0.42442 0.50732
 C2392 C 0.29727 0.39974 0.50490
 C2393 C 0.31842 0.38684 0.50355
 C2394 C 0.34030 0.39822 0.50336
 C2395 C 0.36501 0.43497 0.50385
 C2396 C 0.38469 0.42510 0.51515
 C2397 C 0.40677 0.43608 0.51360
 C2398 C 0.40967 0.45730 0.50082
 C2399 C 0.38996 0.46729 0.48965
 C2400 C 0.36787 0.45621 0.49110
 H2401 H 0.28332 0.43524 0.50936
 H2402 H 0.31795 0.36780 0.50206
 H2403 H 0.42152 0.42802 0.52263
 H2404 H 0.39160 0.48358 0.47962
 H2405 H 0.35610 0.38771 0.50140
 H2406 H 0.38299 0.40896 0.52542
 H2407 H 0.32134 0.45480 0.50912
 H2408 H 0.35312 0.46407 0.48191
 C2409 C 0.33577 0.57482 0.00615
 C2410 C 0.31494 0.56148 0.00367
 C2411 C 0.29286 0.57250 0.00351
 C2412 C 0.29119 0.59713 0.00601
 C2413 C 0.31218 0.61030 0.00851
 C2414 C 0.33409 0.59932 0.00879
 C2415 C 0.35930 0.56349 0.00544
 C2416 C 0.37821 0.57458 -0.00656
 C2417 C 0.40059 0.56443 -0.00678
 C2418 C 0.40456 0.54285 0.00486
 C2419 C 0.38558 0.53158 0.01664
 C2420 C 0.36317 0.54182 0.01694
 H2421 H 0.27746 0.56159 0.00079
 H2422 H 0.31161 0.62932 0.01005
 H2423 H 0.41473 0.57347 -0.01623
 H2424 H 0.38805 0.51494 0.02582
 H2425 H 0.34976 0.61007 0.01106
 H2426 H 0.37568 0.59107 -0.01600
 H2427 H 0.31575 0.54258 0.00120
 H2428 H 0.34899 0.53299 0.02653
 C2429 C -0.15842 0.07686 0.50967
 C2430 C -0.17970 0.06411 0.50804
 C2431 C -0.20142 0.07582 0.50766
 C2432 C -0.20244 0.10067 0.50941
 C2433 C -0.18077 0.11317 0.51053
 C2434 C -0.15928 0.10148 0.51108
 C2435 C -0.13522 0.06484 0.50898
 C2436 C -0.11629 0.07498 0.49619
 C2437 C -0.09419 0.06429 0.49594
 C2438 C -0.09051 0.04304 0.50828
 C2439 C -0.10950 0.03270 0.52090
 C2440 C -0.13164 0.04353 0.52127
 H2441 H -0.21716 0.06526 0.50522
 H2442 H -0.18038 0.13228 0.51074
 H2443 H -0.08006 0.07257 0.48579
 H2444 H -0.10721 0.01633 0.53061
 H2445 H -0.14323 0.11185 0.51248
 H2446 H -0.11859 0.09112 0.48611
 H2447 H -0.17951 0.04511 0.50627
 H2448 H -0.14585 0.03544 0.53146
 C2449 C 0.66306 0.08516 0.50618
 C2450 C 0.66618 0.10975 0.50615
 C2451 C 0.68877 0.11980 0.50766
 C2452 C 0.70920 0.10558 0.50909
 C2453 C 0.70568 0.08083 0.50962
 C2454 C 0.68309 0.07089 0.50824
 C2455 C 0.63907 0.07437 0.50409
 C2456 C 0.63565 0.05356 0.49107
 C2457 C 0.61331 0.04297 0.48977
 C2458 C 0.59375 0.05300 0.50132
 C2459 C 0.59707 0.07407 0.51394
 C2460 C 0.61943 0.08457 0.51536
 H2461 H 0.68964 0.13878 0.50781
 H2462 H 0.72022 0.06863 0.51023
 H2463 H 0.61140 0.02685 0.47978
 H2464 H 0.58246 0.08224 0.52319
 H2465 H 0.68137 0.05186 0.50876
 H2466 H 0.65027 0.04546 0.48177
 H2467 H 0.65113 0.12134 0.50454
 H2468 H 0.62142 0.10039 0.52579
 C2469 C 0.15430 0.58115 0.99707
 C2470 C 0.15782 0.60426 1.00538
 C2471 C 0.18064 0.61370 1.00741
 C2472 C 0.20054 0.60042 1.00090
 C2473 C 0.19694 0.57745 0.99231
 C2474 C 0.17424 0.56789 0.99068
 C2475 C 0.13010 0.57070 0.99536
 C2476 C 0.12471 0.55425 0.97758
 C2477 C 0.10253 0.54334 0.97684
 C2478 C 0.08496 0.54897 0.99351
 C2479 C 0.08996 0.56593 1.01081
 C2480 C 0.11232 0.57650 1.01187
 H2481 H 0.18253 0.63132 1.01435
 H2482 H 0.21162 0.56674 0.98655
 H2483 H 0.09906 0.53055 0.96311
 H2484 H 0.07680 0.57049 1.02400
 H2485 H 0.17243 0.54992 0.98462
 H2486 H 0.13763 0.54976 0.96415
 H2487 H 0.14295 0.61519 1.01017
 H2488 H 0.11581 0.58874 1.02605
 C2489 C 0.16068 0.41726 0.50020
 C2490 C 0.18000 0.42973 0.50949
 C2491 C 0.20247 0.41978 0.50994
 C2492 C 0.20660 0.39724 0.50051
 C2493 C 0.18733 0.38476 0.49109
 C2494 C 0.16466 0.39456 0.49108
 C2495 C 0.13666 0.42803 0.50000
 C2496 C 0.12066 0.42328 0.48163
 C2497 C 0.09838 0.43388 0.48127
 C2498 C 0.09180 0.44985 0.49899
 C2499 C 0.10764 0.45459 0.51737
 C2500 C 0.12965 0.44360 0.51804
 H2501 H 0.21653 0.42986 0.51797
 H2502 H 0.18961 0.36750 0.48347
 H2503 H 0.08651 0.43001 0.46684
 H2504 H 0.10285 0.46654 0.53147
 H2505 H 0.15023 0.38420 0.48409
 H2506 H 0.12546 0.41175 0.46721
 H2507 H 0.17790 0.44739 0.51630
 H2508 H 0.14109 0.44725 0.53286
 C2509 C 0.65705 0.91896 0.00573
 C2510 C 0.66059 0.89768 -0.00649
 C2511 C 0.68292 0.88726 -0.00749
 C2512 C 0.70225 0.89751 0.00415
 C2513 C 0.69851 0.91833 0.01704
 C2514 C 0.67639 0.92906 0.01751
 C2515 C 0.63353 0.93082 0.00585
 C2516 C 0.62633 0.94472 0.02519
 C2517 C 0.60471 0.95652 0.02488
 C2518 C 0.58947 0.95414 0.00558
 C2519 C 0.59627 0.93999 -0.01353
 C2520 C 0.61818 0.92874 -0.01357
 H2521 H 0.68497 0.87144 -0.01785
 H2522 H 0.71267 0.92655 0.02680
 H2523 H 0.59964 0.96707 0.03999
 H2524 H 0.58481 0.93803 -0.02869
 H2525 H 0.67468 0.94558 0.02682
 H2526 H 0.63722 0.94634 0.04076
 H2527 H 0.64613 0.88898 -0.01537
 H2528 H 0.62316 0.91875 -0.02906
 C2529 C 0.00126 0.83996 0.92317
 C2530 C -0.01377 0.82113 0.92947
 C2531 C -0.01178 0.79943 0.91811
 C2532 C 0.00557 0.79589 0.90048
 C2533 C 0.02047 0.81495 0.89418
 C2534 C 0.01857 0.83653 0.90563
 C2535 C -0.00159 0.86343 0.93410
 C2536 C 0.00069 0.88396 0.92015
 C2537 C -0.00098 0.90615 0.93042
 C2538 C -0.00518 0.90833 0.95486
 C2539 C -0.00815 0.88781 0.96874
 C2540 C -0.00632 0.86556 0.95845
 H2541 H -0.02437 0.78564 0.92260
 H2542 H 0.03311 0.81374 0.87983
 H2543 H 0.00111 0.92160 0.91918
 H2544 H -0.01132 0.88893 0.98764
 H2545 H 0.03047 0.85070 0.90045
 H2546 H 0.00376 0.88288 0.90123
 H2547 H -0.02764 0.82343 0.94255
 H2548 H -0.00801 0.85004 0.96965
 C2549 C 0.50207 0.34454 0.42324
 C2550 C 0.50508 0.32398 0.43692
 C2551 C 0.50547 0.30182 0.42624
 C2552 C 0.50274 0.29973 0.40155
 C2553 C 0.50040 0.32050 0.38793
 C2554 C 0.49988 0.34254 0.39861
 C2555 C 0.50110 0.36805 0.43451
 C2556 C 0.51191 0.38767 0.42350
 C2557 C 0.51057 0.40993 0.43374
 C2558 C 0.49854 0.41307 0.45535
 C2559 C 0.48781 0.39343 0.46644
 C2560 C 0.48903 0.37116 0.45610
 H2561 H 0.50804 0.28667 0.43756
 H2562 H 0.49855 0.31958 0.36887
 H2563 H 0.51924 0.42462 0.42483
 H2564 H 0.47835 0.39525 0.48307
 H2565 H 0.49731 0.35799 0.38756
 H2566 H 0.52167 0.38579 0.40705
 H2567 H 0.50735 0.32505 0.45592
 H2568 H 0.48023 0.35645 0.46483
 C2569 C 0.00778 0.33506 0.57532
 C2570 C 0.00566 0.31414 0.56231
 C2571 C 0.00505 0.29223 0.57388
 C2572 C 0.00684 0.29081 0.59873
 C2573 C 0.00889 0.31190 0.61157
 C2574 C 0.00966 0.33365 0.60004
 C2575 C 0.00709 0.35839 0.56342
 C2576 C -0.00548 0.37699 0.57381
 C2577 C -0.00591 0.39916 0.56304
 C2578 C 0.00607 0.40323 0.54150
 C2579 C 0.01845 0.38457 0.53092
 C2580 C 0.01898 0.36236 0.54181
 H2581 H 0.00234 0.27672 0.56325
 H2582 H 0.00956 0.31159 0.63074
 H2583 H -0.01583 0.41305 0.57154
 H2584 H 0.02790 0.38717 0.51435
 H2585 H 0.01154 0.34944 0.61056
 H2586 H -0.01524 0.37434 0.59020
 H2587 H 0.00366 0.31475 0.54325
 H2588 H 0.02898 0.34840 0.53351
 C2589 C 0.50613 0.83860 0.08072
 C2590 C 0.51095 0.83608 0.10492
 C2591 C 0.51041 0.81390 0.11566
 C2592 C 0.50542 0.79353 0.10244
 C2593 C 0.50059 0.79611 0.07812
 C2594 C 0.50109 0.81840 0.06738
 C2595 C 0.50564 0.86235 0.06967
 C2596 C 0.51538 0.86624 0.04702
 C2597 C 0.51482 0.88867 0.03666
 C2598 C 0.50448 0.90766 0.04875
 C2599 C 0.49477 0.90371 0.07143
 C2600 C 0.49531 0.88130 0.08175
 H2601 H 0.51361 0.81266 0.13452
 H2602 H 0.49566 0.78127 0.06734
 H2603 H 0.52252 0.89110 0.01919
 H2604 H 0.48655 0.91789 0.08119
 H2605 H 0.49681 0.81992 0.04876
 H2606 H 0.52367 0.85200 0.03743
 H2607 H 0.51507 0.85131 0.11563
 H2608 H 0.48733 0.87873 0.09908
 C2609 C 0.49417 0.65805 0.08254
 C2610 C 0.50271 0.66074 0.10574
 C2611 C 0.50446 0.68307 0.11598
 C2612 C 0.49732 0.70330 0.10347
 C2613 C 0.48829 0.70055 0.08049
 C2614 C 0.48697 0.67832 0.07010
 C2615 C 0.49326 0.63438 0.07115
 C2616 C 0.47563 0.62885 0.05456
 C2617 C 0.47546 0.60703 0.04315
 C2618 C 0.49260 0.59003 0.04844
 C2619 C 0.50992 0.59528 0.06532
 C2620 C 0.51040 0.61725 0.07634
 H2621 H 0.51180 0.68438 0.13355
 H2622 H 0.48211 0.71557 0.07039
 H2623 H 0.46174 0.60333 0.03040
 H2624 H 0.52350 0.58258 0.06958
 H2625 H 0.48064 0.67716 0.05210
 H2626 H 0.46180 0.64129 0.05044
 H2627 H 0.50805 0.64557 0.11611
 H2628 H 0.52457 0.62092 0.08856
 C2629 C -0.00138 0.15454 0.58325
 C2630 C 0.00485 0.15778 0.60711
 C2631 C 0.00685 0.18046 0.61655
 C2632 C 0.00247 0.20049 0.60244
 C2633 C -0.00385 0.19718 0.57862
 C2634 C -0.00553 0.17459 0.56913
 C2635 C -0.00322 0.13049 0.57292
 C2636 C -0.01993 0.12555 0.55524
 C2637 C -0.02060 0.10349 0.54437
 C2638 C -0.00487 0.08568 0.55121
 C2639 C 0.01126 0.09026 0.56944
 C2640 C 0.01219 0.11244 0.58005
 H2641 H 0.01195 0.18216 0.63487
 H2642 H -0.00795 0.21200 0.56722
 H2643 H -0.03340 0.10039 0.53055
 H2644 H 0.02374 0.07694 0.57499
 H2645 H -0.00993 0.17292 0.55059
 H2646 H -0.03250 0.13876 0.54969
 H2647 H 0.00793 0.14278 0.61863
 H2648 H 0.02552 0.11562 0.59332
 C2649 C 0.50472 0.16368 0.42247
 C2650 C 0.51398 0.18350 0.43405
 C2651 C 0.51348 0.20575 0.42337
 C2652 C 0.50309 0.20910 0.40102
 C2653 C 0.49388 0.18930 0.38934
 C2654 C 0.49485 0.16687 0.39984
 C2655 C 0.50507 0.13998 0.43420
 C2656 C 0.48683 0.12349 0.43038
 C2657 C 0.48691 0.10154 0.44183
 C2658 C 0.50491 0.09574 0.45779
 C2659 C 0.52313 0.11208 0.46170
 C2660 C 0.52339 0.13380 0.44982
 H2661 H 0.52140 0.22029 0.43278
 H2662 H 0.48557 0.19102 0.37224
 H2663 H 0.47256 0.08927 0.43862
 H2664 H 0.53741 0.10789 0.47366
 H2665 H 0.48790 0.15203 0.39011
 H2666 H 0.47217 0.12765 0.41892
 H2667 H 0.52139 0.18200 0.45161
 H2668 H 0.53810 0.14565 0.45280
 C2669 C -0.00320 0.66039 0.91774
 C2670 C -0.01079 0.66438 0.89437
 C2671 C -0.01059 0.68716 0.88457
 C2672 C -0.00252 0.70651 0.89778
 C2673 C 0.00497 0.70241 0.92118
 C2674 C 0.00435 0.67981 0.93107
 C2675 C -0.00287 0.63619 0.92827
 C2676 C 0.01474 0.62985 0.94458
 C2677 C 0.01456 0.60763 0.95540
 C2678 C -0.00289 0.59097 0.94980
 C2679 C -0.02011 0.59690 0.93301
 C2680 C -0.02023 0.61935 0.92251
 H2681 H -0.01677 0.68944 0.86664
 H2682 H 0.01187 0.71649 0.93196
 H2683 H 0.02828 0.60339 0.96799
 H2684 H -0.03385 0.58439 0.92846
 H2685 H 0.00985 0.67763 0.94927
 H2686 H 0.02882 0.64200 0.94897
 H2687 H -0.01653 0.64987 0.88344
 H2688 H -0.03424 0.62364 0.91030
 C2689 C 0.23765 0.67335 0.91265
 C2690 C 0.25994 0.67320 0.92330
 C2691 C 0.26285 0.66356 0.94585
 C2692 C 0.24357 0.65352 0.95821
 C2693 C 0.22094 0.65493 0.94820
 C2694 C 0.21798 0.66488 0.92556
 C2695 C 0.23560 0.68127 0.88769
 C2696 C 0.21933 0.69864 0.88102
 C2697 C 0.21954 0.70775 0.85786
 C2698 C 0.23578 0.69935 0.84091
 C2699 C 0.25114 0.68106 0.84740
 C2700 C 0.25114 0.67225 0.87054
 H2701 H 0.28041 0.66328 0.95334
 H2702 H 0.20580 0.64724 0.95728
 H2703 H 0.20737 0.72174 0.85337
 H2704 H 0.26387 0.67417 0.83485
 H2705 H 0.20060 0.66492 0.91768
 H2706 H 0.20718 0.70583 0.89396
 H2707 H 0.27527 0.68011 0.91391
 H2708 H 0.26367 0.65863 0.87522
 C2709 C 0.74099 0.16674 0.41173
 C2710 C 0.75106 0.14438 0.41480
 C2711 C 0.75436 0.13491 0.43733
 C2712 C 0.74705 0.14705 0.45780
 C2713 C 0.73499 0.16853 0.45474
 C2714 C 0.73238 0.17846 0.43197
 C2715 C 0.74058 0.17778 0.38755
 C2716 C 0.72243 0.19317 0.38056
 C2717 C 0.72252 0.20332 0.35779
 C2718 C 0.74052 0.19799 0.34139
 C2719 C 0.75854 0.18260 0.34830
 C2720 C 0.75876 0.17291 0.37110
 H2721 H 0.76232 0.11763 0.43852
 H2722 H 0.72910 0.17858 0.46987
 H2723 H 0.70838 0.21517 0.35293
 H2724 H 0.77291 0.17852 0.33626
 H2725 H 0.72450 0.19574 0.43040
 H2726 H 0.70802 0.19721 0.39254
 H2727 H 0.75671 0.13409 0.39974
 H2728 H 0.77353 0.16187 0.37589
 C2729 C 0.24978 0.31710 0.41600
 C2730 C 0.26940 0.31511 0.43094
 C2731 C 0.26984 0.32681 0.45255
 C2732 C 0.25066 0.34070 0.45976
 C2733 C 0.23038 0.34151 0.44571
 C2734 C 0.22998 0.32988 0.42389
 C2735 C 0.25090 0.30735 0.39168
 C2736 C 0.24270 0.32063 0.37232
 C2737 C 0.24504 0.31217 0.34924
 C2738 C 0.25561 0.29020 0.34494
 C2739 C 0.26381 0.27692 0.36433
 C2740 C 0.26148 0.28540 0.38741
 H2741 H 0.28566 0.32591 0.46320
 H2742 H 0.21550 0.35228 0.45087
 H2743 H 0.23843 0.32285 0.33478
 H2744 H 0.27184 0.25983 0.36173
 H2745 H 0.21447 0.33143 0.41288
 H2746 H 0.23488 0.33780 0.37498
 H2747 H 0.28498 0.30558 0.42536
 H2748 H 0.26785 0.27470 0.40197
 C2749 C 0.74331 0.82885 0.90699
 C2750 C 0.74459 0.85351 0.90892
 C2751 C 0.74383 0.86417 0.93103
 C2752 C 0.74181 0.85048 0.95176
 C2753 C 0.73907 0.82598 0.94999
 C2754 C 0.73991 0.81519 0.92772
 C2755 C 0.74684 0.81771 0.88349
 C2756 C 0.76081 0.79741 0.88105
 C2757 C 0.76525 0.78789 0.85864
 C2758 C 0.75589 0.79854 0.83819
 C2759 C 0.74193 0.81883 0.84073
 C2760 C 0.73740 0.82821 0.86306
 H2761 H 0.74606 0.88313 0.93207
 H2762 H 0.73773 0.81514 0.96584
 H2763 H 0.77594 0.77217 0.85735
 H2764 H 0.73410 0.82734 0.82547
 H2765 H 0.73853 0.79617 0.92675
 H2766 H 0.76866 0.78914 0.89642
 H2767 H 0.74746 0.86456 0.89342
 H2768 H 0.72632 0.84366 0.86432
 C2769 C 0.73176 0.80930 0.07752
 C2770 C 0.75181 0.80475 0.06353
 C2771 C 0.75602 0.81770 0.04276
 C2772 C 0.73998 0.83501 0.03540
 C2773 C 0.71899 0.83824 0.04831
 C2774 C 0.71503 0.82565 0.06940
 C2775 C 0.73020 0.79946 0.10184
 C2776 C 0.72789 0.81481 0.12110
 C2777 C 0.73015 0.80638 0.14428
 C2778 C 0.73431 0.78234 0.14865
 C2779 C 0.73539 0.76675 0.12944
 C2780 C 0.73367 0.77531 0.10618
 H2781 H 0.77238 0.81509 0.03307
 H2782 H 0.70655 0.85172 0.04304
 H2783 H 0.72910 0.81873 0.15879
 H2784 H 0.73866 0.74816 0.13236
 H2785 H 0.69945 0.82942 0.07995
 H2786 H 0.72550 0.83355 0.11818
 H2787 H 0.76506 0.79240 0.06954
 H2788 H 0.73559 0.76319 0.09156
 C2789 C 0.23265 0.31352 0.58365
 C2790 C 0.21596 0.32905 0.57396
 C2791 C 0.22117 0.34173 0.55316
 C2792 C 0.24337 0.33951 0.54220
 C2793 C 0.25970 0.32339 0.55140
 C2794 C 0.25428 0.31030 0.57180
 C2795 C 0.22893 0.30272 0.60734
 C2796 C 0.23275 0.27852 0.61110
 C2797 C 0.23268 0.26910 0.63411
 C2798 C 0.22941 0.28388 0.65371
 C2799 C 0.22470 0.30790 0.64985
 C2800 C 0.22420 0.31718 0.62686
 H2801 H 0.20843 0.35423 0.54639
 H2802 H 0.27692 0.32147 0.54316
 H2803 H 0.23649 0.25055 0.63664
 H2804 H 0.22206 0.31964 0.66468
 H2805 H 0.26751 0.29863 0.57908
 H2806 H 0.23649 0.26708 0.59627
 H2807 H 0.19920 0.33182 0.58288
 H2808 H 0.22145 0.33593 0.62439
 C2809 C 0.74320 0.19232 0.57985
 C2810 C 0.72372 0.18233 0.56811
 C2811 C 0.72693 0.16963 0.54700
 C2812 C 0.74985 0.16587 0.53793
 C2813 C 0.76891 0.17753 0.54884
 C2814 C 0.76563 0.19056 0.56938
 C2815 C 0.74107 0.20274 0.60390
 C2816 C 0.75391 0.22318 0.60962
 C2817 C 0.75505 0.23100 0.63302
 C2818 C 0.74342 0.21853 0.65139
 C2819 C 0.72986 0.19854 0.64553
 C2820 C 0.72866 0.19077 0.62204
 H2821 H 0.71177 0.16103 0.53924
 H2822 H 0.78673 0.17597 0.54189
 H2823 H 0.76545 0.24661 0.63673
 H2824 H 0.72050 0.18861 0.65915
 H2825 H 0.78101 0.19808 0.57785
 H2826 H 0.76354 0.23287 0.59600
 H2827 H 0.70615 0.18367 0.57569
 H2828 H 0.71887 0.17479 0.61823
 C2829 C 0.23799 0.68404 0.08496
 C2830 C 0.21907 0.66977 0.07735
 C2831 C 0.22055 0.65760 0.05584
 C2832 C 0.24100 0.65943 0.04178
 C2833 C 0.25913 0.67489 0.04856
 C2834 C 0.25764 0.68708 0.06986
 C2835 C 0.23845 0.69405 0.10927
 C2836 C 0.24863 0.71632 0.11334
 C2837 C 0.25132 0.72470 0.13639
 C2838 C 0.24381 0.71108 0.15601
 C2839 C 0.23315 0.68903 0.15193
 C2840 C 0.23054 0.68060 0.12885
 H2841 H 0.20652 0.64552 0.05106
 H2842 H 0.27516 0.67637 0.03802
 H2843 H 0.25931 0.74191 0.13880
 H2844 H 0.22707 0.67809 0.16659
 H2845 H 0.27263 0.69768 0.07519
 H2846 H 0.25465 0.72726 0.09867
 H2847 H 0.20354 0.66733 0.08844
 H2848 H 0.22300 0.66321 0.12639
 C2849 C 0.18562 0.58045 0.73696
 C2850 C 0.19572 0.56067 0.74819
 C2851 C 0.18359 0.53910 0.74919
 C2852 C 0.16149 0.53672 0.73844
 C2853 C 0.15222 0.55571 0.72560
 C2854 C 0.16407 0.57740 0.72496
 C2855 C 0.19630 0.60447 0.73941
 C2856 C 0.19356 0.62162 0.72149
 C2857 C 0.20167 0.64469 0.72468
 C2858 C 0.21322 0.65113 0.74561
 C2859 C 0.21668 0.63397 0.76326
 C2860 C 0.20808 0.61097 0.76032
 H2861 H 0.19077 0.52470 0.75955
 H2862 H 0.13485 0.55433 0.71776
 H2863 H 0.19918 0.65745 0.71055
 H2864 H 0.22552 0.63847 0.77958
 H2865 H 0.15544 0.59213 0.71642
 H2866 H 0.18513 0.61728 0.70493
 H2867 H 0.21252 0.56208 0.75710
 H2868 H 0.21013 0.59853 0.77478
 C2869 C 0.67874 0.07986 0.24628
 C2870 C 0.68604 0.05981 0.23373
 C2871 C 0.67368 0.03828 0.23632
 C2872 C 0.65432 0.03630 0.25217
 C2873 C 0.64735 0.05679 0.26449
 C2874 C 0.65927 0.07807 0.26151
 C2875 C 0.69062 0.10307 0.24380
 C2876 C 0.67718 0.12289 0.23769
 C2877 C 0.68681 0.14553 0.23909
 C2878 C 0.71010 0.14898 0.24690
 C2879 C 0.72383 0.12903 0.25237
 C2880 C 0.71418 0.10624 0.25072
 H2881 H 0.67992 0.02314 0.22660
 H2882 H 0.63192 0.05702 0.27588
 H2883 H 0.67572 0.16040 0.23461
 H2884 H 0.74191 0.13104 0.25821
 H2885 H 0.65321 0.09332 0.27124
 H2886 H 0.65890 0.12084 0.23247
 H2887 H 0.70108 0.06090 0.22180
 H2888 H 0.72474 0.09119 0.25584
 C2889 C 0.81749 0.09209 0.72904
 C2890 C 0.83564 0.09242 0.74571
 C2891 C 0.84766 0.07196 0.75159
 C2892 C 0.84207 0.05017 0.74099
 C2893 C 0.82393 0.04990 0.72391
 C2894 C 0.81152 0.07063 0.71826
 C2895 C 0.80510 0.11447 0.72378
 C2896 C 0.78045 0.11629 0.72631
 C2897 C 0.76973 0.13857 0.72714
 C2898 C 0.78363 0.15917 0.72561
 C2899 C 0.80794 0.15716 0.72104
 C2900 C 0.81852 0.13508 0.72001
 H2901 H 0.86201 0.07376 0.76400
 H2902 H 0.81858 0.03371 0.71545
 H2903 H 0.75093 0.13968 0.73061
 H2904 H 0.81901 0.17275 0.71933
 H2905 H 0.79745 0.06997 0.70539
 H2906 H 0.76976 0.10064 0.72935
 H2907 H 0.84051 0.10868 0.75443
 H2908 H 0.83751 0.13413 0.71768
 C2909 C 0.31000 0.58399 0.23609
 C2910 C 0.32609 0.57520 0.21929
 C2911 C 0.33808 0.55407 0.22362
 C2912 C 0.33456 0.54181 0.24505
 C2913 C 0.31769 0.55000 0.26132
 C2914 C 0.30530 0.57077 0.25675
 C2915 C 0.30020 0.60804 0.23361
 C2916 C 0.27597 0.61219 0.23703
 C2917 C 0.26732 0.63528 0.23754
 C2918 C 0.28287 0.65460 0.23526
 C2919 C 0.30700 0.65039 0.23121
 C2920 C 0.31554 0.62733 0.23016
 H2921 H 0.35125 0.54818 0.21098
 H2922 H 0.31486 0.54083 0.27802
 H2923 H 0.24866 0.63803 0.24078
 H2924 H 0.31935 0.66496 0.22928
 H2925 H 0.29315 0.57730 0.27005
 H2926 H 0.26384 0.59756 0.23980
 H2927 H 0.32997 0.58512 0.20324
 H2928 H 0.33432 0.62458 0.22775
 C2929 C 0.32520 0.41240 0.24673
 C2930 C 0.34982 0.41475 0.24874
 C2931 C 0.36039 0.43696 0.24901
 C2932 C 0.34664 0.45740 0.24735
 C2933 C 0.32219 0.45529 0.24410
 C2934 C 0.31150 0.43290 0.24391
 C2935 C 0.31417 0.38859 0.24863
 C2936 C 0.29331 0.38486 0.26188
 C2937 C 0.28395 0.36208 0.26483
 C2938 C 0.29531 0.34256 0.25466
 C2939 C 0.31611 0.34642 0.24135
 C2940 C 0.32532 0.36910 0.23829
 H2941 H 0.37931 0.43824 0.25154
 H2942 H 0.31130 0.47091 0.24298
 H2943 H 0.26782 0.35977 0.27505
 H2944 H 0.32518 0.33193 0.23291
 H2945 H 0.29251 0.43161 0.24201
 H2946 H 0.28449 0.39948 0.27035
 H2947 H 0.36090 0.39943 0.25121
 H2948 H 0.34120 0.37138 0.22768
 C2949 C 0.82154 0.91953 0.74006
 C2950 C 0.80701 0.93893 0.74543
 C2951 C 0.81656 0.96173 0.74668
 C2952 C 0.84064 0.96550 0.74220
 C2953 C 0.85483 0.94654 0.73531
 C2954 C 0.84543 0.92378 0.73431
 C2955 C 0.81244 0.89485 0.74208
 C2956 C 0.82110 0.87708 0.72713
 C2957 C 0.81359 0.85370 0.72996
 C2958 C 0.79692 0.84754 0.74754
 C2959 C 0.78807 0.86526 0.76237
 C2960 C 0.79588 0.88859 0.75981
 H2961 H 0.80548 0.97616 0.75238
 H2962 H 0.87360 0.94915 0.73227
 H2963 H 0.82040 0.84052 0.71795
 H2964 H 0.77520 0.86105 0.77609
 H2965 H 0.85729 0.90939 0.73045
 H2966 H 0.83355 0.88123 0.71304
 H2967 H 0.78843 0.93640 0.74945
 H2968 H 0.78921 0.90162 0.77202
 C2969 C 0.67337 0.90801 0.22809
 C2970 C 0.64987 0.90828 0.23630
 C2971 C 0.63896 0.92937 0.24219
 C2972 C 0.65133 0.95090 0.24082
 C2973 C 0.67422 0.95113 0.23116
 C2974 C 0.68515 0.92986 0.22478
 C2975 C 0.68577 0.88492 0.22519
 C2976 C 0.71005 0.88291 0.23005
 C2977 C 0.72091 0.86081 0.23066
 C2978 C 0.70766 0.84017 0.22708
 C2979 C 0.68371 0.84201 0.22139
 C2980 C 0.67300 0.86415 0.21995
 H2981 H 0.62094 0.92866 0.24876
 H2982 H 0.68399 0.96755 0.22956
 H2983 H 0.73946 0.85976 0.23513
 H2984 H 0.67327 0.82630 0.21813
 H2985 H 0.70302 0.93055 0.21787
 H2986 H 0.72054 0.89822 0.23453
 H2987 H 0.64006 0.89213 0.23946
 H2988 H 0.65453 0.86483 0.21523
 C2989 C 0.16667 0.40671 0.73453
 C2990 C 0.18074 0.42712 0.73144
 C2991 C 0.17098 0.44961 0.73436
 C2992 C 0.14715 0.45197 0.74075
 C2993 C 0.13287 0.43174 0.74272
 C2994 C 0.14245 0.40940 0.73946
 C2995 C 0.17728 0.38273 0.73416
 C2996 C 0.16920 0.36522 0.75013
 C2997 C 0.17962 0.34298 0.75072
 C2998 C 0.19861 0.33768 0.73556
 C2999 C 0.20652 0.35501 0.71932
 C3000 C 0.19593 0.37726 0.71858
 H3001 H 0.18226 0.46505 0.73276
 H3002 H 0.11428 0.43324 0.74717
 H3003 H 0.17322 0.33017 0.76361
 H3004 H 0.22105 0.35145 0.70728
 H3005 H 0.13092 0.39418 0.74124
 H3006 H 0.15523 0.36890 0.76275
 H3007 H 0.19948 0.42573 0.72779
 H3008 H 0.20238 0.39018 0.70584
 C3009 C 0.08971 0.72700 0.82136
 C3010 C 0.09076 0.73442 0.84504
 C3011 C 0.07027 0.74000 0.85750
 C3012 C 0.04811 0.73868 0.84660
 C3013 C 0.04670 0.73020 0.82335
 C3014 C 0.06737 0.72448 0.81077
 C3015 C 0.11209 0.72386 0.80769
 C3016 C 0.11413 0.73171 0.78400
 C3017 C 0.13628 0.73287 0.77276
 C3018 C 0.15671 0.72662 0.78518
 C3019 C 0.15455 0.71735 0.80819
 C3020 C 0.13246 0.71562 0.81918
 H3021 H 0.07187 0.74599 0.87559
 H3022 H 0.02979 0.72899 0.81460
 H3023 H 0.13764 0.74011 0.75498
 H3024 H 0.17011 0.71209 0.81794
 H3025 H 0.06589 0.71855 0.79266
 H3026 H 0.09888 0.73832 0.77464
 H3027 H 0.10752 0.73698 0.85377
 H3028 H 0.13151 0.70875 0.83711
 C3029 C 0.58265 0.24049 0.31425
 C3030 C 0.57254 0.26301 0.31475
 C3031 C 0.55190 0.26699 0.32768
 C3032 C 0.54101 0.24857 0.34055
 C3033 C 0.55007 0.22562 0.33859
 C3034 C 0.57082 0.22159 0.32548
 C3035 C 0.60699 0.23790 0.30494
 C3036 C 0.61271 0.22169 0.28712
 C3037 C 0.63587 0.22070 0.27801
 C3038 C 0.65363 0.23554 0.28704
 C3039 C 0.64777 0.25124 0.30530
 C3040 C 0.62477 0.25247 0.31401
 H3041 H 0.54499 0.28474 0.32839
 H3042 H 0.54203 0.21113 0.34839
 H3043 H 0.63988 0.20839 0.26399
 H3044 H 0.66089 0.26302 0.31264
 H3045 H 0.57843 0.20411 0.32539
 H3046 H 0.59919 0.21027 0.27993
 H3047 H 0.58126 0.27777 0.30600
 H3048 H 0.62080 0.26494 0.32793
 C3049 C 0.58646 0.73603 0.18213
 C3050 C 0.56627 0.74382 0.19450
 C3051 C 0.54429 0.74483 0.18327
 C3052 C 0.54209 0.73776 0.15967
 C3053 C 0.56172 0.72845 0.14783
 C3054 C 0.58369 0.72761 0.15890
 C3055 C 0.61056 0.73838 0.19246
 C3056 C 0.62829 0.72198 0.18697
 C3057 C 0.65143 0.72531 0.19478
 C3058 C 0.65743 0.74493 0.20862
 C3059 C 0.63966 0.76102 0.21474
 C3060 C 0.61653 0.75788 0.20660
 H3061 H 0.52939 0.75253 0.19248
 H3062 H 0.56043 0.72349 0.12938
 H3063 H 0.66460 0.71233 0.19013
 H3064 H 0.64374 0.77630 0.22538
 H3065 H 0.59876 0.72182 0.14862
 H3066 H 0.62434 0.70652 0.17657
 H3067 H 0.56762 0.75001 0.21253
 H3068 H 0.60351 0.77113 0.21085
 C3069 C 0.07996 0.23737 0.68909
 C3070 C 0.06490 0.25667 0.69269
 C3071 C 0.04354 0.25827 0.68061
 C3072 C 0.03669 0.24063 0.66472
 C3073 C 0.05060 0.22036 0.66260
 C3074 C 0.07211 0.21875 0.67468
 C3075 C 0.10456 0.23806 0.69833
 C3076 C 0.12357 0.23058 0.68412
 C3077 C 0.14689 0.23329 0.69172
 C3078 C 0.15184 0.24364 0.71372
 C3079 C 0.13282 0.25080 0.72810
 C3080 C 0.10949 0.24800 0.72052
 H3081 H 0.03315 0.27418 0.68230
 H3082 H 0.04585 0.20672 0.65017
 H3083 H 0.16106 0.22751 0.68019
 H3084 H 0.13591 0.25856 0.74527
 H3085 H 0.08311 0.20345 0.67186
 H3086 H 0.12049 0.22329 0.66674
 H3087 H 0.07036 0.27142 0.70345
 H3088 H 0.09528 0.25374 0.73203
 C3089 C 0.90688 0.23593 0.66667
 C3090 C 0.92688 0.23277 0.68109
 C3091 C 0.94974 0.23485 0.67150
 C3092 C 0.95291 0.24041 0.64746
 C3093 C 0.93304 0.24236 0.63285
 C3094 C 0.91031 0.24002 0.64230
 C3095 C 0.88261 0.23633 0.67704
 C3096 C 0.86579 0.25250 0.66860
 C3097 C 0.84332 0.25377 0.67895
 C3098 C 0.83716 0.23905 0.69816
 C3099 C 0.85379 0.22255 0.70632
 C3100 C 0.87622 0.22118 0.69586
 H3101 H 0.96487 0.23334 0.68305
 H3102 H 0.93512 0.24622 0.61412
 H3103 H 0.83103 0.26679 0.67234
 H3104 H 0.84958 0.21079 0.72098
 H3105 H 0.89539 0.24187 0.63055
 H3106 H 0.87020 0.26474 0.65441
 H3107 H 0.92490 0.22974 0.69996
 H3108 H 0.88857 0.20827 0.70256
 C3109 C 0.41061 0.73848 0.17663
 C3110 C 0.42322 0.71917 0.16766
 C3111 C 0.44612 0.72236 0.15842
 C3112 C 0.45673 0.74484 0.15825
 C3113 C 0.44462 0.76368 0.16878
 C3114 C 0.42178 0.76057 0.17769
 C3115 C 0.38557 0.73619 0.18412
 C3116 C 0.36887 0.75240 0.17569
 C3117 C 0.34568 0.75200 0.18431
 C3118 C 0.33878 0.73558 0.20183
 C3119 C 0.35526 0.71871 0.20954
 C3120 C 0.37841 0.71889 0.20061
 H3121 H 0.45494 0.70755 0.15028
 H3122 H 0.45253 0.78110 0.16943
 H3123 H 0.33348 0.76526 0.17803
 H3124 H 0.35043 0.70575 0.22295
 H3125 H 0.41262 0.77559 0.18504
 H3126 H 0.37394 0.76573 0.16274
 H3127 H 0.41496 0.70193 0.16678
 H3128 H 0.39099 0.70622 0.20734
 C3129 C 0.41501 0.24818 0.32126
 C3130 C 0.43014 0.26764 0.31784
 C3131 C 0.45186 0.26864 0.32922
 C3132 C 0.45899 0.25022 0.34423
 C3133 C 0.44471 0.23005 0.34658
 C3134 C 0.42277 0.22907 0.33523
 C3135 C 0.39073 0.24880 0.31148
 C3136 C 0.37127 0.24116 0.32520
 C3137 C 0.34826 0.24332 0.31658
 C3138 C 0.34421 0.25320 0.29405
 C3139 C 0.36372 0.26073 0.28033
 C3140 C 0.38666 0.25851 0.28891
 H3141 H 0.46264 0.28441 0.32727
 H3142 H 0.44983 0.21579 0.35829
 H3143 H 0.33367 0.23721 0.32758
 H3144 H 0.36134 0.26814 0.26277
 H3145 H 0.41160 0.21371 0.33792
 H3146 H 0.37380 0.23398 0.34283
 H3147 H 0.42466 0.28274 0.30742
 H3148 H 0.40128 0.26434 0.27780
 C3149 C 0.92016 0.75281 0.81548
 C3150 C 0.92704 0.73308 0.82903
 C3151 C 0.94920 0.73256 0.83991
 C3152 C 0.96472 0.75180 0.83749
 C3153 C 0.95852 0.77073 0.82264
 C3154 C 0.93650 0.77124 0.81175
 C3155 C 0.89563 0.75504 0.80650
 C3156 C 0.89136 0.76524 0.78418
 C3157 C 0.86830 0.76811 0.77608
 C3158 C 0.84886 0.76079 0.79005
 C3159 C 0.85312 0.75084 0.81251
 C3160 C 0.87623 0.74802 0.82064
 H3161 H 0.95349 0.71795 0.85152
 H3162 H 0.97022 0.78581 0.82061
 H3163 H 0.86577 0.77561 0.75858
 H3164 H 0.83861 0.74491 0.82371
 H3165 H 0.93177 0.78675 0.80156
 H3166 H 0.90590 0.77068 0.77278
 H3167 H 0.91498 0.71842 0.83188
 H3168 H 0.87890 0.74057 0.83813
   
