data_POSCAR
  _audit_creation_date              2014-09-24
  _audit_creation_method            'ToBaCCo'
  _symmetry_space_group_name_H-M    'P1'
  _symmetry_Int_Tables_number       1
  _symmetry_cell_setting            triclinic
  loop_
  _symmetry_equiv_pos_as_xyz
 x,y,z
_cell_length_a 110.0415
_cell_length_b 109.8755
_cell_length_c 110.8769
_cell_angle_alpha 89.999300
_cell_angle_beta 89.956100
_cell_angle_gamma 89.956500
loop_
  _atom_site_label
  _atom_site_type_symbol
  _atom_site_fract_x
  _atom_site_fract_y
  _atom_site_fract_z
N1 N 0.36030 0.32680 0.33509
 N2 N 0.36022 0.33544 0.32689
 C3 C 0.36963 0.33373 0.31931
 C4 C 0.37599 0.32345 0.32292
 C5 C 0.36975 0.31932 0.33300
 H6 H 0.37168 0.33954 0.31172
 H7 H 0.37184 0.31141 0.33840
 Cu8 Cu 0.34771 0.34796 0.32686
 Cu9 Cu 0.34810 0.32585 0.34781
 Cu10 Cu 0.32566 0.34801 0.34783
 N11 N 0.33511 0.36039 0.32700
 N12 N 0.32642 0.36025 0.33515
 C13 C 0.31878 0.36958 0.33310
 C14 C 0.32288 0.37598 0.32313
 C15 C 0.33329 0.36988 0.31951
 H16 H 0.31087 0.37160 0.33852
 H17 H 0.33897 0.37205 0.31186
 N18 N 0.32645 0.33489 0.35991
 N19 N 0.33499 0.32645 0.35992
 C20 C 0.33307 0.31887 0.36927
 C21 C 0.32282 0.32270 0.37550
 C22 C 0.31889 0.33290 0.36925
 H23 H 0.33872 0.31111 0.37136
 H24 H 0.31113 0.33852 0.37137
 H25 H 0.33445 0.33445 0.33828
 H26 H 0.34406 0.34422 0.34821
 N27 N 0.36037 0.82647 -0.16534
 N28 N 0.36005 0.83492 -0.17371
 C29 C 0.36945 0.83326 -0.18132
 C30 C 0.37607 0.82317 -0.17755
 C31 C 0.36995 0.81913 -0.16734
 H32 H 0.37125 0.83898 -0.18903
 H33 H 0.37223 0.81145 -0.16170
 Cu34 Cu 0.34732 0.84723 -0.17389
 Cu35 Cu 0.34837 0.82561 -0.15246
 Cu36 Cu 0.32587 0.84772 -0.15226
 N37 N 0.33478 0.85973 -0.17351
 N38 N 0.32641 0.85984 -0.16507
 C39 C 0.31889 0.86931 -0.16692
 C40 C 0.32271 0.87558 -0.17713
 C41 C 0.33288 0.86916 -0.18104
 H42 H 0.31121 0.87139 -0.16121
 H43 H 0.33849 0.87114 -0.18878
 N44 N 0.32689 0.83468 -0.14008
 N45 N 0.33544 0.82627 -0.14017
 C46 C 0.33368 0.81870 -0.13078
 C47 C 0.32352 0.82252 -0.12442
 C48 C 0.31947 0.83269 -0.13062
 H49 H 0.33944 0.81102 -0.12868
 H50 H 0.31162 0.83820 -0.12848
 H51 H 0.33439 0.83399 -0.16176
 H52 H 0.34428 0.84401 -0.15235
 N53 N 0.86056 0.32725 -0.16414
 N54 N 0.86005 0.33550 -0.17271
 C55 C 0.86935 0.33373 -0.18041
 C56 C 0.87609 0.32385 -0.17645
 C57 C 0.87022 0.31999 -0.16607
 H58 H 0.87112 0.33924 -0.18829
 H59 H 0.87264 0.31231 -0.16048
 Cu60 Cu 0.84724 0.34770 -0.17299
 Cu61 Cu 0.84841 0.32624 -0.15138
 Cu62 Cu 0.82515 0.34759 -0.15201
 N63 N 0.83433 0.35980 -0.17306
 N64 N 0.82564 0.35961 -0.16493
 C65 C 0.81793 0.36886 -0.16704
 C66 C 0.82197 0.37533 -0.17705
 C67 C 0.83245 0.36922 -0.18060
 H68 H 0.81004 0.37076 -0.16154
 H69 H 0.83831 0.37141 -0.18811
 N70 N 0.82631 0.33473 -0.13966
 N71 N 0.83525 0.32672 -0.13932
 C72 C 0.83359 0.31933 -0.12977
 C73 C 0.82308 0.32282 -0.12381
 C74 C 0.81872 0.33261 -0.13037
 H75 H 0.83951 0.31185 -0.12741
 H76 H 0.81068 0.33792 -0.12841
 H77 H 0.83444 0.33407 -0.16115
 H78 H 0.84367 0.34448 -0.15151
 N79 N 0.85943 0.82705 0.33508
 N80 N 0.85800 0.83399 0.32555
 C81 C 0.86740 0.83228 0.31798
 C82 C 0.87519 0.82374 0.32300
 C83 C 0.86980 0.82065 0.33389
 H84 H 0.86834 0.83680 0.30937
 H85 H 0.87302 0.81410 0.34041
 Cu86 Cu 0.84394 0.84450 0.32377
 Cu87 Cu 0.84734 0.82617 0.34791
 Cu88 Cu 0.82172 0.84428 0.34445
 N89 N 0.83221 0.85770 0.32490
 N90 N 0.82345 0.85750 0.33293
 C91 C 0.81631 0.86732 0.33141
 C92 C 0.82086 0.87419 0.32189
 C93 C 0.83103 0.86772 0.31803
 H94 H 0.80838 0.86917 0.33686
 H95 H 0.83706 0.86995 0.31065
 N96 N 0.82404 0.83317 0.35817
 N97 N 0.83391 0.82653 0.35971
 C98 C 0.83273 0.82005 0.36996
 C99 C 0.82158 0.82274 0.37514
 C100 C 0.81635 0.83113 0.36738
 H101 H 0.83938 0.81362 0.37325
 H102 H 0.80761 0.83551 0.36838
 H103 H 0.83289 0.83063 0.33732
 H104 H 0.84031 0.84355 0.34536
 N105 N 0.64006 0.67370 0.33562
 N106 N 0.64026 0.66520 0.32729
 C107 C 0.63087 0.66696 0.31970
 C108 C 0.62442 0.67713 0.32345
 C109 C 0.63057 0.68115 0.33361
 H110 H 0.62895 0.66132 0.31196
 H111 H 0.62832 0.68889 0.33920
 Cu112 Cu 0.65284 0.65273 0.32718
 Cu113 Cu 0.65210 0.67451 0.34846
 Cu114 Cu 0.67431 0.65214 0.34875
 N115 N 0.66525 0.64011 0.32756
 N116 N 0.67368 0.64001 0.33595
 C117 C 0.68120 0.63055 0.33403
 C118 C 0.67727 0.62431 0.32390
 C119 C 0.66710 0.63065 0.32005
 H120 H 0.68892 0.62834 0.33964
 H121 H 0.66158 0.62864 0.31224
 N122 N 0.67341 0.66519 0.36091
 N123 N 0.66503 0.67378 0.36072
 C124 C 0.66692 0.68141 0.37003
 C125 C 0.67695 0.67742 0.37644
 C126 C 0.68082 0.66710 0.37039
 H127 H 0.66132 0.68923 0.37208
 H128 H 0.68857 0.66150 0.37262
 H129 H 0.66595 0.66590 0.33917
 H130 H 0.65594 0.65607 0.34868
 N131 N 0.64011 0.17349 -0.16450
 N132 N 0.63980 0.16453 -0.17234
 C133 C 0.63037 0.16629 -0.17989
 C134 C 0.62446 0.17693 -0.17660
 C135 C 0.63093 0.18124 -0.16679
 H136 H 0.62808 0.16036 -0.18732
 H137 H 0.62905 0.18935 -0.16160
 Cu138 Cu 0.65184 0.15153 -0.17206
 Cu139 Cu 0.65223 0.17435 -0.15177
 Cu140 Cu 0.67407 0.15167 -0.15120
 N141 N 0.66460 0.13925 -0.17194
 N142 N 0.67324 0.13935 -0.16378
 C143 C 0.68089 0.13002 -0.16584
 C144 C 0.67687 0.12362 -0.17589
 C145 C 0.66646 0.12982 -0.17949
 H146 H 0.68881 0.12815 -0.16040
 H147 H 0.66067 0.12774 -0.18707
 N148 N 0.67342 0.16491 -0.13924
 N149 N 0.66520 0.17364 -0.13956
 C150 C 0.66721 0.18138 -0.13036
 C151 C 0.67716 0.17731 -0.12387
 C152 C 0.68085 0.16683 -0.12977
 H153 H 0.66173 0.18930 -0.12841
 H154 H 0.68848 0.16110 -0.12743
 H155 H 0.66555 0.16506 -0.16121
 H156 H 0.65576 0.15590 -0.15084
 N157 N 0.13982 0.67357 -0.16418
 N158 N 0.14004 0.66522 -0.17266
 C159 C 0.13075 0.66720 -0.18032
 C160 C 0.12431 0.67730 -0.17640
 C161 C 0.13036 0.68109 -0.16611
 H162 H 0.12873 0.66162 -0.18809
 H163 H 0.12815 0.68885 -0.16052
 Cu164 Cu 0.15237 0.65252 -0.17276
 Cu165 Cu 0.15192 0.67424 -0.15138
 Cu166 Cu 0.17435 0.65208 -0.15174
 N167 N 0.16509 0.64019 -0.17291
 N168 N 0.17365 0.64011 -0.16467
 C169 C 0.18123 0.63073 -0.16678
 C170 C 0.17723 0.62455 -0.17692
 C171 C 0.16694 0.63084 -0.18056
 H172 H 0.18901 0.62855 -0.16125
 H173 H 0.16126 0.62883 -0.18826
 N174 N 0.17351 0.66495 -0.13940
 N175 N 0.16497 0.67337 -0.13924
 C176 C 0.16688 0.68080 -0.12976
 C177 C 0.17713 0.67687 -0.12363
 C178 C 0.18107 0.66679 -0.13004
 H179 H 0.16119 0.68848 -0.12749
 H180 H 0.18893 0.66123 -0.12811
 H181 H 0.16558 0.66582 -0.16108
 H182 H 0.15595 0.65588 -0.15132
 N183 N 0.14044 0.17394 0.33479
 N184 N 0.14190 0.16703 0.32523
 C185 C 0.13255 0.16883 0.31762
 C186 C 0.12476 0.17738 0.32264
 C187 C 0.13011 0.18039 0.33357
 H188 H 0.13161 0.16431 0.30901
 H189 H 0.12686 0.18690 0.34013
 Cu190 Cu 0.15586 0.15637 0.32355
 Cu191 Cu 0.15237 0.17460 0.34775
 Cu192 Cu 0.17753 0.15580 0.34477
 N193 N 0.16722 0.14288 0.32481
 N194 N 0.17566 0.14267 0.33317
 C195 C 0.18246 0.13259 0.33182
 C196 C 0.17804 0.12605 0.32207
 C197 C 0.16833 0.13290 0.31785
 H198 H 0.19020 0.13036 0.33741
 H199 H 0.16251 0.13084 0.31027
 N200 N 0.17528 0.16700 0.35842
 N201 N 0.16560 0.17397 0.35973
 C202 C 0.16679 0.18049 0.36995
 C203 C 0.17773 0.17747 0.37538
 C204 C 0.18283 0.16885 0.36777
 H205 H 0.16020 0.18706 0.37310
 H206 H 0.19145 0.16427 0.36887
 H207 H 0.16696 0.16981 0.33746
 H208 H 0.15897 0.15706 0.34523
 N209 N 0.63976 0.32681 0.66442
 N210 N 0.64022 0.33502 0.67302
 C211 C 0.63105 0.33304 0.68083
 C212 C 0.62446 0.32306 0.67690
 C213 C 0.63027 0.31936 0.66643
 H214 H 0.62922 0.33852 0.68872
 H215 H 0.62790 0.31170 0.66079
 Cu216 Cu 0.65268 0.34756 0.67304
 Cu217 Cu 0.65164 0.32623 0.65136
 Cu218 Cu 0.67412 0.34835 0.65152
 N219 N 0.66531 0.35995 0.67307
 N220 N 0.67359 0.36026 0.66454
 C221 C 0.68106 0.36975 0.66648
 C222 C 0.67728 0.37573 0.67683
 C223 C 0.66726 0.36922 0.68078
 H224 H 0.68872 0.37205 0.66083
 H225 H 0.66170 0.37121 0.68857
 N226 N 0.67312 0.33553 0.63914
 N227 N 0.66450 0.32719 0.63899
 C228 C 0.66634 0.31976 0.62950
 C229 C 0.67664 0.32356 0.62339
 C230 C 0.68068 0.33359 0.62978
 H231 H 0.66074 0.31198 0.62734
 H232 H 0.68855 0.33911 0.62774
 H233 H 0.66560 0.33440 0.66082
 H234 H 0.65575 0.34453 0.65149
 N235 N 0.64031 0.82602 1.16469
 N236 N 0.64041 0.83457 1.17297
 C237 C 0.63114 0.83267 1.18068
 C238 C 0.62486 0.82235 1.17704
 C239 C 0.63100 0.81840 1.16684
 H240 H 0.62914 0.83836 1.18837
 H241 H 0.62883 0.81062 1.16129
 Cu242 Cu 0.65260 0.84739 1.17270
 Cu243 Cu 0.65214 0.82544 1.15163
 Cu244 Cu 0.67390 0.84824 1.15094
 N245 N 0.66511 0.85991 1.17246
 N246 N 0.67328 0.86029 1.16383
 C247 C 0.68072 0.86981 1.16571
 C248 C 0.67706 0.87574 1.17613
 C249 C 0.66711 0.86917 1.18017
 H250 H 0.68836 0.87213 1.16002
 H251 H 0.66167 0.87106 1.18807
 N252 N 0.67301 0.83519 1.13876
 N253 N 0.66483 0.82642 1.13914
 C254 C 0.66677 0.81877 1.12985
 C255 C 0.67662 0.82291 1.12326
 C256 C 0.68033 0.83336 1.12918
 H257 H 0.66135 0.81080 1.12796
 H258 H 0.68795 0.83908 1.12682
 H259 H 0.66591 0.83441 1.16073
 H260 H 0.65565 0.84392 1.15119
 N261 N 0.14070 0.32589 1.16483
 N262 N 0.14102 0.33421 1.17333
 C263 C 0.13177 0.33226 1.18106
 C264 C 0.12531 0.32215 1.17721
 C265 C 0.13128 0.31837 1.16686
 H266 H 0.12993 0.33775 1.18894
 H267 H 0.12890 0.31079 1.16112
 Cu268 Cu 0.15343 0.34683 1.17344
 Cu269 Cu 0.15239 0.32549 1.15167
 Cu270 Cu 0.17391 0.34845 1.15087
 N271 N 0.16547 0.35977 1.17268
 N272 N 0.17333 0.36045 1.16377
 C273 C 0.18048 0.37024 1.16542
 C274 C 0.17696 0.37603 1.17596
 C275 C 0.16739 0.36911 1.18032
 H276 H 0.18784 0.37282 1.15949
 H277 H 0.16215 0.37080 1.18839
 N278 N 0.17305 0.33545 1.13866
 N279 N 0.16495 0.32662 1.13907
 C280 C 0.16687 0.31900 1.12975
 C281 C 0.17665 0.32323 1.12311
 C282 C 0.18032 0.33370 1.12903
 H283 H 0.16151 0.31098 1.12790
 H284 H 0.18789 0.33947 1.12664
 H285 H 0.16638 0.33430 1.16057
 H286 H 0.15567 0.34404 1.15174
 N287 N 0.14243 0.82397 0.66660
 N288 N 0.14225 0.83271 0.67468
 C289 C 0.13223 0.83152 0.68156
 C290 C 0.12581 0.82141 0.67763
 C291 C 0.13261 0.81686 0.66810
 H292 H 0.13000 0.83736 0.68908
 H293 H 0.13064 0.80893 0.66267
 Cu294 Cu 0.15550 0.84434 0.67591
 Cu295 Cu 0.15570 0.82213 0.65518
 Cu296 Cu 0.17420 0.84748 0.65200
 N297 N 0.16620 0.85827 0.67425
 N298 N 0.17337 0.85955 0.66486
 C299 C 0.17991 0.86981 0.66616
 C300 C 0.17666 0.87530 0.67696
 C301 C 0.16789 0.86769 0.68182
 H302 H 0.18662 0.87296 0.65976
 H303 H 0.16324 0.86876 0.69034
 N304 N 0.17376 0.83410 0.64014
 N305 N 0.16698 0.82432 0.64159
 C306 C 0.16899 0.81663 0.63236
 C307 C 0.17750 0.82178 0.62469
 C308 C 0.18030 0.83288 0.62993
 H309 H 0.16451 0.80795 0.63129
 H310 H 0.18683 0.83946 0.62671
 H311 H 0.16938 0.83309 0.66252
 H312 H 0.15671 0.84075 0.65432
 N313 N 0.36028 0.67371 0.66405
 N314 N 0.35991 0.66560 0.67275
 C315 C 0.36930 0.66754 0.68029
 C316 C 0.37592 0.67741 0.67612
 C317 C 0.36988 0.68108 0.66577
 H318 H 0.37109 0.66224 0.68831
 H319 H 0.37228 0.68853 0.65987
 Cu320 Cu 0.34715 0.65336 0.67342
 Cu321 Cu 0.34821 0.67423 0.65124
 Cu322 Cu 0.32557 0.65235 0.65192
 N323 N 0.33463 0.64086 0.67338
 N324 N 0.32622 0.64053 0.66499
 C325 C 0.31882 0.63101 0.66706
 C326 C 0.32278 0.62498 0.67732
 C327 C 0.33287 0.63153 0.68107
 H328 H 0.31114 0.62868 0.66145
 H329 H 0.33856 0.62965 0.68878
 N330 N 0.32649 0.66507 0.63943
 N331 N 0.33521 0.67331 0.63909
 C332 C 0.33344 0.68059 0.62948
 C333 C 0.32309 0.67680 0.62348
 C334 C 0.31892 0.66694 0.63006
 H335 H 0.33916 0.68822 0.62713
 H336 H 0.31102 0.66145 0.62810
 H337 H 0.33424 0.66629 0.66094
 H338 H 0.34400 0.65586 0.65180
 N339 N 0.36065 0.17320 1.16348
 N340 N 0.36054 0.16468 1.17178
 C341 C 0.36993 0.16648 1.17936
 C342 C 0.37628 0.17670 1.17562
 C343 C 0.37009 0.18071 1.16548
 H344 H 0.37188 0.16088 1.18713
 H345 H 0.37227 0.18849 1.15994
 Cu346 Cu 0.34803 0.15216 1.17197
 Cu347 Cu 0.34849 0.17406 1.15077
 Cu348 Cu 0.32566 0.15239 1.15128
 N349 N 0.33499 0.14020 1.17225
 N350 N 0.32628 0.14036 1.16415
 C351 C 0.31854 0.13115 1.16635
 C352 C 0.32257 0.12483 1.17640
 C353 C 0.33305 0.13087 1.17990
 H354 H 0.31053 0.12927 1.16103
 H355 H 0.33890 0.12860 1.18739
 N356 N 0.32661 0.16528 1.13897
 N357 N 0.33539 0.17345 1.13869
 C358 C 0.33363 0.18085 1.12917
 C359 C 0.32323 0.17720 1.12316
 C360 C 0.31902 0.16730 1.12966
 H361 H 0.33942 0.18844 1.12685
 H362 H 0.31109 0.16187 1.12766
 H363 H 0.33482 0.16581 1.16064
 H364 H 0.34409 0.15576 1.15062
 N365 N 0.86030 0.67303 1.16449
 N366 N 0.85993 0.66463 1.17291
 C367 C 0.86919 0.66642 1.18064
 C368 C 0.87576 0.67650 1.17686
 C369 C 0.86981 0.68044 1.16656
 H370 H 0.87106 0.66076 1.18838
 H371 H 0.87211 0.68820 1.16102
 Cu372 Cu 0.84738 0.65217 1.17288
 Cu373 Cu 0.84839 0.67382 1.15152
 Cu374 Cu 0.82574 0.65188 1.15152
 N375 N 0.83456 0.63999 1.17288
 N376 N 0.82623 0.63984 1.16440
 C377 C 0.81866 0.63042 1.16634
 C378 C 0.82241 0.62434 1.17663
 C379 C 0.83253 0.63070 1.18055
 H380 H 0.81093 0.62825 1.16073
 H381 H 0.83810 0.62860 1.18830
 N382 N 0.82683 0.66483 1.13926
 N383 N 0.83551 0.67311 1.13918
 C384 C 0.83383 0.68056 1.12969
 C385 C 0.82356 0.67685 1.12350
 C386 C 0.81936 0.66685 1.12985
 H387 H 0.83955 0.68825 1.12753
 H388 H 0.81151 0.66137 1.12770
 H389 H 0.83444 0.66556 1.16097
 H390 H 0.84414 0.65551 1.15138
 N391 N 0.85980 0.17401 0.66507
 N392 N 0.85965 0.16538 0.67327
 C393 C 0.86906 0.16702 0.68085
 C394 C 0.87543 0.17727 0.67725
 C395 C 0.86926 0.18147 0.66719
 H396 H 0.87107 0.16126 0.68850
 H397 H 0.87157 0.18925 0.66170
 Cu398 Cu 0.84712 0.15289 0.67324
 Cu399 Cu 0.84795 0.17479 0.65206
 Cu400 Cu 0.82605 0.15216 0.65130
 N401 N 0.83478 0.14022 0.67267
 N402 N 0.82659 0.13998 0.66406
 C403 C 0.81915 0.13043 0.66582
 C404 C 0.82285 0.12430 0.67612
 C405 C 0.83283 0.13081 0.68021
 H406 H 0.81162 0.12816 0.66001
 H407 H 0.83818 0.12894 0.68815
 N408 N 0.82698 0.16528 0.63922
 N409 N 0.83522 0.17399 0.63961
 C410 C 0.83338 0.18165 0.63031
 C411 C 0.82351 0.17758 0.62371
 C412 C 0.81970 0.16717 0.62964
 H413 H 0.83889 0.18956 0.62841
 H414 H 0.81206 0.16148 0.62725
 H415 H 0.83408 0.16599 0.66107
 H416 H 0.84439 0.15634 0.65170
 N417 N 0.32628 0.35920 0.66438
 N418 N 0.33436 0.35886 0.67308
 C419 C 0.33235 0.36822 0.68066
 C420 C 0.32244 0.37482 0.67651
 C421 C 0.31884 0.36877 0.66614
 H422 H 0.33769 0.37007 0.68862
 H423 H 0.31141 0.37114 0.66022
 Cu424 Cu 0.34684 0.34631 0.67366
 Cu425 Cu 0.32599 0.34727 0.65143
 Cu426 Cu 0.34865 0.32538 0.65150
 N427 N 0.35971 0.33416 0.67326
 N428 N 0.36047 0.32612 0.66452
 C429 C 0.37022 0.31897 0.66640
 C430 C 0.37589 0.32269 0.67692
 C431 C 0.36895 0.33236 0.68102
 H432 H 0.37286 0.31149 0.66063
 H433 H 0.37058 0.33778 0.68900
 N434 N 0.33586 0.32610 0.63911
 N435 N 0.32722 0.33443 0.63909
 C436 C 0.31984 0.33245 0.62960
 C437 C 0.32401 0.32237 0.62331
 C438 C 0.33420 0.31861 0.62964
 H439 H 0.31198 0.33793 0.62750
 H440 H 0.33998 0.31094 0.62758
 H441 H 0.33440 0.33333 0.66078
 H442 H 0.34446 0.34375 0.65195
 N443 N 0.32632 0.86005 0.16487
 N444 N 0.33460 0.85965 0.17338
 C445 C 0.33284 0.86904 0.18100
 C446 C 0.32289 0.87571 0.17708
 C447 C 0.31900 0.86968 0.16679
 H448 H 0.33845 0.87089 0.18877
 H449 H 0.31140 0.87206 0.16110
 Cu450 Cu 0.34695 0.84697 0.17367
 Cu451 Cu 0.32567 0.84812 0.15192
 Cu452 Cu 0.34795 0.82581 0.15173
 N453 N 0.35958 0.83458 0.17320
 N454 N 0.35994 0.82636 0.16461
 C455 C 0.36954 0.81898 0.16644
 C456 C 0.37557 0.82278 0.17675
 C457 C 0.36896 0.83273 0.18078
 H458 H 0.37195 0.81147 0.16063
 H459 H 0.37076 0.83817 0.18869
 N460 N 0.33502 0.82679 0.13947
 N461 N 0.32653 0.83526 0.13956
 C462 C 0.31906 0.83349 0.13012
 C463 C 0.32301 0.82339 0.12372
 C464 C 0.33317 0.81939 0.12996
 H465 H 0.31126 0.83911 0.12811
 H466 H 0.33884 0.81169 0.12774
 H467 H 0.33403 0.83408 0.16118
 H468 H 0.34408 0.84423 0.15205
 N469 N 0.82665 0.36024 0.16441
 N470 N 0.83502 0.35993 0.17285
 C471 C 0.83313 0.36918 0.18059
 C472 C 0.82305 0.37569 0.17677
 C473 C 0.81918 0.36973 0.16646
 H474 H 0.83876 0.37114 0.18833
 H475 H 0.81143 0.37203 0.16093
 Cu476 Cu 0.84766 0.34754 0.17277
 Cu477 Cu 0.82597 0.34826 0.15146
 Cu478 Cu 0.84845 0.32610 0.15115
 N479 N 0.86021 0.33508 0.17253
 N480 N 0.86048 0.32673 0.16404
 C481 C 0.87000 0.31929 0.16597
 C482 C 0.87608 0.32316 0.17622
 C483 C 0.86956 0.33322 0.18013
 H484 H 0.87234 0.31166 0.16026
 H485 H 0.87141 0.33873 0.18798
 N486 N 0.83547 0.32701 0.13894
 N487 N 0.82685 0.33537 0.13913
 C488 C 0.81924 0.33342 0.12983
 C489 C 0.82326 0.32338 0.12341
 C490 C 0.83359 0.31957 0.12946
 H491 H 0.81138 0.33897 0.12781
 H492 H 0.83921 0.31182 0.12724
 H493 H 0.83459 0.33440 0.16071
 H494 H 0.84436 0.34446 0.15123
 N495 N 0.82669 0.86015 0.66417
 N496 N 0.83543 0.86042 0.67222
 C497 C 0.83354 0.86989 0.67972
 C498 C 0.82305 0.87591 0.67616
 C499 C 0.81897 0.86942 0.66624
 H500 H 0.83932 0.87215 0.68726
 H501 H 0.81101 0.87130 0.66085
 Cu502 Cu 0.84838 0.84833 0.67221
 Cu503 Cu 0.82594 0.84784 0.65158
 Cu504 Cu 0.84841 0.82577 0.65164
 N505 N 0.86066 0.83556 0.67234
 N506 N 0.86054 0.82671 0.66437
 C507 C 0.86983 0.81908 0.66661
 C508 C 0.87618 0.82336 0.67651
 C509 C 0.87009 0.83386 0.67990
 H510 H 0.87187 0.81106 0.66133
 H511 H 0.87225 0.83972 0.68743
 N512 N 0.83538 0.82634 0.63949
 N513 N 0.82673 0.83467 0.63955
 C514 C 0.81918 0.83261 0.63022
 C515 C 0.82329 0.82253 0.62393
 C516 C 0.83359 0.81881 0.63007
 H517 H 0.81137 0.83815 0.62804
 H518 H 0.83930 0.81111 0.62790
 H519 H 0.83493 0.83456 0.66132
 H520 H 0.84434 0.84414 0.65098
 N521 N 0.67341 0.63950 0.66422
 N522 N 0.66538 0.64015 0.67297
 C523 C 0.66728 0.63091 0.68072
 C524 C 0.67702 0.62407 0.67661
 C525 C 0.68067 0.62981 0.66609
 H526 H 0.66192 0.62923 0.68872
 H527 H 0.68818 0.62728 0.66032
 Cu528 Cu 0.65318 0.65297 0.67344
 Cu529 Cu 0.67409 0.65144 0.65126
 Cu530 Cu 0.65228 0.67418 0.65157
 N531 N 0.64064 0.66546 0.67307
 N532 N 0.64036 0.67373 0.66452
 C533 C 0.63084 0.68119 0.66638
 C534 C 0.62476 0.67741 0.67667
 C535 C 0.63127 0.66738 0.68066
 H536 H 0.62849 0.68873 0.66058
 H537 H 0.62938 0.66192 0.68854
 N538 N 0.66507 0.67312 0.63920
 N539 N 0.67329 0.66438 0.63897
 C540 C 0.68073 0.66618 0.62948
 C541 C 0.67704 0.67658 0.62345
 C542 C 0.66708 0.68073 0.62988
 H543 H 0.68842 0.66048 0.62726
 H544 H 0.66166 0.68867 0.62790
 H545 H 0.66624 0.66555 0.66075
 H546 H 0.65580 0.65566 0.65177
 N547 N 0.67353 0.13911 0.16393
 N548 N 0.66562 0.13976 0.17279
 C549 C 0.66751 0.13041 0.18041
 C550 C 0.67712 0.12350 0.17610
 C551 C 0.68070 0.12933 0.16560
 H552 H 0.66222 0.12868 0.18845
 H553 H 0.68809 0.12676 0.15970
 Cu554 Cu 0.65354 0.15268 0.17353
 Cu555 Cu 0.67415 0.15114 0.15106
 Cu556 Cu 0.65252 0.17404 0.15176
 N557 N 0.64106 0.16525 0.17333
 N558 N 0.64074 0.17357 0.16483
 C559 C 0.63126 0.18104 0.16681
 C560 C 0.62524 0.17722 0.17711
 C561 C 0.63175 0.16714 0.18100
 H562 H 0.62886 0.18861 0.16105
 H563 H 0.62989 0.16163 0.18886
 N564 N 0.66517 0.17298 0.13924
 N565 N 0.67332 0.16417 0.13887
 C566 C 0.68064 0.16596 0.12928
 C567 C 0.67696 0.17643 0.12336
 C568 C 0.66713 0.18062 0.12995
 H569 H 0.68824 0.16019 0.12692
 H570 H 0.66175 0.18863 0.12808
 H571 H 0.66649 0.16526 0.16073
 H572 H 0.65587 0.15549 0.15184
 N573 N 0.17321 0.64029 0.16441
 N574 N 0.16514 0.64089 0.17313
 C575 C 0.16706 0.63163 0.18087
 C576 C 0.17683 0.62484 0.17677
 C577 C 0.18049 0.63062 0.16627
 H578 H 0.16165 0.62989 0.18882
 H579 H 0.18801 0.62811 0.16051
 Cu580 Cu 0.15282 0.65359 0.17356
 Cu581 Cu 0.17380 0.65221 0.15143
 Cu582 Cu 0.15160 0.67456 0.15146
 N583 N 0.14012 0.66591 0.17306
 N584 N 0.13966 0.67404 0.16439
 C585 C 0.13000 0.68135 0.16618
 C586 C 0.12403 0.67761 0.17655
 C587 C 0.13075 0.66777 0.18066
 H588 H 0.12759 0.68888 0.16039
 H589 H 0.12889 0.66228 0.18853
 N590 N 0.16444 0.67361 0.13912
 N591 N 0.17289 0.66509 0.13909
 C592 C 0.18038 0.66696 0.12965
 C593 C 0.17647 0.67717 0.12341
 C594 C 0.16632 0.68112 0.12971
 H595 H 0.18821 0.66140 0.12760
 H596 H 0.16069 0.68888 0.12760
 H597 H 0.16566 0.66627 0.16076
 H598 H 0.15543 0.65610 0.15187
 N599 N 0.17308 0.13960 0.66423
 N600 N 0.16474 0.13989 0.67271
 C601 C 0.16658 0.13050 0.68032
 C602 C 0.17663 0.12397 0.67640
 C603 C 0.18049 0.13005 0.66614
 H604 H 0.16109 0.12867 0.68819
 H605 H 0.18812 0.12775 0.66044
 Cu606 Cu 0.15243 0.15262 0.67302
 Cu607 Cu 0.17384 0.15167 0.65141
 Cu608 Cu 0.15186 0.17428 0.65157
 N609 N 0.13995 0.16518 0.67282
 N610 N 0.13987 0.17369 0.66449
 C611 C 0.13049 0.18127 0.66652
 C612 C 0.12428 0.17730 0.67666
 C613 C 0.13056 0.16704 0.68041
 H614 H 0.12828 0.18904 0.66095
 H615 H 0.12854 0.16146 0.68818
 N616 N 0.16475 0.17329 0.63926
 N617 N 0.17311 0.16468 0.63921
 C618 C 0.18062 0.16649 0.62979
 C619 C 0.17683 0.17674 0.62357
 C620 C 0.16672 0.18079 0.62985
 H621 H 0.18826 0.16072 0.62759
 H622 H 0.16128 0.18872 0.62783
 H623 H 0.16560 0.16563 0.66090
 H624 H 0.15549 0.15584 0.65149
 N625 N 0.32555 0.64043 0.33507
 N626 N 0.33408 0.64034 0.32677
 C627 C 0.33219 0.63086 0.31930
 C628 C 0.32189 0.62469 0.32311
 C629 C 0.31793 0.63106 0.33315
 H630 H 0.33779 0.62868 0.31159
 H631 H 0.31018 0.62896 0.33876
 Cu632 Cu 0.34675 0.65269 0.32650
 Cu633 Cu 0.32506 0.65252 0.34789
 Cu634 Cu 0.34798 0.67415 0.34809
 N635 N 0.35958 0.66486 0.32676
 N636 N 0.35999 0.67323 0.33522
 C637 C 0.36962 0.68051 0.33325
 C638 C 0.37562 0.67651 0.32299
 C639 C 0.36896 0.66654 0.31913
 H640 H 0.37206 0.68812 0.33892
 H641 H 0.37072 0.66099 0.31128
 N642 N 0.33498 0.67359 0.36032
 N643 N 0.32616 0.66547 0.36013
 C644 C 0.31865 0.66754 0.36951
 C645 C 0.32297 0.67741 0.37597
 C646 C 0.33335 0.68100 0.36987
 H647 H 0.31072 0.66214 0.37160
 H648 H 0.33921 0.68855 0.37214
 H649 H 0.33396 0.66614 0.33858
 H650 H 0.34354 0.65585 0.34803
 N651 N 0.32678 0.13957 0.83549
 N652 N 0.33554 0.13936 0.82743
 C653 C 0.33369 0.12994 0.81988
 C654 C 0.32322 0.12388 0.82340
 C655 C 0.31910 0.13030 0.83336
 H656 H 0.33950 0.12773 0.81233
 H657 H 0.31115 0.12838 0.83875
 Cu658 Cu 0.34845 0.15147 0.82752
 Cu659 Cu 0.32597 0.15180 0.84815
 Cu660 Cu 0.34838 0.17390 0.84824
 N661 N 0.36068 0.16427 0.82747
 N662 N 0.36051 0.17306 0.83549
 C663 C 0.36974 0.18077 0.83327
 C664 C 0.37611 0.17658 0.82332
 C665 C 0.37009 0.16606 0.81989
 H666 H 0.37172 0.18878 0.83858
 H667 H 0.37227 0.16027 0.81231
 N668 N 0.33533 0.17322 0.86039
 N669 N 0.32670 0.16489 0.86026
 C670 C 0.31910 0.16691 0.86958
 C671 C 0.32317 0.17695 0.87593
 C672 C 0.33350 0.18070 0.86984
 H673 H 0.31128 0.16136 0.87170
 H674 H 0.33917 0.18840 0.87205
 H675 H 0.33495 0.16515 0.83849
 H676 H 0.34436 0.15552 0.84878
 N677 N 0.82611 0.64051 0.83506
 N678 N 0.83459 0.64043 0.82672
 C679 C 0.83268 0.63095 0.81926
 C680 C 0.82241 0.62477 0.82311
 C681 C 0.81848 0.63113 0.83317
 H682 H 0.83827 0.62877 0.81154
 H683 H 0.81076 0.62901 0.83882
 Cu684 Cu 0.84728 0.65276 0.82641
 Cu685 Cu 0.82572 0.65254 0.84794
 Cu686 Cu 0.84885 0.67393 0.84828
 N687 N 0.86018 0.66485 0.82674
 N688 N 0.86083 0.67300 0.83539
 C689 C 0.87056 0.68016 0.83348
 C690 C 0.87633 0.67634 0.82303
 C691 C 0.86946 0.66659 0.81901
 H692 H 0.87310 0.68775 0.83915
 H693 H 0.87114 0.66112 0.81108
 N694 N 0.83585 0.67342 0.86051
 N695 N 0.82693 0.66540 0.86025
 C696 C 0.81939 0.66753 0.86958
 C697 C 0.82377 0.67734 0.87608
 C698 C 0.83424 0.68083 0.87006
 H699 H 0.81138 0.66223 0.87160
 H700 H 0.84015 0.68832 0.87237
 H701 H 0.83472 0.66620 0.83872
 H702 H 0.84424 0.65568 0.84799
 N703 N 0.82667 0.13936 0.33605
 N704 N 0.83542 0.13910 0.32799
 C705 C 0.83354 0.12968 0.32044
 C706 C 0.82301 0.12373 0.32394
 C707 C 0.81890 0.13016 0.33388
 H708 H 0.83927 0.12744 0.31285
 H709 H 0.81090 0.12826 0.33922
 Cu710 Cu 0.84830 0.15125 0.32792
 Cu711 Cu 0.82596 0.15156 0.34874
 Cu712 Cu 0.84817 0.17385 0.34845
 N713 N 0.86042 0.16414 0.32770
 N714 N 0.86030 0.17294 0.33572
 C715 C 0.86954 0.18062 0.33347
 C716 C 0.87586 0.17645 0.32346
 C717 C 0.86977 0.16595 0.32005
 H718 H 0.87149 0.18862 0.33878
 H719 H 0.87189 0.16010 0.31251
 N720 N 0.83516 0.17323 0.36064
 N721 N 0.82677 0.16466 0.36084
 C722 C 0.81931 0.16664 0.37027
 C723 C 0.82315 0.17698 0.37630
 C724 C 0.83323 0.18091 0.36991
 H725 H 0.81155 0.16105 0.37251
 H726 H 0.83882 0.18872 0.37195
 H727 H 0.83474 0.16488 0.33888
 H728 H 0.84433 0.15544 0.34918
 N729 N 0.67377 0.35956 0.33543
 N730 N 0.66492 0.35992 0.32748
 C731 C 0.66675 0.36940 0.32000
 C732 C 0.67733 0.37530 0.32342
 C733 C 0.68153 0.36877 0.33326
 H734 H 0.66091 0.37174 0.31252
 H735 H 0.68955 0.37064 0.33855
 Cu736 Cu 0.65197 0.34786 0.32757
 Cu737 Cu 0.67451 0.34737 0.34812
 Cu738 Cu 0.65186 0.32552 0.34837
 N739 N 0.63970 0.33510 0.32752
 N740 N 0.63972 0.32641 0.33565
 C741 C 0.63040 0.31881 0.33350
 C742 C 0.62413 0.32291 0.32344
 C743 C 0.63034 0.33330 0.31990
 H744 H 0.62842 0.31083 0.33885
 H745 H 0.62826 0.33911 0.31232
 N746 N 0.66493 0.32611 0.36048
 N747 N 0.67366 0.33433 0.36027
 C748 C 0.68123 0.33229 0.36960
 C749 C 0.67704 0.32234 0.37603
 C750 C 0.66668 0.31867 0.36997
 H751 H 0.68910 0.33778 0.37168
 H752 H 0.66090 0.31106 0.37225
 H753 H 0.66538 0.33409 0.33853
 H754 H 0.65610 0.34387 0.34882
 N755 N 0.67327 0.86036 0.83622
 N756 N 0.66480 0.86029 0.82787
 C757 C 0.66670 0.86966 0.82028
 C758 C 0.67693 0.87598 0.82406
 C759 C 0.68083 0.86976 0.83423
 H760 H 0.66112 0.87166 0.81252
 H761 H 0.68859 0.87188 0.83981
 Cu762 Cu 0.65217 0.84789 0.82772
 Cu763 Cu 0.67399 0.84820 0.84897
 Cu764 Cu 0.65207 0.82558 0.84849
 N765 N 0.64002 0.83501 0.82749
 N766 N 0.64007 0.82633 0.83563
 C767 C 0.63079 0.81867 0.83346
 C768 C 0.62453 0.82274 0.82339
 C769 C 0.63069 0.83316 0.81985
 H770 H 0.62875 0.81078 0.83890
 H771 H 0.62860 0.83893 0.81224
 N772 N 0.66494 0.82638 0.86079
 N773 N 0.67321 0.83507 0.86107
 C774 C 0.68062 0.83317 0.87054
 C775 C 0.67689 0.82274 0.87650
 C776 C 0.66692 0.81870 0.87004
 H777 H 0.68830 0.83883 0.87283
 H778 H 0.66143 0.81079 0.87200
 H779 H 0.66566 0.83459 0.83915
 H780 H 0.65570 0.84403 0.84909
 N781 N 0.17350 0.35986 0.83521
 N782 N 0.16539 0.35943 0.82654
 C783 C 0.16725 0.36881 0.81896
 C784 C 0.17710 0.37548 0.82305
 C785 C 0.18084 0.36949 0.83341
 H786 H 0.16190 0.37058 0.81098
 H787 H 0.18826 0.37199 0.83928
 Cu788 Cu 0.15312 0.34671 0.82594
 Cu789 Cu 0.17394 0.34791 0.84817
 Cu790 Cu 0.15174 0.32559 0.84791
 N791 N 0.14047 0.33435 0.82625
 N792 N 0.13988 0.32622 0.83492
 C793 C 0.13022 0.31896 0.83303
 C794 C 0.12443 0.32271 0.82258
 C795 C 0.13121 0.33251 0.81853
 H796 H 0.12769 0.31142 0.83877
 H797 H 0.12944 0.33800 0.81063
 N798 N 0.16452 0.32645 0.86030
 N799 N 0.17290 0.33503 0.86048
 C800 C 0.18026 0.33315 0.87001
 C801 C 0.17637 0.32287 0.87609
 C802 C 0.16636 0.31886 0.86966
 H803 H 0.18803 0.33873 0.87223
 H804 H 0.16079 0.31103 0.87169
 H805 H 0.16584 0.33389 0.83872
 H806 H 0.15555 0.34404 0.84762
 N807 N 0.17347 0.86003 0.33568
 N808 N 0.16522 0.85971 0.32713
 C809 C 0.16711 0.86905 0.31950
 C810 C 0.17709 0.87562 0.32346
 C811 C 0.18087 0.86959 0.33379
 H812 H 0.16158 0.87096 0.31168
 H813 H 0.18854 0.87186 0.33944
 Cu814 Cu 0.15287 0.84706 0.32671
 Cu815 Cu 0.17411 0.84793 0.34851
 Cu816 Cu 0.15204 0.82542 0.34813
 N817 N 0.14031 0.83462 0.32687
 N818 N 0.14005 0.82617 0.33525
 C819 C 0.13052 0.81877 0.33326
 C820 C 0.12441 0.82278 0.32306
 C821 C 0.13093 0.83288 0.31927
 H822 H 0.12826 0.81103 0.33882
 H823 H 0.12898 0.83860 0.31159
 N824 N 0.16492 0.82623 0.36043
 N825 N 0.17324 0.83487 0.36067
 C826 C 0.18064 0.83297 0.37015
 C827 C 0.17684 0.82261 0.37617
 C828 C 0.16685 0.81858 0.36973
 H829 H 0.18836 0.83860 0.37241
 H830 H 0.16132 0.81071 0.37173
 H831 H 0.16594 0.83406 0.33894
 H832 H 0.15576 0.84388 0.34828
 C833 C 0.24660 0.96203 0.25512
 C834 C 0.25500 0.96214 0.24601
 C835 C 0.25703 0.97425 0.24312
 N836 N 0.25007 0.98150 0.25014
 C837 C 0.24367 0.97407 0.25748
 C838 C 0.26538 0.97827 0.23425
 C839 C 0.26788 0.99063 0.23153
 C840 C 0.27715 0.99443 0.22392
 C841 C 0.27700 1.00693 0.22395
 C842 C 0.26764 1.01050 0.23156
 N843 N 0.26199 1.00049 0.23596
 C844 C 0.26487 1.02279 0.23434
 C845 C 0.25647 1.02659 0.24326
 C846 C 0.25419 1.03864 0.24623
 C847 C 0.24583 1.03852 0.25539
 C848 C 0.24316 1.02641 0.25768
 N849 N 0.24969 1.01916 0.25026
 C850 C 0.23447 1.02238 0.26621
 C851 C 0.23162 1.01002 0.26851
 C852 C 0.22178 1.00622 0.27536
 C853 C 0.22188 0.99373 0.27530
 C854 C 0.23180 0.99016 0.26841
 N855 N 0.23781 1.00016 0.26448
 C856 C 0.23487 0.97787 0.26601
 H857 H 0.24301 0.95397 0.25945
 H858 H 0.25916 0.95417 0.24201
 H859 H 0.24614 1.00025 0.26012
 H860 H 0.28353 0.98879 0.21903
 H861 H 0.28326 1.01272 0.21907
 H862 H 0.25816 1.04671 0.24227
 H863 H 0.24211 1.04648 0.25980
 H864 H 0.21528 0.98793 0.27969
 H865 H 0.25415 1.00040 0.24111
 H866 H 0.21507 1.01187 0.27981
 C867 C 0.25338 0.46161 0.74441
 C868 C 0.24420 0.46167 0.75276
 C869 C 0.24219 0.47374 0.75582
 N870 N 0.24982 0.48102 0.74958
 C871 C 0.25667 0.47366 0.74256
 C872 C 0.23375 0.47768 0.76463
 C873 C 0.23158 0.49001 0.76770
 C874 C 0.22489 0.49372 0.77766
 C875 C 0.22494 0.50622 0.77767
 C876 C 0.23168 0.50987 0.76773
 N877 N 0.23552 0.49993 0.76158
 C878 C 0.23399 0.52218 0.76471
 C879 C 0.24254 0.52604 0.75597
 C880 C 0.24475 0.53810 0.75299
 C881 C 0.25401 0.53806 0.74473
 C882 C 0.25716 0.52598 0.74286
 N883 N 0.25013 0.51868 0.74976
 C884 C 0.26631 0.52203 0.73476
 C885 C 0.26913 0.50970 0.73220
 C886 C 0.27725 0.50599 0.72336
 C887 C 0.27710 0.49348 0.72325
 C888 C 0.26891 0.48982 0.73205
 N889 N 0.26427 0.49977 0.73760
 C890 C 0.26581 0.47752 0.73441
 H891 H 0.25718 0.45359 0.74017
 H892 H 0.23960 0.45370 0.75622
 H893 H 0.25852 0.49979 0.74495
 H894 H 0.22053 0.48801 0.78433
 H895 H 0.22064 0.51196 0.78436
 H896 H 0.24022 0.54612 0.75645
 H897 H 0.25795 0.54604 0.74056
 H898 H 0.28230 0.48775 0.71721
 H899 H 0.23967 0.49992 0.75318
 H900 H 0.28259 0.51169 0.71742
 C901 C 0.74990 -0.03804 0.24207
 C902 C 0.75865 -0.03793 0.25087
 C903 C 0.75918 -0.02611 0.25522
 N904 N 0.75096 -0.01905 0.24946
 C905 C 0.74532 -0.02631 0.24137
 C906 C 0.76655 -0.02229 0.26493
 C907 C 0.76774 -0.01003 0.26862
 C908 C 0.77310 -0.00631 0.27932
 C909 C 0.77293 0.00621 0.27932
 C910 C 0.76750 0.00980 0.26861
 N911 N 0.76447 -0.00016 0.26210
 C912 C 0.76597 0.02202 0.26492
 C913 C 0.75856 0.02562 0.25514
 C914 C 0.75800 0.03733 0.25053
 C915 C 0.74930 0.03721 0.24170
 C916 C 0.74482 0.02544 0.24120
 N917 N 0.75046 0.01837 0.24947
 C918 C 0.73517 0.02162 0.23371
 C919 C 0.73160 0.00933 0.23236
 C920 C 0.72088 0.00557 0.22695
 C921 C 0.72100 -0.00695 0.22700
 C922 C 0.73179 -0.01049 0.23243
 N923 N 0.73824 -0.00051 0.23557
 C924 C 0.73558 -0.02271 0.23388
 H925 H 0.74714 -0.04591 0.23688
 H926 H 0.76393 -0.04570 0.25380
 H927 H 0.74718 -0.00041 0.23855
 H928 H 0.77680 -0.01201 0.28638
 H929 H 0.77645 0.01201 0.28639
 H930 H 0.76326 0.04517 0.25329
 H931 H 0.74653 0.04495 0.23630
 H932 H 0.71394 -0.01277 0.22342
 H933 H 0.76154 -0.00020 0.25320
 H934 H 0.71372 0.01124 0.22333
 C935 C 0.75820 0.53755 0.75112
 C936 C 0.74948 0.53757 0.74231
 C937 C 0.74496 0.52582 0.74167
 N938 N 0.75060 0.51863 0.74983
 C939 C 0.75874 0.52577 0.75558
 C940 C 0.73525 0.52214 0.73418
 C941 C 0.73161 0.50990 0.73269
 C942 C 0.72086 0.50626 0.72727
 C943 C 0.72088 0.49374 0.72722
 C944 C 0.73164 0.49007 0.73262
 N945 N 0.73818 0.49998 0.73582
 C946 C 0.73531 0.47782 0.73400
 C947 C 0.74502 0.47407 0.74147
 C948 C 0.74948 0.46228 0.74210
 C949 C 0.75824 0.46226 0.75088
 C950 C 0.75889 0.47404 0.75530
 N951 N 0.75075 0.48123 0.74958
 C952 C 0.76632 0.47773 0.76502
 C953 C 0.76766 0.48995 0.76878
 C954 C 0.77311 0.49355 0.77947
 C955 C 0.77305 0.50607 0.77955
 C956 C 0.76760 0.50978 0.76890
 N957 N 0.76446 0.49989 0.76233
 C958 C 0.76614 0.52204 0.76531
 H959 H 0.76348 0.54534 0.75398
 H960 H 0.74672 0.54539 0.73703
 H961 H 0.76149 0.49994 0.75345
 H962 H 0.71372 0.51202 0.72371
 H963 H 0.71376 0.48800 0.72361
 H964 H 0.74663 0.45447 0.73687
 H965 H 0.76345 0.45442 0.75376
 H966 H 0.77666 0.51179 0.78665
 H967 H 0.74711 0.49998 0.73880
 H968 H 0.77679 0.48777 0.78648
 C969 C 0.25776 0.53775 0.25065
 C970 C 0.24902 0.53781 0.24185
 C971 C 0.24450 0.52605 0.24119
 N972 N 0.25016 0.51884 0.24930
 C973 C 0.25831 0.52596 0.25506
 C974 C 0.23476 0.52241 0.23371
 C975 C 0.23113 0.51017 0.23218
 C976 C 0.22036 0.50654 0.22678
 C977 C 0.22041 0.49402 0.22665
 C978 C 0.23121 0.49035 0.23197
 N979 N 0.23773 0.50025 0.23522
 C980 C 0.23494 0.47810 0.23324
 C981 C 0.24470 0.47436 0.24065
 C982 C 0.24933 0.46263 0.24106
 C983 C 0.25808 0.46258 0.24985
 C984 C 0.25852 0.47428 0.25452
 N985 N 0.25030 0.48145 0.24891
 C986 C 0.26589 0.47789 0.26431
 C987 C 0.26723 0.49010 0.26811
 C988 C 0.27254 0.49365 0.27889
 C989 C 0.27249 0.50617 0.27902
 C990 C 0.26716 0.50992 0.26831
 N991 N 0.26409 0.50007 0.26167
 C992 C 0.26572 0.52220 0.26477
 H993 H 0.26305 0.54553 0.25352
 H994 H 0.24624 0.54564 0.23661
 H995 H 0.26119 0.50015 0.25276
 H996 H 0.21321 0.51231 0.22328
 H997 H 0.21330 0.48829 0.22303
 H998 H 0.24663 0.45489 0.23566
 H999 H 0.26344 0.45478 0.25257
 H1000 H 0.27600 0.51186 0.28618
 H1001 H 0.24668 0.50024 0.23816
 H1002 H 0.27608 0.48784 0.28593
 C1003 C 0.74548 0.96190 0.75445
 C1004 C 0.75459 0.96189 0.74603
 C1005 C 0.75707 0.97397 0.74338
 N1006 N 0.74978 0.98132 0.74996
 C1007 C 0.74269 0.97399 0.75676
 C1008 C 0.76568 0.97787 0.73472
 C1009 C 0.76814 0.99020 0.73184
 C1010 C 0.77518 0.99387 0.72212
 C1011 C 0.77519 1.00637 0.72213
 C1012 C 0.76814 1.01006 0.73185
 N1013 N 0.76406 1.00013 0.73785
 C1014 C 0.76570 1.02238 0.73474
 C1015 C 0.75709 1.02631 0.74340
 C1016 C 0.75461 1.03841 0.74602
 C1017 C 0.74549 1.03842 0.75442
 C1018 C 0.74268 1.02634 0.75673
 N1019 N 0.74979 1.01898 0.74997
 C1020 C 0.73389 1.02243 0.76521
 C1021 C 0.73126 1.01011 0.76796
 C1022 C 0.72383 1.00644 0.77740
 C1023 C 0.72384 0.99394 0.77741
 C1024 C 0.73126 0.99025 0.76797
 N1025 N 0.73555 1.00017 0.76212
 C1026 C 0.73391 0.97792 0.76525
 H1027 H 0.74141 0.95389 0.75845
 H1028 H 0.75886 0.95386 0.74226
 H1029 H 0.74048 1.00017 0.75417
 H1030 H 0.77972 0.98815 0.71557
 H1031 H 0.77974 1.01209 0.71558
 H1032 H 0.75888 1.04641 0.74223
 H1033 H 0.74143 1.04644 0.75842
 H1034 H 0.71906 0.98823 0.78379
 H1035 H 0.75954 1.00013 0.74604
 H1036 H 0.71904 1.01216 0.78377
 C1037 C 0.74170 0.46230 0.25082
 C1038 C 0.75047 0.46231 0.24203
 C1039 C 0.75497 0.47407 0.24143
 N1040 N 0.74928 0.48123 0.24959
 C1041 C 0.74113 0.47407 0.25531
 C1042 C 0.76469 0.47778 0.23396
 C1043 C 0.76831 0.49003 0.23250
 C1044 C 0.77905 0.49371 0.22705
 C1045 C 0.77898 0.50622 0.22698
 C1046 C 0.76821 0.50986 0.23240
 N1047 N 0.76171 0.49993 0.23563
 C1048 C 0.76447 0.52210 0.23377
 C1049 C 0.75476 0.52579 0.24127
 C1050 C 0.75020 0.53754 0.24186
 C1051 C 0.74148 0.53754 0.25069
 C1052 C 0.74098 0.52578 0.25520
 N1053 N 0.74915 0.51863 0.24947
 C1054 C 0.73361 0.52208 0.26498
 C1055 C 0.73222 0.50984 0.26865
 C1056 C 0.72687 0.50619 0.27939
 C1057 C 0.72689 0.49367 0.27941
 C1058 C 0.73226 0.49001 0.26869
 N1059 N 0.73536 0.49992 0.26213
 C1060 C 0.73371 0.47776 0.26505
 H1061 H 0.73642 0.45450 0.25364
 H1062 H 0.75327 0.45451 0.23675
 H1063 H 0.73828 0.49991 0.25323
 H1064 H 0.78618 0.48796 0.22345
 H1065 H 0.78606 0.51199 0.22333
 H1066 H 0.75294 0.54534 0.23655
 H1067 H 0.73618 0.54533 0.25353
 H1068 H 0.72333 0.48793 0.28651
 H1069 H 0.75276 0.49991 0.23860
 H1070 H 0.72328 0.51195 0.28647
 C1071 C 0.24491 -0.03857 0.74598
 C1072 C 0.25420 -0.03861 0.75420
 C1073 C 0.25700 -0.02653 0.75653
 N1074 N 0.24975 -0.01916 0.74995
 C1075 C 0.24235 -0.02647 0.74348
 C1076 C 0.26587 -0.02265 0.76493
 C1077 C 0.26850 -0.01034 0.76772
 C1078 C 0.27589 -0.00670 0.77718
 C1079 C 0.27591 0.00579 0.77722
 C1080 C 0.26854 0.00952 0.76777
 N1081 N 0.26425 -0.00038 0.76188
 C1082 C 0.26596 0.02187 0.76505
 C1083 C 0.25717 0.02582 0.75659
 C1084 C 0.25458 0.03792 0.75412
 C1085 C 0.24535 0.03796 0.74584
 C1086 C 0.24261 0.02588 0.74344
 N1087 N 0.24985 0.01850 0.75003
 C1088 C 0.23377 0.02200 0.73501
 C1089 C 0.23112 0.00968 0.73226
 C1090 C 0.22372 0.00603 0.72280
 C1091 C 0.22365 -0.00647 0.72282
 C1092 C 0.23100 -0.01018 0.73229
 N1093 N 0.23533 -0.00027 0.73814
 C1094 C 0.23350 -0.02252 0.73509
 H1095 H 0.24058 -0.04657 0.74225
 H1096 H 0.25833 -0.04664 0.75809
 H1097 H 0.24017 -0.00029 0.74614
 H1098 H 0.28065 -0.01245 0.78355
 H1099 H 0.28067 0.01148 0.78364
 H1100 H 0.25885 0.04592 0.75790
 H1101 H 0.24118 0.04599 0.74199
 H1102 H 0.21887 -0.01217 0.71643
 H1103 H 0.25939 -0.00035 0.75389
 H1104 H 0.21901 0.01177 0.71639
 C1105 C 0.24940 0.25834 1.03678
 C1106 C 0.25826 0.24957 1.03678
 C1107 C 0.25879 0.24495 1.02516
 N1108 N 0.25051 0.25057 1.01808
 C1109 C 0.24479 0.25880 1.02516
 C1110 C 0.26630 0.23519 1.02150
 C1111 C 0.26768 0.23146 1.00938
 C1112 C 0.27311 0.22066 1.00577
 C1113 C 0.27309 0.22062 0.99337
 C1114 C 0.26764 0.23140 0.98973
 N1115 N 0.26447 0.23800 0.99954
 C1116 C 0.26622 0.23507 0.97759
 C1117 C 0.25868 0.24480 0.97393
 C1118 C 0.25812 0.24937 0.96228
 C1119 C 0.24925 0.25813 0.96229
 C1120 C 0.24468 0.25864 0.97393
 N1121 N 0.25043 0.25045 0.98102
 C1122 C 0.23485 0.26606 0.97759
 C1123 C 0.23118 0.26749 0.98973
 C1124 C 0.22037 0.27284 0.99337
 C1125 C 0.22039 0.27288 1.00577
 C1126 C 0.23123 0.26756 1.00938
 N1127 N 0.23780 0.26441 0.99955
 C1128 C 0.23495 0.26620 1.02151
 H1129 H 0.24660 0.26370 1.04449
 H1130 H 0.26365 0.24684 1.04449
 H1131 H 0.24678 0.26150 0.99953
 H1132 H 0.27674 0.21354 1.01148
 H1133 H 0.27668 0.21347 0.98768
 H1134 H 0.26349 0.24662 0.95456
 H1135 H 0.24642 0.26345 0.95457
 H1136 H 0.21324 0.27644 1.01149
 H1137 H 0.26149 0.24696 0.99953
 H1138 H 0.21319 0.27636 0.98767
 C1139 C 0.25850 0.74963 0.46274
 C1140 C 0.24959 0.75836 0.46273
 C1141 C 0.24497 0.75880 0.47435
 N1142 N 0.25070 0.75060 0.48144
 C1143 C 0.25901 0.74501 0.47436
 C1144 C 0.23507 0.76614 0.47799
 C1145 C 0.23134 0.76752 0.49012
 C1146 C 0.22046 0.77276 0.49372
 C1147 C 0.22043 0.77277 0.50613
 C1148 C 0.23130 0.76753 0.50977
 N1149 N 0.23794 0.76447 0.49995
 C1150 C 0.23498 0.76615 0.52191
 C1151 C 0.24485 0.75879 0.52555
 C1152 C 0.24947 0.75835 0.53718
 C1153 C 0.25833 0.74958 0.53719
 C1154 C 0.25886 0.74496 0.52557
 N1155 N 0.25058 0.75057 0.51848
 C1156 C 0.26636 0.73519 0.52192
 C1157 C 0.26781 0.73151 0.50979
 C1158 C 0.27325 0.72072 0.50617
 C1159 C 0.27330 0.72074 0.49377
 C1160 C 0.26789 0.73154 0.49015
 N1161 N 0.26467 0.73810 0.49997
 C1162 C 0.26653 0.73526 0.47802
 H1163 H 0.26390 0.74692 0.45503
 H1164 H 0.24679 0.76370 0.45502
 H1165 H 0.26170 0.74707 0.49998
 H1166 H 0.21328 0.77623 0.48801
 H1167 H 0.21322 0.77624 0.51182
 H1168 H 0.24667 0.76371 0.54488
 H1169 H 0.26371 0.74686 0.54490
 H1170 H 0.27691 0.71361 0.48806
 H1171 H 0.24694 0.76163 0.49996
 H1172 H 0.27682 0.71357 0.51187
 C1173 C 0.24664 0.74483 -0.03800
 C1174 C 0.25503 0.75403 -0.03808
 C1175 C 0.25747 0.75682 -0.02613
 N1176 N 0.25077 0.74965 -0.01879
 C1177 C 0.24412 0.74232 -0.02600
 C1178 C 0.26600 0.76566 -0.02232
 C1179 C 0.26870 0.76843 -0.01012
 C1180 C 0.27822 0.77584 -0.00651
 C1181 C 0.27812 0.77603 0.00587
 C1182 C 0.26855 0.76871 0.00956
 N1183 N 0.26271 0.76430 -0.00026
 C1184 C 0.26567 0.76629 0.02179
 C1185 C 0.25716 0.75749 0.02574
 C1186 C 0.25473 0.75489 0.03775
 C1187 C 0.24637 0.74567 0.03783
 C1188 C 0.24386 0.74295 0.02587
 N1189 N 0.25049 0.75018 0.01853
 C1190 C 0.23529 0.73415 0.02206
 C1191 C 0.23253 0.73145 0.00987
 C1192 C 0.22290 0.72417 0.00626
 C1193 C 0.22298 0.72401 -0.00612
 C1194 C 0.23264 0.73121 -0.00982
 N1195 N 0.23855 0.73553 0.00000
 C1196 C 0.23553 0.73361 -0.02205
 H1197 H 0.24278 0.74055 -0.04591
 H1198 H 0.25891 0.75816 -0.04607
 H1199 H 0.24668 0.74026 -0.00002
 H1200 H 0.28473 0.78050 -0.01220
 H1201 H 0.28453 0.78086 0.01151
 H1202 H 0.25863 0.75914 0.04566
 H1203 H 0.24255 0.74149 0.04581
 H1204 H 0.21649 0.71928 -0.01177
 H1205 H 0.25466 0.75945 -0.00024
 H1206 H 0.21635 0.71959 0.01195
 C1207 C 0.25410 0.25429 0.46181
 C1208 C 0.24486 0.24595 0.46192
 C1209 C 0.24254 0.24324 0.47392
 N1210 N 0.25004 0.24972 0.48111
 C1211 C 0.25712 0.25650 0.47376
 C1212 C 0.23394 0.23456 0.47788
 C1213 C 0.23162 0.23164 0.49012
 C1214 C 0.22462 0.22183 0.49384
 C1215 C 0.22472 0.22185 0.50622
 C1216 C 0.23177 0.23166 0.50980
 N1217 N 0.23576 0.23772 0.49992
 C1218 C 0.23429 0.23460 0.52199
 C1219 C 0.24302 0.24325 0.52577
 C1220 C 0.24548 0.24607 0.53771
 C1221 C 0.25479 0.25433 0.53762
 C1222 C 0.25770 0.25639 0.52562
 N1223 N 0.25049 0.24959 0.51842
 C1224 C 0.26675 0.26463 0.52165
 C1225 C 0.26939 0.26731 0.50942
 C1226 C 0.27716 0.27651 0.50570
 C1227 C 0.27698 0.27658 0.49331
 C1228 C 0.26912 0.26740 0.48973
 N1229 N 0.26471 0.26165 0.49961
 C1230 C 0.26617 0.26483 0.47754
 H1231 H 0.25811 0.25828 0.45382
 H1232 H 0.24043 0.24223 0.45402
 H1233 H 0.25939 0.25391 0.49965
 H1234 H 0.22004 0.21522 0.48822
 H1235 H 0.22024 0.21524 0.51194
 H1236 H 0.24108 0.24250 0.54569
 H1237 H 0.25889 0.25840 0.54552
 H1238 H 0.28194 0.28284 0.48760
 H1239 H 0.24024 0.24600 0.49987
 H1240 H 0.28228 0.28271 0.51132
 C1241 C 0.74982 0.75816 1.03719
 C1242 C 0.75877 0.74948 1.03719
 C1243 C 0.75939 0.74493 1.02554
 N1244 N 0.75109 0.75050 1.01845
 C1245 C 0.74527 0.75864 1.02555
 C1246 C 0.76700 0.73525 1.02188
 C1247 C 0.76847 0.73158 1.00974
 C1248 C 0.77400 0.72084 1.00612
 C1249 C 0.77402 0.72085 0.99372
 C1250 C 0.76851 0.73160 0.99010
 N1251 N 0.76526 0.73814 0.99992
 C1252 C 0.76709 0.73529 0.97797
 C1253 C 0.75949 0.74498 0.97432
 C1254 C 0.75894 0.74959 0.96269
 C1255 C 0.74998 0.75826 0.96269
 C1256 C 0.74536 0.75868 0.97432
 N1257 N 0.75115 0.75051 0.98140
 C1258 C 0.73544 0.76597 0.97798
 C1259 C 0.73170 0.76732 0.99010
 C1260 C 0.72082 0.77256 0.99372
 C1261 C 0.72081 0.77256 1.00613
 C1262 C 0.73168 0.76732 1.00975
 N1263 N 0.73831 0.76426 0.99993
 C1264 C 0.73537 0.76596 1.02189
 H1265 H 0.74695 0.76346 1.04491
 H1266 H 0.76414 0.74676 1.04490
 H1267 H 0.74731 0.76144 0.99993
 H1268 H 0.77765 0.71372 1.01182
 H1269 H 0.77768 0.71374 0.98802
 H1270 H 0.76436 0.74692 0.95498
 H1271 H 0.74714 0.76360 0.95499
 H1272 H 0.71361 0.77604 1.01182
 H1273 H 0.76221 0.74708 0.99993
 H1274 H 0.71364 0.77604 0.98801
 C1275 C 0.74147 0.25035 0.46282
 C1276 C 0.75039 0.24164 0.46278
 C1277 C 0.75501 0.24116 0.47440
 N1278 N 0.74926 0.24934 0.48151
 C1279 C 0.74094 0.25493 0.47446
 C1280 C 0.76490 0.23381 0.47801
 C1281 C 0.76866 0.23245 0.49012
 C1282 C 0.77952 0.22715 0.49369
 C1283 C 0.77960 0.22718 0.50609
 C1284 C 0.76878 0.23250 0.50977
 N1285 N 0.76211 0.23557 0.49998
 C1286 C 0.76515 0.23393 0.52192
 C1287 C 0.75530 0.24129 0.52563
 C1288 C 0.75082 0.24182 0.53730
 C1289 C 0.74190 0.25053 0.53734
 C1290 C 0.74122 0.25505 0.52568
 N1291 N 0.74945 0.24942 0.51855
 C1292 C 0.73363 0.26475 0.52205
 C1293 C 0.73210 0.26840 0.50992
 C1294 C 0.72658 0.27915 0.50631
 C1295 C 0.72652 0.27912 0.49391
 C1296 C 0.73200 0.26835 0.49028
 N1297 N 0.73526 0.26182 0.50009
 C1298 C 0.73339 0.26465 0.47814
 H1299 H 0.73606 0.25307 0.45512
 H1300 H 0.75321 0.23632 0.45505
 H1301 H 0.73829 0.25287 0.50009
 H1302 H 0.78666 0.22360 0.48795
 H1303 H 0.78680 0.22367 0.51176
 H1304 H 0.75373 0.23655 0.54502
 H1305 H 0.73659 0.25330 0.54509
 H1306 H 0.72284 0.28623 0.48822
 H1307 H 0.75313 0.23844 0.50003
 H1308 H 0.72297 0.28627 0.51203
 C1309 C 0.74988 0.24160 -0.03727
 C1310 C 0.75875 0.25035 -0.03723
 C1311 C 0.75927 0.25491 -0.02558
 N1312 N 0.75099 0.24926 -0.01852
 C1313 C 0.74527 0.24109 -0.02564
 C1314 C 0.76676 0.26465 -0.02189
 C1315 C 0.76813 0.26833 -0.00975
 C1316 C 0.77351 0.27913 -0.00609
 C1317 C 0.77345 0.27911 0.00631
 C1318 C 0.76804 0.26830 0.00990
 N1319 N 0.76495 0.26173 0.00006
 C1320 C 0.76658 0.26460 0.02203
 C1321 C 0.75913 0.25478 0.02564
 C1322 C 0.75857 0.25018 0.03727
 C1323 C 0.74976 0.24137 0.03723
 C1324 C 0.74522 0.24088 0.02558
 N1325 N 0.75093 0.24912 0.01852
 C1326 C 0.73541 0.23346 0.02189
 C1327 C 0.73173 0.23211 0.00975
 C1328 C 0.72090 0.22680 0.00611
 C1329 C 0.72090 0.22688 -0.00629
 C1330 C 0.73173 0.23223 -0.00989
 N1331 N 0.73832 0.23527 -0.00006
 C1332 C 0.73542 0.23369 -0.02202
 H1333 H 0.74709 0.23629 -0.04501
 H1334 H 0.76414 0.25311 -0.04493
 H1335 H 0.74730 0.23817 -0.00005
 H1336 H 0.77712 0.28628 -0.01177
 H1337 H 0.77700 0.28625 0.01204
 H1338 H 0.76389 0.25294 0.04500
 H1339 H 0.74695 0.23601 0.04493
 H1340 H 0.71374 0.22338 -0.01201
 H1341 H 0.76201 0.25275 0.00003
 H1342 H 0.71374 0.22324 0.01180
 C1343 C 0.74971 0.74173 0.46281
 C1344 C 0.75853 0.75052 0.46278
 C1345 C 0.75912 0.75509 0.47442
 N1346 N 0.75094 0.74939 0.48155
 C1347 C 0.74521 0.74119 0.47448
 C1348 C 0.76656 0.76491 0.47803
 C1349 C 0.76808 0.76853 0.49017
 C1350 C 0.77343 0.77935 0.49380
 C1351 C 0.77354 0.77928 0.50621
 C1352 C 0.76825 0.76842 0.50982
 N1353 N 0.76506 0.76187 0.49999
 C1354 C 0.76695 0.76466 0.52194
 C1355 C 0.75952 0.75485 0.52561
 C1356 C 0.75909 0.75020 0.53723
 C1357 C 0.75025 0.74142 0.53727
 C1358 C 0.74558 0.74097 0.52567
 N1359 N 0.75122 0.74922 0.51857
 C1360 C 0.73573 0.73357 0.52207
 C1361 C 0.73195 0.73222 0.50996
 C1362 C 0.72111 0.72689 0.50640
 C1363 C 0.72102 0.72695 0.49400
 C1364 C 0.73181 0.73230 0.49032
 N1365 N 0.73847 0.73537 0.50010
 C1366 C 0.73541 0.73376 0.47817
 H1367 H 0.74687 0.73641 0.45510
 H1368 H 0.76384 0.75330 0.45503
 H1369 H 0.74744 0.73829 0.50005
 H1370 H 0.77690 0.78656 0.48811
 H1371 H 0.77711 0.78642 0.51191
 H1372 H 0.76450 0.75293 0.54492
 H1373 H 0.74752 0.73604 0.54499
 H1374 H 0.71382 0.72344 0.48833
 H1375 H 0.76215 0.75289 0.49997
 H1376 H 0.71399 0.72333 0.51215
 C1377 C 0.96188 0.25493 0.24548
 C1378 C 0.96171 0.24565 0.25373
 C1379 C 0.97373 0.24261 0.25599
 N1380 N 0.98119 0.24969 0.24932
 C1381 C 0.97399 0.25723 0.24287
 C1382 C 0.97749 0.23356 0.26429
 C1383 C 0.98975 0.23062 0.26695
 C1384 C 0.99329 0.22279 0.27612
 C1385 C 1.00577 0.22264 0.27619
 C1386 C 1.00959 0.23040 0.26708
 N1387 N 0.99976 0.23503 0.26134
 C1388 C 1.02194 0.23306 0.26455
 C1389 C 1.02600 0.24205 0.25634
 C1390 C 1.03811 0.24503 0.25445
 C1391 C 1.03826 0.25430 0.24620
 C1392 C 1.02624 0.25671 0.24326
 N1393 N 1.01880 0.24921 0.24948
 C1394 C 1.02250 0.26542 0.23463
 C1395 C 1.01023 0.26795 0.23162
 C1396 C 1.00670 0.27505 0.22189
 C1397 C 0.99422 0.27519 0.22181
 C1398 C 0.99041 0.26816 0.23149
 N1399 N 1.00024 0.26397 0.23756
 C1400 C 0.97805 0.26588 0.23432
 H1401 H 0.95395 0.25940 0.24176
 H1402 H 0.95363 0.24163 0.25761
 H1403 H 1.00013 0.25947 0.24577
 H1404 H 0.98749 0.21784 0.28230
 H1405 H 1.01137 0.21753 0.28241
 H1406 H 1.04603 0.24100 0.25863
 H1407 H 1.04632 0.25874 0.24275
 H1408 H 0.98860 0.27981 0.21524
 H1409 H 0.99987 0.24033 0.25364
 H1410 H 1.01251 0.27954 0.21539
 C1411 C 0.46275 0.25016 0.74143
 C1412 C 0.46271 0.24128 0.75010
 C1413 C 0.47442 0.24071 0.75467
 N1414 N 0.48159 0.24898 0.74911
 C1415 C 0.47448 0.25474 0.74098
 C1416 C 0.47806 0.23321 0.76437
 C1417 C 0.49027 0.23175 0.76806
 C1418 C 0.49387 0.22634 0.77877
 C1419 C 0.50637 0.22634 0.77882
 C1420 C 0.51006 0.23176 0.76813
 N1421 N 0.50019 0.23491 0.76157
 C1422 C 0.52231 0.23322 0.76454
 C1423 C 0.52602 0.24070 0.75485
 C1424 C 0.53776 0.24125 0.75036
 C1425 C 0.53780 0.25012 0.74167
 C1426 C 0.52607 0.25470 0.74113
 N1427 N 0.51889 0.24896 0.74923
 C1428 C 0.52242 0.26456 0.73379
 C1429 C 0.51020 0.26827 0.73238
 C1430 C 0.50658 0.27914 0.72714
 C1431 C 0.49408 0.27916 0.72711
 C1432 C 0.49041 0.26830 0.73234
 N1433 N 0.50029 0.26167 0.73542
 C1434 C 0.47818 0.26462 0.73369
 H1435 H 0.45499 0.25299 0.73612
 H1436 H 0.45493 0.23592 0.75280
 H1437 H 0.50028 0.25267 0.73826
 H1438 H 0.48809 0.22276 0.78584
 H1439 H 0.51208 0.22276 0.78593
 H1440 H 0.54553 0.23589 0.75313
 H1441 H 0.54560 0.25293 0.73641
 H1442 H 0.48835 0.28636 0.72363
 H1443 H 0.50023 0.23790 0.75269
 H1444 H 0.51234 0.28633 0.72368
 C1445 C 0.03737 0.25072 0.75827
 C1446 C 0.03742 0.24183 0.74960
 C1447 C 0.02569 0.24117 0.74512
 N1448 N 0.01849 0.24939 0.75072
 C1449 C 0.02561 0.25521 0.75880
 C1450 C 0.02204 0.23361 0.73547
 C1451 C 0.00982 0.23207 0.73186
 C1452 C 0.00620 0.22652 0.72122
 C1453 C -0.00629 0.22644 0.72124
 C1454 C -0.00997 0.23194 0.73190
 N1455 N -0.00009 0.23522 0.73837
 C1456 C -0.02221 0.23333 0.73555
 C1457 C -0.02594 0.24091 0.74516
 C1458 C -0.03768 0.24146 0.74967
 C1459 C -0.03773 0.25038 0.75831
 C1460 C -0.02602 0.25500 0.75879
 N1461 N -0.01884 0.24923 0.75071
 C1462 C -0.02238 0.26489 0.76609
 C1463 C -0.01017 0.26864 0.76747
 C1464 C -0.00658 0.27951 0.77272
 C1465 C 0.00592 0.27956 0.77273
 C1466 C 0.00962 0.26871 0.76748
 N1467 N -0.00024 0.26206 0.76441
 C1468 C 0.02187 0.26506 0.76611
 H1469 H 0.04515 0.25361 0.76351
 H1470 H 0.04524 0.23653 0.74684
 H1471 H -0.00020 0.25306 0.76157
 H1472 H 0.01197 0.22290 0.71416
 H1473 H -0.01202 0.22275 0.71420
 H1474 H -0.04543 0.23605 0.74696
 H1475 H -0.04553 0.25321 0.76357
 H1476 H 0.01163 0.28676 0.77621
 H1477 H -0.00011 0.23828 0.74723
 H1478 H -0.01236 0.28668 0.77619
 C1479 C 0.46200 0.25309 0.25526
 C1480 C 0.46199 0.24387 0.24693
 C1481 C 0.47401 0.24193 0.24368
 N1482 N 0.48131 0.24966 0.24976
 C1483 C 0.47403 0.25649 0.25689
 C1484 C 0.47789 0.23353 0.23480
 C1485 C 0.49019 0.23133 0.23169
 C1486 C 0.49387 0.22480 0.22163
 C1487 C 0.50635 0.22474 0.22166
 C1488 C 0.51002 0.23124 0.23174
 N1489 N 0.50010 0.23505 0.23793
 C1490 C 0.52232 0.23331 0.23491
 C1491 C 0.52621 0.24166 0.24381
 C1492 C 0.53824 0.24351 0.24707
 C1493 C 0.53826 0.25270 0.25542
 C1494 C 0.52625 0.25618 0.25705
 N1495 N 0.51894 0.24942 0.24991
 C1496 C 0.52238 0.26550 0.26502
 C1497 C 0.51009 0.26871 0.26727
 C1498 C 0.50642 0.27747 0.27552
 C1499 C 0.49393 0.27756 0.27547
 C1500 C 0.49023 0.26884 0.26720
 N1501 N 0.50016 0.26363 0.26216
 C1502 C 0.47793 0.26578 0.26485
 H1503 H 0.45403 0.25684 0.25962
 H1504 H 0.45402 0.23919 0.24360
 H1505 H 0.50015 0.25708 0.25552
 H1506 H 0.48815 0.22060 0.21486
 H1507 H 0.51208 0.22048 0.21492
 H1508 H 0.54619 0.23879 0.24373
 H1509 H 0.54624 0.25640 0.25978
 H1510 H 0.48822 0.28327 0.28106
 H1511 H 0.50009 0.23897 0.24643
 H1512 H 0.51214 0.28311 0.28116
 C1513 C 0.96261 0.75815 0.74923
 C1514 C 0.96261 0.74925 0.75789
 C1515 C 0.97437 0.74472 0.75842
 N1516 N 0.98151 0.75053 0.75034
 C1517 C 0.97435 0.75878 0.74475
 C1518 C 0.97808 0.73489 0.76576
 C1519 C 0.99033 0.73128 0.76723
 C1520 C 0.99403 0.72046 0.77254
 C1521 C 1.00653 0.72059 0.77268
 C1522 C 1.01012 0.73146 0.76743
 N1523 N 1.00019 0.73797 0.76424
 C1524 C 1.02232 0.73528 0.76616
 C1525 C 1.02601 0.74508 0.75877
 C1526 C 1.03773 0.74966 0.75824
 C1527 C 1.03773 0.75846 0.74947
 C1528 C 1.02599 0.75899 0.74495
 N1529 N 1.01886 0.75076 0.75060
 C1530 C 1.02231 0.76645 0.73524
 C1531 C 1.01009 0.76789 0.73158
 C1532 C 1.00646 0.77339 0.72092
 C1533 C 0.99396 0.77337 0.72089
 C1534 C 0.99029 0.76785 0.73153
 N1535 N 1.00017 0.76464 0.73805
 C1536 C 0.97805 0.76638 0.73514
 H1537 H 0.95481 0.76350 0.74649
 H1538 H 0.95483 0.74638 0.76314
 H1539 H 1.00015 0.76157 0.74689
 H1540 H 0.98832 0.71322 0.77596
 H1541 H 1.01231 0.71346 0.77622
 H1542 H 1.04551 0.74689 0.76354
 H1543 H 1.04550 0.76379 0.74668
 H1544 H 0.98823 0.77700 0.71382
 H1545 H 1.00013 0.74696 0.76137
 H1546 H 1.01222 0.77706 0.71389
 C1547 C 0.53818 0.75412 0.24562
 C1548 C 0.53816 0.74486 0.25389
 C1549 C 0.52609 0.74223 0.25634
 N1550 N 0.51877 0.74957 0.24980
 C1551 C 0.52612 0.75685 0.24322
 C1552 C 0.52216 0.73344 0.26481
 C1553 C 0.50984 0.73083 0.26753
 C1554 C 0.50613 0.72353 0.27706
 C1555 C 0.49366 0.72347 0.27697
 C1556 C 0.49001 0.73074 0.26740
 N1557 N 0.49995 0.73500 0.26155
 C1558 C 0.47771 0.73323 0.26451
 C1559 C 0.47382 0.74204 0.25604
 C1560 C 0.46176 0.74460 0.25346
 C1561 C 0.46177 0.75391 0.24525
 C1562 C 0.47385 0.75672 0.24299
 N1563 N 0.48117 0.74946 0.24961
 C1564 C 0.47778 0.76568 0.23468
 C1565 C 0.49009 0.76836 0.23201
 C1566 C 0.49379 0.77589 0.22265
 C1567 C 0.50627 0.77589 0.22269
 C1568 C 0.50992 0.76838 0.23207
 N1569 N 0.49999 0.76401 0.23784
 C1570 C 0.52223 0.76573 0.23481
 H1571 H 0.54620 0.75833 0.24180
 H1572 H 0.54616 0.74060 0.25769
 H1573 H 0.49997 0.75902 0.24575
 H1574 H 0.51182 0.71887 0.28355
 H1575 H 0.48792 0.71877 0.28339
 H1576 H 0.45375 0.74027 0.25714
 H1577 H 0.45378 0.75808 0.24135
 H1578 H 0.51200 0.78074 0.21637
 H1579 H 0.49999 0.73974 0.25348
 H1580 H 0.48810 0.78072 0.21630
 C1581 C 0.03783 0.75486 0.25406
 C1582 C 0.03777 0.74645 0.24495
 C1583 C 0.02569 0.74361 0.24275
 N1584 N 0.01841 0.75010 0.25017
 C1585 C 0.02578 0.75701 0.25709
 C1586 C 0.02173 0.73484 0.23427
 C1587 C 0.00941 0.73184 0.23206
 C1588 C 0.00569 0.72191 0.22529
 C1589 C -0.00678 0.72189 0.22541
 C1590 C -0.01042 0.73182 0.23225
 N1591 N -0.00048 0.73796 0.23611
 C1592 C -0.02271 0.73480 0.23468
 C1593 C -0.02657 0.74362 0.24316
 C1594 C -0.03862 0.74648 0.24551
 C1595 C -0.03857 0.75497 0.25456
 C1596 C -0.02649 0.75712 0.25741
 N1597 N -0.01920 0.75015 0.25043
 C1598 C -0.02252 0.76560 0.26618
 C1599 C -0.01019 0.76821 0.26885
 C1600 C -0.00646 0.77759 0.27636
 C1601 C 0.00602 0.77754 0.27631
 C1602 C 0.00964 0.76814 0.26876
 N1603 N -0.00031 0.76235 0.26445
 C1604 C 0.02193 0.76545 0.26597
 H1605 H 0.04586 0.75897 0.25795
 H1606 H 0.04574 0.74280 0.24052
 H1607 H -0.00034 0.75447 0.25936
 H1608 H 0.01138 0.71522 0.22084
 H1609 H -0.01252 0.71519 0.22108
 H1610 H -0.04664 0.74280 0.24122
 H1611 H -0.04654 0.75913 0.25853
 H1612 H 0.01176 0.78390 0.28110
 H1613 H -0.00046 0.74632 0.24042
 H1614 H -0.01213 0.78398 0.28122
 C1615 C 0.53828 0.74509 0.74591
 C1616 C 0.53833 0.75428 0.75425
 C1617 C 0.52627 0.75712 0.75659
 N1618 N 0.51890 0.74998 0.74990
 C1619 C 0.52620 0.74262 0.74334
 C1620 C 0.52240 0.76601 0.76500
 C1621 C 0.51010 0.76880 0.76766
 C1622 C 0.50644 0.77634 0.77702
 C1623 C 0.49396 0.77650 0.77693
 C1624 C 0.49027 0.76903 0.76753
 N1625 N 0.50018 0.76457 0.76179
 C1626 C 0.47796 0.76654 0.76472
 C1627 C 0.47401 0.75767 0.75633
 C1628 C 0.46192 0.75496 0.75403
 C1629 C 0.46188 0.74572 0.74574
 C1630 C 0.47394 0.74309 0.74318
 N1631 N 0.48131 0.75040 0.74968
 C1632 C 0.47781 0.73433 0.73464
 C1633 C 0.49011 0.73172 0.73183
 C1634 C 0.49376 0.72454 0.72219
 C1635 C 0.50624 0.72444 0.72222
 C1636 C 0.50993 0.73156 0.73188
 N1637 N 0.50003 0.73577 0.73782
 C1638 C 0.52225 0.73397 0.73474
 H1639 H 0.54626 0.74079 0.74211
 H1640 H 0.54635 0.75838 0.75815
 H1641 H 0.50003 0.74040 0.74596
 H1642 H 0.51216 0.78110 0.78340
 H1643 H 0.48826 0.78141 0.78323
 H1644 H 0.45394 0.75915 0.75795
 H1645 H 0.45385 0.74147 0.74199
 H1646 H 0.51193 0.71979 0.71572
 H1647 H 0.50018 0.75959 0.75387
 H1648 H 0.48804 0.71999 0.71567
 C1649 C 0.40766 0.30751 0.30617
 C1650 C 0.40317 0.30290 0.31711
 C1651 C 0.39294 0.30808 0.32256
 C1652 C 0.38694 0.31801 0.31720
 C1653 C 0.39150 0.32265 0.30626
 C1654 C 0.40172 0.31746 0.30082
 C1655 C 0.41840 0.30186 0.30027
 C1656 C 0.41867 0.30019 0.28771
 C1657 C 0.42869 0.29471 0.28217
 C1658 C 0.43866 0.29078 0.28905
 C1659 C 0.43842 0.29250 0.30161
 C1660 C 0.42840 0.29798 0.30716
 C1661 C 0.44917 0.28474 0.28315
 C1662 C 0.45469 0.27450 0.28847
 C1663 C 0.46422 0.26849 0.28264
 C1664 C 0.46839 0.27262 0.27142
 C1665 C 0.46310 0.28293 0.26617
 C1666 C 0.45357 0.28896 0.27199
 H1667 H 0.40745 0.29515 0.32139
 H1668 H 0.38978 0.30424 0.33097
 H1669 H 0.38717 0.33026 0.30181
 H1670 H 0.40504 0.32131 0.29245
 H1671 H 0.41103 0.30290 0.28218
 H1672 H 0.42850 0.29332 0.27250
 H1673 H 0.44604 0.28971 0.30714
 H1674 H 0.42854 0.29931 0.31684
 H1675 H 0.45143 0.27095 0.29698
 H1676 H 0.46821 0.26048 0.28674
 H1677 H 0.46626 0.28620 0.25750
 H1678 H 0.44963 0.29691 0.26776
 C1679 C 0.40756 0.80786 0.80616
 C1680 C 0.40244 0.80255 0.81649
 C1681 C 0.39211 0.80760 0.82188
 C1682 C 0.38658 0.81812 0.81708
 C1683 C 0.39183 0.82344 0.80673
 C1684 C 0.40216 0.81838 0.80137
 C1685 C 0.41840 0.80235 0.80031
 C1686 C 0.41925 0.80175 0.78767
 C1687 C 0.42933 0.79637 0.78215
 C1688 C 0.43877 0.79143 0.78914
 C1689 C 0.43797 0.79209 0.80177
 C1690 C 0.42790 0.79750 0.80729
 C1691 C 0.44928 0.78538 0.78324
 C1692 C 0.45392 0.77439 0.78784
 C1693 C 0.46342 0.76838 0.78195
 C1694 C 0.46846 0.77330 0.77142
 C1695 C 0.46405 0.78436 0.76691
 C1696 C 0.45452 0.79036 0.77277
 H1697 H 0.40628 0.79434 0.82031
 H1698 H 0.38850 0.80309 0.82977
 H1699 H 0.38806 0.83154 0.80267
 H1700 H 0.40599 0.82279 0.79351
 H1701 H 0.41200 0.80522 0.78204
 H1702 H 0.42959 0.79581 0.77240
 H1703 H 0.44518 0.78851 0.80738
 H1704 H 0.42760 0.79799 0.81704
 H1705 H 0.44997 0.77025 0.79579
 H1706 H 0.46671 0.75979 0.78546
 H1707 H 0.46787 0.78823 0.75877
 H1708 H 0.45124 0.79889 0.76911
 C1709 C -0.09247 0.30774 0.80671
 C1710 C -0.09513 0.30540 0.81888
 C1711 C -0.10532 0.31065 0.82435
 C1712 C -0.11302 0.31842 0.81779
 C1713 C -0.11027 0.32086 0.80564
 C1714 C -0.10014 0.31554 0.80015
 C1715 C -0.08185 0.30192 0.80080
 C1716 C -0.08293 0.29695 0.78918
 C1717 C -0.07301 0.29133 0.78364
 C1718 C -0.06173 0.29060 0.78956
 C1719 C -0.06064 0.29562 0.80118
 C1720 C -0.07060 0.30119 0.80675
 C1721 C -0.05123 0.28448 0.78367
 C1722 C -0.04326 0.27711 0.79039
 C1723 C -0.03371 0.27094 0.78473
 C1724 C -0.03201 0.27201 0.77225
 C1725 C -0.03977 0.27951 0.76553
 C1726 C -0.04927 0.28572 0.77118
 H1727 H -0.08944 0.29934 0.82411
 H1728 H -0.10711 0.30863 0.83374
 H1729 H -0.11603 0.32672 0.80028
 H1730 H -0.09825 0.31759 0.79078
 H1731 H -0.09154 0.29721 0.78446
 H1732 H -0.07424 0.28734 0.77480
 H1733 H -0.05204 0.29537 0.80591
 H1734 H -0.06947 0.30507 0.81565
 H1735 H -0.04460 0.27583 0.79999
 H1736 H -0.02781 0.26513 0.79001
 H1737 H -0.03852 0.28045 0.75588
 H1738 H -0.05509 0.29149 0.76577
 C1739 C -0.09248 0.80839 0.30697
 C1740 C -0.09699 0.80385 0.31793
 C1741 C -0.10738 0.80890 0.32319
 C1742 C -0.11352 0.81863 0.31762
 C1743 C -0.10886 0.82329 0.30674
 C1744 C -0.09848 0.81822 0.30148
 C1745 C -0.08171 0.80273 0.30114
 C1746 C -0.08149 0.80081 0.28862
 C1747 C -0.07150 0.79523 0.28313
 C1748 C -0.06148 0.79145 0.29005
 C1749 C -0.06166 0.79345 0.30257
 C1750 C -0.07166 0.79902 0.30806
 C1751 C -0.05103 0.78522 0.28421
 C1752 C -0.04549 0.77512 0.28976
 C1753 C -0.03605 0.76889 0.28399
 C1754 C -0.03200 0.77267 0.27262
 C1755 C -0.03730 0.78286 0.26714
 C1756 C -0.04674 0.78909 0.27289
 H1757 H -0.09265 0.79619 0.32232
 H1758 H -0.11066 0.80501 0.33154
 H1759 H -0.11320 0.83084 0.30221
 H1760 H -0.09511 0.82204 0.29312
 H1761 H -0.08917 0.80337 0.28307
 H1762 H -0.07174 0.79362 0.27350
 H1763 H -0.05401 0.79079 0.30812
 H1764 H -0.07150 0.80052 0.31771
 H1765 H -0.04868 0.77182 0.29840
 H1766 H -0.03206 0.76099 0.28828
 H1767 H -0.03422 0.78586 0.25835
 H1768 H -0.05069 0.79694 0.26847
 C1769 C 0.59271 0.69318 0.30695
 C1770 C 0.59704 0.68180 0.30308
 C1771 C 0.60730 0.67658 0.30844
 C1772 C 0.61346 0.68261 0.31781
 C1773 C 0.60906 0.69397 0.32171
 C1774 C 0.59882 0.69918 0.31635
 C1775 C 0.58196 0.69886 0.30113
 C1776 C 0.58181 0.71140 0.29866
 C1777 C 0.57174 0.71678 0.29316
 C1778 C 0.56157 0.70975 0.29000
 C1779 C 0.56170 0.69720 0.29246
 C1780 C 0.57179 0.69181 0.29797
 C1781 C 0.55096 0.71549 0.28399
 C1782 C 0.54505 0.70962 0.27436
 C1783 C 0.53547 0.71534 0.26831
 C1784 C 0.53167 0.72699 0.27179
 C1785 C 0.53733 0.73277 0.28155
 C1786 C 0.54689 0.72708 0.28760
 H1787 H 0.59261 0.67702 0.29577
 H1788 H 0.61034 0.66781 0.30519
 H1789 H 0.61353 0.69894 0.32885
 H1790 H 0.59562 0.70790 0.31963
 H1791 H 0.58959 0.71704 0.30078
 H1792 H 0.57201 0.72642 0.29117
 H1793 H 0.55394 0.69157 0.29027
 H1794 H 0.57157 0.68216 0.29991
 H1795 H 0.54806 0.70077 0.27128
 H1796 H 0.53120 0.71081 0.26074
 H1797 H 0.53445 0.74178 0.28432
 H1798 H 0.55113 0.73175 0.29509
 C1799 C 0.59303 0.19323 0.80674
 C1800 C 0.60052 0.20007 0.81443
 C1801 C 0.61068 0.19476 0.81986
 C1802 C 0.61362 0.18251 0.81767
 C1803 C 0.60612 0.17567 0.80998
 C1804 C 0.59591 0.18096 0.80461
 C1805 C 0.58232 0.19893 0.80090
 C1806 C 0.57119 0.19270 0.80018
 C1807 C 0.56111 0.19814 0.79470
 C1808 C 0.56195 0.20990 0.78978
 C1809 C 0.57312 0.21608 0.79045
 C1810 C 0.58317 0.21068 0.79597
 C1811 C 0.55131 0.21570 0.78385
 C1812 C 0.54913 0.22824 0.78524
 C1813 C 0.53953 0.23386 0.77917
 C1814 C 0.53190 0.22704 0.77165
 C1815 C 0.53380 0.21449 0.77046
 C1816 C 0.54345 0.20885 0.77650
 H1817 H 0.59846 0.20951 0.81634
 H1818 H 0.61628 0.20034 0.82566
 H1819 H 0.60805 0.16619 0.80815
 H1820 H 0.59035 0.17550 0.79864
 H1821 H 0.57024 0.18369 0.80402
 H1822 H 0.55261 0.19319 0.79448
 H1823 H 0.57416 0.22504 0.78652
 H1824 H 0.59168 0.21561 0.79619
 H1825 H 0.55486 0.23373 0.79101
 H1826 H 0.53813 0.24356 0.78019
 H1827 H 0.52801 0.20913 0.76462
 H1828 H 0.54495 0.19922 0.77512
 C1829 C 1.09258 0.69348 0.80735
 C1830 C 1.09561 0.69598 0.81941
 C1831 C 1.10590 0.69074 0.82467
 C1832 C 1.11338 0.68283 0.81802
 C1833 C 1.11032 0.68028 0.80598
 C1834 C 1.10006 0.68556 0.80070
 C1835 C 1.08173 0.69919 0.80168
 C1836 C 1.07448 0.69262 0.79351
 C1837 C 1.06446 0.69809 0.78799
 C1838 C 1.06139 0.71023 0.79057
 C1839 C 1.06853 0.71676 0.79882
 C1840 C 1.07861 0.71133 0.80428
 C1841 C 1.05098 0.71617 0.78444
 C1842 C 1.04299 0.72374 0.79091
 C1843 C 1.03349 0.72974 0.78502
 C1844 C 1.03190 0.72832 0.77256
 C1845 C 1.03971 0.72063 0.76609
 C1846 C 1.04917 0.71458 0.77199
 H1847 H 1.08994 0.70187 0.82485
 H1848 H 1.10789 0.69279 0.83401
 H1849 H 1.11595 0.67434 0.80054
 H1850 H 1.09812 0.68360 0.79133
 H1851 H 1.07650 0.68320 0.79145
 H1852 H 1.05902 0.69280 0.78177
 H1853 H 1.06650 0.72619 0.80083
 H1854 H 1.08411 0.71673 0.81035
 H1855 H 1.04409 0.72502 0.80054
 H1856 H 1.02751 0.73565 0.79011
 H1857 H 1.03859 0.71949 0.75646
 H1858 H 1.05525 0.70891 0.76676
 C1859 C 1.09229 0.19267 0.30688
 C1860 C 1.09682 0.19714 0.31786
 C1861 C 1.10726 0.19211 0.32302
 C1862 C 1.11346 0.18249 0.31732
 C1863 C 1.10882 0.17793 0.30640
 C1864 C 1.09836 0.18296 0.30125
 C1865 C 1.08141 0.19827 0.30122
 C1866 C 1.07256 0.19101 0.29560
 C1867 C 1.06246 0.19634 0.29006
 C1868 C 1.06100 0.20905 0.29001
 C1869 C 1.06981 0.21630 0.29571
 C1870 C 1.07989 0.21097 0.30125
 C1871 C 1.05049 0.21479 0.28380
 C1872 C 1.04460 0.22494 0.28888
 C1873 C 1.03513 0.23071 0.28274
 C1874 C 1.03137 0.22640 0.27145
 C1875 C 1.03703 0.21616 0.26643
 C1876 C 1.04651 0.21038 0.27256
 H1877 H 1.09225 0.20451 0.32250
 H1878 H 1.11048 0.19589 0.33143
 H1879 H 1.11325 0.17052 0.30173
 H1880 H 1.09517 0.17939 0.29271
 H1881 H 1.07338 0.18119 0.29558
 H1882 H 1.05574 0.19051 0.28589
 H1883 H 1.06906 0.22613 0.29564
 H1884 H 1.08665 0.21683 0.30532
 H1885 H 1.04735 0.22844 0.29759
 H1886 H 1.03083 0.23863 0.28669
 H1887 H 1.03426 0.21282 0.25767
 H1888 H 1.05097 0.20269 0.26834
 C1889 C 0.59300 0.30691 0.69364
 C1890 C 0.59573 0.30453 0.68149
 C1891 C 0.60595 0.30976 0.67607
 C1892 C 0.61360 0.31754 0.68265
 C1893 C 0.61080 0.31999 0.69478
 C1894 C 0.60064 0.31469 0.70023
 C1895 C 0.58229 0.30118 0.69948
 C1896 C 0.58322 0.29630 0.71114
 C1897 C 0.57320 0.29078 0.71662
 C1898 C 0.56198 0.29009 0.71058
 C1899 C 0.56105 0.29504 0.69892
 C1900 C 0.57110 0.30050 0.69342
 C1901 C 0.55139 0.28407 0.71639
 C1902 C 0.54348 0.27669 0.70962
 C1903 C 0.53387 0.27057 0.71522
 C1904 C 0.53205 0.27170 0.72768
 C1905 C 0.53972 0.27924 0.73444
 C1906 C 0.54929 0.28540 0.72884
 H1907 H 0.59007 0.29848 0.67623
 H1908 H 0.60776 0.30774 0.66668
 H1909 H 0.61652 0.32588 0.70015
 H1910 H 0.59870 0.31677 0.70958
 H1911 H 0.59177 0.29653 0.71596
 H1912 H 0.57431 0.28685 0.72550
 H1913 H 0.55250 0.29481 0.69409
 H1914 H 0.57008 0.30434 0.68448
 H1915 H 0.54492 0.27535 0.70005
 H1916 H 0.52803 0.26473 0.70991
 H1917 H 0.53837 0.28023 0.74406
 H1918 H 0.55506 0.29119 0.73428
 C1919 C 0.59318 0.80617 0.19351
 C1920 C 0.59762 0.81743 0.19758
 C1921 C 0.60788 0.82268 0.19226
 C1922 C 0.61394 0.81681 0.18272
 C1923 C 0.60946 0.80555 0.17864
 C1924 C 0.59921 0.80031 0.18396
 C1925 C 0.58238 0.80049 0.19924
 C1926 C 0.58209 0.78789 0.20141
 C1927 C 0.57196 0.78251 0.20679
 C1928 C 0.56186 0.78959 0.21013
 C1929 C 0.56214 0.80219 0.20798
 C1930 C 0.57229 0.80758 0.20258
 C1931 C 0.55119 0.78382 0.21601
 C1932 C 0.54536 0.78951 0.22581
 C1933 C 0.53573 0.78375 0.23174
 C1934 C 0.53178 0.77226 0.22796
 C1935 C 0.53735 0.76667 0.21803
 C1936 C 0.54697 0.77240 0.21210
 H1937 H 0.59325 0.82210 0.20502
 H1938 H 0.61099 0.83135 0.19567
 H1939 H 0.61384 0.80070 0.17136
 H1940 H 0.59594 0.79170 0.18052
 H1941 H 0.58981 0.78221 0.19914
 H1942 H 0.57212 0.77281 0.20855
 H1943 H 0.55444 0.80786 0.21032
 H1944 H 0.57217 0.81728 0.20087
 H1945 H 0.54848 0.79823 0.22912
 H1946 H 0.53153 0.78812 0.23945
 H1947 H 0.53436 0.75778 0.21502
 H1948 H 0.55115 0.76789 0.20447
 C1949 C 1.09367 0.30591 0.19364
 C1950 C 1.09774 0.31744 0.19734
 C1951 C 1.10800 0.32271 0.19203
 C1952 C 1.11440 0.31659 0.18287
 C1953 C 1.11027 0.30508 0.17915
 C1954 C 1.10004 0.29981 0.18447
 C1955 C 1.08288 0.30021 0.19938
 C1956 C 1.08288 0.28772 0.20213
 C1957 C 1.07275 0.28230 0.20748
 C1958 C 1.06236 0.28923 0.21020
 C1959 C 1.06236 0.30173 0.20748
 C1960 C 1.07251 0.30716 0.20213
 C1961 C 1.05166 0.28343 0.21601
 C1962 C 1.04528 0.28942 0.22528
 C1963 C 1.03560 0.28368 0.23115
 C1964 C 1.03215 0.27187 0.22783
 C1965 C 1.03828 0.26596 0.21843
 C1966 C 1.04794 0.27168 0.21255
 H1967 H 1.09310 0.32231 0.20448
 H1968 H 1.11084 0.33161 0.19511
 H1969 H 1.11495 0.30004 0.17218
 H1970 H 1.09705 0.29098 0.18133
 H1971 H 1.09081 0.28217 0.20032
 H1972 H 1.07313 0.27271 0.20968
 H1973 H 1.05444 0.30728 0.20933
 H1974 H 1.07218 0.31676 0.19997
 H1975 H 1.04800 0.29840 0.22824
 H1976 H 1.03097 0.28831 0.23845
 H1977 H 1.03567 0.25683 0.21578
 H1978 H 1.05253 0.26691 0.20532
 C1979 C 1.09346 0.80594 0.69333
 C1980 C 1.09683 0.81798 0.69595
 C1981 C 1.10728 0.82304 0.69080
 C1982 C 1.11454 0.81620 0.68286
 C1983 C 1.11103 0.80421 0.68010
 C1984 C 1.10064 0.79914 0.68530
 C1985 C 1.08264 0.80037 0.69910
 C1986 C 1.08318 0.78840 0.70352
 C1987 C 1.07305 0.78309 0.70898
 C1988 C 1.06210 0.78960 0.71011
 C1989 C 1.06156 0.80158 0.70569
 C1990 C 1.07173 0.80692 0.70027
 C1991 C 1.05139 0.78389 0.71600
 C1992 C 1.04387 0.79066 0.72379
 C1993 C 1.03420 0.78507 0.72982
 C1994 C 1.03192 0.77264 0.72818
 C1995 C 1.03919 0.76591 0.72023
 C1996 C 1.04881 0.77148 0.71416
 H1997 H 1.09153 0.82340 0.70219
 H1998 H 1.10964 0.83232 0.69307
 H1999 H 1.11640 0.79863 0.67409
 H2000 H 1.09820 0.78988 0.68301
 H2001 H 1.09152 0.78320 0.70294
 H2002 H 1.07387 0.77394 0.71250
 H2003 H 1.05322 0.80678 0.70628
 H2004 H 1.07101 0.81611 0.69683
 H2005 H 1.04569 0.80019 0.72551
 H2006 H 1.02867 0.79035 0.73598
 H2007 H 1.03750 0.75630 0.71886
 H2008 H 1.05427 0.76607 0.70805
 C2009 C 0.40761 0.69374 0.69229
 C2010 C 0.40138 0.69967 0.68293
 C2011 C 0.39116 0.69435 0.67765
 C2012 C 0.38689 0.68297 0.68161
 C2013 C 0.39319 0.67701 0.69094
 C2014 C 0.40343 0.68232 0.69620
 C2015 C 0.41833 0.69952 0.69806
 C2016 C 0.42859 0.69258 0.70115
 C2017 C 0.43861 0.69804 0.70671
 C2018 C 0.43857 0.71056 0.70929
 C2019 C 0.42830 0.71750 0.70617
 C2020 C 0.41831 0.71205 0.70062
 C2021 C 0.44908 0.71638 0.71538
 C2022 C 0.45299 0.72806 0.71192
 C2023 C 0.46249 0.73378 0.71803
 C2024 C 0.46826 0.72792 0.72768
 C2025 C 0.46461 0.71619 0.73102
 C2026 C 0.45509 0.71045 0.72492
 H2027 H 0.40447 0.70841 0.67962
 H2028 H 0.38656 0.69927 0.67053
 H2029 H 0.39025 0.66822 0.69421
 H2030 H 0.40796 0.67758 0.70349
 H2031 H 0.42894 0.68294 0.69915
 H2032 H 0.44644 0.69248 0.70885
 H2033 H 0.42789 0.72712 0.70825
 H2034 H 0.41045 0.71760 0.69853
 H2035 H 0.44868 0.73278 0.70449
 H2036 H 0.46526 0.74285 0.71535
 H2037 H 0.46897 0.71160 0.73850
 H2038 H 0.45221 0.70152 0.72789
 C2039 C 0.40773 0.19299 0.19229
 C2040 C 0.40116 0.19928 0.18339
 C2041 C 0.39102 0.19398 0.17795
 C2042 C 0.38716 0.18226 0.18130
 C2043 C 0.39378 0.17594 0.19016
 C2044 C 0.40395 0.18124 0.19558
 C2045 C 0.41837 0.19874 0.19820
 C2046 C 0.42894 0.19197 0.20062
 C2047 C 0.43893 0.19743 0.20621
 C2048 C 0.43858 0.20978 0.20950
 C2049 C 0.42800 0.21653 0.20710
 C2050 C 0.41803 0.21108 0.20150
 C2051 C 0.44912 0.21562 0.21555
 C2052 C 0.45246 0.22763 0.21266
 C2053 C 0.46198 0.23334 0.21875
 C2054 C 0.46834 0.22715 0.22781
 C2055 C 0.46527 0.21509 0.23056
 C2056 C 0.45572 0.20936 0.22448
 H2057 H 0.40393 0.20830 0.18056
 H2058 H 0.38615 0.19917 0.17122
 H2059 H 0.39115 0.16688 0.19293
 H2060 H 0.40875 0.17621 0.20249
 H2061 H 0.42953 0.18248 0.19804
 H2062 H 0.44701 0.19202 0.20780
 H2063 H 0.42734 0.22600 0.20974
 H2064 H 0.40994 0.21648 0.19995
 H2065 H 0.44770 0.23261 0.20569
 H2066 H 0.46429 0.24266 0.21653
 H2067 H 0.47009 0.21024 0.23758
 H2068 H 0.45329 0.20016 0.22701
 C2069 C -0.09269 0.69241 0.19371
 C2070 C -0.09950 0.68344 0.19970
 C2071 C -0.10968 0.67825 0.19423
 C2072 C -0.11333 0.68192 0.18263
 C2073 C -0.10648 0.69086 0.17663
 C2074 C -0.09628 0.69604 0.18210
 C2075 C -0.08200 0.69809 0.19963
 C2076 C -0.07138 0.70058 0.19302
 C2077 C -0.06139 0.70609 0.19857
 C2078 C -0.06181 0.70924 0.21086
 C2079 C -0.07242 0.70669 0.21746
 C2080 C -0.08239 0.70118 0.21192
 C2081 C -0.05135 0.71536 0.21674
 C2082 C -0.04796 0.71229 0.22859
 C2083 C -0.03849 0.71845 0.23433
 C2084 C -0.03226 0.72778 0.22832
 C2085 C -0.03540 0.73071 0.21643
 C2086 C -0.04488 0.72456 0.21068
 H2087 H -0.09688 0.68036 0.20861
 H2088 H -0.11472 0.67144 0.19918
 H2089 H -0.10894 0.69390 0.16768
 H2090 H -0.09131 0.70303 0.17730
 H2091 H -0.07074 0.69814 0.18358
 H2092 H -0.05329 0.70778 0.19328
 H2093 H -0.07311 0.70921 0.22688
 H2094 H -0.09051 0.69957 0.21720
 H2095 H -0.05264 0.70512 0.23342
 H2096 H -0.03611 0.71607 0.24351
 H2097 H -0.03067 0.73793 0.21172
 H2098 H -0.04735 0.72723 0.20160
 C2099 C -0.09254 0.19270 0.69357
 C2100 C -0.09980 0.19966 0.68573
 C2101 C -0.11016 0.19464 0.68042
 C2102 C -0.11355 0.18256 0.68286
 C2103 C -0.10632 0.17560 0.69071
 C2104 C -0.09592 0.18060 0.69597
 C2105 C -0.08158 0.19810 0.69929
 C2106 C -0.07862 0.19539 0.71133
 C2107 C -0.06850 0.20071 0.71681
 C2108 C -0.06116 0.20892 0.71040
 C2109 C -0.06402 0.21155 0.69833
 C2110 C -0.07410 0.20617 0.69283
 C2111 C -0.05078 0.21502 0.71640
 C2112 C -0.04885 0.22757 0.71482
 C2113 C -0.03944 0.23346 0.72090
 C2114 C -0.03175 0.22691 0.72861
 C2115 C -0.03347 0.21435 0.73005
 C2116 C -0.04294 0.20845 0.72402
 H2117 H -0.09760 0.20907 0.68386
 H2118 H -0.11559 0.20031 0.67455
 H2119 H -0.10857 0.16623 0.69268
 H2120 H -0.09043 0.17494 0.70181
 H2121 H -0.08430 0.18937 0.71663
 H2122 H -0.06661 0.19866 0.72618
 H2123 H -0.05842 0.21772 0.69313
 H2124 H -0.07598 0.20827 0.68348
 H2125 H -0.05483 0.23288 0.70912
 H2126 H -0.03823 0.24318 0.71975
 H2127 H -0.02759 0.20919 0.73598
 H2128 H -0.04415 0.19876 0.72532
 C2129 C 0.30639 0.40739 0.30657
 C2130 C 0.29967 0.39993 0.31441
 C2131 C 0.30504 0.38980 0.31983
 C2132 C 0.31725 0.38684 0.31748
 C2133 C 0.32397 0.39431 0.30965
 C2134 C 0.31862 0.40451 0.30429
 C2135 C 0.30059 0.41804 0.30069
 C2136 C 0.30673 0.42922 0.29988
 C2137 C 0.30120 0.43925 0.29436
 C2138 C 0.28944 0.43828 0.28949
 C2139 C 0.28336 0.42706 0.29026
 C2140 C 0.28885 0.41707 0.29583
 C2141 C 0.28355 0.44886 0.28350
 C2142 C 0.27100 0.45094 0.28488
 C2143 C 0.26533 0.46051 0.27881
 C2144 C 0.27209 0.46822 0.27131
 C2145 C 0.28464 0.46640 0.27010
 C2146 C 0.29033 0.45678 0.27613
 H2147 H 0.29026 0.40200 0.31642
 H2148 H 0.29956 0.38421 0.32575
 H2149 H 0.33341 0.39235 0.30770
 H2150 H 0.32398 0.41004 0.29821
 H2151 H 0.31573 0.43027 0.30368
 H2152 H 0.30607 0.44780 0.29407
 H2153 H 0.27441 0.42592 0.28638
 H2154 H 0.28399 0.40851 0.29615
 H2155 H 0.26556 0.44515 0.29065
 H2156 H 0.25563 0.46185 0.27984
 H2157 H 0.28995 0.47227 0.26429
 H2158 H 0.29996 0.45535 0.27475
 C2159 C 0.30664 -0.09310 0.80695
 C2160 C 0.30162 -0.09833 0.81737
 C2161 C 0.30692 -0.10859 0.82264
 C2162 C 0.31742 -0.11396 0.81762
 C2163 C 0.32244 -0.10861 0.80718
 C2164 C 0.31713 -0.09833 0.80195
 C2165 C 0.30086 -0.08233 0.80125
 C2166 C 0.30799 -0.07276 0.79669
 C2167 C 0.30253 -0.06271 0.79117
 C2168 C 0.28982 -0.06201 0.79007
 C2169 C 0.28270 -0.07156 0.79468
 C2170 C 0.28816 -0.08159 0.80021
 C2171 C 0.28400 -0.05149 0.78395
 C2172 C 0.27308 -0.04654 0.78841
 C2173 C 0.26732 -0.03700 0.78235
 C2174 C 0.27239 -0.03223 0.77177
 C2175 C 0.28336 -0.03695 0.76738
 C2176 C 0.28913 -0.04651 0.77342
 H2177 H 0.29361 -0.09441 0.82153
 H2178 H 0.30267 -0.11223 0.83065
 H2179 H 0.33047 -0.11230 0.80290
 H2180 H 0.32114 -0.09459 0.79383
 H2181 H 0.31779 -0.07299 0.79752
 H2182 H 0.30826 -0.05542 0.78787
 H2183 H 0.27291 -0.07141 0.79377
 H2184 H 0.28243 -0.08891 0.80346
 H2185 H 0.26899 -0.05005 0.79658
 H2186 H 0.25883 -0.03342 0.78581
 H2187 H 0.28731 -0.03339 0.75915
 H2188 H 0.29743 -0.05022 0.76967
 C2189 C 0.80600 0.40666 0.80701
 C2190 C 0.80042 0.40089 0.81684
 C2191 C 0.80569 0.39061 0.82212
 C2192 C 0.81668 0.38575 0.81765
 C2193 C 0.82223 0.39162 0.80775
 C2194 C 0.81698 0.40195 0.80255
 C2195 C 0.80033 0.41750 0.80135
 C2196 C 0.80744 0.42757 0.79798
 C2197 C 0.80209 0.43772 0.79255
 C2198 C 0.78952 0.43801 0.79030
 C2199 C 0.78242 0.42794 0.79370
 C2200 C 0.78776 0.41782 0.79919
 C2201 C 0.78384 0.44865 0.78422
 C2202 C 0.77223 0.45275 0.78770
 C2203 C 0.76665 0.46238 0.78160
 C2204 C 0.77260 0.46811 0.77199
 C2205 C 0.78425 0.46426 0.76861
 C2206 C 0.78983 0.45459 0.77467
 H2207 H 0.79202 0.40441 0.82054
 H2208 H 0.80101 0.38653 0.82967
 H2209 H 0.83066 0.38836 0.80393
 H2210 H 0.82143 0.40614 0.79489
 H2211 H 0.81713 0.42764 0.79970
 H2212 H 0.80778 0.44540 0.79022
 H2213 H 0.77275 0.42776 0.79189
 H2214 H 0.78208 0.41012 0.80152
 H2215 H 0.76745 0.44851 0.79513
 H2216 H 0.75763 0.46528 0.78427
 H2217 H 0.78889 0.46856 0.76113
 H2218 H 0.79868 0.45155 0.77164
 C2219 C 0.80594 -0.09352 0.30685
 C2220 C 0.80025 -0.09932 0.31660
 C2221 C 0.80523 -0.10985 0.32165
 C2222 C 0.81604 -0.11495 0.31703
 C2223 C 0.82179 -0.10897 0.30732
 C2224 C 0.81682 -0.09839 0.30233
 C2225 C 0.80040 -0.08257 0.30126
 C2226 C 0.80761 -0.07259 0.29785
 C2227 C 0.80235 -0.06236 0.29245
 C2228 C 0.78977 -0.06191 0.29030
 C2229 C 0.78257 -0.07189 0.29374
 C2230 C 0.78782 -0.08208 0.29918
 C2231 C 0.78416 -0.05121 0.28427
 C2232 C 0.77263 -0.04697 0.28786
 C2233 C 0.76704 -0.03738 0.28173
 C2234 C 0.77290 -0.03180 0.27198
 C2235 C 0.78450 -0.03575 0.26852
 C2236 C 0.79008 -0.04539 0.27461
 H2237 H 0.79192 -0.09567 0.32038
 H2238 H 0.80043 -0.11395 0.32912
 H2239 H 0.83013 -0.11240 0.30343
 H2240 H 0.82137 -0.09417 0.29474
 H2241 H 0.81731 -0.07265 0.29949
 H2242 H 0.80812 -0.05476 0.29007
 H2243 H 0.77289 -0.07195 0.29200
 H2244 H 0.78205 -0.08970 0.30154
 H2245 H 0.76791 -0.05111 0.29538
 H2246 H 0.75807 -0.03440 0.28447
 H2247 H 0.78907 -0.03155 0.26093
 H2248 H 0.79888 -0.04852 0.27151
 C2249 C 0.30727 0.59295 0.69384
 C2250 C 0.31742 0.59869 0.69897
 C2251 C 0.32246 0.60904 0.69362
 C2252 C 0.31746 0.61393 0.68299
 C2253 C 0.30730 0.60814 0.67786
 C2254 C 0.30228 0.59778 0.68321
 C2255 C 0.30181 0.58205 0.69962
 C2256 C 0.29765 0.57224 0.69260
 C2257 C 0.29233 0.56209 0.69806
 C2258 C 0.29106 0.56150 0.71066
 C2259 C 0.29529 0.57127 0.71768
 C2260 C 0.30060 0.58142 0.71223
 C2261 C 0.28511 0.55089 0.71648
 C2262 C 0.28964 0.54613 0.72737
 C2263 C 0.28368 0.53654 0.73316
 C2264 C 0.27311 0.53156 0.72815
 C2265 C 0.26866 0.53609 0.71720
 C2266 C 0.27462 0.54567 0.71139
 H2267 H 0.32157 0.59510 0.70708
 H2268 H 0.33027 0.61316 0.69788
 H2269 H 0.30314 0.61158 0.66971
 H2270 H 0.29435 0.59366 0.67912
 H2271 H 0.29863 0.57237 0.68288
 H2272 H 0.28931 0.55463 0.69242
 H2273 H 0.29424 0.57119 0.72739
 H2274 H 0.30352 0.58891 0.71787
 H2275 H 0.29778 0.54985 0.73142
 H2276 H 0.28718 0.53312 0.74163
 H2277 H 0.26045 0.53236 0.71330
 H2278 H 0.27083 0.54923 0.70310
 C2279 C 0.30616 1.09329 0.19291
 C2280 C 0.31562 1.09954 0.19873
 C2281 C 0.32094 1.10976 0.19339
 C2282 C 0.31694 1.11396 0.18208
 C2283 C 0.30749 1.10766 0.17626
 C2284 C 0.30217 1.09746 0.18161
 C2285 C 0.30039 1.08253 0.19865
 C2286 C 0.28774 1.08089 0.19810
 C2287 C 0.28228 1.07084 0.20359
 C2288 C 0.28935 1.06218 0.20976
 C2289 C 0.30201 1.06378 0.21026
 C2290 C 0.30747 1.07384 0.20477
 C2291 C 0.28347 1.05166 0.21581
 C2292 C 0.28736 1.04786 0.22730
 C2293 C 0.28146 1.03831 0.23323
 C2294 C 0.27161 1.03242 0.22776
 C2295 C 0.26785 1.03598 0.21623
 C2296 C 0.27373 1.04553 0.21029
 H2297 H 0.31877 1.09666 0.20753
 H2298 H 0.32810 1.11440 0.19822
 H2299 H 0.30423 1.11051 0.16750
 H2300 H 0.29501 1.09274 0.17682
 H2301 H 0.28202 1.08752 0.19363
 H2302 H 0.27249 1.06998 0.20323
 H2303 H 0.30771 1.05718 0.21480
 H2304 H 0.31726 1.07476 0.20518
 H2305 H 0.29474 1.05248 0.23184
 H2306 H 0.28442 1.03566 0.24216
 H2307 H 0.26026 1.03148 0.21191
 H2308 H 0.27065 1.04813 0.20138
 C2309 C 0.80623 0.59252 0.19275
 C2310 C 0.81403 0.60005 0.19947
 C2311 C 0.81932 0.61033 0.19423
 C2312 C 0.81686 0.61339 0.18217
 C2313 C 0.80906 0.60588 0.17545
 C2314 C 0.80384 0.59556 0.18066
 C2315 C 0.80053 0.58163 0.19836
 C2316 C 0.78846 0.57846 0.19565
 C2317 C 0.78303 0.56834 0.20106
 C2318 C 0.78952 0.56121 0.20937
 C2319 C 0.80161 0.56432 0.21203
 C2320 C 0.80706 0.57439 0.20656
 C2321 C 0.78358 0.55079 0.21549
 C2322 C 0.78506 0.54902 0.22796
 C2323 C 0.77900 0.53957 0.23385
 C2324 C 0.77142 0.53169 0.22737
 C2325 C 0.77009 0.53324 0.21489
 C2326 C 0.77610 0.54275 0.20900
 H2327 H 0.81589 0.59811 0.20886
 H2328 H 0.82516 0.61598 0.19972
 H2329 H 0.80710 0.60787 0.16609
 H2330 H 0.79804 0.58986 0.17517
 H2331 H 0.78310 0.58396 0.18953
 H2332 H 0.77365 0.56627 0.19897
 H2333 H 0.80687 0.55888 0.21829
 H2334 H 0.81644 0.57644 0.20869
 H2335 H 0.79066 0.55516 0.23321
 H2336 H 0.78006 0.53849 0.24351
 H2337 H 0.76425 0.52722 0.20979
 H2338 H 0.77489 0.54382 0.19936
 C2339 C 0.80640 1.09261 0.69235
 C2340 C 0.81757 1.09706 0.69659
 C2341 C 0.82292 1.10730 0.69132
 C2342 C 0.81724 1.11333 0.68165
 C2343 C 0.80610 1.10880 0.67736
 C2344 C 0.80074 1.09858 0.68265
 C2345 C 0.80059 1.08188 0.69810
 C2346 C 0.78799 1.08169 0.70017
 C2347 C 0.78253 1.07168 0.70572
 C2348 C 0.78953 1.06162 0.70934
 C2349 C 0.80213 1.06178 0.70723
 C2350 C 0.80760 1.07180 0.70168
 C2351 C 0.78371 1.05111 0.71547
 C2352 C 0.78939 1.04543 0.72535
 C2353 C 0.78364 1.03591 0.73146
 C2354 C 0.77215 1.03191 0.72778
 C2355 C 0.76653 1.03736 0.71781
 C2356 C 0.77226 1.04687 0.71169
 H2357 H 0.82209 1.09275 0.70414
 H2358 H 0.83152 1.11043 0.69486
 H2359 H 0.80140 1.11316 0.66997
 H2360 H 0.79220 1.09529 0.67908
 H2361 H 0.78238 1.08940 0.69770
 H2362 H 0.77284 1.07194 0.70742
 H2363 H 0.80774 1.05410 0.70976
 H2364 H 0.81730 1.07161 0.70005
 H2365 H 0.79813 1.04858 0.72857
 H2366 H 0.78804 1.03181 0.73919
 H2367 H 0.75764 1.03433 0.71489
 H2368 H 0.76774 1.05092 0.70400
 C2369 C 0.69362 0.59273 0.30749
 C2370 C 0.70024 0.59995 0.31560
 C2371 C 0.69491 0.61014 0.32098
 C2372 C 0.68285 0.61339 0.31830
 C2373 C 0.67622 0.60615 0.31019
 C2374 C 0.68153 0.59589 0.30488
 C2375 C 0.69936 0.58202 0.30165
 C2376 C 0.69301 0.57100 0.30050
 C2377 C 0.69846 0.56094 0.29498
 C2378 C 0.71036 0.56171 0.29042
 C2379 C 0.71668 0.57277 0.29153
 C2380 C 0.71126 0.58279 0.29711
 C2381 C 0.71615 0.55110 0.28438
 C2382 C 0.72861 0.54870 0.28599
 C2383 C 0.73421 0.53912 0.27985
 C2384 C 0.72745 0.53170 0.27208
 C2385 C 0.71498 0.53383 0.27065
 C2386 C 0.70937 0.54346 0.27673
 H2387 H 0.70954 0.59767 0.31786
 H2388 H 0.70032 0.61555 0.32710
 H2389 H 0.66690 0.60833 0.30798
 H2390 H 0.67625 0.59055 0.29858
 H2391 H 0.68387 0.57011 0.30404
 H2392 H 0.69341 0.55250 0.29442
 H2393 H 0.72576 0.57376 0.28790
 H2394 H 0.71630 0.59124 0.29768
 H2395 H 0.73405 0.55426 0.29197
 H2396 H 0.74385 0.53755 0.28105
 H2397 H 0.70967 0.52819 0.26461
 H2398 H 0.69980 0.54515 0.27517
 C2399 C 0.69309 1.09259 0.80778
 C2400 C 0.69830 1.09793 0.81804
 C2401 C 0.69295 1.10810 0.82344
 C2402 C 0.68221 1.11326 0.81872
 C2403 C 0.67700 1.10780 0.80844
 C2404 C 0.68237 1.09761 0.80306
 C2405 C 0.69889 1.08189 0.80194
 C2406 C 0.69180 1.07220 0.79760
 C2407 C 0.69728 1.06220 0.79199
 C2408 C 0.70997 1.06167 0.79060
 C2409 C 0.71705 1.07135 0.79499
 C2410 C 0.71158 1.08133 0.80060
 C2411 C 0.71581 1.05119 0.78442
 C2412 C 0.72687 1.04641 0.78868
 C2413 C 0.73262 1.03689 0.78256
 C2414 C 0.72740 1.03199 0.77212
 C2415 C 0.71629 1.03655 0.76794
 C2416 C 0.71052 1.04607 0.77404
 H2417 H 0.70648 1.09417 0.82198
 H2418 H 0.69734 1.11183 0.83133
 H2419 H 0.66880 1.11133 0.80439
 H2420 H 0.67821 1.09378 0.79507
 H2421 H 0.68202 1.07228 0.79866
 H2422 H 0.69159 1.05482 0.78886
 H2423 H 0.72682 1.07133 0.79386
 H2424 H 0.71727 1.08874 0.80368
 H2425 H 0.73108 1.05003 0.79674
 H2426 H 0.74122 1.03344 0.78587
 H2427 H 0.71221 1.03287 0.75983
 H2428 H 0.70210 1.04965 0.77045
 C2429 C 0.19347 0.59293 0.80652
 C2430 C 0.19970 0.59946 0.81547
 C2431 C 0.19443 0.60968 0.82085
 C2432 C 0.18278 0.61363 0.81740
 C2433 C 0.17652 0.60705 0.80847
 C2434 C 0.18180 0.59681 0.80311
 C2435 C 0.19919 0.58218 0.80070
 C2436 C 0.19237 0.57167 0.79821
 C2437 C 0.19782 0.56157 0.79275
 C2438 C 0.21020 0.56177 0.78965
 C2439 C 0.21701 0.57231 0.79212
 C2440 C 0.21157 0.58238 0.79758
 C2441 C 0.21602 0.55114 0.78372
 C2442 C 0.22792 0.54764 0.78684
 C2443 C 0.23364 0.53804 0.78084
 C2444 C 0.22757 0.53176 0.77165
 C2445 C 0.21562 0.53498 0.76869
 C2446 C 0.20988 0.54461 0.77467
 H2447 H 0.20865 0.59661 0.81840
 H2448 H 0.19958 0.61450 0.82763
 H2449 H 0.16752 0.60975 0.80561
 H2450 H 0.17682 0.59204 0.79615
 H2451 H 0.18285 0.57119 0.80066
 H2452 H 0.19237 0.55354 0.79111
 H2453 H 0.22651 0.57284 0.78964
 H2454 H 0.21701 0.59043 0.79918
 H2455 H 0.23282 0.55236 0.79389
 H2456 H 0.24287 0.53561 0.78322
 H2457 H 0.21085 0.53022 0.76156
 H2458 H 0.20078 0.54716 0.77198
 C2459 C 0.19293 1.09301 0.30709
 C2460 C 0.19633 1.09695 0.31866
 C2461 C 0.19140 1.10758 0.32356
 C2462 C 0.18294 1.11454 0.31702
 C2463 C 0.17939 1.11048 0.30552
 C2464 C 0.18433 1.09985 0.30061
 C2465 C 0.19854 1.08198 0.30170
 C2466 C 0.19156 1.07381 0.29484
 C2467 C 0.19695 1.06362 0.28949
 C2468 C 0.20945 1.06138 0.29089
 C2469 C 0.21640 1.06947 0.29786
 C2470 C 0.21101 1.07966 0.30319
 C2471 C 0.21532 1.05085 0.28483
 C2472 C 0.22437 1.04406 0.29076
 C2473 C 0.23040 1.03461 0.28479
 C2474 C 0.22748 1.03182 0.27281
 C2475 C 0.21827 1.03835 0.26694
 C2476 C 0.21223 1.04779 0.27290
 H2477 H 0.20277 1.09178 0.32397
 H2478 H 0.19422 1.11029 0.33251
 H2479 H 0.17298 1.11562 0.30016
 H2480 H 0.18164 1.09715 0.29161
 H2481 H 0.18189 1.07525 0.29368
 H2482 H 0.19133 1.05745 0.28432
 H2483 H 0.22609 1.06811 0.29893
 H2484 H 0.21669 1.08588 0.30824
 H2485 H 0.22683 1.04609 0.29999
 H2486 H 0.23747 1.02961 0.28942
 H2487 H 0.21595 1.03628 0.25767
 H2488 H 0.20541 1.05294 0.26805
 C2489 C 0.69332 0.40759 0.69298
 C2490 C 0.69571 0.40460 0.68088
 C2491 C 0.69051 0.39428 0.67565
 C2492 C 0.68273 0.38673 0.68237
 C2493 C 0.68026 0.38977 0.69443
 C2494 C 0.68552 0.40006 0.69969
 C2495 C 0.69905 0.41844 0.69861
 C2496 C 0.69253 0.42570 0.70683
 C2497 C 0.69801 0.43574 0.71232
 C2498 C 0.71011 0.43880 0.70967
 C2499 C 0.71660 0.43164 0.70136
 C2500 C 0.71114 0.42156 0.69593
 C2501 C 0.71608 0.44921 0.71577
 C2502 C 0.72364 0.45718 0.70927
 C2503 C 0.72968 0.46666 0.71516
 C2504 C 0.72831 0.46826 0.72762
 C2505 C 0.72062 0.46047 0.73411
 C2506 C 0.71452 0.45104 0.72823
 H2507 H 0.70151 0.41032 0.67539
 H2508 H 0.69248 0.39233 0.66629
 H2509 H 0.67442 0.38410 0.69992
 H2510 H 0.68364 0.40198 0.70908
 H2511 H 0.68314 0.42367 0.70895
 H2512 H 0.69275 0.44118 0.71857
 H2513 H 0.72600 0.43366 0.69930
 H2514 H 0.71650 0.41605 0.68981
 H2515 H 0.72489 0.45606 0.69965
 H2516 H 0.73558 0.47263 0.71005
 H2517 H 0.71951 0.46161 0.74375
 H2518 H 0.70885 0.44498 0.73348
 C2519 C 0.69340 -0.09269 0.19254
 C2520 C 0.68565 -0.10030 0.19923
 C2521 C 0.68029 -0.11049 0.19389
 C2522 C 0.68262 -0.11337 0.18176
 C2523 C 0.69036 -0.10576 0.17506
 C2524 C 0.69566 -0.09553 0.18038
 C2525 C 0.69921 -0.08193 0.19827
 C2526 C 0.71128 -0.07879 0.19549
 C2527 C 0.71682 -0.06880 0.20102
 C2528 C 0.71044 -0.06175 0.20948
 C2529 C 0.69835 -0.06483 0.21222
 C2530 C 0.69279 -0.07478 0.20665
 C2531 C 0.71647 -0.05140 0.21564
 C2532 C 0.71503 -0.04968 0.22812
 C2533 C 0.72112 -0.04025 0.23402
 C2534 C 0.72869 -0.03235 0.22752
 C2535 C 0.72998 -0.03388 0.21504
 C2536 C 0.72395 -0.04336 0.20914
 H2537 H 0.68388 -0.09850 0.20867
 H2538 H 0.67450 -0.11622 0.19936
 H2539 H 0.69223 -0.10760 0.16566
 H2540 H 0.70143 -0.08976 0.17491
 H2541 H 0.71656 -0.08422 0.18924
 H2542 H 0.72620 -0.06676 0.19887
 H2543 H 0.69317 -0.05945 0.21860
 H2544 H 0.68342 -0.07681 0.20884
 H2545 H 0.70943 -0.05581 0.23338
 H2546 H 0.72006 -0.03918 0.24367
 H2547 H 0.73579 -0.02783 0.20991
 H2548 H 0.72512 -0.04439 0.19949
 C2549 C 0.19289 0.40802 0.19199
 C2550 C 0.19495 0.40522 0.17978
 C2551 C 0.18977 0.39487 0.17459
 C2552 C 0.18236 0.38708 0.18145
 C2553 C 0.18022 0.38992 0.19363
 C2554 C 0.18545 0.40025 0.19884
 C2555 C 0.19860 0.41889 0.19759
 C2556 C 0.19221 0.42592 0.20610
 C2557 C 0.19772 0.43594 0.21161
 C2558 C 0.20971 0.43919 0.20871
 C2559 C 0.21605 0.43228 0.20009
 C2560 C 0.21057 0.42223 0.19462
 C2561 C 0.21572 0.44955 0.21488
 C2562 C 0.22305 0.45773 0.20838
 C2563 C 0.22909 0.46719 0.21431
 C2564 C 0.22796 0.46855 0.22683
 C2565 C 0.22053 0.46052 0.23332
 C2566 C 0.21443 0.45112 0.22740
 H2567 H 0.20047 0.41112 0.17420
 H2568 H 0.19148 0.39306 0.16515
 H2569 H 0.17469 0.38407 0.19923
 H2570 H 0.18384 0.40202 0.20831
 H2571 H 0.18291 0.42374 0.20843
 H2572 H 0.19256 0.44120 0.21810
 H2573 H 0.22537 0.43446 0.19781
 H2574 H 0.21582 0.41691 0.18826
 H2575 H 0.22410 0.45682 0.19871
 H2576 H 0.23480 0.47333 0.20918
 H2577 H 0.21961 0.46146 0.24301
 H2578 H 0.20896 0.44488 0.23266
 C2579 C 0.19191 -0.09245 0.69315
 C2580 C 0.19771 -0.09812 0.68335
 C2581 C 0.19270 -0.10849 0.67802
 C2582 C 0.18179 -0.11348 0.68238
 C2583 C 0.17592 -0.10773 0.69211
 C2584 C 0.18092 -0.09734 0.69742
 C2585 C 0.19742 -0.08163 0.69905
 C2586 C 0.19719 -0.08041 0.71167
 C2587 C 0.20263 -0.07040 0.71725
 C2588 C 0.20844 -0.06139 0.71035
 C2589 C 0.20858 -0.06255 0.69773
 C2590 C 0.20312 -0.07255 0.69214
 C2591 C 0.21459 -0.05101 0.71635
 C2592 C 0.22607 -0.04706 0.71234
 C2593 C 0.23212 -0.03765 0.71832
 C2594 C 0.22678 -0.03202 0.72835
 C2595 C 0.21526 -0.03575 0.73226
 C2596 C 0.20922 -0.04519 0.72632
 H2597 H 0.20628 -0.09469 0.67995
 H2598 H 0.19756 -0.11272 0.67064
 H2599 H 0.16743 -0.11119 0.69562
 H2600 H 0.17612 -0.09308 0.70483
 H2601 H 0.19305 -0.08734 0.71726
 H2602 H 0.20255 -0.06987 0.72700
 H2603 H 0.21285 -0.05566 0.69217
 H2604 H 0.20328 -0.07312 0.68239
 H2605 H 0.23050 -0.05146 0.70479
 H2606 H 0.24105 -0.03488 0.71526
 H2607 H 0.21106 -0.03146 0.74001
 H2608 H 0.20033 -0.04794 0.72952
 C2609 C 0.30659 0.30649 0.40711
 C2610 C 0.31772 0.30216 0.40262
 C2611 C 0.32300 0.30741 0.39240
 C2612 C 0.31727 0.31714 0.38641
 C2613 C 0.30615 0.32149 0.39097
 C2614 C 0.30088 0.31623 0.40118
 C2615 C 0.30087 0.30079 0.41786
 C2616 C 0.28826 0.29883 0.41823
 C2617 C 0.28285 0.29340 0.42828
 C2618 C 0.28993 0.28979 0.43820
 C2619 C 0.30255 0.29177 0.43785
 C2620 C 0.30796 0.29721 0.42779
 C2621 C 0.28417 0.28381 0.44876
 C2622 C 0.28975 0.27376 0.45436
 C2623 C 0.28402 0.26776 0.46391
 C2624 C 0.27264 0.27172 0.46802
 C2625 C 0.26715 0.28188 0.46267
 C2626 C 0.27286 0.28788 0.45311
 H2627 H 0.32228 0.29456 0.40691
 H2628 H 0.33156 0.30379 0.38924
 H2629 H 0.30141 0.32893 0.38666
 H2630 H 0.29237 0.31988 0.40451
 H2631 H 0.28257 0.30129 0.41064
 H2632 H 0.27315 0.29180 0.42818
 H2633 H 0.30822 0.28923 0.44542
 H2634 H 0.31767 0.29876 0.42786
 H2635 H 0.29838 0.27033 0.45112
 H2636 H 0.28832 0.25988 0.46794
 H2637 H 0.25835 0.28502 0.46578
 H2638 H 0.26842 0.29569 0.44911
 C2639 C 0.30774 0.80611 -0.09270
 C2640 C 0.31696 0.80011 -0.09916
 C2641 C 0.32209 0.80544 -0.10940
 C2642 C 0.31814 0.81690 -0.11346
 C2643 C 0.30895 0.82292 -0.10695
 C2644 C 0.30382 0.81759 -0.09669
 C2645 C 0.30214 0.80034 -0.08193
 C2646 C 0.29928 0.80729 -0.07167
 C2647 C 0.29387 0.80185 -0.06161
 C2648 C 0.29120 0.78934 -0.06158
 C2649 C 0.29411 0.78239 -0.07183
 C2650 C 0.29951 0.78782 -0.08188
 C2651 C 0.28521 0.78357 -0.05103
 C2652 C 0.28873 0.77189 -0.04717
 C2653 C 0.28266 0.76619 -0.03765
 C2654 C 0.27299 0.77207 -0.03183
 C2655 C 0.26962 0.78381 -0.03543
 C2656 C 0.27568 0.78953 -0.04496
 H2657 H 0.32027 0.79131 -0.09623
 H2658 H 0.32910 0.80047 -0.11416
 H2659 H 0.30569 0.83178 -0.10971
 H2660 H 0.29664 0.82239 -0.09199
 H2661 H 0.30135 0.81692 -0.07137
 H2662 H 0.29188 0.80742 -0.05379
 H2663 H 0.29196 0.77278 -0.07219
 H2664 H 0.30140 0.78226 -0.08973
 H2665 H 0.29614 0.76714 -0.05154
 H2666 H 0.28537 0.75712 -0.03492
 H2667 H 0.26213 0.78842 -0.03103
 H2668 H 0.27268 0.79847 -0.04780
 C2669 C 0.80736 0.30669 -0.09195
 C2670 C 0.81959 0.30454 -0.09497
 C2671 C 0.82468 0.30975 -0.10530
 C2672 C 0.81769 0.31729 -0.11284
 C2673 C 0.80549 0.31949 -0.10979
 C2674 C 0.80038 0.31423 -0.09949
 C2675 C 0.80188 0.30100 -0.08107
 C2676 C 0.79350 0.30746 -0.07393
 C2677 C 0.78810 0.30198 -0.06390
 C2678 C 0.79099 0.28994 -0.06074
 C2679 C 0.79947 0.28353 -0.06777
 C2680 C 0.80483 0.28898 -0.07784
 C2681 C 0.78492 0.28396 -0.05037
 C2682 C 0.79156 0.27654 -0.04240
 C2683 C 0.78571 0.27050 -0.03295
 C2684 C 0.77313 0.27171 -0.03138
 C2685 C 0.76650 0.27925 -0.03917
 C2686 C 0.77234 0.28535 -0.04857
 H2687 H 0.82528 0.29894 -0.08925
 H2688 H 0.83415 0.30798 -0.10728
 H2689 H 0.79978 0.32511 -0.11546
 H2690 H 0.79088 0.31591 -0.09755
 H2691 H 0.79119 0.31680 -0.07604
 H2692 H 0.78171 0.30719 -0.05855
 H2693 H 0.80172 0.27417 -0.06566
 H2694 H 0.81109 0.28368 -0.08325
 H2695 H 0.80127 0.27541 -0.04350
 H2696 H 0.79093 0.26470 -0.02698
 H2697 H 0.75676 0.28023 -0.03807
 H2698 H 0.76698 0.29088 -0.05465
 C2699 C 0.80579 0.80711 0.40721
 C2700 C 0.81825 0.80571 0.40478
 C2701 C 0.82340 0.81083 0.39442
 C2702 C 0.81621 0.81751 0.38628
 C2703 C 0.80379 0.81904 0.38883
 C2704 C 0.79864 0.81389 0.39915
 C2705 C 0.80019 0.80134 0.41798
 C2706 C 0.78880 0.79565 0.41709
 C2707 C 0.78347 0.79021 0.42717
 C2708 C 0.78940 0.79034 0.43840
 C2709 C 0.80081 0.79600 0.43929
 C2710 C 0.80616 0.80144 0.42918
 C2711 C 0.78370 0.78444 0.44905
 C2712 C 0.79072 0.77756 0.45717
 C2713 C 0.78520 0.77146 0.46680
 C2714 C 0.77259 0.77214 0.46844
 C2715 C 0.76559 0.77924 0.46057
 C2716 C 0.77109 0.78535 0.45096
 H2717 H 0.82398 0.80046 0.41078
 H2718 H 0.83301 0.80954 0.39283
 H2719 H 0.79793 0.82407 0.38279
 H2720 H 0.78905 0.81526 0.40086
 H2721 H 0.78408 0.79522 0.40854
 H2722 H 0.77479 0.78570 0.42611
 H2723 H 0.80554 0.79637 0.44784
 H2724 H 0.81488 0.80588 0.43017
 H2725 H 0.80042 0.77658 0.45587
 H2726 H 0.79071 0.76597 0.47279
 H2727 H 0.75584 0.77989 0.46177
 H2728 H 0.76546 0.79074 0.44500
 C2729 C 0.69308 0.30716 0.59207
 C2730 C 0.69976 0.31511 0.59943
 C2731 C 0.69440 0.32050 0.60954
 C2732 C 0.68226 0.31798 0.61256
 C2733 C 0.67556 0.31004 0.60517
 C2734 C 0.68090 0.30473 0.59500
 C2735 C 0.69888 0.30129 0.58147
 C2736 C 0.69268 0.30039 0.57043
 C2737 C 0.69821 0.29488 0.56046
 C2738 C 0.71004 0.29011 0.56134
 C2739 C 0.71619 0.29097 0.57242
 C2740 C 0.71069 0.29652 0.58235
 C2741 C 0.71593 0.28411 0.55083
 C2742 C 0.72844 0.28565 0.54865
 C2743 C 0.73412 0.27954 0.53915
 C2744 C 0.72740 0.27184 0.53161
 C2745 C 0.71489 0.27048 0.53352
 C2746 C 0.70920 0.27655 0.54307
 H2747 H 0.70913 0.31725 0.59732
 H2748 H 0.69987 0.32649 0.61505
 H2749 H 0.66616 0.30797 0.60718
 H2750 H 0.67556 0.29856 0.58955
 H2751 H 0.68362 0.30411 0.56946
 H2752 H 0.69329 0.29451 0.55202
 H2753 H 0.72520 0.28715 0.57349
 H2754 H 0.71561 0.29690 0.59080
 H2755 H 0.73385 0.29156 0.55432
 H2756 H 0.74379 0.28069 0.53774
 H2757 H 0.70961 0.26451 0.52779
 H2758 H 0.69959 0.27505 0.54458
 C2759 C 0.69281 0.80635 1.09189
 C2760 C 0.69505 0.81863 1.09463
 C2761 C 0.68981 0.82401 1.10481
 C2762 C 0.68212 0.81725 1.11241
 C2763 C 0.67979 0.80500 1.10958
 C2764 C 0.68511 0.79961 1.09946
 C2765 C 0.69861 0.80053 1.08127
 C2766 C 0.70364 0.78882 1.08222
 C2767 C 0.70920 0.78333 1.07228
 C2768 C 0.70979 0.78939 1.06112
 C2769 C 0.70473 0.80111 1.06017
 C2770 C 0.69923 0.80663 1.07014
 C2771 C 0.71582 0.78353 1.05061
 C2772 C 0.72312 0.79038 1.04269
 C2773 C 0.72924 0.78472 1.03316
 C2774 C 0.72819 0.77213 1.03141
 C2775 C 0.72073 0.76530 1.03910
 C2776 C 0.71457 0.77094 1.04859
 H2777 H 0.70104 0.82402 1.08900
 H2778 H 0.69173 0.83348 1.10665
 H2779 H 0.67399 0.79950 1.11527
 H2780 H 0.68313 0.79016 1.09751
 H2781 H 0.70348 0.78398 1.09073
 H2782 H 0.71323 0.77441 1.07340
 H2783 H 0.70489 0.80595 1.05167
 H2784 H 0.69529 0.81560 1.06912
 H2785 H 0.72438 0.80005 1.04407
 H2786 H 0.73502 0.79009 1.02731
 H2787 H 0.71982 0.75557 1.03782
 H2788 H 0.70886 0.76544 1.05437
 C2789 C 0.19282 0.30675 1.09167
 C2790 C 0.18513 0.29999 1.09924
 C2791 C 0.17983 0.30536 1.10938
 C2792 C 0.18214 0.31761 1.11223
 C2793 C 0.18980 0.32439 1.10462
 C2794 C 0.19505 0.31903 1.09443
 C2795 C 0.19861 0.30095 1.08103
 C2796 C 0.19924 0.30707 1.06992
 C2797 C 0.20468 0.30154 1.05992
 C2798 C 0.20967 0.28979 1.06084
 C2799 C 0.20908 0.28371 1.07199
 C2800 C 0.20359 0.28921 1.08195
 C2801 C 0.21561 0.28390 1.05029
 C2802 C 0.21426 0.27132 1.04826
 C2803 C 0.22035 0.26564 1.03875
 C2804 C 0.22783 0.27242 1.03105
 C2805 C 0.22898 0.28500 1.03280
 C2806 C 0.22293 0.29070 1.04235
 H2807 H 0.18316 0.29054 1.09728
 H2808 H 0.17404 0.29983 1.11506
 H2809 H 0.19172 0.33386 1.10649
 H2810 H 0.20102 0.32444 1.08881
 H2811 H 0.19534 0.31606 1.06892
 H2812 H 0.20484 0.30640 1.05143
 H2813 H 0.21306 0.27476 1.07308
 H2814 H 0.20342 0.28436 1.09045
 H2815 H 0.20852 0.26586 1.05406
 H2816 H 0.21936 0.25592 1.03747
 H2817 H 0.23478 0.29033 1.02694
 H2818 H 0.22427 0.30036 1.04374
 C2819 C 0.19310 0.80590 0.59264
 C2820 C 0.19453 0.81837 0.59506
 C2821 C 0.18943 0.82355 0.60542
 C2822 C 0.18272 0.81638 0.61356
 C2823 C 0.18116 0.80395 0.61102
 C2824 C 0.18630 0.79877 0.60071
 C2825 C 0.19884 0.80025 0.58188
 C2826 C 0.20454 0.78885 0.58281
 C2827 C 0.20993 0.78346 0.57273
 C2828 C 0.20973 0.78933 0.56147
 C2829 C 0.20407 0.80077 0.56054
 C2830 C 0.19869 0.80618 0.57065
 C2831 C 0.21555 0.78355 0.55081
 C2832 C 0.22238 0.79052 0.54259
 C2833 C 0.22843 0.78492 0.53298
 C2834 C 0.22777 0.77227 0.53145
 C2835 C 0.22071 0.76533 0.53941
 C2836 C 0.21464 0.77091 0.54900
 H2837 H 0.19979 0.82408 0.58905
 H2838 H 0.19074 0.83317 0.60701
 H2839 H 0.17612 0.79811 0.61707
 H2840 H 0.18491 0.78917 0.59901
 H2841 H 0.20501 0.78416 0.59139
 H2842 H 0.21444 0.77477 0.57381
 H2843 H 0.20364 0.80546 0.55196
 H2844 H 0.19424 0.81491 0.56964
 H2845 H 0.22335 0.80025 0.54381
 H2846 H 0.23389 0.79038 0.52691
 H2847 H 0.22007 0.75556 0.53830
 H2848 H 0.20929 0.76532 0.55503
 C2849 C 0.30713 0.69277 0.59169
 C2850 C 0.30024 0.68515 0.59923
 C2851 C 0.30544 0.67989 0.60949
 C2852 C 0.31763 0.68220 0.61249
 C2853 C 0.32453 0.68978 0.60493
 C2854 C 0.31936 0.69498 0.59463
 C2855 C 0.30155 0.69854 0.58090
 C2856 C 0.30447 0.71058 0.57772
 C2857 C 0.29906 0.71610 0.56772
 C2858 C 0.29055 0.70973 0.56070
 C2859 C 0.28768 0.69768 0.56381
 C2860 C 0.29314 0.69213 0.57377
 C2861 C 0.28448 0.71578 0.55037
 C2862 C 0.27189 0.71449 0.54863
 C2863 C 0.26605 0.72065 0.53926
 C2864 C 0.27270 0.72815 0.53144
 C2865 C 0.28529 0.72928 0.53297
 C2866 C 0.29113 0.72318 0.54239
 H2867 H 0.29075 0.68342 0.59734
 H2868 H 0.29981 0.67422 0.61518
 H2869 H 0.33399 0.69162 0.60686
 H2870 H 0.32499 0.70063 0.58891
 H2871 H 0.31074 0.71585 0.58313
 H2872 H 0.30130 0.72547 0.56565
 H2873 H 0.28127 0.69251 0.55846
 H2874 H 0.29085 0.68278 0.57584
 H2875 H 0.26651 0.70897 0.55471
 H2876 H 0.25631 0.71973 0.53819
 H2877 H 0.29053 0.73504 0.52699
 H2878 H 0.30086 0.72423 0.54345
 C2879 C 0.30733 0.19325 1.09138
 C2880 C 0.30045 0.18558 1.09888
 C2881 C 0.30561 0.18034 1.10915
 C2882 C 0.31778 0.18269 1.11221
 C2883 C 0.32468 0.19035 1.10471
 C2884 C 0.31952 0.19554 1.09441
 C2885 C 0.30178 0.19896 1.08054
 C2886 C 0.30459 0.21102 1.07737
 C2887 C 0.29916 0.21648 1.06734
 C2888 C 0.29075 0.21002 1.06029
 C2889 C 0.28801 0.19793 1.06338
 C2890 C 0.29348 0.19245 1.07337
 C2891 C 0.28462 0.21600 1.04996
 C2892 C 0.27206 0.21453 1.04819
 C2893 C 0.26615 0.22062 1.03881
 C2894 C 0.27272 0.22821 1.03101
 C2895 C 0.28529 0.22951 1.03256
 C2896 C 0.29119 0.22349 1.04199
 H2897 H 0.29097 0.18380 1.09693
 H2898 H 0.29998 0.17461 1.11479
 H2899 H 0.33411 0.19223 1.10670
 H2900 H 0.32514 0.20125 1.08872
 H2901 H 0.31077 0.21636 1.08281
 H2902 H 0.30131 0.22587 1.06529
 H2903 H 0.28168 0.19269 1.05801
 H2904 H 0.29128 0.18308 1.07543
 H2905 H 0.26674 0.20894 1.05425
 H2906 H 0.25643 0.21956 1.03772
 H2907 H 0.29046 0.23535 1.02659
 H2908 H 0.30090 0.22468 1.04307
 C2909 C 0.80785 0.69309 1.09172
 C2910 C 0.80095 0.68529 1.09908
 C2911 C 0.80606 0.67999 1.10935
 C2912 C 0.81818 0.68240 1.11254
 C2913 C 0.82508 0.69019 1.10519
 C2914 C 0.81999 0.69545 1.09488
 C2915 C 0.80235 0.69884 1.08087
 C2916 C 0.80508 0.71096 1.07783
 C2917 C 0.79969 0.71646 1.06781
 C2918 C 0.79138 0.70999 1.06064
 C2919 C 0.78871 0.69785 1.06361
 C2920 C 0.79416 0.69233 1.07359
 C2921 C 0.78527 0.71601 1.05032
 C2922 C 0.77273 0.71446 1.04846
 C2923 C 0.76684 0.72057 1.03908
 C2924 C 0.77341 0.72826 1.03138
 C2925 C 0.78595 0.72965 1.03302
 C2926 C 0.79185 0.72360 1.04245
 H2927 H 0.79151 0.68346 1.09703
 H2928 H 0.80042 0.67417 1.11488
 H2929 H 0.83448 0.69214 1.10729
 H2930 H 0.82562 0.70126 1.08931
 H2931 H 0.81118 0.71630 1.08336
 H2932 H 0.80177 0.72588 1.06585
 H2933 H 0.78247 0.69261 1.05814
 H2934 H 0.79202 0.68292 1.07555
 H2935 H 0.76742 0.70879 1.05445
 H2936 H 0.75713 0.71946 1.03792
 H2937 H 0.79112 0.73556 1.02713
 H2938 H 0.80154 0.72485 1.04360
 C2939 C 0.80770 0.19404 0.59212
 C2940 C 0.80531 0.18181 0.59496
 C2941 C 0.81044 0.17647 0.60520
 C2942 C 0.81814 0.18321 0.61279
 C2943 C 0.82062 0.19541 0.60986
 C2944 C 0.81543 0.20077 0.59967
 C2945 C 0.80200 0.19982 0.58143
 C2946 C 0.79710 0.21159 0.58225
 C2947 C 0.79158 0.21701 0.57226
 C2948 C 0.79090 0.21082 0.56118
 C2949 C 0.79586 0.19905 0.56035
 C2950 C 0.80133 0.19360 0.57037
 C2951 C 0.78486 0.21658 0.55063
 C2952 C 0.77745 0.20968 0.54287
 C2953 C 0.77129 0.21526 0.53333
 C2954 C 0.77240 0.22782 0.53143
 C2955 C 0.77996 0.23470 0.53896
 C2956 C 0.78617 0.22913 0.54845
 H2957 H 0.79930 0.17644 0.58936
 H2958 H 0.80840 0.16703 0.60712
 H2959 H 0.82645 0.20090 0.61553
 H2960 H 0.81752 0.21018 0.59764
 H2961 H 0.79730 0.21652 0.59070
 H2962 H 0.78763 0.22598 0.57329
 H2963 H 0.79564 0.19409 0.55191
 H2964 H 0.80517 0.18457 0.56944
 H2965 H 0.77613 0.20004 0.54438
 H2966 H 0.76541 0.20986 0.52761
 H2967 H 0.78092 0.24440 0.53755
 H2968 H 0.79197 0.23466 0.55411
 C2969 C 0.69297 0.69383 0.40794
 C2970 C 0.69544 0.68164 0.40501
 C2971 C 0.69025 0.67631 0.39479
 C2972 C 0.68240 0.68303 0.38733
 C2973 C 0.67985 0.69520 0.39033
 C2974 C 0.68510 0.70055 0.40050
 C2975 C 0.69869 0.69959 0.41862
 C2976 C 0.70350 0.71140 0.41782
 C2977 C 0.70902 0.71682 0.42781
 C2978 C 0.70979 0.71059 0.43887
 C2979 C 0.70493 0.69878 0.43967
 C2980 C 0.69947 0.69333 0.42964
 C2981 C 0.71581 0.71637 0.44942
 C2982 C 0.72328 0.70950 0.45716
 C2983 C 0.72941 0.71509 0.46671
 C2984 C 0.72820 0.72763 0.46865
 C2985 C 0.72058 0.73448 0.46114
 C2986 C 0.71440 0.72890 0.45164
 H2987 H 0.70155 0.67628 0.41052
 H2988 H 0.69235 0.66690 0.39280
 H2989 H 0.67391 0.70067 0.38476
 H2990 H 0.68294 0.70993 0.40260
 H2991 H 0.70321 0.71637 0.40939
 H2992 H 0.71288 0.72582 0.42680
 H2993 H 0.70523 0.69380 0.44809
 H2994 H 0.69571 0.68427 0.43055
 H2995 H 0.72467 0.69986 0.45563
 H2996 H 0.73532 0.70971 0.47242
 H2997 H 0.71955 0.74418 0.46257
 H2998 H 0.70856 0.73442 0.44600
 C2999 C 0.69322 0.19378 -0.09242
 C3000 C 0.69555 0.18153 -0.09524
 C3001 C 0.69036 0.17619 -0.10545
 C3002 C 0.68265 0.18295 -0.11302
 C3003 C 0.68025 0.19518 -0.11013
 C3004 C 0.68551 0.20054 -0.09997
 C3005 C 0.69894 0.19955 -0.08173
 C3006 C 0.70387 0.21130 -0.08255
 C3007 C 0.70936 0.21673 -0.07255
 C3008 C 0.70999 0.21055 -0.06146
 C3009 C 0.70501 0.19880 -0.06062
 C3010 C 0.69957 0.19335 -0.07066
 C3011 C 0.71597 0.21633 -0.05089
 C3012 C 0.72330 0.20943 -0.04305
 C3013 C 0.72939 0.21502 -0.03347
 C3014 C 0.72828 0.22758 -0.03159
 C3015 C 0.72078 0.23446 -0.03920
 C3016 C 0.71465 0.22889 -0.04874
 H3017 H 0.70155 0.17613 -0.08964
 H3018 H 0.69234 0.16674 -0.10735
 H3019 H 0.67442 0.20069 -0.11579
 H3020 H 0.68347 0.20997 -0.09797
 H3021 H 0.70370 0.21622 -0.09101
 H3022 H 0.71333 0.22568 -0.07358
 H3023 H 0.70519 0.19387 -0.05217
 H3024 H 0.69569 0.18434 -0.06972
 H3025 H 0.72463 0.19978 -0.04452
 H3026 H 0.73521 0.20961 -0.02768
 H3027 H 0.71981 0.24417 -0.03782
 H3028 H 0.70890 0.23443 -0.05446
 C3029 C 0.19357 0.69269 -0.09195
 C3030 C 0.18399 0.69865 -0.09788
 C3031 C 0.17864 0.69352 -0.10812
 C3032 C 0.18273 0.68229 -0.11267
 C3033 C 0.19227 0.67630 -0.10666
 C3034 C 0.19763 0.68145 -0.09644
 C3035 C 0.19942 0.69824 -0.08120
 C3036 C 0.21210 0.69777 -0.07977
 C3037 C 0.21764 0.70312 -0.06975
 C3038 C 0.21064 0.70906 -0.06094
 C3039 C 0.19795 0.70947 -0.06233
 C3040 C 0.19240 0.70412 -0.07235
 C3041 C 0.21659 0.71505 -0.05049
 C3042 C 0.21266 0.72656 -0.04652
 C3043 C 0.21865 0.73247 -0.03709
 C3044 C 0.22864 0.72697 -0.03146
 C3045 C 0.23245 0.71540 -0.03518
 C3046 C 0.22648 0.70948 -0.04463
 H3047 H 0.18077 0.70741 -0.09474
 H3048 H 0.17139 0.69848 -0.11250
 H3049 H 0.19562 0.66759 -0.10976
 H3050 H 0.20488 0.67654 -0.09197
 H3051 H 0.21778 0.69348 -0.08653
 H3052 H 0.22746 0.70284 -0.06905
 H3053 H 0.19229 0.71384 -0.05560
 H3054 H 0.18260 0.70446 -0.07311
 H3055 H 0.20518 0.73115 -0.05094
 H3056 H 0.21567 0.74145 -0.03431
 H3057 H 0.24016 0.71106 -0.03089
 H3058 H 0.22962 0.70056 -0.04738
 C3059 C 0.19347 0.19273 0.40768
 C3060 C 0.18230 0.19706 0.40329
 C3061 C 0.17715 0.19206 0.39288
 C3062 C 0.18302 0.18258 0.38663
 C3063 C 0.19412 0.17815 0.39117
 C3064 C 0.19927 0.18317 0.40155
 C3065 C 0.19917 0.19832 0.41847
 C3066 C 0.21174 0.20057 0.41870
 C3067 C 0.21713 0.20599 0.42875
 C3068 C 0.21010 0.20927 0.43883
 C3069 C 0.19753 0.20698 0.43863
 C3070 C 0.19213 0.20157 0.42855
 C3071 C 0.21586 0.21527 0.44938
 C3072 C 0.21006 0.22503 0.45525
 C3073 C 0.21582 0.23111 0.46474
 C3074 C 0.22743 0.22752 0.46849
 C3075 C 0.23314 0.21763 0.46287
 C3076 C 0.22740 0.21154 0.45340
 H3077 H 0.17767 0.20451 0.40774
 H3078 H 0.16863 0.19577 0.38972
 H3079 H 0.19890 0.17081 0.38674
 H3080 H 0.20779 0.17951 0.40482
 H3081 H 0.21737 0.19838 0.41099
 H3082 H 0.22679 0.20785 0.42852
 H3083 H 0.19189 0.20926 0.44631
 H3084 H 0.18245 0.19980 0.42870
 H3085 H 0.20125 0.22821 0.45228
 H3086 H 0.21135 0.23879 0.46898
 H3087 H 0.24212 0.21478 0.46570
 H3088 H 0.23202 0.20394 0.44919
 C3089 C 0.30621 0.40678 0.69250
 C3090 C 0.31706 0.40194 0.69713
 C3091 C 0.32234 0.39161 0.69194
 C3092 C 0.31690 0.38587 0.68198
 C3093 C 0.30606 0.39077 0.67732
 C3094 C 0.30079 0.40109 0.68251
 C3095 C 0.30048 0.41762 0.69815
 C3096 C 0.28781 0.41821 0.69964
 C3097 C 0.28240 0.42831 0.70510
 C3098 C 0.28954 0.43806 0.70922
 C3099 C 0.30221 0.43751 0.70768
 C3100 C 0.30762 0.42740 0.70220
 C3101 C 0.28379 0.44864 0.71530
 C3102 C 0.28913 0.45382 0.72562
 C3103 C 0.28341 0.46339 0.73169
 C3104 C 0.27228 0.46794 0.72752
 C3105 C 0.26702 0.46299 0.71711
 C3106 C 0.27272 0.45341 0.71105
 H3107 H 0.32139 0.40602 0.70491
 H3108 H 0.33069 0.38818 0.69580
 H3109 H 0.30156 0.38666 0.66968
 H3110 H 0.29250 0.40469 0.67863
 H3111 H 0.28207 0.41074 0.69680
 H3112 H 0.27264 0.42836 0.70635
 H3113 H 0.30794 0.44496 0.71061
 H3114 H 0.31739 0.42730 0.70101
 H3115 H 0.29756 0.45024 0.72920
 H3116 H 0.28751 0.46711 0.73976
 H3117 H 0.25842 0.46644 0.71381
 H3118 H 0.26847 0.44973 0.70304
 C3119 C 0.30728 0.90776 0.19349
 C3120 C 0.31695 0.90158 0.19906
 C3121 C 0.32203 0.89124 0.19373
 C3122 C 0.31757 0.88679 0.18268
 C3123 C 0.30793 0.89304 0.17709
 C3124 C 0.30286 0.90339 0.18243
 C3125 C 0.30173 0.91861 0.19929
 C3126 C 0.29822 0.92873 0.19236
 C3127 C 0.29281 0.93885 0.19782
 C3128 C 0.29079 0.93906 0.21033
 C3129 C 0.29437 0.92897 0.21727
 C3130 C 0.29977 0.91887 0.21181
 C3131 C 0.28473 0.94963 0.21614
 C3132 C 0.28869 0.95391 0.22743
 C3133 C 0.28257 0.96343 0.23319
 C3134 C 0.27242 0.96882 0.22775
 C3135 C 0.26858 0.96479 0.21638
 C3136 C 0.27470 0.95528 0.21061
 H3137 H 0.32067 0.90481 0.20751
 H3138 H 0.32942 0.88674 0.19835
 H3139 H 0.30423 0.88997 0.16860
 H3140 H 0.29531 0.90786 0.17799
 H3141 H 0.29978 0.92888 0.18271
 H3142 H 0.29030 0.94655 0.19226
 H3143 H 0.29274 0.92877 0.22690
 H3144 H 0.30218 0.91113 0.21738
 H3145 H 0.29649 0.94987 0.23183
 H3146 H 0.28562 0.96648 0.24197
 H3147 H 0.26070 0.96885 0.21213
 H3148 H 0.27135 0.95210 0.20199
 C3149 C 0.80699 0.40723 0.19351
 C3150 C 0.81494 0.39968 0.20001
 C3151 C 0.82020 0.38950 0.19456
 C3152 C 0.81758 0.38659 0.18249
 C3153 C 0.80963 0.39415 0.17598
 C3154 C 0.80443 0.40439 0.18142
 C3155 C 0.80127 0.41795 0.19936
 C3156 C 0.80040 0.42912 0.19325
 C3157 C 0.79492 0.43917 0.19876
 C3158 C 0.79014 0.43825 0.21049
 C3159 C 0.79102 0.42706 0.21658
 C3160 C 0.79655 0.41704 0.21109
 C3161 C 0.78414 0.44884 0.21635
 C3162 C 0.78564 0.45100 0.22877
 C3163 C 0.77951 0.46056 0.23442
 C3164 C 0.77181 0.46817 0.22776
 C3165 C 0.77050 0.46630 0.21533
 C3166 C 0.77660 0.45670 0.20966
 H3167 H 0.81716 0.40169 0.20931
 H3168 H 0.82620 0.38383 0.19987
 H3169 H 0.80745 0.39223 0.16666
 H3170 H 0.79824 0.40998 0.17623
 H3171 H 0.80411 0.43012 0.18425
 H3172 H 0.79457 0.44770 0.19390
 H3173 H 0.78723 0.42596 0.22553
 H3174 H 0.79692 0.40849 0.21595
 H3175 H 0.79155 0.44528 0.23413
 H3176 H 0.78065 0.46196 0.24402
 H3177 H 0.76456 0.47211 0.21008
 H3178 H 0.77513 0.45521 0.20012
 C3179 C 0.80650 0.90749 0.69254
 C3180 C 0.81811 0.90361 0.69612
 C3181 C 0.82349 0.89340 0.69080
 C3182 C 0.81739 0.88682 0.68177
 C3183 C 0.80579 0.89077 0.67815
 C3184 C 0.80041 0.90097 0.68348
 C3185 C 0.80068 0.91821 0.69832
 C3186 C 0.78824 0.91803 0.70122
 C3187 C 0.78275 0.92805 0.70673
 C3188 C 0.78956 0.93851 0.70947
 C3189 C 0.80199 0.93871 0.70657
 C3190 C 0.80749 0.92867 0.70105
 C3191 C 0.78370 0.94907 0.71550
 C3192 C 0.78973 0.95537 0.72479
 C3193 C 0.78396 0.96492 0.73086
 C3194 C 0.77210 0.96832 0.72773
 C3195 C 0.76615 0.96227 0.71831
 C3196 C 0.77190 0.95273 0.71224
 H3197 H 0.82298 0.90836 0.70317
 H3198 H 0.83245 0.89071 0.69381
 H3199 H 0.80075 0.88598 0.67127
 H3200 H 0.79151 0.90382 0.68041
 H3201 H 0.78279 0.91003 0.69942
 H3202 H 0.77321 0.92752 0.70906
 H3203 H 0.80744 0.94669 0.70843
 H3204 H 0.81705 0.92915 0.69878
 H3205 H 0.79876 0.95268 0.72760
 H3206 H 0.78863 0.96949 0.73816
 H3207 H 0.75699 0.96484 0.71581
 H3208 H 0.76710 0.94819 0.70500
 C3209 C 0.69310 0.59255 0.69338
 C3210 C 0.68542 0.60031 0.69998
 C3211 C 0.68014 0.61047 0.69452
 C3212 C 0.68247 0.61316 0.68234
 C3213 C 0.69013 0.60537 0.67573
 C3214 C 0.69535 0.59516 0.68118
 C3215 C 0.69887 0.58189 0.69927
 C3216 C 0.69950 0.57061 0.69333
 C3217 C 0.70497 0.56059 0.69891
 C3218 C 0.70996 0.56165 0.71054
 C3219 C 0.70934 0.57296 0.71644
 C3220 C 0.70383 0.58294 0.71089
 C3221 C 0.71594 0.55108 0.71646
 C3222 C 0.71458 0.54913 0.72893
 C3223 C 0.72067 0.53958 0.73462
 C3224 C 0.72819 0.53177 0.72796
 C3225 C 0.72936 0.53346 0.71549
 C3226 C 0.72330 0.54305 0.70977
 H3227 H 0.68343 0.59847 0.70937
 H3228 H 0.67437 0.61629 0.69991
 H3229 H 0.69205 0.60711 0.66631
 H3230 H 0.70131 0.58940 0.67590
 H3231 H 0.69562 0.56949 0.68443
 H3232 H 0.70514 0.55196 0.69419
 H3233 H 0.71331 0.57416 0.72529
 H3234 H 0.70366 0.59157 0.71560
 H3235 H 0.70881 0.55500 0.73430
 H3236 H 0.71965 0.53833 0.74426
 H3237 H 0.73518 0.52752 0.71024
 H3238 H 0.72465 0.54438 0.70019
 C3239 C 0.69298 0.09147 0.19215
 C3240 C 0.69511 0.09429 0.17996
 C3241 C 0.68996 0.10466 0.17475
 C3242 C 0.68249 0.11243 0.18159
 C3243 C 0.68028 0.10956 0.19374
 C3244 C 0.68548 0.09922 0.19897
 C3245 C 0.69869 0.08060 0.19778
 C3246 C 0.69227 0.07355 0.20623
 C3247 C 0.69777 0.06355 0.21179
 C3248 C 0.70981 0.06033 0.20897
 C3249 C 0.71618 0.06726 0.20041
 C3250 C 0.71069 0.07730 0.19489
 C3251 C 0.71583 0.05001 0.21519
 C3252 C 0.72326 0.04186 0.20875
 C3253 C 0.72934 0.03246 0.21473
 C3254 C 0.72814 0.03111 0.22724
 C3255 C 0.72059 0.03908 0.23368
 C3256 C 0.71446 0.04844 0.22771
 H3257 H 0.70068 0.08840 0.17440
 H3258 H 0.69173 0.10649 0.16533
 H3259 H 0.67471 0.11540 0.19933
 H3260 H 0.68381 0.09743 0.20843
 H3261 H 0.68294 0.07571 0.20850
 H3262 H 0.69259 0.05827 0.21824
 H3263 H 0.72552 0.06512 0.19820
 H3264 H 0.71597 0.08264 0.18858
 H3265 H 0.72438 0.04278 0.19909
 H3266 H 0.73514 0.02635 0.20965
 H3267 H 0.71961 0.03815 0.24336
 H3268 H 0.70890 0.05465 0.23292
 C3269 C 0.19279 0.59318 0.19339
 C3270 C 0.18512 0.60091 0.20002
 C3271 C 0.17989 0.61113 0.19461
 C3272 C 0.18226 0.61390 0.18245
 C3273 C 0.18991 0.60613 0.17581
 C3274 C 0.19508 0.59586 0.18121
 C3275 C 0.19850 0.58244 0.19921
 C3276 C 0.19910 0.57121 0.19318
 C3277 C 0.20453 0.56112 0.19869
 C3278 C 0.20951 0.56208 0.21033
 C3279 C 0.20891 0.57334 0.21633
 C3280 C 0.20345 0.58339 0.21084
 C3281 C 0.21545 0.55145 0.21618
 C3282 C 0.21409 0.54942 0.22864
 C3283 C 0.22018 0.53983 0.23427
 C3284 C 0.22768 0.53206 0.22755
 C3285 C 0.22884 0.53382 0.21509
 C3286 C 0.22279 0.54345 0.20944
 H3287 H 0.18310 0.59901 0.20939
 H3288 H 0.17411 0.61693 0.20003
 H3289 H 0.19187 0.60792 0.16642
 H3290 H 0.20105 0.59012 0.17591
 H3291 H 0.19523 0.57017 0.18427
 H3292 H 0.20468 0.55254 0.19390
 H3293 H 0.21288 0.57447 0.22519
 H3294 H 0.20329 0.59198 0.21562
 H3295 H 0.20834 0.55527 0.23405
 H3296 H 0.21917 0.53853 0.24391
 H3297 H 0.23465 0.52790 0.20981
 H3298 H 0.22414 0.54484 0.19987
 C3299 C 0.19293 0.09236 0.69294
 C3300 C 0.19874 0.09835 0.68334
 C3301 C 0.19343 0.10855 0.67796
 C3302 C 0.18217 0.11302 0.68204
 C3303 C 0.17633 0.10696 0.69160
 C3304 C 0.18165 0.09675 0.69697
 C3305 C 0.19872 0.08167 0.69878
 C3306 C 0.19174 0.07152 0.70221
 C3307 C 0.19722 0.06149 0.70774
 C3308 C 0.20980 0.06138 0.70997
 C3309 C 0.21676 0.07153 0.70655
 C3310 C 0.21128 0.08155 0.70102
 C3311 C 0.21565 0.05083 0.71599
 C3312 C 0.22714 0.04669 0.71220
 C3313 C 0.23290 0.03714 0.71822
 C3314 C 0.22728 0.03156 0.72812
 C3315 C 0.21574 0.03545 0.73181
 C3316 C 0.20995 0.04501 0.72579
 H3317 H 0.20737 0.09510 0.67992
 H3318 H 0.19826 0.11293 0.67066
 H3319 H 0.16765 0.11006 0.69498
 H3320 H 0.17701 0.09240 0.70443
 H3321 H 0.18207 0.07127 0.70046
 H3322 H 0.19165 0.05374 0.71013
 H3323 H 0.22642 0.07183 0.70835
 H3324 H 0.21687 0.08932 0.69869
 H3325 H 0.23167 0.05086 0.70458
 H3326 H 0.24182 0.03419 0.71529
 H3327 H 0.21134 0.03124 0.73949
 H3328 H 0.20118 0.04808 0.72901
 C3329 C 0.30555 0.59295 0.30708
 C3330 C 0.29890 0.60033 0.31505
 C3331 C 0.30422 0.61058 0.32030
 C3332 C 0.31631 0.61373 0.31763
 C3333 C 0.32297 0.60633 0.30967
 C3334 C 0.31767 0.59603 0.30449
 C3335 C 0.29982 0.58218 0.30136
 C3336 C 0.30618 0.57114 0.30035
 C3337 C 0.30076 0.56103 0.29490
 C3338 C 0.28888 0.56177 0.29028
 C3339 C 0.28256 0.57286 0.29128
 C3340 C 0.28795 0.58293 0.29679
 C3341 C 0.28313 0.55113 0.28429
 C3342 C 0.27066 0.54877 0.28585
 C3343 C 0.26508 0.53920 0.27970
 C3344 C 0.27186 0.53176 0.27195
 C3345 C 0.28435 0.53383 0.27058
 C3346 C 0.28994 0.54346 0.27669
 H3347 H 0.28958 0.59812 0.31730
 H3348 H 0.29879 0.61610 0.32632
 H3349 H 0.33232 0.60843 0.30748
 H3350 H 0.32298 0.59057 0.29829
 H3351 H 0.31529 0.57027 0.30393
 H3352 H 0.30582 0.55259 0.29442
 H3353 H 0.27350 0.57383 0.28760
 H3354 H 0.28290 0.59138 0.29726
 H3355 H 0.26520 0.55435 0.29181
 H3356 H 0.25542 0.53767 0.28086
 H3357 H 0.28968 0.52819 0.26457
 H3358 H 0.29952 0.54510 0.27517
 C3359 C 0.30681 0.09230 0.80693
 C3360 C 0.31834 0.09633 0.80323
 C3361 C 0.32367 0.10655 0.80857
 C3362 C 0.31761 0.11297 0.81775
 C3363 C 0.30609 0.10888 0.82148
 C3364 C 0.30076 0.09868 0.81613
 C3365 C 0.30104 0.08157 0.80114
 C3366 C 0.28856 0.08165 0.79845
 C3367 C 0.28310 0.07160 0.79298
 C3368 C 0.28998 0.06122 0.79007
 C3369 C 0.30246 0.06113 0.79275
 C3370 C 0.30793 0.07120 0.79824
 C3371 C 0.28413 0.05063 0.78411
 C3372 C 0.29002 0.04447 0.77463
 C3373 C 0.28422 0.03493 0.76861
 C3374 C 0.27247 0.03138 0.77198
 C3375 C 0.26667 0.03728 0.78160
 C3376 C 0.27245 0.04682 0.78762
 H3377 H 0.32317 0.09169 0.79607
 H3378 H 0.33255 0.10935 0.80546
 H3379 H 0.30109 0.11355 0.82848
 H3380 H 0.29193 0.09572 0.81929
 H3381 H 0.28305 0.08958 0.80038
 H3382 H 0.27351 0.07204 0.79082
 H3383 H 0.30797 0.05321 0.79075
 H3384 H 0.31752 0.07080 0.80036
 H3385 H 0.29896 0.04727 0.77164
 H3386 H 0.28877 0.03047 0.76115
 H3387 H 0.25760 0.03460 0.78430
 H3388 H 0.26776 0.05125 0.79501
 C3389 C 0.80606 0.59298 0.80718
 C3390 C 0.79942 0.60036 0.81517
 C3391 C 0.80475 0.61063 0.82038
 C3392 C 0.81682 0.61380 0.81766
 C3393 C 0.82346 0.60640 0.80968
 C3394 C 0.81815 0.59608 0.80453
 C3395 C 0.80032 0.58220 0.80152
 C3396 C 0.80669 0.57115 0.80051
 C3397 C 0.80126 0.56102 0.79512
 C3398 C 0.78936 0.56174 0.79056
 C3399 C 0.78302 0.57281 0.79155
 C3400 C 0.78842 0.58290 0.79700
 C3401 C 0.78359 0.55107 0.78463
 C3402 C 0.77114 0.54868 0.78628
 C3403 C 0.76554 0.53908 0.78019
 C3404 C 0.77231 0.53163 0.77242
 C3405 C 0.78478 0.53373 0.77098
 C3406 C 0.79038 0.54339 0.77702
 H3407 H 0.79011 0.59814 0.81746
 H3408 H 0.79933 0.61615 0.82642
 H3409 H 0.83279 0.60851 0.80744
 H3410 H 0.82344 0.59062 0.79832
 H3411 H 0.81583 0.57031 0.80404
 H3412 H 0.80633 0.55259 0.79464
 H3413 H 0.77394 0.57376 0.78792
 H3414 H 0.78337 0.59135 0.79747
 H3415 H 0.76569 0.55427 0.79224
 H3416 H 0.75590 0.53753 0.78140
 H3417 H 0.79008 0.52808 0.76494
 H3418 H 0.79995 0.54505 0.77544
 C3419 C 0.80635 0.09250 0.30725
 C3420 C 0.81863 0.09525 0.30509
 C3421 C 0.82403 0.10539 0.31048
 C3422 C 0.81730 0.11296 0.31823
 C3423 C 0.80504 0.11015 0.32045
 C3424 C 0.79962 0.10006 0.31499
 C3425 C 0.80054 0.08187 0.30137
 C3426 C 0.78884 0.08289 0.29641
 C3427 C 0.78334 0.07292 0.29084
 C3428 C 0.78938 0.06165 0.29016
 C3429 C 0.80109 0.06063 0.29515
 C3430 C 0.80662 0.07064 0.30066
 C3431 C 0.78350 0.05108 0.28416
 C3432 C 0.79033 0.04311 0.27688
 C3433 C 0.78468 0.03348 0.27084
 C3434 C 0.77212 0.03171 0.27194
 C3435 C 0.76530 0.03948 0.27934
 C3436 C 0.77094 0.04906 0.28543
 H3437 H 0.82401 0.08964 0.29907
 H3438 H 0.83351 0.10723 0.30863
 H3439 H 0.79956 0.11581 0.32630
 H3440 H 0.79017 0.09810 0.31691
 H3441 H 0.78403 0.09149 0.29665
 H3442 H 0.77443 0.07410 0.28688
 H3443 H 0.80591 0.05204 0.29493
 H3444 H 0.81558 0.06955 0.30454
 H3445 H 0.79998 0.04449 0.27559
 H3446 H 0.79004 0.02757 0.26510
 H3447 H 0.75559 0.03818 0.28029
 H3448 H 0.76546 0.05489 0.29112
 C3449 C 0.69374 0.40686 0.30707
 C3450 C 0.68150 0.40400 0.30482
 C3451 C 0.67618 0.39375 0.31010
 C3452 C 0.68295 0.38618 0.31781
 C3453 C 0.69516 0.38910 0.32010
 C3454 C 0.70050 0.39930 0.31476
 C3455 C 0.69947 0.41761 0.30132
 C3456 C 0.71122 0.41677 0.29643
 C3457 C 0.71664 0.42685 0.29096
 C3458 C 0.71047 0.43804 0.29031
 C3459 C 0.69871 0.43889 0.29521
 C3460 C 0.69326 0.42877 0.30064
 C3461 C 0.71626 0.44870 0.28438
 C3462 C 0.70941 0.45658 0.27703
 C3463 C 0.71502 0.46623 0.27098
 C3464 C 0.72756 0.46813 0.27216
 C3465 C 0.73438 0.46048 0.27967
 C3466 C 0.72878 0.45087 0.28575
 H3467 H 0.67610 0.40961 0.29884
 H3468 H 0.66673 0.39183 0.30819
 H3469 H 0.70068 0.38345 0.32592
 H3470 H 0.70992 0.40134 0.31674
 H3471 H 0.71615 0.40823 0.29665
 H3472 H 0.72560 0.42580 0.28705
 H3473 H 0.69377 0.44741 0.29500
 H3474 H 0.68425 0.42973 0.30447
 H3475 H 0.69979 0.45507 0.27566
 H3476 H 0.70966 0.47205 0.26516
 H3477 H 0.74407 0.46188 0.28068
 H3478 H 0.73427 0.44512 0.29151
 C3479 C 0.69332 0.90758 0.80759
 C3480 C 0.68207 0.90318 0.80349
 C3481 C 0.67674 0.89297 0.80884
 C3482 C 0.68253 0.88690 0.81842
 C3483 C 0.69377 0.89137 0.82254
 C3484 C 0.69909 0.90157 0.81719
 C3485 C 0.69909 0.91831 0.80179
 C3486 C 0.71167 0.91849 0.79961
 C3487 C 0.71711 0.92852 0.79406
 C3488 C 0.71010 0.93862 0.79057
 C3489 C 0.69752 0.93847 0.79277
 C3490 C 0.69207 0.92842 0.79832
 C3491 C 0.71591 0.94916 0.78448
 C3492 C 0.71021 0.95487 0.77463
 C3493 C 0.71595 0.96440 0.76853
 C3494 C 0.72746 0.96839 0.77221
 C3495 C 0.73308 0.96292 0.78217
 C3496 C 0.72735 0.95339 0.78826
 H3497 H 0.67746 0.90753 0.79602
 H3498 H 0.66808 0.88988 0.80541
 H3499 H 0.69855 0.88699 0.82986
 H3500 H 0.70769 0.90482 0.82065
 H3501 H 0.71729 0.91076 0.80198
 H3502 H 0.72678 0.92826 0.79229
 H3503 H 0.69191 0.94618 0.79033
 H3504 H 0.68239 0.92864 0.80004
 H3505 H 0.70147 0.95173 0.77141
 H3506 H 0.71156 0.96852 0.76081
 H3507 H 0.74197 0.96594 0.78509
 H3508 H 0.73189 0.94930 0.79592
 C3509 C 0.19281 0.40747 0.80676
 C3510 C 0.18123 0.40338 0.80328
 C3511 C 0.17613 0.39304 0.80858
 C3512 C 0.18247 0.38654 0.81752
 C3513 C 0.19401 0.39069 0.82106
 C3514 C 0.19912 0.40103 0.81573
 C3515 C 0.19833 0.41832 0.80093
 C3516 C 0.20505 0.42675 0.80774
 C3517 C 0.21044 0.43682 0.80219
 C3518 C 0.20921 0.43868 0.78971
 C3519 C 0.20241 0.43032 0.78292
 C3520 C 0.19704 0.42025 0.78846
 C3521 C 0.21526 0.44913 0.78371
 C3522 C 0.20928 0.45571 0.77459
 C3523 C 0.21520 0.46518 0.76857
 C3524 C 0.22720 0.46818 0.77154
 C3525 C 0.23315 0.46181 0.78076
 C3526 C 0.22722 0.45237 0.78682
 H3527 H 0.17605 0.40825 0.79653
 H3528 H 0.16717 0.39023 0.80573
 H3529 H 0.19923 0.38587 0.82781
 H3530 H 0.20813 0.40384 0.81849
 H3531 H 0.20605 0.42563 0.81739
 H3532 H 0.21550 0.44320 0.80767
 H3533 H 0.20148 0.43140 0.77326
 H3534 H 0.19210 0.41382 0.78293
 H3535 H 0.20002 0.45352 0.77211
 H3536 H 0.21052 0.47005 0.76146
 H3537 H 0.24244 0.46402 0.78310
 H3538 H 0.23211 0.44738 0.79370
 C3539 C 0.19322 0.90726 0.30688
 C3540 C 0.18436 0.90044 0.30076
 C3541 C 0.17911 0.89023 0.30615
 C3542 C 0.18259 0.88656 0.31780
 C3543 C 0.19142 0.89342 0.32394
 C3544 C 0.19666 0.90366 0.31855
 C3545 C 0.19893 0.91800 0.30104
 C3546 C 0.20126 0.92865 0.30767
 C3547 C 0.20670 0.93871 0.30215
 C3548 C 0.20993 0.93834 0.28989
 C3549 C 0.20760 0.92768 0.28328
 C3550 C 0.20216 0.91764 0.28878
 C3551 C 0.21587 0.94893 0.28401
 C3552 C 0.21277 0.95227 0.27216
 C3553 C 0.21877 0.96185 0.26641
 C3554 C 0.22797 0.96825 0.27241
 C3555 C 0.23093 0.96516 0.28431
 C3556 C 0.22493 0.95558 0.29008
 H3557 H 0.18142 0.90306 0.29181
 H3558 H 0.17240 0.88518 0.30109
 H3559 H 0.19430 0.89095 0.33293
 H3560 H 0.20355 0.90865 0.32344
 H3561 H 0.19873 0.92926 0.31709
 H3562 H 0.20825 0.94684 0.30745
 H3563 H 0.21019 0.92702 0.27388
 H3564 H 0.20068 0.90949 0.28349
 H3565 H 0.20571 0.94745 0.26732
 H3566 H 0.21637 0.96418 0.25722
 H3567 H 0.23805 0.97002 0.28902
 H3568 H 0.22762 0.95315 0.29915
 C3569 C 0.40764 0.30701 0.69357
 C3570 C 0.39979 0.31456 0.70022
 C3571 C 0.38955 0.31972 0.69479
 C3572 C 0.38688 0.31738 0.68262
 C3573 C 0.39476 0.30987 0.67596
 C3574 C 0.40505 0.30477 0.68137
 C3575 C 0.41837 0.30134 0.69941
 C3576 C 0.42962 0.30086 0.69343
 C3577 C 0.43968 0.29540 0.69892
 C3578 C 0.43869 0.29026 0.71049
 C3579 C 0.42741 0.29075 0.71645
 C3580 C 0.41739 0.29626 0.71099
 C3581 C 0.44928 0.28424 0.71630
 C3582 C 0.45125 0.28541 0.72879
 C3583 C 0.46079 0.27923 0.73437
 C3584 C 0.46859 0.27182 0.72759
 C3585 C 0.46690 0.27084 0.71510
 C3586 C 0.45730 0.27699 0.70950
 H3587 H 0.40162 0.31654 0.70961
 H3588 H 0.38366 0.32540 0.70022
 H3589 H 0.39304 0.30794 0.66655
 H3590 H 0.41087 0.29890 0.67606
 H3591 H 0.43068 0.30484 0.68455
 H3592 H 0.44827 0.29532 0.69415
 H3593 H 0.42626 0.28666 0.72526
 H3594 H 0.40878 0.29632 0.71573
 H3595 H 0.44538 0.29109 0.73425
 H3596 H 0.46203 0.28009 0.74403
 H3597 H 0.47283 0.26510 0.70977
 H3598 H 0.45597 0.27577 0.69990
 C3599 C 0.40749 0.80695 0.19307
 C3600 C 0.40156 0.80103 0.18351
 C3601 C 0.39125 0.80617 0.17819
 C3602 C 0.38661 0.81737 0.18230
 C3603 C 0.39262 0.82331 0.19183
 C3604 C 0.40292 0.81816 0.19714
 C3605 C 0.41831 0.80138 0.19888
 C3606 C 0.41971 0.80177 0.21147
 C3607 C 0.42977 0.79636 0.21697
 C3608 C 0.43867 0.79044 0.21002
 C3609 C 0.43732 0.79012 0.19742
 C3610 C 0.42725 0.79553 0.19191
 C3611 C 0.44916 0.78439 0.21593
 C3612 C 0.45316 0.77290 0.21198
 C3613 C 0.46264 0.76692 0.21792
 C3614 C 0.46827 0.77235 0.22789
 C3615 C 0.46451 0.78390 0.23174
 C3616 C 0.45502 0.78987 0.22581
 H3617 H 0.40476 0.79230 0.18028
 H3618 H 0.38686 0.80125 0.17097
 H3619 H 0.38945 0.83199 0.19518
 H3620 H 0.40739 0.82303 0.20438
 H3621 H 0.41288 0.80602 0.21710
 H3622 H 0.43044 0.79658 0.22671
 H3623 H 0.44411 0.78577 0.19180
 H3624 H 0.42651 0.79524 0.18217
 H3625 H 0.44874 0.76837 0.20450
 H3626 H 0.46544 0.75797 0.21491
 H3627 H 0.46880 0.78818 0.23943
 H3628 H 0.45224 0.79878 0.22896
 C3629 C 0.90795 0.30730 0.19257
 C3630 C 0.90180 0.30120 0.18326
 C3631 C 0.89149 0.30634 0.17794
 C3632 C 0.88708 0.31772 0.18180
 C3633 C 0.89329 0.32383 0.19108
 C3634 C 0.90359 0.31868 0.19639
 C3635 C 0.91880 0.30174 0.19835
 C3636 C 0.92044 0.30249 0.21090
 C3637 C 0.93050 0.29706 0.21639
 C3638 C 0.93915 0.29075 0.20946
 C3639 C 0.93757 0.29008 0.19690
 C3640 C 0.92751 0.29553 0.19141
 C3641 C 0.94962 0.28465 0.21538
 C3642 C 0.95329 0.27294 0.21173
 C3643 C 0.96273 0.26695 0.21772
 C3644 C 0.96865 0.27257 0.22741
 C3645 C 0.96524 0.28434 0.23091
 C3646 C 0.95579 0.29033 0.22495
 H3647 H 0.90483 0.29233 0.18024
 H3648 H 0.88693 0.30129 0.17091
 H3649 H 0.89030 0.33265 0.19422
 H3650 H 0.90822 0.32371 0.20342
 H3651 H 0.91379 0.30703 0.21652
 H3652 H 0.93137 0.29757 0.22610
 H3653 H 0.94418 0.28544 0.19131
 H3654 H 0.92661 0.29496 0.18170
 H3655 H 0.94864 0.26828 0.20447
 H3656 H 0.96528 0.25784 0.21496
 H3657 H 0.96977 0.28877 0.23838
 H3658 H 0.95328 0.29940 0.22784
 C3659 C 0.90784 0.80738 0.69310
 C3660 C 0.90477 0.81961 0.69529
 C3661 C 0.89448 0.82478 0.68995
 C3662 C 0.88707 0.81788 0.68224
 C3663 C 0.89015 0.80566 0.68003
 C3664 C 0.90039 0.80047 0.68543
 C3665 C 0.91872 0.80182 0.69886
 C3666 C 0.92599 0.79348 0.69249
 C3667 C 0.93602 0.78801 0.69800
 C3668 C 0.93905 0.79080 0.70999
 C3669 C 0.93189 0.79925 0.71632
 C3670 C 0.92182 0.80467 0.71083
 C3671 C 0.94943 0.78467 0.71599
 C3672 C 0.95740 0.79127 0.72344
 C3673 C 0.96687 0.78537 0.72947
 C3674 C 0.96847 0.77278 0.72820
 C3675 C 0.96066 0.76618 0.72065
 C3676 C 0.95124 0.77208 0.71457
 H3677 H 0.91041 0.82524 0.70101
 H3678 H 0.89246 0.83425 0.69176
 H3679 H 0.88456 0.80001 0.67429
 H3680 H 0.90235 0.79096 0.68374
 H3681 H 0.92399 0.79124 0.68319
 H3682 H 0.94147 0.78164 0.69285
 H3683 H 0.93390 0.80142 0.72563
 H3684 H 0.91630 0.81089 0.71607
 H3685 H 0.95629 0.80100 0.72459
 H3686 H 0.97283 0.79056 0.73530
 H3687 H 0.96178 0.75644 0.71963
 H3688 H 0.94516 0.76675 0.70901
 C3689 C 0.59270 0.30656 0.30670
 C3690 C 0.59818 0.31689 0.30160
 C3691 C 0.60834 0.32221 0.30703
 C3692 C 0.61326 0.31733 0.31770
 C3693 C 0.60770 0.30702 0.32281
 C3694 C 0.59756 0.30170 0.31737
 C3695 C 0.58201 0.30079 0.30086
 C3696 C 0.58106 0.28805 0.30024
 C3697 C 0.57104 0.28259 0.29474
 C3698 C 0.56173 0.28973 0.28972
 C3699 C 0.56267 0.30247 0.29034
 C3700 C 0.57270 0.30794 0.29585
 C3701 C 0.55120 0.28388 0.28370
 C3702 C 0.54657 0.28860 0.27283
 C3703 C 0.53702 0.28275 0.26689
 C3704 C 0.53193 0.27214 0.27173
 C3705 C 0.53632 0.26752 0.28266
 C3706 C 0.54588 0.27333 0.28861
 H3707 H 0.59474 0.32076 0.29330
 H3708 H 0.61235 0.33009 0.30276
 H3709 H 0.61110 0.30300 0.33104
 H3710 H 0.59344 0.29385 0.32161
 H3711 H 0.58818 0.28229 0.30384
 H3712 H 0.57069 0.27275 0.29421
 H3713 H 0.55557 0.30822 0.28669
 H3714 H 0.57309 0.31778 0.29633
 H3715 H 0.55056 0.29661 0.26876
 H3716 H 0.53373 0.28636 0.25841
 H3717 H 0.53246 0.25931 0.28648
 H3718 H 0.54913 0.26958 0.29704
 C3719 C 0.59298 0.80644 0.80685
 C3720 C 0.59916 0.80046 0.81622
 C3721 C 0.60936 0.80574 0.82158
 C3722 C 0.61365 0.81715 0.81770
 C3723 C 0.60743 0.82315 0.80835
 C3724 C 0.59722 0.81786 0.80299
 C3725 C 0.58224 0.80072 0.80107
 C3726 C 0.57203 0.80774 0.79794
 C3727 C 0.56195 0.80232 0.79246
 C3728 C 0.56186 0.78977 0.79001
 C3729 C 0.57207 0.78277 0.79314
 C3730 C 0.58214 0.78818 0.79861
 C3731 C 0.55125 0.78399 0.78403
 C3732 C 0.54721 0.77242 0.78770
 C3733 C 0.53764 0.76670 0.78168
 C3734 C 0.53195 0.77246 0.77192
 C3735 C 0.53574 0.78410 0.76839
 C3736 C 0.54531 0.78983 0.77440
 H3737 H 0.59604 0.79172 0.81950
 H3738 H 0.61387 0.80080 0.82872
 H3739 H 0.61039 0.83194 0.80512
 H3740 H 0.59274 0.82263 0.79570
 H3741 H 0.57176 0.81739 0.79988
 H3742 H 0.55415 0.80793 0.79029
 H3743 H 0.57237 0.77312 0.79115
 H3744 H 0.58994 0.78256 0.80072
 H3745 H 0.55148 0.76778 0.79519
 H3746 H 0.53477 0.75771 0.78450
 H3747 H 0.53144 0.78860 0.76082
 H3748 H 0.54829 0.79868 0.77129
 C3749 C 0.09264 0.30705 0.80607
 C3750 C 0.09537 0.30468 0.81822
 C3751 C 0.10568 0.30975 0.82358
 C3752 C 0.11345 0.31738 0.81692
 C3753 C 0.11065 0.31982 0.80480
 C3754 C 0.10038 0.31468 0.79942
 C3755 C 0.08186 0.30143 0.80029
 C3756 C 0.08274 0.29648 0.78864
 C3757 C 0.07266 0.29106 0.78321
 C3758 C 0.06143 0.29053 0.78926
 C3759 C 0.06055 0.29553 0.80090
 C3760 C 0.07066 0.30090 0.80637
 C3761 C 0.05079 0.28459 0.78348
 C3762 C 0.04284 0.27726 0.79028
 C3763 C 0.03323 0.27116 0.78469
 C3764 C 0.03143 0.27227 0.77222
 C3765 C 0.03913 0.27978 0.76545
 C3766 C 0.04871 0.28592 0.77103
 H3767 H 0.08963 0.29873 0.82353
 H3768 H 0.10751 0.30774 0.83295
 H3769 H 0.11645 0.32558 0.79937
 H3770 H 0.09844 0.31675 0.79007
 H3771 H 0.09130 0.29658 0.78382
 H3772 H 0.07372 0.28707 0.77434
 H3773 H 0.05200 0.29542 0.80574
 H3774 H 0.06969 0.30479 0.81529
 H3775 H 0.04427 0.27594 0.79985
 H3776 H 0.02737 0.26533 0.79000
 H3777 H 0.03781 0.28074 0.75582
 H3778 H 0.05451 0.29166 0.76558
 C3779 C 0.09250 0.80713 0.30660
 C3780 C 0.09675 0.80281 0.31775
 C3781 C 0.10706 0.80789 0.32309
 C3782 C 0.11339 0.81744 0.31743
 C3783 C 0.10907 0.82179 0.30629
 C3784 C 0.09876 0.81670 0.30095
 C3785 C 0.08168 0.80157 0.30080
 C3786 C 0.08151 0.79945 0.28830
 C3787 C 0.07144 0.79404 0.28284
 C3788 C 0.06128 0.79062 0.28975
 C3789 C 0.06141 0.79280 0.30224
 C3790 C 0.07150 0.79821 0.30770
 C3791 C 0.05073 0.78459 0.28395
 C3792 C 0.04496 0.77467 0.28956
 C3793 C 0.03542 0.76860 0.28381
 C3794 C 0.03150 0.77238 0.27239
 C3795 C 0.03702 0.78242 0.26686
 C3796 C 0.04656 0.78848 0.27259
 H3797 H 0.09221 0.79535 0.32226
 H3798 H 0.11004 0.80428 0.33167
 H3799 H 0.11365 0.82909 0.30160
 H3800 H 0.09563 0.82033 0.29242
 H3801 H 0.08929 0.80173 0.28276
 H3802 H 0.07171 0.79229 0.27323
 H3803 H 0.05366 0.79041 0.30778
 H3804 H 0.07128 0.79990 0.31732
 H3805 H 0.04804 0.77137 0.29823
 H3806 H 0.03124 0.76082 0.28814
 H3807 H 0.03405 0.78543 0.25804
 H3808 H 0.05071 0.79620 0.26812
 C3809 C 0.59289 0.69356 0.69280
 C3810 C 0.59910 0.69952 0.68344
 C3811 C 0.60939 0.69427 0.67820
 C3812 C 0.61375 0.68293 0.68219
 C3813 C 0.60748 0.67695 0.69153
 C3814 C 0.59717 0.68219 0.69676
 C3815 C 0.58209 0.69927 0.69852
 C3816 C 0.57188 0.69224 0.70162
 C3817 C 0.56177 0.69764 0.70708
 C3818 C 0.56165 0.71019 0.70956
 C3819 C 0.57185 0.71720 0.70645
 C3820 C 0.58195 0.71181 0.70099
 C3821 C 0.55103 0.71596 0.71555
 C3822 C 0.54701 0.72756 0.71196
 C3823 C 0.53745 0.73328 0.71802
 C3824 C 0.53175 0.72750 0.72775
 C3825 C 0.53550 0.71582 0.73121
 C3826 C 0.54507 0.71008 0.72516
 H3827 H 0.59594 0.70822 0.68010
 H3828 H 0.61395 0.69921 0.67108
 H3829 H 0.61049 0.66818 0.69482
 H3830 H 0.59266 0.67744 0.70405
 H3831 H 0.57165 0.68259 0.69967
 H3832 H 0.55398 0.69203 0.70924
 H3833 H 0.57214 0.72684 0.70845
 H3834 H 0.58975 0.71743 0.69890
 H3835 H 0.55129 0.73223 0.70448
 H3836 H 0.53462 0.74230 0.71526
 H3837 H 0.53119 0.71129 0.73876
 H3838 H 0.54803 0.70121 0.72822
 C3839 C 0.59338 0.19323 0.19337
 C3840 C 0.59751 0.18172 0.19706
 C3841 C 0.60783 0.17652 0.19180
 C3842 C 0.61425 0.18270 0.18270
 C3843 C 0.61007 0.19420 0.17898
 C3844 C 0.59977 0.19940 0.18426
 C3845 C 0.58255 0.19888 0.19908
 C3846 C 0.58250 0.21133 0.20193
 C3847 C 0.57235 0.21668 0.20733
 C3848 C 0.56198 0.20970 0.20999
 C3849 C 0.56202 0.19723 0.20715
 C3850 C 0.57220 0.19188 0.20175
 C3851 C 0.55128 0.21543 0.21588
 C3852 C 0.54492 0.20932 0.22509
 C3853 C 0.53528 0.21501 0.23107
 C3854 C 0.53185 0.22688 0.22794
 C3855 C 0.53795 0.23291 0.21859
 C3856 C 0.54757 0.22723 0.21259
 H3857 H 0.59286 0.17681 0.20416
 H3858 H 0.61071 0.16763 0.19487
 H3859 H 0.61477 0.19928 0.17206
 H3860 H 0.59674 0.20823 0.18112
 H3861 H 0.59041 0.21692 0.20018
 H3862 H 0.57270 0.22625 0.20964
 H3863 H 0.55413 0.19165 0.20895
 H3864 H 0.57191 0.18229 0.19951
 H3865 H 0.54764 0.20029 0.22792
 H3866 H 0.53067 0.21030 0.23832
 H3867 H 0.53537 0.24209 0.21609
 H3868 H 0.55214 0.23209 0.20541
 C3869 C 0.09195 0.69341 0.19259
 C3870 C 0.09553 0.69663 0.18085
 C3871 C 0.10590 0.69149 0.17564
 C3872 C 0.11294 0.68298 0.18204
 C3873 C 0.10931 0.67971 0.19376
 C3874 C 0.09894 0.68486 0.19897
 C3875 C 0.08108 0.69908 0.19822
 C3876 C 0.07309 0.69212 0.20532
 C3877 C 0.06301 0.69753 0.21082
 C3878 C 0.06069 0.71002 0.20934
 C3879 C 0.06862 0.71696 0.20216
 C3880 C 0.07870 0.71155 0.19667
 C3881 C 0.05023 0.71590 0.21551
 C3882 C 0.04330 0.72486 0.20959
 C3883 C 0.03386 0.73082 0.21562
 C3884 C 0.03121 0.72793 0.22764
 C3885 C 0.03789 0.71883 0.23350
 C3886 C 0.04733 0.71285 0.22749
 H3887 H 0.09024 0.70306 0.17563
 H3888 H 0.10829 0.69414 0.16655
 H3889 H 0.11454 0.67330 0.19904
 H3890 H 0.09652 0.68232 0.20810
 H3891 H 0.07458 0.68245 0.20653
 H3892 H 0.05698 0.69192 0.21617
 H3893 H 0.06720 0.72664 0.20102
 H3894 H 0.08478 0.71719 0.19142
 H3895 H 0.04521 0.72727 0.20031
 H3896 H 0.02873 0.73781 0.21098
 H3897 H 0.03594 0.71654 0.24281
 H3898 H 0.05258 0.70610 0.23233
 C3899 C 0.09278 0.19363 0.69319
 C3900 C 0.10000 0.20030 0.68510
 C3901 C 0.11017 0.19498 0.67969
 C3902 C 0.11340 0.18289 0.68231
 C3903 C 0.10617 0.17621 0.69040
 C3904 C 0.09594 0.18151 0.69575
 C3905 C 0.08208 0.19936 0.69904
 C3906 C 0.07108 0.19298 0.70016
 C3907 C 0.06101 0.19842 0.70566
 C3908 C 0.06175 0.21034 0.71022
 C3909 C 0.07280 0.21668 0.70913
 C3910 C 0.08283 0.21126 0.70358
 C3911 C 0.05113 0.21614 0.71621
 C3912 C 0.04872 0.22861 0.71456
 C3913 C 0.03911 0.23421 0.72065
 C3914 C 0.03169 0.22744 0.72842
 C3915 C 0.03383 0.21496 0.72989
 C3916 C 0.04349 0.20935 0.72386
 H3917 H 0.09772 0.20962 0.68287
 H3918 H 0.11557 0.20042 0.67358
 H3919 H 0.10833 0.16686 0.69257
 H3920 H 0.09060 0.17619 0.70203
 H3921 H 0.07020 0.18384 0.69661
 H3922 H 0.05259 0.19336 0.70620
 H3923 H 0.07377 0.22577 0.71276
 H3924 H 0.09125 0.21632 0.70302
 H3925 H 0.05428 0.23405 0.70858
 H3926 H 0.03753 0.24386 0.71941
 H3927 H 0.02819 0.20965 0.73593
 H3928 H 0.04517 0.19977 0.72544
 C3929 C 0.40752 0.69206 0.30638
 C3930 C 0.40315 0.68063 0.30271
 C3931 C 0.39284 0.67558 0.30811
 C3932 C 0.38664 0.68183 0.31732
 C3933 C 0.39105 0.69325 0.32101
 C3934 C 0.40136 0.69830 0.31561
 C3935 C 0.41836 0.69753 0.30053
 C3936 C 0.42705 0.70383 0.30740
 C3937 C 0.43709 0.70923 0.30184
 C3938 C 0.43868 0.70844 0.28928
 C3939 C 0.43007 0.70202 0.28243
 C3940 C 0.42002 0.69663 0.28799
 C3941 C 0.44911 0.71454 0.28331
 C3942 C 0.45533 0.70884 0.27376
 C3943 C 0.46480 0.71482 0.26781
 C3944 C 0.46818 0.72660 0.27130
 C3945 C 0.46216 0.73225 0.28093
 C3946 C 0.45271 0.72628 0.28690
 H3947 H 0.40779 0.67552 0.29574
 H3948 H 0.38983 0.66672 0.30510
 H3949 H 0.38648 0.69842 0.32796
 H3950 H 0.40438 0.70720 0.31851
 H3951 H 0.42613 0.70451 0.31710
 H3952 H 0.44367 0.71395 0.30738
 H3953 H 0.43093 0.70142 0.27272
 H3954 H 0.41339 0.69201 0.28242
 H3955 H 0.45286 0.69975 0.27089
 H3956 H 0.46940 0.71036 0.26039
 H3957 H 0.46467 0.74138 0.28367
 H3958 H 0.44800 0.73097 0.29411
 C3959 C 0.40742 0.19298 0.80655
 C3960 C 0.40454 0.18073 0.80435
 C3961 C 0.39436 0.17540 0.80976
 C3962 C 0.38691 0.18219 0.81757
 C3963 C 0.38985 0.19443 0.81982
 C3964 C 0.39997 0.19977 0.81434
 C3965 C 0.41809 0.19872 0.80066
 C3966 C 0.41718 0.21047 0.79577
 C3967 C 0.42719 0.21592 0.79023
 C3968 C 0.43838 0.20977 0.78949
 C3969 C 0.43928 0.19799 0.79438
 C3970 C 0.42923 0.19251 0.79988
 C3971 C 0.44900 0.21562 0.78355
 C3972 C 0.45691 0.20880 0.77620
 C3973 C 0.46656 0.21446 0.77019
 C3974 C 0.46841 0.22701 0.77140
 C3975 C 0.46071 0.23381 0.77889
 C3976 C 0.45112 0.22817 0.78494
 H3977 H 0.41005 0.17530 0.79830
 H3978 H 0.39242 0.16594 0.80789
 H3979 H 0.38428 0.19997 0.82570
 H3980 H 0.40203 0.20920 0.81628
 H3981 H 0.40865 0.21539 0.79606
 H3982 H 0.42611 0.22489 0.78633
 H3983 H 0.44781 0.19307 0.79412
 H3984 H 0.43023 0.18350 0.80370
 H3985 H 0.45546 0.19916 0.77483
 H3986 H 0.47240 0.20912 0.76438
 H3987 H 0.46207 0.24352 0.77992
 H3988 H 0.44535 0.23364 0.79070
 C3989 C 0.90790 0.69217 0.80619
 C3990 C 0.90014 0.68449 0.79963
 C3991 C 0.88997 0.67926 0.80513
 C3992 C 0.88728 0.68167 0.81729
 C3993 C 0.89508 0.68931 0.82387
 C3994 C 0.90530 0.69447 0.81839
 C3995 C 0.91856 0.69790 0.80028
 C3996 C 0.92983 0.69850 0.80622
 C3997 C 0.93983 0.70399 0.80065
 C3998 C 0.93876 0.70907 0.78906
 C3999 C 0.92748 0.70845 0.78314
 C4000 C 0.91752 0.70290 0.78867
 C4001 C 0.94928 0.71518 0.78321
 C4002 C 0.95126 0.71399 0.77072
 C4003 C 0.96077 0.72021 0.76511
 C4004 C 0.96850 0.72769 0.77188
 C4005 C 0.96676 0.72873 0.78436
 C4006 C 0.95722 0.72253 0.78998
 H4007 H 0.90198 0.68245 0.79025
 H4008 H 0.88415 0.67346 0.79977
 H4009 H 0.89335 0.69128 0.83327
 H4010 H 0.91108 0.70042 0.82365
 H4011 H 0.93094 0.69458 0.81511
 H4012 H 0.94843 0.70415 0.80538
 H4013 H 0.92629 0.71247 0.77430
 H4014 H 0.90891 0.70274 0.78395
 H4015 H 0.94543 0.70827 0.76528
 H4016 H 0.96203 0.71932 0.75546
 H4017 H 0.97262 0.73455 0.78967
 H4018 H 0.95586 0.72377 0.79957
 C4019 C 0.90718 0.19286 0.30653
 C4020 C 0.90284 0.18151 0.30261
 C4021 C 0.89271 0.17618 0.30810
 C4022 C 0.88668 0.18206 0.31766
 C4023 C 0.89110 0.19339 0.32161
 C4024 C 0.90121 0.19872 0.31611
 C4025 C 0.91783 0.19863 0.30060
 C4026 C 0.91792 0.21121 0.29831
 C4027 C 0.92790 0.21667 0.29273
 C4028 C 0.93803 0.20968 0.28929
 C4029 C 0.93794 0.19710 0.29155
 C4030 C 0.92795 0.19163 0.29715
 C4031 C 0.94856 0.21553 0.28323
 C4032 C 0.95433 0.20983 0.27341
 C4033 C 0.96390 0.21559 0.26739
 C4034 C 0.96785 0.22711 0.27111
 C4035 C 0.96230 0.23274 0.28103
 C4036 C 0.95273 0.22700 0.28705
 H4037 H 0.90716 0.17683 0.29516
 H4038 H 0.88965 0.16745 0.30479
 H4039 H 0.88677 0.19825 0.32892
 H4040 H 0.90444 0.20739 0.31945
 H4041 H 0.91017 0.21681 0.30066
 H4042 H 0.92759 0.22635 0.29090
 H4043 H 0.94568 0.19150 0.28915
 H4044 H 0.92822 0.18195 0.29895
 H4045 H 0.95124 0.20106 0.27018
 H4046 H 0.96810 0.21118 0.25970
 H4047 H 0.96530 0.24163 0.28400
 H4048 H 0.94859 0.23153 0.29469
 C4049 C 0.30833 0.30592 0.59154
 C4050 C 0.31884 0.30100 0.59684
 C4051 C 0.32394 0.30635 0.60708
 C4052 C 0.31866 0.31675 0.61232
 C4053 C 0.30817 0.32169 0.60696
 C4054 C 0.30308 0.31635 0.59670
 C4055 C 0.30278 0.30009 0.58078
 C4056 C 0.29804 0.30721 0.57136
 C4057 C 0.29260 0.30171 0.56135
 C4058 C 0.29179 0.28898 0.56055
 C4059 C 0.29660 0.28186 0.56994
 C4060 C 0.30203 0.28735 0.57994
 C4061 C 0.28572 0.28311 0.55011
 C4062 C 0.29053 0.27242 0.54498
 C4063 C 0.28450 0.26658 0.53553
 C4064 C 0.27358 0.27133 0.53105
 C4065 C 0.26884 0.28209 0.53596
 C4066 C 0.27487 0.28795 0.54541
 H4067 H 0.32319 0.29306 0.59298
 H4068 H 0.33202 0.30225 0.61085
 H4069 H 0.30378 0.32966 0.61066
 H4070 H 0.29489 0.32026 0.59293
 H4071 H 0.29864 0.31704 0.57166
 H4072 H 0.28912 0.30743 0.55419
 H4073 H 0.29592 0.27203 0.56969
 H4074 H 0.30541 0.28162 0.58714
 H4075 H 0.29894 0.26857 0.54831
 H4076 H 0.28823 0.25827 0.53181
 H4077 H 0.26036 0.28579 0.53262
 H4078 H 0.27086 0.29607 0.54926
 C4079 C 0.30686 0.80765 0.09185
 C4080 C 0.30255 0.81873 0.09651
 C4081 C 0.30781 0.82385 0.10679
 C4082 C 0.31751 0.81801 0.11270
 C4083 C 0.32185 0.80694 0.10797
 C4084 C 0.31660 0.80184 0.09767
 C4085 C 0.30113 0.80211 0.08104
 C4086 C 0.30827 0.79649 0.07212
 C4087 C 0.30283 0.79109 0.06206
 C4088 C 0.29013 0.79119 0.06071
 C4089 C 0.28300 0.79688 0.06960
 C4090 C 0.28844 0.80227 0.07965
 C4091 C 0.28429 0.78514 0.05024
 C4092 C 0.27423 0.79049 0.04448
 C4093 C 0.26836 0.78448 0.03502
 C4094 C 0.27245 0.77304 0.03120
 C4095 C 0.28261 0.76775 0.03673
 C4096 C 0.28850 0.77376 0.04617
 H4097 H 0.29517 0.82351 0.09213
 H4098 H 0.30425 0.83242 0.11003
 H4099 H 0.32923 0.80210 0.11225
 H4100 H 0.32002 0.79321 0.09440
 H4101 H 0.31808 0.79637 0.07285
 H4102 H 0.30857 0.78693 0.05528
 H4103 H 0.27319 0.79692 0.06892
 H4104 H 0.28267 0.80635 0.08646
 H4105 H 0.27088 0.79931 0.04730
 H4106 H 0.26052 0.78864 0.03081
 H4107 H 0.28581 0.75888 0.03388
 H4108 H 0.29613 0.76934 0.05051
 C4109 C 0.80676 0.30706 0.09209
 C4110 C 0.80006 0.31494 0.09954
 C4111 C 0.80544 0.32030 0.10963
 C4112 C 0.81762 0.31784 0.11257
 C4113 C 0.82433 0.30997 0.10509
 C4114 C 0.81897 0.30469 0.09493
 C4115 C 0.80097 0.30123 0.08147
 C4116 C 0.80716 0.30043 0.07041
 C4117 C 0.80166 0.29492 0.06044
 C4118 C 0.78989 0.29004 0.06134
 C4119 C 0.78374 0.29081 0.07244
 C4120 C 0.78920 0.29638 0.08237
 C4121 C 0.78406 0.28402 0.05083
 C4122 C 0.77153 0.28542 0.04870
 C4123 C 0.76592 0.27929 0.03919
 C4124 C 0.77273 0.27171 0.03159
 C4125 C 0.78526 0.27050 0.03345
 C4126 C 0.79089 0.27659 0.04301
 H4127 H 0.79066 0.31702 0.09749
 H4128 H 0.79997 0.32625 0.11521
 H4129 H 0.83375 0.30794 0.10702
 H4130 H 0.82432 0.29857 0.08940
 H4131 H 0.81618 0.30422 0.06942
 H4132 H 0.80657 0.29463 0.05198
 H4133 H 0.77477 0.28692 0.07351
 H4134 H 0.78429 0.29669 0.09083
 H4135 H 0.76606 0.29124 0.05441
 H4136 H 0.75623 0.28033 0.03783
 H4137 H 0.79062 0.26462 0.02767
 H4138 H 0.80052 0.27520 0.04447
 C4139 C 0.80758 0.80644 0.59209
 C4140 C 0.81975 0.80413 0.59520
 C4141 C 0.82483 0.80931 0.60554
 C4142 C 0.81789 0.81700 0.61298
 C4143 C 0.80575 0.81936 0.60985
 C4144 C 0.80064 0.81412 0.59955
 C4145 C 0.80210 0.80079 0.58118
 C4146 C 0.79380 0.80731 0.57402
 C4147 C 0.78839 0.80187 0.56397
 C4148 C 0.79121 0.78982 0.56082
 C4149 C 0.79962 0.78334 0.56786
 C4150 C 0.80498 0.78875 0.57795
 C4151 C 0.78513 0.78388 0.55044
 C4152 C 0.79176 0.77648 0.54243
 C4153 C 0.78590 0.77046 0.53298
 C4154 C 0.77332 0.77168 0.53144
 C4155 C 0.76669 0.77920 0.53927
 C4156 C 0.77255 0.78528 0.54867
 H4157 H 0.82541 0.79842 0.58955
 H4158 H 0.83425 0.80742 0.60759
 H4159 H 0.80009 0.82510 0.61545
 H4160 H 0.79118 0.81591 0.59755
 H4161 H 0.79154 0.81666 0.57613
 H4162 H 0.78206 0.80713 0.55861
 H4163 H 0.80183 0.77397 0.56575
 H4164 H 0.81117 0.78339 0.58337
 H4165 H 0.80148 0.77535 0.54351
 H4166 H 0.79111 0.76468 0.52699
 H4167 H 0.75696 0.78019 0.53819
 H4168 H 0.76720 0.79081 0.55477
 C4169 C 0.30743 0.69342 0.40797
 C4170 C 0.30043 0.68587 0.40047
 C4171 C 0.30548 0.68065 0.39013
 C4172 C 0.31765 0.68290 0.38699
 C4173 C 0.32466 0.69046 0.39447
 C4174 C 0.31962 0.69564 0.40485
 C4175 C 0.30199 0.69907 0.41890
 C4176 C 0.30491 0.71108 0.42216
 C4177 C 0.29952 0.71651 0.43224
 C4178 C 0.29104 0.71007 0.43924
 C4179 C 0.28822 0.69802 0.43608
 C4180 C 0.29365 0.69257 0.42605
 C4181 C 0.28490 0.71605 0.44958
 C4182 C 0.27231 0.71465 0.45130
 C4183 C 0.26639 0.72074 0.46067
 C4184 C 0.27296 0.72827 0.46852
 C4185 C 0.28554 0.72950 0.46702
 C4186 C 0.29147 0.72346 0.45760
 H4187 H 0.29095 0.68416 0.40247
 H4188 H 0.29976 0.67500 0.38450
 H4189 H 0.33409 0.69228 0.39241
 H4190 H 0.32532 0.70126 0.41052
 H4191 H 0.31113 0.71641 0.41675
 H4192 H 0.30173 0.72587 0.43436
 H4193 H 0.28184 0.69279 0.44142
 H4194 H 0.29138 0.68323 0.42393
 H4195 H 0.26700 0.70911 0.44519
 H4196 H 0.25665 0.71975 0.46171
 H4197 H 0.29072 0.73528 0.47303
 H4198 H 0.30119 0.72459 0.45657
 C4199 C 0.30724 0.19301 0.90771
 C4200 C 0.31944 0.19528 0.90469
 C4201 C 0.32460 0.19009 0.89437
 C4202 C 0.31770 0.18245 0.88687
 C4203 C 0.30553 0.18011 0.88992
 C4204 C 0.30035 0.18536 0.90019
 C4205 C 0.30167 0.19871 0.91855
 C4206 C 0.29329 0.19224 0.92567
 C4207 C 0.28780 0.19772 0.93567
 C4208 C 0.29064 0.20977 0.93882
 C4209 C 0.29913 0.21619 0.93182
 C4210 C 0.30456 0.21074 0.92179
 C4211 C 0.28451 0.21576 0.94916
 C4212 C 0.29111 0.22315 0.95718
 C4213 C 0.28520 0.22921 0.96659
 C4214 C 0.27261 0.22804 0.96809
 C4215 C 0.26602 0.22053 0.96024
 C4216 C 0.27192 0.21442 0.95087
 H4217 H 0.32506 0.20097 0.91038
 H4218 H 0.33404 0.19196 0.89239
 H4219 H 0.29991 0.17440 0.88427
 H4220 H 0.29087 0.18360 0.90212
 H4221 H 0.29102 0.18289 0.92357
 H4222 H 0.28140 0.19251 0.94099
 H4223 H 0.30135 0.22556 0.93393
 H4224 H 0.31081 0.21606 0.91639
 H4225 H 0.30083 0.22424 0.95614
 H4226 H 0.29040 0.23498 0.97260
 H4227 H 0.25628 0.21958 0.96129
 H4228 H 0.26658 0.20890 0.94476
 C4229 C 0.80811 0.69351 0.90795
 C4230 C 0.80111 0.68600 0.90041
 C4231 C 0.80620 0.68074 0.89010
 C4232 C 0.81840 0.68291 0.88704
 C4233 C 0.82540 0.69045 0.89455
 C4234 C 0.82033 0.69567 0.90490
 C4235 C 0.80263 0.69916 0.91885
 C4236 C 0.80556 0.71117 0.92214
 C4237 C 0.80015 0.71660 0.93220
 C4238 C 0.79164 0.71016 0.93917
 C4239 C 0.78880 0.69813 0.93598
 C4240 C 0.79425 0.69268 0.92596
 C4241 C 0.78548 0.71613 0.94951
 C4242 C 0.77290 0.71473 0.95121
 C4243 C 0.76697 0.72080 0.96059
 C4244 C 0.77353 0.72832 0.96845
 C4245 C 0.78611 0.72955 0.96697
 C4246 C 0.79205 0.72353 0.95754
 H4247 H 0.79161 0.68435 0.90235
 H4248 H 0.80048 0.67513 0.88444
 H4249 H 0.83486 0.69222 0.89255
 H4250 H 0.82602 0.70128 0.91059
 H4251 H 0.81181 0.71649 0.91675
 H4252 H 0.80237 0.72595 0.93433
 H4253 H 0.78239 0.69290 0.94129
 H4254 H 0.79195 0.68335 0.92381
 H4255 H 0.76758 0.70919 0.94510
 H4256 H 0.75723 0.71979 0.96163
 H4257 H 0.79128 0.73533 0.97298
 H4258 H 0.80177 0.72466 0.95652
 C4259 C 0.80705 0.19354 0.40771
 C4260 C 0.81494 0.20021 0.40026
 C4261 C 0.82022 0.19482 0.39011
 C4262 C 0.81766 0.18265 0.38714
 C4263 C 0.80977 0.17598 0.39461
 C4264 C 0.80457 0.18135 0.40481
 C4265 C 0.80132 0.19935 0.41837
 C4266 C 0.80053 0.19312 0.42941
 C4267 C 0.79508 0.19861 0.43943
 C4268 C 0.79025 0.21044 0.43860
 C4269 C 0.79103 0.21663 0.42753
 C4270 C 0.79653 0.21117 0.41755
 C4271 C 0.78428 0.21627 0.44916
 C4272 C 0.78572 0.22881 0.45133
 C4273 C 0.77961 0.23444 0.46086
 C4274 C 0.77202 0.22764 0.46844
 C4275 C 0.77077 0.21509 0.46654
 C4276 C 0.77683 0.20945 0.45696
 H4277 H 0.81711 0.20959 0.40233
 H4278 H 0.82618 0.20026 0.38453
 H4279 H 0.80767 0.16657 0.39265
 H4280 H 0.79844 0.17603 0.41034
 H4281 H 0.80428 0.18405 0.43034
 H4282 H 0.79478 0.19366 0.44786
 H4283 H 0.78718 0.22564 0.42650
 H4284 H 0.79684 0.21611 0.40910
 H4285 H 0.79156 0.23428 0.44564
 H4286 H 0.78067 0.24414 0.46226
 H4287 H 0.76487 0.20975 0.47230
 H4288 H 0.77541 0.19982 0.45546
 C4289 C 0.69270 0.30639 0.40798
 C4290 C 0.68054 0.30409 0.40487
 C4291 C 0.67547 0.30925 0.39450
 C4292 C 0.68242 0.31688 0.38703
 C4293 C 0.69456 0.31924 0.39017
 C4294 C 0.69965 0.31403 0.40050
 C4295 C 0.69817 0.30075 0.41889
 C4296 C 0.70642 0.30729 0.42608
 C4297 C 0.71182 0.30186 0.43614
 C4298 C 0.70904 0.28979 0.43927
 C4299 C 0.70067 0.28330 0.43221
 C4300 C 0.69532 0.28871 0.42211
 C4301 C 0.71513 0.28385 0.44965
 C4302 C 0.70853 0.27639 0.45761
 C4303 C 0.71442 0.27037 0.46707
 C4304 C 0.72699 0.27166 0.46864
 C4305 C 0.73357 0.27924 0.46085
 C4306 C 0.72770 0.28531 0.45145
 H4307 H 0.67488 0.29840 0.41052
 H4308 H 0.66605 0.30736 0.39245
 H4309 H 0.70023 0.32495 0.38455
 H4310 H 0.70911 0.31582 0.40251
 H4311 H 0.70866 0.31665 0.42398
 H4312 H 0.71812 0.30712 0.44152
 H4313 H 0.69850 0.27393 0.43431
 H4314 H 0.68917 0.28334 0.41666
 H4315 H 0.69883 0.27520 0.45651
 H4316 H 0.70923 0.26454 0.47303
 H4317 H 0.74330 0.28028 0.46196
 H4318 H 0.73303 0.29089 0.44538
 C4319 C 0.69306 0.80620 0.90787
 C4320 C 0.68527 0.79948 0.90036
 C4321 C 0.67998 0.80486 0.89023
 C4322 C 0.68241 0.81708 0.88733
 C4323 C 0.69019 0.82380 0.89485
 C4324 C 0.69541 0.81843 0.90504
 C4325 C 0.69881 0.80040 0.91851
 C4326 C 0.69951 0.80658 0.92958
 C4327 C 0.70498 0.80109 0.93958
 C4328 C 0.70992 0.78932 0.93871
 C4329 C 0.70924 0.78317 0.92760
 C4330 C 0.70372 0.78863 0.91764
 C4331 C 0.71592 0.78349 0.94924
 C4332 C 0.71457 0.77093 0.95136
 C4333 C 0.72073 0.76531 0.96085
 C4334 C 0.72827 0.77213 0.96845
 C4335 C 0.72941 0.78470 0.96661
 C4336 C 0.72330 0.79034 0.95707
 H4337 H 0.68321 0.79006 0.90238
 H4338 H 0.67411 0.79938 0.88461
 H4339 H 0.69219 0.83324 0.89295
 H4340 H 0.70146 0.82380 0.91061
 H4341 H 0.69566 0.81561 0.93055
 H4342 H 0.70520 0.80601 0.94804
 H4343 H 0.71318 0.77420 0.92654
 H4344 H 0.70349 0.78373 0.90917
 H4345 H 0.70878 0.76544 0.94565
 H4346 H 0.71974 0.75559 0.96221
 H4347 H 0.73526 0.79006 0.97239
 H4348 H 0.72464 0.79998 0.95562
 C4349 C 0.19246 0.30637 0.90752
 C4350 C 0.18459 0.29968 0.90008
 C4351 C 0.17930 0.30506 0.88995
 C4352 C 0.18183 0.31723 0.88696
 C4353 C 0.18969 0.32393 0.89442
 C4354 C 0.19491 0.31857 0.90462
 C4355 C 0.19824 0.30057 0.91815
 C4356 C 0.19904 0.30678 0.92920
 C4357 C 0.20452 0.30127 0.93919
 C4358 C 0.20937 0.28946 0.93832
 C4359 C 0.20858 0.28328 0.92724
 C4360 C 0.20305 0.28876 0.91729
 C4361 C 0.21537 0.28361 0.94885
 C4362 C 0.21396 0.27107 0.95100
 C4363 C 0.22010 0.26544 0.96050
 C4364 C 0.22770 0.27224 0.96806
 C4365 C 0.22892 0.28479 0.96618
 C4366 C 0.22283 0.29044 0.95664
 H4367 H 0.18245 0.29029 0.90216
 H4368 H 0.17335 0.29960 0.88438
 H4369 H 0.19177 0.33334 0.89245
 H4370 H 0.20103 0.32391 0.91013
 H4371 H 0.19527 0.31583 0.93016
 H4372 H 0.20482 0.30622 0.94763
 H4373 H 0.21245 0.27428 0.92618
 H4374 H 0.20273 0.28383 0.90884
 H4375 H 0.20812 0.26560 0.94533
 H4376 H 0.21906 0.25573 0.96189
 H4377 H 0.23482 0.29013 0.97193
 H4378 H 0.22423 0.30007 0.95515
 C4379 C 0.19291 0.80617 0.40764
 C4380 C 0.18510 0.79945 0.40017
 C4381 C 0.17983 0.80480 0.39001
 C4382 C 0.18232 0.81698 0.38704
 C4383 C 0.19013 0.82371 0.39453
 C4384 C 0.19532 0.81838 0.40475
 C4385 C 0.19864 0.80041 0.41832
 C4386 C 0.19936 0.80666 0.42936
 C4387 C 0.20479 0.80120 0.43939
 C4388 C 0.20968 0.78939 0.43859
 C4389 C 0.20898 0.78318 0.42752
 C4390 C 0.20349 0.78862 0.41752
 C4391 C 0.21563 0.78359 0.44917
 C4392 C 0.21424 0.77105 0.45134
 C4393 C 0.22037 0.76545 0.46087
 C4394 C 0.22792 0.77229 0.46844
 C4395 C 0.22910 0.78484 0.46656
 C4396 C 0.22303 0.79045 0.45698
 H4397 H 0.18299 0.79005 0.40225
 H4398 H 0.17394 0.79931 0.38441
 H4399 H 0.19217 0.83314 0.39257
 H4400 H 0.20139 0.82375 0.41029
 H4401 H 0.19556 0.81571 0.43027
 H4402 H 0.20503 0.80616 0.44782
 H4403 H 0.21287 0.77419 0.42651
 H4404 H 0.20325 0.78366 0.40908
 H4405 H 0.20845 0.76555 0.44564
 H4406 H 0.21935 0.75574 0.46226
 H4407 H 0.23496 0.79021 0.47232
 H4408 H 0.22440 0.80009 0.45548
 C4409 C 0.69351 0.69305 0.59217
 C4410 C 0.69583 0.68081 0.59502
 C4411 C 0.69049 0.67546 0.60517
 C4412 C 0.68265 0.68220 0.61263
 C4413 C 0.68026 0.69442 0.60970
 C4414 C 0.68566 0.69979 0.59961
 C4415 C 0.69937 0.69884 0.58157
 C4416 C 0.70424 0.71061 0.58247
 C4417 C 0.70976 0.71611 0.57253
 C4418 C 0.71050 0.70999 0.56141
 C4419 C 0.70562 0.69819 0.56051
 C4420 C 0.70014 0.69267 0.57049
 C4421 C 0.71645 0.71588 0.55088
 C4422 C 0.72386 0.70909 0.54300
 C4423 C 0.72991 0.71479 0.53345
 C4424 C 0.72866 0.72735 0.53164
 C4425 C 0.72110 0.73411 0.53929
 C4426 C 0.71501 0.72843 0.54880
 H4427 H 0.70192 0.67542 0.58951
 H4428 H 0.69247 0.66601 0.60711
 H4429 H 0.67435 0.69993 0.61527
 H4430 H 0.68362 0.70921 0.59757
 H4431 H 0.70395 0.71551 0.59094
 H4432 H 0.71365 0.72509 0.57361
 H4433 H 0.70589 0.69329 0.55204
 H4434 H 0.69634 0.68364 0.56950
 H4435 H 0.72528 0.69945 0.54443
 H4436 H 0.73578 0.70947 0.52763
 H4437 H 0.72004 0.74382 0.53796
 H4438 H 0.70919 0.73388 0.55454
 C4439 C 0.69318 0.19291 0.09196
 C4440 C 0.69545 0.18065 0.09474
 C4441 C 0.69020 0.17529 0.10493
 C4442 C 0.68248 0.18206 0.11250
 C4443 C 0.68012 0.19430 0.10963
 C4444 C 0.68544 0.19967 0.09950
 C4445 C 0.69897 0.19872 0.08133
 C4446 C 0.70388 0.21048 0.08223
 C4447 C 0.70939 0.21597 0.07228
 C4448 C 0.71006 0.20987 0.06115
 C4449 C 0.70514 0.19809 0.06024
 C4450 C 0.69968 0.19257 0.07024
 C4451 C 0.71601 0.21575 0.05061
 C4452 C 0.72340 0.20896 0.04272
 C4453 C 0.72948 0.21466 0.03318
 C4454 C 0.72828 0.22723 0.03141
 C4455 C 0.72072 0.23400 0.03906
 C4456 C 0.71460 0.22831 0.04855
 H4457 H 0.70146 0.17525 0.08915
 H4458 H 0.69215 0.16583 0.10681
 H4459 H 0.67430 0.19982 0.11528
 H4460 H 0.68342 0.20911 0.09752
 H4461 H 0.70366 0.21535 0.09072
 H4462 H 0.71331 0.22493 0.07336
 H4463 H 0.70536 0.19321 0.05177
 H4464 H 0.69584 0.18355 0.06925
 H4465 H 0.72478 0.19931 0.04412
 H4466 H 0.73534 0.20934 0.02736
 H4467 H 0.71969 0.24371 0.03775
 H4468 H 0.70880 0.23376 0.05430
 C4469 C 0.19279 0.69356 0.09195
 C4470 C 0.19648 0.68198 0.09588
 C4471 C 0.19117 0.67665 0.10605
 C4472 C 0.18202 0.68276 0.11252
 C4473 C 0.17827 0.69431 0.10851
 C4474 C 0.18360 0.69964 0.09836
 C4475 C 0.19860 0.69934 0.08130
 C4476 C 0.20144 0.71181 0.08141
 C4477 C 0.20699 0.71727 0.07145
 C4478 C 0.20985 0.71039 0.06114
 C4479 C 0.20700 0.69792 0.06102
 C4480 C 0.20144 0.69246 0.07098
 C4481 C 0.21594 0.71621 0.05067
 C4482 C 0.22539 0.71019 0.04453
 C4483 C 0.23151 0.71593 0.03505
 C4484 C 0.22828 0.72775 0.03157
 C4485 C 0.21869 0.73370 0.03746
 C4486 C 0.21257 0.72798 0.04693
 H4487 H 0.20364 0.67711 0.09121
 H4488 H 0.19427 0.66772 0.10878
 H4489 H 0.17130 0.69935 0.11323
 H4490 H 0.18044 0.70851 0.09547
 H4491 H 0.19957 0.71731 0.08930
 H4492 H 0.20928 0.72684 0.07193
 H4493 H 0.20895 0.69242 0.05315
 H4494 H 0.19922 0.68287 0.07056
 H4495 H 0.22828 0.70119 0.04727
 H4496 H 0.23894 0.71127 0.03059
 H4497 H 0.21609 0.74282 0.03483
 H4498 H 0.20521 0.73277 0.05136
 C4499 C 0.19332 0.19284 0.59207
 C4500 C 0.19945 0.18381 0.59867
 C4501 C 0.19408 0.17856 0.60884
 C4502 C 0.18246 0.18223 0.61267
 C4503 C 0.17631 0.19122 0.60602
 C4504 C 0.18167 0.19645 0.59583
 C4505 C 0.19915 0.19856 0.58140
 C4506 C 0.19238 0.20107 0.57094
 C4507 C 0.19790 0.20651 0.56094
 C4508 C 0.21030 0.20956 0.56118
 C4509 C 0.21705 0.20705 0.57164
 C4510 C 0.21155 0.20161 0.58163
 C4511 C 0.21618 0.21552 0.55066
 C4512 C 0.22805 0.21227 0.54719
 C4513 C 0.23383 0.21830 0.53770
 C4514 C 0.22784 0.22766 0.53151
 C4515 C 0.21591 0.23076 0.53471
 C4516 C 0.21012 0.22473 0.54421
 H4517 H 0.20838 0.18073 0.59592
 H4518 H 0.19914 0.17172 0.61372
 H4519 H 0.16733 0.19424 0.60863
 H4520 H 0.17677 0.20347 0.59100
 H4521 H 0.18285 0.19868 0.57044
 H4522 H 0.19249 0.20819 0.55295
 H4523 H 0.22656 0.20950 0.57220
 H4524 H 0.21695 0.19999 0.58963
 H4525 H 0.23288 0.20509 0.55185
 H4526 H 0.24304 0.21580 0.53527
 H4527 H 0.21121 0.23800 0.53001
 H4528 H 0.20103 0.22752 0.54674
   
