data_POSCAR
  _audit_creation_date              2014-09-24
  _audit_creation_method            'ToBaCCo'
  _symmetry_space_group_name_H-M    'P1'
  _symmetry_Int_Tables_number       1
  _symmetry_cell_setting            triclinic
  loop_
  _symmetry_equiv_pos_as_xyz
 x,y,z
_cell_length_a 114.3829
_cell_length_b 114.4245
_cell_length_c 114.9192
_cell_angle_alpha 89.945300
_cell_angle_beta 89.973300
_cell_angle_gamma 89.917000
loop_
  _atom_site_label
  _atom_site_type_symbol
  _atom_site_fract_x
  _atom_site_fract_y
  _atom_site_fract_z
N1 N 0.35805 0.32588 0.33443
 N2 N 0.35778 0.33396 0.32629
 C3 C 0.36688 0.33233 0.31901
 C4 C 0.37309 0.32275 0.32285
 C5 C 0.36730 0.31883 0.33261
 H6 H 0.36885 0.33767 0.31149
 H7 H 0.36965 0.31141 0.33797
 Cu8 Cu 0.34559 0.34584 0.32600
 Cu9 Cu 0.34645 0.32513 0.34680
 Cu10 Cu 0.32493 0.34649 0.34686
 N11 N 0.33362 0.35794 0.32635
 N12 N 0.32556 0.35814 0.33452
 C13 C 0.31845 0.36736 0.33274
 C14 C 0.32231 0.37319 0.32298
 C15 C 0.33192 0.36705 0.31910
 H16 H 0.31104 0.36965 0.33813
 H17 H 0.33723 0.36909 0.31159
 N18 N 0.32577 0.33398 0.35862
 N19 N 0.33397 0.32583 0.35859
 C20 C 0.33226 0.31864 0.36773
 C21 C 0.32256 0.32248 0.37371
 C22 C 0.31862 0.33217 0.36778
 H23 H 0.33766 0.31119 0.36991
 H24 H 0.31114 0.33751 0.37001
 H25 H 0.33307 0.33323 0.33775
 H26 H 0.34263 0.34282 0.34680
 N27 N 0.35889 0.82643 -0.16561
 N28 N 0.35888 0.83473 -0.17354
 C29 C 0.36798 0.83306 -0.18082
 C30 C 0.37391 0.82322 -0.17718
 C31 C 0.36798 0.81919 -0.16755
 H32 H 0.37012 0.83854 -0.18819
 H33 H 0.37010 0.81157 -0.16237
 Cu34 Cu 0.34700 0.84692 -0.17353
 Cu35 Cu 0.34717 0.82562 -0.15334
 Cu36 Cu 0.32567 0.84704 -0.15340
 N37 N 0.33479 0.85877 -0.17357
 N38 N 0.32646 0.85875 -0.16567
 C39 C 0.31920 0.86782 -0.16761
 C40 C 0.32325 0.87377 -0.17722
 C41 C 0.33311 0.86788 -0.18084
 H42 H 0.31158 0.86992 -0.16244
 H43 H 0.33861 0.87006 -0.18819
 N44 N 0.32637 0.83446 -0.14169
 N45 N 0.33456 0.82631 -0.14166
 C46 C 0.33275 0.81911 -0.13255
 C47 C 0.32299 0.82295 -0.12665
 C48 C 0.31913 0.83266 -0.13261
 H49 H 0.33813 0.81166 -0.13031
 H50 H 0.31165 0.83802 -0.13043
 H51 H 0.33412 0.83398 -0.16260
 H52 H 0.34335 0.84326 -0.15293
 N53 N 0.85810 0.32653 -0.16550
 N54 N 0.85802 0.33478 -0.17348
 C55 C 0.86714 0.33315 -0.18073
 C56 C 0.87318 0.32340 -0.17704
 C57 C 0.86726 0.31937 -0.16739
 H58 H 0.86925 0.33860 -0.18813
 H59 H 0.86946 0.31182 -0.16216
 Cu60 Cu 0.84602 0.34685 -0.17357
 Cu61 Cu 0.84638 0.32570 -0.15324
 Cu62 Cu 0.82490 0.34713 -0.15321
 N63 N 0.83392 0.35882 -0.17346
 N64 N 0.82567 0.35887 -0.16546
 C65 C 0.81849 0.36802 -0.16733
 C66 C 0.82250 0.37394 -0.17697
 C67 C 0.83226 0.36795 -0.18070
 H68 H 0.81093 0.37019 -0.16208
 H69 H 0.83770 0.37007 -0.18810
 N70 N 0.82559 0.33452 -0.14155
 N71 N 0.83378 0.32635 -0.14156
 C72 C 0.83197 0.31911 -0.13248
 C73 C 0.82223 0.32294 -0.12656
 C74 C 0.81837 0.33268 -0.13246
 H75 H 0.83735 0.31165 -0.13028
 H76 H 0.81090 0.33803 -0.13025
 H77 H 0.83322 0.33401 -0.16239
 H78 H 0.84257 0.34336 -0.15290
 N79 N 0.85827 0.82632 0.33445
 N80 N 0.85802 0.83441 0.32632
 C81 C 0.86711 0.83276 0.31903
 C82 C 0.87329 0.82315 0.32285
 C83 C 0.86750 0.81923 0.33261
 H84 H 0.86910 0.83811 0.31152
 H85 H 0.86983 0.81180 0.33796
 Cu86 Cu 0.84589 0.84635 0.32606
 Cu87 Cu 0.84667 0.82559 0.34682
 Cu88 Cu 0.82525 0.84704 0.34696
 N89 N 0.83399 0.85852 0.32648
 N90 N 0.82593 0.85873 0.33466
 C91 C 0.81885 0.86798 0.33292
 C92 C 0.82273 0.87381 0.32317
 C93 C 0.83231 0.86765 0.31925
 H94 H 0.81145 0.87028 0.33832
 H95 H 0.83762 0.86967 0.31172
 N96 N 0.82603 0.83448 0.35867
 N97 N 0.83420 0.82631 0.35862
 C98 C 0.83245 0.81909 0.36772
 C99 C 0.82277 0.82294 0.37372
 C100 C 0.81887 0.83267 0.36782
 H101 H 0.83783 0.81161 0.36988
 H102 H 0.81141 0.83803 0.37006
 H103 H 0.83333 0.83376 0.33779
 H104 H 0.84294 0.84328 0.34686
 N105 N 0.64182 0.67397 0.33470
 N106 N 0.64210 0.66591 0.32655
 C107 C 0.63302 0.66758 0.31926
 C108 C 0.62681 0.67715 0.32309
 C109 C 0.63257 0.68104 0.33287
 H110 H 0.63106 0.66226 0.31173
 H111 H 0.63022 0.68844 0.33823
 Cu112 Cu 0.65428 0.65402 0.32626
 Cu113 Cu 0.65342 0.67470 0.34706
 Cu114 Cu 0.67491 0.65331 0.34712
 N115 N 0.66623 0.64190 0.32662
 N116 N 0.67428 0.64168 0.33480
 C117 C 0.68139 0.63247 0.33302
 C118 C 0.67756 0.62666 0.32326
 C119 C 0.66795 0.63281 0.31937
 H120 H 0.68880 0.63018 0.33841
 H121 H 0.66266 0.63080 0.31184
 N122 N 0.67410 0.66582 0.35887
 N123 N 0.66590 0.67397 0.35885
 C124 C 0.66764 0.68116 0.36796
 C125 C 0.67736 0.67731 0.37392
 C126 C 0.68127 0.66761 0.36799
 H127 H 0.66226 0.68861 0.37015
 H128 H 0.68875 0.66227 0.37020
 H129 H 0.66678 0.66662 0.33801
 H130 H 0.65721 0.65702 0.34706
 N131 N 0.64190 0.17388 -0.16567
 N132 N 0.64189 0.16555 -0.17356
 C133 C 0.63282 0.16725 -0.18085
 C134 C 0.62692 0.17712 -0.17727
 C135 C 0.63285 0.18115 -0.16765
 H136 H 0.63064 0.16175 -0.18817
 H137 H 0.63072 0.18875 -0.16249
 Cu138 Cu 0.65370 0.15330 -0.17345
 Cu139 Cu 0.65353 0.17462 -0.15333
 Cu140 Cu 0.67489 0.15307 -0.15317
 N141 N 0.66585 0.14138 -0.17339
 N142 N 0.67413 0.14136 -0.16544
 C143 C 0.68136 0.13226 -0.16734
 C144 C 0.67735 0.12633 -0.17697
 C145 C 0.66754 0.13229 -0.18065
 H146 H 0.68894 0.13011 -0.16213
 H147 H 0.66208 0.13015 -0.18803
 N148 N 0.67417 0.16566 -0.14150
 N149 N 0.66603 0.17387 -0.14157
 C150 C 0.66781 0.18108 -0.13248
 C151 C 0.67747 0.17719 -0.12649
 C152 C 0.68133 0.16744 -0.13236
 H153 H 0.66246 0.18858 -0.13033
 H154 H 0.68876 0.16205 -0.13010
 H155 H 0.66660 0.16616 -0.16247
 H156 H 0.65723 0.15695 -0.15283
 N157 N 0.14179 0.67421 -0.16547
 N158 N 0.14173 0.66589 -0.17337
 C159 C 0.13263 0.66762 -0.18062
 C160 C 0.12676 0.67750 -0.17700
 C161 C 0.13275 0.68150 -0.16741
 H162 H 0.13041 0.66215 -0.18795
 H163 H 0.13068 0.68912 -0.16224
 Cu164 Cu 0.15352 0.65362 -0.17334
 Cu165 Cu 0.15351 0.67492 -0.15320
 Cu166 Cu 0.17481 0.65331 -0.15319
 N167 N 0.16563 0.64166 -0.17336
 N168 N 0.17394 0.64160 -0.16544
 C169 C 0.18113 0.63249 -0.16739
 C170 C 0.17708 0.62658 -0.17701
 C171 C 0.16727 0.63257 -0.18063
 H172 H 0.18874 0.63033 -0.16223
 H173 H 0.16180 0.63045 -0.18800
 N174 N 0.17421 0.66589 -0.14151
 N175 N 0.16610 0.67413 -0.14152
 C176 C 0.16797 0.68133 -0.13244
 C177 C 0.17767 0.67739 -0.12652
 C178 C 0.18144 0.66763 -0.13243
 H179 H 0.16265 0.68883 -0.13023
 H180 H 0.18885 0.66219 -0.13021
 H181 H 0.16651 0.66645 -0.16242
 H182 H 0.15717 0.65726 -0.15275
 N183 N 0.14218 0.17454 0.33396
 N184 N 0.14248 0.16652 0.32577
 C185 C 0.13336 0.16817 0.31852
 C186 C 0.12712 0.17770 0.32242
 C187 C 0.13289 0.18157 0.33220
 H188 H 0.13136 0.16283 0.31102
 H189 H 0.13048 0.18889 0.33764
 Cu190 Cu 0.15463 0.15461 0.32543
 Cu191 Cu 0.15372 0.17516 0.34638
 Cu192 Cu 0.17508 0.15367 0.34649
 N193 N 0.16650 0.14241 0.32587
 N194 N 0.17446 0.14210 0.33412
 C195 C 0.18150 0.13281 0.33241
 C196 C 0.17770 0.12705 0.32260
 C197 C 0.16819 0.13330 0.31863
 H198 H 0.18882 0.13042 0.33787
 H199 H 0.16294 0.13134 0.31106
 N200 N 0.17427 0.16613 0.35827
 N201 N 0.16613 0.17433 0.35822
 C202 C 0.16785 0.18147 0.36738
 C203 C 0.17748 0.17752 0.37340
 C204 C 0.18137 0.16783 0.36746
 H205 H 0.16249 0.18895 0.36956
 H206 H 0.18879 0.16242 0.36972
 H207 H 0.16710 0.16707 0.33736
 H208 H 0.15739 0.15746 0.34627
 N209 N 0.64134 0.32622 0.66564
 N210 N 0.64150 0.33439 0.67369
 C211 C 0.63247 0.33269 0.68103
 C212 C 0.62641 0.32298 0.67732
 C213 C 0.63222 0.31905 0.66758
 H214 H 0.63042 0.33808 0.68848
 H215 H 0.62997 0.31156 0.66230
 Cu216 Cu 0.65348 0.34645 0.67372
 Cu217 Cu 0.65291 0.32551 0.65323
 Cu218 Cu 0.67433 0.34693 0.65309
 N219 N 0.66556 0.35841 0.67356
 N220 N 0.67369 0.35855 0.66545
 C221 C 0.68090 0.36765 0.66733
 C222 C 0.67703 0.37346 0.67710
 C223 C 0.66732 0.36743 0.68087
 H224 H 0.68838 0.36986 0.66202
 H225 H 0.66200 0.36947 0.68838
 N226 N 0.67351 0.33444 0.64133
 N227 N 0.66535 0.32627 0.64139
 C228 C 0.66712 0.31906 0.63229
 C229 C 0.67680 0.32291 0.62630
 C230 C 0.68067 0.33264 0.63219
 H231 H 0.66180 0.31155 0.63017
 H232 H 0.68815 0.33796 0.62997
 H233 H 0.66617 0.33372 0.66228
 H234 H 0.65667 0.34317 0.65299
 N235 N 0.64152 0.82621 1.16559
 N236 N 0.64167 0.83439 1.17362
 C237 C 0.63262 0.83270 1.18095
 C238 C 0.62657 0.82299 1.17725
 C239 C 0.63239 0.81905 1.16752
 H240 H 0.63057 0.83809 1.18840
 H241 H 0.63015 0.81155 1.16225
 Cu242 Cu 0.65366 0.84643 1.17366
 Cu243 Cu 0.65312 0.82547 1.15320
 Cu244 Cu 0.67459 0.84684 1.15312
 N245 N 0.66574 0.85838 1.17352
 N246 N 0.67392 0.85847 1.16546
 C247 C 0.68113 0.86757 1.16734
 C248 C 0.67723 0.87343 1.17706
 C249 C 0.66749 0.86743 1.18081
 H250 H 0.68864 0.86976 1.16205
 H251 H 0.66212 0.86951 1.18828
 N252 N 0.67379 0.83433 1.14137
 N253 N 0.66560 0.82619 1.14139
 C254 C 0.66740 0.81895 1.13232
 C255 C 0.67714 0.82276 1.12638
 C256 C 0.68101 0.83248 1.13228
 H257 H 0.66208 0.81146 1.13019
 H258 H 0.68853 0.83776 1.13011
 H259 H 0.66637 0.83367 1.16228
 H260 H 0.65693 0.84312 1.15294
 N261 N 0.14149 0.32618 1.16556
 N262 N 0.14179 0.33420 1.17375
 C263 C 0.13278 0.33247 1.18111
 C264 C 0.12659 0.32290 1.17727
 C265 C 0.13230 0.31909 1.16742
 H266 H 0.13084 0.33775 1.18867
 H267 H 0.12993 0.31172 1.16203
 Cu268 Cu 0.15390 0.34613 1.17398
 Cu269 Cu 0.15298 0.32556 1.15308
 Cu270 Cu 0.17433 0.34702 1.15290
 N271 N 0.16577 0.35829 1.17356
 N272 N 0.17374 0.35859 1.16529
 C273 C 0.18082 0.36781 1.16705
 C274 C 0.17706 0.37354 1.17690
 C275 C 0.16753 0.36734 1.18085
 H276 H 0.18817 0.37015 1.16160
 H277 H 0.16231 0.36928 1.18846
 N278 N 0.17349 0.33457 1.14111
 N279 N 0.16536 0.32638 1.14117
 C280 C 0.16713 0.31918 1.13207
 C281 C 0.17680 0.32306 1.12607
 C282 C 0.18065 0.33278 1.13196
 H283 H 0.16184 0.31165 1.12997
 H284 H 0.18814 0.33810 1.12976
 H285 H 0.16639 0.33365 1.16204
 H286 H 0.15666 0.34325 1.15314
 N287 N 0.14136 0.82644 0.66525
 N288 N 0.14172 0.83444 0.67346
 C289 C 0.13270 0.83277 0.68082
 C290 C 0.12643 0.82325 0.67697
 C291 C 0.13211 0.81941 0.66711
 H292 H 0.13082 0.83803 0.68841
 H293 H 0.12971 0.81205 0.66172
 Cu294 Cu 0.15394 0.84625 0.67375
 Cu295 Cu 0.15289 0.82571 0.65282
 Cu296 Cu 0.17442 0.84699 0.65270
 N297 N 0.16590 0.85833 0.67333
 N298 N 0.17387 0.85857 0.66508
 C299 C 0.18101 0.86775 0.66684
 C300 C 0.17727 0.87351 0.67668
 C301 C 0.16769 0.86737 0.68062
 H302 H 0.18837 0.87005 0.66140
 H303 H 0.16248 0.86934 0.68822
 N304 N 0.17352 0.83453 0.64092
 N305 N 0.16531 0.82642 0.64096
 C306 C 0.16705 0.81920 0.63186
 C307 C 0.17676 0.82300 0.62588
 C308 C 0.18069 0.83269 0.63179
 H309 H 0.16168 0.81172 0.62974
 H310 H 0.18821 0.83796 0.62960
 H311 H 0.16633 0.83367 0.66181
 H312 H 0.15670 0.84337 0.65291
 N313 N 0.35864 0.67368 0.66543
 N314 N 0.35833 0.66568 0.67365
 C315 C 0.36734 0.66742 0.68099
 C316 C 0.37353 0.67699 0.67711
 C317 C 0.36783 0.68079 0.66726
 H318 H 0.36927 0.66217 0.68859
 H319 H 0.37017 0.68816 0.66186
 Cu320 Cu 0.34621 0.65376 0.67396
 Cu321 Cu 0.34711 0.67433 0.65299
 Cu322 Cu 0.32575 0.65288 0.65293
 N323 N 0.33434 0.64160 0.67358
 N324 N 0.32637 0.64130 0.66533
 C325 C 0.31930 0.63207 0.66712
 C326 C 0.32308 0.62634 0.67697
 C327 C 0.33260 0.63255 0.68090
 H328 H 0.31195 0.62971 0.66168
 H329 H 0.33783 0.63062 0.68850
 N330 N 0.32656 0.66533 0.64112
 N331 N 0.33470 0.67351 0.64114
 C332 C 0.33291 0.68072 0.63204
 C333 C 0.32322 0.67685 0.62607
 C334 C 0.31938 0.66713 0.63200
 H335 H 0.33821 0.68824 0.62990
 H336 H 0.31189 0.66180 0.62982
 H337 H 0.33375 0.66627 0.66202
 H338 H 0.34346 0.65665 0.65312
 N339 N 0.35890 0.17348 1.16510
 N340 N 0.35878 0.16532 1.17317
 C341 C 0.36784 0.16704 1.18047
 C342 C 0.37386 0.17676 1.17671
 C343 C 0.36802 0.18066 1.16697
 H344 H 0.36991 0.16169 1.18795
 H345 H 0.37023 0.18816 1.16168
 Cu346 Cu 0.34680 0.15326 1.17329
 Cu347 Cu 0.34725 0.17420 1.15276
 Cu348 Cu 0.32582 0.15279 1.15284
 N349 N 0.33474 0.14129 1.17324
 N350 N 0.32655 0.14117 1.16520
 C351 C 0.31936 0.13206 1.16713
 C352 C 0.32329 0.12623 1.17686
 C353 C 0.33302 0.13225 1.18057
 H354 H 0.31185 0.12986 1.16187
 H355 H 0.33839 0.13018 1.18803
 N356 N 0.32655 0.16529 1.14105
 N357 N 0.33473 0.17344 1.14102
 C358 C 0.33289 0.18066 1.13192
 C359 C 0.32314 0.17683 1.12604
 C360 C 0.31931 0.16711 1.13199
 H361 H 0.33820 0.18815 1.12974
 H362 H 0.31179 0.16180 1.12986
 H363 H 0.33406 0.16600 1.16192
 H364 H 0.34348 0.15655 1.15258
 N365 N 0.85837 0.67395 1.16557
 N366 N 0.85812 0.66588 1.17374
 C367 C 0.86718 0.66756 1.18104
 C368 C 0.87334 0.67716 1.17719
 C369 C 0.86758 0.68104 1.16740
 H370 H 0.86917 0.66225 1.18857
 H371 H 0.86990 0.68845 1.16203
 Cu372 Cu 0.84602 0.65396 1.17402
 Cu373 Cu 0.84679 0.67466 1.15320
 Cu374 Cu 0.82542 0.65321 1.15312
 N375 N 0.83415 0.64180 1.17364
 N376 N 0.82612 0.64156 1.16545
 C377 C 0.81905 0.63233 1.16723
 C378 C 0.82290 0.62653 1.17701
 C379 C 0.83246 0.63270 1.18091
 H380 H 0.81165 0.63003 1.16185
 H381 H 0.83774 0.63071 1.18846
 N382 N 0.82617 0.66574 1.14138
 N383 N 0.83432 0.67391 1.14141
 C384 C 0.83254 0.68112 1.13229
 C385 C 0.82286 0.67726 1.12633
 C386 C 0.81899 0.66754 1.13225
 H387 H 0.83789 0.68859 1.13012
 H388 H 0.81154 0.66218 1.13003
 H389 H 0.83345 0.66652 1.16223
 H390 H 0.84309 0.65696 1.15321
 N391 N 0.85867 0.17363 0.66525
 N392 N 0.85852 0.16546 0.67331
 C393 C 0.86755 0.16719 0.68065
 C394 C 0.87358 0.17691 0.67692
 C395 C 0.86777 0.18082 0.66717
 H396 H 0.86959 0.16181 0.68812
 H397 H 0.86999 0.18833 0.66189
 Cu398 Cu 0.84656 0.15339 0.67338
 Cu399 Cu 0.84708 0.17434 0.65286
 Cu400 Cu 0.82568 0.15288 0.65281
 N401 N 0.83451 0.14140 0.67326
 N402 N 0.82637 0.14126 0.66518
 C403 C 0.81919 0.13213 0.66708
 C404 C 0.82309 0.12630 0.67683
 C405 C 0.83278 0.13235 0.68058
 H406 H 0.81170 0.12991 0.66178
 H407 H 0.83814 0.13031 0.68807
 N408 N 0.82646 0.16539 0.64104
 N409 N 0.83461 0.17356 0.64105
 C410 C 0.83282 0.18078 0.63195
 C411 C 0.82312 0.17692 0.62600
 C412 C 0.81927 0.16720 0.63192
 H413 H 0.83813 0.18828 0.62979
 H414 H 0.81179 0.16187 0.62974
 H415 H 0.83385 0.16612 0.66195
 H416 H 0.84335 0.15668 0.65265
 N417 N 0.32621 0.35863 0.66481
 N418 N 0.33448 0.35867 0.67276
 C419 C 0.33272 0.36775 0.68001
 C420 C 0.32286 0.37363 0.67635
 C421 C 0.31891 0.36767 0.66672
 H422 H 0.33815 0.36994 0.68739
 H423 H 0.31130 0.36973 0.66152
 Cu424 Cu 0.34672 0.34684 0.67282
 Cu425 Cu 0.32552 0.34689 0.65257
 Cu426 Cu 0.34707 0.32553 0.65270
 N427 N 0.35863 0.33468 0.67294
 N428 N 0.35872 0.32638 0.66503
 C429 C 0.36780 0.31916 0.66705
 C430 C 0.37366 0.32320 0.67671
 C431 C 0.36767 0.33302 0.68028
 H432 H 0.36998 0.31156 0.66190
 H433 H 0.36976 0.33850 0.68765
 N434 N 0.33454 0.32617 0.64095
 N435 N 0.32632 0.33430 0.64092
 C436 C 0.31910 0.33241 0.63185
 C437 C 0.32300 0.32269 0.62597
 C438 C 0.33276 0.31890 0.63190
 H439 H 0.31157 0.33770 0.62967
 H440 H 0.33813 0.31143 0.62976
 H441 H 0.33394 0.33387 0.66185
 H442 H 0.34321 0.34318 0.65221
 N443 N 0.32637 0.85880 0.16489
 N444 N 0.33469 0.85880 0.17280
 C445 C 0.33300 0.86789 0.18006
 C446 C 0.32315 0.87382 0.17644
 C447 C 0.31913 0.86787 0.16683
 H448 H 0.33847 0.87005 0.18742
 H449 H 0.31151 0.86998 0.16166
 Cu450 Cu 0.34687 0.84692 0.17279
 Cu451 Cu 0.32556 0.84705 0.15267
 Cu452 Cu 0.34698 0.82557 0.15272
 N453 N 0.35875 0.83473 0.17283
 N454 N 0.35873 0.82639 0.16495
 C455 C 0.36780 0.81915 0.16693
 C456 C 0.37375 0.82320 0.17653
 C457 C 0.36784 0.83306 0.18010
 H458 H 0.36990 0.81151 0.16180
 H459 H 0.37001 0.83855 0.18744
 N460 N 0.33437 0.82624 0.14105
 N461 N 0.32622 0.83443 0.14103
 C462 C 0.31896 0.83261 0.13198
 C463 C 0.32277 0.82284 0.12610
 C464 C 0.33251 0.81898 0.13201
 H465 H 0.31150 0.83798 0.12978
 H466 H 0.33783 0.81148 0.12984
 H467 H 0.33395 0.83400 0.16192
 H468 H 0.34323 0.84323 0.15221
 N469 N 0.82608 0.35850 0.16496
 N470 N 0.83443 0.35855 0.17283
 C471 C 0.83276 0.36767 0.18007
 C472 C 0.82288 0.37356 0.17647
 C473 C 0.81882 0.36757 0.16690
 H474 H 0.83826 0.36986 0.18739
 H475 H 0.81118 0.36964 0.16177
 Cu476 Cu 0.84663 0.34669 0.17283
 Cu477 Cu 0.82525 0.34671 0.15278
 Cu478 Cu 0.84672 0.32527 0.15283
 N479 N 0.85852 0.33451 0.17289
 N480 N 0.85849 0.32615 0.16504
 C481 C 0.86757 0.31892 0.16701
 C482 C 0.87355 0.32301 0.17658
 C483 C 0.86763 0.33288 0.18014
 H484 H 0.86967 0.31127 0.16190
 H485 H 0.86981 0.33840 0.18745
 N486 N 0.83408 0.32589 0.14119
 N487 N 0.82591 0.33406 0.14117
 C488 C 0.81866 0.33220 0.13211
 C489 C 0.82251 0.32244 0.12624
 C490 C 0.83226 0.31863 0.13216
 H491 H 0.81120 0.33756 0.12989
 H492 H 0.83763 0.31116 0.12997
 H493 H 0.83369 0.33372 0.16206
 H494 H 0.84291 0.34292 0.15228
 N495 N 0.82626 0.85906 0.66493
 N496 N 0.83443 0.85898 0.67298
 C497 C 0.83264 0.86803 0.68027
 C498 C 0.82288 0.87401 0.67653
 C499 C 0.81901 0.86815 0.66681
 H500 H 0.83799 0.87013 0.68774
 H501 H 0.81148 0.87031 0.66153
 Cu502 Cu 0.84657 0.84706 0.67312
 Cu503 Cu 0.82564 0.84741 0.65261
 Cu504 Cu 0.84722 0.82607 0.65268
 N505 N 0.85862 0.83504 0.67308
 N506 N 0.85882 0.82686 0.66505
 C507 C 0.86798 0.81971 0.66699
 C508 C 0.87378 0.82367 0.67671
 C509 C 0.86768 0.83338 0.68041
 H510 H 0.87025 0.81220 0.66174
 H511 H 0.86969 0.83877 0.68786
 N512 N 0.83472 0.82676 0.64090
 N513 N 0.82650 0.83489 0.64088
 C514 C 0.81930 0.83303 0.63179
 C515 C 0.82322 0.82331 0.62589
 C516 C 0.83296 0.81952 0.63183
 H517 H 0.81177 0.83831 0.62961
 H518 H 0.83833 0.81204 0.62969
 H519 H 0.83395 0.83424 0.66179
 H520 H 0.84335 0.84371 0.65243
 N521 N 0.67420 0.64196 0.66585
 N522 N 0.66624 0.64227 0.67411
 C523 C 0.66795 0.63319 0.68139
 C524 C 0.67747 0.62695 0.67744
 C525 C 0.68126 0.63269 0.66760
 H526 H 0.66267 0.63121 0.68895
 H527 H 0.68856 0.63028 0.66212
 Cu528 Cu 0.65431 0.65442 0.67447
 Cu529 Cu 0.67477 0.65348 0.65340
 Cu530 Cu 0.65328 0.67484 0.65337
 N531 N 0.64212 0.66629 0.67410
 N532 N 0.64176 0.67424 0.66582
 C533 C 0.63250 0.68129 0.66758
 C534 C 0.62680 0.67752 0.67746
 C535 C 0.63307 0.66802 0.68141
 H536 H 0.63008 0.68860 0.66211
 H537 H 0.63116 0.66280 0.68902
 N538 N 0.66568 0.67401 0.64151
 N539 N 0.67389 0.66588 0.64153
 C540 C 0.68106 0.66765 0.63239
 C541 C 0.67713 0.67732 0.62641
 C542 C 0.66741 0.68118 0.63236
 H543 H 0.68859 0.66235 0.63024
 H544 H 0.66205 0.68866 0.63019
 H545 H 0.66671 0.66688 0.66243
 H546 H 0.65706 0.65717 0.65361
 N547 N 0.67443 0.14169 0.16567
 N548 N 0.66610 0.14162 0.17357
 C549 C 0.66781 0.13251 0.18081
 C550 C 0.67769 0.12664 0.17719
 C551 C 0.68170 0.13264 0.16760
 H552 H 0.66230 0.13026 0.18813
 H553 H 0.68930 0.13054 0.16240
 Cu554 Cu 0.65382 0.15341 0.17352
 Cu555 Cu 0.67513 0.15338 0.15337
 Cu556 Cu 0.65349 0.17465 0.15329
 N557 N 0.64184 0.16549 0.17350
 N558 N 0.64177 0.17378 0.16557
 C559 C 0.63263 0.18095 0.16751
 C560 C 0.62671 0.17689 0.17714
 C561 C 0.63273 0.16711 0.18077
 H562 H 0.63045 0.18854 0.16232
 H563 H 0.63062 0.16163 0.18815
 N564 N 0.66609 0.17403 0.14160
 N565 N 0.67434 0.16593 0.14164
 C566 C 0.68155 0.16777 0.13255
 C567 C 0.67762 0.17744 0.12658
 C568 C 0.66785 0.18124 0.13248
 H569 H 0.68908 0.16247 0.13039
 H570 H 0.66242 0.18865 0.13025
 H571 H 0.66662 0.16638 0.16252
 H572 H 0.65744 0.15701 0.15289
 N573 N 0.17406 0.64187 0.16528
 N574 N 0.16602 0.64215 0.17346
 C575 C 0.16768 0.63306 0.18074
 C576 C 0.17724 0.62684 0.17685
 C577 C 0.18111 0.63261 0.16706
 H578 H 0.16238 0.63110 0.18829
 H579 H 0.18850 0.63026 0.16167
 Cu580 Cu 0.15416 0.65436 0.17382
 Cu581 Cu 0.17479 0.65349 0.15293
 Cu582 Cu 0.15345 0.67502 0.15295
 N583 N 0.14206 0.66633 0.17349
 N584 N 0.14184 0.67439 0.16532
 C585 C 0.13263 0.68150 0.16710
 C586 C 0.12682 0.67766 0.17689
 C587 C 0.13297 0.66806 0.18077
 H588 H 0.13032 0.68890 0.16170
 H589 H 0.13096 0.66275 0.18830
 N590 N 0.16593 0.67420 0.14116
 N591 N 0.17407 0.66599 0.14116
 C592 C 0.18126 0.66775 0.13203
 C593 C 0.17743 0.67748 0.12610
 C594 C 0.16774 0.68139 0.13204
 H595 H 0.18871 0.66236 0.12983
 H596 H 0.16241 0.68889 0.12986
 H597 H 0.16678 0.66684 0.16204
 H598 H 0.15714 0.65730 0.15302
 N599 N 0.17357 0.14119 0.66543
 N600 N 0.16535 0.14124 0.67344
 C601 C 0.16713 0.13220 0.68076
 C602 C 0.17695 0.12626 0.67708
 C603 C 0.18085 0.13214 0.66737
 H604 H 0.16173 0.13007 0.68819
 H605 H 0.18839 0.12998 0.66211
 Cu606 Cu 0.15311 0.15307 0.67344
 Cu607 Cu 0.17420 0.15279 0.65305
 Cu608 Cu 0.15274 0.17423 0.65311
 N609 N 0.14125 0.16528 0.67349
 N610 N 0.14117 0.17353 0.66551
 C611 C 0.13211 0.18078 0.66748
 C612 C 0.12625 0.17683 0.67719
 C613 C 0.13222 0.16701 0.68083
 H614 H 0.12993 0.18834 0.66226
 H615 H 0.13011 0.16158 0.68824
 N616 N 0.16520 0.17345 0.64128
 N617 N 0.17337 0.16527 0.64125
 C618 C 0.18054 0.16707 0.63212
 C619 C 0.17666 0.17679 0.62620
 C620 C 0.16696 0.18066 0.63217
 H621 H 0.18804 0.16174 0.62993
 H622 H 0.16163 0.18816 0.63002
 H623 H 0.16588 0.16592 0.66228
 H624 H 0.15651 0.15658 0.65278
 N625 N 0.32624 0.64122 0.33454
 N626 N 0.33426 0.64153 0.32634
 C627 C 0.33254 0.63251 0.31900
 C628 C 0.32298 0.62632 0.32286
 C629 C 0.31915 0.63202 0.33270
 H630 H 0.33782 0.63059 0.31142
 H631 H 0.31177 0.62966 0.33809
 Cu632 Cu 0.34617 0.65365 0.32605
 Cu633 Cu 0.32558 0.65274 0.34697
 Cu634 Cu 0.34702 0.67411 0.34707
 N635 N 0.35832 0.66553 0.32643
 N636 N 0.35861 0.67350 0.33468
 C637 C 0.36783 0.68058 0.33291
 C638 C 0.37358 0.67680 0.32307
 C639 C 0.36738 0.66727 0.31914
 H640 H 0.37018 0.68792 0.33834
 H641 H 0.36934 0.66205 0.31154
 N642 N 0.33455 0.67328 0.35887
 N643 N 0.32637 0.66513 0.35883
 C644 C 0.31915 0.66690 0.36793
 C645 C 0.32301 0.67658 0.37390
 C646 C 0.33274 0.68045 0.36799
 H647 H 0.31163 0.66160 0.37006
 H648 H 0.33806 0.68793 0.37018
 H649 H 0.33365 0.66613 0.33796
 H650 H 0.34328 0.65643 0.34689
 N651 N 0.32642 0.14089 0.83495
 N652 N 0.33469 0.14095 0.82698
 C653 C 0.33300 0.13190 0.81968
 C654 C 0.32320 0.12593 0.82332
 C655 C 0.31920 0.13181 0.83300
 H656 H 0.33844 0.12979 0.81228
 H657 H 0.31163 0.12966 0.83821
 Cu658 Cu 0.34683 0.15283 0.82700
 Cu659 Cu 0.32563 0.15257 0.84724
 Cu660 Cu 0.34700 0.17405 0.84721
 N661 N 0.35869 0.16500 0.82697
 N662 N 0.35870 0.17328 0.83491
 C663 C 0.36776 0.18052 0.83294
 C664 C 0.37368 0.17652 0.82329
 C665 C 0.36776 0.16670 0.81967
 H666 H 0.36988 0.18811 0.83812
 H667 H 0.36990 0.16125 0.81229
 N668 N 0.33443 0.17332 0.85893
 N669 N 0.32630 0.16512 0.85895
 C670 C 0.31905 0.16695 0.86801
 C671 C 0.32284 0.17671 0.87390
 C672 C 0.33256 0.18057 0.86798
 H673 H 0.31157 0.16161 0.87019
 H674 H 0.33785 0.18809 0.87012
 H675 H 0.33394 0.16568 0.83803
 H676 H 0.34328 0.15639 0.84763
 N677 N 0.82645 0.64112 0.83472
 N678 N 0.83474 0.64115 0.82678
 C679 C 0.83302 0.63213 0.81944
 C680 C 0.82318 0.62621 0.82304
 C681 C 0.81919 0.63208 0.83272
 H682 H 0.83848 0.63002 0.81205
 H683 H 0.81158 0.62995 0.83790
 Cu684 Cu 0.84694 0.65298 0.82683
 Cu685 Cu 0.82569 0.65275 0.84706
 Cu686 Cu 0.84712 0.67415 0.84711
 N687 N 0.85878 0.66518 0.82683
 N688 N 0.85880 0.67343 0.83480
 C689 C 0.86783 0.68070 0.83283
 C690 C 0.87373 0.67675 0.82314
 C691 C 0.86782 0.66693 0.81950
 H692 H 0.86994 0.68828 0.83802
 H693 H 0.86994 0.66152 0.81209
 N694 N 0.83458 0.67340 0.85884
 N695 N 0.82640 0.66525 0.85881
 C696 C 0.81915 0.66707 0.86788
 C697 C 0.82298 0.67679 0.87381
 C698 C 0.83273 0.68062 0.86792
 H699 H 0.81163 0.66176 0.87002
 H700 H 0.83805 0.68811 0.87010
 H701 H 0.83405 0.66584 0.83787
 H702 H 0.84335 0.65649 0.84746
 N703 N 0.82640 0.14104 0.33498
 N704 N 0.83471 0.14108 0.32705
 C705 C 0.83304 0.13203 0.31975
 C706 C 0.82321 0.12608 0.32335
 C707 C 0.81918 0.13197 0.33300
 H708 H 0.83851 0.12991 0.31237
 H709 H 0.81157 0.12984 0.33817
 Cu710 Cu 0.84686 0.15295 0.32708
 Cu711 Cu 0.82557 0.15273 0.34726
 Cu712 Cu 0.84693 0.17422 0.34725
 N713 N 0.85868 0.16517 0.32705
 N714 N 0.85864 0.17347 0.33497
 C715 C 0.86767 0.18074 0.33300
 C716 C 0.87362 0.17675 0.32336
 C717 C 0.86774 0.16690 0.31976
 H718 H 0.86975 0.18836 0.33816
 H719 H 0.86991 0.16145 0.31238
 N720 N 0.83435 0.17349 0.35895
 N721 N 0.82622 0.16530 0.35896
 C722 C 0.81895 0.16713 0.36801
 C723 C 0.82274 0.17689 0.37390
 C724 C 0.83247 0.18074 0.36799
 H725 H 0.81147 0.16179 0.37018
 H726 H 0.83776 0.18826 0.37014
 H727 H 0.83390 0.16582 0.33804
 H728 H 0.84323 0.15655 0.34769
 N729 N 0.67361 0.35856 0.33451
 N730 N 0.66532 0.35854 0.32657
 C731 C 0.66698 0.36764 0.31930
 C732 C 0.67678 0.37359 0.32294
 C733 C 0.68081 0.36766 0.33258
 H734 H 0.66152 0.36978 0.31192
 H735 H 0.68839 0.36979 0.33777
 Cu736 Cu 0.65320 0.34663 0.32656
 Cu737 Cu 0.67443 0.34683 0.34677
 Cu738 Cu 0.65313 0.32530 0.34671
 N739 N 0.64141 0.33438 0.32650
 N740 N 0.64145 0.32606 0.33441
 C741 C 0.63242 0.31880 0.33245
 C742 C 0.62646 0.32281 0.32282
 C743 C 0.63234 0.33268 0.31922
 H744 H 0.63032 0.31118 0.33762
 H745 H 0.63015 0.33817 0.31187
 N746 N 0.66568 0.32603 0.35844
 N747 N 0.67379 0.33424 0.35846
 C748 C 0.68102 0.33244 0.36755
 C749 C 0.67723 0.32268 0.37345
 C750 C 0.66753 0.31879 0.36752
 H751 H 0.68845 0.33782 0.36975
 H752 H 0.66222 0.31129 0.36969
 H753 H 0.66616 0.33375 0.33752
 H754 H 0.65679 0.34296 0.34717
 N755 N 0.67343 0.85878 0.83500
 N756 N 0.66520 0.85878 0.82701
 C757 C 0.66696 0.86785 0.81973
 C758 C 0.67677 0.87376 0.82341
 C759 C 0.68070 0.86783 0.83309
 H760 H 0.66155 0.87001 0.81231
 H761 H 0.68826 0.86994 0.83832
 Cu762 Cu 0.65300 0.84695 0.82696
 Cu763 Cu 0.67411 0.84709 0.84731
 Cu764 Cu 0.65263 0.82572 0.84719
 N765 N 0.64113 0.83479 0.82686
 N766 N 0.64103 0.82651 0.83481
 C767 C 0.63197 0.81929 0.83280
 C768 C 0.62614 0.82330 0.82309
 C769 C 0.63211 0.83310 0.81949
 H770 H 0.62978 0.81171 0.83799
 H771 H 0.63004 0.83856 0.81209
 N772 N 0.66511 0.82640 0.85900
 N773 N 0.67330 0.83453 0.85903
 C774 C 0.68049 0.83267 0.86813
 C775 C 0.67660 0.82296 0.87403
 C776 C 0.66688 0.81915 0.86808
 H777 H 0.68800 0.83797 0.87032
 H778 H 0.66153 0.81167 0.87023
 H779 H 0.66579 0.83403 0.83806
 H780 H 0.65644 0.84336 0.84761
 N781 N 0.17352 0.35858 0.83472
 N782 N 0.16553 0.35831 0.82649
 C783 C 0.16725 0.36738 0.81921
 C784 C 0.17679 0.37357 0.82312
 C785 C 0.18059 0.36781 0.83295
 H786 H 0.16201 0.36934 0.81162
 H787 H 0.18796 0.37013 0.83836
 Cu788 Cu 0.15365 0.34616 0.82608
 Cu789 Cu 0.17417 0.34697 0.84708
 Cu790 Cu 0.15274 0.32561 0.84705
 N791 N 0.14149 0.33429 0.82643
 N792 N 0.14117 0.32630 0.83467
 C793 C 0.13194 0.31923 0.83285
 C794 C 0.12625 0.32303 0.82299
 C795 C 0.13247 0.33257 0.81910
 H796 H 0.12958 0.31186 0.83826
 H797 H 0.13056 0.33782 0.81150
 N798 N 0.16519 0.32635 0.85886
 N799 N 0.17338 0.33448 0.85885
 C800 C 0.18058 0.33265 0.86795
 C801 C 0.17670 0.32295 0.87389
 C802 C 0.16697 0.31913 0.86797
 H803 H 0.18810 0.33795 0.87010
 H804 H 0.16163 0.31165 0.87014
 H805 H 0.16613 0.33364 0.83801
 H806 H 0.15647 0.34331 0.84692
 N807 N 0.17362 0.85851 0.33469
 N808 N 0.16565 0.85823 0.32644
 C809 C 0.16740 0.86730 0.31915
 C810 C 0.17693 0.87349 0.32308
 C811 C 0.18071 0.86773 0.33292
 H812 H 0.16217 0.86926 0.31155
 H813 H 0.18806 0.87006 0.33836
 Cu814 Cu 0.15375 0.84611 0.32606
 Cu815 Cu 0.17422 0.84691 0.34707
 Cu816 Cu 0.15282 0.82550 0.34696
 N817 N 0.14160 0.83422 0.32633
 N818 N 0.14129 0.82619 0.33453
 C819 C 0.13207 0.81912 0.33270
 C820 C 0.12635 0.82297 0.32287
 C821 C 0.13257 0.83253 0.31900
 H822 H 0.12971 0.81174 0.33808
 H823 H 0.13063 0.83782 0.31144
 N824 N 0.16523 0.82627 0.35882
 N825 N 0.17338 0.83444 0.35887
 C826 C 0.18054 0.83262 0.36800
 C827 C 0.17668 0.82289 0.37390
 C828 C 0.16700 0.81904 0.36792
 H829 H 0.18803 0.83794 0.37019
 H830 H 0.16169 0.81152 0.37004
 H831 H 0.16622 0.83356 0.33796
 H832 H 0.15653 0.84318 0.34689
 C833 C 0.24593 0.96320 0.25427
 C834 C 0.25389 0.96323 0.24536
 C835 C 0.25622 0.97486 0.24281
 N836 N 0.24990 0.98188 0.24988
 C837 C 0.24360 0.97481 0.25690
 C838 C 0.26433 0.97865 0.23431
 C839 C 0.26707 0.99047 0.23188
 C840 C 0.27616 0.99403 0.22471
 C841 C 0.27617 1.00604 0.22475
 C842 C 0.26709 1.00956 0.23196
 N843 N 0.26146 1.00001 0.23609
 C844 C 0.26439 1.02137 0.23450
 C845 C 0.25629 1.02511 0.24304
 C846 C 0.25401 1.03671 0.24572
 C847 C 0.24608 1.03668 0.25466
 C848 C 0.24371 1.02506 0.25717
 N849 N 0.24997 1.01803 0.25005
 C850 C 0.23561 1.02126 0.26567
 C851 C 0.23282 1.00944 0.26805
 C852 C 0.22370 1.00589 0.27520
 C853 C 0.22367 0.99388 0.27513
 C854 C 0.23277 0.99036 0.26794
 N855 N 0.23842 0.99991 0.26383
 C856 C 0.23548 0.97855 0.26542
 H857 H 0.24225 0.95549 0.25830
 H858 H 0.25758 0.95554 0.24128
 H859 H 0.24614 0.99991 0.25914
 H860 H 0.28228 0.98854 0.22003
 H861 H 0.28229 1.01154 0.22012
 H862 H 0.25771 1.04443 0.24171
 H863 H 0.24243 1.04437 0.25878
 H864 H 0.21754 0.98838 0.27975
 H865 H 0.25377 1.00000 0.24082
 H866 H 0.21759 1.01139 0.27987
 C867 C 0.24566 0.46317 0.75423
 C868 C 0.25387 0.46315 0.74555
 C869 C 0.25635 0.47476 0.74309
 N870 N 0.24989 0.48182 0.74999
 C871 C 0.24334 0.47478 0.75682
 C872 C 0.26469 0.47851 0.73479
 C873 C 0.26752 0.49032 0.73239
 C874 C 0.27668 0.49383 0.72528
 C875 C 0.27678 0.50584 0.72535
 C876 C 0.26768 0.50941 0.73251
 N877 N 0.26195 0.49989 0.73657
 C878 C 0.26506 0.52124 0.73509
 C879 C 0.25684 0.52502 0.74350
 C880 C 0.25463 0.53663 0.74620
 C881 C 0.24647 0.53664 0.75492
 C882 C 0.24390 0.52503 0.75730
 N883 N 0.25026 0.51798 0.75030
 C884 C 0.23553 0.52129 0.76557
 C885 C 0.23261 0.50948 0.76788
 C886 C 0.22337 0.50598 0.77489
 C887 C 0.22323 0.49397 0.77476
 C888 C 0.23239 0.49039 0.76769
 N889 N 0.23820 0.49991 0.76372
 C890 C 0.23504 0.47857 0.76515
 H891 H 0.24180 0.45547 0.75813
 H892 H 0.25761 0.45544 0.74156
 H893 H 0.24597 0.49986 0.75914
 H894 H 0.28278 0.48830 0.72062
 H895 H 0.28297 0.51131 0.72076
 H896 H 0.25853 0.54433 0.74233
 H897 H 0.24281 0.54435 0.75899
 H898 H 0.21698 0.48850 0.77928
 H899 H 0.25425 0.49993 0.74128
 H900 H 0.21725 0.51151 0.77951
 C901 C 0.75380 -0.03690 0.25528
 C902 C 0.74576 -0.03697 0.24645
 C903 C 0.74351 -0.02538 0.24368
 N904 N 0.74995 -0.01827 0.25053
 C905 C 0.75626 -0.02526 0.25763
 C906 C 0.73535 -0.02167 0.23518
 C907 C 0.73267 -0.00987 0.23256
 C908 C 0.72354 -0.00638 0.22540
 C909 C 0.72360 0.00563 0.22523
 C910 C 0.73276 0.00921 0.23229
 N911 N 0.73837 -0.00031 0.23654
 C912 C 0.73556 0.02104 0.23457
 C913 C 0.74370 0.02487 0.24301
 C914 C 0.74603 0.03651 0.24548
 C915 C 0.75401 0.03658 0.25436
 C916 C 0.75637 0.02499 0.25704
 N917 N 0.75004 0.01788 0.25009
 C918 C 0.76454 0.02129 0.26552
 C919 C 0.76732 0.00948 0.26804
 C920 C 0.77654 0.00599 0.27509
 C921 C 0.77654 -0.00602 0.27520
 C922 C 0.76731 -0.00960 0.26823
 N923 N 0.76163 -0.00008 0.26407
 C924 C 0.76450 -0.02143 0.26597
 H925 H 0.75746 -0.04457 0.25943
 H926 H 0.74196 -0.04470 0.24258
 H927 H 0.75382 -0.00011 0.25952
 H928 H 0.71735 -0.01190 0.22089
 H929 H 0.71746 0.01110 0.22056
 H930 H 0.74232 0.04417 0.24137
 H931 H 0.75770 0.04431 0.25832
 H932 H 0.78274 -0.01149 0.27980
 H933 H 0.74611 -0.00029 0.24120
 H934 H 0.78275 0.01152 0.27957
 C935 C 0.74603 0.46316 0.74598
 C936 C 0.75420 0.46324 0.75470
 C937 C 0.75649 0.47488 0.75718
 N938 N 0.74996 0.48186 0.75025
 C939 C 0.74354 0.47474 0.74340
 C940 C 0.76477 0.47874 0.76546
 C941 C 0.76743 0.49059 0.76784
 C942 C 0.77666 0.49422 0.77478
 C943 C 0.77651 0.50623 0.77476
 C944 C 0.76720 0.50967 0.76781
 N945 N 0.76159 0.50007 0.76380
 C946 C 0.76427 0.52146 0.76540
 C947 C 0.75597 0.52514 0.75703
 C948 C 0.75348 0.53673 0.75445
 C949 C 0.74539 0.53664 0.74566
 C950 C 0.74314 0.52500 0.74314
 N951 N 0.74962 0.51802 0.75011
 C952 C 0.73494 0.52114 0.73478
 C953 C 0.73222 0.50930 0.73246
 C954 C 0.72300 0.50567 0.72551
 C955 C 0.72307 0.49366 0.72560
 C956 C 0.73234 0.49021 0.73259
 N957 N 0.73799 0.49981 0.73657
 C958 C 0.73521 0.47842 0.73507
 H959 H 0.74231 0.45541 0.74206
 H960 H 0.75804 0.45558 0.75869
 H961 H 0.74581 0.49988 0.74110
 H962 H 0.78296 0.48879 0.77927
 H963 H 0.78269 0.51180 0.77925
 H964 H 0.75715 0.54447 0.75842
 H965 H 0.74156 0.54430 0.74164
 H966 H 0.71688 0.48811 0.72112
 H967 H 0.75377 0.49999 0.75930
 H968 H 0.71674 0.51111 0.72096
 C969 C 0.25397 0.46330 0.25431
 C970 C 0.24584 0.46329 0.24556
 C971 C 0.24344 0.47490 0.24299
 N972 N 0.24987 0.48196 0.24989
 C973 C 0.25633 0.47492 0.25683
 C974 C 0.23517 0.47865 0.23463
 C975 C 0.23243 0.49047 0.23214
 C976 C 0.22321 0.49402 0.22512
 C977 C 0.22329 0.50603 0.22501
 C978 C 0.23255 0.50955 0.23196
 N979 N 0.23819 0.50000 0.23610
 C980 C 0.23541 0.52136 0.23426
 C981 C 0.24359 0.52514 0.24267
 C982 C 0.24597 0.53676 0.24517
 C983 C 0.25396 0.53678 0.25404
 C984 C 0.25628 0.52517 0.25668
 N985 N 0.24992 0.51810 0.24973
 C986 C 0.26445 0.52142 0.26515
 C987 C 0.26726 0.50960 0.26758
 C988 C 0.27648 0.50608 0.27460
 C989 C 0.27653 0.49407 0.27460
 C990 C 0.26733 0.49052 0.26758
 N991 N 0.26160 0.50006 0.26351
 C992 C 0.26459 0.47870 0.26516
 H993 H 0.25775 0.45560 0.25830
 H994 H 0.24209 0.45558 0.24159
 H995 H 0.25381 0.50005 0.25894
 H996 H 0.21697 0.48853 0.22065
 H997 H 0.21710 0.51153 0.22045
 H998 H 0.24228 0.54445 0.24109
 H999 H 0.25770 0.54449 0.25802
 H1000 H 0.28275 0.48859 0.27914
 H1001 H 0.24601 0.49999 0.24064
 H1002 H 0.28267 0.51159 0.27913
 C1003 C 0.75376 0.96341 0.74576
 C1004 C 0.74563 0.96341 0.75452
 C1005 C 0.74328 0.97503 0.75710
 N1006 N 0.74974 0.98207 0.75019
 C1007 C 0.75616 0.97503 0.74325
 C1008 C 0.73503 0.97879 0.76547
 C1009 C 0.73235 0.99061 0.76801
 C1010 C 0.72322 0.99417 0.77514
 C1011 C 0.72331 1.00618 0.77524
 C1012 C 0.73249 1.00970 0.76817
 N1013 N 0.73808 1.00014 0.76398
 C1014 C 0.73532 1.02151 0.76580
 C1015 C 0.74352 1.02528 0.75736
 C1016 C 0.74592 1.03689 0.75484
 C1017 C 0.75393 1.03690 0.74599
 C1018 C 0.75624 1.02529 0.74337
 N1019 N 0.74985 1.01823 0.75033
 C1020 C 0.76440 1.02152 0.73490
 C1021 C 0.76715 1.00971 0.73242
 C1022 C 0.77630 1.00617 0.72531
 C1023 C 0.77631 0.99416 0.72531
 C1024 C 0.76716 0.99062 0.73243
 N1025 N 0.76150 1.00016 0.73654
 C1026 C 0.76442 0.97880 0.73488
 H1027 H 0.75751 0.95571 0.74176
 H1028 H 0.74185 0.95571 0.75848
 H1029 H 0.75377 1.00017 0.74121
 H1030 H 0.71702 0.98868 0.77970
 H1031 H 0.71719 1.01169 0.77989
 H1032 H 0.74223 1.04459 0.75890
 H1033 H 0.75768 1.04460 0.74199
 H1034 H 0.78246 0.98866 0.72070
 H1035 H 0.74583 1.00012 0.75933
 H1036 H 0.78245 1.01167 0.72070
 C1037 C 0.75376 0.53668 0.24520
 C1038 C 0.74574 0.53670 0.25405
 C1039 C 0.74351 0.52510 0.25676
 N1040 N 0.74995 0.51803 0.24984
 C1041 C 0.75624 0.52506 0.24276
 C1042 C 0.73538 0.52135 0.26526
 C1043 C 0.73272 0.50954 0.26782
 C1044 C 0.72364 0.50601 0.27502
 C1045 C 0.72369 0.49400 0.27510
 C1046 C 0.73280 0.49045 0.26794
 N1047 N 0.73838 0.49999 0.26372
 C1048 C 0.73556 0.47863 0.26551
 C1049 C 0.74369 0.47485 0.25702
 C1050 C 0.74600 0.46323 0.25443
 C1051 C 0.75398 0.46321 0.24554
 C1052 C 0.75636 0.47482 0.24298
 N1053 N 0.75006 0.48188 0.25001
 C1054 C 0.76454 0.47856 0.23452
 C1055 C 0.76732 0.49037 0.23209
 C1056 C 0.77652 0.49389 0.22503
 C1057 C 0.77650 0.50590 0.22499
 C1058 C 0.76729 0.50945 0.23203
 N1059 N 0.76162 0.49992 0.23614
 C1060 C 0.76447 0.52128 0.23438
 H1061 H 0.75739 0.54437 0.24107
 H1062 H 0.74195 0.54442 0.25799
 H1063 H 0.75383 0.49993 0.24071
 H1064 H 0.71748 0.51151 0.27963
 H1065 H 0.71759 0.48851 0.27978
 H1066 H 0.74227 0.45553 0.25846
 H1067 H 0.75765 0.45550 0.24149
 H1068 H 0.78267 0.51139 0.22040
 H1069 H 0.74608 0.49999 0.25899
 H1070 H 0.78271 0.48838 0.22049
 C1071 C 0.24575 -0.03704 0.74620
 C1072 C 0.25382 -0.03702 0.75501
 C1073 C 0.25629 -0.02540 0.75741
 N1074 N 0.24997 -0.01837 0.75035
 C1075 C 0.24351 -0.02544 0.74348
 C1076 C 0.26454 -0.02162 0.76578
 C1077 C 0.26732 -0.00980 0.76815
 C1078 C 0.27644 -0.00626 0.77528
 C1079 C 0.27647 0.00575 0.77520
 C1080 C 0.26738 0.00929 0.76802
 N1081 N 0.26172 -0.00026 0.76394
 C1082 C 0.26468 0.02110 0.76546
 C1083 C 0.25653 0.02485 0.75697
 C1084 C 0.25424 0.03646 0.75429
 C1085 C 0.24622 0.03644 0.74544
 C1086 C 0.24381 0.02482 0.74297
 N1087 N 0.25014 0.01779 0.75003
 C1088 C 0.23564 0.02104 0.73454
 C1089 C 0.23284 0.00922 0.73218
 C1090 C 0.22375 0.00568 0.72501
 C1091 C 0.22367 -0.00633 0.72514
 C1092 C 0.23272 -0.00987 0.73238
 N1093 N 0.23839 -0.00033 0.73645
 C1094 C 0.23535 -0.02169 0.73500
 H1095 H 0.24194 -0.04475 0.74230
 H1096 H 0.25748 -0.04471 0.75912
 H1097 H 0.24607 -0.00034 0.74120
 H1098 H 0.28255 -0.01176 0.77997
 H1099 H 0.28261 0.01125 0.77981
 H1100 H 0.25801 0.04417 0.75823
 H1101 H 0.24255 0.04413 0.74134
 H1102 H 0.21754 -0.01182 0.72051
 H1103 H 0.25401 -0.00025 0.75925
 H1104 H 0.21768 0.01118 0.72029
 C1105 C 0.24588 0.25433 1.03657
 C1106 C 0.25473 0.24627 1.03655
 C1107 C 0.25712 0.24373 1.02499
 N1108 N 0.25001 0.25003 1.01798
 C1109 C 0.24313 0.25654 1.02501
 C1110 C 0.26547 0.23542 1.02124
 C1111 C 0.26772 0.23247 1.00948
 C1112 C 0.27461 0.22312 1.00598
 C1113 C 0.27449 0.22302 0.99402
 C1114 C 0.26753 0.23231 0.99048
 N1115 N 0.26362 0.23814 0.99997
 C1116 C 0.26508 0.23506 0.97871
 C1117 C 0.25671 0.24338 0.97498
 C1118 C 0.25416 0.24579 0.96341
 C1119 C 0.24538 0.25393 0.96343
 C1120 C 0.24282 0.25629 0.97499
 N1121 N 0.24976 0.24982 0.98200
 C1122 C 0.23443 0.26458 0.97875
 C1123 C 0.23201 0.26736 0.99052
 C1124 C 0.22495 0.27658 0.99404
 C1125 C 0.22500 0.27661 1.00599
 C1126 C 0.23209 0.26742 1.00952
 N1127 N 0.23614 0.26169 1.00002
 C1128 C 0.23463 0.26472 1.02128
 H1129 H 0.24198 0.25819 1.04425
 H1130 H 0.25888 0.24264 1.04421
 H1131 H 0.24078 0.25393 1.00003
 H1132 H 0.27914 0.21691 1.01147
 H1133 H 0.27891 0.21670 0.98856
 H1134 H 0.25816 0.24203 0.95574
 H1135 H 0.24139 0.25773 0.95576
 H1136 H 0.22046 0.28283 1.01146
 H1137 H 0.25916 0.24603 0.99994
 H1138 H 0.22036 0.28277 0.98856
 C1139 C 0.24615 0.75445 0.53650
 C1140 C 0.25504 0.74642 0.53650
 C1141 C 0.25744 0.74387 0.52494
 N1142 N 0.25030 0.75011 0.51792
 C1143 C 0.24338 0.75661 0.52494
 C1144 C 0.26583 0.73558 0.52121
 C1145 C 0.26815 0.73270 0.50945
 C1146 C 0.27508 0.72338 0.50594
 C1147 C 0.27508 0.72338 0.49398
 C1148 C 0.26816 0.73269 0.49045
 N1149 N 0.26413 0.73845 0.49994
 C1150 C 0.26583 0.73556 0.47868
 C1151 C 0.25743 0.74382 0.47493
 C1152 C 0.25502 0.74635 0.46336
 C1153 C 0.24611 0.75436 0.46335
 C1154 C 0.24336 0.75654 0.47491
 N1155 N 0.25029 0.75008 0.48194
 C1156 C 0.23479 0.76465 0.47865
 C1157 C 0.23224 0.76734 0.49041
 C1158 C 0.22500 0.77642 0.49392
 C1159 C 0.22500 0.77643 0.50588
 C1160 C 0.23225 0.76737 0.50941
 N1161 N 0.23644 0.76174 0.49992
 C1162 C 0.23482 0.76471 0.52118
 H1163 H 0.24222 0.75830 0.54416
 H1164 H 0.25920 0.74283 0.54417
 H1165 H 0.24125 0.75408 0.49993
 H1166 H 0.27957 0.71713 0.51143
 H1167 H 0.27957 0.71712 0.48851
 H1168 H 0.25917 0.74274 0.45570
 H1169 H 0.24217 0.75819 0.45568
 H1170 H 0.22033 0.78257 0.51134
 H1171 H 0.25969 0.74634 0.49993
 H1172 H 0.22032 0.78253 0.48843
 C1173 C 0.24598 0.74601 -0.03687
 C1174 C 0.25469 0.75420 -0.03687
 C1175 C 0.25724 0.75658 -0.02531
 N1176 N 0.25036 0.75006 -0.01829
 C1177 C 0.24346 0.74358 -0.02530
 C1178 C 0.26554 0.76492 -0.02156
 C1179 C 0.26794 0.76770 -0.00979
 C1180 C 0.27485 0.77700 -0.00627
 C1181 C 0.27486 0.77698 0.00569
 C1182 C 0.26794 0.76767 0.00922
 N1183 N 0.26394 0.76194 -0.00029
 C1184 C 0.26553 0.76487 0.02099
 C1185 C 0.25718 0.75657 0.02474
 C1186 C 0.25455 0.75426 0.03630
 C1187 C 0.24580 0.74609 0.03630
 C1188 C 0.24336 0.74361 0.02474
 N1189 N 0.25033 0.75004 0.01772
 C1190 C 0.23508 0.73525 0.02099
 C1191 C 0.23279 0.73239 0.00922
 C1192 C 0.22597 0.72302 0.00571
 C1193 C 0.22600 0.72301 -0.00625
 C1194 C 0.23283 0.73238 -0.00977
 N1195 N 0.23676 0.73817 -0.00028
 C1196 C 0.23518 0.73522 -0.02155
 H1197 H 0.24201 0.74222 -0.04453
 H1198 H 0.25864 0.75803 -0.04454
 H1199 H 0.24114 0.74608 -0.00028
 H1200 H 0.27931 0.78328 -0.01174
 H1201 H 0.27932 0.78324 0.01116
 H1202 H 0.25845 0.75811 0.04397
 H1203 H 0.24176 0.74236 0.04397
 H1204 H 0.22160 0.71670 -0.01172
 H1205 H 0.25945 0.75409 -0.00028
 H1206 H 0.22155 0.71671 0.01118
 C1207 C 0.24572 0.24542 0.46348
 C1208 C 0.25458 0.25347 0.46349
 C1209 C 0.25701 0.25595 0.47506
 N1210 N 0.24991 0.24964 0.48206
 C1211 C 0.24300 0.24319 0.47503
 C1212 C 0.26541 0.26418 0.47882
 C1213 C 0.26771 0.26705 0.49059
 C1214 C 0.27476 0.27625 0.49410
 C1215 C 0.27464 0.27635 0.50606
 C1216 C 0.26751 0.26720 0.50959
 N1217 N 0.26350 0.26145 0.50010
 C1218 C 0.26494 0.26454 0.52136
 C1219 C 0.25641 0.25642 0.52509
 C1220 C 0.25367 0.25420 0.53665
 C1221 C 0.24478 0.24620 0.53663
 C1222 C 0.24236 0.24372 0.52506
 N1223 N 0.24948 0.24999 0.51806
 C1224 C 0.23394 0.23549 0.52131
 C1225 C 0.23165 0.23260 0.50955
 C1226 C 0.22461 0.22339 0.50605
 C1227 C 0.22477 0.22326 0.49409
 C1228 C 0.23191 0.23240 0.49055
 N1229 N 0.23589 0.23817 0.50003
 C1230 C 0.23450 0.23503 0.47878
 H1231 H 0.24179 0.24161 0.45580
 H1232 H 0.25871 0.25712 0.45583
 H1233 H 0.24052 0.24593 0.50000
 H1234 H 0.27941 0.28239 0.48862
 H1235 H 0.27916 0.28257 0.51152
 H1236 H 0.25761 0.25800 0.54432
 H1237 H 0.24064 0.24257 0.54429
 H1238 H 0.22026 0.21702 0.48863
 H1239 H 0.25888 0.25369 0.50012
 H1240 H 0.21995 0.21727 0.51153
 C1241 C 0.74625 0.75422 1.03660
 C1242 C 0.75513 0.74619 1.03651
 C1243 C 0.75747 0.74371 1.02492
 N1244 N 0.75029 0.75000 1.01798
 C1245 C 0.74342 0.75646 1.02507
 C1246 C 0.76583 0.73545 1.02108
 C1247 C 0.76805 0.73260 1.00929
 C1248 C 0.77492 0.72328 1.00570
 C1249 C 0.77482 0.72331 0.99374
 C1250 C 0.76789 0.73266 0.99030
 N1251 N 0.76396 0.73839 0.99984
 C1252 C 0.76550 0.73558 0.97856
 C1253 C 0.75711 0.74390 0.97490
 C1254 C 0.75465 0.74651 0.96337
 C1255 C 0.74578 0.75456 0.96345
 C1256 C 0.74310 0.75668 0.97504
 N1257 N 0.75004 0.75014 0.98199
 C1258 C 0.73458 0.76480 0.97887
 C1259 C 0.73211 0.76743 0.99067
 C1260 C 0.72490 0.77650 0.99427
 C1261 C 0.72498 0.77644 1.00623
 C1262 C 0.73223 0.76734 1.00967
 N1263 N 0.73635 0.76176 1.00012
 C1264 C 0.73486 0.76461 1.02141
 H1265 H 0.74237 0.75803 1.04431
 H1266 H 0.75933 0.74254 1.04413
 H1267 H 0.74115 0.75409 1.00006
 H1268 H 0.77943 0.71699 1.01112
 H1269 H 0.77925 0.71706 0.98821
 H1270 H 0.75875 0.74293 0.95566
 H1271 H 0.74182 0.75845 0.95582
 H1272 H 0.72036 0.78256 1.01175
 H1273 H 0.75955 0.74629 0.99990
 H1274 H 0.72021 0.78266 0.98885
 C1275 C 0.74573 0.25420 0.53663
 C1276 C 0.75462 0.24617 0.53658
 C1277 C 0.75702 0.24370 0.52501
 N1278 N 0.74989 0.25001 0.51803
 C1279 C 0.74298 0.25645 0.52508
 C1280 C 0.76542 0.23545 0.52121
 C1281 C 0.76773 0.23264 0.50944
 C1282 C 0.77469 0.22336 0.50587
 C1283 C 0.77465 0.22341 0.49391
 C1284 C 0.76768 0.23271 0.49044
 N1285 N 0.76366 0.23841 0.49997
 C1286 C 0.76531 0.23562 0.47869
 C1287 C 0.75691 0.24391 0.47499
 C1288 C 0.75448 0.24649 0.46344
 C1289 C 0.74560 0.25453 0.46348
 C1290 C 0.74288 0.25668 0.47506
 N1291 N 0.74981 0.25016 0.48204
 C1292 C 0.73436 0.26481 0.47885
 C1293 C 0.73184 0.26744 0.49063
 C1294 C 0.72465 0.27653 0.49421
 C1295 C 0.72467 0.27648 0.50616
 C1296 C 0.73188 0.26735 0.50964
 N1297 N 0.73603 0.26176 0.50010
 C1298 C 0.73444 0.26461 0.52139
 H1299 H 0.74181 0.25800 0.54432
 H1300 H 0.75878 0.24252 0.54423
 H1301 H 0.74079 0.25407 0.50007
 H1302 H 0.77922 0.21710 0.51132
 H1303 H 0.77915 0.21719 0.48840
 H1304 H 0.75861 0.24291 0.45575
 H1305 H 0.74165 0.25841 0.45584
 H1306 H 0.72005 0.28261 0.51167
 H1307 H 0.75919 0.24628 0.50000
 H1308 H 0.72000 0.28271 0.48877
 C1309 C 0.74549 0.24579 0.03643
 C1310 C 0.75433 0.25386 0.03644
 C1311 C 0.75687 0.25628 0.02488
 N1312 N 0.74987 0.24991 0.01786
 C1313 C 0.74290 0.24349 0.02487
 C1314 C 0.76529 0.26451 0.02114
 C1315 C 0.76771 0.26731 0.00937
 C1316 C 0.77476 0.27652 0.00586
 C1317 C 0.77478 0.27654 -0.00610
 C1318 C 0.76773 0.26734 -0.00963
 N1319 N 0.76363 0.26165 -0.00014
 C1320 C 0.76531 0.26460 -0.02140
 C1321 C 0.75682 0.25646 -0.02516
 C1322 C 0.75419 0.25420 -0.03673
 C1323 C 0.74528 0.24621 -0.03674
 C1324 C 0.74274 0.24379 -0.02518
 N1325 N 0.74981 0.25007 -0.01815
 C1326 C 0.73429 0.23559 -0.02144
 C1327 C 0.73195 0.23271 -0.00967
 C1328 C 0.72496 0.22345 -0.00618
 C1329 C 0.72502 0.22335 0.00578
 C1330 C 0.73204 0.23257 0.00932
 N1331 N 0.73606 0.23834 -0.00016
 C1332 C 0.73448 0.23528 0.02110
 H1333 H 0.74149 0.24201 0.04409
 H1334 H 0.75836 0.25756 0.04411
 H1335 H 0.74061 0.24615 -0.00013
 H1336 H 0.77932 0.28271 0.01134
 H1337 H 0.77934 0.28275 -0.01156
 H1338 H 0.75821 0.25796 -0.04439
 H1339 H 0.74119 0.24256 -0.04441
 H1340 H 0.72051 0.21709 0.01123
 H1341 H 0.75903 0.25386 -0.00015
 H1342 H 0.72040 0.21727 -0.01167
 C1343 C 0.74596 0.74573 0.46351
 C1344 C 0.75483 0.75376 0.46350
 C1345 C 0.75725 0.75628 0.47505
 N1346 N 0.75014 0.75002 0.48208
 C1347 C 0.74322 0.74355 0.47507
 C1348 C 0.76566 0.76452 0.47879
 C1349 C 0.76795 0.76744 0.49055
 C1350 C 0.77500 0.77667 0.49403
 C1351 C 0.77486 0.77681 0.50598
 C1352 C 0.76773 0.76768 0.50955
 N1353 N 0.76373 0.76190 0.50008
 C1354 C 0.76515 0.76507 0.52132
 C1355 C 0.75663 0.75694 0.52508
 C1356 C 0.75391 0.75475 0.53665
 C1357 C 0.74502 0.74674 0.53666
 C1358 C 0.74259 0.74423 0.52510
 N1359 N 0.74970 0.75049 0.51807
 C1360 C 0.73418 0.73599 0.52137
 C1361 C 0.73188 0.73307 0.50961
 C1362 C 0.72484 0.72385 0.50614
 C1363 C 0.72499 0.72369 0.49419
 C1364 C 0.73212 0.73282 0.49061
 N1365 N 0.73611 0.73861 0.50008
 C1366 C 0.73471 0.73542 0.47883
 H1367 H 0.74202 0.74190 0.45585
 H1368 H 0.75898 0.75737 0.45583
 H1369 H 0.74074 0.74638 0.50002
 H1370 H 0.77965 0.78277 0.48852
 H1371 H 0.77939 0.78306 0.51143
 H1372 H 0.75785 0.75857 0.54431
 H1373 H 0.74088 0.74314 0.54433
 H1374 H 0.72047 0.71743 0.48875
 H1375 H 0.75911 0.75413 0.50013
 H1376 H 0.72018 0.71775 0.51165
 C1377 C 1.03661 0.24526 0.25408
 C1378 C 1.03667 0.25413 0.24607
 C1379 C 1.02507 0.25686 0.24379
 N1380 N 1.01797 0.24994 0.25018
 C1381 C 1.02498 0.24284 0.25649
 C1382 C 1.02136 0.26537 0.23564
 C1383 C 1.00955 0.26792 0.23289
 C1384 C 1.00607 0.27512 0.22380
 C1385 C 0.99405 0.27513 0.22372
 C1386 C 0.99046 0.26794 0.23277
 N1387 N 0.99996 0.26376 0.23844
 C1388 C 0.97862 0.26542 0.23537
 C1389 C 0.97480 0.25688 0.24342
 C1390 C 0.96317 0.25415 0.24553
 C1391 C 0.96312 0.24525 0.25350
 C1392 C 0.97472 0.24282 0.25609
 N1393 N 0.98181 0.24994 0.24991
 C1394 C 0.97843 0.23443 0.26435
 C1395 C 0.99023 0.23210 0.26729
 C1396 C 0.99369 0.22518 0.27659
 C1397 C 1.00571 0.22519 0.27669
 C1398 C 1.00931 0.23212 0.26745
 N1399 N 0.99981 0.23613 0.26165
 C1400 C 1.02115 0.23445 0.26470
 H1401 H 1.04429 0.24112 0.25775
 H1402 H 1.04440 0.25807 0.24231
 H1403 H 0.99987 0.24057 0.25380
 H1404 H 1.01160 0.27975 0.21771
 H1405 H 0.98859 0.27977 0.21756
 H1406 H 0.95549 0.25810 0.24167
 H1407 H 0.95540 0.24111 0.25704
 H1408 H 1.01116 0.22071 0.28297
 H1409 H 0.99991 0.25901 0.24610
 H1410 H 0.98815 0.22068 0.28277
 C1411 C 0.46316 0.25379 0.74570
 C1412 C 0.46319 0.24489 0.75367
 C1413 C 0.47481 0.24247 0.75617
 N1414 N 0.48184 0.24960 0.74994
 C1415 C 0.47477 0.25654 0.74352
 C1416 C 0.47859 0.23405 0.76437
 C1417 C 0.49041 0.23175 0.76727
 C1418 C 0.49393 0.22475 0.77649
 C1419 C 0.50594 0.22487 0.77661
 C1420 C 0.50949 0.23195 0.76746
 N1421 N 0.49996 0.23593 0.76169
 C1422 C 0.52131 0.23447 0.76478
 C1423 C 0.52507 0.24289 0.75658
 C1424 C 0.53668 0.24548 0.75423
 C1425 C 0.53667 0.25431 0.74617
 C1426 C 0.52504 0.25686 0.74381
 N1427 N 0.51801 0.24987 0.75019
 C1428 C 0.52126 0.26529 0.73561
 C1429 C 0.50943 0.26774 0.73286
 C1430 C 0.50588 0.27490 0.72377
 C1431 C 0.49387 0.27486 0.72373
 C1432 C 0.49034 0.26766 0.73279
 N1433 N 0.49988 0.26354 0.73844
 C1434 C 0.47852 0.26509 0.73544
 H1435 H 0.45545 0.25774 0.74191
 H1436 H 0.45549 0.24073 0.75727
 H1437 H 0.49988 0.25881 0.74612
 H1438 H 0.48842 0.22013 0.78262
 H1439 H 0.51143 0.22037 0.78285
 H1440 H 0.54439 0.24147 0.75796
 H1441 H 0.54436 0.25834 0.74244
 H1442 H 0.48837 0.27947 0.71758
 H1443 H 0.49998 0.24050 0.75391
 H1444 H 0.51138 0.27957 0.71767
 C1445 C -0.03698 0.25452 0.75424
 C1446 C -0.03698 0.24563 0.74626
 C1447 C -0.02537 0.24305 0.74389
 N1448 N -0.01831 0.25007 0.75021
 C1449 C -0.02536 0.25709 0.75655
 C1450 C -0.02161 0.23459 0.73573
 C1451 C -0.00979 0.23217 0.73292
 C1452 C -0.00628 0.22506 0.72378
 C1453 C 0.00573 0.22513 0.72368
 C1454 C 0.00929 0.23228 0.73276
 N1455 N -0.00023 0.23635 0.73847
 C1456 C 0.02112 0.23484 0.73536
 C1457 C 0.02489 0.24339 0.74340
 C1458 C 0.03650 0.24615 0.74551
 C1459 C 0.03650 0.25507 0.75346
 C1460 C 0.02489 0.25748 0.75601
 N1461 N 0.01784 0.25032 0.74985
 C1462 C 0.02113 0.26589 0.76422
 C1463 C 0.00932 0.26817 0.76716
 C1464 C 0.00582 0.27513 0.77642
 C1465 C -0.00620 0.27504 0.77655
 C1466 C -0.00976 0.26802 0.76738
 N1467 N -0.00024 0.26404 0.76158
 C1468 C -0.02159 0.26554 0.76470
 H1469 H -0.04469 0.25856 0.75795
 H1470 H -0.04469 0.24159 0.74258
 H1471 H -0.00028 0.25953 0.75378
 H1472 H -0.01180 0.22043 0.71769
 H1473 H 0.01121 0.22056 0.71749
 H1474 H 0.04420 0.24222 0.74168
 H1475 H 0.04421 0.25924 0.75699
 H1476 H -0.01167 0.27952 0.78280
 H1477 H -0.00020 0.24103 0.74617
 H1478 H 0.01134 0.27969 0.78256
 C1479 C 0.46320 0.25399 0.25425
 C1480 C 0.46326 0.24510 0.24628
 C1481 C 0.47489 0.24266 0.24385
 N1482 N 0.48190 0.24977 0.25011
 C1483 C 0.47480 0.25671 0.25650
 C1484 C 0.47870 0.23424 0.23566
 C1485 C 0.49053 0.23193 0.23282
 C1486 C 0.49410 0.22497 0.22360
 C1487 C 0.50612 0.22505 0.22357
 C1488 C 0.50962 0.23206 0.23277
 N1489 N 0.50005 0.23605 0.23848
 C1490 C 0.52143 0.23452 0.23555
 C1491 C 0.52514 0.24294 0.24376
 C1492 C 0.53674 0.24548 0.24619
 C1493 C 0.53669 0.25431 0.25423
 C1494 C 0.52506 0.25691 0.25650
 N1495 N 0.51805 0.24994 0.25008
 C1496 C 0.52124 0.26534 0.26467
 C1497 C 0.50940 0.26779 0.26737
 C1498 C 0.50582 0.27489 0.27649
 C1499 C 0.49380 0.27487 0.27646
 C1500 C 0.49031 0.26775 0.26734
 N1501 N 0.49988 0.26365 0.26171
 C1502 C 0.47851 0.26523 0.26461
 H1503 H 0.45547 0.25794 0.25801
 H1504 H 0.45558 0.24097 0.24264
 H1505 H 0.49992 0.25898 0.25401
 H1506 H 0.48862 0.22041 0.21741
 H1507 H 0.51164 0.22056 0.21735
 H1508 H 0.54447 0.24145 0.24252
 H1509 H 0.54437 0.25831 0.25801
 H1510 H 0.48827 0.27944 0.28260
 H1511 H 0.50003 0.24057 0.24628
 H1512 H 0.51128 0.27949 0.28265
 C1513 C 1.03673 0.75458 0.74613
 C1514 C 1.03671 0.74575 0.75419
 C1515 C 1.02509 0.74317 0.75649
 N1516 N 1.01805 0.75014 0.75007
 C1517 C 1.02512 0.75713 0.74372
 C1518 C 1.02130 0.73475 0.76469
 C1519 C 1.00946 0.73223 0.76732
 C1520 C 1.00588 0.72517 0.77647
 C1521 C 0.99386 0.72505 0.77631
 C1522 C 0.99038 0.73205 0.76706
 N1523 N 0.99996 0.73621 0.76151
 C1524 C 0.97857 0.73436 0.76413
 C1525 C 0.97483 0.74279 0.75592
 C1526 C 0.96322 0.74524 0.75340
 C1527 C 0.96323 0.75416 0.74545
 C1528 C 0.97485 0.75689 0.74330
 N1529 N 0.98189 0.74992 0.74972
 C1530 C 0.97864 0.76544 0.73524
 C1531 C 0.99047 0.76799 0.73261
 C1532 C 0.99403 0.77518 0.72355
 C1533 C 1.00605 0.77520 0.72362
 C1534 C 1.00956 0.76804 0.73273
 N1535 N 0.99999 0.76386 0.73829
 C1536 C 1.02137 0.76558 0.73552
 H1537 H 1.04444 0.75860 0.74244
 H1538 H 1.04440 0.74175 0.75797
 H1539 H 0.99995 0.75913 0.74596
 H1540 H 1.01134 0.72068 0.78273
 H1541 H 0.98833 0.72045 0.78242
 H1542 H 0.95551 0.74110 0.75698
 H1543 H 0.95554 0.75813 0.74164
 H1544 H 1.01157 0.77985 0.71753
 H1545 H 1.00001 0.74078 0.75373
 H1546 H 0.98856 0.77980 0.71740
 C1547 C 0.53675 0.75444 0.24606
 C1548 C 0.53677 0.74559 0.25409
 C1549 C 0.52516 0.74303 0.25648
 N1550 N 0.51809 0.75003 0.25013
 C1551 C 0.52512 0.75702 0.24374
 C1552 C 0.52142 0.73459 0.26468
 C1553 C 0.50961 0.73212 0.26742
 C1554 C 0.50607 0.72508 0.27661
 C1555 C 0.49406 0.72498 0.27653
 C1556 C 0.49052 0.73197 0.26730
 N1557 N 0.50006 0.73610 0.26167
 C1558 C 0.47870 0.73427 0.26443
 C1559 C 0.47491 0.74269 0.25623
 C1560 C 0.46329 0.74513 0.25377
 C1561 C 0.46325 0.75404 0.24580
 C1562 C 0.47486 0.75676 0.24358
 N1563 N 0.48194 0.74981 0.24998
 C1564 C 0.47860 0.76530 0.23548
 C1565 C 0.49041 0.76784 0.23279
 C1566 C 0.49393 0.77497 0.22367
 C1567 C 0.50594 0.77501 0.22368
 C1568 C 0.50950 0.76790 0.23281
 N1569 N 0.49996 0.76374 0.23844
 C1570 C 0.52133 0.76546 0.23555
 H1571 H 0.54444 0.75846 0.24231
 H1572 H 0.54449 0.74156 0.25779
 H1573 H 0.49997 0.75907 0.24615
 H1574 H 0.51158 0.72058 0.28283
 H1575 H 0.48856 0.72041 0.28270
 H1576 H 0.45559 0.74099 0.25738
 H1577 H 0.45554 0.75800 0.24202
 H1578 H 0.51143 0.77962 0.21753
 H1579 H 0.50007 0.74064 0.25388
 H1580 H 0.48842 0.77955 0.21751
 C1581 C 0.03666 0.75443 0.25379
 C1582 C 0.03664 0.74561 0.24575
 C1583 C 0.02502 0.74303 0.24346
 N1584 N 0.01798 0.74999 0.24989
 C1585 C 0.02504 0.75697 0.25622
 C1586 C 0.02123 0.73463 0.23526
 C1587 C 0.00940 0.73216 0.23261
 C1588 C 0.00581 0.72519 0.22341
 C1589 C -0.00620 0.72510 0.22357
 C1590 C -0.00968 0.73200 0.23287
 N1591 N -0.00011 0.73610 0.23845
 C1592 C -0.02149 0.73427 0.23584
 C1593 C -0.02523 0.74265 0.24408
 C1594 C -0.03684 0.74507 0.24664
 C1595 C -0.03683 0.75396 0.25461
 C1596 C -0.02521 0.75669 0.25674
 N1597 N -0.01817 0.74977 0.25028
 C1598 C -0.02143 0.76522 0.26480
 C1599 C -0.00960 0.76775 0.26743
 C1600 C -0.00603 0.77486 0.27652
 C1601 C 0.00598 0.77489 0.27644
 C1602 C 0.00949 0.76781 0.26728
 N1603 N -0.00008 0.76366 0.26171
 C1604 C 0.02130 0.76539 0.26444
 H1605 H 0.04437 0.75846 0.25747
 H1606 H 0.04434 0.74161 0.24197
 H1607 H -0.00012 0.75901 0.25400
 H1608 H 0.01127 0.72074 0.21712
 H1609 H -0.01174 0.72058 0.21741
 H1610 H -0.04455 0.74093 0.24308
 H1611 H -0.04453 0.75789 0.25845
 H1612 H 0.01151 0.77949 0.28255
 H1613 H -0.00006 0.74057 0.24628
 H1614 H -0.01151 0.77943 0.28272
 C1615 C 0.46308 0.74520 0.74675
 C1616 C 0.46308 0.75411 0.75470
 C1617 C 0.47470 0.75686 0.75683
 N1618 N 0.48175 0.74991 0.75039
 C1619 C 0.47469 0.74278 0.74421
 C1620 C 0.47847 0.76541 0.76487
 C1621 C 0.49030 0.76795 0.76748
 C1622 C 0.49386 0.77511 0.77655
 C1623 C 0.50588 0.77515 0.77647
 C1624 C 0.50939 0.76802 0.76734
 N1625 N 0.49982 0.76385 0.76179
 C1626 C 0.52120 0.76558 0.76453
 C1627 C 0.52495 0.75714 0.75634
 C1628 C 0.53657 0.75459 0.75393
 C1629 C 0.53656 0.74574 0.74591
 C1630 C 0.52494 0.74315 0.74363
 N1631 N 0.51789 0.75014 0.75002
 C1632 C 0.52116 0.73472 0.73546
 C1633 C 0.50933 0.73224 0.73281
 C1634 C 0.50575 0.72523 0.72363
 C1635 C 0.49373 0.72513 0.72378
 C1636 C 0.49024 0.73208 0.73305
 N1637 N 0.49981 0.73620 0.73862
 C1638 C 0.47844 0.73437 0.73599
 H1639 H 0.45537 0.74105 0.74320
 H1640 H 0.45538 0.75806 0.75852
 H1641 H 0.49986 0.74071 0.74643
 H1642 H 0.48838 0.77970 0.78273
 H1643 H 0.51140 0.77978 0.78256
 H1644 H 0.54428 0.75863 0.75760
 H1645 H 0.54425 0.74173 0.74215
 H1646 H 0.48820 0.72058 0.71764
 H1647 H 0.49979 0.75916 0.75410
 H1648 H 0.51121 0.72077 0.71735
 C1649 C 0.38337 0.31777 0.31766
 C1650 C 0.39196 0.31354 0.31326
 C1651 C 0.40213 0.30841 0.30794
 C1652 C 0.40140 0.30380 0.29669
 C1653 C 0.41120 0.29866 0.29154
 C1654 C 0.42189 0.29805 0.29757
 C1655 C 0.42256 0.30277 0.30886
 C1656 C 0.41273 0.30790 0.31401
 C1657 C 0.43224 0.29239 0.29215
 C1658 C 0.44346 0.29727 0.29334
 C1659 C 0.45315 0.29196 0.28807
 C1660 C 0.45172 0.28171 0.28159
 C1661 C 0.44060 0.27676 0.28043
 C1662 C 0.43093 0.28205 0.28567
 C1663 C 0.46154 0.27626 0.27595
 C1664 C 0.46944 0.27141 0.27095
 H1665 H 0.39325 0.30418 0.29190
 H1666 H 0.41045 0.29525 0.28278
 H1667 H 0.43062 0.30231 0.31377
 H1668 H 0.41337 0.31140 0.32274
 H1669 H 0.44473 0.30529 0.29817
 H1670 H 0.46171 0.29589 0.28897
 H1671 H 0.43941 0.26881 0.27546
 H1672 H 0.42244 0.27799 0.28473
 C1673 C 0.38358 0.81843 0.81786
 C1674 C 0.39213 0.81414 0.81345
 C1675 C 0.40228 0.80895 0.80814
 C1676 C 0.41290 0.80849 0.81418
 C1677 C 0.42271 0.80330 0.80905
 C1678 C 0.42201 0.79847 0.79781
 C1679 C 0.41131 0.79906 0.79179
 C1680 C 0.40152 0.80426 0.79693
 C1681 C 0.43233 0.79276 0.79242
 C1682 C 0.43100 0.78238 0.78600
 C1683 C 0.44066 0.77704 0.78079
 C1684 C 0.45178 0.78198 0.78191
 C1685 C 0.45324 0.79226 0.78833
 C1686 C 0.44357 0.79761 0.79358
 C1687 C 0.46158 0.77650 0.77626
 C1688 C 0.46946 0.77162 0.77124
 H1689 H 0.41357 0.81207 0.82288
 H1690 H 0.43078 0.80287 0.81395
 H1691 H 0.41053 0.79558 0.78307
 H1692 H 0.39336 0.80461 0.79216
 H1693 H 0.42250 0.77833 0.78509
 H1694 H 0.43944 0.76907 0.77585
 H1695 H 0.46181 0.79617 0.78922
 H1696 H 0.44486 0.80565 0.79836
 C1697 C -0.11656 0.31838 0.81776
 C1698 C -0.10799 0.31413 0.81336
 C1699 C -0.09782 0.30896 0.80805
 C1700 C -0.09856 0.30429 0.79683
 C1701 C -0.08877 0.29909 0.79171
 C1702 C -0.07808 0.29850 0.79775
 C1703 C -0.07740 0.30329 0.80900
 C1704 C -0.08722 0.30847 0.81412
 C1705 C -0.06774 0.29279 0.79235
 C1706 C -0.05651 0.29766 0.79349
 C1707 C -0.04684 0.29232 0.78824
 C1708 C -0.04829 0.28203 0.78182
 C1709 C -0.05941 0.27709 0.78071
 C1710 C -0.06907 0.28242 0.78592
 C1711 C -0.03849 0.27657 0.77615
 C1712 C -0.03061 0.27172 0.77111
 H1713 H -0.10671 0.30464 0.79205
 H1714 H -0.08953 0.29562 0.78298
 H1715 H -0.06934 0.30285 0.81392
 H1716 H -0.08657 0.31202 0.82283
 H1717 H -0.05523 0.30571 0.79827
 H1718 H -0.03827 0.29625 0.78910
 H1719 H -0.06063 0.26912 0.77577
 H1720 H -0.07757 0.27837 0.78502
 C1721 C -0.11643 0.81816 0.31766
 C1722 C -0.10785 0.81391 0.31328
 C1723 C -0.09767 0.80875 0.30798
 C1724 C -0.09840 0.80406 0.29677
 C1725 C -0.08860 0.79887 0.29166
 C1726 C -0.07791 0.79830 0.29770
 C1727 C -0.07724 0.80312 0.30895
 C1728 C -0.08707 0.80829 0.31405
 C1729 C -0.06758 0.79258 0.29233
 C1730 C -0.05634 0.79744 0.29349
 C1731 C -0.04667 0.79208 0.28826
 C1732 C -0.04811 0.78179 0.28185
 C1733 C -0.05924 0.77686 0.28072
 C1734 C -0.06890 0.78220 0.28591
 C1735 C -0.03831 0.77631 0.27621
 C1736 C -0.03044 0.77143 0.27119
 H1737 H -0.10655 0.80440 0.29198
 H1738 H -0.08936 0.79539 0.28294
 H1739 H -0.06919 0.80269 0.31387
 H1740 H -0.08643 0.81186 0.32276
 H1741 H -0.05506 0.80550 0.29826
 H1742 H -0.03809 0.79600 0.28914
 H1743 H -0.06045 0.76889 0.27578
 H1744 H -0.07740 0.77816 0.28499
 C1745 C 0.61654 0.68215 0.31789
 C1746 C 0.60796 0.68638 0.31349
 C1747 C 0.59778 0.69152 0.30817
 C1748 C 0.58720 0.69208 0.31427
 C1749 C 0.57737 0.69720 0.30912
 C1750 C 0.57801 0.70187 0.29781
 C1751 C 0.58868 0.70120 0.29173
 C1752 C 0.59848 0.69606 0.29688
 C1753 C 0.56766 0.70753 0.29238
 C1754 C 0.56897 0.71782 0.28580
 C1755 C 0.55930 0.72309 0.28055
 C1756 C 0.54817 0.71818 0.28180
 C1757 C 0.54674 0.70799 0.28839
 C1758 C 0.55642 0.70270 0.29367
 C1759 C 0.53835 0.72360 0.27612
 C1760 C 0.53047 0.72843 0.27108
 H1761 H 0.58657 0.68861 0.32302
 H1762 H 0.56932 0.69770 0.31407
 H1763 H 0.58941 0.70456 0.28295
 H1764 H 0.60662 0.69564 0.29206
 H1765 H 0.57747 0.72185 0.28479
 H1766 H 0.56050 0.73100 0.27549
 H1767 H 0.53817 0.70409 0.28937
 H1768 H 0.55515 0.69472 0.29858
 C1769 C 0.61666 0.18217 0.81754
 C1770 C 0.60807 0.18647 0.81322
 C1771 C 0.59785 0.19169 0.80808
 C1772 C 0.58673 0.18725 0.81057
 C1773 C 0.57681 0.19240 0.80563
 C1774 C 0.57789 0.20209 0.79816
 C1775 C 0.58911 0.20646 0.79569
 C1776 C 0.59902 0.20129 0.80062
 C1777 C 0.56738 0.20762 0.79292
 C1778 C 0.56661 0.21985 0.79192
 C1779 C 0.55689 0.22506 0.78667
 C1780 C 0.54780 0.21814 0.78237
 C1781 C 0.54840 0.20597 0.78345
 C1782 C 0.55811 0.20073 0.78871
 C1783 C 0.53814 0.22356 0.77645
 C1784 C 0.53033 0.22837 0.77127
 H1785 H 0.58573 0.17984 0.81636
 H1786 H 0.56828 0.18891 0.80780
 H1787 H 0.59025 0.21378 0.78983
 H1788 H 0.60759 0.20477 0.79861
 H1789 H 0.57351 0.22540 0.79523
 H1790 H 0.55652 0.23449 0.78588
 H1791 H 0.54143 0.20052 0.78008
 H1792 H 0.55850 0.19129 0.78924
 C1793 C 1.11651 0.68258 0.81784
 C1794 C 1.10792 0.68690 0.81352
 C1795 C 1.09772 0.69212 0.80835
 C1796 C 1.08654 0.68842 0.81162
 C1797 C 1.07664 0.69357 0.80663
 C1798 C 1.07781 0.70252 0.79831
 C1799 C 1.08911 0.70615 0.79505
 C1800 C 1.09898 0.70098 0.80004
 C1801 C 1.06734 0.70806 0.79302
 C1802 C 1.06705 0.72019 0.79100
 C1803 C 1.05735 0.72538 0.78572
 C1804 C 1.04779 0.71855 0.78239
 C1805 C 1.04791 0.70650 0.78448
 C1806 C 1.05761 0.70128 0.78978
 C1807 C 1.03810 0.72391 0.77644
 C1808 C 1.03029 0.72868 0.77123
 H1809 H 1.08547 0.68158 0.81806
 H1810 H 1.06807 0.69066 0.80940
 H1811 H 1.09031 0.71288 0.78854
 H1812 H 1.10760 0.70388 0.79741
 H1813 H 1.07432 0.72567 0.79355
 H1814 H 1.05734 0.73472 0.78414
 H1815 H 1.04057 0.70112 0.78187
 H1816 H 1.05762 0.69191 0.79110
 C1817 C 1.11669 0.18253 0.31739
 C1818 C 1.10794 0.18659 0.31314
 C1819 C 1.09753 0.19147 0.30804
 C1820 C 1.09603 0.19129 0.29596
 C1821 C 1.08599 0.19615 0.29097
 C1822 C 1.07731 0.20127 0.29801
 C1823 C 1.07888 0.20136 0.31015
 C1824 C 1.08893 0.19648 0.31513
 C1825 C 1.06678 0.20667 0.29267
 C1826 C 1.06239 0.21736 0.29687
 C1827 C 1.05274 0.22265 0.29158
 C1828 C 1.04732 0.21732 0.28205
 C1829 C 1.05151 0.20661 0.27791
 C1830 C 1.06118 0.20131 0.28318
 C1831 C 1.03782 0.22311 0.27619
 C1832 C 1.03011 0.22815 0.27109
 H1833 H 1.10265 0.18747 0.29039
 H1834 H 1.08512 0.19610 0.28159
 H1835 H 1.07231 0.20511 0.31581
 H1836 H 1.08998 0.19663 0.32449
 H1837 H 1.06661 0.22178 0.30406
 H1838 H 1.04962 0.23099 0.29479
 H1839 H 1.04739 0.20242 0.27052
 H1840 H 1.06426 0.19302 0.27983
 C1841 C 0.61619 0.31794 0.68256
 C1842 C 0.60764 0.31363 0.68694
 C1843 C 0.59748 0.30839 0.69215
 C1844 C 0.58631 0.31276 0.68969
 C1845 C 0.57644 0.30757 0.69469
 C1846 C 0.57762 0.29793 0.70220
 C1847 C 0.58889 0.29362 0.70463
 C1848 C 0.59874 0.29882 0.69963
 C1849 C 0.56718 0.29236 0.70751
 C1850 C 0.56651 0.28013 0.70854
 C1851 C 0.55684 0.27488 0.71381
 C1852 C 0.54769 0.28177 0.71811
 C1853 C 0.54820 0.29394 0.71703
 C1854 C 0.55787 0.29921 0.71175
 C1855 C 0.53805 0.27630 0.72402
 C1856 C 0.53026 0.27145 0.72917
 H1857 H 0.58523 0.32013 0.68387
 H1858 H 0.56788 0.31100 0.69254
 H1859 H 0.59011 0.28631 0.71049
 H1860 H 0.60734 0.29538 0.70162
 H1861 H 0.57345 0.27461 0.70524
 H1862 H 0.55654 0.26545 0.71462
 H1863 H 0.54120 0.29935 0.72041
 H1864 H 0.55820 0.30866 0.71122
 C1865 C 0.61635 0.81796 0.18248
 C1866 C 0.60779 0.81367 0.18687
 C1867 C 0.59763 0.80846 0.19212
 C1868 C 0.58642 0.81171 0.18844
 C1869 C 0.57655 0.80655 0.19347
 C1870 C 0.57779 0.79805 0.20224
 C1871 C 0.58910 0.79488 0.20590
 C1872 C 0.59894 0.80006 0.20087
 C1873 C 0.56735 0.79246 0.20754
 C1874 C 0.56738 0.78042 0.21007
 C1875 C 0.55770 0.77519 0.21532
 C1876 C 0.54784 0.78188 0.21811
 C1877 C 0.54766 0.79383 0.21554
 C1878 C 0.55735 0.79910 0.21026
 C1879 C 0.53815 0.77646 0.22398
 C1880 C 0.53033 0.77162 0.22911
 H1881 H 0.58531 0.81819 0.18164
 H1882 H 0.56797 0.80908 0.19038
 H1883 H 0.59034 0.78849 0.21275
 H1884 H 0.60757 0.79751 0.20381
 H1885 H 0.57487 0.77504 0.20793
 H1886 H 0.55793 0.76592 0.21728
 H1887 H 0.54010 0.79910 0.21773
 H1888 H 0.55711 0.80840 0.20854
 C1889 C 1.11637 0.31785 0.18250
 C1890 C 1.10782 0.31354 0.18689
 C1891 C 1.09767 0.30830 0.19213
 C1892 C 1.08645 0.31209 0.18902
 C1893 C 1.07660 0.30692 0.19407
 C1894 C 1.07785 0.29787 0.20228
 C1895 C 1.08917 0.29415 0.20535
 C1896 C 1.09900 0.29933 0.20030
 C1897 C 1.06742 0.29231 0.20763
 C1898 C 1.06712 0.28016 0.20946
 C1899 C 1.05745 0.27493 0.21474
 C1900 C 1.04793 0.28176 0.21826
 C1901 C 1.04808 0.29385 0.21640
 C1902 C 1.05776 0.29910 0.21110
 C1903 C 1.03824 0.27633 0.22414
 C1904 C 1.03041 0.27151 0.22925
 H1905 H 1.08532 0.31900 0.18267
 H1906 H 1.06801 0.30988 0.19143
 H1907 H 1.09043 0.28731 0.21175
 H1908 H 1.10764 0.29635 0.20279
 H1909 H 1.07435 0.27468 0.20675
 H1910 H 1.05742 0.26557 0.21615
 H1911 H 1.04079 0.29922 0.21917
 H1912 H 1.05779 0.30849 0.20994
 C1913 C 1.11621 0.81824 0.68224
 C1914 C 1.10768 0.81398 0.68669
 C1915 C 1.09755 0.80881 0.69205
 C1916 C 1.09843 0.80385 0.70314
 C1917 C 1.08867 0.79867 0.70832
 C1918 C 1.07787 0.79839 0.70246
 C1919 C 1.07705 0.80347 0.69133
 C1920 C 1.08685 0.80863 0.68616
 C1921 C 1.06755 0.79273 0.70791
 C1922 C 1.05636 0.79780 0.70702
 C1923 C 1.04670 0.79249 0.71230
 C1924 C 1.04810 0.78205 0.71849
 C1925 C 1.05917 0.77690 0.71934
 C1926 C 1.06883 0.78219 0.71410
 C1927 C 1.03830 0.77661 0.72416
 C1928 C 1.03042 0.77177 0.72918
 H1929 H 1.10667 0.80397 0.70779
 H1930 H 1.08954 0.79499 0.71696
 H1931 H 1.06890 0.80327 0.68655
 H1932 H 1.08608 0.81241 0.67755
 H1933 H 1.05512 0.80597 0.70241
 H1934 H 1.03817 0.79657 0.71162
 H1935 H 1.06034 0.76879 0.72409
 H1936 H 1.07728 0.77797 0.71479
 C1937 C 0.38372 0.68206 0.68236
 C1938 C 0.39224 0.68637 0.68678
 C1939 C 0.40234 0.69158 0.69212
 C1940 C 0.41313 0.68579 0.69191
 C1941 C 0.42291 0.69083 0.69720
 C1942 C 0.42201 0.70173 0.70278
 C1943 C 0.41114 0.70751 0.70289
 C1944 C 0.40138 0.70246 0.69759
 C1945 C 0.43233 0.70705 0.70855
 C1946 C 0.43110 0.71276 0.71932
 C1947 C 0.44075 0.71792 0.72469
 C1948 C 0.45175 0.71744 0.71940
 C1949 C 0.45311 0.71173 0.70872
 C1950 C 0.44346 0.70654 0.70333
 C1951 C 0.46153 0.72307 0.72490
 C1952 C 0.46940 0.72805 0.72978
 H1953 H 0.41396 0.67735 0.68772
 H1954 H 0.43112 0.68612 0.69708
 H1955 H 0.41020 0.71598 0.70696
 H1956 H 0.39308 0.70704 0.69777
 H1957 H 0.42269 0.71315 0.72364
 H1958 H 0.43961 0.72231 0.73296
 H1959 H 0.46159 0.71136 0.70454
 H1960 H 0.44465 0.70232 0.69498
 C1961 C 0.38406 0.18185 0.18193
 C1962 C 0.39259 0.18618 0.18632
 C1963 C 0.40270 0.19142 0.19162
 C1964 C 0.40190 0.20260 0.19647
 C1965 C 0.41165 0.20768 0.20173
 C1966 C 0.42237 0.20164 0.20222
 C1967 C 0.42311 0.19042 0.19726
 C1968 C 0.41332 0.18534 0.19201
 C1969 C 0.43267 0.20699 0.20799
 C1970 C 0.44393 0.20590 0.20315
 C1971 C 0.45357 0.21109 0.20857
 C1972 C 0.45206 0.21739 0.21890
 C1973 C 0.44092 0.21845 0.22381
 C1974 C 0.43129 0.21330 0.21840
 C1975 C 0.46184 0.22297 0.22445
 C1976 C 0.46970 0.22793 0.22938
 H1977 H 0.39373 0.20739 0.19619
 H1978 H 0.41084 0.21639 0.20533
 H1979 H 0.43118 0.18548 0.19763
 H1980 H 0.41402 0.17666 0.18832
 H1981 H 0.44525 0.20122 0.19507
 H1982 H 0.46215 0.21027 0.20468
 H1983 H 0.43966 0.22330 0.23181
 H1984 H 0.42277 0.21415 0.22243
 C1985 C -0.11642 0.68218 0.18240
 C1986 C -0.10787 0.68645 0.18679
 C1987 C -0.09773 0.69163 0.19210
 C1988 C -0.09865 0.70249 0.19759
 C1989 C -0.08886 0.70750 0.20286
 C1990 C -0.07800 0.70170 0.20270
 C1991 C -0.07715 0.69081 0.19709
 C1992 C -0.08697 0.68580 0.19183
 C1993 C -0.06766 0.70699 0.20845
 C1994 C -0.05655 0.70649 0.20319
 C1995 C -0.04688 0.71166 0.20857
 C1996 C -0.04819 0.71736 0.21926
 C1997 C -0.05919 0.71783 0.22458
 C1998 C -0.06885 0.71269 0.21923
 C1999 C -0.03840 0.72297 0.22475
 C2000 C -0.03053 0.72795 0.22963
 H2001 H -0.10693 0.70709 0.19781
 H2002 H -0.08976 0.71597 0.20697
 H2003 H -0.06895 0.68607 0.19694
 H2004 H -0.08618 0.67737 0.18762
 H2005 H -0.05538 0.70230 0.19483
 H2006 H -0.03841 0.71131 0.20435
 H2007 H -0.06030 0.72223 0.23286
 H2008 H -0.07725 0.71310 0.22356
 C2009 C -0.11623 0.18199 0.68218
 C2010 C -0.10772 0.18628 0.68662
 C2011 C -0.09763 0.19147 0.69200
 C2012 C -0.09845 0.19602 0.70327
 C2013 C -0.08870 0.20117 0.70849
 C2014 C -0.07798 0.20183 0.70251
 C2015 C -0.07723 0.19717 0.69120
 C2016 C -0.08700 0.19204 0.68598
 C2017 C -0.06769 0.20745 0.70803
 C2018 C -0.05643 0.20259 0.70684
 C2019 C -0.04680 0.20787 0.71218
 C2020 C -0.04829 0.21807 0.71873
 C2021 C -0.05943 0.22298 0.71991
 C2022 C -0.06906 0.21773 0.71460
 C2023 C -0.03851 0.22351 0.72440
 C2024 C -0.03064 0.22838 0.72941
 H2025 H -0.10662 0.19560 0.70801
 H2026 H -0.08953 0.20453 0.71725
 H2027 H -0.06914 0.19768 0.68632
 H2028 H -0.08628 0.18857 0.67724
 H2029 H -0.05512 0.19462 0.70195
 H2030 H -0.03821 0.20396 0.71126
 H2031 H -0.06068 0.23088 0.72495
 H2032 H -0.07758 0.22177 0.71555
 C2033 C 0.31728 0.38347 0.31784
 C2034 C 0.31303 0.39206 0.31347
 C2035 C 0.30788 0.40225 0.30817
 C2036 C 0.31305 0.41324 0.30960
 C2037 C 0.30806 0.42311 0.30439
 C2038 C 0.29784 0.42209 0.29766
 C2039 C 0.29270 0.41100 0.29631
 C2040 C 0.29770 0.40116 0.30153
 C2041 C 0.29254 0.43251 0.29201
 C2042 C 0.28799 0.43174 0.28067
 C2043 C 0.28276 0.44145 0.27543
 C2044 C 0.28201 0.45206 0.28142
 C2045 C 0.28660 0.45296 0.29267
 C2046 C 0.29186 0.44326 0.29794
 C2047 C 0.27621 0.46183 0.27606
 C2048 C 0.27108 0.46969 0.27127
 H2049 H 0.32096 0.41417 0.31470
 H2050 H 0.31228 0.43149 0.30548
 H2051 H 0.28475 0.40996 0.29131
 H2052 H 0.29361 0.39270 0.30040
 H2053 H 0.28853 0.42365 0.27582
 H2054 H 0.27923 0.44065 0.26672
 H2055 H 0.28600 0.46112 0.29742
 H2056 H 0.29516 0.44408 0.30673
 C2057 C 0.31844 -0.11655 0.81784
 C2058 C 0.31412 -0.10800 0.81346
 C2059 C 0.30887 -0.09786 0.80819
 C2060 C 0.30355 -0.09875 0.79728
 C2061 C 0.29829 -0.08897 0.79220
 C2062 C 0.29829 -0.07813 0.79799
 C2063 C 0.30374 -0.07730 0.80893
 C2064 C 0.30898 -0.08711 0.81400
 C2065 C 0.29250 -0.06780 0.79267
 C2066 C 0.29762 -0.05664 0.79335
 C2067 C 0.29217 -0.04697 0.78823
 C2068 C 0.28152 -0.04833 0.78240
 C2069 C 0.27633 -0.05937 0.78173
 C2070 C 0.28177 -0.06904 0.78683
 C2071 C 0.27591 -0.03852 0.77689
 C2072 C 0.27090 -0.03064 0.77200
 H2073 H 0.30344 -0.10702 0.79269
 H2074 H 0.29432 -0.08986 0.78370
 H2075 H 0.30376 -0.06912 0.81366
 H2076 H 0.31305 -0.08633 0.82248
 H2077 H 0.30594 -0.05543 0.79768
 H2078 H 0.29628 -0.03846 0.78875
 H2079 H 0.26808 -0.06052 0.77724
 H2080 H 0.27751 -0.07747 0.78629
 C2081 C 0.81774 0.38366 0.81812
 C2082 C 0.81348 0.39224 0.81374
 C2083 C 0.80832 0.40242 0.80844
 C2084 C 0.81371 0.41334 0.80951
 C2085 C 0.80871 0.42320 0.80429
 C2086 C 0.79825 0.42225 0.79791
 C2087 C 0.79289 0.41123 0.79695
 C2088 C 0.79789 0.40139 0.80218
 C2089 C 0.79295 0.43266 0.79225
 C2090 C 0.78802 0.43177 0.78108
 C2091 C 0.78277 0.44146 0.77584
 C2092 C 0.78238 0.45218 0.78167
 C2093 C 0.78737 0.45322 0.79274
 C2094 C 0.79265 0.44352 0.79800
 C2095 C 0.77653 0.46195 0.77633
 C2096 C 0.77135 0.46978 0.77156
 H2097 H 0.82180 0.41423 0.81432
 H2098 H 0.81310 0.43154 0.80509
 H2099 H 0.78474 0.41024 0.79225
 H2100 H 0.79362 0.39299 0.80134
 H2101 H 0.78827 0.42359 0.77636
 H2102 H 0.77894 0.44057 0.76727
 H2103 H 0.78707 0.46147 0.79734
 H2104 H 0.79627 0.44444 0.80665
 C2105 C 0.81798 -0.11645 0.31830
 C2106 C 0.81371 -0.10785 0.31395
 C2107 C 0.80854 -0.09767 0.30868
 C2108 C 0.80396 -0.09833 0.29741
 C2109 C 0.79874 -0.08853 0.29233
 C2110 C 0.79805 -0.07790 0.29845
 C2111 C 0.80277 -0.07729 0.30974
 C2112 C 0.80797 -0.08712 0.31482
 C2113 C 0.79228 -0.06757 0.29311
 C2114 C 0.79706 -0.05631 0.29439
 C2115 C 0.79164 -0.04663 0.28922
 C2116 C 0.78138 -0.04810 0.28275
 C2117 C 0.77654 -0.05925 0.28150
 C2118 C 0.78194 -0.06892 0.28663
 C2119 C 0.77582 -0.03829 0.27721
 C2120 C 0.77085 -0.03042 0.27227
 H2121 H 0.80439 -0.10644 0.29257
 H2122 H 0.79534 -0.08924 0.28357
 H2123 H 0.80225 -0.06928 0.31471
 H2124 H 0.81146 -0.08652 0.32356
 H2125 H 0.80508 -0.05502 0.29921
 H2126 H 0.79548 -0.03804 0.29020
 H2127 H 0.76859 -0.06048 0.27652
 H2128 H 0.77796 -0.07744 0.28562
 C2129 C 0.31803 0.61610 0.68217
 C2130 C 0.31374 0.60754 0.68655
 C2131 C 0.30854 0.59740 0.69185
 C2132 C 0.29733 0.59814 0.69667
 C2133 C 0.29228 0.58835 0.70193
 C2134 C 0.29838 0.57768 0.70244
 C2135 C 0.30962 0.57700 0.69750
 C2136 C 0.31466 0.58681 0.69225
 C2137 C 0.29304 0.56734 0.70818
 C2138 C 0.29415 0.55612 0.70329
 C2139 C 0.28889 0.54645 0.70861
 C2140 C 0.28249 0.54789 0.71889
 C2141 C 0.28145 0.55899 0.72389
 C2142 C 0.28668 0.56865 0.71858
 C2143 C 0.27672 0.53811 0.72427
 C2144 C 0.27158 0.53025 0.72903
 H2145 H 0.29249 0.60628 0.69636
 H2146 H 0.28354 0.58911 0.70549
 H2147 H 0.31458 0.56894 0.69786
 H2148 H 0.32336 0.58614 0.68856
 H2149 H 0.29890 0.55485 0.69523
 H2150 H 0.28971 0.53790 0.70466
 H2151 H 0.27654 0.56020 0.73186
 H2152 H 0.28583 0.57713 0.72267
 C2153 C 0.31821 1.11604 0.18211
 C2154 C 0.31389 1.10752 0.18653
 C2155 C 0.30864 1.09741 0.19185
 C2156 C 0.30895 1.08659 0.18619
 C2157 C 0.30371 1.07682 0.19130
 C2158 C 0.29805 1.07777 0.20214
 C2159 C 0.29787 1.08867 0.20779
 C2160 C 0.30313 1.09842 0.20267
 C2161 C 0.29226 1.06747 0.20749
 C2162 C 0.28140 1.06871 0.21312
 C2163 C 0.27598 1.05907 0.21826
 C2164 C 0.28130 1.04806 0.21784
 C2165 C 0.29207 1.04670 0.21222
 C2166 C 0.29752 1.05634 0.20705
 C2167 C 0.27570 1.03828 0.22339
 C2168 C 0.27072 1.03041 0.22829
 H2169 H 0.31318 1.08572 0.17780
 H2170 H 0.30389 1.06857 0.18669
 H2171 H 0.29375 1.08965 0.21622
 H2172 H 0.30289 1.10675 0.20714
 H2173 H 0.27704 1.07711 0.21345
 H2174 H 0.26763 1.06020 0.22257
 H2175 H 0.29628 1.03822 0.21189
 H2176 H 0.30592 1.05514 0.20289
 C2177 C 0.81787 0.61626 0.18217
 C2178 C 0.81359 0.60769 0.18652
 C2179 C 0.80837 0.59754 0.19178
 C2180 C 0.80227 0.59860 0.20228
 C2181 C 0.79705 0.58880 0.20734
 C2182 C 0.79785 0.57779 0.20195
 C2183 C 0.80408 0.57679 0.19144
 C2184 C 0.80929 0.58661 0.18638
 C2185 C 0.79210 0.56743 0.20724
 C2186 C 0.79772 0.55648 0.20736
 C2187 C 0.79233 0.54680 0.21251
 C2188 C 0.78125 0.54794 0.21755
 C2189 C 0.77555 0.55877 0.21738
 C2190 C 0.78093 0.56845 0.21226
 C2191 C 0.77572 0.53815 0.22316
 C2192 C 0.77078 0.53029 0.22811
 H2193 H 0.80155 0.60701 0.20655
 H2194 H 0.79247 0.58982 0.21552
 H2195 H 0.80475 0.56846 0.18702
 H2196 H 0.81397 0.58570 0.17823
 H2197 H 0.80637 0.55545 0.20366
 H2198 H 0.79683 0.53846 0.21264
 H2199 H 0.76696 0.55974 0.22123
 H2200 H 0.77629 0.57670 0.21213
 C2201 C 0.81801 1.11611 0.68208
 C2202 C 0.81371 1.10758 0.68651
 C2203 C 0.80850 1.09748 0.69187
 C2204 C 0.80817 1.08681 0.68594
 C2205 C 0.80297 1.07704 0.69112
 C2206 C 0.79801 1.07784 0.70230
 C2207 C 0.79845 1.08860 0.70821
 C2208 C 0.80367 1.09834 0.70302
 C2209 C 0.79226 1.06756 0.70774
 C2210 C 0.78179 1.06894 0.71401
 C2211 C 0.77638 1.05932 0.71921
 C2212 C 0.78135 1.04819 0.71822
 C2213 C 0.79176 1.04669 0.71199
 C2214 C 0.79718 1.05632 0.70676
 C2215 C 0.77574 1.03841 0.72378
 C2216 C 0.77075 1.03055 0.72868
 H2217 H 0.81186 1.08605 0.67729
 H2218 H 0.80264 1.06892 0.68630
 H2219 H 0.79486 1.08946 0.71688
 H2220 H 0.80391 1.10655 0.70771
 H2221 H 0.77770 1.07745 0.71480
 H2222 H 0.76832 1.06058 0.72401
 H2223 H 0.79571 1.03812 0.71124
 H2224 H 0.80532 1.05500 0.70212
 C2225 C 0.68262 0.61641 0.31811
 C2226 C 0.68693 0.60784 0.31376
 C2227 C 0.69216 0.59768 0.30851
 C2228 C 0.68604 0.58711 0.30811
 C2229 C 0.69111 0.57728 0.30291
 C2230 C 0.70237 0.57793 0.29800
 C2231 C 0.70846 0.58860 0.29850
 C2232 C 0.70339 0.59839 0.30372
 C2233 C 0.70772 0.56758 0.29230
 C2234 C 0.71408 0.56887 0.28190
 C2235 C 0.71929 0.55919 0.27661
 C2236 C 0.71822 0.54809 0.28161
 C2237 C 0.71185 0.54668 0.29191
 C2238 C 0.70660 0.55636 0.29722
 C2239 C 0.72391 0.53828 0.27620
 C2240 C 0.72896 0.53039 0.27139
 H2241 H 0.67734 0.58647 0.31177
 H2242 H 0.68616 0.56923 0.30255
 H2243 H 0.71720 0.58933 0.29496
 H2244 H 0.70822 0.60653 0.30402
 H2245 H 0.71495 0.57735 0.27781
 H2246 H 0.72419 0.56038 0.26862
 H2247 H 0.71101 0.53813 0.29588
 H2248 H 0.70186 0.55512 0.30528
 C2249 C 0.68214 1.11664 0.81811
 C2250 C 0.68644 1.10808 0.81375
 C2251 C 0.69166 1.09792 0.80850
 C2252 C 0.69037 1.08692 0.81368
 C2253 C 0.69555 1.07707 0.80862
 C2254 C 0.70214 1.07812 0.79833
 C2255 C 0.70334 1.08922 0.79317
 C2256 C 0.69813 1.09904 0.79822
 C2257 C 0.70785 1.06774 0.79304
 C2258 C 0.71919 1.06859 0.78838
 C2259 C 0.72453 1.05890 0.78325
 C2260 C 0.71863 1.04821 0.78269
 C2261 C 0.70738 1.04722 0.78737
 C2262 C 0.70202 1.05692 0.79254
 C2263 C 0.72412 1.03841 0.77706
 C2264 C 0.72904 1.03054 0.77209
 H2265 H 0.68540 1.08596 0.82165
 H2266 H 0.69459 1.06868 0.81287
 H2267 H 0.70821 1.09029 0.78516
 H2268 H 0.69916 1.10750 0.79412
 H2269 H 0.72398 1.07674 0.78880
 H2270 H 0.73325 1.05975 0.77966
 H2271 H 0.70271 1.03900 0.78694
 H2272 H 0.69324 1.05602 0.79595
 C2273 C 0.18211 0.61634 0.81778
 C2274 C 0.18638 0.60777 0.81339
 C2275 C 0.19155 0.59761 0.80810
 C2276 C 0.19636 0.59839 0.79693
 C2277 C 0.20153 0.58860 0.79180
 C2278 C 0.20198 0.57787 0.79779
 C2279 C 0.19704 0.57715 0.80899
 C2280 C 0.19188 0.58697 0.81411
 C2281 C 0.20771 0.56754 0.79242
 C2282 C 0.20280 0.55632 0.79354
 C2283 C 0.20820 0.54664 0.78839
 C2284 C 0.21858 0.54806 0.78209
 C2285 C 0.22355 0.55917 0.78099
 C2286 C 0.21817 0.56884 0.78611
 C2287 C 0.22416 0.53823 0.77661
 C2288 C 0.22916 0.53033 0.77174
 H2289 H 0.19611 0.60658 0.79219
 H2290 H 0.20509 0.58939 0.78310
 H2291 H 0.19735 0.56906 0.81386
 H2292 H 0.18820 0.58628 0.82277
 H2293 H 0.19469 0.55506 0.79824
 H2294 H 0.20427 0.53807 0.78927
 H2295 H 0.23160 0.56035 0.77616
 H2296 H 0.22226 0.57732 0.78524
 C2297 C 0.18270 1.11673 0.31751
 C2298 C 0.18698 1.10811 0.31325
 C2299 C 0.19222 1.09788 0.30816
 C2300 C 0.18861 1.08672 0.31160
 C2301 C 0.19381 1.07679 0.30672
 C2302 C 0.20272 1.07792 0.29834
 C2303 C 0.20625 1.08919 0.29492
 C2304 C 0.20103 1.09909 0.29980
 C2305 C 0.20835 1.06743 0.29319
 C2306 C 0.22048 1.06723 0.29118
 C2307 C 0.22577 1.05750 0.28606
 C2308 C 0.21903 1.04782 0.28290
 C2309 C 0.20696 1.04786 0.28494
 C2310 C 0.20165 1.05760 0.29008
 C2311 C 0.22451 1.03809 0.27713
 C2312 C 0.22939 1.03026 0.27206
 H2313 H 0.18183 1.08569 0.31811
 H2314 H 0.19101 1.06824 0.30963
 H2315 H 0.21296 1.09036 0.28838
 H2316 H 0.20387 1.10769 0.29705
 H2317 H 0.22589 1.07459 0.29360
 H2318 H 0.23511 1.05756 0.28449
 H2319 H 0.20166 1.04045 0.28243
 H2320 H 0.19227 1.05755 0.29138
 C2321 C 0.68213 0.38365 0.68232
 C2322 C 0.68644 0.39217 0.68674
 C2323 C 0.69167 0.40227 0.69206
 C2324 C 0.68603 0.41312 0.69158
 C2325 C 0.69111 0.42291 0.69681
 C2326 C 0.70190 0.42195 0.70262
 C2327 C 0.70750 0.41100 0.70302
 C2328 C 0.70242 0.40124 0.69777
 C2329 C 0.70728 0.43228 0.70829
 C2330 C 0.71279 0.43116 0.71918
 C2331 C 0.71807 0.44081 0.72443
 C2332 C 0.71792 0.45171 0.71890
 C2333 C 0.71239 0.45295 0.70811
 C2334 C 0.70707 0.44330 0.70284
 C2335 C 0.72370 0.46147 0.72426
 C2336 C 0.72879 0.46935 0.72902
 H2337 H 0.67769 0.41401 0.68720
 H2338 H 0.68652 0.43119 0.69646
 H2339 H 0.71589 0.41001 0.70727
 H2340 H 0.70688 0.39288 0.69816
 H2341 H 0.71295 0.42285 0.72367
 H2342 H 0.72232 0.43976 0.73279
 H2343 H 0.71226 0.46134 0.70373
 H2344 H 0.70301 0.44441 0.69440
 C2345 C 0.68234 -0.11640 0.18230
 C2346 C 0.68667 -0.10790 0.18673
 C2347 C 0.69189 -0.09781 0.19206
 C2348 C 0.70260 -0.09886 0.19786
 C2349 C 0.70768 -0.08910 0.20311
 C2350 C 0.70212 -0.07813 0.20264
 C2351 C 0.69137 -0.07715 0.19676
 C2352 C 0.68629 -0.08694 0.19152
 C2353 C 0.70750 -0.06780 0.20831
 C2354 C 0.70735 -0.05679 0.20283
 C2355 C 0.71264 -0.04714 0.20812
 C2356 C 0.71809 -0.04837 0.21895
 C2357 C 0.71819 -0.05926 0.22450
 C2358 C 0.71294 -0.06890 0.21923
 C2359 C 0.72385 -0.03861 0.22434
 C2360 C 0.72893 -0.03073 0.22912
 H2361 H 0.70702 -0.10723 0.19831
 H2362 H 0.71603 -0.09011 0.20743
 H2363 H 0.68681 -0.06886 0.19636
 H2364 H 0.67798 -0.08604 0.18709
 H2365 H 0.70334 -0.05569 0.19437
 H2366 H 0.71256 -0.03875 0.20373
 H2367 H 0.72239 -0.06030 0.23289
 H2368 H 0.71305 -0.07721 0.22374
 C2369 C 0.18213 0.38376 0.18208
 C2370 C 0.18643 0.39230 0.18646
 C2371 C 0.19164 0.40243 0.19174
 C2372 C 0.20233 0.40142 0.19756
 C2373 C 0.20739 0.41121 0.20279
 C2374 C 0.20181 0.42216 0.20227
 C2375 C 0.19108 0.42311 0.19635
 C2376 C 0.18603 0.41330 0.19114
 C2377 C 0.20716 0.43253 0.20792
 C2378 C 0.20702 0.44352 0.20240
 C2379 C 0.21231 0.45319 0.20766
 C2380 C 0.21776 0.45199 0.21850
 C2381 C 0.21784 0.44113 0.22409
 C2382 C 0.21258 0.43147 0.21886
 C2383 C 0.22355 0.46176 0.22384
 C2384 C 0.22868 0.46963 0.22859
 H2385 H 0.20677 0.39306 0.19805
 H2386 H 0.21574 0.41023 0.20713
 H2387 H 0.18651 0.43139 0.19591
 H2388 H 0.17773 0.41417 0.18668
 H2389 H 0.20303 0.44458 0.19392
 H2390 H 0.21225 0.46155 0.20323
 H2391 H 0.22203 0.44012 0.23249
 H2392 H 0.21268 0.42317 0.22341
 C2393 C 0.18239 -0.11631 0.68188
 C2394 C 0.18672 -0.10780 0.68629
 C2395 C 0.19195 -0.09770 0.69163
 C2396 C 0.20264 -0.09875 0.69744
 C2397 C 0.20768 -0.08900 0.70275
 C2398 C 0.20210 -0.07804 0.70230
 C2399 C 0.19137 -0.07706 0.69638
 C2400 C 0.18633 -0.08684 0.69109
 C2401 C 0.20744 -0.06772 0.70803
 C2402 C 0.20730 -0.05669 0.70258
 C2403 C 0.21257 -0.04706 0.70791
 C2404 C 0.21800 -0.04831 0.71875
 C2405 C 0.21807 -0.05921 0.72428
 C2406 C 0.21283 -0.06885 0.71898
 C2407 C 0.22378 -0.03857 0.72415
 C2408 C 0.22889 -0.03072 0.72893
 H2409 H 0.20708 -0.10711 0.69788
 H2410 H 0.21602 -0.09001 0.70709
 H2411 H 0.18680 -0.06878 0.69599
 H2412 H 0.17803 -0.08594 0.68663
 H2413 H 0.20333 -0.05558 0.69410
 H2414 H 0.21252 -0.03867 0.70353
 H2415 H 0.22224 -0.06027 0.73269
 H2416 H 0.21293 -0.07717 0.72347
 C2417 C 0.31761 0.31744 0.38405
 C2418 C 0.31344 0.31320 0.39271
 C2419 C 0.30843 0.30810 0.40302
 C2420 C 0.29660 0.30985 0.40558
 C2421 C 0.29167 0.30478 0.41551
 C2422 C 0.29852 0.29787 0.42301
 C2423 C 0.31043 0.29621 0.42039
 C2424 C 0.31534 0.30130 0.41046
 C2425 C 0.29322 0.29226 0.43341
 C2426 C 0.29618 0.28072 0.43646
 C2427 C 0.29091 0.27531 0.44603
 C2428 C 0.28265 0.28136 0.45270
 C2429 C 0.27973 0.29289 0.44982
 C2430 C 0.28498 0.29831 0.44024
 C2431 C 0.27681 0.27556 0.46216
 C2432 C 0.27174 0.27050 0.46986
 H2433 H 0.29116 0.31508 0.39986
 H2434 H 0.28245 0.30609 0.41719
 H2435 H 0.31596 0.29106 0.42606
 H2436 H 0.32452 0.29992 0.40858
 H2437 H 0.30235 0.27577 0.43129
 H2438 H 0.29316 0.26635 0.44813
 H2439 H 0.27333 0.29764 0.45490
 H2440 H 0.28262 0.30725 0.43819
 C2441 C 0.31795 0.81796 -0.11634
 C2442 C 0.31367 0.81380 -0.10769
 C2443 C 0.30851 0.80883 -0.09739
 C2444 C 0.29835 0.81373 -0.09268
 C2445 C 0.29321 0.80880 -0.08279
 C2446 C 0.29820 0.79890 -0.07746
 C2447 C 0.30848 0.79409 -0.08222
 C2448 C 0.31359 0.79903 -0.09213
 C2449 C 0.29259 0.79347 -0.06713
 C2450 C 0.29941 0.78924 -0.05783
 C2451 C 0.29410 0.78386 -0.04825
 C2452 C 0.28194 0.78266 -0.04784
 C2453 C 0.27508 0.78692 -0.05700
 C2454 C 0.28036 0.79231 -0.06657
 C2455 C 0.27645 0.77667 -0.03828
 C2456 C 0.27163 0.77145 -0.03053
 H2457 H 0.29437 0.82134 -0.09667
 H2458 H 0.28539 0.81279 -0.07925
 H2459 H 0.31244 0.78638 -0.07842
 H2460 H 0.32144 0.79515 -0.09572
 H2461 H 0.30883 0.79012 -0.05795
 H2462 H 0.29949 0.78058 -0.04122
 H2463 H 0.26566 0.78595 -0.05681
 H2464 H 0.27489 0.79532 -0.07365
 C2465 C 0.81723 0.31791 -0.11624
 C2466 C 0.81304 0.31369 -0.10758
 C2467 C 0.80802 0.30863 -0.09727
 C2468 C 0.79602 0.30969 -0.09513
 C2469 C 0.79111 0.30465 -0.08518
 C2470 C 0.79814 0.29845 -0.07724
 C2471 C 0.81021 0.29748 -0.07945
 C2472 C 0.81511 0.30254 -0.08939
 C2473 C 0.79287 0.29285 -0.06682
 C2474 C 0.79648 0.28164 -0.06328
 C2475 C 0.79126 0.27621 -0.05370
 C2476 C 0.78240 0.28192 -0.04751
 C2477 C 0.77885 0.29313 -0.05087
 C2478 C 0.78404 0.29857 -0.06046
 C2479 C 0.77662 0.27606 -0.03805
 C2480 C 0.77159 0.27097 -0.03035
 H2481 H 0.79046 0.31436 -0.10119
 H2482 H 0.78177 0.30542 -0.08382
 H2483 H 0.81588 0.29289 -0.07343
 H2484 H 0.82441 0.30170 -0.09095
 H2485 H 0.80313 0.27694 -0.06809
 H2486 H 0.79401 0.26749 -0.05122
 H2487 H 0.77198 0.29762 -0.04615
 H2488 H 0.78118 0.30726 -0.06289
 C2489 C 0.81781 0.81788 0.38404
 C2490 C 0.81367 0.81360 0.39270
 C2491 C 0.80873 0.80844 0.40301
 C2492 C 0.79776 0.81205 0.40702
 C2493 C 0.79288 0.80691 0.41693
 C2494 C 0.79891 0.79805 0.42296
 C2495 C 0.80998 0.79453 0.41889
 C2496 C 0.81485 0.79970 0.40899
 C2497 C 0.79360 0.79236 0.43331
 C2498 C 0.79452 0.78020 0.43490
 C2499 C 0.78924 0.77479 0.44446
 C2500 C 0.78300 0.78145 0.45257
 C2501 C 0.78211 0.79357 0.45113
 C2502 C 0.78738 0.79900 0.44156
 C2503 C 0.77713 0.77575 0.46208
 C2504 C 0.77203 0.77077 0.46981
 H2505 H 0.79294 0.81880 0.40244
 H2506 H 0.78428 0.80971 0.41975
 H2507 H 0.81491 0.78784 0.42342
 H2508 H 0.82337 0.79686 0.40598
 H2509 H 0.79910 0.77483 0.42862
 H2510 H 0.78990 0.76540 0.44545
 H2511 H 0.77728 0.79880 0.45735
 H2512 H 0.78662 0.80838 0.44064
 C2513 C 0.68191 0.31776 0.61610
 C2514 C 0.68623 0.31339 0.60758
 C2515 C 0.69146 0.30810 0.59747
 C2516 C 0.69714 0.29732 0.59846
 C2517 C 0.70232 0.29219 0.58870
 C2518 C 0.70188 0.29780 0.57780
 C2519 C 0.69609 0.30862 0.57688
 C2520 C 0.69093 0.31374 0.58667
 C2521 C 0.70752 0.29239 0.56747
 C2522 C 0.70203 0.29269 0.55651
 C2523 C 0.70729 0.28740 0.54686
 C2524 C 0.71811 0.28179 0.54804
 C2525 C 0.72367 0.28154 0.55888
 C2526 C 0.71843 0.28680 0.56852
 C2527 C 0.72349 0.27607 0.53827
 C2528 C 0.72830 0.27101 0.53041
 H2529 H 0.69758 0.29286 0.60677
 H2530 H 0.70657 0.28378 0.58965
 H2531 H 0.69573 0.31321 0.56865
 H2532 H 0.68658 0.32211 0.58582
 H2533 H 0.69357 0.29681 0.55545
 H2534 H 0.70289 0.28760 0.53851
 H2535 H 0.73205 0.27723 0.55988
 H2536 H 0.72295 0.28657 0.57679
 C2537 C 0.68226 0.81761 1.11619
 C2538 C 0.68660 0.81325 1.10767
 C2539 C 0.69184 0.80798 1.09756
 C2540 C 0.69130 0.81362 1.08676
 C2541 C 0.69648 0.80851 1.07697
 C2542 C 0.70229 0.79771 1.07788
 C2543 C 0.70275 0.79210 1.08878
 C2544 C 0.69755 0.79721 1.09854
 C2545 C 0.70794 0.79232 1.06755
 C2546 C 0.71887 0.78677 1.06859
 C2547 C 0.72412 0.78153 1.05894
 C2548 C 0.71855 0.78176 1.04810
 C2549 C 0.70771 0.78732 1.04693
 C2550 C 0.70243 0.79259 1.05659
 C2551 C 0.72393 0.77604 1.03833
 C2552 C 0.72874 0.77099 1.03046
 H2553 H 0.68692 0.82198 1.08592
 H2554 H 0.69610 0.81311 1.06874
 H2555 H 0.70701 0.78370 1.08973
 H2556 H 0.69799 0.79275 1.10685
 H2557 H 0.72341 0.78656 1.07685
 H2558 H 0.73252 0.77726 1.05993
 H2559 H 0.70330 0.78750 1.03860
 H2560 H 0.69396 0.79668 1.05554
 C2561 C 0.18192 0.31791 1.11587
 C2562 C 0.18626 0.31356 1.10735
 C2563 C 0.19152 0.30829 1.09725
 C2564 C 0.19724 0.29752 1.09824
 C2565 C 0.20245 0.29242 1.08848
 C2566 C 0.20202 0.29803 1.07759
 C2567 C 0.19619 0.30884 1.07667
 C2568 C 0.19099 0.31394 1.08645
 C2569 C 0.20768 0.29265 1.06726
 C2570 C 0.20219 0.29290 1.05630
 C2571 C 0.20748 0.28761 1.04666
 C2572 C 0.21832 0.28206 1.04785
 C2573 C 0.22388 0.28186 1.05869
 C2574 C 0.21862 0.28711 1.06833
 C2575 C 0.22370 0.27629 1.03811
 C2576 C 0.22851 0.27118 1.03027
 H2577 H 0.19766 0.29306 1.10655
 H2578 H 0.20672 0.28402 1.08944
 H2579 H 0.19582 0.31343 1.06844
 H2580 H 0.18662 0.32230 1.08560
 H2581 H 0.19371 0.29699 1.05524
 H2582 H 0.20307 0.28777 1.03832
 H2583 H 0.23229 0.27759 1.05970
 H2584 H 0.22315 0.28692 1.07660
 C2585 C 0.18185 0.81783 0.61568
 C2586 C 0.18618 0.81346 0.60716
 C2587 C 0.19142 0.80819 0.59705
 C2588 C 0.19716 0.79743 0.59805
 C2589 C 0.20238 0.79233 0.58829
 C2590 C 0.20193 0.79793 0.57739
 C2591 C 0.19608 0.80872 0.57647
 C2592 C 0.19087 0.81382 0.58625
 C2593 C 0.20764 0.79256 0.56708
 C2594 C 0.20218 0.79280 0.55610
 C2595 C 0.20751 0.78752 0.54648
 C2596 C 0.21836 0.78198 0.54771
 C2597 C 0.22390 0.78181 0.55856
 C2598 C 0.21859 0.78706 0.56818
 C2599 C 0.22379 0.77623 0.53798
 C2600 C 0.22864 0.77114 0.53016
 H2601 H 0.19761 0.79298 0.60636
 H2602 H 0.20667 0.78394 0.58926
 H2603 H 0.19570 0.81331 0.56823
 H2604 H 0.18648 0.82217 0.58539
 H2605 H 0.19370 0.79687 0.55501
 H2606 H 0.20313 0.78766 0.53812
 H2607 H 0.23231 0.77757 0.55959
 H2608 H 0.22310 0.78690 0.57646
 C2609 C 0.31810 0.68198 0.61586
 C2610 C 0.31376 0.68632 0.60733
 C2611 C 0.30851 0.69156 0.59721
 C2612 C 0.29770 0.69722 0.59814
 C2613 C 0.29264 0.70246 0.58837
 C2614 C 0.29834 0.70212 0.57752
 C2615 C 0.30917 0.69633 0.57665
 C2616 C 0.31422 0.69110 0.58644
 C2617 C 0.29304 0.70788 0.56720
 C2618 C 0.29338 0.70252 0.55619
 C2619 C 0.28822 0.70793 0.54655
 C2620 C 0.28269 0.71878 0.54780
 C2621 C 0.28239 0.72422 0.55869
 C2622 C 0.28753 0.71882 0.56832
 C2623 C 0.27708 0.72432 0.53804
 C2624 C 0.27211 0.72927 0.53020
 H2625 H 0.29318 0.69759 0.60642
 H2626 H 0.28422 0.70670 0.58929
 H2627 H 0.31382 0.69602 0.56845
 H2628 H 0.32261 0.68677 0.58563
 H2629 H 0.29746 0.69404 0.55508
 H2630 H 0.28845 0.70363 0.53816
 H2631 H 0.27816 0.73263 0.55974
 H2632 H 0.28727 0.72326 0.57664
 C2633 C 0.31797 0.18195 1.11585
 C2634 C 0.31360 0.18628 1.10732
 C2635 C 0.30832 0.19150 1.09720
 C2636 C 0.31401 0.19103 1.08642
 C2637 C 0.30893 0.19625 1.07664
 C2638 C 0.29810 0.20203 1.07753
 C2639 C 0.29242 0.20238 1.08839
 C2640 C 0.29751 0.19714 1.09815
 C2641 C 0.29277 0.20779 1.06722
 C2642 C 0.28728 0.21874 1.06833
 C2643 C 0.28213 0.22412 1.05869
 C2644 C 0.28240 0.21866 1.04781
 C2645 C 0.28791 0.20781 1.04657
 C2646 C 0.29309 0.20240 1.05621
 C2647 C 0.27677 0.22419 1.03805
 C2648 C 0.27179 0.22912 1.03022
 H2649 H 0.32239 0.18670 1.08560
 H2650 H 0.31356 0.19594 1.06843
 H2651 H 0.28400 0.20661 1.08932
 H2652 H 0.29301 0.19752 1.10644
 H2653 H 0.28704 0.22319 1.07664
 H2654 H 0.27791 0.23254 1.05974
 H2655 H 0.28813 0.20349 1.03818
 H2656 H 0.29715 0.19392 1.05510
 C2657 C 0.81783 0.68235 1.11605
 C2658 C 0.81364 0.68668 1.10744
 C2659 C 0.80866 0.69192 1.09719
 C2660 C 0.80764 0.68545 1.08691
 C2661 C 0.80281 0.69058 1.07695
 C2662 C 0.79895 0.70226 1.07715
 C2663 C 0.80003 0.70868 1.08754
 C2664 C 0.80484 0.70354 1.09748
 C2665 C 0.79374 0.70772 1.06663
 C2666 C 0.79636 0.71937 1.06370
 C2667 C 0.79114 0.72466 1.05403
 C2668 C 0.78325 0.71838 1.04716
 C2669 C 0.78070 0.70674 1.04990
 C2670 C 0.78593 0.70143 1.05956
 C2671 C 0.77736 0.72409 1.03767
 C2672 C 0.77223 0.72911 1.02998
 H2673 H 0.81060 0.67646 1.08658
 H2674 H 0.80222 0.68545 1.06906
 H2675 H 0.79699 0.71764 1.08802
 H2676 H 0.80556 0.70862 1.10540
 H2677 H 0.80246 0.72440 1.06887
 H2678 H 0.79316 0.73368 1.05200
 H2679 H 0.77453 0.70184 1.04469
 H2680 H 0.78363 0.69250 1.06167
 C2681 C 0.81799 0.18205 0.61580
 C2682 C 0.81364 0.18639 0.60727
 C2683 C 0.80837 0.19163 0.59716
 C2684 C 0.81404 0.19112 0.58638
 C2685 C 0.80894 0.19632 0.57659
 C2686 C 0.79812 0.20212 0.57748
 C2687 C 0.79248 0.20252 0.58836
 C2688 C 0.79758 0.19730 0.59813
 C2689 C 0.79278 0.20784 0.56717
 C2690 C 0.78724 0.21877 0.56827
 C2691 C 0.78207 0.22412 0.55863
 C2692 C 0.78235 0.21866 0.54775
 C2693 C 0.78790 0.20782 0.54652
 C2694 C 0.79310 0.20244 0.55617
 C2695 C 0.77673 0.22417 0.53799
 C2696 C 0.77174 0.22912 0.53016
 H2697 H 0.82241 0.18677 0.58555
 H2698 H 0.81356 0.19598 0.56837
 H2699 H 0.78407 0.20676 0.58931
 H2700 H 0.79310 0.19771 0.60643
 H2701 H 0.78699 0.22323 0.57657
 H2702 H 0.77781 0.23252 0.55968
 H2703 H 0.78812 0.20349 0.53815
 H2704 H 0.79719 0.19397 0.55507
 C2705 C 0.68234 0.68231 0.38424
 C2706 C 0.68655 0.68651 0.39289
 C2707 C 0.69161 0.69153 0.40320
 C2708 C 0.68828 0.70273 0.40681
 C2709 C 0.69330 0.70768 0.41673
 C2710 C 0.70175 0.70150 0.42317
 C2711 C 0.70499 0.69021 0.41951
 C2712 C 0.69994 0.68527 0.40959
 C2713 C 0.70731 0.70689 0.43354
 C2714 C 0.71939 0.70559 0.43551
 C2715 C 0.72470 0.71098 0.44504
 C2716 C 0.71803 0.71771 0.45275
 C2717 C 0.70600 0.71895 0.45095
 C2718 C 0.70066 0.71357 0.44141
 C2719 C 0.72366 0.72371 0.46221
 C2720 C 0.72857 0.72893 0.46990
 H2721 H 0.68186 0.70766 0.40190
 H2722 H 0.69075 0.71644 0.41923
 H2723 H 0.71136 0.68518 0.42436
 H2724 H 0.70256 0.67658 0.40690
 H2725 H 0.72477 0.70065 0.42952
 H2726 H 0.73404 0.71004 0.44631
 H2727 H 0.70076 0.72415 0.45686
 H2728 H 0.69133 0.71462 0.44020
 C2729 C 0.68242 0.18222 -0.11616
 C2730 C 0.68654 0.18648 -0.10750
 C2731 C 0.69144 0.19165 -0.09719
 C2732 C 0.68546 0.20063 -0.09144
 C2733 C 0.69030 0.20580 -0.08154
 C2734 C 0.70120 0.20205 -0.07725
 C2735 C 0.70711 0.19296 -0.08304
 C2736 C 0.70225 0.18780 -0.09295
 C2737 C 0.70649 0.20775 -0.06691
 C2738 C 0.71241 0.20108 -0.05845
 C2739 C 0.71764 0.20652 -0.04889
 C2740 C 0.71703 0.21867 -0.04765
 C2741 C 0.71108 0.22536 -0.05595
 C2742 C 0.70583 0.21995 -0.06551
 C2743 C 0.72287 0.22436 -0.03813
 C2744 C 0.72795 0.22934 -0.03041
 H2745 H 0.67708 0.20365 -0.09464
 H2746 H 0.68548 0.21268 -0.07720
 H2747 H 0.71558 0.18999 -0.08005
 H2748 H 0.70697 0.18088 -0.09735
 H2749 H 0.71295 0.19167 -0.05921
 H2750 H 0.72225 0.20126 -0.04252
 H2751 H 0.71062 0.23478 -0.05512
 H2752 H 0.70148 0.22534 -0.07194
 C2753 C 0.18273 0.68236 -0.11622
 C2754 C 0.18698 0.68654 -0.10758
 C2755 C 0.19207 0.69154 -0.09728
 C2756 C 0.20040 0.68526 -0.09090
 C2757 C 0.20546 0.69018 -0.08098
 C2758 C 0.20225 0.70146 -0.07730
 C2759 C 0.19379 0.70766 -0.08372
 C2760 C 0.18875 0.70273 -0.09364
 C2761 C 0.20782 0.70683 -0.06693
 C2762 C 0.20116 0.71346 -0.05902
 C2763 C 0.20649 0.71879 -0.04946
 C2764 C 0.21853 0.71756 -0.04767
 C2765 C 0.22521 0.71089 -0.05542
 C2766 C 0.21990 0.70554 -0.06498
 C2767 C 0.22414 0.72354 -0.03819
 C2768 C 0.22905 0.72873 -0.03049
 H2769 H 0.20299 0.67656 -0.09361
 H2770 H 0.21182 0.68512 -0.07613
 H2771 H 0.19123 0.71641 -0.08119
 H2772 H 0.18232 0.70767 -0.09852
 H2773 H 0.19183 0.71450 -0.06022
 H2774 H 0.20124 0.72395 -0.04352
 H2775 H 0.23455 0.70997 -0.05416
 H2776 H 0.22529 0.70064 -0.07099
 C2777 C 0.18240 0.18244 0.38379
 C2778 C 0.18656 0.18656 0.39250
 C2779 C 0.19156 0.19151 0.40287
 C2780 C 0.18818 0.20266 0.40656
 C2781 C 0.19318 0.20756 0.41652
 C2782 C 0.20165 0.20136 0.42292
 C2783 C 0.20493 0.19011 0.41918
 C2784 C 0.19991 0.18523 0.40922
 C2785 C 0.20720 0.20670 0.43331
 C2786 C 0.21929 0.20545 0.43525
 C2787 C 0.22458 0.21079 0.44483
 C2788 C 0.21789 0.21741 0.45260
 C2789 C 0.20584 0.21860 0.45083
 C2790 C 0.20053 0.21329 0.44124
 C2791 C 0.22349 0.22337 0.46210
 C2792 C 0.22837 0.22856 0.46982
 H2793 H 0.18174 0.20760 0.40170
 H2794 H 0.19057 0.21628 0.41909
 H2795 H 0.21131 0.18507 0.42400
 H2796 H 0.20255 0.17657 0.40646
 H2797 H 0.22469 0.20059 0.42922
 H2798 H 0.23393 0.20989 0.44608
 H2799 H 0.20058 0.22373 0.45678
 H2800 H 0.19119 0.21430 0.44005
 C2801 C 0.31770 0.38380 0.68156
 C2802 C 0.31333 0.39231 0.68597
 C2803 C 0.30807 0.40241 0.69130
 C2804 C 0.29685 0.40163 0.69608
 C2805 C 0.29175 0.41138 0.70138
 C2806 C 0.29782 0.42205 0.70196
 C2807 C 0.30907 0.42276 0.69706
 C2808 C 0.31416 0.41299 0.69178
 C2809 C 0.29244 0.43236 0.70770
 C2810 C 0.29356 0.44360 0.70284
 C2811 C 0.28830 0.45326 0.70818
 C2812 C 0.28189 0.45179 0.71845
 C2813 C 0.28082 0.44067 0.72341
 C2814 C 0.28606 0.43102 0.71808
 C2815 C 0.27618 0.46158 0.72387
 C2816 C 0.27111 0.46947 0.72867
 H2817 H 0.29204 0.39349 0.69573
 H2818 H 0.28301 0.41060 0.70492
 H2819 H 0.31401 0.43082 0.69747
 H2820 H 0.32287 0.41368 0.68812
 H2821 H 0.29833 0.44490 0.69480
 H2822 H 0.28915 0.46183 0.70426
 H2823 H 0.27591 0.43945 0.73138
 H2824 H 0.28519 0.42252 0.72214
 C2825 C 0.31806 0.88402 0.18167
 C2826 C 0.31374 0.89255 0.18608
 C2827 C 0.30850 0.90267 0.19139
 C2828 C 0.30800 0.91328 0.18534
 C2829 C 0.30276 0.92306 0.19046
 C2830 C 0.29792 0.92233 0.20170
 C2831 C 0.29854 0.91163 0.20773
 C2832 C 0.30380 0.90188 0.20260
 C2833 C 0.29214 0.93262 0.20708
 C2834 C 0.28176 0.93122 0.21351
 C2835 C 0.27634 0.94085 0.21867
 C2836 C 0.28119 0.95201 0.21750
 C2837 C 0.29148 0.95352 0.21110
 C2838 C 0.29693 0.94388 0.20590
 C2839 C 0.27561 0.96179 0.22308
 C2840 C 0.27064 0.96964 0.22802
 H2841 H 0.31160 0.91397 0.17664
 H2842 H 0.30231 0.93112 0.18555
 H2843 H 0.29505 0.91083 0.21645
 H2844 H 0.30417 0.89372 0.20738
 H2845 H 0.27776 0.92270 0.21444
 H2846 H 0.26836 0.93959 0.22361
 H2847 H 0.29534 0.96211 0.21019
 H2848 H 0.30498 0.94521 0.20112
 C2849 C 0.81781 0.38377 0.18170
 C2850 C 0.81352 0.39231 0.18613
 C2851 C 0.80834 0.40243 0.19148
 C2852 C 0.80385 0.40169 0.20278
 C2853 C 0.79866 0.41145 0.20795
 C2854 C 0.79790 0.42212 0.20188
 C2855 C 0.80254 0.42281 0.19056
 C2856 C 0.80771 0.41302 0.18539
 C2857 C 0.79218 0.43242 0.20732
 C2858 C 0.79692 0.44369 0.20600
 C2859 C 0.79153 0.45334 0.21122
 C2860 C 0.78134 0.45184 0.21779
 C2861 C 0.77653 0.44068 0.21909
 C2862 C 0.78191 0.43103 0.21391
 C2863 C 0.77579 0.46164 0.22335
 C2864 C 0.77084 0.46953 0.22828
 H2865 H 0.80433 0.39355 0.20759
 H2866 H 0.79533 0.41069 0.21674
 H2867 H 0.80197 0.43085 0.18562
 H2868 H 0.81115 0.41368 0.17663
 H2869 H 0.80490 0.44501 0.20110
 H2870 H 0.79535 0.46194 0.21020
 H2871 H 0.76863 0.43943 0.22414
 H2872 H 0.77795 0.42251 0.21495
 C2873 C 0.81774 0.88420 0.68175
 C2874 C 0.81338 0.89271 0.68615
 C2875 C 0.80810 0.90281 0.69147
 C2876 C 0.81404 0.91349 0.69164
 C2877 C 0.80893 0.92327 0.69690
 C2878 C 0.79781 0.92246 0.70208
 C2879 C 0.79190 0.91168 0.70181
 C2880 C 0.79702 0.90194 0.69653
 C2881 C 0.79240 0.93277 0.70781
 C2882 C 0.78629 0.93146 0.71836
 C2883 C 0.78101 0.94110 0.72367
 C2884 C 0.78176 0.95216 0.71854
 C2885 C 0.78790 0.95359 0.70810
 C2886 C 0.79321 0.94396 0.70277
 C2887 C 0.77599 0.96192 0.72396
 C2888 C 0.77088 0.96978 0.72876
 H2889 H 0.82264 0.91426 0.68776
 H2890 H 0.81375 0.93140 0.69708
 H2891 H 0.78326 0.91082 0.70556
 H2892 H 0.79232 0.89372 0.69641
 H2893 H 0.78567 0.92301 0.72255
 H2894 H 0.77630 0.93990 0.73177
 H2895 H 0.78850 0.96212 0.70404
 H2896 H 0.79776 0.94522 0.69460
 C2897 C 0.68240 0.61657 0.68248
 C2898 C 0.68660 0.60787 0.68668
 C2899 C 0.69168 0.59750 0.69168
 C2900 C 0.70384 0.59632 0.69227
 C2901 C 0.70882 0.58629 0.69716
 C2902 C 0.70168 0.57730 0.70156
 C2903 C 0.68945 0.57857 0.70091
 C2904 C 0.68450 0.58860 0.69599
 C2905 C 0.70698 0.56674 0.70693
 C2906 C 0.70222 0.56190 0.71714
 C2907 C 0.70750 0.55223 0.72244
 C2908 C 0.71756 0.54726 0.71759
 C2909 C 0.72227 0.55190 0.70734
 C2910 C 0.71702 0.56158 0.70204
 C2911 C 0.72339 0.53777 0.72342
 C2912 C 0.72851 0.53007 0.72848
 H2913 H 0.70949 0.60317 0.68899
 H2914 H 0.71825 0.58566 0.69768
 H2915 H 0.68373 0.57175 0.70410
 H2916 H 0.67507 0.58942 0.69555
 H2917 H 0.69460 0.56576 0.72120
 H2918 H 0.70384 0.54876 0.73042
 H2919 H 0.73007 0.54813 0.70353
 H2920 H 0.72080 0.56501 0.69411
 C2921 C 0.68274 0.11634 0.18230
 C2922 C 0.68704 0.10771 0.18654
 C2923 C 0.69226 0.09744 0.19158
 C2924 C 0.68565 0.08726 0.19303
 C2925 C 0.69075 0.07728 0.19792
 C2926 C 0.70254 0.07736 0.20141
 C2927 C 0.70910 0.08765 0.19992
 C2928 C 0.70399 0.09762 0.19504
 C2929 C 0.70798 0.06681 0.20666
 C2930 C 0.71950 0.06360 0.20378
 C2931 C 0.72476 0.05391 0.20902
 C2932 C 0.71858 0.04727 0.21719
 C2933 C 0.70706 0.05028 0.22001
 C2934 C 0.70177 0.05997 0.21476
 C2935 C 0.72427 0.03773 0.22307
 C2936 C 0.72927 0.03000 0.22818
 H2937 H 0.67658 0.08702 0.19036
 H2938 H 0.68550 0.06947 0.19886
 H2939 H 0.71814 0.08805 0.20268
 H2940 H 0.70917 0.10547 0.19399
 H2941 H 0.72444 0.06858 0.19745
 H2942 H 0.73369 0.05166 0.20679
 H2943 H 0.70223 0.04525 0.22638
 H2944 H 0.69294 0.06229 0.21725
 C2945 C 0.18225 0.61657 0.18204
 C2946 C 0.18654 0.60799 0.18639
 C2947 C 0.19177 0.59781 0.19160
 C2948 C 0.19934 0.59904 0.20107
 C2949 C 0.20458 0.58920 0.20605
 C2950 C 0.20231 0.57797 0.20163
 C2951 C 0.19462 0.57681 0.19214
 C2952 C 0.18940 0.58668 0.18716
 C2953 C 0.20801 0.56755 0.20686
 C2954 C 0.20172 0.55711 0.20854
 C2955 C 0.20708 0.54740 0.21369
 C2956 C 0.21878 0.54799 0.21718
 C2957 C 0.22512 0.55829 0.21546
 C2958 C 0.21979 0.56800 0.21034
 C2959 C 0.22427 0.53823 0.22288
 C2960 C 0.22916 0.53037 0.22791
 H2961 H 0.20121 0.60762 0.20460
 H2962 H 0.21033 0.59037 0.21344
 H2963 H 0.19281 0.56830 0.18845
 H2964 H 0.18357 0.58563 0.17980
 H2965 H 0.19259 0.55654 0.20610
 H2966 H 0.20207 0.53949 0.21506
 H2967 H 0.23418 0.55885 0.21816
 H2968 H 0.22490 0.57585 0.20904
 C2969 C 0.18207 0.11604 0.68227
 C2970 C 0.18643 0.10748 0.68660
 C2971 C 0.19174 0.09732 0.69177
 C2972 C 0.18802 0.08611 0.68860
 C2973 C 0.19328 0.07625 0.69355
 C2974 C 0.20235 0.07747 0.70173
 C2975 C 0.20600 0.08878 0.70487
 C2976 C 0.20073 0.09862 0.69992
 C2977 C 0.20804 0.06703 0.70695
 C2978 C 0.22021 0.06682 0.70873
 C2979 C 0.22556 0.05714 0.71390
 C2980 C 0.21885 0.04753 0.71736
 C2981 C 0.20675 0.04759 0.71555
 C2982 C 0.20137 0.05727 0.71036
 C2983 C 0.22442 0.03785 0.72314
 C2984 C 0.22937 0.03004 0.72819
 H2985 H 0.18110 0.08501 0.68226
 H2986 H 0.19037 0.06766 0.69086
 H2987 H 0.21285 0.09002 0.71124
 H2988 H 0.20366 0.10725 0.70245
 H2989 H 0.22560 0.07412 0.70607
 H2990 H 0.23493 0.05719 0.71528
 H2991 H 0.20146 0.04023 0.71827
 H2992 H 0.19197 0.05724 0.70924
 C2993 C 0.31794 0.61611 0.31762
 C2994 C 0.31365 0.60758 0.31320
 C2995 C 0.30845 0.59746 0.30788
 C2996 C 0.30877 0.58664 0.31356
 C2997 C 0.30355 0.57686 0.30845
 C2998 C 0.29792 0.57780 0.29760
 C2999 C 0.29772 0.58871 0.29195
 C3000 C 0.30295 0.59847 0.29706
 C3001 C 0.29216 0.56750 0.29225
 C3002 C 0.28131 0.56873 0.28662
 C3003 C 0.27591 0.55909 0.28147
 C3004 C 0.28125 0.54809 0.28187
 C3005 C 0.29202 0.54674 0.28750
 C3006 C 0.29744 0.55638 0.29267
 C3007 C 0.27570 0.53832 0.27630
 C3008 C 0.27075 0.53045 0.27138
 H3009 H 0.31298 0.58577 0.32196
 H3010 H 0.30374 0.56861 0.31307
 H3011 H 0.29360 0.58969 0.28352
 H3012 H 0.30269 0.60680 0.29257
 H3013 H 0.27694 0.57712 0.28628
 H3014 H 0.26756 0.56022 0.27715
 H3015 H 0.29626 0.53827 0.28781
 H3016 H 0.30585 0.55519 0.29683
 C3017 C 0.31814 0.11575 0.81807
 C3018 C 0.31385 0.10723 0.81363
 C3019 C 0.30868 0.09712 0.80828
 C3020 C 0.30415 0.09788 0.79700
 C3021 C 0.29896 0.08813 0.79183
 C3022 C 0.29824 0.07746 0.79788
 C3023 C 0.30290 0.07675 0.80919
 C3024 C 0.30807 0.08653 0.81435
 C3025 C 0.29251 0.06718 0.79245
 C3026 C 0.29725 0.05588 0.79376
 C3027 C 0.29184 0.04625 0.78855
 C3028 C 0.28162 0.04779 0.78202
 C3029 C 0.27684 0.05897 0.78071
 C3030 C 0.28223 0.06860 0.78589
 C3031 C 0.27603 0.03800 0.77650
 C3032 C 0.27104 0.03013 0.77163
 H3033 H 0.30460 0.10603 0.79220
 H3034 H 0.29561 0.08891 0.78305
 H3035 H 0.30235 0.06870 0.81413
 H3036 H 0.31153 0.08585 0.82310
 H3037 H 0.30523 0.05453 0.79864
 H3038 H 0.29564 0.03763 0.78957
 H3039 H 0.26893 0.06025 0.77568
 H3040 H 0.27827 0.07714 0.78486
 C3041 C 0.81809 0.61606 0.81775
 C3042 C 0.81377 0.60756 0.81330
 C3043 C 0.80854 0.59747 0.80796
 C3044 C 0.80882 0.58664 0.81362
 C3045 C 0.80358 0.57688 0.80850
 C3046 C 0.79795 0.57785 0.79766
 C3047 C 0.79778 0.58877 0.79201
 C3048 C 0.80304 0.59850 0.79713
 C3049 C 0.79215 0.56757 0.79229
 C3050 C 0.78129 0.56883 0.78669
 C3051 C 0.77585 0.55921 0.78156
 C3052 C 0.78116 0.54820 0.78194
 C3053 C 0.79195 0.54682 0.78753
 C3054 C 0.79741 0.55645 0.79269
 C3055 C 0.77555 0.53843 0.77642
 C3056 C 0.77058 0.53054 0.77155
 H3057 H 0.81303 0.58575 0.82202
 H3058 H 0.80374 0.56863 0.81312
 H3059 H 0.79367 0.58976 0.78358
 H3060 H 0.80281 0.60684 0.79266
 H3061 H 0.77694 0.57724 0.78638
 H3062 H 0.76749 0.56037 0.77727
 H3063 H 0.79617 0.53834 0.78782
 H3064 H 0.80583 0.55523 0.79682
 C3065 C 0.81815 0.11591 0.31806
 C3066 C 0.81387 0.10740 0.31360
 C3067 C 0.80868 0.09729 0.30824
 C3068 C 0.80836 0.08661 0.31419
 C3069 C 0.80315 0.07685 0.30904
 C3070 C 0.79817 0.07766 0.29787
 C3071 C 0.79862 0.08842 0.29194
 C3072 C 0.80384 0.09815 0.29710
 C3073 C 0.79240 0.06739 0.29247
 C3074 C 0.78190 0.06877 0.28624
 C3075 C 0.77647 0.05915 0.28109
 C3076 C 0.78143 0.04801 0.28208
 C3077 C 0.79186 0.04651 0.28828
 C3078 C 0.79731 0.05614 0.29347
 C3079 C 0.77583 0.03823 0.27656
 C3080 C 0.77086 0.03035 0.27169
 H3081 H 0.81206 0.08586 0.32283
 H3082 H 0.80283 0.06873 0.31388
 H3083 H 0.79501 0.08928 0.28327
 H3084 H 0.80408 0.10636 0.29240
 H3085 H 0.77782 0.07728 0.28545
 H3086 H 0.76839 0.06041 0.27632
 H3087 H 0.79580 0.03794 0.28905
 H3088 H 0.80545 0.05482 0.29809
 C3089 C 0.68183 0.38382 0.31773
 C3090 C 0.68612 0.39237 0.31334
 C3091 C 0.69132 0.40252 0.30807
 C3092 C 0.69175 0.41312 0.31413
 C3093 C 0.69698 0.42292 0.30905
 C3094 C 0.70188 0.42223 0.29784
 C3095 C 0.70133 0.41155 0.29179
 C3096 C 0.69609 0.40178 0.29688
 C3097 C 0.70769 0.43253 0.29252
 C3098 C 0.71815 0.43116 0.28621
 C3099 C 0.72359 0.44081 0.28111
 C3100 C 0.71868 0.45195 0.28222
 C3101 C 0.70831 0.45344 0.28853
 C3102 C 0.70285 0.44379 0.29367
 C3103 C 0.72427 0.46175 0.27668
 C3104 C 0.72924 0.46961 0.27177
 H3105 H 0.68811 0.41378 0.32281
 H3106 H 0.69738 0.43097 0.31398
 H3107 H 0.70487 0.41079 0.28308
 H3108 H 0.69577 0.39363 0.29209
 H3109 H 0.72218 0.42264 0.28533
 H3110 H 0.73163 0.43956 0.27627
 H3111 H 0.70442 0.46204 0.28940
 H3112 H 0.69475 0.44511 0.29837
 C3113 C 0.68189 0.88394 0.81818
 C3114 C 0.68622 0.89246 0.81376
 C3115 C 0.69143 0.90257 0.80844
 C3116 C 0.70206 0.90153 0.80251
 C3117 C 0.70712 0.91131 0.79725
 C3118 C 0.70160 0.92229 0.79785
 C3119 C 0.69093 0.92327 0.80388
 C3120 C 0.68588 0.91346 0.80912
 C3121 C 0.70695 0.93266 0.79219
 C3122 C 0.70692 0.94361 0.79776
 C3123 C 0.71222 0.95329 0.79250
 C3124 C 0.71756 0.95214 0.78160
 C3125 C 0.71752 0.94131 0.77595
 C3126 C 0.71226 0.93164 0.78119
 C3127 C 0.72337 0.96191 0.77627
 C3128 C 0.72851 0.96977 0.77152
 H3129 H 0.70645 0.89315 0.80195
 H3130 H 0.71541 0.91031 0.79282
 H3131 H 0.68640 0.93157 0.80438
 H3132 H 0.67762 0.91436 0.81367
 H3133 H 0.70302 0.94464 0.80629
 H3134 H 0.71224 0.96162 0.79697
 H3135 H 0.72163 0.94033 0.76750
 H3136 H 0.71228 0.92338 0.77661
 C3137 C 0.18187 0.38377 0.81791
 C3138 C 0.18618 0.39230 0.81349
 C3139 C 0.19139 0.40241 0.80815
 C3140 C 0.20201 0.40135 0.80220
 C3141 C 0.20704 0.41113 0.79690
 C3142 C 0.20152 0.42211 0.79750
 C3143 C 0.19086 0.42309 0.80355
 C3144 C 0.18583 0.41329 0.80883
 C3145 C 0.20686 0.43247 0.79181
 C3146 C 0.20682 0.44344 0.79735
 C3147 C 0.21209 0.45311 0.79207
 C3148 C 0.21744 0.45194 0.78117
 C3149 C 0.21742 0.44110 0.77555
 C3150 C 0.21217 0.43143 0.78081
 C3151 C 0.22327 0.46170 0.77584
 C3152 C 0.22845 0.46956 0.77113
 H3153 H 0.20640 0.39298 0.80165
 H3154 H 0.21533 0.41012 0.79246
 H3155 H 0.18633 0.43139 0.80405
 H3156 H 0.17759 0.41419 0.81339
 H3157 H 0.20292 0.44448 0.80588
 H3158 H 0.21212 0.46145 0.79652
 H3159 H 0.22154 0.44010 0.76711
 H3160 H 0.21221 0.42315 0.77625
 C3161 C 0.18199 0.88373 0.31790
 C3162 C 0.18628 0.89228 0.31351
 C3163 C 0.19147 0.90242 0.30820
 C3164 C 0.19206 0.91299 0.31430
 C3165 C 0.19725 0.92278 0.30918
 C3166 C 0.20196 0.92211 0.29788
 C3167 C 0.20124 0.91147 0.29180
 C3168 C 0.19604 0.90170 0.29693
 C3169 C 0.20772 0.93241 0.29250
 C3170 C 0.21804 0.93102 0.28597
 C3171 C 0.22344 0.94066 0.28081
 C3172 C 0.21863 0.95183 0.28210
 C3173 C 0.20840 0.95335 0.28861
 C3174 C 0.20298 0.94370 0.29380
 C3175 C 0.22421 0.96163 0.27656
 C3176 C 0.22917 0.96951 0.27165
 H3177 H 0.18857 0.91363 0.32305
 H3178 H 0.19778 0.93081 0.31412
 H3179 H 0.20462 0.91072 0.28303
 H3180 H 0.19559 0.89358 0.29212
 H3181 H 0.22200 0.92248 0.28495
 H3182 H 0.23137 0.93939 0.27581
 H3183 H 0.20459 0.96196 0.28963
 H3184 H 0.19498 0.94504 0.29867
 C3185 C 0.38384 0.31814 0.68203
 C3186 C 0.39236 0.31384 0.68650
 C3187 C 0.40247 0.30863 0.69187
 C3188 C 0.40166 0.30399 0.70311
 C3189 C 0.41141 0.29877 0.70829
 C3190 C 0.42212 0.29811 0.70228
 C3191 C 0.42286 0.30286 0.69101
 C3192 C 0.41309 0.30807 0.68584
 C3193 C 0.43242 0.29238 0.70774
 C3194 C 0.44368 0.29720 0.70656
 C3195 C 0.45332 0.29184 0.71185
 C3196 C 0.45182 0.28159 0.71833
 C3197 C 0.44068 0.27670 0.71948
 C3198 C 0.43104 0.28205 0.71423
 C3199 C 0.46160 0.27612 0.72402
 C3200 C 0.46948 0.27126 0.72905
 H3201 H 0.39350 0.30441 0.70788
 H3202 H 0.41061 0.29534 0.71704
 H3203 H 0.43094 0.30237 0.68611
 H3204 H 0.41379 0.31160 0.67711
 H3205 H 0.44499 0.30522 0.70173
 H3206 H 0.46190 0.29573 0.71095
 H3207 H 0.43943 0.26876 0.72447
 H3208 H 0.42253 0.27803 0.71516
 C3209 C 0.38393 0.81810 0.18181
 C3210 C 0.39244 0.81378 0.18628
 C3211 C 0.40253 0.80857 0.19168
 C3212 C 0.40169 0.80396 0.20292
 C3213 C 0.41143 0.79877 0.20815
 C3214 C 0.42217 0.79812 0.20219
 C3215 C 0.42294 0.80284 0.19090
 C3216 C 0.41317 0.80802 0.18568
 C3217 C 0.43246 0.79246 0.20771
 C3218 C 0.44371 0.79732 0.20654
 C3219 C 0.45335 0.79201 0.21187
 C3220 C 0.45187 0.78178 0.21840
 C3221 C 0.44074 0.77687 0.21956
 C3222 C 0.43110 0.78216 0.21426
 C3223 C 0.46167 0.77633 0.22408
 C3224 C 0.46955 0.77148 0.22911
 H3225 H 0.39351 0.80437 0.20765
 H3226 H 0.41059 0.79535 0.21690
 H3227 H 0.43103 0.80235 0.18604
 H3228 H 0.41390 0.81153 0.17695
 H3229 H 0.44501 0.80532 0.20168
 H3230 H 0.46193 0.79591 0.21097
 H3231 H 0.43950 0.76895 0.22459
 H3232 H 0.42259 0.77813 0.21520
 C3233 C 0.88378 0.31798 0.18182
 C3234 C 0.89234 0.31373 0.18626
 C3235 C 0.90248 0.30859 0.19164
 C3236 C 0.90169 0.30397 0.20288
 C3237 C 0.91147 0.29884 0.20809
 C3238 C 0.92220 0.29826 0.20211
 C3239 C 0.92293 0.30301 0.19083
 C3240 C 0.91312 0.30813 0.18563
 C3241 C 0.93252 0.29261 0.20758
 C3242 C 0.94375 0.29750 0.20643
 C3243 C 0.95341 0.29219 0.21173
 C3244 C 0.95197 0.28193 0.21821
 C3245 C 0.94085 0.27698 0.21933
 C3246 C 0.93120 0.28226 0.21407
 C3247 C 0.96177 0.27650 0.22390
 C3248 C 0.96963 0.27163 0.22895
 H3249 H 0.89351 0.30432 0.20763
 H3250 H 0.91067 0.29541 0.21684
 H3251 H 0.93102 0.30258 0.18596
 H3252 H 0.91381 0.31166 0.17691
 H3253 H 0.94503 0.30552 0.20159
 H3254 H 0.96198 0.29613 0.21084
 H3255 H 0.93964 0.26902 0.22431
 H3256 H 0.92271 0.27819 0.21498
 C3257 C 0.88400 0.81865 0.68198
 C3258 C 0.89254 0.81436 0.68641
 C3259 C 0.90267 0.80916 0.69175
 C3260 C 0.90188 0.80451 0.70298
 C3261 C 0.91164 0.79927 0.70814
 C3262 C 0.92233 0.79862 0.70211
 C3263 C 0.92306 0.80339 0.69085
 C3264 C 0.91328 0.80861 0.68570
 C3265 C 0.93263 0.79286 0.70754
 C3266 C 0.94390 0.79766 0.70635
 C3267 C 0.95353 0.79228 0.71163
 C3268 C 0.95201 0.78204 0.71813
 C3269 C 0.94086 0.77716 0.71928
 C3270 C 0.93123 0.78253 0.71403
 C3271 C 0.96178 0.77654 0.72381
 C3272 C 0.96963 0.77166 0.72885
 H3273 H 0.89372 0.80491 0.70776
 H3274 H 0.91084 0.79583 0.71688
 H3275 H 0.93113 0.80290 0.68594
 H3276 H 0.91397 0.81215 0.67698
 H3277 H 0.94523 0.80567 0.70152
 H3278 H 0.96212 0.79614 0.71072
 H3279 H 0.93960 0.76922 0.72427
 H3280 H 0.92271 0.77852 0.71496
 C3281 C 0.61624 0.31775 0.31763
 C3282 C 0.60768 0.31344 0.31329
 C3283 C 0.59751 0.30821 0.30810
 C3284 C 0.59882 0.29944 0.29972
 C3285 C 0.58897 0.29426 0.29472
 C3286 C 0.57766 0.29780 0.29804
 C3287 C 0.57643 0.30665 0.30644
 C3288 C 0.58630 0.31181 0.31145
 C3289 C 0.56721 0.29224 0.29274
 C3290 C 0.55741 0.29899 0.28957
 C3291 C 0.54773 0.29375 0.28429
 C3292 C 0.54770 0.28171 0.28215
 C3293 C 0.55734 0.27492 0.28539
 C3294 C 0.56703 0.28013 0.29066
 C3295 C 0.53802 0.27631 0.27627
 C3296 C 0.53022 0.27149 0.27112
 H3297 H 0.60745 0.29661 0.29704
 H3298 H 0.59021 0.28759 0.28816
 H3299 H 0.56785 0.30946 0.30927
 H3300 H 0.58520 0.31856 0.31795
 H3301 H 0.55735 0.30835 0.29094
 H3302 H 0.54034 0.29911 0.28175
 H3303 H 0.55741 0.26559 0.28377
 H3304 H 0.57435 0.27467 0.29314
 C3305 C 0.61596 0.81824 0.81780
 C3306 C 0.60745 0.81395 0.81335
 C3307 C 0.59734 0.80875 0.80801
 C3308 C 0.58648 0.80914 0.81362
 C3309 C 0.57669 0.80397 0.80847
 C3310 C 0.57765 0.79831 0.79765
 C3311 C 0.58860 0.79802 0.79206
 C3312 C 0.59836 0.80321 0.79721
 C3313 C 0.56732 0.79266 0.79222
 C3314 C 0.56848 0.78181 0.78658
 C3315 C 0.55883 0.77654 0.78132
 C3316 C 0.54789 0.78200 0.78163
 C3317 C 0.54660 0.79275 0.78729
 C3318 C 0.55625 0.79805 0.79257
 C3319 C 0.53811 0.77659 0.77592
 C3320 C 0.53024 0.77175 0.77088
 H3321 H 0.58559 0.81338 0.82200
 H3322 H 0.56842 0.80422 0.81305
 H3323 H 0.58959 0.79389 0.78364
 H3324 H 0.60672 0.80289 0.79277
 H3325 H 0.57683 0.77735 0.78631
 H3326 H 0.55991 0.76820 0.77698
 H3327 H 0.53817 0.79708 0.78754
 H3328 H 0.55511 0.80645 0.79675
 C3329 C 0.11605 0.31798 0.81775
 C3330 C 0.10752 0.31370 0.81331
 C3331 C 0.09739 0.30854 0.80796
 C3332 C 0.08639 0.31376 0.80923
 C3333 C 0.07658 0.30878 0.80394
 C3334 C 0.07767 0.29853 0.79728
 C3335 C 0.08876 0.29333 0.79610
 C3336 C 0.09855 0.29831 0.80141
 C3337 C 0.06730 0.29327 0.79154
 C3338 C 0.06819 0.28868 0.78022
 C3339 C 0.05852 0.28354 0.77487
 C3340 C 0.04781 0.28293 0.78074
 C3341 C 0.04679 0.28754 0.79197
 C3342 C 0.05647 0.29270 0.79734
 C3343 C 0.03804 0.27726 0.77526
 C3344 C 0.03017 0.27224 0.77041
 H3345 H 0.08541 0.32170 0.81427
 H3346 H 0.06819 0.31306 0.80490
 H3347 H 0.08986 0.28534 0.79117
 H3348 H 0.10702 0.29417 0.80040
 H3349 H 0.07636 0.28912 0.77547
 H3350 H 0.05940 0.28000 0.76618
 H3351 H 0.03856 0.28704 0.79661
 H3352 H 0.05555 0.29603 0.80611
 C3353 C 0.11612 0.81796 0.31764
 C3354 C 0.10758 0.81370 0.31323
 C3355 C 0.09745 0.80853 0.30790
 C3356 C 0.08670 0.80851 0.31372
 C3357 C 0.07690 0.80337 0.30856
 C3358 C 0.07776 0.79814 0.29752
 C3359 C 0.08860 0.79825 0.29172
 C3360 C 0.09837 0.80342 0.29688
 C3361 C 0.06743 0.79248 0.29208
 C3362 C 0.06868 0.78186 0.28606
 C3363 C 0.05904 0.77659 0.28080
 C3364 C 0.04800 0.78183 0.28149
 C3365 C 0.04663 0.79236 0.28753
 C3366 C 0.05628 0.79765 0.29281
 C3367 C 0.03822 0.77641 0.27580
 C3368 C 0.03034 0.77156 0.27078
 H3369 H 0.08590 0.81242 0.32227
 H3370 H 0.06871 0.80330 0.31330
 H3371 H 0.08950 0.79445 0.28314
 H3372 H 0.10664 0.80341 0.29229
 H3373 H 0.07711 0.77757 0.28549
 H3374 H 0.06019 0.76842 0.27617
 H3375 H 0.03813 0.79651 0.28808
 H3376 H 0.05507 0.80589 0.29729
 C3377 C 0.61650 0.68253 0.68259
 C3378 C 0.60789 0.68682 0.68689
 C3379 C 0.59767 0.69203 0.69203
 C3380 C 0.59890 0.70089 0.70032
 C3381 C 0.58900 0.70605 0.70528
 C3382 C 0.57772 0.70241 0.70201
 C3383 C 0.57658 0.69347 0.69370
 C3384 C 0.58650 0.68833 0.68873
 C3385 C 0.56723 0.70795 0.70728
 C3386 C 0.55751 0.70115 0.71055
 C3387 C 0.54780 0.70637 0.71584
 C3388 C 0.54766 0.71843 0.71788
 C3389 C 0.55722 0.72526 0.71453
 C3390 C 0.56693 0.72008 0.70926
 C3391 C 0.53797 0.72381 0.72379
 C3392 C 0.53015 0.72861 0.72897
 H3393 H 0.60751 0.70380 0.70297
 H3394 H 0.59018 0.71279 0.71178
 H3395 H 0.56802 0.69057 0.69091
 H3396 H 0.58545 0.68150 0.68229
 H3397 H 0.55754 0.69178 0.70927
 H3398 H 0.54047 0.70099 0.71848
 H3399 H 0.55721 0.73460 0.71608
 H3400 H 0.57420 0.72556 0.70670
 C3401 C 0.61646 0.18190 0.18236
 C3402 C 0.60789 0.18616 0.18677
 C3403 C 0.59774 0.19133 0.19210
 C3404 C 0.59850 0.19600 0.20332
 C3405 C 0.58872 0.20117 0.20848
 C3406 C 0.57801 0.20174 0.20247
 C3407 C 0.57730 0.19694 0.19122
 C3408 C 0.58712 0.19179 0.18607
 C3409 C 0.56767 0.20741 0.20790
 C3410 C 0.55644 0.20252 0.20676
 C3411 C 0.54677 0.20783 0.21203
 C3412 C 0.54820 0.21811 0.21847
 C3413 C 0.55931 0.22309 0.21956
 C3414 C 0.56898 0.21779 0.21432
 C3415 C 0.53839 0.22353 0.22415
 C3416 C 0.53049 0.22836 0.22918
 H3417 H 0.60668 0.19567 0.20807
 H3418 H 0.58950 0.20463 0.21721
 H3419 H 0.56922 0.19736 0.18633
 H3420 H 0.58644 0.18824 0.17736
 H3421 H 0.55517 0.19449 0.20195
 H3422 H 0.53821 0.20389 0.21116
 H3423 H 0.56051 0.23106 0.22449
 H3424 H 0.57746 0.22188 0.21519
 C3425 C 0.11654 0.68270 0.18202
 C3426 C 0.10793 0.68699 0.18633
 C3427 C 0.09772 0.69220 0.19149
 C3428 C 0.08654 0.68851 0.18819
 C3429 C 0.07662 0.69363 0.19319
 C3430 C 0.07778 0.70255 0.20153
 C3431 C 0.08906 0.70619 0.20478
 C3432 C 0.09895 0.70105 0.19980
 C3433 C 0.06729 0.70804 0.20686
 C3434 C 0.06698 0.72016 0.20890
 C3435 C 0.05727 0.72531 0.21421
 C3436 C 0.04773 0.71845 0.21755
 C3437 C 0.04788 0.70640 0.21547
 C3438 C 0.05759 0.70122 0.21014
 C3439 C 0.03804 0.72379 0.22350
 C3440 C 0.03023 0.72856 0.22872
 H3441 H 0.08549 0.68170 0.18173
 H3442 H 0.06806 0.69075 0.19040
 H3443 H 0.09025 0.71292 0.21129
 H3444 H 0.10756 0.70396 0.20243
 H3445 H 0.07424 0.72567 0.20636
 H3446 H 0.05725 0.73464 0.21580
 H3447 H 0.04058 0.70100 0.21811
 H3448 H 0.05764 0.69185 0.20883
 C3449 C 0.11604 0.18192 0.68242
 C3450 C 0.10749 0.18625 0.68678
 C3451 C 0.09733 0.19152 0.69199
 C3452 C 0.08612 0.18792 0.68870
 C3453 C 0.07626 0.19314 0.69371
 C3454 C 0.07750 0.20205 0.70205
 C3455 C 0.08882 0.20557 0.70531
 C3456 C 0.09866 0.20033 0.70031
 C3457 C 0.06707 0.20767 0.70734
 C3458 C 0.06690 0.21980 0.70936
 C3459 C 0.05723 0.22508 0.71461
 C3460 C 0.04759 0.21834 0.71791
 C3461 C 0.04760 0.20629 0.71585
 C3462 C 0.05727 0.20098 0.71058
 C3463 C 0.03792 0.22381 0.72378
 C3464 C 0.03012 0.22867 0.72892
 H3465 H 0.08500 0.18113 0.68224
 H3466 H 0.06767 0.19034 0.69092
 H3467 H 0.09007 0.21228 0.71182
 H3468 H 0.10730 0.20316 0.70294
 H3469 H 0.07424 0.22521 0.70684
 H3470 H 0.05732 0.23441 0.71619
 H3471 H 0.04021 0.20098 0.71844
 H3472 H 0.05720 0.19161 0.70928
 C3473 C 0.38383 0.68185 0.31790
 C3474 C 0.39239 0.68616 0.31354
 C3475 C 0.40254 0.69140 0.30829
 C3476 C 0.41313 0.68528 0.30784
 C3477 C 0.42294 0.69035 0.30262
 C3478 C 0.42226 0.70162 0.29775
 C3479 C 0.41158 0.70772 0.29831
 C3480 C 0.40180 0.70264 0.30354
 C3481 C 0.43258 0.70696 0.29199
 C3482 C 0.43123 0.71334 0.28161
 C3483 C 0.44088 0.71851 0.27623
 C3484 C 0.45202 0.71738 0.28114
 C3485 C 0.45349 0.71100 0.29143
 C3486 C 0.44383 0.70580 0.29682
 C3487 C 0.46182 0.72298 0.27562
 C3488 C 0.46968 0.72795 0.27070
 H3489 H 0.41379 0.67656 0.31147
 H3490 H 0.43100 0.68539 0.30221
 H3491 H 0.41082 0.71647 0.29479
 H3492 H 0.39366 0.70747 0.30388
 H3493 H 0.42272 0.71425 0.27758
 H3494 H 0.43965 0.72341 0.26825
 H3495 H 0.46207 0.71011 0.29532
 H3496 H 0.44513 0.70104 0.30487
 C3497 C 0.38386 0.18160 0.81802
 C3498 C 0.39237 0.18591 0.81357
 C3499 C 0.40247 0.19112 0.80821
 C3500 C 0.41332 0.18545 0.80865
 C3501 C 0.42310 0.19050 0.80337
 C3502 C 0.42215 0.20129 0.79755
 C3503 C 0.41121 0.20693 0.79719
 C3504 C 0.40145 0.20187 0.80249
 C3505 C 0.43248 0.20662 0.79180
 C3506 C 0.43134 0.21211 0.78091
 C3507 C 0.44099 0.21729 0.77555
 C3508 C 0.45193 0.21706 0.78099
 C3509 C 0.45320 0.21155 0.79180
 C3510 C 0.44354 0.20634 0.79717
 C3511 C 0.46171 0.22271 0.77550
 C3512 C 0.46957 0.22771 0.77061
 H3513 H 0.41420 0.17711 0.81303
 H3514 H 0.43137 0.18589 0.80368
 H3515 H 0.41023 0.21531 0.79293
 H3516 H 0.39310 0.20635 0.80212
 H3517 H 0.42299 0.21232 0.77647
 H3518 H 0.43992 0.22152 0.76718
 H3519 H 0.46163 0.21136 0.79610
 H3520 H 0.44467 0.20229 0.80561
 C3521 C 0.88389 0.68188 0.81788
 C3522 C 0.89240 0.68622 0.81345
 C3523 C 0.90250 0.69147 0.80813
 C3524 C 0.91323 0.68558 0.80810
 C3525 C 0.92301 0.69066 0.80284
 C3526 C 0.92216 0.70170 0.79749
 C3527 C 0.91134 0.70757 0.79761
 C3528 C 0.90158 0.70248 0.80290
 C3529 C 0.93247 0.70704 0.79171
 C3530 C 0.93117 0.71301 0.78107
 C3531 C 0.94082 0.71817 0.77567
 C3532 C 0.95188 0.71745 0.78080
 C3533 C 0.95330 0.71148 0.79134
 C3534 C 0.94366 0.70629 0.79676
 C3535 C 0.96166 0.72307 0.77527
 C3536 C 0.96953 0.72804 0.77036
 H3537 H 0.91402 0.67704 0.81210
 H3538 H 0.93118 0.68587 0.80277
 H3539 H 0.91044 0.71614 0.79372
 H3540 H 0.89333 0.70714 0.80290
 H3541 H 0.92272 0.71359 0.77687
 H3542 H 0.93963 0.72275 0.76750
 H3543 H 0.96183 0.71092 0.79541
 H3544 H 0.94491 0.70186 0.80500
 C3545 C 0.88379 0.18187 0.31810
 C3546 C 0.89229 0.18622 0.31367
 C3547 C 0.90238 0.19146 0.30832
 C3548 C 0.91322 0.18579 0.30869
 C3549 C 0.92300 0.19087 0.30341
 C3550 C 0.92203 0.20169 0.29765
 C3551 C 0.91109 0.20734 0.29738
 C3552 C 0.90135 0.20226 0.30268
 C3553 C 0.93233 0.20704 0.29188
 C3554 C 0.93113 0.21257 0.28100
 C3555 C 0.94077 0.21776 0.27561
 C3556 C 0.95173 0.21751 0.28100
 C3557 C 0.95306 0.21196 0.29178
 C3558 C 0.94342 0.20674 0.29718
 C3559 C 0.96150 0.22316 0.27548
 C3560 C 0.96937 0.22814 0.27058
 H3561 H 0.91411 0.17742 0.31301
 H3562 H 0.93126 0.18626 0.30366
 H3563 H 0.91010 0.21576 0.29317
 H3564 H 0.89300 0.20674 0.30238
 H3565 H 0.92276 0.21279 0.27661
 H3566 H 0.93965 0.22201 0.26725
 H3567 H 0.96150 0.21175 0.29604
 H3568 H 0.94459 0.20265 0.30560
 C3569 C 0.31790 0.31752 0.61579
 C3570 C 0.31357 0.31317 0.60728
 C3571 C 0.30832 0.30791 0.59719
 C3572 C 0.30796 0.31397 0.58661
 C3573 C 0.30274 0.30888 0.57685
 C3574 C 0.29778 0.29765 0.57757
 C3575 C 0.29824 0.29162 0.58824
 C3576 C 0.30347 0.29672 0.59797
 C3577 C 0.29207 0.29227 0.56729
 C3578 C 0.28163 0.28591 0.56859
 C3579 C 0.27633 0.28067 0.55898
 C3580 C 0.28135 0.28171 0.54793
 C3581 C 0.29168 0.28809 0.54650
 C3582 C 0.29700 0.29336 0.55611
 C3583 C 0.27592 0.27601 0.53818
 C3584 C 0.27109 0.27096 0.53034
 H3585 H 0.31166 0.32266 0.58592
 H3586 H 0.30241 0.31379 0.56880
 H3587 H 0.29466 0.28290 0.58903
 H3588 H 0.30373 0.29193 0.60611
 H3589 H 0.27752 0.28506 0.57704
 H3590 H 0.26831 0.27577 0.56018
 H3591 H 0.29565 0.28892 0.53798
 H3592 H 0.30509 0.29810 0.55484
 C3593 C 0.31766 0.81778 0.11586
 C3594 C 0.31333 0.81356 0.10728
 C3595 C 0.30808 0.80850 0.09709
 C3596 C 0.31342 0.80978 0.08620
 C3597 C 0.30830 0.80484 0.07630
 C3598 C 0.29776 0.79858 0.07718
 C3599 C 0.29246 0.79737 0.08817
 C3600 C 0.29759 0.80230 0.09805
 C3601 C 0.29232 0.79326 0.06672
 C3602 C 0.28012 0.79360 0.06518
 C3603 C 0.27496 0.78829 0.05553
 C3604 C 0.28189 0.78256 0.04727
 C3605 C 0.29405 0.78227 0.04864
 C3606 C 0.29924 0.78760 0.05829
 C3607 C 0.27644 0.77658 0.03770
 C3608 C 0.27162 0.77138 0.02995
 H3609 H 0.32151 0.81460 0.08535
 H3610 H 0.31252 0.80604 0.06795
 H3611 H 0.28443 0.79247 0.08916
 H3612 H 0.29340 0.80123 0.10644
 H3613 H 0.27458 0.79802 0.07143
 H3614 H 0.26554 0.78854 0.05456
 H3615 H 0.29949 0.77778 0.04235
 H3616 H 0.30864 0.78706 0.05931
 C3617 C 0.81749 0.31738 0.11596
 C3618 C 0.81330 0.31313 0.10734
 C3619 C 0.80829 0.30801 0.09705
 C3620 C 0.80227 0.31502 0.08905
 C3621 C 0.79731 0.31002 0.07911
 C3622 C 0.79832 0.29795 0.07704
 C3623 C 0.80445 0.29099 0.08510
 C3624 C 0.80940 0.29600 0.09504
 C3625 C 0.79286 0.29258 0.06661
 C3626 C 0.79869 0.28372 0.06040
 C3627 C 0.79339 0.27842 0.05080
 C3628 C 0.78221 0.28190 0.04728
 C3629 C 0.77638 0.29079 0.05332
 C3630 C 0.78167 0.29610 0.06291
 C3631 C 0.77649 0.27602 0.03781
 C3632 C 0.77151 0.27090 0.03010
 H3633 H 0.80140 0.32433 0.09050
 H3634 H 0.79277 0.31563 0.07300
 H3635 H 0.80525 0.28165 0.08384
 H3636 H 0.81403 0.29050 0.10118
 H3637 H 0.80737 0.28091 0.06294
 H3638 H 0.79797 0.27154 0.04619
 H3639 H 0.76768 0.29348 0.05072
 H3640 H 0.77688 0.30278 0.06760
 C3641 C 0.81811 0.81814 0.61572
 C3642 C 0.81377 0.81377 0.60722
 C3643 C 0.80851 0.80849 0.59713
 C3644 C 0.80835 0.81446 0.58650
 C3645 C 0.80313 0.80937 0.57674
 C3646 C 0.79797 0.79824 0.57752
 C3647 C 0.79823 0.79230 0.58825
 C3648 C 0.80347 0.79740 0.59798
 C3649 C 0.79226 0.79286 0.56723
 C3650 C 0.78169 0.78671 0.56849
 C3651 C 0.77638 0.78148 0.55888
 C3652 C 0.78154 0.78231 0.54787
 C3653 C 0.79201 0.78847 0.54648
 C3654 C 0.79733 0.79374 0.55610
 C3655 C 0.77612 0.77659 0.53812
 C3656 C 0.77130 0.77152 0.53029
 H3657 H 0.81220 0.82308 0.58576
 H3658 H 0.80295 0.81421 0.56865
 H3659 H 0.79449 0.78365 0.58909
 H3660 H 0.80357 0.79269 0.60616
 H3661 H 0.77747 0.78603 0.57690
 H3662 H 0.76827 0.77674 0.56004
 H3663 H 0.79609 0.78912 0.53800
 H3664 H 0.80552 0.79831 0.55487
 C3665 C 0.31787 0.68168 0.38411
 C3666 C 0.31352 0.68602 0.39264
 C3667 C 0.30830 0.69128 0.40275
 C3668 C 0.31360 0.69011 0.41367
 C3669 C 0.30859 0.69538 0.42345
 C3670 C 0.29822 0.70193 0.42243
 C3671 C 0.29292 0.70298 0.41143
 C3672 C 0.29793 0.69769 0.40166
 C3673 C 0.29298 0.70774 0.43275
 C3674 C 0.28823 0.71905 0.43179
 C3675 C 0.28314 0.72448 0.44142
 C3676 C 0.28271 0.71871 0.45215
 C3677 C 0.28749 0.70749 0.45324
 C3678 C 0.29261 0.70204 0.44361
 C3679 C 0.27710 0.72428 0.46188
 C3680 C 0.27213 0.72923 0.46971
 H3681 H 0.32164 0.68519 0.41460
 H3682 H 0.31294 0.69452 0.43178
 H3683 H 0.28484 0.70781 0.41038
 H3684 H 0.29373 0.69862 0.39327
 H3685 H 0.28854 0.72374 0.42361
 H3686 H 0.27948 0.73317 0.44049
 H3687 H 0.28716 0.70293 0.46150
 H3688 H 0.29609 0.69329 0.44459
 C3689 C 0.31768 0.18183 0.88409
 C3690 C 0.31332 0.18618 0.89261
 C3691 C 0.30808 0.19143 0.90271
 C3692 C 0.30328 0.20266 0.90198
 C3693 C 0.29809 0.20778 0.91174
 C3694 C 0.29762 0.20171 0.92239
 C3695 C 0.30252 0.19044 0.92306
 C3696 C 0.30770 0.18534 0.91328
 C3697 C 0.29195 0.20711 0.93270
 C3698 C 0.29693 0.20599 0.94385
 C3699 C 0.29166 0.21129 0.95350
 C3700 C 0.28133 0.21772 0.95211
 C3701 C 0.27627 0.21878 0.94109
 C3702 C 0.28152 0.21352 0.93145
 C3703 C 0.27596 0.22346 0.96188
 C3704 C 0.27118 0.22857 0.96973
 H3705 H 0.30357 0.20748 0.89386
 H3706 H 0.29455 0.21652 0.91098
 H3707 H 0.30218 0.18551 0.93110
 H3708 H 0.31136 0.17663 0.91393
 H3709 H 0.30502 0.20121 0.94507
 H3710 H 0.29568 0.21045 0.96199
 H3711 H 0.26826 0.22372 0.93993
 H3712 H 0.27737 0.21438 0.92302
 C3713 C 0.81781 0.68192 0.88399
 C3714 C 0.81344 0.68626 0.89250
 C3715 C 0.80815 0.69150 0.90260
 C3716 C 0.81426 0.69195 0.91314
 C3717 C 0.80916 0.69717 0.92290
 C3718 C 0.79787 0.70204 0.92223
 C3719 C 0.79178 0.70147 0.91160
 C3720 C 0.79689 0.69624 0.90187
 C3721 C 0.79250 0.70780 0.93250
 C3722 C 0.78608 0.71821 0.93116
 C3723 C 0.78093 0.72361 0.94078
 C3724 C 0.78211 0.71871 0.95187
 C3725 C 0.78852 0.70839 0.95333
 C3726 C 0.79371 0.70296 0.94371
 C3727 C 0.77658 0.72429 0.96165
 C3728 C 0.77169 0.72926 0.96952
 H3729 H 0.82300 0.68833 0.91379
 H3730 H 0.81412 0.69759 0.93091
 H3731 H 0.78302 0.70498 0.91085
 H3732 H 0.79207 0.69590 0.89376
 H3733 H 0.78514 0.72224 0.92268
 H3734 H 0.77600 0.73162 0.93955
 H3735 H 0.78946 0.70450 0.96188
 H3736 H 0.79849 0.69489 0.94500
 C3737 C 0.81756 0.18204 0.38407
 C3738 C 0.81321 0.18640 0.39257
 C3739 C 0.80797 0.19169 0.40267
 C3740 C 0.81284 0.18991 0.41370
 C3741 C 0.80780 0.19516 0.42349
 C3742 C 0.79783 0.20229 0.42234
 C3743 C 0.79298 0.20398 0.41121
 C3744 C 0.79802 0.19871 0.40146
 C3745 C 0.79255 0.20803 0.43268
 C3746 C 0.78841 0.21959 0.43194
 C3747 C 0.78327 0.22496 0.44159
 C3748 C 0.78220 0.21888 0.45210
 C3749 C 0.78637 0.20741 0.45297
 C3750 C 0.79153 0.20201 0.44332
 C3751 C 0.77656 0.22441 0.46183
 C3752 C 0.77159 0.22934 0.46968
 H3753 H 0.82056 0.18451 0.41474
 H3754 H 0.81181 0.19380 0.43191
 H3755 H 0.78522 0.20927 0.41007
 H3756 H 0.79416 0.20012 0.39296
 H3757 H 0.78922 0.22452 0.42394
 H3758 H 0.78008 0.23385 0.44083
 H3759 H 0.78553 0.20261 0.46105
 H3760 H 0.79452 0.19306 0.44412
 C3761 C 0.68231 0.31764 0.38373
 C3762 C 0.68663 0.31343 0.39233
 C3763 C 0.69184 0.30839 0.40257
 C3764 C 0.68627 0.30938 0.41338
 C3765 C 0.69135 0.30445 0.42331
 C3766 C 0.70210 0.29849 0.42256
 C3767 C 0.70763 0.29757 0.41166
 C3768 C 0.70253 0.30249 0.40174
 C3769 C 0.70750 0.29319 0.43307
 C3770 C 0.71966 0.29382 0.43482
 C3771 C 0.72480 0.28851 0.44451
 C3772 C 0.71789 0.28251 0.45258
 C3773 C 0.70577 0.28194 0.45101
 C3774 C 0.70060 0.28726 0.44132
 C3775 C 0.72335 0.27653 0.46217
 C3776 C 0.72820 0.27132 0.46991
 H3777 H 0.67801 0.31397 0.41412
 H3778 H 0.68695 0.30543 0.43160
 H3779 H 0.71582 0.29291 0.41076
 H3780 H 0.70691 0.30165 0.39342
 H3781 H 0.72519 0.29844 0.42872
 H3782 H 0.73419 0.28899 0.44564
 H3783 H 0.70035 0.27724 0.45716
 H3784 H 0.69124 0.28650 0.44014
 C3785 C 0.68169 0.81781 0.88425
 C3786 C 0.68601 0.81346 0.89279
 C3787 C 0.69123 0.80821 0.90292
 C3788 C 0.69666 0.79728 0.90205
 C3789 C 0.70186 0.79219 0.91182
 C3790 C 0.70171 0.79798 0.92262
 C3791 C 0.69617 0.80894 0.92343
 C3792 C 0.69098 0.81402 0.91363
 C3793 C 0.70739 0.79262 0.93295
 C3794 C 0.70208 0.79317 0.94399
 C3795 C 0.70739 0.78791 0.95364
 C3796 C 0.71808 0.78208 0.95237
 C3797 C 0.72347 0.78159 0.94146
 C3798 C 0.71818 0.78682 0.93181
 C3799 C 0.72350 0.77635 0.96213
 C3800 C 0.72836 0.77126 0.96994
 H3801 H 0.69687 0.79269 0.89381
 H3802 H 0.70590 0.78368 0.91095
 H3803 H 0.69602 0.81366 0.93159
 H3804 H 0.68683 0.82250 0.91439
 H3805 H 0.69371 0.79747 0.94512
 H3806 H 0.70311 0.78829 0.96205
 H3807 H 0.73176 0.77712 0.94039
 H3808 H 0.72258 0.78640 0.92348
 C3809 C 0.18181 0.31782 0.88410
 C3810 C 0.18614 0.31348 0.89264
 C3811 C 0.19137 0.30823 0.90277
 C3812 C 0.19774 0.29784 0.90169
 C3813 C 0.20293 0.29276 0.91147
 C3814 C 0.20181 0.29801 0.92249
 C3815 C 0.19533 0.30842 0.92350
 C3816 C 0.19016 0.31350 0.91369
 C3817 C 0.20747 0.29266 0.93284
 C3818 C 0.20164 0.29222 0.94362
 C3819 C 0.20693 0.28692 0.95326
 C3820 C 0.21810 0.28203 0.95224
 C3821 C 0.22401 0.28254 0.94160
 C3822 C 0.21875 0.28782 0.93196
 C3823 C 0.22349 0.27620 0.96196
 C3824 C 0.22830 0.27106 0.96977
 H3825 H 0.19870 0.29367 0.89328
 H3826 H 0.20771 0.28466 0.91044
 H3827 H 0.19442 0.31273 0.93184
 H3828 H 0.18527 0.32156 0.91461
 H3829 H 0.19291 0.29577 0.94454
 H3830 H 0.20226 0.28652 0.96146
 H3831 H 0.23267 0.27880 0.94072
 H3832 H 0.22354 0.28817 0.92384
 C3833 C 0.18181 0.81773 0.38409
 C3834 C 0.18616 0.81337 0.39260
 C3835 C 0.19143 0.80809 0.40270
 C3836 C 0.19692 0.79720 0.40176
 C3837 C 0.20215 0.79208 0.41151
 C3838 C 0.20195 0.79780 0.42235
 C3839 C 0.19636 0.80873 0.42321
 C3840 C 0.19115 0.81384 0.41344
 C3841 C 0.20763 0.79241 0.43266
 C3842 C 0.20228 0.79286 0.44368
 C3843 C 0.20759 0.78758 0.45332
 C3844 C 0.21832 0.78182 0.45206
 C3845 C 0.22375 0.78142 0.44115
 C3846 C 0.21846 0.78668 0.43152
 C3847 C 0.22374 0.77610 0.46181
 C3848 C 0.22860 0.77104 0.46965
 H3849 H 0.19717 0.79266 0.39350
 H3850 H 0.20624 0.78359 0.41060
 H3851 H 0.19618 0.81341 0.43140
 H3852 H 0.18695 0.82230 0.41425
 H3853 H 0.19389 0.79711 0.44481
 H3854 H 0.20329 0.78790 0.46172
 H3855 H 0.23207 0.77701 0.44009
 H3856 H 0.22290 0.78634 0.42320
 C3857 C 0.68221 0.68243 0.61617
 C3858 C 0.68650 0.68677 0.60762
 C3859 C 0.69169 0.69203 0.59748
 C3860 C 0.70264 0.69740 0.59830
 C3861 C 0.70764 0.70266 0.58852
 C3862 C 0.70176 0.70262 0.57776
 C3863 C 0.69079 0.69712 0.57701
 C3864 C 0.68579 0.69187 0.58681
 C3865 C 0.70702 0.70841 0.56744
 C3866 C 0.70634 0.70322 0.55635
 C3867 C 0.71148 0.70863 0.54669
 C3868 C 0.71730 0.71930 0.54800
 C3869 C 0.71793 0.72456 0.55897
 C3870 C 0.71283 0.71917 0.56862
 C3871 C 0.72289 0.72482 0.53822
 C3872 C 0.72786 0.72974 0.53037
 H3873 H 0.70730 0.69753 0.60650
 H3874 H 0.71617 0.70666 0.58934
 H3875 H 0.68599 0.69706 0.56889
 H3876 H 0.67729 0.68776 0.58609
 H3877 H 0.70203 0.69489 0.55519
 H3878 H 0.71098 0.70447 0.53825
 H3879 H 0.72241 0.73282 0.56007
 H3880 H 0.71335 0.72347 0.57699
 C3881 C 0.68262 0.18245 0.11626
 C3882 C 0.68686 0.18663 0.10760
 C3883 C 0.69200 0.19163 0.09731
 C3884 C 0.70378 0.19490 0.09734
 C3885 C 0.70881 0.19983 0.08739
 C3886 C 0.70210 0.20155 0.07727
 C3887 C 0.69026 0.19822 0.07732
 C3888 C 0.68526 0.19328 0.08728
 C3889 C 0.70742 0.20693 0.06676
 C3890 C 0.70119 0.21523 0.06017
 C3891 C 0.70637 0.22058 0.05051
 C3892 C 0.71781 0.21767 0.04729
 C3893 C 0.72402 0.20932 0.05370
 C3894 C 0.71887 0.20398 0.06336
 C3895 C 0.72339 0.22363 0.03777
 C3896 C 0.72830 0.22881 0.03005
 H3897 H 0.70907 0.19370 0.10507
 H3898 H 0.71789 0.20246 0.08769
 H3899 H 0.68491 0.19932 0.06963
 H3900 H 0.67614 0.19074 0.08716
 H3901 H 0.69243 0.21780 0.06264
 H3902 H 0.70152 0.22710 0.04566
 H3903 H 0.73289 0.20703 0.05129
 H3904 H 0.72384 0.19752 0.06816
 C3905 C 0.18246 0.68248 0.11578
 C3906 C 0.18668 0.68668 0.10713
 C3907 C 0.19174 0.69171 0.09681
 C3908 C 0.19940 0.68512 0.08994
 C3909 C 0.20445 0.69004 0.08000
 C3910 C 0.20189 0.70164 0.07679
 C3911 C 0.19409 0.70816 0.08371
 C3912 C 0.18907 0.70322 0.09365
 C3913 C 0.20746 0.70698 0.06640
 C3914 C 0.20101 0.71434 0.05896
 C3915 C 0.20637 0.71965 0.04938
 C3916 C 0.21824 0.71768 0.04711
 C3917 C 0.22469 0.71029 0.05439
 C3918 C 0.21935 0.70496 0.06396
 C3919 C 0.22393 0.72363 0.03764
 C3920 C 0.22889 0.72880 0.02995
 H3921 H 0.20148 0.67618 0.09227
 H3922 H 0.21028 0.68475 0.07476
 H3923 H 0.19205 0.71714 0.08155
 H3924 H 0.18316 0.70840 0.09891
 H3925 H 0.19182 0.71597 0.06053
 H3926 H 0.20130 0.72537 0.04381
 H3927 H 0.23390 0.70877 0.05276
 H3928 H 0.22459 0.69947 0.06961
 C3929 C 0.18176 0.18193 0.61599
 C3930 C 0.18609 0.18628 0.60746
 C3931 C 0.19131 0.19154 0.59734
 C3932 C 0.20240 0.19662 0.59813
 C3933 C 0.20745 0.20188 0.58837
 C3934 C 0.20146 0.20212 0.57767
 C3935 C 0.19035 0.19691 0.57695
 C3936 C 0.18531 0.19166 0.58673
 C3937 C 0.20677 0.20789 0.56736
 C3938 C 0.20586 0.20284 0.55622
 C3939 C 0.21101 0.20825 0.54657
 C3940 C 0.21709 0.21877 0.54793
 C3941 C 0.21795 0.22388 0.55895
 C3942 C 0.21283 0.21850 0.56860
 C3943 C 0.22266 0.22429 0.53815
 C3944 C 0.22762 0.22922 0.53030
 H3945 H 0.20714 0.19654 0.60629
 H3946 H 0.21608 0.20566 0.58916
 H3947 H 0.18548 0.19706 0.56887
 H3948 H 0.17671 0.18777 0.58604
 H3949 H 0.20136 0.19462 0.55502
 H3950 H 0.21034 0.20419 0.53809
 H3951 H 0.22262 0.23203 0.56009
 H3952 H 0.21353 0.22269 0.57701
   
