data_POSCAR
  _audit_creation_date              2014-09-24
  _audit_creation_method            'ToBaCCo'
  _symmetry_space_group_name_H-M    'P1'
  _symmetry_Int_Tables_number       1
  _symmetry_cell_setting            triclinic
  loop_
  _symmetry_equiv_pos_as_xyz
 x,y,z
_cell_length_a 40.5877
_cell_length_b 40.4378
_cell_length_c 37.8219
_cell_angle_alpha 90.197300
_cell_angle_beta 88.779000
_cell_angle_gamma 89.805900
loop_
  _atom_site_label
  _atom_site_type_symbol
  _atom_site_fract_x
  _atom_site_fract_y
  _atom_site_fract_z
C1 C 0.41499 0.03772 0.28847
 H2 H 0.41581 0.05319 0.26519
 C3 C 0.43520 0.04484 0.31692
 H4 H 0.45170 0.06576 0.31520
 C5 C 0.39127 -0.00750 0.31937
 H6 H 0.37365 -0.02741 0.32057
 C7 C 0.41092 -0.00127 0.34835
 H8 H 0.40865 -0.01735 0.37104
 N9 N 0.39386 0.01171 0.29008
 C10 C 0.36831 -0.01598 0.18356
 H11 H 0.34199 -0.01783 0.18816
 C12 C 0.38185 -0.02431 0.15065
 H13 H 0.36580 -0.03232 0.12980
 C14 C 0.42108 -0.00251 0.20518
 H15 H 0.43620 0.00570 0.22664
 C16 C 0.43561 -0.00984 0.17226
 H17 H 0.46197 -0.00710 0.16842
 Zn18 Zn 0.36526 0.00495 0.25227
 N19 N 0.38791 -0.00528 0.20992
 C20 C 0.34702 0.06331 0.21686
 N21 N 0.34181 0.04462 0.24632
 C22 C 0.32102 0.05473 0.27288
 C23 C 0.30286 0.08376 0.26941
 C24 C 0.33006 0.09310 0.21281
 C25 C 0.35022 -0.06161 0.26396
 C26 C 0.33038 -0.08975 0.26510
 C27 C 0.28261 -0.05445 0.26014
 C28 C 0.30337 -0.02707 0.25927
 N29 N 0.33653 -0.03106 0.26085
 H30 H 0.36440 0.05523 0.19656
 H31 H 0.31812 0.03981 0.29642
 H32 H 0.28556 0.09119 0.29018
 H33 H 0.33393 0.10772 0.18914
 H34 H 0.37675 -0.06417 0.26429
 H35 H 0.34237 -0.11359 0.26660
 H36 H 0.25646 -0.04992 0.25857
 H37 H 0.29289 -0.00278 0.25574
 C38 C 0.41579 -0.02090 0.14467
 C39 C 0.43329 0.02520 0.34740
 C40 C 0.29595 -0.08662 0.26218
 C41 C 0.30734 0.10305 0.23905
 C42 C 0.08052 0.00703 0.70439
 H43 H 0.06669 0.00570 0.72908
 C44 C 0.06462 0.01580 0.67341
 H45 H 0.03835 0.02063 0.67408
 C46 C 0.13196 0.00408 0.67336
 H47 H 0.15832 0.00017 0.67393
 C48 C 0.11727 0.01363 0.64216
 H49 H 0.13226 0.01627 0.61831
 N50 N 0.11368 0.00208 0.70378
 C51 C 0.08916 -0.03709 0.78405
 H52 H 0.08685 -0.05156 0.76024
 C53 C 0.07095 -0.04590 0.81425
 H54 H 0.05496 -0.06716 0.81300
 C55 C 0.11191 0.00875 0.81382
 H56 H 0.12773 0.03011 0.81370
 C57 C 0.09441 0.00074 0.84461
 H58 H 0.09754 0.01626 0.86759
 Zn59 Zn 0.13774 -0.00210 0.74510
 N60 N 0.10965 -0.01053 0.78453
 C61 C 0.18373 0.04095 0.77768
 N62 N 0.16149 0.03783 0.75147
 C63 C 0.15627 0.06290 0.72834
 C64 C 0.17508 0.09152 0.72959
 C65 C 0.20312 0.06928 0.77996
 C66 C 0.15337 -0.06795 0.73126
 C67 C 0.17239 -0.09661 0.73202
 C68 C 0.21955 -0.06334 0.74653
 C69 C 0.19961 -0.03531 0.74526
 N70 N 0.16681 -0.03825 0.73944
 H71 H 0.18687 0.02111 0.79645
 H72 H 0.13771 0.06081 0.70850
 H73 H 0.17098 0.11054 0.71012
 H74 H 0.22078 0.07107 0.80087
 H75 H 0.12769 -0.06953 0.72468
 H76 H 0.16085 -0.12001 0.72617
 H77 H 0.24517 -0.06035 0.75302
 H78 H 0.21041 -0.01146 0.74991
 C79 C 0.07378 -0.02714 0.84531
 C80 C 0.08340 0.02023 0.64228
 C81 C 0.20570 -0.09463 0.74101
 C82 C 0.19926 0.09477 0.75526
 C83 C 0.59853 0.54105 0.19710
 H84 H 0.59684 0.55704 0.22007
 C85 C 0.58404 0.55061 0.16558
 H86 H 0.57084 0.57388 0.16421
 C87 C 0.61786 0.49112 0.17068
 H88 H 0.63101 0.46797 0.17282
 C89 C 0.60275 0.49915 0.13913
 H90 H 0.60438 0.48217 0.11693
 N91 N 0.61586 0.51223 0.19870
 C92 C 0.58255 0.46805 0.26742
 H93 H 0.58344 0.45687 0.24139
 C94 C 0.56003 0.45648 0.29293
 H95 H 0.54364 0.43649 0.28620
 C96 C 0.60379 0.50696 0.30784
 H97 H 0.62060 0.52679 0.31355
 C98 C 0.58170 0.49621 0.33410
 H99 H 0.58185 0.50836 0.35960
 Zn100 Zn 0.63751 0.50176 0.24078
 N101 N 0.60457 0.49208 0.27559
 C102 C 0.68137 0.53730 0.28479
 N103 N 0.66545 0.53740 0.25348
 C104 C 0.67051 0.56209 0.22965
 C105 C 0.69014 0.58908 0.23785
 C106 C 0.70118 0.56406 0.29424
 C107 C 0.65815 0.43593 0.25190
 C108 C 0.67768 0.40802 0.24630
 C109 C 0.71085 0.43898 0.20424
 C110 C 0.69022 0.46624 0.21018
 N111 N 0.66439 0.46417 0.23357
 H112 H 0.67835 0.51664 0.30264
 H113 H 0.65949 0.56098 0.20399
 H114 H 0.69259 0.60880 0.21874
 H115 H 0.71302 0.56386 0.31960
 H116 H 0.63829 0.43496 0.27125
 H117 H 0.67251 0.38593 0.26149
 H118 H 0.73143 0.44093 0.18569
 H119 H 0.69479 0.48915 0.19624
 C120 C 0.55991 0.47009 0.32708
 C121 C 0.58615 0.52942 0.13634
 C122 C 0.70442 0.40941 0.22229
 C123 C 0.70528 0.59070 0.27081
 C124 C 0.90697 0.53487 0.80394
 H125 H 0.90624 0.55191 0.78205
 C126 C 0.92216 0.54440 0.83505
 H127 H 0.93399 0.56827 0.83554
 C128 C 0.89048 0.48413 0.82957
 H129 H 0.87688 0.46135 0.82814
 C130 C 0.90568 0.49243 0.86106
 H131 H 0.90366 0.47516 0.88273
 N132 N 0.89168 0.50512 0.80162
 C133 C 0.89180 0.46225 0.70143
 H134 H 0.87235 0.44513 0.70794
 C135 C 0.91308 0.45484 0.67312
 H136 H 0.90976 0.43213 0.65837
 C137 C 0.91876 0.51326 0.71104
 H138 H 0.92096 0.53598 0.72582
 C139 C 0.94004 0.50721 0.68216
 H140 H 0.95843 0.52543 0.67482
 Zn141 Zn 0.86701 0.49755 0.76061
 N142 N 0.89526 0.49077 0.72029
 C143 C 0.84367 0.55856 0.73025
 N144 N 0.84065 0.53595 0.75673
 C145 C 0.82068 0.54162 0.78541
 C146 C 0.80213 0.57050 0.78805
 C147 C 0.82600 0.58842 0.73227
 C148 C 0.85493 0.42974 0.77263
 C149 C 0.83625 0.40093 0.77531
 C150 C 0.78726 0.43361 0.76617
 C151 C 0.80691 0.46173 0.76321
 N152 N 0.84012 0.45943 0.76668
 H153 H 0.86026 0.55384 0.70806
 H154 H 0.81957 0.52370 0.80658
 H155 H 0.78640 0.57448 0.81118
 H156 H 0.82853 0.60640 0.71125
 H157 H 0.88146 0.42839 0.77454
 H158 H 0.84850 0.37755 0.77988
 H159 H 0.76096 0.43597 0.76272
 H160 H 0.79560 0.48524 0.75736
 C161 C 0.93750 0.47747 0.66323
 C162 C 0.92180 0.52307 0.86439
 C163 C 0.80196 0.40273 0.77213
 C164 C 0.80480 0.59437 0.76143
 C165 C 0.21613 0.43554 0.95971
 H166 H 0.23813 0.44129 0.94432
 C167 C 0.18753 0.45449 0.95588
 H168 H 0.18769 0.47493 0.93748
 C169 C 0.18912 0.40194 1.00249
 H170 H 0.18940 0.38090 1.01997
 C171 C 0.16027 0.42025 0.99972
 H172 H 0.13878 0.41298 1.01521
 N173 N 0.21660 0.41034 0.98341
 C174 C 0.32027 0.39675 1.00458
 H175 H 0.32089 0.37007 1.00239
 C176 C 0.34914 0.41405 1.01033
 H177 H 0.37221 0.40074 1.01261
 C178 C 0.28924 0.44664 1.00427
 H179 H 0.26575 0.45903 1.00218
 C180 C 0.31749 0.46491 1.01133
 H181 H 0.31589 0.49153 1.01417
 Zn182 Zn 0.25548 0.38584 0.99134
 N183 N 0.29138 0.41324 1.00045
 C184 C 0.29206 0.36963 0.92997
 N185 N 0.26591 0.35999 0.95062
 C186 C 0.24617 0.33472 0.94056
 C187 C 0.25262 0.31801 0.90867
 C188 C 0.29970 0.35332 0.89837
 C189 C 0.24324 0.38350 1.06109
 C190 C 0.23605 0.37176 1.09474
 C191 C 0.24308 0.31598 1.07250
 C192 C 0.24954 0.32893 1.03866
 N193 N 0.24904 0.36224 1.03374
 H194 H 0.30648 0.39089 0.93714
 H195 H 0.22504 0.32804 0.95690
 H196 H 0.23651 0.29815 0.90080
 H197 H 0.32018 0.36194 0.88211
 H198 H 0.24343 0.40988 1.05642
 H199 H 0.23126 0.38928 1.11596
 H200 H 0.24321 0.28948 1.07645
 H201 H 0.25468 0.31256 1.01655
 C202 C 0.34778 0.44843 1.01365
 C203 C 0.15934 0.44715 0.97653
 C204 C 0.23563 0.33769 1.10074
 C205 C 0.27969 0.32743 0.88717
 C206 C 0.78289 0.04776 0.99666
 H207 H 0.75883 0.03774 1.00258
 C208 C 0.81031 0.02687 0.99668
 H209 H 0.80630 0.00106 1.00252
 C210 C 0.81649 0.09331 0.98092
 H211 H 0.81872 0.11952 0.97579
 C212 C 0.84455 0.07336 0.98041
 H213 H 0.86794 0.08494 0.97440
 N214 N 0.78679 0.08066 0.99096
 C215 C 0.68535 0.10123 0.99714
 H216 H 0.68615 0.12103 0.97807
 C217 C 0.65584 0.08466 1.00335
 H218 H 0.63452 0.09135 0.98818
 C219 C 0.71207 0.06855 1.03987
 H220 H 0.73411 0.06269 1.05421
 C221 C 0.68316 0.05072 1.04636
 H222 H 0.68306 0.03088 1.06552
 Zn223 Zn 0.75328 0.11218 1.00059
 N224 N 0.71308 0.09196 1.01414
 C225 C 0.73768 0.11449 0.93113
 N226 N 0.74661 0.13495 0.95784
 C227 C 0.74908 0.16817 0.95303
 C228 C 0.74151 0.18199 0.92021
 C229 C 0.72932 0.12721 0.89840
 C230 C 0.79313 0.12807 1.05753
 C231 C 0.80171 0.14347 1.08894
 C232 C 0.75581 0.18089 1.08238
 C233 C 0.74811 0.16475 1.05079
 N234 N 0.76675 0.13878 1.03905
 H235 H 0.73623 0.08813 0.93570
 H236 H 0.75652 0.18390 0.97460
 H237 H 0.74321 0.20848 0.91662
 H238 H 0.72205 0.11039 0.87768
 H239 H 0.80678 0.10645 1.04908
 H240 H 0.82216 0.13355 1.10346
 H241 H 0.74052 0.20132 1.09147
 H242 H 0.72669 0.17223 1.03623
 C243 C 0.65490 0.05827 1.02724
 C244 C 0.84206 0.03989 0.99033
 C245 C 0.78280 0.17000 1.10206
 C246 C 0.73093 0.16134 0.89269
 C247 C 0.27586 0.56650 0.47559
 H248 H 0.25374 0.56554 0.46018
 C249 C 0.30163 0.54462 0.46814
 H250 H 0.29888 0.52662 0.44720
 C251 C 0.30647 0.59155 0.52111
 H252 H 0.30865 0.61023 0.54134
 C253 C 0.33285 0.57024 0.51450
 H254 H 0.35505 0.57312 0.52954
 N255 N 0.27906 0.58995 0.50108
 C256 C 0.17984 0.62593 0.52141
 H257 H 0.18531 0.65174 0.52533
 C258 C 0.14728 0.61588 0.51981
 H259 H 0.12778 0.63417 0.52200
 C260 C 0.19854 0.57079 0.51311
 H261 H 0.21860 0.55336 0.51022
 C262 C 0.16607 0.55952 0.51169
 H263 H 0.16129 0.53357 0.50689
 Zn264 Zn 0.24651 0.62267 0.50807
 N265 N 0.20465 0.60379 0.51590
 C266 C 0.22614 0.67921 0.47068
 N267 N 0.24355 0.65050 0.46764
 C268 C 0.25490 0.63966 0.43550
 C269 C 0.24704 0.65669 0.40474
 C270 C 0.21767 0.69699 0.44059
 C271 C 0.24872 0.63219 0.57965
 C272 C 0.25912 0.64562 0.61131
 C273 C 0.28815 0.68801 0.57824
 C274 C 0.27699 0.67377 0.54700
 N275 N 0.25750 0.64651 0.54846
 H276 H 0.21817 0.68806 0.49645
 H277 H 0.26911 0.61719 0.43329
 H278 H 0.25540 0.64685 0.37945
 H279 H 0.20351 0.71953 0.44383
 H280 H 0.23418 0.60983 0.57982
 H281 H 0.25191 0.63381 0.63593
 H282 H 0.30321 0.71002 0.57690
 H283 H 0.28438 0.68395 0.52166
 C284 C 0.14029 0.58262 0.51321
 C285 C 0.33094 0.54713 0.48699
 C286 C 0.27903 0.67386 0.61083
 C287 C 0.22742 0.68529 0.40696
 C288 C 0.70303 0.90112 0.46992
 H289 H 0.71704 0.88908 0.44897
 C290 C 0.67065 0.91042 0.46404
 H291 H 0.66041 0.90605 0.43826
 C292 C 0.69892 0.92032 0.52920
 H293 H 0.70994 0.92297 0.55484
 C294 C 0.66628 0.93012 0.52441
 H295 H 0.65221 0.94052 0.54643
 N296 N 0.71620 0.90544 0.50232
 C297 C 0.82043 0.90405 0.52461
 H298 H 0.82465 0.87762 0.52431
 C299 C 0.84696 0.92561 0.52674
 H300 H 0.87160 0.91542 0.52788
 C301 C 0.78305 0.94903 0.52064
 H302 H 0.75816 0.95790 0.51739
 C303 C 0.80894 0.97154 0.52255
 H304 H 0.80362 0.99775 0.52120
 Zn305 Zn 0.75652 0.88486 0.51173
 N306 N 0.78937 0.91603 0.52106
 C307 C 0.78471 0.87932 0.44518
 N308 N 0.77046 0.86080 0.47119
 C309 C 0.76409 0.82811 0.46627
 C310 C 0.77100 0.81321 0.43350
 C311 C 0.79235 0.86540 0.41233
 C312 C 0.76618 0.86332 0.58112
 C313 C 0.75847 0.84607 0.61192
 C314 C 0.71544 0.81767 0.58088
 C315 C 0.72387 0.83571 0.55065
 N316 N 0.74906 0.85776 0.55125
 H317 H 0.78899 0.90539 0.44955
 H318 H 0.75278 0.81379 0.48725
 H319 H 0.76515 0.78737 0.42963
 H320 H 0.80255 0.88106 0.39174
 H321 H 0.78522 0.88187 0.58154
 H322 H 0.77220 0.85155 0.63538
 H323 H 0.69547 0.80013 0.57957
 H324 H 0.70978 0.83275 0.52690
 C325 C 0.84143 0.95982 0.52471
 C326 C 0.65159 0.92407 0.49179
 C327 C 0.73278 0.82285 0.61215
 C328 C 0.78493 0.83210 0.40596
 C329 C 0.03114 0.30096 0.42713
 H330 H 0.05197 0.28425 0.42490
 C331 C 0.03237 0.32793 0.45024
 H332 H 0.05452 0.33166 0.46510
 C333 C -0.02220 0.31643 0.40924
 H334 H -0.04330 0.31215 0.39294
 C335 C -0.02192 0.34402 0.43200
 H336 H -0.04307 0.36038 0.43315
 N337 N 0.00400 0.29526 0.40755
 C338 C 0.01470 0.18759 0.38993
 H339 H 0.01529 0.18584 0.36137
 C340 C 0.01785 0.15884 0.41038
 H341 H 0.02090 0.13537 0.39691
 C342 C 0.00990 0.22055 0.44148
 H343 H 0.00606 0.24442 0.45377
 C344 C 0.01332 0.19274 0.46283
 H345 H 0.01195 0.19673 0.49102
 Zn346 Zn 0.00695 0.25680 0.37752
 N347 N 0.01103 0.21775 0.40570
 C348 C 0.07331 0.24395 0.35423
 N349 N 0.04586 0.26255 0.34879
 C350 C 0.04595 0.28691 0.32402
 C351 C 0.07379 0.29220 0.30234
 C352 C 0.10203 0.24910 0.33381
 C353 C -0.06197 0.25169 0.36237
 C354 C -0.08940 0.24807 0.34063
 C355 C -0.05228 0.24236 0.29038
 C356 C -0.02573 0.24622 0.31292
 N357 N -0.03084 0.25162 0.34815
 H358 H 0.07312 0.22531 0.37464
 H359 H 0.02414 0.30194 0.32075
 H360 H 0.07319 0.31124 0.28229
 H361 H 0.12354 0.23390 0.33827
 H362 H -0.06559 0.25492 0.39059
 H363 H -0.11389 0.24920 0.35245
 H364 H -0.04715 0.23805 0.26257
 H365 H -0.00095 0.24449 0.30212
 C366 C 0.01740 0.16100 0.44763
 C367 C 0.00557 0.34992 0.45319
 C368 C -0.08477 0.24387 0.30391
 C369 C 0.10229 0.27319 0.30716
 C370 C 0.01712 0.68531 0.10455
 H371 H 0.03628 0.68653 0.12380
 C372 C 0.01236 0.65566 0.08628
 H373 H 0.02764 0.63457 0.09245
 C374 C -0.02556 0.71113 0.07312
 H375 H -0.03976 0.73304 0.06741
 C376 C -0.03115 0.68196 0.05419
 H377 H -0.04989 0.68199 0.03430
 N378 N -0.00235 0.71212 0.09852
 C379 C -0.00939 0.81631 0.10099
 H380 H -0.02779 0.81690 0.12207
 C381 C -0.00411 0.84447 0.08037
 H382 H -0.01912 0.86607 0.08588
 C383 C 0.03227 0.78730 0.06892
 H384 H 0.04658 0.76493 0.06486
 C385 C 0.03848 0.81505 0.04767
 H386 H 0.05763 0.81347 0.02744
 Zn387 Zn 0.00259 0.75163 0.12602
 N388 N 0.00890 0.78852 0.09525
 C389 C 0.06710 0.76640 0.15049
 N390 N 0.04019 0.74682 0.15541
 C391 C 0.03954 0.72328 0.18109
 C392 C 0.06670 0.71843 0.20262
 C393 C 0.09489 0.76222 0.17127
 C394 C -0.06692 0.75723 0.14226
 C395 C -0.09486 0.76091 0.16443
 C396 C -0.05894 0.76925 0.21353
 C397 C -0.03184 0.76557 0.19045
 N398 N -0.03605 0.75879 0.15562
 H399 H 0.06717 0.78530 0.13040
 H400 H 0.01787 0.70805 0.18468
 H401 H 0.06566 0.69923 0.22246
 H402 H 0.11590 0.77820 0.16687
 H403 H -0.07008 0.75280 0.11441
 H404 H -0.11887 0.75874 0.15283
 H405 H -0.05398 0.77466 0.24087
 H406 H -0.00733 0.76825 0.20060
 C407 C 0.02035 0.84438 0.05340
 C408 C -0.01248 0.65343 0.06113
 C409 C -0.09129 0.76619 0.20102
 C410 C 0.09497 0.73793 0.19774
 C411 C 0.53337 0.19629 0.57515
 H412 H 0.55362 0.21340 0.57779
 C413 C 0.53673 0.16908 0.55253
 H414 H 0.55994 0.16514 0.53851
 C415 C 0.47860 0.18106 0.59040
 H416 H 0.45588 0.18611 0.60489
 C417 C 0.48106 0.15319 0.56832
 H418 H 0.46008 0.13690 0.56611
 N419 N 0.50447 0.20218 0.59298
 C420 C 0.50505 0.30991 0.59686
 H421 H 0.50599 0.31517 0.62488
 C422 C 0.50257 0.33595 0.57262
 H423 H 0.50185 0.36103 0.58260
 C424 C 0.50297 0.27078 0.55037
 H425 H 0.50196 0.24541 0.54154
 C426 C 0.50050 0.29597 0.52532
 H427 H 0.49871 0.28924 0.49775
 Zn428 Zn 0.50251 0.24245 0.61916
 N429 N 0.50505 0.27796 0.58549
 C430 C 0.56624 0.26157 0.64429
 N431 N 0.53954 0.24184 0.65027
 C432 C 0.53989 0.21858 0.67623
 C433 C 0.56722 0.21517 0.69799
 C434 C 0.59451 0.25833 0.66487
 C435 C 0.43463 0.25371 0.62328
 C436 C 0.40371 0.26148 0.63813
 C437 C 0.42600 0.25426 0.69617
 C438 C 0.45695 0.24746 0.68016
 N439 N 0.46077 0.24740 0.64420
 H440 H 0.56602 0.27927 0.62294
 H441 H 0.51905 0.20224 0.67975
 H442 H 0.56683 0.19654 0.71848
 H443 H 0.61550 0.27415 0.65960
 H444 H 0.43811 0.25385 0.59484
 H445 H 0.38358 0.26748 0.62090
 H446 H 0.42348 0.25498 0.72472
 H447 H 0.47794 0.24314 0.69662
 C448 C 0.49975 0.32918 0.53622
 C449 C 0.51028 0.14724 0.54860
 C450 C 0.39911 0.26210 0.67499
 C451 C 0.59515 0.23498 0.69230
 C452 C 0.51751 0.80224 0.92263
 H453 H 0.53871 0.78602 0.92383
 C454 C 0.51525 0.82984 0.94487
 H455 H 0.53472 0.83474 0.96330
 C456 C 0.46623 0.81555 0.89736
 H457 H 0.44712 0.80978 0.87888
 C458 C 0.46356 0.84414 0.91830
 H459 H 0.44227 0.86016 0.91609
 N460 N 0.49270 0.79498 0.90029
 C461 C 0.50252 0.68740 0.88687
 H462 H 0.50123 0.68542 0.85840
 C463 C 0.50572 0.65882 0.90730
 H464 H 0.50660 0.63504 0.89414
 C465 C 0.50201 0.72095 0.93824
 H466 H 0.49984 0.74500 0.95048
 C467 C 0.50541 0.69313 0.95960
 H468 H 0.50657 0.69683 0.98784
 Zn469 Zn 0.49656 0.75552 0.87268
 N470 N 0.50109 0.71777 0.90248
 C471 C 0.56093 0.73853 0.84879
 N472 N 0.53520 0.75947 0.84343
 C473 C 0.53825 0.78527 0.82064
 C474 C 0.56813 0.79087 0.80242
 C475 C 0.59110 0.74315 0.83112
 C476 C 0.43129 0.73952 0.86820
 C477 C 0.40131 0.73080 0.85366
 C478 C 0.42390 0.74316 0.79565
 C479 C 0.45404 0.75100 0.81136
 N480 N 0.45713 0.74884 0.84712
 H481 H 0.55862 0.71873 0.86771
 H482 H 0.51779 0.80214 0.81746
 H483 H 0.57001 0.81206 0.78516
 H484 H 0.61102 0.72610 0.83617
 H485 H 0.43433 0.73804 0.89650
 H486 H 0.38133 0.72278 0.87099
 H487 H 0.42170 0.74438 0.76720
 H488 H 0.47494 0.75825 0.79501
 C489 C 0.50715 0.66140 0.94431
 C490 C 0.48797 0.85103 0.94290
 C491 C 0.39739 0.73223 0.81699
 C492 C 0.59527 0.76983 0.80782
 C493 C -0.22778 0.66680 0.98034
 H494 H -0.22982 0.67571 1.00728
 C495 C -0.21947 0.68863 0.95307
 H496 H -0.21570 0.71446 0.95928
 C497 C -0.23100 0.62244 0.93937
 H498 H -0.23548 0.59650 0.93436
 C499 C -0.22308 0.64339 0.91137
 H500 H -0.22145 0.63341 0.88478
 N501 N -0.23345 0.63442 0.97301
 C502 C -0.28456 0.64150 1.05582
 H503 H -0.30206 0.63959 1.03475
 C504 C -0.29337 0.65814 1.08698
 H505 H -0.31773 0.66886 1.08873
 C506 C -0.23165 0.62962 1.07767
 H507 H -0.20759 0.61847 1.07377
 C508 C -0.23929 0.64624 1.10925
 H509 H -0.22064 0.64718 1.12918
 Zn510 Zn -0.24511 0.60437 1.00935
 N511 N -0.25426 0.62752 1.05182
 C512 C -0.20913 0.55336 1.04319
 N513 N -0.20937 0.57477 1.01548
 C514 C -0.18277 0.57766 0.99325
 C515 C -0.15455 0.55897 0.99844
 C516 C -0.18099 0.53444 1.04974
 C517 C -0.30206 0.59709 0.97060
 C518 C -0.33178 0.58366 0.96031
 C519 C -0.32536 0.54075 1.00391
 C520 C -0.29524 0.55482 1.01307
 N521 N -0.28407 0.58236 0.99612
 H522 H -0.23014 0.55210 1.06116
 H523 H -0.18261 0.59535 0.97207
 H524 H -0.13345 0.56276 0.98096
 H525 H -0.18078 0.51817 1.07240
 H526 H -0.29403 0.62004 0.95888
 H527 H -0.34580 0.59632 0.94040
 H528 H -0.33413 0.51893 1.01764
 H529 H -0.28111 0.54402 1.03399
 C530 C -0.27063 0.66092 1.11450
 C531 C -0.21733 0.67695 0.91807
 C532 C -0.34378 0.55519 0.97699
 C533 C -0.15318 0.53745 1.02730
 C534 C -0.20965 0.36099 0.54583
 H535 H -0.19093 0.36923 0.52707
 C536 C -0.20090 0.34561 0.57551
 H537 H -0.17506 0.34088 0.57990
 C538 C -0.26681 0.35798 0.56127
 H539 H -0.29210 0.36509 0.55788
 C540 C -0.25853 0.33899 0.59290
 H541 H -0.27864 0.33186 0.61046
 N542 N -0.24374 0.36835 0.53964
 C543 C -0.26497 0.39830 0.43230
 H544 H -0.27352 0.42316 0.43800
 C545 C -0.26984 0.38462 0.39902
 H546 H -0.28135 0.39951 0.37898
 C547 C -0.24076 0.34849 0.45229
 H548 H -0.23047 0.33428 0.47359
 C549 C -0.24485 0.33389 0.41904
 H550 H -0.23731 0.30845 0.41485
 Zn551 Zn -0.25374 0.39941 0.50383
 N552 N -0.25112 0.38008 0.45827
 C553 C -0.20537 0.44304 0.47810
 N554 N -0.22325 0.43396 0.50730
 C555 C -0.21249 0.44013 0.54046
 C556 C -0.18043 0.45121 0.54518
 C557 C -0.17357 0.45536 0.48168
 C558 C -0.31774 0.38764 0.50113
 C559 C -0.35096 0.39283 0.49708
 C560 C -0.34325 0.45076 0.51058
 C561 C -0.30948 0.44428 0.51460
 N562 N -0.29761 0.41313 0.50892
 H563 H -0.21407 0.43737 0.45202
 H564 H -0.22701 0.43211 0.56314
 H565 H -0.17057 0.45231 0.57155
 H566 H -0.15830 0.45955 0.45829
 H567 H -0.30753 0.36319 0.49664
 H568 H -0.36595 0.37154 0.49116
 H569 H -0.35229 0.47589 0.51317
 H570 H -0.29269 0.46421 0.52033
 C571 C -0.26032 0.35185 0.39225
 C572 C -0.22675 0.33423 0.60112
 C573 C -0.36400 0.42496 0.49966
 C574 C -0.16028 0.45720 0.51544
 C575 C 0.28801 -0.15415 0.03939
 H576 H 0.30190 -0.15726 0.01485
 C577 C 0.29631 -0.17129 0.06802
 H578 H 0.31686 -0.18823 0.06565
 C579 C 0.24402 -0.12639 0.07009
 H580 H 0.22451 -0.10818 0.07112
 C581 C 0.25188 -0.14516 0.10223
 H582 H 0.23696 -0.14037 0.12570
 N583 N 0.26088 -0.13131 0.04091
 C584 C 0.24072 -0.12071 -0.07086
 H585 H 0.24722 -0.09500 -0.07442
 C586 C 0.22931 -0.13908 -0.09934
 H587 H 0.22769 -0.12760 -0.12508
 C588 C 0.23384 -0.16660 -0.03256
 H589 H 0.23496 -0.17688 -0.00626
 C590 C 0.22167 -0.18569 -0.06018
 H591 H 0.21458 -0.21105 -0.05519
 Zn592 Zn 0.25342 -0.10681 -0.00046
 N593 N 0.24310 -0.13477 -0.03841
 C594 C 0.31337 -0.08974 -0.03734
 N595 N 0.29229 -0.08256 -0.00984
 C596 C 0.29907 -0.05826 0.01378
 C597 C 0.32686 -0.03860 0.00904
 C598 C 0.34215 -0.07120 -0.04248
 C599 C 0.18712 -0.09239 0.01319
 C600 C 0.15821 -0.07364 0.01260
 C601 C 0.19065 -0.02637 -0.00529
 C602 C 0.21888 -0.04601 -0.00415
 N603 N 0.21665 -0.07841 0.00483
 H604 H 0.30806 -0.10996 -0.05507
 H605 H 0.28243 -0.05382 0.03603
 H606 H 0.33157 -0.01886 0.02768
 H607 H 0.35878 -0.07682 -0.06447
 H608 H 0.18593 -0.11850 0.01922
 H609 H 0.13519 -0.08597 0.01859
 H610 H 0.19373 -0.00081 -0.01274
 H611 H 0.24233 -0.03556 -0.01201
 C612 C 0.21932 -0.17187 -0.09403
 C613 C 0.27707 -0.16711 0.10175
 C614 C 0.15946 -0.04017 0.00237
 C615 C 0.34858 -0.04491 -0.01944
 C616 C 0.29191 1.13988 0.44835
 H617 H 0.31079 1.13012 0.46515
 C618 C 0.30109 1.15729 0.41798
 H619 H 0.32699 1.16071 0.41168
 C620 C 0.23536 1.14763 0.43629
 H621 H 0.20979 1.14348 0.44316
 C622 C 0.24346 1.16563 0.40592
 H623 H 0.22390 1.17496 0.38966
 N624 N 0.25952 1.13471 0.45651
 C625 C 0.23035 1.11684 0.56636
 H626 H 0.23274 1.09022 0.56769
 C627 C 0.22032 1.13475 0.59630
 H628 H 0.21536 1.12203 0.62099
 C629 C 0.23379 1.16603 0.53244
 H630 H 0.23903 1.17801 0.50746
 C631 C 0.22277 1.18474 0.56140
 H632 H 0.22009 1.21127 0.55880
 Zn633 Zn 0.24921 1.10717 0.49565
 N634 N 0.23740 1.13275 0.53549
 C635 C 0.30407 1.08548 0.53478
 N636 N 0.28693 1.08118 0.50456
 C637 C 0.29931 1.06267 0.47723
 C638 C 0.33093 1.04939 0.47877
 C639 C 0.33585 1.07259 0.53738
 C640 C 0.18279 1.09639 0.48741
 C641 C 0.15382 1.07854 0.48371
 C642 C 0.18650 1.02883 0.47628
 C643 C 0.21488 1.04765 0.48035
 N644 N 0.21250 1.08080 0.48585
 H645 H 0.29443 1.10120 0.55569
 H646 H 0.28577 1.06073 0.45299
 H647 H 0.34166 1.03716 0.45571
 H648 H 0.35042 1.07850 0.56021
 H649 H 0.18151 1.12261 0.49298
 H650 H 0.13050 1.09142 0.48645
 H651 H 0.18899 1.00246 0.47211
 H652 H 0.23859 1.03552 0.48002
 C653 C 0.21621 1.16901 0.59373
 C654 C 0.27670 1.17002 0.39615
 C655 C 0.15545 1.04420 0.47868
 C656 C 0.34975 1.05531 0.50865
 C657 C 0.19503 0.47268 0.27067
 H658 H 0.20505 0.49692 0.26582
 C659 C 0.21662 0.44615 0.27486
 H660 H 0.24273 0.45092 0.27256
 C661 C 0.14912 0.43761 0.27931
 H662 H 0.12281 0.43444 0.28193
 C663 C 0.16984 0.41032 0.28365
 H664 H 0.15889 0.38644 0.28887
 N665 N 0.16189 0.46783 0.27127
 C666 C 0.15328 0.56811 0.27502
 H667 H 0.13465 0.56633 0.29574
 C668 C 0.17263 0.59652 0.27265
 H669 H 0.16852 0.61631 0.29159
 C670 C 0.18203 0.54411 0.22612
 H671 H 0.18573 0.52341 0.20826
 C672 C 0.20200 0.57198 0.22287
 H673 H 0.22051 0.57262 0.20190
 Zn674 Zn 0.13337 0.50316 0.25773
 N675 N 0.15837 0.54251 0.25206
 C676 C 0.07449 0.53070 0.28542
 N677 N 0.10067 0.51099 0.29289
 C678 C 0.10533 0.49936 0.32602
 C679 C 0.08335 0.50776 0.35338
 C680 C 0.05178 0.53974 0.31211
 C681 C 0.09613 0.46257 0.21299
 C682 C 0.08278 0.45179 0.18130
 C683 C 0.10234 0.50186 0.15360
 C684 C 0.11570 0.51141 0.18578
 N685 N 0.11294 0.49152 0.21459
 H686 H 0.07174 0.54004 0.25887
 H687 H 0.12663 0.48426 0.33148
 H688 H 0.08770 0.49790 0.37940
 H689 H 0.03143 0.55591 0.30585
 H690 H 0.09284 0.44768 0.23632
 H691 H 0.06960 0.42864 0.18156
 H692 H 0.10557 0.51824 0.13129
 H693 H 0.12820 0.53485 0.18757
 C694 C 0.19761 0.59854 0.24654
 C695 C 0.20415 0.41413 0.28012
 C696 C 0.08571 0.47143 0.15074
 C697 C 0.05632 0.52856 0.34675
 C698 C -0.18759 1.04208 0.28371
 H699 H -0.19124 1.02146 0.30150
 C700 C -0.20332 1.07222 0.29084
 H701 H -0.21920 1.07434 0.31407
 C702 C -0.16112 1.06468 0.23292
 H703 H -0.14469 1.06185 0.21030
 C704 C -0.17632 1.09514 0.23900
 H705 H -0.17159 1.11509 0.22061
 N706 N -0.16626 1.03909 0.25562
 C707 C -0.15128 0.93392 0.23010
 H708 H -0.12506 0.93361 0.22471
 C709 C -0.16923 0.90478 0.22645
 H710 H -0.15639 0.88228 0.21883
 C711 C -0.19977 0.96386 0.24527
 H712 H -0.21166 0.98683 0.25268
 C713 C -0.21868 0.93531 0.24197
 H714 H -0.24483 0.93705 0.24758
 Zn715 Zn -0.14021 1.00028 0.24925
 N716 N -0.16655 0.96254 0.24029
 C717 C -0.09634 0.96496 0.29215
 N718 N -0.11552 0.99252 0.29046
 C719 C -0.11797 1.01387 0.31827
 C720 C -0.10240 1.00690 0.34986
 C721 C -0.08018 0.95708 0.32321
 C722 C -0.11910 0.99527 0.17847
 C723 C -0.10015 1.00350 0.14872
 C724 C -0.06596 1.03739 0.18573
 C725 C -0.08538 1.02807 0.21488
 N726 N -0.11138 1.00749 0.21068
 H727 H -0.09356 0.94890 0.26949
 H728 H -0.13205 1.03640 0.31624
 H729 H -0.10551 1.02399 0.37174
 H730 H -0.06511 0.93502 0.32365
 H731 H -0.14067 0.97998 0.17559
 H732 H -0.10760 0.99374 0.12350
 H733 H -0.04546 1.05373 0.19019
 H734 H -0.08031 1.03796 0.24081
 C735 C -0.20335 0.90506 0.23311
 C736 C -0.19725 1.09941 0.26866
 C737 C -0.07314 1.02507 0.15187
 C738 C -0.08351 0.97795 0.35283
 C739 C 0.31024 0.53490 -0.22372
 H740 H 0.30848 0.51367 -0.20645
 C741 C 0.28852 0.56142 -0.21898
 H742 H 0.27061 0.56067 -0.19743
 C743 C 0.33598 0.56137 -0.27276
 H744 H 0.35393 0.56099 -0.29420
 C745 C 0.31477 0.58834 -0.26905
 H746 H 0.31699 0.60852 -0.28766
 N747 N 0.33376 0.53563 -0.24984
 C748 C 0.33603 0.43366 -0.23716
 H749 H 0.35448 0.43324 -0.21704
 C750 C 0.31586 0.40791 -0.24053
 H751 H 0.31864 0.38731 -0.22269
 C752 C 0.30935 0.46386 -0.28249
 H753 H 0.30703 0.48577 -0.29858
 C754 C 0.28646 0.43609 -0.28715
 H755 H 0.26828 0.43845 -0.30743
 Zn756 Zn 0.36123 0.49832 -0.25554
 N757 N 0.33284 0.46191 -0.25972
 C758 C 0.41057 0.46761 -0.21645
 N759 N 0.38797 0.49247 -0.21550
 C760 C 0.38287 0.51095 -0.18576
 C761 C 0.39945 0.50345 -0.15480
 C762 C 0.42780 0.45932 -0.18615
 C763 C 0.38226 0.48255 -0.32542
 C764 C 0.39867 0.48781 -0.35767
 C765 C 0.42762 0.53330 -0.33114
 C766 C 0.41055 0.52717 -0.29933
 N767 N 0.38773 0.50268 -0.29730
 H768 H 0.41434 0.45342 -0.24052
 H769 H 0.36529 0.53103 -0.18558
 H770 H 0.39413 0.51798 -0.13132
 H771 H 0.44525 0.43913 -0.18782
 H772 H 0.36458 0.46275 -0.32326
 H773 H 0.39301 0.47183 -0.37966
 H774 H 0.44515 0.55333 -0.33198
 H775 H 0.41467 0.54268 -0.27649
 C776 C 0.28974 0.40849 -0.26761
 C777 C 0.29086 0.58871 -0.24168
 C778 C 0.42136 0.51384 -0.36117
 C779 C 0.42189 0.47691 -0.15445
 C780 C 0.68986 -0.03280 -0.22647
 H781 H 0.69153 -0.01053 -0.21081
 C782 C 0.70989 -0.05821 -0.22002
 H783 H 0.72745 -0.05541 -0.19919
 C784 C 0.66591 -0.06031 -0.27537
 H785 H 0.64915 -0.06100 -0.29712
 C786 C 0.68730 -0.08916 -0.26907
 H787 H 0.68451 -0.11045 -0.28608
 N788 N 0.66658 -0.03471 -0.25442
 C789 C 0.64687 0.06899 -0.27198
 H790 H 0.62128 0.07105 -0.26366
 C791 C 0.66562 0.09750 -0.27742
 H792 H 0.65369 0.12116 -0.27323
 C793 C 0.69306 0.03507 -0.28565
 H794 H 0.70369 0.01063 -0.28852
 C795 C 0.71268 0.06280 -0.29153
 H796 H 0.73806 0.05861 -0.29943
 Zn797 Zn 0.63706 0.00113 -0.26034
 N798 N 0.66110 0.03863 -0.27509
 C799 C 0.63495 0.02896 -0.19286
 N800 N 0.61651 0.01179 -0.21623
 C801 C 0.58482 0.00336 -0.20820
 C802 C 0.57101 0.01113 -0.17504
 C803 C 0.62204 0.03748 -0.15959
 C804 C 0.60541 0.00720 -0.32497
 C805 C 0.58570 -0.00272 -0.35267
 C806 C 0.56668 -0.04881 -0.31732
 C807 C 0.58701 -0.03808 -0.29024
 N808 N 0.60600 -0.01063 -0.29464
 H809 H 0.65976 0.03628 -0.20012
 H810 H 0.57016 -0.00948 -0.22728
 H811 H 0.54583 0.00400 -0.16905
 H812 H 0.63749 0.05055 -0.14128
 H813 H 0.62087 0.02872 -0.32810
 H814 H 0.58569 0.01199 -0.37650
 H815 H 0.55224 -0.07106 -0.31375
 H816 H 0.58860 -0.05237 -0.26622
 C817 C 0.69952 0.09479 -0.28598
 C818 C 0.70793 -0.08903 -0.24158
 C819 C 0.56635 -0.03132 -0.34922
 C820 C 0.58980 0.02823 -0.15019
 C821 C 0.06321 0.25852 0.85310
 H822 H 0.06311 0.27712 0.87360
 C823 C 0.09202 0.25352 0.83264
 H824 H 0.11343 0.26847 0.83790
 C825 C 0.03536 0.21769 0.82049
 H826 H 0.01302 0.20445 0.81486
 C827 C 0.06358 0.21189 0.79947
 H828 H 0.06244 0.19336 0.77888
 N829 N 0.03553 0.24052 0.84701
 C830 C -0.07192 0.25303 0.85926
 H831 H -0.07541 0.24736 0.88701
 C832 C -0.09938 0.25689 0.83773
 H833 H -0.12383 0.25381 0.84920
 C834 C -0.03570 0.26290 0.81061
 H835 H -0.01088 0.26558 0.80013
 C836 C -0.06239 0.26688 0.78818
 H837 H -0.05752 0.27257 0.76065
 Zn838 Zn -0.00413 0.24762 0.87526
 N839 N -0.04080 0.25548 0.84534
 C840 C -0.01442 0.31382 0.89911
 N841 N 0.00217 0.28517 0.90513
 C842 C 0.02464 0.28322 0.93124
 C843 C 0.03163 0.31086 0.95203
 C844 C -0.00812 0.34213 0.91926
 C845 C -0.01309 0.17880 0.88825
 C846 C -0.01863 0.15037 0.90843
 C847 C -0.02704 0.18490 0.95993
 C848 C -0.02094 0.21271 0.93880
 N849 N -0.01354 0.20928 0.90366
 H850 H -0.03202 0.31501 0.87810
 H851 H 0.03760 0.26020 0.93552
 H852 H 0.04962 0.30837 0.97252
 H853 H -0.02118 0.36472 0.91332
 H854 H -0.00826 0.17629 0.86027
 H855 H -0.01774 0.12645 0.89551
 H856 H -0.03219 0.18828 0.98790
 H857 H -0.02221 0.23705 0.95062
 C858 C -0.09481 0.26329 0.80145
 C859 C 0.09251 0.22999 0.80522
 C860 C -0.02543 0.15314 0.94486
 C861 C 0.01549 0.34106 0.94595
 C862 C 0.46530 0.27348 0.18088
 H863 H 0.48267 0.29334 0.18474
 C864 C 0.43723 0.27126 0.20280
 H865 H 0.43330 0.28944 0.22357
 C866 C 0.44914 0.22601 0.14892
 H867 H 0.45368 0.20856 0.12765
 C868 C 0.42013 0.22348 0.16962
 H869 H 0.40285 0.20377 0.16454
 N870 N 0.47137 0.25045 0.15523
 C871 C 0.57905 0.26529 0.14123
 H872 H 0.58123 0.26740 0.11277
 C873 C 0.60699 0.26956 0.16198
 H874 H 0.63033 0.27511 0.14904
 C875 C 0.54596 0.25544 0.19224
 H876 H 0.52241 0.24912 0.20412
 C877 C 0.57318 0.25943 0.21393
 H878 H 0.56962 0.25615 0.24208
 Zn879 Zn 0.51108 0.25505 0.12712
 N880 N 0.54904 0.25909 0.15657
 C881 C 0.52642 0.32009 0.09977
 N882 N 0.50561 0.29377 0.09875
 C883 C 0.47916 0.29398 0.07728
 C884 C 0.47338 0.32073 0.05491
 C885 C 0.52156 0.34744 0.07774
 C886 C 0.51740 0.18639 0.11137
 C887 C 0.51991 0.15830 0.08961
 C888 C 0.52376 0.19413 0.03889
 C889 C 0.52095 0.22143 0.06153
 N890 N 0.51713 0.21722 0.09703
 H891 H 0.54686 0.32004 0.11756
 H892 H 0.46262 0.27305 0.07731
 H893 H 0.45204 0.31996 0.03833
 H894 H 0.53876 0.36778 0.07869
 H895 H 0.51484 0.18358 0.13973
 H896 H 0.51920 0.13415 0.10177
 H897 H 0.52655 0.19868 0.01087
 H898 H 0.52172 0.24605 0.05055
 C899 C 0.60430 0.26698 0.19903
 C900 C 0.41431 0.24593 0.19741
 C901 C 0.52260 0.16184 0.05264
 C902 C 0.49489 0.34793 0.05457
 C903 C -0.04144 0.77179 0.69191
 H904 H -0.02257 0.79010 0.69634
 C905 C -0.06527 0.76711 0.71635
 H906 H -0.06534 0.78223 0.74001
 C907 C -0.06404 0.73183 0.65299
 H908 H -0.06331 0.71782 0.62860
 C909 C -0.09232 0.72767 0.67809
 H910 H -0.11161 0.71046 0.67139
 N911 N -0.04007 0.75201 0.66025
 C912 C 0.06722 0.76600 0.63852
 H913 H 0.06817 0.77029 0.61030
 C914 C 0.09599 0.76964 0.65836
 H915 H 0.11880 0.77686 0.64524
 C916 C 0.03673 0.75128 0.68995
 H917 H 0.01423 0.74262 0.70233
 C918 C 0.06451 0.75534 0.71074
 H919 H 0.06252 0.75047 0.73884
 Zn920 Zn -0.00285 0.75698 0.62845
 N921 N 0.03789 0.75818 0.65471
 C922 C 0.01187 0.82235 0.60197
 N923 N -0.01004 0.79697 0.60257
 C924 C -0.03860 0.79904 0.58445
 C925 C -0.04553 0.82680 0.56383
 C926 C 0.00594 0.85057 0.58165
 C927 C -0.00048 0.68941 0.60999
 C928 C -0.00267 0.66167 0.58798
 C929 C -0.00609 0.69796 0.53770
 C930 C -0.00374 0.72505 0.56069
 N931 N -0.00167 0.72040 0.59623
 H932 H 0.03406 0.82085 0.61712
 H933 H -0.05594 0.77879 0.58568
 H934 H -0.06842 0.82747 0.54976
 H935 H 0.02416 0.87001 0.58133
 H936 H 0.00119 0.68628 0.63829
 H937 H -0.00262 0.63739 0.59989
 H938 H -0.00794 0.70241 0.50962
 H939 H -0.00400 0.74978 0.55002
 C940 C 0.09451 0.76529 0.69520
 C941 C -0.09251 0.74356 0.70949
 C942 C -0.00604 0.66567 0.55127
 C943 C -0.02300 0.85308 0.56188
 C944 C 0.56287 0.75759 0.35570
 H945 H 0.56122 0.77395 0.37829
 C946 C 0.59327 0.75316 0.33805
 H947 H 0.61464 0.76613 0.34752
 C948 C 0.53738 0.72031 0.31652
 H949 H 0.51543 0.70778 0.30798
 C950 C 0.56722 0.71507 0.29825
 H951 H 0.56771 0.69854 0.27570
 N952 N 0.53579 0.74066 0.34524
 C953 C 0.42861 0.74306 0.35453
 H954 H 0.42591 0.73283 0.38081
 C955 C 0.40065 0.75060 0.33523
 H956 H 0.37669 0.74575 0.34709
 C957 C 0.46335 0.76329 0.30846
 H958 H 0.48787 0.76898 0.29858
 C959 C 0.43595 0.77126 0.28818
 H960 H 0.43990 0.78218 0.26239
 Zn961 Zn 0.49514 0.74303 0.37169
 N962 N 0.45920 0.74945 0.34101
 C963 C 0.47519 0.80595 0.39774
 N964 N 0.49533 0.77965 0.40378
 C965 C 0.51499 0.77905 0.43244
 C966 C 0.51476 0.80548 0.45640
 C967 C 0.47428 0.83294 0.42094
 C968 C 0.49732 0.67302 0.38233
 C969 C 0.49331 0.64345 0.40108
 C970 C 0.47137 0.67490 0.45052
 C971 C 0.47599 0.70387 0.43092
 N972 N 0.48888 0.70258 0.39743
 H973 H 0.45978 0.80619 0.37482
 H974 H 0.53081 0.75792 0.43675
 H975 H 0.53101 0.80447 0.47866
 H976 H 0.45796 0.85346 0.41559
 H977 H 0.50722 0.67214 0.35567
 H978 H 0.50001 0.62032 0.38832
 H979 H 0.46132 0.67680 0.47717
 H980 H 0.46899 0.72741 0.44247
 C981 C 0.40399 0.76511 0.30161
 C982 C 0.59588 0.73109 0.30934
 C983 C 0.48006 0.64408 0.43566
 C984 C 0.49416 0.83295 0.45085
 B985 B -0.01487 0.01615 1.03373
 B986 B -0.03857 0.00319 1.00076
 B987 B -0.01359 0.03572 0.99480
 B988 B 0.02154 0.02888 1.01674
 B989 B 0.01803 -0.00895 1.03650
 B990 B -0.01974 -0.02459 1.02660
 B991 B 0.01522 -0.01770 0.96504
 B992 B 0.03892 -0.00472 0.99791
 B993 B 0.01390 -0.03729 1.00397
 B994 B -0.02120 -0.03044 0.98196
 B995 B -0.01765 0.00739 0.96221
 B996 B 0.01998 0.02313 0.97218
 B997 B 0.46961 0.50040 0.51310
 B998 B 0.44683 0.49683 0.47657
 B999 B 0.47948 0.52215 0.47686
 B1000 B 0.50977 0.50434 0.50069
 B1001 B 0.49455 0.46747 0.51539
 B1002 B 0.45514 0.46314 0.50073
 B1003 B 0.49661 0.46601 0.44309
 B1004 B 0.51944 0.46877 0.47916
 B1005 B 0.48640 0.44413 0.47968
 B1006 B 0.45695 0.46170 0.45555
 B1007 B 0.47203 0.49892 0.44094
 B1008 B 0.51118 0.50323 0.45570
 B1009 B 0.51155 0.97237 0.53319
 B1010 B 0.53351 0.96957 0.49524
 B1011 B 0.49649 0.95174 0.49862
 B1012 B 0.47119 0.97602 0.52361
 B1013 B 0.49373 1.00970 0.53573
 B1014 B 0.53283 1.00538 0.51822
 B1015 B 0.49039 1.00919 0.46380
 B1016 B 0.46821 1.01193 0.50129
 B1017 B 0.50544 1.02954 0.49855
 B1018 B 0.53049 1.00532 0.47327
 B1019 B 0.50777 0.97177 0.46112
 B1020 B 0.46892 0.97596 0.47860
 B1021 B 0.02683 0.47910 1.03556
 B1022 B 0.04158 0.49003 0.99549
 B1023 B 0.01469 0.45872 0.99941
 B1024 B -0.01292 0.46789 1.03198
 B1025 B -0.00270 0.50601 1.04816
 B1026 B 0.03155 0.51956 1.02552
 B1027 B -0.01801 0.51279 0.97863
 B1028 B -0.03286 0.50181 1.01866
 B1029 B -0.00614 0.53313 1.01473
 B1030 B 0.02161 0.52403 0.98226
 B1031 B 0.01141 0.48592 0.96607
 B1032 B -0.02285 0.47246 0.98868
 B1033 B 0.00111 0.52479 0.46668
 B1034 B 0.02780 0.52743 0.49961
 B1035 B -0.00868 0.54643 0.50342
 B1036 B -0.03739 0.52285 0.48407
 B1037 B -0.01776 0.48804 0.46855
 B1038 B 0.02317 0.49118 0.47815
 B1039 B -0.01172 0.49001 0.54042
 B1040 B -0.03854 0.48752 0.50753
 B1041 B -0.00199 0.46828 0.50359
 B1042 B 0.02682 0.49208 0.52302
 B1043 B 0.00709 0.52668 0.53847
 B1044 B -0.03372 0.52368 0.52891
 B1045 B 0.52573 0.02029 -0.03245
 B1046 B 0.53963 0.01246 0.00813
 B1047 B 0.51264 0.04341 0.00207
 B1048 B 0.48580 0.03175 -0.02902
 B1049 B 0.49631 -0.00742 -0.04210
 B1050 B 0.53028 -0.01912 -0.01909
 B1051 B 0.47975 -0.00892 0.02818
 B1052 B 0.46563 -0.00099 -0.01218
 B1053 B 0.49270 -0.03193 -0.00630
 B1054 B 0.51954 -0.02027 0.02481
 B1055 B 0.50897 0.01884 0.03792
 B1056 B 0.47518 0.03056 0.01499
 B1057 B 0.48076 0.48573 -0.03679
 B1058 B 0.46518 0.49207 0.00416
 B1059 B 0.49538 0.46408 -0.00251
 B1060 B 0.52160 0.47869 -0.03422
 B1061 B 0.50671 0.51657 -0.04662
 B1062 B 0.47149 0.52451 -0.02272
 B1063 B 0.52220 0.51958 0.02316
 B1064 B 0.53749 0.51363 -0.01770
 B1065 B 0.50718 0.54123 -0.01059
 B1066 B 0.48146 0.52663 0.02090
 B1067 B 0.49589 0.48891 0.03319
 B1068 B 0.53136 0.48095 0.00927
 B1069 B -0.02307 0.99011 0.46883
 B1070 B -0.04154 1.00223 0.50669
 B1071 B -0.01626 0.96928 0.50623
 B1072 B 0.01504 0.97658 0.47723
 B1073 B 0.00897 1.01522 0.45992
 B1074 B -0.02653 1.03086 0.47840
 B1075 B 0.01699 1.02124 0.53118
 B1076 B 0.03514 1.00927 0.49311
 B1077 B 0.00989 1.04242 0.49404
 B1078 B -0.02143 1.03490 0.52298
 B1079 B -0.01533 0.99647 0.54006
 B1080 B 0.02023 0.98087 0.52158
 B1081 B 0.77522 0.23404 0.21946
 B1082 B 0.76830 0.22120 0.26114
 B1083 B 0.79853 0.24847 0.25248
 B1084 B 0.78589 0.27421 0.22032
 B1085 B 0.74690 0.26275 0.20955
 B1086 B 0.73626 0.22937 0.23493
 B1087 B 0.74615 0.28183 0.27893
 B1088 B 0.75311 0.29451 0.23732
 B1089 B 0.72284 0.26726 0.24614
 B1090 B 0.73544 0.24168 0.27821
 B1091 B 0.77440 0.25305 0.28901
 B1092 B 0.78512 0.28635 0.26363
 B1093 B 0.74078 0.76808 0.73279
 B1094 B 0.74913 0.79198 0.76786
 B1095 B 0.71842 0.76440 0.77027
 B1096 B 0.72973 0.73025 0.74712
 B1097 B 0.76845 0.73717 0.73004
 B1098 B 0.78024 0.77600 0.74288
 B1099 B 0.77128 0.73877 0.80213
 B1100 B 0.76297 0.71485 0.76726
 B1101 B 0.79362 0.74258 0.76453
 B1102 B 0.78217 0.77649 0.78776
 B1103 B 0.74350 0.76952 0.80482
 B1104 B 0.73176 0.73105 0.79214
 B1105 B 0.26327 0.27092 0.76809
 B1106 B 0.24879 0.29046 0.73275
 B1107 B 0.28122 0.26465 0.72803
 B1108 B 0.27550 0.23269 0.75609
 B1109 B 0.23845 0.23893 0.77776
 B1110 B 0.22218 0.27531 0.76320
 B1111 B 0.22696 0.23290 0.70720
 B1112 B 0.24124 0.21336 0.74275
 B1113 B 0.20888 0.23923 0.74702
 B1114 B 0.21473 0.27123 0.71929
 B1115 B 0.25155 0.26487 0.69757
 B1116 B 0.26792 0.22847 0.71208
 B1117 B 0.23211 0.73952 0.28573
 B1118 B 0.24265 0.71725 0.24971
 B1119 B 0.21151 0.74447 0.24801
 B1120 B 0.22083 0.77771 0.27293
 B1121 B 0.25888 0.77079 0.29006
 B1122 B 0.27210 0.73272 0.27562
 B1123 B 0.26529 0.77224 0.21810
 B1124 B 0.25458 0.79447 0.25390
 B1125 B 0.28582 0.76719 0.25569
 B1126 B 0.27650 0.73407 0.23078
 B1127 B 0.23856 0.74100 0.21359
 B1128 B 0.22515 0.77881 0.22798
 B1129 B 0.26434 0.72871 0.72922
 B1130 B 0.24834 0.70758 0.76335
 B1131 B 0.28058 0.73268 0.76932
 B1132 B 0.27614 0.76610 0.74325
 B1133 B 0.24000 0.76134 0.72118
 B1134 B 0.22304 0.72447 0.73380
 B1135 B 0.22580 0.76415 0.79205
 B1136 B 0.24160 0.78508 0.75766
 B1137 B 0.20918 0.75987 0.75189
 B1138 B 0.21379 0.72654 0.77799
 B1139 B 0.24984 0.73131 0.79991
 B1140 B 0.26697 0.76804 0.78738
 B1141 B 0.24374 0.28068 0.22047
 B1142 B 0.25099 0.29692 0.26045
 B1143 B 0.22035 0.26956 0.25561
 B1144 B 0.23244 0.24094 0.22542
 B1145 B 0.27165 0.25065 0.21174
 B1146 B 0.28282 0.28594 0.23341
 B1147 B 0.27230 0.23779 0.28254
 B1148 B 0.26499 0.22160 0.24277
 B1149 B 0.29573 0.24898 0.24750
 B1150 B 0.28352 0.27758 0.27770
 B1151 B 0.24448 0.26775 0.29138
 B1152 B 0.23320 0.23268 0.26965
 B1153 B 0.76980 0.76881 0.28969
 B1154 B 0.76033 0.78420 0.25010
 B1155 B 0.79183 0.75716 0.25367
 B1156 B 0.78149 0.72888 0.28476
 B1157 B 0.74287 0.73874 0.30024
 B1158 B 0.73000 0.77326 0.27888
 B1159 B 0.73924 0.72460 0.22962
 B1160 B 0.74851 0.70896 0.26935
 B1161 B 0.71733 0.73580 0.26585
 B1162 B 0.72742 0.76413 0.23493
 B1163 B 0.76619 0.75457 0.21922
 B1164 B 0.77904 0.71967 0.24071
 B1165 B 0.73570 0.22477 0.77606
 B1166 B 0.74361 0.21084 0.73486
 B1167 B 0.71298 0.23832 0.74224
 B1168 B 0.72481 0.26494 0.77402
 B1169 B 0.76367 0.25385 0.78600
 B1170 B 0.77498 0.21977 0.76178
 B1171 B 0.76590 0.27089 0.71622
 B1172 B 0.75803 0.28479 0.75722
 B1173 B 0.78852 0.25720 0.74995
 B1174 B 0.77663 0.23073 0.71818
 B1175 B 0.73790 0.24191 0.70616
 B1176 B 0.72653 0.27594 0.73047
 N1177 N 0.49897 1.04365 0.40651
 N1178 N 0.48408 1.04725 0.37599
 C1179 C 0.45478 1.03160 0.37780
 C1180 C 0.45073 1.01829 0.41120
 C1181 C 0.47938 1.02592 0.42844
 H1182 H 0.43084 1.00287 0.42099
 H1183 H 0.52300 1.05137 0.41122
 H1184 H 0.49496 1.05832 0.35377
 N1185 N -0.03342 0.55938 0.93531
 N1186 N -0.04898 0.56156 0.90289
 C1187 C -0.06271 0.53187 0.89608
 C1188 C -0.05673 0.51084 0.92423
 C1189 C -0.03821 0.52865 0.94792
 H1190 H -0.06229 0.48478 0.92617
 H1191 H -0.01806 0.57754 0.94556
 H1192 H -0.04853 0.58266 0.88713
 N1193 N 0.02062 -0.06055 0.91391
 N1194 N 0.03554 -0.06258 0.88254
 C1195 C 0.05500 -0.03580 0.87803
 C1196 C 0.05253 -0.01643 0.90812
 C1197 C 0.03048 -0.03270 0.93006
 H1198 H 0.06350 0.00744 0.91290
 H1199 H 0.00322 -0.07746 0.92347
 H1200 H 0.03160 -0.08170 0.86455
 N1201 N 0.49204 0.43971 0.38047
 N1202 N 0.50828 0.44216 0.34985
 C1203 C 0.53723 0.45751 0.35523
 C1204 C 0.53972 0.46398 0.39092
 C1205 C 0.51041 0.45303 0.40612
 H1206 H 0.55874 0.47794 0.40383
 H1207 H 0.46773 0.43154 0.38312
 H1208 H 0.49841 0.43565 0.32554
 N1209 N 0.55953 0.56311 0.05441
 N1210 N 0.57553 0.56554 0.08441
 C1211 C 0.57001 0.53793 0.10333
 C1212 C 0.54956 0.51731 0.08502
 C1213 C 0.54308 0.53415 0.05420
 H1214 H 0.54140 0.49284 0.09267
 H1215 H 0.56134 0.58032 0.03401
 H1216 H 0.59113 0.58502 0.09092
 N1217 N 0.06526 1.05400 0.55806
 N1218 N 0.08296 1.05277 0.58684
 C1219 C 0.06815 1.03219 0.60998
 C1220 C 0.03960 1.02015 0.59565
 C1221 C 0.03883 1.03414 0.56228
 H1222 H 0.02385 1.00091 0.60632
 H1223 H 0.07248 1.06687 0.53540
 H1224 H 0.10553 1.06471 0.58976
 N1225 N -0.01736 0.44394 0.58882
 N1226 N -0.03107 0.44105 0.62069
 C1227 C -0.04160 0.47107 0.63165
 C1228 C -0.03426 0.49392 0.60579
 C1229 C -0.01947 0.47577 0.57861
 H1230 H -0.04133 0.51976 0.60559
 H1231 H -0.00828 0.42401 0.57405
 H1232 H -0.03400 0.41868 0.63410
 N1233 N 0.43510 -0.04742 0.05626
 N1234 N 0.41863 -0.05024 0.08657
 C1235 C 0.43000 -0.02751 0.10930
 C1236 C 0.45465 -0.00947 0.09281
 C1237 C 0.45698 -0.02259 0.05901
 H1238 H 0.46783 0.01146 0.10337
 H1239 H 0.43093 -0.06222 0.03424
 H1240 H 0.39982 -0.06732 0.09129
 N1241 N 0.41257 0.50044 0.04274
 N1242 N 0.38180 0.49004 0.04438
 C1243 C 0.37812 0.46676 0.01941
 C1244 C 0.40747 0.46225 0.00090
 C1245 C 0.42887 0.48406 0.01649
 H1246 H 0.41180 0.44632 -0.02166
 H1247 H 0.42193 0.51882 0.05916
 H1248 H 0.36391 0.49857 0.06249
 N1249 N -0.10122 1.02160 0.49653
 N1250 N -0.13157 1.01088 0.50179
 C1251 C -0.13049 0.98268 0.52059
 C1252 C -0.09796 0.97574 0.52833
 C1253 C -0.08009 1.00049 0.51181
 H1254 H -0.08852 0.95458 0.54227
 H1255 H -0.09520 1.04220 0.48114
 H1256 H -0.15223 1.02160 0.49042
 N1257 N -0.09672 -0.01917 1.01500
 N1258 N -0.12940 -0.00954 1.01108
 C1259 C -0.12947 0.02062 0.99580
 C1260 C -0.09694 0.03027 0.98939
 C1261 C -0.07734 0.00508 1.00210
 H1262 H -0.08833 0.05263 0.97684
 H1263 H -0.08922 -0.04147 1.02616
 H1264 H -0.14940 -0.02327 1.02053
 N1265 N 0.39555 0.50547 0.43937
 N1266 N 0.36541 0.51738 0.44221
 C1267 C 0.36034 0.52830 0.47552
 C1268 C 0.38856 0.52281 0.49483
 C1269 C 0.41044 0.50855 0.47076
 H1270 H 0.39277 0.52896 0.52218
 H1271 H 0.40576 0.49583 0.41591
 H1272 H 0.34942 0.51917 0.42104
 N1273 N 0.06002 0.57839 0.47753
 N1274 N 0.08853 0.59290 0.48218
 C1275 C 0.10689 0.57366 0.50297
 C1276 C 0.08942 0.54540 0.51189
 C1277 C 0.05948 0.54958 0.49543
 H1278 H 0.09689 0.52541 0.52893
 H1279 H 0.04126 0.58865 0.46262
 H1280 H 0.09522 0.61555 0.47099
 N1281 N 0.59720 -0.00807 0.02614
 N1282 N 0.62675 0.00389 0.03237
 C1283 C 0.62556 0.03702 0.02945
 C1284 C 0.59375 0.04651 0.02176
 C1285 C 0.57657 0.01718 0.01914
 H1286 H 0.58498 0.07134 0.01739
 H1287 H 0.59167 -0.03328 0.02555
 H1288 H 0.64763 -0.01066 0.03640
 N1289 N 0.56741 0.92270 0.46605
 N1290 N 0.59790 0.91152 0.46464
 C1291 C 0.61607 0.92934 0.48709
 C1292 C 0.59612 0.95274 0.50386
 C1293 C 0.56532 0.94769 0.48969
 H1294 H 0.60336 0.97173 0.52230
 H1295 H 0.54876 0.91382 0.45004
 H1296 H 0.60584 0.89200 0.44840
 N1297 N 0.08875 0.49279 0.94865
 N1298 N 0.11920 0.48186 0.94371
 C1299 C 0.12864 0.46649 0.97335
 C1300 C 0.10328 0.46842 0.99841
 C1301 C 0.07814 0.48473 0.98155
 H1302 H 0.10290 0.45822 1.02475
 H1303 H 0.07511 0.50451 0.92918
 H1304 H 0.13241 0.48354 0.91980
 N1305 N 0.02623 0.41226 0.51757
 N1306 N 0.02855 0.38213 0.50407
 C1307 C 0.00699 0.37902 0.47759
 C1308 C -0.01029 0.40865 0.47488
 C1309 C 0.00274 0.42926 0.50066
 H1310 H -0.02782 0.41534 0.45494
 H1311 H 0.04172 0.42142 0.53697
 H1312 H 0.04546 0.36449 0.51249
 N1313 N 0.49006 -0.09234 0.01572
 N1314 N 0.48982 -0.12251 0.00227
 C1315 C 0.48493 -0.12051 -0.03272
 C1316 C 0.48185 -0.08750 -0.04197
 C1317 C 0.48550 -0.07025 -0.01039
 H1318 H 0.48038 -0.07741 -0.06835
 H1319 H 0.49524 -0.08704 0.04207
 H1320 H 0.49428 -0.14399 0.01668
 N1321 N 0.04548 -0.09288 0.99006
 N1322 N 0.04663 -0.12334 1.00282
 C1323 C 0.02678 -0.12524 1.03190
 C1324 C 0.01282 -0.09432 1.03772
 C1325 C 0.02504 -0.07447 1.01067
 H1326 H -0.00446 -0.08702 1.05846
 H1327 H 0.05847 -0.08511 0.96750
 H1328 H 0.06049 -0.14240 0.99118
 N1329 N 0.48064 0.38181 0.46191
 N1330 N 0.48414 0.35239 0.47672
 C1331 C 0.49491 0.35633 0.51007
 C1332 C 0.49852 0.38988 0.51629
 C1333 C 0.48915 0.40528 0.48527
 H1334 H 0.50626 0.40174 0.54038
 H1335 H 0.47192 0.38565 0.43646
 H1336 H 0.47820 0.33022 0.46423
 N1337 N 0.53324 1.08579 0.48317
 N1338 N 0.53488 1.11590 0.49679
 C1339 C 0.51349 1.11827 0.52450
 C1340 C 0.49742 1.08834 0.52832
 C1341 C 0.51068 1.06824 0.50170
 H1342 H 0.48007 1.08135 0.54908
 H1343 H 0.54845 1.07711 0.46252
 H1344 H 0.55096 1.13416 0.48750
 N1345 N -0.04572 0.58405 1.01363
 N1346 N -0.04710 0.61481 1.02543
 C1347 C -0.01923 0.62157 1.04281
 C1348 C 0.00071 0.59350 1.04181
 C1349 C -0.01693 0.57023 1.02300
 H1350 H 0.02466 0.59018 1.05331
 H1351 H -0.06450 0.57291 0.99955
 H1352 H -0.06735 0.63038 1.02214
 N1353 N 0.50417 0.60081 0.01389
 N1354 N 0.50361 0.63151 0.00230
 C1355 C 0.50921 0.63143 -0.03300
 C1356 C 0.51394 0.59878 -0.04403
 C1357 C 0.51061 0.58013 -0.01341
 H1358 H 0.51743 0.58953 -0.07071
 H1359 H 0.49875 0.59418 0.04004
 H1360 H 0.49782 0.65172 0.01849
 N1361 N 0.02041 1.10135 0.51757
 N1362 N 0.02145 1.13358 0.50496
 C1363 C 0.02015 1.13252 0.46933
 C1364 C 0.01939 1.09920 0.45882
 C1365 C 0.01943 1.08046 0.48980
 H1366 H 0.01621 1.08961 0.43239
 H1367 H 0.01684 1.09549 0.54421
 H1368 H 0.02199 1.15415 0.52160
 N1369 N 0.80173 0.74511 0.86105
 N1370 N 0.80414 0.72933 0.89138
 C1371 C 0.78921 0.69981 0.88845
 C1372 C 0.77723 0.69656 0.85461
 C1373 C 0.78548 0.72589 0.83802
 H1374 H 0.76177 0.67704 0.84472
 H1375 H 0.80949 0.76945 0.85708
 H1376 H 0.81483 0.73932 0.91387
 N1377 N 0.31219 0.19670 0.31344
 N1378 N 0.31303 0.17949 0.34302
 C1379 C 0.28592 0.18669 0.36275
 C1380 C 0.26724 0.20970 0.34505
 C1381 C 0.28473 0.21558 0.31388
 H1382 H 0.24361 0.22002 0.35313
 H1383 H 0.32966 0.19431 0.29303
 H1384 H 0.33119 0.16203 0.34862
 N1385 N 0.70848 0.32738 0.30791
 N1386 N 0.70751 0.34565 0.33691
 C1387 C 0.73240 0.33644 0.35778
 C1388 C 0.74979 0.31106 0.34129
 C1389 C 0.73401 0.30610 0.30950
 H1390 H 0.77170 0.29875 0.35050
 H1391 H 0.69181 0.32985 0.28757
 H1392 H 0.68983 0.36393 0.34216
 N1393 N 0.18856 0.76564 0.84822
 N1394 N 0.18785 0.78181 0.87865
 C1395 C 0.20811 0.80804 0.87594
 C1396 C 0.22167 0.80893 0.84215
 C1397 C 0.20928 0.78121 0.82549
 H1398 H 0.24142 0.82476 0.83275
 H1399 H 0.17708 0.74290 0.84419
 H1400 H 0.17513 0.77382 0.90132
 N1401 N 0.30734 0.77586 0.16599
 N1402 N 0.30990 0.79214 0.13363
 C1403 C 0.28456 0.81382 0.13182
 C1404 C 0.26609 0.81211 0.16325
 C1405 C 0.28078 0.78798 0.18358
 H1406 H 0.24332 0.82485 0.16992
 H1407 H 0.32242 0.75630 0.17368
 H1408 H 0.32811 0.78690 0.11457
 N1409 N 0.80944 0.30660 0.68127
 N1410 N 0.81132 0.32252 0.64861
 C1411 C 0.78169 0.31978 0.63346
 C1412 C 0.76088 0.30180 0.65573
 C1413 C 0.77904 0.29364 0.68503
 H1414 H 0.73571 0.29453 0.65104
 H1415 H 0.82838 0.30639 0.69934
 H1416 H 0.83179 0.33576 0.63941
 N1417 N 0.18809 0.23107 0.65428
 N1418 N 0.18587 0.21470 0.62420
 C1419 C 0.20655 0.18868 0.62491
 C1420 C 0.22239 0.18822 0.65688
 C1421 C 0.21040 0.21587 0.67467
 H1422 H 0.24278 0.17251 0.66419
 H1423 H 0.17616 0.25353 0.65955
 H1424 H 0.17184 0.22239 0.60288
 N1425 N 0.69379 0.70904 0.18565
 N1426 N 0.69153 0.69219 0.15360
 C1427 C 0.72121 0.67831 0.14602
 C1428 C 0.74245 0.68571 0.17343
 C1429 C 0.72450 0.70481 0.19759
 H1430 H 0.76836 0.67982 0.17508
 H1431 H 0.67536 0.72431 0.19645
 H1432 H 0.67024 0.69187 0.13867
 N1433 N 0.26044 0.65891 0.22871
 N1434 N 0.24877 0.62854 0.22749
 C1435 C 0.21904 0.62802 0.24398
 C1436 C 0.21178 0.65953 0.25660
 C1437 C 0.23849 0.67857 0.24599
 H1438 H 0.18972 0.66754 0.27053
 H1439 H 0.28296 0.66596 0.21724
 H1440 H 0.26124 0.60873 0.21547
 N1441 N 0.76538 0.15317 0.71754
 N1442 N 0.75343 0.12153 0.71138
 C1443 C 0.72018 0.12287 0.71355
 C1444 C 0.71063 0.15566 0.71979
 C1445 C 0.73951 0.17354 0.72320
 H1446 H 0.68591 0.16527 0.72309
 H1447 H 0.79034 0.15905 0.71926
 H1448 H 0.76867 0.10085 0.70862
 N1449 N 0.75105 0.16797 0.29423
 N1450 N 0.75958 0.13650 0.29577
 C1451 C 0.78727 0.13194 0.27609
 C1452 C 0.79696 0.16210 0.26201
 C1453 C 0.77310 0.18430 0.27363
 H1454 H 0.81796 0.16695 0.24497
 H1455 H 0.72962 0.17765 0.30609
 H1456 H 0.74565 0.11847 0.30885
 N1457 N 0.23005 0.64938 0.78427
 N1458 N 0.24109 0.61862 0.78295
 C1459 C 0.26942 0.61794 0.76368
 C1460 C 0.27642 0.64956 0.75211
 C1461 C 0.25112 0.66886 0.76594
 H1462 H 0.29810 0.65783 0.73762
 H1463 H 0.20877 0.65684 0.79816
 H1464 H 0.22937 0.59874 0.79539
 N1465 N 0.23241 0.34653 0.70561
 N1466 N 0.24393 0.37896 0.70527
 C1467 C 0.26984 0.38053 0.72707
 C1468 C 0.27484 0.34949 0.74172
 C1469 C 0.25140 0.32894 0.72746
 H1470 H 0.29455 0.34193 0.75858
 H1471 H 0.21324 0.33774 0.69022
 H1472 H 0.23368 0.39776 0.69019
 N1473 N 0.73525 0.84163 0.23906
 N1474 N 0.74429 0.87259 0.23438
 C1475 C 0.77745 0.87392 0.23285
 C1476 C 0.78988 0.84192 0.23576
 C1477 C 0.76228 0.82224 0.24064
 H1478 H 0.81540 0.83428 0.23605
 H1479 H 0.71073 0.83419 0.24216
 H1480 H 0.72766 0.89224 0.23303
 N1481 N 0.75470 0.84762 0.80006
 N1482 N 0.74360 0.88006 0.79755
 C1483 C 0.72596 0.88254 0.76782
 C1484 C 0.72638 0.85188 0.75060
 C1485 C 0.74394 0.83060 0.77192
 H1486 H 0.71486 0.84557 0.72611
 H1487 H 0.76774 0.83836 0.82141
 H1488 H 0.74714 0.89777 0.81717
 N1489 N 0.27145 0.35646 0.27036
 N1490 N 0.25966 0.38649 0.27610
 C1491 C 0.22653 0.38490 0.27930
 C1492 C 0.21717 0.35198 0.27623
 C1493 C 0.24630 0.33484 0.26970
 H1494 H 0.19249 0.34211 0.27640
 H1495 H 0.29642 0.35115 0.26603
 H1496 H 0.27445 0.40751 0.27675
 N1497 N 0.15154 0.21232 0.73489
 N1498 N 0.12194 0.21037 0.74990
 C1499 C 0.12230 0.22518 0.78187
 C1500 C 0.15408 0.23681 0.78729
 C1501 C 0.17203 0.22813 0.75684
 H1502 H 0.16283 0.25076 0.80965
 H1503 H 0.15681 0.20365 0.70947
 H1504 H 0.10168 0.20013 0.73739
 N1505 N 0.66621 0.69707 0.26196
 N1506 N 0.63514 0.69620 0.27302
 C1507 C 0.62823 0.72392 0.29169
 C1508 C 0.65646 0.74323 0.29240
 C1509 C 0.68004 0.72542 0.27305
 H1510 H 0.65956 0.76695 0.30520
 H1511 H 0.67748 0.67828 0.24710
 H1512 H 0.61938 0.67639 0.26836
 N1513 N 0.66258 0.27421 0.26971
 N1514 N 0.63228 0.27348 0.25759
 C1515 C 0.63361 0.27146 0.22193
 C1516 C 0.66665 0.27156 0.21119
 C1517 C 0.68431 0.27334 0.24231
 H1518 H 0.67667 0.26837 0.18466
 H1519 H 0.66811 0.27368 0.29654
 H1520 H 0.61127 0.27352 0.27396
 N1521 N 0.15008 0.78300 0.76581
 N1522 N 0.12077 0.78349 0.75125
 C1523 C 0.12337 0.77160 0.71799
 C1524 C 0.15622 0.76352 0.71105
 C1525 C 0.17249 0.77078 0.74235
 H1526 H 0.16638 0.75155 0.68760
 H1527 H 0.15409 0.79003 0.79188
 H1528 H 0.09919 0.79126 0.76438
 N1529 N 0.85365 0.74409 0.78558
 N1530 N 0.88469 0.74696 0.76948
 C1531 C 0.88195 0.73926 0.73498
 C1532 C 0.84929 0.73066 0.72872
 C1533 C 0.83205 0.73511 0.76076
 H1534 H 0.83851 0.72657 0.70315
 H1535 H 0.84806 0.75251 0.81108
 H1536 H 0.90569 0.75482 0.78250
 N1537 N 0.35558 0.24898 0.26959
 N1538 N 0.38594 0.24927 0.25640
 C1539 C 0.38513 0.24296 0.22148
 C1540 C 0.35252 0.23807 0.21214
 C1541 C 0.33433 0.24234 0.24355
 H1542 H 0.34314 0.23520 0.18574
 H1543 H 0.34949 0.25523 0.29575
 H1544 H 0.40673 0.25501 0.27100
 N1545 N 0.34298 0.79488 0.24085
 N1546 N 0.37346 0.79370 0.25265
 C1547 C 0.37422 0.77361 0.28107
 C1548 C 0.34269 0.76184 0.28749
 C1549 C 0.32351 0.77570 0.26148
 H1550 H 0.33475 0.74456 0.30766
 H1551 H 0.33588 0.80880 0.21910
 H1552 H 0.39316 0.80668 0.24130
 N1553 N 0.84968 0.25583 0.72887
 N1554 N 0.87943 0.25702 0.74225
 C1555 C 0.87683 0.26426 0.77701
 C1556 C 0.84352 0.26833 0.78580
 C1557 C 0.82701 0.26306 0.75435
 H1558 H 0.83258 0.27242 0.81179
 H1559 H 0.84503 0.24849 0.70295
 H1560 H 0.90088 0.25084 0.72796
 N1561 N 0.50218 0.94288 0.59336
 N1562 N 0.51646 0.94274 0.62448
 C1563 C 0.54604 0.95755 0.62110
 C1564 C 0.55111 0.96632 0.58620
 C1565 C 0.52261 0.95727 0.56942
 H1566 H 0.57114 0.98091 0.57535
 H1567 H 0.47789 0.93556 0.58933
 H1568 H 0.50488 0.93513 0.64798
 N1569 N 0.04154 0.43352 1.08027
 N1570 N 0.05675 0.43211 1.11294
 C1571 C 0.07131 0.46160 1.11869
 C1572 C 0.06651 0.48160 1.08935
 C1573 C 0.04735 0.46356 1.06633
 H1574 H 0.07273 0.50745 1.08652
 H1575 H 0.02543 0.41561 1.07085
 H1576 H 0.05526 0.41174 1.12972
 N1577 N -0.01422 0.05518 1.08792
 N1578 N -0.02965 0.05654 1.12120
 C1579 C -0.05372 0.03353 1.12195
 C1580 C -0.05435 0.01785 1.08922
 C1581 C -0.02914 0.03152 1.06904
 H1582 H -0.06898 -0.00323 1.08178
 H1583 H 0.00686 0.06845 1.08062
 H1584 H -0.02253 0.07244 1.14140
 N1585 N 0.47089 0.54273 0.56477
 N1586 N 0.45905 0.54567 0.59746
 C1587 C 0.43816 0.52043 0.60416
 C1588 C 0.43651 0.50100 0.57390
 C1589 C 0.45753 0.51593 0.54953
 H1590 H 0.42339 0.47805 0.57038
 H1591 H 0.48879 0.55826 0.55364
 H1592 H 0.46605 0.56437 0.61478
 N1593 N 0.47361 0.44321 -0.08714
 N1594 N 0.45920 0.44151 -0.11805
 C1595 C 0.43918 0.46794 -0.12149
 C1596 C 0.44048 0.48670 -0.09067
 C1597 C 0.46268 0.47026 -0.06952
 H1598 H 0.42951 0.51069 -0.08556
 H1599 H 0.49227 0.42710 -0.07938
 H1600 H 0.46438 0.42307 -0.13671
 N1601 N -0.03676 0.94408 0.42394
 N1602 N -0.05199 0.94117 0.39359
 C1603 C -0.06672 0.97022 0.38620
 C1604 C -0.06097 0.99224 0.41351
 C1605 C -0.04182 0.97482 0.43681
 H1606 H -0.06757 1.01815 0.41516
 H1607 H -0.02200 0.92565 0.43474
 H1608 H -0.05139 0.91974 0.37814
 N1609 N -0.01348 0.54604 0.40405
 N1610 N 0.00107 0.54577 0.37237
 C1611 C 0.03318 0.53804 0.37597
 C1612 C 0.03926 0.53443 0.41150
 C1613 C 0.00909 0.53892 0.42856
 H1614 H 0.06177 0.52586 0.42326
 H1615 H -0.03890 0.54821 0.40835
 H1616 H -0.01151 0.54813 0.34871
 N1617 N 0.57064 0.05784 -0.06233
 N1618 N 0.58712 0.05951 -0.09278
 C1619 C 0.57617 0.03561 -0.11443
 C1620 C 0.55160 0.01814 -0.09691
 C1621 C 0.54884 0.03284 -0.06383
 H1622 H 0.53846 -0.00328 -0.10633
 H1623 H 0.57471 0.07362 -0.04110
 H1624 H 0.60551 0.07684 -0.09831
 N1625 N 0.57955 0.53646 -0.06322
 N1626 N 0.61029 0.54683 -0.06466
 C1627 C 0.62383 0.54213 -0.03286
 C1628 C 0.60079 0.52762 -0.01033
 C1629 C 0.57277 0.52503 -0.03044
 H1630 H 0.60347 0.52172 0.01733
 H1631 H 0.56336 0.53815 -0.08423
 H1632 H 0.62136 0.55753 -0.08700
 N1633 N 0.09303 0.98331 0.49314
 N1634 N 0.12408 0.99213 0.48889
 C1635 C 0.12508 1.02421 0.47948
 C1636 C 0.09305 1.03602 0.47694
 C1637 C 0.07352 1.00954 0.48665
 H1638 H 0.08504 1.06090 0.47110
 H1639 H 0.08557 0.95994 0.50177
 H1640 H 0.14394 0.97671 0.49453
 N1641 N 0.09628 0.01821 0.98159
 N1642 N 0.12919 0.00878 0.98330
 C1643 C 0.13035 -0.02148 0.99825
 C1644 C 0.09822 -0.03143 1.00669
 C1645 C 0.07774 -0.00622 0.99551
 H1646 H 0.09048 -0.05397 1.01953
 H1647 H 0.08807 0.04044 0.97086
 H1648 H 0.14850 0.02286 0.97281
 N1649 N 0.55807 0.42186 0.45932
 N1650 N 0.58897 0.40939 0.46601
 C1651 C 0.60383 0.43038 0.48825
 C1652 C 0.58264 0.45698 0.49592
 C1653 C 0.55391 0.45027 0.47768
 H1654 H 0.58688 0.47760 0.51353
 H1655 H 0.54139 0.40972 0.44327
 H1656 H 0.59871 0.38850 0.45326
 N1657 N -0.07567 0.44008 0.53076
 N1658 N -0.10738 0.43374 0.53468
 C1659 C -0.12450 0.45800 0.51914
 C1660 C -0.10294 0.48069 0.50451
 C1661 C -0.07206 0.46869 0.51296
 H1662 H -0.10893 0.50312 0.49046
 H1663 H -0.05710 0.42486 0.54020
 H1664 H -0.11700 0.41272 0.54705
 N1665 N 0.40659 0.02080 -0.01923
 N1666 N 0.37626 0.00947 -0.02092
 C1667 C 0.37750 -0.02357 -0.02457
 C1668 C 0.41015 -0.03377 -0.02573
 C1669 C 0.42795 -0.00482 -0.02123
 H1670 H 0.41915 -0.05893 -0.02604
 H1671 H 0.41227 0.04560 -0.01462
 H1672 H 0.35510 0.02405 -0.01775
 N1673 N 0.43441 1.06390 0.48582
 N1674 N 0.40387 1.07480 0.48806
 C1675 C 0.38551 1.05232 0.50538
 C1676 C 0.40506 1.02576 0.51474
 C1677 C 0.43621 1.03421 0.50191
 H1678 H 0.39746 1.00298 0.52737
 H1679 H 0.45312 1.07621 0.47191
 H1680 H 0.39556 1.09672 0.47669
 N1681 N -0.07976 0.50627 1.06596
 N1682 N -0.11122 0.51471 1.06809
 C1683 C -0.12183 0.52078 1.03524
 C1684 C -0.09617 0.51518 1.01128
 C1685 C -0.06969 0.50681 1.03175
 H1686 H -0.09636 0.51889 0.98307
 H1687 H -0.06521 0.50158 1.08785
 H1688 H -0.12436 0.51824 1.09184
 N1689 N -0.02315 0.60626 0.48220
 N1690 N -0.02208 0.63689 0.49468
 C1691 C -0.00985 0.63638 0.52764
 C1692 C -0.00281 0.60388 0.53612
 C1693 C -0.01155 0.58548 0.50677
 H1694 H 0.00735 0.59467 0.56040
 H1695 H -0.03190 0.59980 0.45735
 H1696 H -0.03031 0.65755 0.48090
 N1697 N 0.51952 0.10368 -0.02009
 N1698 N 0.52171 0.13393 -0.00709
 C1699 C 0.52319 0.13238 0.02852
 C1700 C 0.52219 0.09917 0.03822
 C1701 C 0.51999 0.08174 0.00659
 H1702 H 0.52143 0.08892 0.06459
 H1703 H 0.51634 0.09839 -0.04684
 H1704 H 0.52081 0.15507 -0.02275
 N1705 N -0.04362 0.09144 1.01125
 N1706 N -0.04617 0.12170 0.99829
 C1707 C -0.02981 0.12302 0.96691
 C1708 C -0.01643 0.09210 0.95974
 C1709 C -0.02544 0.07272 0.98856
 H1710 H -0.00100 0.08495 0.93729
 H1711 H -0.05417 0.08405 1.03532
 H1712 H -0.05899 0.14097 1.01092
 N1713 N 0.45226 0.57878 0.49355
 N1714 N 0.45243 0.60980 0.48275
 C1715 C 0.47447 0.61294 0.45582
 C1716 C 0.48906 0.58221 0.44951
 C1717 C 0.47441 0.56115 0.47418
 H1718 H 0.50723 0.57576 0.42928
 H1719 H 0.43628 0.56994 0.51324
 H1720 H 0.43664 0.62804 0.49301
 N1721 N 0.50630 0.89159 0.52119
 N1722 N 0.50631 0.86119 0.50831
 C1723 C 0.49403 0.86170 0.47551
 C1724 C 0.48513 0.89404 0.46769
 C1725 C 0.49369 0.91246 0.49719
 H1726 H 0.47675 0.90349 0.44269
 H1727 H 0.51673 0.89769 0.54523
 H1728 H 0.51570 0.84079 0.52164
 N1729 N 0.05020 0.40456 1.00128
 N1730 N 0.05013 0.37449 0.98745
 C1731 C 0.02362 0.37124 0.96678
 C1732 C 0.00622 0.40085 0.96773
 C1733 C 0.02380 0.42141 0.98993
 H1734 H -0.01617 0.40690 0.95414
 H1735 H 0.06828 0.41308 1.01815
 H1736 H 0.06848 0.35695 0.99188
 N1737 N 0.46863 0.40570 -0.01202
 N1738 N 0.46848 0.37628 0.00310
 C1739 C 0.48937 0.37644 0.03037
 C1740 C 0.50359 0.40762 0.03218
 C1741 C 0.48976 0.42561 0.00486
 H1742 H 0.52072 0.41659 0.05150
 H1743 H 0.45382 0.41172 -0.03315
 H1744 H 0.45404 0.35665 -0.00545
 N1745 N -0.05233 0.91554 0.50140
 N1746 N -0.05390 0.88588 0.51609
 C1747 C -0.02951 0.88283 0.53966
 C1748 C -0.01183 0.91209 0.53964
 C1749 C -0.02693 0.93229 0.51511
 H1750 H 0.00896 0.91835 0.55574
 H1751 H -0.06891 0.92420 0.48282
 H1752 H -0.07156 0.86826 0.50976
 N1753 N 0.20960 0.32721 0.19095
 N1754 N 0.20759 0.34156 0.15981
 C1755 C 0.22784 0.32571 0.13667
 C1756 C 0.24317 0.29996 0.15380
 C1757 C 0.23118 0.30189 0.18843
 H1758 H 0.26214 0.28365 0.14318
 H1759 H 0.19660 0.33521 0.21342
 H1760 H 0.19300 0.36229 0.15487
 N1761 N 0.69973 0.77078 0.68128
 N1762 N 0.69801 0.78467 0.64979
 C1763 C 0.72451 0.80433 0.64484
 C1764 C 0.74356 0.80296 0.67470
 C1765 C 0.72706 0.78162 0.69717
 H1766 H 0.76707 0.81456 0.67917
 H1767 H 0.68278 0.75363 0.69127
 H1768 H 0.67910 0.78016 0.63217
 N1769 N 0.31033 0.72361 0.68102
 N1770 N 0.31356 0.70995 0.64932
 C1771 C 0.28790 0.68949 0.64448
 C1772 C 0.26793 0.68984 0.67440
 C1773 C 0.28255 0.71213 0.69676
 H1774 H 0.24397 0.67847 0.67779
 H1775 H 0.32573 0.74210 0.69057
 H1776 H 0.33219 0.71579 0.63095
 N1777 N 0.81802 0.19794 0.18345
 N1778 N 0.81976 0.18217 0.15283
 C1779 C 0.79058 0.18499 0.13671
 C1780 C 0.76941 0.20328 0.15830
 C1781 C 0.78766 0.21108 0.18780
 H1782 H 0.74412 0.21011 0.15338
 H1783 H 0.83763 0.19943 0.20064
 H1784 H 0.84097 0.17023 0.14321
 N1785 N 0.70160 0.17705 0.80541
 N1786 N 0.70088 0.16070 0.83559
 C1787 C 0.72222 0.17482 0.85784
 C1788 C 0.73688 0.20144 0.84111
 C1789 C 0.72345 0.20194 0.80763
 H1790 H 0.75636 0.21688 0.85109
 H1791 H 0.68760 0.17064 0.78372
 H1792 H 0.68626 0.13994 0.84045
 N1793 N 0.19359 0.73888 0.34108
 N1794 N 0.19323 0.72562 0.37296
 C1795 C 0.21751 0.70285 0.37447
 C1796 C 0.23340 0.70116 0.34171
 C1797 C 0.21774 0.72459 0.32129
 H1798 H 0.25540 0.68724 0.33466
 H1799 H 0.17859 0.75863 0.33374
 H1800 H 0.17715 0.73300 0.39342
 N1801 N 0.80785 0.81415 0.31585
 N1802 N 0.81174 0.83008 0.34595
 C1803 C 0.79027 0.81800 0.37021
 C1804 C 0.77211 0.79305 0.35477
 C1805 C 0.78389 0.79142 0.32011
 H1806 H 0.75192 0.77922 0.36653
 H1807 H 0.82142 0.81935 0.29293
 H1808 H 0.82874 0.84908 0.34940
 N1809 N 0.31156 0.29505 0.80446
 N1810 N 0.31552 0.30938 0.83558
 C1811 C 0.28587 0.31192 0.85223
 C1812 C 0.26216 0.29901 0.83064
 C1813 C 0.27928 0.28875 0.80050
 H1814 H 0.23590 0.29753 0.83596
 H1815 H 0.33071 0.28972 0.78647
 H1816 H 0.33824 0.31684 0.84523
 N1817 N 0.73826 0.34183 0.77980
 N1818 N 0.74942 0.37223 0.78336
 C1819 C 0.78160 0.37258 0.77401
 C1820 C 0.79136 0.34084 0.76432
 C1821 C 0.76302 0.32209 0.76804
 H1822 H 0.81530 0.33295 0.75444
 H1823 H 0.71376 0.33506 0.78458
 H1824 H 0.73496 0.39226 0.79182
 N1825 N 0.23239 0.85380 0.24826
 N1826 N 0.24344 0.88620 0.25100
 C1827 C 0.27557 0.88525 0.25957
 C1828 C 0.28515 0.85220 0.26294
 C1829 C 0.25767 0.83339 0.25528
 H1830 H 0.30897 0.84288 0.27020
 H1831 H 0.20853 0.84715 0.24134
 H1832 H 0.22889 0.90670 0.24522
 N1833 N 0.26748 0.84302 0.75363
 N1834 N 0.25843 0.87396 0.74855
 C1835 C 0.22538 0.87501 0.74586
 C1836 C 0.21304 0.84329 0.74957
 C1837 C 0.24047 0.82372 0.75433
 H1838 H 0.18765 0.83558 0.74905
 H1839 H 0.29192 0.83535 0.75618
 H1840 H 0.27495 0.89361 0.74656
 N1841 N 0.77224 0.35303 0.21927
 N1842 N 0.75956 0.38280 0.21482
 C1843 C 0.72657 0.38071 0.21815
 C1844 C 0.71791 0.34809 0.22392
 C1845 C 0.74757 0.33137 0.22541
 H1846 H 0.69340 0.33849 0.22841
 H1847 H 0.79750 0.34806 0.21981
 H1848 H 0.77349 0.40433 0.21199
 N1849 N 0.73803 0.66186 0.31444
 N1850 N 0.72687 0.63120 0.31480
 C1851 C 0.72347 0.62082 0.28119
 C1852 C 0.73390 0.64584 0.25864
 C1853 C 0.74208 0.67182 0.28063
 H1854 H 0.73301 0.64598 0.23020
 H1855 H 0.74096 0.67626 0.33713
 H1856 H 0.71959 0.61873 0.33778
 N1857 N 0.25958 0.15786 0.76981
 N1858 N 0.24844 0.12743 0.77365
 C1859 C 0.21996 0.12471 0.75625
 C1860 C 0.21301 0.15468 0.74042
 C1861 C 0.23849 0.17516 0.74985
 H1862 H 0.19182 0.16101 0.72512
 H1863 H 0.28097 0.16666 0.78144
 H1864 H 0.26036 0.10915 0.78807
 N1865 N 0.24289 0.16256 0.23635
 N1866 N 0.25384 0.13187 0.23604
 C1867 C 0.28689 0.13246 0.23433
 C1868 C 0.29764 0.16491 0.23339
 C1869 C 0.26882 0.18340 0.23537
 H1870 H 0.32279 0.17354 0.23421
 H1871 H 0.21801 0.16895 0.23911
 H1872 H 0.23889 0.11098 0.23840
 N1873 N 0.74307 0.65564 0.77977
 N1874 N 0.75371 0.62487 0.77810
 C1875 C 0.78458 0.62464 0.76447
 C1876 C 0.79410 0.65693 0.75708
 C1877 C 0.76703 0.67597 0.76766
 H1878 H 0.81766 0.66533 0.74676
 H1879 H 0.71976 0.66245 0.78958
 H1880 H 0.73992 0.60443 0.78636
 N1881 N 0.85149 0.76505 0.27475
 N1882 N 0.88323 0.76722 0.26030
 C1883 C 0.88108 0.76750 0.22469
 C1884 C 0.84765 0.76635 0.21617
 C1885 C 0.82998 0.76502 0.24816
 H1886 H 0.83722 0.76488 0.19015
 H1887 H 0.84620 0.76114 0.30154
 H1888 H 0.90433 0.76593 0.27549
 N1889 N 0.32143 0.30212 0.69216
 N1890 N 0.35138 0.30073 0.67794
 C1891 C 0.36719 0.27406 0.69037
 C1892 C 0.34613 0.25785 0.71416
 C1893 C 0.31695 0.27644 0.71447
 H1894 H 0.35006 0.23399 0.72626
 H1895 H 0.30358 0.31887 0.68398
 H1896 H 0.36012 0.31686 0.65840
 N1897 N 0.31992 0.69350 0.80226
 N1898 N 0.35002 0.69378 0.81469
 C1899 C 0.36612 0.72037 0.80201
 C1900 C 0.34526 0.73758 0.77983
 C1901 C 0.31585 0.71976 0.78085
 H1902 H 0.34941 0.76172 0.76833
 H1903 H 0.30174 0.67717 0.81116
 H1904 H 0.35854 0.67715 0.83352
 N1905 N 0.85953 0.24975 0.23115
 N1906 N 0.88928 0.24929 0.24458
 C1907 C 0.88686 0.24235 0.27940
 C1908 C 0.85364 0.23770 0.28811
 C1909 C 0.83703 0.24243 0.25662
 H1910 H 0.84276 0.23380 0.31411
 H1911 H 0.85472 0.25686 0.20523
 H1912 H 0.91052 0.25578 0.23023
 N1913 N 0.16055 0.28181 0.23491
 N1914 N 0.13030 0.28285 0.24859
 C1915 C 0.13163 0.27776 0.28370
 C1916 C 0.16433 0.27391 0.29275
 C1917 C 0.18209 0.27696 0.26107
 H1918 H 0.17379 0.26803 0.31852
 H1919 H 0.16589 0.28245 0.20782
 H1920 H 0.10904 0.28506 0.23369
 N1921 N 0.66440 0.79567 0.75300
 N1922 N 0.63291 0.79666 0.76263
 C1923 C 0.62781 0.77590 0.79000
 C1924 C 0.65779 0.76124 0.79802
 C1925 C 0.68045 0.77435 0.77394
 H1926 H 0.66267 0.74329 0.81839
 H1927 H 0.67417 0.80906 0.73186
 H1928 H 0.61535 0.81094 0.74986
 N1929 N 0.65256 0.22520 0.76316
 N1930 N 0.62258 0.22450 0.75009
 C1931 C 0.62438 0.23139 0.71526
 C1932 C 0.65731 0.23621 0.70581
 C1933 C 0.67460 0.23169 0.73694
 H1934 H 0.66725 0.24306 0.68010
 H1935 H 0.65744 0.22281 0.79000
 H1936 H 0.60113 0.22082 0.76527
 N1937 N 0.15329 0.72112 0.26608
 N1938 N 0.12343 0.71977 0.25284
 C1939 C 0.12418 0.73318 0.22025
 C1940 C 0.15615 0.74310 0.21247
 C1941 C 0.17401 0.73505 0.24215
 H1942 H 0.16521 0.75527 0.18877
 H1943 H 0.15885 0.71301 0.29137
 H1944 H 0.10281 0.71075 0.26663
   
