data_POSCAR
  _audit_creation_date              2014-09-24
  _audit_creation_method            'ToBaCCo'
  _symmetry_space_group_name_H-M    'P1'
  _symmetry_Int_Tables_number       1
  _symmetry_cell_setting            triclinic
  loop_
  _symmetry_equiv_pos_as_xyz
 x,y,z
_cell_length_a 64.1016
_cell_length_b 64.0970
_cell_length_c 64.0410
_cell_angle_alpha 89.999100
_cell_angle_beta 90.003100
_cell_angle_gamma 89.943100
loop_
  _atom_site_label
  _atom_site_type_symbol
  _atom_site_fract_x
  _atom_site_fract_y
  _atom_site_fract_z
C1 C 0.36756 1.35308 0.33688
 C2 C 0.36757 1.33763 0.35238
 C3 C 0.35227 1.33763 0.36766
 C4 C 0.33677 1.35309 0.36764
 C5 C 0.33676 1.36837 0.35232
 C6 C 0.35224 1.36837 0.33685
 C7 C 0.38008 1.35650 0.31974
 N8 N 0.37266 1.37343 0.30949
 C9 C 0.35568 1.38085 0.31968
 C10 C 0.31959 1.38085 0.35573
 N11 N 0.30938 1.37344 0.37270
 C12 C 0.31962 1.35651 0.38013
 C13 C 0.35571 1.32049 0.38018
 N14 N 0.37267 1.31027 0.37279
 C15 C 0.38008 1.32049 0.35584
 H16 H 0.39336 1.34721 0.31492
 H17 H 0.34638 1.39410 0.31479
 H18 H 0.31471 1.39410 0.34643
 H19 H 0.31478 1.34723 0.39341
 H20 H 0.34643 1.31562 0.39343
 H21 H 0.39334 1.31562 0.34657
 C22 C 0.36747 0.85306 0.83764
 C23 C 0.36748 0.83760 0.85312
 C24 C 0.35213 0.83754 0.86836
 C25 C 0.33659 0.85296 0.86830
 C26 C 0.33659 0.86825 0.85298
 C27 C 0.35212 0.86830 0.83757
 C28 C 0.38000 0.85652 0.82052
 N29 N 0.37256 0.87342 0.81023
 C30 C 0.35555 0.88077 0.82040
 C31 C 0.31936 0.88067 0.85632
 N32 N 0.30910 0.87322 0.87323
 C33 C 0.31936 0.85632 0.88071
 C34 C 0.35558 0.82039 0.88086
 N35 N 0.37259 0.81022 0.87351
 C36 C 0.38002 0.82049 0.85659
 H37 H 0.39330 0.84728 0.81569
 H38 H 0.34623 0.89398 0.81547
 H39 H 0.31448 0.89390 0.84699
 H40 H 0.31448 0.84701 0.89395
 H41 H 0.34627 0.81548 0.89408
 H42 H 0.39332 0.81566 0.84736
 C43 C 0.86681 1.35258 0.83614
 C44 C 0.86681 1.33713 0.85165
 C45 C 0.85145 1.33708 0.86687
 C46 C 0.83589 1.35248 0.86677
 C47 C 0.83588 1.36775 0.85144
 C48 C 0.85143 1.36780 0.83603
 C49 C 0.87940 1.35605 0.81907
 N50 N 0.87197 1.37296 0.80878
 C51 C 0.85491 1.38031 0.81889
 C52 C 0.81867 1.38020 0.85481
 N53 N 0.80844 1.37278 0.87176
 C54 C 0.81870 1.35587 0.87922
 C55 C 0.85494 1.31999 0.87943
 N56 N 0.87198 1.30984 0.87214
 C57 C 0.87940 1.32007 0.85519
 H58 H 0.89275 1.34683 0.81432
 H59 H 0.84560 1.39353 0.81396
 H60 H 0.81380 1.39345 0.84550
 H61 H 0.81386 1.34659 0.89250
 H62 H 0.84563 1.31510 0.89267
 H63 H 0.89275 1.31526 0.84601
 C64 C 0.86804 0.85265 0.33645
 C65 C 0.86805 0.83717 0.35192
 C66 C 0.85275 0.83715 0.36721
 C67 C 0.83726 0.85260 0.36721
 C68 C 0.83725 0.86791 0.35193
 C69 C 0.85273 0.86794 0.33645
 C70 C 0.88056 0.85612 0.31932
 N71 N 0.87314 0.87308 0.30911
 C72 C 0.85616 0.88047 0.31932
 C73 C 0.82008 0.88039 0.35538
 N74 N 0.80987 0.87296 0.37232
 C75 C 0.82012 0.85602 0.37971
 C76 C 0.85620 0.82000 0.37970
 N77 N 0.87316 0.80978 0.37230
 C78 C 0.88056 0.82003 0.35535
 H79 H 0.89384 0.84685 0.31446
 H80 H 0.84687 0.89374 0.31448
 H81 H 0.81520 0.89366 0.34612
 H82 H 0.81526 0.84673 0.39297
 H83 H 0.84693 0.81511 0.39295
 H84 H 0.89383 0.81517 0.34608
 C85 C 0.63155 0.64666 0.33705
 C86 C 0.63154 0.66212 0.35254
 C87 C 0.64684 0.66212 0.36783
 C88 C 0.66233 0.64666 0.36781
 C89 C 0.66235 0.63138 0.35250
 C90 C 0.64687 0.63137 0.33702
 C91 C 0.61906 0.64326 0.31988
 N92 N 0.62650 0.62633 0.30963
 C93 C 0.64346 0.61891 0.31984
 C94 C 0.67953 0.61892 0.35591
 N95 N 0.68976 0.62633 0.37285
 C96 C 0.67950 0.64325 0.38028
 C97 C 0.64340 0.67927 0.38032
 N98 N 0.62646 0.68950 0.37292
 C99 C 0.61905 0.67927 0.35598
 H100 H 0.60580 0.65256 0.31503
 H101 H 0.65278 0.60567 0.31495
 H102 H 0.68443 0.60568 0.34661
 H103 H 0.68437 0.65253 0.39354
 H104 H 0.65269 0.68415 0.39357
 H105 H 0.60579 0.68415 0.34670
 C106 C 0.63337 0.14777 0.83574
 C107 C 0.63332 0.16321 0.85124
 C108 C 0.64861 0.16323 0.86653
 C109 C 0.66414 0.14780 0.86651
 C110 C 0.66419 0.13253 0.85118
 C111 C 0.64871 0.13251 0.83570
 C112 C 0.62082 0.14429 0.81862
 N113 N 0.62826 0.12735 0.80839
 C114 C 0.64527 0.11999 0.81856
 C115 C 0.68135 0.12004 0.85464
 N116 N 0.69151 0.12744 0.87164
 C117 C 0.68125 0.14437 0.87905
 C118 C 0.64509 0.18030 0.87911
 N119 N 0.62808 0.19047 0.87175
 C120 C 0.62073 0.18028 0.85476
 H121 H 0.60750 0.15352 0.81382
 H122 H 0.65457 0.10673 0.81370
 H123 H 0.68623 0.10677 0.84536
 H124 H 0.68604 0.15362 0.89237
 H125 H 0.65432 0.18514 0.89241
 H126 H 0.60742 0.18511 0.84553
 C127 C 1.13252 0.64698 0.83766
 C128 C 1.13247 0.66246 0.85312
 C129 C 1.14776 0.66251 0.86843
 C130 C 1.16328 0.64707 0.86845
 C131 C 1.16333 0.63176 0.85315
 C132 C 1.14786 0.63172 0.83767
 C133 C 1.12004 0.64350 0.82051
 N134 N 1.12749 0.62657 0.81028
 C135 C 1.14445 0.61921 0.82052
 C136 C 1.18051 0.61930 0.85660
 N137 N 1.19069 0.62675 0.87356
 C138 C 1.18043 0.64368 0.88096
 C139 C 1.14426 0.67966 0.88090
 N140 N 1.12729 0.68984 0.87348
 C141 C 1.11993 0.67958 0.85653
 H142 H 1.10676 0.65275 0.81563
 H143 H 1.15376 0.60596 0.81565
 H144 H 1.18540 0.60605 0.84731
 H145 H 1.18525 0.65299 0.89423
 H146 H 1.15352 0.68457 0.89417
 H147 H 1.10667 0.68441 0.84724
 C148 C 1.13265 0.14702 0.33656
 C149 C 1.13267 0.16244 0.35208
 C150 C 1.14799 0.16241 0.36735
 C151 C 1.16348 0.14695 0.36728
 C152 C 1.16348 0.13170 0.35193
 C153 C 1.14797 0.13173 0.33648
 C154 C 1.12010 0.14362 0.31944
 N155 N 1.12750 0.12669 0.30916
 C156 C 1.14450 0.11926 0.31931
 C157 C 1.18064 0.11920 0.35532
 N158 N 1.19086 0.12658 0.37229
 C159 C 1.18063 0.14350 0.37976
 C160 C 1.14455 0.17951 0.37991
 N161 N 1.12757 0.18974 0.37258
 C162 C 1.12015 0.17956 0.35561
 H163 H 1.10681 0.15290 0.31465
 H164 H 1.15378 0.10601 0.31440
 H165 H 1.18550 0.10595 0.34600
 H166 H 1.18548 0.15276 0.39305
 H167 H 1.15383 0.18434 0.39318
 H168 H 1.10686 0.18445 0.34638
 C169 C 0.63239 1.35228 0.66387
 C170 C 0.63239 1.33684 0.64837
 C171 C 0.64767 1.33685 0.63306
 C172 C 0.66313 1.35231 0.63308
 C173 C 0.66314 1.36758 0.64840
 C174 C 0.64768 1.36757 0.66389
 C175 C 0.61987 1.35572 0.68102
 N176 N 0.62727 1.37266 0.69125
 C177 C 0.64423 1.38007 0.68105
 C178 C 0.68026 1.38008 0.64494
 N179 N 0.69046 1.37270 0.62796
 C180 C 0.68024 1.35577 0.62055
 C181 C 0.64421 1.31975 0.62051
 N182 N 0.62726 1.30954 0.62789
 C183 C 0.61988 1.31973 0.64488
 H184 H 0.60660 1.34645 0.68585
 H185 H 0.65349 1.39333 0.68591
 H186 H 0.68512 1.39333 0.65423
 H187 H 0.68509 1.34652 0.60725
 H188 H 0.65346 1.31491 0.60722
 H189 H 0.60661 1.31487 0.65414
 C190 C 0.63164 0.85292 1.16303
 C191 C 0.63174 0.83742 1.14757
 C192 C 0.64713 0.83737 1.13237
 C193 C 0.66260 0.85283 1.13243
 C194 C 0.66250 0.86814 1.14770
 C195 C 0.64694 0.86819 1.16309
 C196 C 0.61906 0.85638 1.18012
 N197 N 0.62643 0.87333 1.19036
 C198 C 0.64343 0.88071 1.18022
 C199 C 0.67968 0.88060 1.14436
 N200 N 0.69001 0.87315 1.12749
 C201 C 0.67983 0.85621 1.12004
 C202 C 0.64378 0.82020 1.11989
 N203 N 0.62681 0.81000 1.12722
 C204 C 0.61929 0.82027 1.14410
 H205 H 0.60579 0.84710 1.18493
 H206 H 0.65271 0.89395 1.18512
 H207 H 0.68449 0.89386 1.15365
 H208 H 0.68478 0.84690 1.10683
 H209 H 0.65315 0.81528 1.10670
 H210 H 0.60598 0.81542 1.15331
 C211 C 1.13193 1.35371 1.16154
 C212 C 1.13197 1.33826 1.14604
 C213 C 1.14733 1.33821 1.13081
 C214 C 1.16285 1.35362 1.13091
 C215 C 1.16281 1.36890 1.14625
 C216 C 1.14726 1.36893 1.16165
 C217 C 1.11941 1.35711 1.17868
 N218 N 1.12683 1.37398 1.18900
 C219 C 1.14382 1.38136 1.17885
 C220 C 1.18004 1.38129 1.14298
 N221 N 1.19035 1.37384 1.12608
 C222 C 1.18011 1.35697 1.11855
 C223 C 1.14394 1.32105 1.11833
 N224 N 1.12696 1.31087 1.12567
 C225 C 1.11949 1.32114 1.14257
 H226 H 1.10613 1.34785 1.18349
 H227 H 1.15313 1.39454 1.18382
 H228 H 1.18491 1.39448 1.15236
 H229 H 1.18504 1.34765 1.10533
 H230 H 1.15329 1.31612 1.10514
 H231 H 1.10620 1.31629 1.15182
 C232 C 1.13085 0.85375 0.66151
 C233 C 1.13086 0.83825 0.64607
 C234 C 1.14617 0.83818 0.63079
 C235 C 1.16165 0.85362 0.63078
 C236 C 1.16165 0.86894 0.64605
 C237 C 1.14616 0.86901 0.66151
 C238 C 1.11840 0.85719 0.67870
 N239 N 1.12583 0.87410 0.68894
 C240 C 1.14276 0.88148 0.67868
 C241 C 1.17885 0.88134 0.64266
 N242 N 1.18912 0.87385 0.62577
 C243 C 1.17886 0.85694 0.61835
 C244 C 1.14279 0.82097 0.61837
 N245 N 1.12585 0.81077 0.62580
 C246 C 1.11841 0.82108 0.64269
 H247 H 1.10517 0.84792 0.68361
 H248 H 1.15208 0.89469 0.68358
 H249 H 1.18375 0.89457 0.65195
 H250 H 1.18377 0.84759 0.60515
 H251 H 1.15211 0.81602 0.60517
 H252 H 1.10516 0.81623 0.65199
 C253 C 0.36729 0.64723 0.66258
 C254 C 0.36724 0.66271 0.64711
 C255 C 0.35192 0.66272 0.63183
 C256 C 0.33648 0.64725 0.63184
 C257 C 0.33653 0.63194 0.64714
 C258 C 0.35202 0.63193 0.66259
 C259 C 0.37981 0.64379 0.67971
 N260 N 0.37246 0.62684 0.68995
 C261 C 0.35551 0.61943 0.67974
 C262 C 0.31941 0.61942 0.64372
 N263 N 0.30915 0.62684 0.62677
 C264 C 0.31932 0.64381 0.61935
 C265 C 0.35533 0.67987 0.61934
 N266 N 0.37228 0.69009 0.62673
 C267 C 0.37971 0.67985 0.64366
 H268 H 0.39306 0.65307 0.68456
 H269 H 0.34627 0.60617 0.68463
 H270 H 0.31459 0.60615 0.65300
 H271 H 0.31443 0.65310 0.60610
 H272 H 0.34604 0.68475 0.60608
 H273 H 0.39298 0.68470 0.65292
 C274 C 0.36805 0.14627 1.16136
 C275 C 0.36801 0.16175 1.14590
 C276 C 0.35267 0.16180 1.13065
 C277 C 0.33718 0.14636 1.13069
 C278 C 0.33722 0.13105 1.14599
 C279 C 0.35275 0.13101 1.16141
 C280 C 0.38056 0.14285 1.17851
 N281 N 0.37316 0.12594 1.18879
 C282 C 0.35620 0.11855 1.17859
 C283 C 0.32003 0.11862 1.14263
 N284 N 0.30975 0.12609 1.12573
 C285 C 0.31996 0.14301 1.11827
 C286 C 0.35605 0.17899 1.11820
 N287 N 0.37301 0.18918 1.12559
 C288 C 0.38047 0.17889 1.14248
 H289 H 0.39381 0.15213 1.18336
 H290 H 0.34691 0.10534 1.18353
 H291 H 0.31518 0.10538 1.15195
 H292 H 0.31505 0.15233 1.10504
 H293 H 0.34672 0.18393 1.10500
 H294 H 0.39374 0.18374 1.15175
 C295 C 0.86899 0.64638 1.16163
 C296 C 0.86892 0.66189 1.14619
 C297 C 0.85358 0.66194 1.13094
 C298 C 0.83813 0.64647 1.13095
 C299 C 0.83820 0.63114 1.14621
 C300 C 0.85372 0.63109 1.16163
 C301 C 0.88150 0.64293 1.17877
 N302 N 0.87412 0.62598 1.18900
 C303 C 0.85718 0.61859 1.17878
 C304 C 0.82103 0.61869 1.14283
 N305 N 0.81072 0.62615 1.12595
 C306 C 0.82091 0.64310 1.11853
 C307 C 0.85693 0.67915 1.11852
 N308 N 0.87387 0.68937 1.12592
 C309 C 0.88135 0.67907 1.14280
 H310 H 0.89473 0.65221 1.18365
 H311 H 0.84791 0.60535 1.18367
 H312 H 0.81619 0.60543 1.15212
 H313 H 0.81596 0.65242 1.10533
 H314 H 0.84759 0.68408 1.10532
 H315 H 0.89460 0.68393 1.15208
 C316 C 0.86776 0.14730 0.66346
 C317 C 0.86778 0.16272 0.64793
 C318 C 0.85250 0.16270 0.63262
 C319 C 0.83702 0.14725 0.63267
 C320 C 0.83700 0.13201 0.64802
 C321 C 0.85246 0.13203 0.66351
 C322 C 0.88027 0.14390 0.68062
 N323 N 0.87286 0.12699 0.69089
 C324 C 0.85590 0.11957 0.68070
 C325 C 0.81986 0.11953 0.64459
 N326 N 0.80965 0.12690 0.62760
 C327 C 0.81989 0.14380 0.62016
 C328 C 0.85596 0.17979 0.62007
 N329 N 0.87291 0.19001 0.62745
 C330 C 0.88029 0.17982 0.64444
 H331 H 0.89354 0.15317 0.68544
 H332 H 0.84661 0.10634 0.68560
 H333 H 0.81498 0.10631 0.65390
 H334 H 0.81505 0.15303 0.60685
 H335 H 0.84670 0.18463 0.60678
 H336 H 0.89354 0.18469 0.65371
 C337 C 1.35378 0.36790 0.66203
 C338 C 1.33832 0.36795 0.64655
 C339 C 1.33829 0.35266 0.63125
 C340 C 1.35373 0.33714 0.63126
 C341 C 1.36902 0.33710 0.64657
 C342 C 1.36904 0.35257 0.66205
 C343 C 1.35720 0.38037 0.67921
 N344 N 1.37410 0.37292 0.68947
 C345 C 1.38150 0.35596 0.67924
 C346 C 1.38147 0.31990 0.64315
 N347 N 1.37403 0.30970 0.62620
 C348 C 1.35711 0.31997 0.61877
 C349 C 1.32113 0.35612 0.61877
 N350 N 1.31093 0.37308 0.62619
 C351 C 1.32119 0.38046 0.64313
 H352 H 1.34793 0.39364 0.68408
 H353 H 1.39472 0.34664 0.68415
 H354 H 1.39470 0.31499 0.65246
 H355 H 1.34780 0.31514 0.60551
 H356 H 1.31623 0.34684 0.60553
 H357 H 1.31633 0.39372 0.65243
 C358 C 1.35263 0.86706 1.16349
 C359 C 1.33719 0.86707 1.14798
 C360 C 1.33719 0.85175 1.13271
 C361 C 1.35264 0.83625 1.13276
 C362 C 1.36791 0.83623 1.14809
 C363 C 1.36790 0.85173 1.16355
 C364 C 1.35606 0.87961 1.18060
 N365 N 1.37300 0.87221 1.19086
 C366 C 1.38040 0.85520 1.18070
 C367 C 1.38041 0.81908 1.14468
 N368 N 1.37302 0.80887 1.12770
 C369 C 1.35608 0.81910 1.12026
 C370 C 1.32009 0.85523 1.12016
 N371 N 1.30989 0.87222 1.12751
 C372 C 1.32009 0.87961 1.14448
 H373 H 1.34680 0.89292 1.18539
 H374 H 1.39366 0.84592 1.18559
 H375 H 1.39366 0.81422 1.15398
 H376 H 1.34682 0.81426 1.10696
 H377 H 1.31523 0.84597 1.10688
 H378 H 1.31524 0.89291 1.15372
 C379 C 0.85274 0.36704 1.16375
 C380 C 0.83718 0.36697 1.14836
 C381 C 0.83715 0.35167 1.13308
 C382 C 0.85269 0.33626 1.13299
 C383 C 0.86809 0.33633 1.14819
 C384 C 0.86811 0.35181 1.16366
 C385 C 0.85622 0.37957 1.18087
 N386 N 0.87327 0.37224 1.19099
 C387 C 0.88070 0.35531 1.18074
 C388 C 0.88065 0.31924 1.14467
 N389 N 0.87318 0.30899 1.12776
 C390 C 0.85613 0.31913 1.12045
 C391 C 0.81992 0.35504 1.12067
 N392 N 0.80967 0.37196 1.12813
 C393 C 0.81996 0.37940 1.14502
 H394 H 0.84690 0.39280 1.18577
 H395 H 0.89404 0.34609 1.18552
 H396 H 0.89400 0.31445 1.15387
 H397 H 0.84678 0.31424 1.10724
 H398 H 0.81501 0.34575 1.10744
 H399 H 0.81510 0.39265 1.15431
 C400 C 0.85344 0.86875 0.66188
 C401 C 0.83796 0.86872 0.64640
 C402 C 0.83798 0.85342 0.63112
 C403 C 0.85347 0.83795 0.63114
 C404 C 0.86876 0.83798 0.64643
 C405 C 0.86875 0.85346 0.66189
 C406 C 0.85682 0.88122 0.67906
 N407 N 0.87375 0.87382 0.68931
 C408 C 0.88120 0.85689 0.67908
 C409 C 0.88123 0.82080 0.64305
 N410 N 0.87381 0.81053 0.62613
 C411 C 0.85688 0.82076 0.61870
 C412 C 0.82079 0.85680 0.61866
 N413 N 0.81053 0.87372 0.62608
 C414 C 0.82077 0.88116 0.64300
 H415 H 0.84751 0.89445 0.68394
 H416 H 0.89444 0.84761 0.68398
 H417 H 0.89447 0.81592 0.65235
 H418 H 0.84758 0.81585 0.60547
 H419 H 0.81590 0.84748 0.60543
 H420 H 0.81587 0.89440 0.65229
 C421 C 0.64642 0.63104 0.66194
 C422 C 0.66188 0.63100 0.64645
 C423 C 0.66185 0.64623 0.63109
 C424 C 0.64635 0.66169 0.63104
 C425 C 0.63107 0.66173 0.64634
 C426 C 0.63110 0.64632 0.66188
 C427 C 0.64305 0.61866 0.67918
 N428 N 0.62613 0.62612 0.68942
 C429 C 0.61867 0.64299 0.67909
 C430 C 0.61860 0.67889 0.64290
 N431 N 0.62600 0.68910 0.62594
 C432 C 0.64293 0.67883 0.61853
 C433 C 0.67903 0.64281 0.61864
 N434 N 0.68931 0.62594 0.62613
 C435 C 0.67909 0.61856 0.64309
 H436 H 0.65238 0.60546 0.68414
 H437 H 0.60543 0.65230 0.68396
 H438 H 0.60538 0.68382 0.65220
 H439 H 0.65222 0.68370 0.60528
 H440 H 0.68390 0.65207 0.60537
 H441 H 0.68401 0.60537 0.65245
 C442 C 0.64719 1.13275 1.16351
 C443 C 0.66264 1.13273 1.14802
 C444 C 0.66263 1.14801 1.13271
 C445 C 0.64716 1.16349 1.13271
 C446 C 0.63187 1.16351 1.14802
 C447 C 0.63188 1.14805 1.16351
 C448 C 0.64378 1.12026 1.18067
 N449 N 0.62684 1.12767 1.19091
 C450 C 0.61940 1.14462 1.18069
 C451 C 0.61935 1.18065 1.14456
 N452 N 0.62675 1.19084 1.12758
 C453 C 0.64370 1.18061 1.12017
 C454 C 0.67976 1.14455 1.12019
 N455 N 0.68999 1.12760 1.12760
 C456 C 0.67978 1.12022 1.14457
 H457 H 0.65309 1.10700 1.18552
 H458 H 0.60614 1.15391 1.18556
 H459 H 0.60608 1.18551 1.15384
 H460 H 0.65298 1.18545 1.10689
 H461 H 0.68462 1.15380 1.10691
 H462 H 0.68465 1.10696 1.15385
 C463 C 0.14756 0.63344 1.16407
 C464 C 0.16306 0.63347 1.14863
 C465 C 0.16310 0.64879 1.13336
 C466 C 0.14762 0.66426 1.13335
 C467 C 0.13228 0.66424 1.14861
 C468 C 0.13225 0.64873 1.16407
 C469 C 0.14408 0.62087 1.18116
 N470 N 0.12709 0.62824 1.19135
 C471 C 0.11969 0.64523 1.18117
 C472 C 0.11975 0.68137 1.14513
 N473 N 0.12719 0.69159 1.12819
 C474 C 0.14419 0.68139 1.12082
 C475 C 0.18027 0.64534 1.12089
 N476 N 0.19047 0.62837 1.12829
 C477 C 0.18020 0.62096 1.14521
 H478 H 0.15335 0.60758 1.18599
 H479 H 0.10639 0.65448 1.18600
 H480 H 0.10644 0.68619 1.15437
 H481 H 0.15349 0.68624 1.10756
 H482 H 0.18516 0.65462 1.10764
 H483 H 0.18504 0.60767 1.15447
 C484 C 0.14745 1.13300 0.66378
 C485 C 0.16281 1.13287 0.64819
 C486 C 0.16271 1.14806 0.63279
 C487 C 0.14725 1.16356 0.63280
 C488 C 0.13207 1.16369 0.64821
 C489 C 0.13217 1.14832 0.66379
 C490 C 0.14414 1.12061 0.68104
 N491 N 0.12727 1.12811 0.69134
 C492 C 0.11979 1.14501 0.68107
 C493 C 0.11957 1.18084 0.64474
 N494 N 0.12688 1.19092 0.62766
 C495 C 0.14376 1.18062 0.62019
 C496 C 0.17976 1.14452 0.62019
 N497 N 0.19003 1.12762 0.62763
 C498 C 0.17992 1.12034 0.64471
 H499 H 0.15345 1.10736 0.68591
 H500 H 0.10658 1.15435 0.68596
 H501 H 0.10638 1.18579 0.65410
 H502 H 0.15296 1.18536 0.60683
 H503 H 0.18454 1.15371 0.60683
 H504 H 0.18485 1.10714 0.65404
 C505 C 1.35249 0.63316 0.33635
 C506 C 1.33701 0.63317 0.35181
 C507 C 1.33694 0.64850 0.36707
 C508 C 1.35235 0.66401 0.36704
 C509 C 1.36766 0.66401 0.35175
 C510 C 1.36773 0.64849 0.33631
 C511 C 1.35600 0.62059 0.31926
 N512 N 1.37295 0.62799 0.30904
 C513 C 1.38028 0.64501 0.31920
 C514 C 1.38013 0.68116 0.35519
 N515 N 1.37268 0.69138 0.37214
 C516 C 1.35574 0.68117 0.37955
 C517 C 1.31983 0.64501 0.37960
 N518 N 1.30969 0.62800 0.37225
 C519 C 1.31995 0.62061 0.35530
 H520 H 1.34678 0.60728 0.31445
 H521 H 1.39353 0.65429 0.31434
 H522 H 1.39341 0.68600 0.34593
 H523 H 1.34645 0.68601 0.39282
 H524 H 1.31493 0.65428 0.39286
 H525 H 1.31516 0.60728 0.34608
 C526 C 1.35307 1.13260 0.83771
 C527 C 1.33760 1.13254 0.85319
 C528 C 1.33749 1.14787 0.86845
 C529 C 1.35284 1.16343 0.86842
 C530 C 1.36814 1.16349 0.85311
 C531 C 1.36825 1.14798 0.83767
 C532 C 1.35657 1.12010 0.82058
 N533 N 1.37345 1.12758 0.81031
 C534 C 1.38074 1.14458 0.82051
 C535 C 1.38050 1.18073 0.85649
 N536 N 1.37300 1.19095 0.87342
 C537 C 1.35613 1.18064 0.88087
 C538 C 1.32034 1.14437 0.88092
 N539 N 1.31023 1.12737 0.87353
 C540 C 1.32053 1.11998 0.85662
 H541 H 1.34738 1.10678 0.81574
 H542 H 1.39392 1.15393 0.81559
 H543 H 1.39371 1.18566 0.84718
 H544 H 1.34679 1.18547 0.89412
 H545 H 1.31538 1.15366 0.89415
 H546 H 1.31575 1.10669 0.84734
 C547 C 0.85321 0.63148 0.83809
 C548 C 0.83771 0.63151 0.85354
 C549 C 0.83765 0.64684 0.86880
 C550 C 0.85310 0.66232 0.86879
 C551 C 0.86841 0.66229 0.85352
 C552 C 0.86847 0.64678 0.83808
 C553 C 0.85667 0.61898 0.82094
 N554 N 0.87360 0.62639 0.81071
 C555 C 0.88097 0.64334 0.82093
 C556 C 0.88085 0.67946 0.85692
 N557 N 0.87339 0.68974 0.87382
 C558 C 0.85646 0.67952 0.88123
 C559 C 0.82047 0.64344 0.88125
 N560 N 0.81028 0.62649 0.87385
 C561 C 0.82057 0.61904 0.85695
 H562 H 0.84741 0.60573 0.81606
 H563 H 0.89419 0.65264 0.81604
 H564 H 0.89410 0.68433 0.84764
 H565 H 0.84715 0.68443 0.89446
 H566 H 0.81555 0.65276 0.89447
 H567 H 0.81573 0.60577 0.84768
 C568 C 0.85409 1.13055 0.33897
 C569 C 0.83856 1.13055 0.35439
 C570 C 0.83849 1.14582 0.36971
 C571 C 0.85396 1.16128 0.36979
 C572 C 0.86931 1.16127 0.35455
 C573 C 0.86937 1.14582 0.33905
 C574 C 0.85753 1.11815 0.32175
 N575 N 0.87447 1.12559 0.31156
 C576 C 0.88187 1.14247 0.32188
 C577 C 0.88172 1.17845 0.35799
 N578 N 0.87423 1.18871 0.37488
 C579 C 0.85729 1.17847 0.38225
 C580 C 0.82124 1.14244 0.38206
 N581 N 0.81102 1.12555 0.37455
 C582 C 0.82135 1.11813 0.35767
 H583 H 0.84823 1.10496 0.31677
 H584 H 0.89509 1.15179 0.31703
 H585 H 0.89497 1.18335 0.34872
 H586 H 0.84793 1.18338 0.39544
 H587 H 0.81627 1.15174 0.39528
 H588 H 0.81649 1.10493 0.34831
 C589 C 0.64698 0.36834 0.33712
 C590 C 0.66249 0.36832 0.35256
 C591 C 0.66251 0.35306 0.36789
 C592 C 0.64701 0.33763 0.36797
 C593 C 0.63168 0.33765 0.35271
 C594 C 0.63166 0.35309 0.33720
 C595 C 0.64353 0.38080 0.31994
 N596 N 0.62654 0.37341 0.30979
 C597 C 0.61912 0.35651 0.32007
 C598 C 0.61919 0.32053 0.35619
 N599 N 0.62664 0.31029 0.37313
 C600 C 0.64361 0.32050 0.38048
 C601 C 0.67970 0.35646 0.38032
 N602 N 0.68994 0.37335 0.37285
 C603 C 0.67968 0.38075 0.35591
 H604 H 0.65283 0.39402 0.31502
 H605 H 0.60584 0.34725 0.31526
 H606 H 0.60592 0.31566 0.34694
 H607 H 0.65293 0.31561 0.39371
 H608 H 0.68460 0.34719 0.39359
 H609 H 0.68455 0.39397 0.34658
 C610 C 0.64649 0.86861 0.83810
 C611 C 0.66200 0.86861 0.85354
 C612 C 0.66206 0.85332 0.86884
 C613 C 0.64660 0.83785 0.86888
 C614 C 0.63127 0.83786 0.85362
 C615 C 0.63121 0.85333 0.83814
 C616 C 0.64304 0.88107 0.82092
 N617 N 0.62609 0.87366 0.81071
 C618 C 0.61871 0.85674 0.82099
 C619 C 0.61883 0.82070 0.85706
 N620 N 0.62630 0.81044 0.87397
 C621 C 0.64324 0.82068 0.88135
 C622 C 0.67927 0.85672 0.88126
 N623 N 0.68947 0.87364 0.87380
 C624 C 0.67917 0.88106 0.85689
 H625 H 0.65231 0.89429 0.81599
 H626 H 0.60547 0.84745 0.81613
 H627 H 0.60558 0.81581 0.84779
 H628 H 0.65257 0.81577 0.89457
 H629 H 0.68421 0.84742 0.89448
 H630 H 0.68402 0.89429 0.84757
 C631 C 0.14672 0.36863 0.83724
 C632 C 0.16220 0.36864 0.85271
 C633 C 0.16222 0.35337 0.86803
 C634 C 0.14675 0.33791 0.86807
 C635 C 0.13145 0.33790 0.85278
 C636 C 0.13143 0.35335 0.83728
 C637 C 0.14330 0.38109 0.82005
 N638 N 0.12636 0.37367 0.80984
 C639 C 0.11894 0.35675 0.82010
 C640 C 0.11899 0.32075 0.85624
 N641 N 0.12644 0.31053 0.87318
 C642 C 0.14337 0.32077 0.88057
 C643 C 0.17940 0.35677 0.88048
 N644 N 0.18963 0.37368 0.87302
 C645 C 0.17937 0.38108 0.85609
 H646 H 0.15260 0.39431 0.81515
 H647 H 0.10570 0.34745 0.81525
 H648 H 0.10574 0.31586 0.84697
 H649 H 0.15267 0.31590 0.89382
 H650 H 0.18431 0.34749 0.89373
 H651 H 0.18425 0.39430 0.84676
 C652 C 0.14669 0.86829 0.33696
 C653 C 0.16219 0.86824 0.35240
 C654 C 0.16225 0.85291 0.36765
 C655 C 0.14680 0.83743 0.36764
 C656 C 0.13147 0.83748 0.35237
 C657 C 0.13141 0.85300 0.33694
 C658 C 0.14323 0.88082 0.31983
 N659 N 0.12628 0.87343 0.30961
 C660 C 0.11890 0.85646 0.31980
 C661 C 0.11903 0.82031 0.35577
 N662 N 0.12650 0.81002 0.37267
 C663 C 0.14343 0.82024 0.38008
 C664 C 0.17944 0.85628 0.38009
 N665 N 0.18964 0.87324 0.37270
 C666 C 0.17934 0.88070 0.35581
 H667 H 0.15251 0.89408 0.31498
 H668 H 0.10566 0.84717 0.31492
 H669 H 0.10577 0.81545 0.34650
 H670 H 0.15275 0.81532 0.39329
 H671 H 0.18438 0.84695 0.39330
 H672 H 0.18418 0.89397 0.34654
 O673 O 0.97963 0.92488 0.89619
 O674 O 0.97959 0.90064 0.87175
 C675 C 0.97251 0.91762 0.87917
 C676 C 0.95553 0.92884 0.86820
 C677 C 0.94870 0.92226 0.84843
 H678 H 0.95620 0.90918 0.84074
 O679 O 1.02031 1.07563 0.89607
 O680 O 1.02033 1.09990 0.87167
 C681 C 1.02744 1.08293 0.87907
 C682 C 1.04448 1.07178 0.86812
 C683 C 1.05155 1.07863 0.84851
 H684 H 1.04416 1.09182 0.84092
 O685 O 0.89601 0.98003 0.92474
 O686 O 0.87161 0.98000 0.90046
 C687 C 0.87901 0.97292 0.91745
 C688 C 0.86805 0.95594 0.92866
 C689 C 0.84834 0.94907 0.92202
 H690 H 0.84067 0.95655 0.90891
 O691 O 1.10395 1.02048 0.92461
 O692 O 1.12834 1.02046 0.90033
 C693 C 1.12095 1.02756 0.91732
 C694 C 1.13193 1.04453 0.92852
 C695 C 1.15165 1.05140 0.92186
 H696 H 1.15931 1.04392 0.90875
 O697 O 0.92459 0.89639 0.97979
 O698 O 0.90035 0.87199 0.97976
 C699 C 0.91732 0.87939 0.97267
 C700 C 0.92852 0.86841 0.95569
 C701 C 0.92191 0.84867 0.94883
 H702 H 0.90883 0.84101 0.95632
 O703 O 1.07539 1.10404 0.97969
 O704 O 1.09964 1.12843 0.97965
 C705 C 1.08265 1.12104 0.97258
 C706 C 1.07143 1.13204 0.95561
 C707 C 1.07803 1.15178 0.94875
 H708 H 1.09113 1.15943 0.95623
 O709 O 0.92457 1.02068 0.89613
 O710 O 0.90033 1.02070 0.87168
 C711 C 0.91730 1.02778 0.87910
 C712 C 0.92849 1.04476 0.86812
 C713 C 0.92182 1.05168 0.84840
 H714 H 0.90871 1.04423 0.84074
 O715 O 1.07529 0.97988 0.89606
 O716 O 1.09950 0.97982 0.87159
 C717 C 1.08253 0.97276 0.87902
 C718 C 1.07131 0.95580 0.86807
 C719 C 1.07786 0.94897 0.84828
 H720 H 1.09090 0.95647 0.84056
 O721 O 1.02034 0.89625 0.92473
 O722 O 1.02035 0.87185 0.90044
 C723 C 1.02745 0.87924 0.91743
 C724 C 1.04444 0.86825 0.92861
 C725 C 1.05132 0.84852 0.92196
 H726 H 1.04384 0.84087 0.90886
 O727 O 0.97959 1.10419 0.92467
 O728 O 0.97954 1.12861 0.90040
 C729 C 0.97245 1.12120 0.91739
 C730 C 0.95544 1.13216 0.92857
 C731 C 0.94848 1.15184 0.92186
 H732 H 0.95593 1.15948 0.90873
 O733 O 0.89595 1.07572 0.97975
 O734 O 0.87155 1.10001 0.97974
 C735 C 0.87895 1.08303 0.97263
 C736 C 0.86800 1.07188 0.95559
 C737 C 0.84835 1.07863 0.94858
 H738 H 0.84070 1.09178 0.95601
 O739 O 1.10396 0.92473 0.97969
 O740 O 1.12837 0.90046 0.97962
 C741 C 1.12095 0.91743 0.97253
 C742 C 1.13187 0.92860 0.95549
 C743 C 1.15154 0.92187 0.94850
 H744 H 1.15919 0.90874 0.95594
 O745 O 0.97962 1.07561 0.89609
 O746 O 0.97958 1.09987 0.87167
 C747 C 0.97250 1.08290 0.87907
 C748 C 0.95550 1.07173 0.86811
 C749 C 0.94859 1.07841 0.84839
 H750 H 0.95604 1.09151 0.84073
 O751 O 1.02031 0.92485 0.89617
 O752 O 1.02031 0.90061 0.87172
 C753 C 1.02740 0.91758 0.87913
 C754 C 1.04434 0.92879 0.86813
 C755 C 1.05114 0.92220 0.84834
 H756 H 1.04364 0.90913 0.84066
 O757 O 1.10390 0.97980 0.92460
 O758 O 1.12827 0.97972 0.90029
 C759 C 1.12088 0.97264 0.91729
 C760 C 1.13183 0.95561 0.92846
 C761 C 1.15150 0.94863 0.92172
 H762 H 1.15913 0.95607 0.90858
 O763 O 0.89599 1.02072 0.92471
 O764 O 0.87160 1.02075 0.90042
 C765 C 0.87900 1.02785 0.91740
 C766 C 0.86803 1.04487 0.92856
 C767 C 0.84838 1.05187 0.92180
 H768 H 0.84077 1.04444 0.90864
 O769 O 0.92454 1.10422 0.97974
 O770 O 0.90030 1.12867 0.97974
 C771 C 0.91726 1.12124 0.97263
 C772 C 0.92843 1.13218 0.95560
 C773 C 0.92172 1.15186 0.94864
 H774 H 0.90859 1.15952 0.95609
 O775 O 1.07541 0.89618 0.97974
 O776 O 1.09966 0.87175 0.97968
 C777 C 1.08268 0.87917 0.97261
 C778 C 1.07146 0.86822 0.95562
 C779 C 1.07810 0.84849 0.94873
 H780 H 1.09119 0.84081 0.95620
 O781 O 1.07537 1.02058 0.89604
 O782 O 1.09960 1.02057 0.87160
 C783 C 1.08265 1.02770 0.87903
 C784 C 1.07150 1.04476 0.86810
 C785 C 1.07833 1.05185 0.84849
 H786 H 1.09151 1.04447 0.84088
 O787 O 0.92459 0.97999 0.89617
 O788 O 0.90036 0.97996 0.87173
 C789 C 0.91733 0.97287 0.87916
 C790 C 0.92853 0.95588 0.86819
 C791 C 0.92194 0.94905 0.84842
 H792 H 0.90888 0.95656 0.84072
 O793 O 1.02028 1.10415 0.92470
 O794 O 1.02028 1.12859 0.90045
 C795 C 1.02738 1.12116 0.91743
 C796 C 1.04437 1.13210 0.92863
 C797 C 1.05122 1.15184 0.92202
 H798 H 1.04370 1.15954 0.90895
 O799 O 0.97965 0.89629 0.92476
 O800 O 0.97961 0.87189 0.90048
 C801 C 0.97253 0.87930 0.91748
 C802 C 0.95555 0.86836 0.92868
 C803 C 0.94869 0.84862 0.92207
 H804 H 0.95619 0.84093 0.90899
 O805 O 1.10398 1.07547 0.97967
 O806 O 1.12839 1.09970 0.97963
 C807 C 1.12098 1.08273 0.97254
 C808 C 1.13194 1.07153 0.95554
 C809 C 1.15166 1.07815 0.94865
 H810 H 1.15933 1.09123 0.95614
 O811 O 0.89603 0.92499 0.97981
 O812 O 0.87163 0.90076 0.97978
 C813 C 0.87903 0.91773 0.97269
 C814 C 0.86806 0.92893 0.95569
 C815 C 0.84834 0.92230 0.94880
 H816 H 0.84068 0.90922 0.95628
 Cu817 Cu 0.99998 0.91299 0.91290
 Cu818 Cu 0.99996 0.88380 0.88365
 Cu819 Cu 0.99995 1.08747 0.91281
 Cu820 Cu 0.99993 1.11669 0.88360
 Cu821 Cu 0.91272 1.00036 0.91287
 Cu822 Cu 0.88353 1.00035 0.88362
 Cu823 Cu 1.08720 1.00019 0.91276
 Cu824 Cu 1.11637 1.00013 0.88350
 C825 C 0.94547 0.94580 0.87786
 H826 H 0.95047 0.95080 0.89322
 C827 C 0.93203 0.93236 0.83856
 C828 C 1.05444 1.05471 0.87768
 H829 H 1.04926 1.04952 0.89292
 C830 C 1.06836 1.06867 0.83873
 C831 C 0.87769 0.94589 0.94564
 H832 H 0.89301 0.95093 0.95069
 C833 C 0.83851 0.93237 0.93208
 C834 C 1.12230 1.05458 0.94550
 H835 H 1.10698 1.04955 0.95055
 C836 C 1.16149 1.06809 0.93193
 C837 C 0.94548 0.87803 0.94563
 H838 H 0.95050 0.89336 0.95066
 C839 C 0.93200 0.83880 0.93215
 C840 C 1.05446 1.12242 0.94556
 H841 H 1.04945 1.10708 0.95058
 C842 C 1.06793 1.16165 0.93208
 C843 C 0.94548 1.05476 0.87775
 H844 H 0.95054 1.04970 0.89307
 C845 C 0.93186 1.06838 0.83856
 C846 C 1.05441 0.94573 0.87777
 H847 H 1.04943 0.95073 0.89314
 C848 C 1.06778 0.93229 0.83844
 C849 C 1.05449 0.87788 0.94559
 H850 H 1.04946 0.89320 0.95064
 C851 C 1.06803 0.83867 0.93202
 C852 C 0.94543 1.12255 0.94559
 H853 H 0.95053 1.10726 0.95068
 C854 C 0.93174 1.16167 0.93189
 C855 C 0.87761 1.05486 0.94560
 H856 H 0.89289 1.04974 0.95073
 C857 C 0.83857 1.06863 0.93180
 C858 C 1.12224 0.94561 0.94548
 H859 H 1.10696 0.95072 0.95060
 C860 C 1.16132 0.93188 0.93174
 O861 O 1.02042 0.92480 1.10407
 O862 O 1.02044 0.90056 1.12851
 C863 C 1.02753 0.91753 1.12109
 C864 C 1.04451 0.92871 1.13207
 C865 C 1.05140 0.92206 1.15181
 H866 H 1.04392 0.90897 1.15948
 O867 O 0.97982 1.07556 1.10403
 O868 O 0.97980 1.09979 1.12848
 C869 C 0.97273 1.08281 1.12107
 C870 C 0.95579 1.07159 1.13207
 C871 C 0.94906 1.07812 1.15190
 H872 H 0.95660 1.09114 1.15961
 O873 O 0.89610 1.02065 1.07555
 O874 O 0.87174 1.02073 1.09987
 C875 C 0.87912 1.02780 1.08287
 C876 C 0.86814 1.04480 1.07168
 C877 C 0.84843 1.05170 1.07837
 H878 H 0.84079 1.04424 1.09149
 O879 O 1.10404 0.97971 1.07550
 O880 O 1.12844 0.97966 1.09977
 C881 C 1.12104 0.97258 1.08279
 C882 C 1.13199 0.95557 1.07159
 C883 C 1.15169 0.94862 1.07828
 H884 H 1.15933 0.95605 1.09142
 O885 O 1.07548 0.89617 1.02046
 O886 O 1.09974 0.87175 1.02047
 C887 C 1.08278 0.87917 1.02758
 C888 C 1.07162 0.86823 1.04462
 C889 C 1.07835 0.84856 1.05161
 H890 H 1.09148 0.84091 1.04418
 O891 O 0.92458 1.10420 1.02046
 O892 O 0.90034 1.12865 1.02053
 C893 C 0.91731 1.12121 1.02761
 C894 C 0.92852 1.13214 1.04461
 C895 C 0.92184 1.15184 1.05158
 H896 H 0.90872 1.15950 1.04415
 O897 O 0.92468 0.97990 1.10409
 O898 O 0.90048 0.97992 1.12856
 C899 C 0.91743 0.97279 1.12111
 C900 C 0.92861 0.95577 1.13206
 C901 C 0.92193 0.94884 1.15178
 H902 H 0.90883 0.95631 1.15944
 O903 O 1.07548 1.02046 1.10406
 O904 O 1.09974 1.02047 1.12848
 C905 C 1.08277 1.02758 1.12106
 C906 C 1.07161 1.04461 1.13201
 C907 C 1.07830 1.05154 1.15172
 H908 H 1.09140 1.04407 1.15938
 O909 O 0.97976 0.89626 1.07548
 O910 O 0.97974 0.87184 1.09974
 C911 C 0.97265 0.87926 1.08276
 C912 C 0.95566 0.86832 1.07155
 C913 C 0.94884 0.84855 1.07813
 H914 H 0.95637 0.84084 1.09118
 O915 O 1.02043 1.10417 1.07544
 O916 O 1.02045 1.12858 1.09971
 C917 C 1.02753 1.12117 1.08271
 C918 C 1.04450 1.13212 1.07150
 C919 C 1.05134 1.15188 1.07808
 H920 H 1.04384 1.15959 1.09115
 O921 O 0.89602 0.92495 1.02053
 O922 O 0.87163 0.90070 1.02057
 C923 C 0.87903 0.91767 1.02766
 C924 C 0.86808 0.92886 1.04469
 C925 C 0.84842 0.92217 1.05167
 H926 H 0.84077 0.90904 1.04424
 O927 O 1.10398 1.07544 1.02039
 O928 O 1.12839 1.09967 1.02041
 C929 C 1.12099 1.08270 1.02750
 C930 C 1.13197 1.07148 1.04449
 C931 C 1.15171 1.07808 1.05135
 H932 H 1.15937 1.09116 1.04385
 O933 O 1.02050 1.07559 1.10402
 O934 O 1.02053 1.09984 1.12845
 C935 C 1.02762 1.08287 1.12103
 C936 C 1.04463 1.07167 1.13199
 C937 C 1.05157 1.07836 1.15170
 H938 H 1.04412 1.09149 1.15935
 O939 O 0.97974 0.92482 1.10407
 O940 O 0.97970 0.90056 1.12850
 C941 C 0.97261 0.91754 1.12108
 C942 C 0.95561 0.92874 1.13205
 C943 C 0.94869 0.92205 1.15176
 H944 H 0.95615 0.90893 1.15941
 O945 O 1.10403 1.02040 1.07545
 O946 O 1.12844 1.02041 1.09972
 C947 C 1.12103 1.02750 1.08273
 C948 C 1.13199 1.04447 1.07151
 C949 C 1.15174 1.05131 1.07812
 H950 H 1.15942 1.04381 1.09120
 O951 O 0.89607 0.97996 1.07555
 O952 O 0.87171 0.97998 1.09987
 C953 C 0.87908 0.97287 1.08287
 C954 C 0.86811 0.95588 1.07170
 C955 C 0.84845 0.94894 1.07845
 H956 H 0.84082 0.95639 1.09159
 O957 O 1.07544 1.10406 1.02040
 O958 O 1.09969 1.12844 1.02042
 C959 C 1.08271 1.12106 1.02751
 C960 C 1.07151 1.13206 1.04448
 C961 C 1.07811 1.15181 1.05130
 H962 H 1.09117 1.15947 1.04378
 O963 O 0.92463 0.89639 1.02050
 O964 O 0.90040 0.87199 1.02053
 C965 C 0.91737 0.87938 1.02761
 C966 C 0.92860 0.86839 1.04457
 C967 C 0.92203 0.84862 1.05139
 H968 H 0.90896 0.84096 1.04389
 O969 O 1.07545 0.97977 1.10407
 O970 O 1.09970 0.97972 1.12850
 C971 C 1.08272 0.97265 1.12109
 C972 C 1.07152 0.95568 1.13207
 C973 C 1.07816 0.94879 1.15181
 H974 H 1.09125 0.95625 1.15948
 O975 O 0.92474 1.02058 1.10407
 O976 O 0.90055 1.02065 1.12856
 C977 C 0.91752 1.02770 1.12112
 C978 C 0.92878 1.04462 1.13209
 C979 C 0.92229 1.05139 1.15193
 H980 H 0.90926 1.04388 1.15965
 O981 O 0.97974 1.10414 1.07546
 O982 O 0.97970 1.12854 1.09975
 C983 C 0.97260 1.12114 1.08276
 C984 C 0.95558 1.13210 1.07160
 C985 C 0.94865 1.15179 1.07832
 H986 H 0.95612 1.15943 1.09144
 O987 O 1.02045 0.89622 1.07550
 O988 O 1.02048 0.87182 1.09978
 C989 C 1.02757 0.87922 1.08280
 C990 C 1.04460 0.86825 1.07163
 C991 C 1.05156 0.84858 1.07837
 H992 H 1.04412 0.84096 1.09151
 O993 O 1.10403 0.92472 1.02042
 O994 O 1.12845 0.90045 1.02041
 C995 C 1.12104 0.91743 1.02752
 C996 C 1.13200 0.92859 1.04454
 C997 C 1.15170 0.92188 1.05147
 H998 H 1.15935 0.90877 1.04399
 O999 O 0.89600 1.07568 1.02047
 O1000 O 0.87159 1.09996 1.02053
 C1001 C 0.87901 1.08298 1.02762
 C1002 C 0.86808 1.07180 1.04464
 C1003 C 0.84837 1.07846 1.05158
 H1004 H 0.84069 1.09156 1.04411
 Cu1005 Cu 1.00009 0.91295 1.08734
 Cu1006 Cu 1.00009 0.88375 1.11658
 Cu1007 Cu 1.00012 1.08744 1.08730
 Cu1008 Cu 1.00011 1.11663 1.11654
 Cu1009 Cu 0.91274 0.91311 1.00016
 Cu1010 Cu 0.88355 0.88392 1.00016
 Cu1011 Cu 1.08729 0.91288 1.00008
 Cu1012 Cu 1.11650 0.88365 1.00004
 Cu1013 Cu 0.91269 1.08752 1.00010
 Cu1014 Cu 0.88350 1.11677 1.00014
 Cu1015 Cu 1.08727 1.08732 1.00004
 Cu1016 Cu 1.11647 1.11650 1.00003
 Cu1017 Cu 0.91282 1.00027 1.08738
 Cu1018 Cu 0.88368 1.00033 1.11667
 Cu1019 Cu 1.08732 1.00008 1.08734
 Cu1020 Cu 1.11653 1.00006 1.11657
 C1021 C 1.05456 0.94566 1.12242
 H1022 H 1.04951 0.95071 1.10709
 C1023 C 1.06810 0.93210 1.16165
 C1024 C 0.94568 1.05470 1.12239
 H1025 H 0.95060 1.04975 1.10698
 C1026 C 0.93243 1.06801 1.16180
 C1027 C 0.87773 1.05483 1.05468
 H1028 H 0.89304 1.04977 1.04961
 C1029 C 0.83857 1.06841 1.06832
 C1030 C 1.12238 0.94557 1.05458
 H1031 H 1.10708 0.95067 1.04950
 C1032 C 1.16151 0.93189 1.06822
 C1033 C 1.05460 0.87785 1.05462
 H1034 H 1.04950 0.89313 1.04950
 C1035 C 1.06832 0.83876 1.06837
 C1036 C 0.94553 1.12250 1.05460
 H1037 H 0.95061 1.10720 1.04950
 C1038 C 0.93191 1.16163 1.06831
 C1039 C 0.94559 0.94574 1.12243
 H1040 H 0.95067 0.95081 1.10711
 C1041 C 0.93197 0.93210 1.16159
 C1042 C 1.05463 1.05466 1.12238
 H1043 H 1.04955 1.04958 1.10707
 C1044 C 1.06828 1.06830 1.16154
 C1045 C 0.94556 0.87801 1.05463
 H1046 H 0.95055 0.89336 1.04964
 C1047 C 0.93215 0.83873 1.06804
 C1048 C 1.05457 1.12244 1.05456
 H1049 H 1.04956 1.10709 1.04956
 C1050 C 1.06802 1.16170 1.06797
 C1051 C 0.87770 0.94585 1.05469
 H1052 H 0.89298 0.95093 1.04957
 C1053 C 0.83863 0.93221 1.06843
 C1054 C 1.12233 1.05453 1.05455
 H1055 H 1.10700 1.04952 1.04953
 C1056 C 1.16157 1.06799 1.06804
 O1057 O 0.97990 0.42433 0.39595
 O1058 O 0.97990 0.40004 0.37156
 C1059 C 0.97279 0.41702 0.37895
 C1060 C 0.95577 0.42818 0.36797
 C1061 C 0.94884 0.42147 0.34827
 H1062 H 0.95631 0.40835 0.34063
 O1063 O 1.02062 0.57513 0.39596
 O1064 O 1.02061 0.59938 0.37153
 C1065 C 1.02773 0.58242 0.37895
 C1066 C 1.04477 0.57128 0.36799
 C1067 C 1.05172 0.57802 0.34831
 H1068 H 1.04426 0.59115 0.34067
 O1069 O 0.89633 0.47940 0.42454
 O1070 O 0.87194 0.47938 0.40026
 C1071 C 0.87933 0.47230 0.41726
 C1072 C 0.86837 0.45533 0.42847
 C1073 C 0.84867 0.44844 0.42179
 H1074 H 0.84102 0.45590 0.40866
 O1075 O 1.10426 0.52009 0.42454
 O1076 O 1.12865 0.52006 0.40026
 C1077 C 1.12126 0.52718 0.41725
 C1078 C 1.13222 0.54417 0.42842
 C1079 C 1.15189 0.55113 0.42169
 H1080 H 1.15952 0.54369 0.40855
 O1081 O 0.92491 0.39595 0.47974
 O1082 O 0.90071 0.37153 0.47971
 C1083 C 0.91768 0.37893 0.47263
 C1084 C 0.92891 0.36794 0.45567
 C1085 C 0.92239 0.34814 0.44891
 H1086 H 0.90935 0.34046 0.45646
 O1087 O 1.07565 0.60363 0.47957
 O1088 O 1.09986 0.62806 0.47954
 C1089 C 1.08290 0.62064 0.47245
 C1090 C 1.07168 0.63160 0.45545
 C1091 C 1.07832 0.65131 0.44853
 H1092 H 1.09142 0.65897 0.45597
 O1093 O 0.92493 0.52001 0.39595
 O1094 O 0.90071 0.52006 0.37149
 C1095 C 0.91768 0.52712 0.37891
 C1096 C 0.92891 0.54406 0.36794
 C1097 C 0.92235 0.55088 0.34814
 H1098 H 0.90930 0.54337 0.34043
 O1099 O 1.07559 0.47947 0.39600
 O1100 O 1.09982 0.47939 0.37155
 C1101 C 1.08284 0.47234 0.37897
 C1102 C 1.07162 0.45539 0.36800
 C1103 C 1.07819 0.44857 0.34821
 H1104 H 1.09123 0.45608 0.34051
 O1105 O 1.02063 0.39581 0.42457
 O1106 O 1.02069 0.37138 0.40031
 C1107 C 1.02777 0.37880 0.41730
 C1108 C 1.04476 0.36783 0.42851
 C1109 C 1.05167 0.34811 0.42186
 H1110 H 1.04421 0.34045 0.40874
 O1111 O 0.97985 0.60365 0.42452
 O1112 O 0.97979 0.62804 0.40024
 C1113 C 0.97271 0.62064 0.41722
 C1114 C 0.95569 0.63160 0.42839
 C1115 C 0.94876 0.65129 0.42170
 H1116 H 0.95622 0.65894 0.40858
 O1117 O 0.89623 0.57510 0.47952
 O1118 O 0.87180 0.59936 0.47949
 C1119 C 0.87922 0.58238 0.47240
 C1120 C 0.86828 0.57120 0.45539
 C1121 C 0.84855 0.57783 0.44850
 H1122 H 0.84086 0.59092 0.45598
 O1123 O 1.10418 0.42433 0.47962
 O1124 O 1.12859 0.40007 0.47960
 C1125 C 1.12118 0.41704 0.47249
 C1126 C 1.13213 0.42821 0.45547
 C1127 C 1.15184 0.42153 0.44855
 H1128 H 1.15951 0.40842 0.45603
 O1129 O 0.97994 0.57502 0.39599
 O1130 O 0.97988 0.59926 0.37154
 C1131 C 0.97283 0.58228 0.37896
 C1132 C 0.95590 0.57105 0.36796
 C1133 C 0.94910 0.57762 0.34816
 H1134 H 0.95661 0.59068 0.34047
 O1135 O 1.02058 0.42442 0.39603
 O1136 O 1.02064 0.40016 0.37160
 C1137 C 1.02770 0.41715 0.37901
 C1138 C 1.04465 0.42837 0.36802
 C1139 C 1.05146 0.42179 0.34823
 H1140 H 1.04397 0.40873 0.34054
 O1141 O 1.10420 0.47940 0.42455
 O1142 O 1.12859 0.47931 0.40026
 C1143 C 1.12118 0.47224 0.41725
 C1144 C 1.13213 0.45522 0.42844
 C1145 C 1.15183 0.44830 0.42178
 H1146 H 1.15949 0.45576 0.40867
 O1147 O 0.89629 0.52008 0.42446
 O1148 O 0.87190 0.52012 0.40017
 C1149 C 0.87930 0.52721 0.41716
 C1150 C 0.86832 0.54420 0.42835
 C1151 C 0.84859 0.55108 0.42170
 H1152 H 0.84093 0.54360 0.40860
 O1153 O 0.92477 0.60365 0.47953
 O1154 O 0.90050 0.62807 0.47950
 C1155 C 0.91748 0.62066 0.47241
 C1156 C 0.92866 0.63161 0.45540
 C1157 C 0.92197 0.65131 0.44846
 H1158 H 0.90885 0.65897 0.45591
 O1159 O 1.07563 0.39579 0.47967
 O1160 O 1.09988 0.37136 0.47967
 C1161 C 1.08291 0.37877 0.47257
 C1162 C 1.07173 0.36781 0.45556
 C1163 C 1.07840 0.34810 0.44866
 H1164 H 1.09150 0.34043 0.45615
 O1165 O 1.07570 0.52016 0.39594
 O1166 O 1.09994 0.52013 0.37150
 C1167 C 1.08299 0.52726 0.37892
 C1168 C 1.07182 0.54429 0.36797
 C1169 C 1.07853 0.55128 0.34829
 H1170 H 1.09167 0.54386 0.34064
 O1171 O 0.92484 0.47933 0.39591
 O1172 O 0.90061 0.47932 0.37146
 C1173 C 0.91757 0.47221 0.37889
 C1174 C 0.92875 0.45519 0.36794
 C1175 C 0.92206 0.44823 0.34824
 H1176 H 0.90894 0.45568 0.34058
 O1177 O 1.02055 0.60364 0.42459
 O1178 O 1.02053 0.62805 0.40032
 C1179 C 1.02763 0.62064 0.41730
 C1180 C 1.04462 0.63161 0.42848
 C1181 C 1.05149 0.65131 0.42180
 H1182 H 1.04399 0.65897 0.40870
 O1183 O 0.97996 0.39586 0.42465
 O1184 O 0.97995 0.37142 0.40041
 C1185 C 0.97287 0.37885 0.41739
 C1186 C 0.95591 0.36789 0.42864
 C1187 C 0.94914 0.34809 0.42212
 H1188 H 0.95667 0.34037 0.40908
 O1189 O 1.10426 0.57508 0.47959
 O1190 O 1.12863 0.59934 0.47956
 C1191 C 1.12125 0.58236 0.47247
 C1192 C 1.13221 0.57118 0.45545
 C1193 C 1.15187 0.57790 0.44848
 H1194 H 1.15950 0.59103 0.45592
 O1195 O 0.89628 0.42448 0.47970
 O1196 O 0.87191 0.40022 0.47966
 C1197 C 0.87930 0.41719 0.47256
 C1198 C 0.86834 0.42836 0.45553
 C1199 C 0.84864 0.42171 0.44861
 H1200 H 0.84097 0.40862 0.45609
 Cu1201 Cu 1.00027 0.41254 0.41273
 Cu1202 Cu 1.00030 0.38330 0.38352
 Cu1203 Cu 1.00024 0.58693 0.41270
 Cu1204 Cu 1.00019 0.61613 0.38346
 Cu1205 Cu 0.91303 0.49970 0.41265
 Cu1206 Cu 0.88384 0.49973 0.38339
 Cu1207 Cu 1.08751 0.49979 0.41269
 Cu1208 Cu 1.11670 0.49971 0.38344
 C1209 C 0.94574 0.44518 0.37758
 H1210 H 0.95082 0.45027 0.39288
 C1211 C 0.93210 0.43149 0.33843
 C1212 C 1.05480 0.55428 0.37759
 H1213 H 1.04970 0.54916 0.39288
 C1214 C 1.06848 0.56803 0.33849
 C1215 C 0.87798 0.44532 0.44548
 H1216 H 0.89328 0.45037 0.45055
 C1217 C 0.83883 0.43175 0.43186
 C1218 C 1.12262 0.55418 0.44544
 H1219 H 1.10734 0.54909 0.45055
 C1220 C 1.16168 0.56787 0.43172
 C1221 C 0.94582 0.37759 0.44556
 H1222 H 0.95077 0.39297 0.45050
 C1223 C 0.93250 0.33825 0.43227
 C1224 C 1.05470 0.62198 0.44545
 H1225 H 1.04966 0.60667 0.45052
 C1226 C 1.06822 0.66114 0.43182
 C1227 C 0.94582 0.55413 0.37762
 H1228 H 0.95080 0.54914 0.39300
 C1229 C 0.93245 0.56753 0.33828
 C1230 C 1.05470 0.44531 0.37768
 H1231 H 1.04972 0.45030 0.39305
 C1232 C 1.06811 0.43190 0.33835
 C1233 C 1.05477 0.37746 0.44550
 H1234 H 1.04971 0.39278 0.45055
 C1235 C 1.06837 0.33827 0.43193
 C1236 C 0.94566 0.62198 0.44538
 H1237 H 0.95074 0.60668 0.45047
 C1238 C 0.93202 0.66112 0.43173
 C1239 C 0.87794 0.55424 0.44533
 H1240 H 0.89327 0.54921 0.45038
 C1241 C 0.83873 0.56777 0.43177
 C1242 C 1.12250 0.44519 0.44543
 H1243 H 1.10719 0.45026 0.45049
 C1244 C 1.16166 0.43157 0.43183
 O1245 O 1.02058 0.42449 0.60409
 O1246 O 1.02064 0.40025 0.62853
 C1247 C 1.02771 0.41722 0.62111
 C1248 C 1.04471 0.42840 0.63206
 C1249 C 1.05158 0.42179 0.65181
 H1250 H 1.04409 0.40873 0.65951
 O1251 O 0.97986 0.57515 0.60394
 O1252 O 0.97983 0.59942 0.62835
 C1253 C 0.97275 0.58244 0.62095
 C1254 C 0.95578 0.57126 0.63194
 C1255 C 0.94893 0.57791 0.65170
 H1256 H 0.95641 0.59099 0.65936
 O1257 O 0.89630 0.52015 0.57543
 O1258 O 0.87189 0.52023 0.59970
 C1259 C 0.87929 0.52728 0.58270
 C1260 C 0.86831 0.54424 0.57145
 C1261 C 0.84854 0.55108 0.57804
 H1262 H 0.84087 0.54360 0.59113
 O1263 O 1.10421 0.47943 0.57538
 O1264 O 1.12862 0.47939 0.59965
 C1265 C 1.12122 0.47231 0.58266
 C1266 C 1.13219 0.45534 0.57144
 C1267 C 1.15196 0.44850 0.57802
 H1268 H 1.15965 0.45601 0.59109
 O1269 O 1.07564 0.39585 0.52040
 O1270 O 1.09990 0.37142 0.52045
 C1271 C 1.08293 0.37885 0.52755
 C1272 C 1.07175 0.36792 0.54458
 C1273 C 1.07843 0.34822 0.55152
 H1274 H 1.09154 0.34055 0.54406
 O1275 O 0.92478 0.60364 0.52025
 O1276 O 0.90052 0.62806 0.52027
 C1277 C 0.91750 0.62065 0.52736
 C1278 C 0.92870 0.63162 0.54434
 C1279 C 0.92210 0.65139 0.55117
 H1280 H 0.90902 0.65907 0.54366
 O1281 O 0.92485 0.47946 0.60408
 O1282 O 0.90060 0.47949 0.62851
 C1283 C 0.91756 0.47237 0.62110
 C1284 C 0.92873 0.45536 0.63208
 C1285 C 0.92198 0.44840 0.65176
 H1286 H 0.90884 0.45584 0.65938
 O1287 O 1.07561 0.52012 0.60396
 O1288 O 1.09985 0.52013 0.62840
 C1289 C 1.08288 0.52722 0.62098
 C1290 C 1.07167 0.54421 0.63194
 C1291 C 1.07830 0.55110 0.65168
 H1292 H 1.09139 0.54362 0.65936
 O1293 O 0.97991 0.39593 0.57553
 O1294 O 0.97991 0.37152 0.59980
 C1295 C 0.97281 0.37893 0.58282
 C1296 C 0.95581 0.36798 0.57163
 C1297 C 0.94889 0.34829 0.57832
 H1298 H 0.95636 0.34063 0.59144
 O1299 O 1.02052 0.60367 0.57531
 O1300 O 1.02053 0.62811 0.59955
 C1301 C 1.02762 0.62068 0.58257
 C1302 C 1.04458 0.63164 0.57135
 C1303 C 1.05135 0.65143 0.57791
 H1304 H 1.04381 0.65914 0.59095
 O1305 O 0.89626 0.42450 0.52043
 O1306 O 0.87189 0.40024 0.52045
 C1307 C 0.87927 0.41721 0.52755
 C1308 C 0.86831 0.42839 0.54457
 C1309 C 0.84864 0.42170 0.55153
 H1310 H 0.84099 0.40858 0.54408
 O1311 O 1.10424 0.57510 0.52032
 O1312 O 1.12861 0.59936 0.52036
 C1313 C 1.12122 0.58239 0.52745
 C1314 C 1.13217 0.57122 0.54449
 C1315 C 1.15185 0.57790 0.55143
 H1316 H 1.15950 0.59100 0.54396
 O1317 O 1.02054 0.57513 0.60394
 O1318 O 1.02056 0.59941 0.62834
 C1319 C 1.02766 0.58242 0.62095
 C1320 C 1.04465 0.57123 0.63193
 C1321 C 1.05152 0.57787 0.65167
 H1322 H 1.04404 0.59097 0.65934
 O1323 O 0.97989 0.42446 0.60416
 O1324 O 0.97989 0.40020 0.62858
 C1325 C 0.97278 0.41717 0.62117
 C1326 C 0.95575 0.42834 0.63212
 C1327 C 0.94875 0.42162 0.65180
 H1328 H 0.95618 0.40848 0.65945
 O1329 O 1.10423 0.52012 0.57542
 O1330 O 1.12862 0.52013 0.59970
 C1331 C 1.12122 0.52723 0.58272
 C1332 C 1.13217 0.54423 0.57153
 C1333 C 1.15186 0.55115 0.57823
 H1334 H 1.15950 0.54370 0.59136
 O1335 O 0.89628 0.47947 0.57549
 O1336 O 0.87187 0.47950 0.59976
 C1337 C 0.87928 0.47238 0.58279
 C1338 C 0.86832 0.45539 0.57161
 C1339 C 0.84864 0.44846 0.57832
 H1340 H 0.84101 0.45591 0.59145
 O1341 O 1.07562 0.60363 0.52028
 O1342 O 1.09982 0.62806 0.52031
 C1343 C 1.08286 0.62065 0.52739
 C1344 C 1.07161 0.63163 0.54436
 C1345 C 1.07814 0.65141 0.55116
 H1346 H 1.09119 0.65910 0.54364
 O1347 O 0.92487 0.39595 0.52046
 O1348 O 0.90065 0.37154 0.52048
 C1349 C 0.91761 0.37895 0.52758
 C1350 C 0.92880 0.36800 0.54460
 C1351 C 0.92213 0.34830 0.55153
 H1352 H 0.90902 0.34065 0.54407
 O1353 O 1.07566 0.47943 0.60399
 O1354 O 1.09991 0.47939 0.62843
 C1355 C 1.08294 0.47232 0.62101
 C1356 C 1.07174 0.45536 0.63200
 C1357 C 1.07837 0.44850 0.65176
 H1358 H 1.09146 0.45597 0.65943
 O1359 O 0.92486 0.52015 0.60403
 O1360 O 0.90061 0.52024 0.62846
 C1361 C 0.91758 0.52730 0.62104
 C1362 C 0.92878 0.54428 0.63199
 C1363 C 0.92217 0.55117 0.65174
 H1364 H 0.90910 0.54370 0.65943
 O1365 O 0.97984 0.60367 0.57531
 O1366 O 0.97979 0.62811 0.59955
 C1367 C 0.97271 0.62068 0.58257
 C1368 C 0.95572 0.63164 0.57136
 C1369 C 0.94888 0.65140 0.57794
 H1370 H 0.95638 0.65910 0.59101
 O1371 O 1.02060 0.39591 0.57552
 O1372 O 1.02066 0.37151 0.59980
 C1373 C 1.02774 0.37891 0.58281
 C1374 C 1.04474 0.36795 0.57161
 C1375 C 1.05167 0.34825 0.57831
 H1376 H 1.04422 0.34061 0.59143
 O1377 O 1.10420 0.42439 0.52034
 O1378 O 1.12862 0.40012 0.52038
 C1379 C 1.12121 0.41711 0.52745
 C1380 C 1.13219 0.42833 0.54442
 C1381 C 1.15196 0.42173 0.55125
 H1382 H 1.15964 0.40866 0.54374
 O1383 O 0.89623 0.57509 0.52025
 O1384 O 0.87180 0.59935 0.52027
 C1385 C 0.87922 0.58238 0.52737
 C1386 C 0.86827 0.57119 0.54437
 C1387 C 0.84850 0.57779 0.55120
 H1388 H 0.84080 0.59083 0.54366
 Cu1389 Cu 1.00024 0.41263 0.58740
 Cu1390 Cu 1.00028 0.38342 0.61663
 Cu1391 Cu 1.00020 0.58697 0.58720
 Cu1392 Cu 1.00018 0.61621 0.61640
 Cu1393 Cu 0.91300 0.41265 0.50008
 Cu1394 Cu 0.88384 0.38343 0.50007
 Cu1395 Cu 1.08748 0.41252 0.50001
 Cu1396 Cu 1.11670 0.38329 0.50003
 Cu1397 Cu 0.91293 0.58694 0.49989
 Cu1398 Cu 0.88371 0.61616 0.49989
 Cu1399 Cu 1.08752 0.58693 0.49994
 Cu1400 Cu 1.11668 0.61615 0.49994
 Cu1401 Cu 0.91300 0.49980 0.58733
 Cu1402 Cu 0.88380 0.49988 0.61656
 Cu1403 Cu 1.08750 0.49977 0.58725
 Cu1404 Cu 1.11670 0.49976 0.61650
 C1405 C 1.05477 0.44533 0.62238
 H1406 H 1.04973 0.45035 0.60703
 C1407 C 1.06829 0.43184 0.66164
 C1408 C 0.94573 0.55431 0.62232
 H1409 H 0.95075 0.54926 0.60697
 C1410 C 0.93225 0.56786 0.66156
 C1411 C 0.87795 0.55427 0.55448
 H1412 H 0.89330 0.54926 0.54948
 C1413 C 0.83867 0.56773 0.56791
 C1414 C 1.12253 0.44527 0.55450
 H1415 H 1.10718 0.45028 0.54950
 C1416 C 1.16181 0.43183 0.56792
 C1417 C 1.05476 0.37756 0.55461
 H1418 H 1.04968 0.39286 0.54952
 C1419 C 1.06840 0.33841 0.56826
 C1420 C 0.94565 0.62197 0.55442
 H1421 H 0.95066 0.60662 0.54942
 C1422 C 0.93219 0.66125 0.56785
 C1423 C 0.94575 0.44535 0.62250
 H1424 H 0.95087 0.45045 0.60721
 C1425 C 0.93199 0.43165 0.66159
 C1426 C 1.05470 0.55426 0.62229
 H1427 H 1.04967 0.54921 0.60695
 C1428 C 1.06823 0.56780 0.66152
 C1429 C 0.94578 0.37761 0.55463
 H1430 H 0.95084 0.39291 0.54955
 C1431 C 0.93218 0.33848 0.56827
 C1432 C 1.05469 0.62197 0.55443
 H1433 H 1.04973 0.60660 0.54946
 C1434 C 1.06801 0.66129 0.56781
 C1435 C 0.87793 0.44537 0.55459
 H1436 H 0.89322 0.45045 0.54950
 C1437 C 0.83883 0.43173 0.56828
 C1438 C 1.12256 0.55424 0.55452
 H1439 H 1.10726 0.54917 0.54943
 C1440 C 1.16167 0.56787 0.56818
 O1441 O 0.47940 0.92467 0.39568
 O1442 O 0.47939 0.90043 0.37123
 C1443 C 0.47230 0.91741 0.37866
 C1444 C 0.45530 0.92861 0.36769
 C1445 C 0.44836 0.92192 0.34799
 H1446 H 0.45580 0.90879 0.34034
 O1447 O 0.52020 1.07543 0.39577
 O1448 O 0.52023 1.09971 0.37137
 C1449 C 0.52732 1.08272 0.37877
 C1450 C 0.54433 1.07154 0.36780
 C1451 C 0.55132 1.07829 0.34813
 H1452 H 0.54391 1.09145 0.34051
 O1453 O 0.39589 0.97981 0.42431
 O1454 O 0.37148 0.97985 0.40004
 C1455 C 0.37888 0.97273 0.41702
 C1456 C 0.36791 0.95575 0.42820
 C1457 C 0.34821 0.94887 0.42152
 H1458 H 0.34056 0.95635 0.40841
 O1459 O 0.60366 1.02024 0.42438
 O1460 O 0.62810 1.02024 0.40014
 C1461 C 0.62068 1.02733 0.41713
 C1462 C 0.63167 1.04426 0.42838
 C1463 C 0.65145 1.05103 0.42182
 H1464 H 0.65914 1.04352 0.40875
 O1465 O 0.42441 0.89611 0.47929
 O1466 O 0.40012 0.87175 0.47927
 C1467 C 0.41710 0.87913 0.47216
 C1468 C 0.42825 0.86816 0.45513
 C1469 C 0.42153 0.84849 0.44815
 H1470 H 0.40840 0.84087 0.45560
 O1471 O 0.57520 1.10387 0.47952
 O1472 O 0.59946 1.12824 0.47948
 C1473 C 0.58249 1.12086 0.47239
 C1474 C 0.57130 1.13184 0.45539
 C1475 C 0.57794 1.15157 0.44852
 H1476 H 0.59103 1.15922 0.45601
 O1477 O 0.42450 1.02045 0.39575
 O1478 O 0.40026 1.02054 0.37131
 C1479 C 0.41724 1.02758 0.37873
 C1480 C 0.42846 1.04455 0.36777
 C1481 C 0.42188 1.05139 0.34799
 H1482 H 0.40881 1.04390 0.34029
 O1483 O 0.57510 0.97963 0.39573
 O1484 O 0.59936 0.97958 0.37132
 C1485 C 0.58238 0.97251 0.37872
 C1486 C 0.57120 0.95553 0.36774
 C1487 C 0.57786 0.94863 0.34801
 H1488 H 0.59095 0.95610 0.34034
 O1489 O 0.52007 0.89605 0.42428
 O1490 O 0.52011 0.87165 0.40000
 C1491 C 0.52718 0.87904 0.41700
 C1492 C 0.54416 0.86806 0.42822
 C1493 C 0.55102 0.84831 0.42159
 H1494 H 0.54354 0.84065 0.40850
 O1495 O 0.47952 1.10400 0.42439
 O1496 O 0.47948 1.12842 0.40013
 C1497 C 0.47240 1.12101 0.41712
 C1498 C 0.45541 1.13198 0.42833
 C1499 C 0.44852 1.15171 0.42168
 H1500 H 0.45599 1.15937 0.40857
 O1501 O 0.39591 1.07551 0.47946
 O1502 O 0.37152 1.09980 0.47943
 C1503 C 0.37892 1.08282 0.47232
 C1504 C 0.36797 1.07166 0.45529
 C1505 C 0.34828 1.07837 0.44834
 H1506 H 0.34062 1.09148 0.45581
 O1507 O 0.60365 0.92452 0.47938
 O1508 O 0.62806 0.90024 0.47936
 C1509 C 0.62065 0.91722 0.47226
 C1510 C 0.63162 0.92840 0.45526
 C1511 C 0.65133 0.92173 0.44836
 H1512 H 0.65899 0.90862 0.45584
 O1513 O 0.47953 1.07544 0.39580
 O1514 O 0.47950 1.09970 0.37137
 C1515 C 0.47242 1.08272 0.37877
 C1516 C 0.45545 1.07153 0.36778
 C1517 C 0.44863 1.07813 0.34801
 H1518 H 0.45613 1.09119 0.34032
 O1519 O 0.52009 0.92462 0.39570
 O1520 O 0.52014 0.90038 0.37125
 C1521 C 0.52721 0.91735 0.37868
 C1522 C 0.54421 0.92853 0.36772
 C1523 C 0.55111 0.92188 0.34799
 H1524 H 0.54365 0.90879 0.34032
 O1525 O 0.60367 0.97956 0.42432
 O1526 O 0.62809 0.97951 0.40006
 C1527 C 0.62067 0.97242 0.41704
 C1528 C 0.63162 0.95541 0.42824
 C1529 C 0.65133 0.94850 0.42158
 H1530 H 0.65900 0.95597 0.40848
 O1531 O 0.39593 1.02050 0.42433
 O1532 O 0.37153 1.02059 0.40005
 C1533 C 0.37894 1.02765 0.41705
 C1534 C 0.36799 1.04466 0.42825
 C1535 C 0.34830 1.05161 0.42155
 H1536 H 0.34066 1.04417 0.40842
 O1537 O 0.42448 1.10404 0.47948
 O1538 O 0.40025 1.12849 0.47945
 C1539 C 0.41722 1.12106 0.47236
 C1540 C 0.42841 1.13201 0.45536
 C1541 C 0.42177 1.15173 0.44847
 H1542 H 0.40868 1.15941 0.45595
 O1543 O 0.57507 0.89599 0.47937
 O1544 O 0.59932 0.87156 0.47935
 C1545 C 0.58235 0.87898 0.47225
 C1546 C 0.57116 0.86803 0.45525
 C1547 C 0.57778 0.84828 0.44839
 H1548 H 0.59085 0.84060 0.45588
 O1549 O 0.57516 1.02032 0.39573
 O1550 O 0.59944 1.02034 0.37133
 C1551 C 0.58247 1.02745 0.37873
 C1552 C 0.57132 1.04449 0.36778
 C1553 C 0.57807 1.05149 0.34812
 H1554 H 0.59121 1.04405 0.34048
 O1555 O 0.42443 0.97976 0.39569
 O1556 O 0.40018 0.97980 0.37126
 C1557 C 0.41714 0.97267 0.37867
 C1558 C 0.42830 0.95565 0.36770
 C1559 C 0.42160 0.94871 0.34799
 H1560 H 0.40848 0.95617 0.34034
 O1561 O 0.52020 1.10395 0.42440
 O1562 O 0.52022 1.12838 0.40016
 C1563 C 0.52731 1.12095 0.41714
 C1564 C 0.54430 1.13189 0.42835
 C1565 C 0.55118 1.15162 0.42173
 H1566 H 0.54370 1.15931 0.40864
 O1567 O 0.47938 0.89606 0.42423
 O1568 O 0.47937 0.87167 0.39994
 C1569 C 0.47227 0.87907 0.41692
 C1570 C 0.45525 0.86813 0.42809
 C1571 C 0.44828 0.84847 0.42136
 H1572 H 0.45572 0.84083 0.40822
 O1573 O 0.60372 1.07524 0.47953
 O1574 O 0.62815 1.09944 0.47950
 C1575 C 0.62073 1.08248 0.47241
 C1576 C 0.63169 1.07125 0.45543
 C1577 C 0.65148 1.07777 0.44863
 H1578 H 0.65918 1.09080 0.45616
 O1579 O 0.39588 0.92474 0.47931
 O1580 O 0.37144 0.90054 0.47929
 C1581 C 0.37886 0.91750 0.47220
 C1582 C 0.36790 0.92872 0.45521
 C1583 C 0.34820 0.92208 0.44828
 H1584 H 0.34054 0.90897 0.45573
 Cu1585 Cu 0.49973 0.91278 0.41241
 Cu1586 Cu 0.49976 0.88359 0.38316
 Cu1587 Cu 0.49986 1.08727 0.41252
 Cu1588 Cu 0.49985 1.11650 0.38331
 Cu1589 Cu 0.41262 1.00012 0.41245
 Cu1590 Cu 0.38341 1.00020 0.38322
 Cu1591 Cu 0.58696 0.99994 0.41247
 Cu1592 Cu 0.61619 0.99992 0.38326
 C1593 C 0.44530 0.94561 0.37732
 H1594 H 0.45038 0.95069 0.39262
 C1595 C 0.43162 0.93196 0.33817
 C1596 C 0.55431 1.05450 0.37739
 H1597 H 0.54919 1.04938 0.39267
 C1598 C 0.56808 1.06827 0.33832
 C1599 C 0.37753 0.94569 0.44519
 H1600 H 0.39285 0.95073 0.45026
 C1601 C 0.33838 0.93215 0.43156
 C1602 C 0.62201 1.05435 0.44533
 H1603 H 0.60665 1.04939 0.45031
 C1604 C 0.66133 1.06766 0.43195
 C1605 C 0.44526 0.87774 0.44512
 H1606 H 0.45036 0.89302 0.45023
 C1607 C 0.43154 0.83868 0.43139
 C1608 C 0.55434 1.12223 0.44532
 H1609 H 0.54931 1.10690 0.45035
 C1610 C 0.56788 1.16143 0.43181
 C1611 C 0.44539 1.05460 0.37744
 H1612 H 0.45038 1.04958 0.39280
 C1613 C 0.43196 1.06805 0.33813
 C1614 C 0.55423 0.94550 0.37737
 H1615 H 0.54917 0.95055 0.39270
 C1616 C 0.56782 0.93193 0.33816
 C1617 C 0.55421 0.87769 0.44519
 H1618 H 0.54918 0.89303 0.45022
 C1619 C 0.56771 0.83845 0.43168
 C1620 C 0.44538 1.12235 0.44531
 H1621 H 0.45042 1.10702 0.45035
 C1622 C 0.43182 1.16156 0.43175
 C1623 C 0.37760 1.05467 0.44526
 H1624 H 0.39290 1.04957 0.45035
 C1625 C 0.33848 1.06834 0.43159
 C1626 C 0.62199 0.94539 0.44522
 H1627 H 0.60667 0.95045 0.45027
 C1628 C 0.66116 0.93178 0.43164
 O1629 O 0.52004 0.92459 0.60376
 O1630 O 0.52007 0.90034 0.62818
 C1631 C 0.52715 0.91731 0.62078
 C1632 C 0.54411 0.92851 0.63177
 C1633 C 0.55092 0.92191 0.65155
 H1634 H 0.54342 0.90884 0.65923
 O1635 O 0.47953 1.07532 0.60390
 O1636 O 0.47948 1.09957 0.62833
 C1637 C 0.47241 1.08260 0.62091
 C1638 C 0.45541 1.07143 0.63187
 C1639 C 0.44854 1.07807 0.65161
 H1640 H 0.45603 1.09114 0.65929
 O1641 O 0.39587 1.02050 0.57524
 O1642 O 0.37145 1.02053 0.59949
 C1643 C 0.37887 1.02763 0.58252
 C1644 C 0.36792 1.04464 0.57133
 C1645 C 0.34821 1.05157 0.57800
 H1646 H 0.34055 1.04411 0.59111
 O1647 O 0.60363 0.97956 0.57524
 O1648 O 0.62805 0.97945 0.59950
 C1649 C 0.62063 0.97241 0.58251
 C1650 C 0.63159 0.95543 0.57127
 C1651 C 0.65135 0.94859 0.57784
 H1652 H 0.65904 0.95608 0.59091
 O1653 O 0.57507 0.89599 0.52009
 O1654 O 0.59932 0.87155 0.52013
 C1655 C 0.58234 0.87898 0.52721
 C1656 C 0.57114 0.86802 0.54420
 C1657 C 0.57773 0.84825 0.55103
 H1658 H 0.59079 0.84056 0.54352
 O1659 O 0.42450 1.10401 0.52020
 O1660 O 0.40027 1.12846 0.52023
 C1661 C 0.41724 1.12102 0.52732
 C1662 C 0.42844 1.13196 0.54433
 C1663 C 0.42184 1.15172 0.55119
 H1664 H 0.40878 1.15942 0.54368
 O1665 O 0.42441 0.97974 0.60379
 O1666 O 0.40014 0.97972 0.62820
 C1667 C 0.41711 0.97262 0.62079
 C1668 C 0.42829 0.95560 0.63176
 C1669 C 0.42165 0.94873 0.65150
 H1670 H 0.40857 0.95623 0.65918
 O1671 O 0.57517 1.02030 0.60392
 O1672 O 0.59944 1.02023 0.62833
 C1673 C 0.58248 1.02739 0.62093
 C1674 C 0.57136 1.04443 0.63191
 C1675 C 0.57818 1.05145 0.65154
 H1676 H 0.59134 1.04402 0.65914
 O1677 O 0.47937 0.89606 0.57516
 O1678 O 0.47934 0.87164 0.59942
 C1679 C 0.47226 0.87906 0.58243
 C1680 C 0.45528 0.86811 0.57121
 C1681 C 0.44836 0.84841 0.57787
 H1682 H 0.45581 0.84074 0.59099
 O1683 O 0.52021 1.10388 0.57534
 O1684 O 0.52021 1.12830 0.59960
 C1685 C 0.52732 1.12088 0.58262
 C1686 C 0.54431 1.13183 0.57143
 C1687 C 0.55125 1.15150 0.57814
 H1688 H 0.54381 1.15915 0.59128
 O1689 O 0.39593 0.92476 0.52003
 O1690 O 0.37149 0.90057 0.52006
 C1691 C 0.37892 0.91753 0.52715
 C1692 C 0.36795 0.92875 0.54414
 C1693 C 0.34821 0.92216 0.55098
 H1694 H 0.34054 0.90910 0.54347
 O1695 O 0.60375 1.07528 0.52025
 O1696 O 0.62817 1.09949 0.52028
 C1697 C 0.62075 1.08253 0.52738
 C1698 C 0.63170 1.07133 0.54439
 C1699 C 0.65139 1.07798 0.55134
 H1700 H 0.65905 1.09108 0.54389
 O1701 O 0.52022 1.07537 0.60398
 O1702 O 0.52023 1.09963 0.62840
 C1703 C 0.52734 1.08266 0.62099
 C1704 C 0.54438 1.07149 0.63194
 C1705 C 0.55144 1.07826 0.65158
 H1706 H 0.54406 1.09144 0.65921
 O1707 O 0.47936 0.92461 0.60376
 O1708 O 0.47933 0.90035 0.62818
 C1709 C 0.47225 0.91733 0.62077
 C1710 C 0.45527 0.92855 0.63175
 C1711 C 0.44838 0.92191 0.65149
 H1712 H 0.45585 0.90881 0.65916
 O1713 O 0.60369 1.02025 0.57529
 O1714 O 0.62811 1.02018 0.59955
 C1715 C 0.62070 1.02731 0.58258
 C1716 C 0.63167 1.04430 0.57140
 C1717 C 0.65137 1.05119 0.57811
 H1718 H 0.65901 1.04371 0.59122
 O1719 O 0.39589 0.97982 0.57515
 O1720 O 0.37147 0.97979 0.59940
 C1721 C 0.37888 0.97272 0.58241
 C1722 C 0.36793 0.95575 0.57117
 C1723 C 0.34818 0.94892 0.57777
 H1724 H 0.34049 0.95641 0.59086
 O1725 O 0.57518 1.10387 0.52024
 O1726 O 0.59945 1.12824 0.52027
 C1727 C 0.58248 1.12086 0.52737
 C1728 C 0.57130 1.13182 0.54439
 C1729 C 0.57800 1.15150 0.55134
 H1730 H 0.59111 1.15914 0.54389
 O1731 O 0.42443 0.89611 0.52001
 O1732 O 0.40015 0.87175 0.52005
 C1733 C 0.41713 0.87912 0.52714
 C1734 C 0.42831 0.86814 0.54415
 C1735 C 0.42163 0.84844 0.55105
 H1736 H 0.40854 0.84080 0.54356
 O1737 O 0.57506 0.97960 0.60383
 O1738 O 0.59931 0.97948 0.62826
 C1739 C 0.58233 0.97245 0.62084
 C1740 C 0.57110 0.95549 0.63180
 C1741 C 0.57768 0.94865 0.65158
 H1742 H 0.59074 0.95613 0.65929
 O1743 O 0.42444 1.02042 0.60383
 O1744 O 0.40018 1.02046 0.62825
 C1745 C 0.41716 1.02753 0.62085
 C1746 C 0.42837 1.04449 0.63185
 C1747 C 0.42173 1.05138 0.65159
 H1748 H 0.40863 1.04393 0.65926
 O1749 O 0.47953 1.10392 0.57533
 O1750 O 0.47947 1.12834 0.59960
 C1751 C 0.47240 1.12093 0.58261
 C1752 C 0.45543 1.13192 0.57138
 C1753 C 0.44858 1.15167 0.57800
 H1754 H 0.45607 1.15933 0.59109
 O1755 O 0.52005 0.89603 0.57516
 O1756 O 0.52008 0.87161 0.59942
 C1757 C 0.52716 0.87901 0.58244
 C1758 C 0.54414 0.86803 0.57122
 C1759 C 0.55097 0.84827 0.57782
 H1760 H 0.54347 0.84059 0.59089
 O1761 O 0.60362 0.92454 0.52010
 O1762 O 0.62803 0.90027 0.52014
 C1763 C 0.62062 0.91725 0.52722
 C1764 C 0.63159 0.92844 0.54422
 C1765 C 0.65135 0.92184 0.55104
 H1766 H 0.65904 0.90878 0.54352
 O1767 O 0.39588 1.07552 0.52019
 O1768 O 0.37149 1.09982 0.52021
 C1769 C 0.37889 1.08283 0.52731
 C1770 C 0.36792 1.07166 0.54431
 C1771 C 0.34822 1.07835 0.55123
 H1772 H 0.34056 1.09146 0.54376
 Cu1773 Cu 0.49970 0.91275 0.58703
 Cu1774 Cu 0.49971 0.88353 0.61625
 Cu1775 Cu 0.49988 1.08719 0.58721
 Cu1776 Cu 0.49984 1.11640 0.61643
 Cu1777 Cu 0.41260 0.91285 0.49966
 Cu1778 Cu 0.38335 0.88371 0.49967
 Cu1779 Cu 0.58692 0.91269 0.49973
 Cu1780 Cu 0.61613 0.88346 0.49975
 Cu1781 Cu 0.41262 1.08734 0.49983
 Cu1782 Cu 0.38344 1.11659 0.49983
 Cu1783 Cu 0.58703 1.08714 0.49988
 Cu1784 Cu 0.61626 1.11630 0.49988
 Cu1785 Cu 0.41259 1.00012 0.58707
 Cu1786 Cu 0.38336 1.00013 0.61628
 Cu1787 Cu 0.58695 0.99994 0.58714
 Cu1788 Cu 0.61617 0.99982 0.61636
 C1789 C 0.55417 0.94544 0.62212
 H1790 H 0.54918 0.95045 0.60676
 C1791 C 0.56758 0.93198 0.66143
 C1792 C 0.44535 1.05449 0.62221
 H1793 H 0.45039 1.04945 0.60688
 C1794 C 0.43182 1.06805 0.66144
 C1795 C 0.37755 1.05467 0.55435
 H1796 H 0.39286 1.04960 0.54929
 C1797 C 0.33839 1.06830 0.56796
 C1798 C 0.62192 0.94538 0.55431
 H1799 H 0.60657 0.95039 0.54932
 C1800 C 0.66121 0.93192 0.56773
 C1801 C 0.55420 0.87768 0.55427
 H1802 H 0.54920 0.89304 0.54927
 C1803 C 0.56764 0.83840 0.56772
 C1804 C 0.44538 1.12229 0.55441
 H1805 H 0.45040 1.10695 0.54938
 C1806 C 0.43191 1.16155 0.56790
 C1807 C 0.44524 0.94553 0.62211
 H1808 H 0.45027 0.95056 0.60677
 C1809 C 0.43169 0.93201 0.66134
 C1810 C 0.55432 1.05443 0.62234
 H1811 H 0.54914 1.04929 0.60708
 C1812 C 0.56822 1.06825 0.66135
 C1813 C 0.44527 0.87775 0.55421
 H1814 H 0.45033 0.89306 0.54916
 C1815 C 0.43166 0.83860 0.56779
 C1816 C 0.55432 1.12221 0.55442
 H1817 H 0.54924 1.10692 0.54933
 C1818 C 0.56797 1.16131 0.56810
 C1819 C 0.37759 0.94569 0.55421
 H1820 H 0.39293 0.95070 0.54920
 C1821 C 0.33835 0.93224 0.56767
 C1822 C 0.62206 1.05435 0.55441
 H1823 H 0.60676 1.04931 0.54932
 C1824 C 0.66120 1.06791 0.56808
 O1825 O 0.57527 0.52007 1.10424
 O1826 O 0.59951 0.52009 1.12868
 C1827 C 0.58254 0.52720 1.12126
 C1828 C 0.57136 0.54422 1.13221
 C1829 C 0.57803 0.55113 1.15193
 H1830 H 0.59113 0.54365 1.15960
 O1831 O 0.42457 0.47961 1.10433
 O1832 O 0.40033 0.47959 1.12876
 C1833 C 0.41729 0.47248 1.12134
 C1834 C 0.42846 0.45545 1.13228
 C1835 C 0.42178 0.44852 1.15199
 H1836 H 0.40868 0.45601 1.15966
 O1837 O 0.52023 0.60381 1.07567
 O1838 O 0.52029 0.62821 1.09995
 C1839 C 0.52736 0.62080 1.08295
 C1840 C 0.54436 0.63172 1.07176
 C1841 C 0.55127 0.65143 1.07841
 H1842 H 0.54379 0.65912 1.09150
 O1843 O 0.47957 0.39592 1.07564
 O1844 O 0.47953 0.37148 1.09988
 C1845 C 0.47245 0.37891 1.08290
 C1846 C 0.45548 0.36798 1.07165
 C1847 C 0.44864 0.34822 1.07821
 H1848 H 0.45613 0.34049 1.09127
 O1849 O 0.60384 0.57504 1.02064
 O1850 O 0.62828 0.59924 1.02067
 C1851 C 0.62086 0.58228 1.02775
 C1852 C 0.63183 0.57104 1.04472
 C1853 C 0.65159 0.57760 1.05155
 H1854 H 0.65927 0.59066 1.04404
 O1855 O 0.39599 0.42469 1.02059
 O1856 O 0.37157 0.40047 1.02062
 C1857 C 0.37899 0.41743 1.02772
 C1858 C 0.36805 0.42861 1.04475
 C1859 C 0.34835 0.42196 1.05167
 H1860 H 0.34068 0.40887 1.04419
 O1861 O 0.47955 0.57529 1.10428
 O1862 O 0.47956 0.59954 1.12871
 C1863 C 0.47246 0.58258 1.12130
 C1864 C 0.45546 0.57143 1.13228
 C1865 C 0.44850 0.57818 1.15196
 H1866 H 0.45594 0.59131 1.15958
 O1867 O 0.52022 0.42443 1.10428
 O1868 O 0.52024 0.40017 1.12870
 C1869 C 0.52733 0.41714 1.12130
 C1870 C 0.54431 0.42832 1.13229
 C1871 C 0.55118 0.42168 1.15203
 H1872 H 0.54371 0.40859 1.15970
 O1873 O 0.60382 0.47930 1.07571
 O1874 O 0.62821 0.47925 1.10000
 C1875 C 0.62081 0.47216 1.08301
 C1876 C 0.63177 0.45514 1.07184
 C1877 C 0.65141 0.44811 1.07862
 H1878 H 0.65901 0.45551 1.09180
 O1879 O 0.39599 0.52036 1.07578
 O1880 O 0.37160 0.52039 1.10006
 C1881 C 0.37900 0.52749 1.08308
 C1882 C 0.36804 0.54452 1.07191
 C1883 C 0.34840 0.55154 1.07870
 H1884 H 0.34080 0.54414 1.09187
 O1885 O 0.42446 0.60392 1.02070
 O1886 O 0.40021 0.62836 1.02072
 C1887 C 0.41718 0.62093 1.02782
 C1888 C 0.42836 0.63187 1.04484
 C1889 C 0.42167 0.65156 1.05180
 H1890 H 0.40854 0.65922 1.04437
 O1891 O 0.57533 0.39579 1.02060
 O1892 O 0.59956 0.37134 1.02064
 C1893 C 0.58259 0.37878 1.02773
 C1894 C 0.57140 0.36785 1.04476
 C1895 C 0.57808 0.34814 1.05170
 H1896 H 0.59119 0.34047 1.04424
 O1897 O 0.42457 0.52031 1.10436
 O1898 O 0.40033 0.52035 1.12880
 C1899 C 0.41729 0.52743 1.12138
 C1900 C 0.42846 0.54444 1.13233
 C1901 C 0.42175 0.55143 1.15201
 H1902 H 0.40862 0.54402 1.15967
 O1903 O 0.57525 0.47938 1.10429
 O1904 O 0.59948 0.47934 1.12874
 C1905 C 0.58251 0.47227 1.12132
 C1906 C 0.57130 0.45530 1.13229
 C1907 C 0.57793 0.44842 1.15204
 H1908 H 0.59102 0.45589 1.15972
 O1909 O 0.52026 0.39587 1.07568
 O1910 O 0.52027 0.37145 1.09994
 C1911 C 0.52738 0.37886 1.08297
 C1912 C 0.54439 0.36789 1.07178
 C1913 C 0.55131 0.34818 1.07847
 H1914 H 0.54385 0.34054 1.09159
 O1915 O 0.47953 0.60386 1.07569
 O1916 O 0.47954 0.62826 1.09997
 C1917 C 0.47243 0.62087 1.08299
 C1918 C 0.45541 0.63184 1.07183
 C1919 C 0.44847 0.65153 1.07855
 H1920 H 0.45594 0.65917 1.09167
 O1921 O 0.39591 0.57537 1.02069
 O1922 O 0.37151 0.59964 1.02072
 C1923 C 0.37892 0.58267 1.02782
 C1924 C 0.36799 0.57151 1.04487
 C1925 C 0.34835 0.57829 1.05190
 H1926 H 0.34072 0.59144 1.04447
 O1927 O 0.60390 0.42431 1.02059
 O1928 O 0.62830 0.40003 1.02063
 C1929 C 0.62089 0.41701 1.02773
 C1930 C 0.63182 0.42815 1.04478
 C1931 C 0.65146 0.42138 1.05181
 H1932 H 0.65910 0.40823 1.04438
 O1933 O 0.47954 0.42445 1.10427
 O1934 O 0.47949 0.40018 1.12868
 C1935 C 0.47241 0.41716 1.12128
 C1936 C 0.45542 0.42837 1.13225
 C1937 C 0.44849 0.42169 1.15197
 H1938 H 0.45593 0.40856 1.15962
 O1939 O 0.52024 0.57521 1.10422
 O1940 O 0.52030 0.59946 1.12866
 C1941 C 0.52737 0.58247 1.12124
 C1942 C 0.54437 0.57126 1.13220
 C1943 C 0.55128 0.57793 1.15192
 H1944 H 0.54382 0.59104 1.15958
 O1945 O 0.39601 0.47968 1.07573
 O1946 O 0.37161 0.47965 1.10001
 C1947 C 0.37902 0.47257 1.08301
 C1948 C 0.36806 0.45559 1.07180
 C1949 C 0.34836 0.44869 1.07848
 H1950 H 0.34071 0.45615 1.09161
 O1951 O 0.60386 0.51999 1.07568
 O1952 O 0.62826 0.51999 1.09996
 C1953 C 0.62086 0.52708 1.08296
 C1954 C 0.63184 0.54403 1.07174
 C1955 C 0.65161 0.55084 1.07833
 H1956 H 0.65929 0.54332 1.09140
 O1957 O 0.42455 0.39609 1.02054
 O1958 O 0.40029 0.37171 1.02057
 C1959 C 0.41728 0.37909 1.02765
 C1960 C 0.42849 0.36808 1.04461
 C1961 C 0.42189 0.34831 1.05140
 H1962 H 0.40883 0.34066 1.04387
 O1963 O 0.57530 0.60366 1.02066
 O1964 O 0.59957 0.62802 1.02069
 C1965 C 0.58259 0.62065 1.02778
 C1966 C 0.57140 0.63164 1.04477
 C1967 C 0.57806 0.65135 1.05166
 H1968 H 0.59117 0.65898 1.04419
 Cu1969 Cu 0.58712 0.49969 1.08755
 Cu1970 Cu 0.61631 0.49967 1.11680
 Cu1971 Cu 0.41272 0.49999 1.08762
 Cu1972 Cu 0.38352 0.49999 1.11686
 Cu1973 Cu 0.49989 0.58712 1.08753
 Cu1974 Cu 0.49993 0.61631 1.11677
 Cu1975 Cu 0.49990 0.41260 1.08754
 Cu1976 Cu 0.49988 0.38337 1.11675
 C1977 C 0.55439 0.55427 1.12257
 H1978 H 0.54933 0.54921 1.10724
 C1979 C 0.56799 0.56786 1.16176
 C1980 C 0.44542 0.44539 1.12264
 H1981 H 0.45050 0.45046 1.10733
 C1982 C 0.43179 0.43177 1.16181
 C1983 C 0.55441 0.62205 1.05480
 H1984 H 0.54935 0.60674 1.04975
 C1985 C 0.56800 0.66122 1.06835
 C1986 C 0.44542 0.37769 1.05472
 H1987 H 0.45043 0.39304 1.04974
 C1988 C 0.43197 0.33841 1.06807
 C1989 C 0.62218 0.55412 1.05480
 H1990 H 0.60683 0.54914 1.04980
 C1991 C 0.66145 0.56750 1.06823
 C1992 C 0.37768 0.44557 1.05479
 H1993 H 0.39298 0.45063 1.04972
 C1994 C 0.33853 0.43199 1.06842
 C1995 C 0.44546 0.55442 1.12269
 H1996 H 0.45056 0.54930 1.10740
 C1997 C 0.43177 0.56819 1.16180
 C1998 C 0.55435 0.44527 1.12264
 H1999 H 0.54932 0.45031 1.10730
 C2000 C 0.56787 0.43173 1.16188
 C2001 C 0.62220 0.44517 1.05478
 H2002 H 0.60694 0.45032 1.04963
 C2003 C 0.66122 0.43135 1.06862
 C2004 C 0.37760 0.55449 1.05486
 H2005 H 0.39286 0.54935 1.04971
 C2006 C 0.33859 0.56831 1.06870
 C2007 C 0.44537 0.62224 1.05484
 H2008 H 0.45045 0.60694 1.04974
 C2009 C 0.43172 0.66136 1.06854
 C2010 C 0.55442 0.37749 1.05478
 H2011 H 0.54935 0.39280 1.04970
 C2012 C 0.56803 0.33834 1.06843
 O2013 O 0.57527 0.47938 0.89623
 O2014 O 0.59950 0.47937 0.87178
 C2015 C 0.58254 0.47228 0.87920
 C2016 C 0.57137 0.45528 0.86823
 C2017 C 0.57807 0.44833 0.84853
 H2018 H 0.59118 0.45578 0.84087
 O2019 O 0.42458 0.52038 0.89625
 O2020 O 0.40034 0.52043 0.87180
 C2021 C 0.41731 0.52750 0.87922
 C2022 C 0.42849 0.54449 0.86827
 C2023 C 0.42184 0.55141 0.84854
 H2024 H 0.40875 0.54394 0.84086
 O2025 O 0.47954 0.60389 0.92495
 O2026 O 0.47954 0.62830 0.90068
 C2027 C 0.47243 0.62090 0.91766
 C2028 C 0.45543 0.63187 0.92885
 C2029 C 0.44853 0.65159 0.92219
 H2030 H 0.45601 0.65925 0.90909
 O2031 O 0.52027 0.39585 0.92485
 O2032 O 0.52027 0.37146 0.90057
 C2033 C 0.52738 0.37884 0.91755
 C2034 C 0.54439 0.36786 0.92872
 C2035 C 0.55136 0.34820 0.92197
 H2036 H 0.54392 0.34058 0.90882
 O2037 O 0.60392 0.42428 0.97985
 O2038 O 0.62831 0.39999 0.97983
 C2039 C 0.62091 0.41696 0.97272
 C2040 C 0.63183 0.42810 0.95565
 C2041 C 0.65145 0.42131 0.94858
 H2042 H 0.65908 0.40814 0.95597
 O2043 O 0.39591 0.57538 0.97995
 O2044 O 0.37150 0.59965 0.97993
 C2045 C 0.37892 0.58268 0.97282
 C2046 C 0.36797 0.57151 0.95580
 C2047 C 0.34826 0.57817 0.94889
 H2048 H 0.34058 0.59125 0.95638
 O2049 O 0.52023 0.57525 0.89640
 O2050 O 0.52028 0.59950 0.87197
 C2051 C 0.52735 0.58251 0.87938
 C2052 C 0.54432 0.57129 0.86840
 C2053 C 0.55118 0.57792 0.84865
 H2054 H 0.54370 0.59102 0.84099
 O2055 O 0.47961 0.42454 0.89630
 O2056 O 0.47956 0.40031 0.87185
 C2057 C 0.47249 0.41729 0.87928
 C2058 C 0.45553 0.42853 0.86830
 C2059 C 0.44869 0.42193 0.84853
 H2060 H 0.45618 0.40884 0.84086
 O2061 O 0.60385 0.52000 0.92486
 O2062 O 0.62824 0.52004 0.90057
 C2063 C 0.62085 0.52711 0.91757
 C2064 C 0.63181 0.54407 0.92879
 C2065 C 0.65155 0.55092 0.92217
 H2066 H 0.65923 0.54343 0.90908
 O2067 O 0.39600 0.47973 0.92482
 O2068 O 0.37161 0.47972 0.90052
 C2069 C 0.37901 0.47263 0.91752
 C2070 C 0.36803 0.45566 0.92871
 C2071 C 0.34834 0.44877 0.92201
 H2072 H 0.34070 0.45624 0.90888
 O2073 O 0.57530 0.60369 0.97994
 O2074 O 0.59957 0.62805 0.97992
 C2075 C 0.58259 0.62069 0.97284
 C2076 C 0.57138 0.63169 0.95587
 C2077 C 0.57800 0.65144 0.94903
 H2078 H 0.59109 0.65908 0.95653
 O2079 O 0.42450 0.39609 0.97982
 O2080 O 0.40022 0.37173 0.97980
 C2081 C 0.41720 0.37911 0.97270
 C2082 C 0.42835 0.36813 0.95568
 C2083 C 0.42159 0.34848 0.94870
 H2084 H 0.40844 0.34089 0.95613
 O2085 O 0.42459 0.47969 0.89625
 O2086 O 0.40036 0.47969 0.87180
 C2087 C 0.41733 0.47258 0.87923
 C2088 C 0.42854 0.45558 0.86827
 C2089 C 0.42194 0.44872 0.84850
 H2090 H 0.40887 0.45623 0.84080
 O2091 O 0.57524 0.52008 0.89631
 O2092 O 0.59947 0.52012 0.87186
 C2093 C 0.58250 0.52721 0.87930
 C2094 C 0.57130 0.54423 0.86835
 C2095 C 0.57792 0.55111 0.84860
 H2096 H 0.59099 0.54361 0.84090
 O2097 O 0.47958 0.39590 0.92482
 O2098 O 0.47951 0.37151 0.90053
 C2099 C 0.47243 0.37893 0.91751
 C2100 C 0.45539 0.36803 0.92868
 C2101 C 0.44838 0.34838 0.92194
 H2102 H 0.45581 0.34072 0.90881
 O2103 O 0.52023 0.60386 0.92494
 O2104 O 0.52028 0.62828 0.90067
 C2105 C 0.52736 0.62085 0.91766
 C2106 C 0.54435 0.63178 0.92887
 C2107 C 0.55121 0.65152 0.92227
 H2108 H 0.54371 0.65923 0.90920
 O2109 O 0.39595 0.42470 0.97986
 O2110 O 0.37153 0.40049 0.97984
 C2111 C 0.37894 0.41745 0.97275
 C2112 C 0.36800 0.42865 0.95574
 C2113 C 0.34830 0.42201 0.94880
 H2114 H 0.34063 0.40891 0.95625
 O2115 O 0.60383 0.57505 0.97992
 O2116 O 0.62826 0.59926 0.97990
 C2117 C 0.62084 0.58230 0.97281
 C2118 C 0.63180 0.57108 0.95582
 C2119 C 0.65154 0.57768 0.94896
 H2120 H 0.65921 0.59076 0.95645
 O2121 O 0.52029 0.42440 0.89624
 O2122 O 0.52029 0.40016 0.87180
 C2123 C 0.52740 0.41711 0.87921
 C2124 C 0.54439 0.42828 0.86824
 C2125 C 0.55134 0.42157 0.84854
 H2126 H 0.54390 0.40845 0.84090
 O2127 O 0.47955 0.57537 0.89631
 O2128 O 0.47955 0.59962 0.87189
 C2129 C 0.47245 0.58266 0.87929
 C2130 C 0.45547 0.57149 0.86830
 C2131 C 0.44857 0.57817 0.84858
 H2132 H 0.45603 0.59127 0.84092
 O2133 O 0.39600 0.52041 0.92482
 O2134 O 0.37160 0.52046 0.90053
 C2135 C 0.37899 0.52754 0.91752
 C2136 C 0.36802 0.54453 0.92873
 C2137 C 0.34830 0.55144 0.92207
 H2138 H 0.34065 0.54399 0.90895
 O2139 O 0.60383 0.47931 0.92482
 O2140 O 0.62821 0.47929 0.90052
 C2141 C 0.62082 0.47218 0.91750
 C2142 C 0.63177 0.45513 0.92863
 C2143 C 0.65139 0.44809 0.92181
 H2144 H 0.65897 0.45550 0.90863
 O2145 O 0.57533 0.39577 0.97988
 O2146 O 0.59956 0.37133 0.97985
 C2147 C 0.58260 0.37876 0.97275
 C2148 C 0.57141 0.36782 0.95573
 C2149 C 0.57814 0.34816 0.94873
 H2150 H 0.59129 0.34051 0.95615
 O2151 O 0.42448 0.60391 0.97998
 O2152 O 0.40023 0.62834 0.97994
 C2153 C 0.41721 0.62092 0.97286
 C2154 C 0.42840 0.63188 0.95586
 C2155 C 0.42174 0.65160 0.94895
 H2156 H 0.40864 0.65926 0.95642
 Cu2157 Cu 0.58712 0.49969 0.91299
 Cu2158 Cu 0.61630 0.49971 0.88373
 Cu2159 Cu 0.41272 0.50005 0.91296
 Cu2160 Cu 0.38354 0.50008 0.88371
 Cu2161 Cu 0.58713 0.58694 1.00029
 Cu2162 Cu 0.61637 0.61609 1.00030
 Cu2163 Cu 0.58719 0.41247 1.00023
 Cu2164 Cu 0.61638 0.38322 1.00024
 Cu2165 Cu 0.41262 0.58721 1.00033
 Cu2166 Cu 0.38341 0.61644 1.00033
 Cu2167 Cu 0.41268 0.41282 1.00020
 Cu2168 Cu 0.38345 0.38366 1.00021
 Cu2169 Cu 0.49988 0.58716 0.91308
 Cu2170 Cu 0.49992 0.61638 0.88386
 Cu2171 Cu 0.49994 0.41260 0.91299
 Cu2172 Cu 0.49991 0.38341 0.88374
 C2173 C 0.55439 0.44527 0.87786
 H2174 H 0.54930 0.45036 0.89316
 C2175 C 0.56806 0.43159 0.83871
 C2176 C 0.44545 0.55451 0.87792
 H2177 H 0.45050 0.54945 0.89325
 C2178 C 0.43188 0.56812 0.83872
 C2179 C 0.44539 0.62224 0.94583
 H2180 H 0.45044 0.60693 0.95089
 C2181 C 0.43181 0.66143 0.93224
 C2182 C 0.55440 0.37745 0.94575
 H2183 H 0.54929 0.39273 0.95087
 C2184 C 0.56812 0.33838 0.93197
 C2185 C 0.62222 0.44515 0.94570
 H2186 H 0.60698 0.45031 0.95087
 C2187 C 0.66119 0.43130 0.93177
 C2188 C 0.37763 0.55455 0.94573
 H2189 H 0.39295 0.54949 0.95079
 C2190 C 0.33845 0.56814 0.93215
 C2191 C 0.55436 0.55430 0.87803
 H2192 H 0.54934 0.54926 0.89337
 C2193 C 0.56785 0.56783 0.83878
 C2194 C 0.44547 0.44550 0.87794
 H2195 H 0.45048 0.45051 0.89330
 C2196 C 0.43202 0.43202 0.83866
 C2197 C 0.62216 0.55413 0.94576
 H2198 H 0.60683 0.54912 0.95078
 C2199 C 0.66138 0.56760 0.93226
 C2200 C 0.37764 0.44562 0.94571
 H2201 H 0.39294 0.45066 0.95079
 C2202 C 0.33850 0.43207 0.93205
 C2203 C 0.55442 0.62209 0.94581
 H2204 H 0.54939 0.60675 0.95081
 C2205 C 0.56791 0.66132 0.93235
 C2206 C 0.44539 0.37767 0.94569
 H2207 H 0.45053 0.39294 0.95080
 C2208 C 0.43160 0.33864 0.93195
 C2209 C 1.11982 1.11911 1.29150
 C2210 C 1.11289 1.11229 1.27538
 C2211 C 1.10475 1.10429 1.25603
 C2212 C 1.08748 1.11385 1.24661
 C2213 C 1.07982 1.10632 1.22760
 C2214 C 1.08940 1.08921 1.21793
 C2215 C 1.10661 1.07958 1.22740
 C2216 C 1.11427 1.08711 1.24641
 C2217 C 1.08180 1.08173 1.19816
 C2218 C 1.07556 1.07555 1.18151
 H2219 H 1.08002 1.12716 1.25390
 H2220 H 1.06653 1.11390 1.22040
 H2221 H 1.11416 1.06636 1.22004
 H2222 H 1.12765 1.07962 1.25354
 C2223 C 1.11943 0.61850 0.79162
 C2224 C 1.11255 0.61166 0.77550
 C2225 C 1.10444 0.60367 0.75614
 C2226 C 1.08792 0.61392 0.74613
 C2227 C 1.08030 0.60641 0.72710
 C2228 C 1.08917 0.58861 0.71800
 C2229 C 1.10562 0.57830 0.72806
 C2230 C 1.11324 0.58581 0.74709
 C2231 C 1.08164 0.58116 0.69820
 C2232 C 1.07545 0.57501 0.68153
 H2233 H 1.08102 0.62776 0.75297
 H2234 H 1.06760 0.61453 0.71943
 H2235 H 1.11262 0.56454 0.72114
 H2236 H 1.12605 0.57778 0.75468
 C2237 C 0.62057 1.11967 0.79077
 C2238 C 0.61364 1.11276 0.77470
 C2239 C 0.60548 1.10463 0.75541
 C2240 C 0.58540 1.11021 0.74877
 C2241 C 0.57763 1.10260 0.72984
 C2242 C 0.58990 1.08938 0.71746
 C2243 C 0.60994 1.08373 0.72414
 C2244 C 0.61771 1.09134 0.74307
 C2245 C 0.58207 1.08184 0.69780
 C2246 C 0.57567 1.07561 0.68123
 H2247 H 0.57582 1.12050 0.75818
 H2248 H 0.56212 1.10709 0.72481
 H2249 H 0.61957 1.07355 0.71468
 H2250 H 0.63326 1.08695 0.74804
 C2251 C 0.61892 0.61878 1.29191
 C2252 C 0.61207 0.61202 1.27574
 C2253 C 0.60400 0.60411 1.25633
 C2254 C 0.60798 0.58344 1.25039
 C2255 C 0.60043 0.57589 1.23134
 C2256 C 0.58887 0.58898 1.21816
 C2257 C 0.58482 0.60962 1.22415
 C2258 C 0.59237 0.61716 1.24319
 C2259 C 0.58140 0.58136 1.19839
 C2260 C 0.57524 0.57513 1.18174
 H2261 H 0.61699 0.57322 1.26042
 H2262 H 0.60367 0.55992 1.22685
 H2263 H 0.57592 0.61988 1.21406
 H2264 H 0.58923 0.63318 1.24762
 C2265 C 0.88077 0.88075 1.29147
 C2266 C 0.88765 0.88765 1.27537
 C2267 C 0.89573 0.89576 1.25604
 C2268 C 0.91319 0.88648 1.24670
 C2269 C 0.92079 0.89410 1.22770
 C2270 C 0.91095 0.91104 1.21797
 C2271 C 0.89355 0.92038 1.22736
 C2272 C 0.88595 0.91276 1.24635
 C2273 C 0.91850 0.91860 1.19821
 C2274 C 0.92470 0.92482 1.18157
 H2275 H 0.92085 0.87330 1.25404
 H2276 H 0.93423 0.88674 1.22056
 H2277 H 0.88580 0.93347 1.21994
 H2278 H 0.87242 0.92003 1.25342
 C2279 C 0.87970 0.38060 0.79117
 C2280 C 0.88668 0.38746 0.77509
 C2281 C 0.89493 0.39548 0.75580
 C2282 C 0.88556 0.41276 0.74620
 C2283 C 0.89334 0.42031 0.72725
 C2284 C 0.91053 0.41062 0.71782
 C2285 C 0.91996 0.39340 0.72746
 C2286 C 0.91218 0.38585 0.74641
 C2287 C 0.91827 0.41813 0.69811
 C2288 C 0.92461 0.42434 0.68151
 H2289 H 0.87220 0.42031 0.75331
 H2290 H 0.88591 0.43362 0.71991
 H2291 H 0.93323 0.38576 0.72028
 H2292 H 0.91952 0.37246 0.75367
 C2293 C 0.38062 0.88144 0.79155
 C2294 C 0.38748 0.88825 0.77541
 C2295 C 0.39556 0.89623 0.75603
 C2296 C 0.41272 0.88658 0.74651
 C2297 C 0.42031 0.89408 0.72746
 C2298 C 0.41076 0.91125 0.71785
 C2299 C 0.39366 0.92096 0.72742
 C2300 C 0.38607 0.91347 0.74648
 C2301 C 0.41829 0.91869 0.69804
 C2302 C 0.42447 0.92481 0.68136
 H2303 H 0.42014 0.87322 0.75375
 H2304 H 0.43351 0.88643 0.72018
 H2305 H 0.38614 0.93423 0.72011
 H2306 H 0.37277 0.92102 0.75368
 C2307 C 0.38030 0.38102 1.29182
 C2308 C 0.38720 0.38784 1.27569
 C2309 C 0.39533 0.39583 1.25633
 C2310 C 0.41262 0.38629 1.24694
 C2311 C 0.42028 0.39381 1.22792
 C2312 C 0.41066 0.41089 1.21821
 C2313 C 0.39343 0.42049 1.22765
 C2314 C 0.38578 0.41298 1.24667
 C2315 C 0.41827 0.41836 1.19844
 C2316 C 0.42451 0.42452 1.18179
 H2317 H 0.42011 0.37301 1.25425
 H2318 H 0.43359 0.38625 1.22074
 H2319 H 0.38586 0.43368 1.22026
 H2320 H 0.37237 0.42045 1.25378
 C2321 C 0.88051 1.11941 0.70857
 C2322 C 0.88741 1.11260 0.72471
 C2323 C 0.89556 1.10464 0.74408
 C2324 C 0.88989 1.08470 0.75101
 C2325 C 0.89753 1.07714 0.77003
 C2326 C 0.91086 1.08948 0.78218
 C2327 C 0.91661 1.10938 0.77519
 C2328 C 0.90897 1.11694 0.75618
 C2329 C 0.91840 1.08189 0.80194
 C2330 C 0.92460 1.07566 0.81858
 H2331 H 0.87951 1.07507 0.74179
 H2332 H 0.89296 1.06175 0.77530
 H2333 H 0.92688 1.11907 0.78448
 H2334 H 0.91344 1.13239 0.75098
 C2335 C 0.88215 0.61797 0.20770
 C2336 C 0.88898 0.61117 0.22387
 C2337 C 0.89698 0.60321 0.24329
 C2338 C 0.88909 0.58460 0.25161
 C2339 C 0.89655 0.57712 0.27072
 C2340 C 0.91193 0.58821 0.28158
 C2341 C 0.91990 0.60676 0.27321
 C2342 C 0.91244 0.61425 0.25410
 C2343 C 0.91929 0.58077 0.30146
 C2344 C 0.92535 0.57467 0.31820
 H2345 H 0.87711 0.57597 0.24339
 H2346 H 0.89027 0.56278 0.27707
 H2347 H 0.93177 0.61548 0.28150
 H2348 H 0.91862 0.62867 0.24783
 C2349 C 0.38120 1.11800 0.20752
 C2350 C 0.38806 1.11130 0.22372
 C2351 C 0.39615 1.10349 0.24317
 C2352 C 0.40973 1.11579 0.25509
 C2353 C 0.41728 1.10841 0.27420
 C2354 C 0.41128 1.08869 0.28147
 C2355 C 0.39778 1.07634 0.26951
 C2356 C 0.39023 1.08373 0.25039
 C2357 C 0.41871 1.08129 0.30134
 C2358 C 0.42482 1.07520 0.31807
 H2359 H 0.41438 1.13111 0.24966
 H2360 H 0.42768 1.11809 0.28334
 H2361 H 0.39302 1.06109 0.27501
 H2362 H 0.37971 1.07410 0.24132
 C2363 C 0.38055 0.61881 0.70862
 C2364 C 0.38745 0.61201 0.72475
 C2365 C 0.39559 0.60404 0.74412
 C2366 C 0.38723 0.58584 0.75287
 C2367 C 0.39486 0.57834 0.77191
 C2368 C 0.41088 0.58901 0.78227
 C2369 C 0.41930 0.60715 0.77347
 C2370 C 0.41167 0.61465 0.75443
 C2371 C 0.41843 0.58153 0.80206
 C2372 C 0.42464 0.57537 0.81872
 H2373 H 0.37476 0.57754 0.74505
 H2374 H 0.38821 0.56431 0.77859
 H2375 H 0.43167 0.61554 0.78137
 H2376 H 0.41822 0.62876 0.74782
 C2377 C 1.11789 0.88208 0.70769
 C2378 C 1.11114 0.88885 0.72390
 C2379 C 1.10322 0.89679 0.74337
 C2380 C 1.08606 0.88722 0.75293
 C2381 C 1.07863 0.89465 0.77207
 C2382 C 1.08833 0.91169 0.78172
 C2383 C 1.10543 0.92133 0.77211
 C2384 C 1.11286 0.91389 0.75297
 C2385 C 1.08095 0.91908 0.80161
 C2386 C 1.07489 0.92516 0.81836
 H2387 H 1.07851 0.87396 0.74566
 H2388 H 1.06542 0.88707 0.77938
 H2389 H 1.11307 0.93449 0.77946
 H2390 H 1.12617 0.92138 0.74573
 C2391 C 1.11879 0.38193 0.20773
 C2392 C 1.11195 0.38867 0.22392
 C2393 C 1.10392 0.39656 0.24336
 C2394 C 1.11321 0.41394 0.25281
 C2395 C 1.10568 0.42134 0.27193
 C2396 C 1.08883 0.41139 0.28166
 C2397 C 1.07947 0.39408 0.27216
 C2398 C 1.08700 0.38668 0.25304
 C2399 C 1.08137 0.41873 0.30154
 C2400 C 1.07525 0.42478 0.31827
 H2401 H 1.12632 0.42168 0.24547
 H2402 H 1.11305 0.43472 0.27916
 H2403 H 1.06646 0.38625 0.27957
 H2404 H 1.07973 0.37321 0.24588
 C2405 C 0.61877 0.88094 0.20802
 C2406 C 0.61189 0.88780 0.22415
 C2407 C 0.60383 0.89586 0.24351
 C2408 C 0.58671 0.88626 0.25311
 C2409 C 0.57916 0.89382 0.27215
 C2410 C 0.58870 0.91102 0.28168
 C2411 C 0.60576 0.92069 0.27203
 C2412 C 0.61331 0.91313 0.25299
 C2413 C 0.58121 0.91853 0.30148
 C2414 C 0.57505 0.92470 0.31815
 H2415 H 0.57928 0.87288 0.24593
 H2416 H 0.56598 0.88621 0.27949
 H2417 H 0.61328 0.93398 0.27928
 H2418 H 0.62659 0.92065 0.24572
 C2419 C 0.61961 0.38030 0.70891
 C2420 C 0.61271 0.38717 0.72502
 C2421 C 0.60458 0.39525 0.74434
 C2422 C 0.61402 0.41253 0.75384
 C2423 C 0.60636 0.42013 0.77283
 C2424 C 0.58923 0.41050 0.78239
 C2425 C 0.57974 0.39328 0.77285
 C2426 C 0.58740 0.38567 0.75386
 C2427 C 0.58162 0.41806 0.80213
 C2428 C 0.57537 0.42429 0.81876
 H2429 H 0.62733 0.42003 0.74663
 H2430 H 0.61384 0.43343 0.78009
 H2431 H 0.56651 0.38568 0.78013
 H2432 H 0.58001 0.37228 0.74667
 C2433 C 1.29201 1.11855 1.11822
 C2434 C 1.27582 1.11177 1.11147
 C2435 C 1.25639 1.10379 1.10357
 C2436 C 1.24693 1.11314 1.08620
 C2437 C 1.22784 1.10563 1.07877
 C2438 C 1.21813 1.08874 1.08868
 C2439 C 1.22764 1.07933 1.10599
 C2440 C 1.24673 1.08683 1.11342
 C2441 C 1.19830 1.08129 1.08129
 C2442 C 1.18160 1.07516 1.07520
 H2443 H 1.25425 1.12628 1.07849
 H2444 H 1.22061 1.11305 1.06540
 H2445 H 1.22025 1.06628 1.11378
 H2446 H 1.25389 1.07950 1.12688
 C2447 C 1.29150 0.61920 0.61916
 C2448 C 1.27539 0.61232 0.61232
 C2449 C 1.25606 0.60422 0.60430
 C2450 C 1.24659 0.61360 0.58695
 C2451 C 1.22760 0.60597 0.57939
 C2452 C 1.21800 0.58894 0.58916
 C2453 C 1.22751 0.57950 0.60645
 C2454 C 1.24651 0.58712 0.61400
 C2455 C 1.19825 0.58136 0.58165
 C2456 C 1.18162 0.57514 0.57545
 H2457 H 1.25383 0.62684 0.57935
 H2458 H 1.22036 0.61341 0.56603
 H2459 H 1.22020 0.56634 0.61413
 H2460 H 1.25368 0.57977 0.62744
 C2461 C 0.79101 1.11884 0.61953
 C2462 C 0.77490 1.11199 0.61264
 C2463 C 0.75558 1.10396 0.60453
 C2464 C 0.74632 1.11324 0.58702
 C2465 C 0.72733 1.10568 0.57938
 C2466 C 0.71752 1.08882 0.58922
 C2467 C 0.72683 1.07947 0.60668
 C2468 C 0.74581 1.08703 0.61432
 C2469 C 0.69778 1.08132 0.58163
 C2470 C 0.68115 1.07515 0.57538
 H2471 H 0.75372 1.12636 0.57935
 H2472 H 0.72026 1.11304 0.56589
 H2473 H 0.71936 1.06644 0.61443
 H2474 H 0.75282 1.07976 0.62790
 C2475 C 0.79198 0.61817 1.11802
 C2476 C 0.77580 0.61136 1.11131
 C2477 C 0.75636 0.60334 1.10346
 C2478 C 0.74687 0.61263 1.08609
 C2479 C 0.72776 0.60509 1.07872
 C2480 C 0.71808 0.58823 1.08871
 C2481 C 0.72763 0.57887 1.10602
 C2482 C 0.74673 0.58641 1.11339
 C2483 C 0.69823 0.58076 1.08139
 C2484 C 0.68151 0.57464 1.07535
 H2485 H 0.75416 0.62575 1.07832
 H2486 H 0.72050 0.61246 1.06534
 H2487 H 0.72026 0.56585 1.11388
 H2488 H 0.75392 0.57913 1.12686
 C2489 C 1.29135 0.88076 0.88073
 C2490 C 1.27514 0.88757 0.88745
 C2491 C 1.25569 0.89561 0.89528
 C2492 C 1.25173 0.89582 0.91680
 C2493 C 1.23270 0.90340 0.92435
 C2494 C 1.21755 0.91080 0.91040
 C2495 C 1.22154 0.91064 0.88889
 C2496 C 1.24057 0.90306 0.88135
 C2497 C 1.19785 0.91834 0.91810
 C2498 C 1.18125 0.92457 0.92439
 H2499 H 1.26331 0.89007 0.92771
 H2500 H 1.22976 0.90343 0.94101
 H2501 H 1.20993 0.91629 0.87797
 H2502 H 1.24345 0.90294 0.86468
 C2503 C 1.29170 0.38103 0.38032
 C2504 C 1.27557 0.38785 0.38720
 C2505 C 1.25620 0.39583 0.39531
 C2506 C 1.24785 0.38763 0.41379
 C2507 C 1.22882 0.39511 0.42145
 C2508 C 1.21807 0.41081 0.41067
 C2509 C 1.22647 0.41907 0.39224
 C2510 C 1.24550 0.41160 0.38458
 C2511 C 1.19830 0.41821 0.41831
 C2512 C 1.18165 0.42434 0.42456
 H2513 H 1.25598 0.37541 0.42219
 H2514 H 1.22245 0.38858 0.43569
 H2515 H 1.21827 0.43119 0.38376
 H2516 H 1.25180 0.41802 0.37026
 C2517 C 0.79120 0.88099 0.38040
 C2518 C 0.77507 0.88781 0.38728
 C2519 C 0.75571 0.89581 0.39538
 C2520 C 0.74617 0.91307 0.38591
 C2521 C 0.72714 0.92059 0.39353
 C2522 C 0.71758 0.91089 0.41064
 C2523 C 0.72717 0.89369 0.42016
 C2524 C 0.74620 0.88617 0.41255
 C2525 C 0.69781 0.91837 0.41819
 C2526 C 0.68115 0.92453 0.42440
 H2527 H 0.75337 0.92062 0.37261
 H2528 H 0.71985 0.93388 0.38603
 H2529 H 0.71990 0.88606 0.43337
 H2530 H 0.75342 0.87280 0.41996
 C2531 C 0.79075 0.38036 0.87936
 C2532 C 0.77461 0.38718 0.88622
 C2533 C 0.75523 0.39518 0.89429
 C2534 C 0.75166 0.39565 0.91587
 C2535 C 0.73269 0.40316 0.92366
 C2536 C 0.71722 0.41021 0.90989
 C2537 C 0.72083 0.40980 0.88832
 C2538 C 0.73979 0.40230 0.88053
 C2539 C 0.69759 0.41770 0.91783
 C2540 C 0.68105 0.42393 0.92430
 H2541 H 0.76348 0.39016 0.92664
 H2542 H 0.73005 0.40339 0.94037
 H2543 H 0.70897 0.41520 0.87753
 H2544 H 0.74238 0.40199 0.86382
 C2545 C 0.70873 0.88116 1.11955
 C2546 C 0.72491 0.88799 1.11283
 C2547 C 0.74434 0.89603 1.10498
 C2548 C 0.74802 0.89684 1.08343
 C2549 C 0.76704 0.90441 1.07586
 C2550 C 0.78243 0.91121 1.08982
 C2551 C 0.77872 0.91047 1.11136
 C2552 C 0.75971 0.90290 1.11893
 C2553 C 0.80212 0.91872 1.08210
 C2554 C 0.81871 0.92492 1.07579
 H2555 H 0.73625 0.89155 1.07251
 H2556 H 0.76977 0.90490 1.05917
 H2557 H 0.79052 0.91566 1.12229
 H2558 H 0.75704 0.90232 1.13562
 C2559 C 0.70908 0.38078 0.61986
 C2560 C 0.72517 0.38764 0.61296
 C2561 C 0.74449 0.39570 0.60485
 C2562 C 0.75281 0.38766 0.58628
 C2563 C 0.77179 0.39521 0.57862
 C2564 C 0.78253 0.41082 0.58951
 C2565 C 0.77417 0.41893 0.60803
 C2566 C 0.75519 0.41138 0.61568
 C2567 C 0.80227 0.41830 0.58186
 C2568 C 0.81889 0.42447 0.57560
 H2569 H 0.74468 0.37550 0.57780
 H2570 H 0.77813 0.38880 0.56431
 H2571 H 0.78237 0.43098 0.61658
 H2572 H 0.74892 0.41768 0.63008
 C2573 C 0.20789 0.88174 0.61782
 C2574 C 0.22410 0.88843 0.61105
 C2575 C 0.24357 0.89625 0.60310
 C2576 C 0.25760 0.88267 0.59324
 C2577 C 0.27669 0.89016 0.58582
 C2578 C 0.28184 0.91126 0.58822
 C2579 C 0.26778 0.92486 0.59800
 C2580 C 0.24868 0.91737 0.60543
 C2581 C 0.30164 0.91885 0.58089
 C2582 C 0.31833 0.92505 0.57482
 H2583 H 0.25382 0.86630 0.59138
 H2584 H 0.28746 0.87950 0.57830
 H2585 H 0.27162 0.94120 0.59997
 H2586 H 0.23796 0.92800 0.61306
 C2587 C 0.20816 0.38132 1.11869
 C2588 C 0.22441 0.38808 1.11207
 C2589 C 0.24393 0.39605 1.10437
 C2590 C 0.25935 0.40254 1.11844
 C2591 C 0.27843 0.41005 1.11101
 C2592 C 0.28217 0.41112 1.08949
 C2593 C 0.26673 0.40469 1.07541
 C2594 C 0.24764 0.39717 1.08283
 C2595 C 0.30193 0.41859 1.08190
 C2596 C 0.31856 0.42476 1.07568
 H2597 H 0.25666 0.40171 1.13512
 H2598 H 0.29028 0.41495 1.12203
 H2599 H 0.26947 0.40543 1.05873
 H2600 H 0.23582 0.39218 1.07182
 C2601 C 0.70913 1.11980 0.87936
 C2602 C 0.72520 1.11293 0.88635
 C2603 C 0.74448 1.10489 0.89460
 C2604 C 0.75451 1.08816 0.88471
 C2605 C 0.77344 1.08059 0.89252
 C2606 C 0.78241 1.08972 0.91025
 C2607 C 0.77234 1.10639 0.92020
 C2608 C 0.75341 1.11396 0.91239
 C2609 C 0.80209 1.08219 0.91803
 C2610 C 0.81867 1.07597 0.92440
 H2611 H 0.74776 1.08106 0.87093
 H2612 H 0.78112 1.06772 0.88469
 H2613 H 0.77916 1.11358 0.93390
 H2614 H 0.74580 1.12693 0.92014
 C2615 C 0.70847 0.61833 0.38087
 C2616 C 0.72463 0.61153 0.38769
 C2617 C 0.74403 0.60356 0.39572
 C2618 C 0.75336 0.61294 0.41313
 C2619 C 0.77242 0.60545 0.42069
 C2620 C 0.78222 0.58854 0.41086
 C2621 C 0.77284 0.57910 0.39352
 C2622 C 0.75378 0.58659 0.38596
 C2623 C 0.80203 0.58110 0.41838
 C2624 C 0.81872 0.57497 0.42455
 H2625 H 0.74597 0.62609 0.42077
 H2626 H 0.77956 0.61289 0.43409
 H2627 H 0.78030 0.56604 0.38578
 H2628 H 0.74672 0.57924 0.37247
 C2629 C 0.20853 1.11896 0.37991
 C2630 C 0.22466 1.11215 0.38682
 C2631 C 0.24402 1.10422 0.39499
 C2632 C 0.25266 1.08585 0.38686
 C2633 C 0.27168 1.07837 0.39456
 C2634 C 0.28212 1.08923 0.41041
 C2635 C 0.27342 1.10754 0.41860
 C2636 C 0.25441 1.11502 0.41091
 C2637 C 0.30187 1.08176 0.41804
 C2638 C 0.31851 1.07560 0.42430
 H2639 H 0.24477 1.07739 0.37453
 H2640 H 0.27828 1.06420 0.38809
 H2641 H 0.28138 1.11608 0.43083
 H2642 H 0.24788 1.12926 0.41728
 C2643 C 0.20837 0.61917 0.88119
 C2644 C 0.22451 0.61233 0.88804
 C2645 C 0.24388 0.60428 0.89608
 C2646 C 0.25360 0.58732 0.88627
 C2647 C 0.27263 0.57975 0.89382
 C2648 C 0.28201 0.58909 0.91123
 C2649 C 0.27224 0.60599 0.92110
 C2650 C 0.25321 0.61357 0.91354
 C2651 C 0.30179 0.58157 0.91873
 C2652 C 0.31845 0.57538 0.92491
 H2653 H 0.24654 0.58005 0.87274
 H2654 H 0.28007 0.56670 0.88605
 H2655 H 0.27938 0.61335 0.93454
 H2656 H 0.24585 0.62671 0.92123
 C2657 C 1.11896 1.29216 1.11769
 C2658 C 1.11212 1.27599 1.11095
 C2659 C 1.10405 1.25658 1.10311
 C2660 C 1.08728 1.24685 1.11321
 C2661 C 1.07970 1.22776 1.10586
 C2662 C 1.08886 1.21831 1.08839
 C2663 C 1.10556 1.22808 1.07823
 C2664 C 1.11314 1.24718 1.08557
 C2665 C 1.08135 1.19846 1.08110
 C2666 C 1.07519 1.18175 1.07508
 H2667 H 1.08016 1.25396 1.12680
 H2668 H 1.06680 1.22032 1.11386
 H2669 H 1.11278 1.22090 1.06472
 H2670 H 1.12613 1.25455 1.07767
 C2671 C 1.11790 0.79203 0.61787
 C2672 C 1.11115 0.77582 0.61114
 C2673 C 1.10324 0.75636 0.60323
 C2674 C 1.08664 0.74638 0.61336
 C2675 C 1.07925 0.72725 0.60593
 C2676 C 1.08842 0.71801 0.58835
 C2677 C 1.10495 0.72804 0.57816
 C2678 C 1.11235 0.74718 0.58558
 C2679 C 1.08110 0.69812 0.58097
 C2680 C 1.07508 0.68138 0.57491
 H2681 H 1.07951 0.75333 0.62703
 H2682 H 1.06648 0.71961 0.61395
 H2683 H 1.11218 0.72102 0.56457
 H2684 H 1.12521 0.75475 0.57766
 C2685 C 0.61917 1.29094 0.61976
 C2686 C 0.61228 1.27487 0.61283
 C2687 C 0.60419 1.25558 0.60468
 C2688 C 0.58764 1.24553 0.61481
 C2689 C 0.58005 1.22657 0.60714
 C2690 C 0.58897 1.21759 0.58930
 C2691 C 0.60546 1.22769 0.57911
 C2692 C 0.61305 1.24665 0.58678
 C2693 C 0.58145 1.19786 0.58167
 C2694 C 0.57525 1.18125 0.57541
 H2695 H 0.58070 1.25228 0.62868
 H2696 H 0.56732 1.21887 0.61516
 H2697 H 0.61249 1.22086 0.56533
 H2698 H 0.62587 1.25428 0.57885
 C2699 C 0.61884 0.79130 1.11917
 C2700 C 0.61207 0.77515 1.11232
 C2701 C 0.60413 0.75577 1.10426
 C2702 C 0.61628 0.74380 1.09056
 C2703 C 0.60874 0.72477 1.08303
 C2704 C 0.58903 0.71762 1.08915
 C2705 C 0.57683 0.72963 1.10278
 C2706 C 0.58437 0.74866 1.11031
 C2707 C 0.58146 0.69785 1.08171
 C2708 C 0.57525 0.68120 1.07557
 H2709 H 0.63160 0.74913 1.08581
 H2710 H 0.61832 0.71559 1.07253
 H2711 H 0.56157 0.72422 1.10764
 H2712 H 0.57485 0.75778 1.12092
 C2713 C 0.88013 1.29126 0.88029
 C2714 C 0.88707 1.27520 0.88723
 C2715 C 0.89523 1.25592 0.89536
 C2716 C 0.88630 1.24688 0.91316
 C2717 C 0.89396 1.22792 0.92082
 C2718 C 0.91059 1.21794 0.91071
 C2719 C 0.91959 1.22703 0.89298
 C2720 C 0.91193 1.24598 0.88532
 C2721 C 0.91818 1.19822 0.91832
 C2722 C 0.92443 1.18161 0.92457
 H2723 H 0.87336 1.25441 0.92103
 H2724 H 0.88687 1.22101 0.93452
 H2725 H 0.93243 1.21942 0.88502
 H2726 H 0.91893 1.25282 0.87153
 C2727 C 0.88122 0.79111 0.38035
 C2728 C 0.88807 0.77498 0.38720
 C2729 C 0.89611 0.75562 0.39525
 C2730 C 0.91060 0.74410 0.38361
 C2731 C 0.91812 0.72508 0.39124
 C2732 C 0.91117 0.71750 0.41054
 C2733 C 0.89675 0.72906 0.42223
 C2734 C 0.88923 0.74808 0.41460
 C2735 C 0.91862 0.69773 0.41818
 C2736 C 0.92477 0.68109 0.42443
 H2737 H 0.91600 0.74977 0.36862
 H2738 H 0.92925 0.71625 0.38206
 H2739 H 0.89125 0.72332 0.43716
 H2740 H 0.87800 0.75685 0.42372
 C2741 C 0.38073 1.29161 0.38085
 C2742 C 0.38760 1.27548 0.38769
 C2743 C 0.39568 1.25612 0.39571
 C2744 C 0.41231 1.24616 0.38559
 C2745 C 0.41990 1.22713 0.39314
 C2746 C 0.41088 1.21799 0.41084
 C2747 C 0.39431 1.22800 0.42102
 C2748 C 0.38672 1.24703 0.41347
 C2749 C 0.41840 1.19821 0.41835
 C2750 C 0.42459 1.18155 0.42452
 H2751 H 0.41932 1.25303 0.37182
 H2752 H 0.43269 1.21951 0.38513
 H2753 H 0.38720 1.22105 0.43470
 H2754 H 0.37383 1.25458 0.42139
 C2755 C 0.38067 0.79156 0.88155
 C2756 C 0.38755 0.77543 0.88837
 C2757 C 0.39565 0.75606 0.89636
 C2758 C 0.41228 0.74613 0.88621
 C2759 C 0.41988 0.72708 0.89372
 C2760 C 0.41086 0.71790 0.91140
 C2761 C 0.39429 0.72788 0.92160
 C2762 C 0.38670 0.74693 0.91410
 C2763 C 0.41839 0.69810 0.91887
 C2764 C 0.42457 0.68143 0.92502
 H2765 H 0.41929 0.75304 0.87246
 H2766 H 0.43267 0.71948 0.88569
 H2767 H 0.38719 0.72090 0.93527
 H2768 H 0.37381 0.75446 0.92204
 C2769 C 1.11919 0.70851 0.88148
 C2770 C 1.11229 0.72464 0.88829
 C2771 C 1.10421 0.74401 0.89627
 C2772 C 1.08639 0.75298 0.88731
 C2773 C 1.07879 0.77203 0.89479
 C2774 C 1.08898 0.78218 0.91127
 C2775 C 1.10673 0.77315 0.92029
 C2776 C 1.11433 0.75411 0.91281
 C2777 C 1.08142 0.80198 0.91868
 C2778 C 1.07524 0.81866 0.92481
 H2779 H 1.07846 0.74533 0.87449
 H2780 H 1.06507 0.77889 0.88768
 H2781 H 1.11475 0.78088 0.93302
 H2782 H 1.12814 0.74732 0.91983
 C2783 C 1.11950 0.20836 0.38072
 C2784 C 1.11263 0.22446 0.38764
 C2785 C 1.10456 0.24378 0.39576
 C2786 C 1.08674 0.25281 0.38687
 C2787 C 1.07915 0.27182 0.39447
 C2788 C 1.08936 0.28186 0.41099
 C2789 C 1.10712 0.27278 0.41996
 C2790 C 1.11471 0.25378 0.41235
 C2791 C 1.08182 0.30163 0.41851
 C2792 C 1.07562 0.31829 0.42470
 H2793 H 1.07880 0.24523 0.37401
 H2794 H 1.06543 0.27872 0.38741
 H2795 H 1.11515 0.28044 0.43272
 H2796 H 1.12852 0.24695 0.41932
 C2797 C 0.61842 0.70818 0.38095
 C2798 C 0.61159 0.72433 0.38778
 C2799 C 0.60358 0.74372 0.39580
 C2800 C 0.58628 0.75319 0.38633
 C2801 C 0.57876 0.77225 0.39385
 C2802 C 0.58850 0.78192 0.41088
 C2803 C 0.60573 0.77240 0.42041
 C2804 C 0.61325 0.75334 0.41289
 C2805 C 0.58103 0.80173 0.41834
 C2806 C 0.57489 0.81842 0.42448
 H2807 H 0.57871 0.74590 0.37308
 H2808 H 0.56545 0.77949 0.38635
 H2809 H 0.61340 0.77976 0.43356
 H2810 H 0.62666 0.74617 0.42030
 C2811 C 0.61990 0.20903 0.87993
 C2812 C 0.61294 0.22506 0.88691
 C2813 C 0.60478 0.24430 0.89514
 C2814 C 0.58695 0.25334 0.88626
 C2815 C 0.57926 0.27225 0.89399
 C2816 C 0.58938 0.28221 0.91063
 C2817 C 0.60715 0.27312 0.91957
 C2818 C 0.61484 0.25421 0.91184
 C2819 C 0.58174 0.30189 0.91829
 C2820 C 0.57546 0.31847 0.92459
 H2821 H 0.57908 0.24583 0.87332
 H2822 H 0.56553 0.27916 0.88694
 H2823 H 0.61511 0.28071 0.93241
 H2824 H 0.62866 0.24738 0.91879
 C2825 C 0.88182 0.70811 1.11798
 C2826 C 0.88858 0.72431 1.11124
 C2827 C 0.89653 0.74376 1.10334
 C2828 C 0.91432 0.75274 1.11230
 C2829 C 0.92179 0.77186 1.10491
 C2830 C 0.91150 0.78207 1.08852
 C2831 C 0.89377 0.77303 1.07949
 C2832 C 0.88630 0.75391 1.08688
 C2833 C 0.91893 0.80194 1.08120
 C2834 C 0.92502 0.81867 1.07515
 H2835 H 0.92233 0.74504 1.12505
 H2836 H 0.93550 0.77873 1.11202
 H2837 H 0.88567 0.78080 1.06683
 H2838 H 0.87251 0.74712 1.07987
 C2839 C 0.88098 0.20863 0.61935
 C2840 C 0.88787 0.22472 0.61247
 C2841 C 0.89596 0.24405 0.60442
 C2842 C 0.91256 0.25401 0.61457
 C2843 C 0.92016 0.27301 0.60700
 C2844 C 0.91119 0.28212 0.58925
 C2845 C 0.89466 0.27211 0.57904
 C2846 C 0.88706 0.25311 0.58661
 C2847 C 0.91872 0.30188 0.58172
 C2848 C 0.92492 0.31851 0.57553
 H2849 H 0.91954 0.24715 0.62837
 H2850 H 0.93293 0.28063 0.61503
 H2851 H 0.88759 0.27904 0.56533
 H2852 H 0.87420 0.24556 0.57867
 C2853 C 0.38033 0.70873 0.61866
 C2854 C 0.38720 0.72484 0.61181
 C2855 C 0.39529 0.74417 0.60377
 C2856 C 0.41324 0.75301 0.61257
 C2857 C 0.42087 0.77201 0.60503
 C2858 C 0.41058 0.78224 0.58866
 C2859 C 0.39270 0.77335 0.57979
 C2860 C 0.38507 0.75435 0.58733
 C2861 C 0.41817 0.80199 0.58119
 C2862 C 0.42440 0.81863 0.57503
 H2863 H 0.42125 0.74529 0.62531
 H2864 H 0.43469 0.77877 0.61202
 H2865 H 0.38460 0.78115 0.56715
 H2866 H 0.37116 0.74767 0.58044
 C2867 C 0.38101 0.20790 1.11763
 C2868 C 0.38784 0.22408 1.11091
 C2869 C 0.39589 0.24350 1.10306
 C2870 C 0.41375 0.25235 1.11205
 C2871 C 0.42133 0.27145 1.10472
 C2872 C 0.41109 0.28178 1.08839
 C2873 C 0.39330 0.27288 1.07933
 C2874 C 0.38571 0.25378 1.08666
 C2875 C 0.41862 0.30163 1.08114
 C2876 C 0.42479 0.31835 1.07515
 H2877 H 0.42172 0.24455 1.12477
 H2878 H 0.43508 0.27821 1.11186
 H2879 H 0.38524 0.28076 1.06671
 H2880 H 0.37188 0.24710 1.07962
 C2881 C 1.11979 1.12061 0.70912
 C2882 C 1.11308 1.11385 0.72536
 C2883 C 1.10522 1.10589 0.74484
 C2884 C 1.11405 1.11253 0.76372
 C2885 C 1.10646 1.10484 0.78268
 C2886 C 1.09000 1.09047 0.78287
 C2887 C 1.08116 1.08382 0.76399
 C2888 C 1.08876 1.09152 0.74501
 C2889 C 1.08222 1.08262 0.80242
 C2890 C 1.07584 1.07618 0.81891
 H2891 H 1.12678 1.12364 0.76377
 H2892 H 1.11340 1.11009 0.79718
 H2893 H 1.06843 1.07272 0.76396
 H2894 H 1.08182 1.08628 0.73051
 C2895 C 1.11941 0.62050 0.20895
 C2896 C 1.11254 0.61350 0.22501
 C2897 C 1.10452 0.60522 0.24428
 C2898 C 1.11364 0.58746 0.25322
 C2899 C 1.10611 0.57964 0.27216
 C2900 C 1.08942 0.58954 0.28225
 C2901 C 1.08023 0.60724 0.27326
 C2902 C 1.08776 0.61506 0.25432
 C2903 C 1.08195 0.58177 0.30195
 C2904 C 1.07577 0.57541 0.31855
 H2905 H 1.12663 0.57975 0.24561
 H2906 H 1.11336 0.56597 0.27899
 H2907 H 1.06733 0.61503 0.28094
 H2908 H 1.08061 0.62881 0.24756
 C2909 C 0.61929 1.12006 0.20861
 C2910 C 0.61253 1.11317 0.22477
 C2911 C 0.60467 1.10502 0.24417
 C2912 C 0.58318 1.10502 0.24818
 C2913 C 0.57560 1.09732 0.26716
 C2914 C 0.58949 1.08959 0.28220
 C2915 C 0.61097 1.08953 0.27815
 C2916 C 0.61854 1.09723 0.25918
 C2917 C 0.58177 1.08195 0.30186
 C2918 C 0.57545 1.07565 0.31843
 H2919 H 0.57232 1.11103 0.23669
 H2920 H 0.55897 1.09746 0.27015
 H2921 H 0.62184 1.08362 0.28968
 H2922 H 0.63519 1.09718 0.25625
 C2923 C 0.61818 0.61824 0.70821
 C2924 C 0.61141 0.61156 0.72444
 C2925 C 0.60343 0.60377 0.74394
 C2926 C 0.60573 0.58265 0.74909
 C2927 C 0.59827 0.57518 0.76821
 C2928 C 0.58849 0.58881 0.78224
 C2929 C 0.58612 0.60991 0.77705
 C2930 C 0.59358 0.61738 0.75794
 C2931 C 0.58112 0.58124 0.80206
 C2932 C 0.57502 0.57505 0.81875
 H2933 H 0.61336 0.57200 0.73839
 H2934 H 0.60021 0.55884 0.77208
 H2935 H 0.57860 0.62059 0.78780
 H2936 H 0.59174 0.63375 0.75413
 C2937 C 0.88172 0.88182 0.70804
 C2938 C 0.88849 0.88863 0.72423
 C2939 C 0.89643 0.89662 0.74366
 C2940 C 0.91358 0.88702 0.75326
 C2941 C 0.92104 0.89452 0.77236
 C2942 C 0.91139 0.91165 0.78193
 C2943 C 0.89430 0.92131 0.77228
 C2944 C 0.88684 0.91381 0.75318
 C2945 C 0.91879 0.91909 0.80179
 C2946 C 0.92488 0.92520 0.81850
 H2947 H 0.92109 0.87369 0.74605
 H2948 H 0.93424 0.88691 0.77970
 H2949 H 0.88670 0.93454 0.77957
 H2950 H 0.87355 0.92133 0.74591
 C2951 C 0.88094 0.37991 0.20862
 C2952 C 0.88783 0.38683 0.22471
 C2953 C 0.89590 0.39497 0.24403
 C2954 C 0.91304 0.38538 0.25366
 C2955 C 0.92063 0.39304 0.27265
 C2956 C 0.91110 0.41032 0.28209
 C2957 C 0.89402 0.41996 0.27241
 C2958 C 0.88644 0.41230 0.25342
 C2959 C 0.91863 0.41793 0.30184
 C2960 C 0.92483 0.42418 0.31847
 H2961 H 0.92046 0.37194 0.24655
 H2962 H 0.93382 0.38544 0.28001
 H2963 H 0.88652 0.43331 0.27959
 H2964 H 0.87316 0.41981 0.24613
 C2965 C 0.38063 0.87992 0.20848
 C2966 C 0.38748 0.88689 0.22457
 C2967 C 0.39551 0.89512 0.24387
 C2968 C 0.41278 0.88573 0.25345
 C2969 C 0.42033 0.89348 0.27242
 C2970 C 0.41064 0.91066 0.28187
 C2971 C 0.39343 0.92011 0.27224
 C2972 C 0.38588 0.91236 0.25327
 C2973 C 0.41814 0.91835 0.30160
 C2974 C 0.42433 0.92465 0.31822
 H2975 H 0.42032 0.87237 0.24633
 H2976 H 0.43362 0.88603 0.27975
 H2977 H 0.38580 0.93338 0.27943
 H2978 H 0.37250 0.91972 0.24601
 C2979 C 0.38208 0.38093 0.70820
 C2980 C 0.38882 0.38778 0.72438
 C2981 C 0.39669 0.39586 0.74380
 C2982 C 0.41389 0.38640 0.75345
 C2983 C 0.42127 0.39401 0.77254
 C2984 C 0.41148 0.41109 0.78206
 C2985 C 0.39434 0.42061 0.77237
 C2986 C 0.38696 0.41300 0.75328
 C2987 C 0.41882 0.41864 0.80190
 C2988 C 0.42487 0.42482 0.81861
 H2989 H 0.42151 0.37311 0.74628
 H2990 H 0.43452 0.38651 0.77992
 H2991 H 0.38664 0.43380 0.77961
 H2992 H 0.37363 0.42041 0.74597
 C2993 C 1.11869 0.88105 1.29192
 C2994 C 1.11188 0.88791 1.27576
 C2995 C 1.10390 0.89598 1.25637
 C2996 C 1.08677 0.88641 1.24675
 C2997 C 1.07928 0.89399 1.22768
 C2998 C 1.08888 0.91117 1.21818
 C2999 C 1.10595 0.92080 1.22785
 C3000 C 1.11344 0.91322 1.24692
 C3001 C 1.08144 0.91869 1.19836
 C3002 C 1.07530 0.92487 1.18167
 H3003 H 1.07930 0.87306 1.25391
 H3004 H 1.06609 0.88641 1.22032
 H3005 H 1.11352 0.93406 1.22062
 H3006 H 1.12672 0.92071 1.25421
 C3007 C 1.11879 0.38122 0.79211
 C3008 C 1.11199 0.38802 0.77592
 C3009 C 1.10403 0.39601 0.75650
 C3010 C 1.08699 0.38632 0.74682
 C3011 C 1.07951 0.39384 0.72772
 C3012 C 1.08904 0.41107 0.71823
 C3013 C 1.10601 0.42082 0.72796
 C3014 C 1.11349 0.41330 0.74705
 C3015 C 1.08160 0.41853 0.69839
 C3016 C 1.07548 0.42466 0.68168
 H3017 H 1.07959 0.37292 0.75397
 H3018 H 1.06640 0.38616 0.72032
 H3019 H 1.11351 0.43413 0.72074
 H3020 H 1.12669 0.42089 0.75438
 C3021 C 0.61807 0.88164 0.79199
 C3022 C 0.61125 0.88842 0.77581
 C3023 C 0.60325 0.89637 0.75638
 C3024 C 0.58625 0.88662 0.74671
 C3025 C 0.57875 0.89408 0.72761
 C3026 C 0.58824 0.91132 0.71809
 C3027 C 0.60517 0.92113 0.72781
 C3028 C 0.61267 0.91367 0.74692
 C3029 C 0.58081 0.91873 0.69823
 C3030 C 0.57472 0.92482 0.68150
 H3031 H 0.57888 0.87321 0.75388
 H3032 H 0.56567 0.88635 0.72021
 H3033 H 0.61264 0.93445 0.72057
 H3034 H 0.62585 0.92131 0.75424
 C3035 C 0.61890 0.38100 1.29210
 C3036 C 0.61202 0.38783 1.27596
 C3037 C 0.60395 0.39584 1.25659
 C3038 C 0.58683 0.38619 1.24702
 C3039 C 0.57925 0.39371 1.22797
 C3040 C 0.58876 0.41091 1.21841
 C3041 C 0.60582 0.42063 1.22803
 C3042 C 0.61339 0.41310 1.24708
 C3043 C 0.58125 0.41838 1.19860
 C3044 C 0.57508 0.42452 1.18191
 H3045 H 0.57943 0.37281 1.25422
 H3046 H 0.56608 0.38607 1.22065
 H3047 H 0.61331 0.43392 1.22076
 H3048 H 0.62666 0.42066 1.25433
 C3049 C 0.88246 1.11772 1.29278
 C3050 C 0.88926 1.11105 1.27655
 C3051 C 0.89723 1.10326 1.25705
 C3052 C 0.89107 1.08361 1.24973
 C3053 C 0.89849 1.07624 1.23056
 C3054 C 0.91210 1.08850 1.21863
 C3055 C 0.91835 1.10810 1.22600
 C3056 C 0.91093 1.11546 1.24517
 C3057 C 0.91940 1.08113 1.19871
 C3058 C 0.92540 1.07508 1.18193
 H3059 H 0.88045 1.07406 1.25877
 H3060 H 0.89354 1.06107 1.22498
 H3061 H 0.92885 1.11772 1.21689
 H3062 H 0.91577 1.13070 1.25067
 C3063 C 0.88164 0.61839 0.79200
 C3064 C 0.88848 0.61161 0.77583
 C3065 C 0.89653 0.60370 0.75640
 C3066 C 0.91025 0.61585 0.74450
 C3067 C 0.91775 0.60838 0.72541
 C3068 C 0.91157 0.58871 0.71814
 C3069 C 0.89793 0.57651 0.73009
 C3070 C 0.89042 0.58400 0.74919
 C3071 C 0.91898 0.58122 0.69831
 C3072 C 0.92508 0.57506 0.68160
 H3073 H 0.91504 0.63113 0.74991
 H3074 H 0.92827 0.61795 0.71627
 H3075 H 0.89302 0.56130 0.72460
 H3076 H 0.87979 0.57449 0.75826
 C3077 C 0.38151 1.11954 0.79163
 C3078 C 0.38833 1.11268 0.77549
 C3079 C 0.39632 1.10460 0.75611
 C3080 C 0.40990 1.11670 0.74398
 C3081 C 0.41734 1.10904 0.72493
 C3082 C 0.41123 1.08925 0.71793
 C3083 C 0.39773 1.07711 0.73011
 C3084 C 0.39029 1.08478 0.74916
 C3085 C 0.41856 1.08158 0.69814
 C3086 C 0.42463 1.07531 0.68146
 H3087 H 0.41464 1.13206 0.74919
 H3088 H 0.42774 1.11856 0.71563
 H3089 H 0.39288 1.06181 0.72483
 H3090 H 0.37977 1.07531 0.75841
 C3091 C 0.38063 0.62029 1.29143
 C3092 C 0.38753 0.61334 1.27535
 C3093 C 0.39561 0.60514 1.25606
 C3094 C 0.38758 0.58657 1.24781
 C3095 C 0.39515 0.57882 1.22885
 C3096 C 0.41079 0.58962 1.21806
 C3097 C 0.41889 0.60815 1.22635
 C3098 C 0.41132 0.61589 1.24532
 C3099 C 0.41828 0.58189 1.19834
 C3100 C 0.42447 0.57556 1.18173
 H3101 H 0.37541 0.57815 1.25597
 H3102 H 0.38875 0.56450 1.22255
 H3103 H 0.43096 0.61664 1.21812
 H3104 H 0.41762 0.63029 1.25154
 C3105 C 1.11845 1.29185 0.88124
 C3106 C 1.11168 1.27570 0.88810
 C3107 C 1.10373 1.25632 0.89617
 C3108 C 1.08516 1.24797 0.88824
 C3109 C 1.07767 1.22892 0.89579
 C3110 C 1.08872 1.21816 0.91131
 C3111 C 1.10723 1.22656 0.91931
 C3112 C 1.11473 1.24561 0.91176
 C3113 C 1.08125 1.19835 0.91876
 C3114 C 1.07511 1.18167 0.92490
 H3115 H 1.07656 1.25610 0.87616
 H3116 H 1.06335 1.22254 0.88947
 H3117 H 1.11591 1.21835 0.93128
 H3118 H 1.12912 1.25192 0.91798
 C3119 C 1.11852 0.79131 0.38066
 C3120 C 1.11174 0.77514 0.38746
 C3121 C 1.10377 0.75574 0.39544
 C3122 C 1.10938 0.74896 0.41547
 C3123 C 1.10194 0.72991 0.42307
 C3124 C 1.08885 0.71756 0.41066
 C3125 C 1.08317 0.72438 0.39066
 C3126 C 1.09061 0.74343 0.38307
 C3127 C 1.08149 0.69778 0.41829
 C3128 C 1.07540 0.68112 0.42454
 H3129 H 1.11958 0.75835 0.42516
 H3130 H 1.10646 0.72477 0.43854
 H3131 H 1.07308 0.71494 0.38092
 H3132 H 1.08620 0.74850 0.36755
 C3133 C 0.61864 1.29162 0.38117
 C3134 C 0.61182 1.27547 0.38799
 C3135 C 0.60380 1.25609 0.39598
 C3136 C 0.61309 1.24674 0.41345
 C3137 C 0.60556 1.22769 0.42095
 C3138 C 0.58871 1.21791 0.41103
 C3139 C 0.57937 1.22731 0.39362
 C3140 C 0.58690 1.24637 0.38612
 C3141 C 0.58124 1.19811 0.41848
 C3142 C 0.57508 1.18144 0.42462
 H3143 H 0.62619 1.25411 0.42117
 H3144 H 0.61292 1.22053 0.43440
 H3145 H 0.56636 1.21987 0.38581
 H3146 H 0.57963 1.25344 0.37258
 C3147 C 0.61835 0.79172 0.88196
 C3148 C 0.61157 0.77555 0.88875
 C3149 C 0.60360 0.75613 0.89669
 C3150 C 0.61274 0.74690 0.91430
 C3151 C 0.60526 0.72781 0.92177
 C3152 C 0.58862 0.71788 0.91166
 C3153 C 0.57942 0.72716 0.89412
 C3154 C 0.58690 0.74624 0.88664
 C3155 C 0.58120 0.69805 0.91909
 C3156 C 0.57508 0.68135 0.92520
 H3157 H 0.62568 0.75439 0.92217
 H3158 H 0.61250 0.72076 0.93533
 H3159 H 0.56657 0.71959 0.88616
 H3160 H 0.57975 0.75322 0.87300
 C3161 C 0.88084 1.29137 1.12007
 C3162 C 0.88772 1.27529 1.11313
 C3163 C 0.89579 1.25598 1.10496
 C3164 C 0.88662 1.24688 1.08731
 C3165 C 0.89419 1.22790 1.07962
 C3166 C 0.91095 1.21795 1.08955
 C3167 C 0.92018 1.22711 1.10713
 C3168 C 0.91261 1.24609 1.11482
 C3169 C 0.91846 1.19821 1.08190
 C3170 C 0.92464 1.18159 1.07563
 H3171 H 0.87359 1.25438 1.07959
 H3172 H 0.88692 1.22094 1.06604
 H3173 H 0.93312 1.21953 1.11495
 H3174 H 0.91979 1.25297 1.12850
 C3175 C 0.88180 0.79179 0.61817
 C3176 C 0.88858 0.77560 0.61141
 C3177 C 0.89654 0.75616 0.60346
 C3178 C 0.88704 0.74667 0.58620
 C3179 C 0.89451 0.72757 0.57874
 C3180 C 0.91151 0.71788 0.58850
 C3181 C 0.92107 0.72741 0.60570
 C3182 C 0.91360 0.74652 0.61316
 C3183 C 0.91892 0.69802 0.58109
 C3184 C 0.92503 0.68130 0.57499
 H3185 H 0.87381 0.75397 0.57861
 H3186 H 0.88697 0.72031 0.56545
 H3187 H 0.93421 0.72003 0.61338
 H3188 H 0.92104 0.75370 0.62654
 C3189 C 0.38157 1.29198 0.61860
 C3190 C 0.38834 1.27581 0.61177
 C3191 C 0.39630 1.25640 0.60375
 C3192 C 0.38692 1.24706 0.58634
 C3193 C 0.39438 1.22798 0.57881
 C3194 C 0.41125 1.21815 0.58867
 C3195 C 0.42070 1.22753 0.60602
 C3196 C 0.41324 1.24662 0.61354
 C3197 C 0.41865 1.19830 0.58120
 C3198 C 0.42475 1.18159 0.57507
 H3199 H 0.37380 1.25448 0.57867
 H3200 H 0.38695 1.22084 0.56541
 H3201 H 0.43373 1.22005 0.61378
 H3202 H 0.42058 1.25368 0.62704
 C3203 C 0.38066 0.79121 1.12007
 C3204 C 0.38752 0.77510 1.11318
 C3205 C 0.39558 0.75576 1.10507
 C3206 C 0.41207 0.74563 1.11526
 C3207 C 0.41964 0.72663 1.10761
 C3208 C 0.41075 0.71769 1.08974
 C3209 C 0.39432 0.72788 1.07949
 C3210 C 0.38676 0.74687 1.08715
 C3211 C 0.41826 0.69795 1.08212
 C3212 C 0.42445 0.68132 1.07586
 H3213 H 0.41898 0.75235 1.12916
 H3214 H 0.43232 0.71887 1.11567
 H3215 H 0.38732 0.72109 1.06568
 H3216 H 0.37398 0.75456 1.07917
 C3217 C 0.88138 0.70845 0.88180
 C3218 C 0.88817 0.72462 0.88858
 C3219 C 0.89616 0.74403 0.89654
 C3220 C 0.91379 0.75316 0.88740
 C3221 C 0.92130 0.77224 0.89486
 C3222 C 0.91122 0.78225 0.91149
 C3223 C 0.89365 0.77307 0.92069
 C3224 C 0.88614 0.75399 0.91323
 C3225 C 0.91869 0.80208 0.91889
 C3226 C 0.92482 0.81877 0.92498
 H3227 H 0.92164 0.74561 0.87446
 H3228 H 0.93488 0.77922 0.88761
 H3229 H 0.88572 0.78070 0.93354
 H3230 H 0.87248 0.74708 0.92039
 C3231 C 0.88215 0.20746 0.38283
 C3232 C 0.88891 0.22367 0.38955
 C3233 C 0.89688 0.24313 0.39738
 C3234 C 0.88696 0.25312 0.41412
 C3235 C 0.89444 0.27227 0.42143
 C3236 C 0.91188 0.28149 0.41202
 C3237 C 0.92187 0.27145 0.39535
 C3238 C 0.91438 0.25231 0.38804
 C3239 C 0.91931 0.30139 0.41926
 C3240 C 0.92540 0.31815 0.42523
 H3241 H 0.87339 0.24618 0.42142
 H3242 H 0.88659 0.27992 0.43431
 H3243 H 0.93534 0.27847 0.38795
 H3244 H 0.92215 0.24473 0.37507
 C3245 C 0.38030 0.70902 0.37980
 C3246 C 0.38715 0.72512 0.38671
 C3247 C 0.39520 0.74443 0.39486
 C3248 C 0.38475 0.75467 0.41111
 C3249 C 0.39234 0.77364 0.41878
 C3250 C 0.41043 0.78243 0.41021
 C3251 C 0.42093 0.77214 0.39402
 C3252 C 0.41334 0.75317 0.38636
 C3253 C 0.41800 0.80215 0.41782
 C3254 C 0.42423 0.81875 0.42407
 H3255 H 0.37070 0.74806 0.41778
 H3256 H 0.38408 0.78148 0.43128
 H3257 H 0.43491 0.77882 0.38727
 H3258 H 0.42152 0.74540 0.37376
 C3259 C 0.38044 0.20870 0.88098
 C3260 C 0.38713 0.22491 0.88778
 C3261 C 0.39495 0.24436 0.89579
 C3262 C 0.41645 0.24729 0.89845
 C3263 C 0.42402 0.26632 0.90600
 C3264 C 0.41013 0.28248 0.91090
 C3265 C 0.38863 0.27952 0.90829
 C3266 C 0.38106 0.26051 0.90075
 C3267 C 0.41788 0.30216 0.91842
 C3268 C 0.42422 0.31874 0.92463
 H3269 H 0.42733 0.23492 0.89465
 H3270 H 0.44067 0.26845 0.90794
 H3271 H 0.37775 0.29192 0.91202
 H3272 H 0.36441 0.25842 0.89873
 C3273 C 1.11954 0.70921 1.12049
 C3274 C 1.11266 0.72528 1.11352
 C3275 C 1.10461 0.74457 1.10530
 C3276 C 1.08717 0.75400 1.11453
 C3277 C 1.07958 0.77295 1.10677
 C3278 C 1.08940 0.78254 1.08975
 C3279 C 1.10678 0.77306 1.08046
 C3280 C 1.11437 0.75412 1.08822
 C3281 C 1.08186 0.80224 1.08205
 C3282 C 1.07564 0.81884 1.07573
 H3283 H 1.07952 0.74677 1.12776
 H3284 H 1.06615 0.78016 1.11410
 H3285 H 1.11452 0.78037 1.06732
 H3286 H 1.12788 0.74698 1.08098
 C3287 C 1.11925 0.20856 0.61996
 C3288 C 1.11241 0.22465 0.61301
 C3289 C 1.10441 0.24398 0.60481
 C3290 C 1.11498 0.25421 0.58863
 C3291 C 1.10745 0.27321 0.58095
 C3292 C 1.08933 0.28205 0.58940
 C3293 C 1.07870 0.27176 0.60551
 C3294 C 1.08623 0.25277 0.61320
 C3295 C 1.08183 0.30180 0.58180
 C3296 C 1.07565 0.31844 0.57555
 H3297 H 1.12907 0.24757 0.58205
 H3298 H 1.11581 0.28105 0.56851
 H3299 H 1.06469 0.27848 0.61219
 H3300 H 1.07795 0.24500 0.62573
 C3301 C 0.61802 0.70782 0.61794
 C3302 C 0.61124 0.72400 0.61115
 C3303 C 0.60327 0.74344 0.60321
 C3304 C 0.58604 0.75294 0.61276
 C3305 C 0.57857 0.77205 0.60532
 C3306 C 0.58830 0.78175 0.58831
 C3307 C 0.60547 0.77220 0.57870
 C3308 C 0.61294 0.75309 0.58614
 C3309 C 0.58088 0.80161 0.58093
 C3310 C 0.57479 0.81834 0.57485
 H3311 H 0.57847 0.74563 0.62600
 H3312 H 0.56530 0.77931 0.61289
 H3313 H 0.61313 0.77958 0.56556
 H3314 H 0.62630 0.74590 0.57866
 C3315 C 0.61911 0.20848 1.11991
 C3316 C 0.61225 0.22458 1.11299
 C3317 C 0.60421 0.24390 1.10484
 C3318 C 0.61469 0.25414 1.08861
 C3319 C 0.60712 0.27314 1.08096
 C3320 C 0.58903 0.28197 1.08950
 C3321 C 0.57848 0.27167 1.10566
 C3322 C 0.58606 0.25268 1.11331
 C3323 C 0.58149 0.30172 1.08193
 C3324 C 0.57529 0.31836 1.07571
 H3325 H 0.62876 0.24751 1.08197
 H3326 H 0.61541 0.28098 1.06849
 H3327 H 0.56450 0.27838 1.11240
 H3328 H 0.57784 0.24491 1.12588
 C3329 C 1.29157 1.11927 0.88152
 C3330 C 1.27545 1.11237 0.88830
 C3331 C 1.25609 1.10426 0.89624
 C3332 C 1.24622 1.08763 0.88606
 C3333 C 1.22718 1.08002 0.89352
 C3334 C 1.21794 1.08901 0.91118
 C3335 C 1.22786 1.10558 0.92142
 C3336 C 1.24689 1.11319 0.91396
 C3337 C 1.19815 1.08147 0.91860
 C3338 C 1.18148 1.07529 0.92473
 H3339 H 1.25318 1.08063 0.87231
 H3340 H 1.21963 1.06722 0.88546
 H3341 H 1.22083 1.11267 0.93507
 H3342 H 1.25437 1.12609 0.92193
 C3343 C 1.29112 0.61983 0.38038
 C3344 C 1.27508 0.61287 0.38728
 C3345 C 1.25582 0.60466 0.39539
 C3346 C 1.24581 0.61464 0.41208
 C3347 C 1.22688 0.60691 0.41969
 C3348 C 1.21789 0.58917 0.41064
 C3349 C 1.22795 0.57912 0.39401
 C3350 C 1.24688 0.58685 0.38641
 C3351 C 1.19819 0.58149 0.41818
 C3352 C 1.18160 0.57520 0.42440
 H3353 H 1.25257 0.62844 0.41912
 H3354 H 1.21921 0.61482 0.43253
 H3355 H 1.22112 0.56541 0.38688
 H3356 H 1.25448 0.57903 0.37347
 C3357 C 0.79222 1.11761 0.38238
 C3358 C 0.77598 1.11085 0.38901
 C3359 C 0.75647 1.10290 0.39674
 C3360 C 0.74937 1.10863 0.41663
 C3361 C 0.73021 1.10122 0.42396
 C3362 C 0.71807 1.08805 0.41143
 C3363 C 0.72521 1.08224 0.39159
 C3364 C 0.74437 1.08965 0.38426
 C3365 C 0.69817 1.08074 0.41879
 C3366 C 0.68142 1.07472 0.42485
 H3367 H 0.75859 1.11889 0.42640
 H3368 H 0.72481 1.10583 0.43932
 H3369 H 0.71593 1.07209 0.38177
 H3370 H 0.74969 1.08515 0.36885
 C3371 C 0.79159 0.61847 0.88185
 C3372 C 0.77545 0.61164 0.88863
 C3373 C 0.75606 0.60359 0.89658
 C3374 C 0.74632 0.58675 0.88662
 C3375 C 0.72727 0.57919 0.89409
 C3376 C 0.71788 0.58844 0.91154
 C3377 C 0.72767 0.60522 0.92156
 C3378 C 0.74672 0.61278 0.91410
 C3379 C 0.69808 0.58094 0.91896
 C3380 C 0.68140 0.57479 0.92507
 H3381 H 0.75339 0.57955 0.87304
 H3382 H 0.71982 0.56623 0.88620
 H3383 H 0.72052 0.61251 0.93505
 H3384 H 0.75410 0.62583 0.92189
 C3385 C 1.29128 0.88035 1.11939
 C3386 C 1.27520 0.88728 1.11251
 C3387 C 1.25589 0.89544 1.10445
 C3388 C 1.24556 0.91157 1.11502
 C3389 C 1.22658 0.91922 1.10743
 C3390 C 1.21785 0.91079 1.08924
 C3391 C 1.22822 0.89473 1.07862
 C3392 C 1.24721 0.88707 1.08620
 C3393 C 1.19810 0.91836 1.08169
 C3394 C 1.18147 0.92460 1.07549
 H3395 H 1.25212 0.91813 1.12916
 H3396 H 1.21867 0.93162 1.11579
 H3397 H 1.22159 0.88807 1.06456
 H3398 H 1.25505 0.87458 1.07793
 C3399 C 1.29224 0.38113 0.61820
 C3400 C 1.27608 0.38798 0.61142
 C3401 C 1.25668 0.39602 0.60346
 C3402 C 1.24721 0.41326 0.61302
 C3403 C 1.22813 0.42079 0.60556
 C3404 C 1.21843 0.41110 0.58852
 C3405 C 1.22795 0.39392 0.57889
 C3406 C 1.24704 0.38640 0.58635
 C3407 C 1.19859 0.41855 0.58114
 C3408 C 1.18187 0.42467 0.57506
 H3409 H 1.25451 0.42079 0.62628
 H3410 H 1.22088 0.43406 0.61314
 H3411 H 1.22057 0.38630 0.56573
 H3412 H 1.25421 0.37303 0.57887
 C3413 C 0.79179 0.88168 0.61810
 C3414 C 0.77560 0.88846 0.61133
 C3415 C 0.75615 0.89643 0.60341
 C3416 C 0.74503 0.91143 0.61480
 C3417 C 0.72592 0.91888 0.60732
 C3418 C 0.71785 0.91135 0.58844
 C3419 C 0.72902 0.89643 0.57700
 C3420 C 0.74814 0.88898 0.58448
 C3421 C 0.69799 0.91871 0.58098
 C3422 C 0.68127 0.92478 0.57487
 H3423 H 0.75106 0.91727 0.62947
 H3424 H 0.71739 0.93040 0.61630
 H3425 H 0.72291 0.89048 0.56240
 H3426 H 0.75659 0.87735 0.57557
 C3427 C 0.79093 0.37995 1.12017
 C3428 C 0.77474 0.38676 1.11343
 C3429 C 0.75529 0.39479 1.10556
 C3430 C 0.73826 0.39726 1.11905
 C3431 C 0.71929 0.40486 1.11142
 C3432 C 0.71725 0.41004 1.09026
 C3433 C 0.73429 0.40762 1.07677
 C3434 C 0.75328 0.40001 1.08440
 C3435 C 0.69763 0.41767 1.08243
 C3436 C 0.68109 0.42396 1.07604
 H3437 H 0.73965 0.39325 1.13543
 H3438 H 0.70621 0.40666 1.12199
 H3439 H 0.73287 0.41156 1.06038
 H3440 H 0.76634 0.39814 1.07383
 C3441 C 0.70863 1.11951 1.11952
 C3442 C 0.72474 1.11262 1.11265
 C3443 C 0.74407 1.10453 1.10457
 C3444 C 0.75330 1.11373 1.08701
 C3445 C 0.77231 1.10614 1.07941
 C3446 C 0.78216 1.08933 1.08934
 C3447 C 0.77288 1.08007 1.10684
 C3448 C 0.75387 1.08765 1.11444
 C3449 C 0.80193 1.08182 1.08179
 C3450 C 0.81859 1.07565 1.07558
 H3451 H 0.74587 1.12680 1.07928
 H3452 H 0.77937 1.11344 1.06589
 H3453 H 0.78038 1.06708 1.11466
 H3454 H 0.74689 1.08044 1.12805
 C3455 C 0.70806 0.61797 0.61818
 C3456 C 0.72426 0.61120 0.61142
 C3457 C 0.74371 0.60326 0.60348
 C3458 C 0.75337 0.58621 0.61319
 C3459 C 0.77248 0.57877 0.60573
 C3460 C 0.78202 0.58835 0.58854
 C3461 C 0.77231 0.60534 0.57877
 C3462 C 0.75319 0.61278 0.58622
 C3463 C 0.80188 0.58096 0.58113
 C3464 C 0.81861 0.57487 0.57504
 H3465 H 0.74619 0.57876 0.62656
 H3466 H 0.77988 0.56564 0.61342
 H3467 H 0.77956 0.61288 0.56548
 H3468 H 0.74587 0.62600 0.57863
 C3469 C 0.20864 1.11950 0.61950
 C3470 C 0.22472 1.11262 0.61257
 C3471 C 0.24402 1.10453 0.60442
 C3472 C 0.25352 1.11413 0.58721
 C3473 C 0.27249 1.10653 0.57955
 C3474 C 0.28205 1.08931 0.58906
 C3475 C 0.27251 1.07966 0.60620
 C3476 C 0.25353 1.08725 0.61387
 C3477 C 0.30179 1.08178 0.58146
 C3478 C 0.31843 1.07558 0.57523
 H3479 H 0.24632 1.12752 0.57981
 H3480 H 0.27976 1.11414 0.56631
 H3481 H 0.27979 1.06636 0.61370
 H3482 H 0.24634 1.07974 0.62720
 C3483 C 0.20913 0.62028 1.12026
 C3484 C 0.22525 0.61335 1.11347
 C3485 C 0.24460 0.60516 1.10555
 C3486 C 0.25962 0.59734 1.11939
 C3487 C 0.27856 0.58962 1.11176
 C3488 C 0.28255 0.58968 1.09026
 C3489 C 0.26751 0.59743 1.07640
 C3490 C 0.24857 0.60516 1.08403
 C3491 C 0.30218 0.58202 1.08248
 C3492 C 0.31872 0.57571 1.07611
 H3493 H 0.25673 0.59729 1.13606
 H3494 H 0.29009 0.58369 1.12262
 H3495 H 0.27046 0.59757 1.05974
 H3496 H 0.23707 0.61118 1.07319
 C3497 C 0.70821 0.88163 0.88171
 C3498 C 0.72441 0.88845 0.88840
 C3499 C 0.74386 0.89650 0.89618
 C3500 C 0.75784 0.90629 0.88253
 C3501 C 0.77691 0.91382 0.88998
 C3502 C 0.78208 0.91160 0.91112
 C3503 C 0.76806 0.90188 0.92480
 C3504 C 0.74899 0.89434 0.91734
 C3505 C 0.80185 0.91904 0.91867
 C3506 C 0.81851 0.92517 0.92486
 H3507 H 0.75404 0.90802 0.86613
 H3508 H 0.78764 0.92129 0.87926
 H3509 H 0.77192 0.90005 0.94117
 H3510 H 0.73830 0.88677 0.92803
 C3511 C 0.70866 0.38134 0.38081
 C3512 C 0.72484 0.38813 0.38758
 C3513 C 0.74426 0.39612 0.39550
 C3514 C 0.74985 0.39272 0.41638
 C3515 C 0.76891 0.40018 0.42395
 C3516 C 0.78244 0.41106 0.41067
 C3517 C 0.77680 0.41453 0.38982
 C3518 C 0.75775 0.40708 0.38225
 C3519 C 0.80220 0.41844 0.41833
 C3520 C 0.81885 0.42455 0.42458
 H3521 H 0.73954 0.38424 0.42675
 H3522 H 0.77313 0.39739 0.44009
 H3523 H 0.78716 0.42290 0.37941
 H3524 H 0.75360 0.40977 0.36607
 C3525 C 0.20835 0.88123 0.38066
 C3526 C 0.22452 0.88806 0.38740
 C3527 C 0.24394 0.89612 0.39527
 C3528 C 0.24888 0.89417 0.41649
 C3529 C 0.26791 0.90173 0.42403
 C3530 C 0.28206 0.91127 0.41037
 C3531 C 0.27708 0.91329 0.38917
 C3532 C 0.25806 0.90573 0.38163
 C3533 C 0.30179 0.91875 0.41802
 C3534 C 0.31842 0.92492 0.42427
 H3535 H 0.23808 0.88674 0.42716
 H3536 H 0.27162 0.90007 0.44045
 H3537 H 0.28793 0.92061 0.37847
 H3538 H 0.25441 0.90729 0.36518
 C3539 C 0.20836 0.38165 0.88098
 C3540 C 0.22454 0.38844 0.88773
 C3541 C 0.24397 0.39642 0.89563
 C3542 C 0.24903 0.39411 0.91679
 C3543 C 0.26808 0.40157 0.92436
 C3544 C 0.28215 0.41136 0.91080
 C3545 C 0.27706 0.41373 0.88965
 C3546 C 0.25801 0.40628 0.88208
 C3547 C 0.30190 0.41875 0.91847
 C3548 C 0.31854 0.42486 0.92475
 H3549 H 0.23829 0.38648 0.92739
 H3550 H 0.27188 0.39963 0.94073
 H3551 H 0.28784 0.42126 0.87903
 H3552 H 0.25428 0.40812 0.86569
   
