data_POSCAR
  _audit_creation_date              2014-09-24
  _audit_creation_method            'ToBaCCo'
  _symmetry_space_group_name_H-M    'P1'
  _symmetry_Int_Tables_number       1
  _symmetry_cell_setting            triclinic
  loop_
  _symmetry_equiv_pos_as_xyz
 x,y,z
_cell_length_a 68.4912
_cell_length_b 68.0430
_cell_length_c 68.5695
_cell_angle_alpha 89.989700
_cell_angle_beta 89.867200
_cell_angle_gamma 89.955200
loop_
  _atom_site_label
  _atom_site_type_symbol
  _atom_site_fract_x
  _atom_site_fract_y
  _atom_site_fract_z
C1 C 0.20503 0.19641 0.22468
 C2 C 0.18921 0.19967 0.23731
 C3 C 0.17648 0.21546 0.23410
 C4 C 0.17945 0.22811 0.21825
 C5 C 0.19519 0.22507 0.20547
 C6 C 0.20806 0.20915 0.20868
 C7 C 0.21787 0.18064 0.22776
 C8 C 0.23361 0.17752 0.21505
 C9 C 0.23666 0.19013 0.19918
 C10 C 0.22396 0.20597 0.19589
 C11 C 0.22686 0.21869 0.18004
 C12 C 0.21409 0.23446 0.17689
 C13 C 0.19832 0.23764 0.18955
 H14 H 0.18678 0.18996 0.24962
 H15 H 0.16951 0.24030 0.21589
 H16 H 0.21564 0.17080 0.24000
 H17 H 0.24889 0.18758 0.18943
 H18 H 0.23903 0.21635 0.17016
 H19 H 0.18851 0.24990 0.18699
 C20 C 0.70463 0.69486 0.72433
 C21 C 0.68879 0.69814 0.73692
 C22 C 0.67607 0.71393 0.73365
 C23 C 0.67908 0.72656 0.71779
 C24 C 0.69485 0.72349 0.70506
 C25 C 0.70771 0.70758 0.70832
 C26 C 0.71747 0.67910 0.72746
 C27 C 0.73325 0.67596 0.71480
 C28 C 0.73633 0.68854 0.69892
 C29 C 0.72364 0.70438 0.69557
 C30 C 0.72658 0.71708 0.67972
 C31 C 0.71382 0.73285 0.67652
 C32 C 0.69802 0.73605 0.68913
 H33 H 0.68632 0.68845 0.74924
 H34 H 0.66915 0.73874 0.71539
 H35 H 0.71521 0.66927 0.73971
 H36 H 0.74859 0.68599 0.68920
 H37 H 0.73878 0.71473 0.66986
 H38 H 0.68822 0.74830 0.68653
 C39 C 0.29414 0.80433 0.72485
 C40 C 0.30993 0.80099 0.73741
 C41 C 0.32258 0.78513 0.73417
 C42 C 0.31955 0.77248 0.71834
 C43 C 0.30383 0.77560 0.70563
 C44 C 0.29105 0.79160 0.70887
 C45 C 0.28138 0.82018 0.72796
 C46 C 0.26565 0.82339 0.71530
 C47 C 0.26256 0.81076 0.69945
 C48 C 0.27518 0.79485 0.69614
 C49 C 0.27223 0.78214 0.68031
 C50 C 0.28492 0.76630 0.67713
 C51 C 0.30066 0.76304 0.68974
 H52 H 0.31241 0.81070 0.74971
 H53 H 0.32943 0.76025 0.71596
 H54 H 0.28370 0.83000 0.74020
 H55 H 0.25036 0.81333 0.68970
 H56 H 0.26008 0.78454 0.67046
 H57 H 0.31040 0.75073 0.68715
 C58 C 0.79490 0.30227 0.22701
 C59 C 0.81073 0.29938 0.23964
 C60 C 0.82344 0.28346 0.23684
 C61 C 0.82040 0.27032 0.22140
 C62 C 0.80464 0.27301 0.20864
 C63 C 0.79181 0.28905 0.21144
 C64 C 0.78210 0.31817 0.22966
 C65 C 0.76635 0.32093 0.21696
 C66 C 0.76325 0.30784 0.20151
 C67 C 0.77591 0.29187 0.19864
 C68 C 0.77296 0.27868 0.18320
 C69 C 0.78571 0.26280 0.18046
 C70 C 0.80148 0.25997 0.19312
 H71 H 0.81317 0.30950 0.25162
 H72 H 0.83029 0.25803 0.21930
 H73 H 0.78437 0.32839 0.24158
 H74 H 0.75102 0.31011 0.19175
 H75 H 0.76080 0.28076 0.17330
 H76 H 0.81126 0.24763 0.19086
 C77 C 0.79586 0.69554 0.27457
 C78 C 0.81173 0.69875 0.26200
 C79 C 0.82446 0.71455 0.26522
 C80 C 0.82139 0.72724 0.28104
 C81 C 0.80559 0.72423 0.29374
 C82 C 0.79275 0.70832 0.29052
 C83 C 0.78304 0.67978 0.27148
 C84 C 0.76724 0.67670 0.28412
 C85 C 0.76412 0.68935 0.29995
 C86 C 0.77680 0.70518 0.30325
 C87 C 0.77381 0.71794 0.31905
 C88 C 0.78656 0.73370 0.32222
 C89 C 0.80238 0.73685 0.30962
 H90 H 0.81418 0.68898 0.24972
 H91 H 0.83129 0.73945 0.28345
 H92 H 0.78532 0.66990 0.25927
 H93 H 0.75185 0.68684 0.30965
 H94 H 0.76160 0.71563 0.32889
 H95 H 0.81217 0.74910 0.31220
 C96 C 0.29533 0.19691 -0.22527
 C97 C 0.31118 0.20010 -0.23787
 C98 C 0.32391 0.21590 -0.23469
 C99 C 0.32087 0.22862 -0.21889
 C100 C 0.30508 0.22563 -0.20615
 C101 C 0.29224 0.20971 -0.20933
 C102 C 0.28251 0.18114 -0.22831
 C103 C 0.26674 0.17807 -0.21564
 C104 C 0.26364 0.19074 -0.19983
 C105 C 0.27631 0.20659 -0.19657
 C106 C 0.27336 0.21936 -0.18078
 C107 C 0.28610 0.23513 -0.17765
 C108 C 0.30191 0.23826 -0.19028
 H109 H 0.31361 0.19031 -0.25013
 H110 H 0.33077 0.24083 -0.21650
 H111 H 0.28478 0.17124 -0.24051
 H112 H 0.25138 0.18824 -0.19009
 H113 H 0.26117 0.21706 -0.17091
 H114 H 0.31169 0.25052 -0.18773
 C115 C 0.70489 0.30178 -0.22629
 C116 C 0.68907 0.29876 -0.23891
 C117 C 0.67634 0.28291 -0.23592
 C118 C 0.67934 0.26996 -0.22030
 C119 C 0.69509 0.27277 -0.20755
 C120 C 0.70793 0.28874 -0.21054
 C121 C 0.71770 0.31761 -0.22912
 C122 C 0.73342 0.32051 -0.21641
 C123 C 0.73648 0.30760 -0.20079
 C124 C 0.72381 0.29170 -0.19775
 C125 C 0.72671 0.27871 -0.18213
 C126 C 0.71395 0.26290 -0.17919
 C127 C 0.69821 0.25993 -0.19185
 H128 H 0.68667 0.30873 -0.25102
 H129 H 0.66943 0.25773 -0.21807
 H130 H 0.71546 0.32769 -0.24117
 H131 H 0.74869 0.30998 -0.19103
 H132 H 0.73885 0.28090 -0.17223
 H133 H 0.68840 0.24765 -0.18945
 C134 C 0.20572 0.80433 0.27467
 C135 C 0.18995 0.80102 0.26207
 C136 C 0.17726 0.78521 0.26531
 C137 C 0.18022 0.77258 0.28117
 C138 C 0.19591 0.77567 0.29392
 C139 C 0.20874 0.79161 0.29068
 C140 C 0.21852 0.82012 0.27157
 C141 C 0.23422 0.82329 0.28426
 C142 C 0.23724 0.81068 0.30015
 C143 C 0.22458 0.79482 0.30346
 C144 C 0.22746 0.78212 0.31931
 C145 C 0.21473 0.76633 0.32249
 C146 C 0.19902 0.76311 0.30984
 H147 H 0.18753 0.81071 0.24975
 H148 H 0.17031 0.76038 0.28355
 H149 H 0.21626 0.82993 0.25930
 H150 H 0.24942 0.81321 0.30992
 H151 H 0.23958 0.78449 0.32919
 H152 H 0.18924 0.75085 0.31243
 C153 C 0.44610 0.45567 0.47359
 C154 C 0.44940 0.43979 0.48623
 C155 C 0.46523 0.42712 0.48309
 C156 C 0.47789 0.43021 0.46731
 C157 C 0.47481 0.44601 0.45453
 C158 C 0.45885 0.45881 0.45766
 C159 C 0.43029 0.46844 0.47659
 C160 C 0.42714 0.48424 0.46387
 C161 C 0.43975 0.48740 0.44807
 C162 C 0.45563 0.47476 0.44486
 C163 C 0.46835 0.47778 0.42908
 C164 C 0.48416 0.46506 0.42600
 C165 C 0.48738 0.44924 0.43868
 H166 H 0.43968 0.43727 0.49849
 H167 H 0.49010 0.42031 0.46501
 H168 H 0.42044 0.46613 0.48878
 H169 H 0.43718 0.49967 0.43831
 H170 H 0.46599 0.48998 0.41918
 H171 H 0.49967 0.43948 0.43617
 C172 C -0.05131 -0.04065 0.97754
 C173 C -0.04830 -0.05673 0.98998
 C174 C -0.03288 -0.06982 0.98653
 C175 C -0.02034 -0.06694 0.97062
 C176 C -0.02313 -0.05094 0.95802
 C177 C -0.03868 -0.03771 0.96147
 C178 C -0.06674 -0.02748 0.98083
 C179 C -0.06966 -0.01150 0.96826
 C180 C -0.05713 -0.00855 0.95232
 C181 C -0.04163 -0.02158 0.94883
 C182 C -0.02904 -0.01881 0.93289
 C183 C -0.01365 -0.03194 0.92951
 C184 C -0.01069 -0.04794 0.94202
 H185 H -0.05794 -0.05910 1.00233
 H186 H -0.00845 -0.07717 0.96806
 H187 H -0.07650 -0.02970 0.99312
 H188 H -0.05947 0.00384 0.94263
 H189 H -0.03121 -0.00647 0.92311
 H190 H 0.00127 -0.05803 0.93926
 C191 C 1.05393 0.54460 0.97441
 C192 C 1.05069 0.56056 0.98697
 C193 C 1.03480 0.57318 0.98393
 C194 C 1.02203 0.56994 0.96831
 C195 C 1.02507 0.55405 0.95561
 C196 C 1.04108 0.54131 0.95865
 C197 C 1.06979 0.53188 0.97732
 C198 C 1.07291 0.51598 0.96469
 C199 C 1.06017 0.51269 0.94905
 C200 C 1.04424 0.52528 0.94593
 C201 C 1.03142 0.52212 0.93032
 C202 C 1.01556 0.53477 0.92734
 C203 C 1.01239 0.55068 0.93993
 H204 H 1.06051 0.56314 0.99909
 H205 H 1.00976 0.57977 0.96603
 H206 H 1.07970 0.53435 0.98941
 H207 H 1.06266 0.50036 0.93932
 H208 H 1.03374 0.50985 0.92049
 H209 H 1.00007 0.56039 0.93749
 C210 C 0.55425 0.04330 0.47375
 C211 C 0.55093 0.05917 0.48639
 C212 C 0.53510 0.07184 0.48331
 C213 C 0.52246 0.06874 0.46758
 C214 C 0.52556 0.05295 0.45479
 C215 C 0.54153 0.04015 0.45787
 C216 C 0.57007 0.03054 0.47670
 C217 C 0.57326 0.01473 0.46397
 C218 C 0.56065 0.01157 0.44820
 C219 C 0.54476 0.02420 0.44505
 C220 C 0.53205 0.02119 0.42932
 C221 C 0.51624 0.03390 0.42630
 C222 C 0.51300 0.04971 0.43899
 H223 H 0.56063 0.06170 0.49862
 H224 H 0.51024 0.07863 0.46532
 H225 H 0.57988 0.03290 0.48888
 H226 H 0.56319 -0.00069 0.43840
 H227 H 0.53443 0.00899 0.41941
 H228 H 0.50072 0.05947 0.43652
 C229 C -0.05428 0.04384 0.52672
 C230 C -0.05096 0.05972 0.51408
 C231 C -0.03515 0.07238 0.51720
 C232 C -0.02254 0.06927 0.53296
 C233 C -0.02564 0.05347 0.54574
 C234 C -0.04158 0.04068 0.54263
 C235 C -0.07006 0.03107 0.52374
 C236 C -0.07324 0.01527 0.53645
 C237 C -0.06068 0.01210 0.55224
 C238 C -0.04481 0.02472 0.55543
 C239 C -0.03213 0.02170 0.57119
 C240 C -0.01634 0.03441 0.57424
 C241 C -0.01311 0.05023 0.56157
 H242 H -0.06064 0.06225 0.50184
 H243 H -0.01034 0.07916 0.53524
 H244 H -0.07988 0.03340 0.51156
 H245 H -0.06327 -0.00018 0.56199
 H246 H -0.03451 0.00949 0.58109
 H247 H -0.00084 0.05998 0.56405
 C248 C 0.44589 0.54522 0.02582
 C249 C 0.44912 0.56113 0.01321
 C250 C 0.46499 0.57376 0.01621
 C251 C 0.47775 0.57056 0.03186
 C252 C 0.47473 0.55472 0.04461
 C253 C 0.45873 0.54197 0.04160
 C254 C 0.43005 0.53249 0.02294
 C255 C 0.42696 0.51665 0.03562
 C256 C 0.43966 0.51339 0.05127
 C257 C 0.45558 0.52597 0.05437
 C258 C 0.46840 0.52285 0.07000
 C259 C 0.48424 0.53551 0.07295
 C260 C 0.48740 0.55138 0.06031
 H261 H 0.43930 0.56369 0.00107
 H262 H 0.49001 0.58039 0.03411
 H263 H 0.42013 0.53488 0.01086
 H264 H 0.43714 0.50108 0.06100
 H265 H 0.46608 0.51061 0.07987
 H266 H 0.49971 0.56109 0.06273
 C267 C 0.55102 -0.04055 0.02196
 C268 C 0.54795 -0.05661 0.00951
 C269 C 0.53257 -0.06970 0.01306
 C270 C 0.52012 -0.06684 0.02905
 C271 C 0.52297 -0.05085 0.04164
 C272 C 0.53849 -0.03763 0.03810
 C273 C 0.56642 -0.02739 0.01859
 C274 C 0.56939 -0.01145 0.03116
 C275 C 0.55698 -0.00850 0.04716
 C276 C 0.54150 -0.02152 0.05074
 C277 C 0.52902 -0.01876 0.06677
 C278 C 0.51366 -0.03189 0.07024
 C279 C 0.51063 -0.04787 0.05773
 H280 H 0.55752 -0.05898 -0.00290
 H281 H 0.50826 -0.07706 0.03167
 H282 H 0.57613 -0.02956 0.00626
 H283 H 0.55942 0.00387 0.05682
 H284 H 0.53125 -0.00644 0.07655
 H285 H 0.49871 -0.05796 0.06056
 C286 C 1.05417 0.45509 0.52650
 C287 C 1.05091 0.43924 0.51384
 C288 C 1.03513 0.42649 0.51699
 C289 C 1.02251 0.42952 0.53284
 C290 C 1.02557 0.44531 0.54563
 C291 C 1.04146 0.45816 0.54247
 C292 C 1.06991 0.46792 0.52347
 C293 C 1.07303 0.48371 0.53620
 C294 C 1.06046 0.48679 0.55205
 C295 C 1.04464 0.47410 0.55529
 C296 C 1.03196 0.47705 0.57112
 C297 C 1.01621 0.46428 0.57422
 C298 C 1.01303 0.44848 0.56153
 H299 H 1.06063 0.43681 0.50155
 H300 H 1.01033 0.41961 0.53521
 H301 H 1.07973 0.46567 0.51124
 H302 H 1.06300 0.49906 0.56182
 H303 H 1.03430 0.48924 0.58102
 H304 H 1.00079 0.43868 0.56406
 C305 C 0.40498 0.00942 0.22354
 H306 H 0.40582 0.02260 0.23233
 C307 C 0.41759 0.00694 0.20770
 H308 H 0.42823 0.01825 0.20447
 C309 C 0.39041 -0.02156 0.21753
 H310 H 0.37997 -0.03274 0.22153
 C311 C 0.40276 -0.02466 0.20159
 H312 H 0.40139 -0.03809 0.19324
 N313 N 0.39156 -0.00461 0.22798
 C314 C 0.34536 0.02636 0.25928
 H315 H 0.34465 0.01769 0.27248
 C316 C 0.33258 0.04214 0.25667
 H317 H 0.32223 0.04569 0.26809
 C318 C 0.35985 0.03223 0.22841
 H319 H 0.37022 0.02811 0.21726
 C320 C 0.34736 0.04813 0.22520
 H321 H 0.34830 0.05608 0.21155
 Zn322 Zn 0.37520 -0.00009 0.24981
 N323 N 0.35879 0.02186 0.24534
 C324 C 0.39054 0.02145 0.28188
 N325 N 0.39162 0.00444 0.27153
 C326 C 0.40505 -0.00959 0.27591
 C327 C 0.41782 -0.00700 0.29154
 C328 C 0.40302 0.02465 0.29764
 C329 C 0.34531 -0.02640 0.24051
 C330 C 0.33251 -0.04214 0.24314
 C331 C 0.34737 -0.04833 0.27447
 C332 C 0.35988 -0.03246 0.27124
 N333 N 0.35879 -0.02200 0.25436
 H334 H 0.38015 0.03268 0.27787
 H335 H 0.40578 -0.02287 0.26726
 H336 H 0.42818 -0.01851 0.29500
 H337 H 0.40207 0.03837 0.30559
 H338 H 0.34457 -0.01766 0.22735
 H339 H 0.32212 -0.04561 0.23178
 H340 H 0.34833 -0.05636 0.28807
 H341 H 0.37030 -0.02842 0.28232
 C342 C 0.33352 0.05330 0.23945
 C343 C 0.41653 -0.01026 0.19644
 C344 C 0.33347 -0.05338 0.26030
 C345 C 0.41687 0.01030 0.30268
 C346 C 0.09524 -0.00893 0.72442
 H347 H 0.09450 -0.02217 0.73313
 C348 C 0.08241 -0.00632 0.70884
 H349 H 0.07172 -0.01760 0.70572
 C350 C 0.10969 0.02212 0.71840
 H351 H 0.12016 0.03329 0.72231
 C352 C 0.09712 0.02535 0.70272
 H353 H 0.09836 0.03886 0.69447
 N354 N 0.10868 0.00509 0.72875
 C355 C 0.15512 -0.02589 0.75950
 H356 H 0.15592 -0.01719 0.77268
 C357 C 0.16789 -0.04166 0.75678
 H358 H 0.17832 -0.04519 0.76810
 C359 C 0.14043 -0.03182 0.72881
 H360 H 0.12997 -0.02773 0.71778
 C361 C 0.15290 -0.04772 0.72550
 H362 H 0.15187 -0.05571 0.71189
 Zn363 Zn 0.12520 0.00051 0.75038
 N364 N 0.14160 -0.02142 0.74571
 C365 C 0.11013 -0.02106 0.78265
 N366 N 0.10893 -0.00407 0.77226
 C367 C 0.09549 0.00994 0.77678
 C368 C 0.08289 0.00737 0.79260
 C369 C 0.09781 -0.02423 0.79860
 C370 C 0.15497 0.02696 0.74085
 C371 C 0.16776 0.04271 0.74344
 C372 C 0.15315 0.04860 0.77500
 C373 C 0.14063 0.03275 0.77179
 N374 N 0.14161 0.02242 0.75483
 H375 H 0.12051 -0.03227 0.77853
 H376 H 0.09468 0.02319 0.76810
 H377 H 0.07256 0.01888 0.79618
 H378 H 0.09888 -0.03791 0.80660
 H379 H 0.15570 0.01825 0.72766
 H380 H 0.17839 0.04598 0.73219
 H381 H 0.15193 0.05682 0.78847
 H382 H 0.13023 0.02867 0.78294
 C383 C 0.16685 -0.05285 0.73961
 C384 C 0.08328 0.01100 0.69772
 C385 C 0.16692 0.05379 0.76070
 C386 C 0.08400 -0.00988 0.80380
 C387 C 0.59560 0.49038 0.22278
 H388 H 0.59482 0.47705 0.23135
 C389 C 0.58288 0.49313 0.20713
 H390 H 0.57250 0.48169 0.20358
 C391 C 0.61021 0.52140 0.21704
 H392 H 0.62061 0.53256 0.22116
 C393 C 0.59778 0.52476 0.20127
 H394 H 0.59878 0.53853 0.19342
 N395 N 0.60906 0.50433 0.22729
 C396 C 0.65512 0.47320 0.25846
 H397 H 0.65587 0.48198 0.27159
 C398 C 0.66784 0.45736 0.25592
 H399 H 0.67846 0.45412 0.26714
 C400 C 0.64071 0.46724 0.22764
 H401 H 0.63030 0.47128 0.21654
 C402 C 0.65318 0.45130 0.22448
 H403 H 0.65191 0.44297 0.21109
 Zn404 Zn 0.62535 0.49963 0.24907
 N405 N 0.64175 0.47768 0.24452
 C406 C 0.60986 0.47790 0.28103
 N407 N 0.60884 0.49499 0.27078
 C408 C 0.59541 0.50901 0.27528
 C409 C 0.58261 0.50634 0.29093
 C410 C 0.59733 0.47461 0.29678
 C411 C 0.65528 0.52599 0.23989
 C412 C 0.66808 0.54170 0.24260
 C413 C 0.65318 0.54764 0.27402
 C414 C 0.64064 0.53182 0.27069
 N415 N 0.64177 0.52149 0.25374
 H416 H 0.62032 0.46674 0.27699
 H417 H 0.59466 0.52230 0.26664
 H418 H 0.57193 0.51762 0.29418
 H419 H 0.59858 0.46105 0.30495
 H420 H 0.65610 0.51729 0.22670
 H421 H 0.67883 0.54494 0.23145
 H422 H 0.65186 0.55586 0.28748
 H423 H 0.63012 0.52778 0.28173
 C424 C 0.66693 0.44613 0.23877
 C425 C 0.58390 0.51050 0.19611
 C426 C 0.66711 0.55279 0.25985
 C427 C 0.58350 0.48896 0.30195
 C428 C 0.90484 0.50794 0.72495
 H429 H 0.90550 0.52126 0.73353
 C430 C 0.91768 0.50526 0.70933
 H431 H 0.92803 0.51674 0.70581
 C432 C 0.89038 0.47687 0.71913
 H433 H 0.87997 0.46568 0.72320
 C434 C 0.90293 0.47359 0.70338
 H435 H 0.90201 0.45984 0.69550
 N436 N 0.89139 0.49394 0.72940
 C437 C 0.84486 0.52507 0.76007
 H438 H 0.84404 0.51646 0.77331
 C439 C 0.83208 0.54081 0.75728
 H440 H 0.82162 0.54440 0.76859
 C441 C 0.85962 0.53082 0.72931
 H442 H 0.87010 0.52667 0.71828
 C443 C 0.84713 0.54669 0.72592
 H444 H 0.84818 0.55458 0.71224
 Zn445 Zn 0.87480 0.49862 0.75104
 N446 N 0.85842 0.52052 0.74628
 C447 C 0.88986 0.52042 0.78306
 N448 N 0.89102 0.50331 0.77287
 C449 C 0.90442 0.48932 0.77749
 C450 C 0.91710 0.49208 0.79316
 C451 C 0.90225 0.52378 0.79886
 C452 C 0.84504 0.47226 0.74157
 C453 C 0.83225 0.45649 0.74411
 C454 C 0.84680 0.45042 0.77561
 C455 C 0.85931 0.46632 0.77246
 N456 N 0.85836 0.47672 0.75555
 H457 H 0.87951 0.53161 0.77886
 H458 H 0.90521 0.47596 0.76896
 H459 H 0.92744 0.48061 0.79679
 H460 H 0.90125 0.53758 0.80666
 H461 H 0.84443 0.48095 0.72837
 H462 H 0.82200 0.45297 0.73264
 H463 H 0.84764 0.44243 0.78923
 H464 H 0.86961 0.47040 0.78364
 C465 C 0.83315 0.55189 0.74002
 C466 C 0.91678 0.48791 0.69827
 C467 C 0.83306 0.44530 0.76130
 C468 C 0.91609 0.50949 0.80412
 C469 C 0.22318 0.40573 0.00881
 H470 H 0.23165 0.40653 0.02208
 C471 C 0.20746 0.41850 0.00601
 H472 H 0.20401 0.42920 0.01718
 C473 C 0.21788 0.39118 -0.02212
 H474 H 0.22211 0.38069 -0.03316
 C475 C 0.20207 0.40368 -0.02553
 H476 H 0.19406 0.40237 -0.03906
 N477 N 0.22792 0.39226 -0.00506
 C478 C 0.25860 0.34566 0.02606
 H479 H 0.27190 0.34487 0.01754
 C480 C 0.25577 0.33283 0.04170
 H481 H 0.26694 0.32209 0.04507
 C482 C 0.22765 0.36025 0.03152
 H483 H 0.21661 0.37078 0.02738
 C484 C 0.22420 0.34769 0.04726
 H485 H 0.21065 0.34900 0.05532
 Zn486 Zn 0.24966 0.37577 -0.00021
 N487 N 0.24474 0.35918 0.02143
 C488 C 0.28138 0.39111 0.02180
 N489 N 0.27133 0.39229 0.00476
 C490 C 0.27601 0.40587 -0.00902
 C491 C 0.29169 0.41864 -0.00615
 C492 C 0.29715 0.40362 0.02529
 C493 C 0.24087 0.34581 -0.02668
 C494 C 0.24379 0.33309 -0.04239
 C495 C 0.27530 0.34808 -0.04781
 C496 C 0.27177 0.36053 -0.03201
 N497 N 0.25467 0.35935 -0.02195
 H498 H 0.27719 0.38053 0.03278
 H499 H 0.26753 0.40674 -0.02229
 H500 H 0.29510 0.42943 -0.01725
 H501 H 0.30517 0.40222 0.03881
 H502 H 0.22757 0.34493 -0.01819
 H503 H 0.23268 0.32234 -0.04584
 H504 H 0.28887 0.34948 -0.05584
 H505 H 0.28275 0.37107 -0.02778
 C506 C 0.23839 0.33379 0.05258
 C507 C 0.19664 0.41754 -0.01133
 C508 C 0.26118 0.33417 -0.05323
 C509 C 0.30253 0.41758 0.01118
 C510 C 0.73029 0.08922 0.00277
 H511 H 0.74443 0.08254 0.00062
 C512 C 0.71388 0.07724 0.00486
 H513 H 0.71569 0.06143 0.00470
 C514 C 0.71073 0.11781 0.00554
 H515 H 0.70965 0.13368 0.00561
 C516 C 0.69392 0.10639 0.00771
 H517 H 0.67991 0.11359 0.00934
 N518 N 0.72849 0.10911 0.00342
 C519 C 0.74631 0.16208 -0.01903
 H520 H 0.74900 0.16860 -0.00494
 C521 C 0.74289 0.17423 -0.03506
 H522 H 0.74302 0.19002 -0.03308
 C523 C 0.74196 0.13370 -0.03855
 H524 H 0.74157 0.11785 -0.03972
 C525 C 0.73844 0.14531 -0.05498
 H526 H 0.73561 0.13826 -0.06883
 Zn527 Zn 0.75064 0.12553 0.00057
 N528 N 0.74608 0.14220 -0.02109
 C529 C 0.78372 0.11122 -0.02035
 N530 N 0.77337 0.11017 -0.00342
 C531 C 0.77919 0.09832 0.01144
 C532 C 0.79564 0.08637 0.00936
 C533 C 0.80028 0.09953 -0.02304
 C534 C 0.74215 0.13957 0.03881
 C535 C 0.74527 0.15107 0.05538
 C536 C 0.77442 0.16407 0.04026
 C537 C 0.77074 0.15233 0.02398
 N538 N 0.75465 0.14065 0.02340
 H539 H 0.77915 0.12103 -0.03183
 H540 H 0.77090 0.09805 0.02489
 H541 H 0.80002 0.07703 0.02137
 H542 H 0.80805 0.10022 -0.03680
 H543 H 0.72975 0.12980 0.03833
 H544 H 0.73517 0.15000 0.06751
 H545 H 0.78703 0.17365 0.04020
 H546 H 0.78059 0.15270 0.01163
 C547 C 0.73901 0.16588 -0.05337
 C548 C 0.69539 0.08580 0.00747
 C549 C 0.76150 0.16365 0.05619
 C550 C 0.80634 0.08676 -0.00813
 C551 C 0.22340 0.59537 0.49094
 H552 H 0.23186 0.59462 0.47762
 C553 C 0.20775 0.58254 0.49381
 H554 H 0.20408 0.57212 0.48247
 C555 C 0.21793 0.61000 0.52183
 H556 H 0.22215 0.62046 0.53288
 C557 C 0.20216 0.59747 0.52530
 H558 H 0.19441 0.59845 0.53904
 N559 N 0.22803 0.60890 0.50476
 C560 C 0.25873 0.65544 0.47352
 H561 H 0.27198 0.65626 0.48203
 C562 C 0.25594 0.66822 0.45784
 H563 H 0.26711 0.67896 0.45444
 C564 C 0.22784 0.64081 0.46808
 H565 H 0.21680 0.63028 0.47225
 C566 C 0.22443 0.65332 0.45231
 H567 H 0.21092 0.65199 0.44425
 Zn568 Zn 0.24973 0.62541 0.49986
 N569 N 0.24487 0.64192 0.47818
 C570 C 0.28159 0.61005 0.47790
 N571 N 0.27147 0.60892 0.49496
 C572 C 0.27614 0.59539 0.50878
 C573 C 0.29184 0.58260 0.50593
 C574 C 0.29740 0.59755 0.47444
 C575 C 0.24070 0.65542 0.52623
 C576 C 0.24348 0.66821 0.54189
 C577 C 0.27501 0.65329 0.54741
 C578 C 0.27162 0.64079 0.53162
 N579 N 0.25457 0.64191 0.52155
 H580 H 0.27734 0.62050 0.46685
 H581 H 0.26768 0.59462 0.52210
 H582 H 0.29554 0.57218 0.51727
 H583 H 0.30516 0.59855 0.46071
 H584 H 0.22739 0.65618 0.51779
 H585 H 0.23210 0.67861 0.54560
 H586 H 0.28874 0.65229 0.55514
 H587 H 0.28271 0.63035 0.52737
 C588 C 0.23863 0.66722 0.44696
 C589 C 0.19686 0.58353 0.51116
 C590 C 0.26081 0.66719 0.55277
 C591 C 0.30275 0.58362 0.48858
 C592 C 0.72322 0.90426 0.50857
 H593 H 0.73158 0.90497 0.52192
 C594 C 0.70753 0.91704 0.50572
 H595 H 0.70373 0.92740 0.51710
 C596 C 0.71804 0.88973 0.47761
 H597 H 0.72239 0.87933 0.46653
 C598 C 0.70224 0.90223 0.47416
 H599 H 0.69458 0.90127 0.46039
 N600 N 0.72802 0.89080 0.49471
 C601 C 0.75862 0.84415 0.52584
 H602 H 0.77194 0.84338 0.51736
 C603 C 0.75575 0.83131 0.54146
 H604 H 0.76692 0.82057 0.54484
 C605 C 0.72765 0.85873 0.53125
 H606 H 0.71662 0.86926 0.52710
 C607 C 0.72416 0.84614 0.54697
 H608 H 0.71059 0.84743 0.55499
 Zn609 Zn 0.74974 0.87430 0.49961
 N610 N 0.74476 0.85768 0.52120
 C611 C 0.78137 0.88962 0.52176
 N612 N 0.77139 0.89081 0.50467
 C613 C 0.77615 0.90441 0.49092
 C614 C 0.79180 0.91718 0.49387
 C615 C 0.79712 0.90213 0.52533
 C616 C 0.74102 0.84439 0.47308
 C617 C 0.74397 0.83168 0.45736
 C618 C 0.77551 0.84665 0.45205
 C619 C 0.77194 0.85910 0.46785
 N620 N 0.75481 0.85791 0.47786
 H621 H 0.77713 0.87904 0.53271
 H622 H 0.76772 0.90529 0.47762
 H623 H 0.79527 0.92798 0.48280
 H624 H 0.80508 0.90072 0.53888
 H625 H 0.72769 0.84351 0.48153
 H626 H 0.73286 0.82094 0.45388
 H627 H 0.78910 0.84804 0.44406
 H628 H 0.78292 0.86962 0.47212
 C629 C 0.73835 0.83224 0.55230
 C630 C 0.69676 0.91608 0.48834
 C631 C 0.76140 0.83275 0.44657
 C632 C 0.80256 0.91610 0.51125
 C633 C 0.00939 0.22358 0.40580
 H634 H 0.02262 0.23223 0.40655
 C635 C 0.00666 0.20781 0.41854
 H636 H 0.01785 0.20446 0.42916
 C637 C -0.02153 0.21796 0.39142
 H638 H -0.03261 0.22211 0.38103
 C639 C -0.02488 0.20209 0.40390
 H640 H -0.03838 0.19393 0.40266
 N641 N -0.00452 0.22821 0.39244
 C642 C 0.02633 0.25951 0.34620
 H643 H 0.01769 0.27280 0.34548
 C644 C 0.04196 0.25682 0.33337
 H645 H 0.04519 0.26810 0.32270
 C646 C 0.03210 0.22838 0.36059
 H647 H 0.02808 0.21721 0.37103
 C648 C 0.04784 0.22507 0.34801
 H649 H 0.05601 0.21150 0.34922
 Zn650 Zn 0.00013 0.25015 0.37609
 N651 N 0.02185 0.24548 0.35960
 C652 C 0.02178 0.28232 0.39138
 N653 N 0.00482 0.27200 0.39251
 C654 C -0.00905 0.27649 0.40602
 C655 C -0.00632 0.29220 0.41882
 C656 C 0.02511 0.29816 0.40389
 C657 C -0.02617 0.24092 0.34638
 C658 C -0.04191 0.24360 0.33376
 C659 C -0.04783 0.27523 0.34865
 C660 C -0.03198 0.27193 0.36101
 N661 N -0.02166 0.25489 0.35982
 H662 H 0.03287 0.27821 0.38093
 H663 H -0.02228 0.26786 0.40678
 H664 H -0.01769 0.29574 0.42924
 H665 H 0.03878 0.30607 0.40290
 H666 H -0.01747 0.22767 0.34550
 H667 H -0.04517 0.23236 0.32309
 H668 H -0.05607 0.28875 0.35004
 H669 H -0.02794 0.28305 0.37147
 C670 C 0.05298 0.23942 0.33420
 C671 C -0.01065 0.19680 0.41766
 C672 C -0.05302 0.26092 0.33484
 C673 C 0.01093 0.30330 0.41783
 C674 C -0.00877 0.72363 0.09491
 H675 H -0.02198 0.73233 0.09423
 C676 C -0.00610 0.70793 0.08207
 H677 H -0.01731 0.70470 0.07143
 C678 C 0.02214 0.71778 0.10923
 H679 H 0.03323 0.72180 0.11965
 C680 C 0.02543 0.70197 0.09665
 H681 H 0.03891 0.69374 0.09783
 N682 N 0.00516 0.72810 0.10829
 C683 C -0.02571 0.75896 0.15484
 H684 H -0.01712 0.77228 0.15564
 C685 C -0.04135 0.75617 0.16762
 H686 H -0.04490 0.76757 0.17806
 C687 C -0.03148 0.72801 0.14012
 H688 H -0.02738 0.71691 0.12964
 C689 C -0.04726 0.72462 0.15261
 H690 H -0.05513 0.71087 0.15157
 Zn691 Zn 0.00050 0.74989 0.12484
 N692 N -0.02122 0.74508 0.14129
 C693 C -0.02115 0.78229 0.10990
 N694 N -0.00420 0.77191 0.10863
 C695 C 0.00968 0.77655 0.09520
 C696 C 0.00703 0.79251 0.08268
 C697 C -0.02441 0.79834 0.09764
 C698 C 0.02690 0.74044 0.15448
 C699 C 0.04259 0.74313 0.16716
 C700 C 0.04829 0.77491 0.15252
 C701 C 0.03248 0.77162 0.14013
 N702 N 0.02229 0.75450 0.14116
 H703 H -0.03220 0.77813 0.12036
 H704 H 0.02285 0.76782 0.09425
 H705 H 0.01822 0.79588 0.07201
 H706 H -0.03784 0.80662 0.09910
 H707 H 0.01837 0.72708 0.15517
 H708 H 0.04622 0.73161 0.17742
 H709 H 0.05609 0.78872 0.15161
 H710 H 0.02828 0.78287 0.12984
 C711 C -0.05241 0.73882 0.16657
 C712 C 0.01118 0.69683 0.08287
 C713 C 0.05356 0.76054 0.16625
 C714 C -0.01018 0.80369 0.08384
 C715 C 0.49068 0.22306 0.59479
 H716 H 0.47747 0.23176 0.59401
 C717 C 0.49340 0.20729 0.58204
 H718 H 0.48222 0.20400 0.57139
 C719 C 0.52157 0.21732 0.60922
 H720 H 0.53263 0.22141 0.61964
 C721 C 0.52490 0.20144 0.59674
 H722 H 0.53838 0.19323 0.59800
 N723 N 0.50458 0.22763 0.60817
 C724 C 0.47372 0.25900 0.65439
 H725 H 0.48241 0.27225 0.65513
 C726 C 0.45805 0.25638 0.66717
 H727 H 0.45483 0.26767 0.67784
 C728 C 0.46786 0.22793 0.63995
 H729 H 0.47187 0.21675 0.62950
 C730 C 0.45208 0.22469 0.65248
 H731 H 0.44386 0.21116 0.65124
 Zn732 Zn 0.49994 0.24957 0.62452
 N733 N 0.47818 0.24497 0.64097
 C734 C 0.47834 0.28180 0.60920
 N735 N 0.49531 0.27145 0.60811
 C736 C 0.50922 0.27595 0.59465
 C737 C 0.50654 0.29170 0.58188
 C738 C 0.47505 0.29765 0.59669
 C739 C 0.52616 0.24025 0.65430
 C740 C 0.54184 0.24290 0.66699
 C741 C 0.54787 0.27450 0.65208
 C742 C 0.53205 0.27124 0.63968
 N743 N 0.52171 0.25422 0.64085
 H744 H 0.46727 0.27775 0.61969
 H745 H 0.52241 0.26724 0.59385
 H746 H 0.51772 0.29495 0.57117
 H747 H 0.46158 0.30589 0.59799
 H748 H 0.51751 0.22697 0.65509
 H749 H 0.54536 0.23143 0.67735
 H750 H 0.55581 0.28821 0.65106
 H751 H 0.52798 0.28242 0.62928
 C752 C 0.44696 0.23905 0.66630
 C753 C 0.51069 0.19622 0.58294
 C754 C 0.55297 0.26019 0.66594
 C755 C 0.48927 0.30281 0.58282
 C756 C 0.50853 0.72385 0.90482
 H757 H 0.52173 0.73255 0.90551
 C758 C 0.50586 0.70818 0.91769
 H759 H 0.51704 0.70498 0.92836
 C760 C 0.47767 0.71796 0.89044
 H761 H 0.46660 0.72196 0.87997
 C762 C 0.47437 0.70219 0.90305
 H763 H 0.46091 0.69395 0.90185
 N764 N 0.49463 0.72829 0.89139
 C765 C 0.52557 0.75903 0.84483
 H766 H 0.51693 0.77232 0.84394
 C767 C 0.54123 0.75619 0.83207
 H768 H 0.54448 0.76734 0.82128
 C769 C 0.53130 0.72808 0.85961
 H770 H 0.52725 0.71705 0.87018
 C771 C 0.54706 0.72462 0.84712
 H772 H 0.55523 0.71107 0.84851
 Zn773 Zn 0.49931 0.75004 0.87481
 N774 N 0.52105 0.74517 0.85840
 C775 C 0.52091 0.78245 0.88971
 N776 N 0.50398 0.77208 0.89098
 C777 C 0.49009 0.77673 0.90441
 C778 C 0.49271 0.79269 0.91692
 C779 C 0.52415 0.79851 0.90196
 C780 C 0.47296 0.74058 0.84515
 C781 C 0.45729 0.74328 0.83243
 C782 C 0.45161 0.77512 0.84695
 C783 C 0.46737 0.77181 0.85942
 N784 N 0.47754 0.75466 0.85845
 H785 H 0.53198 0.77829 0.87926
 H786 H 0.47693 0.76800 0.90536
 H787 H 0.48152 0.79607 0.92758
 H788 H 0.53757 0.80679 0.90050
 H789 H 0.48154 0.72725 0.84444
 H790 H 0.45397 0.73195 0.82186
 H791 H 0.44350 0.78874 0.84816
 H792 H 0.47148 0.78301 0.86976
 C793 C 0.55224 0.73880 0.83314
 C794 C 0.48860 0.69708 0.91688
 C795 C 0.44636 0.76073 0.83326
 C796 C 0.50991 0.80386 0.91575
 C797 C 0.09811 0.24870 0.30329
 C798 C 0.10122 0.23017 0.29499
 C799 C 0.08858 0.21465 0.29948
 C800 C 0.07290 0.21764 0.31223
 C801 C 0.16029 0.21868 0.24714
 C802 C 0.08243 0.25172 0.31604
 C803 C 0.11737 0.22706 0.28188
 C804 C 0.13090 0.22444 0.27091
 C805 C 0.14675 0.22135 0.25808
 C806 C 0.06964 0.23622 0.32066
 H807 H 0.10784 0.26079 0.29996
 H808 H 0.09081 0.20026 0.29309
 H809 H 0.06317 0.20549 0.31529
 H810 H 0.08047 0.26612 0.32247
 C811 C 0.58797 0.71362 0.79886
 C812 C 0.60062 0.72908 0.79422
 C813 C 0.59748 0.74771 0.80228
 C814 C 0.58176 0.75089 0.81493
 C815 C 0.65984 0.71719 0.74665
 C816 C 0.57224 0.71676 0.81151
 C817 C 0.61681 0.72582 0.78119
 C818 C 0.63038 0.72310 0.77029
 C819 C 0.64627 0.71992 0.75753
 C820 C 0.56895 0.73544 0.81970
 H821 H 0.59023 0.69915 0.79265
 H822 H 0.60722 0.75977 0.79883
 H823 H 0.57976 0.76536 0.82119
 H824 H 0.56251 0.70464 0.81468
 C825 C 0.41074 0.78554 0.79875
 C826 C 0.39799 0.77009 0.79445
 C827 C 0.40104 0.75157 0.80279
 C828 C 0.41677 0.74850 0.81540
 C829 C 0.33877 0.78184 0.74712
 C830 C 0.42647 0.78252 0.81136
 C831 C 0.38178 0.77325 0.78150
 C832 C 0.36821 0.77593 0.77066
 C833 C 0.35233 0.77910 0.75796
 C834 C 0.42967 0.76395 0.81984
 H835 H 0.40855 0.79992 0.79233
 H836 H 0.39123 0.73951 0.79960
 H837 H 0.41869 0.73412 0.82188
 H838 H 0.43628 0.79463 0.81427
 C839 C -0.09842 0.25146 0.30461
 C840 C -0.10174 0.26999 0.29642
 C841 C -0.08918 0.28558 0.30078
 C842 C -0.07334 0.28266 0.31328
 C843 C -0.16119 0.28076 0.24914
 C844 C -0.08259 0.24850 0.31710
 C845 C -0.11802 0.27299 0.28352
 C846 C -0.13164 0.27547 0.27269
 C847 C -0.14758 0.27834 0.26000
 C848 C -0.06986 0.26407 0.32158
 H849 H -0.10809 0.23930 0.30137
 H850 H -0.09158 0.29998 0.29447
 H851 H -0.06366 0.29488 0.31624
 H852 H -0.08045 0.23409 0.32346
 C853 C -0.10218 0.72366 0.18586
 C854 C -0.10085 0.72926 0.20544
 C855 C -0.08371 0.73798 0.21235
 C856 C -0.06795 0.74110 0.19973
 C857 C -0.16016 0.71757 0.25294
 C858 C -0.08644 0.72675 0.17321
 C859 C -0.11706 0.72606 0.21845
 C860 C -0.13065 0.72338 0.22933
 C861 C -0.14656 0.72025 0.24207
 C862 C -0.06913 0.73552 0.18000
 H863 H -0.11540 0.71695 0.18034
 H864 H -0.08250 0.74232 0.22750
 H865 H -0.05475 0.74764 0.20546
 H866 H -0.08790 0.72253 0.15806
 C867 C 0.40176 0.24857 0.69705
 C868 C 0.39855 0.23005 0.70533
 C869 C 0.41113 0.21447 0.70087
 C870 C 0.42687 0.21737 0.68817
 C871 C 0.33928 0.21889 0.75300
 C872 C 0.41750 0.25151 0.68436
 C873 C 0.38234 0.22704 0.71839
 C874 C 0.36876 0.22449 0.72932
 C875 C 0.35287 0.22149 0.74210
 C876 C 0.43024 0.23593 0.67977
 H877 H 0.39208 0.26072 0.70036
 H878 H 0.40881 0.20008 0.70725
 H879 H 0.43655 0.20516 0.68514
 H880 H 0.41955 0.26590 0.67794
 C881 C 0.60288 0.27495 0.68496
 C882 C 0.60156 0.26924 0.70452
 C883 C 0.58438 0.26060 0.71151
 C884 C 0.56857 0.25765 0.69898
 C885 C 0.66098 0.28010 0.75179
 C886 C 0.58709 0.27204 0.67241
 C887 C 0.61783 0.27223 0.71743
 C888 C 0.63145 0.27472 0.72825
 C889 C 0.64738 0.27762 0.74094
 C890 C 0.56975 0.26334 0.67928
 H891 H 0.61613 0.28160 0.67939
 H892 H 0.58318 0.25617 0.72664
 H893 H 0.55534 0.25117 0.70477
 H894 H 0.58854 0.27634 0.65727
 C895 C 0.08494 0.76105 0.21183
 C896 C 0.10199 0.77000 0.20492
 C897 C 0.10326 0.77582 0.18538
 C898 C 0.08753 0.77273 0.17280
 C899 C 0.16111 0.78194 0.25231
 C900 C 0.06919 0.75794 0.19927
 C901 C 0.11818 0.77324 0.21788
 C902 C 0.13173 0.77598 0.22873
 C903 C 0.14758 0.77919 0.24145
 C904 C 0.07030 0.76376 0.17960
 H905 H 0.08378 0.75654 0.22694
 H906 H 0.11641 0.78271 0.17987
 H907 H 0.08893 0.77715 0.15769
 H908 H 0.05605 0.75123 0.20501
 C909 C 0.31409 0.10334 0.22448
 C910 C 0.29451 0.10195 0.23017
 C911 C 0.28767 0.08470 0.23894
 C912 C 0.30034 0.06889 0.24201
 C913 C 0.24671 0.16130 0.21832
 C914 C 0.32679 0.08754 0.22751
 C915 C 0.28144 0.11819 0.22696
 C916 C 0.27049 0.13179 0.22425
 C917 C 0.25766 0.14771 0.22106
 C918 C 0.32005 0.07012 0.23631
 H919 H 0.31956 0.11664 0.21772
 H920 H 0.27252 0.08345 0.24335
 H921 H 0.29465 0.05559 0.24857
 H922 H 0.34193 0.08904 0.22319
 C923 C 0.81376 0.60184 0.72471
 C924 C 0.79414 0.60045 0.73027
 C925 C 0.78725 0.58321 0.73904
 C926 C 0.79992 0.56742 0.74224
 C927 C 0.74634 0.65975 0.71812
 C928 C 0.82645 0.58607 0.72788
 C929 C 0.78107 0.61668 0.72696
 C930 C 0.77012 0.63027 0.72418
 C931 C 0.75730 0.64617 0.72091
 C932 C 0.81968 0.56867 0.73669
 H933 H 0.81925 0.61514 0.71796
 H934 H 0.77207 0.58195 0.74335
 H935 H 0.79420 0.55414 0.74880
 H936 H 0.84162 0.58758 0.72367
 C937 C 0.81364 0.39513 0.77586
 C938 C 0.79412 0.39650 0.77000
 C939 C 0.78731 0.41381 0.76134
 C940 C 0.79995 0.42969 0.75850
 C941 C 0.74647 0.33682 0.78062
 C942 C 0.82630 0.41099 0.77305
 C943 C 0.78110 0.38017 0.77289
 C944 C 0.77018 0.36649 0.77531
 C945 C 0.75739 0.35049 0.77816
 C946 C 0.81961 0.42846 0.76433
 H947 H 0.81908 0.38178 0.78254
 H948 H 0.77222 0.41505 0.75680
 H949 H 0.79428 0.44301 0.75199
 H950 H 0.84140 0.40949 0.77747
 C951 C 0.28757 -0.08465 0.26090
 C952 C 0.29440 -0.10198 0.26951
 C953 C 0.31399 -0.10345 0.27510
 C954 C 0.32670 -0.08767 0.27210
 C955 C 0.24658 -0.16134 0.28116
 C956 C 0.30026 -0.06885 0.25788
 C957 C 0.28131 -0.11822 0.27266
 C958 C 0.27036 -0.13182 0.27531
 C959 C 0.25753 -0.14773 0.27845
 C960 C 0.31998 -0.07017 0.26345
 H961 H 0.27242 -0.08332 0.25658
 H962 H 0.31944 -0.11682 0.28173
 H963 H 0.34185 -0.08924 0.27633
 H964 H 0.29458 -0.05550 0.25143
 C965 C 0.21266 -0.08431 0.73879
 C966 C 0.20574 -0.10160 0.73019
 C967 C 0.18614 -0.10298 0.72467
 C968 C 0.17348 -0.08714 0.72773
 C969 C 0.25334 -0.16118 0.71840
 C970 C 0.20003 -0.06846 0.74188
 C971 C 0.21877 -0.11790 0.72699
 C972 C 0.22967 -0.13155 0.72430
 C973 C 0.24244 -0.14753 0.72113
 C974 C 0.18028 -0.06969 0.73637
 H975 H 0.22783 -0.08307 0.74306
 H976 H 0.18062 -0.11632 0.71804
 H977 H 0.15831 -0.08864 0.72356
 H978 H 0.20577 -0.05515 0.74832
 C979 C 0.70138 0.40973 0.21460
 C980 C 0.70570 0.39713 0.23013
 C981 C 0.69736 0.40051 0.24848
 C982 C 0.68475 0.41643 0.25129
 C983 C 0.75330 0.33729 0.21977
 C984 C 0.68876 0.42565 0.21737
 C985 C 0.71872 0.38076 0.22727
 C986 C 0.72962 0.36705 0.22490
 C987 C 0.74239 0.35100 0.22213
 C988 C 0.68030 0.42919 0.23577
 H989 H 0.70780 0.40728 0.20035
 H990 H 0.70056 0.39082 0.26059
 H991 H 0.67828 0.41861 0.26555
 H992 H 0.68583 0.43535 0.20520
 C993 C 0.70165 0.58853 0.28459
 C994 C 0.70626 0.60124 0.26922
 C995 C 0.69809 0.59815 0.25079
 C996 C 0.68536 0.58241 0.24773
 C997 C 0.75416 0.66049 0.28086
 C998 C 0.68892 0.57278 0.28157
 C999 C 0.71937 0.61745 0.27236
 C1000 C 0.73035 0.63103 0.27501
 C1001 C 0.74319 0.64692 0.27815
 C1002 C 0.68062 0.56953 0.26309
 H1003 H 0.70795 0.59075 0.29891
 H1004 H 0.70151 0.60794 0.23880
 H1005 H 0.67902 0.58045 0.23341
 H1006 H 0.68577 0.56299 0.29362
 C1007 C 0.20156 0.08963 0.78515
 C1008 C 0.20597 0.10239 0.76976
 C1009 C 0.19766 0.09928 0.75139
 C1010 C 0.18497 0.08347 0.74843
 C1011 C 0.25368 0.16183 0.78115
 C1012 C 0.18887 0.07383 0.78223
 C1013 C 0.21902 0.11866 0.77281
 C1014 C 0.22995 0.13228 0.77541
 C1015 C 0.24275 0.14822 0.77849
 C1016 C 0.18042 0.07057 0.76382
 H1017 H 0.20797 0.09187 0.79941
 H1018 H 0.20093 0.10910 0.73939
 H1019 H 0.17851 0.08151 0.73416
 H1020 H 0.18588 0.06401 0.79429
 C1021 C 0.24725 0.30318 0.09802
 C1022 C 0.22880 0.29489 0.10111
 C1023 C 0.21349 0.29927 0.08834
 C1024 C 0.21659 0.31191 0.07256
 C1025 C 0.21720 0.24744 0.16060
 C1026 C 0.25038 0.31581 0.08223
 C1027 C 0.22560 0.28190 0.11737
 C1028 C 0.22293 0.27103 0.13100
 C1029 C 0.21983 0.25831 0.14697
 C1030 C 0.23508 0.32033 0.06932
 H1031 H 0.25919 0.29993 0.10784
 H1032 H 0.19917 0.29289 0.09057
 H1033 H 0.20459 0.31489 0.06274
 H1034 H 0.26471 0.32225 0.08029
 C1035 C 0.74712 0.80159 0.59773
 C1036 C 0.72868 0.79328 0.60077
 C1037 C 0.71339 0.79767 0.58798
 C1038 C 0.71651 0.81033 0.57221
 C1039 C 0.71697 0.74582 0.66022
 C1040 C 0.75028 0.81424 0.58196
 C1041 C 0.72544 0.78028 0.61701
 C1042 C 0.72276 0.76941 0.63063
 C1043 C 0.71963 0.75668 0.64659
 C1044 C 0.73501 0.81876 0.56902
 H1045 H 0.75905 0.79833 0.60757
 H1046 H 0.69907 0.79128 0.59016
 H1047 H 0.70453 0.81331 0.56237
 H1048 H 0.76461 0.82069 0.58006
 C1049 C 0.78661 0.79847 0.41079
 C1050 C 0.77138 0.79410 0.39793
 C1051 C 0.75289 0.80235 0.40096
 C1052 C 0.74963 0.81490 0.41677
 C1053 C 0.78337 0.74671 0.33847
 C1054 C 0.78339 0.81104 0.42660
 C1055 C 0.77470 0.78116 0.38166
 C1056 C 0.77746 0.77031 0.36803
 C1057 C 0.78066 0.75759 0.35209
 C1058 C 0.76485 0.81940 0.42978
 H1059 H 0.80096 0.79212 0.40861
 H1060 H 0.74101 0.79910 0.39107
 H1061 H 0.73527 0.82130 0.41867
 H1062 H 0.79533 0.81400 0.43649
 C1063 C 0.28632 0.29990 -0.08908
 C1064 C 0.27106 0.29552 -0.10190
 C1065 C 0.25258 0.30374 -0.09882
 C1066 C 0.24935 0.31629 -0.08300
 C1067 C 0.28295 0.24815 -0.16140
 C1068 C 0.28314 0.31246 -0.07326
 C1069 C 0.27436 0.28258 -0.11818
 C1070 C 0.27709 0.27174 -0.13182
 C1071 C 0.28027 0.25902 -0.14778
 C1072 C 0.26460 0.32081 -0.07003
 H1073 H 0.30068 0.29356 -0.09130
 H1074 H 0.24067 0.30049 -0.10868
 H1075 H 0.23499 0.32268 -0.08106
 H1076 H 0.29510 0.31543 -0.06340
 C1077 C 0.74350 0.20773 -0.08970
 C1078 C 0.72898 0.20291 -0.10319
 C1079 C 0.71778 0.18592 -0.10049
 C1080 C 0.72105 0.17382 -0.08433
 C1081 C 0.71700 0.24974 -0.16305
 C1082 C 0.74679 0.19567 -0.07354
 C1083 C 0.72555 0.21548 -0.11972
 C1084 C 0.72277 0.22616 -0.13346
 C1085 C 0.71962 0.23882 -0.14946
 C1086 C 0.73558 0.17859 -0.07064
 H1087 H 0.75230 0.22081 -0.09168
 H1088 H 0.70646 0.18209 -0.11082
 H1089 H 0.71203 0.16091 -0.08239
 H1090 H 0.75826 0.19959 -0.06342
 C1091 C 0.21384 0.70165 0.41111
 C1092 C 0.22920 0.70601 0.39835
 C1093 C 0.24764 0.69773 0.40146
 C1094 C 0.25072 0.68513 0.41726
 C1095 C 0.21781 0.75338 0.33879
 C1096 C 0.21688 0.68904 0.42692
 C1097 C 0.22606 0.71898 0.38207
 C1098 C 0.22344 0.72983 0.36842
 C1099 C 0.22040 0.74253 0.35244
 C1100 C 0.23537 0.68063 0.43018
 H1101 H 0.19951 0.70802 0.40887
 H1102 H 0.25963 0.70097 0.39163
 H1103 H 0.26505 0.67870 0.41923
 H1104 H 0.20483 0.68607 0.43674
 C1105 C 0.27604 0.68627 0.60249
 C1106 C 0.27028 0.70597 0.60134
 C1107 C 0.26145 0.71303 0.58434
 C1108 C 0.25836 0.70044 0.56854
 C1109 C 0.28177 0.75334 0.66085
 C1110 C 0.27298 0.67366 0.58669
 C1111 C 0.27342 0.71894 0.61762
 C1112 C 0.27605 0.72979 0.63125
 C1113 C 0.27913 0.74249 0.64722
 C1114 C 0.26410 0.68060 0.56953
 H1115 H 0.28284 0.68064 0.61560
 H1116 H 0.25698 0.72827 0.58328
 H1117 H 0.25173 0.70629 0.55545
 H1118 H 0.27733 0.65841 0.58801
 C1119 C 0.75216 0.19831 0.09857
 C1120 C 0.77109 0.20129 0.10562
 C1121 C 0.78687 0.19178 0.09669
 C1122 C 0.78377 0.17943 0.08070
 C1123 C 0.78262 0.24941 0.16451
 C1124 C 0.74902 0.18597 0.08260
 C1125 C 0.77431 0.21428 0.12185
 C1126 C 0.77697 0.22528 0.13537
 C1127 C 0.78003 0.23825 0.15112
 C1128 C 0.76481 0.17643 0.07343
 H1129 H 0.73984 0.20566 0.10534
 H1130 H 0.80158 0.19395 0.10205
 H1131 H 0.79619 0.17211 0.07412
 H1132 H 0.73429 0.18417 0.07719
 C1133 C 0.46460 0.33870 0.54834
 C1134 C 0.48001 0.35141 0.54381
 C1135 C 0.49844 0.34826 0.55201
 C1136 C 0.50147 0.33246 0.56469
 C1137 C 0.46847 0.41086 0.49612
 C1138 C 0.46759 0.32290 0.56103
 C1139 C 0.47690 0.36768 0.53076
 C1140 C 0.47427 0.38130 0.51983
 C1141 C 0.47116 0.39724 0.50704
 C1142 C 0.48607 0.31960 0.56935
 H1143 H 0.45029 0.34097 0.54203
 H1144 H 0.51046 0.35805 0.54864
 H1145 H 0.51579 0.33046 0.57105
 H1146 H 0.45552 0.31312 0.56411
 C1147 C -0.03463 0.84048 0.05014
 C1148 C -0.01913 0.85317 0.04587
 C1149 C -0.00072 0.84972 0.05399
 C1150 C 0.00221 0.83363 0.06632
 C1151 C -0.02995 0.91367 -0.00068
 C1152 C -0.03174 0.82438 0.06248
 C1153 C -0.02211 0.86974 0.03316
 C1154 C -0.02460 0.88360 0.02250
 C1155 C -0.02749 0.89983 0.01001
 C1156 C -0.01328 0.82077 0.07072
 H1157 H -0.04893 0.84298 0.04388
 H1158 H 0.01136 0.85949 0.05082
 H1159 H 0.01652 0.83140 0.07263
 H1160 H -0.04388 0.81462 0.06537
 C1161 C 0.00193 0.65140 0.05210
 C1162 C 0.02034 0.64824 0.04378
 C1163 C 0.03576 0.66095 0.04820
 C1164 C 0.03280 0.67675 0.06090
 C1165 C 0.03176 0.58864 -0.00379
 C1166 C -0.00107 0.66720 0.06480
 C1167 C 0.02342 0.63195 0.03074
 C1168 C 0.02603 0.61830 0.01983
 C1169 C 0.02910 0.60231 0.00708
 C1170 C 0.01434 0.68006 0.06936
 H1171 H -0.01010 0.64161 0.04883
 H1172 H 0.05006 0.65868 0.04180
 H1173 H 0.04489 0.68654 0.06391
 H1174 H -0.01538 0.66919 0.07126
 C1175 C 0.50165 0.15069 0.55225
 C1176 C 0.52010 0.14757 0.54399
 C1177 C 0.53547 0.16033 0.54844
 C1178 C 0.53243 0.17614 0.56110
 C1179 C 0.53182 0.08809 0.49635
 C1180 C 0.49857 0.16651 0.56491
 C1181 C 0.52326 0.13129 0.53096
 C1182 C 0.52593 0.11766 0.52005
 C1183 C 0.52910 0.10171 0.50727
 C1184 C 0.51394 0.17941 0.56949
 H1185 H 0.48966 0.14087 0.54895
 H1186 H 0.54979 0.15808 0.54208
 H1187 H 0.54448 0.18596 0.56412
 H1188 H 0.48424 0.16848 0.57132
 C1189 C -0.00166 0.15120 0.44829
 C1190 C -0.02010 0.14814 0.45658
 C1191 C -0.03545 0.16097 0.45219
 C1192 C -0.03240 0.17679 0.43953
 C1193 C -0.03187 0.08864 0.50417
 C1194 C 0.00143 0.16702 0.43564
 C1195 C -0.02327 0.13185 0.46960
 C1196 C -0.02596 0.11822 0.48050
 C1197 C -0.02914 0.10226 0.49327
 C1198 C -0.01391 0.18000 0.43111
 H1199 H 0.01031 0.14132 0.45155
 H1200 H -0.04976 0.15877 0.45857
 H1201 H -0.04443 0.18667 0.43655
 H1202 H 0.01575 0.16895 0.42920
 C1203 C 0.46399 0.66131 0.95161
 C1204 C 0.47942 0.64861 0.95610
 C1205 C 0.49784 0.65173 0.94781
 C1206 C 0.50084 0.66749 0.93507
 C1207 C 0.46802 0.58918 1.00389
 C1208 C 0.46695 0.67707 0.93885
 C1209 C 0.47634 0.63237 0.96920
 C1210 C 0.47374 0.61876 0.98016
 C1211 C 0.47067 0.60281 0.99297
 C1212 C 0.48542 0.68034 0.93043
 H1213 H 0.44968 0.65905 0.95799
 H1214 H 0.50988 0.64196 0.95115
 H1215 H 0.51516 0.66947 0.92863
 H1216 H 0.45486 0.68684 0.93579
 C1217 C 0.50039 0.84989 0.94560
 C1218 C 0.51879 0.85334 0.95372
 C1219 C 0.53430 0.84064 0.94946
 C1220 C 0.53144 0.82455 0.93711
 C1221 C 0.52959 0.91380 1.00027
 C1222 C 0.49748 0.83381 0.93326
 C1223 C 0.52175 0.86989 0.96644
 C1224 C 0.52422 0.88375 0.97710
 C1225 C 0.52711 0.89996 0.98959
 C1226 C 0.51299 0.82095 0.92887
 H1227 H 0.48829 0.85966 0.94876
 H1228 H 0.54860 0.84314 0.95571
 H1229 H 0.54359 0.81478 0.93422
 H1230 H 0.48318 0.83158 0.92695
 C1231 C 0.01165 0.33454 0.46370
 C1232 C 0.02038 0.35182 0.45686
 C1233 C 0.02601 0.35326 0.43729
 C1234 C 0.02295 0.33750 0.42458
 C1235 C 0.03207 0.41113 0.50463
 C1236 C 0.00856 0.31877 0.45102
 C1237 C 0.02356 0.36804 0.46993
 C1238 C 0.02623 0.38163 0.48088
 C1239 C 0.02938 0.39754 0.49369
 C1240 C 0.01418 0.32006 0.43131
 H1241 H 0.00728 0.33325 0.47884
 H1242 H 0.03274 0.36659 0.43183
 H1243 H 0.02721 0.33904 0.40945
 H1244 H 0.00201 0.30546 0.45670
 C1245 C 0.33434 0.53774 0.48773
 C1246 C 0.35137 0.54478 0.47886
 C1247 C 0.35253 0.56449 0.47315
 C1248 C 0.33673 0.57713 0.47629
 C1249 C 0.41087 0.49727 0.46706
 C1250 C 0.31852 0.55035 0.49091
 C1251 C 0.36765 0.53179 0.47561
 C1252 C 0.38128 0.52091 0.47291
 C1253 C 0.39724 0.50816 0.46975
 C1254 C 0.31953 0.57020 0.48522
 H1255 H 0.33326 0.52249 0.49216
 H1256 H 0.36567 0.57011 0.46631
 H1257 H 0.33805 0.59238 0.47198
 H1258 H 0.30541 0.54451 0.49757
 C1259 C 0.85642 0.06824 -0.02341
 C1260 C 0.85589 0.04884 -0.01665
 C1261 C 0.83928 0.04190 -0.00694
 C1262 C 0.82322 0.05426 -0.00407
 C1263 C 0.91520 0.00111 -0.02855
 C1264 C 0.84037 0.08063 -0.02057
 C1265 C 0.87228 0.03598 -0.01984
 C1266 C 0.88590 0.02508 -0.02255
 C1267 C 0.90175 0.01220 -0.02576
 C1268 C 0.82356 0.07376 -0.01089
 H1269 H 0.86923 0.07378 -0.03091
 H1270 H 0.83869 0.02688 -0.00171
 H1271 H 0.81041 0.04844 0.00318
 H1272 H 0.84117 0.09564 -0.02577
 C1273 C 0.64708 0.06630 0.02658
 C1274 C 0.64499 0.04905 0.01567
 C1275 C 0.65918 0.04398 0.00184
 C1276 C 0.67549 0.05601 -0.00096
 C1277 C 0.58539 0.00183 0.02773
 C1278 C 0.66336 0.07836 0.02380
 C1279 C 0.62848 0.03637 0.01887
 C1280 C 0.61478 0.02560 0.02161
 C1281 C 0.59888 0.01284 0.02489
 C1282 C 0.67781 0.07330 0.01006
 H1283 H 0.63621 0.07032 0.03737
 H1284 H 0.65769 0.03069 -0.00672
 H1285 H 0.68621 0.05185 -0.01183
 H1286 H 0.66485 0.09143 0.03267
 C1287 C 0.14719 0.56425 0.52669
 C1288 C 0.14843 0.54454 0.52099
 C1289 C 0.16548 0.53755 0.51208
 C1290 C 0.18123 0.55021 0.50887
 C1291 C 0.08922 0.49680 0.53297
 C1292 C 0.16293 0.57693 0.52351
 C1293 C 0.13223 0.53149 0.52428
 C1294 C 0.11866 0.52056 0.52703
 C1295 C 0.10278 0.50775 0.53024
 C1296 C 0.18014 0.57006 0.51455
 H1297 H 0.13404 0.56982 0.53354
 H1298 H 0.16662 0.52231 0.50766
 H1299 H 0.19436 0.54441 0.50219
 H1300 H 0.16153 0.59218 0.52781
 C1301 C 0.15101 0.44800 -0.00243
 C1302 C 0.14796 0.45632 -0.02084
 C1303 C 0.16081 0.45199 -0.03615
 C1304 C 0.17664 0.43939 -0.03308
 C1305 C 0.08834 0.50370 -0.03237
 C1306 C 0.16684 0.43541 0.00068
 C1307 C 0.13166 0.46928 -0.02402
 C1308 C 0.11800 0.48013 -0.02667
 C1309 C 0.10201 0.49284 -0.02975
 C1310 C 0.17984 0.43095 -0.01462
 H1311 H 0.14112 0.45121 0.00951
 H1312 H 0.15862 0.45840 -0.05044
 H1313 H 0.18653 0.43646 -0.04508
 H1314 H 0.16875 0.42894 0.01498
 C1315 C 0.66511 0.96193 0.48760
 C1316 C 0.64816 0.95491 0.47863
 C1317 C 0.64708 0.93522 0.47282
 C1318 C 0.66287 0.92260 0.47596
 C1319 C 0.58866 1.00240 0.46694
 C1320 C 0.68092 0.94932 0.49077
 C1321 C 0.63188 0.96789 0.47541
 C1322 C 0.61825 0.97877 0.47272
 C1323 C 0.60229 0.99150 0.46959
 C1324 C 0.67998 0.92950 0.48498
 H1325 H 0.66613 0.97715 0.49211
 H1326 H 0.63400 0.92962 0.46592
 H1327 H 0.66160 0.90737 0.47157
 H1328 H 0.69397 0.95515 0.49751
 C1329 C 0.83820 0.95040 0.53646
 C1330 C 0.85110 0.95485 0.52124
 C1331 C 0.84814 0.94668 0.50276
 C1332 C 0.83236 0.93410 0.49949
 C1333 C 0.91052 1.00225 0.53327
 C1334 C 0.82241 0.93781 0.53324
 C1335 C 0.86735 0.96781 0.52458
 C1336 C 0.88097 0.97866 0.52735
 C1337 C 0.89691 0.99138 0.53056
 C1338 C 0.81931 0.92951 0.51470
 H1339 H 0.84031 0.95670 0.55082
 H1340 H 0.85807 0.94999 0.49088
 H1341 H 0.83052 0.92774 0.48514
 H1342 H 0.81248 0.93478 0.54517
 C1343 C 0.34808 0.44812 0.00242
 C1344 C 0.35113 0.45632 0.02088
 C1345 C 0.33831 0.45188 0.03617
 C1346 C 0.32250 0.43930 0.03304
 C1347 C 0.41067 0.50366 0.03253
 C1348 C 0.33228 0.43554 -0.00075
 C1349 C 0.36742 0.46926 0.02411
 C1350 C 0.38106 0.48010 0.02680
 C1351 C 0.39703 0.49280 0.02991
 C1352 C 0.31930 0.43098 0.01453
 H1353 H 0.35795 0.45141 -0.00951
 H1354 H 0.34050 0.45819 0.05051
 H1355 H 0.31263 0.43628 0.04503
 H1356 H 0.33036 0.42918 -0.01509
 C1357 C 0.54900 0.46421 0.33774
 C1358 C 0.54457 0.47974 0.35039
 C1359 C 0.55281 0.49827 0.34721
 C1360 C 0.56545 0.50130 0.33145
 C1361 C 0.49713 0.46825 0.40976
 C1362 C 0.56164 0.46719 0.32198
 C1363 C 0.53158 0.47663 0.36663
 C1364 C 0.52071 0.47400 0.38023
 C1365 C 0.50799 0.47091 0.39616
 C1366 C 0.57003 0.48578 0.31866
 H1367 H 0.54265 0.44982 0.34004
 H1368 H 0.54952 0.51038 0.35694
 H1369 H 0.57186 0.51570 0.32943
 H1370 H 0.56466 0.45503 0.31226
 C1371 C 0.06541 -0.02431 0.85400
 C1372 C 0.04582 -0.01855 0.85293
 C1373 C 0.03868 -0.00999 0.83581
 C1374 C 0.05107 -0.00717 0.81982
 C1375 C -0.00085 -0.02903 0.91307
 C1376 C 0.07782 -0.02152 0.83803
 C1377 C 0.03306 -0.02142 0.86939
 C1378 C 0.02237 -0.02381 0.88317
 C1379 C 0.00985 -0.02662 0.89930
 C1380 C 0.07080 -0.01290 0.82075
 H1381 H 0.07110 -0.03090 0.86720
 H1382 H 0.02353 -0.00554 0.83480
 H1383 H 0.04516 -0.00075 0.80665
 H1384 H 0.09298 -0.02585 0.83929
 C1385 C 0.05245 0.00145 0.65276
 C1386 C 0.04418 0.01998 0.64954
 C1387 C 0.04866 0.03557 0.66205
 C1388 C 0.06136 0.03267 0.67772
 C1389 C -0.00340 0.03121 0.59044
 C1390 C 0.06515 -0.00149 0.66843
 C1391 C 0.03113 0.02300 0.63339
 C1392 C 0.02022 0.02555 0.61986
 C1393 C 0.00747 0.02858 0.60400
 C1394 C 0.06977 0.01410 0.68109
 H1395 H 0.04913 -0.01071 0.64313
 H1396 H 0.04229 0.04996 0.65973
 H1397 H 0.06441 0.04490 0.68735
 H1398 H 0.07157 -0.01589 0.67048
 C1399 C 0.53811 0.51133 0.16499
 C1400 C 0.54501 0.52016 0.14788
 C1401 C 0.56461 0.52581 0.14650
 C1402 C 0.57726 0.52267 0.16217
 C1403 C 0.49732 0.53220 0.08903
 C1404 C 0.55074 0.50816 0.18067
 C1405 C 0.53198 0.52344 0.13177
 C1406 C 0.52106 0.52620 0.11828
 C1407 C 0.50826 0.52943 0.10250
 C1408 C 0.57047 0.51380 0.17944
 H1409 H 0.52296 0.50694 0.16624
 H1410 H 0.57011 0.53262 0.13331
 H1411 H 0.59241 0.52695 0.16068
 H1412 H 0.54501 0.50154 0.19385
 C1413 C 0.45041 -0.03441 0.15964
 C1414 C 0.45462 -0.01867 0.14719
 C1415 C 0.44642 -0.00019 0.15083
 C1416 C 0.43406 0.00257 0.16685
 C1417 C 0.50098 -0.02901 0.08677
 C1418 C 0.43805 -0.03170 0.17567
 C1419 C 0.46731 -0.02149 0.13067
 C1420 C 0.47793 -0.02385 0.11682
 C1421 C 0.49036 -0.02662 0.10061
 C1422 C 0.42972 -0.01317 0.17946
 H1423 H 0.45673 -0.04877 0.15699
 H1424 H 0.44953 0.01209 0.14125
 H1425 H 0.42768 0.01693 0.16922
 H1426 H 0.43520 -0.04404 0.18524
 C1427 C 0.96259 0.48748 0.66697
 C1428 C 0.95574 0.47873 0.64983
 C1429 C 0.93618 0.47298 0.64851
 C1430 C 0.92351 0.47595 0.66425
 C1431 C 1.00326 0.46742 0.59048
 C1432 C 0.94995 0.49048 0.68272
 C1433 C 0.96877 0.47566 0.63362
 C1434 C 0.97966 0.47307 0.62002
 C1435 C 0.99240 0.47003 0.60410
 C1436 C 0.93025 0.48474 0.68155
 H1437 H 0.97773 0.49194 0.66817
 H1438 H 0.93071 0.46624 0.63529
 H1439 H 0.90838 0.47160 0.66279
 H1440 H 0.95564 0.49705 0.69592
 C1441 C 0.93528 0.52494 0.85371
 C1442 C 0.95487 0.51922 0.85240
 C1443 C 0.96179 0.51029 0.83535
 C1444 C 0.94919 0.50709 0.81966
 C1445 C 1.00248 0.53143 0.91127
 C1446 C 0.92265 0.52177 0.83803
 C1447 C 0.96787 0.52255 0.86853
 C1448 C 0.97877 0.52534 0.88202
 C1449 C 0.99155 0.52862 0.89780
 C1450 C 0.92947 0.51281 0.82081
 H1451 H 0.92975 0.53183 0.86686
 H1452 H 0.97694 0.50585 0.83417
 H1453 H 0.95495 0.50040 0.80652
 H1454 H 0.90751 0.52611 0.83946
 C1455 C 0.43618 0.02508 0.35242
 C1456 C 0.45576 0.01934 0.35101
 C1457 C 0.46264 0.01062 0.33383
 C1458 C 0.45001 0.00766 0.31812
 C1459 C 0.50328 0.03071 0.41012
 C1460 C 0.42353 0.02215 0.33672
 C1461 C 0.46878 0.02241 0.36717
 C1462 C 0.47967 0.02500 0.38071
 C1463 C 0.49241 0.02806 0.39657
 C1464 C 0.43030 0.01340 0.31937
 H1465 H 0.43069 0.03179 0.36567
 H1466 H 0.47778 0.00617 0.33256
 H1467 H 0.45574 0.00113 0.30488
 H1468 H 0.40839 0.02649 0.33823
   
