data_POSCAR
  _audit_creation_date              2014-09-24
  _audit_creation_method            'ToBaCCo'
  _symmetry_space_group_name_H-M    'P1'
  _symmetry_Int_Tables_number       1
  _symmetry_cell_setting            triclinic
  loop_
  _symmetry_equiv_pos_as_xyz
 x,y,z
_cell_length_a 66.0437
_cell_length_b 65.9766
_cell_length_c 65.8743
_cell_angle_alpha 89.961300
_cell_angle_beta 89.984400
_cell_angle_gamma 89.966500
loop_
  _atom_site_label
  _atom_site_type_symbol
  _atom_site_fract_x
  _atom_site_fract_y
  _atom_site_fract_z
N1 N 0.35997 1.34670 0.30424
 N2 N 0.34591 1.36078 0.30444
 C3 C 0.34896 1.37344 0.28866
 C4 C 0.36595 1.36699 0.27794
 C5 C 0.37244 1.34989 0.28842
 H6 H 0.33954 1.38641 0.28539
 H7 H 0.38526 1.34035 0.28492
 Cu8 Cu 0.32516 1.36123 0.32551
 Cu9 Cu 0.36117 1.32518 0.32443
 Cu10 Cu 0.32403 1.32507 0.36155
 N11 N 0.30409 1.36070 0.34626
 N12 N 0.30384 1.34657 0.36030
 C13 C 0.28801 1.34973 0.37276
 C14 C 0.27758 1.36685 0.36627
 C15 C 0.28834 1.37335 0.34930
 H16 H 0.28449 1.34017 0.38559
 H17 H 0.28511 1.38636 0.33988
 N18 N 0.34574 1.30458 0.36026
 N19 N 0.35988 1.30464 0.34613
 C20 C 0.37246 1.28889 0.34932
 C21 C 0.36598 1.27831 0.36631
 C22 C 0.34895 1.28878 0.37281
 H23 H 0.38542 1.28544 0.33994
 H24 H 0.33956 1.28521 0.38574
 H25 H 0.33054 1.32507 0.33086
 H26 H 0.34701 1.34099 0.34747
 N27 N 0.36006 0.84645 0.80459
 N28 N 0.34576 0.86029 0.80456
 C29 C 0.34886 0.87301 0.78886
 C30 C 0.36605 0.86680 0.77844
 C31 C 0.37271 0.84986 0.78896
 H32 H 0.33927 0.88578 0.78529
 H33 H 0.38580 0.84063 0.78559
 Cu34 Cu 0.32448 0.86019 0.82502
 Cu35 Cu 0.36129 0.82496 0.82477
 Cu36 Cu 0.32414 0.82484 0.86187
 N37 N 0.30400 0.86021 0.84629
 N38 N 0.30396 0.84633 0.86059
 C39 C 0.28830 0.84972 0.87320
 C40 C 0.27786 0.86670 0.86652
 C41 C 0.28834 0.87294 0.84936
 H42 H 0.28484 0.84044 0.88625
 H43 H 0.28487 0.88578 0.83980
 N44 N 0.34586 0.80439 0.86058
 N45 N 0.36001 0.80447 0.84645
 C46 C 0.37259 0.78873 0.84962
 C47 C 0.36611 0.77815 0.86660
 C48 C 0.34908 0.78859 0.87311
 H49 H 0.38555 0.78530 0.84024
 H50 H 0.33968 0.78499 0.88603
 H51 H 0.33067 0.82428 0.83123
 H52 H 0.34673 0.84104 0.84745
 N53 N 0.86039 1.34653 0.80419
 N54 N 0.84593 1.36019 0.80395
 C55 C 0.84902 1.37286 0.78820
 C56 C 0.86637 1.36678 0.77787
 C57 C 0.87310 1.34993 0.78861
 H58 H 0.83926 1.38548 0.78457
 H59 H 0.88626 1.34073 0.78547
 Cu60 Cu 0.82448 1.36010 0.82426
 Cu61 Cu 0.86170 1.32515 0.82450
 Cu62 Cu 0.82242 1.32294 0.85916
 N63 N 0.80434 1.36021 0.84592
 N64 N 0.80374 1.34572 0.85959
 C65 C 0.78821 1.34914 0.87235
 C66 C 0.77841 1.36678 0.86642
 C67 C 0.78918 1.37338 0.84957
 H68 H 0.78422 1.33927 0.88482
 H69 H 0.78614 1.38668 0.84050
 N70 N 0.84520 1.30368 0.85930
 N71 N 0.86022 1.30460 0.84614
 C72 C 0.87329 1.28941 0.84998
 C73 C 0.86621 1.27832 0.86639
 C74 C 0.84836 1.28792 0.87191
 H75 H 0.88693 1.28664 0.84138
 H76 H 0.83828 1.28371 0.88412
 H77 H 0.83110 1.32390 0.82877
 H78 H 0.84550 1.34010 0.84700
 N79 N 0.86058 0.84651 0.30430
 N80 N 0.84611 0.86016 0.30406
 C81 C 0.84920 0.87284 0.28831
 C82 C 0.86656 0.86678 0.27799
 C83 C 0.87329 0.84994 0.28872
 H84 H 0.83943 0.88546 0.28469
 H85 H 0.88645 0.84074 0.28557
 Cu86 Cu 0.82464 0.86005 0.32439
 Cu87 Cu 0.86187 0.82510 0.32459
 Cu88 Cu 0.82259 0.82288 0.35928
 N89 N 0.80447 0.86014 0.34603
 N90 N 0.80387 0.84565 0.35970
 C91 C 0.78832 0.84906 0.37245
 C92 C 0.77852 0.86669 0.36652
 C93 C 0.78930 0.87330 0.34967
 H94 H 0.78435 0.83919 0.38492
 H95 H 0.78626 0.88660 0.34060
 N96 N 0.84538 0.80359 0.35940
 N97 N 0.86039 0.80452 0.34623
 C98 C 0.87346 0.78932 0.35004
 C99 C 0.86640 0.77821 0.36645
 C100 C 0.84855 0.78781 0.37199
 H101 H 0.88709 0.78655 0.34142
 H102 H 0.83849 0.78359 0.38421
 H103 H 0.83126 0.82385 0.32889
 H104 H 0.84567 0.84003 0.34712
 N105 N 0.63983 0.65403 0.30442
 N106 N 0.65383 0.63989 0.30469
 C107 C 0.65079 0.62723 0.28895
 C108 C 0.63392 0.63376 0.27820
 C109 C 0.62741 0.65085 0.28856
 H110 H 0.66013 0.61420 0.28564
 H111 H 0.61457 0.66033 0.28494
 Cu112 Cu 0.67454 0.63937 0.32574
 Cu113 Cu 0.63856 0.67546 0.32466
 Cu114 Cu 0.67566 0.67545 0.36179
 N115 N 0.69559 0.63987 0.34644
 N116 N 0.69589 0.65400 0.36048
 C117 C 0.71175 0.65081 0.37288
 C118 C 0.72209 0.63372 0.36633
 C119 C 0.71132 0.62721 0.34945
 H120 H 0.71539 0.66027 0.38574
 H121 H 0.71461 0.61419 0.34008
 N122 N 0.65392 0.69590 0.36056
 N123 N 0.63981 0.69590 0.34641
 C124 C 0.62723 0.71164 0.34963
 C125 C 0.63369 0.72215 0.36665
 C126 C 0.65069 0.71165 0.37315
 H127 H 0.61431 0.71516 0.34022
 H128 H 0.66005 0.71515 0.38611
 H129 H 0.66917 0.67552 0.33109
 H130 H 0.65267 0.65956 0.34769
 N131 N 0.64027 0.15430 0.80369
 N132 N 0.65400 0.13991 0.80416
 C133 C 0.65039 0.12678 0.78893
 C134 C 0.63344 0.13331 0.77819
 C135 C 0.62748 0.15088 0.78819
 H136 H 0.65958 0.11360 0.78586
 H137 H 0.61494 0.16072 0.78445
 Cu138 Cu 0.67564 0.14005 0.82432
 Cu139 Cu 0.64066 0.17701 0.82251
 Cu140 Cu 0.67539 0.17491 0.86174
 N141 N 0.69596 0.13998 0.84579
 N142 N 0.69564 0.15354 0.86038
 C143 C 0.71117 0.15008 0.87312
 C144 C 0.72193 0.13339 0.86624
 C145 C 0.71175 0.12738 0.84882
 H146 H 0.71434 0.15913 0.88640
 H147 H 0.71554 0.11482 0.83903
 N148 N 0.65377 0.19545 0.86030
 N149 N 0.64057 0.19631 0.84531
 C150 C 0.62798 0.21207 0.84850
 C151 C 0.63357 0.22173 0.86633
 C152 C 0.65000 0.21068 0.87336
 H153 H 0.61575 0.21623 0.83845
 H154 H 0.65866 0.21351 0.88697
 H155 H 0.67104 0.17620 0.83108
 H156 H 0.65300 0.15988 0.84560
 N157 N 1.13991 0.65389 0.80448
 N158 N 1.15408 0.63992 0.80460
 C159 C 1.15102 0.62724 0.78887
 C160 C 1.13398 0.63360 0.77830
 C161 C 1.12738 0.65060 0.78874
 H162 H 1.16051 0.61436 0.78543
 H163 H 1.11439 0.65994 0.78527
 Cu164 Cu 1.17508 0.63974 0.82536
 Cu165 Cu 1.13863 0.67534 0.82469
 Cu166 Cu 1.17576 0.67541 0.86182
 N167 N 1.19586 0.63999 0.84635
 N168 N 1.19599 0.65398 0.86052
 C169 C 1.21175 0.65072 0.87304
 C170 C 1.22218 0.63372 0.86642
 C171 C 1.21159 0.62733 0.84939
 H172 H 1.21523 0.66007 0.88603
 H173 H 1.21503 0.61445 0.83989
 N174 N 1.15401 0.69583 0.86055
 N175 N 1.13987 0.69579 0.84642
 C176 C 1.12730 0.71154 0.84961
 C177 C 1.13378 0.72208 0.86661
 C178 C 1.15080 0.71161 0.87311
 H179 H 1.11436 0.71503 0.84022
 H180 H 1.16020 0.71518 0.88602
 H181 H 1.16925 0.67576 0.83114
 H182 H 1.15298 0.65938 0.84754
 N183 N 1.13984 0.15370 0.30435
 N184 N 1.15410 0.13982 0.30438
 C185 C 1.15102 0.12710 0.28870
 C186 C 1.13389 0.13336 0.27821
 C187 C 1.12725 0.15033 0.28868
 H188 H 1.16056 0.11426 0.28521
 H189 H 1.11422 0.15963 0.28524
 Cu190 Cu 1.17535 0.13988 0.32486
 Cu191 Cu 1.13857 0.17517 0.32453
 Cu192 Cu 1.17563 0.17515 0.36171
 N193 N 1.19581 0.13981 0.34614
 N194 N 1.19581 0.15367 0.36045
 C195 C 1.21146 0.15028 0.37307
 C196 C 1.22194 0.13333 0.36638
 C197 C 1.21149 0.12710 0.34921
 H198 H 1.21484 0.15952 0.38617
 H199 H 1.21503 0.11432 0.33960
 N200 N 1.15393 0.19564 0.36041
 N201 N 1.13983 0.19564 0.34624
 C202 C 1.12726 0.21139 0.34942
 C203 C 1.13372 0.22191 0.36644
 C204 C 1.15071 0.21140 0.37297
 H205 H 1.11433 0.21489 0.34002
 H206 H 1.16007 0.21493 0.38592
 H207 H 1.16914 0.17579 0.33103
 H208 H 1.15301 0.15903 0.34719
 N209 N 0.63986 1.34614 0.69558
 N210 N 0.65388 1.36025 0.69530
 C211 C 0.65085 1.37293 0.71103
 C212 C 0.63397 1.36643 0.72178
 C213 C 0.62745 1.34934 0.71144
 H214 H 0.66020 1.38595 0.71431
 H215 H 0.61461 1.33987 0.71507
 Cu216 Cu 0.67458 1.36070 0.67423
 Cu217 Cu 0.63857 1.32471 0.67535
 Cu218 Cu 0.67563 1.32468 0.63815
 N219 N 0.69560 1.36020 0.65348
 N220 N 0.69586 1.34609 0.63942
 C221 C 0.71169 1.34927 0.62698
 C222 C 0.72204 1.36633 0.63353
 C223 C 0.71132 1.37284 0.65045
 H224 H 0.71528 1.33981 0.61409
 H225 H 0.71463 1.38583 0.65986
 N226 N 0.65390 1.30427 0.63943
 N227 N 0.63980 1.30428 0.65360
 C228 C 0.62724 1.28853 0.65043
 C229 C 0.63369 1.27803 0.63339
 C230 C 0.65067 1.28851 0.62685
 H231 H 0.61436 1.28501 0.65988
 H232 H 0.66002 1.28500 0.61387
 H233 H 0.66917 1.32457 0.66884
 H234 H 0.65267 1.34058 0.65231
 N235 N 0.63974 0.84625 1.19562
 N236 N 0.65402 0.86009 1.19563
 C237 C 0.65093 0.87281 1.21131
 C238 C 0.63376 0.86660 1.22176
 C239 C 0.62711 0.84966 1.21127
 H240 H 0.66048 0.88561 1.21483
 H241 H 0.61406 0.84040 1.21468
 Cu242 Cu 0.67529 0.86001 1.17515
 Cu243 Cu 0.63850 0.82478 1.17542
 Cu244 Cu 0.67562 0.82474 1.13829
 N245 N 0.69578 0.86004 1.15389
 N246 N 0.69580 0.84620 1.13957
 C247 C 0.71145 0.84959 1.12695
 C248 C 0.72192 0.86652 1.13365
 C249 C 0.71145 0.87274 1.15083
 H250 H 0.71486 0.84035 1.11386
 H251 H 0.71496 0.88553 1.16043
 N252 N 0.65392 0.80429 1.13957
 N253 N 0.63979 0.80432 1.15371
 C254 C 0.62723 0.78857 1.15052
 C255 C 0.63372 0.77804 1.13351
 C256 C 0.65073 0.78852 1.12701
 H257 H 0.61429 0.78510 1.15991
 H258 H 0.66012 0.78498 1.11407
 H259 H 0.66911 0.82411 1.16894
 H260 H 0.65302 0.84090 1.15275
 N261 N 1.13994 1.34601 1.19555
 N262 N 1.15419 1.35988 1.19549
 C263 C 1.15111 1.37263 1.21117
 C264 C 1.13400 1.36638 1.22169
 C265 C 1.12736 1.34941 1.21124
 H266 H 1.16062 1.38548 1.21466
 H267 H 1.11435 1.34014 1.21470
 Cu268 Cu 1.17540 1.35983 1.17498
 Cu269 Cu 1.13868 1.32454 1.17535
 Cu270 Cu 1.17575 1.32456 1.13813
 N271 N 1.19586 1.35989 1.15371
 N272 N 1.19591 1.34604 1.13941
 C273 C 1.21156 1.34945 1.12680
 C274 C 1.22201 1.36640 1.13350
 C275 C 1.21152 1.37263 1.15065
 H276 H 1.21499 1.34022 1.11372
 H277 H 1.21502 1.38544 1.16023
 N278 N 1.15407 1.30411 1.13944
 N279 N 1.13997 1.30410 1.15362
 C280 C 1.12743 1.28834 1.15044
 C281 C 1.13389 1.27784 1.13341
 C282 C 1.15086 1.28835 1.12687
 H283 H 1.11454 1.28481 1.15988
 H284 H 1.16021 1.28485 1.11389
 H285 H 1.16925 1.32391 1.16881
 H286 H 1.15310 1.34064 1.15264
 N287 N 1.13972 0.84616 0.69559
 N288 N 1.15400 0.85999 0.69558
 C289 C 1.15091 0.87272 0.71126
 C290 C 1.13375 0.86652 0.72172
 C291 C 1.12709 0.84957 0.71124
 H292 H 1.16047 0.88552 0.71476
 H293 H 1.11404 0.84032 0.71466
 Cu294 Cu 1.17528 0.85991 0.67511
 Cu295 Cu 1.13848 0.82468 0.67540
 Cu296 Cu 1.17558 0.82464 0.63825
 N297 N 1.19574 0.85995 0.65383
 N298 N 1.19576 0.84611 0.63951
 C299 C 1.21139 0.84951 0.62687
 C300 C 1.22186 0.86645 0.63356
 C301 C 1.21140 0.87266 0.65075
 H302 H 1.21480 0.84028 0.61378
 H303 H 1.21491 0.88545 0.66035
 N304 N 1.15389 0.80418 0.63955
 N305 N 1.13977 0.80421 0.65370
 C306 C 1.12721 0.78846 0.65053
 C307 C 1.13369 0.77792 0.63352
 C308 C 1.15069 0.78840 0.62700
 H309 H 1.11427 0.78499 0.65993
 H310 H 1.16007 0.78485 0.61406
 H311 H 1.16907 0.82402 0.66891
 H312 H 1.15298 0.84080 0.65274
 N313 N 0.36005 0.65379 0.69541
 N314 N 0.34580 0.63991 0.69542
 C315 C 0.34892 0.62721 0.71113
 C316 C 0.36608 0.63345 0.72156
 C317 C 0.37269 0.65041 0.71105
 H318 H 0.33937 0.61440 0.71467
 H319 H 0.38573 0.65969 0.71443
 Cu320 Cu 0.32453 0.64000 0.67494
 Cu321 Cu 0.36124 0.67528 0.67522
 Cu322 Cu 0.32408 0.67538 0.63813
 N323 N 0.30401 0.63998 0.65370
 N324 N 0.30393 0.65388 0.63942
 C325 C 0.28826 0.65050 0.62683
 C326 C 0.27785 0.63350 0.63350
 C327 C 0.28837 0.62725 0.65064
 H328 H 0.28477 0.65982 0.61380
 H329 H 0.28495 0.61439 0.66019
 N330 N 0.34577 0.69584 0.63942
 N331 N 0.35991 0.69578 0.65354
 C332 C 0.37247 0.71152 0.65036
 C333 C 0.36598 0.72209 0.63339
 C334 C 0.34896 0.71165 0.62688
 H335 H 0.38544 0.71494 0.65973
 H336 H 0.33957 0.71523 0.61395
 H337 H 0.33062 0.67592 0.66876
 H338 H 0.34672 0.65923 0.65252
 N339 N 0.36022 0.15389 1.19555
 N340 N 0.34614 0.13984 1.19536
 C341 C 0.34923 0.12714 1.21108
 C342 C 0.36617 0.13357 1.22174
 C343 C 0.37271 0.15064 1.21134
 H344 H 0.33983 0.11417 1.21444
 H345 H 0.38557 0.16008 1.21492
 Cu346 Cu 0.32518 0.13965 1.17457
 Cu347 Cu 0.36141 0.17541 1.17538
 Cu348 Cu 0.32432 0.17544 1.13820
 N349 N 0.30443 0.13987 1.15358
 N350 N 0.30421 0.15392 1.13945
 C351 C 0.28844 0.15066 1.12695
 C352 C 0.27809 0.13360 1.13354
 C353 C 0.28876 0.12717 1.15053
 H354 H 0.28485 0.16010 1.11404
 H355 H 0.28542 0.11420 1.15997
 N356 N 0.34597 0.19594 1.13952
 N357 N 0.36008 0.19592 1.15368
 C358 C 0.37263 0.21167 1.15050
 C359 C 0.36616 0.22220 1.13347
 C360 C 0.34919 0.21171 1.12695
 H361 H 0.38554 0.21516 1.15991
 H362 H 0.33985 0.21523 1.11396
 H363 H 0.33082 0.17572 1.16888
 H364 H 0.34719 0.15948 1.15246
 N365 N 0.86027 0.65375 1.19555
 N366 N 0.84601 0.63989 1.19555
 C367 C 0.84911 0.62717 1.21125
 C368 C 0.86626 0.63339 1.22171
 C369 C 0.87289 0.65035 1.21121
 H370 H 0.83957 0.61435 1.21477
 H371 H 0.88592 0.65963 1.21462
 Cu372 Cu 0.82475 0.63998 1.17506
 Cu373 Cu 0.86150 0.67524 1.17535
 Cu374 Cu 0.82441 0.67529 1.13820
 N375 N 0.80427 0.63995 1.15379
 N376 N 0.80424 0.65382 1.13947
 C377 C 0.78859 0.65043 1.12686
 C378 C 0.77813 0.63347 1.13355
 C379 C 0.78861 0.62724 1.15073
 H380 H 0.78515 0.65971 1.11379
 H381 H 0.78513 0.61442 1.16031
 N382 N 0.84610 0.69575 1.13949
 N383 N 0.86021 0.69572 1.15365
 C384 C 0.87276 0.71148 1.15048
 C385 C 0.86630 0.72202 1.13346
 C386 C 0.84932 0.71154 1.12693
 H387 H 0.88566 0.71497 1.15991
 H388 H 0.83997 0.71508 1.11396
 H389 H 0.83092 0.67589 1.16887
 H390 H 0.84704 0.65915 1.15269
 N391 N 0.85994 0.15375 0.69557
 N392 N 0.84568 0.13988 0.69554
 C393 C 0.84871 0.12719 0.71129
 C394 C 0.86586 0.13341 0.72176
 C395 C 0.87253 0.15036 0.71124
 H396 H 0.83916 0.11438 0.71483
 H397 H 0.88563 0.15955 0.71458
 Cu398 Cu 0.82467 0.13995 0.67481
 Cu399 Cu 0.86126 0.17520 0.67530
 Cu400 Cu 0.82403 0.17535 0.63815
 N401 N 0.80391 0.13999 0.65384
 N402 N 0.80379 0.15391 0.63957
 C403 C 0.78809 0.15054 0.62703
 C404 C 0.77767 0.13356 0.63373
 C405 C 0.78821 0.12730 0.65085
 H406 H 0.78464 0.15980 0.61395
 H407 H 0.78480 0.11442 0.66039
 N408 N 0.84584 0.19571 0.63940
 N409 N 0.86000 0.19563 0.65352
 C410 C 0.87257 0.21136 0.65032
 C411 C 0.86608 0.22193 0.63334
 C412 C 0.84906 0.21151 0.62685
 H413 H 0.88552 0.21481 0.65971
 H414 H 0.83964 0.21513 0.61395
 H415 H 0.83073 0.17588 0.66868
 H416 H 0.84686 0.15935 0.65239
 N417 N 1.34629 0.36006 0.69548
 N418 N 1.36021 0.34584 0.69541
 C419 C 1.37292 0.34894 0.71110
 C420 C 1.36660 0.36605 0.72162
 C421 C 1.34961 0.37266 0.71116
 H422 H 1.38578 0.33940 0.71458
 H423 H 1.34027 0.38567 0.71458
 Cu424 Cu 1.36014 0.32460 0.67485
 Cu425 Cu 1.32481 0.36129 0.67529
 Cu426 Cu 1.32475 0.32409 0.63818
 N427 N 1.36016 0.30398 0.65367
 N428 N 1.34623 0.30388 0.63944
 C429 C 1.34957 0.28818 0.62686
 C430 C 1.36661 0.27770 0.63348
 C431 C 1.37288 0.28830 0.65062
 H432 H 1.34016 0.28480 0.61388
 H433 H 1.38573 0.28498 0.66022
 N434 N 1.30428 0.34584 0.63947
 N435 N 1.30434 0.36000 0.65360
 C436 C 1.28861 0.37260 0.65041
 C437 C 1.27806 0.36612 0.63343
 C438 C 1.28850 0.34907 0.62693
 H439 H 1.28516 0.38557 0.65979
 H440 H 1.28493 0.33968 0.61400
 H441 H 1.32421 0.33067 0.66878
 H442 H 1.34080 0.34682 0.65250
 N443 N 1.34650 0.85999 1.19581
 N444 N 1.36040 0.84575 1.19578
 C445 C 1.37313 0.84887 1.21145
 C446 C 1.36686 0.86604 1.22200
 C447 C 1.34984 0.87261 1.21147
 H448 H 1.38597 0.83932 1.21484
 H449 H 1.34051 0.88564 1.21476
 Cu450 Cu 1.36037 0.82481 1.17491
 Cu451 Cu 1.32506 0.86134 1.17551
 Cu452 Cu 1.32507 0.82413 1.13831
 N453 N 1.36037 0.80389 1.15403
 N454 N 1.34654 0.80387 1.13970
 C455 C 1.34994 0.78822 1.12709
 C456 C 1.36691 0.77767 1.13376
 C457 C 1.37308 0.78820 1.15099
 H458 H 1.34065 0.78490 1.11402
 H459 H 1.38590 0.78482 1.16060
 N460 N 1.30464 0.84592 1.13956
 N461 N 1.30465 0.86007 1.15370
 C462 C 1.28889 0.87263 1.15050
 C463 C 1.27838 0.86613 1.13350
 C464 C 1.28887 0.84913 1.12700
 H465 H 1.28537 0.88555 1.15991
 H466 H 1.28533 0.83973 1.11407
 H467 H 1.32447 0.83081 1.16887
 H468 H 1.34097 0.84702 1.15260
 N469 N 0.84643 0.36034 1.19585
 N470 N 0.86032 0.34609 1.19581
 C471 C 0.87306 0.34920 1.21147
 C472 C 0.86682 0.36637 1.22202
 C473 C 0.84980 0.37296 1.21151
 H474 H 0.88585 0.33958 1.21488
 H475 H 0.84046 0.38598 1.21485
 Cu476 Cu 0.86023 0.32479 1.17535
 Cu477 Cu 0.82496 0.36157 1.17564
 Cu478 Cu 0.82491 0.32440 1.13855
 N479 N 0.86025 0.30428 1.15410
 N480 N 0.84638 0.30423 1.13982
 C481 C 0.84975 0.28856 1.12722
 C482 C 0.86671 0.27810 1.13387
 C483 C 0.87296 0.28859 1.15102
 H484 H 0.84045 0.28510 1.11419
 H485 H 0.88580 0.28512 1.16056
 N486 N 0.80446 0.34611 1.13982
 N487 N 0.80449 0.36028 1.15393
 C488 C 0.78873 0.37284 1.15071
 C489 C 0.77820 0.36630 1.13373
 C490 C 0.78869 0.34928 1.12727
 H491 H 0.78525 0.38581 1.16006
 H492 H 0.78514 0.33985 1.11436
 H493 H 0.82434 0.33094 1.16919
 H494 H 0.84104 0.34705 1.15295
 N495 N 0.84613 0.86035 0.69557
 N496 N 0.85996 0.84604 0.69559
 C497 C 0.87267 0.84913 0.71128
 C498 C 0.86646 0.86632 0.72171
 C499 C 0.84954 0.87299 0.71120
 H500 H 0.88543 0.83953 0.71484
 H501 H 0.84032 0.88609 0.71458
 Cu502 Cu 0.85988 0.82474 0.67513
 Cu503 Cu 0.82467 0.86160 0.67539
 Cu504 Cu 0.82460 0.82444 0.63829
 N505 N 0.85992 0.80426 0.65386
 N506 N 0.84607 0.80423 0.63956
 C507 C 0.84947 0.78857 0.62695
 C508 C 0.86642 0.77810 0.63363
 C509 C 0.87263 0.78858 0.65080
 H510 H 0.84021 0.78513 0.61390
 H511 H 0.88544 0.78509 0.66037
 N512 N 0.80415 0.84617 0.63958
 N513 N 0.80419 0.86032 0.65370
 C514 C 0.78846 0.87291 0.65052
 C515 C 0.77791 0.86643 0.63354
 C516 C 0.78837 0.84940 0.62704
 H517 H 0.78500 0.88588 0.65990
 H518 H 0.78480 0.84000 0.61411
 H519 H 0.82401 0.83096 0.66894
 H520 H 0.84075 0.84705 0.65272
 N521 N 0.65392 0.63974 0.69550
 N522 N 0.64003 0.65400 0.69543
 C523 C 0.62730 0.65091 0.71111
 C524 C 0.63355 0.63378 0.72163
 C525 C 0.65053 0.62714 0.71119
 H526 H 0.61443 0.66042 0.71456
 H527 H 0.65979 0.61408 0.71462
 Cu528 Cu 0.64003 0.67490 0.67457
 Cu529 Cu 0.67541 0.63843 0.67527
 Cu530 Cu 0.67541 0.67568 0.63806
 N531 N 0.64004 0.69580 0.65371
 N532 N 0.65392 0.69591 0.63942
 C533 C 0.65052 0.71163 0.62686
 C534 C 0.63353 0.72204 0.63356
 C535 C 0.62730 0.71147 0.65068
 H536 H 0.65975 0.71510 0.61379
 H537 H 0.61444 0.71488 0.66022
 N538 N 0.69587 0.65391 0.63934
 N539 N 0.69587 0.63976 0.65350
 C540 C 0.71163 0.62721 0.65032
 C541 C 0.72215 0.63371 0.63331
 C542 C 0.71165 0.65072 0.62679
 H543 H 0.71515 0.61428 0.65974
 H544 H 0.71518 0.66010 0.61383
 H545 H 0.67594 0.66895 0.66863
 H546 H 0.65952 0.65272 0.65233
 N547 N 0.65380 1.13963 1.19602
 N548 N 0.63992 1.15390 1.19598
 C549 C 0.62718 1.15079 1.21165
 C550 C 0.63340 1.13361 1.22221
 C551 C 0.65042 1.12701 1.21169
 H552 H 0.61440 1.16041 1.21506
 H553 H 0.65974 1.11397 1.21502
 Cu554 Cu 0.64000 1.17521 1.17549
 Cu555 Cu 0.67525 1.13837 1.17578
 Cu556 Cu 0.67524 1.17549 1.13859
 N557 N 0.63996 1.19571 1.15417
 N558 N 0.65380 1.19569 1.13984
 C559 C 0.65041 1.21134 1.12719
 C560 C 0.63349 1.22185 1.13387
 C561 C 0.62727 1.21141 1.15107
 H562 H 0.65965 1.21473 1.11409
 H563 H 0.61450 1.21496 1.16067
 N564 N 0.69569 1.15378 1.13986
 N565 N 0.69570 1.13964 1.15402
 C566 C 0.71147 1.12709 1.15080
 C567 C 0.72196 1.13360 1.13377
 C568 C 0.71144 1.15060 1.12727
 H569 H 0.71500 1.11416 1.16021
 H570 H 0.71493 1.15999 1.11431
 H571 H 0.67588 1.16897 1.16928
 H572 H 0.65912 1.15285 1.15314
 N573 N 0.15366 0.63986 1.19579
 N574 N 0.13952 0.65386 1.19554
 C575 C 0.12685 0.65076 1.21127
 C576 C 0.13337 0.63382 1.22206
 C577 C 0.15051 0.62739 1.21164
 H578 H 0.11387 0.66016 1.21453
 H579 H 0.16006 0.61456 1.21514
 Cu580 Cu 0.13906 0.67465 1.17449
 Cu581 Cu 0.17510 0.63863 1.17554
 Cu582 Cu 0.17510 0.67581 1.13840
 N583 N 0.13955 0.69576 1.15376
 N584 N 0.15364 0.69602 1.13970
 C585 C 0.15045 0.71187 1.12725
 C586 C 0.13336 0.72230 1.13377
 C587 C 0.12690 0.71151 1.15075
 H588 H 0.15998 0.71541 1.11440
 H589 H 0.11394 0.71474 1.16020
 N590 N 0.19555 0.65408 1.13965
 N591 N 0.19555 0.63992 1.15378
 C592 C 0.21129 0.62735 1.15056
 C593 C 0.22180 0.63386 1.13354
 C594 C 0.21131 0.65089 1.12706
 H595 H 0.21480 0.61440 1.15996
 H596 H 0.21483 0.66029 1.11411
 H597 H 0.17517 0.66929 1.16909
 H598 H 0.15924 0.65280 1.15251
 N599 N 0.15348 1.13990 0.69605
 N600 N 0.13957 1.15413 0.69596
 C601 C 0.12683 1.15103 0.71166
 C602 C 0.13313 1.13390 0.72227
 C603 C 0.15017 1.12733 0.71177
 H604 H 0.11398 1.16059 0.71502
 H605 H 0.15951 1.11431 0.71510
 Cu606 Cu 0.13959 1.17504 0.67505
 Cu607 Cu 0.17491 1.13851 0.67573
 Cu608 Cu 0.17490 1.17573 0.63849
 N609 N 0.13955 1.19593 0.65412
 N610 N 0.15347 1.19603 0.63988
 C611 C 0.15015 1.21175 0.62730
 C612 C 0.13310 1.22223 0.63389
 C613 C 0.12681 1.21160 0.65103
 H614 H 0.15949 1.21509 0.61427
 H615 H 0.11396 1.21495 0.66060
 N616 N 0.19529 1.15389 0.63972
 N617 N 0.19530 1.13975 0.65388
 C618 C 0.21104 1.12717 0.65066
 C619 C 0.22154 1.13366 0.63363
 C620 C 0.21104 1.15067 0.62713
 H621 H 0.21458 1.11425 0.66008
 H622 H 0.21456 1.16007 0.61417
 H623 H 0.17548 1.16902 0.66907
 H624 H 0.15900 1.15281 0.65281
 N625 N 1.34630 0.64020 0.30447
 N626 N 1.36014 0.65449 0.30448
 C627 C 1.37285 0.65141 0.28877
 C628 C 1.36662 0.63424 0.27831
 C629 C 1.34969 0.62758 0.28881
 H630 H 1.38568 0.66094 0.28528
 H631 H 1.34047 0.61450 0.28544
 Cu632 Cu 1.36008 0.67540 0.32535
 Cu633 Cu 1.32485 0.63884 0.32474
 Cu634 Cu 1.32473 0.67606 0.36192
 N635 N 1.36004 0.69629 0.34623
 N636 N 1.34618 0.69634 0.36053
 C637 C 1.34956 0.71201 0.37314
 C638 C 1.36656 0.72251 0.36647
 C639 C 1.37275 0.71196 0.34926
 H640 H 1.34024 0.71535 0.38619
 H641 H 1.38559 0.71528 0.33967
 N642 N 1.30434 0.65423 0.36065
 N643 N 1.30442 0.64008 0.34651
 C644 C 1.28871 0.62748 0.34969
 C645 C 1.27814 0.63394 0.36668
 C646 C 1.28856 0.65098 0.37319
 H647 H 1.28527 0.61453 0.34029
 H648 H 1.28495 0.66037 0.38612
 H649 H 1.32419 0.66941 0.33139
 H650 H 1.34068 0.65322 0.34768
 N651 N 1.34672 1.13911 0.80513
 N652 N 1.35972 1.15415 0.80424
 C653 C 1.37155 1.15173 0.78777
 C654 C 1.36574 1.13414 0.77780
 C655 C 1.34986 1.12659 0.78933
 H656 H 1.38371 1.16185 0.78360
 H657 H 1.34145 1.11278 0.78680
 Cu658 Cu 1.36067 1.17458 0.82553
 Cu659 Cu 1.32770 1.13608 0.82751
 Cu660 Cu 1.32214 1.17823 0.85847
 N661 N 1.36022 1.19546 0.84638
 N662 N 1.34516 1.19668 0.85936
 C663 C 1.34828 1.21253 0.87181
 C664 C 1.36633 1.22184 0.86640
 C665 C 1.37346 1.21050 0.85015
 H666 H 1.33797 1.21700 0.88374
 H667 H 1.38720 1.21301 0.84162
 N668 N 1.30339 1.15499 0.85909
 N669 N 1.30556 1.13895 0.84734
 C670 C 1.29049 1.12579 0.85125
 C671 C 1.27824 1.13382 0.86633
 C672 C 1.28697 1.15237 0.87092
 H673 H 1.28868 1.11138 0.84369
 H674 H 1.28176 1.16324 0.88202
 H675 H 1.32480 1.16669 0.82902
 H676 H 1.34038 1.15508 0.84960
 N677 N 0.84625 0.63983 0.80442
 N678 N 0.86039 0.65381 0.80472
 C679 C 0.87306 0.65075 0.78898
 C680 C 0.86653 0.63390 0.77821
 C681 C 0.84942 0.62742 0.78854
 H682 H 0.88611 0.66006 0.78571
 H683 H 0.83992 0.61462 0.78488
 Cu684 Cu 0.86087 0.67451 0.82578
 Cu685 Cu 0.82479 0.63858 0.82462
 Cu686 Cu 0.82473 0.67571 0.86176
 N687 N 0.86034 0.69556 0.84649
 N688 N 0.84619 0.69590 0.86049
 C689 C 0.84936 0.71178 0.87289
 C690 C 0.86648 0.72207 0.86637
 C691 C 0.87301 0.71127 0.84951
 H692 H 0.83985 0.71547 0.88571
 H693 H 0.88607 0.71451 0.84018
 N694 N 0.80428 0.65399 0.86048
 N695 N 0.80433 0.63985 0.84633
 C696 C 0.78861 0.62727 0.84952
 C697 C 0.77806 0.63373 0.86653
 C698 C 0.78852 0.65075 0.87304
 H699 H 0.78515 0.61431 0.84014
 H700 H 0.78496 0.66013 0.88599
 H701 H 0.82475 0.66924 0.83107
 H702 H 0.84061 0.65268 0.84770
 N703 N 0.84614 1.13956 0.30435
 N704 N 0.85995 1.15387 0.30433
 C705 C 0.87267 1.15078 0.28864
 C706 C 0.86648 1.13360 0.27821
 C707 C 0.84955 1.12692 0.28872
 H708 H 0.88542 1.16038 0.28507
 H709 H 0.84035 1.11383 0.28535
 Cu710 Cu 0.85988 1.17516 0.32477
 Cu711 Cu 0.82468 1.13834 0.32454
 Cu712 Cu 0.82461 1.17551 0.36163
 N713 N 0.85992 1.19563 0.34604
 N714 N 0.84607 1.19568 0.36035
 C715 C 0.84949 1.21133 0.37296
 C716 C 0.86645 1.22177 0.36626
 C717 C 0.87265 1.21128 0.34910
 H718 H 0.84024 1.21479 0.38603
 H719 H 0.88546 1.21474 0.33951
 N720 N 0.80416 1.15380 0.36035
 N721 N 0.80421 1.13965 0.34623
 C722 C 0.78847 1.12708 0.34942
 C723 C 0.77793 1.13359 0.36641
 C724 C 0.78839 1.15061 0.37290
 H725 H 0.78502 1.11412 0.34005
 H726 H 0.78483 1.16002 0.38582
 H727 H 0.82401 1.16898 0.33099
 H728 H 0.84076 1.15288 0.34719
 N729 N 0.65355 0.35994 0.30431
 N730 N 0.63965 0.34571 0.30436
 C731 C 0.62693 0.34887 0.28868
 C732 C 0.63319 0.36604 0.27813
 C733 C 0.65021 0.37258 0.28864
 H734 H 0.61413 0.33928 0.28526
 H735 H 0.65956 0.38558 0.28531
 Cu736 Cu 0.63972 0.32439 0.32487
 Cu737 Cu 0.67501 0.36113 0.32452
 Cu738 Cu 0.67501 0.32398 0.36169
 N739 N 0.63968 0.30384 0.34615
 N740 N 0.65351 0.30382 0.36047
 C741 C 0.65012 0.28817 0.37312
 C742 C 0.63315 0.27764 0.36647
 C743 C 0.62697 0.28817 0.34923
 H744 H 0.65944 0.28482 0.38616
 H745 H 0.61420 0.28477 0.33959
 N746 N 0.69550 0.34566 0.36039
 N747 N 0.69549 0.35981 0.34623
 C748 C 0.71125 0.37235 0.34941
 C749 C 0.72178 0.36584 0.36642
 C750 C 0.71128 0.34885 0.37294
 H751 H 0.71476 0.38528 0.34000
 H752 H 0.71480 0.33946 0.38589
 H753 H 0.67562 0.33052 0.33102
 H754 H 0.65892 0.34667 0.34721
 N755 N 0.65406 0.86036 0.80438
 N756 N 0.64014 0.84615 0.80448
 C757 C 0.62747 0.84921 0.78876
 C758 C 0.63377 0.86629 0.77819
 C759 C 0.65074 0.87292 0.78864
 H760 H 0.61462 0.83970 0.78531
 H761 H 0.66003 0.88594 0.78517
 Cu762 Cu 0.63997 0.82515 0.82526
 Cu763 Cu 0.67546 0.86164 0.82464
 Cu764 Cu 0.67548 0.82442 0.86177
 N765 N 0.64015 0.80433 0.84622
 N766 N 0.65409 0.80417 0.86043
 C767 C 0.65078 0.78839 0.87295
 C768 C 0.63379 0.77800 0.86629
 C769 C 0.62747 0.78862 0.84923
 H770 H 0.66011 0.78486 0.88594
 H771 H 0.61460 0.78524 0.83972
 N772 N 0.69587 0.84620 0.86055
 N773 N 0.69585 0.86036 0.84642
 C774 C 0.71158 0.87293 0.84963
 C775 C 0.72208 0.86642 0.86665
 C776 C 0.71161 0.84940 0.87314
 H777 H 0.71509 0.88587 0.84023
 H778 H 0.71514 0.84000 0.88609
 H779 H 0.67590 0.83101 0.83110
 H780 H 0.65949 0.84727 0.84745
 N781 N 0.15382 0.35995 0.80452
 N782 N 0.13998 0.34566 0.80454
 C783 C 0.12727 0.34876 0.78885
 C784 C 0.13348 0.36592 0.77836
 C785 C 0.15042 0.37257 0.78884
 H786 H 0.11447 0.33920 0.78535
 H787 H 0.15968 0.38562 0.78540
 Cu788 Cu 0.14004 0.32440 0.82507
 Cu789 Cu 0.17527 0.36121 0.82471
 Cu790 Cu 0.17529 0.32409 0.86191
 N791 N 0.13998 0.30392 0.84639
 N792 N 0.15385 0.30387 0.86067
 C793 C 0.15048 0.28819 0.87330
 C794 C 0.13347 0.27770 0.86667
 C795 C 0.12726 0.28827 0.84948
 H796 H 0.15980 0.28484 0.88634
 H797 H 0.11449 0.28487 0.83984
 N798 N 0.19573 0.34582 0.86061
 N799 N 0.19572 0.35993 0.84642
 C800 C 0.21146 0.37250 0.84958
 C801 C 0.22197 0.36605 0.86661
 C802 C 0.21149 0.34905 0.87317
 H803 H 0.21495 0.38541 0.84013
 H804 H 0.21501 0.33970 0.88616
 H805 H 0.17591 0.33060 0.83123
 H806 H 0.15917 0.34675 0.84739
 N807 N 0.15368 0.85975 0.30472
 N808 N 0.13983 0.84548 0.30473
 C809 C 0.12711 0.84861 0.28904
 C810 C 0.13334 0.86578 0.27858
 C811 C 0.15029 0.87240 0.28907
 H812 H 0.11430 0.83907 0.28553
 H813 H 0.15956 0.88544 0.28564
 Cu814 Cu 0.13991 0.82419 0.32524
 Cu815 Cu 0.17515 0.86096 0.32490
 Cu816 Cu 0.17517 0.82381 0.36208
 N817 N 0.13987 0.80366 0.34650
 N818 N 0.15369 0.80364 0.36083
 C819 C 0.15028 0.78799 0.37347
 C820 C 0.13332 0.77746 0.36678
 C821 C 0.12717 0.78799 0.34955
 H822 H 0.15959 0.78463 0.38652
 H823 H 0.11441 0.78460 0.33989
 N824 N 0.19564 0.84551 0.36076
 N825 N 0.19561 0.85964 0.34660
 C826 C 0.21135 0.87220 0.34976
 C827 C 0.22188 0.86573 0.36677
 C828 C 0.21141 0.84872 0.37331
 H829 H 0.21484 0.88513 0.34033
 H830 H 0.21494 0.83935 0.38629
 H831 H 0.17578 0.83033 0.33143
 H832 H 0.15907 0.84647 0.34761
 O833 O 0.98029 0.92694 0.89897
 O834 O 0.98035 0.90332 0.87530
 C835 C 0.97329 0.91971 0.88254
 C836 C 0.95624 0.93002 0.87220
 C837 C 0.94791 0.92185 0.85438
 H838 H 0.95483 0.90865 0.84749
 O839 O 1.01972 1.07341 0.89884
 O840 O 1.01964 1.09701 0.87512
 C841 C 1.02670 1.08062 0.88237
 C842 C 1.04373 1.07029 0.87200
 C843 C 1.05206 1.07848 0.85417
 H844 H 1.04516 1.09170 0.84731
 O845 O 0.89908 0.98018 0.92691
 O846 O 0.87545 0.98022 0.90327
 C847 C 0.88266 0.97320 0.91971
 C848 C 0.87232 0.95620 0.93012
 C849 C 0.85452 0.94787 0.92198
 H850 H 0.84765 0.95474 0.90873
 O851 O 1.10108 1.02011 0.92650
 O852 O 1.12470 1.02002 0.90284
 C853 C 1.11750 1.02707 0.91927
 C854 C 1.12789 1.04403 0.92967
 C855 C 1.14566 1.05245 0.92149
 H856 H 1.15213 1.04608 0.90780
 O857 O 0.92697 0.89912 0.98030
 O858 O 0.90344 0.87542 0.98032
 C859 C 0.91982 0.88269 0.97327
 C860 C 0.93020 0.87237 0.95621
 C861 C 0.92208 0.85457 0.94783
 H862 H 0.90885 0.84770 0.95469
 O863 O 1.07340 1.10103 0.97985
 O864 O 1.09696 1.12470 0.97987
 C865 C 1.08060 1.11745 0.97279
 C866 C 1.07023 1.12780 0.95572
 C867 C 1.07840 1.14555 0.94722
 H868 H 1.09209 1.15198 0.95357
 O869 O 0.92692 1.01973 0.89910
 O870 O 0.90331 1.01974 0.87544
 C871 C 0.91971 1.02675 0.88266
 C872 C 0.93004 1.04378 0.87228
 C873 C 0.92186 1.05208 0.85444
 H874 H 0.90867 1.04514 0.84758
 O875 O 1.07321 0.98053 0.89886
 O876 O 1.09681 0.98046 0.87516
 C877 C 1.08042 0.97346 0.88244
 C878 C 1.07005 0.95644 0.87211
 C879 C 1.07827 0.94796 0.85437
 H880 H 1.09196 0.95431 0.84792
 O881 O 1.01997 0.89928 0.92673
 O882 O 1.02003 0.87563 0.90309
 C883 C 1.02703 0.88288 0.91951
 C884 C 1.04405 0.87256 0.92992
 C885 C 1.05252 0.85483 0.92171
 H886 H 1.04621 0.84839 0.90798
 O887 O 0.98017 1.10120 0.92666
 O888 O 0.98009 1.12483 0.90297
 C889 C 0.97311 1.11760 0.91942
 C890 C 0.95612 1.12793 0.92985
 C891 C 0.94763 1.14568 0.92166
 H892 H 0.95396 1.15216 0.90794
 O893 O 0.89919 1.07336 0.98019
 O894 O 0.87557 1.09700 0.98019
 C895 C 0.88280 1.08061 0.97314
 C896 C 0.87249 1.07024 0.95608
 C897 C 0.85476 1.07843 0.94759
 H898 H 0.84830 1.09213 0.95394
 O899 O 1.10082 0.92696 0.98048
 O900 O 1.12447 0.90335 0.98035
 C901 C 1.11721 0.91979 0.97338
 C902 C 1.12750 0.93022 0.95632
 C903 C 1.14532 0.92211 0.94795
 H904 H 1.15221 0.90888 0.95483
 O905 O 0.98011 1.07342 0.89896
 O906 O 0.98000 1.09701 0.87524
 C907 C 0.97302 1.08061 0.88254
 C908 C 0.95602 1.07017 0.87224
 C909 C 0.94749 1.07833 0.85447
 H910 H 0.95375 1.09206 0.84800
 O911 O 1.01987 0.92704 0.89896
 O912 O 1.01994 0.90342 0.87530
 C913 C 1.02690 0.91985 0.88252
 C914 C 1.04387 0.93026 0.87214
 C915 C 1.05225 0.92210 0.85432
 H916 H 1.04545 0.90882 0.84748
 O917 O 1.10076 0.98048 0.92675
 O918 O 1.12438 0.98037 0.90309
 C919 C 1.11713 0.97338 0.91954
 C920 C 1.12743 0.95635 0.92998
 C921 C 1.14517 0.94791 0.92177
 H922 H 1.15159 0.95426 0.90804
 O923 O 0.89917 1.01982 0.92684
 O924 O 0.87555 1.01986 0.90319
 C925 C 0.88279 1.02688 0.91961
 C926 C 0.87248 1.04395 0.92995
 C927 C 0.85470 1.05229 0.92178
 H928 H 0.84785 1.04542 0.90853
 O929 O 0.92688 1.10108 0.98021
 O930 O 0.90329 1.12475 0.98025
 C931 C 0.91968 1.11752 0.97321
 C932 C 0.93003 1.12789 0.95617
 C933 C 0.92186 1.14570 0.94783
 H934 H 0.90862 1.15253 0.95471
 O935 O 1.07322 0.89914 0.98046
 O936 O 1.09684 0.87550 0.98035
 C937 C 1.08044 0.88276 0.97336
 C938 C 1.07010 0.87248 0.95627
 C939 C 1.07826 0.85469 0.94790
 H940 H 1.09147 0.84781 0.95479
 O941 O 1.07324 1.02019 0.89886
 O942 O 1.09683 1.02014 0.87517
 C943 C 1.08046 1.02721 0.88241
 C944 C 1.07007 1.04424 0.87204
 C945 C 1.07826 1.05276 0.85428
 H946 H 1.09198 1.04645 0.84784
 O947 O 0.92672 0.98007 0.89906
 O948 O 0.90311 0.98009 0.87540
 C949 C 0.91949 0.97304 0.88264
 C950 C 0.92987 0.95603 0.87227
 C951 C 0.92168 0.94754 0.85452
 H952 H 0.90796 0.95383 0.84810
 O953 O 1.01980 1.10117 0.92658
 O954 O 1.01974 1.12479 0.90289
 C955 C 1.02682 1.11757 0.91931
 C956 C 1.04390 1.12788 0.92961
 C957 C 1.05224 1.14569 0.92143
 H958 H 1.04534 1.15257 0.90820
 O959 O 0.98033 0.89921 0.92675
 O960 O 0.98038 0.87557 0.90310
 C961 C 0.97333 0.88279 0.91952
 C962 C 0.95632 0.87243 0.92991
 C963 C 0.94789 0.85470 0.92168
 H964 H 0.95424 0.84828 0.90795
 O965 O 1.10112 1.07329 0.97998
 O966 O 1.12471 1.09694 0.98000
 C967 C 1.11753 1.08052 0.97298
 C968 C 1.12790 1.07015 0.95597
 C969 C 1.14570 1.07829 0.94761
 H970 H 1.15253 1.09155 0.95445
 O971 O 0.89914 0.92674 0.98030
 O972 O 0.87558 0.90307 0.98032
 C973 C 0.88276 0.91949 0.97327
 C974 C 0.87238 0.92989 0.95626
 C975 C 0.85465 0.92171 0.94782
 H976 H 0.84823 0.90800 0.95418
 Cu977 Cu 1.00011 0.91548 0.91524
 Cu978 Cu 1.00018 0.88711 0.88683
 Cu979 Cu 0.99996 1.08494 0.91514
 Cu980 Cu 0.99986 1.11328 0.88668
 Cu981 Cu 0.91534 0.99993 0.91535
 Cu982 Cu 0.88699 0.99999 0.88695
 Cu983 Cu 1.08470 1.00035 0.91511
 Cu984 Cu 1.11304 1.00023 0.88669
 C985 C 0.94724 0.94724 0.88090
 H986 H 0.95339 0.95344 0.89481
 C987 C 0.93055 0.93040 0.84550
 C988 C 1.05271 1.05303 0.88068
 H989 H 1.04655 1.04682 0.89460
 C990 C 1.06941 1.06993 0.84527
 C991 C 0.88100 0.94724 0.94740
 H992 H 0.89490 0.95339 0.95357
 C993 C 0.84564 0.93054 0.93063
 C994 C 1.11925 1.05289 0.94702
 H995 H 1.10534 1.04673 0.95318
 C996 C 1.15462 1.06964 0.93030
 C997 C 0.94746 0.88106 0.94727
 H998 H 0.95361 0.89496 0.95345
 C999 C 0.93072 0.84569 0.93048
 C1000 C 1.05289 1.11917 0.94688
 H1001 H 1.04674 1.10527 0.95308
 C1002 C 1.06956 1.15459 0.93003
 C1003 C 0.94726 1.05280 0.88094
 H1004 H 0.95347 1.04667 0.89486
 C1005 C 0.93035 1.06944 0.84550
 C1006 C 1.05275 0.94757 0.88079
 H1007 H 1.04657 0.95376 0.89470
 C1008 C 1.06953 0.93075 0.84540
 C1009 C 1.05286 0.88118 0.94730
 H1010 H 1.04668 0.89509 0.95347
 C1011 C 1.06968 0.84583 0.93054
 C1012 C 0.94730 1.11925 0.94721
 H1013 H 0.95349 1.10534 0.95337
 C1014 C 0.93045 1.15463 0.93049
 C1015 C 0.88115 1.05290 0.94723
 H1016 H 0.89504 1.04674 0.95342
 C1017 C 0.84579 1.06962 0.93039
 C1018 C 1.11880 0.94748 0.94735
 H1019 H 1.10489 0.95364 0.95351
 C1020 C 1.15419 0.93075 0.93059
 O1021 O 1.01992 0.92689 1.10127
 O1022 O 1.01991 0.90328 1.12499
 C1023 C 1.02693 0.91968 1.11771
 C1024 C 1.04396 0.93003 1.12805
 C1025 C 1.05238 0.92181 1.14582
 H1026 H 1.04598 0.90815 1.15229
 O1027 O 0.98041 1.07302 1.10101
 O1028 O 0.98043 1.09663 1.12469
 C1029 C 0.97342 1.08022 1.11746
 C1030 C 0.95642 1.06988 1.12783
 C1031 C 0.94811 1.07805 1.14567
 H1032 H 0.95500 1.09126 1.15253
 O1033 O 0.89915 1.01982 1.07336
 O1034 O 0.87554 1.01985 1.09704
 C1035 C 0.88275 1.02686 1.08059
 C1036 C 0.87242 1.04390 1.07020
 C1037 C 0.85461 1.05224 1.07836
 H1038 H 0.84776 1.04538 1.09162
 O1039 O 1.10121 0.98015 1.07337
 O1040 O 1.12483 0.98018 1.09703
 C1041 C 1.11762 0.97314 1.08060
 C1042 C 1.12795 0.95611 1.07025
 C1043 C 1.14577 0.94777 1.07837
 H1044 H 1.15265 0.95465 1.09160
 O1045 O 1.07328 0.89897 1.02018
 O1046 O 1.09691 0.87535 1.02008
 C1047 C 1.08053 0.88254 1.02717
 C1048 C 1.07022 0.87217 1.04426
 C1049 C 1.07836 0.85433 1.05261
 H1050 H 1.09157 0.84746 1.04570
 O1051 O 0.92693 1.10098 1.01988
 O1052 O 0.90334 1.12465 1.01993
 C1053 C 0.91975 1.11740 1.02693
 C1054 C 0.93013 1.12770 1.04397
 C1055 C 0.92203 1.14552 1.05235
 H1056 H 0.90881 1.15242 1.04549
 O1057 O 0.92687 0.98013 1.10115
 O1058 O 0.90328 0.98018 1.12485
 C1059 C 0.91966 0.97312 1.11761
 C1060 C 0.92999 0.95607 1.12799
 C1061 C 0.92181 0.94774 1.14584
 H1062 H 0.90859 0.95464 1.15268
 O1063 O 1.07341 1.01976 1.10103
 O1064 O 1.09699 1.01979 1.12473
 C1065 C 1.08061 1.02680 1.11746
 C1066 C 1.07022 1.04380 1.12779
 C1067 C 1.07841 1.05224 1.14555
 H1068 H 1.09211 1.04588 1.15199
 O1069 O 0.98048 0.89908 1.07342
 O1070 O 0.98045 0.87544 1.09710
 C1071 C 0.97348 0.88266 1.08063
 C1072 C 0.95651 0.87231 1.07021
 C1073 C 0.94819 0.85448 1.07835
 H1074 H 0.95504 0.84759 1.09160
 O1075 O 1.01991 1.10082 1.07316
 O1076 O 1.01993 1.12444 1.09682
 C1077 C 1.02691 1.11724 1.08037
 C1078 C 1.04388 1.12761 1.06995
 C1079 C 1.05222 1.14541 1.07812
 H1080 H 1.04538 1.15224 1.09141
 O1081 O 0.89915 0.92675 1.02000
 O1082 O 0.87560 0.90308 1.02005
 C1083 C 0.88278 0.91950 1.02706
 C1084 C 0.87243 0.92990 1.04409
 C1085 C 0.85468 0.92174 1.05256
 H1086 H 0.84822 0.90807 1.04620
 O1087 O 1.10103 1.07327 1.01966
 O1088 O 1.12462 1.09691 1.01970
 C1089 C 1.11741 1.08049 1.02673
 C1090 C 1.12773 1.07011 1.04381
 C1091 C 1.14550 1.07827 1.05219
 H1092 H 1.15234 1.09153 1.04534
 O1093 O 1.01999 1.07312 1.10101
 O1094 O 1.02000 1.09673 1.12469
 C1095 C 1.02700 1.08032 1.11745
 C1096 C 1.04400 1.06994 1.12781
 C1097 C 1.05234 1.07808 1.14564
 H1098 H 1.04550 1.09133 1.15251
 O1099 O 0.98026 0.92664 1.10135
 O1100 O 0.98024 0.90303 1.12506
 C1101 C 0.97318 0.91941 1.11777
 C1102 C 0.95610 0.92977 1.12806
 C1103 C 0.94759 0.92159 1.14584
 H1104 H 0.95393 0.90790 1.15233
 O1105 O 1.10108 1.01981 1.07326
 O1106 O 1.12469 1.01985 1.09693
 C1107 C 1.11745 1.02688 1.08050
 C1108 C 1.12774 1.04394 1.07011
 C1109 C 1.14545 1.05241 1.07833
 H1110 H 1.15188 1.04605 1.09204
 O1111 O 0.89917 0.98018 1.07336
 O1112 O 0.87557 0.98021 1.09704
 C1113 C 0.88277 0.97319 1.08060
 C1114 C 0.87242 0.95618 1.07023
 C1115 C 0.85462 0.94787 1.07839
 H1116 H 0.84777 0.95475 1.09165
 O1117 O 1.07328 1.10096 1.01960
 O1118 O 1.09684 1.12463 1.01964
 C1119 C 1.08046 1.11736 1.02667
 C1120 C 1.07008 1.12766 1.04373
 C1121 C 1.07826 1.14539 1.05221
 H1122 H 1.09193 1.15184 1.04584
 O1123 O 0.92698 0.89915 1.02000
 O1124 O 0.90346 0.87545 1.02004
 C1125 C 0.91983 0.88272 1.02705
 C1126 C 0.93024 0.87238 1.04407
 C1127 C 0.92208 0.85463 1.05253
 H1128 H 0.90839 0.84820 1.04618
 O1129 O 1.07343 0.98014 1.10110
 O1130 O 1.09701 0.98015 1.12479
 C1131 C 1.08061 0.97313 1.11756
 C1132 C 1.07021 0.95615 1.12797
 C1133 C 1.07833 0.94776 1.14581
 H1134 H 1.09161 0.95454 1.15264
 O1135 O 0.92690 1.01979 1.10107
 O1136 O 0.90331 1.01985 1.12478
 C1137 C 0.91970 1.02685 1.11750
 C1138 C 0.93011 1.04384 1.12783
 C1139 C 0.92194 1.05234 1.14559
 H1140 H 0.90823 1.04605 1.15205
 O1141 O 0.98030 1.10084 1.07333
 O1142 O 0.98032 1.12447 1.09699
 C1143 C 0.97327 1.11724 1.08059
 C1144 C 0.95625 1.12760 1.07024
 C1145 C 0.94782 1.14532 1.07849
 H1146 H 0.95417 1.15172 1.09222
 O1147 O 1.02008 0.89896 1.07374
 O1148 O 1.02006 0.87533 1.09742
 C1149 C 1.02712 0.88256 1.08100
 C1150 C 1.04415 0.87221 1.07063
 C1151 C 1.05261 0.85445 1.07884
 H1152 H 1.04628 0.84802 1.09257
 O1153 O 1.10103 0.92666 1.02018
 O1154 O 1.12468 0.90305 1.02006
 C1155 C 1.11746 0.91943 1.02715
 C1156 C 1.12785 0.92980 1.04415
 C1157 C 1.14561 0.92161 1.05257
 H1158 H 1.15203 0.90790 1.04622
 O1159 O 0.89915 1.07335 1.01992
 O1160 O 0.87553 1.09698 1.01994
 C1161 C 0.88276 1.08057 1.02698
 C1162 C 0.87243 1.07018 1.04403
 C1163 C 0.85469 1.07837 1.05249
 H1164 H 0.84825 1.09207 1.04613
 Cu1165 Cu 1.00018 0.91526 1.08508
 Cu1166 Cu 1.00016 0.88691 1.11352
 Cu1167 Cu 1.00016 1.08458 1.08474
 Cu1168 Cu 1.00018 1.11294 1.11317
 Cu1169 Cu 0.91542 0.91532 1.00014
 Cu1170 Cu 0.88716 0.88687 1.00018
 Cu1171 Cu 1.08472 0.91529 1.00035
 Cu1172 Cu 1.11309 0.88694 1.00019
 Cu1173 Cu 0.91539 1.08481 1.00005
 Cu1174 Cu 0.88706 1.11321 1.00008
 Cu1175 Cu 1.08484 1.08478 0.99976
 Cu1176 Cu 1.11314 1.11317 0.99981
 Cu1177 Cu 0.91539 0.99998 1.08486
 Cu1178 Cu 0.88706 1.00002 1.11330
 Cu1179 Cu 1.08493 0.99995 1.08481
 Cu1180 Cu 1.11325 0.99999 1.11324
 C1181 C 1.05288 0.94730 1.11933
 H1182 H 1.04672 0.95348 1.10540
 C1183 C 1.06961 0.93051 1.15478
 C1184 C 0.94745 1.05264 1.11916
 H1185 H 0.95359 1.04644 1.10523
 C1186 C 0.93078 1.06949 1.15458
 C1187 C 0.88108 1.05285 1.05290
 H1188 H 0.89498 1.04669 1.04672
 C1189 C 0.84571 1.06956 1.06970
 C1190 C 1.11924 0.94715 1.05300
 H1191 H 1.10533 0.95331 1.04685
 C1192 C 1.15464 0.93045 1.06973
 C1193 C 1.05298 0.88085 1.05325
 H1194 H 1.04680 0.89476 1.04709
 C1195 C 1.06976 0.84542 1.06999
 C1196 C 0.94739 1.11899 1.05289
 H1197 H 0.95354 1.10508 1.04669
 C1198 C 0.93066 1.15437 1.06971
 C1199 C 0.94725 0.94710 1.11935
 H1200 H 0.95345 0.95324 1.10542
 C1201 C 0.93040 0.93042 1.15480
 C1202 C 1.05292 1.05267 1.11913
 H1203 H 1.04677 1.04650 1.10520
 C1204 C 1.06963 1.06942 1.15455
 C1205 C 0.94756 0.88102 1.05293
 H1206 H 0.95369 0.89495 1.04676
 C1207 C 0.93089 0.84560 1.06970
 C1208 C 1.05279 1.11898 1.05262
 H1209 H 1.04665 1.10508 1.04643
 C1210 C 1.06949 1.15434 1.06945
 C1211 C 0.88109 0.94722 1.05295
 H1212 H 0.89499 0.95335 1.04676
 C1213 C 0.84570 0.93058 1.06976
 C1214 C 1.11909 1.05281 1.05275
 H1215 H 1.10522 1.04662 1.04656
 C1216 C 1.15441 1.06961 1.06953
 O1217 O 0.98021 0.42669 0.39862
 O1218 O 0.98034 0.40306 0.37496
 C1219 C 0.97323 0.41943 0.38218
 C1220 C 0.95613 0.42970 0.37184
 C1221 C 0.94780 0.42150 0.35403
 H1222 H 0.95473 0.40830 0.34715
 O1223 O 1.02005 0.57303 0.39863
 O1224 O 1.01996 0.59662 0.37490
 C1225 C 1.02704 0.58024 0.38217
 C1226 C 1.04412 0.56995 0.37183
 C1227 C 1.05248 0.57816 0.35402
 H1228 H 1.04556 0.59138 0.34715
 O1229 O 0.89890 0.47979 0.42656
 O1230 O 0.87529 0.47991 0.40290
 C1231 C 0.88248 0.47284 0.41933
 C1232 C 0.87212 0.45582 0.42971
 C1233 C 0.85433 0.44747 0.42156
 H1234 H 0.84748 0.45433 0.40829
 O1235 O 1.10119 0.51971 0.42663
 O1236 O 1.12484 0.51970 0.40299
 C1237 C 1.11759 0.52673 0.41941
 C1238 C 1.12789 0.54375 0.42982
 C1239 C 1.14562 0.55223 0.42164
 H1240 H 1.15211 0.54587 0.40794
 O1241 O 0.92689 0.39890 0.47991
 O1242 O 0.90335 0.37521 0.47994
 C1243 C 0.91973 0.38247 0.47290
 C1244 C 0.93013 0.37214 0.45586
 C1245 C 0.92204 0.35432 0.44749
 H1246 H 0.90881 0.34745 0.45435
 O1247 O 1.07320 0.60083 0.47999
 O1248 O 1.09680 0.62447 0.48000
 C1249 C 1.08042 0.61724 0.47295
 C1250 C 1.07008 0.62759 0.45586
 C1251 C 1.07819 0.64541 0.44750
 H1252 H 1.09139 0.65229 0.45440
 O1253 O 0.92683 0.51939 0.39893
 O1254 O 0.90325 0.51952 0.37524
 C1255 C 0.91965 0.52649 0.38251
 C1256 C 0.93005 0.54352 0.37218
 C1257 C 0.92182 0.55202 0.35444
 H1258 H 0.90811 0.54570 0.34803
 O1259 O 1.07338 0.48019 0.39887
 O1260 O 1.09701 0.48014 0.37521
 C1261 C 1.08059 0.47315 0.38245
 C1262 C 1.07020 0.45616 0.37209
 C1263 C 1.07845 0.44769 0.35436
 H1264 H 1.09216 0.45402 0.34795
 O1265 O 1.01988 0.39909 0.42652
 O1266 O 1.02000 0.37543 0.40288
 C1267 C 1.02695 0.38268 0.41933
 C1268 C 1.04392 0.37233 0.42981
 C1269 C 1.05238 0.35457 0.42164
 H1270 H 1.04609 0.34814 0.40789
 O1271 O 0.98039 0.60079 0.42638
 O1272 O 0.98032 0.62440 0.40268
 C1273 C 0.97333 0.61719 0.41914
 C1274 C 0.95634 0.62755 0.42957
 C1275 C 0.94789 0.64534 0.42140
 H1276 H 0.95423 0.65182 0.40769
 O1277 O 0.89932 0.57316 0.47999
 O1278 O 0.87571 0.59680 0.47995
 C1279 C 0.88293 0.58039 0.47292
 C1280 C 0.87258 0.56999 0.45589
 C1281 C 0.85483 0.57819 0.44743
 H1282 H 0.84841 0.59191 0.45377
 O1283 O 1.10102 0.42649 0.48012
 O1284 O 1.12462 0.40284 0.48013
 C1285 C 1.11741 0.41925 0.47306
 C1286 C 1.12775 0.42960 0.45596
 C1287 C 1.14557 0.42147 0.44761
 H1288 H 1.15241 0.40821 0.45447
 O1289 O 0.98042 0.57283 0.39883
 O1290 O 0.98032 0.59643 0.37510
 C1291 C 0.97335 0.58002 0.38239
 C1292 C 0.95630 0.56964 0.37210
 C1293 C 0.94791 0.57780 0.35429
 H1294 H 0.95474 0.59105 0.34740
 O1295 O 1.01984 0.42687 0.39874
 O1296 O 1.01997 0.40324 0.37509
 C1297 C 1.02692 0.41967 0.38233
 C1298 C 1.04395 0.43005 0.37201
 C1299 C 1.05236 0.42190 0.35421
 H1300 H 1.04554 0.40865 0.34733
 O1301 O 1.10115 0.48002 0.42655
 O1302 O 1.12481 0.47999 0.40292
 C1303 C 1.11753 0.47293 0.41932
 C1304 C 1.12780 0.45583 0.42970
 C1305 C 1.14556 0.44738 0.42152
 H1306 H 1.15202 0.45378 0.40783
 O1307 O 0.89909 0.51944 0.42666
 O1308 O 0.87547 0.51957 0.40300
 C1309 C 0.88272 0.52655 0.41944
 C1310 C 0.87246 0.54363 0.42981
 C1311 C 0.85465 0.55199 0.42168
 H1312 H 0.84774 0.54509 0.40847
 O1313 O 0.92712 0.60080 0.48004
 O1314 O 0.90352 0.62447 0.48001
 C1315 C 0.91992 0.61723 0.47299
 C1316 C 0.93028 0.62757 0.45594
 C1317 C 0.92215 0.64540 0.44762
 H1318 H 0.90894 0.65228 0.45452
 O1319 O 1.07309 0.39896 0.48031
 O1320 O 1.09668 0.37529 0.48031
 C1321 C 1.08028 0.38254 0.47329
 C1322 C 1.06992 0.37223 0.45623
 C1323 C 1.07806 0.35441 0.44789
 H1324 H 1.09126 0.34752 0.45480
 O1325 O 1.07363 0.51985 0.39871
 O1326 O 1.09725 0.51982 0.37505
 C1327 C 1.08087 0.52688 0.38228
 C1328 C 1.07050 0.54393 0.37190
 C1329 C 1.07871 0.55247 0.35415
 H1330 H 1.09244 0.54618 0.34773
 O1331 O 0.92658 0.47971 0.39874
 O1332 O 0.90299 0.47982 0.37505
 C1333 C 0.91936 0.47272 0.38229
 C1334 C 0.92973 0.45569 0.37191
 C1335 C 0.92154 0.44717 0.35416
 H1336 H 0.90781 0.45346 0.34774
 O1337 O 1.02002 0.60074 0.42641
 O1338 O 1.01996 0.62436 0.40270
 C1339 C 1.02702 0.61715 0.41913
 C1340 C 1.04401 0.62752 0.42951
 C1341 C 1.05245 0.64528 0.42129
 H1342 H 1.04611 0.65171 0.40756
 O1343 O 0.98026 0.39900 0.42644
 O1344 O 0.98037 0.37535 0.40280
 C1345 C 0.97329 0.38257 0.41921
 C1346 C 0.95629 0.37219 0.42959
 C1347 C 0.94788 0.35444 0.42137
 H1348 H 0.95425 0.34801 0.40766
 O1349 O 1.10095 0.57309 0.48007
 O1350 O 1.12456 0.59671 0.48010
 C1351 C 1.11737 0.58029 0.47307
 C1352 C 1.12777 0.56991 0.45607
 C1353 C 1.14557 0.57808 0.44775
 H1354 H 1.15237 0.59134 0.45461
 O1355 O 0.89897 0.42644 0.47991
 O1356 O 0.87540 0.40278 0.47999
 C1357 C 0.88258 0.41919 0.47291
 C1358 C 0.87219 0.42955 0.45588
 C1359 C 0.85447 0.42134 0.44743
 H1360 H 0.84806 0.40763 0.45380
 Cu1361 Cu 1.00003 0.41528 0.41495
 Cu1362 Cu 1.00019 0.38690 0.38656
 Cu1363 Cu 1.00023 0.58449 0.41494
 Cu1364 Cu 1.00013 0.61281 0.38647
 Cu1365 Cu 0.91522 0.49955 0.41509
 Cu1366 Cu 0.88689 0.49973 0.38667
 Cu1367 Cu 1.08498 0.49996 0.41506
 Cu1368 Cu 1.11335 0.49990 0.38668
 C1369 C 0.94712 0.44692 0.38053
 H1370 H 0.95328 0.45313 0.39443
 C1371 C 0.93042 0.43002 0.34514
 C1372 C 1.05312 0.55270 0.38052
 H1373 H 1.04694 0.54648 0.39442
 C1374 C 1.06986 0.56965 0.34513
 C1375 C 0.88079 0.44688 0.44700
 H1376 H 0.89468 0.45305 0.45318
 C1377 C 0.84545 0.43015 0.43023
 C1378 C 1.11917 0.55262 0.44713
 H1379 H 1.10527 0.54644 0.45327
 C1380 C 1.15453 0.56945 0.43044
 C1381 C 0.94739 0.38083 0.44693
 H1382 H 0.95353 0.39474 0.45311
 C1383 C 0.93070 0.34543 0.43016
 C1384 C 1.05286 0.61889 0.44689
 H1385 H 1.04671 0.60498 0.45306
 C1386 C 1.06959 0.65431 0.43012
 C1387 C 0.94739 0.55235 0.38081
 H1388 H 0.95357 0.54616 0.39472
 C1389 C 0.93059 0.56920 0.34542
 C1390 C 1.05285 0.44733 0.38071
 H1391 H 1.04666 0.45351 0.39462
 C1392 C 1.06969 0.43052 0.34535
 C1393 C 1.05271 0.38095 0.44720
 H1394 H 1.04654 0.39487 0.45335
 C1395 C 1.06950 0.34555 0.43052
 C1396 C 0.94751 0.61888 0.44693
 H1397 H 0.95367 0.60495 0.45307
 C1398 C 0.93074 0.65433 0.43027
 C1399 C 0.88119 0.55262 0.44704
 H1400 H 0.89510 0.54646 0.45321
 C1401 C 0.84579 0.56935 0.43027
 C1402 C 1.11911 0.44691 0.44701
 H1403 H 1.10520 0.45308 0.45316
 C1404 C 1.15453 0.43016 0.43030
 O1405 O 1.01969 0.42655 0.60105
 O1406 O 1.01970 0.40290 0.62473
 C1407 C 1.02672 0.41931 0.61748
 C1408 C 1.04373 0.42967 0.62782
 C1409 C 1.05218 0.42143 0.64558
 H1410 H 1.04584 0.40772 0.65201
 O1411 O 0.98032 0.57307 0.60106
 O1412 O 0.98028 0.59669 0.62474
 C1413 C 0.97327 0.58028 0.61749
 C1414 C 0.95626 0.56990 0.62782
 C1415 C 0.94779 0.57811 0.64558
 H1416 H 0.95415 0.59179 0.65203
 O1417 O 0.89926 0.51965 0.57322
 O1418 O 0.87560 0.51967 0.59685
 C1419 C 0.88285 0.52668 0.58041
 C1420 C 0.87253 0.54371 0.57000
 C1421 C 0.85471 0.55206 0.57812
 H1422 H 0.84785 0.54521 0.59139
 O1423 O 1.10087 0.48002 0.57341
 O1424 O 1.12447 0.47997 0.59708
 C1425 C 1.11726 0.47298 0.58064
 C1426 C 1.12764 0.45600 0.57021
 C1427 C 1.14539 0.44756 0.57838
 H1428 H 1.15183 0.45389 0.59210
 O1429 O 1.07341 0.39884 0.52007
 O1430 O 1.09699 0.37517 0.52007
 C1431 C 1.08063 0.38243 0.52715
 C1432 C 1.07025 0.37209 0.54424
 C1433 C 1.07843 0.35434 0.55277
 H1434 H 1.09216 0.34792 0.54647
 O1435 O 0.92700 0.60086 0.51975
 O1436 O 0.90340 0.62451 0.51972
 C1437 C 0.91978 0.61727 0.52678
 C1438 C 0.93010 0.62760 0.54387
 C1439 C 0.92193 0.64540 0.55225
 H1440 H 0.90869 0.65225 0.54539
 O1441 O 0.92690 0.47996 0.60110
 O1442 O 0.90325 0.48002 0.62474
 C1443 C 0.91965 0.47296 0.61754
 C1444 C 0.92995 0.45590 0.62793
 C1445 C 0.92175 0.44758 0.64576
 H1446 H 0.90853 0.45450 0.65261
 O1447 O 1.07311 0.51964 0.60119
 O1448 O 1.09670 0.51958 0.62487
 C1449 C 1.08031 0.52663 0.61763
 C1450 C 1.07000 0.54368 0.62799
 C1451 C 1.07820 0.55204 0.64578
 H1452 H 1.09142 0.54514 0.65264
 O1453 O 0.98014 0.39885 0.57326
 O1454 O 0.98010 0.37518 0.59692
 C1455 C 0.97311 0.38244 0.58048
 C1456 C 0.95614 0.37212 0.57004
 C1457 C 0.94766 0.35439 0.57825
 H1458 H 0.95395 0.34795 0.59200
 O1459 O 1.01990 0.60086 0.57332
 O1460 O 1.01987 0.62451 0.59695
 C1461 C 1.02691 0.61727 0.58053
 C1462 C 1.04390 0.62761 0.57011
 C1463 C 1.05235 0.64535 0.57830
 H1464 H 1.04601 0.65180 0.59202
 O1465 O 0.89917 0.42656 0.51965
 O1466 O 0.87560 0.40290 0.51975
 C1467 C 0.88282 0.41931 0.52676
 C1468 C 0.87252 0.42969 0.54385
 C1469 C 0.85476 0.42155 0.55232
 H1470 H 0.84829 0.40788 0.54596
 O1471 O 1.10083 0.57306 0.51977
 O1472 O 1.12445 0.59668 0.51980
 C1473 C 1.11722 0.58026 0.52682
 C1474 C 1.12753 0.56988 0.54390
 C1475 C 1.14532 0.57800 0.55227
 H1476 H 1.15220 0.59122 0.54539
 O1477 O 1.01994 0.57320 0.60117
 O1478 O 1.01991 0.59682 0.62484
 C1479 C 1.02696 0.58042 0.61760
 C1480 C 1.04396 0.57003 0.62796
 C1481 C 1.05249 0.57825 0.64568
 H1482 H 1.04619 0.59198 0.65211
 O1483 O 0.98006 0.42640 0.60120
 O1484 O 0.98005 0.40276 0.62488
 C1485 C 0.97301 0.41916 0.61763
 C1486 C 0.95599 0.42955 0.62797
 C1487 C 0.94747 0.42137 0.64574
 H1488 H 0.95377 0.40765 0.65221
 O1489 O 1.10076 0.51968 0.57337
 O1490 O 1.12437 0.51964 0.59703
 C1491 C 1.11714 0.52670 0.58061
 C1492 C 1.12748 0.54373 0.57022
 C1493 C 1.14520 0.55218 0.57844
 H1494 H 1.15161 0.54581 0.59217
 O1495 O 0.89931 0.47999 0.57319
 O1496 O 0.87565 0.48002 0.59682
 C1497 C 0.88290 0.47298 0.58040
 C1498 C 0.87256 0.45596 0.57002
 C1499 C 0.85473 0.44767 0.57816
 H1500 H 0.84788 0.45456 0.59141
 O1501 O 1.07315 0.60085 0.51971
 O1502 O 1.09675 0.62448 0.51972
 C1503 C 1.08035 0.61726 0.52674
 C1504 C 1.06999 0.62760 0.54379
 C1505 C 1.07814 0.64540 0.55214
 H1506 H 1.09138 0.65224 0.54526
 O1507 O 0.92691 0.39887 0.51958
 O1508 O 0.90337 0.37517 0.51963
 C1509 C 0.91975 0.38243 0.52662
 C1510 C 0.93012 0.37210 0.54366
 C1511 C 0.92197 0.35430 0.55201
 H1512 H 0.90877 0.34743 0.54512
 O1513 O 1.07302 0.48000 0.60107
 O1514 O 1.09661 0.47994 0.62476
 C1515 C 1.08021 0.47295 0.61751
 C1516 C 1.06984 0.45592 0.62785
 C1517 C 1.07798 0.44753 0.64568
 H1518 H 1.09121 0.45436 0.65256
 O1519 O 0.92698 0.51963 0.60101
 O1520 O 0.90333 0.51967 0.62465
 C1521 C 0.91975 0.52667 0.61744
 C1522 C 0.93010 0.54369 0.62781
 C1523 C 0.92194 0.55207 0.64563
 H1524 H 0.90867 0.54526 0.65247
 O1525 O 0.98028 0.60086 0.57335
 O1526 O 0.98024 0.62450 0.59700
 C1527 C 0.97322 0.61725 0.58058
 C1528 C 0.95620 0.62758 0.57018
 C1529 C 0.94772 0.64530 0.57840
 H1530 H 0.95405 0.65173 0.59213
 O1531 O 1.01975 0.39875 0.57337
 O1532 O 1.01972 0.37508 0.59702
 C1533 C 1.02677 0.38233 0.58060
 C1534 C 1.04385 0.37201 0.57028
 C1535 C 1.05216 0.35418 0.57845
 H1536 H 1.04519 0.34727 0.59164
 O1537 O 1.10094 0.42674 0.51984
 O1538 O 1.12455 0.40310 0.51985
 C1539 C 1.11735 0.41954 0.52685
 C1540 C 1.12770 0.42992 0.54386
 C1541 C 1.14552 0.42180 0.55219
 H1542 H 1.15239 0.40857 0.54530
 O1543 O 0.89931 0.57312 0.51972
 O1544 O 0.87569 0.59676 0.51970
 C1545 C 0.88291 0.58035 0.52675
 C1546 C 0.87256 0.56997 0.54380
 C1547 C 0.85480 0.57815 0.55223
 H1548 H 0.84836 0.59184 0.54583
 Cu1549 Cu 0.99990 0.41501 0.58485
 Cu1550 Cu 0.99989 0.38661 0.61326
 Cu1551 Cu 1.00012 0.58463 0.58485
 Cu1552 Cu 1.00007 0.61300 0.61325
 Cu1553 Cu 0.91533 0.41508 0.49975
 Cu1554 Cu 0.88707 0.38664 0.49983
 Cu1555 Cu 1.08475 0.41512 0.50009
 Cu1556 Cu 1.11307 0.38673 0.50009
 Cu1557 Cu 0.91555 0.58461 0.49988
 Cu1558 Cu 0.88722 0.61300 0.49984
 Cu1559 Cu 1.08466 0.58459 0.49988
 Cu1560 Cu 1.11300 0.61295 0.49990
 Cu1561 Cu 0.91549 0.49981 0.58477
 Cu1562 Cu 0.88709 0.49985 0.61313
 Cu1563 Cu 1.08458 0.49983 0.58488
 Cu1564 Cu 1.11290 0.49977 0.61331
 C1565 C 1.05258 0.44701 0.61917
 H1566 H 1.04641 0.45319 0.60524
 C1567 C 1.06935 0.43020 0.65458
 C1568 C 0.94740 0.55259 0.61915
 H1569 H 0.95359 0.54642 0.60524
 C1570 C 0.93059 0.56935 0.65456
 C1571 C 0.88121 0.55265 0.55270
 H1572 H 0.89512 0.54650 0.54655
 C1573 C 0.84581 0.56936 0.56944
 C1574 C 1.11900 0.44716 0.55285
 H1575 H 1.10509 0.45332 0.54671
 C1576 C 1.15441 0.43041 0.56953
 C1577 C 1.05288 0.38072 0.55304
 H1578 H 1.04674 0.39463 0.54684
 C1579 C 1.06954 0.34529 0.56993
 C1580 C 0.94737 0.61893 0.55282
 H1581 H 0.95356 0.60504 0.54664
 C1582 C 0.93054 0.65430 0.56960
 C1583 C 0.94719 0.44691 0.61929
 H1584 H 0.95341 0.45307 0.60537
 C1585 C 0.93029 0.43023 0.65471
 C1586 C 1.05275 0.55265 0.61932
 H1587 H 1.04653 0.54648 0.60543
 C1588 C 1.06966 0.56941 0.65466
 C1589 C 0.94735 0.38077 0.55265
 H1590 H 0.95353 0.39468 0.54648
 C1591 C 0.93052 0.34542 0.56940
 C1592 C 1.05274 0.61895 0.55276
 H1593 H 1.04657 0.60504 0.54660
 C1594 C 1.06953 0.65431 0.56948
 C1595 C 0.88122 0.44699 0.55273
 H1596 H 0.89513 0.45310 0.54655
 C1597 C 0.84580 0.43038 0.56953
 C1598 C 1.11885 0.55261 0.55285
 H1599 H 1.10495 0.54646 0.54668
 C1600 C 1.15420 0.56936 0.56963
 O1601 O 0.47988 0.92682 0.39866
 O1602 O 0.48005 0.90319 0.37501
 C1603 C 0.47295 0.91958 0.38221
 C1604 C 0.45589 0.92986 0.37181
 C1605 C 0.44756 0.92166 0.35401
 H1606 H 0.45449 0.90844 0.34715
 O1607 O 0.51980 1.07335 0.39882
 O1608 O 0.51970 1.09695 0.37509
 C1609 C 0.52678 1.08056 0.38235
 C1610 C 0.54382 1.07024 0.37199
 C1611 C 0.55218 1.07845 0.35418
 H1612 H 0.54530 1.09170 0.34732
 O1613 O 0.39886 0.97999 0.42663
 O1614 O 0.37520 0.98014 0.40301
 C1615 C 0.38241 0.97306 0.41943
 C1616 C 0.37204 0.95608 0.42984
 C1617 C 0.35422 0.94775 0.42172
 H1618 H 0.34737 0.95460 0.40844
 O1619 O 0.60086 1.01994 0.42662
 O1620 O 0.62447 1.01994 0.40294
 C1621 C 0.61725 1.02696 0.41938
 C1622 C 0.62758 1.04396 0.42979
 C1623 C 0.64534 1.05238 0.42163
 H1624 H 0.65182 1.04601 0.40794
 O1625 O 0.42656 0.89893 0.47994
 O1626 O 0.40298 0.87528 0.48002
 C1627 C 0.41935 0.88251 0.47293
 C1628 C 0.42969 0.87218 0.45584
 C1629 C 0.42159 0.85436 0.44747
 H1630 H 0.40839 0.84747 0.45436
 O1631 O 0.57307 1.10108 0.48007
 O1632 O 0.59668 1.12470 0.48008
 C1633 C 0.58029 1.11750 0.47304
 C1634 C 0.56994 1.12786 0.45596
 C1635 C 0.57806 1.14568 0.44757
 H1636 H 0.59128 1.15254 0.45445
 O1637 O 0.42675 1.01959 0.39898
 O1638 O 0.40312 1.01976 0.37534
 C1639 C 0.41953 1.02672 0.38259
 C1640 C 0.42990 1.04378 0.37228
 C1641 C 0.42166 1.05228 0.35455
 H1642 H 0.40797 1.04595 0.34812
 O1643 O 0.57306 0.98035 0.39896
 O1644 O 0.59663 0.98032 0.37525
 C1645 C 0.58025 0.97330 0.38253
 C1646 C 0.56988 0.95627 0.37221
 C1647 C 0.57812 0.94780 0.35448
 H1648 H 0.59181 0.95415 0.34805
 O1649 O 0.51944 0.89924 0.42672
 O1650 O 0.51962 0.87558 0.40309
 C1651 C 0.52655 0.88284 0.41954
 C1652 C 0.54359 0.87256 0.42997
 C1653 C 0.55197 0.85474 0.42187
 H1654 H 0.54513 0.84784 0.40863
 O1655 O 0.48014 1.10109 0.42658
 O1656 O 0.48007 1.12470 0.40288
 C1657 C 0.47306 1.11748 0.41932
 C1658 C 0.45605 1.12783 0.42972
 C1659 C 0.44754 1.14555 0.42146
 H1660 H 0.45384 1.15196 0.40770
 O1661 O 0.39920 1.07343 0.48019
 O1662 O 0.37557 1.09706 0.48007
 C1663 C 0.38282 1.08064 0.47308
 C1664 C 0.37251 1.07019 0.45606
 C1665 C 0.35473 1.07833 0.44760
 H1666 H 0.34828 1.09203 0.45392
 O1667 O 0.60095 0.92705 0.48012
 O1668 O 0.62452 0.90337 0.48018
 C1669 C 0.61735 0.91979 0.47311
 C1670 C 0.62771 0.93011 0.45603
 C1671 C 0.64552 0.92195 0.44768
 H1672 H 0.65236 0.90871 0.45458
 O1673 O 0.48018 1.07317 0.39900
 O1674 O 0.48009 1.09676 0.37528
 C1675 C 0.47312 1.08034 0.38256
 C1676 C 0.45610 1.06995 0.37225
 C1677 C 0.44771 1.07812 0.35444
 H1678 H 0.45452 1.09139 0.34757
 O1679 O 0.51950 0.92694 0.39887
 O1680 O 0.51967 0.90331 0.37522
 C1681 C 0.52662 0.91974 0.38247
 C1682 C 0.54366 0.93012 0.37217
 C1683 C 0.55207 0.92197 0.35436
 H1684 H 0.54526 0.90871 0.34749
 O1685 O 0.60097 0.98030 0.42650
 O1686 O 0.62458 0.98027 0.40282
 C1687 C 0.61736 0.97325 0.41926
 C1688 C 0.62770 0.95622 0.42967
 C1689 C 0.64545 0.94775 0.42149
 H1690 H 0.65190 0.95410 0.40777
 O1691 O 0.39909 1.01962 0.42678
 O1692 O 0.37543 1.01977 0.40317
 C1693 C 0.38271 1.02673 0.41960
 C1694 C 0.37244 1.04380 0.43000
 C1695 C 0.35460 1.05209 0.42189
 H1696 H 0.34769 1.04516 0.40871
 O1697 O 0.42684 1.10121 0.48027
 O1698 O 0.40324 1.12487 0.48018
 C1699 C 0.41965 1.11762 0.47319
 C1700 C 0.43000 1.12792 0.45610
 C1701 C 0.42183 1.14570 0.44770
 H1702 H 0.40861 1.15257 0.45458
 O1703 O 0.57307 0.89948 0.48016
 O1704 O 0.59663 0.87578 0.48021
 C1705 C 0.58025 0.88305 0.47315
 C1706 C 0.56987 0.87269 0.45612
 C1707 C 0.57808 0.85493 0.44769
 H1708 H 0.59178 0.84851 0.45406
 O1709 O 0.57327 1.02003 0.39876
 O1710 O 0.59685 1.02002 0.37505
 C1711 C 0.58048 1.02708 0.38232
 C1712 C 0.57012 1.04415 0.37199
 C1713 C 0.57833 1.05268 0.35424
 H1714 H 0.59204 1.04637 0.34780
 O1715 O 0.42644 0.97989 0.39870
 O1716 O 0.40281 0.98005 0.37505
 C1717 C 0.41918 0.97292 0.38225
 C1718 C 0.42952 0.95589 0.37185
 C1719 C 0.42132 0.94736 0.35411
 H1720 H 0.40759 0.95365 0.34768
 O1721 O 0.51979 1.10108 0.42659
 O1722 O 0.51972 1.12469 0.40288
 C1723 C 0.52679 1.11748 0.41931
 C1724 C 0.54382 1.12784 0.42966
 C1725 C 0.55227 1.14558 0.42142
 H1726 H 0.54591 1.15200 0.40769
 O1727 O 0.47980 0.89907 0.42644
 O1728 O 0.47997 0.87542 0.40280
 C1729 C 0.47284 0.88264 0.41919
 C1730 C 0.45581 0.87227 0.42953
 C1731 C 0.44739 0.85452 0.42130
 H1732 H 0.45376 0.84811 0.40758
 O1733 O 0.60076 1.07328 0.48010
 O1734 O 0.62440 1.09688 0.48012
 C1735 C 0.61718 1.08048 0.47309
 C1736 C 0.62754 1.07009 0.45607
 C1737 C 0.64536 1.07821 0.44776
 H1738 H 0.65220 1.09145 0.45463
 O1739 O 0.39885 0.92667 0.48003
 O1740 O 0.37523 0.90305 0.48013
 C1741 C 0.38244 0.91945 0.47306
 C1742 C 0.37206 0.92984 0.45605
 C1743 C 0.35431 0.92167 0.44763
 H1744 H 0.34788 0.90799 0.45403
 Cu1745 Cu 0.49963 0.91538 0.41504
 Cu1746 Cu 0.49986 0.88700 0.38667
 Cu1747 Cu 0.49998 1.08482 0.41513
 Cu1748 Cu 0.49988 1.11313 0.38666
 Cu1749 Cu 0.41516 0.99973 0.41513
 Cu1750 Cu 0.38678 0.99996 0.38677
 Cu1751 Cu 0.58468 1.00016 0.41508
 Cu1752 Cu 0.61299 1.00013 0.38663
 C1753 C 0.44690 0.94711 0.38047
 H1754 H 0.45307 0.95334 0.39436
 C1755 C 0.43019 0.93018 0.34510
 C1756 C 0.55278 1.05296 0.38065
 H1757 H 0.54661 1.04673 0.39455
 C1758 C 0.56951 1.06989 0.34526
 C1759 C 0.38070 0.94714 0.44714
 H1760 H 0.39461 0.95328 0.45329
 C1761 C 0.34531 0.93047 0.43043
 C1762 C 0.61889 1.05283 0.44711
 H1763 H 0.60497 1.04669 0.45325
 C1764 C 0.65430 1.06956 0.43045
 C1765 C 0.44693 0.88089 0.44688
 H1766 H 0.45307 0.89479 0.45306
 C1767 C 0.43023 0.84548 0.43011
 C1768 C 0.55268 1.11920 0.44703
 H1769 H 0.54651 1.10530 0.45322
 C1770 C 0.56944 1.15459 0.43021
 C1771 C 0.44721 1.05264 0.38093
 H1772 H 0.45340 1.04643 0.39484
 C1773 C 0.43041 1.06949 0.34554
 C1774 C 0.55255 0.94741 0.38086
 H1775 H 0.54636 0.95359 0.39477
 C1776 C 0.56938 0.93061 0.34547
 C1777 C 0.55253 0.88130 0.44723
 H1778 H 0.54636 0.89522 0.45338
 C1779 C 0.56929 0.84589 0.43052
 C1780 C 0.44724 1.11922 0.44713
 H1781 H 0.45344 1.10533 0.45333
 C1782 C 0.43038 1.15455 0.43029
 C1783 C 0.38116 1.05283 0.44722
 H1784 H 0.39509 1.04671 0.45338
 C1785 C 0.34572 1.06944 0.43046
 C1786 C 0.61906 0.94738 0.44704
 H1787 H 0.60516 0.95358 0.45320
 C1788 C 0.65444 0.93057 0.43034
 O1789 O 0.51942 0.92701 0.60113
 O1790 O 0.51940 0.90337 0.62481
 C1791 C 0.52641 0.91978 0.61758
 C1792 C 0.54341 0.93012 0.62796
 C1793 C 0.55175 0.92191 0.64578
 H1794 H 0.54489 0.90866 0.65262
 O1795 O 0.48033 1.07317 0.60117
 O1796 O 0.48025 1.09680 0.62483
 C1797 C 0.47328 1.08037 0.61759
 C1798 C 0.45625 1.07001 0.62790
 C1799 C 0.44792 1.07813 0.64575
 H1800 H 0.45482 1.09131 0.65268
 O1801 O 0.39876 1.02006 0.57312
 O1802 O 0.37514 1.02004 0.59679
 C1803 C 0.38234 1.02705 0.58034
 C1804 C 0.37198 1.04406 0.56996
 C1805 C 0.35416 1.05238 0.57810
 H1806 H 0.34729 1.04549 0.59134
 O1807 O 0.60068 0.98035 0.57364
 O1808 O 0.62432 0.98028 0.59727
 C1809 C 0.61709 0.97330 0.58083
 C1810 C 0.62745 0.95633 0.57036
 C1811 C 0.64521 0.94787 0.57852
 H1812 H 0.65165 0.95417 0.59225
 O1813 O 0.57314 0.89945 0.51991
 O1814 O 0.59669 0.87575 0.51997
 C1815 C 0.58032 0.88304 0.52700
 C1816 C 0.56991 0.87271 0.54406
 C1817 C 0.57808 0.85495 0.55256
 H1818 H 0.59178 0.84851 0.54623
 O1819 O 0.42674 1.10117 0.52001
 O1820 O 0.40314 1.12483 0.51993
 C1821 C 0.41950 1.11758 0.52704
 C1822 C 0.42979 1.12789 0.54417
 C1823 C 0.42163 1.14569 0.55254
 H1824 H 0.40842 1.15257 0.54564
 O1825 O 0.42659 0.98052 0.60096
 O1826 O 0.40299 0.98053 0.62464
 C1827 C 0.41940 0.97353 0.61742
 C1828 C 0.42976 0.95653 0.62783
 C1829 C 0.42161 0.94824 0.64568
 H1830 H 0.40841 0.95515 0.65255
 O1831 O 0.57304 1.02003 0.60150
 O1832 O 0.59665 1.01993 0.62516
 C1833 C 0.58029 1.02703 0.61793
 C1834 C 0.57003 1.04415 0.62826
 C1835 C 0.57823 1.05251 0.64606
 H1836 H 0.59140 1.04556 0.65296
 O1837 O 0.47988 0.89924 0.57335
 O1838 O 0.47988 0.87558 0.59701
 C1839 C 0.47287 0.88281 0.58057
 C1840 C 0.45593 0.87243 0.57015
 C1841 C 0.44747 0.85471 0.57840
 H1842 H 0.45375 0.84831 0.59217
 O1843 O 0.51966 1.10110 0.57326
 O1844 O 0.51963 1.12476 0.59688
 C1845 C 0.52662 1.11754 0.58043
 C1846 C 0.54359 1.12789 0.56999
 C1847 C 0.55192 1.14571 0.57811
 H1848 H 0.54505 1.15260 0.59134
 O1849 O 0.39900 0.92669 0.51976
 O1850 O 0.37539 0.90307 0.51987
 C1851 C 0.38263 0.91947 0.52688
 C1852 C 0.37234 0.92988 0.54396
 C1853 C 0.35460 0.92174 0.55246
 H1854 H 0.34813 0.90805 0.54612
 O1855 O 0.60073 1.07324 0.51980
 O1856 O 0.62436 1.09684 0.51982
 C1857 C 0.61712 1.08043 0.52685
 C1858 C 0.62743 1.07004 0.54392
 C1859 C 0.64526 1.07811 0.55226
 H1860 H 0.65217 1.09131 0.54534
 O1861 O 0.51996 1.07367 0.60137
 O1862 O 0.51991 1.09730 0.62502
 C1863 C 0.52700 1.08093 0.61778
 C1864 C 0.54406 1.07058 0.62814
 C1865 C 0.55260 1.07882 0.64586
 H1866 H 0.54633 1.09258 0.65225
 O1867 O 0.47982 0.92701 0.60105
 O1868 O 0.47980 0.90337 0.62474
 C1869 C 0.47279 0.91979 0.61749
 C1870 C 0.45580 0.93020 0.62784
 C1871 C 0.44733 0.92203 0.64562
 H1872 H 0.45364 0.90832 0.65209
 O1873 O 0.60055 1.01999 0.57354
 O1874 O 0.62419 1.01993 0.59717
 C1875 C 0.61696 1.02698 0.58074
 C1876 C 0.62732 1.04396 0.57031
 C1877 C 0.64506 1.05236 0.57849
 H1878 H 0.65146 1.04602 0.59224
 O1879 O 0.39897 0.98039 0.57311
 O1880 O 0.37536 0.98038 0.59678
 C1881 C 0.38260 0.97333 0.58037
 C1882 C 0.37232 0.95623 0.57005
 C1883 C 0.35452 0.94791 0.57824
 H1884 H 0.34766 0.95482 0.59147
 O1885 O 0.57306 1.10102 0.51980
 O1886 O 0.59667 1.12464 0.51981
 C1887 C 0.58027 1.11742 0.52685
 C1888 C 0.56988 1.12778 0.54386
 C1889 C 0.57809 1.14551 0.55233
 H1890 H 0.59181 1.15189 0.54600
 O1891 O 0.42675 0.89901 0.51962
 O1892 O 0.40317 0.87536 0.51972
 C1893 C 0.41958 0.88261 0.52669
 C1894 C 0.42994 0.87231 0.54375
 C1895 C 0.42181 0.85452 0.55213
 H1896 H 0.40861 0.84763 0.54524
 O1897 O 0.57284 0.98035 0.60128
 O1898 O 0.59646 0.98023 0.62494
 C1899 C 0.58006 0.97325 0.61768
 C1900 C 0.56967 0.95622 0.62799
 C1901 C 0.57785 0.94769 0.64574
 H1902 H 0.59154 0.95401 0.65220
 O1903 O 0.42656 1.02014 0.60084
 O1904 O 0.40296 1.02015 0.62453
 C1905 C 0.41936 1.02715 0.61729
 C1906 C 0.42981 1.04408 0.62772
 C1907 C 0.42166 1.05250 0.64553
 H1908 H 0.40794 1.04622 0.65196
 O1909 O 0.48004 1.10114 0.57364
 O1910 O 0.48000 1.12480 0.59727
 C1911 C 0.47295 1.11753 0.58088
 C1912 C 0.45586 1.12782 0.57052
 C1913 C 0.44737 1.14555 0.57874
 H1914 H 0.45370 1.15198 0.59247
 O1915 O 0.51949 0.89938 0.57327
 O1916 O 0.51949 0.87572 0.59693
 C1917 C 0.52652 0.88297 0.58050
 C1918 C 0.54358 0.87266 0.57015
 C1919 C 0.55189 0.85483 0.57832
 H1920 H 0.54498 0.84794 0.59154
 O1921 O 0.60081 0.92721 0.51984
 O1922 O 0.62439 0.90352 0.51989
 C1923 C 0.61719 0.91996 0.52689
 C1924 C 0.62751 0.93030 0.54396
 C1925 C 0.64533 0.92215 0.55228
 H1926 H 0.65220 0.90894 0.54536
 O1927 O 0.39888 1.07360 0.51990
 O1928 O 0.37526 1.09723 0.51980
 C1929 C 0.38245 1.08082 0.52687
 C1930 C 0.37204 1.07040 0.54385
 C1931 C 0.35429 1.07858 0.55230
 H1932 H 0.34785 1.09229 0.54596
 Cu1933 Cu 0.49964 0.91553 0.58482
 Cu1934 Cu 0.49965 0.88714 0.61324
 Cu1935 Cu 0.50001 1.08490 0.58500
 Cu1936 Cu 0.49994 1.11328 0.61337
 Cu1937 Cu 0.41515 0.91520 0.49982
 Cu1938 Cu 0.38682 0.88682 0.49995
 Cu1939 Cu 0.58463 0.91567 0.50000
 Cu1940 Cu 0.61291 0.88723 0.50007
 Cu1941 Cu 0.41528 1.08499 0.50011
 Cu1942 Cu 0.38695 1.11338 0.49998
 Cu1943 Cu 0.58453 1.08480 0.49994
 Cu1944 Cu 0.61289 1.11313 0.49996
 Cu1945 Cu 0.41508 1.00029 0.58463
 Cu1946 Cu 0.38674 1.00028 0.61305
 Cu1947 Cu 0.58441 1.00019 0.58513
 Cu1948 Cu 0.61277 1.00008 0.61351
 C1949 C 0.55235 0.94740 0.61931
 H1950 H 0.54621 0.95362 0.60539
 C1951 C 0.56906 0.93049 0.65470
 C1952 C 0.44721 1.05285 0.61912
 H1953 H 0.45334 1.04670 0.60517
 C1954 C 0.43055 1.06959 0.65459
 C1955 C 0.38067 1.05304 0.55269
 H1956 H 0.39458 1.04690 0.54652
 C1957 C 0.34528 1.06972 0.56948
 C1958 C 0.61882 0.94753 0.55298
 H1959 H 0.60490 0.95370 0.54684
 C1960 C 0.65422 0.93073 0.56964
 C1961 C 0.55258 0.88137 0.55289
 H1962 H 0.54644 0.89529 0.54670
 C1963 C 0.56922 0.84593 0.56974
 C1964 C 0.44703 1.11919 0.55316
 H1965 H 0.45322 1.10529 0.54699
 C1966 C 0.43021 1.15457 0.56991
 C1967 C 0.44700 0.94755 0.61915
 H1968 H 0.45318 0.95368 0.60521
 C1969 C 0.43018 0.93090 0.65462
 C1970 C 0.55282 1.05317 0.61955
 H1971 H 0.54660 1.04698 0.60567
 C1972 C 0.56973 1.06994 0.65491
 C1973 C 0.44715 0.88103 0.55273
 H1974 H 0.45331 0.89493 0.54654
 C1975 C 0.43035 0.84569 0.56955
 C1976 C 0.55254 1.11918 0.55272
 H1977 H 0.54638 1.10527 0.54655
 C1978 C 0.56926 1.15455 0.56949
 C1979 C 0.38100 0.94722 0.55279
 H1980 H 0.39490 0.95335 0.54659
 C1981 C 0.34562 0.93059 0.56965
 C1982 C 0.61870 1.05282 0.55293
 H1983 H 0.60478 1.04669 0.54678
 C1984 C 0.65411 1.06949 0.56963
 O1985 O 0.57316 0.51947 1.10126
 O1986 O 0.59677 0.51951 1.12492
 C1987 C 0.58036 0.52652 1.11767
 C1988 C 0.57003 0.54359 1.12798
 C1989 C 0.57822 0.55196 1.14577
 H1990 H 0.59141 0.54506 1.15266
 O1991 O 0.42661 0.48019 1.10120
 O1992 O 0.40299 0.48024 1.12486
 C1993 C 0.41936 0.47315 1.11763
 C1994 C 0.42967 0.45609 1.12802
 C1995 C 0.42140 0.44761 1.14575
 H1996 H 0.40767 0.45395 1.15211
 O1997 O 0.51985 0.60102 1.07332
 O1998 O 0.51991 0.62460 1.09702
 C1999 C 0.52689 0.61741 1.08056
 C2000 C 0.54386 0.62776 1.07012
 C2001 C 0.55231 0.64551 1.07828
 H2002 H 0.54596 0.65199 1.09199
 O2003 O 0.48022 0.39933 1.07356
 O2004 O 0.48019 0.37559 1.09714
 C2005 C 0.47321 0.38288 1.08070
 C2006 C 0.45626 0.37253 1.07025
 C2007 C 0.44797 0.35467 1.07835
 H2008 H 0.45480 0.34780 1.09163
 O2009 O 0.60085 0.57305 1.01996
 O2010 O 0.62445 0.59668 1.01994
 C2011 C 0.61723 0.58027 1.02701
 C2012 C 0.62757 0.56992 1.04409
 C2013 C 0.64538 0.57805 1.05242
 H2014 H 0.65222 0.59129 1.04553
 O2015 O 0.39908 0.42682 1.01979
 O2016 O 0.37551 0.40316 1.01990
 C2017 C 0.38271 0.41960 1.02688
 C2018 C 0.37237 0.43002 1.04391
 C2019 C 0.35462 0.42186 1.05238
 H2020 H 0.34817 0.40817 1.04604
 O2021 O 0.48035 0.57313 1.10110
 O2022 O 0.48040 0.59669 1.12482
 C2023 C 0.47336 0.58031 1.11756
 C2024 C 0.45632 0.56997 1.12790
 C2025 C 0.44797 0.57817 1.14570
 H2026 H 0.45486 0.59139 1.15256
 O2027 O 0.51980 0.42688 1.10155
 O2028 O 0.51974 0.40315 1.12514
 C2029 C 0.52681 0.41956 1.11795
 C2030 C 0.54392 0.42978 1.12830
 C2031 C 0.55227 0.42152 1.14609
 H2032 H 0.54534 0.40832 1.15296
 O2033 O 0.60103 0.47994 1.07350
 O2034 O 0.62468 0.47995 1.09713
 C2035 C 0.61745 0.47294 1.08069
 C2036 C 0.62782 0.45597 1.07024
 C2037 C 0.64558 0.44751 1.07839
 H2038 H 0.65202 0.45383 1.09211
 O2039 O 0.39902 0.51995 1.07338
 O2040 O 0.37536 0.51997 1.09701
 C2041 C 0.38261 0.52699 1.08058
 C2042 C 0.37229 0.54403 1.07018
 C2043 C 0.35445 0.55236 1.07829
 H2044 H 0.34756 0.54548 1.09153
 O2045 O 0.42690 0.60123 1.02011
 O2046 O 0.40330 0.62489 1.02007
 C2047 C 0.41969 0.61765 1.02713
 C2048 C 0.43003 0.62797 1.04421
 C2049 C 0.42193 0.64580 1.05259
 H2050 H 0.40872 0.65270 1.04571
 O2051 O 0.57324 0.39920 1.01993
 O2052 O 0.59680 0.37551 1.01996
 C2053 C 0.58043 0.38280 1.02702
 C2054 C 0.57006 0.37251 1.04412
 C2055 C 0.57820 0.35472 1.05258
 H2056 H 0.59185 0.34823 1.04619
 O2057 O 0.42679 0.51989 1.10110
 O2058 O 0.40316 0.51995 1.12475
 C2059 C 0.41957 0.52695 1.11752
 C2060 C 0.42997 0.54396 1.12787
 C2061 C 0.42176 0.55249 1.14561
 H2062 H 0.40803 0.54622 1.15205
 O2063 O 0.57347 0.47981 1.10143
 O2064 O 0.59708 0.47981 1.12509
 C2065 C 0.58070 0.47276 1.11786
 C2066 C 0.57033 0.45573 1.12823
 C2067 C 0.57854 0.44715 1.14596
 H2068 H 0.59228 0.45341 1.15237
 O2069 O 0.51982 0.39936 1.07357
 O2070 O 0.51978 0.37562 1.09715
 C2071 C 0.52682 0.38290 1.08074
 C2072 C 0.54384 0.37256 1.07033
 C2073 C 0.55214 0.35471 1.07847
 H2074 H 0.54528 0.34785 1.09174
 O2075 O 0.48022 0.60109 1.07353
 O2076 O 0.48028 0.62467 1.09724
 C2077 C 0.47320 0.61748 1.08082
 C2078 C 0.45616 0.62786 1.07050
 C2079 C 0.44772 0.64560 1.07875
 H2080 H 0.45409 0.65199 1.09247
 O2081 O 0.39917 0.57352 1.02004
 O2082 O 0.37554 0.59715 1.01998
 C2083 C 0.38275 0.58074 1.02703
 C2084 C 0.37236 0.57033 1.04403
 C2085 C 0.35460 0.57851 1.05245
 H2086 H 0.34816 0.59221 1.04607
 O2087 O 0.60107 0.42680 1.01983
 O2088 O 0.62466 0.40312 1.01983
 C2089 C 0.61747 0.41956 1.02684
 C2090 C 0.62784 0.42991 1.04387
 C2091 C 0.64566 0.42177 1.05218
 H2092 H 0.65252 0.40855 1.04527
 O2093 O 0.48014 0.42695 1.10146
 O2094 O 0.48008 0.40323 1.12506
 C2095 C 0.47306 0.41967 1.11785
 C2096 C 0.45596 0.42998 1.12817
 C2097 C 0.44754 0.42182 1.14599
 H2098 H 0.45440 0.40859 1.15289
 O2099 O 0.51998 0.57325 1.10109
 O2100 O 0.52002 0.59682 1.12481
 C2101 C 0.52704 0.58043 1.11752
 C2102 C 0.54405 0.57001 1.12786
 C2103 C 0.55257 0.57823 1.14559
 H2104 H 0.54630 0.59198 1.15199
 O2105 O 0.39909 0.48032 1.07324
 O2106 O 0.37545 0.48033 1.09688
 C2107 C 0.38268 0.47332 1.08044
 C2108 C 0.37234 0.45631 1.07004
 C2109 C 0.35453 0.44800 1.07820
 H2110 H 0.34768 0.45487 1.09145
 O2111 O 0.60096 0.51960 1.07360
 O2112 O 0.62461 0.51964 1.09723
 C2113 C 0.61734 0.52668 1.08081
 C2114 C 0.62761 0.54376 1.07041
 C2115 C 0.64535 0.55221 1.07858
 H2116 H 0.65182 0.54584 1.09227
 O2117 O 0.42688 0.39919 1.01984
 O2118 O 0.40334 0.37550 1.01993
 C2119 C 0.41971 0.38279 1.02694
 C2120 C 0.43010 0.37250 1.04400
 C2121 C 0.42196 0.35472 1.05243
 H2122 H 0.40832 0.34825 1.04603
 O2123 O 0.57317 0.60086 1.01983
 O2124 O 0.59676 0.62451 1.01979
 C2125 C 0.58035 0.61730 1.02681
 C2126 C 0.56997 0.62770 1.04381
 C2127 C 0.57811 0.64552 1.05213
 H2128 H 0.59136 0.65234 1.04526
 Cu2129 Cu 0.58479 0.49969 1.08508
 Cu2130 Cu 0.61315 0.49973 1.11346
 Cu2131 Cu 0.41526 0.50009 1.08487
 Cu2132 Cu 0.38688 0.50013 1.11325
 Cu2133 Cu 0.50010 0.58476 1.08488
 Cu2134 Cu 0.50016 0.61305 1.11335
 Cu2135 Cu 0.49999 0.41552 1.08519
 Cu2136 Cu 0.49994 0.38703 1.11349
 C2137 C 0.55281 0.55260 1.11926
 H2138 H 0.54661 0.54642 1.10536
 C2139 C 0.56970 0.56936 1.15461
 C2140 C 0.44704 0.44725 1.11944
 H2141 H 0.45325 0.45344 1.10553
 C2142 C 0.43018 0.43044 1.15484
 C2143 C 0.55271 0.61907 1.05278
 H2144 H 0.54654 0.60515 1.04664
 C2145 C 0.56949 0.65446 1.06945
 C2146 C 0.44735 0.38121 1.05293
 H2147 H 0.45346 0.39516 1.04679
 C2148 C 0.43073 0.34574 1.06965
 C2149 C 0.61892 0.55264 1.05308
 H2150 H 0.60502 0.54647 1.04694
 C2151 C 0.65432 0.56941 1.06975
 C2152 C 0.38101 0.44735 1.05275
 H2153 H 0.39491 0.45349 1.04656
 C2154 C 0.34563 0.43070 1.06957
 C2155 C 0.44734 0.55273 1.11923
 H2156 H 0.45351 0.54651 1.10533
 C2157 C 0.43061 0.56966 1.15460
 C2158 C 0.55293 0.44701 1.11962
 H2159 H 0.54676 0.45327 1.10573
 C2160 C 0.56966 0.43000 1.15497
 C2161 C 0.61916 0.44715 1.05288
 H2162 H 0.60525 0.45332 1.04675
 C2163 C 0.65457 0.43036 1.06952
 C2164 C 0.38100 0.55300 1.05292
 H2165 H 0.39492 0.54685 1.04678
 C2166 C 0.34557 0.56968 1.06963
 C2167 C 0.44728 0.61926 1.05314
 H2168 H 0.45344 0.60535 1.04695
 C2169 C 0.43056 0.65466 1.06995
 C2170 C 0.55279 0.38123 1.05303
 H2171 H 0.54667 0.39516 1.04686
 C2172 C 0.56941 0.34575 1.06981
 O2173 O 0.57326 0.48022 0.89896
 O2174 O 0.59682 0.48024 0.87523
 C2175 C 0.58045 0.47320 0.88252
 C2176 C 0.57009 0.45618 0.87218
 C2177 C 0.57829 0.44774 0.85441
 H2178 H 0.59197 0.45411 0.84796
 O2179 O 0.42680 0.51967 0.89896
 O2180 O 0.40318 0.51973 0.87531
 C2181 C 0.41959 0.52672 0.88252
 C2182 C 0.42992 0.54375 0.87216
 C2183 C 0.42174 0.55210 0.85434
 H2184 H 0.40854 0.54521 0.84747
 O2185 O 0.48014 0.60099 0.92669
 O2186 O 0.48015 0.62463 0.90301
 C2187 C 0.47315 0.61742 0.91947
 C2188 C 0.45622 0.62783 0.92992
 C2189 C 0.44775 0.64556 0.92168
 H2190 H 0.45404 0.65197 0.90791
 O2191 O 0.51982 0.39906 0.92675
 O2192 O 0.51986 0.37544 0.90309
 C2193 C 0.52686 0.38266 0.91953
 C2194 C 0.54388 0.37231 0.92991
 C2195 C 0.55223 0.35450 0.92176
 H2196 H 0.54539 0.34766 0.90849
 O2197 O 0.60099 0.42683 0.98014
 O2198 O 0.62457 0.40315 0.98014
 C2199 C 0.61738 0.41959 0.97311
 C2200 C 0.62773 0.42996 0.95605
 C2201 C 0.64552 0.42181 0.94767
 H2202 H 0.65237 0.40855 0.95452
 O2203 O 0.39935 0.57350 0.98030
 O2204 O 0.37572 0.59713 0.98022
 C2205 C 0.38298 0.58073 0.97319
 C2206 C 0.37268 0.57034 0.95612
 C2207 C 0.35494 0.57853 0.94764
 H2208 H 0.34850 0.59224 0.95398
 O2209 O 0.51958 0.57307 0.89888
 O2210 O 0.51958 0.59669 0.87518
 C2211 C 0.52658 0.58027 0.88242
 C2212 C 0.54359 0.56991 0.87206
 C2213 C 0.55192 0.57811 0.85424
 H2214 H 0.54503 0.59133 0.84736
 O2215 O 0.48023 0.42683 0.89894
 O2216 O 0.48029 0.40323 0.87525
 C2217 C 0.47324 0.41963 0.88249
 C2218 C 0.45621 0.42997 0.87214
 C2219 C 0.44789 0.42181 0.85431
 H2220 H 0.45480 0.40860 0.84742
 O2221 O 0.60100 0.51986 0.92663
 O2222 O 0.62459 0.51989 0.90294
 C2223 C 0.61738 0.52690 0.91938
 C2224 C 0.62772 0.54388 0.92980
 C2225 C 0.64546 0.55234 0.92161
 H2226 H 0.65190 0.54601 0.90789
 O2227 O 0.39895 0.48014 0.92677
 O2228 O 0.37531 0.48023 0.90314
 C2229 C 0.38252 0.47318 0.91957
 C2230 C 0.37217 0.45616 0.92995
 C2231 C 0.35437 0.44784 0.92181
 H2232 H 0.34749 0.45472 0.90857
 O2233 O 0.57317 0.60072 0.98012
 O2234 O 0.59675 0.62436 0.98009
 C2235 C 0.58037 0.61712 0.97305
 C2236 C 0.57002 0.62746 0.95597
 C2237 C 0.57814 0.64529 0.94761
 H2238 H 0.59137 0.65214 0.95448
 O2239 O 0.42683 0.39904 0.98013
 O2240 O 0.40328 0.37537 0.98020
 C2241 C 0.41965 0.38261 0.97313
 C2242 C 0.43001 0.37226 0.95607
 C2243 C 0.42187 0.35447 0.94770
 H2244 H 0.40863 0.34762 0.95455
 O2245 O 0.42670 0.48002 0.89901
 O2246 O 0.40307 0.48007 0.87537
 C2247 C 0.41946 0.47300 0.88259
 C2248 C 0.42984 0.45599 0.87221
 C2249 C 0.42166 0.44751 0.85445
 H2250 H 0.40793 0.45381 0.84802
 O2251 O 0.57322 0.51987 0.89893
 O2252 O 0.59679 0.51990 0.87521
 C2253 C 0.58040 0.52691 0.88248
 C2254 C 0.56996 0.54390 0.87212
 C2255 C 0.57815 0.55241 0.85436
 H2256 H 0.59188 0.54614 0.84793
 O2257 O 0.48019 0.39902 0.92664
 O2258 O 0.48022 0.37540 0.90297
 C2259 C 0.47317 0.38262 0.91939
 C2260 C 0.45614 0.37228 0.92977
 C2261 C 0.44770 0.35453 0.92156
 H2262 H 0.45406 0.34808 0.90785
 O2263 O 0.51976 0.60083 0.92658
 O2264 O 0.51978 0.62448 0.90291
 C2265 C 0.52683 0.61721 0.91932
 C2266 C 0.54388 0.62750 0.92968
 C2267 C 0.55232 0.64526 0.92148
 H2268 H 0.54595 0.65174 0.90779
 O2269 O 0.39903 0.42670 0.98009
 O2270 O 0.37545 0.40305 0.98017
 C2271 C 0.38264 0.41945 0.97309
 C2272 C 0.37226 0.42983 0.95607
 C2273 C 0.35452 0.42165 0.94762
 H2274 H 0.34811 0.40793 0.95398
 O2275 O 0.60098 0.57306 0.98024
 O2276 O 0.62458 0.59670 0.98022
 C2277 C 0.61738 0.58028 0.97321
 C2278 C 0.62774 0.56993 0.95616
 C2279 C 0.64553 0.57809 0.94782
 H2280 H 0.65238 0.59131 0.95471
 O2281 O 0.51984 0.42682 0.89896
 O2282 O 0.51989 0.40322 0.87527
 C2283 C 0.52688 0.41962 0.88252
 C2284 C 0.54389 0.43001 0.87218
 C2285 C 0.55227 0.42188 0.85434
 H2286 H 0.54546 0.40861 0.84749
 O2287 O 0.47998 0.57326 0.89893
 O2288 O 0.47997 0.59687 0.87523
 C2289 C 0.47294 0.58048 0.88250
 C2290 C 0.45593 0.57010 0.87217
 C2291 C 0.44744 0.57829 0.85441
 H2292 H 0.45374 0.59201 0.84794
 O2293 O 0.39924 0.51979 0.92688
 O2294 O 0.37560 0.51988 0.90325
 C2295 C 0.38287 0.52689 0.91967
 C2296 C 0.37261 0.54399 0.93002
 C2297 C 0.35481 0.55234 0.92188
 H2298 H 0.34791 0.54543 0.90868
 O2299 O 0.60100 0.48022 0.92665
 O2300 O 0.62459 0.48022 0.90296
 C2301 C 0.61738 0.47318 0.91940
 C2302 C 0.62772 0.45615 0.92978
 C2303 C 0.64545 0.44770 0.92156
 H2304 H 0.65189 0.45408 0.90785
 O2305 O 0.57331 0.39908 0.98016
 O2306 O 0.59687 0.37538 0.98019
 C2307 C 0.58050 0.38265 0.97313
 C2308 C 0.57012 0.37231 0.95609
 C2309 C 0.57830 0.35455 0.94763
 H2310 H 0.59198 0.34809 0.95399
 O2311 O 0.42704 0.60121 0.98043
 O2312 O 0.40344 0.62488 0.98036
 C2313 C 0.41985 0.61763 0.97337
 C2314 C 0.43021 0.62795 0.95632
 C2315 C 0.42206 0.64574 0.94793
 H2316 H 0.40884 0.65262 0.95481
 Cu2317 Cu 0.58476 0.50005 0.91517
 Cu2318 Cu 0.61306 0.50007 0.88670
 Cu2319 Cu 0.41529 0.49988 0.91527
 Cu2320 Cu 0.38692 0.49999 0.88690
 Cu2321 Cu 0.58468 0.58455 1.00004
 Cu2322 Cu 0.61300 0.61293 1.00001
 Cu2323 Cu 0.58479 0.41534 1.00001
 Cu2324 Cu 0.61308 0.38691 1.00003
 Cu2325 Cu 0.41547 0.58499 1.00023
 Cu2326 Cu 0.38713 0.61338 1.00015
 Cu2327 Cu 0.41531 0.41531 0.99994
 Cu2328 Cu 0.38704 0.38689 1.00006
 Cu2329 Cu 0.49986 0.58467 0.91515
 Cu2330 Cu 0.49987 0.61304 0.88671
 Cu2331 Cu 0.50002 0.41529 0.91520
 Cu2332 Cu 0.50008 0.38696 0.88677
 C2333 C 0.55279 0.44730 0.88086
 H2334 H 0.54662 0.45347 0.89478
 C2335 C 0.56955 0.43054 0.84542
 C2336 C 0.44715 0.55273 0.88083
 H2337 H 0.45334 0.54657 0.89476
 C2338 C 0.43029 0.56945 0.84542
 C2339 C 0.44743 0.61924 0.94734
 H2340 H 0.45361 0.60534 0.95353
 C2341 C 0.43061 0.65458 0.93052
 C2342 C 0.55281 0.38098 0.94721
 H2343 H 0.54666 0.39489 0.95339
 C2344 C 0.56951 0.34557 0.93042
 C2345 C 0.61907 0.44726 0.94712
 H2346 H 0.60518 0.45344 0.95331
 C2347 C 0.65443 0.43049 0.93035
 C2348 C 0.38133 0.55299 0.94727
 H2349 H 0.39524 0.54684 0.95344
 C2350 C 0.34594 0.56969 0.93046
 C2351 C 0.55258 0.55266 0.88075
 H2352 H 0.54643 0.54645 0.89467
 C2353 C 0.56928 0.56957 0.84535
 C2354 C 0.44721 0.44720 0.88084
 H2355 H 0.45336 0.45338 0.89475
 C2356 C 0.43053 0.43036 0.84542
 C2357 C 0.61907 0.55270 0.94717
 H2358 H 0.60517 0.54652 0.95332
 C2359 C 0.65443 0.56949 0.93046
 C2360 C 0.38087 0.44718 0.94721
 H2361 H 0.39477 0.45333 0.95338
 C2362 C 0.34550 0.43050 0.93045
 C2363 C 0.55277 0.61880 0.94701
 H2364 H 0.54661 0.60488 0.95317
 C2365 C 0.56950 0.65423 0.93028
 C2366 C 0.44728 0.38092 0.94712
 H2367 H 0.45345 0.39482 0.95330
 C2368 C 0.43052 0.34555 0.93037
 C2369 C 1.10692 1.10617 1.22513
 C2370 C 1.09811 1.12327 1.23422
 C2371 C 1.10685 1.13209 1.25138
 C2372 C 1.12466 1.12402 1.25989
 C2373 C 1.13350 1.10691 1.25071
 C2374 C 1.12472 1.09810 1.23355
 C2375 C 1.09748 1.09674 1.20702
 C2376 C 1.09624 1.07555 1.20526
 C2377 C 1.08710 1.06669 1.18832
 C2378 C 1.07906 1.07882 1.17273
 C2379 C 1.08041 1.10001 1.17446
 C2380 C 1.08947 1.10887 1.19143
 H2381 H 1.09949 1.14518 1.25793
 H2382 H 1.14723 1.10026 1.25666
 H2383 H 1.08610 1.05033 1.18756
 H2384 H 1.07476 1.10978 1.16252
 H2385 H 1.13202 1.08508 1.22670
 H2386 H 1.10205 1.06582 1.21715
 H2387 H 1.08424 1.12968 1.22824
 H2388 H 1.09050 1.12523 1.19220
 C2389 C 1.10684 0.60632 0.72530
 C2390 C 1.12413 0.59771 0.73426
 C2391 C 1.13296 0.60655 0.75138
 C2392 C 1.12473 0.62425 0.75997
 C2393 C 1.10747 0.63289 0.75089
 C2394 C 1.09865 0.62404 0.73379
 C2395 C 1.09733 0.59684 0.70722
 C2396 C 1.07614 0.59571 0.70551
 C2397 C 1.06716 0.58679 0.68851
 C2398 C 1.07917 0.57879 0.67282
 C2399 C 1.10037 0.58000 0.67450
 C2400 C 1.10934 0.58888 0.69152
 H2401 H 1.14618 0.59936 0.75786
 H2402 H 1.10067 0.64653 0.75688
 H2403 H 1.05081 0.58591 0.68778
 H2404 H 1.11005 0.57440 0.66248
 H2405 H 1.08553 0.63121 0.72705
 H2406 H 1.06648 0.60147 0.71747
 H2407 H 1.13067 0.58392 0.72821
 H2408 H 1.12569 0.58983 0.69223
 C2409 C 0.60667 1.10656 0.72594
 C2410 C 0.62382 1.09782 0.73501
 C2411 C 0.63262 1.10657 0.75220
 C2412 C 0.62453 1.12438 0.76085
 C2413 C 0.60732 1.13308 0.75161
 C2414 C 0.59855 1.12429 0.73443
 C2415 C 0.59722 1.09718 0.70774
 C2416 C 0.57604 1.09626 0.70581
 C2417 C 0.56713 1.08741 0.68873
 C2418 C 0.57919 1.07927 0.67315
 C2419 C 0.60038 1.08028 0.67504
 C2420 C 0.60929 1.08909 0.69214
 H2421 H 0.64577 1.09918 0.75859
 H2422 H 0.60044 1.14674 0.75747
 H2423 H 0.55078 1.08668 0.68787
 H2424 H 0.61012 1.07456 0.66312
 H2425 H 0.58551 1.13157 0.72762
 H2426 H 0.56633 1.10212 0.71768
 H2427 H 0.63031 1.08401 0.72896
 H2428 H 0.62564 1.08988 0.69300
 C2429 C 0.60682 0.60647 1.22518
 C2430 C 0.62412 0.59788 1.23414
 C2431 C 0.63294 0.60674 1.25125
 C2432 C 0.62469 0.62442 1.25985
 C2433 C 0.60743 0.63305 1.25076
 C2434 C 0.59862 0.62419 1.23365
 C2435 C 0.59732 0.59694 1.20711
 C2436 C 0.57613 0.59580 1.20539
 C2437 C 0.56717 0.58681 1.18842
 C2438 C 0.57919 0.57876 1.17277
 C2439 C 0.60039 0.57998 1.17446
 C2440 C 0.60934 0.58893 1.19145
 H2441 H 0.64617 0.59957 1.25773
 H2442 H 0.60061 0.64668 1.25676
 H2443 H 0.55082 0.58591 1.18768
 H2444 H 0.61008 0.57433 1.16247
 H2445 H 0.58549 0.63135 1.22691
 H2446 H 0.56646 0.60160 1.21733
 H2447 H 0.63067 0.58409 1.22810
 H2448 H 0.62569 0.58989 1.19216
 C2449 C 0.89333 0.89363 1.22574
 C2450 C 0.87590 0.90209 1.23455
 C2451 C 0.86704 0.89325 1.25169
 C2452 C 0.87540 0.87568 1.26058
 C2453 C 0.89287 0.86725 1.25159
 C2454 C 0.90166 0.87608 1.23444
 C2455 C 0.90283 0.90310 1.20759
 C2456 C 0.92402 0.90423 1.20580
 C2457 C 0.93295 0.91312 1.18874
 C2458 C 0.92092 0.92109 1.17305
 C2459 C 0.89973 0.91990 1.17482
 C2460 C 0.89080 0.91104 1.19189
 H2461 H 0.85372 0.90045 1.25791
 H2462 H 0.89990 0.85372 1.25758
 H2463 H 0.94931 0.91400 1.18796
 H2464 H 0.89001 0.92550 1.16282
 H2465 H 0.91489 0.86899 1.22781
 H2466 H 0.93371 0.89850 1.21775
 H2467 H 0.86925 0.91577 1.22837
 H2468 H 0.87444 0.91009 1.19263
 C2469 C 0.89314 0.39355 0.72563
 C2470 C 0.87578 0.40209 0.73448
 C2471 C 0.86692 0.39328 0.75162
 C2472 C 0.87520 0.37565 0.76046
 C2473 C 0.89260 0.36713 0.75142
 C2474 C 0.90139 0.37594 0.73426
 C2475 C 0.90266 0.40299 0.70748
 C2476 C 0.92385 0.40404 0.70568
 C2477 C 0.93281 0.41289 0.68862
 C2478 C 0.92079 0.42091 0.67294
 C2479 C 0.89960 0.41979 0.67471
 C2480 C 0.89064 0.41097 0.69179
 H2481 H 0.85365 0.40055 0.75790
 H2482 H 0.89957 0.35354 0.75736
 H2483 H 0.94916 0.41371 0.68783
 H2484 H 0.88990 0.42542 0.66272
 H2485 H 0.91456 0.36878 0.72758
 H2486 H 0.93352 0.39828 0.71763
 H2487 H 0.86920 0.41583 0.72834
 H2488 H 0.87429 0.41008 0.69254
 C2489 C 0.39314 0.89404 0.72538
 C2490 C 0.37597 0.90276 0.73444
 C2491 C 0.36716 0.89393 0.75160
 C2492 C 0.37531 0.87615 0.76011
 C2493 C 0.39245 0.86740 0.75093
 C2494 C 0.40125 0.87624 0.73379
 C2495 C 0.40263 0.90351 0.70727
 C2496 C 0.42381 0.90460 0.70550
 C2497 C 0.43275 0.91354 0.68848
 C2498 C 0.42071 0.92156 0.67283
 C2499 C 0.39952 0.92038 0.67458
 C2500 C 0.39058 0.91150 0.69162
 H2501 H 0.35405 0.90121 0.75818
 H2502 H 0.39917 0.85367 0.75684
 H2503 H 0.44910 0.91440 0.68770
 H2504 H 0.38981 0.92602 0.66259
 H2505 H 0.41429 0.86898 0.72695
 H2506 H 0.43348 0.89880 0.71744
 H2507 H 0.36951 0.91661 0.72845
 H2508 H 0.37423 0.91058 0.69239
 C2509 C 0.39266 0.39372 1.22560
 C2510 C 0.40130 0.37649 1.23464
 C2511 C 0.39248 0.36766 1.25178
 C2512 C 0.37474 0.37583 1.26047
 C2513 C 0.36611 0.39311 1.25127
 C2514 C 0.37495 0.40189 1.23409
 C2515 C 0.40219 0.40315 1.20744
 C2516 C 0.40327 0.42434 1.20550
 C2517 C 0.41244 0.43318 1.18853
 C2518 C 0.42070 0.42105 1.17306
 C2519 C 0.41953 0.39985 1.17497
 C2520 C 0.41041 0.39101 1.19196
 H2521 H 0.39987 0.35450 1.25815
 H2522 H 0.35245 0.39997 1.25714
 H2523 H 0.41329 0.44955 1.18765
 H2524 H 0.42534 0.39005 1.16315
 H2525 H 0.36775 0.41499 1.22729
 H2526 H 0.39732 0.43411 1.21728
 H2527 H 0.41511 0.36999 1.22864
 H2528 H 0.40951 0.37465 1.19282
 C2529 C 0.89312 1.10611 0.77472
 C2530 C 0.90118 1.12390 0.76628
 C2531 C 0.89234 1.13274 0.74917
 C2532 C 0.87518 1.12401 0.74004
 C2533 C 0.86708 1.10622 0.74856
 C2534 C 0.87594 1.09738 0.76569
 C2535 C 0.90265 1.09666 0.79282
 C2536 C 0.89065 1.08867 0.80851
 C2537 C 0.89963 1.07986 0.82557
 C2538 C 0.92083 1.07874 0.82729
 C2539 C 0.93283 1.08676 0.81160
 C2540 C 0.92384 1.09563 0.79457
 H2541 H 0.89903 1.14648 0.74325
 H2542 H 0.85395 1.09895 0.74202
 H2543 H 0.88996 1.07424 0.83758
 H2544 H 0.94919 1.08594 0.81236
 H2545 H 0.86951 1.08353 0.77170
 H2546 H 0.87430 1.08956 0.80776
 H2547 H 0.91423 1.13116 0.77308
 H2548 H 0.93349 1.10143 0.78261
 C2549 C 0.89329 0.60612 0.27481
 C2550 C 0.90195 0.62338 0.26584
 C2551 C 0.89318 0.63223 0.24869
 C2552 C 0.87551 0.62403 0.24004
 C2553 C 0.86683 0.60678 0.24910
 C2554 C 0.87562 0.59794 0.26626
 C2555 C 0.90275 0.59665 0.29293
 C2556 C 0.90402 0.57546 0.29468
 C2557 C 0.91313 0.56655 0.31164
 C2558 C 0.92114 0.57864 0.32725
 C2559 C 0.91976 0.59984 0.32554
 C2560 C 0.91070 0.60874 0.30857
 H2561 H 0.90042 0.64544 0.24225
 H2562 H 0.85321 0.60002 0.24303
 H2563 H 0.91414 0.55019 0.31239
 H2564 H 0.92538 0.60958 0.33750
 H2565 H 0.86842 0.58481 0.27299
 H2566 H 0.89826 0.56575 0.28277
 H2567 H 0.91572 0.62990 0.27192
 H2568 H 0.90965 0.62510 0.30783
 C2569 C 0.39312 1.10637 0.27491
 C2570 C 0.40175 1.12365 0.26597
 C2571 C 0.39300 1.13249 0.24881
 C2572 C 0.37537 1.12425 0.24012
 C2573 C 0.36669 1.10699 0.24916
 C2574 C 0.37547 1.09816 0.26633
 C2575 C 0.40258 1.09690 0.29304
 C2576 C 0.40389 1.07571 0.29478
 C2577 C 0.41301 1.06682 0.31173
 C2578 C 0.42097 1.07892 0.32737
 C2579 C 0.41955 1.10012 0.32566
 C2580 C 0.41049 1.10900 0.30869
 H2581 H 0.40023 1.14571 0.24238
 H2582 H 0.35309 1.10021 0.24308
 H2583 H 0.41407 1.05046 0.31248
 H2584 H 0.42514 1.10987 0.33763
 H2585 H 0.36829 1.08502 0.27305
 H2586 H 0.39817 1.06599 0.28285
 H2587 H 0.41550 1.13019 0.27208
 H2588 H 0.40940 1.12536 0.30795
 C2589 C 0.39321 0.60628 0.77465
 C2590 C 0.40142 0.62395 0.76608
 C2591 C 0.39262 0.63276 0.74893
 C2592 C 0.37535 0.62412 0.73990
 C2593 C 0.36709 0.60648 0.74857
 C2594 C 0.37592 0.59768 0.76574
 C2595 C 0.40271 0.59684 0.79277
 C2596 C 0.39067 0.58897 0.80850
 C2597 C 0.39962 0.58009 0.82555
 C2598 C 0.42081 0.57880 0.82723
 C2599 C 0.43284 0.58672 0.81151
 C2600 C 0.42389 0.59564 0.79449
 H2601 H 0.39944 0.64637 0.74287
 H2602 H 0.35387 0.59930 0.74213
 H2603 H 0.38992 0.57454 0.83758
 H2604 H 0.44919 0.58577 0.81225
 H2605 H 0.36937 0.58392 0.77185
 H2606 H 0.37432 0.58998 0.80779
 H2607 H 0.41456 0.63112 0.77278
 H2608 H 0.43356 0.60134 0.78250
 C2609 C 1.10677 0.89384 0.77479
 C2610 C 1.09813 0.87654 0.76591
 C2611 C 1.10688 0.86769 0.74876
 C2612 C 1.12451 0.87591 0.74004
 C2613 C 1.13317 0.89320 0.74900
 C2614 C 1.12441 0.90205 0.76616
 C2615 C 1.09735 0.90331 0.79292
 C2616 C 1.09604 0.92450 0.79462
 C2617 C 1.08694 0.93340 0.81157
 C2618 C 1.07899 0.92131 0.82724
 C2619 C 1.08041 0.90011 0.82558
 C2620 C 1.08946 0.89122 0.80861
 H2621 H 1.09967 0.85444 0.74239
 H2622 H 1.14675 0.89999 0.74287
 H2623 H 1.08589 0.94977 0.81230
 H2624 H 1.07484 0.89037 0.83758
 H2625 H 1.13158 0.91521 0.77283
 H2626 H 1.10175 0.93422 0.78267
 H2627 H 1.08440 0.87001 0.77205
 H2628 H 1.09056 0.87486 0.80791
 C2629 C 1.10703 0.39364 0.27480
 C2630 C 1.09837 0.37638 0.26587
 C2631 C 1.10712 0.36755 0.24871
 C2632 C 1.12477 0.37576 0.24002
 C2633 C 1.13345 0.39302 0.24903
 C2634 C 1.12468 0.40185 0.26621
 C2635 C 1.09758 0.40310 0.29291
 C2636 C 1.09629 0.42429 0.29463
 C2637 C 1.08717 0.43319 0.31157
 C2638 C 1.07917 0.42109 0.32720
 C2639 C 1.08058 0.39989 0.32554
 C2640 C 1.08964 0.39100 0.30857
 H2641 H 1.09989 0.35433 0.24231
 H2642 H 1.14705 0.39979 0.24293
 H2643 H 1.08614 0.44955 0.31231
 H2644 H 1.07498 0.39015 0.33752
 H2645 H 1.13188 0.41498 0.27291
 H2646 H 1.10203 0.43401 0.28270
 H2647 H 1.08462 0.36985 0.27198
 H2648 H 1.09072 0.37464 0.30786
 C2649 C 0.60674 0.89384 0.27485
 C2650 C 0.59810 0.87657 0.26593
 C2651 C 0.60687 0.86774 0.24877
 C2652 C 0.62451 0.87597 0.24008
 C2653 C 0.63317 0.89325 0.24909
 C2654 C 0.62439 0.90207 0.26626
 C2655 C 0.59729 0.90328 0.29299
 C2656 C 0.59599 0.92447 0.29474
 C2657 C 0.58685 0.93333 0.31169
 C2658 C 0.57885 0.92121 0.32731
 C2659 C 0.58026 0.90001 0.32560
 C2660 C 0.58934 0.89115 0.30863
 H2661 H 0.59965 0.85451 0.24237
 H2662 H 0.64676 0.90004 0.24298
 H2663 H 0.58582 0.94969 0.31245
 H2664 H 0.57465 0.89025 0.33756
 H2665 H 0.63156 0.91521 0.27296
 H2666 H 0.60174 0.93421 0.28283
 H2667 H 0.58435 0.87003 0.27204
 H2668 H 0.59043 0.87479 0.30789
 C2669 C 0.60691 0.39369 0.77484
 C2670 C 0.59834 0.37636 0.76598
 C2671 C 0.60713 0.36751 0.74885
 C2672 C 0.62475 0.37577 0.74013
 C2673 C 0.63335 0.39310 0.74908
 C2674 C 0.62453 0.40195 0.76622
 C2675 C 0.59743 0.40316 0.79295
 C2676 C 0.59607 0.42435 0.79465
 C2677 C 0.58694 0.43324 0.81159
 C2678 C 0.57900 0.42113 0.82725
 C2679 C 0.58046 0.39993 0.82559
 C2680 C 0.58954 0.39106 0.80863
 H2681 H 0.59995 0.35424 0.74249
 H2682 H 0.64693 0.39991 0.74296
 H2683 H 0.58587 0.44960 0.81232
 H2684 H 0.57490 0.39018 0.83759
 H2685 H 0.63166 0.41513 0.77288
 H2686 H 0.60178 0.43408 0.78270
 H2687 H 0.58462 0.36980 0.77211
 H2688 H 0.59067 0.37470 0.80793
 C2689 C 1.22500 1.10641 1.10668
 C2690 C 1.23366 1.09815 1.12433
 C2691 C 1.25081 1.10697 1.13307
 C2692 C 1.25975 1.12428 1.12437
 C2693 C 1.25099 1.13255 1.10674
 C2694 C 1.23385 1.12373 1.09802
 C2695 C 1.20689 1.09696 1.09726
 C2696 C 1.19126 1.10908 1.08934
 C2697 C 1.17430 1.10021 1.08032
 C2698 C 1.17258 1.07902 1.07895
 C2699 C 1.18818 1.06690 1.08692
 C2700 C 1.20513 1.07577 1.09600
 H2701 H 1.25695 1.10016 1.14667
 H2702 H 1.25734 1.14581 1.09950
 H2703 H 1.16236 1.10998 1.07471
 H2704 H 1.18742 1.05054 1.08590
 H2705 H 1.22769 1.13031 1.08428
 H2706 H 1.19200 1.12544 1.09039
 H2707 H 1.22702 1.08498 1.13153
 H2708 H 1.21703 1.06603 1.10172
 C2709 C 1.22482 0.60619 0.60665
 C2710 C 1.23382 0.62333 0.59779
 C2711 C 1.25095 0.63219 0.60650
 C2712 C 1.25955 0.62412 0.62431
 C2713 C 1.25046 0.60699 0.63318
 C2714 C 1.23332 0.59813 0.62445
 C2715 C 1.20669 0.59673 0.59728
 C2716 C 1.20487 0.57554 0.59617
 C2717 C 1.18792 0.56665 0.58713
 C2718 C 1.17235 0.57876 0.57905
 C2719 C 1.17412 0.59997 0.58031
 C2720 C 1.19111 0.60884 0.58927
 H2721 H 1.25743 0.64530 0.59911
 H2722 H 1.25647 0.60033 0.64692
 H2723 H 1.18712 0.55029 0.58622
 H2724 H 1.16220 0.60973 0.57466
 H2725 H 1.22656 0.58509 0.63179
 H2726 H 1.21674 0.56581 0.60198
 H2727 H 1.22778 0.62974 0.58392
 H2728 H 1.19190 0.62521 0.59021
 C2729 C 0.72473 1.10620 0.60675
 C2730 C 0.73319 1.09813 0.62457
 C2731 C 0.75032 1.10698 0.63333
 C2732 C 0.75941 1.12413 0.62448
 C2733 C 0.75087 1.13217 0.60664
 C2734 C 0.73375 1.12332 0.59790
 C2735 C 0.70661 1.09676 0.59735
 C2736 C 0.69106 1.10890 0.58931
 C2737 C 0.67408 1.10006 0.58031
 C2738 C 0.67228 1.07886 0.57905
 C2739 C 0.68781 1.06672 0.58714
 C2740 C 0.70477 1.07557 0.59621
 H2741 H 0.75630 1.10034 0.64709
 H2742 H 0.75735 1.14528 0.59925
 H2743 H 0.66218 1.10984 0.57464
 H2744 H 0.68698 1.05036 0.58622
 H2745 H 0.72775 1.12973 0.58401
 H2746 H 0.69188 1.12526 0.59026
 H2747 H 0.72642 1.08510 0.63190
 H2748 H 0.71661 1.06582 0.60205
 C2749 C 0.72507 0.60619 1.10667
 C2750 C 0.73374 0.59796 1.12432
 C2751 C 0.75089 0.60679 1.13305
 C2752 C 0.75982 0.62410 1.12435
 C2753 C 0.75107 0.63233 1.10670
 C2754 C 0.73393 0.62349 1.09798
 C2755 C 0.70692 0.59675 1.09729
 C2756 C 0.69130 0.60887 1.08937
 C2757 C 0.67429 0.60001 1.08042
 C2758 C 0.67252 0.57881 1.07912
 C2759 C 0.68812 0.56669 1.08710
 C2760 C 0.70511 0.57555 1.09610
 H2761 H 0.75703 0.59999 1.14665
 H2762 H 0.75741 0.64559 1.09945
 H2763 H 0.66235 0.60978 1.07482
 H2764 H 0.68733 0.55032 1.08614
 H2765 H 0.72777 0.63005 1.08423
 H2766 H 0.69207 0.62523 1.09037
 H2767 H 0.72710 0.58479 1.13155
 H2768 H 0.71701 0.56581 1.10183
 C2769 C 1.22479 0.89397 0.89342
 C2770 C 1.23327 0.90205 0.87561
 C2771 C 1.25042 0.89321 0.86687
 C2772 C 1.25954 0.87608 0.87573
 C2773 C 1.25097 0.86800 0.89355
 C2774 C 1.23382 0.87683 0.90226
 C2775 C 1.20666 0.90341 0.90282
 C2776 C 1.19111 0.89129 0.91085
 C2777 C 1.17413 0.90015 0.91986
 C2778 C 1.17235 0.92135 0.92115
 C2779 C 1.18789 0.93347 0.91307
 C2780 C 1.20484 0.92460 0.90398
 H2781 H 1.25642 0.89988 0.85314
 H2782 H 1.25747 0.85489 0.90093
 H2783 H 1.16223 0.89039 0.92553
 H2784 H 1.18708 0.94984 0.91402
 H2785 H 1.22779 0.87041 0.91614
 H2786 H 1.19191 0.87493 0.90987
 H2787 H 1.22648 0.91508 0.86828
 H2788 H 1.21669 0.93434 0.89816
 C2789 C 1.22530 0.39354 0.39296
 C2790 C 1.23390 0.40183 0.37531
 C2791 C 1.25105 0.39305 0.36648
 C2792 C 1.26014 0.37568 0.37505
 C2793 C 1.25134 0.36741 0.39273
 C2794 C 1.23421 0.37622 0.40153
 C2795 C 1.20715 0.40294 0.40247
 C2796 C 1.19162 0.39078 0.41050
 C2797 C 1.17462 0.39960 0.41957
 C2798 C 1.17277 0.42079 0.42089
 C2799 C 1.18830 0.43295 0.41283
 C2800 C 1.20527 0.42413 0.40370
 H2801 H 1.25701 0.40001 0.35288
 H2802 H 1.25761 0.35416 0.40006
 H2803 H 1.16275 0.38979 0.42523
 H2804 H 1.18746 0.44931 0.41380
 H2805 H 1.22812 0.36962 0.41529
 H2806 H 1.19244 0.37442 0.40949
 H2807 H 1.22720 0.41500 0.36816
 H2808 H 1.21710 0.43391 0.39791
 C2809 C 0.72537 0.89387 0.39348
 C2810 C 0.73410 0.90220 0.37591
 C2811 C 0.75130 0.89343 0.36719
 C2812 C 0.76024 0.87608 0.37582
 C2813 C 0.75143 0.86774 0.39339
 C2814 C 0.73422 0.87652 0.40210
 C2815 C 0.70716 0.90327 0.40285
 C2816 C 0.69153 0.89114 0.41072
 C2817 C 0.67448 0.89998 0.41965
 C2818 C 0.67267 0.92118 0.42098
 C2819 C 0.68828 0.93331 0.41305
 C2820 C 0.70531 0.92447 0.40408
 H2821 H 0.75746 0.90029 0.35362
 H2822 H 0.75779 0.85446 0.40060
 H2823 H 0.66254 0.89020 0.42521
 H2824 H 0.68745 0.94967 0.41403
 H2825 H 0.72802 0.86987 0.41578
 H2826 H 0.69233 0.87478 0.40968
 H2827 H 0.72746 0.91539 0.36872
 H2828 H 0.71720 0.93423 0.39839
 C2829 C 0.72526 0.39389 0.89336
 C2830 C 0.73393 0.40220 0.87575
 C2831 C 0.75115 0.39345 0.86703
 C2832 C 0.76013 0.37615 0.87571
 C2833 C 0.75138 0.36783 0.89332
 C2834 C 0.73417 0.37659 0.90202
 C2835 C 0.70707 0.40327 0.90273
 C2836 C 0.69144 0.39111 0.91055
 C2837 C 0.67440 0.39993 0.91952
 C2838 C 0.67263 0.42113 0.92094
 C2839 C 0.68824 0.43328 0.91305
 C2840 C 0.70525 0.42446 0.90403
 H2841 H 0.75726 0.40027 0.85343
 H2842 H 0.75779 0.35460 0.90056
 H2843 H 0.66245 0.39015 0.92504
 H2844 H 0.68743 0.44964 0.91410
 H2845 H 0.72800 0.36997 0.91574
 H2846 H 0.69222 0.37475 0.90946
 H2847 H 0.72725 0.41535 0.86854
 H2848 H 0.71715 0.43423 0.89837
 C2849 C 0.77493 0.89379 1.10665
 C2850 C 0.76640 0.87617 1.09832
 C2851 C 0.74928 0.86733 1.10708
 C2852 C 0.74023 0.87588 1.12443
 C2853 C 0.74887 0.89348 1.13280
 C2854 C 0.76601 0.90231 1.12403
 C2855 C 0.79304 0.90325 1.09721
 C2856 C 0.80869 0.91107 1.10933
 C2857 C 0.82573 0.91994 1.10044
 C2858 C 0.82749 0.92127 1.07920
 C2859 C 0.81184 0.91343 1.06708
 C2860 C 0.79482 0.90451 1.07598
 H2861 H 0.74325 0.85376 1.10018
 H2862 H 0.74242 0.90059 1.14609
 H2863 H 0.83771 0.92545 1.11020
 H2864 H 0.81263 0.91442 1.05069
 H2865 H 0.77209 0.91602 1.13068
 H2866 H 0.80793 0.91002 1.12572
 H2867 H 0.77311 0.86906 1.08513
 H2868 H 0.78290 0.89886 1.06623
 C2869 C 0.77505 0.39356 0.60648
 C2870 C 0.76654 0.37591 0.59820
 C2871 C 0.74944 0.36706 0.60700
 C2872 C 0.74038 0.37565 0.62432
 C2873 C 0.74899 0.39329 0.63264
 C2874 C 0.76611 0.40212 0.62383
 C2875 C 0.79314 0.40304 0.59701
 C2876 C 0.80877 0.41092 0.60912
 C2877 C 0.82581 0.41980 0.60022
 C2878 C 0.82758 0.42107 0.57898
 C2879 C 0.81195 0.41318 0.56686
 C2880 C 0.79494 0.40425 0.57578
 H2881 H 0.74342 0.35347 0.60012
 H2882 H 0.74254 0.40043 0.64591
 H2883 H 0.83776 0.42534 0.60998
 H2884 H 0.81275 0.41413 0.55047
 H2885 H 0.77218 0.41586 0.63043
 H2886 H 0.80800 0.40991 0.62551
 H2887 H 0.77327 0.36877 0.58503
 H2888 H 0.78303 0.39856 0.56603
 C2889 C 0.27485 0.89378 0.60654
 C2890 C 0.26632 0.87616 0.59821
 C2891 C 0.24921 0.86730 0.60698
 C2892 C 0.24016 0.87583 0.62433
 C2893 C 0.24878 0.89345 0.63270
 C2894 C 0.26591 0.90230 0.62392
 C2895 C 0.29295 0.90327 0.59710
 C2896 C 0.30859 0.91111 0.60923
 C2897 C 0.32563 0.91999 0.60033
 C2898 C 0.32740 0.92129 0.57909
 C2899 C 0.31176 0.91343 0.56697
 C2900 C 0.29474 0.90451 0.57587
 H2901 H 0.24320 0.85371 0.60009
 H2902 H 0.24233 0.90056 0.64599
 H2903 H 0.33760 0.92551 0.61010
 H2904 H 0.31256 0.91441 0.55058
 H2905 H 0.27198 0.91602 0.63056
 H2906 H 0.30782 0.91006 0.62562
 H2907 H 0.27304 0.86905 0.58502
 H2908 H 0.28283 0.89885 0.56612
 C2909 C 0.27499 0.39373 1.10648
 C2910 C 0.26649 0.37608 1.09818
 C2911 C 0.24939 0.36722 1.10695
 C2912 C 0.24031 0.37579 1.12427
 C2913 C 0.24891 0.39341 1.13262
 C2914 C 0.26604 0.40226 1.12384
 C2915 C 0.29306 0.40323 1.09702
 C2916 C 0.30868 0.41111 1.10915
 C2917 C 0.32569 0.42004 1.10024
 C2918 C 0.32743 0.42136 1.07901
 C2919 C 0.31181 0.41347 1.06689
 C2920 C 0.29483 0.40449 1.07579
 H2921 H 0.24340 0.35361 1.10008
 H2922 H 0.24245 0.40053 1.14590
 H2923 H 0.33764 0.42559 1.11001
 H2924 H 0.31259 0.41447 1.05050
 H2925 H 0.27209 0.41600 1.13047
 H2926 H 0.30793 0.41005 1.12553
 H2927 H 0.27323 0.36895 1.08500
 H2928 H 0.28292 0.39879 1.06605
 C2929 C 0.77499 1.10632 0.89341
 C2930 C 0.76642 1.12397 0.90164
 C2931 C 0.74929 1.13275 0.89282
 C2932 C 0.74026 1.12409 0.87553
 C2933 C 0.74893 1.10645 0.86726
 C2934 C 0.76608 1.09768 0.87609
 C2935 C 0.79313 1.09692 0.90288
 C2936 C 0.80880 1.08908 0.89078
 C2937 C 0.82585 1.08024 0.89969
 C2938 C 0.82759 1.07895 0.92093
 C2939 C 0.81194 1.08684 0.93304
 C2940 C 0.79491 1.09574 0.92412
 H2941 H 0.74325 1.14638 0.89963
 H2942 H 0.74248 1.09924 0.85403
 H2943 H 0.83784 1.07471 0.88994
 H2944 H 0.81272 1.08588 0.94943
 H2945 H 0.77219 1.08393 0.86953
 H2946 H 0.80804 1.09009 0.87439
 H2947 H 0.77312 1.13117 0.91479
 H2948 H 0.78298 1.10142 0.93386
 C2949 C 0.77511 0.60637 0.39333
 C2950 C 0.76615 0.59783 0.37599
 C2951 C 0.74904 0.60671 0.36719
 C2952 C 0.74044 0.62437 0.37552
 C2953 C 0.74953 0.63294 0.39282
 C2954 C 0.76663 0.62405 0.40160
 C2955 C 0.79319 0.59684 0.40279
 C2956 C 0.79501 0.59568 0.42403
 C2957 C 0.81200 0.58671 0.43294
 C2958 C 0.82760 0.57872 0.42083
 C2959 C 0.82581 0.57995 0.39959
 C2960 C 0.80879 0.58887 0.39068
 H2961 H 0.74257 0.59958 0.35393
 H2962 H 0.74353 0.64655 0.39970
 H2963 H 0.81282 0.58580 0.44933
 H2964 H 0.83774 0.57433 0.38982
 H2965 H 0.77336 0.63118 0.41477
 H2966 H 0.78312 0.60144 0.43377
 H2967 H 0.77219 0.58407 0.36938
 H2968 H 0.80801 0.58984 0.37429
 C2969 C 0.27495 1.10610 0.39344
 C2970 C 0.26654 1.12387 0.40159
 C2971 C 0.24942 1.13270 0.39280
 C2972 C 0.24026 1.12398 0.37561
 C2973 C 0.24878 1.10623 0.36741
 C2974 C 0.26591 1.09741 0.37622
 C2975 C 0.29305 1.09666 0.40291
 C2976 C 0.30868 1.08874 0.39082
 C2977 C 0.32574 1.07993 0.39975
 C2978 C 0.32751 1.07875 0.42100
 C2979 C 0.31189 1.08670 0.43309
 C2980 C 0.29486 1.09557 0.42415
 H2981 H 0.24351 1.14640 0.39955
 H2982 H 0.24223 1.09898 0.35425
 H2983 H 0.33771 1.07436 0.39000
 H2984 H 0.31270 1.08583 0.44948
 H2985 H 0.27191 1.08358 0.36971
 H2986 H 0.30789 1.08967 0.37442
 H2987 H 0.27335 1.13110 0.41466
 H2988 H 0.28295 1.10132 0.43387
 C2989 C 0.27520 0.60650 0.89349
 C2990 C 0.26682 0.62430 0.90161
 C2991 C 0.24971 0.63314 0.89281
 C2992 C 0.24052 0.62440 0.87565
 C2993 C 0.24901 0.60661 0.86749
 C2994 C 0.26613 0.59779 0.87630
 C2995 C 0.29330 0.59705 0.90296
 C2996 C 0.30890 0.58908 0.89085
 C2997 C 0.32595 0.58023 0.89977
 C2998 C 0.32775 0.57904 0.92101
 C2999 C 0.31215 0.58704 0.93312
 C3000 C 0.29513 0.59596 0.92419
 H3001 H 0.24381 0.64686 0.89954
 H3002 H 0.24244 0.59934 0.85435
 H3003 H 0.33790 0.57463 0.89001
 H3004 H 0.31297 0.58617 0.94951
 H3005 H 0.27211 0.58394 0.86982
 H3006 H 0.30810 0.59000 0.87446
 H3007 H 0.27365 0.63154 0.91466
 H3008 H 0.28325 0.60174 0.93392
 C3009 C 1.10671 1.22484 1.10633
 C3010 C 1.12441 1.23330 1.09809
 C3011 C 1.13325 1.25041 1.10688
 C3012 C 1.12460 1.25952 1.12415
 C3013 C 1.10692 1.25095 1.13241
 C3014 C 1.09809 1.23383 1.12361
 C3015 C 1.09721 1.20678 1.09688
 C3016 C 1.08926 1.19116 1.10901
 C3017 C 1.08024 1.17420 1.10012
 C3018 C 1.07888 1.17250 1.07889
 C3019 C 1.08685 1.18811 1.06676
 C3020 C 1.09593 1.20504 1.07565
 H3021 H 1.14688 1.25640 1.10007
 H3022 H 1.09970 1.25744 1.14562
 H3023 H 1.07464 1.16225 1.10989
 H3024 H 1.08584 1.18736 1.05037
 H3025 H 1.08431 1.22781 1.13017
 H3026 H 1.09032 1.19190 1.12540
 H3027 H 1.13158 1.22653 1.08495
 H3028 H 1.10168 1.21695 1.06591
 C3029 C 1.10649 0.72490 0.60647
 C3030 C 1.09828 0.73349 0.62416
 C3031 C 1.10711 0.75060 0.63295
 C3032 C 1.12439 0.75959 0.62427
 C3033 C 1.13263 0.75089 0.60661
 C3034 C 1.12379 0.73378 0.59783
 C3035 C 1.09701 0.70681 0.59704
 C3036 C 1.10906 0.69112 0.58916
 C3037 C 1.10015 0.67414 0.58021
 C3038 C 1.07897 0.67247 0.57887
 C3039 C 1.06691 0.68814 0.58679
 C3040 C 1.07583 0.70511 0.59579
 H3041 H 1.10031 0.75668 0.64658
 H3042 H 1.14587 0.75728 0.59938
 H3043 H 1.10987 0.66214 0.57465
 H3044 H 1.05056 0.68741 0.58580
 H3045 H 1.13033 0.72766 0.58405
 H3046 H 1.12541 0.69183 0.59021
 H3047 H 1.08513 0.72682 0.63136
 H3048 H 1.06614 0.71706 0.60149
 C3049 C 0.60650 1.22504 0.60634
 C3050 C 0.59779 1.23413 0.62352
 C3051 C 0.60661 1.25125 0.63231
 C3052 C 0.62439 1.25971 0.62414
 C3053 C 0.63313 1.25051 0.60697
 C3054 C 0.62428 1.23340 0.59819
 C3055 C 0.59700 1.20697 0.59690
 C3056 C 0.59584 1.20518 0.57567
 C3057 C 0.58675 1.18825 0.56678
 C3058 C 0.57867 1.17270 0.57892
 C3059 C 0.57992 1.17447 0.60015
 C3060 C 0.58894 1.19142 0.60904
 H3061 H 0.59932 1.25783 0.64543
 H3062 H 0.64683 1.25641 0.60023
 H3063 H 0.58583 1.18744 0.55039
 H3064 H 0.57424 1.16256 0.60993
 H3065 H 0.63151 1.22655 0.58512
 H3066 H 0.60167 1.21703 0.56592
 H3067 H 0.58393 1.22819 0.63000
 H3068 H 0.58991 1.19221 0.62543
 C3069 C 0.60652 0.72504 1.10642
 C3070 C 0.62386 0.73388 1.09781
 C3071 C 0.63271 0.75099 1.10661
 C3072 C 0.62443 0.75971 1.12425
 C3073 C 0.60712 0.75076 1.13289
 C3074 C 0.59828 0.73365 1.12408
 C3075 C 0.59702 0.70696 1.09697
 C3076 C 0.57584 0.70529 1.09570
 C3077 C 0.56691 0.68832 1.08672
 C3078 C 0.57895 0.67262 1.07882
 C3079 C 0.60014 0.67427 1.08018
 C3080 C 0.60906 0.69125 1.08911
 H3081 H 0.64597 0.75735 1.09942
 H3082 H 0.60029 0.75685 1.14649
 H3083 H 0.55056 0.68761 1.08571
 H3084 H 0.60984 0.66224 1.07464
 H3085 H 0.58510 0.72700 1.13125
 H3086 H 0.56616 0.71726 1.10138
 H3087 H 0.63043 0.72775 1.08406
 H3088 H 0.62541 0.69193 1.09018
 C3089 C 0.89345 1.22538 0.89366
 C3090 C 0.90173 1.23400 0.87601
 C3091 C 0.89291 1.25113 0.86719
 C3092 C 0.87558 1.26008 0.87578
 C3093 C 0.86728 1.25138 0.89342
 C3094 C 0.87610 1.23424 0.90224
 C3095 C 0.90293 1.20727 0.90310
 C3096 C 0.89088 1.19155 0.91093
 C3097 C 0.89980 1.17451 0.91980
 C3098 C 0.92099 1.17282 0.92114
 C3099 C 0.93304 1.18852 0.91327
 C3100 C 0.92411 1.20554 0.90435
 H3101 H 0.89972 1.25718 0.85355
 H3102 H 0.85403 1.25780 0.90060
 H3103 H 0.89010 1.16248 0.92532
 H3104 H 0.94939 1.18777 0.91425
 H3105 H 0.86951 1.22810 0.91598
 H3106 H 0.87453 1.19227 0.90988
 H3107 H 0.91490 1.22733 0.86885
 H3108 H 0.93379 1.21752 0.89870
 C3109 C 0.89373 0.72523 0.39364
 C3110 C 0.90206 0.73397 0.37608
 C3111 C 0.89322 0.75111 0.36728
 C3112 C 0.87579 0.75995 0.37582
 C3113 C 0.86743 0.75112 0.39337
 C3114 C 0.87629 0.73398 0.40216
 C3115 C 0.90322 0.70707 0.40303
 C3116 C 0.89118 0.69131 0.41077
 C3117 C 0.90010 0.67424 0.41960
 C3118 C 0.92129 0.67255 0.42095
 C3119 C 0.93334 0.68829 0.41316
 C3120 C 0.92441 0.70535 0.40430
 H3121 H 0.90008 0.75725 0.35372
 H3122 H 0.85411 0.75744 0.40049
 H3123 H 0.89040 0.66218 0.42506
 H3124 H 0.94968 0.68754 0.41416
 H3125 H 0.86965 0.72774 0.41583
 H3126 H 0.87483 0.69201 0.40970
 H3127 H 0.91530 0.72740 0.36896
 H3128 H 0.93409 0.71736 0.39872
 C3129 C 0.39324 1.22521 0.39334
 C3130 C 0.40143 1.23383 0.37566
 C3131 C 0.39259 1.25098 0.36688
 C3132 C 0.37530 1.25995 0.37556
 C3133 C 0.36707 1.25122 0.39322
 C3134 C 0.37592 1.23407 0.40199
 C3135 C 0.40276 1.20709 0.40277
 C3136 C 0.39074 1.19139 0.41069
 C3137 C 0.39970 1.17438 0.41960
 C3138 C 0.42089 1.17270 0.42087
 C3139 C 0.43291 1.18837 0.41289
 C3140 C 0.42394 1.20536 0.40394
 H3141 H 0.39939 1.25708 0.35327
 H3142 H 0.35383 1.25760 0.40045
 H3143 H 0.39001 1.16238 0.42520
 H3144 H 0.44926 1.18762 0.41383
 H3145 H 0.36938 1.22792 0.41576
 H3146 H 0.37439 1.19211 0.40971
 H3147 H 0.41459 1.22717 0.36846
 H3148 H 0.43361 1.21732 0.39822
 C3149 C 0.39343 0.72511 0.89355
 C3150 C 0.40154 0.73367 0.87581
 C3151 C 0.39267 0.75079 0.86704
 C3152 C 0.37544 0.75980 0.87582
 C3153 C 0.36730 0.75113 0.89354
 C3154 C 0.37619 0.73400 0.90229
 C3155 C 0.40297 0.70702 0.90295
 C3156 C 0.39096 0.69132 0.91088
 C3157 C 0.39993 0.67434 0.91981
 C3158 C 0.42112 0.67270 0.92109
 C3159 C 0.43313 0.68836 0.91310
 C3160 C 0.42416 0.70533 0.90413
 H3161 H 0.39940 0.75685 0.85337
 H3162 H 0.35412 0.75755 0.90084
 H3163 H 0.39025 0.66233 0.92541
 H3164 H 0.44948 0.68764 0.91405
 H3165 H 0.36972 0.72789 0.91611
 H3166 H 0.37461 0.69202 0.90989
 H3167 H 0.41465 0.72697 0.86855
 H3168 H 0.43381 0.71729 0.89839
 C3169 C 1.10663 0.77517 0.89362
 C3170 C 1.09841 0.76659 0.87595
 C3171 C 1.10722 0.74944 0.86717
 C3172 C 1.12449 0.74043 0.87586
 C3173 C 1.13273 0.74912 0.89352
 C3174 C 1.12391 0.76626 0.90228
 C3175 C 1.09716 0.79328 0.90304
 C3176 C 1.10922 0.80895 0.91091
 C3177 C 1.10031 0.82596 0.91983
 C3178 C 1.07913 0.82767 0.92115
 C3179 C 1.06706 0.81202 0.91323
 C3180 C 1.07598 0.79502 0.90427
 H3181 H 1.10041 0.74336 0.85356
 H3182 H 1.14595 0.74270 0.90075
 H3183 H 1.11002 0.83796 0.92539
 H3184 H 1.05072 0.81278 0.91421
 H3185 H 1.13045 0.77238 0.91605
 H3186 H 1.12557 0.80822 0.90988
 H3187 H 1.08527 0.77328 0.86875
 H3188 H 1.06629 0.78308 0.89858
 C3189 C 1.10649 0.27494 0.39351
 C3190 C 1.12377 0.26603 0.40218
 C3191 C 1.13262 0.24891 0.39339
 C3192 C 1.12441 0.24025 0.37570
 C3193 C 1.10715 0.24927 0.36700
 C3194 C 1.09831 0.26639 0.37581
 C3195 C 1.09700 0.29303 0.40296
 C3196 C 1.07582 0.29477 0.40418
 C3197 C 1.06690 0.31174 0.41318
 C3198 C 1.07895 0.32738 0.42114
 C3199 C 1.10014 0.32567 0.41984
 C3200 C 1.10905 0.30869 0.41088
 H3201 H 1.14584 0.24249 0.40062
 H3202 H 1.10037 0.24322 0.35337
 H3203 H 1.05055 0.31251 0.41415
 H3204 H 1.10985 0.33765 0.42543
 H3205 H 1.08518 0.27310 0.36860
 H3206 H 1.06614 0.28284 0.39845
 H3207 H 1.13029 0.27212 0.41596
 H3208 H 1.12540 0.30795 0.40986
 C3209 C 0.60651 0.77523 0.39374
 C3210 C 0.59796 0.76631 0.37639
 C3211 C 0.60678 0.74917 0.36760
 C3212 C 0.62439 0.74049 0.37593
 C3213 C 0.63295 0.74951 0.39327
 C3214 C 0.62413 0.76665 0.40205
 C3215 C 0.59702 0.79335 0.40318
 C3216 C 0.59574 0.79513 0.42440
 C3217 C 0.58668 0.81210 0.43327
 C3218 C 0.57872 0.82770 0.42112
 C3219 C 0.58009 0.82596 0.39989
 C3220 C 0.58911 0.80897 0.39103
 H3221 H 0.59963 0.74276 0.35432
 H3222 H 0.64652 0.74344 0.40015
 H3223 H 0.58567 0.81289 0.44966
 H3224 H 0.57450 0.83791 0.39010
 H3225 H 0.63125 0.77335 0.41525
 H3226 H 0.60147 0.78323 0.43417
 H3227 H 0.58424 0.77240 0.36977
 H3228 H 0.59018 0.80821 0.37464
 C3229 C 0.60642 0.27474 0.89360
 C3230 C 0.59790 0.26592 0.87617
 C3231 C 0.60668 0.24877 0.86734
 C3232 C 0.62422 0.23999 0.87571
 C3233 C 0.63275 0.24890 0.89313
 C3234 C 0.62396 0.26604 0.90195
 C3235 C 0.59701 0.29290 0.90304
 C3236 C 0.59571 0.29467 0.92427
 C3237 C 0.58673 0.31169 0.93315
 C3238 C 0.57887 0.32735 0.92101
 C3239 C 0.58026 0.32562 0.89977
 C3240 C 0.58920 0.30858 0.89090
 H3241 H 0.59956 0.24241 0.85402
 H3242 H 0.64630 0.24279 0.89999
 H3243 H 0.58570 0.31247 0.94954
 H3244 H 0.57474 0.33760 0.88999
 H3245 H 0.63107 0.27267 0.91518
 H3246 H 0.60136 0.28274 0.93404
 H3247 H 0.58424 0.27210 0.86952
 H3248 H 0.59029 0.30785 0.87452
 C3249 C 0.89356 0.77505 1.10645
 C3250 C 0.87587 0.76662 1.09818
 C3251 C 0.86700 0.74950 1.10695
 C3252 C 0.87561 0.74036 1.12423
 C3253 C 0.89328 0.74891 1.13253
 C3254 C 0.90213 0.76603 1.12375
 C3255 C 0.90310 0.79313 1.09703
 C3256 C 0.91104 0.80870 1.10919
 C3257 C 0.92011 0.82566 1.10033
 C3258 C 0.92150 0.82741 1.07911
 C3259 C 0.91353 0.81185 1.06695
 C3260 C 0.90441 0.79491 1.07581
 H3261 H 0.85338 0.74352 1.10011
 H3262 H 0.90045 0.74241 1.14576
 H3263 H 0.92571 0.83759 1.11012
 H3264 H 0.91455 0.81265 1.05056
 H3265 H 0.91590 0.77203 1.13033
 H3266 H 0.90995 0.80793 1.12558
 H3267 H 0.86874 0.77341 1.08503
 H3268 H 0.89866 0.78304 1.06605
 C3269 C 0.89334 0.27494 0.60636
 C3270 C 0.87611 0.26605 0.59763
 C3271 C 0.86724 0.24894 0.60639
 C3272 C 0.87539 0.24027 0.62412
 C3273 C 0.89259 0.24929 0.63289
 C3274 C 0.90145 0.26640 0.62411
 C3275 C 0.90288 0.29301 0.59694
 C3276 C 0.92406 0.29466 0.59575
 C3277 C 0.93304 0.31162 0.58677
 C3278 C 0.92103 0.32730 0.57880
 C3279 C 0.89984 0.32569 0.58010
 C3280 C 0.89087 0.30872 0.58902
 H3281 H 0.85407 0.24251 0.59910
 H3282 H 0.89932 0.24324 0.64656
 H3283 H 0.94939 0.31232 0.58582
 H3284 H 0.89016 0.33771 0.57450
 H3285 H 0.91455 0.27310 0.63137
 H3286 H 0.93370 0.28268 0.60148
 H3287 H 0.86965 0.27216 0.58380
 H3288 H 0.87451 0.30804 0.59003
 C3289 C 0.39323 0.77514 0.60644
 C3290 C 0.37600 0.76625 0.59770
 C3291 C 0.36713 0.74912 0.60645
 C3292 C 0.37529 0.74043 0.62417
 C3293 C 0.39250 0.74944 0.63294
 C3294 C 0.40135 0.76657 0.62418
 C3295 C 0.40275 0.79323 0.59704
 C3296 C 0.42394 0.79492 0.59588
 C3297 C 0.43290 0.81190 0.58694
 C3298 C 0.42087 0.82757 0.57897
 C3299 C 0.39968 0.82592 0.58024
 C3300 C 0.39073 0.80893 0.58914
 H3301 H 0.35395 0.74270 0.59916
 H3302 H 0.39923 0.74339 0.64661
 H3303 H 0.44925 0.81263 0.58600
 H3304 H 0.39000 0.83794 0.57465
 H3305 H 0.41444 0.77327 0.63144
 H3306 H 0.43360 0.78295 0.60161
 H3307 H 0.36953 0.77236 0.58389
 H3308 H 0.37438 0.80823 0.59013
 C3309 C 0.39342 0.27519 1.10639
 C3310 C 0.37575 0.26674 1.09812
 C3311 C 0.36688 0.24962 1.10690
 C3312 C 0.37548 0.24052 1.12420
 C3313 C 0.39314 0.24908 1.13250
 C3314 C 0.40199 0.26619 1.12370
 C3315 C 0.40295 0.29326 1.09697
 C3316 C 0.41084 0.30886 1.10913
 C3317 C 0.41990 0.32582 1.10027
 C3318 C 0.42134 0.32755 1.07904
 C3319 C 0.41342 0.31195 1.06689
 C3320 C 0.40431 0.29501 1.07575
 H3321 H 0.35327 0.24364 1.10007
 H3322 H 0.40031 0.24261 1.14575
 H3323 H 0.42545 0.33777 1.11006
 H3324 H 0.41449 0.31273 1.05050
 H3325 H 0.41575 0.27221 1.13029
 H3326 H 0.40971 0.30811 1.12551
 H3327 H 0.36862 0.27351 1.08495
 H3328 H 0.39860 0.28312 1.06599
 C3329 C 1.10625 1.10709 0.77445
 C3330 C 1.12394 1.09891 0.76595
 C3331 C 1.13279 1.10772 0.74883
 C3332 C 1.12422 1.12506 0.73967
 C3333 C 1.10650 1.13326 0.74836
 C3334 C 1.09766 1.12439 0.76548
 C3335 C 1.09678 1.09757 0.79257
 C3336 C 1.08877 1.10961 0.80823
 C3337 C 1.07990 1.10065 0.82528
 C3338 C 1.07875 1.07943 0.82705
 C3339 C 1.08680 1.06740 0.81140
 C3340 C 1.09572 1.07636 0.79437
 H3341 H 1.14643 1.10081 0.74298
 H3342 H 1.09920 1.14648 0.74200
 H3343 H 1.07426 1.11036 0.83726
 H3344 H 1.08595 1.05103 0.81219
 H3345 H 1.08387 1.13091 0.77153
 H3346 H 1.08968 1.12598 0.80747
 H3347 H 1.13112 1.08578 0.77271
 H3348 H 1.10152 1.06667 0.78245
 C3349 C 1.10665 0.60697 0.27433
 C3350 C 1.12433 0.59882 0.26578
 C3351 C 1.13315 0.60767 0.24866
 C3352 C 1.12455 0.62500 0.23952
 C3353 C 1.10685 0.63319 0.24827
 C3354 C 1.09805 0.62429 0.26541
 C3355 C 1.09720 0.59740 0.29245
 C3356 C 1.08916 0.60940 0.30813
 C3357 C 1.08030 0.60040 0.32516
 C3358 C 1.07920 0.57918 0.32692
 C3359 C 1.08729 0.56718 0.31127
 C3360 C 1.09619 0.57619 0.29424
 H3361 H 1.14677 0.60075 0.24276
 H3362 H 1.09954 0.64643 0.24196
 H3363 H 1.07462 0.61009 0.33714
 H3364 H 1.08649 0.55081 0.31204
 H3365 H 1.08428 0.63082 0.27150
 H3366 H 1.09003 0.62577 0.30738
 H3367 H 1.13152 0.58567 0.27250
 H3368 H 1.10201 0.56652 0.28231
 C3369 C 0.60647 1.10693 0.27444
 C3370 C 0.62409 1.09865 0.26589
 C3371 C 0.63297 1.10742 0.24875
 C3372 C 0.62448 1.12481 0.23962
 C3373 C 0.60683 1.13312 0.24836
 C3374 C 0.59797 1.12429 0.26550
 C3375 C 0.59697 1.09745 0.29256
 C3376 C 0.58898 1.10951 0.30821
 C3377 C 0.58007 1.10058 0.32526
 C3378 C 0.57887 1.07937 0.32704
 C3379 C 0.58688 1.06731 0.31139
 C3380 C 0.59583 1.07625 0.29436
 H3381 H 0.64655 1.10042 0.24286
 H3382 H 0.59960 1.14639 0.24204
 H3383 H 0.57443 1.11031 0.33723
 H3384 H 0.58601 1.05095 0.31218
 H3385 H 0.58424 1.13090 0.27158
 H3386 H 0.58993 1.12588 0.30745
 H3387 H 0.63121 1.08547 0.27262
 H3388 H 0.60160 1.06654 0.28245
 C3389 C 0.60622 0.60666 0.77465
 C3390 C 0.62394 0.59846 0.76620
 C3391 C 0.63280 0.60726 0.74907
 C3392 C 0.62416 0.62451 0.73995
 C3393 C 0.60646 0.63275 0.74850
 C3394 C 0.59760 0.62393 0.76564
 C3395 C 0.59674 0.59717 0.79275
 C3396 C 0.58879 0.60922 0.80842
 C3397 C 0.57987 0.60027 0.82545
 C3398 C 0.57863 0.57906 0.82716
 C3399 C 0.58661 0.56701 0.81149
 C3400 C 0.59557 0.57596 0.79449
 H3401 H 0.64645 0.60046 0.74311
 H3402 H 0.59927 0.64595 0.74197
 H3403 H 0.57427 0.60998 0.83745
 H3404 H 0.58569 0.55064 0.81226
 H3405 H 0.58381 0.63047 0.77167
 H3406 H 0.58978 0.62559 0.80769
 H3407 H 0.63111 0.58534 0.77298
 H3408 H 0.60134 0.56627 0.78255
 C3409 C 0.89372 0.89340 0.77474
 C3410 C 0.90232 0.87611 0.76576
 C3411 C 0.89349 0.86731 0.74862
 C3412 C 0.87582 0.87557 0.74003
 C3413 C 0.86719 0.89284 0.74911
 C3414 C 0.87603 0.90163 0.76624
 C3415 C 0.90318 0.90287 0.79285
 C3416 C 0.90432 0.92408 0.79461
 C3417 C 0.91324 0.93300 0.81163
 C3418 C 0.92122 0.92093 0.82729
 C3419 C 0.92001 0.89972 0.82556
 C3420 C 0.91113 0.89080 0.80852
 H3421 H 0.90067 0.85409 0.74212
 H3422 H 0.85356 0.89965 0.74313
 H3423 H 0.91413 0.94937 0.81241
 H3424 H 0.92562 0.89000 0.83755
 H3425 H 0.86885 0.91476 0.77300
 H3426 H 0.89856 0.93378 0.78267
 H3427 H 0.91609 0.86955 0.77182
 H3428 H 0.91017 0.87443 0.80777
 C3429 C 0.89368 0.39301 0.27425
 C3430 C 0.90221 0.37568 0.26531
 C3431 C 0.89338 0.36686 0.24817
 C3432 C 0.87572 0.37515 0.23943
 C3433 C 0.86720 0.39252 0.24856
 C3434 C 0.87605 0.40127 0.26571
 C3435 C 0.90314 0.40248 0.29239
 C3436 C 0.90418 0.42369 0.29422
 C3437 C 0.91306 0.43261 0.31127
 C3438 C 0.92111 0.42055 0.32691
 C3439 C 0.92001 0.39934 0.32510
 C3440 C 0.91116 0.39041 0.30803
 H3441 H 0.90064 0.35361 0.24184
 H3442 H 0.85361 0.39950 0.24268
 H3443 H 0.91386 0.44898 0.31209
 H3444 H 0.92567 0.38960 0.33706
 H3445 H 0.86890 0.41442 0.27244
 H3446 H 0.89839 0.43340 0.28231
 H3447 H 0.91595 0.36908 0.27139
 H3448 H 0.91028 0.37404 0.30725
 C3449 C 0.39366 0.89295 0.27416
 C3450 C 0.37604 0.90116 0.26554
 C3451 C 0.36723 0.89232 0.24842
 C3452 C 0.37576 0.87492 0.23937
 C3453 C 0.39342 0.86669 0.24817
 C3454 C 0.40223 0.87559 0.26529
 C3455 C 0.40306 0.90249 0.29231
 C3456 C 0.41106 0.89047 0.30800
 C3457 C 0.41983 0.89945 0.32508
 C3458 C 0.42088 0.92067 0.32687
 C3459 C 0.41283 0.93268 0.31120
 C3460 C 0.40403 0.92370 0.29413
 H3461 H 0.35365 0.89928 0.24249
 H3462 H 0.40069 0.85342 0.24190
 H3463 H 0.42549 0.88974 0.33707
 H3464 H 0.41360 0.94906 0.31199
 H3465 H 0.41596 0.86903 0.27142
 H3466 H 0.41022 0.87410 0.30725
 H3467 H 0.36887 0.91433 0.27221
 H3468 H 0.39824 0.93339 0.28219
 C3469 C 0.39370 0.39321 0.77470
 C3470 C 0.37604 0.40142 0.76613
 C3471 C 0.36725 0.39261 0.74899
 C3472 C 0.37591 0.37533 0.73995
 C3473 C 0.39354 0.36706 0.74862
 C3474 C 0.40231 0.37590 0.76578
 C3475 C 0.40313 0.40274 0.79281
 C3476 C 0.41107 0.39070 0.80851
 C3477 C 0.41997 0.39966 0.82553
 C3478 C 0.42118 0.42088 0.82723
 C3479 C 0.41319 0.43291 0.81154
 C3480 C 0.40425 0.42395 0.79454
 H3481 H 0.35364 0.39942 0.74295
 H3482 H 0.40073 0.35381 0.74219
 H3483 H 0.42558 0.38995 0.83754
 H3484 H 0.41409 0.44928 0.81229
 H3485 H 0.41606 0.36935 0.77189
 H3486 H 0.41010 0.37434 0.80781
 H3487 H 0.36886 0.41457 0.77283
 H3488 H 0.39849 0.43363 0.78260
 C3489 C 1.10622 0.89294 1.22545
 C3490 C 1.12347 0.90155 1.23442
 C3491 C 1.13225 0.89274 1.25158
 C3492 C 1.12401 0.87507 1.26024
 C3493 C 1.10676 0.86643 1.25119
 C3494 C 1.09797 0.87527 1.23401
 C3495 C 1.09682 0.90247 1.20731
 C3496 C 1.07566 0.90381 1.20553
 C3497 C 1.06684 0.91301 1.18858
 C3498 C 1.07897 0.92103 1.17299
 C3499 C 1.10015 0.91958 1.17474
 C3500 C 1.10896 0.91045 1.19171
 H3501 H 1.14546 0.89994 1.25802
 H3502 H 1.09995 0.85283 1.25727
 H3503 H 1.05050 0.91408 1.18781
 H3504 H 1.10993 0.92520 1.16280
 H3505 H 1.08484 0.86811 1.22728
 H3506 H 1.06591 0.89804 1.21742
 H3507 H 1.13003 0.91531 1.22835
 H3508 H 1.12530 0.90934 1.19248
 C3509 C 1.10621 0.39296 0.72526
 C3510 C 1.12349 0.40160 0.73416
 C3511 C 1.13233 0.39283 0.75132
 C3512 C 1.12412 0.37517 0.76003
 C3513 C 1.10685 0.36651 0.75105
 C3514 C 1.09801 0.37530 0.73388
 C3515 C 1.09675 0.40240 0.70712
 C3516 C 1.07558 0.40368 0.70538
 C3517 C 1.06669 0.41276 0.68841
 C3518 C 1.07877 0.42075 0.67276
 C3519 C 1.09995 0.41936 0.67446
 C3520 C 1.10883 0.41033 0.69145
 H3521 H 1.14556 0.40005 0.75770
 H3522 H 1.10007 0.35291 0.75717
 H3523 H 1.05034 0.41378 0.68766
 H3524 H 1.10969 0.42496 0.66247
 H3525 H 1.08487 0.36812 0.72720
 H3526 H 1.06587 0.39795 0.71733
 H3527 H 1.13002 0.41536 0.72803
 H3528 H 1.12518 0.40927 0.69218
 C3529 C 0.60629 0.89341 0.72526
 C3530 C 0.62399 0.90165 0.73369
 C3531 C 0.63291 0.89284 0.75078
 C3532 C 0.62436 0.87555 0.75989
 C3533 C 0.60668 0.86727 0.75135
 C3534 C 0.59777 0.87609 0.73425
 C3535 C 0.59672 0.90290 0.70720
 C3536 C 0.58878 0.89084 0.69154
 C3537 C 0.57978 0.89978 0.67456
 C3538 C 0.57844 0.92099 0.67288
 C3539 C 0.58640 0.93304 0.68854
 C3540 C 0.59546 0.92410 0.70550
 H3541 H 0.64654 0.89968 0.75675
 H3542 H 0.59955 0.85403 0.75787
 H3543 H 0.57420 0.89007 0.66255
 H3544 H 0.58542 0.94941 0.68781
 H3545 H 0.58399 0.86953 0.72825
 H3546 H 0.58984 0.87448 0.69225
 H3547 H 0.63109 0.91481 0.72693
 H3548 H 0.60120 0.93378 0.71744
 C3549 C 0.60641 0.39281 1.22586
 C3550 C 0.59786 0.37548 1.23478
 C3551 C 0.60667 0.36662 1.25193
 C3552 C 0.62431 0.37487 1.26071
 C3553 C 0.63285 0.39224 1.25159
 C3554 C 0.62403 0.40104 1.23443
 C3555 C 0.59697 0.40232 1.20771
 C3556 C 0.59592 0.42353 1.20588
 C3557 C 0.58704 0.43250 1.18884
 C3558 C 0.57899 0.42048 1.17319
 C3559 C 0.58011 0.39926 1.17499
 C3560 C 0.58896 0.39029 1.19205
 H3561 H 0.59940 0.35337 1.25825
 H3562 H 0.64642 0.39920 1.25750
 H3563 H 0.58623 0.44887 1.18803
 H3564 H 0.57445 0.38955 1.16302
 H3565 H 0.63119 0.41419 1.22772
 H3566 H 0.60171 0.43322 1.21780
 H3567 H 0.58413 0.36891 1.22868
 H3568 H 0.58985 0.37392 1.19282
 C3569 C 0.89380 1.10653 1.22522
 C3570 C 0.87602 1.09840 1.23359
 C3571 C 0.86715 1.10719 1.25071
 C3572 C 0.87585 1.12435 1.25990
 C3573 C 0.89361 1.13252 1.25141
 C3574 C 0.90247 1.12372 1.23428
 C3575 C 0.90330 1.09705 1.20714
 C3576 C 0.91126 1.10912 1.19148
 C3577 C 0.92018 1.10018 1.17447
 C3578 C 0.92144 1.07897 1.17277
 C3579 C 0.91346 1.06691 1.18844
 C3580 C 0.90448 1.07585 1.20542
 H3581 H 0.85344 1.10046 1.25661
 H3582 H 0.90084 1.14566 1.25799
 H3583 H 0.92579 1.10990 1.16247
 H3584 H 0.91440 1.05054 1.18769
 H3585 H 0.91630 1.13020 1.22831
 H3586 H 0.91028 1.12548 1.19222
 H3587 H 0.86881 1.08534 1.22675
 H3588 H 0.89871 1.06616 1.21736
 C3589 C 0.89375 0.60683 0.72512
 C3590 C 0.87642 0.59826 0.73400
 C3591 C 0.86758 0.60706 0.75113
 C3592 C 0.87586 0.62467 0.75985
 C3593 C 0.89317 0.63328 0.75087
 C3594 C 0.90201 0.62446 0.73373
 C3595 C 0.90321 0.59732 0.70702
 C3596 C 0.92438 0.59593 0.70532
 C3597 C 0.93326 0.58676 0.68839
 C3598 C 0.92118 0.57881 0.67274
 C3599 C 0.90000 0.58029 0.67441
 C3600 C 0.89113 0.58941 0.69135
 H3601 H 0.85433 0.59988 0.75752
 H3602 H 0.89998 0.64686 0.75699
 H3603 H 0.94960 0.58566 0.68766
 H3604 H 0.89026 0.57471 0.66243
 H3605 H 0.91520 0.63159 0.72706
 H3606 H 0.93410 0.60165 0.71725
 H3607 H 0.86985 0.58453 0.72789
 H3608 H 0.87479 0.59056 0.69205
 C3609 C 0.39328 1.10680 0.72502
 C3610 C 0.37573 1.09843 0.73366
 C3611 C 0.36675 1.10734 0.75067
 C3612 C 0.37509 1.12487 0.75947
 C3613 C 0.39261 1.13329 0.75072
 C3614 C 0.40159 1.12436 0.73372
 C3615 C 0.40290 1.09724 0.70703
 C3616 C 0.41067 1.10925 0.69122
 C3617 C 0.41968 1.10028 0.67427
 C3618 C 0.42117 1.07908 0.67275
 C3619 C 0.41339 1.06705 0.68854
 C3620 C 0.40436 1.07603 0.70549
 H3621 H 0.35322 1.10043 0.75679
 H3622 H 0.39961 1.14668 0.75704
 H3623 H 0.42515 1.10995 0.66217
 H3624 H 0.41452 1.05069 0.68790
 H3625 H 0.41526 1.13103 0.72758
 H3626 H 0.40946 1.12561 0.69179
 H3627 H 0.36879 1.08508 0.72712
 H3628 H 0.39876 1.06637 0.71754
 C3629 C 0.39388 0.60693 1.22534
 C3630 C 0.37622 0.59874 1.23391
 C3631 C 0.36740 0.60760 1.25102
 C3632 C 0.37600 0.62492 1.26002
 C3633 C 0.39365 0.63315 1.25135
 C3634 C 0.40247 0.62426 1.23422
 C3635 C 0.40331 0.59738 1.20723
 C3636 C 0.41122 0.60939 1.19150
 C3637 C 0.42007 0.60040 1.17446
 C3638 C 0.42127 0.57918 1.17278
 C3639 C 0.41331 0.56717 1.18849
 C3640 C 0.40442 0.57616 1.20551
 H3641 H 0.35379 0.60080 1.25706
 H3642 H 0.40081 0.64640 1.25777
 H3643 H 0.42567 0.61009 1.16243
 H3644 H 0.41420 0.55080 1.18776
 H3645 H 0.41622 0.63080 1.22811
 H3646 H 0.41027 0.62576 1.19220
 H3647 H 0.36905 0.58558 1.22723
 H3648 H 0.39867 0.56650 1.21748
 C3649 C 1.10655 1.22546 0.89322
 C3650 C 1.12413 1.23398 0.90157
 C3651 C 1.13301 1.25113 0.89285
 C3652 C 1.12456 1.26029 0.87544
 C3653 C 1.10694 1.25156 0.86706
 C3654 C 1.09808 1.23442 0.87584
 C3655 C 1.09703 1.20732 0.90264
 C3656 C 1.08905 1.19175 0.89050
 C3657 C 1.08012 1.17470 0.89937
 C3658 C 1.07889 1.17283 0.92061
 C3659 C 1.08690 1.18840 0.93275
 C3660 C 1.09587 1.20543 0.92387
 H3661 H 1.14656 1.25701 0.89989
 H3662 H 1.09973 1.25790 0.85378
 H3663 H 1.07449 1.16279 0.88957
 H3664 H 1.08601 1.18754 0.94914
 H3665 H 1.08438 1.22837 0.86918
 H3666 H 1.09002 1.19257 0.87411
 H3667 H 1.13122 1.22724 0.91477
 H3668 H 1.10163 1.21728 0.93365
 C3669 C 1.10643 0.72516 0.39321
 C3670 C 1.12357 0.73411 0.40201
 C3671 C 1.13245 0.75128 0.39333
 C3672 C 1.12440 0.76004 0.37552
 C3673 C 1.10720 0.75092 0.36673
 C3674 C 1.09837 0.73374 0.37546
 C3675 C 1.09697 0.70698 0.40256
 C3676 C 1.07579 0.70511 0.40362
 C3677 C 1.06691 0.68810 0.41261
 C3678 C 1.07899 0.67252 0.42072
 C3679 C 1.10018 0.67434 0.41953
 C3680 C 1.10905 0.69138 0.41060
 H3681 H 1.14556 0.75758 0.40081
 H3682 H 1.10041 0.75686 0.35304
 H3683 H 1.05056 0.68727 0.41348
 H3684 H 1.10994 0.66243 0.42522
 H3685 H 1.08533 0.72701 0.36813
 H3686 H 1.06607 0.71699 0.39780
 H3687 H 1.12999 0.72801 0.41586
 H3688 H 1.12540 0.69220 0.40970
 C3689 C 0.60626 1.22539 0.39307
 C3690 C 0.59816 1.23395 0.37532
 C3691 C 0.60700 1.25111 0.36654
 C3692 C 0.62423 1.26024 0.37526
 C3693 C 0.63231 1.25149 0.39306
 C3694 C 0.62344 1.23435 0.40181
 C3695 C 0.59681 1.20722 0.40249
 C3696 C 0.60890 1.19165 0.41058
 C3697 C 0.60003 1.17463 0.41957
 C3698 C 0.57884 1.17280 0.42077
 C3699 C 0.56676 1.18835 0.41262
 C3700 C 0.57563 1.20535 0.40357
 H3701 H 0.60018 1.25704 0.35286
 H3702 H 0.64545 1.25779 0.40050
 H3703 H 0.60979 1.16274 0.42529
 H3704 H 0.55041 1.18753 0.41349
 H3705 H 0.62990 1.22827 0.41564
 H3706 H 0.62525 1.19246 0.40968
 H3707 H 0.58510 1.22722 0.36804
 H3708 H 0.56591 1.21720 0.39771
 C3709 C 0.60638 0.72496 0.89322
 C3710 C 0.59820 0.73364 0.87556
 C3711 C 0.60709 0.75078 0.86680
 C3712 C 0.62439 0.75968 0.87549
 C3713 C 0.63258 0.75090 0.89315
 C3714 C 0.62369 0.73378 0.90189
 C3715 C 0.59691 0.70681 0.90262
 C3716 C 0.60898 0.69114 0.91053
 C3717 C 0.60010 0.67415 0.91952
 C3718 C 0.57892 0.67243 0.92088
 C3719 C 0.56684 0.68809 0.91293
 C3720 C 0.57573 0.70507 0.90388
 H3721 H 0.60031 0.75694 0.85319
 H3722 H 0.64582 0.75723 0.90041
 H3723 H 0.60984 0.66217 0.92510
 H3724 H 0.55049 0.68734 0.91394
 H3725 H 0.63021 0.72761 0.91566
 H3726 H 0.62533 0.69187 0.90948
 H3727 H 0.58503 0.72704 0.86835
 H3728 H 0.56602 0.71701 0.89817
 C3729 C 0.89391 1.22502 1.10690
 C3730 C 0.87680 1.23409 1.09807
 C3731 C 0.86799 1.25124 1.10682
 C3732 C 0.87606 1.25978 1.12464
 C3733 C 0.89316 1.25062 1.13348
 C3734 C 0.90198 1.23346 1.12471
 C3735 C 0.90334 1.20689 1.09748
 C3736 C 0.92451 1.20505 1.09632
 C3737 C 0.93338 1.18808 1.08724
 C3738 C 0.92127 1.17254 1.07916
 C3739 C 0.90009 1.17433 1.08044
 C3740 C 0.89123 1.19133 1.08945
 H3741 H 0.85490 1.25777 1.09945
 H3742 H 0.89982 1.25660 1.14721
 H3743 H 0.94972 1.18726 1.08630
 H3744 H 0.89033 1.16243 1.07478
 H3745 H 0.91500 1.22665 1.13202
 H3746 H 0.93424 1.21690 1.10214
 H3747 H 0.87039 1.22809 1.08419
 H3748 H 0.87489 1.19215 1.09041
 C3749 C 0.89371 0.72500 0.60673
 C3750 C 0.90190 0.73362 0.62440
 C3751 C 0.89306 0.75079 0.63314
 C3752 C 0.87580 0.75977 0.62442
 C3753 C 0.86761 0.75105 0.60675
 C3754 C 0.87645 0.73390 0.59803
 C3755 C 0.90317 0.70684 0.59732
 C3756 C 0.89108 0.69123 0.58937
 C3757 C 0.89995 0.67424 0.58035
 C3758 C 0.92113 0.67248 0.57902
 C3759 C 0.93322 0.68807 0.58703
 C3760 C 0.92434 0.70505 0.59610
 H3761 H 0.89983 0.75691 0.64676
 H3762 H 0.85439 0.75744 0.59949
 H3763 H 0.89020 0.66231 0.57473
 H3764 H 0.94956 0.68729 0.58605
 H3765 H 0.86993 0.72777 0.58426
 H3766 H 0.87473 0.69200 0.59040
 H3767 H 0.91503 0.72695 0.63163
 H3768 H 0.93406 0.71694 0.60186
 C3769 C 0.39340 1.22538 0.60700
 C3770 C 0.40159 1.23401 0.62464
 C3771 C 0.39281 1.25120 0.63340
 C3772 C 0.37550 1.26028 0.62473
 C3773 C 0.36731 1.25146 0.60703
 C3774 C 0.37615 1.23430 0.59833
 C3775 C 0.40284 1.20721 0.59758
 C3776 C 0.39075 1.19164 0.58953
 C3777 C 0.39962 1.17462 0.58054
 C3778 C 0.42080 1.17279 0.57931
 C3779 C 0.43289 1.18835 0.58739
 C3780 C 0.42402 1.20534 0.59643
 H3781 H 0.39971 1.25718 0.64701
 H3782 H 0.35410 1.25772 0.59965
 H3783 H 0.38985 1.16273 0.57486
 H3784 H 0.44924 1.18752 0.58648
 H3785 H 0.36962 1.22817 0.58456
 H3786 H 0.37441 1.19245 0.59047
 H3787 H 0.41472 1.22732 0.63186
 H3788 H 0.43375 1.21721 0.60221
 C3789 C 0.39384 0.72549 1.10710
 C3790 C 0.40194 0.73400 1.12486
 C3791 C 0.39310 0.75115 1.13366
 C3792 C 0.37586 0.76030 1.12495
 C3793 C 0.36781 0.75162 1.10712
 C3794 C 0.37668 0.73450 1.09836
 C3795 C 0.40327 0.70731 1.09768
 C3796 C 0.39116 0.69180 1.08957
 C3797 C 0.40000 0.67478 1.08057
 C3798 C 0.42118 0.67288 1.07939
 C3799 C 0.43330 0.68838 1.08756
 C3800 C 0.42445 0.70538 1.09661
 H3801 H 0.39991 0.75703 1.14736
 H3802 H 0.35467 0.75795 1.09967
 H3803 H 0.39022 0.66292 1.07484
 H3804 H 0.44964 0.68751 1.08670
 H3805 H 0.37023 0.72847 1.08451
 H3806 H 0.37481 0.69266 1.09045
 H3807 H 0.41500 0.72723 1.13214
 H3808 H 0.43419 0.71720 1.10248
 C3809 C 0.89380 0.77511 0.89329
 C3810 C 0.90199 0.76648 0.87562
 C3811 C 0.89312 0.74935 0.86685
 C3812 C 0.87583 0.74041 0.87555
 C3813 C 0.86761 0.74916 0.89321
 C3814 C 0.87649 0.76628 0.90195
 C3815 C 0.90329 0.79322 0.90272
 C3816 C 0.89122 0.80887 0.91068
 C3817 C 0.90011 0.82583 0.91970
 C3818 C 0.92129 0.82753 0.92103
 C3819 C 0.93337 0.81191 0.91301
 C3820 C 0.92446 0.79496 0.90395
 H3821 H 0.89989 0.74322 0.85323
 H3822 H 0.85438 0.74281 0.90046
 H3823 H 0.89038 0.83778 0.92533
 H3824 H 0.94971 0.81266 0.91400
 H3825 H 0.86996 0.77241 0.91572
 H3826 H 0.87487 0.80815 0.90966
 H3827 H 0.91515 0.77311 0.86841
 H3828 H 0.93417 0.78305 0.89819
 C3829 C 0.89384 0.27478 0.39312
 C3830 C 0.90200 0.26615 0.37543
 C3831 C 0.89312 0.24901 0.36671
 C3832 C 0.87586 0.24006 0.37546
 C3833 C 0.86771 0.24879 0.39315
 C3834 C 0.87659 0.26592 0.40186
 C3835 C 0.90332 0.29292 0.40249
 C3836 C 0.89124 0.30857 0.41040
 C3837 C 0.90012 0.32556 0.41939
 C3838 C 0.92130 0.32727 0.42073
 C3839 C 0.93338 0.31164 0.41274
 C3840 C 0.92449 0.29467 0.40371
 H3841 H 0.89986 0.24288 0.35307
 H3842 H 0.85449 0.24244 0.40044
 H3843 H 0.89038 0.33752 0.42499
 H3844 H 0.94973 0.31240 0.41374
 H3845 H 0.87009 0.27207 0.41564
 H3846 H 0.87489 0.30784 0.40938
 H3847 H 0.91512 0.27280 0.36817
 H3848 H 0.93420 0.28275 0.39797
 C3849 C 0.39352 0.77466 0.39306
 C3850 C 0.37627 0.76577 0.40174
 C3851 C 0.36738 0.74866 0.39301
 C3852 C 0.37551 0.73987 0.37526
 C3853 C 0.39285 0.74890 0.36660
 C3854 C 0.40169 0.76604 0.37538
 C3855 C 0.40295 0.79284 0.40246
 C3856 C 0.42413 0.79470 0.40359
 C3857 C 0.43298 0.81171 0.41261
 C3858 C 0.42086 0.82727 0.42069
 C3859 C 0.39968 0.82544 0.41945
 C3860 C 0.39084 0.80842 0.41048
 H3861 H 0.35417 0.74242 0.40040
 H3862 H 0.39973 0.74292 0.35298
 H3863 H 0.44932 0.81254 0.41352
 H3864 H 0.38990 0.83734 0.42512
 H3865 H 0.41482 0.77270 0.36816
 H3866 H 0.43387 0.78284 0.39780
 H3867 H 0.36976 0.77189 0.41553
 H3868 H 0.37450 0.80761 0.40953
 C3869 C 0.39367 0.27483 0.89339
 C3870 C 0.37626 0.26608 0.90196
 C3871 C 0.36741 0.24893 0.89323
 C3872 C 0.37575 0.24009 0.87569
 C3873 C 0.39317 0.24890 0.86711
 C3874 C 0.40200 0.26605 0.87585
 C3875 C 0.40313 0.29298 0.90278
 C3876 C 0.42431 0.29469 0.90411
 C3877 C 0.43319 0.31168 0.91311
 C3878 C 0.42111 0.32738 0.92096
 C3879 C 0.39993 0.32571 0.91952
 C3880 C 0.39105 0.30870 0.91056
 H3881 H 0.35412 0.24261 0.90040
 H3882 H 0.40000 0.24271 0.85355
 H3883 H 0.44954 0.31241 0.91418
 H3884 H 0.39020 0.33772 0.92503
 H3885 H 0.41523 0.27261 0.86871
 H3886 H 0.43402 0.28272 0.89849
 H3887 H 0.36963 0.27232 0.91563
 H3888 H 0.37471 0.30802 0.90943
 C3889 C 1.10658 0.77462 1.10717
 C3890 C 1.12390 0.76574 1.09857
 C3891 C 1.13275 0.74860 1.10734
 C3892 C 1.12451 0.73975 1.12502
 C3893 C 1.10715 0.74880 1.13362
 C3894 C 1.09835 0.76597 1.12481
 C3895 C 1.09713 0.79277 1.09770
 C3896 C 1.07595 0.79462 1.09654
 C3897 C 1.06708 0.81162 1.08748
 C3898 C 1.07917 0.82719 1.07939
 C3899 C 1.10035 0.82536 1.08062
 C3900 C 1.10922 0.80835 1.08963
 H3901 H 1.14598 0.74236 1.10000
 H3902 H 1.10022 0.74281 1.14721
 H3903 H 1.05073 0.81245 1.08658
 H3904 H 1.11011 0.83726 1.07493
 H3905 H 1.08519 0.77264 1.13199
 H3906 H 1.06623 0.78276 1.10234
 H3907 H 1.13046 0.77187 1.08481
 H3908 H 1.12557 0.80755 1.09059
 C3909 C 1.10621 0.27438 0.60708
 C3910 C 1.12393 0.26593 0.59893
 C3911 C 1.13279 0.24881 0.60774
 C3912 C 1.12419 0.23961 0.62505
 C3913 C 1.10642 0.24824 0.63322
 C3914 C 1.09758 0.26536 0.62435
 C3915 C 1.09675 0.29251 0.59757
 C3916 C 1.08861 0.30807 0.60963
 C3917 C 1.07979 0.32514 0.60068
 C3918 C 1.07883 0.32705 0.57943
 C3919 C 1.08700 0.31150 0.56736
 C3920 C 1.09586 0.29444 0.57632
 H3921 H 1.14646 0.24302 0.60085
 H3922 H 1.09909 0.24184 0.64641
 H3923 H 1.07404 0.33703 0.61043
 H3924 H 1.08631 0.31237 0.55097
 H3925 H 1.08376 0.27136 0.63086
 H3926 H 1.08937 0.30721 0.62603
 H3927 H 1.13116 0.27273 0.58583
 H3928 H 1.10176 0.28261 0.56660
 C3929 C 0.60611 0.77508 0.60660
 C3930 C 0.59750 0.76599 0.62385
 C3931 C 0.60638 0.74885 0.63262
 C3932 C 0.62411 0.74037 0.62435
 C3933 C 0.63274 0.74958 0.60713
 C3934 C 0.62385 0.76670 0.59838
 C3935 C 0.59660 0.79320 0.59717
 C3936 C 0.59548 0.79507 0.57594
 C3937 C 0.58654 0.81210 0.56705
 C3938 C 0.57853 0.82769 0.57918
 C3939 C 0.57971 0.82584 0.60042
 C3940 C 0.58860 0.80878 0.60931
 H3941 H 0.59920 0.74226 0.64580
 H3942 H 0.64641 0.74369 0.60032
 H3943 H 0.58566 0.81295 0.55066
 H3944 H 0.57409 0.83777 0.61020
 H3945 H 0.63102 0.77355 0.58528
 H3946 H 0.60128 0.78321 0.56619
 H3947 H 0.58369 0.77195 0.63042
 H3948 H 0.58954 0.80795 0.62570
 C3949 C 0.60627 0.27491 1.10673
 C3950 C 0.59773 0.26600 1.12411
 C3951 C 0.60655 0.24885 1.13293
 C3952 C 0.62415 0.24018 1.12459
 C3953 C 0.63271 0.24920 1.10722
 C3954 C 0.62388 0.26633 1.09842
 C3955 C 0.59682 0.29305 1.09726
 C3956 C 0.59558 0.29484 1.07603
 C3957 C 0.58663 0.31186 1.06713
 C3958 C 0.57874 0.32752 1.07925
 C3959 C 0.58007 0.32576 1.10049
 C3960 C 0.58897 0.30871 1.10938
 H3961 H 0.59942 0.24242 1.14622
 H3962 H 0.64628 0.24314 1.10034
 H3963 H 0.58564 0.31265 1.05074
 H3964 H 0.57454 0.33774 1.11026
 H3965 H 0.63101 0.27302 1.08521
 H3966 H 0.60126 0.28291 1.06629
 H3967 H 0.58402 0.27211 1.13074
 H3968 H 0.59003 0.30795 1.12577
 C3969 C 1.22522 1.10662 0.89332
 C3970 C 1.23413 1.09812 0.87593
 C3971 C 1.25126 1.10695 0.86716
 C3972 C 1.25991 1.12453 0.87556
 C3973 C 1.25091 1.13307 0.89292
 C3974 C 1.23379 1.12422 0.90169
 C3975 C 1.20711 1.09712 0.90274
 C3976 C 1.19129 1.10919 0.91035
 C3977 C 1.17432 1.10027 0.91931
 C3978 C 1.17276 1.07908 0.92091
 C3979 C 1.18854 1.06700 0.91324
 C3980 C 1.20552 1.07592 0.90426
 H3981 H 1.25756 1.10000 0.85371
 H3982 H 1.25716 1.14647 0.89996
 H3983 H 1.16223 1.10998 0.92469
 H3984 H 1.18787 1.05065 0.91443
 H3985 H 1.22744 1.13098 0.91525
 H3986 H 1.19189 1.12554 0.90909
 H3987 H 1.22769 1.08475 0.86892
 H3988 H 1.21756 1.06622 0.89879
 C3989 C 1.22512 0.60658 0.39358
 C3990 C 1.23379 0.59839 0.37593
 C3991 C 1.25090 0.60728 0.36719
 C3992 C 1.25981 0.62459 0.37588
 C3993 C 1.25103 0.63281 0.39352
 C3994 C 1.23391 0.62392 0.40225
 C3995 C 1.20702 0.59705 0.40296
 C3996 C 1.19131 0.60909 0.41081
 C3997 C 1.17433 0.60014 0.41972
 C3998 C 1.17268 0.57893 0.42107
 C3999 C 1.18837 0.56688 0.41316
 C4000 C 1.20534 0.57584 0.40419
 H4001 H 1.25704 0.60048 0.35359
 H4002 H 1.25735 0.64608 0.40075
 H4003 H 1.16231 0.60984 0.42526
 H4004 H 1.18766 0.55052 0.41415
 H4005 H 1.22773 0.63045 0.41599
 H4006 H 1.19199 0.62545 0.40977
 H4007 H 1.22719 0.58521 0.36872
 H4008 H 1.21730 0.56616 0.39851
 C4009 C 0.72493 1.10641 0.39348
 C4010 C 0.73379 1.12372 0.40211
 C4011 C 0.75091 1.13256 0.39332
 C4012 C 0.75960 1.12430 0.37566
 C4013 C 0.75062 1.10701 0.36700
 C4014 C 0.73351 1.09819 0.37580
 C4015 C 0.70684 1.09695 0.40291
 C4016 C 0.70511 1.07576 0.40420
 C4017 C 0.68813 1.06686 0.41321
 C4018 C 0.67248 1.07897 0.42109
 C4019 C 0.67418 1.10017 0.41971
 C4020 C 0.69117 1.10905 0.41076
 H4021 H 0.75729 1.14581 0.40053
 H4022 H 0.75669 1.10020 0.35338
 H4023 H 0.68738 1.05050 0.41423
 H4024 H 0.66219 1.10992 0.42524
 H4025 H 0.72684 1.08503 0.36862
 H4026 H 0.71705 1.06604 0.39853
 H4027 H 0.72768 1.13028 0.41587
 H4028 H 0.69190 1.12542 0.40968
 C4029 C 0.72504 0.60647 0.89353
 C4030 C 0.73389 0.62379 0.90219
 C4031 C 0.75101 0.63264 0.89343
 C4032 C 0.75974 0.62441 0.87578
 C4033 C 0.75080 0.60710 0.86710
 C4034 C 0.73367 0.59826 0.87587
 C4035 C 0.70694 0.59699 0.90293
 C4036 C 0.70521 0.57578 0.90417
 C4037 C 0.68824 0.56686 0.91316
 C4038 C 0.67259 0.57894 0.92108
 C4039 C 0.67427 0.60014 0.91973
 C4040 C 0.69126 0.60906 0.91080
 H4041 H 0.75737 0.64589 0.90065
 H4042 H 0.75690 0.60029 0.85350
 H4043 H 0.68749 0.55050 0.91415
 H4044 H 0.66228 0.60987 0.92529
 H4045 H 0.72703 0.58510 0.86867
 H4046 H 0.71716 0.56608 0.89848
 H4047 H 0.72774 0.63033 0.91594
 H4048 H 0.69197 0.62542 0.90974
 C4049 C 1.22529 0.89328 1.10646
 C4050 C 1.23389 0.87568 1.09812
 C4051 C 1.25102 0.86685 1.10690
 C4052 C 1.26002 0.87541 1.12426
 C4053 C 1.25130 0.89298 1.13264
 C4054 C 1.23417 0.90180 1.12385
 C4055 C 1.20719 0.90277 1.09704
 C4056 C 1.19157 0.91065 1.10920
 C4057 C 1.17458 0.91966 1.10034
 C4058 C 1.17284 0.92106 1.07912
 C4059 C 1.18844 0.91316 1.06696
 C4060 C 1.20541 0.90410 1.07581
 H4061 H 1.25712 0.85330 1.09999
 H4062 H 1.25768 0.90011 1.14594
 H4063 H 1.16264 0.92522 1.11014
 H4064 H 1.18764 0.91420 1.05057
 H4065 H 1.22805 0.91550 1.13050
 H4066 H 1.19232 0.90954 1.12558
 H4067 H 1.22722 0.86858 1.08490
 H4068 H 1.21731 0.89842 1.06604
 C4069 C 1.22508 0.39346 0.60642
 C4070 C 1.23390 0.37611 0.59779
 C4071 C 1.25101 0.36723 0.60655
 C4072 C 1.25975 0.37547 0.62418
 C4073 C 1.25083 0.39282 0.63283
 C4074 C 1.23372 0.40169 0.62406
 C4075 C 1.20696 0.40295 0.59703
 C4076 C 1.20521 0.42415 0.59578
 C4077 C 1.18822 0.43306 0.58681
 C4078 C 1.17258 0.42098 0.57890
 C4079 C 1.17430 0.39977 0.58025
 C4080 C 1.19130 0.39087 0.58918
 H4081 H 1.25736 0.35395 0.59935
 H4082 H 1.25695 0.39963 0.64642
 H4083 H 1.18744 0.44943 0.58581
 H4084 H 1.16233 0.39004 0.57470
 H4085 H 1.22710 0.41488 0.63124
 H4086 H 1.21714 0.43386 0.60147
 H4087 H 1.22775 0.36955 0.58405
 H4088 H 1.19204 0.37451 0.59024
 C4089 C 0.72488 0.89371 0.60653
 C4090 C 0.73349 0.90193 0.62419
 C4091 C 0.75061 0.89307 0.63297
 C4092 C 0.75957 0.87575 0.62430
 C4093 C 0.75084 0.86751 0.60667
 C4094 C 0.73372 0.87638 0.59790
 C4095 C 0.70677 0.90322 0.59712
 C4096 C 0.69112 0.89115 0.58923
 C4097 C 0.67412 0.90007 0.58030
 C4098 C 0.67240 0.92128 0.57899
 C4099 C 0.68803 0.93335 0.58693
 C4100 C 0.70502 0.92442 0.59590
 H4101 H 0.75671 0.89988 0.64657
 H4102 H 0.75721 0.85424 0.59946
 H4103 H 0.66215 0.89035 0.57473
 H4104 H 0.68726 0.94971 0.58596
 H4105 H 0.72759 0.86983 0.58415
 H4106 H 0.69185 0.87478 0.59026
 H4107 H 0.72684 0.91510 0.63138
 H4108 H 0.71694 0.93412 0.60160
 C4109 C 0.72518 0.39341 1.10655
 C4110 C 0.73370 0.40163 1.12425
 C4111 C 0.75081 0.39283 1.13309
 C4112 C 0.75986 0.37556 1.12444
 C4113 C 0.75123 0.36729 1.10676
 C4114 C 0.73412 0.37611 1.09794
 C4115 C 0.70710 0.40288 1.09706
 C4116 C 0.69149 0.39079 1.08910
 C4117 C 0.67450 0.39970 1.08016
 C4118 C 0.67275 0.42091 1.07888
 C4119 C 0.68835 0.43299 1.08686
 C4120 C 0.70533 0.42407 1.09585
 H4121 H 0.75683 0.39965 1.14672
 H4122 H 0.75767 0.35406 1.09956
 H4123 H 0.66255 0.38997 1.07456
 H4124 H 0.68756 0.44936 1.08592
 H4125 H 0.72806 0.36954 1.08416
 H4126 H 0.69226 0.37443 1.09010
 H4127 H 0.72697 0.41478 1.13143
 H4128 H 0.71723 0.43379 1.10160
 C4129 C 0.77503 1.10658 1.10657
 C4130 C 0.76616 1.09797 1.12394
 C4131 C 0.74903 1.10674 1.13277
 C4132 C 0.74031 1.12436 1.12447
 C4133 C 0.74929 1.13299 1.10712
 C4134 C 0.76642 1.12421 1.09829
 C4135 C 0.79316 1.09716 1.09711
 C4136 C 0.79493 1.09591 1.07588
 C4137 C 0.81191 1.08689 1.06699
 C4138 C 0.82752 1.07894 1.07912
 C4139 C 0.82578 1.08030 1.10035
 C4140 C 0.80879 1.08927 1.10924
 H4141 H 0.74265 1.09955 1.14606
 H4142 H 0.74319 1.14657 1.10027
 H4143 H 0.81269 1.08589 1.05060
 H4144 H 0.83774 1.07472 1.11013
 H4145 H 0.77308 1.13138 1.08509
 H4146 H 0.78303 1.10162 1.06613
 H4147 H 0.77230 1.08424 1.13053
 H4148 H 0.80804 1.09032 1.12563
 C4149 C 0.77520 0.60654 0.60624
 C4150 C 0.76629 0.59798 0.62361
 C4151 C 0.74917 0.60681 0.63241
 C4152 C 0.74050 0.62443 0.62406
 C4153 C 0.74953 0.63303 0.60673
 C4154 C 0.76665 0.62418 0.59793
 C4155 C 0.79329 0.59704 0.59681
 C4156 C 0.79505 0.59573 0.57558
 C4157 C 0.81202 0.58668 0.56670
 C4158 C 0.82763 0.57876 0.57885
 C4159 C 0.82590 0.58016 0.60008
 C4160 C 0.80892 0.58916 0.60895
 H4161 H 0.74276 0.59964 0.64569
 H4162 H 0.74348 0.64661 0.59985
 H4163 H 0.81279 0.58564 0.55032
 H4164 H 0.83786 0.57460 0.60986
 H4165 H 0.77335 0.63131 0.58473
 H4166 H 0.78314 0.60142 0.56583
 H4167 H 0.77238 0.58424 0.63023
 H4168 H 0.80817 0.59025 0.62534
 C4169 C 0.27460 1.10659 0.60647
 C4170 C 0.26597 1.12419 0.59815
 C4171 C 0.24884 1.13299 0.60697
 C4172 C 0.23989 1.12440 0.62435
 C4173 C 0.24864 1.10683 0.63271
 C4174 C 0.26577 1.09804 0.62388
 C4175 C 0.29271 1.09716 0.59699
 C4176 C 0.30839 1.08933 0.60909
 C4177 C 0.32540 1.08042 0.60017
 C4178 C 0.32710 1.07907 0.57893
 C4179 C 0.31143 1.08694 0.56683
 C4180 C 0.29444 1.09588 0.57575
 H4181 H 0.24273 1.14654 0.60007
 H4182 H 0.24229 1.09968 0.64603
 H4183 H 0.33740 1.07490 0.60991
 H4184 H 0.31219 1.08594 0.55044
 H4185 H 0.27193 1.08434 0.63052
 H4186 H 0.30768 1.09039 0.62547
 H4187 H 0.27261 1.13132 0.58492
 H4188 H 0.28248 1.10153 0.56602
 C4189 C 0.27486 0.60675 1.10640
 C4190 C 0.26626 0.62437 1.09808
 C4191 C 0.24912 0.63317 1.10689
 C4192 C 0.24014 0.62458 1.12425
 C4193 C 0.24884 0.60698 1.13259
 C4194 C 0.26598 0.59818 1.12378
 C4195 C 0.29299 0.59730 1.09697
 C4196 C 0.30860 0.58940 1.10912
 C4197 C 0.32560 0.58041 1.10026
 C4198 C 0.32737 0.57906 1.07903
 C4199 C 0.31178 0.58702 1.06687
 C4200 C 0.29480 0.59605 1.07574
 H4201 H 0.24302 0.64674 1.10000
 H4202 H 0.24246 0.59981 1.14589
 H4203 H 0.33754 0.57484 1.11005
 H4204 H 0.31259 0.58603 1.05049
 H4205 H 0.27210 0.58446 1.13041
 H4206 H 0.30783 0.59045 1.12551
 H4207 H 0.27292 0.63150 1.08487
 H4208 H 0.28291 0.60177 1.06597
 C4209 C 0.77508 0.89352 0.89376
 C4210 C 0.76618 0.90211 0.87641
 C4211 C 0.74907 0.89332 0.86760
 C4212 C 0.74041 0.87569 0.87592
 C4213 C 0.74942 0.86707 0.89325
 C4214 C 0.76653 0.87587 0.90205
 C4215 C 0.79316 0.90297 0.90321
 C4216 C 0.79491 0.90423 0.92444
 C4217 C 0.81188 0.91324 0.93334
 C4218 C 0.82749 0.92117 0.92120
 C4219 C 0.82577 0.91982 0.89997
 C4220 C 0.80879 0.91086 0.89108
 H4221 H 0.74267 0.90050 0.85432
 H4222 H 0.74336 0.85348 0.90011
 H4223 H 0.81265 0.91423 0.94972
 H4224 H 0.83773 0.92539 0.89020
 H4225 H 0.77322 0.86872 0.91524
 H4226 H 0.78300 0.89853 0.93419
 H4227 H 0.77227 0.91586 0.86981
 H4228 H 0.80805 0.90981 0.87469
 C4229 C 0.77483 0.39298 0.39347
 C4230 C 0.76589 0.40156 0.37613
 C4231 C 0.74877 0.39275 0.36733
 C4232 C 0.74013 0.37512 0.37566
 C4233 C 0.74917 0.36650 0.39298
 C4234 C 0.76630 0.37533 0.40177
 C4235 C 0.79293 0.40246 0.40290
 C4236 C 0.79474 0.40370 0.42413
 C4237 C 0.81171 0.41275 0.43299
 C4238 C 0.82727 0.42075 0.42083
 C4239 C 0.82549 0.41943 0.39960
 C4240 C 0.80851 0.41042 0.39074
 H4241 H 0.74235 0.39993 0.35407
 H4242 H 0.74314 0.35290 0.39984
 H4243 H 0.81251 0.41373 0.44937
 H4244 H 0.83740 0.42504 0.38980
 H4245 H 0.77301 0.36817 0.41495
 H4246 H 0.78288 0.39795 0.43390
 H4247 H 0.77196 0.41531 0.36952
 H4248 H 0.80773 0.40939 0.37436
 C4249 C 0.27482 0.89306 0.39378
 C4250 C 0.26633 0.87541 0.40213
 C4251 C 0.24924 0.86652 0.39336
 C4252 C 0.24020 0.87506 0.37601
 C4253 C 0.24881 0.89268 0.36762
 C4254 C 0.26589 0.90156 0.37640
 C4255 C 0.29288 0.90263 0.40318
 C4256 C 0.30846 0.91054 0.39100
 C4257 C 0.32540 0.91962 0.39983
 C4258 C 0.32714 0.92106 0.42105
 C4259 C 0.31156 0.91312 0.43323
 C4260 C 0.29464 0.90399 0.42439
 H4261 H 0.24322 0.85293 0.40027
 H4262 H 0.24238 0.89980 0.35432
 H4263 H 0.33733 0.92519 0.39002
 H4264 H 0.31235 0.91419 0.44961
 H4265 H 0.27193 0.91530 0.36975
 H4266 H 0.30771 0.90941 0.37462
 H4267 H 0.27305 0.86833 0.41535
 H4268 H 0.28276 0.89827 0.43418
 C4269 C 0.27494 0.39334 0.89363
 C4270 C 0.26644 0.37568 0.90196
 C4271 C 0.24935 0.36680 0.89318
 C4272 C 0.24030 0.37537 0.87584
 C4273 C 0.24891 0.39300 0.86748
 C4274 C 0.26601 0.40187 0.87626
 C4275 C 0.29300 0.40287 0.90307
 C4276 C 0.30860 0.41082 0.89093
 C4277 C 0.32557 0.41981 0.89980
 C4278 C 0.32733 0.42113 0.92103
 C4279 C 0.31174 0.41316 0.93318
 C4280 C 0.29478 0.40413 0.92430
 H4281 H 0.24333 0.35321 0.90007
 H4282 H 0.24248 0.40014 0.85419
 H4283 H 0.33751 0.42540 0.89002
 H4284 H 0.31253 0.41414 0.94956
 H4285 H 0.27205 0.41561 0.86963
 H4286 H 0.30784 0.40978 0.87454
 H4287 H 0.27316 0.36857 0.91516
 H4288 H 0.28289 0.39840 0.93406
   
