data_POSCAR
  _audit_creation_date              2014-09-24
  _audit_creation_method            'ToBaCCo'
  _symmetry_space_group_name_H-M    'P1'
  _symmetry_Int_Tables_number       1
  _symmetry_cell_setting            triclinic
  loop_
  _symmetry_equiv_pos_as_xyz
 x,y,z
_cell_length_a 37.0554
_cell_length_b 24.8875
_cell_length_c 27.3460
_cell_angle_alpha 89.926100
_cell_angle_beta 89.936400
_cell_angle_gamma 89.886300
loop_
  _atom_site_label
  _atom_site_type_symbol
  _atom_site_fract_x
  _atom_site_fract_y
  _atom_site_fract_z
C1 C 0.00780 0.02177 0.15508
 C2 C -0.00010 -0.02608 -0.16227
 C3 C -0.09455 -0.03323 0.07415
 C4 C -0.05340 0.12919 0.06437
 C5 C -0.09568 -0.05057 -0.06915
 C6 C 0.06162 -0.13539 -0.06626
 C7 C 0.10041 0.02019 -0.08788
 C8 C 0.06171 -0.11483 0.08536
 C9 C -0.05423 0.11306 -0.08975
 C10 C 0.10199 0.03933 0.07112
 O11 O -0.06763 -0.08010 -0.07839
 O12 O -0.09568 -0.00732 -0.04322
 O13 O -0.02063 0.10542 -0.10069
 O14 O -0.07164 0.08829 -0.05564
 O15 O 0.07430 0.07019 0.07864
 O16 O 0.10266 -0.00053 0.04107
 O17 O 0.01109 0.02027 -0.14735
 O18 O -0.00943 -0.06466 -0.13381
 O19 O 0.01770 0.06044 0.12703
 O20 O -0.00417 -0.02403 0.14003
 O21 O 0.02880 -0.12821 -0.08168
 O22 O 0.07756 -0.10524 -0.03481
 O23 O -0.06596 -0.05817 0.08904
 O24 O -0.09527 0.00318 0.04063
 O25 O 0.02832 -0.10686 0.09643
 O26 O 0.07921 -0.09054 0.05109
 O27 O 0.07203 0.04648 -0.10172
 O28 O 0.10155 -0.01246 -0.05113
 O29 O 0.04228 0.14719 0.04845
 O30 O 0.03983 0.12507 -0.09687
 O31 O -0.03020 -0.15389 -0.05706
 O32 O -0.03003 -0.13037 0.09157
 O33 O -0.04163 -0.05121 0.00403
 O34 O -0.00864 0.08009 -0.01328
 O35 O 0.01568 -0.08332 0.00641
 O36 O -0.02589 0.02424 0.06030
 O37 O -0.07130 0.09772 0.03563
 O38 O -0.01893 0.12648 0.07183
 O39 O 0.03557 -0.00996 0.06301
 O40 O 0.03407 -0.02922 -0.06735
 O41 O 0.04911 0.04686 -0.01093
 O42 O -0.02790 0.00554 -0.06884
 Zr43 Zr 0.02057 0.06892 0.05131
 Zr44 Zr -0.01248 -0.07338 -0.05831
 Zr45 Zr -0.05385 0.03048 -0.00518
 Zr46 Zr -0.01112 -0.05467 0.06809
 Zr47 Zr 0.01852 0.05021 -0.07504
 Zr48 Zr 0.06125 -0.03448 -0.00080
 H49 H 0.02099 -0.12207 0.01029
 H50 H -0.04072 0.03511 0.08871
 H51 H 0.07084 0.06973 -0.01377
 H52 H -0.04366 0.01021 -0.09772
 H53 H 0.03389 0.16255 0.01705
 H54 H 0.04565 0.14414 -0.06616
 H55 H -0.03373 -0.15146 0.06133
 H56 H -0.04070 -0.15928 -0.02414
 C57 C 0.25859 0.22467 0.09076
 C58 C 0.24890 0.27274 0.40774
 C59 C 0.15542 0.27983 0.17062
 C60 C 0.19666 0.11782 0.18079
 C61 C 0.15241 0.29568 0.31528
 C62 C 0.30779 0.38032 0.31750
 C63 C 0.34912 0.22490 0.33435
 C64 C 0.31144 0.36392 0.16381
 C65 C 0.19440 0.13315 0.33497
 C66 C 0.35256 0.20578 0.17841
 O67 O 0.18020 0.32533 0.32431
 O68 O 0.15265 0.25287 0.28866
 O69 O 0.22786 0.14091 0.34631
 O70 O 0.17719 0.15770 0.30050
 O71 O 0.32486 0.17541 0.17006
 O72 O 0.35256 0.24682 0.20731
 O73 O 0.25992 0.22631 0.39288
 O74 O 0.23874 0.31115 0.37951
 O75 O 0.26872 0.18661 0.11938
 O76 O 0.24638 0.27059 0.10554
 O77 O 0.27359 0.37619 0.32566
 O78 O 0.32638 0.34907 0.28936
 O79 O 0.18409 0.30493 0.15630
 O80 O 0.15439 0.24315 0.20384
 O81 O 0.27853 0.35461 0.15104
 O82 O 0.32855 0.33973 0.19854
 O83 O 0.32056 0.19902 0.34797
 O84 O 0.35074 0.25794 0.29803
 O85 O 0.29199 0.09944 0.19778
 O86 O 0.28804 0.12081 0.34298
 O87 O 0.21541 0.39870 0.30195
 O88 O 0.22008 0.37686 0.15321
 O89 O 0.20703 0.29739 0.24078
 O90 O 0.24059 0.16629 0.25888
 O91 O 0.26457 0.32984 0.24013
 O92 O 0.22408 0.22251 0.18538
 O93 O 0.17841 0.14883 0.20952
 O94 O 0.23120 0.12070 0.17364
 O95 O 0.28580 0.25698 0.18375
 O96 O 0.28187 0.27551 0.31384
 O97 O 0.29831 0.20005 0.25768
 O98 O 0.22034 0.24022 0.31447
 Zr99 Zr 0.27055 0.17801 0.19503
 Zr100 Zr 0.23498 0.31905 0.30366
 Zr101 Zr 0.19517 0.21580 0.25039
 Zr102 Zr 0.23888 0.30136 0.17761
 Zr103 Zr 0.26708 0.19594 0.32097
 Zr104 Zr 0.31054 0.28159 0.24844
 H105 H 0.26975 0.36866 0.23687
 H106 H 0.20964 0.21167 0.15666
 H107 H 0.31989 0.17683 0.26084
 H108 H 0.20459 0.23556 0.34339
 H109 H 0.28345 0.08411 0.22913
 H110 H 0.29465 0.10207 0.31237
 H111 H 0.21604 0.39827 0.18321
 H112 H 0.20619 0.40411 0.26836
 C113 C 0.51001 0.01619 0.15803
 C114 C 0.49493 -0.02550 -0.15798
 C115 C 0.60625 0.03485 0.06779
 C116 C 0.56503 -0.12950 0.07522
 C117 C 0.60123 0.02298 -0.08553
 C118 C 0.44428 0.10679 -0.08499
 C119 C 0.40489 -0.04965 -0.06691
 C120 C 0.44951 0.11916 0.07570
 C121 C 0.55948 -0.13875 -0.07006
 C122 C 0.40966 -0.03667 0.08403
 O123 O 0.57228 0.04892 -0.09807
 O124 O 0.60290 -0.01205 -0.05078
 O125 O 0.52489 -0.13555 -0.07508
 O126 O 0.57884 -0.10583 -0.04467
 O127 O 0.43862 -0.06197 0.09785
 O128 O 0.40841 -0.00096 0.04994
 O129 O 0.48694 -0.06532 -0.13026
 O130 O 0.50796 0.01965 -0.14308
 O131 O 0.49905 -0.03024 0.14326
 O132 O 0.52133 0.05395 0.13012
 O133 O 0.47758 0.09958 -0.09735
 O134 O 0.42818 0.08301 -0.04902
 O135 O 0.57883 0.06577 0.07653
 O136 O 0.60586 -0.00610 0.03867
 O137 O 0.48415 0.11626 0.08177
 O138 O 0.43125 0.08995 0.04567
 O139 O 0.43250 -0.07947 -0.07692
 O140 O 0.40523 -0.00867 -0.03812
 O141 O 0.47402 -0.13777 0.09426
 O142 O 0.46571 -0.15466 -0.05508
 O143 O 0.53719 0.12445 -0.09235
 O144 O 0.54276 0.14231 0.05231
 O145 O 0.55143 0.04268 -0.00947
 O146 O 0.51801 -0.08871 0.00750
 O147 O 0.49316 0.07493 -0.00753
 O148 O 0.53908 -0.01708 0.06361
 O149 O 0.57992 -0.10416 0.03951
 O150 O 0.53403 -0.11720 0.09464
 O151 O 0.47764 0.01791 0.06552
 O152 O 0.47177 0.00291 -0.06427
 O153 O 0.46067 -0.05609 0.00911
 O154 O 0.53315 -0.03155 -0.06608
 Zr155 Zr 0.49286 -0.06176 0.07162
 Zr156 Zr 0.51839 0.04784 -0.07130
 Zr157 Zr 0.56309 -0.03921 -0.00232
 Zr158 Zr 0.52398 0.06235 0.05476
 Zr159 Zr 0.48708 -0.07614 -0.05485
 Zr160 Zr 0.44789 0.02568 0.00128
 H161 H 0.48705 0.11359 -0.00985
 H162 H 0.55488 -0.02354 0.09217
 H163 H 0.43955 -0.08013 0.01197
 H164 H 0.54669 -0.04285 -0.09555
 H165 H 0.46824 -0.15724 0.06375
 H166 H 0.46903 -0.16827 -0.02137
 H167 H 0.55672 0.14524 0.02156
 H168 H 0.53980 0.14490 -0.06157
 C169 C 0.75959 0.22408 0.09158
 C170 C 0.74919 0.27114 0.40729
 C171 C 0.65506 0.27389 0.17025
 C172 C 0.69913 0.11369 0.17973
 C173 C 0.65186 0.28956 0.31569
 C174 C 0.80661 0.37828 0.31902
 C175 C 0.84985 0.22507 0.33461
 C176 C 0.80995 0.36272 0.16314
 C177 C 0.69615 0.12981 0.33646
 C178 C 0.85230 0.20863 0.17518
 O179 O 0.67929 0.32008 0.32461
 O180 O 0.65260 0.24684 0.28892
 O181 O 0.72956 0.13858 0.34747
 O182 O 0.67865 0.15297 0.30138
 O183 O 0.82524 0.17675 0.16802
 O184 O 0.85229 0.24871 0.20525
 O185 O 0.76095 0.22499 0.39264
 O186 O 0.73798 0.30880 0.37911
 O187 O 0.76973 0.18541 0.11945
 O188 O 0.74650 0.26921 0.10660
 O189 O 0.77236 0.37350 0.32671
 O190 O 0.82552 0.34817 0.29024
 O191 O 0.68341 0.30001 0.15624
 O192 O 0.65442 0.23739 0.20374
 O193 O 0.77701 0.35271 0.15094
 O194 O 0.82738 0.33967 0.19826
 O195 O 0.82151 0.19858 0.34825
 O196 O 0.85095 0.25789 0.29797
 O197 O 0.79470 0.09888 0.19859
 O198 O 0.78991 0.11914 0.34240
 O199 O 0.71379 0.39526 0.30127
 O200 O 0.71789 0.37406 0.15507
 O201 O 0.70620 0.29337 0.24120
 O202 O 0.74186 0.16334 0.25893
 O203 O 0.76379 0.32813 0.24044
 O204 O 0.72450 0.21943 0.18567
 O205 O 0.68030 0.14363 0.20887
 O206 O 0.73357 0.11788 0.17281
 O207 O 0.78546 0.25589 0.18428
 O208 O 0.78166 0.27388 0.31363
 O209 O 0.79939 0.19907 0.25754
 O210 O 0.72077 0.23671 0.31434
 Zr211 Zr 0.77161 0.17639 0.19508
 Zr212 Zr 0.73418 0.31606 0.30361
 Zr213 Zr 0.69562 0.21121 0.25050
 Zr214 Zr 0.73804 0.29891 0.17838
 Zr215 Zr 0.76814 0.19392 0.32089
 Zr216 Zr 0.81039 0.28100 0.24846
 H217 H 0.76857 0.36709 0.23727
 H218 H 0.71033 0.20828 0.15680
 H219 H 0.82139 0.17665 0.26033
 H220 H 0.70521 0.23177 0.34341
 H221 H 0.78511 0.08250 0.22892
 H222 H 0.79728 0.10118 0.31172
 H223 H 0.71479 0.39553 0.18521
 H224 H 0.70205 0.39886 0.26895
 C225 C 0.00815 0.52196 0.15721
 C226 C -0.00356 0.47557 -0.15961
 C227 C -0.09584 0.46928 0.07813
 C228 C -0.05372 0.63124 0.06801
 C229 C -0.09915 0.45364 -0.06598
 C230 C 0.05610 0.36742 -0.06992
 C231 C 0.09764 0.52074 -0.08722
 C232 C 0.06011 0.38437 0.08529
 C233 C -0.05601 0.61612 -0.08628
 C234 C 0.10117 0.53898 0.07159
 O235 O -0.07145 0.42365 -0.07513
 O236 O -0.09874 0.49668 -0.03964
 O237 O -0.02262 0.60776 -0.09765
 O238 O -0.07347 0.59176 -0.05188
 O239 O 0.07374 0.57022 0.07949
 O240 O 0.10125 0.49883 0.04164
 O241 O 0.00801 0.52180 -0.14490
 O242 O -0.01335 0.43742 -0.13087
 O243 O 0.01800 0.56066 0.12917
 O244 O -0.00455 0.47662 0.14223
 O245 O 0.02191 0.37202 -0.07792
 O246 O 0.07479 0.39795 -0.04143
 O247 O -0.06719 0.44394 0.09228
 O248 O -0.09685 0.50613 0.04502
 O249 O 0.02707 0.39367 0.09762
 O250 O 0.07719 0.40762 0.05000
 O251 O 0.06914 0.54698 -0.10055
 O252 O 0.09946 0.48835 -0.05041
 O253 O 0.04191 0.64757 0.05007
 O254 O 0.03772 0.62635 -0.09445
 O255 O -0.03614 0.34971 -0.05351
 O256 O -0.03162 0.37113 0.09421
 O257 O -0.04446 0.45137 0.00763
 O258 O -0.01022 0.58177 -0.01038
 O259 O 0.01319 0.41773 0.00806
 O260 O -0.02698 0.52582 0.06313
 O261 O -0.07216 0.60056 0.03932
 O262 O -0.01923 0.62760 0.07519
 O263 O 0.03445 0.49036 0.06415
 O264 O 0.03048 0.47200 -0.06558
 O265 O 0.04744 0.54721 -0.00948
 O266 O -0.03094 0.50830 -0.06584
 Zr267 Zr 0.01973 0.56961 0.05340
 Zr268 Zr -0.01655 0.42925 -0.05516
 Zr269 Zr -0.05596 0.53321 -0.00169
 Zr270 Zr -0.01254 0.44662 0.07040
 Zr271 Zr 0.01603 0.55170 -0.07270
 Zr272 Zr 0.05928 0.46549 -0.00036
 H273 H 0.01835 0.37888 0.01140
 H274 H -0.04131 0.53682 0.09198
 H275 H 0.06924 0.56989 -0.01264
 H276 H -0.04680 0.51327 -0.09458
 H277 H 0.03275 0.66342 0.01927
 H278 H 0.04465 0.64466 -0.06378
 H279 H -0.03514 0.34976 0.06411
 H280 H -0.04606 0.34464 -0.02023
 C281 C 0.26088 0.72610 0.09249
 C282 C 0.24775 0.77436 0.40824
 C283 C 0.15653 0.78053 0.17055
 C284 C 0.19675 0.61872 0.18032
 C285 C 0.15223 0.79672 0.31436
 C286 C 0.30786 0.88090 0.31873
 C287 C 0.34860 0.72518 0.33680
 C288 C 0.31401 0.86224 0.16464
 C289 C 0.19398 0.63394 0.33565
 C290 C 0.35270 0.70637 0.17965
 O291 O 0.17999 0.82634 0.32374
 O292 O 0.15265 0.75371 0.28803
 O293 O 0.22735 0.64180 0.34734
 O294 O 0.17700 0.65835 0.30085
 O295 O 0.32507 0.67595 0.17122
 O296 O 0.35293 0.74666 0.20936
 O297 O 0.25894 0.72780 0.39384
 O298 O 0.23790 0.81259 0.37974
 O299 O 0.27014 0.68712 0.12058
 O300 O 0.24842 0.77174 0.10726
 O301 O 0.27362 0.87681 0.32668
 O302 O 0.32655 0.84953 0.29080
 O303 O 0.18529 0.80588 0.15686
 O304 O 0.15519 0.74363 0.20348
 O305 O 0.28053 0.85488 0.15303
 O306 O 0.33070 0.83737 0.19930
 O307 O 0.31991 0.69942 0.35004
 O308 O 0.35061 0.75802 0.30042
 O309 O 0.29206 0.59948 0.19998
 O310 O 0.28739 0.62157 0.34494
 O311 O 0.21563 0.89963 0.30154
 O312 O 0.22153 0.87751 0.15350
 O313 O 0.20748 0.79799 0.24116
 O314 O 0.24058 0.66663 0.25988
 O315 O 0.26542 0.83064 0.24123
 O316 O 0.22480 0.72326 0.18607
 O317 O 0.17856 0.64961 0.20926
 O318 O 0.23136 0.62150 0.17349
 O319 O 0.28639 0.75708 0.18553
 O320 O 0.28172 0.77606 0.31513
 O321 O 0.29840 0.70017 0.25929
 O322 O 0.22013 0.74109 0.31491
 Zr323 Zr 0.27087 0.67815 0.19629
 Zr324 Zr 0.23503 0.81990 0.30408
 Zr325 Zr 0.19541 0.71632 0.25065
 Zr326 Zr 0.23997 0.80217 0.17878
 Zr327 Zr 0.26670 0.69661 0.32222
 Zr328 Zr 0.31095 0.78162 0.25021
 H329 H 0.27095 0.86934 0.23781
 H330 H 0.21062 0.71263 0.15704
 H331 H 0.31992 0.67685 0.26271
 H332 H 0.20412 0.73657 0.34360
 H333 H 0.28258 0.58408 0.23080
 H334 H 0.29393 0.60245 0.31448
 H335 H 0.21791 0.89954 0.18322
 H336 H 0.20637 0.90464 0.26792
 C337 C 0.50611 0.52129 0.15727
 C338 C 0.49534 0.47258 -0.15814
 C339 C 0.60380 0.53751 0.06849
 C340 C 0.55995 0.37654 0.08281
 C341 C 0.60008 0.52110 -0.08402
 C342 C 0.44411 0.60815 -0.08921
 C343 C 0.40313 0.45287 -0.06866
 C344 C 0.44786 0.62432 0.07215
 C345 C 0.55698 0.36041 -0.06559
 C346 C 0.40627 0.47142 0.08227
 O347 O 0.57156 0.54748 -0.09726
 O348 O 0.60139 0.48655 -0.04875
 O349 O 0.52276 0.36515 -0.07351
 O350 O 0.57603 0.39228 -0.03878
 O351 O 0.43481 0.44600 0.09673
 O352 O 0.40509 0.50568 0.04700
 O353 O 0.48626 0.43382 -0.12983
 O354 O 0.50829 0.51798 -0.14370
 O355 O 0.49506 0.47492 0.14258
 O356 O 0.51766 0.55888 0.12921
 O357 O 0.47748 0.59970 -0.10072
 O358 O 0.42738 0.58605 -0.05298
 O359 O 0.57638 0.56867 0.07661
 O360 O 0.60351 0.49604 0.04008
 O361 O 0.48239 0.62113 0.07865
 O362 O 0.42954 0.59514 0.04210
 O363 O 0.43073 0.42259 -0.07769
 O364 O 0.40336 0.49470 -0.04086
 O365 O 0.46765 0.36921 0.09534
 O366 O 0.46302 0.34709 -0.05215
 O367 O 0.53728 0.62369 -0.09418
 O368 O 0.54139 0.64526 0.04963
 O369 O 0.54980 0.54347 -0.00939
 O370 O 0.51496 0.41337 0.00917
 O371 O 0.49175 0.57750 -0.00977
 O372 O 0.53566 0.48643 0.06436
 O373 O 0.57780 0.40166 0.04928
 O374 O 0.52685 0.38607 0.09493
 O375 O 0.47462 0.52302 0.06366
 O376 O 0.47042 0.50434 -0.06564
 O377 O 0.45748 0.44785 0.00814
 O378 O 0.53174 0.46844 -0.06454
 Zr379 Zr 0.48864 0.44339 0.07111
 Zr380 Zr 0.51752 0.54796 -0.07213
 Zr381 Zr 0.56088 0.46150 0.00019
 Zr382 Zr 0.52174 0.56582 0.05353
 Zr383 Zr 0.48502 0.42520 -0.05425
 Zr384 Zr 0.44574 0.52966 -0.00130
 H385 H 0.48611 0.61623 -0.01314
 H386 H 0.55092 0.48065 0.09357
 H387 H 0.43608 0.42440 0.01129
 H388 H 0.54562 0.45605 -0.09333
 H389 H 0.46058 0.34973 0.06532
 H390 H 0.46787 0.33358 -0.01875
 H391 H 0.55608 0.64684 0.01941
 H392 H 0.53953 0.64490 -0.06377
 C393 C 0.75968 0.72707 0.09059
 C394 C 0.74632 0.77460 0.40603
 C395 C 0.65472 0.77452 0.16378
 C396 C 0.69725 0.61765 0.17862
 C397 C 0.64995 0.79338 0.31394
 C398 C 0.80491 0.88174 0.31832
 C399 C 0.84733 0.72788 0.33482
 C400 C 0.80957 0.86474 0.16158
 C401 C 0.69369 0.63361 0.33421
 C402 C 0.85130 0.71145 0.17644
 O403 O 0.67734 0.82398 0.32290
 O404 O 0.65055 0.75108 0.28677
 O405 O 0.72705 0.64220 0.34541
 O406 O 0.67621 0.65735 0.29936
 O407 O 0.82416 0.67986 0.16857
 O408 O 0.85113 0.75156 0.20635
 O409 O 0.75804 0.72847 0.39141
 O410 O 0.73557 0.81256 0.37777
 O411 O 0.76904 0.68823 0.11876
 O412 O 0.74690 0.77259 0.10525
 O413 O 0.77058 0.87724 0.32567
 O414 O 0.82384 0.85151 0.28972
 O415 O 0.68370 0.79933 0.15004
 O416 O 0.65237 0.74266 0.20098
 O417 O 0.77661 0.85514 0.14909
 O418 O 0.82650 0.84212 0.19741
 O419 O 0.81882 0.70157 0.34789
 O420 O 0.84898 0.76089 0.29836
 O421 O 0.79281 0.60192 0.19862
 O422 O 0.78700 0.62277 0.34177
 O423 O 0.71225 0.89950 0.29955
 O424 O 0.71634 0.87763 0.15495
 O425 O 0.70452 0.79777 0.23908
 O426 O 0.73957 0.66743 0.25768
 O427 O 0.76244 0.83165 0.23919
 O428 O 0.72332 0.72304 0.18435
 O429 O 0.67830 0.64811 0.20713
 O430 O 0.73180 0.62140 0.17211
 O431 O 0.78432 0.75899 0.18370
 O432 O 0.77953 0.77754 0.31286
 O433 O 0.79751 0.70240 0.25713
 O434 O 0.71850 0.74085 0.31262
 Zr435 Zr 0.77012 0.67965 0.19446
 Zr436 Zr 0.73228 0.82009 0.30207
 Zr437 Zr 0.69349 0.71575 0.24851
 Zr438 Zr 0.73712 0.80234 0.17678
 Zr439 Zr 0.76568 0.69769 0.31980
 Zr440 Zr 0.80882 0.78427 0.24813
 H441 H 0.76750 0.87051 0.23582
 H442 H 0.70974 0.71138 0.15517
 H443 H 0.81937 0.67975 0.26035
 H444 H 0.70283 0.73582 0.34157
 H445 H 0.78270 0.58564 0.22868
 H446 H 0.79475 0.60480 0.31126
 H447 H 0.71433 0.89903 0.18528
 H448 H 0.69944 0.90261 0.26795
 C449 C 0.00366 0.02363 0.34036
 C450 C -0.00759 -0.02227 0.65703
 C451 C -0.05781 0.13624 0.43141
 C452 C -0.10074 -0.02518 0.41609
 C453 C -0.06061 0.12243 0.57970
 C454 C 0.09307 0.02583 0.58191
 C455 C 0.05102 -0.12588 0.57340
 C456 C 0.09657 0.04253 0.42982
 C457 C -0.10476 -0.04031 0.56693
 C458 C 0.05518 -0.11100 0.41035
 O459 O -0.02762 0.11279 0.59240
 O460 O -0.07838 0.09675 0.54663
 O461 O -0.07729 -0.07112 0.57557
 O462 O -0.10427 0.00143 0.53871
 O463 O 0.02187 -0.10260 0.39892
 O464 O 0.07186 -0.08920 0.44674
 O465 O -0.01904 -0.05964 0.62873
 O466 O 0.00382 0.02397 0.64209
 O467 O -0.00920 -0.02168 0.35537
 O468 O 0.01306 0.06247 0.36839
 O469 O 0.06457 0.05185 0.59587
 O470 O 0.09421 -0.00835 0.54660
 O471 O -0.02330 0.13201 0.42490
 O472 O -0.07696 0.10411 0.45803
 O473 O 0.06911 0.07313 0.42051
 O474 O 0.09614 0.00135 0.45843
 O475 O 0.01647 -0.12261 0.57949
 O476 O 0.06950 -0.09744 0.54279
 O477 O -0.03758 -0.12711 0.40609
 O478 O -0.04194 -0.14732 0.55034
 O479 O 0.03186 0.12898 0.59341
 O480 O 0.03694 0.14963 0.44490
 O481 O -0.01543 0.08407 0.50744
 O482 O -0.05042 -0.04595 0.49005
 O483 O 0.04195 0.04950 0.50691
 O484 O -0.03219 0.02851 0.43415
 O485 O -0.10201 0.01007 0.45066
 O486 O -0.07218 -0.05141 0.40284
 O487 O 0.02907 -0.00757 0.43365
 O488 O 0.02455 -0.02503 0.56315
 O489 O 0.00755 -0.08021 0.49010
 O490 O -0.03651 0.01179 0.56337
 Zr491 Zr -0.01808 -0.05105 0.42741
 Zr492 Zr 0.01066 0.05472 0.56997
 Zr493 Zr -0.06147 0.03605 0.49876
 Zr494 Zr 0.01461 0.07172 0.44407
 Zr495 Zr -0.02257 -0.06768 0.55320
 Zr496 Zr 0.05358 -0.03248 0.49832
 H497 H 0.06348 0.07271 0.50987
 H498 H -0.04610 0.04048 0.40525
 H499 H 0.01320 -0.11897 0.48712
 H500 H -0.05200 0.01781 0.59236
 H501 H -0.03982 -0.14809 0.43669
 H502 H -0.05606 -0.14965 0.51973
 H503 H 0.03271 0.16330 0.47839
 H504 H 0.03884 0.14821 0.56316
 C505 C 0.25394 0.22181 0.90973
 C506 C 0.24407 0.27002 0.59302
 C507 C 0.19245 0.11027 0.81672
 C508 C 0.15020 0.27252 0.83381
 C509 C 0.18929 0.12642 0.66883
 C510 C 0.34395 0.21918 0.66873
 C511 C 0.30301 0.37274 0.67849
 C512 C 0.34668 0.20080 0.82071
 C513 C 0.14658 0.28945 0.68286
 C514 C 0.30620 0.35732 0.83915
 O515 O 0.22250 0.13523 0.65655
 O516 O 0.17167 0.15214 0.70214
 O517 O 0.17426 0.31974 0.67431
 O518 O 0.14675 0.24763 0.71100
 O519 O 0.27291 0.34906 0.85089
 O520 O 0.32298 0.33463 0.80325
 O521 O 0.23282 0.30781 0.62110
 O522 O 0.25498 0.22349 0.60792
 O523 O 0.24160 0.26763 0.89496
 O524 O 0.26288 0.18307 0.88116
 O525 O 0.31535 0.19393 0.65434
 O526 O 0.34519 0.25329 0.70402
 O527 O 0.22688 0.11409 0.82350
 O528 O 0.17342 0.14311 0.79058
 O529 O 0.31901 0.17070 0.82943
 O530 O 0.34663 0.24248 0.79253
 O531 O 0.26849 0.36993 0.67187
 O532 O 0.32120 0.34311 0.70851
 O533 O 0.21351 0.37341 0.84487
 O534 O 0.20983 0.39499 0.70014
 O535 O 0.28198 0.11757 0.65570
 O536 O 0.28673 0.09591 0.80456
 O537 O 0.23490 0.16274 0.74194
 O538 O 0.20079 0.29339 0.75996
 O539 O 0.29246 0.19624 0.74290
 O540 O 0.21827 0.21814 0.81555
 O541 O 0.14879 0.23761 0.79903
 O542 O 0.17879 0.29832 0.84720
 O543 O 0.27984 0.25308 0.81666
 O544 O 0.27581 0.27152 0.68700
 O545 O 0.25878 0.32636 0.76029
 O546 O 0.21448 0.23599 0.68632
 Zr547 Zr 0.23292 0.29740 0.82287
 Zr548 Zr 0.26132 0.19208 0.67973
 Zr549 Zr 0.18920 0.21165 0.75070
 Zr550 Zr 0.26481 0.17421 0.80546
 Zr551 Zr 0.22892 0.31512 0.69687
 Zr552 Zr 0.30461 0.27786 0.75212
 H553 H 0.31382 0.17255 0.73999
 H554 H 0.20424 0.20601 0.84431
 H555 H 0.26453 0.36503 0.76343
 H556 H 0.19906 0.23056 0.65723
 H557 H 0.21107 0.39458 0.81441
 H558 H 0.19596 0.39745 0.73101
 H559 H 0.28352 0.08298 0.77065
 H560 H 0.28847 0.09771 0.68582
 C561 C 0.50267 0.02103 0.34208
 C562 C 0.48979 -0.02300 0.65797
 C563 C 0.55459 -0.11932 0.41490
 C564 C 0.59905 0.04097 0.43462
 C565 C 0.55159 -0.13408 0.57059
 C566 C 0.39762 -0.04055 0.57161
 C567 C 0.43966 0.11498 0.58461
 C568 C 0.40162 -0.02365 0.41427
 C569 C 0.59518 0.02578 0.57977
 C570 C 0.44387 0.13030 0.43008
 O571 O 0.51716 -0.12979 0.57763
 O572 O 0.57034 -0.10424 0.54138
 O573 O 0.56677 0.05226 0.59337
 O574 O 0.59592 -0.01091 0.54660
 O575 O 0.47812 0.12531 0.42212
 O576 O 0.42505 0.10002 0.45870
 O577 O 0.50317 0.02187 0.64284
 O578 O 0.47989 -0.06178 0.63027
 O579 O 0.51316 0.05935 0.36991
 O580 O 0.49092 -0.02487 0.35715
 O581 O 0.42486 -0.07191 0.57991
 O582 O 0.39789 -0.00006 0.54200
 O583 O 0.52122 -0.11079 0.40385
 O584 O 0.57215 -0.09551 0.44943
 O585 O 0.43003 -0.05017 0.40118
 O586 O 0.40000 0.00957 0.45043
 O587 O 0.47266 0.10548 0.59718
 O588 O 0.42252 0.09119 0.54982
 O589 O 0.53674 0.14689 0.44667
 O590 O 0.53190 0.12632 0.59438
 O591 O 0.45656 -0.14935 0.55217
 O592 O 0.46123 -0.12922 0.40770
 O593 O 0.50903 -0.08485 0.49136
 O594 O 0.54416 0.04542 0.50837
 O595 O 0.45148 -0.04922 0.49190
 O596 O 0.53021 -0.01172 0.43549
 O597 O 0.59818 -0.00159 0.46162
 O598 O 0.57163 0.07157 0.42517
 O599 O 0.46919 0.02543 0.43526
 O600 O 0.46475 0.00806 0.56497
 O601 O 0.48662 0.07996 0.50837
 O602 O 0.52585 -0.02832 0.56437
 Zr603 Zr 0.51650 0.06772 0.44541
 Zr604 Zr 0.47895 -0.07149 0.55478
 Zr605 Zr 0.55497 -0.03680 0.49972
 Zr606 Zr 0.48302 -0.05458 0.42907
 Zr607 Zr 0.51206 0.05122 0.57098
 Zr608 Zr 0.44023 0.03270 0.50021
 H609 H 0.42965 -0.07181 0.48884
 H610 H 0.54601 -0.01705 0.40672
 H611 H 0.48173 0.11892 0.51127
 H612 H 0.53988 -0.03940 0.59344
 H613 H 0.54714 0.15160 0.47969
 H614 H 0.53570 0.14747 0.56415
 H615 H 0.45415 -0.14738 0.43843
 H616 H 0.46565 -0.16548 0.52146
 C617 C 0.75553 0.22388 0.90715
 C618 C 0.74395 0.27092 0.59164
 C619 C 0.69338 0.11196 0.81675
 C620 C 0.65028 0.27060 0.83348
 C621 C 0.69085 0.12658 0.66707
 C622 C 0.84389 0.22433 0.66585
 C623 C 0.80087 0.37555 0.67571
 C624 C 0.84767 0.20571 0.81748
 C625 C 0.64609 0.28659 0.68009
 C626 C 0.80486 0.35992 0.83804
 O627 O 0.72388 0.13632 0.65465
 O628 O 0.67305 0.15138 0.70080
 O629 O 0.67323 0.31805 0.67180
 O630 O 0.64668 0.24545 0.70899
 O631 O 0.77158 0.35113 0.84937
 O632 O 0.82186 0.33807 0.80183
 O633 O 0.73211 0.30857 0.61944
 O634 O 0.75522 0.22470 0.60662
 O635 O 0.74218 0.26910 0.89252
 O636 O 0.76476 0.18506 0.87902
 O637 O 0.81562 0.19795 0.65200
 O638 O 0.84487 0.25828 0.70132
 O639 O 0.72792 0.11612 0.82307
 O640 O 0.67418 0.14376 0.78990
 O641 O 0.82039 0.17484 0.82666
 O642 O 0.84695 0.24740 0.78945
 O643 O 0.76638 0.37182 0.66936
 O644 O 0.81950 0.34697 0.70607
 O645 O 0.71180 0.37424 0.84238
 O646 O 0.70739 0.39520 0.69850
 O647 O 0.78365 0.11972 0.65508
 O648 O 0.78842 0.09834 0.80207
 O649 O 0.73579 0.16377 0.74038
 O650 O 0.69994 0.29378 0.75826
 O651 O 0.79317 0.19923 0.74102
 O652 O 0.71888 0.21913 0.81373
 O653 O 0.64898 0.23643 0.79805
 O654 O 0.67860 0.29726 0.84652
 O655 O 0.77975 0.25566 0.81441
 O656 O 0.77519 0.27377 0.68524
 O657 O 0.75773 0.32853 0.75826
 O658 O 0.71455 0.23644 0.68486
 Zr659 Zr 0.73235 0.29875 0.82082
 Zr660 Zr 0.76191 0.19387 0.67828
 Zr661 Zr 0.68956 0.21167 0.74926
 Zr662 Zr 0.76584 0.17622 0.80353
 Zr663 Zr 0.72777 0.31604 0.69509
 Zr664 Zr 0.80413 0.28135 0.74998
 H665 H 0.81486 0.17625 0.73777
 H666 H 0.70525 0.20690 0.84279
 H667 H 0.76303 0.36734 0.76143
 H668 H 0.69935 0.23033 0.65569
 H669 H 0.70929 0.39524 0.81184
 H670 H 0.69270 0.39671 0.72871
 H671 H 0.78298 0.08409 0.76913
 H672 H 0.79102 0.10085 0.68535
 C673 C 0.00479 0.52261 0.34231
 C674 C -0.00827 0.47729 0.65915
 C675 C -0.05809 0.63481 0.43328
 C676 C -0.09990 0.47270 0.41718
 C677 C -0.06092 0.62134 0.58045
 C678 C 0.09273 0.52597 0.58459
 C679 C 0.05185 0.37326 0.57524
 C680 C 0.09669 0.54279 0.43162
 C681 C -0.10443 0.45785 0.56814
 C682 C 0.05614 0.38821 0.41267
 O683 O -0.02794 0.61210 0.59335
 O684 O -0.07861 0.59499 0.54777
 O685 O -0.07688 0.42725 0.57702
 O686 O -0.10403 0.49947 0.53983
 O687 O 0.02283 0.39638 0.40118
 O688 O 0.07277 0.41042 0.44894
 O689 O -0.01903 0.43947 0.63080
 O690 O 0.00305 0.52355 0.64408
 O691 O -0.00808 0.47727 0.35728
 O692 O 0.01379 0.56164 0.37032
 O693 O 0.06402 0.55150 0.59829
 O694 O 0.09436 0.49188 0.54920
 O695 O -0.02371 0.63037 0.42560
 O696 O -0.07699 0.60279 0.46026
 O697 O 0.06910 0.57310 0.42235
 O698 O 0.09649 0.50165 0.46039
 O699 O 0.01729 0.37650 0.58145
 O700 O 0.07028 0.40208 0.54483
 O701 O -0.03637 0.37159 0.40778
 O702 O -0.04099 0.35128 0.55240
 O703 O 0.03138 0.62821 0.59542
 O704 O 0.03641 0.64926 0.44780
 O705 O -0.01558 0.58288 0.50912
 O706 O -0.04979 0.45247 0.49174
 O707 O 0.04196 0.54898 0.50893
 O708 O -0.03185 0.52721 0.43573
 O709 O -0.10149 0.50799 0.45170
 O710 O -0.07118 0.44674 0.40422
 O711 O 0.02962 0.49182 0.43574
 O712 O 0.02487 0.47428 0.56523
 O713 O 0.00831 0.41900 0.49213
 O714 O -0.03648 0.51047 0.56503
 Zr715 Zr -0.01726 0.44781 0.42926
 Zr716 Zr 0.01042 0.55385 0.57182
 Zr717 Zr -0.06129 0.53435 0.50020
 Zr718 Zr 0.01466 0.57100 0.44593
 Zr719 Zr -0.02203 0.43113 0.55515
 Zr720 Zr 0.05414 0.46713 0.50048
 H721 H 0.06338 0.57240 0.51202
 H722 H -0.04574 0.53904 0.40676
 H723 H 0.01411 0.38029 0.48919
 H724 H -0.05213 0.51650 0.59386
 H725 H -0.03892 0.35073 0.43841
 H726 H -0.05485 0.34862 0.52159
 H727 H 0.03070 0.66321 0.48078
 H728 H 0.03875 0.64729 0.56525
 C729 C 0.25620 0.72527 0.90820
 C730 C 0.24189 0.77377 0.59289
 C731 C 0.19138 0.61438 0.81590
 C732 C 0.15142 0.77420 0.83971
 C733 C 0.18729 0.63043 0.67032
 C734 C 0.34249 0.72027 0.66697
 C735 C 0.30213 0.87619 0.67745
 C736 C 0.34655 0.70276 0.81741
 C737 C 0.14532 0.79421 0.68351
 C738 C 0.30709 0.85930 0.83829
 O739 O 0.22043 0.63885 0.65769
 O740 O 0.16970 0.65710 0.70312
 O741 O 0.17312 0.82418 0.67458
 O742 O 0.14531 0.75287 0.71214
 O743 O 0.27380 0.85167 0.85035
 O744 O 0.32338 0.83669 0.80188
 O745 O 0.23114 0.81184 0.62101
 O746 O 0.25262 0.72718 0.60764
 O747 O 0.24405 0.77128 0.89380
 O748 O 0.26382 0.68579 0.87993
 O749 O 0.31351 0.69558 0.65311
 O750 O 0.34411 0.75518 0.70161
 O751 O 0.22576 0.61808 0.82330
 O752 O 0.17228 0.64764 0.79036
 O753 O 0.31873 0.67314 0.82686
 O754 O 0.34645 0.74459 0.78947
 O755 O 0.26754 0.87376 0.67131
 O756 O 0.32047 0.84612 0.70691
 O757 O 0.21331 0.87695 0.84337
 O758 O 0.20930 0.89936 0.70046
 O759 O 0.27901 0.62112 0.65386
 O760 O 0.28518 0.59853 0.80167
 O761 O 0.23317 0.66727 0.74163
 O762 O 0.20012 0.79825 0.76057
 O763 O 0.29134 0.69925 0.74144
 O764 O 0.21807 0.72195 0.81532
 O765 O 0.14766 0.74421 0.80136
 O766 O 0.18099 0.79792 0.85231
 O767 O 0.27984 0.75596 0.81515
 O768 O 0.27454 0.77504 0.68588
 O769 O 0.25868 0.82977 0.75956
 O770 O 0.21286 0.74033 0.68662
 Zr771 Zr 0.23335 0.80093 0.82247
 Zr772 Zr 0.25947 0.69582 0.67913
 Zr773 Zr 0.18770 0.71682 0.75149
 Zr774 Zr 0.26415 0.67733 0.80426
 Zr775 Zr 0.22791 0.81924 0.69681
 Zr776 Zr 0.30413 0.78072 0.75039
 H777 H 0.31240 0.67503 0.73813
 H778 H 0.20473 0.70928 0.84447
 H779 H 0.26474 0.86832 0.76283
 H780 H 0.19723 0.73492 0.65774
 H781 H 0.21255 0.89855 0.81300
 H782 H 0.19474 0.90155 0.73075
 H783 H 0.28039 0.58570 0.76807
 H784 H 0.28643 0.60116 0.68353
 C785 C 0.50141 0.52243 0.34170
 C786 C 0.49092 0.47382 0.65746
 C787 C 0.55544 0.38110 0.41319
 C788 C 0.59824 0.54214 0.43335
 C789 C 0.55256 0.36501 0.56886
 C790 C 0.39803 0.45617 0.57154
 C791 C 0.43845 0.61224 0.58516
 C792 C 0.40159 0.47473 0.41381
 C793 C 0.59500 0.52584 0.57896
 C794 C 0.44294 0.62955 0.43157
 O795 O 0.51808 0.36857 0.57576
 O796 O 0.57113 0.39553 0.53999
 O797 O 0.56642 0.55170 0.59290
 O798 O 0.59595 0.48942 0.54555
 O799 O 0.47717 0.62510 0.42340
 O800 O 0.42427 0.59842 0.45961
 O801 O 0.50348 0.51932 0.64262
 O802 O 0.48109 0.43526 0.62942
 O803 O 0.51186 0.56042 0.36991
 O804 O 0.49035 0.47595 0.35635
 O805 O 0.42552 0.42520 0.57951
 O806 O 0.39789 0.49675 0.54201
 O807 O 0.52204 0.38960 0.40204
 O808 O 0.57281 0.40486 0.44797
 O809 O 0.43010 0.44857 0.40049
 O810 O 0.39981 0.50754 0.45025
 O811 O 0.47155 0.60301 0.59766
 O812 O 0.42149 0.58840 0.55024
 O813 O 0.53572 0.64676 0.44770
 O814 O 0.53076 0.62496 0.59504
 O815 O 0.45746 0.34856 0.55055
 O816 O 0.46212 0.36995 0.40605
 O817 O 0.50953 0.41439 0.49006
 O818 O 0.54369 0.54497 0.50816
 O819 O 0.45175 0.44903 0.49112
 O820 O 0.53006 0.48838 0.43467
 O821 O 0.59789 0.49940 0.46020
 O822 O 0.57058 0.57240 0.42454
 O823 O 0.46874 0.52452 0.43515
 O824 O 0.46465 0.50579 0.56480
 O825 O 0.48590 0.57859 0.50869
 O826 O 0.52608 0.47050 0.56341
 Zr827 Zr 0.51575 0.56746 0.44552
 Zr828 Zr 0.47948 0.42662 0.55377
 Zr829 Zr 0.55518 0.46304 0.49861
 Zr830 Zr 0.48323 0.44481 0.42804
 Zr831 Zr 0.51161 0.54972 0.57096
 Zr832 Zr 0.43985 0.53066 0.50028
 H833 H 0.43006 0.42614 0.48800
 H834 H 0.54571 0.48360 0.40565
 H835 H 0.48075 0.61744 0.51205
 H836 H 0.54032 0.45936 0.59227
 H837 H 0.54624 0.65102 0.48071
 H838 H 0.53415 0.64662 0.56502
 H839 H 0.45514 0.35141 0.43664
 H840 H 0.46652 0.33288 0.51963
 C841 C 0.75598 0.72465 0.90614
 C842 C 0.74263 0.77234 0.59058
 C843 C 0.69409 0.61174 0.81543
 C844 C 0.65051 0.77146 0.83265
 C845 C 0.69057 0.62740 0.66593
 C846 C 0.84360 0.72492 0.66412
 C847 C 0.80067 0.87623 0.67437
 C848 C 0.84751 0.70665 0.81676
 C849 C 0.64571 0.78725 0.68048
 C850 C 0.80600 0.85878 0.83680
 O851 O 0.72357 0.63712 0.65340
 O852 O 0.67286 0.65217 0.69977
 O853 O 0.67278 0.81880 0.67196
 O854 O 0.64653 0.74587 0.70902
 O855 O 0.77271 0.85038 0.84850
 O856 O 0.82251 0.83762 0.79997
 O857 O 0.73100 0.80976 0.61873
 O858 O 0.75437 0.72617 0.60524
 O859 O 0.74238 0.76965 0.89149
 O860 O 0.76530 0.68580 0.87801
 O861 O 0.81528 0.69866 0.65029
 O862 O 0.84470 0.75876 0.69960
 O863 O 0.72838 0.61673 0.82308
 O864 O 0.67493 0.64308 0.78810
 O865 O 0.82031 0.67571 0.82589
 O866 O 0.84693 0.74781 0.78806
 O867 O 0.76614 0.87255 0.66827
 O868 O 0.81938 0.84744 0.70450
 O869 O 0.71261 0.87495 0.84148
 O870 O 0.70733 0.89603 0.69837
 O871 O 0.78326 0.62077 0.65279
 O872 O 0.78863 0.59882 0.79990
 O873 O 0.73590 0.66433 0.73916
 O874 O 0.70005 0.79418 0.75759
 O875 O 0.79310 0.69960 0.73950
 O876 O 0.71907 0.71950 0.81286
 O877 O 0.64940 0.73683 0.79754
 O878 O 0.67890 0.79809 0.84563
 O879 O 0.77994 0.75601 0.81291
 O880 O 0.77494 0.77454 0.68379
 O881 O 0.75789 0.82907 0.75725
 O882 O 0.71434 0.73721 0.68398
 Zr883 Zr 0.73268 0.79919 0.81987
 Zr884 Zr 0.76164 0.69469 0.67679
 Zr885 Zr 0.68972 0.71204 0.74846
 Zr886 Zr 0.76599 0.67663 0.80235
 Zr887 Zr 0.72757 0.81682 0.69437
 Zr888 Zr 0.80412 0.78164 0.74835
 H889 H 0.81481 0.67668 0.73621
 H890 H 0.70545 0.70719 0.84190
 H891 H 0.76334 0.86783 0.76055
 H892 H 0.69892 0.73121 0.65499
 H893 H 0.71054 0.89619 0.81101
 H894 H 0.69251 0.89727 0.72847
 H895 H 0.78261 0.58469 0.76711
 H896 H 0.79068 0.60156 0.68286
 N897 N 0.02339 0.08056 0.27189
 N898 N 0.02462 0.07999 0.22388
 C899 C 0.01067 0.03338 0.20768
 C900 C 0.00003 0.00236 0.24767
 C901 C 0.00862 0.03434 0.28784
 H902 H -0.01230 -0.03702 0.24755
 H903 H 0.03264 0.11250 0.29320
 H904 H 0.03488 0.11146 0.20274
 N905 N 0.27199 0.16357 0.97501
 N906 N 0.27360 0.16457 1.02556
 C907 C 0.26103 0.21255 1.04090
 C908 C 0.25120 0.24361 1.00020
 C909 C 0.25851 0.21098 0.95958
 H910 H 0.24010 0.28386 1.00015
 H911 H 0.28017 0.13089 0.95371
 H912 H 0.28289 0.13257 1.04693
 N913 N 0.19110 0.04103 0.12279
 N914 N 0.16640 0.02182 0.09270
 C915 C 0.13527 0.04903 0.09942
 C916 C 0.14023 0.08657 0.13622
 C917 C 0.17611 0.08030 0.14996
 H918 H 0.12110 0.11628 0.14916
 H919 H 0.21803 0.02857 0.12340
 H920 H 0.17119 -0.00857 0.06718
 N921 N 0.33950 0.47338 0.08849
 N922 N 0.31427 0.44313 0.10856
 C923 C 0.33037 0.40662 0.13771
 C924 C 0.36722 0.41422 0.13686
 C925 C 0.37194 0.45647 0.10468
 H926 H 0.38777 0.38959 0.15397
 H927 H 0.33457 0.50295 0.06217
 H928 H 0.28671 0.44660 0.10118
 N929 N 0.44405 0.19504 0.13517
 N930 N 0.41862 0.21717 0.16258
 C931 C 0.38685 0.19295 0.15313
 C932 C 0.39231 0.15408 0.11747
 C933 C 0.42903 0.15667 0.10711
 H934 H 0.37268 0.12640 0.10262
 H935 H 0.47133 0.20545 0.13652
 H936 H 0.42324 0.24758 0.18809
 N937 N 0.06328 0.30775 0.14338
 N938 N 0.08859 0.27897 0.16507
 C939 C 0.12102 0.29601 0.14908
 C940 C 0.11627 0.33686 0.11541
 C941 C 0.07931 0.34331 0.11325
 H942 H 0.13677 0.36079 0.09750
 H943 H 0.03565 0.30375 0.15005
 H944 H 0.08363 0.24986 0.19179
 N945 N 0.44033 0.21026 0.37513
 N946 N 0.41509 0.23547 0.34975
 C947 C 0.38278 0.21385 0.36093
 C948 C 0.38759 0.17378 0.39543
 C949 C 0.42449 0.17236 0.40303
 H950 H 0.36751 0.14627 0.40958
 H951 H 0.46799 0.21741 0.37160
 H952 H 0.42024 0.26506 0.32355
 N953 N 0.06046 0.31486 0.35132
 N954 N 0.08576 0.29065 0.32535
 C955 C 0.11801 0.31132 0.33782
 C956 C 0.11315 0.34985 0.37384
 C957 C 0.07621 0.35085 0.38124
 H958 H 0.13342 0.37477 0.39099
 H959 H 0.03286 0.30718 0.34804
 H960 H 0.08080 0.26133 0.29890
 N961 N 0.16312 0.03396 0.41963
 N962 N 0.18904 0.05784 0.39457
 C963 C 0.17402 0.09494 0.36499
 C964 C 0.13696 0.09493 0.37156
 C965 C 0.13122 0.05596 0.40683
 H966 H 0.11722 0.12125 0.35480
 H967 H 0.16746 0.00428 0.44604
 H968 H 0.21653 0.04946 0.39848
 N969 N 0.33599 0.48648 0.39652
 N970 N 0.31103 0.46133 0.37078
 C971 C 0.32710 0.42274 0.34385
 C972 C 0.36385 0.42368 0.35238
 C973 C 0.36830 0.46413 0.38651
 H974 H 0.38395 0.39552 0.33928
 H975 H 0.33060 0.51647 0.42221
 H976 H 0.28337 0.46890 0.37353
 N977 N 0.51513 0.08153 0.27332
 N978 N 0.51759 0.08001 0.22546
 C979 C 0.50963 0.03004 0.21007
 C980 C 0.50143 -0.00208 0.25023
 C981 C 0.50553 0.03258 0.28972
 H982 H 0.49431 -0.04423 0.25071
 H983 H 0.52033 0.11577 0.29422
 H984 H 0.52468 0.11305 0.20390
 N985 N 0.77884 0.16874 0.97461
 N986 N 0.78007 0.16886 1.02259
 C987 C 0.76368 0.21360 1.03915
 C988 C 0.75149 0.24391 0.99963
 C989 C 0.76163 0.21340 0.95928
 H990 H 0.73691 0.28162 1.00020
 H991 H 0.78966 0.13814 0.95292
 H992 H 0.79187 0.13834 1.04345
 N993 N 0.69529 0.03818 0.11981
 N994 N 0.67119 0.01907 0.08872
 C995 C 0.63968 0.04516 0.09555
 C996 C 0.64376 0.08169 0.13342
 C997 C 0.67948 0.07611 0.14778
 H998 H 0.62405 0.11024 0.14690
 H999 H 0.72239 0.02654 0.12064
 H1000 H 0.67658 -0.01054 0.06266
 N1001 N -0.16276 0.46907 0.08358
 N1002 N -0.18776 0.43963 0.10513
 C1003 C -0.17138 0.40441 0.13531
 C1004 C -0.13453 0.41184 0.13336
 C1005 C -0.13017 0.45284 0.09975
 H1006 H -0.11378 0.38832 0.15129
 H1007 H -0.16798 0.49797 0.05675
 H1008 H -0.21541 0.44288 0.09825
 N1009 N 0.91637 0.22700 0.15150
 N1010 N 0.94085 0.20738 0.12108
 C1011 C 0.92592 0.16732 0.09490
 C1012 C 0.89027 0.16102 0.10969
 C1013 C 0.88541 0.19932 0.14605
 H1014 H 0.87127 0.13073 0.09783
 H1015 H 0.92124 0.25789 0.17644
 H1016 H 0.96768 0.22010 0.11963
 N1017 N 0.56286 0.29870 0.13998
 N1018 N 0.58818 0.27074 0.16262
 C1019 C 0.62067 0.28856 0.14754
 C1020 C 0.61590 0.32898 0.11343
 C1021 C 0.57891 0.33450 0.11008
 H1022 H 0.63639 0.35366 0.09633
 H1023 H 0.53520 0.29437 0.14623
 H1024 H 0.58317 0.24186 0.18952
 N1025 N -0.05943 0.21229 0.37583
 N1026 N -0.08597 0.23763 0.34787
 C1027 C -0.11805 0.21595 0.36015
 C1028 C -0.11298 0.17826 0.39715
 C1029 C -0.07591 0.17607 0.40495
 H1030 H -0.13317 0.15171 0.41251
 H1031 H -0.03169 0.21798 0.37140
 H1032 H -0.08084 0.26510 0.31980
 N1033 N 0.55978 0.30657 0.35267
 N1034 N 0.58520 0.28271 0.32657
 C1035 C 0.61734 0.30409 0.33864
 C1036 C 0.61228 0.34263 0.37453
 C1037 C 0.57537 0.34300 0.38229
 H1038 H 0.63239 0.36823 0.39119
 H1039 H 0.53221 0.29856 0.34951
 H1040 H 0.58037 0.25328 0.30018
 N1041 N 0.66585 0.03371 0.42494
 N1042 N 0.69148 0.05675 0.39865
 C1043 C 0.67611 0.09253 0.36802
 C1044 C 0.63913 0.09264 0.37536
 C1045 C 0.63378 0.05504 0.41201
 H1046 H 0.61914 0.11791 0.35783
 H1047 H 0.67046 0.00483 0.45199
 H1048 H 0.71901 0.04861 0.40232
 N1049 N -0.16587 0.48222 0.40103
 N1050 N -0.19064 0.45747 0.37464
 C1051 C -0.17432 0.41978 0.34696
 C1052 C -0.13759 0.42071 0.35591
 C1053 C -0.13341 0.46045 0.39082
 H1054 H -0.11722 0.39348 0.34195
 H1055 H -0.17145 0.51191 0.42695
 H1056 H -0.21833 0.46492 0.37718
 N1057 N 0.02685 0.57812 0.27418
 N1058 N 0.02784 0.57791 0.22616
 C1059 C 0.01210 0.53269 0.20978
 C1060 C 0.00057 0.50215 0.24961
 C1061 C 0.01044 0.53304 0.28990
 H1062 H -0.01338 0.46400 0.24930
 H1063 H 0.03729 0.60909 0.29567
 H1064 H 0.03909 0.60872 0.20513
 N1065 N 0.27982 0.67013 0.97558
 N1066 N 0.28123 0.67046 1.02358
 C1067 C 0.26514 0.71546 1.04009
 C1068 C 0.25300 0.74573 1.00055
 C1069 C 0.26279 0.71492 0.96024
 H1070 H 0.23847 0.78349 1.00108
 H1071 H 0.29032 0.63929 0.95389
 H1072 H 0.29287 0.63984 1.04450
 N1073 N 0.19098 0.54207 0.12176
 N1074 N 0.16608 0.52234 0.09218
 C1075 C 0.13481 0.54906 0.09936
 C1076 C 0.14001 0.58693 0.13597
 C1077 C 0.17610 0.58128 0.14913
 H1078 H 0.12080 0.61633 0.14928
 H1079 H 0.21796 0.52983 0.12201
 H1080 H 0.17079 0.49189 0.06669
 N1081 N 0.31739 0.93569 0.10719
 N1082 N 0.34467 0.96640 0.08621
 C1083 C 0.37649 0.94867 0.10407
 C1084 C 0.37027 0.90812 0.13804
 C1085 C 0.33303 0.90071 0.13823
 H1086 H 0.39028 0.88437 0.15724
 H1087 H 0.28996 0.93937 0.09901
 H1088 H 0.34060 0.99464 0.05844
 N1089 N 0.44295 0.69967 0.13194
 N1090 N 0.41806 0.72019 0.16117
 C1091 C 0.38646 0.69503 0.15287
 C1092 C 0.39136 0.65742 0.11605
 C1093 C 0.42764 0.66158 0.10385
 H1094 H 0.37176 0.62929 0.10182
 H1095 H 0.47014 0.71069 0.13229
 H1096 H 0.42296 0.75010 0.18707
 N1097 N 0.08988 0.77901 0.16412
 N1098 N 0.06463 0.80799 0.14259
 C1099 C 0.08079 0.84425 0.11332
 C1100 C 0.11772 0.83807 0.11576
 C1101 C 0.12233 0.79666 0.14878
 H1102 H 0.13826 0.86243 0.09840
 H1103 H 0.08485 0.74933 0.19029
 H1104 H 0.03696 0.80357 0.14875
 N1105 N 0.43940 0.71097 0.37869
 N1106 N 0.41422 0.73652 0.35352
 C1107 C 0.38197 0.71422 0.36384
 C1108 C 0.38670 0.67340 0.39758
 C1109 C 0.42353 0.67220 0.40553
 H1110 H 0.36670 0.64520 0.41075
 H1111 H 0.46704 0.71845 0.37561
 H1112 H 0.41941 0.76675 0.32795
 N1113 N 0.05985 -0.18343 0.34807
 N1114 N 0.08541 -0.20760 0.32252
 C1115 C 0.11758 -0.18741 0.33602
 C1116 C 0.11240 -0.14925 0.37223
 C1117 C 0.07536 -0.14798 0.37872
 H1118 H 0.13256 -0.12484 0.39022
 H1119 H 0.03227 -0.19084 0.34409
 H1120 H 0.08069 -0.23661 0.29571
 N1121 N 0.16318 0.53449 0.42047
 N1122 N 0.18888 0.55843 0.39504
 C1123 C 0.17364 0.59558 0.36569
 C1124 C 0.13663 0.59551 0.37281
 C1125 C 0.13117 0.55646 0.40819
 H1126 H 0.11675 0.62185 0.35637
 H1127 H 0.16775 0.50475 0.44675
 H1128 H 0.21639 0.55007 0.39858
 N1129 N 0.33594 -0.01229 0.39720
 N1130 N 0.31098 -0.03781 0.37175
 C1131 C 0.32710 -0.07647 0.34495
 C1132 C 0.36385 -0.07519 0.35326
 C1133 C 0.36829 -0.03446 0.38712
 H1134 H 0.38401 -0.10329 0.34019
 H1135 H 0.33052 0.01781 0.42278
 H1136 H 0.28330 -0.03040 0.37460
 N1137 N 0.51144 0.58498 0.27346
 N1138 N 0.51300 0.58459 0.22547
 C1139 C 0.50574 0.53464 0.20948
 C1140 C 0.49894 0.50134 0.24938
 C1141 C 0.50315 0.53527 0.28937
 H1142 H 0.49281 0.45885 0.24935
 H1143 H 0.51637 0.61897 0.29480
 H1144 H 0.51913 0.61829 0.20422
 N1145 N 0.77999 0.67086 0.97417
 N1146 N 0.78121 0.67171 1.02217
 C1147 C 0.76432 0.71626 1.03825
 C1148 C 0.75181 0.74568 0.99837
 C1149 C 0.76227 0.71485 0.95835
 H1150 H 0.73670 0.78294 0.99852
 H1151 H 0.79112 0.64024 0.95279
 H1152 H 0.79330 0.64173 1.04339
 N1153 N 0.69314 0.54155 0.11939
 N1154 N 0.66880 0.52200 0.08889
 C1155 C 0.63735 0.54825 0.09578
 C1156 C 0.64170 0.58539 0.13302
 C1157 C 0.67751 0.57994 0.14700
 H1158 H 0.62208 0.61414 0.14640
 H1159 H 0.72022 0.52982 0.12011
 H1160 H 0.67399 0.49194 0.06318
 N1161 N 0.81309 0.94005 0.10193
 N1162 N 0.83849 0.96795 0.07952
 C1163 C 0.87089 0.95096 0.09573
 C1164 C 0.86598 0.91102 0.13033
 C1165 C 0.82896 0.90508 0.13284
 H1166 H 0.88642 0.88736 0.14876
 H1167 H 0.78547 0.94423 0.09524
 H1168 H 0.83360 0.99653 0.05230
 N1169 N 0.91610 0.72823 0.15576
 N1170 N 0.94094 0.70834 0.12604
 C1171 C 0.92590 0.66938 0.09867
 C1172 C 0.88988 0.66405 0.11186
 C1173 C 0.88484 0.70174 0.14855
 H1174 H 0.87065 0.63475 0.09869
 H1175 H 0.92087 0.75844 0.18142
 H1176 H 0.96798 0.72013 0.12584
 N1177 N 0.62988 0.76795 0.08451
 N1178 N 0.60425 0.79688 0.05857
 C1179 C 0.58437 0.82542 0.09066
 C1180 C 0.59625 0.81412 0.13808
 C1181 C 0.62547 0.77872 0.13231
 H1182 H 0.58967 0.83673 0.17071
 H1183 H 0.65195 0.74851 0.06851
 H1184 H 0.60403 0.80047 0.02049
 N1185 N -0.06193 0.71572 0.37916
 N1186 N -0.08700 0.74016 0.35279
 C1187 C -0.11923 0.71745 0.36251
 C1188 C -0.11448 0.67739 0.39719
 C1189 C -0.07770 0.67715 0.40641
 H1190 H -0.13441 0.64908 0.41036
 H1191 H -0.03432 0.72373 0.37662
 H1192 H -0.08173 0.77005 0.32692
 N1193 N 0.55856 -0.19340 0.35423
 N1194 N 0.58374 -0.21579 0.32674
 C1195 C 0.61573 -0.19331 0.33784
 C1196 C 0.61094 -0.15578 0.37453
 C1197 C 0.57429 -0.15703 0.38374
 H1198 H 0.63098 -0.12966 0.39068
 H1199 H 0.53105 -0.20218 0.35195
 H1200 H 0.57884 -0.24499 0.30017
 N1201 N 0.66481 0.53534 0.42150
 N1202 N 0.68994 0.55904 0.39482
 C1203 C 0.67402 0.59544 0.36531
 C1204 C 0.63719 0.59526 0.37376
 C1205 C 0.63253 0.55683 0.40994
 H1206 H 0.61689 0.62090 0.35736
 H1207 H 0.66993 0.50592 0.44789
 H1208 H 0.71754 0.55096 0.39754
 N1209 N -0.16681 -0.01503 0.40068
 N1210 N -0.19183 -0.03943 0.37443
 C1211 C -0.17581 -0.07709 0.34642
 C1212 C -0.13902 -0.07651 0.35502
 C1213 C -0.13448 -0.03702 0.39005
 H1214 H -0.11883 -0.10381 0.34070
 H1215 H -0.17213 0.01458 0.42676
 H1216 H -0.21948 -0.03174 0.37725
 N1217 N -0.01874 -0.08416 0.72221
 N1218 N -0.01608 -0.08550 0.77266
 C1219 C -0.00394 -0.03732 0.78791
 C1220 C 0.00176 -0.00402 0.74726
 C1221 C -0.00808 -0.03525 0.70678
 H1222 H 0.01120 0.03711 0.74718
 H1223 H -0.02753 -0.11649 0.70101
 H1224 H -0.02309 -0.11872 0.79402
 N1225 N 0.23621 0.33334 0.52463
 N1226 N 0.23777 0.33417 0.47661
 C1227 C 0.24674 0.28486 0.46037
 C1228 C 0.25135 0.25068 0.50036
 C1229 C 0.24413 0.28346 0.54054
 H1230 H 0.25814 0.20837 0.50019
 H1231 H 0.22965 0.36675 0.54599
 H1232 H 0.23242 0.36825 0.45545
 N1233 N 0.18542 0.04745 0.61317
 N1234 N 0.15976 0.01985 0.59106
 C1235 C 0.12742 0.03898 0.60563
 C1236 C 0.13268 0.07997 0.63895
 C1237 C 0.16980 0.08445 0.64224
 H1238 H 0.11249 0.10587 0.65527
 H1239 H 0.21302 0.04211 0.60705
 H1240 H 0.16449 -0.00961 0.56462
 N1241 N 0.33275 0.47035 0.59080
 N1242 N 0.30791 0.44930 0.61977
 C1243 C 0.32324 0.41043 0.64716
 C1244 C 0.35950 0.40635 0.63477
 C1245 C 0.36435 0.44483 0.59856
 H1246 H 0.37910 0.37773 0.64842
 H1247 H 0.32779 0.50084 0.56538
 H1248 H 0.28073 0.46053 0.61972
 N1249 N 0.43620 0.19337 0.64065
 N1250 N 0.41069 0.22243 0.66163
 C1251 C 0.37833 0.20478 0.64594
 C1252 C 0.38340 0.16327 0.61314
 C1253 C 0.42039 0.15693 0.61134
 H1254 H 0.36306 0.13836 0.59612
 H1255 H 0.46378 0.19757 0.64750
 H1256 H 0.41544 0.25183 0.68807
 N1257 N 0.05620 0.29834 0.63586
 N1258 N 0.08089 0.27743 0.66518
 C1259 C 0.11266 0.30210 0.65689
 C1260 C 0.10806 0.33987 0.61997
 C1261 C 0.07180 0.33621 0.60764
 H1262 H 0.12793 0.36745 0.60544
 H1263 H 0.02897 0.28752 0.63605
 H1264 H 0.07577 0.24737 0.69096
 N1265 N 0.41314 0.20784 0.83180
 N1266 N 0.43881 0.18297 0.85656
 C1267 C 0.42358 0.14522 0.88527
 C1268 C 0.38653 0.14591 0.87842
 C1269 C 0.38110 0.18602 0.84386
 H1270 H 0.36662 0.11950 0.89458
 H1271 H 0.41776 0.23819 0.80614
 H1272 H 0.46632 0.19128 0.85314
 N1273 N 0.08431 0.26252 0.84960
 N1274 N 0.05930 0.28749 0.87555
 C1275 C 0.07537 0.32552 0.90296
 C1276 C 0.11211 0.32455 0.89443
 C1277 C 0.11660 0.28453 0.85993
 H1278 H 0.13228 0.35207 0.90821
 H1279 H 0.07900 0.23261 0.82384
 H1280 H 0.03164 0.28003 0.87281
 N1281 N 0.19103 0.03326 0.87103
 N1282 N 0.16455 0.00754 0.89873
 C1283 C 0.13245 0.02934 0.88661
 C1284 C 0.13741 0.06745 0.84998
 C1285 C 0.17444 0.06987 0.84234
 H1286 H 0.11717 0.09425 0.83498
 H1287 H 0.21878 0.02768 0.87550
 H1288 H 0.16973 -0.02013 0.92662
 N1289 N 0.31073 0.43232 0.89888
 N1290 N 0.33636 0.45798 0.92287
 C1291 C 0.36857 0.43771 0.90926
 C1292 C 0.36334 0.39794 0.87462
 C1293 C 0.32626 0.39571 0.86927
 H1294 H 0.38349 0.37272 0.85736
 H1295 H 0.28313 0.43941 0.90334
 H1296 H 0.33165 0.48767 0.94910
 N1297 N 0.46677 -0.07624 0.72679
 N1298 N 0.46833 -0.07706 0.77475
 C1299 C 0.48747 -0.03436 0.79008
 C1300 C 0.49848 -0.00432 0.74984
 C1301 C 0.48489 -0.03300 0.71032
 H1302 H 0.51484 0.03164 0.74931
 H1303 H 0.45373 -0.10543 0.70586
 H1304 H 0.45655 -0.10687 0.79642
 N1305 N 0.73739 0.33394 0.52305
 N1306 N 0.73917 0.33407 0.47508
 C1307 C 0.74749 0.28421 0.45954
 C1308 C 0.75151 0.25046 0.49976
 C1309 C 0.74452 0.28401 0.53938
 H1310 H 0.75757 0.20791 0.50010
 H1311 H 0.73119 0.36778 0.54404
 H1312 H 0.73435 0.36800 0.45349
 N1313 N 0.68753 0.04885 0.61002
 N1314 N 0.66201 0.02147 0.58744
 C1315 C 0.62963 0.03997 0.60245
 C1316 C 0.63466 0.08022 0.63648
 C1317 C 0.67171 0.08492 0.63985
 H1318 H 0.61433 0.10530 0.65353
 H1319 H 0.71517 0.04395 0.60380
 H1320 H 0.66684 -0.00753 0.56062
 N1321 N -0.17020 0.47043 0.58516
 N1322 N -0.19497 0.44996 0.61460
 C1323 C -0.17933 0.41258 0.64337
 C1324 C -0.14304 0.40873 0.63132
 C1325 C -0.13842 0.44584 0.59398
 H1326 H -0.12317 0.38130 0.64622
 H1327 H -0.17528 0.50001 0.55891
 H1328 H -0.22225 0.46061 0.61404
 N1329 N 0.91052 0.23017 0.65659
 N1330 N 0.93608 0.20202 0.63464
 C1331 C 0.92030 0.16535 0.60552
 C1332 C 0.88327 0.17065 0.60849
 C1333 C 0.87816 0.21164 0.64180
 H1334 H 0.86301 0.14492 0.59233
 H1335 H 0.91530 0.25929 0.68327
 H1336 H 0.96369 0.20658 0.64110
 N1337 N 0.55713 0.28881 0.62804
 N1338 N 0.58144 0.26975 0.65894
 C1339 C 0.61265 0.29654 0.65232
 C1340 C 0.60819 0.33346 0.61480
 C1341 C 0.57255 0.32739 0.60044
 H1342 H 0.62758 0.36257 0.60160
 H1343 H 0.53016 0.27670 0.62710
 H1344 H 0.57638 0.23972 0.68476
 N1345 N 0.91438 0.21333 0.82652
 N1346 N 0.94040 0.18873 0.85088
 C1347 C 0.92544 0.15157 0.88040
 C1348 C 0.88834 0.15231 0.87455
 C1349 C 0.88248 0.19177 0.83977
 H1350 H 0.86860 0.12622 0.89152
 H1351 H 0.91863 0.24320 0.80027
 H1352 H 0.96789 0.19675 0.84659
 N1353 N 0.58494 0.25716 0.85214
 N1354 N 0.56017 0.28035 0.87988
 C1355 C 0.57622 0.31829 0.90743
 C1356 C 0.61272 0.31904 0.89707
 C1357 C 0.61705 0.28032 0.86134
 H1358 H 0.63266 0.34732 0.91016
 H1359 H 0.57951 0.22785 0.82586
 H1360 H 0.53257 0.27216 0.87793
 N1361 N 0.69184 0.03635 0.87259
 N1362 N 0.66541 0.01135 0.90087
 C1363 C 0.63329 0.03356 0.88926
 C1364 C 0.63821 0.07140 0.85241
 C1365 C 0.67527 0.07281 0.84383
 H1366 H 0.61795 0.09802 0.83722
 H1367 H 0.71958 0.02995 0.87629
 H1368 H 0.67063 -0.01682 0.92833
 N1369 N 0.80871 0.43316 0.89973
 N1370 N 0.83399 0.45788 0.92519
 C1371 C 0.86636 0.43786 0.91202
 C1372 C 0.86158 0.39926 0.87611
 C1373 C 0.82460 0.39751 0.86947
 H1374 H 0.88197 0.37476 0.85852
 H1375 H 0.78106 0.44030 0.90354
 H1376 H 0.82896 0.48702 0.95181
 N1377 N -0.02088 0.41640 0.72478
 N1378 N -0.01924 0.41576 0.77534
 C1379 C -0.00705 0.46394 0.79051
 C1380 C -0.00042 0.49661 0.74963
 C1381 C -0.00964 0.46494 0.70911
 H1382 H 0.00935 0.53756 0.74941
 H1383 H -0.02950 0.38393 0.70364
 H1384 H -0.02673 0.38287 0.79684
 N1385 N 0.23303 0.83603 0.52407
 N1386 N 0.23497 0.83628 0.47609
 C1387 C 0.24485 0.78705 0.46056
 C1388 C 0.24962 0.75355 0.50086
 C1389 C 0.24161 0.78664 0.54049
 H1390 H 0.25719 0.71154 0.50125
 H1391 H 0.22585 0.86948 0.54501
 H1392 H 0.22930 0.86992 0.45450
 N1393 N 0.18444 0.54966 0.61698
 N1394 N 0.15925 0.52091 0.59516
 C1395 C 0.12667 0.53987 0.60879
 C1396 C 0.13126 0.58192 0.64124
 C1397 C 0.16825 0.58725 0.64487
 H1398 H 0.11073 0.60802 0.65647
 H1399 H 0.21213 0.54473 0.61134
 H1400 H 0.16445 0.49089 0.56942
 N1401 N 0.30720 0.95288 0.61879
 N1402 N 0.33223 0.97402 0.59015
 C1403 C 0.36378 0.94847 0.59828
 C1404 C 0.35870 0.90995 0.63434
 C1405 C 0.32238 0.91396 0.64627
 H1406 H 0.37821 0.88130 0.64816
 H1407 H 0.28001 0.96410 0.61844
 H1408 H 0.32744 1.00451 0.56468
 N1409 N 0.43478 0.69134 0.64049
 N1410 N 0.40936 0.72143 0.66047
 C1411 C 0.37691 0.70404 0.64485
 C1412 C 0.38191 0.66136 0.61312
 C1413 C 0.41896 0.65431 0.61182
 H1414 H 0.36148 0.63655 0.59619
 H1415 H 0.46236 0.69553 0.64733
 H1416 H 0.41422 0.75161 0.68614
 N1417 N 0.07985 0.78120 0.66563
 N1418 N 0.05529 0.80080 0.63541
 C1419 C 0.07092 0.83795 0.60647
 C1420 C 0.10703 0.84260 0.61924
 C1421 C 0.11151 0.80613 0.65719
 H1422 H 0.12686 0.87000 0.60431
 H1423 H 0.07473 0.75181 0.69203
 H1424 H 0.02812 0.78966 0.63552
 N1425 N 0.41342 0.70697 0.82509
 N1426 N 0.43917 0.68177 0.84944
 C1427 C 0.42382 0.64582 0.87986
 C1428 C 0.38667 0.64800 0.87458
 C1429 C 0.38124 0.68711 0.83921
 H1430 H 0.36659 0.62336 0.89258
 H1431 H 0.41801 0.73625 0.79840
 H1432 H 0.46674 0.68878 0.84475
 N1433 N 0.13114 0.76976 0.92178
 N1434 N 0.10529 0.79648 0.94924
 C1435 C 0.08201 0.82046 0.91833
 C1436 C 0.09198 0.80809 0.87011
 C1437 C 0.12366 0.77729 0.87411
 H1438 H 0.08232 0.82801 0.83741
 H1439 H 0.15500 0.75390 0.93624
 H1440 H 0.10708 0.80251 0.98698
 N1441 N 0.18804 0.53227 0.86811
 N1442 N 0.16305 0.50755 0.89431
 C1443 C 0.13084 0.53053 0.88485
 C1444 C 0.13539 0.57085 0.85058
 C1445 C 0.17209 0.57120 0.84143
 H1446 H 0.11544 0.59956 0.83804
 H1447 H 0.21568 0.52442 0.87064
 H1448 H 0.16839 0.47750 0.92003
 N1449 N 0.31245 0.93286 0.89926
 N1450 N 0.33823 0.95698 0.92422
 C1451 C 0.37026 0.93608 0.91064
 C1452 C 0.36474 0.89745 0.87495
 C1453 C 0.32765 0.89660 0.86898
 H1454 H 0.38467 0.87212 0.85736
 H1455 H 0.28492 0.94067 0.90355
 H1456 H 0.33373 0.98619 0.95095
 N1457 N 0.47211 0.41697 0.72632
 N1458 N 0.47351 0.41651 0.77430
 C1459 C 0.48963 0.46188 0.78972
 C1460 C 0.49889 0.49317 0.74944
 C1461 C 0.48730 0.46264 0.70986
 H1462 H 0.51245 0.53165 0.74896
 H1463 H 0.46100 0.38605 0.70539
 H1464 H 0.46350 0.38526 0.79593
 N1465 N 0.73307 0.83524 0.52248
 N1466 N 0.73428 0.83594 0.47448
 C1467 C 0.74407 0.78692 0.45840
 C1468 C 0.74961 0.75310 0.49829
 C1469 C 0.74205 0.78574 0.53833
 H1470 H 0.75723 0.71111 0.49817
 H1471 H 0.72603 0.86843 0.54384
 H1472 H 0.72817 0.86970 0.45327
 N1473 N 0.68731 0.54967 0.60896
 N1474 N 0.66184 0.52210 0.58648
 C1475 C 0.62942 0.54043 0.60152
 C1476 C 0.63438 0.58079 0.63549
 C1477 C 0.67143 0.58570 0.63877
 H1478 H 0.61401 0.60575 0.65257
 H1479 H 0.71495 0.54487 0.60272
 H1480 H 0.66672 0.49305 0.55972
 N1481 N 0.80472 0.95125 0.61371
 N1482 N 0.82944 0.97214 0.58441
 C1483 C 0.86127 0.94756 0.59293
 C1484 C 0.85670 0.90998 0.62993
 C1485 C 0.82041 0.91355 0.64210
 H1486 H 0.87661 0.88242 0.64453
 H1487 H 0.77743 0.96187 0.61332
 H1488 H 0.82430 1.00199 0.55843
 N1489 N 0.91014 0.73090 0.65490
 N1490 N 0.93575 0.70216 0.63373
 C1491 C 0.92000 0.66483 0.60530
 C1492 C 0.88300 0.67032 0.60779
 C1493 C 0.87783 0.71208 0.64022
 H1494 H 0.86277 0.64420 0.59207
 H1495 H 0.91485 0.76058 0.68109
 H1496 H 0.96333 0.70677 0.64031
 N1497 N 0.58064 0.77134 0.66114
 N1498 N 0.55608 0.79051 0.63065
 C1499 C 0.57150 0.82842 0.60231
 C1500 C 0.60737 0.83397 0.61573
 C1501 C 0.61199 0.79744 0.65346
 H1502 H 0.62685 0.86249 0.60172
 H1503 H 0.57567 0.74173 0.68739
 H1504 H 0.52900 0.77891 0.63046
 N1505 N 0.91392 0.71538 0.82827
 N1506 N 0.93948 0.69155 0.85410
 C1507 C 0.92403 0.65478 0.88361
 C1508 C 0.88713 0.65495 0.87623
 C1509 C 0.88189 0.69360 0.84051
 H1510 H 0.86718 0.62875 0.89261
 H1511 H 0.91860 0.74474 0.80169
 H1512 H 0.96702 0.69958 0.85062
 N1513 N 0.58652 0.75921 0.84696
 N1514 N 0.56034 0.78475 0.87533
 C1515 C 0.57720 0.82152 0.90333
 C1516 C 0.61405 0.81961 0.89452
 C1517 C 0.61862 0.78142 0.85806
 H1518 H 0.63440 0.84633 0.90911
 H1519 H 0.58114 0.73102 0.81967
 H1520 H 0.53256 0.77866 0.87199
 N1521 N 0.69078 0.53238 0.87127
 N1522 N 0.66587 0.50897 0.89863
 C1523 C 0.63362 0.53167 0.88875
 C1524 C 0.63811 0.57048 0.85297
 C1525 C 0.67479 0.57007 0.84320
 H1526 H 0.61806 0.59832 0.83917
 H1527 H 0.71840 0.52430 0.87364
 H1528 H 0.67125 0.47967 0.92503
 N1529 N 0.81153 0.92993 0.89995
 N1530 N 0.83750 0.95362 0.92485
 C1531 C 0.86949 0.93342 0.91014
 C1532 C 0.86376 0.89569 0.87383
 C1533 C 0.82659 0.89480 0.86854
 H1534 H 0.88365 0.87152 0.85487
 H1535 H 0.78403 0.93755 0.90479
 H1536 H 0.83320 0.98245 0.95198
   
