data_POSCAR
  _audit_creation_date              2014-09-24
  _audit_creation_method            'ToBaCCo'
  _symmetry_space_group_name_H-M    'P1'
  _symmetry_Int_Tables_number       1
  _symmetry_cell_setting            triclinic
  loop_
  _symmetry_equiv_pos_as_xyz
 x,y,z
_cell_length_a 42.5659
_cell_length_b 41.4278
_cell_length_c 41.6889
_cell_angle_alpha 90.439200
_cell_angle_beta 90.968000
_cell_angle_gamma 89.451100
loop_
  _atom_site_label
  _atom_site_type_symbol
  _atom_site_fract_x
  _atom_site_fract_y
  _atom_site_fract_z
C1 C 0.35733 1.37989 0.31961
 N2 N 0.33028 1.38935 0.33326
 C3 C 0.31642 1.37127 0.35579
 N4 N 0.33045 1.34294 0.36546
 C5 C 0.35849 1.33347 0.35234
 N6 N 0.37143 1.35195 0.32929
 C7 C 0.34402 0.86663 0.81742
 N8 N 0.36051 0.84402 0.83461
 C9 C 0.34885 0.83297 0.86279
 N10 N 0.32104 0.84466 0.87352
 C11 C 0.30440 0.86674 0.85626
 N12 N 0.31597 0.87745 0.82826
 C13 C 0.85567 1.35564 0.81615
 N14 N 0.82771 1.37033 0.82320
 C15 C 0.81072 1.36051 0.84877
 N16 N 0.82199 1.33564 0.86709
 C17 C 0.84985 1.32108 0.86016
 N18 N 0.86637 1.33128 0.83478
 C19 C 0.86222 0.86449 0.32259
 N20 N 0.83475 0.87993 0.32992
 C21 C 0.81765 0.87033 0.35543
 N22 N 0.82815 0.84493 0.37339
 C23 C 0.85552 0.82960 0.36625
 N24 N 0.87228 0.83954 0.34088
 C25 C 0.63240 0.63203 0.32710
 N26 N 0.66027 0.61717 0.33404
 C27 C 0.67790 0.62673 0.35967
 N28 N 0.66767 0.65154 0.37838
 C29 C 0.63983 0.66638 0.37181
 N30 N 0.62231 0.65662 0.34602
 C31 C 0.63526 0.13623 0.82694
 N32 N 0.66407 0.12337 0.83440
 C33 C 0.68047 0.13384 0.86073
 N34 N 0.66791 0.15758 0.87941
 C35 C 0.63922 0.17036 0.87213
 N36 N 0.62310 0.15957 0.84596
 C37 C 1.13340 0.63419 0.83045
 N38 N 1.12148 0.65790 0.84921
 C39 C 1.13819 0.66944 0.87473
 N40 N 1.16716 0.65707 0.88148
 C41 C 1.17935 0.63302 0.86298
 N42 N 1.16246 0.62179 0.83736
 C43 C 1.13220 0.13764 0.33900
 N44 N 1.16171 0.12779 0.34889
 C45 C 1.17262 0.13633 0.37899
 N46 N 1.15427 0.15464 0.39826
 C47 C 1.12560 0.16485 0.38836
 N48 N 1.11473 0.15626 0.35887
 C49 C 0.64617 1.36093 0.68460
 N50 N 0.67028 1.37737 0.67217
 C51 C 0.68220 1.36903 0.64346
 N52 N 0.67024 1.34316 0.62724
 C53 C 0.64642 1.32587 0.63972
 N54 N 0.63414 1.33501 0.66847
 C55 C 0.63913 0.85870 1.17960
 N56 N 0.66427 0.87691 1.17155
 C57 C 0.68168 0.86915 1.14560
 N58 N 0.67412 0.84259 1.12774
 C59 C 0.64916 0.82422 1.13541
 N60 N 0.63180 0.83241 1.16144
 C61 C 1.15761 1.35782 1.18697
 N62 N 1.18331 1.37330 1.17711
 C63 C 1.19512 1.36788 1.14788
 N64 N 1.18216 1.34447 1.12858
 C65 C 1.15713 1.32708 1.13888
 N66 N 1.14427 1.33466 1.16787
 C67 C 1.15495 0.84972 0.67797
 N68 N 1.14316 0.82025 0.66916
 C69 C 1.15693 0.80289 0.64509
 N70 N 1.18200 0.81478 0.63009
 C71 C 1.19335 0.84413 0.63755
 N72 N 1.17987 0.86171 0.66166
 C73 C 0.36648 0.63836 0.67350
 N74 N 0.37275 0.66387 0.65485
 C75 C 0.35446 0.67095 0.62888
 N76 N 0.32898 0.65230 0.62202
 C77 C 0.32215 0.62644 0.64089
 N78 N 0.34106 0.61974 0.66659
 C79 C 0.36229 0.15168 1.18366
 N80 N 0.33654 0.13391 1.17511
 C81 C 0.31856 0.14198 1.14897
 N82 N 0.32665 0.16823 1.13137
 C83 C 0.35229 0.18598 1.13974
 N84 N 0.36979 0.17751 1.16588
 C85 C 0.87562 0.64020 1.16852
 N86 N 0.85034 0.62193 1.15999
 C87 C 0.83230 0.62987 1.13399
 N88 N 0.83951 0.65645 1.11673
 C89 C 0.86465 0.67466 1.12506
 N90 N 0.88241 0.66659 1.15118
 C91 C 0.86079 0.15305 0.68361
 N92 N 0.83657 0.13834 0.66741
 C93 C 0.82424 0.15218 0.64018
 N94 N 0.83694 0.17993 0.62918
 C95 C 0.86079 0.19439 0.64563
 N96 N 0.87204 0.18117 0.67284
 C97 C 1.36635 0.35651 0.67711
 N98 N 1.34067 0.37334 0.66666
 C99 C 1.32461 0.36385 0.63997
 N100 N 1.33421 0.33720 0.62358
 C101 C 1.35980 0.32013 0.63359
 N102 N 1.37584 0.32990 0.66046
 C103 C 1.35258 0.86736 1.18213
 N104 N 1.32495 0.87936 1.17121
 C105 C 1.31207 0.86865 1.14349
 N106 N 1.32655 0.84467 1.12676
 C107 C 1.35412 0.83158 1.13780
 N108 N 1.36739 0.84329 1.16557
 C109 C 0.86516 0.38344 1.16050
 N110 N 0.87648 0.35415 1.15024
 C111 C 0.86572 0.34119 1.12196
 N112 N 0.84294 0.35708 1.10495
 C113 C 0.83176 0.38610 1.11526
 N114 N 0.84328 0.39922 1.14262
 C115 C 0.87219 0.86028 0.67365
 N116 N 0.84617 0.87684 0.66383
 C117 C 0.82970 0.86725 0.63749
 N118 N 0.83925 0.84063 0.62088
 C119 C 0.86532 0.82394 0.63041
 N120 N 0.88165 0.83381 0.65696
 C121 C 0.64923 0.63166 0.67695
 N122 N 0.63480 0.65700 0.66142
 C123 C 0.64670 0.66773 0.63304
 N124 N 0.67237 0.65296 0.62067
 C125 C 0.68666 0.62825 0.63633
 N126 N 0.67524 0.61804 0.66439
 C127 C 0.65137 1.14045 1.18714
 N128 N 0.67768 1.12671 1.17502
 C129 C 0.69028 1.13743 1.14768
 N130 N 0.67669 1.16252 1.13215
 C131 C 0.65058 1.17721 1.14358
 N132 N 0.63755 1.16615 1.17142
 C133 C 0.15383 0.63495 1.18508
 N134 N 0.13814 0.66007 1.17040
 C135 C 0.15209 0.67612 1.14580
 N136 N 0.18102 0.66637 1.13601
 C137 C 0.19633 0.64165 1.15075
 N138 N 0.18283 0.62652 1.17529
 C139 C 0.13191 1.13766 0.67616
 N140 N 0.15876 1.12145 0.66856
 C141 C 0.17686 1.13168 0.64419
 N142 N 0.16797 1.15854 0.62748
 C143 C 0.14117 1.17490 0.63491
 N144 N 0.12336 1.16424 0.65934
 C145 C 1.34719 0.64389 0.32346
 N146 N 1.35934 0.67273 0.33359
 C147 C 1.34537 0.68955 0.35783
 N148 N 1.31951 0.67769 0.37166
 C149 C 1.30763 0.64894 0.36254
 N150 N 1.32145 0.63199 0.33835
 C151 C 1.34792 1.13050 0.82274
 N152 N 1.32105 1.12300 0.83836
 C153 C 1.31114 1.14162 0.86357
 N154 N 1.32824 1.16784 0.87266
 C155 C 1.35508 1.17539 0.85714
 N156 N 1.36459 1.15661 0.83252
 C157 C 0.84724 0.63132 0.81653
 N158 N 0.86444 0.65754 0.82506
 C159 C 0.85608 0.67642 0.85014
 N160 N 0.82996 0.66906 0.86694
 C161 C 0.81244 0.64292 0.85868
 N162 N 0.82116 0.62417 0.83328
 C163 C 0.86994 1.13894 0.32824
 N164 N 0.84328 1.12214 0.33506
 C165 C 0.82569 1.13061 0.36101
 N166 N 0.83467 1.15608 0.37956
 C167 C 0.86096 1.17264 0.37311
 N168 N 0.87846 1.16386 0.34751
 C169 C 0.63305 0.35449 0.31763
 N170 N 0.65879 0.36760 0.33246
 C171 C 0.66921 0.35562 0.36123
 N172 N 0.65347 0.33098 0.37502
 C173 C 0.62790 0.31795 0.36000
 N174 N 0.61824 0.32967 0.33142
 C175 C 0.63910 0.87196 0.82598
 N176 N 0.66452 0.87938 0.84457
 C177 C 0.67129 0.86216 0.87158
 N178 N 0.65262 0.83722 0.87954
 C179 C 0.62711 0.82971 0.86096
 N180 N 0.62071 0.84689 0.83420
 C181 C 0.15222 0.35591 0.82510
 N182 N 0.13884 0.32819 0.83607
 C183 C 0.15297 0.31170 0.86087
 N184 N 0.18001 0.32281 0.87400
 C185 C 0.19275 0.35048 0.86408
 N186 N 0.17887 0.36710 0.83966
 C187 C 0.14836 0.86552 0.32037
 N188 N 0.13098 0.83935 0.32831
 C189 C 0.13939 0.82069 0.35375
 N190 N 0.16558 0.82830 0.37135
 C191 C 0.18295 0.85440 0.36373
 N192 N 0.17422 0.87277 0.33818
 O193 O 0.96610 0.88520 0.84040
 O194 O 0.96232 0.84756 0.80288
 C195 C 0.95354 0.87458 0.81478
 C196 C 0.92761 0.89324 0.79954
 C197 C 0.91724 0.88552 0.76839
 H198 H 0.92973 0.86695 0.75541
 O199 O 1.02786 1.10787 0.83436
 O200 O 1.02801 1.14349 0.79536
 C201 C 1.03845 1.11755 0.80782
 C202 C 1.06389 1.09873 0.79220
 C203 C 1.07691 1.10855 0.76303
 H204 H 1.06704 1.12950 0.75119
 O205 O 0.83693 0.97269 0.89110
 O206 O 0.79893 0.97401 0.85450
 C207 C 0.81054 0.96294 0.88034
 C208 C 0.79360 0.93752 0.89711
 C209 C 0.76316 0.92942 0.88727
 H210 H 0.75156 0.94342 0.86858
 O211 O 1.14828 1.02270 0.88522
 O212 O 1.18684 1.02023 0.85068
 C213 C 1.17433 1.03325 0.87512
 C214 C 1.19032 1.06143 0.89085
 C215 C 1.21904 1.07180 0.87863
 H216 H 1.22952 1.05851 0.85897
 O217 O 0.88338 0.84289 0.96734
 O218 O 0.84693 0.80546 0.96850
 C219 C 0.87184 0.81671 0.95677
 C220 C 0.88671 0.79926 0.93001
 C221 C 0.87422 0.76980 0.91980
 H222 H 0.85476 0.75960 0.93262
 O223 O 1.10903 1.16144 0.96838
 O224 O 1.14571 1.19844 0.96611
 C225 C 1.12000 1.18666 0.95563
 C226 C 1.10366 1.20124 0.92717
 C227 C 1.11427 1.23021 0.91375
 H228 H 1.13267 1.24320 0.92628
 O229 O 0.88042 1.03157 0.84444
 O230 O 0.84194 1.03211 0.80827
 C231 C 0.86852 1.04174 0.81819
 C232 C 0.88530 1.06546 0.79915
 C233 C 0.87264 1.07559 0.76964
 H234 H 0.85097 1.06521 0.76046
 O235 O 1.10999 0.95639 0.83843
 O236 O 1.14889 0.95475 0.80422
 C237 C 1.12277 0.94414 0.81354
 C238 C 1.10717 0.91685 0.79603
 C239 C 1.12006 0.90241 0.76819
 H240 H 1.14168 0.91181 0.75896
 O241 O 1.02359 0.83624 0.88407
 O242 O 1.02054 0.79764 0.84745
 C243 C 1.03174 0.80861 0.87386
 C244 C 1.05468 0.78952 0.89299
 C245 C 1.06402 0.75856 0.88311
 H246 H 1.05390 0.74815 0.86140
 O247 O 0.96928 1.15599 0.87788
 O248 O 0.96890 1.19187 0.83906
 C249 C 0.95925 1.18241 0.86609
 C250 C 0.93604 1.20211 0.88401
 C251 C 0.92459 1.23141 0.87156
 H252 H 0.93312 1.23994 0.84882
 O253 O 0.85222 1.12772 0.96990
 O254 O 0.81684 1.16699 0.96971
 C255 C 0.82655 1.13984 0.95921
 C256 C 0.80778 1.12215 0.93443
 C257 C 0.77772 1.13332 0.92503
 H258 H 0.76818 1.15497 0.93607
 O259 O 1.14220 0.87103 0.97368
 O260 O 1.17872 0.83287 0.97359
 C261 C 1.16763 0.85927 0.96275
 C262 C 1.18465 0.87667 0.93750
 C263 C 1.21466 0.86611 0.92801
 H264 H 1.22526 0.84489 0.93891
 O265 O 0.96648 1.10984 0.83547
 O266 O 0.96623 1.14544 0.79643
 C267 C 0.95511 1.12034 0.80916
 C268 C 0.92783 1.10378 0.79423
 C269 C 0.91506 1.11359 0.76449
 H270 H 0.92718 1.13185 0.75124
 O271 O 1.02712 0.87571 0.83647
 O272 O 1.02407 0.83800 0.79904
 C273 C 1.03713 0.86304 0.81055
 C274 C 1.06486 0.87722 0.79457
 C275 C 1.07794 0.86313 0.76686
 H276 H 1.06687 0.84213 0.75614
 O277 O 1.14603 0.95893 0.88969
 O278 O 1.18472 0.95710 0.85522
 C279 C 1.17201 0.94714 0.88068
 C280 C 1.18719 0.92061 0.89891
 C281 C 1.21747 0.91042 0.89078
 H282 H 1.23018 0.92449 0.87370
 O283 O 0.84142 1.03597 0.89131
 O284 O 0.80325 1.03699 0.85488
 C285 C 0.81619 1.04845 0.88020
 C286 C 0.80235 1.07717 0.89638
 C287 C 0.77229 1.08868 0.88744
 H288 H 0.75886 1.07522 0.86977
 O289 O 0.89728 1.16917 0.97018
 O290 O 0.86199 1.20848 0.96953
 C291 C 0.88651 1.19519 0.95829
 C292 C 0.90145 1.20897 0.92982
 C293 C 0.89042 1.23828 0.91707
 H294 H 0.87300 1.25207 0.93002
 O295 O 1.09752 0.82882 0.97610
 O296 O 1.13411 0.79077 0.97590
 C297 C 1.10833 0.80242 0.96512
 C298 C 1.09159 0.78615 0.93835
 C299 C 1.10061 0.75513 0.92825
 H300 H 1.11820 0.74208 0.94210
 O301 O 1.10591 1.01947 0.83976
 O302 O 1.14450 1.01764 0.80513
 C303 C 1.11829 1.02920 0.81419
 C304 C 1.10274 1.05510 0.79552
 C305 C 1.11526 1.06498 0.76643
 H306 H 1.13548 1.05228 0.75690
 O307 O 0.88045 0.96945 0.84821
 O308 O 0.84266 0.97039 0.81135
 C309 C 0.86866 0.95899 0.82203
 C310 C 0.88554 0.93364 0.80359
 C311 C 0.87546 0.92544 0.77241
 H312 H 0.85521 0.93770 0.76192
 O313 O 1.02978 1.15280 0.87786
 O314 O 1.02965 1.18875 0.83910
 C315 C 1.04039 1.17842 0.86581
 C316 C 1.06551 1.19642 0.88283
 C317 C 1.07665 1.22513 0.86978
 H318 H 1.06656 1.23415 0.84750
 O319 O 0.96280 0.83737 0.88001
 O320 O 0.95953 0.79963 0.84254
 C321 C 0.95015 0.81182 0.86875
 C322 C 0.92412 0.79666 0.88635
 C323 C 0.91083 0.76710 0.87605
 H324 H 0.92008 0.75510 0.85509
 O325 O 1.15150 1.11583 0.96838
 O326 O 1.18841 1.15255 0.96563
 C327 C 1.17660 1.12597 0.95585
 C328 C 1.19173 1.10688 0.92932
 C329 C 1.22054 1.11680 0.91610
 H330 H 1.23184 1.13808 0.92574
 O331 O 0.83803 0.88494 0.96911
 O332 O 0.80143 0.84764 0.96971
 C333 C 0.81180 0.87406 0.95909
 C334 C 0.79400 0.89277 0.93461
 C335 C 0.76343 0.88433 0.92404
 H336 H 0.75223 0.86363 0.93436
 Cu337 Cu 0.99519 0.86238 0.86371
 Cu338 Cu 0.99151 0.81717 0.81906
 Cu339 Cu 0.99829 1.12780 0.86005
 Cu340 Cu 0.99820 1.17091 0.81346
 Cu341 Cu 0.86349 1.00235 0.87268
 Cu342 Cu 0.81768 1.00324 0.82884
 Cu343 Cu 1.12375 0.98939 0.86663
 Cu344 Cu 1.17021 0.98739 0.82563
 C345 C 0.91185 0.91758 0.81689
 H346 H 0.91957 0.92344 0.84112
 C347 C 0.89106 0.90148 0.75459
 C348 C 1.07682 1.07175 0.80797
 H349 H 1.06744 1.06439 0.83074
 C350 C 1.10285 1.09171 0.75000
 C351 C 0.80863 0.91952 0.92102
 H352 H 0.83236 0.92580 0.92828
 C353 C 0.74785 0.90285 0.90013
 C354 C 1.17690 1.07904 0.91639
 H355 H 1.15462 1.07141 0.92578
 C356 C 1.23439 1.09930 0.89057
 C357 C 0.91184 0.81243 0.91345
 H358 H 0.92135 0.83540 0.92126
 C359 C 0.88565 0.75357 0.89290
 C360 C 1.07902 1.18469 0.91155
 H361 H 1.07088 1.16215 0.92129
 C362 C 1.10122 1.24205 0.88456
 C363 C 0.91290 1.07940 0.81116
 H364 H 0.92221 1.07195 0.83433
 C365 C 0.88683 1.10000 0.75238
 C366 C 1.07952 0.90417 0.80850
 H367 H 1.06973 0.91489 0.82994
 C368 C 1.10549 0.87542 0.75313
 C369 C 1.06837 0.80297 0.92083
 H370 H 1.06177 0.82718 0.92826
 C371 C 1.08726 0.74138 0.90030
 C372 C 0.92445 1.19120 0.91331
 H373 H 0.93264 1.16829 0.92279
 C374 C 0.90151 1.24944 0.88768
 C375 C 0.81978 1.09395 0.92002
 H376 H 0.84304 1.08534 0.92685
 C377 C 0.75971 1.11690 0.90156
 C378 C 1.17100 0.90390 0.92262
 H379 H 1.14755 0.91170 0.92901
 C380 C 1.23109 0.88258 0.90434
 O381 O 1.02921 0.89202 1.15953
 O382 O 1.02725 0.85712 1.19905
 C383 C 1.03944 0.88182 1.18626
 C384 C 1.06666 0.89747 1.20225
 C385 C 1.07742 0.88534 1.23154
 H386 H 1.06440 0.86629 1.24285
 O387 O 0.97532 1.11785 1.16650
 O388 O 0.97486 1.15448 1.20501
 C389 C 0.96360 1.12887 1.19226
 C390 C 0.93591 1.11189 1.20618
 C391 C 0.92368 1.11978 1.23685
 H392 H 0.93501 1.13821 1.25129
 O393 O 0.84447 1.03720 1.10784
 O394 O 0.80699 1.03961 1.14372
 C395 C 0.81913 1.04952 1.11807
 C396 C 0.80432 1.07673 1.10099
 C397 C 0.77433 1.08748 1.10946
 H398 H 0.76111 1.07335 1.12611
 O399 O 1.15607 0.97127 1.11228
 O400 O 1.19544 0.96842 1.14723
 C401 C 1.18172 0.95841 1.12174
 C402 C 1.19514 0.93068 1.10373
 C403 C 1.22604 0.92027 1.11023
 H404 H 1.24060 0.93423 1.12660
 O405 O 1.10279 0.82894 1.03911
 O406 O 1.13922 0.79079 1.03910
 C407 C 1.11453 0.80312 1.05085
 C408 C 1.09974 0.78837 1.07923
 C409 C 1.11097 0.75922 1.09260
 H410 H 1.12940 0.74637 1.08027
 O411 O 0.89726 1.17014 1.03399
 O412 O 0.86213 1.20955 1.03332
 C413 C 0.88687 1.19670 1.04532
 C414 C 0.90308 1.21230 1.07338
 C415 C 0.89288 1.24263 1.08484
 H416 H 0.87348 1.25430 1.07246
 O417 O 0.88480 0.97425 1.15438
 O418 O 0.84742 0.97735 1.19035
 C419 C 0.87298 0.96513 1.18047
 C420 C 0.88855 0.93961 1.19941
 C421 C 0.87582 0.93052 1.22860
 H422 H 0.85532 0.94323 1.23752
 O423 O 1.11949 1.03508 1.16118
 O424 O 1.15816 1.03162 1.19688
 C425 C 1.13235 1.04426 1.18734
 C426 C 1.11735 1.07025 1.20650
 C427 C 1.13042 1.07992 1.23608
 H428 H 1.15122 1.06762 1.24535
 O429 O 0.96792 0.84727 1.11675
 O430 O 0.96614 0.81171 1.15582
 C431 C 0.95681 0.82177 1.12840
 C432 C 0.93292 0.80350 1.11003
 C433 C 0.92615 0.77186 1.11865
 H434 H 0.93887 0.76087 1.13858
 O435 O 1.03754 1.16071 1.12360
 O436 O 1.03821 1.19805 1.16149
 C437 C 1.04853 1.18686 1.13497
 C438 C 1.07374 1.20407 1.11727
 C439 C 1.08615 1.23310 1.12931
 H440 H 1.07684 1.24315 1.15131
 O441 O 0.84201 0.88712 1.03063
 O442 O 0.80589 0.84929 1.03142
 C443 C 0.81675 0.87594 1.04160
 C444 C 0.79980 0.89385 1.06659
 C445 C 0.77041 0.88334 1.07630
 H446 H 0.76000 0.86240 1.06472
 O447 O 1.15477 1.11812 1.03128
 O448 O 1.19163 1.15494 1.02864
 C449 C 1.18100 1.12933 1.04093
 C450 C 1.19889 1.11322 1.06744
 C451 C 1.22739 1.12615 1.07857
 H452 H 1.23670 1.14712 1.06674
 O453 O 1.03777 1.11881 1.16965
 O454 O 1.03813 1.15530 1.20828
 C455 C 1.04923 1.12950 1.19606
 C456 C 1.07650 1.11198 1.21145
 C457 C 1.09010 1.12153 1.24126
 H458 H 1.08000 1.14193 1.25384
 O459 O 0.96689 0.88881 1.16451
 O460 O 0.96478 0.85309 1.20329
 C461 C 0.95483 0.87892 1.19044
 C462 C 0.92834 0.89726 1.20483
 C463 C 0.91490 0.88800 1.23412
 H464 H 0.92484 0.86758 1.24679
 O465 O 1.16074 1.03471 1.11614
 O466 O 1.19974 1.03228 1.15145
 C467 C 1.18717 1.04490 1.12656
 C468 C 1.20242 1.07232 1.10970
 C469 C 1.23109 1.08604 1.12073
 H470 H 1.24299 1.07579 1.14143
 O471 O 0.84016 0.97413 1.11153
 O472 O 0.80291 0.97706 1.14759
 C473 C 0.81418 0.96434 1.12253
 C474 C 0.79786 0.93711 1.10637
 C475 C 0.76833 0.92590 1.11645
 H476 H 0.75638 0.93823 1.13576
 O477 O 1.11267 1.16391 1.03259
 O478 O 1.14937 1.20085 1.03047
 C479 C 1.12482 1.18986 1.04348
 C480 C 1.11078 1.20626 1.07241
 C481 C 1.12296 1.23549 1.08533
 H482 H 1.14222 1.24696 1.07344
 O483 O 0.88484 0.84261 1.03002
 O484 O 0.84909 0.80444 1.03113
 C485 C 0.87478 0.81641 1.04141
 C486 C 0.89295 0.80042 1.06744
 C487 C 0.88632 0.76863 1.07654
 H488 H 0.86851 0.75534 1.06338
 O489 O 1.11747 0.97241 1.15974
 O490 O 1.15637 0.96854 1.19510
 C491 C 1.12941 0.95968 1.18487
 C492 C 1.11156 0.93412 1.20171
 C493 C 1.12247 0.92069 1.23103
 H494 H 1.14424 0.92917 1.24166
 O495 O 0.88710 1.03662 1.15337
 O496 O 0.84939 1.03925 1.18894
 C497 C 0.87598 1.04831 1.17909
 C498 C 0.89364 1.07244 1.19852
 C499 C 0.88263 1.08016 1.22896
 H500 H 0.86214 1.06786 1.23771
 O501 O 0.97647 1.16442 1.12473
 O502 O 0.97654 1.20144 1.16295
 C503 C 0.96608 1.19098 1.13610
 C504 C 0.94134 1.20944 1.11798
 C505 C 0.93089 1.23999 1.12880
 H506 H 0.94142 1.25054 1.15022
 O507 O 1.02780 0.83946 1.12539
 O508 O 1.02577 0.80403 1.16451
 C509 C 1.03724 0.81313 1.13827
 C510 C 1.06210 0.79355 1.12253
 C511 C 1.07372 0.76452 1.13589
 H512 H 1.06394 0.75574 1.15798
 O513 O 1.14246 0.87584 1.03535
 O514 O 1.17936 0.83807 1.03507
 C515 C 1.16904 0.86531 1.04482
 C516 C 1.18849 0.88482 1.06707
 C517 C 1.21936 0.87484 1.07403
 H518 H 1.22879 0.85308 1.06306
 O519 O 0.85260 1.12795 1.03145
 O520 O 0.81719 1.16720 1.03121
 C521 C 0.82700 1.14005 1.04134
 C522 C 0.80862 1.12212 1.06475
 C523 C 0.77887 1.13322 1.07414
 H524 H 0.76919 1.15536 1.06421
 Cu525 Cu 0.99787 0.87055 1.13815
 Cu526 Cu 0.99593 0.82866 1.18482
 Cu527 Cu 1.00664 1.13663 1.14275
 Cu528 Cu 1.00705 1.18078 1.18831
 Cu529 Cu 0.86581 0.86812 0.99910
 Cu530 Cu 0.82235 0.82263 1.00036
 Cu531 Cu 1.11727 0.85463 1.00603
 Cu532 Cu 1.16134 0.80912 1.00609
 Cu533 Cu 0.87872 1.14511 1.00152
 Cu534 Cu 0.83638 1.19242 1.00100
 Cu535 Cu 1.12818 1.13650 1.00038
 Cu536 Cu 1.17222 1.18044 0.99742
 Cu537 Cu 0.86765 1.00522 1.12778
 Cu538 Cu 0.82291 1.00882 1.17126
 Cu539 Cu 1.13476 1.00372 1.13373
 Cu540 Cu 1.18146 0.99984 1.17603
 C541 C 1.08355 0.92216 1.18759
 H542 H 1.07530 0.93142 1.16469
 C543 C 1.10527 0.89605 1.24599
 C544 C 0.92050 1.08796 1.18740
 H545 H 0.92892 1.08191 1.16371
 C546 C 0.89684 1.10356 1.24839
 C547 C 0.82116 1.09384 1.07831
 H548 H 0.84450 1.08564 1.07193
 C549 C 0.76179 1.11628 1.09688
 C550 C 1.17652 0.91294 1.08180
 H551 H 1.15247 0.92044 1.07694
 C552 C 1.23803 0.89196 1.09589
 C553 C 1.07519 0.80494 1.09426
 H554 H 1.06666 0.82748 1.08421
 C555 C 1.09842 0.74710 1.12140
 C556 C 0.92749 1.19611 1.09000
 H557 H 0.93514 1.17254 1.08162
 C558 C 0.90687 1.25710 1.11233
 C559 C 0.91501 0.92328 1.18788
 H560 H 0.92463 0.93023 1.16508
 C561 C 0.88841 0.90479 1.24618
 C562 C 1.09032 1.08608 1.19469
 H563 H 1.08047 1.07869 1.17169
 C564 C 1.11706 1.10516 1.25403
 C565 C 0.91651 0.81756 1.08417
 H566 H 0.92151 0.84222 1.07763
 C567 C 0.90297 0.75423 1.10225
 C568 C 1.08608 1.19111 1.08867
 H569 H 1.07684 1.16856 1.07940
 C570 C 1.11067 1.24921 1.11389
 C571 C 0.81316 0.92090 1.08135
 H572 H 0.83604 0.92884 1.07381
 C573 C 0.75446 0.89883 1.10120
 C574 C 1.18681 1.08619 1.08295
 H575 H 1.16463 1.07638 1.07455
 C576 C 1.24377 1.11321 1.10514
 O577 O 0.96633 0.38583 0.33634
 O578 O 0.96566 0.34680 0.29999
 C579 C 0.95577 0.37390 0.31030
 C580 C 0.93119 0.39122 0.29211
 C581 C 0.92291 0.38088 0.26125
 H582 H 0.93566 0.36095 0.25036
 O583 O 1.03144 0.61410 0.33936
 O584 O 1.03216 0.65131 0.30184
 C585 C 1.04206 0.62470 0.31329
 C586 C 1.06673 0.60667 0.29622
 C587 C 1.07708 0.61832 0.26693
 H588 H 1.06593 0.63953 0.25652
 O589 O 0.83714 0.47016 0.37413
 O590 O 0.80152 0.47367 0.33529
 C591 C 0.81126 0.46124 0.36132
 C592 C 0.79324 0.43533 0.37665
 C593 C 0.76417 0.42470 0.36424
 H594 H 0.75377 0.43658 0.34351
 O595 O 1.15313 0.52283 0.38270
 O596 O 1.19007 0.52170 0.34626
 C597 C 1.17897 0.53302 0.37218
 C598 C 1.19579 0.55912 0.38947
 C599 C 1.22452 0.56996 0.37799
 H600 H 1.23492 0.55818 0.35737
 O601 O 0.87783 0.34532 0.45875
 O602 O 0.84274 0.30644 0.45885
 C603 C 0.86826 0.31795 0.44900
 C604 C 0.88715 0.29978 0.42575
 C605 C 0.88126 0.26708 0.41877
 H606 H 0.86270 0.25496 0.43113
 O607 O 1.11328 0.65340 0.46940
 O608 O 1.15052 0.68998 0.47197
 C609 C 1.12500 0.67968 0.45976
 C610 C 1.10978 0.69795 0.43320
 C611 C 1.12264 0.72711 0.42311
 H612 H 1.14272 0.73694 0.43606
 O613 O 0.88695 0.53054 0.33645
 O614 O 0.85128 0.53379 0.29756
 C615 C 0.87724 0.54256 0.31017
 C616 C 0.89577 0.56719 0.29378
 C617 C 0.88842 0.57421 0.26186
 H618 H 0.87020 0.56063 0.24942
 O619 O 1.10958 0.46224 0.33591
 O620 O 1.14650 0.46073 0.29946
 C621 C 1.12069 0.45059 0.31019
 C622 C 1.10417 0.42374 0.29383
 C623 C 1.11599 0.40949 0.26584
 H624 H 1.13555 0.42087 0.25443
 O625 O 1.02400 0.34021 0.38364
 O626 O 1.02277 0.30083 0.34764
 C627 C 1.03264 0.31241 0.37418
 C628 C 1.05433 0.29329 0.39422
 C629 C 1.05914 0.26048 0.38758
 H630 H 1.04628 0.24912 0.36793
 O631 O 0.97260 0.66278 0.38138
 O632 O 0.97333 0.69986 0.34373
 C633 C 0.96293 0.68950 0.37001
 C634 C 0.93890 0.70820 0.38739
 C635 C 0.92866 0.73856 0.37664
 H636 H 0.93923 0.74900 0.35569
 O637 O 0.85348 0.62123 0.46133
 O638 O 0.81741 0.65981 0.46262
 C639 C 0.82785 0.63337 0.45094
 C640 C 0.80970 0.61641 0.42540
 C641 C 0.77905 0.62658 0.41770
 H642 H 0.76891 0.64695 0.43045
 O643 O 1.14993 0.37604 0.46775
 O644 O 1.18418 0.33576 0.46701
 C645 C 1.17421 0.36264 0.45611
 C646 C 1.19091 0.37838 0.42955
 C647 C 1.22026 0.36645 0.41969
 H648 H 1.23096 0.34607 0.43199
 O649 O 0.97055 0.61718 0.33823
 O650 O 0.97115 0.65380 0.30013
 C651 C 0.96019 0.62790 0.31158
 C652 C 0.93521 0.60972 0.29409
 C653 C 0.92680 0.61699 0.26201
 H654 H 0.93884 0.63606 0.24977
 O655 O 1.02719 0.38092 0.33702
 O656 O 1.02635 0.34160 0.30100
 C657 C 1.03776 0.36769 0.31178
 C658 C 1.06399 0.38251 0.29519
 C659 C 1.07639 0.36799 0.26762
 H660 H 1.06606 0.34613 0.25785
 O661 O 1.15186 0.45957 0.38108
 O662 O 1.18904 0.45824 0.34494
 C663 C 1.17717 0.44728 0.37046
 C664 C 1.19249 0.41964 0.38778
 C665 C 1.22163 0.40690 0.37798
 H666 H 1.23232 0.41735 0.35725
 O667 O 0.84378 0.53259 0.37886
 O668 O 0.80769 0.53660 0.34046
 C669 C 0.81937 0.54612 0.36721
 C670 C 0.80508 0.57360 0.38488
 C671 C 0.77440 0.58424 0.37747
 H672 H 0.76125 0.57154 0.35906
 O673 O 0.89440 0.66689 0.46527
 O674 O 0.85878 0.70587 0.46647
 C675 C 0.88391 0.69396 0.45545
 C676 C 0.90043 0.71073 0.42981
 C677 C 0.89030 0.74117 0.41895
 H678 H 0.87153 0.75348 0.43133
 O679 O 1.10486 0.33466 0.47134
 O680 O 1.13879 0.29406 0.47090
 C681 C 1.11332 0.30707 0.46111
 C682 C 1.09365 0.29042 0.43698
 C683 C 1.09860 0.25765 0.42992
 H684 H 1.11676 0.24481 0.44310
 O685 O 1.11164 0.52525 0.33653
 O686 O 1.14827 0.52422 0.29980
 C687 C 1.12302 0.53630 0.31084
 C688 C 1.10687 0.56408 0.29461
 C689 C 1.11739 0.57666 0.26525
 H690 H 1.13690 0.56491 0.25354
 O691 O 0.88278 0.46818 0.33372
 O692 O 0.84756 0.47118 0.29445
 C693 C 0.87237 0.45856 0.30661
 C694 C 0.88965 0.43216 0.28991
 C695 C 0.88128 0.42127 0.25879
 H696 H 0.86139 0.43238 0.24663
 O697 O 1.03342 0.65970 0.38188
 O698 O 1.03464 0.69715 0.34465
 C699 C 1.04508 0.68540 0.37090
 C700 C 1.07139 0.70091 0.38900
 C701 C 1.08488 0.73011 0.37895
 H702 H 1.07537 0.74191 0.35786
 O703 O 0.96402 0.34269 0.38034
 O704 O 0.96330 0.30370 0.34385
 C705 C 0.95325 0.31622 0.36957
 C706 C 0.92904 0.29943 0.38713
 C707 C 0.92343 0.26694 0.38062
 H708 H 0.93747 0.25439 0.36289
 O709 O 1.15571 0.60779 0.46837
 O710 O 1.19287 0.64449 0.46956
 C711 C 1.18129 0.61874 0.45769
 C712 C 1.19700 0.60154 0.43070
 C713 C 1.22577 0.61229 0.41849
 H714 H 1.23727 0.63261 0.42990
 O715 O 0.83379 0.38906 0.45531
 O716 O 0.79849 0.35045 0.45507
 C717 C 0.80871 0.37672 0.44395
 C718 C 0.79209 0.39328 0.41715
 C719 C 0.76307 0.38262 0.40456
 H720 H 0.75250 0.36162 0.41495
 Cu721 Cu 0.99561 0.36666 0.36290
 Cu722 Cu 0.99450 0.31938 0.31919
 Cu723 Cu 1.00176 0.63484 0.36407
 Cu724 Cu 1.00283 0.67925 0.31872
 Cu725 Cu 0.86607 0.49972 0.35978
 Cu726 Cu 0.82338 0.50432 0.31307
 Cu727 Cu 1.12785 0.49261 0.36258
 Cu728 Cu 1.17222 0.49116 0.31902
 C729 C 0.91489 0.41702 0.30610
 H730 H 0.92136 0.42467 0.33020
 C731 C 0.89831 0.39563 0.24420
 C732 C 1.08138 0.57940 0.30975
 H733 H 1.07345 0.57069 0.33263
 C734 C 1.10257 0.60426 0.25146
 C735 C 0.80651 0.41980 0.40328
 H736 H 0.82900 0.42783 0.41271
 C737 C 0.74855 0.39856 0.37819
 C738 C 1.18233 0.57482 0.41597
 H739 H 1.15992 0.56669 0.42462
 C740 C 1.23948 0.59669 0.39177
 C741 C 0.91120 0.31567 0.40993
 H742 H 0.91557 0.34100 0.41474
 C743 C 0.89954 0.25055 0.39596
 C744 C 1.08400 0.68528 0.41626
 H745 H 1.07430 0.66256 0.42386
 C746 C 1.11072 0.74343 0.39607
 C747 C 0.91948 0.58464 0.30972
 H748 H 0.92514 0.57917 0.33454
 C749 C 0.90327 0.59905 0.24584
 C750 C 1.07788 0.41031 0.30804
 H751 H 1.06874 0.42097 0.32982
 C752 C 1.10272 0.38086 0.25306
 C753 C 1.07115 0.30797 0.41935
 H754 H 1.06773 0.33348 0.42423
 C755 C 1.08129 0.24242 0.40512
 C756 C 0.92495 0.69474 0.41419
 H757 H 0.93245 0.67104 0.42223
 C758 C 0.90420 0.75519 0.39208
 C759 C 0.82248 0.58971 0.40905
 H760 H 0.84622 0.58177 0.41481
 C761 C 0.76108 0.61068 0.39405
 C762 C 1.17748 0.40523 0.41377
 H763 H 1.15487 0.41448 0.42133
 C764 C 1.23622 0.38068 0.39434
 O765 O 1.02700 0.38569 0.66242
 O766 O 1.02415 0.34643 0.69759
 C767 C 1.03724 0.37194 0.68770
 C768 C 1.06571 0.38480 0.70458
 C769 C 1.07732 0.37056 0.73297
 H770 H 1.06439 0.35110 0.74367
 O771 O 0.97178 0.60343 0.66134
 O772 O 0.97246 0.64063 0.69946
 C773 C 0.96082 0.61526 0.68702
 C774 C 0.93324 0.60045 0.70174
 C775 C 0.92238 0.61196 0.73120
 H776 H 0.93560 0.63036 0.74403
 O777 O 0.84268 0.53156 0.60320
 O778 O 0.80420 0.53429 0.63800
 C779 C 0.81699 0.54378 0.61244
 C780 C 0.80208 0.56982 0.59385
 C781 C 0.77114 0.57903 0.60014
 H782 H 0.75773 0.56467 0.61646
 O783 O 1.15979 0.45812 0.61576
 O784 O 1.19783 0.45686 0.65229
 C785 C 1.18581 0.44682 0.62602
 C786 C 1.20155 0.42124 0.60731
 C787 C 1.23179 0.41011 0.61568
 H788 H 1.24376 0.42131 0.63582
 O789 O 1.10832 0.33684 0.53345
 O790 O 1.14262 0.29659 0.53308
 C791 C 1.11831 0.31012 0.54462
 C792 C 1.10160 0.29489 0.57149
 C793 C 1.11172 0.26488 0.58378
 H794 H 1.13141 0.25272 0.57283
 O795 O 0.89615 0.66084 0.52771
 O796 O 0.86058 0.69987 0.52905
 C797 C 0.88556 0.68667 0.54018
 C798 C 0.90203 0.70088 0.56844
 C799 C 0.89353 0.73165 0.58002
 H800 H 0.87585 0.74533 0.56698
 O801 O 0.88027 0.46780 0.65014
 O802 O 0.84220 0.47082 0.68534
 C803 C 0.86790 0.45850 0.67583
 C804 C 0.88329 0.43290 0.69475
 C805 C 0.86965 0.42250 0.72298
 H806 H 0.84831 0.43418 0.73119
 O807 O 1.11738 0.51972 0.66086
 O808 O 1.15497 0.51880 0.69793
 C809 C 1.12896 0.52993 0.68716
 C810 C 1.11241 0.55552 0.70503
 C811 C 1.12468 0.56640 0.73438
 H812 H 1.14559 0.55494 0.74443
 O813 O 0.96427 0.34900 0.61230
 O814 O 0.96135 0.30953 0.64725
 C815 C 0.95202 0.32283 0.62124
 C816 C 0.92630 0.30775 0.60183
 C817 C 0.91486 0.27749 0.61083
 H818 H 0.92592 0.26491 0.63073
 O819 O 1.03424 0.64542 0.61943
 O820 O 1.03453 0.68266 0.65755
 C821 C 1.04486 0.67148 0.63125
 C822 C 1.06979 0.68899 0.61478
 C823 C 1.07987 0.71863 0.62724
 H824 H 1.06865 0.72910 0.64808
 O825 O 0.83322 0.39129 0.51757
 O826 O 0.79769 0.35284 0.51740
 C827 C 0.80803 0.37951 0.52806
 C828 C 0.79149 0.39617 0.55408
 C829 C 0.76295 0.38430 0.56489
 H830 H 0.75211 0.36402 0.55257
 O831 O 1.15534 0.60481 0.53114
 O832 O 1.19244 0.64157 0.53197
 C833 C 1.18131 0.61533 0.54221
 C834 C 1.19895 0.59799 0.56784
 C835 C 1.22879 0.60896 0.57657
 H836 H 1.23888 0.62854 0.56318
 O837 O 1.03368 0.60319 0.66493
 O838 O 1.03415 0.64027 0.70314
 C839 C 1.04479 0.61413 0.69136
 C840 C 1.07123 0.59680 0.70760
 C841 C 1.08412 0.60774 0.73711
 H842 H 1.07385 0.62867 0.74867
 O843 O 0.96466 0.38717 0.66185
 O844 O 0.96150 0.34814 0.69721
 C845 C 0.95191 0.37509 0.68640
 C846 C 0.92454 0.39205 0.70087
 C847 C 0.91018 0.38135 0.72922
 H848 H 0.92029 0.36090 0.74172
 O849 O 1.16085 0.52086 0.61834
 O850 O 1.19894 0.52027 0.65477
 C851 C 1.18684 0.53181 0.62910
 C852 C 1.20230 0.55846 0.61127
 C853 C 1.23229 0.57077 0.62028
 H854 H 1.24481 0.56059 0.64065
 O855 O 0.83622 0.46957 0.60650
 O856 O 0.79803 0.47231 0.64156
 C857 C 0.80955 0.46045 0.61617
 C858 C 0.79234 0.43531 0.59786
 C859 C 0.76364 0.42316 0.60859
 H860 H 0.75350 0.43377 0.62979
 O861 O 1.11400 0.65112 0.53271
 O862 O 1.15114 0.68781 0.53498
 C863 C 1.12568 0.67638 0.54547
 C864 C 1.10972 0.69168 0.57337
 C865 C 1.12024 0.72101 0.58702
 H866 H 1.13977 0.73344 0.57651
 O867 O 0.87987 0.35157 0.52037
 O868 O 0.84457 0.31292 0.52054
 C869 C 0.86973 0.32547 0.53174
 C870 C 0.88670 0.30919 0.55839
 C871 C 0.87606 0.27896 0.56794
 H872 H 0.85646 0.26769 0.55541
 O873 O 1.11870 0.45730 0.66121
 O874 O 1.15618 0.45561 0.69828
 C875 C 1.12990 0.44560 0.68718
 C876 C 1.11177 0.42011 0.70405
 C877 C 1.12298 0.40546 0.73260
 H878 H 1.14544 0.41289 0.74246
 O879 O 0.88064 0.52998 0.65263
 O880 O 0.84237 0.53318 0.68759
 C881 C 0.86922 0.54175 0.67824
 C882 C 0.88756 0.56560 0.69710
 C883 C 0.87671 0.57768 0.72664
 H884 H 0.85477 0.56898 0.73574
 O885 O 0.97358 0.64930 0.61939
 O886 O 0.97415 0.68636 0.65768
 C887 C 0.96376 0.67604 0.63079
 C888 C 0.93993 0.69534 0.61281
 C889 C 0.93107 0.72608 0.62399
 H890 H 0.94207 0.73575 0.64560
 O891 O 1.02538 0.34239 0.61732
 O892 O 1.02231 0.30321 0.65261
 C893 C 1.03453 0.31504 0.62776
 C894 C 1.06032 0.29725 0.61158
 C895 C 1.07072 0.26730 0.62336
 H896 H 1.05904 0.25682 0.64365
 O897 O 1.15426 0.37698 0.52999
 O898 O 1.18877 0.33690 0.52925
 C899 C 1.17981 0.36418 0.53987
 C900 C 1.19859 0.38087 0.56473
 C901 C 1.22882 0.36997 0.57313
 H902 H 1.23907 0.34977 0.56019
 O903 O 0.84992 0.62071 0.52302
 O904 O 0.81433 0.65979 0.52421
 C905 C 0.82422 0.63235 0.53326
 C906 C 0.80576 0.61383 0.55600
 C907 C 0.77508 0.62364 0.56348
 H908 H 0.76480 0.64494 0.55240
 Cu909 Cu 0.99563 0.37018 0.63529
 Cu910 Cu 0.99189 0.32307 0.67721
 Cu911 Cu 1.00324 0.62131 0.63769
 Cu912 Cu 1.00392 0.66607 0.68344
 Cu913 Cu 0.85956 0.37342 0.48756
 Cu914 Cu 0.81730 0.32672 0.48806
 Cu915 Cu 1.12592 0.36021 0.50068
 Cu916 Cu 1.16706 0.31175 0.49990
 Cu917 Cu 0.87729 0.63871 0.49429
 Cu918 Cu 0.83435 0.68539 0.49562
 Cu919 Cu 1.13073 0.62577 0.50013
 Cu920 Cu 1.17541 0.66963 0.50234
 Cu921 Cu 0.86373 0.49947 0.62456
 Cu922 Cu 0.81781 0.50301 0.66665
 Cu923 Cu 1.13560 0.48897 0.63532
 Cu924 Cu 1.18079 0.48775 0.67956
 C925 C 1.08296 0.40970 0.69067
 H926 H 1.07428 0.42043 0.66859
 C927 C 1.10572 0.38067 0.74748
 C928 C 0.91595 0.57697 0.68505
 H929 H 0.92411 0.56832 0.66202
 C930 C 0.89411 0.60105 0.74383
 C931 C 0.81915 0.58691 0.57132
 H932 H 0.84321 0.57990 0.56648
 C933 C 0.75787 0.60670 0.58600
 C934 C 1.18537 0.40677 0.58157
 H935 H 1.16178 0.41490 0.57539
 C936 C 1.24573 0.38441 0.59851
 C937 C 1.07582 0.31079 0.58552
 H938 H 1.06814 0.33406 0.57649
 C939 C 1.09646 0.25095 0.60994
 C940 C 0.92543 0.68301 0.58487
 H941 H 0.93186 0.65913 0.57632
 C942 C 0.90786 0.74442 0.60800
 C943 C 0.91089 0.41805 0.68416
 H944 H 0.92119 0.42612 0.66206
 C945 C 0.88254 0.39687 0.74050
 C946 C 1.08543 0.57041 0.69203
 H947 H 1.07618 0.56220 0.66905
 C948 C 1.11095 0.59237 0.75067
 C949 C 0.91206 0.32357 0.57532
 H950 H 0.92016 0.34717 0.56835
 C951 C 0.88933 0.26343 0.59434
 C952 C 1.08442 0.67587 0.58762
 H953 H 1.07655 0.65289 0.57806
 C954 C 1.10524 0.73444 0.61411
 C955 C 0.80580 0.42190 0.57035
 H956 H 0.82821 0.43066 0.56229
 C957 C 0.74894 0.39718 0.59231
 C958 C 1.18599 0.57249 0.58493
 H959 H 1.16275 0.56417 0.57815
 C960 C 1.24563 0.59631 0.60270
 O961 O 0.47747 0.88895 0.33878
 O962 O 0.47775 0.85244 0.29995
 C963 C 0.46747 0.87865 0.31181
 C964 C 0.44246 0.89626 0.29467
 C965 C 0.43293 0.88584 0.26407
 H966 H 0.44550 0.86640 0.25216
 O967 O 0.52843 1.12541 0.34791
 O968 O 0.52883 1.16396 0.31181
 C969 C 0.53992 1.13758 0.32276
 C970 C 0.56691 1.12153 0.30652
 C971 C 0.57809 1.13404 0.27762
 H972 H 0.56632 1.15472 0.26691
 O973 O 0.34747 0.96836 0.38448
 O974 O 0.31171 0.96852 0.34558
 C975 C 0.32215 0.95765 0.37211
 C976 C 0.30466 0.93211 0.38843
 C977 C 0.27498 0.92287 0.37687
 H978 H 0.26466 0.93512 0.35631
 O979 O 0.66057 1.03681 0.39032
 O980 O 0.69703 1.03669 0.35343
 C981 C 0.68650 1.04713 0.37982
 C982 C 0.70388 1.07229 0.39805
 C983 C 0.73324 1.08340 0.38777
 H984 H 0.74377 1.07237 0.36694
 O985 O 0.38874 0.84225 0.46655
 O986 O 0.35251 0.80463 0.46344
 C987 C 0.37799 0.81681 0.45346
 C988 C 0.39482 0.80188 0.42578
 C989 C 0.38399 0.77296 0.41184
 H990 H 0.36450 0.76078 0.42265
 O991 O 0.61629 1.15627 0.48095
 O992 O 0.65132 1.19513 0.48181
 C993 C 0.62580 1.18319 0.47081
 C994 C 0.60757 1.20094 0.44572
 C995 C 0.61828 1.23113 0.43599
 H996 H 0.63916 1.24128 0.44719
 O997 O 0.39095 1.03243 0.34437
 O998 O 0.35501 1.03182 0.30563
 C999 C 0.37995 1.04338 0.31813
 C1000 C 0.39515 1.07063 0.30213
 C1001 C 0.38267 1.08131 0.27297
 H1002 H 0.36355 1.06804 0.26172
 O1003 O 0.61470 0.97702 0.34393
 O1004 O 0.65115 0.97778 0.30700
 C1005 C 0.62584 0.96647 0.31773
 C1006 C 0.61050 0.93956 0.30026
 C1007 C 0.62233 0.92934 0.27077
 H1008 H 0.64114 0.94282 0.26009
 O1009 O 0.53469 0.83995 0.38326
 O1010 O 0.53421 0.80324 0.34463
 C1011 C 0.54388 0.81304 0.37184
 C1012 C 0.56633 0.79323 0.39032
 C1013 C 0.57333 0.76152 0.38090
 H1014 H 0.56141 0.75114 0.36013
 O1015 O 0.46440 1.17013 0.38846
 O1016 O 0.46536 1.20892 0.35277
 C1017 C 0.45346 1.19671 0.37750
 C1018 C 0.42597 1.21240 0.39339
 C1019 C 0.41162 1.24121 0.38184
 H1020 H 0.42162 1.25290 0.36138
 O1021 O 0.34154 1.11687 0.46708
 O1022 O 0.30438 1.15420 0.46837
 C1023 C 0.31571 1.12831 0.45625
 C1024 C 0.29969 1.11115 0.42887
 C1025 C 0.27011 1.12097 0.41616
 H1026 H 0.25844 1.14169 0.42666
 O1027 O 0.65159 0.87939 0.46889
 O1028 O 0.68835 0.84162 0.46707
 C1029 C 0.67680 0.86837 0.45701
 C1030 C 0.69317 0.88673 0.43146
 C1031 C 0.72244 0.87569 0.42074
 H1032 H 0.73274 0.85411 0.43123
 O1033 O 0.46812 1.12191 0.34614
 O1034 O 0.46665 1.16116 0.31076
 C1035 C 0.45691 1.13391 0.32041
 C1036 C 0.43174 1.11585 0.30266
 C1037 C 0.41802 1.12688 0.27344
 H1038 H 0.42632 1.14895 0.26298
 O1039 O 0.53839 0.88644 0.34147
 O1040 O 0.53850 0.84988 0.30276
 C1041 C 0.54924 0.87574 0.31518
 C1042 C 0.57447 0.89397 0.29920
 C1043 C 0.58712 0.88369 0.26963
 H1044 H 0.57831 0.86197 0.25831
 O1045 O 0.65620 0.97339 0.38950
 O1046 O 0.69279 0.97312 0.35272
 C1047 C 0.68108 0.96107 0.37792
 C1048 C 0.69591 0.93190 0.39338
 C1049 C 0.72534 0.91996 0.38312
 H1050 H 0.73760 0.93280 0.36474
 O1051 O 0.34518 1.03154 0.38408
 O1052 O 0.30937 1.03100 0.34520
 C1053 C 0.31967 1.04226 0.37171
 C1054 C 0.30212 1.06862 0.38779
 C1055 C 0.27280 1.07865 0.37558
 H1056 H 0.26254 1.06622 0.35502
 O1057 O 0.38217 1.16349 0.46907
 O1058 O 0.34515 1.20093 0.47173
 C1059 C 0.37038 1.19029 0.45975
 C1060 C 0.38549 1.20878 0.43402
 C1061 C 0.37167 1.23746 0.42250
 H1062 H 0.35053 1.24671 0.43357
 O1063 O 0.61223 0.83190 0.47066
 O1064 O 0.64858 0.79364 0.46941
 C1065 C 0.62266 0.80535 0.45947
 C1066 C 0.60489 0.78905 0.43364
 C1067 C 0.61198 0.75726 0.42406
 H1068 H 0.62962 0.74376 0.43740
 O1069 O 0.61497 1.04076 0.34746
 O1070 O 0.65134 1.04118 0.31052
 C1071 C 0.62592 1.05269 0.32196
 C1072 C 0.60907 1.08053 0.30599
 C1073 C 0.61976 1.09364 0.27695
 H1074 H 0.64002 1.08248 0.26617
 O1075 O 0.39043 0.96979 0.34024
 O1076 O 0.35449 0.96945 0.30151
 C1077 C 0.38037 0.95927 0.31324
 C1078 C 0.39886 0.93465 0.29565
 C1079 C 0.38913 0.92346 0.26514
 H1080 H 0.36845 0.93396 0.25374
 O1081 O 0.52717 1.16312 0.39614
 O1082 O 0.52744 1.20295 0.36138
 C1083 C 0.53829 1.18968 0.38696
 C1084 C 0.56492 1.20458 0.40538
 C1085 C 0.57609 1.23498 0.39652
 H1086 H 0.56348 1.24798 0.37794
 O1087 O 0.47406 0.84552 0.38234
 O1088 O 0.47354 0.80894 0.34360
 C1089 C 0.46251 0.82023 0.36967
 C1090 C 0.43580 0.80381 0.38500
 C1091 C 0.42439 0.77494 0.37164
 H1092 H 0.43542 0.76448 0.35069
 O1093 O 0.66329 1.11599 0.47923
 O1094 O 0.69861 1.15459 0.48023
 C1095 C 0.68821 1.12832 0.46846
 C1096 C 0.70456 1.11220 0.44144
 C1097 C 0.73378 1.12303 0.43094
 H1098 H 0.74505 1.14290 0.44351
 O1099 O 0.34309 0.88358 0.46797
 O1100 O 0.30639 0.84639 0.46546
 C1101 C 0.31766 0.87280 0.45586
 C1102 C 0.30198 0.89074 0.42953
 C1103 C 0.27224 0.88160 0.41756
 H1104 H 0.26005 0.86215 0.42900
 Cu1105 Cu 0.50656 0.86900 0.36534
 Cu1106 Cu 0.50606 0.82490 0.31887
 Cu1107 Cu 0.49604 1.14220 0.37336
 Cu1108 Cu 0.49722 1.18809 0.33076
 Cu1109 Cu 0.37206 1.00022 0.36732
 Cu1110 Cu 0.32909 1.00008 0.32055
 Cu1111 Cu 0.63301 1.00730 0.37144
 Cu1112 Cu 0.67663 1.00731 0.32733
 C1113 C 0.42574 0.92099 0.31011
 H1114 H 0.43293 0.92866 0.33400
 C1115 C 0.40595 0.89856 0.24954
 C1116 C 0.58245 1.09471 0.32036
 H1117 H 0.57412 1.08524 0.34278
 C1118 C 0.60442 1.12064 0.26241
 C1119 C 0.31784 0.91619 0.41497
 H1120 H 0.34097 0.92302 0.42370
 C1121 C 0.25860 0.89763 0.39104
 C1122 C 0.69006 1.08660 0.42502
 H1123 H 0.66730 1.07843 0.43269
 C1124 C 0.74849 1.10884 0.40417
 C1125 C 0.42092 0.81712 0.41215
 H1126 H 0.42933 0.83963 0.42233
 C1127 C 0.39834 0.75964 0.38441
 C1128 C 0.58077 1.18772 0.43032
 H1129 H 0.57278 1.16405 0.43716
 C1130 C 0.60331 1.24806 0.41118
 C1131 C 0.41995 1.08758 0.31661
 H1132 H 0.42934 1.07923 0.33942
 C1133 C 0.39317 1.10937 0.25853
 C1134 C 0.58635 0.92201 0.31415
 H1135 H 0.57742 0.92976 0.33716
 C1136 C 0.61131 0.90145 0.25528
 C1137 C 0.58182 0.80660 0.41690
 H1138 H 0.57677 0.83136 0.42381
 C1139 C 0.59626 0.74336 0.39740
 C1140 C 0.41269 1.19680 0.41962
 H1141 H 0.42310 1.17454 0.42841
 C1142 C 0.38420 1.25409 0.39646
 C1143 C 0.31515 1.08469 0.41449
 H1144 H 0.33797 1.07700 0.42360
 C1145 C 0.25627 1.10435 0.38956
 C1146 C 0.68013 0.91506 0.41774
 H1147 H 0.65746 0.92373 0.42570
 C1148 C 0.73883 0.89184 0.39680
 O1149 O 0.52910 0.88374 0.65503
 O1150 O 0.52958 0.84710 0.69316
 C1151 C 0.54014 0.87298 0.68133
 C1152 C 0.56601 0.88999 0.69820
 C1153 C 0.57368 0.88170 0.72984
 H1154 H 0.55971 0.86392 0.74195
 O1155 O 0.47275 1.11016 0.66608
 O1156 O 0.47344 1.14708 0.70444
 C1157 C 0.46218 1.12144 0.69236
 C1158 C 0.43558 1.10548 0.70820
 C1159 C 0.42384 1.11739 0.73734
 H1160 H 0.43552 1.13743 0.74921
 O1161 O 0.34228 1.03284 0.61732
 O1162 O 0.30546 1.03279 0.65387
 C1163 C 0.31650 1.04390 0.62810
 C1164 C 0.29976 1.07020 0.61047
 C1165 C 0.27020 1.08219 0.62038
 H1166 H 0.25932 1.07168 0.64103
 O1167 O 0.66457 0.96280 0.61284
 O1168 O 0.70044 0.95962 0.65151
 C1169 C 0.68959 0.95037 0.62444
 C1170 C 0.70543 0.92432 0.60635
 C1171 C 0.73605 0.91380 0.61444
 H1172 H 0.74841 0.92582 0.63386
 O1173 O 0.61354 0.83374 0.53318
 O1174 O 0.65015 0.79580 0.53236
 C1175 C 0.62500 0.80750 0.54412
 C1176 C 0.60876 0.79127 0.57110
 C1177 C 0.61989 0.76202 0.58478
 H1178 H 0.64083 0.75074 0.57532
 O1179 O 0.38686 1.15703 0.53157
 O1180 O 0.35028 1.19491 0.53437
 C1181 C 0.37625 1.18263 0.54447
 C1182 C 0.39407 1.19767 0.57186
 C1183 C 0.38498 1.22804 0.58421
 H1184 H 0.36534 1.24048 0.57300
 O1185 O 0.38550 0.96838 0.66011
 O1186 O 0.34901 0.96810 0.69704
 C1187 C 0.37443 0.95682 0.68569
 C1188 C 0.39096 0.92939 0.70169
 C1189 C 0.38051 0.91723 0.73107
 H1190 H 0.36126 0.92938 0.74285
 O1191 O 0.62091 1.02506 0.65655
 O1192 O 0.65653 1.02210 0.69551
 C1193 C 0.63138 1.03430 0.68370
 C1194 C 0.61469 1.05986 0.70166
 C1195 C 0.62677 1.07004 0.73133
 H1196 H 0.64759 1.05829 0.74124
 O1197 O 0.46805 0.83748 0.61220
 O1198 O 0.46896 0.80050 0.64997
 C1199 C 0.45798 0.81126 0.62357
 C1200 C 0.43271 0.79364 0.60627
 C1201 C 0.42292 0.76337 0.61669
 H1202 H 0.43483 0.75233 0.63707
 O1203 O 0.53396 1.15482 0.62341
 O1204 O 0.53343 1.19176 0.66176
 C1205 C 0.54433 1.18101 0.63564
 C1206 C 0.57000 1.19868 0.62006
 C1207 C 0.57988 1.22866 0.63236
 H1208 H 0.56772 1.23945 0.65247
 O1209 O 0.34428 0.88290 0.53052
 O1210 O 0.30762 0.84571 0.52856
 C1211 C 0.31868 0.87165 0.54074
 C1212 C 0.30243 0.88900 0.56742
 C1213 C 0.27379 0.87814 0.58006
 H1214 H 0.26280 0.85714 0.56942
 O1215 O 0.66464 1.11402 0.54186
 O1216 O 0.69970 1.15281 0.54310
 C1217 C 0.69002 1.12583 0.55312
 C1218 C 0.70769 1.10798 0.57860
 C1219 C 0.73614 1.11944 0.59197
 H1220 H 0.74543 1.14159 0.58275
 O1221 O 0.53463 1.10722 0.66377
 O1222 O 0.53527 1.14424 0.70201
 C1223 C 0.54619 1.11823 0.68986
 C1224 C 0.57329 1.10102 0.70526
 C1225 C 0.58619 1.11128 0.73500
 H1226 H 0.57563 1.13170 0.74711
 O1227 O 0.46756 0.88140 0.65727
 O1228 O 0.46850 0.84431 0.69493
 C1229 C 0.45727 0.87030 0.68345
 C1230 C 0.43151 0.88722 0.70044
 C1231 C 0.42072 0.87543 0.72979
 H1232 H 0.43191 0.85442 0.74050
 O1233 O 0.66715 1.02569 0.61748
 O1234 O 0.70297 1.02262 0.65619
 C1235 C 0.69256 1.03553 0.63059
 C1236 C 0.70909 1.06319 0.61636
 C1237 C 0.73756 1.07474 0.62942
 H1238 H 0.74859 1.06218 0.64941
 O1239 O 0.34465 0.97006 0.61377
 O1240 O 0.30799 0.96988 0.65053
 C1241 C 0.31923 0.95907 0.62446
 C1242 C 0.30293 0.93262 0.60739
 C1243 C 0.27437 0.92189 0.61904
 H1244 H 0.26382 0.93426 0.63925
 O1245 O 0.61988 1.15730 0.54340
 O1246 O 0.65474 1.19632 0.54442
 C1247 C 0.62979 1.18391 0.55493
 C1248 C 0.61215 1.20013 0.58105
 C1249 C 0.62181 1.23014 0.59381
 H1250 H 0.64239 1.24137 0.58419
 O1251 O 0.38563 0.83656 0.52884
 O1252 O 0.34953 0.79880 0.52651
 C1253 C 0.37484 0.80988 0.53848
 C1254 C 0.39171 0.79261 0.56463
 C1255 C 0.38186 0.76225 0.57555
 H1256 H 0.36223 0.75048 0.56373
 O1257 O 0.62027 0.96284 0.65524
 O1258 O 0.65585 0.95973 0.69420
 C1259 C 0.62983 0.95096 0.68170
 C1260 C 0.61036 0.92702 0.69829
 C1261 C 0.61778 0.91811 0.73006
 H1262 H 0.63759 0.92918 0.74220
 O1263 O 0.38649 1.03126 0.66125
 O1264 O 0.34983 1.03107 0.69799
 C1265 C 0.37557 1.04167 0.68755
 C1266 C 0.39275 1.06685 0.70567
 C1267 C 0.38121 1.07905 0.73481
 H1268 H 0.36005 1.06898 0.74437
 O1269 O 0.47247 1.15081 0.61895
 O1270 O 0.47232 1.18792 0.65712
 C1271 C 0.46153 1.17688 0.63050
 C1272 C 0.43572 1.19453 0.61338
 C1273 C 0.42626 1.22485 0.62488
 H1274 H 0.43845 1.23530 0.64544
 O1275 O 0.52956 0.83658 0.61408
 O1276 O 0.52999 0.80003 0.65227
 C1277 C 0.54069 0.81073 0.62625
 C1278 C 0.56700 0.79329 0.61080
 C1279 C 0.57833 0.76432 0.62393
 H1280 H 0.56688 0.75419 0.64454
 O1281 O 0.65755 0.87665 0.53092
 O1282 O 0.69437 0.83887 0.52918
 C1283 C 0.68393 0.86534 0.54031
 C1284 C 0.70235 0.88285 0.56483
 C1285 C 0.73291 0.87277 0.57279
 H1286 H 0.74331 0.85257 0.55996
 O1287 O 0.34148 1.11572 0.53013
 O1288 O 0.30461 1.15342 0.53142
 C1289 C 0.31602 1.12694 0.54151
 C1290 C 0.29975 1.10996 0.56747
 C1291 C 0.27034 1.12122 0.57741
 H1292 H 0.25917 1.14116 0.56479
 Cu1293 Cu 0.49832 0.86347 0.63080
 Cu1294 Cu 0.49932 0.81938 0.67641
 Cu1295 Cu 0.50356 1.12698 0.63945
 Cu1296 Cu 0.50349 1.17132 0.68506
 Cu1297 Cu 0.36898 0.86499 0.49889
 Cu1298 Cu 0.32548 0.82008 0.49575
 Cu1299 Cu 0.62990 0.85900 0.50115
 Cu1300 Cu 0.67400 0.81375 0.49924
 Cu1301 Cu 0.36657 1.13456 0.49908
 Cu1302 Cu 0.32254 1.17954 0.50178
 Cu1303 Cu 0.63771 1.13191 0.51146
 Cu1304 Cu 0.67953 1.17864 0.51239
 Cu1305 Cu 0.36845 1.00091 0.63451
 Cu1306 Cu 0.32432 1.00047 0.67850
 Cu1307 Cu 0.63992 0.99419 0.63135
 Cu1308 Cu 0.68257 0.99056 0.67826
 C1309 C 0.58424 0.91300 0.68259
 H1310 H 0.57859 0.91933 0.65798
 C1311 C 0.59947 0.89535 0.74596
 C1312 C 0.42006 1.07994 0.69281
 H1313 H 0.42867 1.07096 0.67009
 C1314 C 0.39659 1.10451 0.75087
 C1315 C 0.31413 1.08422 0.58383
 H1316 H 0.33704 1.07575 0.57635
 C1317 C 0.25528 1.10789 0.60376
 C1318 C 0.68896 0.90887 0.58135
 H1319 H 0.66514 0.91642 0.57541
 C1320 C 0.75004 0.88789 0.59750
 C1321 C 0.58207 0.80634 0.58429
 H1322 H 0.57343 0.82893 0.57447
 C1323 C 0.60450 0.74828 0.61133
 C1324 C 0.41969 1.18117 0.58659
 H1325 H 0.42668 1.15758 0.57773
 C1326 C 0.40107 1.24183 0.61080
 C1327 C 0.41659 0.91427 0.68672
 H1328 H 0.42454 0.92314 0.66390
 C1329 C 0.39505 0.88986 0.74517
 C1330 C 0.58774 1.07512 0.68892
 H1331 H 0.57854 1.06737 0.66576
 C1332 C 0.61307 1.09562 0.74821
 C1333 C 0.41724 0.80781 0.58002
 H1334 H 0.42458 0.83137 0.57212
 C1335 C 0.39755 0.74742 0.60169
 C1336 C 0.58602 1.18485 0.59419
 H1337 H 0.57870 1.16157 0.58490
 C1338 C 0.60558 1.24477 0.61946
 C1339 C 0.31667 0.91640 0.58142
 H1340 H 0.33901 0.92467 0.57270
 C1341 C 0.25981 0.89455 0.60632
 C1342 C 0.69482 1.07969 0.59073
 H1343 H 0.67274 1.07102 0.58085
 C1344 C 0.75159 1.10277 0.61743
 O1345 O 0.46007 0.38223 0.84303
 O1346 O 0.45752 0.34527 0.80474
 C1347 C 0.44832 0.37198 0.81679
 C1348 C 0.42337 0.39124 0.80059
 C1349 C 0.41159 0.38201 0.77026
 H1350 H 0.42159 0.36093 0.75886
 O1351 O 0.53016 0.61897 0.83862
 O1352 O 0.53056 0.65561 0.80054
 C1353 C 0.54068 0.62925 0.81231
 C1354 C 0.56520 0.61080 0.79519
 C1355 C 0.57531 0.62169 0.76542
 H1356 H 0.56449 0.64295 0.75478
 O1357 O 0.34438 0.47788 0.89132
 O1358 O 0.30618 0.47930 0.85492
 C1359 C 0.31814 0.46793 0.88056
 C1360 C 0.30197 0.44166 0.89685
 C1361 C 0.27285 0.43118 0.88498
 H1362 H 0.26139 0.44379 0.86524
 O1363 O 0.64980 0.52620 0.88197
 O1364 O 0.68544 0.52397 0.84427
 C1365 C 0.67517 0.53625 0.87021
 C1366 C 0.69236 0.56335 0.88593
 C1367 C 0.72102 0.57341 0.87358
 H1368 H 0.73105 0.56030 0.85355
 O1369 O 0.38677 0.34175 0.97170
 O1370 O 0.34835 0.30652 0.97417
 C1371 C 0.37381 0.31580 0.96224
 C1372 C 0.38738 0.29692 0.93592
 C1373 C 0.37335 0.26816 0.92588
 H1374 H 0.35392 0.25864 0.93926
 O1375 O 0.61288 0.66064 0.96806
 O1376 O 0.64917 0.69828 0.96729
 C1377 C 0.62299 0.68723 0.95763
 C1378 C 0.60477 0.70538 0.93346
 C1379 C 0.61250 0.73734 0.92725
 H1380 H 0.63086 0.74891 0.94143
 O1381 O 0.38810 0.53676 0.84512
 O1382 O 0.34965 0.53769 0.80893
 C1383 C 0.37637 0.54707 0.81895
 C1384 C 0.39354 0.57047 0.79988
 C1385 C 0.38436 0.57594 0.76814
 H1386 H 0.36531 0.56203 0.75755
 O1387 O 0.60351 0.46450 0.83849
 O1388 O 0.63917 0.46208 0.80081
 C1389 C 0.61362 0.45221 0.81263
 C1390 C 0.59638 0.42519 0.79688
 C1391 C 0.60678 0.41222 0.76769
 H1392 H 0.62582 0.42392 0.75562
 O1393 O 0.52004 0.33463 0.88531
 O1394 O 0.51786 0.29687 0.84777
 C1395 C 0.52923 0.30769 0.87410
 C1396 C 0.55371 0.28933 0.89188
 C1397 C 0.56310 0.25836 0.88185
 H1398 H 0.55189 0.24738 0.86099
 O1399 O 0.47022 0.66738 0.88008
 O1400 O 0.47038 0.70346 0.84145
 C1401 C 0.46013 0.69368 0.86802
 C1402 C 0.43596 0.71278 0.88490
 C1403 C 0.42392 0.74150 0.87173
 H1404 H 0.43315 0.75025 0.84937
 O1405 O 0.35392 0.63234 0.96917
 O1406 O 0.31703 0.67008 0.96995
 C1407 C 0.32767 0.64346 0.95908
 C1408 C 0.30943 0.62525 0.93444
 C1409 C 0.27877 0.63505 0.92579
 H1410 H 0.26838 0.65596 0.93743
 O1411 O 0.64686 0.37397 0.96395
 O1412 O 0.68275 0.33526 0.96284
 C1413 C 0.67154 0.36167 0.95190
 C1414 C 0.68766 0.37825 0.92515
 C1415 C 0.71675 0.36650 0.91445
 H1416 H 0.72716 0.34545 0.92586
 O1417 O 0.46932 0.62084 0.83835
 O1418 O 0.46924 0.65646 0.79931
 C1419 C 0.45856 0.63089 0.81167
 C1420 C 0.43308 0.61232 0.79581
 C1421 C 0.42309 0.61819 0.76396
 H1422 H 0.43460 0.63654 0.75020
 O1423 O 0.52093 0.37848 0.84163
 O1424 O 0.51891 0.34125 0.80358
 C1425 C 0.53067 0.36695 0.81529
 C1426 C 0.55630 0.38326 0.79844
 C1427 C 0.56731 0.37057 0.76937
 H1428 H 0.55656 0.34927 0.75886
 O1429 O 0.64962 0.46223 0.88000
 O1430 O 0.68547 0.46010 0.84252
 C1431 C 0.67439 0.44944 0.86849
 C1432 C 0.68975 0.42126 0.88496
 C1433 C 0.71902 0.40881 0.87466
 H1434 H 0.73083 0.42069 0.85535
 O1435 O 0.34611 0.54109 0.88937
 O1436 O 0.30765 0.54209 0.85325
 C1437 C 0.32048 0.55322 0.87868
 C1438 C 0.30573 0.58096 0.89556
 C1439 C 0.27501 0.59107 0.88733
 H1440 H 0.26199 0.57734 0.86956
 O1441 O 0.39631 0.67682 0.96838
 O1442 O 0.35960 0.71469 0.96883
 C1443 C 0.38449 0.70271 0.95707
 C1444 C 0.39917 0.71778 0.92890
 C1445 C 0.38706 0.74643 0.91527
 H1446 H 0.36741 0.75817 0.92669
 O1447 O 0.60255 0.33169 0.96979
 O1448 O 0.63834 0.29287 0.96890
 C1449 C 0.61222 0.30467 0.95929
 C1450 C 0.59364 0.28761 0.93445
 C1451 C 0.60230 0.25645 0.92467
 H1452 H 0.62081 0.24407 0.93782
 O1453 O 0.60844 0.52793 0.83551
 O1454 O 0.64397 0.52555 0.79772
 C1455 C 0.61942 0.53846 0.80934
 C1456 C 0.60388 0.56673 0.79322
 C1457 C 0.61419 0.57859 0.76343
 H1458 H 0.63297 0.56607 0.75119
 O1459 O 0.38389 0.47424 0.84500
 O1460 O 0.34553 0.47576 0.80875
 C1461 C 0.37109 0.46349 0.81930
 C1462 C 0.38574 0.43607 0.80185
 C1463 C 0.37426 0.42653 0.77148
 H1464 H 0.35506 0.43997 0.76039
 O1465 O 0.53064 0.66415 0.88178
 O1466 O 0.53126 0.70137 0.84424
 C1467 C 0.54137 0.69021 0.87090
 C1468 C 0.56592 0.70705 0.88989
 C1469 C 0.57443 0.73906 0.88339
 H1470 H 0.56253 0.75191 0.86417
 O1471 O 0.45957 0.33545 0.88367
 O1472 O 0.45673 0.29804 0.84586
 C1473 C 0.44761 0.30965 0.87240
 C1474 C 0.42261 0.29391 0.89073
 C1475 C 0.40797 0.26513 0.88035
 H1476 H 0.41553 0.25382 0.85832
 O1477 O 0.65507 0.61526 0.96431
 O1478 O 0.69156 0.65256 0.96234
 C1479 C 0.67979 0.62622 0.95189
 C1480 C 0.69458 0.60798 0.92496
 C1481 C 0.72333 0.61777 0.91189
 H1482 H 0.73493 0.63869 0.92197
 O1483 O 0.34641 0.38893 0.97053
 O1484 O 0.30806 0.35352 0.97174
 C1485 C 0.31993 0.37894 0.96033
 C1486 C 0.30313 0.39717 0.93480
 C1487 C 0.27402 0.38672 0.92234
 H1488 H 0.26323 0.36566 0.93245
 Cu1489 Cu 0.49029 0.36139 0.86721
 Cu1490 Cu 0.48763 0.31671 0.82146
 Cu1491 Cu 0.49997 0.63917 0.86351
 Cu1492 Cu 0.50052 0.68284 0.81739
 Cu1493 Cu 0.36943 0.50743 0.87149
 Cu1494 Cu 0.32326 0.50900 0.82793
 Cu1495 Cu 0.62437 0.49545 0.86263
 Cu1496 Cu 0.66705 0.49265 0.81769
 C1497 C 0.41051 0.41845 0.81604
 H1498 H 0.41923 0.42545 0.83961
 C1499 C 0.38698 0.39961 0.75537
 C1500 C 0.57929 0.58319 0.80875
 H1501 H 0.57151 0.57494 0.83187
 C1502 C 0.59990 0.60635 0.74947
 C1503 C 0.31684 0.42480 0.92193
 H1504 H 0.33960 0.43267 0.93078
 C1505 C 0.25907 0.40345 0.89692
 C1506 C 0.67944 0.58062 0.91179
 H1507 H 0.65712 0.57314 0.92122
 C1508 C 0.73673 0.60050 0.88605
 C1509 C 0.41228 0.30922 0.91875
 H1510 H 0.42280 0.33169 0.92663
 C1511 C 0.38316 0.25201 0.89819
 C1512 C 0.58121 0.69049 0.91509
 H1513 H 0.57548 0.66557 0.91984
 C1514 C 0.59796 0.75425 0.90218
 C1515 C 0.41810 0.58831 0.81346
 H1516 H 0.42495 0.58400 0.83822
 C1517 C 0.39853 0.59979 0.75010
 C1518 C 0.57092 0.41062 0.81202
 H1519 H 0.56298 0.42011 0.83480
 C1520 C 0.59286 0.38441 0.75417
 C1521 C 0.56902 0.30365 0.91834
 H1522 H 0.56259 0.32794 0.92566
 C1523 C 0.58769 0.24192 0.89784
 C1524 C 0.42385 0.70150 0.91368
 H1525 H 0.43294 0.67916 0.92366
 C1526 C 0.39949 0.75866 0.88656
 C1527 C 0.32264 0.59806 0.91928
 H1528 H 0.34638 0.59052 0.92554
 C1529 C 0.26128 0.61824 0.90229
 C1530 C 0.67447 0.40581 0.91036
 H1531 H 0.65196 0.41494 0.91833
 C1532 C 0.73283 0.38138 0.88942
 O1533 O 0.53722 0.39190 1.15754
 O1534 O 0.53761 0.35678 1.19704
 C1535 C 0.54890 0.38156 1.18378
 C1536 C 0.57665 0.39772 1.19835
 C1537 C 0.58823 0.38844 1.22865
 H1538 H 0.57477 0.37127 1.24185
 O1539 O 0.47230 0.62092 1.16501
 O1540 O 0.47697 0.65777 1.20313
 C1541 C 0.46346 0.63299 1.19161
 C1542 C 0.43637 0.61858 1.20834
 C1543 C 0.42414 0.63233 1.23661
 H1544 H 0.43562 0.65307 1.24741
 O1545 O 0.35157 0.54224 1.11395
 O1546 O 0.31378 0.54366 1.14949
 C1547 C 0.32615 0.55435 1.12401
 C1548 C 0.31142 0.58184 1.10658
 C1549 C 0.28183 0.59345 1.11563
 H1550 H 0.26914 0.58056 1.13370
 O1551 O 0.66398 0.46975 1.10234
 O1552 O 0.70271 0.46822 1.13816
 C1553 C 0.68987 0.45788 1.11231
 C1554 C 0.70439 0.43117 1.09390
 C1555 C 0.73594 0.42202 1.09893
 H1556 H 0.74989 0.43497 1.11662
 O1557 O 0.61046 0.33267 1.03223
 O1558 O 0.64637 0.29405 1.03166
 C1559 C 0.62213 0.30681 1.04403
 C1560 C 0.60724 0.29245 1.07282
 C1561 C 0.61827 0.26358 1.08744
 H1562 H 0.63781 0.25097 1.07673
 O1563 O 0.39820 0.67654 1.03176
 O1564 O 0.36172 0.71464 1.03249
 C1565 C 0.38712 0.70250 1.04367
 C1566 C 0.40314 0.71749 1.07196
 C1567 C 0.39230 0.74677 1.08521
 H1568 H 0.37352 0.75934 1.07276
 O1569 O 0.39169 0.47908 1.15997
 O1570 O 0.35468 0.47958 1.19633
 C1571 C 0.38060 0.46843 1.18578
 C1572 C 0.39814 0.44254 1.20304
 C1573 C 0.38817 0.43102 1.23286
 H1574 H 0.36748 0.44172 1.24333
 O1575 O 0.62287 0.53275 1.14759
 O1576 O 0.66074 0.53120 1.18434
 C1577 C 0.63442 0.54240 1.17411
 C1578 C 0.61704 0.56648 1.19360
 C1579 C 0.62764 0.57363 1.22475
 H1580 H 0.64833 0.56135 1.23428
 O1581 O 0.47260 0.34802 1.11785
 O1582 O 0.47273 0.31280 1.15726
 C1583 C 0.46148 0.32302 1.13073
 C1584 C 0.43479 0.30610 1.11497
 C1585 C 0.42358 0.27717 1.12742
 H1586 H 0.43518 0.26673 1.14829
 O1587 O 0.53428 0.65885 1.11745
 O1588 O 0.53880 0.69563 1.15573
 C1589 C 0.54721 0.68406 1.12880
 C1590 C 0.57245 0.70034 1.11109
 C1591 C 0.58232 0.73076 1.12153
 H1592 H 0.57076 0.74216 1.14170
 O1593 O 0.34873 0.39287 1.03217
 O1594 O 0.31063 0.35717 1.03305
 C1595 C 0.32258 0.38349 1.04263
 C1596 C 0.30554 0.40231 1.06674
 C1597 C 0.27551 0.39229 1.07461
 H1598 H 0.26462 0.37265 1.06129
 O1599 O 0.66163 0.61618 1.02629
 O1600 O 0.69798 0.65369 1.02449
 C1601 C 0.68809 0.62729 1.03534
 C1602 C 0.70708 0.60972 1.05937
 C1603 C 0.73745 0.61976 1.06763
 H1604 H 0.74749 0.64000 1.05519
 O1605 O 0.53402 0.61454 1.16054
 O1606 O 0.53873 0.65096 1.19913
 C1607 C 0.54745 0.62452 1.18612
 C1608 C 0.57425 0.60583 1.20010
 C1609 C 0.58554 0.61277 1.23127
 H1610 H 0.57366 0.63112 1.24519
 O1611 O 0.47569 0.39421 1.16002
 O1612 O 0.47651 0.35893 1.19938
 C1613 C 0.46585 0.38471 1.18693
 C1614 C 0.44076 0.40267 1.20359
 C1615 C 0.43093 0.39203 1.23352
 H1616 H 0.44322 0.37208 1.24501
 O1617 O 0.66844 0.53218 1.10692
 O1618 O 0.70678 0.53105 1.14313
 C1619 C 0.69475 0.54240 1.11761
 C1620 C 0.71063 0.56831 1.10023
 C1621 C 0.74113 0.57871 1.10872
 H1622 H 0.75384 0.56663 1.12788
 O1623 O 0.34605 0.47948 1.11782
 O1624 O 0.30839 0.48013 1.15343
 C1625 C 0.32002 0.46882 1.12783
 C1626 C 0.30390 0.44258 1.10957
 C1627 C 0.27415 0.43075 1.11844
 H1628 H 0.26227 0.44139 1.13874
 O1629 O 0.61678 0.65878 1.03063
 O1630 O 0.65296 0.69647 1.02981
 C1631 C 0.62820 0.68483 1.04186
 C1632 C 0.61243 0.70123 1.06937
 C1633 C 0.62226 0.73184 1.08079
 H1634 H 0.64129 0.74394 1.06910
 O1635 O 0.38863 0.34538 1.03431
 O1636 O 0.35042 0.30990 1.03641
 C1637 C 0.37664 0.32055 1.04671
 C1638 C 0.39320 0.30466 1.07390
 C1639 C 0.38217 0.27566 1.08675
 H1640 H 0.36188 0.26435 1.07576
 O1641 O 0.62543 0.47039 1.14983
 O1642 O 0.66399 0.46887 1.18585
 C1643 C 0.63750 0.45914 1.17556
 C1644 C 0.62052 0.43470 1.19379
 C1645 C 0.63219 0.42456 1.22377
 H1646 H 0.65376 0.43470 1.23347
 O1647 O 0.38849 0.54185 1.16405
 O1648 O 0.35099 0.54278 1.19986
 C1649 C 0.37689 0.55329 1.18978
 C1650 C 0.39358 0.57964 1.20727
 C1651 C 0.38150 0.59372 1.23546
 H1652 H 0.35989 0.58443 1.24472
 O1653 O 0.47368 0.66543 1.12120
 O1654 O 0.47812 0.70234 1.15932
 C1655 C 0.46561 0.69253 1.13315
 C1656 C 0.44107 0.71225 1.11640
 C1657 C 0.42982 0.74151 1.12947
 H1658 H 0.43973 0.75036 1.15194
 O1659 O 0.53370 0.34371 1.11779
 O1660 O 0.53353 0.30875 1.15743
 C1661 C 0.54370 0.31771 1.13057
 C1662 C 0.56816 0.29816 1.11472
 C1663 C 0.57904 0.26944 1.12873
 H1664 H 0.56833 0.26101 1.15050
 O1665 O 0.65139 0.37809 1.02575
 O1666 O 0.68773 0.33978 1.02454
 C1667 C 0.67810 0.36719 1.03434
 C1668 C 0.69818 0.38658 1.05590
 C1669 C 0.72967 0.37786 1.06092
 H1670 H 0.73939 0.35703 1.04853
 O1671 O 0.35650 0.63163 1.03114
 O1672 O 0.31976 0.66954 1.03187
 C1673 C 0.33100 0.64292 1.04213
 C1674 C 0.31414 0.62525 1.06719
 C1675 C 0.28466 0.63658 1.07700
 H1676 H 0.27422 0.65784 1.06600
 Cu1677 Cu 0.50480 0.37305 1.13433
 Cu1678 Cu 0.50505 0.33091 1.18183
 Cu1679 Cu 0.50280 0.63605 1.13749
 Cu1680 Cu 0.50876 0.68019 1.18326
 Cu1681 Cu 0.37180 0.37062 1.00191
 Cu1682 Cu 0.32553 0.32809 1.00413
 Cu1683 Cu 0.62402 0.35770 0.99813
 Cu1684 Cu 0.66732 0.31150 0.99687
 Cu1685 Cu 0.38023 0.65087 0.99993
 Cu1686 Cu 0.33603 0.69624 1.00090
 Cu1687 Cu 0.63295 0.63398 0.99754
 Cu1688 Cu 0.67646 0.67908 0.99575
 Cu1689 Cu 0.37305 0.51050 1.13556
 Cu1690 Cu 0.32814 0.51153 1.17814
 Cu1691 Cu 0.64156 0.50141 1.12288
 Cu1692 Cu 0.68739 0.49981 1.16645
 C1693 C 0.59280 0.42115 1.18121
 H1694 H 0.58412 0.42840 1.15775
 C1695 C 0.61651 0.40126 1.24138
 C1696 C 0.42112 0.59204 1.19436
 H1697 H 0.43023 0.58155 1.17249
 C1698 C 0.39672 0.62013 1.25063
 C1699 C 0.32743 0.59779 1.08206
 H1700 H 0.35046 0.58927 1.07503
 C1701 C 0.26865 0.62125 1.10144
 C1702 C 0.68584 0.41354 1.07198
 H1703 H 0.66134 0.42007 1.06831
 C1704 C 0.74883 0.39553 1.08199
 C1705 C 0.58203 0.30917 1.08675
 H1706 H 0.57362 0.33154 1.07626
 C1707 C 0.60408 0.25181 1.11576
 C1708 C 0.42771 0.70076 1.08755
 H1709 H 0.43584 0.67798 1.07764
 C1710 C 0.40523 0.75902 1.11429
 C1711 C 0.42460 0.42822 1.18871
 H1712 H 0.43203 0.43619 1.16537
 C1713 C 0.40456 0.40546 1.24825
 C1714 C 0.59001 0.58237 1.18151
 H1715 H 0.58181 0.57718 1.15730
 C1716 C 0.61221 0.59654 1.24384
 C1717 C 0.41962 0.31949 1.08804
 H1718 H 0.42796 0.34205 1.07853
 C1719 C 0.39732 0.26170 1.11363
 C1720 C 0.58737 0.68579 1.08477
 H1721 H 0.57982 0.66215 1.07669
 C1722 C 0.60704 0.74675 1.10697
 C1723 C 0.31943 0.42785 1.08368
 H1724 H 0.34279 0.43545 1.07736
 C1725 C 0.26008 0.40513 1.10083
 C1726 C 0.69410 0.58380 1.07540
 H1727 H 0.67044 0.57633 1.06916
 C1728 C 0.75474 0.60465 1.09230
 C1729 C 1.11877 1.13031 1.30879
 C1730 C 1.13279 1.11345 1.28547
 H1731 H 1.09500 1.13897 1.30463
 H1732 H 1.15630 1.10402 1.28996
 C1733 C 1.11510 0.62356 0.80205
 C1734 C 1.12725 0.60332 0.78043
 H1735 H 1.09156 0.63318 0.79893
 H1736 H 1.15075 0.59384 0.78480
 C1737 C 0.61825 1.12699 0.79950
 C1738 C 0.62930 1.10543 0.77846
 H1739 H 0.59558 1.13836 0.79541
 H1740 H 0.65192 1.09411 0.78349
 C1741 C 0.61454 0.62388 1.29767
 C1742 C 0.62632 0.60343 1.27587
 H1743 H 0.59243 0.63629 1.29357
 H1744 H 0.64853 0.59150 1.28132
 C1745 C 0.88004 0.87273 1.29603
 C1746 C 0.87151 0.89623 1.27584
 H1747 H 0.90120 0.85881 1.29186
 H1748 H 0.85031 0.90996 1.28092
 C1749 C 0.87368 0.36428 0.78985
 C1750 C 0.86485 0.38733 0.76936
 H1751 H 0.89544 0.35118 0.78625
 H1752 H 0.84299 0.40018 0.77377
 C1753 C 0.35520 0.87992 0.78692
 C1754 C 0.38429 0.87560 0.77582
 H1755 H 0.33830 0.89420 0.77340
 H1756 H 0.40060 0.86032 0.78913
 C1757 C 0.36878 0.39827 1.29453
 C1758 C 0.39426 0.38970 1.27812
 H1759 H 0.35524 0.41939 1.28774
 H1760 H 0.40763 0.36869 1.28594
 C1761 C 0.87524 1.14068 0.71105
 C1762 C 0.87051 1.11134 0.72274
 H1763 H 0.89188 1.15645 0.72299
 H1764 H 0.85333 1.09572 0.71123
 C1765 C 0.89391 0.63365 0.19805
 C1766 C 0.89184 0.60537 0.21278
 H1767 H 0.90749 0.65311 0.20855
 H1768 H 0.87800 0.58659 0.20124
 C1769 C 0.38114 1.14430 0.21060
 C1770 C 0.37541 1.11891 0.22901
 H1771 H 0.40076 1.15984 0.21633
 H1772 H 0.35577 1.10368 0.22216
 C1773 C 0.38600 0.63287 0.70232
 C1774 C 0.38534 0.60483 0.71759
 H1775 H 0.39957 0.65285 0.71177
 H1776 H 0.37138 0.58548 0.70724
 C1777 C 1.14190 0.86865 0.70557
 C1778 C 1.11862 0.85801 0.72430
 H1779 H 1.15238 0.89185 0.71056
 H1780 H 1.10825 0.83494 0.71817
 C1781 C 1.14530 0.36819 0.21586
 C1782 C 1.11572 0.36380 0.22472
 H1783 H 1.16053 0.38332 0.23039
 H1784 H 1.10040 0.34826 0.21059
 C1785 C 0.62122 0.86620 0.20669
 C1786 C 0.62747 0.89206 0.22519
 H1787 H 0.60217 0.85031 0.21253
 H1788 H 0.64647 0.90765 0.21822
 C1789 C 0.63446 0.37188 0.71565
 C1790 C 0.60457 0.36924 0.72431
 H1791 H 0.65102 0.38481 0.73081
 H1792 H 0.58834 0.35562 0.70929
 C1793 C 1.29182 1.12348 1.14088
 C1794 C 1.27329 1.13023 1.11526
 H1795 H 1.28621 1.10345 1.15618
 H1796 H 1.27979 1.15040 1.10042
 C1797 C 1.29536 0.60737 0.63516
 C1798 C 1.27613 0.61254 0.60995
 H1799 H 1.29012 0.58852 0.65202
 H1800 H 1.28264 0.63129 0.59338
 C1801 C 0.79802 1.13963 0.62362
 C1802 C 0.78125 1.11433 0.63350
 H1803 H 0.79081 1.15234 0.60219
 H1804 H 0.78910 1.10171 0.65492
 C1805 C 0.80366 0.61130 1.12625
 C1806 C 0.78613 0.61815 1.10015
 H1807 H 0.79647 0.59324 1.14312
 H1808 H 0.79449 0.63645 1.08401
 C1809 C 1.27537 0.87836 0.86631
 C1810 C 1.26223 0.87011 0.89417
 H1811 H 1.26320 0.89446 0.84996
 H1812 H 1.27416 0.85293 0.90975
 C1813 C 1.28764 0.38293 0.36702
 C1814 C 1.26762 0.36696 0.38540
 H1815 H 1.28121 0.40682 0.35890
 H1816 H 1.27427 0.34328 0.39426
 C1817 C 0.78750 0.88693 0.36286
 C1818 C 0.76997 0.87792 0.38771
 H1819 H 0.77971 0.90620 0.34723
 H1820 H 0.77869 0.85818 0.40238
 C1821 C 0.78183 0.37583 0.85565
 C1822 C 0.76391 0.36696 0.88041
 H1823 H 0.77408 0.39517 0.84008
 H1824 H 0.77230 0.34727 0.89535
 C1825 C 0.70947 0.88866 1.13789
 C1826 C 0.72389 0.88470 1.10987
 H1827 H 0.71857 0.90520 1.15589
 H1828 H 0.71372 0.86792 1.09261
 C1829 C 0.70716 0.38683 0.63200
 C1830 C 0.72030 0.38095 0.60365
 H1831 H 0.71612 0.40563 0.64762
 H1832 H 0.71062 0.36203 0.58843
 C1833 C 0.21885 0.85474 0.61996
 C1834 C 0.23097 0.88413 0.62286
 H1835 H 0.22905 0.83767 0.60327
 H1836 H 0.22040 0.90094 0.63969
 C1837 C 0.22024 0.38707 1.13904
 C1838 C 0.23073 0.38848 1.10931
 H1839 H 0.23127 0.40172 1.15759
 H1840 H 0.21914 0.37411 1.09081
 C1841 C 0.71018 1.12052 0.86777
 C1842 C 0.72785 1.12996 0.89322
 H1843 H 0.71887 1.10229 0.85143
 H1844 H 0.71890 1.14889 0.90878
 C1845 C 0.70884 0.61158 0.36546
 C1846 C 0.72876 0.62304 0.38787
 H1847 H 0.71525 0.59163 0.35003
 H1848 H 0.72122 0.64338 0.40243
 C1849 C 0.20257 1.12831 0.39117
 C1850 C 0.22498 1.11281 0.37498
 H1851 H 0.20755 1.13560 0.41571
 H1852 H 0.21986 1.10461 0.35069
 C1853 C 0.21109 0.61974 0.86968
 C1854 C 0.22884 0.62993 0.89464
 H1855 H 0.21978 0.60176 0.85309
 H1856 H 0.21937 0.64855 0.91023
 C1857 C 1.14521 1.29918 1.11928
 C1858 C 1.12288 1.27930 1.13006
 H1859 H 1.15599 1.29452 1.09639
 H1860 H 1.11282 1.28512 1.15312
 C1861 C 1.14578 0.77143 0.63378
 C1862 C 1.11552 0.76476 0.62975
 H1863 H 1.16327 0.75472 0.62462
 H1864 H 1.09790 0.78130 0.63898
 C1865 C 0.63552 1.29665 0.62236
 C1866 C 0.61550 1.27565 0.63506
 H1867 H 0.64514 1.29225 0.59889
 H1868 H 0.60579 1.28123 0.65834
 C1869 C 0.64199 0.79476 1.11641
 C1870 C 0.61537 0.77867 1.12101
 H1871 H 0.65924 0.78592 1.09965
 H1872 H 0.59885 0.78877 1.13797
 C1873 C 0.86157 1.29341 0.87903
 C1874 C 0.88936 1.27932 0.87249
 H1875 H 0.84642 1.28391 0.89716
 H1876 H 0.90344 1.28905 0.85349
 C1877 C 0.86601 0.80108 0.38458
 C1878 C 0.89352 0.78637 0.37834
 H1879 H 0.85004 0.79146 0.40189
 H1880 H 0.90853 0.79670 0.36044
 C1881 C 0.37574 1.30350 0.36199
 C1882 C 0.36689 1.28404 0.38568
 H1883 H 0.39697 1.29806 0.34909
 H1884 H 0.34568 1.29055 0.39833
 C1885 C 0.36463 0.80743 0.88171
 C1886 C 0.38651 0.78760 0.86966
 H1887 H 0.35600 0.80392 0.90561
 H1888 H 0.39455 0.79202 0.84556
 C1889 C 1.12638 0.69713 0.89324
 C1890 C 1.09795 0.71006 0.88710
 H1891 H 1.14250 0.70826 0.91020
 H1892 H 1.08280 0.69875 0.86922
 C1893 C 1.10958 0.18973 0.40725
 C1894 C 1.08868 0.20958 0.39326
 H1895 H 1.11898 0.19461 0.43099
 H1896 H 1.07942 0.20331 0.36966
 C1897 C 0.63078 0.69509 0.39051
 C1898 C 0.60380 0.71089 0.38454
 H1899 H 0.64797 0.70450 0.40741
 H1900 H 0.58748 0.70092 0.36693
 C1901 C 0.62709 0.19775 0.89078
 C1902 C 0.59867 0.21075 0.88442
 H1903 H 0.64308 0.20851 0.90805
 H1904 H 0.58368 0.19951 0.86636
 C1905 C 0.87091 0.70451 1.10756
 C1906 C 0.89695 0.72134 1.11389
 H1907 H 0.85300 0.71334 1.09108
 H1908 H 0.91416 0.71144 1.13068
 C1909 C 0.87489 0.22433 0.63513
 C1910 C 0.87497 0.23307 0.60453
 H1911 H 0.88649 0.23890 0.65336
 H1912 H 0.86270 0.21849 0.58670
 C1913 C 0.36168 0.69985 0.60965
 C1914 C 0.38864 0.71581 0.61519
 H1915 H 0.34435 0.70852 0.59244
 H1916 H 0.40524 0.70585 0.63254
 C1917 C 0.36085 0.21474 1.12115
 C1918 C 0.38683 0.23150 1.12891
 H1919 H 0.34536 0.22211 1.10171
 H1920 H 0.40152 0.22292 1.14861
 C1921 C 1.11255 1.12791 0.70335
 C1922 C 1.11929 1.10153 0.72052
 H1923 H 1.09306 1.14352 0.70945
 H1924 H 1.13900 1.08659 0.71322
 C1925 C 1.14199 0.61733 0.21054
 C1926 C 1.11322 0.62090 0.22208
 H1927 H 1.15790 0.60001 0.22157
 H1928 H 1.09750 0.63850 0.21104
 C1929 C 0.64037 1.12697 0.21569
 C1930 C 0.61474 1.13618 0.23177
 H1931 H 0.65448 1.10728 0.22496
 H1932 H 0.60074 1.15607 0.22237
 C1933 C 0.63882 0.61837 0.70774
 C1934 C 0.60961 0.62068 0.71851
 H1935 H 0.65616 0.60470 0.72137
 H1936 H 0.59251 0.63485 0.70499
 C1937 C 0.88863 0.86916 0.70363
 C1938 C 0.87830 0.89344 0.72225
 H1939 H 0.90833 0.85413 0.71074
 H1940 H 0.85825 0.90761 0.71399
 C1941 C 0.87349 0.39719 0.18999
 C1942 C 0.89099 0.38199 0.21199
 H1943 H 0.86400 0.42093 0.19525
 H1944 H 0.90071 0.35837 0.20625
 C1945 C 0.36462 0.88060 0.21239
 C1946 C 0.39506 0.88376 0.21908
 H1947 H 0.34735 0.89003 0.22887
 H1948 H 0.41227 0.87376 0.20278
 C1949 C 0.38219 0.36531 0.70545
 C1950 C 0.37281 0.39038 0.72379
 H1951 H 0.40208 0.35051 0.71255
 H1952 H 0.35290 0.40488 0.71572
 C1953 C 1.14053 0.88467 1.29378
 C1954 C 1.11510 0.87867 1.27557
 H1955 H 1.15578 0.90448 1.28809
 H1956 H 1.10015 0.85892 1.28248
 C1957 C 1.13942 0.37421 0.79718
 C1958 C 1.11703 0.36322 0.77697
 H1959 H 1.14999 0.39736 0.79284
 H1960 H 1.10629 0.34028 0.78221
 C1961 C 0.63285 0.88926 0.79578
 C1962 C 0.60638 0.88378 0.77885
 H1963 H 0.65087 0.90497 0.78705
 H1964 H 0.58903 0.86801 0.78898
 C1965 C 0.62093 0.36505 1.28834
 C1966 C 0.63072 0.39095 1.27260
 H1967 H 0.60205 0.35068 1.27848
 H1968 H 0.65008 0.40485 1.28253
 C1969 C 0.88805 1.13276 1.30089
 C1970 C 0.88102 1.10957 1.27966
 H1971 H 0.90782 1.14829 1.29664
 H1972 H 0.86116 1.09437 1.28486
 C1973 C 0.85621 0.61155 0.78851
 C1974 C 0.88363 0.61648 0.77405
 H1975 H 0.83977 0.59375 0.77965
 H1976 H 0.89942 0.63423 0.78447
 C1977 C 0.35805 1.11232 0.79619
 C1978 C 0.38466 1.11985 0.78073
 H1979 H 0.34357 1.09249 0.78809
 H1980 H 0.39878 1.13961 0.78995
 C1981 C 0.35987 0.62659 1.29739
 C1982 C 0.38412 0.63698 1.27984
 H1983 H 0.34871 0.60402 1.29125
 H1984 H 0.39535 0.65939 1.28685
 C1985 C 1.14100 1.28379 0.87440
 C1986 C 1.11266 1.27152 0.86822
 H1987 H 1.15620 1.27207 0.89187
 H1988 H 1.09761 1.28279 0.85020
 C1989 C 1.12039 0.79201 0.36142
 C1990 C 1.12729 0.77346 0.38685
 H1991 H 1.10083 0.78632 0.34559
 H1992 H 1.14703 0.78045 0.40205
 C1993 C 0.61167 1.29190 0.37216
 C1994 C 0.61827 1.27826 0.40042
 H1995 H 0.59343 1.28212 0.35673
 H1996 H 0.63694 1.28824 0.41539
 C1997 C 0.60813 0.80126 0.86762
 C1998 C 0.60997 0.78686 0.89604
 H1999 H 0.59435 0.79108 0.84807
 H2000 H 0.62409 0.79798 0.91491
 C2001 C 0.87730 1.30985 1.10920
 C2002 C 0.89636 1.28929 1.12529
 H2003 H 0.86915 1.30394 1.08524
 H2004 H 0.90476 1.29629 1.14899
 C2005 C 0.87419 0.79411 0.61317
 C2006 C 0.89926 0.77629 0.62208
 H2007 H 0.85872 0.78641 0.59386
 H2008 H 0.91377 0.78481 0.64196
 C2009 C 0.36816 1.29208 0.61681
 C2010 C 0.39238 1.27321 0.62595
 H2011 H 0.35368 1.28556 0.59630
 H2012 H 0.40650 1.28064 0.64657
 C2013 C 0.36710 0.80535 1.12097
 C2014 C 0.39312 0.78900 1.13044
 H2015 H 0.35409 0.79767 1.09990
 H2016 H 0.40552 0.79697 1.15196
 C2017 C 0.87515 0.70506 0.85802
 C2018 C 0.86915 0.72337 0.88369
 H2019 H 0.89402 0.71094 0.84212
 H2020 H 0.85014 0.71611 0.89897
 C2021 C 0.86810 0.20024 0.39093
 C2022 C 0.89394 0.21714 0.38508
 H2023 H 0.85113 0.20873 0.40813
 H2024 H 0.91095 0.20719 0.36852
 C2025 C 0.35701 0.72059 0.37001
 C2026 C 0.38694 0.72962 0.36862
 H2027 H 0.34017 0.73557 0.38254
 H2028 H 0.40349 0.71485 0.35537
 C2029 C 0.37310 0.20230 0.86540
 C2030 C 0.36515 0.22282 0.88879
 H2031 H 0.39419 0.20623 0.85192
 H2032 H 0.34414 0.21799 0.90225
 C2033 C 1.13852 0.70310 1.13044
 C2034 C 1.11071 0.71697 1.13743
 H2035 H 1.15277 0.71378 1.11223
 H2036 H 1.09699 0.70689 1.15654
 C2037 C 1.13266 0.20293 0.61809
 C2038 C 1.10639 0.21987 0.62486
 H2039 H 1.14833 0.21098 0.59974
 H2040 H 1.09127 0.21107 0.64347
 C2041 C 0.63384 0.69587 0.61526
 C2042 C 0.61545 0.71849 0.62833
 H2043 H 0.64156 0.69872 0.59086
 H2044 H 0.60772 0.71497 0.65269
 C2045 C 0.63916 0.20382 1.12602
 C2046 C 0.61452 0.22226 1.13388
 H2047 H 0.65218 0.20978 1.10489
 H2048 H 0.60170 0.21603 1.15519
 C2049 C 1.28190 1.13429 0.88117
 C2050 C 1.26441 1.10820 0.87462
 H2051 H 1.27498 1.15105 0.89980
 H2052 H 1.27243 1.09211 0.85577
 C2053 C 1.27944 0.63770 0.37897
 C2054 C 1.26888 0.60755 0.37663
 H2055 H 1.26710 0.65535 0.39342
 H2056 H 1.28129 0.59051 0.36143
 C2057 C 0.79619 1.11352 0.36858
 C2058 C 0.77919 1.12233 0.39434
 H2059 H 0.78852 1.09439 0.35263
 H2060 H 0.78810 1.14162 0.40954
 C2061 C 0.78381 0.63565 0.87691
 C2062 C 0.76658 0.60941 0.87033
 H2063 H 0.77702 0.65247 0.89553
 H2064 H 0.77453 0.59333 0.85145
 C2065 C 1.28202 0.88286 1.13339
 C2066 C 1.26933 0.87862 1.10429
 H2067 H 1.26989 0.89719 1.15121
 H2068 H 1.28107 0.86315 1.08704
 C2069 C 1.29582 0.38132 0.63050
 C2070 C 1.27685 0.37034 0.60702
 H2071 H 1.28998 0.40260 0.64432
 H2072 H 1.28397 0.34895 0.59377
 C2073 C 0.80042 0.88448 0.62903
 C2074 C 0.78162 0.87434 0.60513
 H2075 H 0.79397 0.90479 0.64399
 H2076 H 0.78924 0.85382 0.59084
 C2077 C 0.80393 0.40126 1.10067
 C2078 C 0.78102 0.38326 1.08806
 H2079 H 0.80023 0.42677 1.10509
 H2080 H 0.78532 0.35774 1.08387
 C2081 C 0.71921 1.12244 1.13609
 C2082 C 0.73151 1.12979 1.10775
 H2083 H 0.73091 1.10575 1.15221
 H2084 H 0.71990 1.14763 1.09267
 C2085 C 0.71552 0.61352 0.62470
 C2086 C 0.72703 0.61950 0.59576
 H2087 H 0.72814 0.59834 0.64160
 H2088 H 0.71468 0.63600 0.57978
 C2089 C 0.20634 1.11397 0.63679
 C2090 C 0.22475 1.12305 0.61280
 H2091 H 0.21269 1.09351 0.65155
 H2092 H 0.21707 1.14355 0.59858
 C2093 C 0.22736 0.63052 1.14100
 C2094 C 0.23822 0.63494 1.11158
 H2095 H 0.24087 0.61693 1.15855
 H2096 H 0.22472 0.64936 1.09458
 C2097 C 0.69992 0.86881 0.89093
 C2098 C 0.71652 0.89546 0.88596
 H2099 H 0.70768 0.85101 0.90823
 H2100 H 0.70722 0.91269 0.86872
 C2101 C 0.69805 0.36778 0.37736
 C2102 C 0.71819 0.38782 0.36333
 H2103 H 0.70292 0.35892 0.40126
 H2104 H 0.71227 0.39686 0.33963
 C2105 C 0.21178 0.86203 0.38227
 C2106 C 0.22778 0.88903 0.37649
 H2107 H 0.22010 0.84468 0.39974
 H2108 H 0.21844 0.90557 0.35862
 C2109 C 0.22147 0.36146 0.88031
 C2110 C 0.22978 0.39235 0.88110
 H2111 H 0.23554 0.34337 0.89262
 H2112 H 0.21550 0.40993 0.86817
   
