data_POSCAR
  _audit_creation_date              2014-09-24
  _audit_creation_method            'ToBaCCo'
  _symmetry_space_group_name_H-M    'P1'
  _symmetry_Int_Tables_number       1
  _symmetry_cell_setting            triclinic
  loop_
  _symmetry_equiv_pos_as_xyz
 x,y,z
_cell_length_a 65.6421
_cell_length_b 64.7039
_cell_length_c 64.0262
_cell_angle_alpha 90.014000
_cell_angle_beta 89.328300
_cell_angle_gamma 90.664700
loop_
  _atom_site_label
  _atom_site_type_symbol
  _atom_site_fract_x
  _atom_site_fract_y
  _atom_site_fract_z
N1 N 0.17573 0.22717 0.22949
 N2 N 0.18161 0.21187 0.24142
 C3 C 0.16905 0.21047 0.25817
 C4 C 0.15441 0.22560 0.25660
 C5 C 0.15911 0.23588 0.23815
 H6 H 0.17025 0.19910 0.27044
 H7 H 0.15122 0.24894 0.23167
 Cu8 Cu 0.20479 0.19499 0.23354
 Cu9 Cu 0.19054 0.23503 0.20402
 Cu10 Cu 0.23247 0.20542 0.19037
 N11 N 0.22806 0.17824 0.22567
 N12 N 0.23885 0.18238 0.20874
 C13 C 0.25377 0.16839 0.20676
 C14 C 0.25226 0.15463 0.22334
 C15 C 0.23573 0.16145 0.23501
 H16 H 0.26468 0.16809 0.19400
 H17 H 0.22972 0.15470 0.24926
 N18 N 0.22356 0.22935 0.17383
 N19 N 0.20758 0.24055 0.17893
 C20 C 0.20569 0.25582 0.16480
 C21 C 0.22122 0.25422 0.15003
 C22 C 0.23221 0.23719 0.15634
 H23 H 0.19393 0.26735 0.16535
 H24 H 0.24568 0.23105 0.14889
 H25 H 0.20168 0.20597 0.19730
 H26 H 0.21844 0.22356 0.21273
 N27 N 0.67813 0.72399 0.72763
 N28 N 0.68403 0.70797 0.73850
 C29 C 0.67118 0.70509 0.75477
 C30 C 0.65636 0.72013 0.75424
 C31 C 0.66129 0.73188 0.73671
 H32 H 0.67237 0.69272 0.76600
 H33 H 0.65329 0.74520 0.73097
 Cu34 Cu 0.70762 0.69188 0.73044
 Cu35 Cu 0.69282 0.73312 0.70251
 Cu36 Cu 0.73446 0.70404 0.68704
 N37 N 0.73052 0.67544 0.72104
 N38 N 0.74101 0.68018 0.70409
 C39 C 0.75574 0.66612 0.70119
 C40 C 0.75440 0.65170 0.71719
 C41 C 0.73818 0.65819 0.72947
 H42 H 0.76644 0.66629 0.68824
 H43 H 0.73232 0.65092 0.74352
 N44 N 0.72552 0.72871 0.67180
 N45 N 0.70969 0.73981 0.67758
 C46 C 0.70765 0.75555 0.66398
 C47 C 0.72294 0.75431 0.64888
 C48 C 0.73393 0.73705 0.65445
 H49 H 0.69584 0.76701 0.66497
 H50 H 0.74720 0.73101 0.64654
 H51 H 0.70366 0.70420 0.69473
 H52 H 0.72075 0.72130 0.71039
 N53 N 0.32415 0.77703 0.72745
 N54 N 0.31926 0.79476 0.73604
 C55 C 0.33267 0.79925 0.75119
 C56 C 0.34672 0.78347 0.75220
 C57 C 0.34079 0.76964 0.73683
 H58 H 0.33202 0.81282 0.76101
 H59 H 0.34803 0.75527 0.73270
 Cu60 Cu 0.29558 0.81016 0.72710
 Cu61 Cu 0.30848 0.76462 0.70498
 Cu62 Cu 0.26506 0.79022 0.69010
 N63 N 0.27052 0.82369 0.71892
 N64 N 0.25868 0.81567 0.70459
 C65 C 0.24246 0.82783 0.70201
 C66 C 0.24405 0.84458 0.71548
 C67 C 0.26217 0.84132 0.72599
 H68 H 0.23050 0.82460 0.69101
 H69 H 0.26882 0.85093 0.73798
 N70 N 0.27391 0.76430 0.67713
 N71 N 0.29057 0.75457 0.68255
 C72 C 0.29260 0.73762 0.67048
 C73 C 0.27634 0.73663 0.65688
 C74 C 0.26486 0.75383 0.66158
 H75 H 0.30493 0.72676 0.67157
 H76 H 0.25112 0.75862 0.65393
 H77 H 0.29636 0.79168 0.69385
 H78 H 0.28134 0.77758 0.71449
 N79 N 0.82473 0.27740 0.22618
 N80 N 0.81799 0.29226 0.23831
 C81 C 0.83132 0.29527 0.25393
 C82 C 0.84740 0.28159 0.25136
 C83 C 0.84250 0.27055 0.23349
 H84 H 0.82954 0.30676 0.26605
 H85 H 0.85101 0.25822 0.22629
 Cu86 Cu 0.79264 0.30642 0.23201
 Cu87 Cu 0.81008 0.26751 0.20196
 Cu88 Cu 0.76578 0.29263 0.18938
 N89 N 0.76828 0.32126 0.22366
 N90 N 0.75792 0.31563 0.20713
 C91 C 0.74207 0.32836 0.20478
 C92 C 0.74241 0.34290 0.22065
 C93 C 0.75935 0.33790 0.23235
 H94 H 0.73134 0.32732 0.19215
 H95 H 0.76476 0.34578 0.24613
 N96 N 0.77623 0.26901 0.17328
 N97 N 0.79325 0.25957 0.17804
 C98 C 0.79647 0.24421 0.16426
 C99 C 0.78072 0.24389 0.15007
 C100 C 0.76815 0.25987 0.15632
 H101 H 0.80924 0.23385 0.16470
 H102 H 0.75424 0.26461 0.14896
 H103 H 0.79646 0.29554 0.19572
 H104 H 0.78140 0.27650 0.21177
 N105 N 0.82918 0.72506 0.27145
 N106 N 0.82447 0.70798 0.26141
 C107 C 0.83869 0.70444 0.24659
 C108 C 0.85317 0.72012 0.24729
 C109 C 0.84658 0.73303 0.26325
 H110 H 0.83849 0.69145 0.23599
 H111 H 0.85411 0.74689 0.26881
 Cu112 Cu 0.80044 0.69172 0.26879
 Cu113 Cu 0.81270 0.73502 0.29497
 Cu114 Cu 0.76996 0.70551 0.30856
 N115 N 0.77632 0.67555 0.27616
 N116 N 0.76445 0.68098 0.29181
 C117 C 0.74912 0.66708 0.29379
 C118 C 0.75151 0.65205 0.27852
 C119 C 0.76898 0.65802 0.26763
 H120 H 0.73721 0.66791 0.30554
 H121 H 0.77599 0.65010 0.25460
 N122 N 0.77803 0.73083 0.32357
 N123 N 0.79406 0.74227 0.31830
 C124 C 0.79538 0.75838 0.33162
 C125 C 0.77950 0.75691 0.34602
 C126 C 0.76883 0.73926 0.34037
 H127 H 0.80727 0.77008 0.33116
 H128 H 0.75528 0.73306 0.34790
 H129 H 0.80127 0.70643 0.30383
 H130 H 0.78557 0.72186 0.28557
 N131 N 0.32340 0.22400 -0.22770
 N132 N 0.31661 0.20841 -0.23888
 C133 C 0.32970 0.20494 -0.25480
 C134 C 0.34575 0.21908 -0.25362
 C135 C 0.34110 0.23094 -0.23610
 H136 H 0.32767 0.19286 -0.26625
 H137 H 0.34981 0.24374 -0.22984
 Cu138 Cu 0.29148 0.19385 -0.23140
 Cu139 Cu 0.30865 0.23419 -0.20314
 Cu140 Cu 0.26356 0.20859 -0.18999
 N141 N 0.26604 0.17980 -0.22400
 N142 N 0.25525 0.18568 -0.20770
 C143 C 0.23865 0.17344 -0.20578
 C144 C 0.23894 0.15897 -0.22174
 C145 C 0.25662 0.16354 -0.23301
 H146 H 0.22736 0.17489 -0.19347
 H147 H 0.26229 0.15558 -0.24668
 N148 N 0.27436 0.23210 -0.17396
 N149 N 0.29142 0.24203 -0.17891
 C150 C 0.29430 0.25750 -0.16507
 C151 C 0.27831 0.25721 -0.15070
 C152 C 0.26602 0.24089 -0.15692
 H153 H 0.30712 0.26813 -0.16538
 H154 H 0.25180 0.23597 -0.14976
 H155 H 0.29461 0.20650 -0.19570
 H156 H 0.28021 0.22452 -0.21266
 N157 N 0.67324 0.27871 -0.22085
 N158 N 0.68062 0.29140 -0.23513
 C159 C 0.66779 0.29184 -0.25138
 C160 C 0.65128 0.27878 -0.24702
 C161 C 0.65536 0.27084 -0.22734
 H162 H 0.67030 0.30116 -0.26518
 H163 H 0.64634 0.25985 -0.21839
 Cu164 Cu 0.70613 0.30635 -0.23080
 Cu165 Cu 0.68754 0.27312 -0.19500
 Cu166 Cu 0.73885 0.28634 -0.19683
 N167 N 0.73200 0.32004 -0.22490
 N168 N 0.74484 0.31192 -0.21170
 C169 C 0.76173 0.32383 -0.21086
 C170 C 0.75933 0.34046 -0.22414
 C171 C 0.74025 0.33756 -0.23282
 H172 H 0.77462 0.32077 -0.20101
 H173 H 0.73310 0.34726 -0.24429
 N174 N 0.72719 0.26661 -0.17658
 N175 N 0.70760 0.26192 -0.17551
 C176 C 0.70442 0.24826 -0.15992
 C177 C 0.72291 0.24431 -0.15059
 C178 C 0.73699 0.25628 -0.16157
 H179 H 0.68971 0.24173 -0.15567
 H180 H 0.75320 0.25734 -0.15893
 H181 H 0.70996 0.29647 -0.19430
 H182 H 0.71335 0.27420 -0.21251
 N183 N 0.17565 0.77809 0.26846
 N184 N 0.18457 0.79187 0.25624
 C185 C 0.17346 0.79404 0.23883
 C186 C 0.15662 0.78098 0.24033
 C187 C 0.15854 0.77113 0.25936
 H188 H 0.17721 0.80451 0.22616
 H189 H 0.14845 0.75945 0.26593
 Cu190 Cu 0.20967 0.80594 0.26425
 Cu191 Cu 0.18719 0.76942 0.29478
 Cu192 Cu 0.22843 0.79765 0.31231
 N193 N 0.23045 0.82395 0.27625
 N194 N 0.23772 0.82050 0.29493
 C195 C 0.25187 0.83496 0.29933
 C196 C 0.25369 0.84845 0.28253
 C197 C 0.23974 0.84085 0.26812
 H198 H 0.26026 0.83536 0.31373
 H199 H 0.23634 0.84717 0.25295
 N200 N 0.21686 0.77392 0.32767
 N201 N 0.20116 0.76304 0.32096
 C202 C 0.19740 0.74738 0.33436
 C203 C 0.21144 0.74845 0.35034
 C204 C 0.22348 0.76556 0.34554
 H205 H 0.18565 0.73576 0.33230
 H206 H 0.23634 0.77139 0.35421
 H207 H 0.19938 0.79845 0.29999
 H208 H 0.21701 0.77845 0.28908
 N209 N 0.47209 0.42038 0.48130
 N210 N 0.45704 0.42766 0.49272
 C211 C 0.45383 0.41515 0.50924
 C212 C 0.46765 0.39918 0.50822
 C213 C 0.47903 0.40305 0.49024
 H214 H 0.44240 0.41761 0.52123
 H215 H 0.49131 0.39385 0.48397
 Cu216 Cu 0.44297 0.45269 0.48506
 Cu217 Cu 0.48134 0.43390 0.45571
 Cu218 Cu 0.45589 0.47816 0.44092
 N219 N 0.42845 0.47700 0.47606
 N220 N 0.43348 0.48697 0.45887
 C221 C 0.42064 0.50283 0.45632
 C222 C 0.40673 0.50278 0.47281
 C223 C 0.41226 0.48612 0.48501
 H224 H 0.42128 0.51341 0.44326
 H225 H 0.40495 0.48081 0.49924
 N226 N 0.47893 0.46673 0.42484
 N227 N 0.48846 0.44977 0.43037
 C228 C 0.50330 0.44588 0.41626
 C229 C 0.50319 0.46115 0.40114
 C230 C 0.48752 0.47411 0.40712
 H231 H 0.51365 0.43306 0.41713
 H232 H 0.48263 0.48782 0.39906
 H233 H 0.47229 0.46339 0.46377
 H234 H 0.45365 0.44723 0.44892
 N235 N -0.02860 -0.07256 0.97798
 N236 N -0.04552 -0.06769 0.98787
 C237 C -0.04947 -0.08199 1.00274
 C238 C -0.03412 -0.09654 1.00217
 C239 C -0.02118 -0.09000 0.98620
 H240 H -0.06236 -0.08165 1.01338
 H241 H -0.00741 -0.09740 0.98083
 Cu242 Cu -0.06045 -0.04291 0.98054
 Cu243 Cu -0.01721 -0.05601 0.95524
 Cu244 Cu -0.04388 -0.01252 0.94103
 N245 N -0.07551 -0.01863 0.97188
 N246 N -0.06885 -0.00692 0.95645
 C247 C -0.08191 0.00861 0.95351
 C248 C -0.09776 0.00663 0.96785
 C249 C -0.09315 -0.01088 0.97930
 H250 H -0.07990 0.02048 0.94180
 H251 H -0.10205 -0.01761 0.99193
 N252 N -0.01830 -0.02074 0.92726
 N253 N -0.00813 -0.03733 0.93262
 C254 C 0.00849 -0.03887 0.92020
 C255 C 0.00882 -0.02242 0.90633
 C256 C -0.00845 -0.01128 0.91132
 H257 H 0.01955 -0.05104 0.92122
 H258 H -0.01365 0.00255 0.90370
 H259 H -0.02956 -0.02822 0.96465
 H260 H -0.04475 -0.04407 0.94588
 N261 N 1.02364 0.57356 0.97728
 N262 N 1.04075 0.56954 0.98683
 C263 C 1.04304 0.58285 1.00286
 C264 C 1.02639 0.59589 1.00341
 C265 C 1.01445 0.58948 0.98688
 H266 H 1.05568 0.58278 1.01353
 H267 H 1.00014 0.59596 0.98208
 Cu268 Cu 1.05827 0.54704 0.97778
 Cu269 Cu 1.01438 0.55783 0.95323
 Cu270 Cu 1.04100 0.51366 0.94132
 N271 N 1.07115 0.52047 0.97280
 N272 N 1.06386 0.50725 0.95912
 C273 C 1.07526 0.49011 0.95915
 C274 C 1.09067 0.49274 0.97349
 C275 C 1.08764 0.51225 0.98184
 H276 H 1.07284 0.47691 0.94908
 H277 H 1.09661 0.51979 0.99373
 N278 N 1.01753 0.52286 0.92504
 N279 N 1.00743 0.53982 0.92949
 C280 C 0.99240 0.54205 0.91556
 C281 C 0.99304 0.52568 0.90160
 C282 C 1.00923 0.51385 0.90816
 H283 H 0.98186 0.55475 0.91555
 H284 H 1.01456 0.49965 0.90124
 H285 H 1.02735 0.53110 0.96454
 H286 H 1.04202 0.54552 0.94375
 N287 N 0.52540 0.07156 0.48523
 N288 N 0.54173 0.06497 0.49469
 C289 C 0.54527 0.07697 0.51149
 C290 C 0.53031 0.09193 0.51267
 C291 C 0.51799 0.08794 0.49564
 H292 H 0.55777 0.07491 0.52208
 H293 H 0.50460 0.09628 0.49106
 Cu294 Cu 0.55658 0.04124 0.48407
 Cu295 Cu 0.51482 0.05836 0.46018
 Cu296 Cu 0.54134 0.01627 0.44078
 N297 N 0.57152 0.01781 0.47296
 N298 N 0.56552 0.00809 0.45605
 C299 C 0.57844 -0.00743 0.45188
 C300 C 0.59339 -0.00751 0.46702
 C301 C 0.58844 0.00879 0.48011
 H302 H 0.57692 -0.01796 0.43887
 H303 H 0.59661 0.01383 0.49378
 N304 N 0.51651 0.02699 0.42765
 N305 N 0.50648 0.04301 0.43505
 C306 C 0.49030 0.04649 0.42287
 C307 C 0.49004 0.03198 0.40697
 C308 C 0.50694 0.01987 0.41054
 H309 H 0.47937 0.05859 0.42553
 H310 H 0.51199 0.00690 0.40128
 H311 H 0.52625 0.02921 0.46587
 H312 H 0.54243 0.04692 0.44954
 N313 N -0.02540 0.08038 0.52306
 N314 N -0.04080 0.07365 0.51194
 C315 C -0.04418 0.08720 0.49639
 C316 C -0.03017 0.10332 0.49793
 C317 C -0.01851 0.09840 0.51507
 H318 H -0.05614 0.08564 0.48502
 H319 H -0.00580 0.10718 0.52118
 Cu320 Cu -0.05527 0.04811 0.51921
 Cu321 Cu -0.01521 0.06533 0.54694
 Cu322 Cu -0.04108 0.02062 0.56136
 N323 N -0.07027 0.02352 0.52843
 N324 N -0.06464 0.01286 0.54480
 C325 C -0.07769 -0.00310 0.54774
 C326 C -0.09240 -0.00245 0.53243
 C327 C -0.08717 0.01470 0.52045
 H328 H -0.07670 -0.01414 0.56034
 H329 H -0.09504 0.02033 0.50689
 N330 N -0.01687 0.03101 0.57616
 N331 N -0.00706 0.04808 0.57064
 C332 C 0.00868 0.05113 0.58362
 C333 C 0.00885 0.03523 0.59811
 C334 C -0.00763 0.02276 0.59283
 H335 H 0.01931 0.06395 0.58248
 H336 H -0.01264 0.00876 0.60062
 H337 H -0.02547 0.03626 0.53805
 H338 H -0.04306 0.05175 0.55487
 N339 N 0.47801 0.57413 0.02439
 N340 N 0.46192 0.56880 0.01352
 C341 C 0.45952 0.58263 -0.00198
 C342 C 0.47493 0.59745 -0.00077
 C343 C 0.48634 0.59146 0.01623
 H344 H 0.44743 0.58195 -0.01328
 H345 H 0.49988 0.59896 0.02215
 Cu346 Cu 0.44592 0.54412 0.02065
 Cu347 Cu 0.48737 0.55811 0.04814
 Cu348 Cu 0.45945 0.51414 0.06092
 N349 N 0.43029 0.51932 0.02824
 N350 N 0.43591 0.50770 0.04394
 C351 C 0.42299 0.49155 0.04588
 C352 C 0.40836 0.49297 0.03060
 C353 C 0.41345 0.51088 0.01968
 H354 H 0.42406 0.47977 0.05776
 H355 H 0.40561 0.51714 0.00639
 N356 N 0.48369 0.52308 0.07636
 N357 N 0.49438 0.53984 0.07161
 C358 C 0.50996 0.54166 0.08504
 C359 C 0.50905 0.52520 0.09892
 C360 C 0.49215 0.51380 0.09288
 H361 H 0.52122 0.55397 0.08463
 H362 H 0.48629 0.49984 0.10008
 H363 H 0.47564 0.53021 0.03806
 H364 H 0.45923 0.54576 0.05602
 N365 N 0.51898 -0.07813 0.01973
 N366 N 0.53574 -0.07310 0.00943
 C367 C 0.53827 -0.08649 -0.00652
 C368 C 0.52219 -0.10067 -0.00615
 C369 C 0.51033 -0.09477 0.01080
 H370 H 0.55081 -0.08589 -0.01759
 H371 H 0.49640 -0.10201 0.01637
 Cu372 Cu 0.55240 -0.04942 0.01802
 Cu373 Cu 0.50917 -0.06284 0.04384
 Cu374 Cu 0.53739 -0.02008 0.05878
 N375 N 0.56761 -0.02466 0.02631
 N376 N 0.56158 -0.01347 0.04230
 C377 C 0.57440 0.00266 0.04468
 C378 C 0.58939 0.00172 0.02935
 C379 C 0.58459 -0.01592 0.01795
 H380 H 0.57286 0.01419 0.05678
 H381 H 0.59267 -0.02180 0.00445
 N382 N 0.51245 -0.02916 0.07355
 N383 N 0.50164 -0.04545 0.06783
 C384 C 0.48530 -0.04736 0.08061
 C385 C 0.48579 -0.03148 0.09513
 C386 C 0.50330 -0.02029 0.09013
 H387 H 0.47381 -0.05936 0.07928
 H388 H 0.50893 -0.00657 0.09784
 H389 H 0.52224 -0.03497 0.03481
 H390 H 0.53719 -0.05147 0.05292
 N391 N 1.03224 0.42396 0.52281
 N392 N 1.04878 0.42954 0.51238
 C393 C 1.05234 0.41563 0.49715
 C394 C 1.03721 0.40055 0.49803
 C395 C 1.02470 0.40639 0.51452
 H396 H 1.06481 0.41659 0.48600
 H397 H 1.01121 0.39838 0.52022
 Cu398 Cu 1.06388 0.45466 0.51929
 Cu399 Cu 1.02177 0.43971 0.54647
 Cu400 Cu 1.04722 0.48527 0.55818
 N401 N 1.07738 0.48084 0.52576
 N402 N 1.07057 0.49274 0.54085
 C403 C 1.08259 0.50960 0.54232
 C404 C 1.09792 0.50834 0.52735
 C405 C 1.09406 0.48982 0.51707
 H406 H 1.08036 0.52174 0.55367
 H407 H 1.10285 0.48322 0.50441
 N408 N 1.02336 0.47528 0.57410
 N409 N 1.01364 0.45787 0.56982
 C410 C 0.99847 0.45510 0.58396
 C411 C 0.99873 0.47155 0.59786
 C412 C 1.01470 0.48403 0.59100
 H413 H 0.98828 0.44187 0.58436
 H414 H 1.01976 0.49841 0.59785
 H415 H 1.03276 0.46759 0.53549
 H416 H 1.04903 0.45343 0.55439
 Si417 Si 0.37169 0.00291 0.25307
 Si418 Si 0.12867 -0.00222 0.74921
 Si419 Si 0.62911 0.49972 0.25226
 Si420 Si 0.87230 0.49978 0.74823
 Si421 Si 0.24823 0.38305 -0.00009
 Si422 Si 0.74590 0.11839 0.00015
 Si423 Si 0.25528 0.62291 0.49628
 Si424 Si 0.75111 0.88245 0.49806
 Si425 Si -0.00307 0.25381 0.37146
 Si426 Si 0.00366 0.75233 0.12288
 Si427 Si 0.50289 0.24881 0.63076
 Si428 Si 0.49805 0.74685 0.86934
 C429 C 0.13883 0.22377 0.29249
 C430 C 0.12285 0.22763 0.30653
 C431 C 0.10499 0.23711 0.29977
 C432 C 0.10363 0.24323 0.27876
 C433 C 0.11975 0.23967 0.26477
 C434 C 0.13746 0.22975 0.27145
 C435 C 0.08836 0.24090 0.31509
 C436 C 0.06863 0.24048 0.30990
 C437 C 0.05190 0.24362 0.32527
 C438 C 0.03302 0.23386 0.32196
 C439 C 0.01682 0.23670 0.33599
 C440 C 0.01907 0.24966 0.35339
 C441 C 0.03780 0.25976 0.35655
 C442 C 0.05413 0.25669 0.34269
 H443 H 0.15236 0.21634 0.29819
 H444 H 0.12435 0.22297 0.32269
 H445 H 0.09027 0.25107 0.27317
 H446 H 0.11823 0.24445 0.24867
 H447 H 0.09249 0.24275 0.33132
 H448 H 0.06445 0.23648 0.29407
 H449 H 0.03084 0.22391 0.30855
 H450 H 0.00240 0.22901 0.33304
 H451 H 0.03990 0.27011 0.36961
 H452 H 0.06830 0.26494 0.34537
 C453 C 0.63820 0.71128 0.78784
 C454 C 0.62177 0.71322 0.80171
 C455 C 0.60561 0.72641 0.79722
 C456 C 0.60650 0.73809 0.77865
 C457 C 0.62299 0.73616 0.76474
 C458 C 0.63899 0.72261 0.76910
 C459 C 0.58860 0.72792 0.81261
 C460 C 0.56996 0.73467 0.80787
 C461 C 0.55285 0.73625 0.82319
 C462 C 0.53308 0.73888 0.81555
 C463 C 0.51658 0.74150 0.82924
 C464 C 0.51955 0.74175 0.85087
 C465 C 0.53910 0.73848 0.85865
 C466 C 0.55567 0.73598 0.84499
 H467 H 0.65030 0.70092 0.79200
 H468 H 0.62164 0.70423 0.81599
 H469 H 0.59472 0.74897 0.77489
 H470 H 0.62308 0.74523 0.75055
 H471 H 0.59151 0.72228 0.82817
 H472 H 0.56669 0.73866 0.79185
 H473 H 0.53039 0.73907 0.79889
 H474 H 0.50159 0.74349 0.82278
 H475 H 0.54164 0.73846 0.87534
 H476 H 0.57059 0.73443 0.85170
 C477 C 0.37104 0.79880 0.77816
 C478 C 0.38752 0.79703 0.79167
 C479 C 0.39727 0.77803 0.79423
 C480 C 0.39043 0.76087 0.78266
 C481 C 0.37402 0.76265 0.76910
 C482 C 0.36410 0.78162 0.76669
 C483 C 0.41501 0.77687 0.80828
 C484 C 0.42067 0.75929 0.81757
 C485 C 0.43890 0.75754 0.83090
 C486 C 0.44002 0.74079 0.84476
 C487 C 0.45743 0.73775 0.85668
 C488 C 0.47418 0.75125 0.85469
 C489 C 0.47301 0.76825 0.84123
 C490 C 0.45561 0.77134 0.82930
 H491 H 0.36396 0.81371 0.77655
 H492 H 0.39264 0.81055 0.80020
 H493 H 0.39795 0.74612 0.78366
 H494 H 0.36914 0.74907 0.76057
 H495 H 0.42313 0.79114 0.81155
 H496 H 0.41129 0.74554 0.81586
 H497 H 0.42741 0.72992 0.84628
 H498 H 0.45775 0.72472 0.86721
 H499 H 0.48580 0.77888 0.83957
 H500 H 0.45563 0.78414 0.81845
 C501 C -0.11953 0.26566 0.25771
 C502 C -0.10220 0.26331 0.26982
 C503 C -0.10000 0.27415 0.28858
 C504 C -0.11539 0.28785 0.29485
 C505 C -0.13272 0.29043 0.28258
 C506 C -0.13515 0.27927 0.26382
 C507 C -0.08116 0.27115 0.30066
 C508 C -0.08010 0.27347 0.32142
 C509 C -0.06132 0.26903 0.33317
 C510 C -0.06301 0.26215 0.35392
 C511 C -0.04559 0.25741 0.36525
 C512 C -0.02620 0.25958 0.35605
 C513 C -0.02440 0.26710 0.33559
 C514 C -0.04179 0.27175 0.32421
 H515 H -0.12032 0.25683 0.24341
 H516 H -0.09048 0.25280 0.26455
 H517 H -0.11394 0.29687 0.30900
 H518 H -0.14417 0.30112 0.28799
 H519 H -0.06805 0.26535 0.29217
 H520 H -0.09370 0.27724 0.33030
 H521 H -0.07785 0.26020 0.36127
 H522 H -0.04730 0.25208 0.38120
 H523 H -0.00958 0.26968 0.32843
 H524 H -0.03985 0.27780 0.30855
 C525 C -0.12070 0.70489 0.22318
 C526 C -0.10356 0.70673 0.21018
 C527 C -0.09372 0.72589 0.20739
 C528 C -0.10103 0.74315 0.21847
 C529 C -0.11814 0.74127 0.23163
 C530 C -0.12830 0.72216 0.23394
 C531 C -0.07572 0.72705 0.19322
 C532 C -0.06983 0.74436 0.18323
 C533 C -0.05233 0.74532 0.16836
 C534 C -0.05175 0.76108 0.15331
 C535 C -0.03536 0.76287 0.13928
 C536 C -0.01920 0.74894 0.14007
 C537 C -0.01954 0.73332 0.15523
 C538 C -0.03596 0.73147 0.16926
 H539 H -0.12787 0.68983 0.22487
 H540 H -0.09810 0.69315 0.20206
 H541 H -0.09347 0.75804 0.21723
 H542 H -0.12355 0.75485 0.23975
 H543 H -0.06796 0.71273 0.18990
 H544 H -0.07881 0.75819 0.18502
 H545 H -0.06400 0.77212 0.15245
 H546 H -0.03525 0.77545 0.12818
 H547 H -0.00693 0.72277 0.15644
 H548 H -0.03543 0.71957 0.18109
 C549 C 0.36494 0.20783 0.71530
 C550 C 0.38189 0.20949 0.70198
 C551 C 0.39728 0.22418 0.70567
 C552 C 0.39548 0.23706 0.72330
 C553 C 0.37848 0.23549 0.73662
 C554 C 0.36288 0.22083 0.73287
 C555 C 0.41508 0.22504 0.69111
 C556 C 0.42790 0.24130 0.68949
 C557 C 0.44563 0.24230 0.67484
 C558 C 0.45474 0.26166 0.67082
 C559 C 0.47171 0.26344 0.65757
 C560 C 0.48003 0.24588 0.64810
 C561 C 0.47099 0.22651 0.65191
 C562 C 0.45406 0.22466 0.66529
 H563 H 0.35353 0.19629 0.71156
 H564 H 0.38291 0.19924 0.68863
 H565 H 0.40727 0.24815 0.72721
 H566 H 0.37787 0.24571 0.74996
 H567 H 0.41698 0.21199 0.68074
 H568 H 0.42498 0.25500 0.69867
 H569 H 0.44868 0.27551 0.67798
 H570 H 0.47839 0.27858 0.65477
 H571 H 0.47706 0.21271 0.64480
 H572 H 0.44799 0.20934 0.66830
 C573 C 0.61792 0.26211 0.74783
 C574 C 0.60089 0.25823 0.73551
 C575 C 0.59976 0.26626 0.71525
 C576 C 0.61597 0.27855 0.70757
 C577 C 0.63295 0.28266 0.71996
 C578 C 0.63424 0.27453 0.74035
 C579 C 0.58104 0.26240 0.70309
 C580 C 0.58066 0.26216 0.68215
 C581 C 0.56169 0.25854 0.67031
 C582 C 0.56286 0.24968 0.65032
 C583 C 0.54522 0.24639 0.63866
 C584 C 0.52616 0.25206 0.64676
 C585 C 0.52496 0.26124 0.66654
 C586 C 0.54254 0.26448 0.67823
 H587 H 0.61795 0.25555 0.76335
 H588 H 0.58851 0.24886 0.74185
 H589 H 0.61540 0.28544 0.69220
 H590 H 0.64500 0.29223 0.71336
 H591 H 0.56725 0.25874 0.71184
 H592 H 0.59477 0.26372 0.67333
 H593 H 0.57744 0.24523 0.64374
 H594 H 0.54652 0.23964 0.62323
 H595 H 0.51053 0.26622 0.67294
 H596 H 0.54112 0.27208 0.69322
 C597 C 0.14356 0.78222 0.20370
 C598 C 0.12813 0.77870 0.18920
 C599 C 0.10894 0.77126 0.19574
 C600 C 0.10557 0.76695 0.21703
 C601 C 0.12106 0.77019 0.23147
 C602 C 0.14020 0.77790 0.22497
 C603 C 0.09299 0.76738 0.18005
 C604 C 0.07311 0.76962 0.18436
 C605 C 0.05702 0.76550 0.16890
 C606 C 0.03893 0.77678 0.17005
 C607 C 0.02321 0.77288 0.15603
 C608 C 0.02518 0.75738 0.14087
 C609 C 0.04307 0.74578 0.13992
 C610 C 0.05895 0.74989 0.15373
 H611 H 0.15823 0.78794 0.19819
 H612 H 0.13114 0.78191 0.17284
 H613 H 0.09111 0.76067 0.22251
 H614 H 0.11797 0.76673 0.24774
 H615 H 0.09785 0.76351 0.16431
 H616 H 0.06842 0.77559 0.19946
 H617 H 0.03703 0.78873 0.18174
 H618 H 0.00944 0.78189 0.15710
 H619 H 0.04482 0.73344 0.12870
 H620 H 0.07247 0.74049 0.15287
 C621 C 0.25920 0.12174 0.24269
 C622 C 0.27120 0.10452 0.24660
 C623 C 0.28955 0.10154 0.23561
 C624 C 0.29550 0.11609 0.22031
 C625 C 0.28346 0.13333 0.21637
 C626 C 0.26516 0.13640 0.22754
 C627 C 0.30145 0.08271 0.24007
 C628 C 0.32134 0.08072 0.23549
 C629 C 0.33296 0.06175 0.24012
 C630 C 0.35423 0.06320 0.24201
 C631 C 0.36571 0.04562 0.24613
 C632 C 0.35612 0.02629 0.24846
 C633 C 0.33497 0.02466 0.24613
 C634 C 0.32347 0.04219 0.24197
 H635 H 0.24513 0.12335 0.25145
 H636 H 0.26612 0.09346 0.25830
 H637 H 0.30921 0.11409 0.21104
 H638 H 0.28856 0.14423 0.20456
 H639 H 0.29354 0.07037 0.24834
 H640 H 0.32979 0.09371 0.22900
 H641 H 0.36197 0.07799 0.24035
 H642 H 0.38210 0.04710 0.24743
 H643 H 0.32725 0.00984 0.24715
 H644 H 0.30727 0.04020 0.23972
 C645 C 0.76171 0.61843 0.73564
 C646 C 0.77357 0.60095 0.73866
 C647 C 0.79126 0.59777 0.72666
 C648 C 0.79670 0.61239 0.71123
 C649 C 0.78480 0.62992 0.70820
 C650 C 0.76717 0.63318 0.72039
 C651 C 0.80309 0.57878 0.73046
 C652 C 0.82263 0.57635 0.72467
 C653 C 0.83424 0.55747 0.72959
 C654 C 0.85554 0.55882 0.73100
 C655 C 0.86687 0.54147 0.73636
 C656 C 0.85706 0.52254 0.74050
 C657 C 0.83591 0.52089 0.73815
 C658 C 0.82459 0.53816 0.73272
 H659 H 0.74818 0.62017 0.74523
 H660 H 0.76891 0.58987 0.75052
 H661 H 0.80989 0.61027 0.70123
 H662 H 0.78950 0.64086 0.69627
 H663 H 0.79554 0.56676 0.73951
 H664 H 0.83092 0.58900 0.71733
 H665 H 0.86341 0.57340 0.72828
 H666 H 0.88327 0.54291 0.73758
 H667 H 0.82803 0.50628 0.74031
 H668 H 0.80834 0.53620 0.73077
 C669 C 0.79489 0.35482 0.77518
 C670 C 0.80872 0.37108 0.77176
 C671 C 0.80188 0.39056 0.76556
 C672 C 0.78094 0.39336 0.76226
 C673 C 0.76713 0.37701 0.76539
 C674 C 0.77396 0.35763 0.77203
 C675 C 0.81700 0.40733 0.76191
 C676 C 0.81278 0.42734 0.76486
 C677 C 0.82797 0.44407 0.76123
 C678 C 0.82653 0.46237 0.77289
 C679 C 0.84026 0.47870 0.76937
 C680 C 0.85526 0.47722 0.75372
 C681 C 0.85693 0.45890 0.74219
 C682 C 0.84336 0.44246 0.74585
 H683 H 0.80064 0.33999 0.78004
 H684 H 0.82480 0.36849 0.77416
 H685 H 0.77522 0.40804 0.75694
 H686 H 0.75109 0.37962 0.76287
 H687 H 0.83238 0.40290 0.75776
 H688 H 0.79802 0.43164 0.77110
 H689 H 0.81475 0.46402 0.78475
 H690 H 0.83884 0.49271 0.77852
 H691 H 0.86853 0.45725 0.73020
 H692 H 0.84463 0.42877 0.73624
 C693 C 0.27907 -0.12790 0.29755
 C694 C 0.29189 -0.11061 0.29591
 C695 C 0.29306 -0.09917 0.27738
 C696 C 0.28076 -0.10512 0.26052
 C697 C 0.26777 -0.12237 0.26217
 C698 C 0.26674 -0.13412 0.28072
 C699 C 0.30669 -0.08079 0.27654
 C700 C 0.31511 -0.07353 0.25879
 C701 C 0.32902 -0.05533 0.25812
 C702 C 0.34320 -0.05357 0.24162
 C703 C 0.35627 -0.03642 0.24018
 C704 C 0.35512 -0.02053 0.25501
 C705 C 0.34115 -0.02229 0.27163
 C706 C 0.32808 -0.03945 0.27313
 H707 H 0.27885 -0.13611 0.31223
 H708 H 0.30106 -0.10622 0.30919
 H709 H 0.28082 -0.09629 0.24618
 H710 H 0.25863 -0.12635 0.24880
 H711 H 0.31078 -0.07379 0.29129
 H712 H 0.31265 -0.08179 0.24431
 H713 H 0.34422 -0.06556 0.22985
 H714 H 0.36717 -0.03568 0.22741
 H715 H 0.34013 -0.01022 0.28331
 H716 H 0.31702 -0.03994 0.28577
 C717 C 0.21228 -0.13829 0.70606
 C718 C 0.19870 -0.12198 0.70828
 C719 C 0.20258 -0.10586 0.72233
 C720 C 0.22064 -0.10621 0.73395
 C721 C 0.23425 -0.12256 0.73179
 C722 C 0.23031 -0.13892 0.71781
 C723 C 0.18776 -0.08878 0.72380
 C724 C 0.18634 -0.07602 0.74025
 C725 C 0.17154 -0.05891 0.74176
 C726 C 0.16742 -0.05039 0.76151
 C727 C 0.15423 -0.03375 0.76367
 C728 C 0.14489 -0.02533 0.74612
 C729 C 0.14888 -0.03369 0.72634
 C730 C 0.16216 -0.05030 0.72412
 H731 H 0.20839 -0.15033 0.69506
 H732 H 0.18501 -0.12203 0.69900
 H733 H 0.22461 -0.09374 0.74444
 H734 H 0.24793 -0.12208 0.74103
 H735 H 0.17708 -0.08742 0.71116
 H736 H 0.19582 -0.07858 0.75369
 H737 H 0.17454 -0.05655 0.77532
 H738 H 0.15152 -0.02727 0.77904
 H739 H 0.14215 -0.02709 0.71254
 H740 H 0.16540 -0.05585 0.70853
 C741 C 0.70957 0.36067 0.21293
 C742 C 0.69626 0.37720 0.21532
 C743 C 0.70090 0.39365 0.22878
 C744 C 0.71934 0.39323 0.23980
 C745 C 0.73269 0.37665 0.23741
 C746 C 0.72802 0.36021 0.22385
 C747 C 0.68653 0.41118 0.23004
 C748 C 0.68592 0.42476 0.24588
 C749 C 0.67152 0.44230 0.24684
 C750 C 0.66712 0.45126 0.26633
 C751 C 0.65413 0.46816 0.26787
 C752 C 0.64537 0.47648 0.24994
 C753 C 0.64974 0.46773 0.23042
 C754 C 0.66276 0.45083 0.22883
 H755 H 0.70528 0.34826 0.20250
 H756 H 0.68223 0.37712 0.20656
 H757 H 0.72383 0.40586 0.24987
 H758 H 0.74686 0.37698 0.24588
 H759 H 0.67547 0.41229 0.21770
 H760 H 0.69569 0.42260 0.25917
 H761 H 0.67379 0.44517 0.28041
 H762 H 0.65108 0.47489 0.28307
 H763 H 0.64351 0.47419 0.21631
 H764 H 0.66630 0.44493 0.21342
 C765 C 0.74216 0.62064 0.25747
 C766 C 0.73004 0.60313 0.25401
 C767 C 0.71383 0.59814 0.26760
 C768 C 0.71021 0.61085 0.28506
 C769 C 0.72238 0.62835 0.28857
 C770 C 0.73850 0.63351 0.27479
 C771 C 0.70157 0.57926 0.26346
 C772 C 0.68225 0.57673 0.27007
 C773 C 0.66997 0.55795 0.26555
 C774 C 0.64869 0.55950 0.26500
 C775 C 0.63660 0.54211 0.26092
 C776 C 0.64554 0.52278 0.25763
 C777 C 0.66678 0.52111 0.25835
 C778 C 0.67892 0.53852 0.26236
 H779 H 0.75436 0.62400 0.24645
 H780 H 0.73325 0.59351 0.24054
 H781 H 0.69829 0.60713 0.29629
 H782 H 0.71921 0.63764 0.30223
 H783 H 0.70845 0.56758 0.25362
 H784 H 0.67467 0.58926 0.27808
 H785 H 0.64142 0.57425 0.26755
 H786 H 0.62021 0.54373 0.26036
 H787 H 0.67409 0.50641 0.25587
 H788 H 0.69523 0.53659 0.26328
 C789 C 0.20611 0.14028 0.78684
 C790 C 0.19226 0.12405 0.78371
 C791 C 0.19591 0.10910 0.76831
 C792 C 0.21342 0.11112 0.75556
 C793 C 0.22729 0.12735 0.75869
 C794 C 0.22393 0.14204 0.77451
 C795 C 0.18103 0.09186 0.76592
 C796 C 0.18599 0.07350 0.75771
 C797 C 0.17162 0.05572 0.75609
 C798 C 0.17972 0.03591 0.75343
 C799 C 0.16692 0.01866 0.75157
 C800 C 0.14570 0.02085 0.75228
 C801 C 0.13748 0.04062 0.75472
 C802 C 0.15028 0.05795 0.75654
 H803 H 0.20276 0.15135 0.79902
 H804 H 0.17877 0.12301 0.79358
 H805 H 0.21643 0.10037 0.74299
 H806 H 0.24067 0.12822 0.74871
 H807 H 0.16593 0.09408 0.77244
 H808 H 0.20161 0.07079 0.75299
 H809 H 0.19606 0.03375 0.75283
 H810 H 0.17377 0.00369 0.74945
 H811 H 0.12113 0.04268 0.75493
 H812 H 0.14336 0.07297 0.75787
 C813 C 0.24133 0.26346 0.11755
 C814 C 0.24531 0.27629 0.10039
 C815 C 0.23364 0.29397 0.09695
 C816 C 0.21754 0.29832 0.11093
 C817 C 0.21354 0.28547 0.12811
 C818 C 0.22541 0.26788 0.13171
 C819 C 0.23832 0.30691 0.07829
 C820 C 0.23280 0.32674 0.07644
 C821 C 0.23740 0.33971 0.05776
 C822 C 0.23638 0.36131 0.05970
 C823 C 0.23992 0.37412 0.04242
 C824 C 0.24427 0.36559 0.02279
 C825 C 0.24563 0.34407 0.02078
 C826 C 0.24205 0.33122 0.03803
 H827 H 0.25076 0.25004 0.11956
 H828 H 0.25767 0.27242 0.08978
 H829 H 0.20771 0.31137 0.10852
 H830 H 0.20107 0.28941 0.13849
 H831 H 0.24746 0.29990 0.06610
 H832 H 0.22524 0.33425 0.08943
 H833 H 0.23279 0.36831 0.07465
 H834 H 0.23901 0.39071 0.04433
 H835 H 0.24933 0.33706 0.00592
 H836 H 0.24256 0.31470 0.03562
 C837 C 0.74195 0.76345 0.61578
 C838 C 0.74563 0.77637 0.59865
 C839 C 0.73442 0.79447 0.59594
 C840 C 0.71912 0.79924 0.61072
 C841 C 0.71543 0.78629 0.62792
 C842 C 0.72681 0.76821 0.63070
 C843 C 0.73885 0.80736 0.57718
 C844 C 0.73344 0.82721 0.57521
 C845 C 0.73827 0.83998 0.55643
 C846 C 0.73771 0.86159 0.55819
 C847 C 0.74181 0.87421 0.54088
 C848 C 0.74639 0.86549 0.52135
 C849 C 0.74715 0.84391 0.51956
 C850 C 0.74294 0.83126 0.53681
 H851 H 0.75098 0.74967 0.61713
 H852 H 0.75737 0.77217 0.58745
 H853 H 0.70969 0.81270 0.60897
 H854 H 0.70360 0.79050 0.63896
 H855 H 0.74784 0.80025 0.56494
 H856 H 0.72595 0.83489 0.58814
 H857 H 0.73418 0.86877 0.57307
 H858 H 0.74153 0.89076 0.54290
 H859 H 0.75090 0.83664 0.50485
 H860 H 0.74303 0.81472 0.53448
 C861 C 0.76244 0.76402 0.38047
 C862 C 0.75803 0.77709 0.39724
 C863 C 0.76601 0.79728 0.39791
 C864 C 0.77843 0.80422 0.38116
 C865 C 0.78296 0.79106 0.36441
 C866 C 0.77498 0.77083 0.36385
 C867 C 0.76053 0.81053 0.41606
 C868 C 0.77046 0.82804 0.42115
 C869 C 0.76517 0.84090 0.43963
 C870 C 0.77983 0.85494 0.44712
 C871 C 0.77564 0.86738 0.46445
 C872 C 0.75661 0.86619 0.47456
 C873 C 0.74188 0.85225 0.46714
 C874 C 0.74599 0.83985 0.44974
 H875 H 0.75616 0.74849 0.38070
 H876 H 0.74836 0.77132 0.40983
 H877 H 0.78443 0.81983 0.38059
 H878 H 0.79241 0.79691 0.35172
 H879 H 0.74833 0.80490 0.42610
 H880 H 0.78371 0.83284 0.41214
 H881 H 0.79469 0.85615 0.43965
 H882 H 0.78744 0.87775 0.46995
 H883 H 0.72714 0.85094 0.47484
 H884 H 0.73399 0.82973 0.44423
 C885 C 0.26023 0.26602 -0.11723
 C886 C 0.25627 0.27940 -0.10063
 C887 C 0.26653 0.29847 -0.09905
 C888 C 0.28127 0.30368 -0.11443
 C889 C 0.28525 0.29022 -0.13109
 C890 C 0.27466 0.27131 -0.13278
 C891 C 0.26138 0.31198 -0.08099
 C892 C 0.26783 0.33160 -0.07868
 C893 C 0.26241 0.34427 -0.06018
 C894 C 0.27605 0.35975 -0.05366
 C895 C 0.27179 0.37158 -0.03590
 C896 C 0.25376 0.36817 -0.02440
 C897 C 0.23958 0.35350 -0.03149
 C898 C 0.24388 0.34154 -0.04916
 H899 H 0.25199 0.25147 -0.11773
 H900 H 0.24500 0.27483 -0.08897
 H901 H 0.28990 0.31796 -0.11379
 H902 H 0.29647 0.29481 -0.14276
 H903 H 0.25175 0.30521 -0.06890
 H904 H 0.27801 0.33859 -0.09009
 H905 H 0.29022 0.36246 -0.06212
 H906 H 0.28267 0.38332 -0.03130
 H907 H 0.22530 0.35107 -0.02315
 H908 H 0.23259 0.33037 -0.05423
 C909 C 0.74449 0.23302 -0.12078
 C910 C 0.74815 0.22008 -0.10381
 C911 C 0.73446 0.20404 -0.09864
 C912 C 0.71671 0.20147 -0.11054
 C913 C 0.71297 0.21454 -0.12742
 C914 C 0.72685 0.23042 -0.13275
 C915 C 0.73886 0.19087 -0.08036
 C916 C 0.73194 0.17139 -0.07832
 C917 C 0.73608 0.15842 -0.05983
 C918 C 0.72215 0.14266 -0.05444
 C919 C 0.72523 0.13040 -0.03683
 C920 C 0.74232 0.13366 -0.02425
 C921 C 0.75680 0.14868 -0.03023
 C922 C 0.75371 0.16103 -0.04778
 H923 H 0.75537 0.24526 -0.12429
 H924 H 0.76180 0.22253 -0.09475
 H925 H 0.70547 0.18969 -0.10667
 H926 H 0.69925 0.21208 -0.13634
 H927 H 0.74834 0.19757 -0.06834
 H928 H 0.72243 0.16469 -0.09030
 H929 H 0.70866 0.14005 -0.06371
 H930 H 0.71416 0.11842 -0.03323
 H931 H 0.77059 0.15091 -0.02147
 H932 H 0.76529 0.17236 -0.05199
 C933 C 0.19950 0.71795 0.37177
 C934 C 0.20217 0.70394 0.38810
 C935 C 0.21930 0.70539 0.40092
 C936 C 0.23337 0.72164 0.39759
 C937 C 0.23070 0.73564 0.38131
 C938 C 0.21385 0.73389 0.36804
 C939 C 0.22183 0.69002 0.41780
 C940 C 0.24011 0.68491 0.42524
 C941 C 0.24307 0.66973 0.44220
 C942 C 0.26113 0.67082 0.45365
 C943 C 0.26470 0.65681 0.46972
 C944 C 0.25030 0.64137 0.47464
 C945 C 0.23249 0.63981 0.46281
 C946 C 0.22885 0.65388 0.44677
 H947 H 0.18620 0.71619 0.36211
 H948 H 0.19097 0.69172 0.39053
 H949 H 0.24635 0.72382 0.40763
 H950 H 0.24203 0.74773 0.37915
 H951 H 0.20817 0.68255 0.42387
 H952 H 0.25371 0.69232 0.41894
 H953 H 0.27251 0.68265 0.45021
 H954 H 0.27884 0.65801 0.47808
 H955 H 0.22144 0.62761 0.46565
 H956 H 0.21513 0.65195 0.43775
 C957 C 0.25276 0.71948 0.63157
 C958 C 0.24895 0.70550 0.61546
 C959 C 0.26450 0.69290 0.60764
 C960 C 0.28384 0.69397 0.61688
 C961 C 0.28764 0.70795 0.63310
 C962 C 0.27221 0.72107 0.64042
 C963 C 0.25984 0.67893 0.58994
 C964 C 0.27399 0.67220 0.57638
 C965 C 0.26905 0.65979 0.55760
 C966 C 0.28288 0.65997 0.54073
 C967 C 0.27864 0.64891 0.52254
 C968 C 0.26046 0.63751 0.52079
 C969 C 0.24696 0.63661 0.53790
 C970 C 0.25117 0.64765 0.55615
 H971 H 0.24038 0.72902 0.63706
 H972 H 0.23386 0.70479 0.60881
 H973 H 0.29605 0.68402 0.61177
 H974 H 0.30277 0.70868 0.63961
 H975 H 0.24392 0.67555 0.58714
 H976 H 0.28967 0.67721 0.57808
 H977 H 0.29696 0.66881 0.54157
 H978 H 0.28982 0.64904 0.51000
 H979 H 0.23320 0.62733 0.53739
 H980 H 0.24053 0.64635 0.56912
 C981 C 0.79416 0.21701 0.12544
 C982 C 0.79167 0.20340 0.10872
 C983 C 0.77297 0.20180 0.09845
 C984 C 0.75682 0.21446 0.10503
 C985 C 0.75932 0.22812 0.12177
 C986 C 0.77801 0.22951 0.13223
 C987 C 0.77126 0.18729 0.08061
 C988 C 0.75353 0.17953 0.07373
 C989 C 0.75217 0.16474 0.05608
 C990 C 0.73505 0.15161 0.05477
 C991 C 0.73317 0.13755 0.03830
 C992 C 0.74822 0.13661 0.02262
 C993 C 0.76538 0.14961 0.02395
 C994 C 0.76729 0.16368 0.04036
 H995 H 0.80886 0.21779 0.13286
 H996 H 0.80442 0.19401 0.10383
 H997 H 0.74235 0.21417 0.09714
 H998 H 0.74655 0.23750 0.12651
 H999 H 0.78540 0.18205 0.07367
 H1000 H 0.73950 0.18319 0.08189
 H1001 H 0.72317 0.15212 0.06664
 H1002 H 0.71994 0.12750 0.03796
 H1003 H 0.77754 0.14878 0.01248
 H1004 H 0.78050 0.17381 0.04045
 C1005 C 0.45403 0.37725 0.53760
 C1006 C 0.45599 0.36102 0.55178
 C1007 C 0.47375 0.34920 0.55204
 C1008 C 0.48937 0.35361 0.53741
 C1009 C 0.48738 0.36980 0.52317
 C1010 C 0.46972 0.38188 0.52316
 C1011 C 0.47506 0.33196 0.56715
 C1012 C 0.49278 0.32449 0.57389
 C1013 C 0.49425 0.30687 0.58857
 C1014 C 0.51244 0.30425 0.59954
 C1015 C 0.51491 0.28724 0.61266
 C1016 C 0.49928 0.27247 0.61487
 C1017 C 0.48099 0.27511 0.60421
 C1018 C 0.47849 0.29208 0.59106
 H1019 H 0.44008 0.38598 0.53787
 H1020 H 0.44362 0.35776 0.56268
 H1021 H 0.50301 0.34440 0.53662
 H1022 H 0.49975 0.37288 0.51226
 H1023 H 0.46085 0.32593 0.57352
 H1024 H 0.50692 0.33192 0.56904
 H1025 H 0.52486 0.31531 0.59779
 H1026 H 0.52920 0.28550 0.62067
 H1027 H 0.46882 0.26372 0.60563
 H1028 H 0.46447 0.29310 0.58244
 C1029 C -0.04813 0.87757 0.02802
 C1030 C -0.04577 0.86024 0.04080
 C1031 C -0.02694 0.85027 0.04186
 C1032 C -0.01061 0.85765 0.02943
 C1033 C -0.01299 0.87488 0.01661
 C1034 C -0.03174 0.88511 0.01579
 C1035 C -0.02496 0.83197 0.05557
 C1036 C -0.00721 0.82648 0.06401
 C1037 C -0.00504 0.80845 0.07801
 C1038 C 0.01096 0.80850 0.09236
 C1039 C 0.01365 0.79178 0.10579
 C1040 C 0.00044 0.77465 0.10500
 C1041 C -0.01519 0.77421 0.09028
 C1042 C -0.01799 0.79100 0.07692
 H1043 H -0.06286 0.88488 0.02761
 H1044 H -0.05864 0.85472 0.05004
 H1045 H 0.00395 0.84999 0.02930
 H1046 H -0.00001 0.88020 0.00746
 H1047 H -0.03877 0.82353 0.05969
 H1048 H 0.00615 0.83619 0.06158
 H1049 H 0.02133 0.82161 0.09329
 H1050 H 0.02610 0.79233 0.11669
 H1051 H -0.02529 0.76091 0.08922
 H1052 H -0.03004 0.79008 0.06556
 C1053 C 0.00230 0.62077 0.02040
 C1054 C -0.00182 0.63686 0.03433
 C1055 C 0.01374 0.64562 0.04639
 C1056 C 0.03350 0.63752 0.04467
 C1057 C 0.03760 0.62131 0.03082
 C1058 C 0.02208 0.61284 0.01840
 C1059 C 0.00863 0.66281 0.06082
 C1060 C 0.02220 0.67725 0.06676
 C1061 C 0.01693 0.69506 0.08032
 C1062 C 0.02916 0.71298 0.07918
 C1063 C 0.02489 0.73006 0.09178
 C1064 C 0.00858 0.72940 0.10608
 C1065 C -0.00375 0.71161 0.10728
 C1066 C 0.00043 0.69451 0.09460
 H1067 H -0.01013 0.61447 0.01136
 H1068 H -0.01722 0.64265 0.03551
 H1069 H 0.04578 0.64344 0.05417
 H1070 H 0.05299 0.61557 0.02973
 H1071 H -0.00719 0.66428 0.06548
 H1072 H 0.03757 0.67684 0.06044
 H1073 H 0.04198 0.71382 0.06839
 H1074 H 0.03448 0.74375 0.09050
 H1075 H -0.01655 0.71080 0.11804
 H1076 H -0.00906 0.68083 0.09633
 C1077 C 0.54215 0.11101 0.54471
 C1078 C 0.53996 0.12678 0.55949
 C1079 C 0.52369 0.14058 0.55840
 C1080 C 0.50924 0.13786 0.54254
 C1081 C 0.51141 0.12212 0.52779
 C1082 C 0.52796 0.10854 0.52856
 C1083 C 0.52204 0.15732 0.57416
 C1084 C 0.51253 0.17514 0.57036
 C1085 C 0.51093 0.19245 0.58547
 C1086 C 0.50622 0.21208 0.57772
 C1087 C 0.50394 0.22885 0.59119
 C1088 C 0.50605 0.22633 0.61280
 C1089 C 0.51100 0.20683 0.62067
 C1090 C 0.51329 0.18995 0.60717
 H1091 H 0.55505 0.10087 0.54599
 H1092 H 0.55119 0.12838 0.57167
 H1093 H 0.49604 0.14766 0.54160
 H1094 H 0.49998 0.12066 0.51585
 H1095 H 0.52991 0.15524 0.58875
 H1096 H 0.50636 0.17778 0.55499
 H1097 H 0.50434 0.21448 0.56111
 H1098 H 0.50053 0.24372 0.58452
 H1099 H 0.51299 0.20463 0.63729
 H1100 H 0.51651 0.17503 0.61387
 C1101 C -0.01755 0.13950 0.49162
 C1102 C -0.01533 0.15697 0.47895
 C1103 C -0.02326 0.15717 0.45872
 C1104 C -0.03399 0.13965 0.45155
 C1105 C -0.03638 0.12219 0.46432
 C1106 C -0.02804 0.12188 0.48444
 C1107 C -0.02046 0.17610 0.44591
 C1108 C -0.02000 0.17605 0.42496
 C1109 C -0.01616 0.19497 0.41236
 C1110 C -0.00734 0.19305 0.39239
 C1111 C -0.00331 0.21055 0.38013
 C1112 C -0.00825 0.23027 0.38755
 C1113 C -0.01747 0.23222 0.40730
 C1114 C -0.02141 0.21477 0.41962
 H1115 H -0.01120 0.13995 0.50713
 H1116 H -0.00720 0.17034 0.48494
 H1117 H -0.04082 0.13944 0.43625
 H1118 H -0.04457 0.10890 0.45831
 H1119 H -0.01731 0.19036 0.45418
 H1120 H -0.02112 0.16150 0.41666
 H1121 H -0.00333 0.17798 0.38634
 H1122 H 0.00367 0.20853 0.36493
 H1123 H -0.02174 0.24726 0.41322
 H1124 H -0.02886 0.21683 0.43462
 C1125 C 0.49338 0.63067 0.99049
 C1126 C 0.49698 0.64769 0.97748
 C1127 C 0.48608 0.65010 0.95894
 C1128 C 0.47114 0.63519 0.95387
 C1129 C 0.46753 0.61813 0.96690
 C1130 C 0.47864 0.61561 0.98537
 C1131 C 0.49027 0.66872 0.94591
 C1132 C 0.48554 0.67016 0.92561
 C1133 C 0.48958 0.68889 0.91267
 C1134 C 0.48944 0.68696 0.89081
 C1135 C 0.49241 0.70426 0.87800
 C1136 C 0.49532 0.72389 0.88678
 C1137 C 0.49582 0.72590 0.90856
 C1138 C 0.49280 0.70864 0.92141
 H1139 H 0.50211 0.62951 1.00464
 H1140 H 0.50840 0.65903 0.98193
 H1141 H 0.46192 0.63674 0.94009
 H1142 H 0.45600 0.60696 0.96242
 H1143 H 0.49838 0.68132 0.95333
 H1144 H 0.47906 0.65687 0.91775
 H1145 H 0.48693 0.67201 0.88360
 H1146 H 0.49209 0.70237 0.86120
 H1147 H 0.49827 0.74081 0.91578
 H1148 H 0.49253 0.71104 0.93812
 C1149 C 0.50021 0.86991 0.98140
 C1150 C 0.49659 0.85303 0.96834
 C1151 C 0.51080 0.84751 0.95289
 C1152 C 0.52895 0.85921 0.95088
 C1153 C 0.53262 0.87612 0.96403
 C1154 C 0.51831 0.88166 0.97951
 C1155 C 0.50631 0.82904 0.93993
 C1156 C 0.51471 0.82553 0.92108
 C1157 C 0.51008 0.80683 0.90850
 C1158 C 0.52444 0.80029 0.89357
 C1159 C 0.52092 0.78250 0.88171
 C1160 C 0.50294 0.77089 0.88458
 C1161 C 0.48815 0.77782 0.89880
 C1162 C 0.49164 0.79560 0.91069
 H1163 H 0.48869 0.87360 0.99295
 H1164 H 0.48254 0.84426 0.97031
 H1165 H 0.54059 0.85512 0.93958
 H1166 H 0.54681 0.88462 0.96219
 H1167 H 0.49540 0.81803 0.94634
 H1168 H 0.52576 0.83639 0.91467
 H1169 H 0.53857 0.80886 0.89125
 H1170 H 0.53231 0.77796 0.87035
 H1171 H 0.47391 0.76938 0.90079
 H1172 H 0.47975 0.80058 0.92131
 C1173 C 0.05134 0.37494 0.47238
 C1174 C 0.04896 0.35790 0.45916
 C1175 C 0.02990 0.34814 0.45714
 C1176 C 0.01335 0.35535 0.46913
 C1177 C 0.01577 0.37227 0.48249
 C1178 C 0.03475 0.38236 0.48415
 C1179 C 0.02783 0.33033 0.44273
 C1180 C 0.01046 0.32594 0.43277
 C1181 C 0.00819 0.30863 0.41781
 C1182 C -0.00658 0.31009 0.40223
 C1183 C -0.00964 0.29393 0.38811
 C1184 C 0.00184 0.27587 0.38949
 C1185 C 0.01650 0.27421 0.40512
 C1186 C 0.01971 0.29047 0.41917
 H1187 H 0.06624 0.38217 0.47350
 H1188 H 0.06199 0.35249 0.45027
 H1189 H -0.00143 0.34782 0.46844
 H1190 H 0.00267 0.37755 0.49131
 H1191 H 0.04136 0.32148 0.43929
 H1192 H -0.00241 0.33614 0.43467
 H1193 H -0.01575 0.32384 0.40094
 H1194 H -0.02110 0.29563 0.37625
 H1195 H 0.02529 0.26024 0.40661
 H1196 H 0.03081 0.28854 0.43136
 C1197 C 0.37618 0.51390 0.49367
 C1198 C 0.35966 0.52688 0.49702
 C1199 C 0.35577 0.54324 0.48333
 C1200 C 0.36903 0.54641 0.46612
 C1201 C 0.38559 0.53335 0.46274
 C1202 C 0.38935 0.51689 0.47645
 C1203 C 0.33777 0.55627 0.48786
 C1204 C 0.33193 0.57245 0.47635
 C1205 C 0.31361 0.58471 0.48155
 C1206 C 0.30384 0.59543 0.46552
 C1207 C 0.28639 0.60694 0.46979
 C1208 C 0.27854 0.60799 0.49019
 C1209 C 0.28835 0.59757 0.50629
 C1210 C 0.30584 0.58618 0.50210
 H1211 H 0.37842 0.50148 0.50466
 H1212 H 0.34981 0.52404 0.51044
 H1213 H 0.36684 0.55879 0.45511
 H1214 H 0.39538 0.53623 0.44933
 H1215 H 0.32859 0.55182 0.50130
 H1216 H 0.34011 0.57658 0.46221
 H1217 H 0.30958 0.59468 0.44961
 H1218 H 0.27896 0.61480 0.45710
 H1219 H 0.28253 0.59833 0.52217
 H1220 H 0.31331 0.57886 0.51506
 C1221 C 0.88030 0.03534 -0.04506
 C1222 C 0.86348 0.04820 -0.04303
 C1223 C 0.85028 0.04647 -0.02573
 C1224 C 0.85409 0.03127 -0.01059
 C1225 C 0.87095 0.01836 -0.01263
 C1226 C 0.88430 0.02027 -0.02987
 C1227 C 0.83240 0.06023 -0.02460
 C1228 C 0.82241 0.06469 -0.00681
 C1229 C 0.80444 0.07837 -0.00589
 C1230 C 0.79930 0.08774 0.01320
 C1231 C 0.78211 0.10018 0.01493
 C1232 C 0.76976 0.10345 -0.00244
 C1233 C 0.77467 0.09401 -0.02149
 C1234 C 0.79184 0.08154 -0.02324
 H1235 H 0.89000 0.03719 -0.05871
 H1236 H 0.86079 0.05961 -0.05504
 H1237 H 0.84394 0.02897 0.00265
 H1238 H 0.87346 0.00692 -0.00065
 H1239 H 0.82798 0.06765 -0.03897
 H1240 H 0.82799 0.05887 0.00787
 H1241 H 0.80855 0.08533 0.02687
 H1242 H 0.77829 0.10689 0.02993
 H1243 H 0.76499 0.09596 -0.03491
 H1244 H 0.79477 0.07400 -0.03802
 C1245 C 0.60694 0.03556 0.03672
 C1246 C 0.62303 0.04958 0.03378
 C1247 C 0.63922 0.04502 0.02015
 C1248 C 0.63877 0.02618 0.00912
 C1249 C 0.62261 0.01212 0.01207
 C1250 C 0.60653 0.01660 0.02598
 C1251 C 0.65586 0.06056 0.01760
 C1252 C 0.67462 0.05605 0.01058
 C1253 C 0.69139 0.07156 0.00870
 C1254 C 0.71154 0.06455 0.00772
 C1255 C 0.72782 0.07851 0.00553
 C1256 C 0.72427 0.09978 0.00417
 C1257 C 0.70420 0.10690 0.00525
 C1258 C 0.68788 0.09296 0.00730
 H1259 H 0.59478 0.03980 0.04736
 H1260 H 0.62286 0.06404 0.04231
 H1261 H 0.65062 0.02231 -0.00202
 H1262 H 0.62283 -0.00227 0.00348
 H1263 H 0.65266 0.07608 0.02289
 H1264 H 0.67833 0.04018 0.00704
 H1265 H 0.71470 0.04818 0.00866
 H1266 H 0.74312 0.07253 0.00482
 H1267 H 0.70113 0.12327 0.00406
 H1268 H 0.67262 0.09907 0.00730
 C1269 C 0.11736 0.54060 0.53685
 C1270 C 0.13353 0.55448 0.53381
 C1271 C 0.14787 0.55140 0.51775
 C1272 C 0.14536 0.53432 0.50436
 C1273 C 0.12914 0.52039 0.50741
 C1274 C 0.11498 0.52327 0.52378
 C1275 C 0.16482 0.56658 0.51535
 C1276 C 0.18247 0.56241 0.50554
 C1277 C 0.19968 0.57739 0.50381
 C1278 C 0.21923 0.56985 0.49939
 C1279 C 0.23588 0.58336 0.49737
 C1280 C 0.23329 0.60471 0.49970
 C1281 C 0.21379 0.61236 0.50396
 C1282 C 0.19710 0.59889 0.50589
 H1283 H 0.10685 0.54352 0.54960
 H1284 H 0.13497 0.56761 0.54422
 H1285 H 0.15564 0.53175 0.49133
 H1286 H 0.12773 0.50743 0.49683
 H1287 H 0.16298 0.58130 0.52311
 H1288 H 0.18500 0.54705 0.49943
 H1289 H 0.22164 0.55342 0.49751
 H1290 H 0.25070 0.57702 0.49386
 H1291 H 0.21144 0.62884 0.50546
 H1292 H 0.18224 0.60549 0.50856
 C1293 C 0.10405 0.45670 -0.02489
 C1294 C 0.11970 0.44279 -0.02102
 C1295 C 0.13884 0.44994 -0.01451
 C1296 C 0.14183 0.47124 -0.01112
 C1297 C 0.12606 0.48513 -0.01463
 C1298 C 0.10709 0.47802 -0.02181
 C1299 C 0.15524 0.43485 -0.01100
 C1300 C 0.17486 0.43924 -0.01522
 C1301 C 0.19152 0.42434 -0.01216
 C1302 C 0.20918 0.42618 -0.02461
 C1303 C 0.22571 0.41320 -0.02140
 C1304 C 0.22512 0.39856 -0.00529
 C1305 C 0.20734 0.39629 0.00689
 C1306 C 0.19066 0.40910 0.00353
 H1307 H 0.08951 0.45074 -0.03015
 H1308 H 0.11696 0.42643 -0.02350
 H1309 H 0.15628 0.47716 -0.00557
 H1310 H 0.12884 0.50146 -0.01212
 H1311 H 0.15082 0.41939 -0.00614
 H1312 H 0.17886 0.45405 -0.02214
 H1313 H 0.21023 0.43778 -0.03678
 H1314 H 0.23924 0.41503 -0.03111
 H1315 H 0.20635 0.38488 0.01920
 H1316 H 0.17742 0.40747 0.01365
 C1317 C 0.61573 0.96428 0.45279
 C1318 C 0.63227 0.95097 0.45463
 C1319 C 0.64439 0.95132 0.47254
 C1320 C 0.63927 0.96494 0.48886
 C1321 C 0.62278 0.97824 0.48702
 C1322 C 0.61084 0.97818 0.46893
 C1323 C 0.66173 0.93685 0.47394
 C1324 C 0.67789 0.94026 0.48620
 C1325 C 0.69517 0.92582 0.48834
 C1326 C 0.70785 0.92803 0.50572
 C1327 C 0.72439 0.91498 0.50848
 C1328 C 0.72862 0.89935 0.49396
 C1329 C 0.71641 0.89748 0.47621
 C1330 C 0.69978 0.91051 0.47343
 H1331 H 0.60694 0.96371 0.43862
 H1332 H 0.63572 0.94047 0.44192
 H1333 H 0.64764 0.96516 0.50330
 H1334 H 0.61933 0.98837 0.49998
 H1335 H 0.66102 0.92312 0.46434
 H1336 H 0.67856 0.95419 0.49552
 H1337 H 0.70495 0.93994 0.51724
 H1338 H 0.73410 0.91748 0.52178
 H1339 H 0.71972 0.88621 0.46427
 H1340 H 0.69098 0.90876 0.45938
 C1341 C 0.88919 0.96409 0.54004
 C1342 C 0.87258 0.95064 0.53749
 C1343 C 0.85629 0.95592 0.52457
 C1344 C 0.85705 0.97519 0.51427
 C1345 C 0.87372 0.98859 0.51677
 C1346 C 0.88998 0.98323 0.52968
 C1347 C 0.83906 0.94085 0.52253
 C1348 C 0.82297 0.94342 0.51005
 C1349 C 0.80602 0.92814 0.50788
 C1350 C 0.79318 0.92991 0.49059
 C1351 C 0.77689 0.91616 0.48784
 C1352 C 0.77304 0.90037 0.50234
 C1353 C 0.78565 0.89851 0.51973
 C1354 C 0.80196 0.91233 0.52257
 H1355 H 0.90147 0.95932 0.55001
 H1356 H 0.87250 0.93598 0.54567
 H1357 H 0.84494 0.98028 0.50433
 H1358 H 0.87366 1.00328 0.50872
 H1359 H 0.84016 0.92676 0.53149
 H1360 H 0.82216 0.95695 0.50027
 H1361 H 0.79580 0.94196 0.47909
 H1362 H 0.76728 0.91785 0.47432
 H1363 H 0.78295 0.88642 0.53113
 H1364 H 0.81101 0.91066 0.53643
 C1365 C 0.39126 0.45851 0.03588
 C1366 C 0.37487 0.44489 0.03313
 C1367 C 0.35782 0.45083 0.02171
 C1368 C 0.35779 0.47060 0.01247
 C1369 C 0.37427 0.48424 0.01516
 C1370 C 0.39110 0.47842 0.02708
 C1371 C 0.34078 0.43577 0.01937
 C1372 C 0.32154 0.44132 0.01558
 C1373 C 0.30412 0.42660 0.01320
 C1374 C 0.28454 0.43480 0.01096
 C1375 C 0.26771 0.42188 0.00763
 C1376 C 0.27011 0.40044 0.00627
 C1377 C 0.28940 0.39203 0.00936
 C1378 C 0.30632 0.40493 0.01257
 H1379 H 0.40410 0.45330 0.04482
 H1380 H 0.37544 0.42968 0.04015
 H1381 H 0.34526 0.47553 0.00293
 H1382 H 0.37368 0.49940 0.00808
 H1383 H 0.34437 0.41972 0.02185
 H1384 H 0.31809 0.45760 0.01454
 H1385 H 0.28226 0.45135 0.01157
 H1386 H 0.25292 0.42880 0.00597
 H1387 H 0.29149 0.37546 0.00865
 H1388 H 0.32095 0.39770 0.01412
 C1389 C 0.52859 0.44646 0.37576
 C1390 C 0.54189 0.44859 0.35868
 C1391 C 0.54417 0.46764 0.34843
 C1392 C 0.53237 0.48443 0.35521
 C1393 C 0.51900 0.48228 0.37223
 C1394 C 0.51706 0.46332 0.38281
 C1395 C 0.55866 0.46935 0.33058
 C1396 C 0.56805 0.48714 0.32533
 C1397 C 0.58300 0.48915 0.30790
 C1398 C 0.59695 0.50572 0.30824
 C1399 C 0.61093 0.50867 0.29189
 C1400 C 0.61096 0.49537 0.27458
 C1401 C 0.59738 0.47849 0.27442
 C1402 C 0.58337 0.47548 0.29080
 H1403 H 0.52729 0.43155 0.38332
 H1404 H 0.55062 0.43536 0.35360
 H1405 H 0.53321 0.49918 0.34728
 H1406 H 0.51037 0.49559 0.37720
 H1407 H 0.56256 0.45523 0.32248
 H1408 H 0.56555 0.50074 0.33483
 H1409 H 0.59712 0.51638 0.32129
 H1410 H 0.62168 0.52134 0.29305
 H1411 H 0.59755 0.46752 0.26172
 H1412 H 0.57270 0.46268 0.28976
 C1413 C 0.02416 0.00127 0.87921
 C1414 C 0.03810 0.00534 0.86304
 C1415 C 0.05205 -0.00969 0.85663
 C1416 C 0.05224 -0.02874 0.86723
 C1417 C 0.03831 -0.03281 0.88343
 C1418 C 0.02397 -0.01793 0.88950
 C1419 C 0.06623 -0.00481 0.83907
 C1420 C 0.07467 -0.01932 0.82689
 C1421 C 0.08787 -0.01452 0.80854
 C1422 C 0.08985 -0.02948 0.79281
 C1423 C 0.10200 -0.02562 0.77518
 C1424 C 0.11242 -0.00672 0.77288
 C1425 C 0.11105 0.00803 0.78886
 C1426 C 0.09886 0.00421 0.80654
 H1427 H 0.01361 0.01326 0.88362
 H1428 H 0.03778 0.02023 0.85532
 H1429 H 0.06321 -0.04049 0.86325
 H1430 H 0.03873 -0.04774 0.89101
 H1431 H 0.06856 0.01135 0.83529
 H1432 H 0.07076 -0.03542 0.82950
 H1433 H 0.08191 -0.04420 0.79414
 H1434 H 0.10351 -0.03764 0.76356
 H1435 H 0.11944 0.02244 0.78793
 H1436 H 0.09844 0.01580 0.81870
 C1437 C 0.03785 0.04780 0.62025
 C1438 C 0.05155 0.04510 0.63652
 C1439 C 0.05138 0.02683 0.64829
 C1440 C 0.03685 0.01137 0.64366
 C1441 C 0.02311 0.01407 0.62738
 C1442 C 0.02345 0.03231 0.61541
 C1443 C 0.06605 0.02493 0.66563
 C1444 C 0.07170 0.00681 0.67383
 C1445 C 0.08599 0.00507 0.69150
 C1446 C 0.08520 -0.01286 0.70382
 C1447 C 0.09809 -0.01503 0.72086
 C1448 C 0.11210 0.00064 0.72592
 C1449 C 0.11351 0.01823 0.71316
 C1450 C 0.10059 0.02047 0.69612
 H1451 H 0.03854 0.06216 0.61163
 H1452 H 0.06242 0.05736 0.63988
 H1453 H 0.03568 -0.00267 0.65276
 H1454 H 0.01224 0.00181 0.62426
 H1455 H 0.07243 0.03918 0.67169
 H1456 H 0.06532 -0.00746 0.66784
 H1457 H 0.07439 -0.02514 0.70040
 H1458 H 0.09709 -0.02905 0.72998
 H1459 H 0.12466 0.03025 0.71614
 H1460 H 0.10237 0.03411 0.68649
 C1461 C 0.52170 0.50157 0.12691
 C1462 C 0.53444 0.49735 0.14365
 C1463 C 0.54891 0.51197 0.15027
 C1464 C 0.55020 0.53113 0.13988
 C1465 C 0.53740 0.53538 0.12313
 C1466 C 0.52295 0.52066 0.11646
 C1467 C 0.56159 0.50689 0.16855
 C1468 C 0.57959 0.51599 0.17258
 C1469 C 0.59181 0.51123 0.19129
 C1470 C 0.60583 0.52609 0.19838
 C1471 C 0.61723 0.52255 0.21629
 C1472 C 0.61481 0.50406 0.22756
 C1473 C 0.60156 0.48876 0.21993
 C1474 C 0.59014 0.49226 0.20200
 H1475 H 0.51092 0.48974 0.12223
 H1476 H 0.53303 0.48253 0.15143
 H1477 H 0.56066 0.54312 0.14490
 H1478 H 0.53864 0.55036 0.11570
 H1479 H 0.55568 0.49506 0.17898
 H1480 H 0.58550 0.52788 0.16221
 H1481 H 0.60778 0.54064 0.19019
 H1482 H 0.62787 0.53439 0.22117
 H1483 H 0.60017 0.47395 0.22759
 H1484 H 0.58032 0.47994 0.19649
 C1485 C 0.45356 -0.04008 0.11509
 C1486 C 0.43946 -0.03600 0.13102
 C1487 C 0.44225 -0.01909 0.14441
 C1488 C 0.45922 -0.00595 0.14121
 C1489 C 0.47331 -0.01001 0.12527
 C1490 C 0.47074 -0.02718 0.11204
 C1491 C 0.42706 -0.01546 0.16127
 C1492 C 0.43153 -0.00540 0.17896
 C1493 C 0.41676 -0.00281 0.19637
 C1494 C 0.42423 -0.00036 0.21667
 C1495 C 0.41085 0.00156 0.23364
 C1496 C 0.38974 0.00112 0.23058
 C1497 C 0.38221 -0.00035 0.21025
 C1498 C 0.39558 -0.00239 0.19324
 H1499 H 0.45091 -0.05339 0.10525
 H1500 H 0.42642 -0.04625 0.13305
 H1501 H 0.46156 0.00765 0.15074
 H1502 H 0.48615 0.00046 0.12338
 H1503 H 0.41216 -0.02255 0.15954
 H1504 H 0.44700 -0.00012 0.18159
 H1505 H 0.44048 -0.00024 0.21944
 H1506 H 0.41713 0.00336 0.24906
 H1507 H 0.36595 -0.00015 0.20755
 H1508 H 0.38928 -0.00341 0.17773
 C1509 C 0.99032 0.49028 0.63111
 C1510 C 0.97780 0.49365 0.64851
 C1511 C 0.95990 0.48197 0.65158
 C1512 C 0.95499 0.46643 0.63703
 C1513 C 0.96756 0.46303 0.61958
 C1514 C 0.98534 0.47499 0.61636
 C1515 C 0.94725 0.48619 0.67042
 C1516 C 0.92745 0.48105 0.67219
 C1517 C 0.91478 0.48590 0.69087
 C1518 C 0.89352 0.48639 0.68880
 C1519 C 0.88099 0.49071 0.70600
 C1520 C 0.88947 0.49436 0.72565
 C1521 C 0.91066 0.49400 0.72784
 C1522 C 0.92323 0.48961 0.71068
 H1523 H 1.00401 0.49962 0.62945
 H1524 H 0.98209 0.50555 0.65958
 H1525 H 0.94167 0.45662 0.63913
 H1526 H 0.96325 0.45107 0.60864
 H1527 H 0.95444 0.49493 0.68277
 H1528 H 0.91978 0.47399 0.65909
 H1529 H 0.88658 0.48352 0.67379
 H1530 H 0.86464 0.49105 0.70399
 H1531 H 0.91763 0.49700 0.74276
 H1532 H 0.93946 0.48882 0.71317
 C1533 C 0.98384 0.50596 0.86913
 C1534 C 0.97099 0.50213 0.85229
 C1535 C 0.95333 0.51378 0.84944
 C1536 C 0.94891 0.52958 0.86390
 C1537 C 0.96178 0.53341 0.88076
 C1538 C 0.97940 0.52164 0.88363
 C1539 C 0.94039 0.50895 0.83108
 C1540 C 0.92225 0.51751 0.82732
 C1541 C 0.91007 0.51264 0.80853
 C1542 C 0.89667 0.52758 0.80100
 C1543 C 0.88520 0.52379 0.78312
 C1544 C 0.88688 0.50493 0.77249
 C1545 C 0.89954 0.48961 0.78047
 C1546 C 0.91112 0.49342 0.79828
 H1547 H 0.99733 0.49666 0.87061
 H1548 H 0.97492 0.48994 0.84141
 H1549 H 0.93571 0.53923 0.86241
 H1550 H 0.95776 0.54558 0.89157
 H1551 H 0.94640 0.49792 0.81997
 H1552 H 0.91617 0.52910 0.83771
 H1553 H 0.89528 0.54235 0.80882
 H1554 H 0.87507 0.53564 0.77772
 H1555 H 0.90062 0.47475 0.77277
 H1556 H 0.92063 0.48119 0.80408
 C1557 C 0.46107 0.04582 0.38605
 C1558 C 0.44693 0.04397 0.37000
 C1559 C 0.44610 0.02613 0.35760
 C1560 C 0.46002 0.01020 0.36139
 C1561 C 0.47423 0.01208 0.37742
 C1562 C 0.47493 0.02991 0.38997
 C1563 C 0.43130 0.02524 0.34029
 C1564 C 0.42427 0.00755 0.33195
 C1565 C 0.41039 0.00672 0.31383
 C1566 C 0.40993 -0.01131 0.30163
 C1567 C 0.39790 -0.01245 0.28381
 C1568 C 0.38609 0.00440 0.27787
 C1569 C 0.38568 0.02207 0.29049
 C1570 C 0.39772 0.02325 0.30835
 H1571 H 0.46124 0.05990 0.39516
 H1572 H 0.43654 0.05656 0.36727
 H1573 H 0.46035 -0.00353 0.35178
 H1574 H 0.48464 -0.00049 0.37990
 H1575 H 0.42617 0.03989 0.33429
 H1576 H 0.42941 -0.00707 0.33804
 H1577 H 0.41928 -0.02439 0.30562
 H1578 H 0.39819 -0.02635 0.27438
 H1579 H 0.37623 0.03504 0.28656
 H1580 H 0.39690 0.03708 0.31779
   
