data_POSCAR
  _audit_creation_date              2014-09-24
  _audit_creation_method            'ToBaCCo'
  _symmetry_space_group_name_H-M    'P1'
  _symmetry_Int_Tables_number       1
  _symmetry_cell_setting            triclinic
  loop_
  _symmetry_equiv_pos_as_xyz
 x,y,z
_cell_length_a 65.7478
_cell_length_b 65.6080
_cell_length_c 65.6648
_cell_angle_alpha 89.254600
_cell_angle_beta 88.885800
_cell_angle_gamma 89.438900
loop_
  _atom_site_label
  _atom_site_type_symbol
  _atom_site_fract_x
  _atom_site_fract_y
  _atom_site_fract_z
C1 C 0.73631 0.65158 0.97279
 H2 H 0.75071 0.65174 0.96455
 C3 C 0.71968 0.66257 0.96526
 H4 H 0.72129 0.67133 0.95124
 C5 C 0.71622 0.63917 1.00059
 H6 H 0.71470 0.62959 1.01400
 C7 C 0.69926 0.64992 0.99360
 H8 H 0.68485 0.64874 1.00180
 N9 N 0.73429 0.64014 0.99015
 C10 C 0.79537 0.62884 1.01304
 H11 H 0.79472 0.61243 1.01472
 C12 C 0.81268 0.63921 1.01888
 H13 H 0.82544 0.63079 1.02508
 C14 C 0.77938 0.65991 1.00320
 H15 H 0.76626 0.66791 0.99732
 C16 C 0.79644 0.67091 1.00889
 H17 H 0.79648 0.68736 1.00729
 Zn18 Zn 0.75649 0.62347 0.99825
 N19 N 0.77924 0.63923 1.00521
 C20 C 0.78229 0.60675 0.96753
 N21 N 0.76326 0.60637 0.97607
 C22 C 0.74832 0.59487 0.96809
 C23 C 0.75230 0.58302 0.95090
 C24 C 0.78691 0.59513 0.95038
 C25 C 0.74542 0.61854 1.03904
 C26 C 0.73888 0.60847 1.05679
 C27 C 0.74052 0.57663 1.03863
 C28 C 0.74706 0.58734 1.02119
 N29 N 0.74896 0.60797 1.02162
 H30 H 0.79381 0.61637 0.97370
 H31 H 0.73321 0.59517 0.97493
 H32 H 0.74029 0.57408 0.94450
 H33 H 0.80203 0.59571 0.94354
 H34 H 0.74728 0.63491 1.03897
 H35 H 0.73565 0.61718 1.07042
 H36 H 0.73860 0.56025 1.03801
 H37 H 0.75033 0.57918 1.00731
 C38 C 0.81325 0.66043 1.01676
 C39 C 0.70095 0.66159 0.97570
 C40 C 0.73617 0.58735 1.05654
 C41 C 0.77178 0.58324 0.94194
 C42 C 0.73346 0.34961 0.51627
 H43 H 0.74791 0.34847 0.52383
 C44 C 0.71677 0.33859 0.52378
 H45 H 0.71838 0.32883 0.53709
 C46 C 0.71338 0.36438 0.49022
 H47 H 0.71192 0.37484 0.47750
 C48 C 0.69635 0.35365 0.49723
 H49 H 0.68193 0.35572 0.48972
 N50 N 0.73150 0.36218 0.49975
 C51 C 0.79255 0.37251 0.47452
 H52 H 0.79204 0.38898 0.47351
 C53 C 0.80988 0.36194 0.46782
 H54 H 0.82278 0.37027 0.46162
 C55 C 0.77634 0.34152 0.48382
 H56 H 0.76318 0.33364 0.48993
 C57 C 0.79342 0.33033 0.47727
 H58 H 0.79342 0.31385 0.47845
 Zn59 Zn 0.75397 0.37843 0.49156
 N60 N 0.77634 0.36226 0.48258
 C61 C 0.78054 0.39197 0.52186
 N62 N 0.76144 0.39385 0.51438
 C63 C 0.74708 0.40578 0.52372
 C64 C 0.75184 0.41666 0.54115
 C65 C 0.78591 0.40257 0.53919
 C66 C 0.74266 0.38630 0.45165
 C67 C 0.73657 0.39774 0.43475
 C68 C 0.73945 0.42832 0.45459
 C69 C 0.74552 0.41628 0.47116
 N70 N 0.74665 0.39563 0.46949
 H71 H 0.79158 0.38202 0.51463
 H72 H 0.73190 0.40669 0.51769
 H73 H 0.74034 0.42607 0.54854
 H74 H 0.80112 0.40090 0.54508
 H75 H 0.74392 0.36988 0.45070
 H76 H 0.73305 0.39012 0.42072
 H77 H 0.73822 0.44471 0.45608
 H78 H 0.74914 0.42344 0.48534
 C79 C 0.81037 0.34068 0.46931
 C80 C 0.69803 0.34074 0.51422
 C81 C 0.73477 0.41891 0.43628
 C82 C 0.77144 0.41499 0.54893
 C83 C 0.23421 -0.15230 0.01730
 H84 H 0.24876 -0.15332 0.02468
 C85 C 0.21771 -0.16347 0.02499
 H86 H 0.21955 -0.17324 0.03827
 C87 C 0.21370 -0.13767 -0.00848
 H88 H 0.21198 -0.12721 -0.02116
 C89 C 0.19684 -0.14856 -0.00129
 H90 H 0.18232 -0.14660 -0.00861
 N91 N 0.23195 -0.13972 0.00083
 C92 C 0.29259 -0.12875 -0.02518
 H93 H 0.29195 -0.11229 -0.02613
 C94 C 0.30991 -0.13918 -0.03215
 H95 H 0.32267 -0.13073 -0.03850
 C96 C 0.27673 -0.15990 -0.01576
 H97 H 0.26371 -0.16789 -0.00950
 C98 C 0.29381 -0.17094 -0.02258
 H99 H 0.29394 -0.18743 -0.02145
 Zn100 Zn 0.25417 -0.12322 -0.00762
 N101 N 0.27657 -0.13916 -0.01693
 C102 C 0.28100 -0.10938 0.02234
 N103 N 0.26176 -0.10777 0.01514
 C104 C 0.24736 -0.09609 0.02472
 C105 C 0.25219 -0.08518 0.04210
 C106 C 0.28645 -0.09874 0.03963
 C107 C 0.24220 -0.11531 -0.04735
 C108 C 0.23553 -0.10389 -0.06404
 C109 C 0.23826 -0.07336 -0.04404
 C110 C 0.24492 -0.08540 -0.02770
 N111 N 0.24635 -0.10602 -0.02953
 H112 H 0.29209 -0.11913 0.01492
 H113 H 0.23208 -0.09541 0.01892
 H114 H 0.24066 -0.07597 0.04969
 H115 H 0.30177 -0.10018 0.04528
 H116 H 0.24371 -0.13170 -0.04843
 H117 H 0.23184 -0.11157 -0.07800
 H118 H 0.23675 -0.05701 -0.04229
 H119 H 0.24867 -0.07828 -0.01355
 C120 C 0.31058 -0.16045 -0.03073
 C121 C 0.19882 -0.16148 0.01566
 C122 C 0.23332 -0.08274 -0.06232
 C123 C 0.27193 -0.08656 0.04960
 C124 C 0.23608 0.15034 0.47413
 H125 H 0.25045 0.15038 0.46582
 C126 C 0.21954 0.16154 0.46670
 H127 H 0.22118 0.17032 0.45269
 C128 C 0.21598 0.13809 0.50199
 H129 H 0.21442 0.12850 0.51539
 C130 C 0.19910 0.14905 0.49511
 H131 H 0.18472 0.14801 0.50337
 N132 N 0.23402 0.13890 0.49147
 C133 C 0.29505 0.12686 0.51402
 H134 H 0.29418 0.11046 0.51570
 C135 C 0.31256 0.13696 0.51976
 H136 H 0.32523 0.12834 0.52589
 C137 C 0.27948 0.15817 0.50426
 H138 H 0.26645 0.16636 0.49845
 C139 C 0.29675 0.16890 0.50986
 H140 H 0.29703 0.18535 0.50826
 Zn141 Zn 0.25609 0.12199 0.49944
 N142 N 0.27904 0.13749 0.50627
 C143 C 0.28156 0.10514 0.46855
 N144 N 0.26258 0.10483 0.47722
 C145 C 0.24754 0.09340 0.46933
 C146 C 0.25136 0.08156 0.45209
 C147 C 0.28601 0.09353 0.45136
 C148 C 0.24526 0.11721 0.54030
 C149 C 0.23892 0.10721 0.55815
 C150 C 0.24020 0.07533 0.54010
 C151 C 0.24656 0.08595 0.52254
 N152 N 0.24856 0.10658 0.52288
 H153 H 0.29317 0.11471 0.47464
 H154 H 0.23248 0.09375 0.47627
 H155 H 0.23926 0.07268 0.44576
 H156 H 0.30109 0.09407 0.44442
 H157 H 0.24719 0.13357 0.54017
 H158 H 0.23588 0.11588 0.57183
 H159 H 0.23820 0.05897 0.53966
 H160 H 0.24962 0.07773 0.50865
 C161 C 0.31344 0.15816 0.51764
 C162 C 0.20085 0.16074 0.47723
 C163 C 0.23617 0.08612 0.55800
 C164 C 0.27077 0.08171 0.44300
 C165 C 0.15291 0.47564 0.23555
 H166 H 0.15332 0.46755 0.25000
 C167 C 0.16389 0.46814 0.21876
 H168 H 0.17288 0.45430 0.22028
 C169 C 0.13993 0.50300 0.21555
 H170 H 0.13015 0.51623 0.21415
 C171 C 0.15066 0.49603 0.19842
 H172 H 0.14926 0.50406 0.18398
 N173 N 0.14122 0.49277 0.23367
 C174 C 0.13042 0.51604 0.29497
 H175 H 0.11403 0.51749 0.29470
 C176 C 0.14092 0.52202 0.31212
 H177 H 0.13261 0.52811 0.32512
 C178 C 0.16133 0.50655 0.27825
 H179 H 0.16922 0.50072 0.26494
 C180 C 0.17245 0.51237 0.29514
 H181 H 0.18888 0.51094 0.29483
 Zn182 Zn 0.12474 0.50079 0.25622
 N183 N 0.14067 0.50828 0.27858
 C184 C 0.10898 0.46997 0.28257
 N185 N 0.10817 0.47830 0.26351
 C186 C 0.09657 0.46995 0.24889
 C187 C 0.08504 0.45259 0.25327
 C188 C 0.09769 0.45267 0.28758
 C189 C 0.11883 0.54141 0.24498
 C190 C 0.10824 0.55888 0.23881
 C191 C 0.07690 0.54000 0.24176
 C192 C 0.08810 0.52285 0.24790
 N193 N 0.10873 0.52377 0.24900
 H194 H 0.11867 0.47645 0.29383
 H195 H 0.09652 0.47663 0.23374
 H196 H 0.07600 0.44590 0.24152
 H197 H 0.09859 0.44602 0.30273
 H198 H 0.13521 0.54175 0.24622
 H199 H 0.11646 0.57273 0.23521
 H200 H 0.06053 0.53909 0.24050
 H201 H 0.08031 0.50881 0.25155
 C202 C 0.16211 0.52011 0.31224
 C203 C 0.16262 0.47838 0.19999
 C204 C 0.08711 0.55810 0.23699
 C205 C 0.08568 0.44386 0.27280
 C206 C -0.15012 0.02014 0.23321
 H207 H -0.15118 0.02778 0.24770
 C208 C -0.16105 0.02766 0.21662
 H209 H -0.17065 0.04107 0.21839
 C210 C -0.13564 -0.00611 0.21293
 H211 H -0.12532 -0.01891 0.21133
 C212 C -0.14628 0.00088 0.19599
 H213 H -0.14425 -0.00676 0.18154
 N214 N -0.13773 0.00353 0.23110
 C215 C -0.12737 -0.02160 0.29199
 H216 H -0.11094 -0.02268 0.29122
 C217 C -0.13787 -0.02831 0.30943
 H218 H -0.12953 -0.03459 0.32216
 C219 C -0.15832 -0.01215 0.27629
 H220 H -0.16621 -0.00600 0.26327
 C221 C -0.16945 -0.01871 0.29350
 H222 H -0.18589 -0.01751 0.29375
 Zn223 Zn -0.12152 -0.00473 0.25336
 N224 N -0.13764 -0.01348 0.27597
 C225 C -0.10736 0.02554 0.27981
 N226 N -0.10575 0.01796 0.26065
 C227 C -0.09375 0.02705 0.24611
 C228 C -0.08247 0.04428 0.25075
 C229 C -0.09636 0.04270 0.28508
 C230 C -0.11431 -0.04479 0.24186
 C231 C -0.10320 -0.06185 0.23551
 C232 C -0.07236 -0.04234 0.23791
 C233 C -0.08408 -0.02560 0.24425
 N234 N -0.10470 -0.02703 0.24572
 H235 H -0.11737 0.01850 0.29101
 H236 H -0.09306 0.02095 0.23088
 H237 H -0.07296 0.05145 0.23912
 H238 H -0.09778 0.04864 0.30036
 H239 H -0.13070 -0.04555 0.24339
 H240 H -0.11103 -0.07581 0.23208
 H241 H -0.05598 -0.04103 0.23640
 H242 H -0.07669 -0.01149 0.24778
 C243 C -0.15908 -0.02677 0.31025
 C244 C -0.15900 0.01799 0.19779
 C245 C -0.08206 -0.06056 0.23334
 C246 C -0.08381 0.05215 0.27044
 C247 C 0.34938 0.51866 0.73255
 H248 H 0.34843 0.52619 0.74710
 C249 C 0.33836 0.52631 0.71608
 H250 H 0.32878 0.53971 0.71796
 C251 C 0.36369 0.49254 0.71197
 H252 H 0.37398 0.47973 0.71022
 C253 C 0.35295 0.49968 0.69516
 H254 H 0.35484 0.49219 0.68062
 N255 N 0.36173 0.50204 0.73023
 C256 C 0.37235 0.47659 0.79093
 H257 H 0.38878 0.47554 0.79012
 C258 C 0.36189 0.46973 0.80835
 H259 H 0.37028 0.46338 0.82102
 C260 C 0.34134 0.48604 0.77535
 H261 H 0.33340 0.49224 0.76238
 C262 C 0.33026 0.47934 0.79254
 H263 H 0.31381 0.48048 0.79282
 Zn264 Zn 0.37805 0.49363 0.75235
 N265 N 0.36203 0.48477 0.77499
 C266 C 0.39235 0.52378 0.77888
 N267 N 0.39389 0.51626 0.75968
 C268 C 0.40582 0.52541 0.74513
 C269 C 0.41707 0.54266 0.74977
 C270 C 0.40333 0.54095 0.78414
 C271 C 0.38510 0.45363 0.74058
 C272 C 0.39615 0.43656 0.73417
 C273 C 0.42707 0.45595 0.73660
 C274 C 0.41541 0.47271 0.74300
 N275 N 0.39478 0.47134 0.74451
 H276 H 0.38240 0.51670 0.79009
 H277 H 0.40645 0.51937 0.72988
 H278 H 0.42651 0.54990 0.73812
 H279 H 0.40195 0.54686 0.79945
 H280 H 0.36871 0.45292 0.74215
 H281 H 0.38827 0.42263 0.73072
 H282 H 0.44344 0.45720 0.73509
 H283 H 0.42285 0.48678 0.74659
 C284 C 0.34068 0.47119 0.80921
 C285 C 0.34027 0.51678 0.69719
 C286 C 0.41730 0.43777 0.73200
 C287 C 0.41578 0.55048 0.76947
 C288 C 0.65470 0.97552 0.73873
 H289 H 0.65488 0.96734 0.75314
 C290 C 0.66593 0.96813 0.72205
 H291 H 0.67488 0.95427 0.72362
 C292 C 0.64201 1.00299 0.71870
 H293 H 0.63222 1.01620 0.71721
 C294 C 0.65300 0.99614 0.70168
 H295 H 0.65178 1.00424 0.68727
 N296 N 0.64300 0.99264 0.73677
 C297 C 0.63039 1.01548 0.79793
 H298 H 0.61400 1.01677 0.79716
 C299 C 0.64030 1.02164 0.81535
 H300 H 0.63150 1.02770 0.82806
 C301 C 0.66185 1.00629 0.78211
 H302 H 0.67016 1.00053 0.76902
 C303 C 0.67241 1.01231 0.79929
 H304 H 0.68886 1.01108 0.79940
 Zn305 Zn 0.62593 1.00044 0.75897
 N306 N 0.64118 1.00782 0.78184
 C307 C 0.60944 0.96942 0.78462
 N308 N 0.60919 0.97790 0.76560
 C309 C 0.59803 0.96967 0.75057
 C310 C 0.58639 0.95228 0.75446
 C311 C 0.59802 0.95207 0.78915
 C312 C 0.62040 1.04114 0.74803
 C313 C 0.61009 1.05866 0.74154
 C314 C 0.57867 1.03981 0.74306
 C315 C 0.58958 1.02260 0.74955
 N316 N 0.61014 1.02348 0.75148
 H317 H 0.61879 0.97580 0.79622
 H318 H 0.59842 0.97648 0.73547
 H319 H 0.57771 0.94569 0.74238
 H320 H 0.59849 0.94529 0.80428
 H321 H 0.63670 1.04143 0.74991
 H322 H 0.61847 1.07251 0.73834
 H323 H 0.56239 1.03892 0.74107
 H324 H 0.58166 1.00855 0.75274
 C325 C 0.66150 1.02003 0.81608
 C326 C 0.66491 0.97846 0.70332
 C327 C 0.58908 1.05792 0.73882
 C328 C 0.58646 0.94338 0.77393
 C329 C 0.01882 0.23461 -0.14875
 H330 H 0.02661 0.24904 -0.14978
 C331 C 0.02620 0.21792 -0.15980
 H332 H 0.03964 0.21952 -0.16947
 C333 C -0.00769 0.21454 -0.13424
 H334 H -0.02054 0.21306 -0.12388
 C335 C -0.00083 0.19752 -0.14501
 H336 H -0.00858 0.18311 -0.14305
 N337 N 0.00214 0.23265 -0.13629
 C338 C -0.02228 0.29385 -0.12582
 H339 H -0.02329 0.29334 -0.10935
 C340 C -0.02898 0.31115 -0.13640
 H341 H -0.03518 0.32402 -0.12808
 C342 C -0.01318 0.27761 -0.15679
 H343 H -0.00722 0.26442 -0.16467
 C344 C -0.01974 0.29465 -0.16799
 H345 H -0.01872 0.29459 -0.18448
 Zn346 Zn -0.00595 0.25504 -0.11997
 N347 N -0.01437 0.27763 -0.13607
 C348 C 0.02453 0.28131 -0.10590
 N349 N 0.01669 0.26222 -0.10427
 C350 C 0.02556 0.24761 -0.09238
 C351 C 0.04285 0.25209 -0.08127
 C352 C 0.04176 0.28641 -0.09507
 C353 C -0.04610 0.24390 -0.11270
 C354 C -0.06328 0.23769 -0.10159
 C355 C -0.04400 0.23992 -0.07071
 C356 C -0.02713 0.24613 -0.08245
 N357 N -0.02840 0.24762 -0.10309
 H358 H 0.01767 0.29255 -0.11582
 H359 H 0.01926 0.23244 -0.09168
 H360 H 0.04986 0.24040 -0.07188
 H361 H 0.04793 0.30162 -0.09652
 H362 H -0.04671 0.24545 -0.12910
 H363 H -0.07716 0.23440 -0.10952
 H364 H -0.04273 0.23841 -0.05432
 H365 H -0.01305 0.24954 -0.07507
 C366 C -0.02765 0.31158 -0.15766
 C367 C 0.01632 0.19919 -0.15780
 C368 C -0.06219 0.23548 -0.08041
 C369 C 0.05101 0.27168 -0.08267
 C370 C 0.47247 0.23705 0.15440
 H371 H 0.46422 0.25140 0.15454
 C372 C 0.46487 0.22027 0.16536
 H373 H 0.45077 0.22170 0.17407
 C374 C 0.50038 0.21727 0.14211
 H375 H 0.51389 0.21593 0.13259
 C376 C 0.49333 0.20016 0.15283
 H377 H 0.50155 0.18582 0.15168
 N378 N 0.48993 0.23527 0.14305
 C379 C 0.51292 0.29671 0.13193
 H380 H 0.51481 0.29612 0.11555
 C381 C 0.51863 0.31409 0.14232
 H382 H 0.52494 0.32695 0.13393
 C383 C 0.50269 0.28052 0.16293
 H384 H 0.49671 0.26731 0.17090
 C385 C 0.50824 0.29765 0.17395
 H386 H 0.50644 0.29763 0.19038
 Zn387 Zn 0.49820 0.25767 0.12646
 N388 N 0.50496 0.28045 0.14228
 C389 C 0.46776 0.28333 0.10967
 N390 N 0.47627 0.26434 0.10925
 C391 C 0.46846 0.24940 0.09761
 C392 C 0.45146 0.25336 0.08566
 C393 C 0.45080 0.28792 0.09796
 C394 C 0.53901 0.24705 0.12180
 C395 C 0.55689 0.24081 0.11185
 C396 C 0.53923 0.24240 0.07991
 C397 C 0.52163 0.24865 0.09049
 N398 N 0.52176 0.25044 0.11112
 H399 H 0.47379 0.29485 0.11940
 H400 H 0.47527 0.23433 0.09787
 H401 H 0.44518 0.24134 0.07660
 H402 H 0.44398 0.30300 0.09858
 H403 H 0.53871 0.24880 0.13817
 H404 H 0.57043 0.23767 0.12055
 H405 H 0.53894 0.24055 0.06355
 H406 H 0.50788 0.25179 0.08224
 C407 C 0.51625 0.31458 0.16351
 C408 C 0.47534 0.20163 0.16443
 C409 C 0.55694 0.23825 0.09075
 C410 C 0.44253 0.27279 0.08591
 C411 C 0.97362 0.73605 0.65195
 H412 H 0.96543 0.75043 0.65230
 C413 C 0.96614 0.71925 0.66294
 H414 H 0.95218 0.72068 0.67188
 C415 C 1.00129 0.71626 0.63914
 H416 H 1.01466 0.71493 0.62943
 C417 C 0.99435 0.69912 0.64989
 H418 H 1.00252 0.68476 0.64856
 N419 N 0.99091 0.73428 0.64034
 C420 C 1.01407 0.79572 0.62965
 H421 H 1.01578 0.79533 0.61323
 C422 C 1.01992 0.81295 0.64019
 H423 H 1.02615 0.82591 0.63190
 C424 C 1.00413 0.77916 0.66055
 H425 H 0.99819 0.76587 0.66841
 C426 C 1.00981 0.79614 0.67171
 H427 H 1.00816 0.79592 0.68816
 Zn428 Zn 0.99908 0.75681 0.62388
 N429 N 1.00617 0.77936 0.63987
 C430 C 0.96856 0.78284 0.60779
 N431 N 0.97694 0.76380 0.60706
 C432 C 0.96888 0.74905 0.59536
 C433 C 0.95177 0.75326 0.58364
 C434 C 0.95150 0.78768 0.59632
 C435 C 1.03977 0.74601 0.61849
 C436 C 1.05745 0.73975 0.60819
 C437 C 1.03929 0.74183 0.57656
 C438 C 1.02190 0.74809 0.58747
 N439 N 1.02236 0.74963 0.60811
 H440 H 0.97479 0.79421 0.61756
 H441 H 0.97559 0.73393 0.59537
 H442 H 0.94531 0.74139 0.57452
 H443 H 0.94481 0.80281 0.59717
 H444 H 1.03973 0.74757 0.63487
 H445 H 1.07110 0.73642 0.61664
 H446 H 1.03873 0.74016 0.56019
 H447 H 1.00804 0.75141 0.57947
 C448 C 1.01773 0.81319 0.66140
 C449 C 0.97654 0.70058 0.66177
 C450 C 1.05714 0.73743 0.58707
 C451 C 0.94299 0.77275 0.58420
 C452 C 0.52053 0.73662 0.35034
 H453 H 0.52814 0.75115 0.34925
 C454 C 0.52802 0.72001 0.33926
 H455 H 0.54138 0.72176 0.32950
 C456 C 0.49435 0.71626 0.36504
 H457 H 0.48158 0.71464 0.37549
 C458 C 0.50133 0.69931 0.35424
 H459 H 0.49376 0.68481 0.35627
 N460 N 0.50395 0.73448 0.36291
 C461 C 0.47904 0.79548 0.37355
 H462 H 0.47814 0.79492 0.39002
 C463 C 0.47210 0.81272 0.36305
 H464 H 0.46584 0.82550 0.37148
 C465 C 0.48810 0.77936 0.34250
 H466 H 0.49413 0.76623 0.33457
 C467 C 0.48130 0.79635 0.33136
 H468 H 0.48223 0.79627 0.31486
 Zn469 Zn 0.49573 0.75681 0.37926
 N470 N 0.48703 0.77934 0.36322
 C471 C 0.52602 0.78335 0.39328
 N472 N 0.51835 0.76419 0.39489
 C473 C 0.52733 0.74966 0.40678
 C474 C 0.54454 0.75430 0.41794
 C475 C 0.54316 0.78862 0.40417
 C476 C 0.45573 0.74525 0.38675
 C477 C 0.43865 0.73898 0.39799
 C478 C 0.45801 0.74164 0.42875
 C479 C 0.47478 0.74790 0.41690
 N480 N 0.47343 0.74922 0.39626
 H481 H 0.51906 0.79454 0.38335
 H482 H 0.52117 0.73443 0.40747
 H483 H 0.55163 0.74267 0.42736
 H484 H 0.54918 0.80390 0.40275
 H485 H 0.45504 0.74667 0.37034
 H486 H 0.42474 0.73548 0.39023
 H487 H 0.45925 0.74026 0.44513
 H488 H 0.48885 0.75151 0.42420
 C489 C 0.47328 0.81321 0.34176
 C490 C 0.51838 0.70116 0.34134
 C491 C 0.43985 0.73699 0.41915
 C492 C 0.55250 0.77398 0.41659
 C493 C 0.39647 -0.01674 0.26982
 H494 H 0.39618 -0.00228 0.27756
 C495 C 0.40732 -0.03326 0.27799
 H496 H 0.41532 -0.03138 0.29209
 C497 C 0.38534 -0.03705 0.24270
 H498 H 0.37641 -0.03869 0.22923
 C499 C 0.39597 -0.05390 0.25031
 H500 H 0.39542 -0.06818 0.24225
 N501 N 0.38571 -0.01892 0.25251
 C502 C 0.37433 0.04136 0.22595
 H503 H 0.35815 0.03998 0.22364
 C504 C 0.38431 0.05914 0.21990
 H505 H 0.37572 0.07130 0.21268
 C506 C 0.40511 0.02688 0.23788
 H507 H 0.41313 0.01425 0.24487
 C508 C 0.41575 0.04444 0.23199
 H509 H 0.43190 0.04524 0.23475
 Zn510 Zn 0.36908 0.00302 0.24340
 N511 N 0.38471 0.02583 0.23506
 C512 C 0.35148 0.02982 0.27227
 N513 N 0.35150 0.01037 0.26537
 C514 C 0.34014 -0.00430 0.27485
 C515 C 0.32812 0.00040 0.29199
 C516 C 0.33962 0.03520 0.28921
 C517 C 0.36516 -0.00848 0.20317
 C518 C 0.35565 -0.01534 0.18579
 C519 C 0.32352 -0.01452 0.20427
 C520 C 0.33368 -0.00767 0.22136
 N521 N 0.35420 -0.00518 0.22059
 H522 H 0.36101 0.04116 0.26499
 H523 H 0.34070 -0.01975 0.26927
 H524 H 0.31922 -0.01145 0.29941
 H525 H 0.34020 0.05067 0.29470
 H526 H 0.38142 -0.00608 0.20292
 H527 H 0.36470 -0.01797 0.17211
 H528 H 0.30727 -0.01700 0.20529
 H529 H 0.32521 -0.00464 0.23527
 C530 C 0.40526 0.06096 0.22309
 C531 C 0.40692 -0.05225 0.26834
 C532 C 0.33460 -0.01873 0.18627
 C533 C 0.32781 0.02040 0.29938
 C534 C 0.09115 1.02450 0.77632
 H535 H 0.08989 1.00970 0.78368
 C536 C 0.08016 1.04113 0.78404
 H537 H 0.07019 1.03893 0.79718
 C538 C 0.10603 1.04538 0.75048
 H539 H 0.11657 1.04717 0.73780
 C540 C 0.09533 1.06238 0.75767
 H541 H 0.09779 1.07704 0.75032
 N542 N 0.10376 1.02688 0.75982
 C543 C 0.11440 0.96641 0.73471
 H544 H 0.13083 0.96683 0.73371
 C545 C 0.10414 0.94931 0.72810
 H546 H 0.11281 0.93668 0.72181
 C547 C 0.08323 0.98271 0.74371
 H548 H 0.07518 0.99582 0.74971
 C549 C 0.07231 0.96588 0.73719
 H550 H 0.05586 0.96608 0.73846
 Zn551 Zn 0.11998 1.00441 0.75132
 N552 N 0.10392 0.98252 0.74261
 C553 C 0.13322 0.97677 0.78173
 N554 N 0.13568 0.99586 0.77383
 C555 C 0.14833 1.00938 0.78254
 C556 C 0.15941 1.00371 0.79972
 C557 C 0.14390 0.97051 0.79888
 C558 C 0.12692 1.01703 0.71137
 C559 C 0.13787 1.02326 0.69404
 C560 C 0.16896 1.01864 0.71266
 C561 C 0.15737 1.01249 0.72970
 N562 N 0.13671 1.01216 0.72883
 H563 H 0.12273 0.96638 0.77499
 H564 H 0.14967 1.02463 0.77623
 H565 H 0.16927 1.01470 0.80659
 H566 H 0.14184 0.95517 0.80479
 H567 H 0.11050 1.01626 0.71102
 H568 H 0.12975 1.02710 0.68031
 H569 H 0.18535 1.01930 0.71374
 H570 H 0.16490 1.00813 0.74358
 C571 C 0.08281 0.94880 0.72944
 C572 C 0.08230 1.06044 0.77476
 C573 C 0.15917 1.02434 0.69460
 C574 C 0.15715 0.98406 0.80815
 C575 C 0.59345 0.52746 0.27418
 H576 H 0.59234 0.51289 0.28200
 C577 C 0.58312 0.54448 0.28198
 H578 H 0.57408 0.54286 0.29586
 C579 C 0.60756 0.54749 0.24726
 H580 H 0.61745 0.54879 0.23401
 C581 C 0.59751 0.56484 0.25449
 H582 H 0.59945 0.57918 0.24637
 N583 N 0.60541 0.52926 0.25713
 C584 C 0.61463 0.46854 0.23203
 H585 H 0.63101 0.46897 0.23019
 C586 C 0.60405 0.45143 0.22598
 H587 H 0.61240 0.43881 0.21926
 C588 C 0.58394 0.48479 0.24264
 H589 H 0.57621 0.49788 0.24908
 C590 C 0.57269 0.46794 0.23670
 H591 H 0.55632 0.46811 0.23884
 Zn592 Zn 0.62110 0.50646 0.24845
 N593 N 0.60457 0.48463 0.24047
 C594 C 0.63609 0.47860 0.27790
 N595 N 0.63751 0.49799 0.27046
 C596 C 0.65000 0.51174 0.27905
 C597 C 0.66208 0.50601 0.29549
 C598 C 0.64793 0.47222 0.29421
 C599 C 0.62732 0.51831 0.20805
 C600 C 0.63805 0.52431 0.19049
 C601 C 0.66936 0.52017 0.20882
 C602 C 0.65800 0.51425 0.22607
 N603 N 0.63734 0.51379 0.22547
 H604 H 0.62564 0.46804 0.27138
 H605 H 0.65058 0.52717 0.27307
 H606 H 0.67214 0.51705 0.30198
 H607 H 0.64642 0.45677 0.30000
 H608 H 0.61090 0.51747 0.20791
 H609 H 0.62975 0.52790 0.17680
 H610 H 0.68576 0.52098 0.20971
 H611 H 0.66572 0.51020 0.23993
 C612 C 0.58281 0.45088 0.22845
 C613 C 0.58529 0.56355 0.27222
 C614 C 0.65935 0.52554 0.19079
 C615 C 0.66122 0.48595 0.30317
 C616 C 0.89719 0.48315 0.76901
 H617 H 0.89710 0.49766 0.77667
 C618 C 0.90789 0.46656 0.77724
 H619 H 0.91598 0.46843 0.79129
 C620 C 0.88569 0.46280 0.74209
 H621 H 0.87665 0.46118 0.72868
 C622 C 0.89616 0.44588 0.74975
 H623 H 0.89540 0.43156 0.74180
 N624 N 0.88631 0.48098 0.75178
 C625 C 0.87533 0.54123 0.72502
 H626 H 0.85912 0.53998 0.72284
 C627 C 0.88542 0.55889 0.71881
 H628 H 0.87688 0.57110 0.71160
 C629 C 0.90608 0.52654 0.73678
 H630 H 0.91404 0.51387 0.74377
 C631 C 0.91683 0.54397 0.73073
 H632 H 0.93302 0.54465 0.73335
 Zn633 Zn 0.86985 0.50303 0.74265
 N634 N 0.88564 0.52566 0.73413
 C635 C 0.85268 0.53011 0.77150
 N636 N 0.85245 0.51064 0.76466
 C637 C 0.84095 0.49613 0.77421
 C638 C 0.82901 0.50103 0.79136
 C639 C 0.84091 0.53568 0.78845
 C640 C 0.86561 0.49137 0.70252
 C641 C 0.85593 0.48463 0.68520
 C642 C 0.82387 0.48603 0.70378
 C643 C 0.83421 0.49276 0.72081
 N644 N 0.85477 0.49491 0.71997
 H645 H 0.86233 0.54132 0.76416
 H646 H 0.84131 0.48067 0.76868
 H647 H 0.81999 0.48931 0.79883
 H648 H 0.84168 0.55116 0.79388
 H649 H 0.88191 0.49352 0.70220
 H650 H 0.86488 0.48181 0.67149
 H651 H 0.80758 0.48384 0.70486
 H652 H 0.82583 0.49597 0.73473
 C653 C 0.90641 0.56054 0.72183
 C654 C 0.90722 0.44752 0.76772
 C655 C 0.83481 0.48160 0.68576
 C656 C 0.82895 0.52105 0.79868
 C657 C 0.27054 0.39770 -0.01584
 H658 H 0.27792 0.39797 -0.00127
 C659 C 0.27868 0.40873 -0.03238
 H660 H 0.29217 0.41775 -0.03031
 C661 C 0.24425 0.38522 -0.03631
 H662 H 0.23118 0.37560 -0.03799
 C663 C 0.25185 0.39600 -0.05322
 H664 H 0.24446 0.39452 -0.06771
 N665 N 0.25363 0.38623 -0.01808
 C666 C 0.22686 0.37542 0.04236
 H667 H 0.22501 0.35909 0.04147
 C668 C 0.22046 0.38567 0.05984
 H669 H 0.21344 0.37713 0.07227
 C670 C 0.23798 0.40633 0.02695
 H671 H 0.24477 0.41429 0.01407
 C672 C 0.23173 0.41723 0.04418
 H673 H 0.23402 0.43354 0.04449
 Zn674 Zn 0.24457 0.36978 0.00416
 N675 N 0.23575 0.38574 0.02652
 C676 C 0.27350 0.35361 0.03142
 N677 N 0.26669 0.35289 0.01202
 C678 C 0.27628 0.34120 -0.00226
 C679 C 0.29337 0.32948 0.00283
 C680 C 0.29039 0.34208 0.03718
 C681 C 0.20459 0.36448 -0.00736
 C682 C 0.18724 0.35417 -0.01316
 C683 C 0.20608 0.32245 -0.01073
 C684 C 0.22311 0.33340 -0.00490
 N685 N 0.22211 0.35406 -0.00359
 H686 H 0.26614 0.36343 0.04242
 H687 H 0.27076 0.34117 -0.01768
 H688 H 0.30084 0.32025 -0.00869
 H689 H 0.29578 0.34320 0.05260
 H690 H 0.20420 0.38090 -0.00603
 H691 H 0.17359 0.36283 -0.01655
 H692 H 0.20710 0.30601 -0.01171
 H693 H 0.23706 0.32537 -0.00143
 C694 C 0.22306 0.40683 0.06102
 C695 C 0.26940 0.40782 -0.05144
 C696 C 0.18786 0.33288 -0.01500
 C697 C 0.30062 0.32986 0.02281
 C698 C 0.77484 0.09457 1.02569
 H699 H 0.78208 0.09375 1.01078
 C700 C 0.78280 0.08338 1.04202
 H701 H 0.79601 0.07371 1.03947
 C702 C 0.74906 0.10853 1.04718
 H703 H 0.73628 0.11878 1.04934
 C704 C 0.75648 0.09761 1.06387
 H705 H 0.74923 0.09963 1.07867
 N706 N 0.75824 0.10681 1.02852
 C707 C 0.73106 0.11808 0.96933
 H708 H 0.72986 0.13452 0.97007
 C709 C 0.72350 0.10794 0.95262
 H710 H 0.71671 0.11674 0.94041
 C711 C 0.74166 0.08681 0.98437
 H712 H 0.74851 0.07865 0.99692
 C713 C 0.73432 0.07601 0.96785
 H714 H 0.73556 0.05954 0.96785
 Zn715 Zn 0.74923 0.12332 1.00652
 N716 N 0.74006 0.10750 0.98469
 C717 C 0.77812 0.13883 0.97797
 N718 N 0.77132 0.13969 0.99763
 C719 C 0.78066 0.15153 1.01143
 C720 C 0.79732 0.16345 1.00551
 C721 C 0.79464 0.15052 0.97140
 C722 C 0.70944 0.12971 1.02012
 C723 C 0.69224 0.14051 1.02673
 C724 C 0.71100 0.17179 1.02230
 C725 C 0.72790 0.16036 1.01577
 N726 N 0.72690 0.13968 1.01511
 H727 H 0.77093 0.12891 0.96734
 H728 H 0.77513 0.15169 1.02705
 H729 H 0.80443 0.17296 1.01663
 H730 H 0.79996 0.14942 0.95574
 H731 H 0.70898 0.11328 1.01908
 H732 H 0.67849 0.13226 1.03062
 H733 H 0.71218 0.18821 1.02317
 H734 H 0.74178 0.16803 1.01133
 C735 C 0.72505 0.08662 0.95171
 C736 C 0.77365 0.08493 1.06147
 C737 C 0.69292 0.16183 1.02806
 C738 C 0.80445 0.16308 0.98522
 C739 C 0.27471 0.59424 0.52453
 H740 H 0.28260 0.59331 0.50996
 C741 C 0.28223 0.58360 0.54142
 H742 H 0.29597 0.57450 0.53970
 C743 C 0.24790 0.60823 0.54471
 H744 H 0.23481 0.61820 0.54613
 C745 C 0.25487 0.59787 0.56193
 H746 H 0.24669 0.59964 0.57628
 N747 N 0.25786 0.60630 0.52647
 C748 C 0.23342 0.61674 0.46588
 H749 H 0.23194 0.63316 0.46648
 C750 C 0.22717 0.60644 0.44870
 H751 H 0.22068 0.61506 0.43621
 C752 C 0.24324 0.58564 0.48180
 H753 H 0.24942 0.57763 0.49479
 C754 C 0.23708 0.57467 0.46488
 H755 H 0.23880 0.55824 0.46490
 Zn756 Zn 0.24961 0.62245 0.50389
 N757 N 0.24154 0.60632 0.48184
 C758 C 0.27951 0.63780 0.47635
 N759 N 0.27191 0.63891 0.49571
 C760 C 0.28054 0.65111 0.50968
 C761 C 0.29720 0.66321 0.50420
 C762 C 0.29605 0.64967 0.47022
 C763 C 0.20927 0.62868 0.51574
 C764 C 0.19184 0.63939 0.52186
 C765 C 0.21061 0.67075 0.51821
 C766 C 0.22773 0.65940 0.51216
 N767 N 0.22684 0.63872 0.51141
 H768 H 0.27294 0.62757 0.46561
 H769 H 0.27441 0.65144 0.52509
 H770 H 0.30372 0.67304 0.51542
 H771 H 0.30198 0.64841 0.45477
 H772 H 0.20891 0.61224 0.51466
 H773 H 0.17802 0.63108 0.52530
 H774 H 0.21172 0.68716 0.51925
 H775 H 0.24172 0.66714 0.50825
 C776 C 0.22910 0.58514 0.44796
 C777 C 0.27240 0.58555 0.56050
 C778 C 0.19242 0.66070 0.52339
 C779 C 0.30507 0.66266 0.48418
 C780 C 0.77093 0.90048 0.48553
 H781 H 0.77841 0.90059 0.50006
 C782 C 0.77902 0.91158 0.46902
 H783 H 0.79258 0.92051 0.47107
 C784 C 0.74445 0.88828 0.46513
 H785 H 0.73133 0.87872 0.46346
 C786 C 0.75200 0.89914 0.44826
 H787 H 0.74452 0.89778 0.43380
 N788 N 0.75396 0.88910 0.48332
 C789 C 0.72763 0.87748 0.54383
 H790 H 0.72568 0.86118 0.54268
 C791 C 0.72147 0.88746 0.56154
 H792 H 0.71451 0.87875 0.57389
 C793 C 0.73880 0.90857 0.52884
 H794 H 0.74553 0.91671 0.51604
 C795 C 0.73279 0.91921 0.54632
 H796 H 0.73519 0.93549 0.54688
 Zn797 Zn 0.74505 0.87238 0.50542
 N798 N 0.73644 0.88802 0.52808
 C799 C 0.77414 0.85569 0.53222
 N800 N 0.76721 0.85536 0.51285
 C801 C 0.77667 0.84390 0.49830
 C802 C 0.79374 0.83201 0.50309
 C803 C 0.79102 0.84398 0.53767
 C804 C 0.70498 0.86716 0.49402
 C805 C 0.68767 0.85687 0.48805
 C806 C 0.70663 0.82520 0.49002
 C807 C 0.72361 0.83611 0.49603
 N808 N 0.72254 0.85675 0.49761
 H809 H 0.76687 0.86533 0.54345
 H810 H 0.77107 0.84417 0.48292
 H811 H 0.80110 0.82295 0.49135
 H812 H 0.79649 0.84478 0.55309
 H813 H 0.70453 0.88355 0.49558
 H814 H 0.67399 0.86553 0.48476
 H815 H 0.70772 0.80878 0.48880
 H816 H 0.73759 0.82808 0.49936
 C817 C 0.72422 0.90858 0.56306
 C818 C 0.76963 0.91085 0.45000
 C819 C 0.68838 0.83562 0.48586
 C820 C 0.80109 0.83198 0.52303
 C821 C -0.01429 0.26933 0.39923
 H822 H 0.00034 0.27671 0.39958
 C823 C -0.03086 0.27748 0.41014
 H824 H -0.02875 0.29096 0.41917
 C825 C -0.03489 0.24310 0.38657
 H826 H -0.03661 0.23008 0.37689
 C827 C -0.05183 0.25071 0.39724
 H828 H -0.06637 0.24337 0.39561
 N829 N -0.01659 0.25247 0.38769
 C830 C 0.04368 0.22611 0.37618
 H831 H 0.04274 0.22447 0.35985
 C832 C 0.06115 0.21967 0.38619
 H833 H 0.07351 0.21283 0.37747
 C834 C 0.02842 0.23674 0.40732
 H835 H 0.01560 0.24336 0.41546
 C836 C 0.04564 0.23043 0.41799
 H837 H 0.04601 0.23251 0.43431
 Zn838 Zn 0.00559 0.24369 0.37105
 N839 N 0.02792 0.23477 0.38673
 C840 C 0.03287 0.27308 0.35490
 N841 N 0.01347 0.26611 0.35434
 C842 C -0.00083 0.27574 0.34290
 C843 C 0.00423 0.29304 0.33128
 C844 C 0.03859 0.29020 0.34346
 C845 C -0.00626 0.20367 0.36532
 C846 C -0.01227 0.18648 0.35480
 C847 C -0.00953 0.20590 0.32336
 C848 C -0.00350 0.22274 0.33451
 N849 N -0.00227 0.22139 0.35514
 H850 H 0.04389 0.26567 0.36452
 H851 H -0.01623 0.27009 0.34300
 H852 H -0.00731 0.30052 0.32224
 H853 H 0.05401 0.29570 0.34445
 H854 H -0.00498 0.20300 0.38172
 H855 H -0.01586 0.17268 0.36328
 H856 H -0.01046 0.20720 0.30695
 H857 H 0.00015 0.23684 0.32665
 C858 C 0.06240 0.22199 0.40735
 C859 C -0.05001 0.26826 0.40905
 C860 C -0.01408 0.18749 0.33354
 C861 C 0.02419 0.30046 0.33150
 C862 C 1.02508 0.77292 0.09257
 H863 H 1.01061 0.78076 0.09120
 C864 C 1.04223 0.78025 0.08198
 H865 H 1.04081 0.79380 0.07251
 C866 C 1.04471 0.74645 0.10756
 H867 H 1.04579 0.73357 0.11788
 C868 C 1.06218 0.75323 0.09728
 H869 H 1.07641 0.74512 0.09948
 N870 N 1.02662 0.75632 0.10509
 C871 C 0.96562 0.73203 0.11495
 H872 H 0.96576 0.73093 0.13140
 C873 C 0.94866 0.72560 0.10448
 H874 H 0.93587 0.71933 0.11300
 C875 C 0.98247 0.74114 0.08397
 H876 H 0.99573 0.74713 0.07607
 C877 C 0.96579 0.73478 0.07283
 H878 H 0.96626 0.73617 0.05638
 Zn879 Zn 1.00360 0.74842 0.12101
 N880 N 0.98194 0.73991 0.10467
 C881 C 0.97595 0.77873 0.13497
 N882 N 0.99519 0.77117 0.13665
 C883 C 1.00887 0.78008 0.14892
 C884 C 1.00318 0.79696 0.16059
 C885 C 0.96962 0.79549 0.14638
 C886 C 1.01497 0.70815 0.12881
 C887 C 1.02034 0.69097 0.14029
 C888 C 1.01567 0.71072 0.17086
 C889 C 1.01034 0.72755 0.15877
 N890 N 1.01041 0.72606 0.13812
 H891 H 0.96546 0.77192 0.12468
 H892 H 1.02418 0.77398 0.14971
 H893 H 1.01415 0.80366 0.17053
 H894 H 0.95428 0.80134 0.14471
 H895 H 1.01467 0.70734 0.11237
 H896 H 1.02446 0.67702 0.13253
 H897 H 1.01557 0.71218 0.18726
 H898 H 1.00617 0.74176 0.16592
 C899 C 0.94851 0.72708 0.08314
 C900 C 1.06116 0.77049 0.08447
 C901 C 1.02089 0.69215 0.16161
 C902 C 0.98326 0.80475 0.15950
 C903 C 0.52506 0.27258 0.59156
 H904 H 0.51037 0.28004 0.59043
 C905 C 0.54189 0.28048 0.58086
 H906 H 0.54001 0.29406 0.57152
 C907 C 0.54557 0.24652 0.60607
 H908 H 0.54715 0.23360 0.61626
 C909 C 0.56273 0.25387 0.59567
 H910 H 0.57720 0.24613 0.59764
 N911 N 0.52719 0.25592 0.60391
 C912 C 0.46754 0.22892 0.61466
 H913 H 0.46805 0.22774 0.63110
 C914 C 0.45094 0.22128 0.60445
 H915 H 0.43859 0.21444 0.61319
 C916 C 0.48304 0.23956 0.58347
 H917 H 0.49572 0.24648 0.57538
 C918 C 0.46663 0.23214 0.57259
 H919 H 0.46683 0.23339 0.55613
 Zn920 Zn 0.50469 0.24718 0.62014
 N921 N 0.48308 0.23796 0.60415
 C922 C 0.47624 0.27630 0.63500
 N923 N 0.49580 0.26950 0.63610
 C924 C 0.50949 0.27897 0.64793
 C925 C 0.50356 0.29575 0.65961
 C926 C 0.46966 0.29294 0.64645
 C927 C 0.51736 0.20725 0.62728
 C928 C 0.52371 0.19017 0.63839
 C929 C 0.51944 0.20950 0.66928
 C930 C 0.51317 0.22626 0.65755
 N931 N 0.51260 0.22493 0.63691
 H932 H 0.46571 0.26898 0.62509
 H933 H 0.52504 0.27345 0.64828
 H934 H 0.51458 0.30295 0.66914
 H935 H 0.45408 0.29823 0.64518
 H936 H 0.51641 0.20653 0.61088
 H937 H 0.52747 0.17626 0.63041
 H938 H 0.52031 0.21096 0.68565
 H939 H 0.50892 0.24031 0.66495
 C940 C 0.45033 0.22280 0.58313
 C941 C 0.56111 0.27123 0.58306
 C942 C 0.52504 0.19122 0.65966
 C943 C 0.48336 0.30286 0.65902
 C944 C 0.48534 0.76851 0.89727
 H945 H 0.49998 0.77588 0.89750
 C946 C 0.46884 0.77670 0.90824
 H947 H 0.47101 0.79022 0.91720
 C948 C 0.46466 0.74223 0.88484
 H949 H 0.46288 0.72916 0.87524
 C950 C 0.44779 0.74989 0.89557
 H951 H 0.43323 0.74254 0.89408
 N952 N 0.48298 0.75159 0.88582
 C953 C 0.54312 0.72492 0.87435
 H954 H 0.54211 0.72311 0.85805
 C955 C 0.56061 0.71855 0.88437
 H956 H 0.57293 0.71160 0.87566
 C957 C 0.52800 0.73591 0.90543
 H958 H 0.51523 0.74267 0.91355
 C959 C 0.54525 0.72970 0.91609
 H960 H 0.54569 0.73197 0.93238
 Zn961 Zn 0.50510 0.74267 0.86918
 N962 N 0.52742 0.73374 0.88487
 C963 C 0.53251 0.77187 0.85295
 N964 N 0.51308 0.76501 0.85239
 C965 C 0.49882 0.77475 0.84098
 C966 C 0.50396 0.79208 0.82943
 C967 C 0.53832 0.78900 0.84158
 C968 C 0.49317 0.70265 0.86364
 C969 C 0.48712 0.68543 0.85322
 C970 C 0.48973 0.70471 0.82169
 C971 C 0.49580 0.72160 0.83274
 N972 N 0.49713 0.72034 0.85336
 H973 H 0.54350 0.76438 0.86255
 H974 H 0.48338 0.76920 0.84108
 H975 H 0.49245 0.79967 0.82044
 H976 H 0.55376 0.79442 0.84259
 H977 H 0.49453 0.70205 0.88003
 H978 H 0.48358 0.67165 0.86177
 H979 H 0.48873 0.70595 0.80528
 H980 H 0.49940 0.73568 0.82482
 C981 C 0.56196 0.72112 0.90548
 C982 C 0.44969 0.76748 0.90731
 C983 C 0.48523 0.68633 0.83196
 C984 C 0.52396 0.79940 0.82968
 C985 C 0.44545 -0.08614 0.29534
 C986 C 0.43574 -0.10504 0.29510
 C987 C 0.41678 -0.10669 0.28602
 C988 C 0.40751 -0.08955 0.27725
 C989 C 0.46636 -0.17008 0.33137
 C990 C 0.43618 -0.06894 0.28656
 C991 C 0.44487 -0.12270 0.30461
 C992 C 0.45204 -0.13763 0.31275
 C993 C 0.45995 -0.15516 0.32259
 C994 C 0.41708 -0.07046 0.27742
 H995 H 0.46013 -0.08468 0.30236
 H996 H 0.40906 -0.12120 0.28587
 H997 H 0.39264 -0.09118 0.27067
 H998 H 0.44401 -0.05450 0.28678
 C999 C 0.91643 0.39309 0.78576
 C1000 C 0.93545 0.39455 0.79477
 C1001 C 0.94541 0.41332 0.79482
 C1002 C 0.93634 0.43058 0.78595
 C1003 C 0.96528 0.32930 0.83129
 C1004 C 0.90735 0.41028 0.77689
 C1005 C 0.94438 0.37684 0.80436
 C1006 C 0.95137 0.36187 0.81257
 C1007 C 0.95906 0.34427 0.82248
 C1008 C 0.91718 0.42924 0.77689
 H1009 H 0.90851 0.37868 0.78575
 H1010 H 0.96014 0.41464 0.80178
 H1011 H 0.94436 0.44491 0.78603
 H1012 H 0.89244 0.40879 0.77039
 C1013 C 0.06160 1.09911 0.81253
 C1014 C 0.05391 1.11426 0.79951
 C1015 C 0.05485 1.11152 0.77842
 C1016 C 0.06372 1.09384 0.77035
 C1017 C 0.02424 1.18142 0.83201
 C1018 C 0.07046 1.08143 0.80451
 C1019 C 0.04550 1.13278 0.80784
 C1020 C 0.03868 1.14825 0.81509
 C1021 C 0.03086 1.16625 0.82398
 C1022 C 0.07179 1.07866 0.78331
 H1023 H 0.06101 1.10110 0.82889
 H1024 H 0.04890 1.12311 0.76819
 H1025 H 0.06429 1.09205 0.75398
 H1026 H 0.07678 1.07018 0.81488
 C1027 C 0.54677 0.59917 0.29753
 C1028 C 0.55751 0.61751 0.29742
 C1029 C 0.57720 0.61821 0.28902
 C1030 C 0.58617 0.60069 0.28079
 C1031 C 0.52644 0.68349 0.33107
 C1032 C 0.55573 0.58159 0.28930
 C1033 C 0.54856 0.63555 0.30624
 C1034 C 0.54138 0.65073 0.31379
 C1035 C 0.53325 0.66847 0.32292
 C1036 C 0.57555 0.58216 0.28083
 H1037 H 0.53151 0.59845 0.30401
 H1038 H 0.58570 0.63228 0.28897
 H1039 H 0.60157 0.60157 0.27472
 H1040 H 0.54710 0.56762 0.28939
 C1041 C 0.56955 0.39569 0.21931
 C1042 C 0.55163 0.39774 0.20832
 C1043 C 0.54332 0.41716 0.20469
 C1044 C 0.55314 0.43449 0.21169
 C1045 C 0.52255 0.33230 0.17435
 C1046 C 0.57940 0.41295 0.22627
 C1047 C 0.54256 0.37996 0.19979
 C1048 C 0.53566 0.36494 0.19224
 C1049 C 0.52830 0.34730 0.18286
 C1050 C 0.57147 0.43257 0.22228
 H1051 H 0.57613 0.38074 0.22220
 H1052 H 0.52950 0.41893 0.19609
 H1053 H 0.54677 0.44939 0.20824
 H1054 H 0.59331 0.41097 0.23465
 C1055 C 0.06989 0.89369 0.71941
 C1056 C 0.05253 0.89586 0.70757
 C1057 C 0.04449 0.91532 0.70360
 C1058 C 0.05402 0.93258 0.71112
 C1059 C 0.02406 0.83079 0.67241
 C1060 C 0.07945 0.91089 0.72689
 C1061 C 0.04374 0.87815 0.69864
 C1062 C 0.03700 0.86321 0.69079
 C1063 C 0.02976 0.84568 0.68112
 C1064 C 0.07179 0.93056 0.72260
 H1065 H 0.07625 0.87871 0.72258
 H1066 H 0.03111 0.91718 0.69435
 H1067 H 0.04788 0.94752 0.70741
 H1068 H 0.09292 0.90883 0.73595
 C1069 C 0.91764 0.61653 0.71254
 C1070 C 0.93663 0.61554 0.70261
 C1071 C 0.94611 0.59660 0.69953
 C1072 C 0.93649 0.57867 0.70609
 C1073 C 0.96843 0.68266 0.67172
 C1074 C 0.90799 0.59866 0.71907
 C1075 C 0.94590 0.63393 0.69487
 C1076 C 0.95327 0.64938 0.68801
 C1077 C 0.96155 0.66741 0.67949
 C1078 C 0.91720 0.57951 0.71573
 H1079 H 0.91016 0.63110 0.71503
 H1080 H 0.96077 0.59565 0.69177
 H1081 H 0.94387 0.56416 0.70313
 H1082 H 0.89331 0.59983 0.72674
 C1083 C 0.41610 0.11709 0.21417
 C1084 C 0.43520 0.11631 0.20445
 C1085 C 0.44486 0.09745 0.20137
 C1086 C 0.43532 0.07942 0.20772
 C1087 C 0.46710 0.18370 0.17426
 C1088 C 0.40653 0.09911 0.22050
 C1089 C 0.44444 0.13481 0.19693
 C1090 C 0.45181 0.15033 0.19025
 C1091 C 0.46014 0.16842 0.18190
 C1092 C 0.41593 0.08005 0.21716
 H1093 H 0.40848 0.13160 0.21665
 H1094 H 0.45962 0.09666 0.19377
 H1095 H 0.44285 0.06498 0.20477
 H1096 H 0.39175 0.10012 0.22802
 C1097 C 0.27437 0.43652 -0.10191
 C1098 C 0.29546 0.43611 -0.10522
 C1099 C 0.30806 0.42712 -0.09063
 C1100 C 0.29962 0.41830 -0.07295
 C1101 C 0.32982 0.46425 -0.17280
 C1102 C 0.26589 0.42769 -0.08423
 C1103 C 0.30420 0.44434 -0.12381
 C1104 C 0.31186 0.45089 -0.13936
 C1105 C 0.32128 0.45823 -0.15748
 C1106 C 0.27841 0.41832 -0.06962
 H1107 H 0.26446 0.44347 -0.11308
 H1108 H 0.32440 0.42664 -0.09307
 H1109 H 0.30966 0.41095 -0.06217
 H1110 H 0.24953 0.42817 -0.08200
 C1111 C 0.77459 0.93955 0.39954
 C1112 C 0.79566 0.93894 0.39612
 C1113 C 0.80826 0.92985 0.41065
 C1114 C 0.79984 0.92112 0.42839
 C1115 C 0.83001 0.96646 0.32829
 C1116 C 0.76612 0.93082 0.41727
 C1117 C 0.80439 0.94703 0.37746
 C1118 C 0.81203 0.95344 0.36184
 C1119 C 0.82146 0.96060 0.34365
 C1120 C 0.77865 0.92133 0.43182
 H1121 H 0.76469 0.94657 0.38841
 H1122 H 0.82459 0.92922 0.40813
 H1123 H 0.80987 0.91368 0.43911
 H1124 H 0.74978 0.93144 0.41958
 C1125 C 0.81174 0.06414 1.09936
 C1126 C 0.79887 0.05588 1.11450
 C1127 C 0.77779 0.05644 1.11196
 C1128 C 0.76958 0.06550 1.09452
 C1129 C 0.83146 0.02564 1.18107
 C1130 C 0.80357 0.07319 1.08190
 C1131 C 0.80731 0.04732 1.13282
 C1132 C 0.81459 0.04037 1.14815
 C1133 C 0.82347 0.03240 1.16601
 C1134 C 0.78238 0.07416 1.07937
 H1135 H 0.82808 0.06384 1.10119
 H1136 H 0.76768 0.05005 1.12355
 H1137 H 0.75322 0.06578 1.09290
 H1138 H 0.81382 0.07996 1.07067
 C1139 C 0.28881 0.57668 0.61502
 C1140 C 0.29695 0.55693 0.61412
 C1141 C 0.29700 0.54641 0.59569
 C1142 C 0.28897 0.55564 0.57823
 C1143 C 0.33010 0.52503 0.67965
 C1144 C 0.28078 0.58591 0.59762
 C1145 C 0.30560 0.54773 0.63204
 C1146 C 0.31303 0.54036 0.64711
 C1147 C 0.32204 0.53201 0.66473
 C1148 C 0.28076 0.57551 0.57900
 H1149 H 0.28881 0.58502 0.62916
 H1150 H 0.30328 0.53111 0.59482
 H1151 H 0.28900 0.54717 0.56418
 H1152 H 0.27491 0.60135 0.59865
 C1153 C 0.21937 0.57266 0.39281
 C1154 C 0.20792 0.55487 0.39485
 C1155 C 0.20418 0.54638 0.41423
 C1156 C 0.21151 0.55590 0.43154
 C1157 C 0.17307 0.52648 0.32979
 C1158 C 0.22667 0.58220 0.41006
 C1159 C 0.19910 0.54610 0.37712
 C1160 C 0.19132 0.53940 0.36218
 C1161 C 0.18173 0.53219 0.34466
 C1162 C 0.22257 0.57410 0.42964
 H1163 H 0.22236 0.57937 0.37790
 H1164 H 0.19523 0.53267 0.41599
 H1165 H 0.20797 0.54941 0.44641
 H1166 H 0.23541 0.59602 0.40809
 C1167 C 0.69111 0.07232 0.90823
 C1168 C 0.70221 0.05638 0.89927
 C1169 C 0.72054 0.04983 0.90781
 C1170 C 0.72785 0.05939 0.92512
 C1171 C 0.67130 0.02640 0.83292
 C1172 C 0.69839 0.08189 0.92546
 C1173 C 0.69479 0.04718 0.88110
 C1174 C 0.68800 0.04009 0.86584
 C1175 C 0.67934 0.03244 0.84801
 C1176 C 0.71694 0.07568 0.93400
 H1177 H 0.67687 0.07746 0.90180
 H1178 H 0.72927 0.03752 0.90098
 H1179 H 0.74226 0.05440 0.93124
 H1180 H 0.68947 0.09416 0.93212
 C1181 C 0.71547 0.91971 0.61912
 C1182 C 0.70540 0.93857 0.61823
 C1183 C 0.70200 0.94797 0.59932
 C1184 C 0.70840 0.93842 0.58134
 C1185 C 0.67492 0.97033 0.68546
 C1186 C 0.72185 0.91013 0.60119
 C1187 C 0.69784 0.94779 0.63669
 C1188 C 0.69110 0.95514 0.65218
 C1189 C 0.68267 0.96342 0.67023
 C1190 C 0.71821 0.91927 0.58208
 H1191 H 0.71820 0.91230 0.63366
 H1192 H 0.69412 0.96253 0.59845
 H1193 H 0.70520 0.94574 0.56686
 H1194 H 0.72965 0.89556 0.60228
 C1195 C 0.20017 0.44671 0.09633
 C1196 C 0.20346 0.43768 0.11544
 C1197 C 0.21366 0.41891 0.11676
 C1198 C 0.22029 0.40906 0.09908
 C1199 C 0.17253 0.47019 0.18211
 C1200 C 0.20682 0.43688 0.07859
 C1201 C 0.19567 0.44717 0.13367
 C1202 C 0.18880 0.45472 0.14900
 C1203 C 0.18028 0.46318 0.16692
 C1204 C 0.21677 0.41783 0.07977
 H1205 H 0.19219 0.46119 0.09513
 H1206 H 0.21630 0.41179 0.13147
 H1207 H 0.22819 0.39457 0.10050
 H1208 H 0.20372 0.44392 0.06396
 C1209 C -0.08898 0.30728 0.42743
 C1210 C -0.10398 0.29477 0.43619
 C1211 C -0.10101 0.27362 0.43680
 C1212 C -0.08326 0.26499 0.42839
 C1213 C -0.17167 0.32969 0.46270
 C1214 C -0.07123 0.29870 0.41902
 C1215 C -0.12263 0.30367 0.44396
 C1216 C -0.13822 0.31146 0.45012
 C1217 C -0.15636 0.32104 0.45702
 C1218 C -0.06824 0.27743 0.41922
 H1219 H -0.09115 0.32367 0.42680
 H1220 H -0.11250 0.26379 0.44358
 H1221 H -0.08131 0.24859 0.42900
 H1222 H -0.06013 0.30868 0.41182
 C1223 C 0.41086 0.80650 0.92600
 C1224 C 0.39596 0.79399 0.93494
 C1225 C 0.39895 0.77284 0.93555
 C1226 C 0.41662 0.76421 0.92696
 C1227 C 0.32852 0.82871 0.96237
 C1228 C 0.42852 0.79792 0.91741
 C1229 C 0.37740 0.80288 0.94293
 C1230 C 0.36187 0.81064 0.94930
 C1231 C 0.34379 0.82015 0.95645
 C1232 C 0.43153 0.77665 0.91762
 H1233 H 0.40867 0.82289 0.92537
 H1234 H 0.38754 0.76301 0.94247
 H1235 H 0.41859 0.74782 0.92758
 H1236 H 0.43954 0.80789 0.91008
 C1237 C 1.11587 0.78696 0.07584
 C1238 C 1.11537 0.79472 0.05592
 C1239 C 1.09718 0.79443 0.04519
 C1240 C 1.07953 0.78647 0.05438
 C1241 C 1.18125 0.82819 0.02397
 C1242 C 1.09828 0.77900 0.08505
 C1243 C 1.13344 0.80340 0.04675
 C1244 C 1.14860 0.81089 0.03937
 C1245 C 1.16629 0.82001 0.03100
 C1246 C 1.07989 0.77867 0.07444
 H1247 H 1.12983 0.78723 0.08434
 H1248 H 1.09661 0.80041 0.02975
 H1249 H 1.06567 0.78625 0.04575
 H1250 H 1.09900 0.77345 0.10062
 C1251 C 0.59629 0.29622 0.54367
 C1252 C 0.61455 0.29682 0.55427
 C1253 C 0.61532 0.28905 0.57418
 C1254 C 0.59797 0.28072 0.58348
 C1255 C 0.68029 0.33053 0.52234
 C1256 C 0.57886 0.28788 0.55296
 C1257 C 0.63245 0.30570 0.54498
 C1258 C 0.64756 0.31327 0.53758
 C1259 C 0.66526 0.32241 0.52925
 C1260 C 0.57952 0.28001 0.57298
 H1261 H 0.59551 0.30221 0.52825
 H1262 H 0.62933 0.28956 0.58258
 H1263 H 0.59890 0.27513 0.59902
 H1264 H 0.56495 0.28740 0.54443
 C1265 C 0.40686 0.18860 0.56885
 C1266 C 0.39802 0.19975 0.55297
 C1267 C 0.40671 0.21815 0.54638
 C1268 C 0.42400 0.22552 0.55588
 C1269 C 0.33133 0.16867 0.52394
 C1270 C 0.42408 0.19593 0.57837
 C1271 C 0.37980 0.19232 0.54392
 C1272 C 0.36446 0.18550 0.53704
 C1273 C 0.34653 0.17677 0.52969
 C1274 C 0.43273 0.21458 0.57215
 H1275 H 0.40033 0.17429 0.57402
 H1276 H 0.39997 0.22693 0.53411
 H1277 H 0.43022 0.24000 0.55088
 H1278 H 0.43063 0.18700 0.59062
 C1279 C 0.89360 0.71754 0.06976
 C1280 C 0.89589 0.70578 0.05224
 C1281 C 0.91539 0.70172 0.04424
 C1282 C 0.93256 0.70906 0.05396
 C1283 C 0.83090 0.67127 0.02317
 C1284 C 0.91070 0.72485 0.07952
 C1285 C 0.87825 0.69702 0.04324
 C1286 C 0.86334 0.68932 0.03636
 C1287 C 0.84582 0.67983 0.02898
 C1288 C 0.93039 0.72045 0.07190
 H1289 H 0.87859 0.72078 0.07610
 H1290 H 0.91735 0.69253 0.03073
 H1291 H 0.94751 0.70528 0.04784
 H1292 H 0.90854 0.73384 0.09311
 C1293 C 0.61772 0.71210 0.91676
 C1294 C 0.61653 0.70188 0.93557
 C1295 C 0.59751 0.69844 0.94488
 C1296 C 0.57972 0.70497 0.93529
 C1297 C 0.68319 0.67144 0.96751
 C1298 C 0.59999 0.71860 0.90715
 C1299 C 0.63480 0.69425 0.94484
 C1300 C 0.65015 0.68750 0.95223
 C1301 C 0.66805 0.67911 0.96056
 C1302 C 0.58077 0.71494 0.91621
 H1303 H 0.63236 0.71486 0.90942
 H1304 H 0.59641 0.69045 0.95940
 H1305 H 0.56516 0.70176 0.94255
 H1306 H 0.60131 0.72653 0.89263
 C1307 C 0.11808 0.21265 0.41878
 C1308 C 0.11678 0.20215 0.43743
 C1309 C 0.09770 0.19866 0.44661
 C1310 C 0.07998 0.20539 0.43704
 C1311 C 0.18315 0.17082 0.46913
 C1312 C 0.10042 0.21937 0.40919
 C1313 C 0.13498 0.19428 0.44665
 C1314 C 0.15025 0.18733 0.45399
 C1315 C 0.16808 0.17869 0.46226
 C1316 C 0.08114 0.21563 0.41810
 H1317 H 0.13276 0.21546 0.41154
 H1318 H 0.09651 0.19045 0.46100
 H1319 H 0.06538 0.20212 0.44418
 H1320 H 0.10183 0.22749 0.39478
 C1321 C 0.53075 0.15118 0.70157
 C1322 C 0.54706 0.13955 0.69388
 C1323 C 0.55618 0.14486 0.67517
 C1324 C 0.54903 0.16167 0.66411
 C1325 C 0.57858 0.07545 0.73067
 C1326 C 0.52356 0.16806 0.69050
 C1327 C 0.55463 0.12214 0.70503
 C1328 C 0.56157 0.10745 0.71374
 C1329 C 0.57041 0.09019 0.72321
 C1330 C 0.53260 0.17344 0.67161
 H1331 H 0.52357 0.14718 0.71604
 H1332 H 0.56888 0.13601 0.66913
 H1333 H 0.55653 0.16561 0.64978
 H1334 H 0.51077 0.17671 0.69658
 C1335 C 1.04755 0.65962 0.20134
 C1336 C 1.04170 0.64002 0.19587
 C1337 C 1.02835 0.63750 0.17977
 C1338 C 1.02120 0.65449 0.16891
 C1339 C 1.07619 0.57564 0.22942
 C1340 C 1.04040 0.67664 0.19051
 C1341 C 1.05029 0.62244 0.20595
 C1342 C 1.05798 0.60768 0.21387
 C1343 C 1.06754 0.59039 0.22254
 C1344 C 1.02735 0.67423 0.17400
 H1345 H 1.05799 0.66173 0.21369
 H1346 H 1.02374 0.62239 0.17539
 H1347 H 1.01095 0.65217 0.15646
 H1348 H 1.04561 0.69161 0.19464
 C1349 C 0.95033 0.84013 0.19156
 C1350 C 0.96287 0.85712 0.19308
 C1351 C 0.98245 0.85673 0.18431
 C1352 C 0.98933 0.83952 0.17375
 C1353 C 0.92937 0.92224 0.22575
 C1354 C 0.95714 0.82296 0.18100
 C1355 C 0.95508 0.87522 0.20274
 C1356 C 0.94773 0.89023 0.21043
 C1357 C 0.93823 0.90760 0.21893
 C1358 C 0.97662 0.82255 0.17175
 H1359 H 0.93515 0.84027 0.19829
 H1360 H 0.99224 0.86986 0.18531
 H1361 H 1.00432 0.83971 0.16664
 H1362 H 0.94713 0.81002 0.17997
 C1363 C 0.45032 0.33797 0.69128
 C1364 C 0.46244 0.35533 0.69213
 C1365 C 0.48179 0.35530 0.68284
 C1366 C 0.48884 0.33806 0.67243
 C1367 C 0.42867 0.42053 0.72443
 C1368 C 0.45730 0.32077 0.68087
 C1369 C 0.45446 0.37343 0.70166
 C1370 C 0.44704 0.38846 0.70925
 C1371 C 0.43751 0.40586 0.71766
 C1372 C 0.47654 0.32071 0.67111
 H1373 H 0.43532 0.33784 0.69842
 H1374 H 0.49125 0.36870 0.68331
 H1375 H 0.50363 0.33853 0.66490
 H1376 H 0.44762 0.30754 0.68037
 C1377 C 0.47720 0.63148 0.81670
 C1378 C 0.46268 0.63381 0.80153
 C1379 C 0.45623 0.65337 0.79561
 C1380 C 0.46397 0.67052 0.80512
 C1381 C 0.42679 0.56846 0.77473
 C1382 C 0.48492 0.64859 0.82624
 C1383 C 0.45352 0.61610 0.79301
 C1384 C 0.44547 0.60113 0.78657
 C1385 C 0.43560 0.58353 0.77982
 C1386 C 0.47818 0.66829 0.82076
 H1387 H 0.48228 0.61642 0.82142
 H1388 H 0.44489 0.65534 0.78397
 H1389 H 0.45832 0.68547 0.80073
 H1390 H 0.49606 0.64640 0.83803
 C1391 C -0.02217 0.13273 0.31799
 C1392 C -0.03664 0.13517 0.30279
 C1393 C -0.04303 0.15477 0.29694
 C1394 C -0.03529 0.17185 0.30656
 C1395 C -0.07274 0.07007 0.27572
 C1396 C -0.01444 0.14977 0.32764
 C1397 C -0.04584 0.11752 0.29418
 C1398 C -0.05394 0.10262 0.28767
 C1399 C -0.06387 0.08508 0.28085
 C1400 C -0.02113 0.16951 0.32224
 H1401 H -0.01714 0.11763 0.32266
 H1402 H -0.05433 0.15682 0.28529
 H1403 H -0.04090 0.18683 0.30222
 H1404 H -0.00335 0.14750 0.33945
 C1405 C 0.02348 0.35478 0.31098
 C1406 C 0.04270 0.35596 0.30150
 C1407 C 0.05529 0.33867 0.30074
 C1408 C 0.04898 0.32042 0.30991
 C1409 C 0.07485 0.42540 0.27757
 C1410 C 0.01710 0.33649 0.32014
 C1411 C 0.05023 0.37517 0.29390
 C1412 C 0.05731 0.39117 0.28816
 C1413 C 0.06641 0.40973 0.28214
 C1414 C 0.02997 0.31923 0.32003
 H1415 H 0.01367 0.36812 0.31178
 H1416 H 0.07021 0.33942 0.29347
 H1417 H 0.05909 0.30730 0.30936
 H1418 H 0.00248 0.33610 0.32800
 C1419 C 0.52355 0.85398 0.80989
 C1420 C 0.54280 0.85519 0.80048
 C1421 C 0.55527 0.83783 0.79944
 C1422 C 0.54883 0.81948 0.80831
 C1423 C 0.57553 0.92489 0.77823
 C1424 C 0.51704 0.83560 0.81875
 C1425 C 0.55050 0.87449 0.79330
 C1426 C 0.55771 0.89055 0.78794
 C1427 C 0.56697 0.90917 0.78238
 C1428 C 0.52980 0.81826 0.81840
 H1429 H 0.51383 0.86737 0.81091
 H1430 H 0.57021 0.83860 0.79222
 H1431 H 0.55887 0.80631 0.80758
 H1432 H 0.50241 0.83517 0.82660
 C1433 C 0.67413 0.55608 0.14349
 C1434 C 0.69261 0.54685 0.13781
 C1435 C 0.70033 0.53061 0.14945
 C1436 C 0.68956 0.52363 0.16672
 C1437 C 0.72876 0.57797 0.07267
 C1438 C 0.66335 0.54913 0.16070
 C1439 C 0.70351 0.55428 0.12006
 C1440 C 0.71207 0.56112 0.10513
 C1441 C 0.72139 0.56986 0.08762
 C1442 C 0.67092 0.53280 0.17250
 H1443 H 0.66806 0.56872 0.13464
 H1444 H 0.71462 0.52335 0.14517
 H1445 H 0.69567 0.51091 0.17540
 H1446 H 0.64923 0.55673 0.16492
 C1447 C 0.20028 1.02926 0.65337
 C1448 C 0.19272 1.04562 0.64179
 C1449 C 0.17441 1.05509 0.64758
 C1450 C 0.16360 1.04822 0.66479
 C1451 C 0.22830 1.07590 0.57595
 C1452 C 0.18948 1.02235 0.67065
 C1453 C 0.20354 1.05283 0.62389
 C1454 C 0.21197 1.05948 0.60880
 C1455 C 0.22110 1.06799 0.59107
 C1456 C 0.17095 1.03171 0.67649
 H1457 H 0.21445 1.02180 0.64900
 H1458 H 0.16846 1.06783 0.63878
 H1459 H 0.14957 1.05597 0.66907
 H1460 H 0.19542 1.00949 0.67925
 C1461 C 0.16899 0.95904 0.85893
 C1462 C 0.18960 0.96356 0.86088
 C1463 C 0.19951 0.97546 0.84594
 C1464 C 0.18888 0.98253 0.82893
 C1465 C 0.22588 0.92794 0.92256
 C1466 C 0.15838 0.96604 0.84197
 C1467 C 0.20057 0.95513 0.87781
 C1468 C 0.20916 0.94728 0.89199
 C1469 C 0.21850 0.93722 0.90852
 C1470 C 0.16826 0.97765 0.82665
 H1471 H 0.16117 0.94987 0.87041
 H1472 H 0.21549 0.97897 0.84726
 H1473 H 0.19691 0.99131 0.81731
 H1474 H 0.14244 0.96231 0.84081
 C1475 C 0.68658 0.48478 0.35464
 C1476 C 0.69533 0.46524 0.35471
 C1477 C 0.69373 0.45291 0.33760
 C1478 C 0.68306 0.45987 0.32067
 C1479 C 0.72745 0.43067 0.41925
 C1480 C 0.67591 0.49181 0.33765
 C1481 C 0.70493 0.45720 0.37265
 C1482 C 0.71250 0.44962 0.38753
 C1483 C 0.72082 0.43980 0.40475
 C1484 C 0.67378 0.47927 0.32061
 H1485 H 0.68762 0.49440 0.36785
 H1486 H 0.70044 0.43776 0.33750
 H1487 H 0.68192 0.45000 0.30766
 H1488 H 0.66877 0.50674 0.33811
 C1489 C 0.79600 0.47335 0.64456
 C1490 C 0.80551 0.45790 0.63324
 C1491 C 0.82437 0.45010 0.63921
 C1492 C 0.83380 0.45776 0.65633
 C1493 C 0.77681 0.42548 0.56714
 C1494 C 0.80541 0.48104 0.66176
 C1495 C 0.79623 0.44998 0.61536
 C1496 C 0.78929 0.44279 0.60023
 C1497 C 0.78213 0.43374 0.58240
 C1498 C 0.82449 0.47339 0.66775
 H1499 H 0.78140 0.47952 0.64004
 H1500 H 0.83183 0.43809 0.63061
 H1501 H 0.84830 0.45130 0.66074
 H1502 H 0.79796 0.49319 0.67016
 C1503 C 0.29602 -0.02771 0.14501
 C1504 C 0.30584 -0.04298 0.13369
 C1505 C 0.32485 -0.05039 0.13966
 C1506 C 0.33410 -0.04255 0.15679
 C1507 C 0.27738 -0.07601 0.06775
 C1508 C 0.30527 -0.01983 0.16221
 C1509 C 0.29670 -0.05112 0.11584
 C1510 C 0.28983 -0.05847 0.10074
 C1511 C 0.28271 -0.06766 0.08297
 C1512 C 0.32448 -0.02711 0.16822
 H1513 H 0.28130 -0.02184 0.14049
 H1514 H 0.33255 -0.06227 0.13107
 H1515 H 0.34872 -0.04873 0.16121
 H1516 H 0.29757 -0.00783 0.17061
 C1517 C 0.29650 0.05072 0.33762
 C1518 C 0.29760 0.03819 0.35498
 C1519 C 0.30734 0.01916 0.35379
 C1520 C 0.31649 0.01295 0.33544
 C1521 C 0.27499 0.07066 0.42459
 C1522 C 0.30567 0.04458 0.31932
 C1523 C 0.29024 0.04572 0.37427
 C1524 C 0.28477 0.05284 0.39032
 C1525 C 0.27915 0.06207 0.40891
 C1526 C 0.31611 0.02580 0.31813
 H1527 H 0.28905 0.06550 0.33838
 H1528 H 0.30841 0.00941 0.36717
 H1529 H 0.32460 -0.00149 0.33504
 H1530 H 0.30492 0.05467 0.30617
 C1531 C 0.79794 0.55183 0.83678
 C1532 C 0.79889 0.53935 0.85418
 C1533 C 0.80844 0.52021 0.85307
 C1534 C 0.81755 0.51385 0.83476
 C1535 C 0.77615 0.57215 0.92359
 C1536 C 0.80706 0.54553 0.81851
 C1537 C 0.79154 0.54699 0.87343
 C1538 C 0.78605 0.55420 0.88943
 C1539 C 0.78038 0.56351 0.90796
 C1540 C 0.81732 0.52665 0.81740
 H1541 H 0.79063 0.56668 0.83748
 H1542 H 0.80939 0.51050 0.86649
 H1543 H 0.82551 0.49933 0.83442
 H1544 H 0.80643 0.55559 0.80533
 C1545 C 0.15162 0.70181 0.52896
 C1546 C 0.13977 0.69383 0.54505
 C1547 C 0.14513 0.67514 0.55403
 C1548 C 0.16224 0.66442 0.54698
 C1549 C 0.07486 0.72956 0.57654
 C1550 C 0.16880 0.69109 0.52187
 C1551 C 0.12211 0.70466 0.55258
 C1552 C 0.10723 0.71313 0.55951
 C1553 C 0.08976 0.72232 0.56835
 C1554 C 0.17426 0.67224 0.53078
 H1555 H 0.14758 0.71626 0.52189
 H1556 H 0.13611 0.66888 0.56656
 H1557 H 0.16623 0.65013 0.55439
 H1558 H 0.17764 0.69739 0.50925
 C1559 C 0.65205 0.20285 1.03362
 C1560 C 0.64042 0.19504 1.04996
 C1561 C 0.64606 0.17658 1.05922
 C1562 C 0.66317 0.16587 1.05215
 C1563 C 0.57488 0.23042 1.08057
 C1564 C 0.66923 0.19214 1.02651
 C1565 C 0.62263 0.20577 1.05735
 C1566 C 0.60761 0.21415 1.06409
 C1567 C 0.58996 0.22325 1.07265
 C1568 C 0.67492 0.17347 1.03566
 H1569 H 0.64779 0.21713 1.02632
 H1570 H 0.63721 0.17044 1.07194
 H1571 H 0.66734 0.15172 1.05972
 H1572 H 0.67785 0.19828 1.01366
 C1573 C 0.83949 0.19577 0.95228
 C1574 C 0.85681 0.19658 0.96427
 C1575 C 0.85675 0.18718 0.98353
 C1576 C 0.83953 0.17667 0.99061
 C1577 C 0.92208 0.22869 0.93000
 C1578 C 0.82231 0.18526 0.95929
 C1579 C 0.87491 0.20612 0.95620
 C1580 C 0.88995 0.21368 0.94867
 C1581 C 0.90738 0.22202 0.93900
 C1582 C 0.82223 0.17536 0.97843
 H1583 H 0.83937 0.20299 0.93734
 H1584 H 0.87012 0.18761 0.99288
 H1585 H 0.83999 0.16903 1.00531
 H1586 H 0.80912 0.18476 0.94970
 C1587 C 0.34035 0.69562 0.45185
 C1588 C 0.35730 0.69691 0.46430
 C1589 C 0.35686 0.68778 0.48370
 C1590 C 0.33966 0.67706 0.49045
 C1591 C 0.42261 0.72949 0.43070
 C1592 C 0.32320 0.68489 0.45853
 C1593 C 0.37544 0.70661 0.45654
 C1594 C 0.39050 0.71428 0.44919
 C1595 C 0.40793 0.72273 0.43963
 C1596 C 0.32276 0.67524 0.47779
 H1597 H 0.34053 0.70262 0.43681
 H1598 H 0.36995 0.68859 0.49341
 H1599 H 0.33983 0.66963 0.50527
 H1600 H 0.31031 0.68401 0.44857
 C1601 C 0.65519 0.79965 0.45662
 C1602 C 0.63572 0.80563 0.46333
 C1603 C 0.63351 0.82070 0.47810
 C1604 C 0.65066 0.83011 0.48581
 C1605 C 0.57042 0.77922 0.42753
 C1606 C 0.67238 0.80902 0.46434
 C1607 C 0.61798 0.79726 0.45419
 C1608 C 0.60302 0.79092 0.44615
 C1609 C 0.58545 0.78427 0.43632
 C1610 C 0.67028 0.82457 0.47881
 H1611 H 0.65707 0.78808 0.44508
 H1612 H 0.61851 0.82547 0.48338
 H1613 H 0.64857 0.84182 0.49715
 H1614 H 0.68726 0.80458 0.45849
 C1615 C 0.15428 0.29664 -0.04349
 C1616 C 0.13489 0.30283 -0.03676
 C1617 C 0.13286 0.31812 -0.02219
 C1618 C 0.15011 0.32753 -0.01472
 C1619 C 0.06906 0.27675 -0.07186
 C1620 C 0.17158 0.30602 -0.03601
 C1621 C 0.11703 0.29449 -0.04570
 C1622 C 0.10195 0.28821 -0.05356
 C1623 C 0.08422 0.28166 -0.06322
 C1624 C 0.16966 0.32179 -0.02177
 H1625 H 0.15602 0.28491 -0.05487
 H1626 H 0.11792 0.32305 -0.01689
 H1627 H 0.14816 0.33942 -0.00355
 H1628 H 0.18641 0.30142 -0.04188
 C1629 C 0.35472 0.30921 0.02229
 C1630 C 0.35563 0.29997 0.04160
 C1631 C 0.33820 0.29931 0.05413
 C1632 C 0.32009 0.30841 0.04771
 C1633 C 0.42437 0.27713 0.07471
 C1634 C 0.33658 0.31830 0.01580
 C1635 C 0.37470 0.29259 0.04931
 C1636 C 0.39055 0.28707 0.05659
 C1637 C 0.40891 0.28138 0.06598
 C1638 C 0.31919 0.31834 0.02863
 H1639 H 0.36817 0.30994 0.01252
 H1640 H 0.33873 0.29223 0.06912
 H1641 H 0.30688 0.30798 0.05780
 H1642 H 0.33639 0.32601 0.00112
 C1643 C 0.85504 0.81092 0.52184
 C1644 C 0.85597 0.80129 0.54096
 C1645 C 0.83860 0.80053 0.55358
 C1646 C 0.82054 0.80991 0.54742
 C1647 C 0.92476 0.77737 0.57321
 C1648 C 0.83694 0.82028 0.51562
 C1649 C 0.87503 0.79361 0.54843
 C1650 C 0.89088 0.78784 0.55550
 C1651 C 0.90926 0.78185 0.56467
 C1652 C 0.81961 0.82022 0.52854
 H1653 H 0.86845 0.81172 0.51201
 H1654 H 0.83916 0.79316 0.56842
 H1655 H 0.80737 0.80939 0.55757
 H1656 H 0.83673 0.82828 0.50110
   
