data_POSCAR
  _audit_creation_date              2014-09-24
  _audit_creation_method            'ToBaCCo'
  _symmetry_space_group_name_H-M    'P1'
  _symmetry_Int_Tables_number       1
  _symmetry_cell_setting            triclinic
  loop_
  _symmetry_equiv_pos_as_xyz
 x,y,z
_cell_length_a 54.7029
_cell_length_b 54.7082
_cell_length_c 54.7020
_cell_angle_alpha 89.971800
_cell_angle_beta 90.002900
_cell_angle_gamma 89.953900
loop_
  _atom_site_label
  _atom_site_type_symbol
  _atom_site_fract_x
  _atom_site_fract_y
  _atom_site_fract_z
C1 C 0.12510 -0.00169 0.25170
 C2 C 0.37528 0.00035 0.74951
 C3 C 0.87541 0.49989 0.24871
 C4 C 0.62524 0.49875 0.75157
 C5 C 0.25012 0.12460 1.00101
 C6 C 0.75038 0.37531 0.99973
 C7 C 0.24978 0.87518 0.49842
 C8 C 0.74866 0.62503 0.49992
 C9 C -0.00021 0.25061 0.12450
 C10 C 0.00165 0.75182 0.37458
 C11 C 0.50113 0.25012 0.87460
 C12 C 0.49831 0.75021 0.62417
 C13 C 0.87489 0.99866 0.75156
 C14 C 0.37499 0.49804 0.25142
 C15 C 0.62563 1.00005 0.24954
 C16 C 0.12550 0.50031 0.74854
 C17 C 0.75039 0.87511 -0.00055
 C18 C 0.24897 0.37492 0.50089
 C19 C 0.24991 0.62524 -0.00160
 C20 C 0.74979 0.12541 0.49968
 C21 C 0.99846 0.75084 0.87446
 C22 C 0.49965 0.25005 0.37461
 C23 C 1.00120 0.25155 0.62443
 C24 C 0.50148 0.74999 0.12452
 O25 O 0.05498 1.04621 0.99712
 O26 O 0.03694 1.05006 0.95918
 O27 O -0.00528 1.05442 1.04740
 O28 O -0.04042 1.03592 1.05569
 O29 O 0.04708 0.99482 1.05616
 O30 O 0.04955 0.95614 1.03773
 O31 O -0.06888 0.98840 0.98458
 O32 O -0.06959 1.02781 0.99822
 O33 O -0.01216 0.98365 0.93253
 O34 O 0.03134 0.99535 0.93266
 O35 O -0.01626 0.93109 0.98848
 O36 O -0.00606 0.92981 1.03109
 O37 O -0.05486 0.95435 1.00411
 O38 O -0.03404 0.94877 1.04487
 O39 O 0.00371 0.94517 0.95482
 O40 O 0.04255 0.96236 0.95132
 O41 O -0.04619 1.00294 0.94679
 O42 O -0.04592 1.04441 0.96531
 O43 O 0.06932 1.01190 1.01600
 O44 O 0.06865 0.96877 1.00405
 O45 O 0.01299 1.01397 1.07056
 O46 O -0.03052 1.00115 1.06919
 O47 O 0.01536 1.06860 1.01415
 O48 O 0.00106 1.06718 0.97136
 Zr49 Zr 0.01799 1.03811 0.99077
 O50 O -0.00377 1.01690 0.96722
 Zr51 Zr -0.01051 1.01705 1.04012
 O52 O -0.03400 0.99566 1.01843
 Zr53 Zr 0.03882 0.98845 1.01920
 O54 O 0.01737 0.96539 0.99708
 Zr55 Zr -0.03796 1.01103 0.98349
 O56 O -0.01708 1.03430 1.00629
 Zr57 Zr 0.01131 0.98190 0.96299
 O58 O 0.03487 1.00404 0.98425
 Zr59 Zr -0.01779 0.96142 1.01210
 O60 O 0.00474 0.98206 1.03592
 O61 O 0.02382 1.02287 1.02516
 O62 O -0.02347 0.97623 0.97749
 C63 C 0.07210 1.03326 1.00662
 C64 C 0.00503 1.07146 1.03501
 C65 C 0.03428 1.00444 1.07332
 C66 C -0.07172 0.96697 0.99369
 C67 C -0.03365 0.99269 0.92983
 C68 C -0.00691 0.92830 0.96716
 H69 H -0.00552 1.02554 0.95143
 H70 H 0.02591 0.94956 0.99520
 H71 H 0.03421 1.03335 1.03563
 H72 H -0.05000 0.99424 1.02671
 H73 H -0.06413 1.04320 1.00602
 H74 H -0.05458 1.03302 1.04486
 H75 H 0.05661 0.96930 0.96032
 H76 H 0.08325 0.97115 1.01456
 H77 H -0.06195 1.04265 0.95703
 H78 H 0.01099 1.08222 0.97342
 H79 H 0.01063 0.92588 1.02534
 H80 H 0.03591 0.95148 1.04868
 H81 H 0.04696 1.03613 0.95346
 H82 H 0.02361 1.01077 0.92722
 H83 H -0.02211 0.98573 1.07358
 H84 H -0.04828 0.95934 1.04843
 O85 O 0.55376 0.54573 0.49736
 O86 O 0.53562 0.54949 0.45944
 O87 O 0.49353 0.55358 0.54774
 O88 O 0.45848 0.53487 0.55606
 O89 O 0.54625 0.49435 0.55641
 O90 O 0.54889 0.45565 0.53802
 O91 O 0.43020 0.48724 0.48499
 O92 O 0.42929 0.52664 0.49859
 O93 O 0.48694 0.48282 0.43285
 O94 O 0.53036 0.49476 0.43296
 O95 O 0.48313 0.43022 0.48876
 O96 O 0.49339 0.42892 0.53133
 O97 O 0.44441 0.45326 0.50453
 O98 O 0.46540 0.44778 0.54524
 O99 O 0.50300 0.44443 0.45509
 O100 O 0.54176 0.46181 0.45162
 O101 O 0.45280 0.50189 0.44714
 O102 O 0.45283 0.54336 0.46567
 O103 O 0.56833 0.51150 0.51620
 O104 O 0.56786 0.46833 0.50429
 O105 O 0.51207 0.51330 0.57085
 O106 O 0.46863 0.50016 0.56955
 O107 O 0.51407 0.56788 0.51447
 O108 O 0.49967 0.56642 0.47172
 Zr109 Zr 0.51681 0.53742 0.49107
 O110 O 0.49514 0.51610 0.46754
 Zr111 Zr 0.48849 0.51619 0.54045
 O112 O 0.46510 0.49467 0.51878
 Zr113 Zr 0.53796 0.48788 0.51947
 O114 O 0.51661 0.46470 0.49737
 Zr115 Zr 0.46100 0.51002 0.48384
 O116 O 0.48178 0.53340 0.50663
 Zr117 Zr 0.51042 0.48119 0.46330
 O118 O 0.53389 0.50345 0.48453
 Zr119 Zr 0.48148 0.46052 0.51242
 O120 O 0.50393 0.48129 0.53622
 O121 O 0.52277 0.52221 0.52544
 O122 O 0.47568 0.47530 0.47781
 C123 C 0.57097 0.53289 0.50683
 C124 C 0.50376 0.57068 0.53535
 C125 C 0.53344 0.50392 0.57357
 C126 C 0.42746 0.46581 0.49415
 C127 C 0.46541 0.49173 0.43016
 C128 C 0.49247 0.42751 0.46742
 H129 H 0.49333 0.52473 0.45176
 H130 H 0.52523 0.44891 0.49547
 H131 H 0.53312 0.53275 0.53589
 H132 H 0.44912 0.49317 0.52709
 H133 H 0.43468 0.54204 0.50641
 H134 H 0.44433 0.53188 0.54524
 H135 H 0.55580 0.46885 0.46057
 H136 H 0.58247 0.47082 0.51476
 H137 H 0.43682 0.54150 0.45739
 H138 H 0.50953 0.58151 0.47375
 H139 H 0.51014 0.42517 0.52563
 H140 H 0.53529 0.45091 0.54897
 H141 H 0.54576 0.53563 0.45373
 H142 H 0.52255 0.51014 0.42753
 H143 H 0.47717 0.48481 0.57395
 H144 H 0.45110 0.45827 0.54883
 O145 O 0.50405 -0.05453 0.54584
 O146 O 0.54200 -0.03651 0.54982
 O147 O 0.45374 0.00575 0.55384
 O148 O 0.44553 0.04093 0.53527
 O149 O 0.44524 -0.04657 0.49428
 O150 O 0.46381 -0.04898 0.45561
 O151 O 0.51675 0.06938 0.48802
 O152 O 0.50300 0.07004 0.52739
 O153 O 0.56889 0.01264 0.48346
 O154 O 0.56873 -0.03087 0.49524
 O155 O 0.51317 0.01673 0.43068
 O156 O 0.47057 0.00660 0.42926
 O157 O 0.49740 0.05537 0.45388
 O158 O 0.45671 0.03457 0.44813
 O159 O 0.54677 -0.00329 0.44491
 O160 O 0.55024 -0.04207 0.46220
 O161 O 0.55452 0.04666 0.50266
 O162 O 0.53587 0.04635 0.54408
 O163 O 0.48531 -0.06882 0.51147
 O164 O 0.49745 -0.06813 0.46839
 O165 O 0.43076 -0.01249 0.51337
 O166 O 0.43214 0.03101 0.50046
 O167 O 0.48694 -0.01492 0.56815
 O168 O 0.52972 -0.00065 0.56689
 Zr169 Zr 0.51044 -0.01754 0.53775
 O170 O 0.53407 0.00423 0.51661
 Zr171 Zr 0.46117 0.01101 0.51649
 O172 O 0.48293 0.03448 0.49514
 Zr173 Zr 0.48221 -0.03831 0.48799
 O174 O 0.50444 -0.01687 0.46500
 Zr175 Zr 0.51781 0.03843 0.51065
 O176 O 0.49492 0.01754 0.53385
 Zr177 Zr 0.53845 -0.01083 0.48164
 O178 O 0.51710 -0.03440 0.50371
 Zr179 Zr 0.48943 0.01830 0.46094
 O180 O 0.46552 -0.00422 0.48152
 O181 O 0.47612 -0.02333 0.52238
 O182 O 0.52397 0.02396 0.47587
 C183 C 0.49458 -0.07163 0.53287
 C184 C 0.46606 -0.00459 0.57094
 C185 C 0.42805 -0.03379 0.50386
 C186 C 0.50771 0.07224 0.46656
 C187 C 0.57154 0.03412 0.49248
 C188 C 0.53449 0.00732 0.42798
 H189 H 0.54982 0.00597 0.52530
 H190 H 0.50638 -0.02541 0.44919
 H191 H 0.46562 -0.03372 0.53284
 H192 H 0.47465 0.05049 0.49369
 H193 H 0.49514 0.06456 0.54275
 H194 H 0.45634 0.05509 0.53234
 H195 H 0.54118 -0.05613 0.46908
 H196 H 0.48691 -0.08272 0.47072
 H197 H 0.54415 0.06238 0.54234
 H198 H 0.52762 -0.01059 0.58193
 H199 H 0.47630 -0.01011 0.42540
 H200 H 0.45283 -0.03536 0.45095
 H201 H 0.54776 -0.04655 0.53591
 H202 H 0.57412 -0.02313 0.51065
 H203 H 0.42782 0.02260 0.48504
 H204 H 0.45305 0.04876 0.45872
 O205 O -0.05429 0.45353 0.99429
 O206 O -0.03626 0.44966 0.95632
 O207 O 0.00606 0.44561 1.04453
 O208 O 0.04121 0.46422 1.05264
 O209 O -0.04648 0.50494 1.05319
 O210 O -0.04907 0.54365 1.03472
 O211 O 0.06937 0.51177 0.98147
 O212 O 0.07023 0.47237 0.99514
 O213 O 0.01253 0.51625 0.92945
 O214 O -0.03090 0.50439 0.92967
 O215 O 0.01647 0.56891 0.98531
 O216 O 0.00640 0.57019 1.02791
 O217 O 0.05524 0.54580 1.00093
 O218 O 0.03446 0.55136 1.04168
 O219 O -0.00352 0.55473 0.95171
 O220 O -0.04225 0.53731 0.94827
 O221 O 0.04665 0.49710 0.94370
 O222 O 0.04658 0.45567 0.96230
 O223 O -0.06870 0.48782 1.01312
 O224 O -0.06820 0.53093 1.00108
 O225 O -0.01229 0.48594 1.06757
 O226 O 0.03116 0.49899 1.06613
 O227 O -0.01459 0.43130 1.01135
 O228 O -0.00031 0.43269 0.96853
 Zr229 Zr -0.01733 0.46174 0.98787
 O230 O 0.00432 0.48301 0.96424
 Zr231 Zr 0.01119 0.48297 1.03712
 O232 O 0.03455 0.50443 1.01535
 Zr233 Zr -0.03828 0.51136 1.01622
 O234 O -0.01697 0.53447 0.99401
 Zr235 Zr 0.03852 0.48903 0.98043
 O236 O 0.01776 0.46571 1.00332
 Zr237 Zr -0.01089 0.51795 0.95994
 O238 O -0.03434 0.49575 0.98129
 Zr239 Zr 0.01821 0.53860 1.00896
 O240 O -0.00420 0.51790 1.03287
 O241 O -0.02315 0.47701 1.02222
 O242 O 0.02389 0.52378 0.97437
 C243 C -0.07144 0.46643 1.00381
 C244 C -0.00425 0.42851 1.03223
 C245 C -0.03363 0.49535 1.07033
 C246 C 0.07215 0.53321 0.99056
 C247 C 0.03404 0.50727 0.92673
 C248 C 0.00702 0.57166 0.96402
 H249 H 0.00607 0.47436 0.94847
 H250 H -0.02557 0.55027 0.99212
 H251 H -0.03348 0.46650 1.03272
 H252 H 0.05056 0.50591 1.02360
 H253 H 0.06484 0.45698 1.00300
 H254 H 0.05536 0.46726 1.04183
 H255 H -0.05626 0.53033 0.95732
 H256 H -0.08277 0.52852 1.01163
 H257 H 0.06259 0.45748 0.95399
 H258 H -0.01017 0.41762 0.97065
 H259 H -0.01035 0.57399 1.02225
 H260 H -0.03546 0.54832 1.04570
 H261 H -0.04635 0.46355 0.95059
 H262 H -0.02315 0.48897 0.92427
 H263 H 0.02268 0.51437 1.07051
 H264 H 0.04872 0.54082 1.04527
 O265 O 0.00420 0.55588 0.45225
 O266 O 0.04211 0.53768 0.44859
 O267 O -0.04622 0.49577 0.44425
 O268 O -0.05458 0.46068 0.46286
 O269 O -0.05498 0.54833 0.50354
 O270 O -0.03662 0.55091 0.54225
 O271 O 0.01633 0.43217 0.51072
 O272 O 0.00282 0.43137 0.47126
 O273 O 0.06852 0.48881 0.51531
 O274 O 0.06849 0.53224 0.50342
 O275 O 0.01245 0.48498 0.56775
 O276 O -0.03010 0.49533 0.56893
 O277 O -0.00327 0.44637 0.54465
 O278 O -0.04399 0.46739 0.55000
 O279 O 0.04618 0.50482 0.55367
 O280 O 0.04975 0.54361 0.53632
 O281 O 0.05424 0.45474 0.49617
 O282 O 0.03580 0.45489 0.45465
 O283 O -0.01472 0.57040 0.48644
 O284 O -0.00286 0.56983 0.52963
 O285 O -0.06940 0.51420 0.48453
 O286 O -0.06814 0.47073 0.49757
 O287 O -0.01290 0.51625 0.43003
 O288 O 0.02984 0.50180 0.43160
 Zr289 Zr 0.01044 0.51890 0.46056
 O290 O 0.03390 0.49714 0.48194
 Zr291 Zr -0.03900 0.49061 0.48165
 O292 O -0.01741 0.46713 0.50321
 Zr293 Zr -0.01804 0.53999 0.51004
 O294 O 0.00398 0.51856 0.53327
 Zr295 Zr 0.01756 0.46302 0.48794
 O296 O -0.00515 0.48388 0.46452
 Zr297 Zr 0.03809 0.51234 0.51688
 O298 O 0.01693 0.53589 0.49457
 Zr299 Zr -0.01112 0.48345 0.53738
 O300 O -0.03484 0.50598 0.51657
 O301 O -0.02396 0.52488 0.47569
 O302 O 0.02352 0.47762 0.52270
 C303 C -0.00530 0.57308 0.46509
 C304 C -0.03380 0.50600 0.42718
 C305 C -0.07213 0.53553 0.49395
 C306 C 0.00713 0.42942 0.53213
 C307 C 0.07120 0.46729 0.50638
 C308 C 0.03378 0.49428 0.57055
 H309 H 0.04970 0.49533 0.47335
 H310 H 0.00584 0.52713 0.54907
 H311 H -0.03439 0.53526 0.46514
 H312 H -0.02573 0.45117 0.50467
 H313 H -0.00495 0.43680 0.45584
 H314 H -0.04379 0.44650 0.46587
 H315 H 0.04084 0.55768 0.52925
 H316 H -0.01331 0.58447 0.52713
 H317 H 0.04406 0.43885 0.45652
 H318 H 0.02784 0.51168 0.41651
 H319 H -0.02437 0.51204 0.57274
 H320 H -0.04758 0.53731 0.54697
 H321 H 0.04781 0.54777 0.46248
 H322 H 0.07392 0.52448 0.48803
 H323 H -0.07257 0.47922 0.51292
 H324 H -0.04754 0.45310 0.53953
 O325 O 0.51613 0.93073 0.01142
 O326 O 0.50367 0.93038 -0.02887
 O327 O 0.56971 0.98860 0.01400
 O328 O 0.57139 1.02849 0.00682
 O329 O 0.51212 0.98416 0.06906
 O330 O 0.47145 0.99788 0.06885
 O331 O 0.50440 1.05403 -0.04794
 O332 O 0.54244 1.03707 -0.05077
 O333 O 0.45368 0.99646 -0.05487
 O334 O 0.44877 0.95656 -0.03445
 O335 O 0.44589 1.04659 0.00276
 O336 O 0.46538 1.05313 0.04148
 O337 O 0.48480 1.06847 -0.01413
 O338 O 0.49654 1.06850 0.03039
 O339 O 0.43143 1.01268 -0.01647
 O340 O 0.43027 0.97223 -0.00328
 O341 O 0.48730 1.01639 -0.06917
 O342 O 0.52928 0.99913 -0.06823
 O343 O 0.49578 0.94483 0.04496
 O344 O 0.45624 0.96546 0.04950
 O345 O 0.54570 1.00434 0.05493
 O346 O 0.54908 1.04450 0.03392
 O347 O 0.55540 0.95429 -0.00468
 O348 O 0.53507 0.95235 -0.04495
 Zr349 Zr 0.51817 0.96166 -0.01126
 O350 O 0.49575 0.98263 -0.03447
 Zr351 Zr 0.53867 1.01101 0.01758
 O352 O 0.51772 1.03400 -0.00511
 Zr353 Zr 0.48932 0.98230 0.03820
 O354 O 0.46619 1.00452 0.01686
 Zr355 Zr 0.51126 1.01735 -0.03907
 O356 O 0.53512 0.99568 -0.01758
 Zr357 Zr 0.46176 0.98912 -0.01797
 O358 O 0.48302 0.96551 0.00418
 Zr359 Zr 0.48278 1.03854 0.01016
 O360 O 0.50465 1.01737 0.03419
 O361 O 0.52380 0.97662 0.02326
 O362 O 0.47661 1.02363 -0.02432
 C363 C 0.50604 0.92782 0.03241
 C364 C 0.57254 0.96726 0.00469
 C365 C 0.53315 0.99413 0.07195
 C366 C 0.49406 1.07106 -0.03556
 C367 C 0.46597 1.00701 -0.07184
 C368 C 0.42883 1.03414 -0.00741
 H369 H 0.49413 0.97412 -0.05033
 H370 H 0.45029 1.00615 0.02531
 H371 H 0.53434 0.96617 0.03363
 H372 H 0.52638 1.04972 -0.00717
 H373 H 0.55684 1.02685 -0.04675
 H374 H 0.56767 1.03750 -0.00840
 H375 H 0.43609 0.96048 0.00919
 H376 H 0.45927 0.95622 0.06484
 H377 H 0.52848 1.00978 -0.08289
 H378 H 0.54459 0.93706 -0.04275
 H379 H 0.45383 1.04065 0.04760
 H380 H 0.47832 1.01445 0.07118
 H381 H 0.48660 0.92858 -0.02317
 H382 H 0.45998 0.95223 -0.04795
 H383 H 0.53707 1.04795 0.04701
 H384 H 0.51124 1.07466 0.02186
 O385 O 0.48753 0.51491 0.07055
 O386 O 0.52780 0.50248 0.07104
 O387 O 0.48516 0.56859 0.01261
 O388 O 0.49245 0.57026 -0.02726
 O389 O 0.43002 0.51107 0.01686
 O390 O 0.43026 0.47040 0.00319
 O391 O 0.54723 0.50322 -0.05255
 O392 O 0.54998 0.54129 -0.03561
 O393 O 0.55399 0.45249 0.00504
 O394 O 0.53342 0.44759 0.04493
 O395 O 0.49657 0.44479 -0.04528
 O396 O 0.45776 0.46431 -0.05189
 O397 O 0.51345 0.48365 -0.06709
 O398 O 0.46895 0.49542 -0.06732
 O399 O 0.51571 0.43030 -0.01129
 O400 O 0.50230 0.42911 0.02912
 O401 O 0.56831 0.48610 -0.01490
 O402 O 0.56738 0.52804 0.00238
 O403 O 0.45402 0.49461 0.05634
 O404 O 0.44948 0.45515 0.03570
 O405 O 0.44426 0.54463 -0.00328
 O406 O 0.46536 0.54802 -0.04334
 O407 O 0.50370 0.55423 0.04701
 O408 O 0.54396 0.53384 0.04909
 Zr409 Zr 0.51028 0.51699 0.03968
 O410 O 0.53354 0.49457 0.01881
 Zr411 Zr 0.48160 0.53756 -0.00979
 O412 O 0.50433 0.51658 -0.03269
 Zr413 Zr 0.46087 0.48822 0.01888
 O414 O 0.48227 0.46506 -0.00324
 Zr415 Zr 0.53824 0.51010 -0.01592
 O416 O 0.51671 0.53396 0.00567
 Zr417 Zr 0.51706 0.46059 0.01228
 O418 O 0.49484 0.48187 0.03579
 Zr419 Zr 0.48907 0.48166 -0.03725
 O420 O 0.46500 0.50356 -0.01619
 O421 O 0.47581 0.52267 0.02460
 O422 O 0.52350 0.47548 -0.02221
 C423 C 0.46655 0.50481 0.07340
 C424 C 0.49441 0.57139 0.03398
 C425 C 0.42718 0.53210 0.00685
 C426 C 0.53490 0.49287 -0.06961
 C427 C 0.57096 0.46476 -0.00552
 C428 C 0.50677 0.42773 -0.03281
 H429 H 0.54938 0.49292 0.02736
 H430 H 0.47384 0.44916 -0.00489
 H431 H 0.46541 0.53321 0.03501
 H432 H 0.50645 0.52525 -0.04841
 H433 H 0.54598 0.55567 -0.02538
 H434 H 0.50766 0.56652 -0.03626
 H435 H 0.48978 0.43492 0.04080
 H436 H 0.43410 0.45819 0.04486
 H437 H 0.58205 0.52726 -0.00824
 H438 H 0.54172 0.54337 0.06437
 H439 H 0.45170 0.45265 -0.03947
 H440 H 0.42802 0.47726 -0.01341
 H441 H 0.52215 0.48538 0.07280
 H442 H 0.54698 0.45873 0.04924
 H443 H 0.45231 0.53599 -0.04686
 H444 H 0.47748 0.51014 -0.07344
 O445 O -0.01201 0.01627 0.57100
 O446 O 0.02829 0.00399 0.57137
 O447 O -0.01470 0.06995 0.51302
 O448 O -0.00766 0.07164 0.47314
 O449 O -0.06967 0.01219 0.51749
 O450 O -0.06935 -0.02843 0.50385
 O451 O 0.04732 0.00478 0.44770
 O452 O 0.05001 0.04287 0.46464
 O453 O 0.05440 -0.04596 0.50519
 O454 O 0.03408 -0.05092 0.54516
 O455 O -0.00315 -0.05379 0.45513
 O456 O -0.04203 -0.03438 0.44863
 O457 O 0.01357 -0.01492 0.43328
 O458 O -0.03097 -0.00323 0.43317
 O459 O 0.01613 -0.06824 0.48906
 O460 O 0.00287 -0.06945 0.52954
 O461 O 0.06857 -0.01229 0.48524
 O462 O 0.06759 0.02964 0.50256
 O463 O -0.04548 -0.00415 0.55689
 O464 O -0.04993 -0.04364 0.53626
 O465 O -0.05564 0.04582 0.49731
 O466 O -0.03465 0.04930 0.45717
 O467 O 0.00400 0.05567 0.54737
 O468 O 0.04431 0.03536 0.54936
 Zr469 Zr 0.01064 0.01844 0.54005
 O470 O 0.03390 -0.00392 0.51909
 Zr471 Zr -0.01828 0.03890 0.49067
 O472 O 0.00445 0.01801 0.46769
 Zr473 Zr -0.03873 -0.01052 0.51942
 O474 O -0.01735 -0.03359 0.49721
 Zr475 Zr 0.03843 0.01163 0.48436
 O476 O 0.01689 0.03542 0.50602
 Zr477 Zr 0.01750 -0.03794 0.51261
 O478 O -0.00469 -0.01674 0.53621
 Zr479 Zr -0.01072 -0.01695 0.46318
 O480 O -0.03479 0.00485 0.48433
 O481 O -0.02390 0.02400 0.52508
 O482 O 0.02377 -0.02303 0.47811
 C483 C -0.03295 0.00609 0.57391
 C484 C -0.00536 0.07280 0.53435
 C485 C -0.07263 0.03320 0.50748
 C486 C 0.03499 -0.00563 0.43068
 C487 C 0.07130 -0.03364 0.49456
 C488 C 0.00712 -0.07083 0.46757
 H489 H 0.04978 -0.00552 0.52758
 H490 H -0.02574 -0.04951 0.49558
 H491 H -0.03430 0.03451 0.53553
 H492 H 0.00649 0.02669 0.45196
 H493 H 0.04601 0.05724 0.47489
 H494 H 0.00761 0.06800 0.46421
 H495 H -0.00953 -0.06365 0.54136
 H496 H -0.06527 -0.04066 0.54549
 H497 H 0.08222 0.02890 0.49188
 H498 H 0.04209 0.04490 0.56463
 H499 H -0.04800 -0.04608 0.46106
 H500 H -0.07165 -0.02162 0.48724
 H501 H 0.02275 -0.01315 0.57310
 H502 H 0.04759 -0.03971 0.54944
 H503 H -0.04768 0.03724 0.45370
 H504 H -0.02247 0.01148 0.42700
 O505 O 0.73801 0.18100 0.26555
 O506 O 0.77832 0.18061 0.25323
 O507 O 0.73528 0.23898 0.31909
 O508 O 0.74243 0.27886 0.32072
 O509 O 0.68034 0.23447 0.26139
 O510 O 0.68061 0.24813 0.22070
 O511 O 0.79730 0.30424 0.25381
 O512 O 0.80005 0.28733 0.29191
 O513 O 0.80437 0.24665 0.20318
 O514 O 0.78400 0.20670 0.19829
 O515 O 0.74678 0.29676 0.19523
 O516 O 0.70795 0.30332 0.21461
 O517 O 0.76352 0.31866 0.23410
 O518 O 0.71898 0.31877 0.24576
 O519 O 0.76606 0.26281 0.18085
 O520 O 0.75283 0.22236 0.17971
 O521 O 0.81857 0.26663 0.23680
 O522 O 0.81759 0.24938 0.27879
 O523 O 0.70451 0.19509 0.24511
 O524 O 0.70001 0.21568 0.20556
 O525 O 0.69439 0.25470 0.29496
 O526 O 0.71535 0.29485 0.29834
 O527 O 0.75399 0.20462 0.30486
 O528 O 0.79432 0.20263 0.28461
 Zr529 Zr 0.76066 0.21192 0.26763
 O530 O 0.78390 0.23284 0.24524
 Zr531 Zr 0.73174 0.26133 0.28801
 O532 O 0.75445 0.28427 0.26707
 Zr533 Zr 0.71124 0.23255 0.23864
 O534 O 0.73261 0.25472 0.21553
 Zr535 Zr 0.78843 0.26759 0.26072
 O536 O 0.76692 0.24597 0.28456
 Zr537 Zr 0.76746 0.23929 0.21120
 O538 O 0.74529 0.21574 0.23245
 Zr539 Zr 0.73925 0.28876 0.23209
 O540 O 0.71519 0.26764 0.25394
 O541 O 0.72612 0.22692 0.27317
 O542 O 0.77374 0.27381 0.22604
 C543 C 0.71706 0.17808 0.25540
 C544 C 0.74459 0.21763 0.32196
 C545 C 0.67740 0.24448 0.28239
 C546 C 0.78494 0.32125 0.24339
 C547 C 0.82128 0.25726 0.21547
 C548 C 0.75703 0.28429 0.17822
 H549 H 0.79977 0.22433 0.24365
 H550 H 0.72420 0.25633 0.19960
 H551 H 0.71573 0.21648 0.28369
 H552 H 0.75649 0.30000 0.27571
 H553 H 0.79603 0.27712 0.30630
 H554 H 0.75764 0.28785 0.31703
 H555 H 0.74038 0.21061 0.18552
 H556 H 0.68467 0.20646 0.20856
 H557 H 0.83224 0.26004 0.27801
 H558 H 0.79211 0.18736 0.29417
 H559 H 0.70191 0.29085 0.20300
 H560 H 0.67828 0.26472 0.22753
 H561 H 0.77272 0.17882 0.23612
 H562 H 0.79753 0.20243 0.20951
 H563 H 0.70230 0.29829 0.28628
 H564 H 0.72749 0.32495 0.26047
 O565 O 0.75238 0.70314 0.69533
 O566 O 0.79038 0.69932 0.71332
 O567 O 0.70221 0.69498 0.75566
 O568 O 0.69393 0.71353 0.79080
 O569 O 0.69336 0.75446 0.70324
 O570 O 0.71172 0.79319 0.70077
 O571 O 0.76506 0.76104 0.81915
 O572 O 0.75146 0.72162 0.81989
 O573 O 0.81704 0.76578 0.76234
 O574 O 0.81686 0.75404 0.71886
 O575 O 0.76107 0.81832 0.76652
 O576 O 0.71848 0.81962 0.75639
 O577 O 0.74548 0.79507 0.80515
 O578 O 0.70468 0.80062 0.78433
 O579 O 0.79471 0.80423 0.74650
 O580 O 0.79815 0.78702 0.70766
 O581 O 0.80284 0.74651 0.79640
 O582 O 0.78434 0.70503 0.79618
 O583 O 0.73349 0.73744 0.68099
 O584 O 0.74542 0.78059 0.68164
 O585 O 0.67901 0.73532 0.73735
 O586 O 0.68041 0.74828 0.78086
 O587 O 0.73544 0.68079 0.73497
 O588 O 0.77824 0.68221 0.74922
 Zr589 Zr 0.75880 0.71128 0.73230
 O590 O 0.78236 0.73251 0.75403
 Zr591 Zr 0.70946 0.73235 0.76086
 O592 O 0.73117 0.75376 0.78431
 Zr593 Zr 0.73031 0.76091 0.71148
 O594 O 0.75244 0.78399 0.73290
 Zr595 Zr 0.76613 0.73840 0.78823
 O596 O 0.74331 0.71512 0.76739
 Zr597 Zr 0.78654 0.76750 0.73892
 O598 O 0.76528 0.74534 0.71539
 Zr599 Zr 0.73747 0.78799 0.76808
 O600 O 0.71363 0.76733 0.74558
 O601 O 0.72440 0.72650 0.72651
 O602 O 0.77210 0.77320 0.77372
 C603 C 0.74284 0.71606 0.67821
 C604 C 0.71459 0.67793 0.74533
 C605 C 0.67624 0.74479 0.71603
 C606 C 0.75591 0.78245 0.82201
 C607 C 0.81978 0.75676 0.78383
 C608 C 0.78238 0.82110 0.75714
 H609 H 0.79816 0.72388 0.75575
 H610 H 0.75430 0.79982 0.72436
 H611 H 0.71393 0.71600 0.71614
 H612 H 0.72291 0.75518 0.80032
 H613 H 0.74365 0.70624 0.81444
 H614 H 0.70479 0.71643 0.80494
 H615 H 0.78916 0.78005 0.69360
 H616 H 0.73490 0.77819 0.66705
 H617 H 0.79266 0.70681 0.81219
 H618 H 0.77618 0.66717 0.73929
 H619 H 0.72412 0.82346 0.73964
 H620 H 0.70076 0.79783 0.71441
 H621 H 0.79605 0.71324 0.70325
 H622 H 0.82231 0.73862 0.72657
 H623 H 0.67596 0.76366 0.77239
 H624 H 0.70115 0.79008 0.79859
 O625 O 0.29684 0.19557 0.74684
 O626 O 0.30064 0.21360 0.70889
 O627 O 0.30511 0.25587 0.79706
 O628 O 0.28658 0.29103 0.80533
 O629 O 0.24560 0.20356 0.80597
 O630 O 0.20686 0.20112 0.78763
 O631 O 0.23892 0.31947 0.73426
 O632 O 0.27836 0.32016 0.74782
 O633 O 0.23412 0.26269 0.68228
 O634 O 0.24585 0.21920 0.68246
 O635 O 0.18165 0.26691 0.73828
 O636 O 0.18043 0.25675 0.78089
 O637 O 0.20492 0.30550 0.75387
 O638 O 0.19942 0.28469 0.79465
 O639 O 0.19568 0.24690 0.70463
 O640 O 0.21290 0.20803 0.70119
 O641 O 0.25341 0.29672 0.69646
 O642 O 0.29491 0.29644 0.71493
 O643 O 0.26257 0.18127 0.76577
 O644 O 0.21940 0.18199 0.75393
 O645 O 0.26475 0.23764 0.82030
 O646 O 0.25185 0.28116 0.81889
 O647 O 0.31924 0.23518 0.76383
 O648 O 0.31774 0.24947 0.72103
 Zr649 Zr 0.28871 0.23256 0.74049
 O650 O 0.26744 0.25432 0.71694
 Zr651 Zr 0.26772 0.26112 0.78983
 O652 O 0.24626 0.28461 0.76814
 Zr653 Zr 0.23912 0.21180 0.76901
 O654 O 0.21600 0.23325 0.74689
 Zr655 Zr 0.26157 0.28853 0.73317
 O656 O 0.28490 0.26765 0.75597
 Zr657 Zr 0.23244 0.23927 0.71277
 O658 O 0.25464 0.21571 0.73403
 Zr659 Zr 0.21202 0.26843 0.76187
 O660 O 0.23273 0.24590 0.78569
 O661 O 0.27354 0.22677 0.77490
 O662 O 0.22676 0.27407 0.72723
 C663 C 0.28392 0.17846 0.75636
 C664 C 0.32214 0.24552 0.78468
 C665 C 0.25525 0.21635 0.82309
 C666 C 0.21752 0.32235 0.74342
 C667 C 0.24314 0.28416 0.67953
 C668 C 0.17883 0.25755 0.71698
 H669 H 0.27605 0.25605 0.70114
 H670 H 0.20016 0.22473 0.74505
 H671 H 0.28405 0.21638 0.78536
 H672 H 0.24486 0.30061 0.77640
 H673 H 0.29376 0.31469 0.75562
 H674 H 0.28365 0.30518 0.79449
 H675 H 0.21988 0.19397 0.71018
 H676 H 0.22182 0.16739 0.76445
 H677 H 0.29312 0.31246 0.70662
 H678 H 0.33280 0.23954 0.72308
 H679 H 0.17655 0.24004 0.77521
 H680 H 0.20222 0.21477 0.79856
 H681 H 0.28670 0.20359 0.70320
 H682 H 0.26125 0.22690 0.67698
 H683 H 0.23646 0.27274 0.82333
 H684 H 0.20999 0.29892 0.79819
 O685 O 0.26713 0.73690 0.17981
 O686 O 0.25488 0.77724 0.17936
 O687 O 0.32075 0.73421 0.23779
 O688 O 0.32240 0.74144 0.27767
 O689 O 0.26298 0.67936 0.23340
 O690 O 0.22232 0.67972 0.24706
 O691 O 0.25558 0.79643 0.30300
 O692 O 0.29367 0.79907 0.28605
 O693 O 0.20490 0.80348 0.24542
 O694 O 0.19998 0.78308 0.20547
 O695 O 0.19691 0.74603 0.29559
 O696 O 0.21628 0.70714 0.30218
 O697 O 0.23582 0.76272 0.31747
 O698 O 0.24742 0.71818 0.31766
 O699 O 0.18254 0.76526 0.26160
 O700 O 0.18138 0.75196 0.22116
 O701 O 0.23853 0.81765 0.26539
 O702 O 0.28049 0.81661 0.24810
 O703 O 0.24668 0.70346 0.19397
 O704 O 0.20716 0.69908 0.21458
 O705 O 0.29659 0.69340 0.25359
 O706 O 0.30003 0.71441 0.29369
 O707 O 0.30651 0.75287 0.20340
 O708 O 0.28629 0.79322 0.20135
 Zr709 Zr 0.26929 0.75961 0.21070
 O710 O 0.24693 0.78292 0.23160
 Zr711 Zr 0.28968 0.73076 0.26016
 O712 O 0.26876 0.75353 0.28308
 Zr713 Zr 0.24027 0.71029 0.23143
 O714 O 0.21718 0.73173 0.25356
 Zr715 Zr 0.26244 0.78749 0.26635
 O716 O 0.28624 0.76590 0.24474
 Zr717 Zr 0.21288 0.76656 0.23808
 O718 O 0.23410 0.74431 0.21455
 Zr719 Zr 0.23377 0.73841 0.28759
 O720 O 0.25560 0.71429 0.26651
 O721 O 0.27480 0.72509 0.22576
 O722 O 0.22775 0.77288 0.27259
 C723 C 0.25695 0.71596 0.17693
 C724 C 0.32362 0.74348 0.21643
 C725 C 0.28399 0.67641 0.24342
 C726 C 0.24514 0.78412 0.32003
 C727 C 0.21720 0.82038 0.25603
 C728 C 0.17990 0.75629 0.28310
 H729 H 0.24535 0.79879 0.22308
 H730 H 0.20124 0.72336 0.25519
 H731 H 0.28531 0.71467 0.21533
 H732 H 0.27742 0.75558 0.29881
 H733 H 0.30805 0.79503 0.27581
 H734 H 0.31871 0.75665 0.28668
 H735 H 0.18717 0.73949 0.20941
 H736 H 0.21014 0.68372 0.20540
 H737 H 0.27975 0.83125 0.25875
 H738 H 0.29583 0.79097 0.18609
 H739 H 0.20462 0.70115 0.28975
 H740 H 0.22915 0.67742 0.26367
 H741 H 0.23776 0.77168 0.17760
 H742 H 0.21119 0.79660 0.20119
 H743 H 0.28794 0.70141 0.29719
 H744 H 0.26217 0.72664 0.32379
 O745 O 0.23635 0.68200 0.76470
 O746 O 0.27664 0.68151 0.75234
 O747 O 0.23389 0.73984 0.81842
 O748 O 0.24107 0.77972 0.82013
 O749 O 0.17883 0.73563 0.76074
 O750 O 0.17909 0.74942 0.72012
 O751 O 0.29603 0.80506 0.75328
 O752 O 0.29871 0.78806 0.79131
 O753 O 0.30284 0.74759 0.70248
 O754 O 0.28235 0.70773 0.69749
 O755 O 0.24540 0.79790 0.69465
 O756 O 0.20665 0.80459 0.71410
 O757 O 0.26230 0.81967 0.73362
 O758 O 0.21775 0.81989 0.74530
 O759 O 0.26455 0.76391 0.68020
 O760 O 0.25122 0.72353 0.67897
 O761 O 0.31714 0.76742 0.73615
 O762 O 0.31612 0.75008 0.77810
 O763 O 0.20288 0.69622 0.74430
 O764 O 0.19840 0.71699 0.70483
 O765 O 0.19297 0.75571 0.79437
 O766 O 0.21403 0.79581 0.79781
 O767 O 0.25246 0.70546 0.80406
 O768 O 0.29274 0.70339 0.78377
 Zr769 Zr 0.25909 0.71284 0.76685
 O770 O 0.28237 0.73375 0.74450
 Zr771 Zr 0.23033 0.76228 0.78739
 O772 O 0.25310 0.78521 0.76649
 Zr773 Zr 0.20971 0.73370 0.73796
 O774 O 0.23113 0.75587 0.71490
 Zr775 Zr 0.28702 0.76843 0.76008
 O776 O 0.26545 0.74682 0.78387
 Zr777 Zr 0.26592 0.74034 0.71050
 O778 O 0.24369 0.71679 0.73170
 Zr779 Zr 0.23791 0.78985 0.73153
 O780 O 0.21380 0.76875 0.75334
 O781 O 0.22459 0.72792 0.77246
 O782 O 0.27234 0.77480 0.72541
 C783 C 0.21540 0.67916 0.75454
 C784 C 0.24315 0.71846 0.82122
 C785 C 0.17594 0.74558 0.78178
 C786 C 0.28374 0.82215 0.74292
 C787 C 0.31980 0.75809 0.71481
 C788 C 0.25558 0.78542 0.67760
 H789 H 0.29821 0.72519 0.74288
 H790 H 0.22271 0.75755 0.69898
 H791 H 0.21419 0.71748 0.78297
 H792 H 0.25520 0.80091 0.77518
 H793 H 0.29467 0.77782 0.80569
 H794 H 0.25632 0.78865 0.81646
 H795 H 0.23874 0.71181 0.68476
 H796 H 0.18305 0.70779 0.70782
 H797 H 0.33080 0.76069 0.77735
 H798 H 0.29049 0.68810 0.79327
 H799 H 0.20051 0.79213 0.70254
 H800 H 0.17683 0.76600 0.72699
 H801 H 0.27100 0.67978 0.73524
 H802 H 0.29588 0.70338 0.70868
 H803 H 0.20098 0.79932 0.78576
 H804 H 0.22628 0.82599 0.76002
 O805 O 0.26422 0.26088 0.32076
 O806 O 0.25183 0.22058 0.32121
 O807 O 0.31798 0.26336 0.26298
 O808 O 0.31980 0.25612 0.22312
 O809 O 0.26028 0.31836 0.26714
 O810 O 0.21966 0.31810 0.25330
 O811 O 0.25308 0.20125 0.19759
 O812 O 0.29104 0.19852 0.21469
 O813 O 0.20213 0.19436 0.25501
 O814 O 0.19701 0.21484 0.29484
 O815 O 0.19439 0.25189 0.20470
 O816 O 0.21380 0.29059 0.19808
 O817 O 0.23343 0.23500 0.18299
 O818 O 0.24506 0.27955 0.18287
 O819 O 0.17983 0.23273 0.23864
 O820 O 0.17852 0.24597 0.27906
 O821 O 0.23586 0.18009 0.23522
 O822 O 0.27774 0.18109 0.25262
 O823 O 0.24384 0.29436 0.30649
 O824 O 0.20436 0.29878 0.28574
 O825 O 0.29396 0.30421 0.24711
 O826 O 0.29749 0.28318 0.20699
 O827 O 0.30361 0.24475 0.29734
 O828 O 0.28331 0.20447 0.29937
 Zr829 Zr 0.26640 0.23812 0.28990
 O830 O 0.24411 0.21486 0.26893
 Zr831 Zr 0.28701 0.26687 0.24050
 O832 O 0.26618 0.24413 0.21752
 Zr833 Zr 0.23752 0.28749 0.26902
 O834 O 0.21451 0.26610 0.24680
 Zr835 Zr 0.25976 0.21021 0.23426
 O836 O 0.28349 0.23175 0.25594
 Zr837 Zr 0.21009 0.23129 0.26228
 O838 O 0.23124 0.25350 0.28589
 Zr839 Zr 0.23123 0.25934 0.21284
 O840 O 0.25298 0.28343 0.23400
 O841 O 0.27201 0.27260 0.27484
 O842 O 0.22509 0.22489 0.22783
 C843 C 0.25409 0.28187 0.32357
 C844 C 0.32077 0.25411 0.28436
 C845 C 0.28135 0.32124 0.25724
 C846 C 0.24277 0.21358 0.18048
 C847 C 0.21451 0.17740 0.24454
 C848 C 0.17729 0.24174 0.21714
 H849 H 0.24248 0.19901 0.27747
 H850 H 0.19860 0.27452 0.24510
 H851 H 0.28250 0.28300 0.28529
 H852 H 0.27491 0.24205 0.20183
 H853 H 0.30539 0.20256 0.22496
 H854 H 0.31614 0.24089 0.21413
 H855 H 0.18428 0.25846 0.29080
 H856 H 0.20732 0.31414 0.29494
 H857 H 0.27704 0.16642 0.24200
 H858 H 0.29279 0.20672 0.31468
 H859 H 0.20225 0.29676 0.21054
 H860 H 0.22659 0.32040 0.23674
 H861 H 0.23473 0.22626 0.32293
 H862 H 0.20826 0.20139 0.29926
 H863 H 0.28547 0.29626 0.20348
 H864 H 0.25979 0.27101 0.17676
 O865 O 0.79820 0.69596 0.24557
 O866 O 0.80214 0.71419 0.20772
 O867 O 0.80587 0.75606 0.29612
 O868 O 0.78714 0.79111 0.30442
 O869 O 0.74653 0.70344 0.30439
 O870 O 0.70794 0.70090 0.28579
 O871 O 0.73974 0.81967 0.23322
 O872 O 0.77911 0.82047 0.24698
 O873 O 0.73550 0.76310 0.18093
 O874 O 0.74747 0.71970 0.18094
 O875 O 0.68271 0.76677 0.23665
 O876 O 0.68132 0.75642 0.27922
 O877 O 0.70569 0.80542 0.25254
 O878 O 0.70006 0.78441 0.29317
 O879 O 0.69703 0.74696 0.20299
 O880 O 0.71450 0.70822 0.19946
 O881 O 0.75454 0.79715 0.19537
 O882 O 0.79595 0.79699 0.21406
 O883 O 0.76388 0.68143 0.26425
 O884 O 0.72080 0.68200 0.25208
 O885 O 0.76542 0.73755 0.31901
 O886 O 0.75238 0.78102 0.31772
 O887 O 0.82032 0.73561 0.26286
 O888 O 0.81900 0.75008 0.22011
 Zr889 Zr 0.78994 0.73295 0.23932
 O890 O 0.76869 0.75472 0.21575
 Zr891 Zr 0.76850 0.76118 0.28866
 O892 O 0.74706 0.78466 0.26695
 Zr893 Zr 0.74027 0.71183 0.26744
 O894 O 0.71717 0.73326 0.24529
 Zr895 Zr 0.76255 0.78883 0.23209
 O896 O 0.78584 0.76795 0.25493
 Zr897 Zr 0.73379 0.73952 0.21130
 O898 O 0.75598 0.71597 0.23258
 Zr899 Zr 0.71294 0.76835 0.26041
 O900 O 0.73362 0.74581 0.28424
 O901 O 0.77458 0.72693 0.27361
 O902 O 0.72784 0.77422 0.22587
 C903 C 0.78530 0.67875 0.25496
 C904 C 0.82303 0.74586 0.28378
 C905 C 0.75599 0.71620 0.32163
 C906 C 0.71827 0.82239 0.24228
 C907 C 0.74442 0.78463 0.17832
 C908 C 0.68005 0.75746 0.21530
 H909 H 0.77738 0.75656 0.20000
 H910 H 0.70139 0.72467 0.24331
 H911 H 0.78507 0.71655 0.28410
 H912 H 0.74553 0.80062 0.27528
 H913 H 0.79450 0.81503 0.25484
 H914 H 0.78422 0.80529 0.29361
 H915 H 0.72155 0.69415 0.20838
 H916 H 0.72322 0.66736 0.26255
 H917 H 0.79412 0.81304 0.20582
 H918 H 0.83409 0.74021 0.22221
 H919 H 0.67751 0.73974 0.27340
 H920 H 0.70315 0.71447 0.29675
 H921 H 0.78827 0.70414 0.20189
 H922 H 0.76289 0.72748 0.17562
 H923 H 0.73699 0.77253 0.32202
 H924 H 0.71055 0.79866 0.29686
 O925 O 0.70471 0.30386 0.74586
 O926 O 0.70089 0.28577 0.70788
 O927 O 0.69689 0.24365 0.79620
 O928 O 0.71555 0.20849 0.80439
 O929 O 0.75618 0.29615 0.80474
 O930 O 0.79489 0.29868 0.78626
 O931 O 0.76305 0.18014 0.73336
 O932 O 0.72369 0.17935 0.74697
 O933 O 0.76740 0.23693 0.68113
 O934 O 0.75554 0.28038 0.68129
 O935 O 0.82019 0.23304 0.73696
 O936 O 0.82152 0.24318 0.77952
 O937 O 0.79709 0.19428 0.75278
 O938 O 0.80271 0.21522 0.79342
 O939 O 0.80593 0.25297 0.70333
 O940 O 0.78851 0.29167 0.69980
 O941 O 0.74833 0.20284 0.69547
 O942 O 0.70693 0.20296 0.71411
 O943 O 0.73899 0.31830 0.76465
 O944 O 0.78211 0.31777 0.75258
 O945 O 0.73721 0.26201 0.81921
 O946 O 0.75031 0.21857 0.81789
 O947 O 0.68255 0.26424 0.76296
 O948 O 0.68392 0.24987 0.72020
 Zr949 Zr 0.71298 0.26690 0.73949
 O950 O 0.73424 0.24519 0.71592
 Zr951 Zr 0.73426 0.23847 0.78881
 O952 O 0.75574 0.21506 0.76710
 Zr953 Zr 0.76259 0.28788 0.76779
 O954 O 0.78571 0.26651 0.74562
 Zr955 Zr 0.74031 0.21102 0.73220
 O956 O 0.71698 0.23184 0.75503
 Zr957 Zr 0.76916 0.26038 0.71158
 O958 O 0.74696 0.28389 0.73288
 Zr959 Zr 0.78990 0.23136 0.76065
 O960 O 0.76918 0.25382 0.78451
 O961 O 0.72826 0.27278 0.77383
 O962 O 0.77505 0.22561 0.72607
 C963 C 0.71758 0.32101 0.75535
 C964 C 0.67978 0.25395 0.78386
 C965 C 0.74659 0.28336 0.82191
 C966 C 0.78448 0.17734 0.74250
 C967 C 0.75842 0.21544 0.67846
 C968 C 0.82290 0.24246 0.71565
 H969 H 0.72557 0.24342 0.70016
 H970 H 0.80149 0.27510 0.74371
 H971 H 0.71775 0.28313 0.78430
 H972 H 0.75724 0.19908 0.77540
 H973 H 0.70831 0.18478 0.75484
 H974 H 0.71864 0.19430 0.79364
 H975 H 0.78160 0.30570 0.70887
 H976 H 0.77969 0.33236 0.76311
 H977 H 0.70875 0.18693 0.70583
 H978 H 0.66885 0.25978 0.72226
 H979 H 0.82526 0.25994 0.77386
 H980 H 0.79957 0.28510 0.79727
 H981 H 0.71474 0.29593 0.70220
 H982 H 0.74012 0.27264 0.67592
 H983 H 0.76569 0.22705 0.82224
 H984 H 0.79216 0.20101 0.79710
 C985 C 0.10965 0.99820 1.22983
 C986 C 0.09798 0.99877 1.21114
 C987 C 0.08514 1.00001 1.18823
 C988 C 0.07887 0.97851 1.17583
 C989 C 0.06799 0.97979 1.15272
 C990 C 0.06339 1.00256 1.14191
 C991 C 0.06937 1.02406 1.15444
 C992 C 0.08024 1.02278 1.17755
 C993 C 0.05305 1.00378 1.11775
 C994 C 0.04451 1.00440 1.09745
 H995 H 0.08275 0.96081 1.18383
 H996 H 0.06347 0.96305 1.14317
 H997 H 0.06593 1.04176 1.14623
 H998 H 0.08520 1.03951 1.18690
 C999 C 0.60978 0.49886 0.72970
 C1000 C 0.59805 0.49947 0.71104
 C1001 C 0.58510 0.50061 0.68818
 C1002 C 0.58118 0.52324 0.67682
 C1003 C 0.57012 0.52431 0.65379
 C1004 C 0.56296 0.50274 0.64201
 C1005 C 0.56660 0.48013 0.65351
 C1006 C 0.57767 0.47906 0.67654
 C1007 C 0.55245 0.50369 0.61791
 C1008 C 0.54378 0.50409 0.59766
 H1009 H 0.58702 0.54000 0.68558
 H1010 H 0.56744 0.54189 0.64505
 H1011 H 0.56118 0.46333 0.64454
 H1012 H 0.58077 0.46145 0.68507
 C1013 C 0.39062 0.00053 0.72755
 C1014 C 0.40222 0.00013 0.70880
 C1015 C 0.41500 -0.00082 0.68583
 C1016 C 0.42057 0.02080 0.67330
 C1017 C 0.43144 0.01977 0.65018
 C1018 C 0.43673 -0.00290 0.63947
 C1019 C 0.43143 -0.02452 0.65213
 C1020 C 0.42057 -0.02348 0.67525
 C1021 C 0.44713 -0.00391 0.61532
 C1022 C 0.45574 -0.00446 0.59504
 H1023 H 0.41617 0.03841 0.68123
 H1024 H 0.43543 0.03660 0.64053
 H1025 H 0.43542 -0.04214 0.64401
 H1026 H 0.41616 -0.04032 0.68470
 C1027 C -0.10932 0.49994 1.22672
 C1028 C -0.09771 0.49945 1.20799
 C1029 C -0.08489 0.49843 1.18507
 C1030 C -0.07777 0.52004 1.17333
 C1031 C -0.06680 0.51905 1.15026
 C1032 C -0.06295 0.49645 1.13882
 C1033 C -0.06979 0.47482 1.15070
 C1034 C -0.08076 0.47581 1.17377
 C1035 C -0.05252 0.49556 1.11470
 C1036 C -0.04391 0.49519 1.09443
 H1037 H -0.08104 0.53763 1.18183
 H1038 H -0.06161 0.53589 1.14121
 H1039 H -0.06694 0.45726 1.14200
 H1040 H -0.08636 0.45900 1.18262
 C1041 C -0.10940 0.49994 0.27076
 C1042 C -0.09784 0.50052 0.28952
 C1043 C -0.08503 0.50168 0.31245
 C1044 C -0.08012 0.52442 0.32316
 C1045 C -0.06915 0.52561 0.34623
 C1046 C -0.06308 0.50406 0.35867
 C1047 C -0.06771 0.48133 0.34783
 C1048 C -0.07869 0.48014 0.32477
 C1049 C -0.05263 0.50521 0.38279
 C1050 C -0.04403 0.50583 0.40306
 H1051 H -0.08512 0.54119 0.31386
 H1052 H -0.06569 0.54328 0.35446
 H1053 H -0.06313 0.46456 0.35732
 H1054 H -0.08256 0.46247 0.31672
 C1055 C 0.39035 1.00067 -0.22835
 C1056 C 0.40174 1.00162 -0.20949
 C1057 C 0.41431 1.00328 -0.18644
 C1058 C 0.41521 1.02567 -0.17402
 C1059 C 0.42610 1.02710 -0.15092
 C1060 C 0.43609 1.00613 -0.14013
 C1061 C 0.43542 0.98380 -0.15267
 C1062 C 0.42454 0.98237 -0.17576
 C1063 C 0.44658 1.00729 -0.11603
 C1064 C 0.45536 1.00763 -0.09581
 H1065 H 0.40721 1.04193 -0.18204
 H1066 H 0.42647 1.04445 -0.14138
 H1067 H 0.44307 0.96745 -0.14447
 H1068 H 0.42380 0.96494 -0.18512
 C1069 C 0.61028 0.49822 -0.22622
 C1070 C 0.59898 0.49727 -0.20732
 C1071 C 0.58650 0.49577 -0.18422
 C1072 C 0.58638 0.47369 -0.17121
 C1073 C 0.57555 0.47249 -0.14807
 C1074 C 0.56484 0.49338 -0.13785
 C1075 C 0.56474 0.51539 -0.15098
 C1076 C 0.57556 0.51659 -0.17411
 C1077 C 0.55437 0.49246 -0.11374
 C1078 C 0.54558 0.49225 -0.09353
 H1079 H 0.59493 0.45751 -0.17880
 H1080 H 0.57577 0.45539 -0.13807
 H1081 H 0.55653 0.53167 -0.14322
 H1082 H 0.57570 0.53378 -0.18394
 C1083 C 0.11014 -0.00176 0.27391
 C1084 C 0.09884 -0.00238 0.29283
 C1085 C 0.08637 -0.00356 0.31595
 C1086 C 0.08511 -0.02579 0.32864
 C1087 C 0.07433 -0.02674 0.35181
 C1088 C 0.06482 -0.00546 0.36239
 C1089 C 0.06585 0.01672 0.34959
 C1090 C 0.07663 0.01768 0.32643
 C1091 C 0.05438 -0.00619 0.38652
 C1092 C 0.04562 -0.00630 0.40674
 H1093 H 0.09274 -0.04228 0.32076
 H1094 H 0.07366 -0.04398 0.36155
 H1095 H 0.05857 0.03329 0.35763
 H1096 H 0.07765 0.03498 0.31685
 C1097 C 0.22831 1.10909 1.00091
 C1098 C 0.20968 1.09733 1.00145
 C1099 C 0.18685 1.08437 1.00262
 C1100 C 0.17604 1.07960 1.02535
 C1101 C 0.15300 1.06860 1.02654
 C1102 C 0.14067 1.06236 1.00500
 C1103 C 0.15162 1.06683 0.98227
 C1104 C 0.17466 1.07783 0.98108
 C1105 C 0.11654 1.05197 1.00611
 C1106 C 0.09625 1.04342 1.00665
 H1107 H 0.18524 1.08476 1.04212
 H1108 H 0.14468 1.06528 1.04421
 H1109 H 0.14221 1.06211 0.96549
 H1110 H 0.18277 1.08160 0.96341
 C1111 C 0.72675 0.60964 0.50012
 C1112 C 0.70811 0.59791 0.50088
 C1113 C 0.68531 0.58490 0.50227
 C1114 C 0.67428 0.58089 0.52505
 C1115 C 0.65133 0.56971 0.52639
 C1116 C 0.63932 0.56252 0.50496
 C1117 C 0.65049 0.56626 0.48220
 C1118 C 0.67343 0.57744 0.48086
 C1119 C 0.61528 0.55192 0.50619
 C1120 C 0.59506 0.54321 0.50680
 H1121 H 0.68324 0.58675 0.54171
 H1122 H 0.64284 0.56696 0.54407
 H1123 H 0.64132 0.56082 0.46551
 H1124 H 0.68172 0.58061 0.46315
 C1125 C 0.72804 0.39010 -0.00057
 C1126 C 0.70903 0.40126 -0.00140
 C1127 C 0.68583 0.41357 -0.00283
 C1128 C 0.67554 0.42415 0.01809
 C1129 C 0.65234 0.43485 0.01693
 C1130 C 0.63931 0.43498 -0.00513
 C1131 C 0.64970 0.42461 -0.02611
 C1132 C 0.67291 0.41392 -0.02495
 C1133 C 0.61514 0.44537 -0.00603
 C1134 C 0.59491 0.45411 -0.00621
 H1135 H 0.68530 0.42385 0.03533
 H1136 H 0.64445 0.44279 0.03328
 H1137 H 0.63978 0.42458 -0.04326
 H1138 H 0.68063 0.40565 -0.04121
 C1139 C 0.22765 -0.10973 0.49827
 C1140 C 0.20881 -0.09830 0.49757
 C1141 C 0.18578 -0.08566 0.49631
 C1142 C 0.17582 -0.07488 0.51729
 C1143 C 0.15274 -0.06390 0.51631
 C1144 C 0.13951 -0.06369 0.49437
 C1145 C 0.14958 -0.07423 0.47332
 C1146 C 0.17267 -0.08520 0.47430
 C1147 C 0.11543 -0.05312 0.49368
 C1148 C 0.09523 -0.04430 0.49368
 H1149 H 0.18573 -0.07526 0.53444
 H1150 H 0.14510 -0.05584 0.53271
 H1151 H 0.13950 -0.07421 0.45627
 H1152 H 0.18014 -0.09363 0.45800
 C1153 C 0.27171 -0.10947 0.49837
 C1154 C 0.29042 -0.09783 0.49891
 C1155 C 0.31332 -0.08499 0.50004
 C1156 C 0.32431 -0.08051 0.52275
 C1157 C 0.34738 -0.06957 0.52388
 C1158 C 0.35956 -0.06309 0.50231
 C1159 C 0.34844 -0.06729 0.47962
 C1160 C 0.32537 -0.07824 0.47848
 C1161 C 0.38368 -0.05267 0.50337
 C1162 C 0.40395 -0.04406 0.50388
 H1163 H 0.31523 -0.08583 0.53952
 H1164 H 0.35583 -0.06644 0.54152
 H1165 H 0.35773 -0.06239 0.46282
 H1166 H 0.31712 -0.08179 0.46083
 C1167 C -0.22787 0.39091 0.99961
 C1168 C -0.20923 0.40267 1.00004
 C1169 C -0.18636 0.41558 1.00097
 C1170 C -0.17515 0.42005 1.02357
 C1171 C -0.15205 0.43094 1.02448
 C1172 C -0.14003 0.43735 1.00280
 C1173 C -0.15138 0.43317 0.98021
 C1174 C -0.17448 0.42228 0.97929
 C1175 C -0.11586 0.44767 1.00363
 C1176 C -0.09556 0.45621 1.00398
 H1177 H -0.18409 0.41475 1.04043
 H1178 H -0.14343 0.43405 1.04204
 H1179 H -0.14223 0.43802 0.96333
 H1180 H -0.18289 0.41872 0.96172
 C1181 C -0.22919 0.60997 0.49982
 C1182 C -0.21032 0.59858 0.49916
 C1183 C -0.18724 0.58603 0.49792
 C1184 C -0.17524 0.57897 0.51941
 C1185 C -0.15205 0.56825 0.51820
 C1186 C -0.14075 0.56461 0.49550
 C1187 C -0.15287 0.57141 0.47398
 C1188 C -0.17606 0.58213 0.47520
 C1189 C -0.11656 0.55434 0.49439
 C1190 C -0.09625 0.54580 0.49387
 H1191 H -0.18364 0.58207 0.53708
 H1192 H -0.14282 0.56308 0.53495
 H1193 H -0.14429 0.56871 0.45634
 H1194 H -0.18511 0.58769 0.45847
 C1195 C 0.27236 1.10967 0.00039
 C1196 C 0.29125 1.09836 -0.00081
 C1197 C 0.31430 1.08583 -0.00276
 C1198 C 0.32458 1.07443 0.01774
 C1199 C 0.34765 1.06351 0.01608
 C1200 C 0.36054 1.06398 -0.00607
 C1201 C 0.35014 1.07515 -0.02663
 C1202 C 0.32708 1.08607 -0.02498
 C1203 C 0.38463 1.05348 -0.00741
 C1204 C 0.40485 1.04472 -0.00788
 H1205 H 0.31493 1.07428 0.03503
 H1206 H 0.35555 1.05496 0.03211
 H1207 H 0.35997 1.07566 -0.04382
 H1208 H 0.31935 1.09497 -0.04090
 C1209 C -0.00048 1.22851 1.10938
 C1210 C -0.00008 1.20967 1.09795
 C1211 C 0.00092 1.18661 1.08536
 C1212 C 0.02360 1.17611 1.07973
 C1213 C 0.02471 1.15292 1.06903
 C1214 C 0.00314 1.14012 1.06396
 C1215 C -0.01956 1.15074 1.06933
 C1216 C -0.02067 1.17393 1.08003
 C1217 C 0.00424 1.11592 1.05371
 C1218 C 0.00485 1.09560 1.04521
 H1219 H 0.04041 1.18568 1.08395
 H1220 H 0.04236 1.14487 1.06498
 H1221 H -0.03636 1.14098 1.06551
 H1222 H -0.03830 1.18179 1.08448
 C1223 C 0.49823 0.72793 0.60933
 C1224 C 0.49870 0.70899 0.59808
 C1225 C 0.49971 0.68585 0.58564
 C1226 C 0.52239 0.67520 0.58027
 C1227 C 0.52347 0.65199 0.56963
 C1228 C 0.50188 0.63930 0.56436
 C1229 C 0.47919 0.65006 0.56948
 C1230 C 0.47810 0.67328 0.58013
 C1231 C 0.50294 0.61511 0.55411
 C1232 C 0.50354 0.59480 0.54559
 H1233 H 0.53921 0.68470 0.58463
 H1234 H 0.54111 0.64383 0.56577
 H1235 H 0.46237 0.64040 0.56550
 H1236 H 0.46048 0.68126 0.58436
 C1237 C 0.00141 0.72967 0.38965
 C1238 C 0.00064 0.71085 0.40112
 C1239 C -0.00074 0.68786 0.41383
 C1240 C -0.02350 0.67677 0.41768
 C1241 C -0.02483 0.65369 0.42862
 C1242 C -0.00340 0.64159 0.43572
 C1243 C 0.01935 0.65280 0.43212
 C1244 C 0.02068 0.67588 0.42117
 C1245 C -0.00462 0.61747 0.44617
 C1246 C -0.00524 0.59720 0.45480
 H1247 H -0.04017 0.68580 0.41191
 H1248 H -0.04251 0.64517 0.43127
 H1249 H 0.03605 0.64359 0.43749
 H1250 H 0.03839 0.68421 0.41813
 C1251 C 0.50052 1.22795 -0.11036
 C1252 C 0.49947 1.20905 -0.09904
 C1253 C 0.49780 1.18594 -0.08659
 C1254 C 0.47548 1.17340 -0.08595
 C1255 C 0.47409 1.15022 -0.07524
 C1256 C 0.49504 1.13947 -0.06515
 C1257 C 0.51730 1.15214 -0.06555
 C1258 C 0.51869 1.17531 -0.07627
 C1259 C 0.49391 1.11530 -0.05481
 C1260 C 0.49356 1.09505 -0.04613
 H1261 H 0.45925 1.18139 -0.09404
 H1262 H 0.45679 1.14059 -0.07507
 H1263 H 0.53363 1.14398 -0.05783
 H1264 H 0.53608 1.18477 -0.07681
 C1265 C 0.50171 0.27204 -0.11002
 C1266 C 0.50268 0.29073 -0.09836
 C1267 C 0.50420 0.31359 -0.08547
 C1268 C 0.52623 0.32667 -0.08527
 C1269 C 0.52741 0.34963 -0.07409
 C1270 C 0.50655 0.35962 -0.06307
 C1271 C 0.48461 0.34641 -0.06301
 C1272 C 0.48343 0.32345 -0.07420
 C1273 C 0.50740 0.38364 -0.05238
 C1274 C 0.50753 0.40380 -0.04348
 H1275 H 0.54236 0.31929 -0.09408
 H1276 H 0.54445 0.35971 -0.07430
 H1277 H 0.46836 0.35398 -0.05459
 H1278 H 0.46627 0.31357 -0.07438
 C1279 C 0.00197 -0.22627 0.38998
 C1280 C 0.00285 -0.20761 0.40168
 C1281 C 0.00435 -0.18480 0.41465
 C1282 C 0.02651 -0.17196 0.41528
 C1283 C 0.02773 -0.14905 0.42655
 C1284 C 0.00679 -0.13887 0.43721
 C1285 C -0.01530 -0.15184 0.43683
 C1286 C -0.01652 -0.17475 0.42556
 C1287 C 0.00770 -0.11489 0.44797
 C1288 C 0.00787 -0.09475 0.45689
 H1289 H 0.04273 -0.17950 0.40676
 H1290 H 0.04489 -0.13916 0.42668
 H1291 H -0.03162 -0.14411 0.44497
 H1292 H -0.03378 -0.18444 0.42503
 C1293 C 0.49861 -0.22801 0.60860
 C1294 C 0.49829 -0.20938 0.59682
 C1295 C 0.49742 -0.18652 0.58386
 C1296 C 0.51912 -0.17445 0.57763
 C1297 C 0.51822 -0.15137 0.56667
 C1298 C 0.49562 -0.14024 0.56195
 C1299 C 0.47392 -0.15245 0.56788
 C1300 C 0.47482 -0.17554 0.57883
 C1301 C 0.49478 -0.11608 0.55159
 C1302 C 0.49442 -0.09577 0.54306
 H1303 H 0.53670 -0.18269 0.58161
 H1304 H 0.53511 -0.14206 0.56220
 H1305 H 0.45635 -0.14400 0.56435
 H1306 H 0.45793 -0.18463 0.58375
 C1307 C 0.00029 0.27257 1.10916
 C1308 C 0.00008 0.29126 1.09745
 C1309 C -0.00072 0.31411 1.08444
 C1310 C -0.02331 0.32439 1.07804
 C1311 C -0.02426 0.34737 1.06686
 C1312 C -0.00262 0.36019 1.06207
 C1313 C 0.01998 0.34978 1.06820
 C1314 C 0.02093 0.32680 1.07938
 C1315 C -0.00359 0.38423 1.05140
 C1316 C -0.00412 0.40444 1.04263
 H1317 H -0.04018 0.31481 1.08203
 H1318 H -0.04184 0.35526 1.06224
 H1319 H 0.03683 0.35955 1.06462
 H1320 H 0.03848 0.31910 1.08441
 C1321 C 0.75094 0.36034 0.02194
 C1322 C 0.75199 0.34896 0.04080
 C1323 C 0.75368 0.33635 0.06382
 C1324 C 0.77566 0.33677 0.07700
 C1325 C 0.77702 0.32575 0.10004
 C1326 C 0.75641 0.31429 0.10999
 C1327 C 0.73452 0.31364 0.09669
 C1328 C 0.73315 0.32466 0.07365
 C1329 C 0.75744 0.30371 0.13406
 C1330 C 0.75769 0.29490 0.15425
 H1331 H 0.79161 0.34589 0.06961
 H1332 H 0.79402 0.32641 0.11018
 H1333 H 0.71845 0.30487 0.10425
 H1334 H 0.71604 0.32436 0.06368
 C1335 C 0.25018 0.86012 0.52059
 C1336 C 0.25107 0.84881 0.53950
 C1337 C 0.25256 0.83638 0.56264
 C1338 C 0.23156 0.82625 0.57320
 C1339 C 0.23279 0.81557 0.59640
 C1340 C 0.25501 0.81500 0.60916
 C1341 C 0.27607 0.82488 0.59848
 C1342 C 0.27484 0.83557 0.57527
 C1343 C 0.25598 0.80467 0.63335
 C1344 C 0.25622 0.79599 0.65361
 H1345 H 0.21421 0.82693 0.56367
 H1346 H 0.21638 0.80800 0.60451
 H1347 H 0.29333 0.82457 0.60819
 H1348 H 0.29116 0.84350 0.56734
 C1349 C 0.74840 0.64030 0.52190
 C1350 C 0.74769 0.65192 0.54062
 C1351 C 0.74644 0.66477 0.56351
 C1352 C 0.72381 0.66810 0.57506
 C1353 C 0.72267 0.67912 0.59810
 C1354 C 0.74416 0.68681 0.60969
 C1355 C 0.76675 0.68376 0.59801
 C1356 C 0.76790 0.67275 0.57497
 C1357 C 0.74316 0.69725 0.63381
 C1358 C 0.74272 0.70585 0.65408
 H1359 H 0.70712 0.66184 0.56643
 H1360 H 0.70511 0.68134 0.60699
 H1361 H 0.78349 0.68961 0.60684
 H1362 H 0.78550 0.67010 0.56628
 C1363 C 0.24978 0.13931 0.02338
 C1364 C 0.24881 0.15042 0.04240
 C1365 C 0.24712 0.16266 0.06561
 C1366 C 0.22472 0.16334 0.07805
 C1367 C 0.22324 0.17397 0.10125
 C1368 C 0.24416 0.18394 0.11212
 C1369 C 0.26650 0.18348 0.09958
 C1370 C 0.26798 0.17284 0.07638
 C1371 C 0.24290 0.19428 0.13628
 C1372 C 0.24242 0.20298 0.15652
 H1373 H 0.20850 0.15538 0.06995
 H1374 H 0.20589 0.17421 0.11079
 H1375 H 0.28280 0.19111 0.10783
 H1376 H 0.28542 0.17228 0.06699
 C1377 C 0.24997 0.14027 0.97930
 C1378 C 0.25047 0.15211 0.96070
 C1379 C 0.25157 0.16513 0.93788
 C1380 C 0.27427 0.16981 0.92697
 C1381 C 0.27539 0.18081 0.90391
 C1382 C 0.25381 0.18712 0.89165
 C1383 C 0.23112 0.18274 0.90270
 C1384 C 0.23000 0.17174 0.92576
 C1385 C 0.25486 0.19753 0.86751
 C1386 C 0.25534 0.20611 0.84721
 H1387 H 0.29106 0.16459 0.93610
 H1388 H 0.29303 0.18407 0.89552
 H1389 H 0.21431 0.18751 0.89335
 H1390 H 0.21235 0.16802 0.93394
 C1391 C 0.74874 0.64021 0.47786
 C1392 C 0.74948 0.65178 0.45910
 C1393 C 0.75091 0.66460 0.43619
 C1394 C 0.77376 0.66916 0.42554
 C1395 C 0.77521 0.68018 0.40251
 C1396 C 0.75380 0.68665 0.39003
 C1397 C 0.73096 0.68236 0.40081
 C1398 C 0.72951 0.67134 0.42383
 C1399 C 0.75517 0.69718 0.36596
 C1400 C 0.75588 0.70586 0.34572
 H1401 H 0.79041 0.66386 0.43487
 H1402 H 0.79296 0.68337 0.39433
 H1403 H 0.71429 0.68726 0.39128
 H1404 H 0.71175 0.66774 0.43182
 C1405 C 0.24962 0.85986 0.47646
 C1406 C 0.24891 0.84834 0.45768
 C1407 C 0.24764 0.83568 0.43467
 C1408 C 0.22528 0.83401 0.42227
 C1409 C 0.22422 0.82317 0.39914
 C1410 C 0.24553 0.81398 0.38831
 C1411 C 0.26784 0.81540 0.40084
 C1412 C 0.26890 0.82624 0.42396
 C1413 C 0.24470 0.80353 0.36419
 C1414 C 0.24452 0.79477 0.34397
 H1415 H 0.20876 0.84141 0.43031
 H1416 H 0.20689 0.82220 0.38961
 H1417 H 0.28444 0.80838 0.39261
 H1418 H 0.28631 0.82760 0.43331
 C1419 C 0.75051 0.35983 0.97790
 C1420 C 0.75010 0.34808 0.95926
 C1421 C 0.74919 0.33509 0.93643
 C1422 C 0.72663 0.33081 0.92509
 C1423 C 0.72575 0.31972 0.90208
 C1424 C 0.74745 0.31291 0.89030
 C1425 C 0.77000 0.31691 0.90178
 C1426 C 0.77087 0.32800 0.92479
 C1427 C 0.74668 0.30238 0.86622
 C1428 C 0.74638 0.29370 0.84598
 H1429 H 0.70976 0.33639 0.93386
 H1430 H 0.70823 0.31676 0.89335
 H1431 H 0.78689 0.31176 0.89281
 H1432 H 0.78842 0.33139 0.93332
 C1433 C 0.86030 0.47779 0.24837
 C1434 C 0.84890 0.45895 0.24754
 C1435 C 0.83635 0.43590 0.24614
 C1436 C 0.82637 0.42537 0.26724
 C1437 C 0.81555 0.40224 0.26609
 C1438 C 0.81471 0.38954 0.24386
 C1439 C 0.82445 0.40019 0.22271
 C1440 C 0.83526 0.42332 0.22385
 C1441 C 0.80428 0.36542 0.24296
 C1442 C 0.79554 0.34520 0.24276
 H1443 H 0.82726 0.43487 0.28459
 H1444 H 0.80810 0.39416 0.28256
 H1445 H 0.82393 0.39052 0.20544
 H1446 H 0.84308 0.43123 0.20746
 C1447 C 0.36035 0.97812 0.74913
 C1448 C 0.34898 0.95926 0.74818
 C1449 C 0.33633 0.93627 0.74657
 C1450 C 0.32557 0.92598 0.76740
 C1451 C 0.31447 0.90299 0.76603
 C1452 C 0.31411 0.89019 0.74384
 C1453 C 0.32465 0.90060 0.72295
 C1454 C 0.33575 0.92358 0.72432
 C1455 C 0.30340 0.86619 0.74274
 C1456 C 0.29447 0.84606 0.74239
 H1457 H 0.32604 0.93556 0.78472
 H1458 H 0.30641 0.89509 0.78231
 H1459 H 0.32452 0.89085 0.70572
 H1460 H 0.34414 0.93132 0.70814
 C1461 C 0.14048 0.97638 0.25189
 C1462 C 0.15212 0.95766 0.25262
 C1463 C 0.16496 0.93474 0.25393
 C1464 C 0.16604 0.92198 0.27613
 C1465 C 0.17711 0.89895 0.27718
 C1466 C 0.18712 0.88858 0.25601
 C1467 C 0.18630 0.90147 0.23388
 C1468 C 0.17522 0.92450 0.23283
 C1469 C 0.19772 0.86451 0.25678
 C1470 C 0.20656 0.84432 0.25685
 H1471 H 0.15800 0.92966 0.29252
 H1472 H 0.17760 0.88912 0.29437
 H1473 H 0.19395 0.89360 0.21739
 H1474 H 0.17434 0.93414 0.21555
 C1475 C 0.64076 0.47692 0.75137
 C1476 C 0.65256 0.45830 0.75175
 C1477 C 0.66563 0.43549 0.75264
 C1478 C 0.67244 0.42372 0.73095
 C1479 C 0.68361 0.40073 0.73184
 C1480 C 0.68796 0.38941 0.75441
 C1481 C 0.68143 0.40132 0.77611
 C1482 C 0.67027 0.42431 0.77523
 C1483 C 0.69855 0.36534 0.75522
 C1484 C 0.70725 0.34510 0.75554
 H1485 H 0.66878 0.43212 0.71339
 H1486 H 0.68855 0.39165 0.71494
 H1487 H 0.68467 0.39271 0.79366
 H1488 H 0.66490 0.43319 0.79210
 C1489 C 0.64017 0.52096 0.75142
 C1490 C 0.65151 0.53985 0.75079
 C1491 C 0.66404 0.56292 0.74960
 C1492 C 0.67058 0.57511 0.77114
 C1493 C 0.68133 0.59827 0.76996
 C1494 C 0.68554 0.60934 0.74724
 C1495 C 0.67926 0.59703 0.72569
 C1496 C 0.66851 0.57387 0.72688
 C1497 C 0.69584 0.63351 0.74611
 C1498 C 0.70437 0.65381 0.74550
 H1499 H 0.66706 0.56688 0.78881
 H1500 H 0.68610 0.60765 0.78673
 H1501 H 0.68239 0.60543 0.70803
 H1502 H 0.66336 0.56467 0.71011
 C1503 C 0.14012 0.02047 0.25115
 C1504 C 0.15141 0.03936 0.25008
 C1505 C 0.16381 0.06248 0.24836
 C1506 C 0.17408 0.07316 0.26922
 C1507 C 0.18473 0.09635 0.26777
 C1508 C 0.18511 0.10897 0.24547
 C1509 C 0.17507 0.09817 0.22454
 C1510 C 0.16443 0.07498 0.22599
 C1511 C 0.19537 0.13315 0.24429
 C1512 C 0.20399 0.15342 0.24395
 H1513 H 0.17355 0.06373 0.28664
 H1514 H 0.19241 0.10455 0.28408
 H1515 H 0.17523 0.10778 0.20722
 H1516 H 0.15638 0.06695 0.20978
 C1517 C 0.35975 0.02218 0.74966
 C1518 C 0.34799 0.04081 0.75040
 C1519 C 0.33503 0.06366 0.75179
 C1520 C 0.32778 0.07568 0.73037
 C1521 C 0.31677 0.09872 0.73172
 C1522 C 0.31301 0.10985 0.75448
 C1523 C 0.31997 0.09769 0.77592
 C1524 C 0.33097 0.07464 0.77457
 C1525 C 0.30262 0.13399 0.75572
 C1526 C 0.29408 0.15430 0.75634
 H1527 H 0.33100 0.06744 0.71265
 H1528 H 0.31150 0.10800 0.71502
 H1529 H 0.31720 0.10614 0.79361
 H1530 H 0.33669 0.06558 0.79124
 C1531 C 0.86012 0.52189 0.24895
 C1532 C 0.84859 0.54067 0.24966
 C1533 C 0.83590 0.56368 0.25091
 C1534 C 0.82884 0.57567 0.22941
 C1535 C 0.81806 0.59883 0.23062
 C1536 C 0.81435 0.61011 0.25332
 C1537 C 0.82115 0.59799 0.27483
 C1538 C 0.83192 0.57482 0.27363
 C1539 C 0.80407 0.63431 0.25442
 C1540 C 0.79555 0.65462 0.25496
 H1541 H 0.83200 0.56730 0.21175
 H1542 H 0.81291 0.60807 0.21386
 H1543 H 0.81840 0.60655 0.29248
 H1544 H 0.83749 0.56578 0.29036
 C1545 C 0.97764 0.25138 0.13955
 C1546 C 0.95879 0.25252 0.15094
 C1547 C 0.93577 0.25423 0.16354
 C1548 C 0.92228 0.27602 0.16258
 C1549 C 0.89922 0.27734 0.17355
 C1550 C 0.88954 0.25687 0.18550
 C1551 C 0.90314 0.23518 0.18670
 C1552 C 0.92620 0.23386 0.17573
 C1553 C 0.86544 0.25783 0.19604
 C1554 C 0.84524 0.25801 0.20484
 H1555 H 0.92945 0.29184 0.15307
 H1556 H 0.88884 0.29418 0.17247
 H1557 H 0.89580 0.21923 0.19585
 H1558 H 0.93640 0.21688 0.17645
 C1559 C 0.47616 0.75101 0.63920
 C1560 C 0.45732 0.75225 0.65058
 C1561 C 0.43430 0.75415 0.66314
 C1562 C 0.42443 0.73378 0.67509
 C1563 C 0.40137 0.73531 0.68601
 C1564 C 0.38807 0.75720 0.68499
 C1565 C 0.39806 0.77765 0.67327
 C1566 C 0.42113 0.77612 0.66236
 C1567 C 0.36397 0.75837 0.69545
 C1568 C 0.34376 0.75871 0.70421
 H1569 H 0.43440 0.71667 0.67567
 H1570 H 0.39378 0.71937 0.69498
 H1571 H 0.38791 0.79465 0.67233
 H1572 H 0.42854 0.79194 0.65302
 C1573 C 0.47909 0.25051 0.85939
 C1574 C 0.46028 0.25022 0.84788
 C1575 C 0.43726 0.24934 0.83520
 C1576 C 0.42439 0.27095 0.83032
 C1577 C 0.40122 0.26992 0.81955
 C1578 C 0.39080 0.24728 0.81367
 C1579 C 0.40380 0.22568 0.81828
 C1580 C 0.42696 0.22671 0.82904
 C1581 C 0.36661 0.24623 0.80338
 C1582 C 0.34629 0.24566 0.79487
 H1583 H 0.43210 0.28853 0.83518
 H1584 H 0.39132 0.28673 0.81610
 H1585 H 0.39590 0.20808 0.81383
 H1586 H 0.43668 0.20988 0.83291
 C1587 C 0.97958 0.75192 0.35939
 C1588 C 0.96078 0.75142 0.34787
 C1589 C 0.93780 0.75032 0.33512
 C1590 C 0.92509 0.77186 0.32957
 C1591 C 0.90199 0.77066 0.31865
 C1592 C 0.89149 0.74793 0.31327
 C1593 C 0.90433 0.72640 0.31856
 C1594 C 0.92742 0.72759 0.32948
 C1595 C 0.86738 0.74675 0.30280
 C1596 C 0.84712 0.74609 0.29414
 H1597 H 0.93285 0.78952 0.33401
 H1598 H 0.89221 0.78743 0.31467
 H1599 H 0.89638 0.70872 0.31452
 H1600 H 0.93702 0.71082 0.33386
 C1601 C 0.02367 0.75200 0.35934
 C1602 C 0.04245 0.75273 0.34781
 C1603 C 0.06543 0.75406 0.33508
 C1604 C 0.07822 0.77623 0.33417
 C1605 C 0.10128 0.77730 0.32318
 C1606 C 0.11166 0.75619 0.31307
 C1607 C 0.09874 0.73408 0.31373
 C1608 C 0.07568 0.73301 0.32473
 C1609 C 0.13574 0.75698 0.30251
 C1610 C 0.15595 0.75708 0.29371
 H1611 H 0.07052 0.79259 0.34227
 H1612 H 0.11112 0.79448 0.32281
 H1613 H 0.10662 0.71763 0.30601
 H1614 H 0.06603 0.71574 0.32547
 C1615 C 0.52317 0.24990 0.85938
 C1616 C 0.54195 0.25021 0.84784
 C1617 C 0.56494 0.25100 0.83510
 C1618 C 0.57713 0.22927 0.82916
 C1619 C 0.60024 0.23011 0.81826
 C1620 C 0.61129 0.25268 0.81330
 C1621 C 0.59898 0.27441 0.81897
 C1622 C 0.57586 0.27357 0.82987
 C1623 C 0.63542 0.25348 0.80286
 C1624 C 0.65569 0.25390 0.79421
 H1625 H 0.56893 0.21172 0.83329
 H1626 H 0.60962 0.21319 0.81398
 H1627 H 0.60736 0.29196 0.81524
 H1628 H 0.56668 0.29049 0.83455
 C1629 C 0.52021 0.75000 0.63958
 C1630 C 0.53887 0.74933 0.65130
 C1631 C 0.56171 0.74815 0.66427
 C1632 C 0.57319 0.76966 0.67206
 C1633 C 0.59619 0.76857 0.68317
 C1634 C 0.60782 0.74598 0.68650
 C1635 C 0.59621 0.72444 0.67899
 C1636 C 0.57320 0.72553 0.66788
 C1637 C 0.63190 0.74503 0.69704
 C1638 C 0.65215 0.74463 0.70572
 H1639 H 0.56454 0.78725 0.66919
 H1640 H 0.60503 0.78534 0.68887
 H1641 H 0.60506 0.70689 0.68143
 H1642 H 0.56456 0.70880 0.66176
 C1643 C 0.02171 0.24990 0.13988
 C1644 C 0.04039 0.24863 0.15155
 C1645 C 0.06322 0.24661 0.16446
 C1646 C 0.07361 0.26720 0.17555
 C1647 C 0.09654 0.26547 0.18676
 C1648 C 0.10918 0.24317 0.18689
 C1649 C 0.09866 0.22252 0.17605
 C1650 C 0.07573 0.22424 0.16485
 C1651 C 0.13318 0.24177 0.19759
 C1652 C 0.15334 0.24127 0.20648
 H1653 H 0.06418 0.28461 0.17523
 H1654 H 0.10453 0.28157 0.19504
 H1655 H 0.10828 0.20520 0.17599
 H1656 H 0.06792 0.20824 0.15618
 C1657 C -0.11014 0.99848 0.77376
 C1658 C -0.09872 0.99761 0.79261
 C1659 C -0.08602 0.99599 0.81558
 C1660 C -0.07477 1.01668 0.82558
 C1661 C -0.06363 1.01532 0.84856
 C1662 C -0.06373 0.99328 0.86165
 C1663 C -0.07476 0.97252 0.85153
 C1664 C -0.08589 0.97388 0.82855
 C1665 C -0.05307 0.99223 0.88567
 C1666 C -0.04422 0.99198 0.90586
 H1667 H -0.07488 1.03389 0.81578
 H1668 H -0.05520 1.03150 0.85625
 H1669 H -0.07500 0.95541 0.86150
 H1670 H -0.09468 0.95781 0.82103
 C1671 C 0.38997 0.49761 0.27361
 C1672 C 0.40132 0.49661 0.29249
 C1673 C 0.41386 0.49495 0.31554
 C1674 C 0.42520 0.51559 0.32556
 C1675 C 0.43611 0.51423 0.34865
 C1676 C 0.43569 0.49225 0.36182
 C1677 C 0.42459 0.47154 0.35169
 C1678 C 0.41368 0.47290 0.32860
 C1679 C 0.44615 0.49123 0.38594
 C1680 C 0.45488 0.49100 0.40617
 H1681 H 0.42531 0.53276 0.31569
 H1682 H 0.44461 0.53037 0.35634
 H1683 H 0.42411 0.45448 0.36174
 H1684 H 0.40482 0.45687 0.32108
 C1685 C 0.61072 0.00038 0.27179
 C1686 C 0.59937 0.00140 0.29067
 C1687 C 0.58675 0.00319 0.31369
 C1688 C 0.57557 -0.01743 0.32393
 C1689 C 0.56450 -0.01588 0.34693
 C1690 C 0.56459 0.00628 0.35979
 C1691 C 0.57555 0.02696 0.34943
 C1692 C 0.58661 0.02542 0.32643
 C1693 C 0.55395 0.00752 0.38383
 C1694 C 0.54510 0.00791 0.40401
 H1695 H 0.57569 -0.03473 0.31430
 H1696 H 0.55612 -0.03201 0.35480
 H1697 H 0.57577 0.04417 0.35923
 H1698 H 0.59533 0.04144 0.31873
 C1699 C 0.11037 0.50068 0.77065
 C1700 C 0.09888 0.50170 0.78943
 C1701 C 0.08613 0.50346 0.81237
 C1702 C 0.07515 0.48275 0.82266
 C1703 C 0.06405 0.48424 0.84565
 C1704 C 0.06391 0.50643 0.85845
 C1705 C 0.07464 0.52721 0.84804
 C1706 C 0.08574 0.52572 0.82505
 C1707 C 0.05332 0.50760 0.88251
 C1708 C 0.04454 0.50793 0.90272
 H1709 H 0.07548 0.46542 0.81309
 H1710 H 0.05585 0.46805 0.85356
 H1711 H 0.07469 0.54444 0.85780
 H1712 H 0.09431 0.54181 0.81732
 C1713 C 0.11018 0.49989 0.72658
 C1714 C 0.09858 0.49893 0.70786
 C1715 C 0.08576 0.49732 0.68496
 C1716 C 0.08555 0.47520 0.67204
 C1717 C 0.07448 0.47390 0.64903
 C1718 C 0.06360 0.49473 0.63884
 C1719 C 0.06355 0.51677 0.65190
 C1720 C 0.07463 0.51807 0.67490
 C1721 C 0.05305 0.49376 0.61477
 C1722 C 0.04429 0.49356 0.59455
 H1723 H 0.09426 0.45908 0.67958
 H1724 H 0.07467 0.45678 0.63907
 H1725 H 0.05523 0.53300 0.64416
 H1726 H 0.07483 0.53530 0.68466
 C1727 C 0.61007 0.99997 0.22773
 C1728 C 0.59824 0.99929 0.20914
 C1729 C 0.58516 0.99799 0.18636
 C1730 C 0.58158 0.97531 0.17501
 C1731 C 0.57038 0.97408 0.15206
 C1732 C 0.56274 0.99555 0.14035
 C1733 C 0.56603 1.01820 0.15185
 C1734 C 0.57723 1.01943 0.17480
 C1735 C 0.55214 0.99446 0.11630
 C1736 C 0.54345 0.99399 0.09605
 H1737 H 0.58781 0.95864 0.18372
 H1738 H 0.56798 0.95648 0.14332
 H1739 H 0.56023 1.03492 0.14292
 H1740 H 0.58006 1.03707 0.18332
 C1741 C 0.39043 0.49806 0.22953
 C1742 C 0.40215 0.49872 0.21087
 C1743 C 0.41510 0.50006 0.18803
 C1744 C 0.42169 0.47861 0.17570
 C1745 C 0.43274 0.47998 0.15268
 C1746 C 0.43719 0.50278 0.14188
 C1747 C 0.43088 0.52423 0.15435
 C1748 C 0.41984 0.52287 0.17737
 C1749 C 0.44767 0.50407 0.11779
 C1750 C 0.45630 0.50473 0.09752
 H1751 H 0.41795 0.46088 0.18369
 H1752 H 0.43751 0.46327 0.14317
 H1753 H 0.43419 0.54196 0.14616
 H1754 H 0.41464 0.53956 0.18668
 C1755 C -0.10961 -0.00142 0.72972
 C1756 C -0.09780 -0.00073 0.71112
 C1757 C -0.08471 0.00072 0.68836
 C1758 C -0.07986 0.02360 0.67789
 C1759 C -0.06868 0.02511 0.65495
 C1760 C -0.06234 0.00374 0.64236
 C1761 C -0.06690 -0.01914 0.65297
 C1762 C -0.07809 -0.02064 0.67591
 C1763 C -0.05179 0.00518 0.61831
 C1764 C -0.04314 0.00594 0.59805
 H1765 H -0.08508 0.04024 0.68729
 H1766 H -0.06529 0.04288 0.64690
 H1767 H -0.06212 -0.03578 0.64336
 H1768 H -0.08191 -0.03842 0.68375
 C1769 C -0.22754 0.89026 0.99915
 C1770 C -0.20880 0.90182 0.99823
 C1771 C -0.18593 0.91467 0.99663
 C1772 C -0.17610 0.92613 1.01731
 C1773 C -0.15317 0.93735 1.01601
 C1774 C -0.13997 0.93713 0.99405
 C1775 C -0.14992 0.92592 0.97330
 C1776 C -0.17285 0.91471 0.97460
 C1777 C -0.11595 0.94777 0.99310
 C1778 C -0.09574 0.95655 0.99293
 H1779 H -0.18599 0.92608 1.03447
 H1780 H -0.14561 0.94591 1.03218
 H1781 H -0.13985 0.92558 0.95625
 H1782 H -0.18023 0.90577 0.95854
 C1783 C 0.27115 0.38992 0.50036
 C1784 C 0.28999 0.40132 0.49931
 C1785 C 0.31299 0.41395 0.49760
 C1786 C 0.32291 0.42552 0.51816
 C1787 C 0.34593 0.43655 0.51677
 C1788 C 0.35915 0.43602 0.49482
 C1789 C 0.34911 0.42468 0.47418
 C1790 C 0.32608 0.41366 0.47557
 C1791 C 0.38323 0.44656 0.49376
 C1792 C 0.40345 0.45532 0.49349
 H1793 H 0.31301 0.42573 0.53532
 H1794 H 0.35355 0.44522 0.53286
 H1795 H 0.35918 0.42411 0.45714
 H1796 H 0.31864 0.40463 0.45960
 C1797 C 0.27184 0.60984 -0.00133
 C1798 C 0.29044 0.59803 -0.00041
 C1799 C 0.31316 0.58486 0.00128
 C1800 C 0.32412 0.58122 0.02416
 C1801 C 0.34695 0.56981 0.02579
 C1802 C 0.35893 0.56203 0.00454
 C1803 C 0.34783 0.56540 -0.01831
 C1804 C 0.32500 0.57681 -0.01994
 C1805 C 0.38289 0.55125 0.00603
 C1806 C 0.40309 0.54244 0.00678
 H1807 H 0.31518 0.58752 0.04067
 H1808 H 0.35539 0.56736 0.04354
 H1809 H 0.35697 0.55951 -0.03487
 H1810 H 0.31677 0.57968 -0.03773
 C1811 C -0.22845 0.10978 0.49975
 C1812 C -0.20989 0.09791 0.50055
 C1813 C -0.18715 0.08480 0.50213
 C1814 C -0.17641 0.08062 0.52502
 C1815 C -0.15345 0.06947 0.52658
 C1816 C -0.14113 0.06247 0.50525
 C1817 C -0.15202 0.06635 0.48238
 C1818 C -0.17498 0.07751 0.48082
 C1819 C -0.11706 0.05198 0.50671
 C1820 C -0.09678 0.04338 0.50743
 H1821 H -0.18559 0.08636 0.54160
 H1822 H -0.14518 0.06661 0.54435
 H1823 H -0.14262 0.06106 0.46577
 H1824 H -0.18304 0.08082 0.46303
 C1825 C 0.72752 0.11056 0.49919
 C1826 C 0.70865 0.09921 0.49812
 C1827 C 0.68568 0.08656 0.49632
 C1828 C 0.67258 0.08702 0.47430
 C1829 C 0.64962 0.07588 0.47280
 C1830 C 0.63967 0.06424 0.49332
 C1831 C 0.65290 0.06355 0.51526
 C1832 C 0.67585 0.07470 0.51677
 C1833 C 0.61567 0.05356 0.49216
 C1834 C 0.59550 0.04470 0.49184
 H1835 H 0.67996 0.09626 0.45841
 H1836 H 0.63954 0.07657 0.45577
 H1837 H 0.64534 0.05465 0.53126
 H1838 H 0.68576 0.07435 0.53391
 C1839 C 0.22781 0.61014 0.99775
 C1840 C 0.20907 0.59860 0.99654
 C1841 C 0.18621 0.58576 0.99459
 C1842 C 0.17300 0.58655 0.97265
 C1843 C 0.15011 0.57528 0.97105
 C1844 C 0.14034 0.56320 0.99140
 C1845 C 0.15369 0.56217 1.01325
 C1846 C 0.17657 0.57344 1.01485
 C1847 C 0.11634 0.55250 0.99020
 C1848 C 0.09616 0.54368 0.98987
 H1849 H 0.18023 0.59615 0.95691
 H1850 H 0.13992 0.57626 0.95409
 H1851 H 0.14626 0.55293 1.02912
 H1852 H 0.18657 0.57283 1.03194
 C1853 C 0.22706 0.39035 0.50107
 C1854 C 0.20838 0.40204 0.50191
 C1855 C 0.18551 0.41495 0.50344
 C1856 C 0.17293 0.41596 0.52575
 C1857 C 0.14995 0.42711 0.52703
 C1858 C 0.13943 0.43725 0.50599
 C1859 C 0.15214 0.43650 0.48375
 C1860 C 0.17512 0.42535 0.48247
 C1861 C 0.11538 0.44788 0.50697
 C1862 C 0.09518 0.45671 0.50717
 H1863 H 0.18073 0.40782 0.54204
 H1864 H 0.14026 0.42754 0.54430
 H1865 H 0.14415 0.44424 0.46736
 H1866 H 0.18461 0.42452 0.46510
 C1867 C 0.72844 0.89047 -0.00078
 C1868 C 0.70979 0.90222 -0.00035
 C1869 C 0.68700 0.91531 0.00072
 C1870 C 0.67471 0.92156 -0.02086
 C1871 C 0.65177 0.93282 -0.01974
 C1872 C 0.64102 0.93782 0.00297
 C1873 C 0.65344 0.93185 0.02456
 C1874 C 0.67638 0.92060 0.02343
 C1875 C 0.61697 0.94844 0.00406
 C1876 C 0.59671 0.95710 0.00462
 H1877 H 0.68267 0.91740 -0.03851
 H1878 H 0.64229 0.93731 -0.03654
 H1879 H 0.64527 0.93558 0.04221
 H1880 H 0.68566 0.91568 0.04023
 C1881 C -0.00172 0.77265 0.89000
 C1882 C -0.00253 0.79128 0.90176
 C1883 C -0.00403 0.81409 0.91475
 C1884 C -0.02634 0.82665 0.91594
 C1885 C -0.02759 0.84960 0.92712
 C1886 C -0.00651 0.86010 0.93714
 C1887 C 0.01575 0.84741 0.93622
 C1888 C 0.01699 0.82446 0.92503
 C1889 C -0.00746 0.88414 0.94778
 C1890 C -0.00765 0.90433 0.95660
 H1891 H -0.04267 0.81886 0.90789
 H1892 H -0.04487 0.85927 0.92768
 H1893 H 0.03218 0.85540 0.94386
 H1894 H 0.03437 0.81499 0.92406
 C1895 C 0.49909 0.27212 0.38977
 C1896 C 0.49799 0.29083 0.40137
 C1897 C 0.49619 0.31366 0.41429
 C1898 C 0.51665 0.32336 0.42622
 C1899 C 0.51517 0.34622 0.43758
 C1900 C 0.49323 0.35948 0.43703
 C1901 C 0.47269 0.34965 0.42534
 C1902 C 0.47418 0.32679 0.41399
 C1903 C 0.49212 0.38343 0.44785
 C1904 C 0.49182 0.40356 0.45679
 H1905 H 0.53379 0.31343 0.42645
 H1906 H 0.53118 0.35368 0.44651
 H1907 H 0.45567 0.35976 0.42474
 H1908 H 0.45828 0.31951 0.40469
 C1909 C 0.00129 0.27362 0.60923
 C1910 C 0.00211 0.29237 0.59764
 C1911 C 0.00368 0.31525 0.58475
 C1912 C 0.02601 0.32775 0.58370
 C1913 C 0.02737 0.35068 0.57246
 C1914 C 0.00638 0.36122 0.56224
 C1915 C -0.01590 0.34860 0.56304
 C1916 C -0.01725 0.32567 0.57429
 C1917 C 0.00746 0.38523 0.55151
 C1918 C 0.00776 0.40541 0.54265
 H1919 H 0.04228 0.31992 0.59187
 H1920 H 0.04467 0.36029 0.57200
 H1921 H -0.03225 0.35661 0.55525
 H1922 H -0.03464 0.31624 0.57513
 C1923 C 0.50122 0.77188 0.10908
 C1924 C 0.50162 0.79052 0.09731
 C1925 C 0.50263 0.81333 0.08427
 C1926 C 0.48101 0.82543 0.07778
 C1927 C 0.48205 0.84841 0.06661
 C1928 C 0.50472 0.85939 0.06193
 C1929 C 0.52634 0.84715 0.06814
 C1930 C 0.52530 0.82417 0.07931
 C1931 C 0.50570 0.88346 0.05135
 C1932 C 0.50615 0.90371 0.04267
 H1933 H 0.46339 0.81729 0.08169
 H1934 H 0.46522 0.85775 0.06192
 H1935 H 0.54396 0.85549 0.06466
 H1936 H 0.54213 0.81504 0.08442
 C1937 C 0.50133 0.72784 0.10947
 C1938 C 0.50061 0.70905 0.09797
 C1939 C 0.49924 0.68612 0.08518
 C1940 C 0.47644 0.67525 0.08092
 C1941 C 0.47507 0.65223 0.06989
 C1942 C 0.49651 0.63997 0.06311
 C1943 C 0.51930 0.65096 0.06710
 C1944 C 0.52066 0.67398 0.07813
 C1945 C 0.49523 0.61587 0.05264
 C1946 C 0.49456 0.59558 0.04408
 H1947 H 0.45976 0.68441 0.08645
 H1948 H 0.45737 0.64388 0.06694
 H1949 H 0.53600 0.64162 0.06197
 H1950 H 0.53839 0.68214 0.08149
 C1951 C 0.00141 0.22955 0.60916
 C1952 C 0.00087 0.21080 0.59758
 C1953 C -0.00037 0.18786 0.58480
 C1954 C 0.02108 0.17505 0.57918
 C1955 C 0.01973 0.15195 0.56832
 C1956 C -0.00308 0.14154 0.56309
 C1957 C -0.02453 0.15448 0.56843
 C1958 C -0.02318 0.17758 0.57929
 C1959 C -0.00442 0.11736 0.55281
 C1960 C -0.00515 0.09703 0.54436
 H1961 H 0.03880 0.18274 0.58353
 H1962 H 0.03643 0.14208 0.56430
 H1963 H -0.04226 0.14659 0.56451
 H1964 H -0.03989 0.18725 0.58373
 C1965 C 0.50045 0.22809 0.38993
 C1966 C 0.50172 0.20940 0.40157
 C1967 C 0.50370 0.18656 0.41446
 C1968 C 0.52570 0.17342 0.41382
 C1969 C 0.52729 0.15048 0.42501
 C1970 C 0.50688 0.14059 0.43688
 C1971 C 0.48497 0.15388 0.43779
 C1972 C 0.48338 0.17681 0.42659
 C1973 C 0.50806 0.11653 0.44745
 C1974 C 0.50838 0.09630 0.45618
 H1975 H 0.54148 0.18074 0.40435
 H1976 H 0.54429 0.14034 0.42413
 H1977 H 0.46905 0.14636 0.44686
 H1978 H 0.46624 0.18675 0.42707
 C1979 C -0.00091 0.72857 0.88934
 C1980 C 0.00030 0.70962 0.90057
 C1981 C 0.00227 0.68649 0.91296
 C1982 C 0.02448 0.67371 0.91264
 C1983 C 0.02615 0.65057 0.92340
 C1984 C 0.00560 0.64010 0.93450
 C1985 C -0.01655 0.65301 0.93506
 C1986 C -0.01822 0.67615 0.92429
 C1987 C 0.00696 0.61595 0.94486
 C1988 C 0.00746 0.59569 0.95353
 H1989 H 0.04040 0.68148 0.90378
 H1990 H 0.04335 0.64074 0.92282
 H1991 H -0.03257 0.64506 0.94356
 H1992 H -0.03552 0.68580 0.92451
 C1993 C 0.25007 0.64078 0.97658
 C1994 C 0.24947 0.65270 0.95804
 C1995 C 0.24815 0.66598 0.93538
 C1996 C 0.22532 0.67121 0.92497
 C1997 C 0.22393 0.68263 0.90214
 C1998 C 0.24536 0.68885 0.88960
 C1999 C 0.26819 0.68392 0.90016
 C2000 C 0.26958 0.67250 0.92300
 C2001 C 0.24402 0.69958 0.86562
 C2002 C 0.24331 0.70830 0.84538
 H2003 H 0.20862 0.66609 0.93433
 H2004 H 0.20619 0.68629 0.89412
 H2005 H 0.28489 0.68860 0.89059
 H2006 H 0.28733 0.66839 0.93080
 C2007 C 0.75001 0.14095 0.47787
 C2008 C 0.74956 0.15280 0.45928
 C2009 C 0.74850 0.16595 0.43653
 C2010 C 0.72579 0.17126 0.42590
 C2011 C 0.72467 0.18247 0.40295
 C2012 C 0.74626 0.18839 0.39052
 C2013 C 0.76896 0.18338 0.40129
 C2014 C 0.77008 0.17216 0.42424
 C2015 C 0.74518 0.19893 0.36644
 C2016 C 0.74463 0.20753 0.34615
 H2017 H 0.70899 0.16636 0.43517
 H2018 H 0.70702 0.18621 0.39476
 H2019 H 0.78577 0.18782 0.39180
 H2020 H 0.78773 0.16797 0.43221
 C2021 C 0.24881 0.35942 0.47905
 C2022 C 0.24930 0.34759 0.46046
 C2023 C 0.25039 0.33442 0.43773
 C2024 C 0.27308 0.32971 0.42679
 C2025 C 0.27419 0.31838 0.40390
 C2026 C 0.25260 0.31176 0.39183
 C2027 C 0.22992 0.31620 0.40290
 C2028 C 0.22882 0.32753 0.42580
 C2029 C 0.25363 0.30102 0.36784
 C2030 C 0.25413 0.29223 0.34764
 H2031 H 0.28987 0.33512 0.43579
 H2032 H 0.29182 0.31509 0.39549
 H2033 H 0.21312 0.31120 0.39370
 H2034 H 0.21117 0.33124 0.43400
 C2035 C 0.75067 0.85955 0.97766
 C2036 C 0.75154 0.84775 0.95907
 C2037 C 0.75307 0.83471 0.93629
 C2038 C 0.77534 0.83373 0.92364
 C2039 C 0.77659 0.82250 0.90071
 C2040 C 0.75557 0.81223 0.89032
 C2041 C 0.73338 0.81294 0.90311
 C2042 C 0.73212 0.82417 0.92604
 C2043 C 0.75650 0.80162 0.86627
 C2044 C 0.75668 0.79287 0.84605
 H2045 H 0.79161 0.84197 0.93133
 H2046 H 0.79383 0.82212 0.89095
 H2047 H 0.71700 0.80511 0.89521
 H2048 H 0.71478 0.82498 0.93558
 C2049 C 0.75001 0.86024 0.02174
 C2050 C 0.74908 0.84896 0.04067
 C2051 C 0.74751 0.83646 0.06376
 C2052 C 0.72545 0.83652 0.07680
 C2053 C 0.72415 0.82559 0.09989
 C2054 C 0.74493 0.81459 0.11005
 C2055 C 0.76693 0.81430 0.09690
 C2056 C 0.76822 0.82523 0.07381
 C2057 C 0.74394 0.80405 0.13415
 C2058 C 0.74372 0.79525 0.15436
 H2059 H 0.70935 0.84528 0.06926
 H2060 H 0.70707 0.82596 0.10991
 H2061 H 0.78312 0.80588 0.10460
 H2062 H 0.78540 0.82520 0.06396
 C2063 C 0.24877 0.35994 0.52310
 C2064 C 0.24790 0.34857 0.54197
 C2065 C 0.24629 0.33597 0.56500
 C2066 C 0.26698 0.32469 0.57504
 C2067 C 0.26565 0.31370 0.59809
 C2068 C 0.24364 0.31397 0.61121
 C2069 C 0.22288 0.32502 0.60106
 C2070 C 0.22421 0.33601 0.57801
 C2071 C 0.24263 0.30344 0.63530
 C2072 C 0.24240 0.29468 0.65553
 H2073 H 0.28417 0.32468 0.56520
 H2074 H 0.28183 0.30524 0.60580
 H2075 H 0.20579 0.32539 0.61107
 H2076 H 0.20814 0.34481 0.57048
 C2077 C 0.75023 0.14031 0.52192
 C2078 C 0.75139 0.15161 0.54081
 C2079 C 0.75340 0.16410 0.56385
 C2080 C 0.77579 0.16430 0.57631
 C2081 C 0.77755 0.17517 0.59937
 C2082 C 0.75691 0.18587 0.61009
 C2083 C 0.73458 0.18592 0.59752
 C2084 C 0.73281 0.17504 0.57445
 C2085 C 0.75837 0.19630 0.63419
 C2086 C 0.75890 0.20498 0.65443
 H2087 H 0.79179 0.15575 0.56833
 H2088 H 0.79489 0.17498 0.60895
 H2089 H 0.71848 0.19411 0.60567
 H2090 H 0.71538 0.17487 0.56505
 C2091 C 0.24992 0.64020 0.02061
 C2092 C 0.25062 0.65165 0.03943
 C2093 C 0.25203 0.66441 0.06238
 C2094 C 0.23063 0.67145 0.07455
 C2095 C 0.23205 0.68250 0.09756
 C2096 C 0.25486 0.68651 0.10851
 C2097 C 0.27627 0.67971 0.09621
 C2098 C 0.27485 0.66867 0.07320
 C2099 C 0.25619 0.69705 0.13257
 C2100 C 0.25687 0.70571 0.15282
 H2101 H 0.21289 0.66810 0.06642
 H2102 H 0.21537 0.68764 0.10693
 H2103 H 0.29400 0.68268 0.10453
 H2104 H 0.29151 0.66315 0.06401
 C2105 C 0.14064 0.52238 0.74842
 C2106 C 0.15211 0.54119 0.74897
 C2107 C 0.16476 0.56420 0.75016
 C2108 C 0.16965 0.57488 0.77292
 C2109 C 0.18043 0.59802 0.77417
 C2110 C 0.18634 0.61058 0.75265
 C2111 C 0.18173 0.59977 0.72989
 C2112 C 0.17094 0.57663 0.72864
 C2113 C 0.19665 0.63474 0.75384
 C2114 C 0.20518 0.65503 0.75446
 H2115 H 0.16477 0.56549 0.78967
 H2116 H 0.18388 0.60622 0.79186
 H2117 H 0.18619 0.60934 0.71313
 H2118 H 0.16707 0.56862 0.71095
 C2119 C 0.64097 0.02198 0.24944
 C2120 C 0.65264 0.04066 0.25001
 C2121 C 0.66558 0.06351 0.25123
 C2122 C 0.67236 0.07563 0.22972
 C2123 C 0.68344 0.09863 0.23095
 C2124 C 0.68773 0.10962 0.25369
 C2125 C 0.68122 0.09736 0.27521
 C2126 C 0.67015 0.07436 0.27398
 C2127 C 0.69823 0.13370 0.25485
 C2128 C 0.70685 0.15396 0.25541
 H2129 H 0.66875 0.06749 0.21203
 H2130 H 0.68836 0.10798 0.21420
 H2131 H 0.68440 0.10570 0.29289
 H2132 H 0.66481 0.06521 0.29072
 C2133 C 0.85983 0.02082 0.75097
 C2134 C 0.84842 0.03966 0.74973
 C2135 C 0.83582 0.06266 0.74766
 C2136 C 0.83569 0.07515 0.72528
 C2137 C 0.82476 0.09820 0.72348
 C2138 C 0.81393 0.10888 0.74408
 C2139 C 0.81381 0.09626 0.76639
 C2140 C 0.82474 0.07321 0.76819
 C2141 C 0.80351 0.13300 0.74260
 C2142 C 0.79485 0.15327 0.74205
 H2143 H 0.84434 0.06721 0.70932
 H2144 H 0.82501 0.10781 0.70616
 H2145 H 0.80553 0.10438 0.78246
 H2146 H 0.82487 0.06379 0.78562
 C2147 C 0.35999 0.52022 0.25110
 C2148 C 0.34849 0.53902 0.25018
 C2149 C 0.33568 0.56192 0.24854
 C2150 C 0.33283 0.57333 0.22578
 C2151 C 0.32171 0.59631 0.22424
 C2152 C 0.31342 0.60797 0.24547
 C2153 C 0.31601 0.59643 0.26820
 C2154 C 0.32714 0.57345 0.26974
 C2155 C 0.30287 0.63202 0.24410
 C2156 C 0.29421 0.65228 0.24343
 H2157 H 0.33951 0.56464 0.20929
 H2158 H 0.31985 0.60510 0.20658
 H2159 H 0.30971 0.60531 0.28474
 H2160 H 0.32939 0.56485 0.28745
 C2161 C 0.35946 0.47624 0.25139
 C2162 C 0.34754 0.45773 0.25203
 C2163 C 0.33425 0.43510 0.25333
 C2164 C 0.33042 0.42386 0.27603
 C2165 C 0.31895 0.40106 0.27727
 C2166 C 0.31128 0.38941 0.25581
 C2167 C 0.31483 0.40080 0.23313
 C2168 C 0.32631 0.42360 0.23189
 C2169 C 0.30048 0.36548 0.25691
 C2170 C 0.29167 0.34530 0.25739
 H2171 H 0.33665 0.43253 0.29271
 H2172 H 0.31636 0.39239 0.29489
 H2173 H 0.30903 0.39191 0.21641
 H2174 H 0.32933 0.43206 0.21423
 C2175 C 0.85951 0.97674 0.75172
 C2176 C 0.84783 0.95807 0.75255
 C2177 C 0.83489 0.93524 0.75408
 C2178 C 0.83389 0.92263 0.77637
 C2179 C 0.82269 0.89970 0.77766
 C2180 C 0.81246 0.88926 0.75664
 C2181 C 0.81320 0.90200 0.73441
 C2182 C 0.82441 0.92493 0.73313
 C2183 C 0.80178 0.86525 0.75763
 C2184 C 0.79294 0.84507 0.75785
 H2185 H 0.84208 0.93037 0.79266
 H2186 H 0.82227 0.88999 0.79492
 H2187 H 0.80540 0.89407 0.71804
 H2188 H 0.82522 0.93444 0.71577
 C2189 C 0.64078 0.97795 0.24911
 C2190 C 0.65237 0.95921 0.24805
 C2191 C 0.66529 0.93637 0.24623
 C2192 C 0.66524 0.92345 0.22411
 C2193 C 0.67659 0.90058 0.22258
 C2194 C 0.68803 0.89053 0.24317
 C2195 C 0.68832 0.90358 0.26522
 C2196 C 0.67697 0.92645 0.26675
 C2197 C 0.69883 0.86656 0.24199
 C2198 C 0.70773 0.84639 0.24165
 H2199 H 0.65614 0.93089 0.20816
 H2200 H 0.67619 0.89062 0.20546
 H2201 H 0.69706 0.89595 0.28128
 H2202 H 0.67700 0.93621 0.28398
 C2203 C 0.14081 0.47832 0.74848
 C2204 C 0.15245 0.45961 0.74772
 C2205 C 0.16536 0.43673 0.74626
 C2206 C 0.17565 0.42634 0.76728
 C2207 C 0.18683 0.40337 0.76604
 C2208 C 0.18773 0.39068 0.74380
 C2209 C 0.17769 0.40121 0.72272
 C2210 C 0.16652 0.42418 0.72395
 C2211 C 0.19834 0.36662 0.74286
 C2212 C 0.20710 0.34640 0.74268
 H2213 H 0.17472 0.43581 0.78464
 H2214 H 0.19448 0.39536 0.78247
 H2215 H 0.17823 0.39154 0.70544
 H2216 H 0.15847 0.43199 0.70761
 C2217 C 0.02026 0.75109 0.85891
 C2218 C 0.03885 0.75061 0.84706
 C2219 C 0.06160 0.74946 0.83393
 C2220 C 0.07363 0.77099 0.82710
 C2221 C 0.09656 0.76981 0.81585
 C2222 C 0.10757 0.74709 0.81142
 C2223 C 0.09539 0.72555 0.81796
 C2224 C 0.07246 0.72673 0.82921
 C2225 C 0.13160 0.74599 0.80079
 C2226 C 0.15184 0.74548 0.79208
 H2227 H 0.06548 0.78866 0.83083
 H2228 H 0.10585 0.78659 0.81092
 H2229 H 0.10375 0.70789 0.81468
 H2230 H 0.06338 0.70997 0.83458
 C2231 C 0.52155 0.25027 0.35920
 C2232 C 0.54019 0.24974 0.34744
 C2233 C 0.56299 0.24851 0.33439
 C2234 C 0.57395 0.22578 0.32998
 C2235 C 0.59690 0.22454 0.31877
 C2236 C 0.60899 0.24605 0.31196
 C2237 C 0.59789 0.26878 0.31608
 C2238 C 0.57494 0.27001 0.32729
 C2239 C 0.63304 0.24491 0.30135
 C2240 C 0.65328 0.24438 0.29266
 H2241 H 0.56494 0.20905 0.33555
 H2242 H 0.60534 0.20688 0.31572
 H2243 H 0.60711 0.28553 0.31093
 H2244 H 0.56671 0.28769 0.33077
 C2245 C 0.52371 0.75054 0.13946
 C2246 C 0.54258 0.75165 0.15080
 C2247 C 0.56562 0.75347 0.16336
 C2248 C 0.57570 0.73295 0.17489
 C2249 C 0.59875 0.73446 0.18587
 C2250 C 0.61181 0.75649 0.18533
 C2251 C 0.60161 0.77708 0.17403
 C2252 C 0.57857 0.77557 0.16305
 C2253 C 0.63588 0.75768 0.19589
 C2254 C 0.65608 0.75804 0.20469
 H2255 H 0.56592 0.71574 0.17511
 H2256 H 0.60649 0.71841 0.19453
 H2257 H 0.61157 0.79419 0.17346
 H2258 H 0.57099 0.79151 0.15405
 C2259 C 0.02311 0.25193 0.63984
 C2260 C 0.04178 0.25288 0.65153
 C2261 C 0.06462 0.25451 0.66447
 C2262 C 0.07462 0.23377 0.67570
 C2263 C 0.09756 0.23509 0.68692
 C2264 C 0.11061 0.25713 0.68693
 C2265 C 0.10048 0.27794 0.67596
 C2266 C 0.07754 0.27662 0.66474
 C2267 C 0.13465 0.25810 0.69760
 C2268 C 0.15484 0.25830 0.70643
 H2269 H 0.06487 0.21654 0.67546
 H2270 H 0.10525 0.21887 0.69530
 H2271 H 0.11043 0.29505 0.67580
 H2272 H 0.07004 0.29273 0.65597
 C2273 C 0.97903 0.25103 0.63947
 C2274 C 0.96020 0.24982 0.65090
 C2275 C 0.93724 0.24776 0.66357
 C2276 C 0.92485 0.22534 0.66389
 C2277 C 0.90186 0.22352 0.67494
 C2278 C 0.89115 0.24414 0.68572
 C2279 C 0.90367 0.26649 0.68563
 C2280 C 0.92665 0.26831 0.67457
 C2281 C 0.86711 0.24263 0.69631
 C2282 C 0.84691 0.24205 0.70511
 H2283 H 0.93281 0.20936 0.65530
 H2284 H 0.89234 0.20617 0.67484
 H2285 H 0.89553 0.28257 0.69386
 H2286 H 0.93599 0.28576 0.67431
 C2287 C 0.47964 0.74979 0.14003
 C2288 C 0.46103 0.74907 0.15184
 C2289 C 0.43825 0.74777 0.16492
 C2290 C 0.42633 0.76923 0.17220
 C2291 C 0.40336 0.76797 0.18337
 C2292 C 0.39221 0.74524 0.18727
 C2293 C 0.40427 0.72376 0.18027
 C2294 C 0.42724 0.72502 0.16911
 C2295 C 0.36811 0.74409 0.19777
 C2296 C 0.34782 0.74351 0.20634
 H2297 H 0.43459 0.78692 0.16888
 H2298 H 0.39417 0.78470 0.18865
 H2299 H 0.39579 0.70610 0.18314
 H2300 H 0.43622 0.70832 0.16338
 C2301 C 0.47751 0.24967 0.35955
 C2302 C 0.45868 0.24996 0.34807
 C2303 C 0.43569 0.25082 0.33534
 C2304 C 0.42495 0.27344 0.32987
 C2305 C 0.40185 0.27439 0.31895
 C2306 C 0.38938 0.25271 0.31350
 C2307 C 0.40024 0.23009 0.31870
 C2308 C 0.42334 0.22914 0.32963
 C2309 C 0.36523 0.25364 0.30309
 C2310 C 0.34493 0.25410 0.29453
 H2311 H 0.43428 0.29031 0.33438
 H2312 H 0.39361 0.29197 0.31505
 H2313 H 0.39073 0.21322 0.31460
 H2314 H 0.43140 0.21156 0.33394
 C2315 C 0.97622 0.75109 0.85954
 C2316 C 0.95733 0.75199 0.84819
 C2317 C 0.93429 0.75360 0.83562
 C2318 C 0.92123 0.77565 0.83570
 C2319 C 0.89818 0.77698 0.82472
 C2320 C 0.88808 0.75625 0.81363
 C2321 C 0.90125 0.73426 0.81332
 C2322 C 0.92431 0.73293 0.82431
 C2323 C 0.86399 0.75726 0.80310
 C2324 C 0.84377 0.75748 0.79434
 H2325 H 0.92873 0.79171 0.84453
 H2326 H 0.88813 0.79406 0.82511
 H2327 H 0.89358 0.71810 0.80484
 H2328 H 0.93418 0.71575 0.82427
   
