data_POSCAR
  _audit_creation_date              2014-09-24
  _audit_creation_method            'ToBaCCo'
  _symmetry_space_group_name_H-M    'P1'
  _symmetry_Int_Tables_number       1
  _symmetry_cell_setting            triclinic
  loop_
  _symmetry_equiv_pos_as_xyz
 x,y,z
_cell_length_a 38.7104
_cell_length_b 38.3912
_cell_length_c 42.3570
_cell_angle_alpha 89.630300
_cell_angle_beta 90.049000
_cell_angle_gamma 91.832400
loop_
  _atom_site_label
  _atom_site_type_symbol
  _atom_site_fract_x
  _atom_site_fract_y
  _atom_site_fract_z
C1 C 0.44092 0.02502 0.28465
 C2 C 0.42199 0.05957 0.28202
 C3 C 0.39720 0.06035 0.25894
 C4 C 0.39340 0.02543 0.24082
 C5 C 0.41210 -0.00244 0.28929
 C6 C 0.38719 -0.00304 0.26676
 C7 C 0.45495 0.01906 0.25161
 C8 C 0.43055 0.01978 0.22846
 H9 H 0.42866 0.08195 0.29647
 H10 H 0.37328 0.02542 0.22213
 H11 H 0.41212 -0.02074 0.30888
 H12 H 0.48228 0.01682 0.24685
 C13 C 0.05678 -0.01852 0.77698
 C14 C 0.08116 -0.04952 0.77793
 C15 C 0.10654 -0.04828 0.75556
 C16 C 0.10538 -0.01544 0.73426
 C17 C 0.08128 0.01328 0.77980
 C18 C 0.10684 0.01539 0.75793
 C19 C 0.04366 -0.01773 0.74484
 C20 C 0.07016 -0.01643 0.72105
 H21 H 0.07828 -0.07102 0.79449
 H22 H 0.12646 -0.01407 0.71648
 H23 H 0.07891 0.03231 0.79839
 H24 H 0.01633 -0.01962 0.73939
 C25 C 0.55631 0.48462 0.27475
 C26 C 0.58108 0.45401 0.27587
 C27 C 0.60672 0.45565 0.25385
 C28 C 0.60578 0.48847 0.23279
 C29 C 0.58021 0.51683 0.27780
 C30 C 0.60618 0.51929 0.25638
 C31 C 0.54317 0.48521 0.24056
 C32 C 0.56890 0.48673 0.21841
 H33 H 0.57795 0.43213 0.29199
 H34 H 0.62698 0.49009 0.21516
 H35 H 0.57720 0.53585 0.29631
 H36 H 0.51603 0.48242 0.23454
 C37 C 0.94186 0.52448 0.78316
 C38 C 0.92152 0.55822 0.78093
 C39 C 0.89663 0.55833 0.75794
 C40 C 0.89417 0.52360 0.73944
 C41 C 0.91410 0.49585 0.78756
 C42 C 0.88911 0.49461 0.76509
 C43 C 0.95604 0.51951 0.74997
 C44 C 0.93151 0.51951 0.72688
 H45 H 0.92727 0.58061 0.79565
 H46 H 0.87395 0.52306 0.72083
 H47 H 0.91480 0.47739 0.80700
 H48 H 0.98343 0.51818 0.74512
 C49 C 0.29768 0.36124 0.99509
 C50 C 0.29025 0.34136 1.02585
 C51 C 0.25998 0.32265 1.02627
 C52 C 0.23900 0.32523 0.99539
 C53 C 0.29495 0.33316 0.96963
 C54 C 0.26432 0.31451 0.96919
 C55 C 0.26551 0.38342 0.98971
 C56 C 0.23474 0.36467 0.99014
 H57 H 0.30704 0.34273 1.04631
 H58 H 0.21429 0.30971 0.99569
 H59 H 0.31492 0.32993 0.95207
 H60 H 0.26699 0.41150 0.98708
 C61 C 0.77397 0.13166 0.99578
 C62 C 0.77382 0.15959 0.97009
 C63 C 0.74720 0.18177 0.97172
 C64 C 0.72175 0.17307 0.99973
 C65 C 0.77304 0.15250 1.02655
 C66 C 0.74573 0.17411 1.02909
 C67 C 0.74051 0.11388 0.99377
 C68 C 0.71141 0.13591 0.99671
 H69 H 0.79374 0.16207 0.95219
 H70 H 0.69980 0.19092 1.00128
 H71 H 0.79204 0.14956 1.04509
 H72 H 0.73792 0.08572 0.99254
 C73 C 0.27310 0.63340 0.49573
 C74 C 0.27394 0.66297 0.47162
 C75 C 0.24850 0.68625 0.47479
 C76 C 0.22318 0.67727 0.50265
 C77 C 0.27330 0.65200 0.52760
 C78 C 0.24726 0.67481 0.53171
 C79 C 0.23683 0.61665 0.49306
 C80 C 0.21049 0.63896 0.49719
 H81 H 0.29318 0.66521 0.45309
 H82 H 0.20204 0.69589 0.50539
 H83 H 0.29217 0.64665 0.54575
 H84 H 0.23246 0.58889 0.48976
 C85 C 0.79470 0.86135 0.49745
 C86 C 0.78730 0.83929 0.52691
 C87 C 0.75746 0.81994 0.52588
 C88 C 0.73683 0.82417 0.49497
 C89 C 0.79302 0.83512 0.47044
 C90 C 0.76285 0.81585 0.46853
 C91 C 0.76217 0.88314 0.49292
 C92 C 0.73181 0.86377 0.49189
 H93 H 0.80354 0.84002 0.54776
 H94 H 0.71242 0.80819 0.49411
 H95 H 0.81349 0.83344 0.45314
 H96 H 0.76308 0.91134 0.49184
 C97 C -0.01684 0.28216 0.39147
 C98 C 0.02147 0.28160 0.38351
 C99 C 0.03001 0.25396 0.36569
 C100 C -0.00072 0.22928 0.35757
 C101 C -0.03418 0.28079 0.36133
 C102 C -0.02592 0.25137 0.34292
 C103 C -0.02487 0.24709 0.40769
 C104 C -0.01536 0.21933 0.39009
 H105 H 0.03983 0.30204 0.39047
 H106 H 0.00613 0.20682 0.34265
 H107 H -0.05663 0.29604 0.35608
 H108 H -0.03202 0.24492 0.43236
 C109 C 0.00776 0.76478 0.10603
 C110 C -0.02598 0.74301 0.10698
 C111 C -0.02640 0.71771 0.12961
 C112 C 0.00808 0.71466 0.14675
 C113 C 0.01352 0.77692 0.14001
 C114 C 0.01494 0.75045 0.16124
 C115 C 0.03576 0.73876 0.09972
 C116 C 0.03508 0.71160 0.12059
 H117 H -0.04943 0.75185 0.09601
 H118 H 0.00834 0.69304 0.16433
 H119 H 0.02272 0.80315 0.14549
 H120 H 0.04906 0.73798 0.07725
 C121 C 0.50515 0.26539 0.60486
 C122 C 0.47106 0.24433 0.60728
 C123 C 0.47124 0.21920 0.63004
 C124 C 0.50624 0.21581 0.64610
 C125 C 0.51257 0.27789 0.63846
 C126 C 0.51432 0.25170 0.65991
 C127 C 0.53232 0.23864 0.59787
 C128 C 0.53195 0.21179 0.61908
 H129 H 0.44732 0.25337 0.59699
 H130 H 0.50687 0.19444 0.66392
 H131 H 0.52245 0.30404 0.64337
 H132 H 0.54450 0.23715 0.57492
 C133 C 0.48661 0.77642 0.90243
 C134 C 0.51403 0.78601 0.87773
 C135 C 0.52231 0.75912 0.85884
 C136 C 0.50114 0.72548 0.86550
 C137 C 0.45565 0.76266 0.88374
 C138 C 0.46339 0.73610 0.86439
 C139 C 0.49947 0.74650 0.91918
 C140 C 0.50759 0.71839 0.89872
 H141 H 0.52885 0.81045 0.87831
 H142 H 0.50661 0.70385 0.84912
 H143 H 0.43004 0.77318 0.88525
 H144 H 0.50154 0.74513 0.94467
 C145 C -0.22440 0.68891 0.96561
 C146 C -0.19063 0.66897 0.96799
 C147 C -0.19040 0.64369 0.99098
 C148 C -0.22517 0.64045 1.00924
 C149 C -0.25226 0.66057 0.96093
 C150 C -0.25353 0.63516 0.98332
 C151 C -0.23003 0.70280 0.99872
 C152 C -0.22988 0.67796 1.02180
 H153 H -0.16828 0.67541 0.95350
 H154 H -0.22568 0.61995 1.02785
 H155 H -0.27030 0.66126 0.94137
 H156 H -0.23156 0.73038 1.00357
 C157 C -0.26543 0.30990 0.47253
 C158 C -0.29719 0.33319 0.47128
 C159 C -0.29737 0.35875 0.49356
 C160 C -0.26500 0.35891 0.51506
 C161 C -0.23490 0.33585 0.46988
 C162 C -0.23411 0.36159 0.49161
 C163 C -0.26462 0.29668 0.50482
 C164 C -0.26485 0.32344 0.52853
 H165 H -0.31827 0.32926 0.45473
 H166 H -0.26470 0.38022 0.53267
 H167 H -0.21551 0.33416 0.45156
 H168 H -0.26570 0.26911 0.51043
 C169 C 0.23472 -0.19163 -0.02396
 C170 C 0.20421 -0.16678 -0.02549
 C171 C 0.20535 -0.14091 -0.00355
 C172 C 0.23769 -0.14197 0.01787
 C173 C 0.26650 -0.16726 -0.02707
 C174 C 0.26860 -0.14115 -0.00566
 C175 C 0.23502 -0.20436 0.00846
 C176 C 0.23613 -0.17724 0.03178
 H177 H 0.18282 -0.17002 -0.04182
 H178 H 0.23903 -0.12041 0.03523
 H179 H 0.28561 -0.17017 -0.04547
 H180 H 0.23248 -0.23180 0.01443
 C181 C 0.27484 1.19064 0.46732
 C182 C 0.30712 1.16844 0.46933
 C183 C 0.30609 1.14315 0.49227
 C184 C 0.27147 1.14214 0.51090
 C185 C 0.24514 1.16418 0.46291
 C186 C 0.24244 1.13886 0.48532
 C187 C 0.27056 1.20486 0.50055
 C188 C 0.26928 1.17991 0.52359
 H189 H 0.32968 1.17353 0.45473
 H190 H 0.26991 1.12159 0.52944
 H191 H 0.22685 1.16624 0.44365
 H192 H 0.27055 1.23252 0.50546
 C193 C 0.11292 0.54700 0.25448
 C194 C 0.09316 0.53966 0.22385
 C195 C 0.07395 0.50954 0.22387
 C196 C 0.07602 0.48856 0.25500
 C197 C 0.08498 0.54509 0.28001
 C198 C 0.06582 0.51462 0.28088
 C199 C 0.13421 0.51417 0.26022
 C200 C 0.11503 0.48350 0.26025
 H201 H 0.09484 0.55647 0.20323
 H202 H 0.06015 0.46394 0.25506
 H203 H 0.08209 0.56553 0.29724
 H204 H 0.16205 0.51513 0.26284
 C205 C -0.11667 1.02483 0.25340
 C206 C -0.08941 1.02404 0.27926
 C207 C -0.06761 0.99711 0.27755
 C208 C -0.07605 0.97187 0.24941
 C209 C -0.09562 1.02416 0.22280
 C210 C -0.07442 0.99648 0.22024
 C211 C -0.13470 0.99122 0.25507
 C212 C -0.11304 0.96170 0.25214
 H213 H -0.08697 1.04382 0.29733
 H214 H -0.05849 0.94963 0.24784
 H215 H -0.09821 1.04353 0.20431
 H216 H -0.16265 0.98886 0.25613
 C217 C 0.38379 0.52248 -0.24510
 C218 C 0.41307 0.52311 -0.22109
 C219 C 0.43624 0.49756 -0.22453
 C220 C 0.42742 0.47233 -0.25240
 C221 C 0.40230 0.52308 -0.27705
 C222 C 0.42501 0.49693 -0.28130
 C223 C 0.36725 0.48583 -0.24252
 C224 C 0.38946 0.45938 -0.24685
 H225 H 0.41533 0.54237 -0.20257
 H226 H 0.44595 0.45109 -0.25530
 H227 H 0.39705 0.54232 -0.29510
 H228 H 0.33973 0.48129 -0.23907
 C229 C 0.61180 0.04625 -0.24708
 C230 C 0.59030 0.03891 -0.27667
 C231 C 0.57108 0.00880 -0.27569
 C232 C 0.57493 -0.01213 -0.24471
 C233 C 0.58540 0.04445 -0.22022
 C234 C 0.56628 0.01399 -0.21841
 C235 C 0.63335 0.01346 -0.24234
 C236 C 0.61417 -0.01716 -0.24134
 H237 H 0.59106 0.05554 -0.29745
 H238 H 0.55910 -0.03676 -0.24388
 H239 H 0.58347 0.06501 -0.20298
 H240 H 0.66130 0.01441 -0.24097
 C241 C 0.02641 0.23360 0.84719
 C242 C 0.03543 0.26331 0.86978
 C243 C 0.00864 0.27258 0.88817
 C244 C -0.02449 0.25045 0.88302
 C245 C 0.01318 0.20380 0.86811
 C246 C -0.01340 0.21277 0.88686
 C247 C -0.00337 0.24468 0.82960
 C248 C -0.03141 0.25414 0.84941
 H249 H 0.05980 0.27801 0.86875
 H250 H -0.04613 0.25703 0.89889
 H251 H 0.02376 0.17799 0.86822
 H252 H -0.00457 0.24484 0.80403
 C253 C 0.51614 0.25495 0.15123
 C254 C 0.49492 0.22087 0.14849
 C255 C 0.47099 0.22131 0.12497
 C256 C 0.46858 0.25673 0.10869
 C257 C 0.52987 0.26247 0.11786
 C258 C 0.50472 0.26440 0.09573
 C259 C 0.48976 0.28269 0.15737
 C260 C 0.46420 0.28296 0.13528
 H261 H 0.50314 0.19685 0.15925
 H262 H 0.44795 0.25756 0.09045
 H263 H 0.55618 0.27173 0.11345
 H264 H 0.48785 0.29556 0.17997
 C265 C 0.01731 0.75738 0.65016
 C266 C -0.00270 0.72260 0.64694
 C267 C -0.02665 0.72252 0.62346
 C268 C -0.03032 0.75797 0.60760
 C269 C 0.03081 0.76575 0.61691
 C270 C 0.00563 0.76709 0.59478
 C271 C -0.01010 0.78399 0.65661
 C272 C -0.03582 0.78343 0.63462
 H273 H 0.00634 0.69872 0.65736
 H274 H -0.05095 0.75840 0.58934
 H275 H 0.05683 0.77590 0.61257
 H276 H -0.01268 0.79609 0.67950
 C277 C 0.52748 0.73731 0.34580
 C278 C 0.53706 0.76082 0.37351
 C279 C 0.50995 0.76840 0.39221
 C280 C 0.47601 0.74996 0.38255
 C281 C 0.51092 0.70470 0.36035
 C282 C 0.48421 0.71143 0.37972
 C283 C 0.49805 0.75533 0.32888
 C284 C 0.47101 0.76186 0.34829
 H285 H 0.56184 0.77473 0.37486
 H286 H 0.45393 0.75465 0.39853
 H287 H 0.52103 0.67888 0.35757
 H288 H 0.49777 0.76034 0.30369
 Zr289 Zr 0.02082 -0.03230 1.03734
 O290 O 0.05930 -0.01218 1.06839
 O291 O 0.01670 -0.08448 1.05096
 O292 O 0.00313 -0.03163 1.08507
 O293 O 0.07616 -0.04697 0.97498
 O294 O -0.04778 -0.00331 1.08151
 O295 O 0.06989 -0.05393 1.02826
 O296 O -0.02737 -0.10692 1.02058
 O297 O -0.03282 -0.04208 1.03434
 O298 O 0.01148 -0.05819 0.99469
 O299 O -0.00164 0.01686 1.03884
 O300 O 0.04202 0.00069 1.00167
 Zr301 Zr -0.04575 0.01416 0.95514
 Zr302 Zr -0.05486 0.00699 1.03339
 Zr303 Zr 0.02998 -0.02502 0.95938
 Zr304 Zr -0.04175 -0.06612 0.99087
 O305 O 0.07156 0.00515 0.94004
 O306 O -0.08688 -0.08335 1.01548
 O307 O -0.02326 -0.03509 0.95334
 O308 O -0.06641 -0.01854 0.99096
 O309 O -0.03677 0.04042 0.99771
 O310 O 0.00774 0.02377 0.95839
 C311 C -0.00360 -0.10935 1.04151
 C312 C 0.08678 -0.05738 1.00216
 C313 C -0.02389 -0.01801 1.09729
 O314 O -0.09944 -0.02079 1.04981
 O315 O -0.09868 0.03371 1.01865
 O316 O -0.09231 0.03995 0.96529
 C317 C -0.10851 0.04490 0.99151
 O318 O 0.05978 0.05634 1.03190
 Zr319 Zr 0.01654 0.04822 1.00156
 O320 O -0.04127 0.06611 0.94061
 O321 O -0.05884 0.05348 1.05956
 O322 O 0.00494 0.08811 1.03395
 O323 O 0.05799 0.07001 0.97443
 O324 O -0.00417 0.09032 0.97686
 C325 C -0.02542 0.09214 0.95363
 O326 O -0.08674 -0.00474 0.92621
 O327 O 0.03860 -0.07234 0.93554
 O328 O -0.03038 0.00847 0.90696
 O329 O 0.01910 -0.02205 0.91125
 O330 O -0.02734 -0.10818 0.96198
 O331 O -0.08006 -0.07677 0.95595
 C332 C -0.00492 -0.00819 0.89507
 H333 H 0.02329 -0.08058 0.99301
 H334 H -0.09163 -0.02253 0.98825
 H335 H 0.01665 0.03812 0.94049
 H336 H 0.00384 0.02872 1.05900
 H337 H -0.08925 -0.10895 1.01287
 H338 H -0.11051 -0.00573 1.06553
 H339 H -0.07997 0.05087 1.07268
 H340 H 0.01802 0.10954 1.02731
 H341 H -0.04107 -0.12913 0.96881
 H342 H 0.05969 -0.06875 0.92249
 H343 H 0.08271 -0.00972 0.92424
 H344 H 0.05871 0.09546 0.97824
 H345 H -0.09098 -0.10006 0.95997
 H346 H -0.09318 0.01477 0.91214
 H347 H 0.06630 -0.03173 1.08217
 H348 H 0.06819 0.08092 1.03033
 Zr349 Zr 0.51743 0.46764 0.53418
 O350 O 0.55615 0.48815 0.56478
 O351 O 0.51320 0.41568 0.54859
 O352 O 0.49985 0.46952 0.58204
 O353 O 0.57223 0.45119 0.47173
 O354 O 0.44913 0.49803 0.57786
 O355 O 0.56645 0.44566 0.52518
 O356 O 0.46896 0.39277 0.51867
 O357 O 0.46377 0.45788 0.53143
 O358 O 0.50783 0.44093 0.49196
 O359 O 0.49508 0.51690 0.53485
 O360 O 0.53842 0.49994 0.49788
 Zr361 Zr 0.45051 0.51261 0.45142
 Zr362 Zr 0.44186 0.50696 0.52968
 Zr363 Zr 0.52620 0.47336 0.45604
 Zr364 Zr 0.45460 0.43301 0.48835
 O365 O 0.56811 0.50285 0.43647
 O366 O 0.40953 0.41631 0.51332
 O367 O 0.47292 0.46327 0.45023
 O368 O 0.43001 0.48061 0.48777
 O369 O 0.45968 0.53983 0.49345
 O370 O 0.50404 0.52213 0.45443
 C371 C 0.49284 0.39067 0.53954
 C372 C 0.58305 0.44138 0.49903
 C373 C 0.47293 0.48368 0.59399
 O374 O 0.39754 0.47936 0.54693
 O375 O 0.39778 0.53290 0.51477
 O376 O 0.40418 0.53899 0.46140
 C377 C 0.38796 0.54399 0.48762
 O378 O 0.55616 0.55672 0.52727
 Zr379 Zr 0.51302 0.54759 0.49702
 O380 O 0.45531 0.56389 0.43542
 O381 O 0.43782 0.55409 0.55490
 O382 O 0.50090 0.58812 0.52856
 O383 O 0.55475 0.56859 0.46978
 O384 O 0.49265 0.58906 0.47095
 C385 C 0.47153 0.59019 0.44754
 O386 O 0.40945 0.49285 0.42305
 O387 O 0.53412 0.42563 0.43266
 O388 O 0.46595 0.50684 0.40337
 O389 O 0.51542 0.47630 0.40785
 O390 O 0.46892 0.39041 0.46008
 O391 O 0.41609 0.42167 0.45377
 C392 C 0.49158 0.49039 0.39160
 H393 H 0.51956 0.41847 0.49058
 H394 H 0.40477 0.47659 0.48520
 H395 H 0.51307 0.53611 0.43634
 H396 H 0.50065 0.52921 0.55477
 H397 H 0.40710 0.39067 0.51112
 H398 H 0.38647 0.49475 0.56238
 H399 H 0.41674 0.55177 0.56813
 H400 H 0.51366 0.60954 0.52143
 H401 H 0.45526 0.36957 0.46728
 H402 H 0.55516 0.42884 0.41948
 H403 H 0.57904 0.48772 0.42075
 H404 H 0.55546 0.59414 0.47298
 H405 H 0.40531 0.39840 0.45810
 H406 H 0.40280 0.51205 0.40872
 H407 H 0.56307 0.46883 0.57885
 H408 H 0.56407 0.58145 0.52558
 Zr409 Zr 0.48567 1.02085 0.54253
 O410 O 0.44306 1.00702 0.57183
 O411 O 0.50401 1.06701 0.56377
 O412 O 0.50104 1.00985 0.58947
 O413 O 0.43774 1.05443 0.48077
 O414 O 0.54427 0.97104 0.58441
 O415 O 0.44148 1.05269 0.53448
 O416 O 0.55370 1.08147 0.53699
 O417 O 0.53972 1.01771 0.54059
 O418 O 0.50251 1.05035 0.50352
 O419 O 0.49645 0.96745 0.53945
 O420 O 0.45993 0.99837 0.50342
 Zr421 Zr 0.54371 0.97122 0.45693
 Zr422 Zr 0.55038 0.96502 0.53540
 Zr423 Zr 0.47951 1.02652 0.46452
 Zr424 Zr 0.55590 1.04560 0.50054
 O425 O 0.43411 1.00988 0.44030
 O426 O 0.60433 1.04893 0.52402
 O427 O 0.53330 1.02473 0.45974
 O428 O 0.56891 0.99370 0.49627
 O429 O 0.52721 0.94144 0.49619
 O430 O 0.48978 0.97385 0.45895
 C431 C 0.53165 1.08582 0.55894
 C432 C 0.42682 1.06229 0.50832
 C433 C 0.52439 0.99004 0.60093
 O434 O 0.59860 0.97958 0.55577
 O435 O 0.58898 0.93234 0.51808
 O436 O 0.58799 0.94061 0.46462
 C437 C 0.60116 0.92785 0.49013
 O438 O 0.42917 0.94422 0.52846
 Zr439 Zr 0.47361 0.94619 0.49897
 O440 O 0.53020 0.92155 0.44020
 O441 O 0.54227 0.91504 0.55587
 O442 O 0.47556 0.89998 0.52656
 O443 O 0.42890 0.93936 0.47040
 O444 O 0.48271 0.90436 0.46898
 C445 C 0.50640 0.89929 0.44854
 O446 O 0.58595 0.98451 0.42698
 O447 O 0.48312 1.07835 0.44702
 O448 O 0.52883 0.98379 0.40959
 O449 O 0.49169 1.02796 0.41681
 O450 O 0.55045 1.09498 0.47867
 O451 O 0.59478 1.05224 0.46541
 C452 C 0.50923 1.00813 0.39925
 H453 H 0.49605 1.07502 0.50507
 H454 H 0.59437 0.99321 0.49448
 H455 H 0.47845 0.96406 0.43986
 H456 H 0.48766 0.95452 0.55824
 H457 H 0.61303 1.07346 0.52270
 H458 H 0.60539 0.95993 0.56950
 H459 H 0.56262 0.91083 0.56942
 H460 H 0.45813 0.88309 0.51798
 H461 H 0.56829 1.11103 0.48782
 H462 H 0.46303 1.08170 0.43292
 H463 H 0.42770 1.02929 0.42615
 H464 H 0.42134 0.91450 0.47195
 H465 H 0.60878 1.07372 0.46971
 H466 H 0.58815 0.96520 0.41170
 H467 H 0.44061 1.02619 0.58720
 H468 H 0.41625 0.92184 0.52533
 Zr469 Zr -0.00963 0.52339 1.04125
 O470 O -0.05223 0.50954 1.07055
 O471 O 0.00921 0.56894 1.06304
 O472 O 0.00579 0.51184 1.08806
 O473 O -0.05705 0.55893 0.97995
 O474 O 0.04887 0.47295 1.08258
 O475 O -0.05362 0.55554 1.03364
 O476 O 0.05905 0.58332 1.03646
 O477 O 0.04435 0.51982 1.03911
 O478 O 0.00736 0.55334 1.00255
 O479 O 0.00064 0.46995 1.03770
 O480 O -0.03568 0.50177 1.00197
 Zr481 Zr 0.04755 0.47434 0.95496
 Zr482 Zr 0.05450 0.46712 1.03341
 Zr483 Zr -0.01596 0.53031 0.96331
 Zr484 Zr 0.06066 0.54812 0.99934
 O485 O -0.06199 0.51480 0.93951
 O486 O 0.10930 0.55061 1.02251
 O487 O 0.03777 0.52798 0.95829
 O488 O 0.07309 0.49610 0.99447
 O489 O 0.03097 0.44417 0.99399
 O490 O -0.00630 0.47759 0.95734
 C491 C 0.03709 0.58744 1.05857
 C492 C -0.06802 0.56603 1.00766
 C493 C 0.02916 0.49192 1.09932
 O494 O 0.10301 0.48094 1.05359
 O495 O 0.09264 0.43427 1.01562
 O496 O 0.09152 0.44307 0.96221
 C497 C 0.10468 0.42995 0.98760
 O498 O -0.06662 0.44733 1.02700
 Zr499 Zr -0.02255 0.44950 0.99706
 O500 O 0.03317 0.42527 0.93736
 O501 O 0.04602 0.41706 1.05362
 O502 O -0.02029 0.40270 1.02377
 O503 O -0.06785 0.44362 0.96913
 O504 O -0.01462 0.40848 0.96590
 C505 C 0.00873 0.40348 0.94512
 O506 O 0.08978 0.48789 0.92510
 O507 O -0.01106 0.58216 0.94608
 O508 O 0.03221 0.48707 0.90776
 O509 O -0.00475 0.53135 0.91533
 O510 O 0.05560 0.59797 0.97828
 O511 O 0.09938 0.55492 0.96408
 C512 C 0.01233 0.51126 0.89759
 H513 H 0.00117 0.57807 1.00445
 H514 H 0.09853 0.49536 0.99255
 H515 H -0.01801 0.46817 0.93829
 H516 H -0.00817 0.45688 1.05641
 H517 H 0.11817 0.57510 1.02151
 H518 H 0.10966 0.46112 1.06716
 H519 H 0.06641 0.41255 1.06702
 H520 H -0.03784 0.38602 1.01506
 H521 H 0.07364 0.61366 0.98762
 H522 H -0.03120 0.58614 0.93218
 H523 H -0.06823 0.53445 0.92557
 H524 H -0.07574 0.41884 0.97055
 H525 H 0.11354 0.57626 0.96852
 H526 H 0.09182 0.46881 0.90957
 H527 H -0.05450 0.52855 1.08611
 H528 H -0.07933 0.42478 1.02417
 Zr529 Zr -0.04983 0.48383 0.45487
 O530 O -0.08723 0.49932 0.42159
 O531 O -0.04322 0.43210 0.44247
 O532 O -0.02948 0.48465 0.40793
 O533 O -0.10811 0.46628 0.51626
 O534 O 0.02074 0.51712 0.41270
 O535 O -0.09877 0.45830 0.46363
 O536 O -0.00164 0.41368 0.47650
 O537 O 0.00365 0.47890 0.46063
 O538 O -0.04235 0.45964 0.49869
 O539 O -0.02846 0.53489 0.45241
 O540 O -0.07326 0.51595 0.48839
 Zr541 Zr 0.01175 0.53816 0.53776
 Zr542 Zr 0.02450 0.52987 0.46055
 Zr543 Zr -0.06302 0.49221 0.53204
 Zr544 Zr 0.01071 0.45655 0.50517
 O545 O -0.10768 0.51765 0.54746
 O546 O 0.05718 0.44224 0.48295
 O547 O -0.00997 0.48707 0.54093
 O548 O 0.03444 0.50617 0.50410
 O549 O 0.00442 0.56334 0.49428
 O550 O -0.04178 0.54233 0.53152
 C551 C -0.02334 0.40908 0.45387
 C552 C -0.11709 0.45448 0.48912
 C553 C -0.00175 0.49969 0.39648
 O554 O 0.07029 0.50534 0.44686
 O555 O 0.06755 0.55959 0.47586
 O556 O 0.05890 0.56771 0.52854
 C557 C 0.07672 0.57210 0.50274
 O558 O -0.08663 0.57275 0.45190
 Zr559 Zr -0.04897 0.56577 0.48777
 O560 O 0.00204 0.58819 0.55257
 O561 O 0.02903 0.57575 0.43267
 O562 O -0.03031 0.60772 0.45908
 O563 O -0.09659 0.58069 0.50749
 O564 O -0.03903 0.60775 0.51852
 C565 C -0.01962 0.61050 0.54306
 O566 O 0.05180 0.52418 0.56896
 O567 O -0.06867 0.44505 0.55799
 O568 O -0.00647 0.53268 0.58524
 O569 O -0.05781 0.50214 0.58021
 O570 O -0.00417 0.41409 0.53499
 O571 O 0.04745 0.45030 0.54194
 C572 C -0.03451 0.51813 0.59664
 H573 H -0.05379 0.43630 0.50058
 H574 H 0.05955 0.50431 0.50794
 H575 H -0.05338 0.55537 0.54831
 H576 H -0.03286 0.54574 0.43159
 H577 H 0.05983 0.41696 0.48670
 H578 H 0.08195 0.52078 0.43103
 H579 H 0.05098 0.57460 0.42075
 H580 H -0.04354 0.62847 0.46467
 H581 H 0.01037 0.39422 0.52951
 H582 H -0.09067 0.44609 0.56984
 H583 H -0.11906 0.50238 0.56358
 H584 H -0.09892 0.60597 0.50346
 H585 H 0.05912 0.42794 0.53920
 H586 H 0.05641 0.54447 0.58290
 H587 H -0.09308 0.47860 0.40851
 H588 H -0.09215 0.59772 0.45045
 Zr589 Zr 0.45430 -0.01898 -0.04268
 O590 O 0.41699 -0.00519 -0.07670
 O591 O 0.46244 -0.07088 -0.05404
 O592 O 0.47527 -0.01786 -0.08936
 O593 O 0.39541 -0.03719 0.01807
 O594 O 0.52401 0.01689 -0.08440
 O595 O 0.40575 -0.04573 -0.03430
 O596 O 0.50458 -0.08711 -0.01964
 O597 O 0.50792 -0.02203 -0.03621
 O598 O 0.46182 -0.04231 0.00150
 O599 O 0.47423 0.03271 -0.04527
 O600 O 0.42941 0.01290 -0.00986
 Zr601 Zr 0.51292 0.03816 0.04044
 Zr602 Zr 0.52731 0.02958 -0.03648
 Zr603 Zr 0.43960 -0.01000 0.03417
 Zr604 Zr 0.51493 -0.04361 0.00866
 O605 O 0.39391 0.01421 0.04876
 O606 O 0.56226 -0.05663 -0.01274
 O607 O 0.49267 -0.01346 0.04384
 O608 O 0.53715 0.00659 0.00741
 O609 O 0.50567 0.06277 -0.00332
 O610 O 0.45937 0.04067 0.03344
 C611 C 0.48296 -0.09302 -0.04207
 C612 C 0.38706 -0.04955 -0.00901
 C613 C 0.50233 -0.00150 -0.10071
 O614 O 0.57362 0.00591 -0.05001
 O615 O 0.57010 0.05978 -0.02073
 O616 O 0.55980 0.06816 0.03171
 C617 C 0.57841 0.07232 0.00638
 O618 O 0.41513 0.06913 -0.04714
 Zr619 Zr 0.45224 0.06343 -0.01058
 O620 O 0.50153 0.08802 0.05462
 O621 O 0.53119 0.07570 -0.06406
 O622 O 0.47025 0.10566 -0.03926
 O623 O 0.40368 0.07682 0.00820
 O624 O 0.46013 0.10591 0.02013
 C625 C 0.47913 0.10945 0.04486
 O626 O 0.55263 0.02582 0.07261
 O627 O 0.43494 -0.05700 0.06047
 O628 O 0.49404 0.03271 0.08765
 O629 O 0.44363 0.00067 0.08227
 O630 O 0.50093 -0.08623 0.03864
 O631 O 0.55114 -0.04818 0.04611
 C632 C 0.46620 0.01755 0.09881
 H633 H 0.45100 -0.06592 0.00354
 H634 H 0.56223 0.00537 0.01164
 H635 H 0.44707 0.05349 0.04994
 H636 H 0.46975 0.04327 -0.06621
 H637 H 0.56575 -0.08170 -0.00857
 H638 H 0.58506 0.02155 -0.06581
 H639 H 0.55323 0.07498 -0.07590
 H640 H 0.45639 0.12607 -0.03396
 H641 H 0.51636 -0.10557 0.03368
 H642 H 0.41268 -0.05651 0.07199
 H643 H 0.38273 -0.00118 0.06490
 H644 H 0.40062 0.10198 0.00406
 H645 H 0.56375 -0.07005 0.04371
 H646 H 0.55642 0.04643 0.08635
 H647 H 0.41195 -0.02627 -0.08954
 H648 H 0.40885 0.09388 -0.04876
 Zr649 Zr 0.56159 0.51359 -0.05589
 O650 O 0.59929 0.50084 -0.08968
 O651 O 0.55327 0.56569 -0.06816
 O652 O 0.54080 0.51202 -0.10309
 O653 O 0.62097 0.52735 0.00584
 O654 O 0.49134 0.47830 -0.09820
 O655 O 0.61060 0.53905 -0.04627
 O656 O 0.51437 0.58252 -0.03115
 O657 O 0.50821 0.51840 -0.04916
 O658 O 0.55510 0.53518 -0.01100
 O659 O 0.53996 0.46268 -0.05901
 O660 O 0.58545 0.47978 -0.02332
 Zr661 Zr 0.50077 0.45533 0.02648
 Zr662 Zr 0.48700 0.46748 -0.05016
 Zr663 Zr 0.57593 0.50064 0.02143
 Zr664 Zr 0.50232 0.53848 -0.00375
 O665 O 0.61985 0.47312 0.03572
 O666 O 0.45551 0.55451 -0.02454
 O667 O 0.52308 0.50596 0.03073
 O668 O 0.47805 0.48937 -0.00590
 O669 O 0.50766 0.43272 -0.01785
 O670 O 0.55413 0.45028 0.02007
 C671 C 0.53415 0.58817 -0.05500
 C672 C 0.62940 0.54125 -0.02085
 C673 C 0.51361 0.49584 -0.11459
 O674 O 0.44293 0.49459 -0.06478
 O675 O 0.44225 0.43985 -0.03497
 O676 O 0.45112 0.43117 0.01768
 C677 C 0.43263 0.42825 -0.00775
 O678 O 0.60135 0.42802 -0.05894
 Zr679 Zr 0.56110 0.43023 -0.02496
 O680 O 0.50604 0.40203 0.03446
 O681 O 0.48079 0.42092 -0.07635
 O682 O 0.54644 0.39129 -0.05815
 O683 O 0.60626 0.41228 -0.00251
 O684 O 0.54672 0.38455 -0.00065
 C685 C 0.52430 0.37896 0.02112
 O686 O 0.46279 0.46624 0.06070
 O687 O 0.58332 0.54654 0.04841
 O688 O 0.51916 0.45895 0.07402
 O689 O 0.57026 0.49001 0.06976
 O690 O 0.51836 0.57929 0.02701
 O691 O 0.46666 0.54323 0.03402
 C692 C 0.54646 0.47422 0.08599
 H693 H 0.56654 0.55845 -0.00872
 H694 H 0.45313 0.49204 -0.00172
 H695 H 0.56440 0.43520 0.03640
 H696 H 0.54446 0.45231 -0.07988
 H697 H 0.45320 0.57958 -0.01985
 H698 H 0.43033 0.47949 -0.08013
 H699 H 0.45917 0.42266 -0.08875
 H700 H 0.56094 0.37087 -0.05431
 H701 H 0.50381 0.59953 0.02254
 H702 H 0.60535 0.54435 0.06011
 H703 H 0.63181 0.48746 0.05203
 H704 H 0.60858 0.38747 -0.00823
 H705 H 0.45503 0.56575 0.03214
 H706 H 0.45803 0.44447 0.07296
 H707 H 0.60423 0.52228 -0.10230
 H708 H 0.60961 0.40392 -0.06010
 Zr709 Zr 0.05237 1.02209 0.44896
 O710 O 0.09062 1.01386 0.41438
 O711 O 0.03847 1.07299 0.43656
 O712 O 0.03180 1.01794 0.40162
 O713 O 0.11222 1.03763 0.51020
 O714 O -0.01613 0.98219 0.40721
 O715 O 0.10070 1.04932 0.45830
 O716 O -0.00232 1.08622 0.47311
 O717 O -0.00110 1.02351 0.45670
 O718 O 0.04541 1.04300 0.49410
 O719 O 0.03382 0.97002 0.44579
 O720 O 0.07845 0.98941 0.48106
 Zr721 Zr -0.00400 0.95951 0.53167
 Zr722 Zr -0.01929 0.97169 0.45530
 Zr723 Zr 0.06850 1.00918 0.52615
 Zr724 Zr -0.00748 1.04277 0.50242
 O725 O 0.11432 0.98447 0.53982
 O726 O -0.05703 1.05563 0.48529
 O727 O 0.01555 1.01122 0.53636
 O728 O -0.02895 0.99253 0.49988
 O729 O 0.00366 0.93792 0.48704
 O730 O 0.04955 0.95769 0.52453
 C731 C 0.01594 1.09303 0.44856
 C732 C 0.12004 1.05160 0.48342
 C733 C 0.00537 1.00016 0.39041
 O734 O -0.06451 0.99705 0.44100
 O735 O -0.06253 0.94223 0.47070
 O736 O -0.05299 0.93352 0.52325
 C737 C -0.07159 0.93023 0.49788
 O738 O 0.09752 0.93948 0.44527
 Zr739 Zr 0.05715 0.93859 0.47930
 O740 O 0.00369 0.90641 0.53832
 O741 O -0.02362 0.92477 0.42938
 O742 O 0.04484 0.89946 0.44557
 O743 O 0.10332 0.92288 0.50150
 O744 O 0.04501 0.89174 0.50269
 C745 C 0.02278 0.88456 0.52427
 O746 O -0.04162 0.96782 0.56690
 O747 O 0.07322 1.05522 0.55325
 O748 O 0.01551 0.96271 0.57889
 O749 O 0.06473 0.99683 0.57442
 O750 O 0.00828 1.08537 0.53127
 O751 O -0.04077 1.04468 0.54223
 C752 C 0.04241 0.97889 0.59068
 H753 H 0.05544 1.06696 0.49589
 H754 H -0.05393 0.99390 0.50444
 H755 H 0.06088 0.94292 0.54047
 H756 H 0.03877 0.95991 0.42492
 H757 H -0.06111 1.08010 0.49120
 H758 H -0.07688 0.98133 0.42600
 H759 H -0.04544 0.92539 0.41713
 H760 H 0.06073 0.88005 0.44898
 H761 H -0.00793 1.10439 0.52737
 H762 H 0.09549 1.05430 0.56475
 H763 H 0.12565 0.99932 0.55612
 H764 H 0.10689 0.89834 0.49555
 H765 H -0.05235 1.06730 0.54246
 H766 H -0.04511 0.94558 0.57875
 H767 H 0.09330 1.03586 0.40206
 H768 H 0.10738 0.91606 0.44389
 Zr769 Zr 0.71714 0.27173 0.21154
 O770 O 0.73240 0.31042 0.17807
 O771 O 0.66487 0.26459 0.20142
 O772 O 0.71672 0.25257 0.16412
 O773 O 0.70401 0.32858 0.27332
 O774 O 0.74793 0.20320 0.16779
 O775 O 0.69426 0.32049 0.22065
 O776 O 0.64642 0.22035 0.23428
 O777 O 0.71049 0.21742 0.21655
 O778 O 0.69469 0.26239 0.25590
 O779 O 0.76689 0.25181 0.20798
 O780 O 0.75051 0.29604 0.24485
 Zr781 Zr 0.77239 0.21007 0.29302
 Zr782 Zr 0.76042 0.19801 0.21559
 Zr783 Zr 0.72867 0.28365 0.28893
 Zr784 Zr 0.68987 0.20864 0.26159
 O785 O 0.75755 0.32727 0.30606
 O786 O 0.67379 0.16182 0.23884
 O787 O 0.72225 0.22979 0.29671
 O788 O 0.73848 0.18663 0.25976
 O789 O 0.79487 0.21932 0.24863
 O790 O 0.77841 0.26426 0.28778
 C791 C 0.64165 0.24369 0.21303
 C792 C 0.69170 0.33805 0.24650
 C793 C 0.73147 0.22596 0.15196
 O794 O 0.73391 0.15169 0.20136
 O795 O 0.78880 0.15502 0.23003
 O796 O 0.79790 0.16319 0.28278
 C797 C 0.80131 0.14600 0.25687
 O798 O 0.80199 0.31589 0.21051
 Zr799 Zr 0.79889 0.27332 0.24283
 O800 O 0.82552 0.21723 0.30281
 O801 O 0.80573 0.19531 0.18787
 O802 O 0.83742 0.26297 0.20884
 O803 O 0.81897 0.31756 0.26729
 O804 O 0.84330 0.25707 0.26552
 C805 C 0.84887 0.23566 0.28813
 O806 O 0.75889 0.16924 0.32497
 O807 O 0.68258 0.29088 0.31477
 O808 O 0.76785 0.22653 0.34117
 O809 O 0.73387 0.27386 0.33711
 O810 O 0.64993 0.22210 0.29309
 O811 O 0.68310 0.17010 0.29752
 C812 C 0.74968 0.25095 0.35325
 H813 H 0.67207 0.27326 0.25860
 H814 H 0.73580 0.16118 0.26339
 H815 H 0.79325 0.27451 0.30461
 H816 H 0.77727 0.25732 0.18713
 H817 H 0.64869 0.15824 0.24271
 H818 H 0.74850 0.14076 0.18521
 H819 H 0.80351 0.17368 0.17526
 H820 H 0.85788 0.27828 0.21347
 H821 H 0.62911 0.20761 0.28779
 H822 H 0.68572 0.31270 0.32700
 H823 H 0.74306 0.33812 0.32230
 H824 H 0.84380 0.32024 0.26181
 H825 H 0.66007 0.15841 0.29520
 H826 H 0.77976 0.16464 0.33778
 H827 H 0.71161 0.31584 0.16545
 H828 H 0.82575 0.32623 0.21049
 Zr829 Zr 0.77326 0.73771 0.70844
 O830 O 0.76023 0.69431 0.67971
 O831 O 0.81854 0.75691 0.68643
 O832 O 0.76110 0.75244 0.66159
 O833 O 0.80915 0.69079 0.76999
 O834 O 0.72179 0.79522 0.66689
 O835 O 0.80584 0.69398 0.71629
 O836 O 0.83216 0.80739 0.71257
 O837 O 0.76895 0.79209 0.70990
 O838 O 0.80269 0.75555 0.74681
 O839 O 0.72008 0.74725 0.71234
 O840 O 0.75221 0.71139 0.74814
 Zr841 Zr 0.72392 0.79522 0.79443
 Zr842 Zr 0.71647 0.80153 0.71598
 Zr843 Zr 0.78026 0.73195 0.78640
 Zr844 Zr 0.79675 0.80921 0.74939
 O845 O 0.76530 0.68568 0.81093
 O846 O 0.79845 0.85780 0.72517
 O847 O 0.77724 0.78611 0.79080
 O848 O 0.74502 0.82101 0.75450
 O849 O 0.69420 0.77777 0.75579
 O850 O 0.72782 0.74096 0.79272
 C851 C 0.83688 0.78499 0.69090
 C852 C 0.81645 0.67977 0.74235
 C853 C 0.74071 0.77538 0.65024
 O854 O 0.72947 0.85036 0.69499
 O855 O 0.68341 0.83968 0.73359
 O856 O 0.69234 0.83903 0.78694
 C857 C 0.67907 0.85193 0.76152
 O858 O 0.69894 0.67894 0.72428
 Zr859 Zr 0.70016 0.72389 0.75335
 O860 O 0.67525 0.78055 0.81219
 O861 O 0.66677 0.79217 0.69644
 O862 O 0.65388 0.72477 0.72653
 O863 O 0.69466 0.67874 0.78228
 O864 O 0.65891 0.73221 0.78406
 C865 C 0.65362 0.75602 0.80443
 O866 O 0.73688 0.83808 0.82383
 O867 O 0.83173 0.73721 0.80321
 O868 O 0.73683 0.78018 0.84168
 O869 O 0.78171 0.74411 0.83408
 O870 O 0.84609 0.80520 0.77068
 O871 O 0.80289 0.84893 0.78386
 C872 C 0.76140 0.76086 0.85183
 H873 H 0.82731 0.74964 0.74493
 H874 H 0.74394 0.84665 0.75610
 H875 H 0.71861 0.72926 0.81198
 H876 H 0.70718 0.73798 0.69386
 H877 H 0.82261 0.86713 0.72584
 H878 H 0.70964 0.85666 0.68152
 H879 H 0.66193 0.81253 0.68282
 H880 H 0.63761 0.70690 0.73555
 H881 H 0.86148 0.82349 0.76111
 H882 H 0.83580 0.71709 0.81738
 H883 H 0.78486 0.67977 0.82488
 H884 H 0.67015 0.67057 0.78109
 H885 H 0.82366 0.86365 0.77889
 H886 H 0.71791 0.84000 0.83942
 H887 H 0.77911 0.69221 0.66406
 H888 H 0.67691 0.66561 0.72759
 Zr889 Zr 0.23007 0.20011 0.79515
 O890 O 0.24287 0.16188 0.82903
 O891 O 0.17854 0.20853 0.80618
 O892 O 0.23086 0.22066 0.84202
 O893 O 0.21212 0.14183 0.73393
 O894 O 0.26546 0.26977 0.83740
 O895 O 0.20324 0.15162 0.78636
 O896 O 0.16327 0.25146 0.77173
 O897 O 0.22757 0.25428 0.78898
 O898 O 0.20767 0.20858 0.75084
 O899 O 0.28146 0.21952 0.79816
 O900 O 0.26179 0.17512 0.76229
 Zr901 Zr 0.28846 0.25989 0.71262
 Zr902 Zr 0.27891 0.27314 0.78965
 Zr903 Zr 0.23983 0.18630 0.71819
 Zr904 Zr 0.20696 0.26224 0.74399
 O905 O 0.26361 0.14021 0.70342
 O906 O 0.19413 0.30964 0.76586
 O907 O 0.23711 0.24001 0.70884
 O908 O 0.25695 0.28410 0.74569
 O909 O 0.31206 0.25153 0.75653
 O910 O 0.29025 0.20572 0.71930
 C911 C 0.15689 0.22936 0.79396
 C912 C 0.19948 0.13321 0.76095
 C913 C 0.24695 0.24784 0.85354
 O914 O 0.25603 0.32017 0.80297
 O915 O 0.31007 0.31555 0.77452
 O916 O 0.31879 0.30673 0.72194
 C917 C 0.32308 0.32459 0.74771
 O918 O 0.31681 0.15945 0.79970
 Zr919 Zr 0.31209 0.19755 0.76343
 O920 O 0.33789 0.24788 0.69869
 O921 O 0.32405 0.27596 0.81788
 O922 O 0.35372 0.21478 0.79255
 O923 O 0.32508 0.14876 0.74428
 O924 O 0.35476 0.20561 0.73320
 C925 C 0.35878 0.22501 0.70857
 O926 O 0.27720 0.30065 0.68073
 O927 O 0.19353 0.18239 0.69161
 O928 O 0.28325 0.24161 0.66519
 O929 O 0.25093 0.19100 0.67013
 O930 O 0.16515 0.24909 0.71346
 O931 O 0.20329 0.29962 0.70698
 C932 C 0.26798 0.21387 0.65377
 H933 H 0.18420 0.19790 0.74853
 H934 H 0.25613 0.30950 0.74169
 H935 H 0.30303 0.19342 0.70276
 H936 H 0.29157 0.21464 0.81914
 H937 H 0.16934 0.31339 0.76165
 H938 H 0.27146 0.33136 0.81889
 H939 H 0.32356 0.29814 0.82971
 H940 H 0.37386 0.20060 0.78734
 H941 H 0.14598 0.26466 0.71845
 H942 H 0.19394 0.16007 0.68000
 H943 H 0.24840 0.12928 0.68719
 H944 H 0.34994 0.14532 0.74853
 H945 H 0.18167 0.31244 0.70939
 H946 H 0.29786 0.30436 0.66712
 H947 H 0.22176 0.15689 0.84176
 H948 H 0.34125 0.15275 0.80137
 Zr949 Zr 0.26510 0.81193 0.30460
 O950 O 0.25186 0.84944 0.33852
 O951 O 0.31695 0.80452 0.31642
 O952 O 0.26364 0.79059 0.35183
 O953 O 0.27841 0.87256 0.24305
 O954 O 0.23122 0.74013 0.34688
 O955 O 0.28984 0.86158 0.29513
 O956 O 0.33429 0.76617 0.27904
 O957 O 0.27082 0.75831 0.29764
 O958 O 0.28648 0.80628 0.25947
 O959 O 0.21497 0.78936 0.30796
 O960 O 0.23129 0.83599 0.27231
 Zr961 Zr 0.20822 0.75091 0.22227
 Zr962 Zr 0.22062 0.73619 0.29884
 Zr963 Zr 0.25196 0.82726 0.22731
 Zr964 Zr 0.29068 0.75326 0.25201
 O965 O 0.22405 0.87147 0.21386
 O966 O 0.30736 0.70623 0.27269
 O967 O 0.25810 0.77417 0.21778
 O968 O 0.24232 0.72805 0.25434
 O969 O 0.18595 0.75703 0.26685
 O970 O 0.20231 0.80451 0.22896
 C971 C 0.33963 0.78606 0.30286
 C972 C 0.29210 0.88076 0.26977
 C973 C 0.24799 0.76281 0.36333
 O974 O 0.24812 0.69193 0.31293
 O975 O 0.19346 0.69114 0.28355
 O976 O 0.18464 0.70062 0.23099
 C977 C 0.18182 0.68175 0.25639
 O978 O 0.18043 0.85136 0.30794
 Zr979 Zr 0.18254 0.81071 0.27422
 O980 O 0.15513 0.75503 0.21510
 O981 O 0.17455 0.72897 0.32532
 O982 O 0.14436 0.79589 0.30810
 O983 O 0.16334 0.85558 0.25156
 O984 O 0.13720 0.79463 0.25117
 C985 C 0.13190 0.77214 0.22942
 O986 O 0.21986 0.71323 0.18788
 O987 O 0.29714 0.83556 0.19977
 O988 O 0.21121 0.77013 0.17475
 O989 O 0.24095 0.82223 0.17898
 O990 O 0.33087 0.77020 0.22097
 O991 O 0.29591 0.71768 0.21418
 C992 C 0.22564 0.79814 0.16274
 H993 H 0.30941 0.81813 0.25701
 H994 H 0.24525 0.70301 0.25001
 H995 H 0.18703 0.81471 0.21282
 H996 H 0.20464 0.79353 0.32890
 H997 H 0.33230 0.70444 0.26797
 H998 H 0.23330 0.67880 0.32826
 H999 H 0.17658 0.70704 0.33759
 H1000 H 0.12406 0.81052 0.30455
 H1001 H 0.35117 0.75578 0.22528
 H1002 H 0.29465 0.85794 0.18830
 H1003 H 0.23805 0.88401 0.19755
 H1004 H 0.13874 0.85729 0.25764
 H1005 H 0.31835 0.70616 0.21601
 H1006 H 0.19836 0.70811 0.17571
 H1007 H 0.27302 0.85459 0.35110
 H1008 H 0.15659 0.85986 0.30907
 Zr1009 Zr 0.21815 0.76790 0.71612
 O1010 O 0.23755 0.80655 0.68435
 O1011 O 0.16625 0.76346 0.70333
 O1012 O 0.21922 0.74953 0.66848
 O1013 O 0.20324 0.82426 0.77783
 O1014 O 0.24766 0.69851 0.67295
 O1015 O 0.19622 0.81725 0.72469
 O1016 O 0.14413 0.71965 0.73487
 O1017 O 0.20860 0.71384 0.72008
 O1018 O 0.19283 0.75892 0.75923
 O1019 O 0.26701 0.74552 0.71469
 O1020 O 0.25093 0.78990 0.75122
 Zr1021 Zr 0.26499 0.70208 0.79909
 Zr1022 Zr 0.25741 0.69194 0.72110
 Zr1023 Zr 0.22574 0.77821 0.79397
 Zr1024 Zr 0.18509 0.70532 0.76399
 O1025 O 0.25551 0.82073 0.81205
 O1026 O 0.16801 0.65967 0.73992
 O1027 O 0.21602 0.72456 0.80096
 O1028 O 0.23240 0.68070 0.76392
 O1029 O 0.29076 0.71072 0.75616
 O1030 O 0.27422 0.75603 0.79488
 C1031 C 0.14155 0.74347 0.71370
 C1032 C 0.19258 0.83446 0.75060
 C1033 C 0.23322 0.72230 0.65667
 O1034 O 0.22971 0.64696 0.70530
 O1035 O 0.28354 0.64779 0.73619
 O1036 O 0.29085 0.65515 0.78927
 C1037 C 0.29519 0.63835 0.76323
 O1038 O 0.30603 0.80763 0.72025
 Zr1039 Zr 0.29822 0.76446 0.75140
 O1040 O 0.31650 0.70717 0.81320
 O1041 O 0.30365 0.68749 0.69498
 O1042 O 0.33772 0.75235 0.71893
 O1043 O 0.31965 0.80683 0.77758
 O1044 O 0.34018 0.74426 0.77621
 C1045 C 0.34218 0.72320 0.79980
 O1046 O 0.24660 0.66107 0.82884
 O1047 O 0.17899 0.78680 0.81833
 O1048 O 0.25971 0.71832 0.84707
 O1049 O 0.22932 0.76810 0.84229
 O1050 O 0.14372 0.71993 0.79340
 O1051 O 0.17483 0.66679 0.79931
 C1052 C 0.24334 0.74420 0.85873
 H1053 H 0.17059 0.77073 0.76107
 H1054 H 0.22853 0.65530 0.76705
 H1055 H 0.28850 0.76537 0.81249
 H1056 H 0.27876 0.75084 0.69440
 H1057 H 0.14264 0.65724 0.74275
 H1058 H 0.24462 0.63557 0.68969
 H1059 H 0.30110 0.66605 0.68214
 H1060 H 0.35895 0.76571 0.72516
 H1061 H 0.12288 0.70601 0.78705
 H1062 H 0.18247 0.80832 0.83092
 H1063 H 0.24085 0.83210 0.82785
 H1064 H 0.34489 0.80763 0.77361
 H1065 H 0.15176 0.65569 0.79560
 H1066 H 0.26609 0.65483 0.84278
 H1067 H 0.21803 0.81323 0.67063
 H1068 H 0.33041 0.81613 0.72141
 Zr1069 Zr 0.27603 0.24110 0.20917
 O1070 O 0.26348 0.19779 0.18017
 O1071 O 0.32039 0.26148 0.18663
 O1072 O 0.26321 0.25599 0.16256
 O1073 O 0.31472 0.19521 0.26998
 O1074 O 0.22304 0.29785 0.16839
 O1075 O 0.30913 0.19769 0.21641
 O1076 O 0.33309 0.31245 0.21235
 O1077 O 0.27027 0.29526 0.21091
 O1078 O 0.30590 0.25964 0.24701
 O1079 O 0.22266 0.24916 0.21374
 O1080 O 0.25659 0.21420 0.24913
 Zr1081 Zr 0.22680 0.29681 0.29604
 Zr1082 Zr 0.21763 0.30322 0.21770
 Zr1083 Zr 0.28498 0.23543 0.28696
 Zr1084 Zr 0.29844 0.31307 0.24991
 O1085 O 0.27244 0.18842 0.31140
 O1086 O 0.29826 0.36176 0.22592
 O1087 O 0.28039 0.28938 0.29165
 O1088 O 0.24641 0.32326 0.25585
 O1089 O 0.19656 0.27876 0.25790
 O1090 O 0.23245 0.24282 0.29384
 C1091 C 0.33798 0.29010 0.19067
 C1092 C 0.32088 0.18387 0.24221
 C1093 C 0.24247 0.27873 0.15147
 O1094 O 0.22873 0.35259 0.19690
 O1095 O 0.18401 0.34048 0.23588
 O1096 O 0.19345 0.33948 0.28916
 C1097 C 0.17975 0.35243 0.26393
 O1098 O 0.20283 0.18103 0.22490
 Zr1099 Zr 0.20427 0.22514 0.25501
 O1100 O 0.18022 0.27905 0.31617
 O1101 O 0.16800 0.29242 0.19856
 O1102 O 0.15679 0.22627 0.23005
 O1103 O 0.20138 0.17876 0.28252
 O1104 O 0.16480 0.23033 0.28816
 C1105 C 0.15989 0.25298 0.30966
 O1106 O 0.23905 0.34026 0.32497
 O1107 O 0.33651 0.24311 0.30296
 O1108 O 0.24092 0.28222 0.34300
 O1109 O 0.28605 0.24656 0.33497
 O1110 O 0.34842 0.31044 0.27019
 O1111 O 0.30413 0.35277 0.28446
 C1112 C 0.26556 0.26288 0.35292
 H1113 H 0.33064 0.25439 0.24466
 H1114 H 0.24462 0.34882 0.25763
 H1115 H 0.22423 0.23049 0.31314
 H1116 H 0.20970 0.23970 0.19537
 H1117 H 0.32218 0.37178 0.22622
 H1118 H 0.20857 0.35828 0.18359
 H1119 H 0.16240 0.31270 0.18512
 H1120 H 0.14112 0.20801 0.23930
 H1121 H 0.36304 0.32923 0.26041
 H1122 H 0.34177 0.22309 0.31686
 H1123 H 0.29254 0.18314 0.32491
 H1124 H 0.17719 0.16954 0.28162
 H1125 H 0.32445 0.36804 0.27924
 H1126 H 0.22050 0.34153 0.34105
 H1127 H 0.28223 0.19618 0.16432
 H1128 H 0.18062 0.16787 0.22776
 Zr1129 Zr 0.73069 0.70427 0.29277
 O1130 O 0.74331 0.66656 0.32721
 O1131 O 0.67940 0.71360 0.30380
 O1132 O 0.73160 0.72569 0.33923
 O1133 O 0.71226 0.64475 0.23272
 O1134 O 0.76704 0.77415 0.33391
 O1135 O 0.70310 0.65589 0.28486
 O1136 O 0.66427 0.75593 0.26869
 O1137 O 0.72865 0.75835 0.28563
 O1138 O 0.70828 0.71188 0.24836
 O1139 O 0.78221 0.72350 0.29549
 O1140 O 0.76222 0.67826 0.26048
 Zr1141 Zr 0.78949 0.76161 0.20925
 Zr1142 Zr 0.78013 0.77701 0.28597
 Zr1143 Zr 0.74033 0.68859 0.21619
 Zr1144 Zr 0.70798 0.76539 0.24053
 O1145 O 0.76369 0.64189 0.20245
 O1146 O 0.69565 0.81356 0.26125
 O1147 O 0.73798 0.74211 0.20583
 O1148 O 0.75812 0.78687 0.24178
 O1149 O 0.81311 0.75429 0.25331
 O1150 O 0.79089 0.70762 0.21701
 C1151 C 0.65788 0.73444 0.29141
 C1152 C 0.69931 0.63690 0.25978
 C1153 C 0.74824 0.75271 0.35038
 O1154 O 0.75717 0.82413 0.29892
 O1155 O 0.81073 0.81970 0.26987
 O1156 O 0.81960 0.80874 0.21761
 C1157 C 0.82354 0.82774 0.24272
 O1158 O 0.81690 0.66309 0.29829
 Zr1159 Zr 0.81266 0.70043 0.26131
 O1160 O 0.83889 0.74884 0.19556
 O1161 O 0.82568 0.78051 0.31358
 O1162 O 0.85435 0.71797 0.29020
 O1163 O 0.82548 0.65112 0.24314
 O1164 O 0.85542 0.70743 0.23106
 C1165 C 0.85965 0.72611 0.20602
 O1166 O 0.77868 0.80152 0.17633
 O1167 O 0.69406 0.68454 0.18957
 O1168 O 0.78415 0.74219 0.16224
 O1169 O 0.75164 0.69183 0.16811
 O1170 O 0.66591 0.75174 0.21046
 O1171 O 0.70455 0.80167 0.20261
 C1172 C 0.76884 0.71421 0.15135
 H1173 H 0.68470 0.70140 0.24630
 H1174 H 0.75735 0.81216 0.23721
 H1175 H 0.80361 0.69482 0.20077
 H1176 H 0.79233 0.71897 0.31653
 H1177 H 0.67091 0.81747 0.25692
 H1178 H 0.77263 0.83553 0.31470
 H1179 H 0.82511 0.80278 0.32526
 H1180 H 0.87438 0.70350 0.28532
 H1181 H 0.64693 0.76766 0.21511
 H1182 H 0.69423 0.66191 0.17845
 H1183 H 0.74840 0.63066 0.18643
 H1184 H 0.85025 0.64758 0.24768
 H1185 H 0.68307 0.81478 0.20473
 H1186 H 0.79943 0.80471 0.16274
 H1187 H 0.72221 0.66196 0.34004
 H1188 H 0.84128 0.65633 0.30029
 Zr1189 Zr 0.76685 0.30854 0.80170
 O1190 O 0.75468 0.34618 0.83585
 O1191 O 0.81823 0.29925 0.81386
 O1192 O 0.76440 0.28673 0.84887
 O1193 O 0.78152 0.36941 0.74053
 O1194 O 0.73091 0.23707 0.84335
 O1195 O 0.79264 0.35780 0.79256
 O1196 O 0.83483 0.26068 0.77636
 O1197 O 0.77138 0.25487 0.79430
 O1198 O 0.78832 0.30277 0.75658
 O1199 O 0.71623 0.28719 0.80472
 O1200 O 0.73379 0.33359 0.76934
 Zr1201 Zr 0.70895 0.24939 0.71872
 Zr1202 Zr 0.72076 0.23397 0.79524
 Zr1203 Zr 0.75440 0.32472 0.72433
 Zr1204 Zr 0.79129 0.24971 0.74869
 O1205 O 0.72769 0.36973 0.71095
 O1206 O 0.80670 0.20179 0.76858
 O1207 O 0.75934 0.27156 0.71446
 O1208 O 0.74242 0.22559 0.75077
 O1209 O 0.68670 0.25577 0.76328
 O1210 O 0.70427 0.30310 0.72572
 C1211 C 0.84039 0.27996 0.80054
 C1212 C 0.79520 0.37720 0.76735
 C1213 C 0.74806 0.25916 0.86009
 O1214 O 0.74734 0.18911 0.80929
 O1215 O 0.69302 0.18960 0.77967
 O1216 O 0.68442 0.19939 0.72714
 C1217 C 0.68134 0.18047 0.75251
 O1218 O 0.68327 0.35005 0.80484
 Zr1219 Zr 0.68450 0.30951 0.77095
 O1220 O 0.65602 0.25470 0.71156
 O1221 O 0.67430 0.22759 0.82130
 O1222 O 0.64585 0.29544 0.80462
 O1223 O 0.66650 0.35500 0.74844
 O1224 O 0.63893 0.29463 0.74770
 C1225 C 0.63319 0.27228 0.72592
 O1226 O 0.71986 0.21175 0.68407
 O1227 O 0.79990 0.33207 0.69706
 O1228 O 0.71227 0.26899 0.67133
 O1229 O 0.74320 0.32039 0.67588
 O1230 O 0.83215 0.26636 0.71825
 O1231 O 0.79583 0.21465 0.71037
 C1232 C 0.72721 0.29684 0.65949
 H1233 H 0.81153 0.31408 0.75440
 H1234 H 0.74487 0.20052 0.74630
 H1235 H 0.68928 0.31379 0.70963
 H1236 H 0.70588 0.29143 0.82564
 H1237 H 0.83156 0.19939 0.76380
 H1238 H 0.73213 0.17603 0.82435
 H1239 H 0.67569 0.20551 0.83345
 H1240 H 0.62597 0.31065 0.80109
 H1241 H 0.85204 0.25138 0.72248
 H1242 H 0.79799 0.35458 0.68570
 H1243 H 0.74208 0.38205 0.69479
 H1244 H 0.64193 0.35726 0.75442
 H1245 H 0.81817 0.20288 0.71186
 H1246 H 0.69827 0.20716 0.67188
 H1247 H 0.77590 0.35048 0.84857
 H1248 H 0.65966 0.35916 0.80593
 N1249 N 0.47465 1.05003 0.32963
 C1250 C 0.46768 1.02254 0.31056
 N1251 N 0.48085 0.99110 0.31841
 N1252 N 0.49804 0.98678 0.34544
 C1253 C 0.50317 1.01397 0.36538
 N1254 N 0.49196 1.04577 0.35643
 N1255 N -0.02498 0.55093 0.82790
 C1256 C -0.03121 0.52304 0.80910
 N1257 N -0.01697 0.49218 0.81718
 N1258 N 0.00067 0.48879 0.84411
 C1259 C 0.00516 0.51637 0.86374
 N1260 N -0.00726 0.54761 0.85460
 N1261 N 0.01525 0.01168 0.81221
 C1262 C 0.02988 -0.01861 0.80326
 N1263 N 0.02652 -0.04654 0.82287
 N1264 N 0.01150 -0.04376 0.85092
 C1265 C -0.00104 -0.01302 0.86076
 N1266 N 0.00025 0.01453 0.84048
 N1267 N 0.51402 0.51350 0.31008
 C1268 C 0.52890 0.48361 0.30051
 N1269 N 0.52486 0.45484 0.31903
 N1270 N 0.50896 0.45643 0.34677
 C1271 C 0.49613 0.48675 0.35730
 N1272 N 0.49811 0.51514 0.33801
 N1273 N 0.53074 0.47279 0.17248
 C1274 C 0.56240 0.48291 0.18395
 N1275 N 0.58859 0.48858 0.16313
 N1276 N 0.58333 0.48493 0.13223
 C1277 C 0.55179 0.47494 0.12067
 N1278 N 0.52549 0.46891 0.14145
 N1279 N 0.02999 0.97573 0.67758
 C1280 C 0.06287 0.98151 0.68838
 N1281 N 0.08870 0.98493 0.66680
 N1282 N 0.08196 0.98333 0.63596
 C1283 C 0.04920 0.97754 0.62516
 N1284 N 0.02327 0.97369 0.64664
 N1285 N -0.08370 0.51274 0.67087
 C1286 C -0.05920 0.51946 0.69301
 N1287 N -0.02612 0.52666 0.68334
 N1288 N -0.01784 0.52693 0.65272
 C1289 C -0.04242 0.51981 0.63064
 N1290 N -0.07540 0.51272 0.64039
 N1291 N 0.41589 0.01282 0.17236
 C1292 C 0.44013 0.01960 0.19471
 N1293 N 0.47333 0.02672 0.18539
 N1294 N 0.48201 0.02682 0.15489
 C1295 C 0.45772 0.01959 0.13260
 N1296 N 0.42459 0.01260 0.14198
 N1297 N 0.34509 0.39646 -0.03167
 C1298 C 0.33264 0.38102 -0.00489
 N1299 N 0.35333 0.38147 0.02121
 N1300 N 0.38495 0.39647 0.02062
 C1301 C 0.39746 0.41150 -0.00629
 N1302 N 0.37674 0.41136 -0.03231
 N1303 N -0.15859 0.89894 0.47289
 C1304 C -0.17084 0.88173 0.49883
 N1305 N -0.15021 0.88083 0.52497
 N1306 N -0.11875 0.89626 0.52516
 C1307 C -0.10643 0.91297 0.49897
 N1308 N -0.12715 0.91418 0.47302
 N1309 N -0.18743 0.08707 1.01883
 C1310 C -0.19579 0.10733 0.99373
 N1311 N -0.17610 0.10565 0.96716
 N1312 N -0.14890 0.08516 0.96594
 C1313 C -0.14023 0.06546 0.99130
 N1314 N -0.16014 0.06677 1.01768
 N1315 N 0.30906 0.58518 0.51579
 C1316 C 0.30203 0.60784 0.49208
 N1317 N 0.32229 0.60779 0.46578
 N1318 N 0.34889 0.58661 0.46358
 C1319 C 0.35632 0.56460 0.48768
 N1320 N 0.33575 0.56423 0.51370
 N1321 N 0.16341 0.60193 0.47583
 C1322 C 0.17401 0.62523 0.49800
 N1323 N 0.15231 0.63134 0.52261
 N1324 N 0.12131 0.61475 0.52476
 C1325 C 0.11086 0.59139 0.50232
 N1326 N 0.13254 0.58578 0.47776
 N1327 N 0.67220 0.08613 -0.00349
 C1328 C 0.67743 0.12108 0.00012
 N1329 N 0.64955 0.14022 0.00780
 N1330 N 0.61808 0.12493 0.01138
 C1331 C 0.61325 0.08983 0.00772
 N1332 N 0.64097 0.07100 -0.00015
 N1333 N 0.67062 0.86665 0.50808
 C1334 C 0.69713 0.87932 0.48988
 N1335 N 0.69125 0.90684 0.47042
 N1336 N 0.66023 0.92115 0.46935
 C1337 C 0.63387 0.90881 0.48794
 N1338 N 0.63982 0.88139 0.50747
 N1339 N 0.19477 0.40826 0.96834
 C1340 C 0.20025 0.38066 0.98782
 N1341 N 0.17344 0.36812 1.00572
 N1342 N 0.14276 0.38306 1.00484
 C1343 C 0.13719 0.41057 0.98532
 N1344 N 0.16385 0.42281 0.96703
 N1345 N -0.00676 0.31812 0.43824
 C1346 C -0.02430 0.31302 0.41087
 N1347 N -0.04350 0.33901 0.39903
 N1348 N -0.04428 0.36946 0.41352
 C1349 C -0.02555 0.37493 0.44010
 N1350 N -0.00740 0.34865 0.45267
 N1351 N 0.50211 -0.18404 -0.05451
 C1352 C 0.47981 -0.19281 -0.07804
 N1353 N 0.45807 -0.16862 -0.08926
 N1354 N 0.45842 -0.13679 -0.07724
 C1355 C 0.48112 -0.12801 -0.05411
 N1356 N 0.50246 -0.15224 -0.04247
 N1357 N 0.03341 -0.18043 1.08588
 C1358 C 0.00776 -0.20520 1.08394
 N1359 N -0.02045 -0.19905 1.06603
 N1360 N -0.02360 -0.16860 1.05158
 C1361 C 0.00116 -0.14326 1.05503
 N1362 N 0.03013 -0.14983 1.07166
 N1363 N 0.53062 0.31976 0.58358
 C1364 C 0.50476 0.29514 0.58246
 N1365 N 0.47604 0.30134 0.56525
 N1366 N 0.47266 0.33170 0.55069
 C1367 C 0.49768 0.35692 0.55337
 N1368 N 0.52711 0.35027 0.56927
 N1369 N 0.52104 1.14965 0.62060
 C1370 C 0.54051 1.17693 0.60922
 N1371 N 0.56043 1.17237 0.58341
 N1372 N 0.55936 1.14204 0.56854
 C1373 C 0.53797 1.11568 0.57876
 N1374 N 0.51966 1.11947 0.60557
 N1375 N 0.02633 0.64923 1.12176
 C1376 C 0.04504 0.67717 1.11070
 N1377 N 0.06506 0.67352 1.08479
 N1378 N 0.06455 0.64354 1.06935
 C1379 C 0.04365 0.61661 1.07914
 N1380 N 0.02551 0.61939 1.10618
 N1381 N 0.52030 0.68089 -0.05853
 C1382 C 0.51879 0.68677 -0.09003
 N1383 N 0.52634 0.66060 -0.11010
 N1384 N 0.53374 0.62921 -0.09901
 C1385 C 0.53382 0.62319 -0.06748
 N1386 N 0.52737 0.64956 -0.04746
 N1387 N -0.02116 1.17758 0.43348
 C1388 C -0.00913 1.18542 0.40423
 N1389 N 0.01209 1.16300 0.38971
 N1390 N 0.02086 1.13357 0.40390
 C1391 C 0.00890 1.12591 0.43324
 N1392 N -0.01250 1.14819 0.44760
 N1393 N 0.80148 0.72343 0.92108
 C1394 C 0.77386 0.71638 0.93990
 N1395 N 0.74304 0.73040 0.93212
 N1396 N 0.73940 0.74852 0.90536
 C1397 C 0.76670 0.75376 0.88563
 N1398 N 0.79790 0.74167 0.89455
 N1399 N 0.30284 0.22290 0.42250
 C1400 C 0.27492 0.21806 0.44145
 N1401 N 0.24517 0.23406 0.43348
 N1402 N 0.24276 0.25204 0.40649
 C1403 C 0.27026 0.25509 0.38669
 N1404 N 0.30050 0.24097 0.39574
 N1405 N 0.76723 0.27032 0.43692
 C1406 C 0.73624 0.28316 0.44597
 N1407 N 0.70910 0.27907 0.42594
 N1408 N 0.71318 0.26511 0.39757
 C1409 C 0.74450 0.25443 0.38770
 N1410 N 0.77138 0.25639 0.40832
 N1411 N 0.20641 0.77693 0.93115
 C1412 C 0.23444 0.78084 0.95017
 N1413 N 0.26443 0.76622 0.94083
 N1414 N 0.26684 0.75066 0.91277
 C1415 C 0.23916 0.74879 0.89307
 N1416 N 0.20877 0.76138 0.90330
 N1417 N 0.22666 0.78324 0.07610
 C1418 C 0.23272 0.81614 0.06457
 N1419 N 0.23485 0.84275 0.08553
 N1420 N 0.23172 0.83679 0.11646
 C1421 C 0.22569 0.80402 0.12800
 N1422 N 0.22318 0.77728 0.10714
 N1423 N 0.72761 0.28310 0.57259
 C1424 C 0.73244 0.31628 0.56133
 N1425 N 0.73410 0.34264 0.58258
 N1426 N 0.73169 0.33622 0.61350
 C1427 C 0.72681 0.30318 0.62476
 N1428 N 0.72477 0.27667 0.60362
 N1429 N 0.26167 0.16457 0.57967
 C1430 C 0.26948 0.18909 0.55748
 N1431 N 0.27784 0.22214 0.56709
 N1432 N 0.27815 0.23041 0.59768
 C1433 C 0.26991 0.20583 0.61981
 N1434 N 0.26169 0.17286 0.61013
 N1435 N 0.76343 0.66322 0.07815
 C1436 C 0.77039 0.68754 0.05557
 N1437 N 0.77800 0.72093 0.06465
 N1438 N 0.77835 0.72976 0.09509
 C1439 C 0.77090 0.70542 0.11760
 N1440 N 0.76346 0.67208 0.10849
 N1441 N 0.13391 0.60275 0.22796
 C1442 C 0.13329 0.58178 0.25409
 N1443 N 0.14913 0.59386 0.28065
 N1444 N 0.16456 0.62546 0.28107
 C1445 C 0.16487 0.64649 0.25504
 N1446 N 0.14945 0.63433 0.22833
 N1447 N 0.63178 0.10183 0.72547
 C1448 C 0.63223 0.08088 0.75162
 N1449 N 0.64936 0.09283 0.77753
 N1450 N 0.66496 0.12431 0.77739
 C1451 C 0.66421 0.14535 0.75141
 N1452 N 0.64753 0.13333 0.72527
 N1453 N 0.85968 0.07646 0.28145
 C1454 C 0.85987 0.05578 0.25543
 N1455 N 0.83966 0.06437 0.23054
 N1456 N 0.82072 0.09275 0.23139
 C1457 C 0.82094 0.11363 0.25721
 N1458 N 0.84058 0.10476 0.28238
 N1459 N 0.35888 0.57238 0.78472
 C1460 C 0.35841 0.55162 0.75872
 N1461 N 0.33550 0.55843 0.73539
 N1462 N 0.31477 0.58537 0.73752
 C1463 C 0.31563 0.60644 0.76322
 N1464 N 0.33793 0.59924 0.78696
 N1465 N 0.38166 0.40108 0.72740
 C1466 C 0.37604 0.42253 0.75235
 N1467 N 0.35347 0.41139 0.77496
 N1468 N 0.33752 0.38024 0.77309
 C1469 C 0.34262 0.35881 0.74821
 N1470 N 0.36527 0.36980 0.72533
 N1471 N 0.89115 0.89927 0.24142
 C1472 C 0.87212 0.92750 0.24860
 N1473 N 0.83736 0.92239 0.25171
 N1474 N 0.82231 0.89093 0.24839
 C1475 C 0.84104 0.86285 0.24106
 N1476 N 0.87595 0.86758 0.23789
 N1477 N 0.65703 0.94246 0.78060
 C1478 C 0.62970 0.94797 0.76118
 N1479 N 0.61740 0.92100 0.74334
 N1480 N 0.63234 0.89011 0.74424
 C1481 C 0.65961 0.88454 0.76370
 N1482 N 0.67155 0.91135 0.78195
 N1483 N 0.11797 0.42137 0.24567
 C1484 C 0.13040 0.44852 0.26323
 N1485 N 0.15770 0.44307 0.28271
 N1486 N 0.17210 0.41190 0.28432
 C1487 C 0.16003 0.38491 0.26634
 N1488 N 0.13277 0.39042 0.24684
 N1489 N 0.08090 0.20438 0.84027
 C1490 C 0.05704 0.22585 0.82811
 N1491 N 0.06613 0.24774 0.80410
 N1492 N 0.09797 0.24815 0.79264
 C1493 C 0.12190 0.22725 0.80533
 N1494 N 0.11278 0.20476 0.82881
 N1495 N 0.58238 0.70937 0.33826
 C1496 C 0.55848 0.73116 0.32673
 N1497 N 0.56738 0.75369 0.30314
 N1498 N 0.59912 0.75424 0.29135
 C1499 C 0.62307 0.73284 0.30331
 N1500 N 0.61411 0.70992 0.32650
 N1501 N 0.56794 0.28170 0.17461
 C1502 C 0.54500 0.25434 0.17414
 N1503 N 0.55291 0.22432 0.18922
 N1504 N 0.58343 0.22122 0.20307
 C1505 C 0.60705 0.24792 0.20167
 N1506 N 0.59856 0.27850 0.18813
 N1507 N 0.07051 0.78316 0.67226
 C1508 C 0.04609 0.75707 0.67323
 N1509 N 0.05229 0.72776 0.69006
 N1510 N 0.08256 0.72387 0.70408
 C1511 C 0.10768 0.74898 0.70118
 N1512 N 0.10092 0.77914 0.68600
 N1513 N 0.92354 0.81335 0.66793
 C1514 C 0.92920 0.79220 0.64314
 N1515 N 0.90263 0.77220 0.63157
 N1516 N 0.87198 0.77154 0.64554
 C1517 C 0.86698 0.79116 0.67141
 N1518 N 0.89276 0.81299 0.68171
 N1519 N 0.40235 0.27665 0.13067
 C1520 C 0.42991 0.29452 0.14299
 N1521 N 0.42523 0.31555 0.16807
 N1522 N 0.39442 0.31670 0.18165
 C1523 C 0.36763 0.29656 0.17078
 N1524 N 0.37167 0.27747 0.14443
 N1525 N 0.41261 0.78215 0.35689
 C1526 C 0.43837 0.77448 0.33659
 N1527 N 0.43201 0.77444 0.30519
 N1528 N 0.40058 0.78034 0.29446
 C1529 C 0.37457 0.78687 0.31473
 N1530 N 0.38110 0.78837 0.34611
 N1531 N 0.91129 0.27384 0.85666
 C1532 C 0.93733 0.26444 0.83731
 N1533 N 0.93183 0.26356 0.80576
 N1534 N 0.90102 0.27032 0.79403
 C1535 C 0.87482 0.27878 0.81338
 N1536 N 0.88043 0.28094 0.84488
 N1537 N 0.52942 1.02072 0.68279
 C1538 C 0.55143 0.99800 0.69615
 N1539 N 0.56206 0.97083 0.67873
 N1540 N 0.55170 0.96706 0.64887
 C1541 C 0.53037 0.99034 0.63528
 N1542 N 0.51882 1.01681 0.65305
 N1543 N 0.03318 0.52176 1.18159
 C1544 C 0.05528 0.49915 1.19498
 N1545 N 0.06664 0.47247 1.17732
 N1546 N 0.05676 0.46899 1.14727
 C1547 C 0.03521 0.49209 1.13372
 N1548 N 0.02306 0.51813 1.15168
 N1549 N -0.04611 0.01978 1.17275
 C1550 C -0.05416 -0.00848 1.19097
 N1551 N -0.04777 -0.04067 1.17939
 N1552 N -0.03513 -0.04425 1.15018
 C1553 C -0.02806 -0.01571 1.13175
 N1554 N -0.03352 0.01624 1.14383
 N1555 N 0.44521 0.52103 0.66821
 C1556 C 0.44348 0.49334 0.68820
 N1557 N 0.45559 0.46237 0.67804
 N1558 N 0.46767 0.45917 0.64855
 C1559 C 0.46832 0.48697 0.62840
 N1560 N 0.45717 0.51787 0.63905
 N1561 N 0.47898 0.52643 -0.18953
 C1562 C 0.46568 0.49618 -0.20201
 N1563 N 0.47413 0.46571 -0.18817
 N1564 N 0.49334 0.46578 -0.16197
 C1565 C 0.50533 0.49610 -0.14866
 N1566 N 0.49833 0.52648 -0.16343
 N1567 N -0.02435 1.02622 0.31184
 C1568 C -0.03907 0.99574 0.30105
 N1569 N -0.03361 0.96618 0.31765
 N1570 N -0.01583 0.96752 0.34466
 C1571 C -0.00252 0.99823 0.35623
 N1572 N -0.00647 1.02755 0.33882
 N1573 N 0.03739 0.47585 0.32105
 C1574 C 0.04067 0.50769 0.30682
 N1575 N 0.02497 0.53495 0.32034
 N1576 N 0.00795 0.53105 0.34748
 C1577 C 0.00553 0.49967 0.36234
 N1578 N 0.02040 0.47199 0.34845
 N1579 N 0.53838 -0.02481 -0.17785
 C1580 C 0.54242 0.00732 -0.19143
 N1581 N 0.52856 0.03485 -0.17669
 N1582 N 0.51261 0.03089 -0.14906
 C1583 C 0.50943 -0.00081 -0.13488
 N1584 N 0.52240 -0.02876 -0.14994
 N1585 N 0.70928 0.58756 0.00718
 C1586 C 0.71847 0.60741 -0.01826
 N1587 N 0.69928 0.60375 -0.04515
 N1588 N 0.67180 0.58193 -0.04654
 C1589 C 0.66219 0.56261 -0.02096
 N1590 N 0.68170 0.56569 0.00581
 N1591 N 0.20274 1.09381 0.50984
 C1592 C 0.21236 1.11334 0.48433
 N1593 N 0.19202 1.11136 0.45800
 N1594 N 0.16322 1.09130 0.45717
 C1595 C 0.15331 1.07223 0.48282
 N1596 N 0.17386 1.07375 0.50904
 N1597 N 0.16464 -0.10518 1.02722
 C1598 C 0.17693 -0.11589 0.99887
 N1599 N 0.16026 -0.10605 0.97224
 N1600 N 0.13249 -0.08658 0.97371
 C1601 C 0.11968 -0.07633 1.00188
 N1602 N 0.13643 -0.08589 1.02872
 N1603 N 0.66185 0.39489 0.52407
 C1604 C 0.67337 0.38289 0.49587
 N1605 N 0.65573 0.39126 0.46933
 N1606 N 0.62783 0.41057 0.47075
 C1607 C 0.61584 0.42216 0.49879
 N1608 N 0.63350 0.41400 0.52554
 N1609 N -0.19759 0.40878 0.51577
 C1610 C -0.20602 0.38892 0.49037
 N1611 N -0.18624 0.39254 0.46386
 N1612 N -0.15879 0.41437 0.46283
 C1613 C -0.14988 0.43361 0.48842
 N1614 N -0.16999 0.43057 0.51479
 N1615 N 0.30547 -0.09349 0.01731
 C1616 C 0.29776 -0.11489 -0.00722
 N1617 N 0.31861 -0.11321 -0.03317
 N1618 N 0.34629 -0.09165 -0.03447
 C1619 C 0.35436 -0.07073 -0.00972
 N1620 N 0.33328 -0.07201 0.01608
 N1621 N 0.34188 1.10271 0.52545
 C1622 C 0.33714 1.12153 0.49836
 N1623 N 0.36254 1.12161 0.47634
 N1624 N 0.39093 1.10359 0.48064
 C1625 C 0.39595 1.08475 0.50739
 N1626 N 0.37069 1.08457 0.52987
 N1627 N -0.15495 0.60223 1.02314
 C1628 C -0.15835 0.62384 0.99764
 N1629 N -0.13114 0.62764 0.97763
 N1630 N -0.10233 0.61032 0.98220
 C1631 C -0.09876 0.58857 1.00731
 N1632 N -0.12578 0.58481 1.02784
 N1633 N -0.04537 0.69353 0.57533
 C1634 C -0.03320 0.69100 0.60532
 N1635 N -0.01839 0.66122 0.61472
 N1636 N -0.01437 0.63558 0.59450
 C1637 C -0.02476 0.63894 0.56417
 N1638 N -0.04164 0.66764 0.55507
 N1639 N 0.45268 0.19256 0.07656
 C1640 C 0.46373 0.18980 0.10692
 N1641 N 0.47738 0.15962 0.11679
 N1642 N 0.48169 0.13394 0.09667
 C1643 C 0.47271 0.13761 0.06599
 N1644 N 0.45669 0.16663 0.05639
 N1645 N -0.04572 0.15964 0.89662
 C1646 C -0.02807 0.18754 0.90870
 N1647 N -0.01308 0.18484 0.93746
 N1648 N -0.01446 0.15473 0.95307
 C1649 C -0.03054 0.12635 0.94018
 N1650 N -0.04723 0.12955 0.91225
 N1651 N 0.45662 0.65490 0.38649
 C1652 C 0.47025 0.68415 0.39995
 N1653 N 0.48100 0.68307 0.43036
 N1654 N 0.47936 0.65326 0.44648
 C1655 C 0.46699 0.62371 0.43256
 N1656 N 0.45464 0.62519 0.40268
 N1657 N 0.53762 0.82349 0.40757
 C1658 C 0.51046 0.80049 0.41041
 N1659 N 0.48180 0.81019 0.42601
 N1660 N 0.48040 0.84187 0.43832
 C1661 C 0.50732 0.86502 0.43474
 N1662 N 0.53614 0.85519 0.41961
 N1663 N 0.03630 0.32861 0.90052
 C1664 C 0.00930 0.30567 0.90472
 N1665 N -0.01829 0.31530 0.92186
 N1666 N -0.01868 0.34682 0.93461
 C1667 C 0.00824 0.36980 0.93010
 N1668 N 0.03583 0.36014 0.91307
 N1669 N 0.54179 0.29627 0.05822
 C1670 C 0.50953 0.28613 0.06779
 N1671 N 0.48210 0.30394 0.05734
 N1672 N 0.48681 0.33251 0.04001
 C1673 C 0.51912 0.34385 0.03228
 N1674 N 0.54651 0.32470 0.04049
 N1675 N 0.04197 0.80062 0.55797
 C1676 C 0.00990 0.78945 0.56722
 N1677 N -0.01790 0.80708 0.55740
 N1678 N -0.01373 0.83650 0.54120
 C1679 C 0.01838 0.84890 0.53401
 N1680 N 0.04616 0.82993 0.54137
 N1681 N 0.27139 0.28160 0.06885
 C1682 C 0.24938 0.30427 0.05545
 N1683 N 0.22331 0.31646 0.07326
 N1684 N 0.21984 0.30681 0.10347
 C1685 C 0.24238 0.28469 0.11701
 N1686 N 0.26779 0.27174 0.09890
 N1687 N 0.72050 0.81247 0.57226
 C1688 C 0.74646 0.80043 0.55425
 N1689 N 0.76858 0.77769 0.56740
 N1690 N 0.76531 0.76778 0.59747
 C1691 C 0.74013 0.78078 0.61579
 N1692 N 0.71735 0.80276 0.60244
 N1693 N 0.27062 0.69471 0.58235
 C1694 C 0.24333 0.69314 0.56230
 N1695 N 0.21250 0.70515 0.57251
 N1696 N 0.20909 0.71702 0.60204
 C1697 C 0.23652 0.71751 0.62224
 N1698 N 0.26725 0.70644 0.61155
 N1699 N 0.76871 0.20264 0.07643
 C1700 C 0.74070 0.19446 0.05840
 N1701 N 0.70876 0.20101 0.07009
 N1702 N 0.70519 0.21394 0.09922
 C1703 C 0.73349 0.22115 0.11746
 N1704 N 0.76517 0.21552 0.10523
 N1705 N 0.71619 0.21838 0.93327
 C1706 C 0.74600 0.21084 0.94822
 N1707 N 0.77621 0.22487 0.93640
 N1708 N 0.77692 0.24411 0.90999
 C1709 C 0.74726 0.25030 0.89421
 N1710 N 0.71693 0.23748 0.90678
 N1711 N 0.21710 0.72321 0.43717
 C1712 C 0.24713 0.71562 0.45175
 N1713 N 0.27721 0.72937 0.43944
 N1714 N 0.27755 0.74837 0.41291
 C1715 C 0.24766 0.75453 0.39749
 N1716 N 0.21748 0.74206 0.41056
 N1717 N 0.72463 0.78805 0.42786
 C1718 C 0.75645 0.79223 0.44135
 N1719 N 0.78393 0.77884 0.42635
 N1720 N 0.78023 0.76322 0.39858
 C1721 C 0.74883 0.75991 0.38452
 N1722 N 0.72092 0.77237 0.39983
 N1723 N 0.22485 0.28765 0.92918
 C1724 C 0.25649 0.28959 0.94325
 N1725 N 0.28285 0.27280 0.92956
 N1726 N 0.27830 0.25599 0.90243
 C1727 C 0.24714 0.25490 0.88771
 N1728 N 0.22034 0.27089 0.90177
 N1729 N 0.85811 0.44601 0.79265
 C1730 C 0.86173 0.46629 0.76623
 N1731 N 0.84182 0.45813 0.74077
 N1732 N 0.81988 0.43051 0.74166
 C1733 C 0.81677 0.40995 0.76798
 N1734 N 0.83619 0.41849 0.79358
 N1735 N 0.33972 0.96076 0.24237
 C1736 C 0.35909 0.96939 0.26805
 N1737 N 0.35457 0.94992 0.29485
 N1738 N 0.33239 0.92265 0.29594
 C1739 C 0.31356 0.91355 0.27014
 N1740 N 0.31748 0.93338 0.24343
 N1741 N 0.14302 0.91142 0.72499
 C1742 C 0.13191 0.92356 0.75327
 N1743 N 0.14209 0.90717 0.78000
 N1744 N 0.16226 0.87979 0.77872
 C1745 C 0.17292 0.86711 0.75063
 N1746 N 0.16300 0.88357 0.72367
 N1747 N 0.64199 0.41043 0.27738
 C1748 C 0.63162 0.42727 0.25096
 N1749 N 0.64202 0.41534 0.22238
 N1750 N 0.66161 0.38728 0.22045
 C1751 C 0.67179 0.37040 0.24709
 N1752 N 0.66179 0.38284 0.27548
 N1753 N 0.63356 0.56991 0.28357
 C1754 C 0.63238 0.54849 0.25799
 N1755 N 0.65469 0.55535 0.23392
 N1756 N 0.67662 0.58287 0.23520
 C1757 C 0.67747 0.60449 0.26062
 N1758 N 0.65558 0.59732 0.28492
 N1759 N 0.13559 0.06490 0.78535
 C1760 C 0.13329 0.04434 0.75926
 N1761 N 0.15432 0.05216 0.73446
 N1762 N 0.17609 0.07983 0.73558
 C1763 C 0.17798 0.10063 0.76155
 N1764 N 0.15742 0.09243 0.78654
 N1765 N 0.38327 0.12096 0.27100
 C1766 C 0.37815 0.09295 0.25200
 N1767 N 0.35561 0.09589 0.22737
 N1768 N 0.33847 0.12535 0.22259
 C1769 C 0.34347 0.15315 0.24214
 N1770 N 0.36623 0.15009 0.26634
 N1771 N 0.87820 0.61682 0.77253
 C1772 C 0.87604 0.59012 0.75174
 N1773 N 0.85531 0.59378 0.72587
 N1774 N 0.83722 0.62273 0.72150
 C1775 C 0.83934 0.64922 0.74279
 N1776 N 0.86019 0.64539 0.76828
 N1777 N 0.94323 0.69914 0.17716
 C1778 C 0.94161 0.70966 0.14652
 N1779 N 0.91186 0.72267 0.13541
 N1780 N 0.88553 0.72718 0.15466
 C1781 C 0.88812 0.71897 0.18566
 N1782 N 0.91666 0.70333 0.19646
 N1783 N 0.44224 0.19983 0.67805
 C1784 C 0.43982 0.21081 0.64758
 N1785 N 0.40969 0.22357 0.63716
 N1786 N 0.38369 0.22731 0.65692
 C1787 C 0.38700 0.21858 0.68774
 N1788 N 0.41600 0.20326 0.69786
 N1789 N 0.40934 0.70501 0.85707
 C1790 C 0.43718 0.72156 0.84376
 N1791 N 0.43443 0.73528 0.81439
 N1792 N 0.40438 0.73365 0.79924
 C1793 C 0.37614 0.71852 0.81320
 N1794 N 0.37933 0.70319 0.84189
 N1795 N 0.92844 0.21221 0.32925
 C1796 C 0.94940 0.24011 0.32160
 N1797 N 0.93803 0.26385 0.30062
 N1798 N 0.90653 0.26075 0.28862
 C1799 C 0.88475 0.23439 0.29790
 N1800 N 0.89646 0.20939 0.31761
 N1801 N 0.09027 0.27323 0.36322
 C1802 C 0.06494 0.25033 0.35396
 N1803 N 0.07188 0.22634 0.33173
 N1804 N 0.10298 0.22608 0.31849
 C1805 C 0.12794 0.24975 0.32715
 N1806 N 0.12127 0.27301 0.35001
 N1807 N 0.57827 0.78626 0.84619
 C1808 C 0.55522 0.75931 0.84221
 N1809 N 0.56492 0.73084 0.82612
 N1810 N 0.59661 0.72953 0.81421
 C1811 C 0.61972 0.75635 0.81866
 N1812 N 0.60996 0.78488 0.83451
 N1813 N 0.54665 0.28743 0.69760
 C1814 C 0.53756 0.25529 0.68661
 N1815 N 0.55796 0.22818 0.69311
 N1816 N 0.58786 0.23340 0.70775
 C1817 C 0.59803 0.26588 0.71658
 N1818 N 0.57645 0.29262 0.71268
 N1819 N 0.04561 0.78618 0.20004
 C1820 C 0.03723 0.75405 0.18864
 N1821 N 0.05782 0.72716 0.19546
 N1822 N 0.08731 0.73266 0.21072
 C1823 C 0.09686 0.76520 0.21989
 N1824 N 0.07499 0.79165 0.21572
   
