data_POSCAR
  _audit_creation_date              2014-09-24
  _audit_creation_method            'ToBaCCo'
  _symmetry_space_group_name_H-M    'P1'
  _symmetry_Int_Tables_number       1
  _symmetry_cell_setting            triclinic
  loop_
  _symmetry_equiv_pos_as_xyz
 x,y,z
_cell_length_a 59.8443
_cell_length_b 60.5750
_cell_length_c 59.9483
_cell_angle_alpha 92.222100
_cell_angle_beta 91.953300
_cell_angle_gamma 92.112600
loop_
  _atom_site_label
  _atom_site_type_symbol
  _atom_site_fract_x
  _atom_site_fract_y
  _atom_site_fract_z
N1 N 0.17211 0.22237 0.22685
 N2 N 0.17821 0.20454 0.23689
 C3 C 0.16445 0.20075 0.25373
 C4 C 0.14882 0.21703 0.25420
 C5 C 0.15422 0.23046 0.23686
 H6 H 0.16557 0.18705 0.26468
 H7 H 0.14595 0.24520 0.23204
 Cu8 Cu 0.20340 0.18794 0.22691
 Cu9 Cu 0.18788 0.23389 0.20175
 Cu10 Cu 0.23392 0.20557 0.18449
 N11 N 0.22948 0.17255 0.21724
 N12 N 0.24148 0.17963 0.20083
 C13 C 0.25849 0.16607 0.19768
 C14 C 0.25704 0.14951 0.21290
 C15 C 0.23842 0.15419 0.22506
 H16 H 0.27078 0.16795 0.18502
 H17 H 0.23201 0.14504 0.23873
 N18 N 0.22352 0.23215 0.17010
 N19 N 0.20601 0.24294 0.17669
 C20 C 0.20300 0.26010 0.16346
 C21 C 0.21938 0.26012 0.14772
 C22 C 0.23210 0.24215 0.15247
 H23 H 0.18962 0.27150 0.16493
 H24 H 0.24657 0.23676 0.14377
 H25 H 0.20009 0.20415 0.19040
 H26 H 0.21846 0.22133 0.21066
 N27 N 0.67347 0.72636 0.73008
 N28 N 0.68042 0.70941 0.74104
 C29 C 0.66613 0.70509 0.75731
 C30 C 0.64930 0.72014 0.75648
 C31 C 0.65452 0.73338 0.73894
 H32 H 0.66772 0.69181 0.76872
 H33 H 0.64542 0.74731 0.73325
 Cu34 Cu 0.70716 0.69421 0.73306
 Cu35 Cu 0.68966 0.73825 0.70547
 Cu36 Cu 0.73635 0.71074 0.68903
 N37 N 0.73215 0.67800 0.72201
 N38 N 0.74364 0.68457 0.70504
 C39 C 0.75978 0.67020 0.70101
 C40 C 0.75825 0.65364 0.71622
 C41 C 0.74051 0.65916 0.72929
 H42 H 0.77145 0.67150 0.68772
 H43 H 0.73419 0.65019 0.74312
 N44 N 0.72621 0.73752 0.67489
 N45 N 0.70824 0.74783 0.68099
 C46 C 0.70523 0.76501 0.66778
 C47 C 0.72212 0.76556 0.65260
 C48 C 0.73515 0.74789 0.65765
 H49 H 0.69173 0.77629 0.66912
 H50 H 0.74973 0.74264 0.64905
 H51 H 0.70267 0.70825 0.69571
 H52 H 0.72078 0.72712 0.71472
 N53 N 0.31324 0.75343 0.74712
 N54 N 0.30788 0.77165 0.75798
 C55 C 0.32152 0.77486 0.77627
 C56 C 0.33605 0.75761 0.77701
 C57 C 0.33025 0.74432 0.75825
 H58 H 0.32105 0.78874 0.78811
 H59 H 0.33839 0.72955 0.75266
 Cu60 Cu 0.28384 0.78949 0.74682
 Cu61 Cu 0.29886 0.74363 0.71861
 Cu62 Cu 0.25581 0.77508 0.69862
 N63 N 0.25924 0.80664 0.73571
 N64 N 0.24856 0.80110 0.71671
 C65 C 0.23289 0.81596 0.71262
 C66 C 0.23360 0.83175 0.73011
 C67 C 0.25060 0.82513 0.74448
 H68 H 0.22181 0.81513 0.69798
 H69 H 0.25660 0.83330 0.75998
 N70 N 0.26561 0.74820 0.68273
 N71 N 0.28227 0.73644 0.69010
 C72 C 0.28557 0.71985 0.67506
 C73 C 0.27011 0.72110 0.65750
 C74 C 0.25773 0.73924 0.66298
 H75 H 0.29828 0.70774 0.67672
 H76 H 0.24438 0.74581 0.65293
 H77 H 0.28904 0.77435 0.70912
 H78 H 0.26853 0.75748 0.72471
 N79 N 0.81470 0.25355 0.24879
 N80 N 0.81089 0.27269 0.25870
 C81 C 0.82535 0.27614 0.27635
 C82 C 0.83881 0.25799 0.27780
 C83 C 0.83134 0.24396 0.25999
 H84 H 0.82589 0.29072 0.28736
 H85 H 0.83817 0.22839 0.25480
 Cu86 Cu 0.78712 0.29095 0.24760
 Cu87 Cu 0.79934 0.24330 0.22089
 Cu88 Cu 0.75748 0.27588 0.20046
 N89 N 0.76326 0.30889 0.23614
 N90 N 0.75177 0.30288 0.21769
 C91 C 0.73643 0.31801 0.21350
 C92 C 0.73825 0.33441 0.23028
 C93 C 0.75548 0.32803 0.24438
 H94 H 0.72462 0.31699 0.19941
 H95 H 0.76198 0.33677 0.25942
 N96 N 0.76574 0.24801 0.18536
 N97 N 0.78197 0.23580 0.19289
 C98 C 0.78460 0.21880 0.17814
 C99 C 0.76914 0.22026 0.16061
 C100 C 0.75744 0.23894 0.16581
 H101 H 0.79700 0.20639 0.17985
 H102 H 0.74445 0.24588 0.15559
 H103 H 0.79081 0.27408 0.21037
 H104 H 0.76992 0.25881 0.22702
 N105 N 0.81092 0.73731 0.26568
 N106 N 0.80516 0.71822 0.25556
 C107 C 0.82020 0.71351 0.24003
 C108 C 0.83631 0.73054 0.24047
 C109 C 0.82986 0.74535 0.25702
 H110 H 0.81957 0.69873 0.22931
 H111 H 0.83808 0.76101 0.26212
 Cu112 Cu 0.77863 0.70147 0.26391
 Cu113 Cu 0.79312 0.75058 0.28893
 Cu114 Cu 0.74474 0.72137 0.30268
 N115 N 0.75210 0.68474 0.27226
 N116 N 0.73861 0.69273 0.28715
 C117 C 0.72209 0.67757 0.29034
 C118 C 0.72552 0.65900 0.27683
 C119 C 0.74470 0.66423 0.26555
 H120 H 0.70910 0.67956 0.30228
 H121 H 0.75282 0.65375 0.25357
 N122 N 0.75405 0.75052 0.31656
 N123 N 0.77280 0.76125 0.31186
 C124 C 0.77531 0.77961 0.32526
 C125 C 0.75722 0.78058 0.33897
 C126 C 0.74405 0.76190 0.33293
 H127 H 0.78939 0.79131 0.32526
 H128 H 0.72883 0.75652 0.34064
 H129 H 0.77906 0.72143 0.30002
 H130 H 0.76296 0.73562 0.27795
 N131 N 0.31060 0.23736 -0.23691
 N132 N 0.30494 0.21872 -0.24792
 C133 C 0.32001 0.21485 -0.26364
 C134 C 0.33619 0.23196 -0.26243
 C135 C 0.32951 0.24594 -0.24515
 H136 H 0.31935 0.20044 -0.27486
 H137 H 0.33766 0.26127 -0.23893
 Cu138 Cu 0.27884 0.20095 -0.24009
 Cu139 Cu 0.29326 0.24898 -0.21245
 Cu140 Cu 0.24660 0.21750 -0.19834
 N141 N 0.25266 0.18343 -0.23197
 N142 N 0.23997 0.19011 -0.21577
 C143 C 0.22358 0.17470 -0.21310
 C144 C 0.22623 0.15730 -0.22834
 C145 C 0.24486 0.16348 -0.24006
 H146 H 0.21121 0.17570 -0.20041
 H147 H 0.25236 0.15399 -0.25329
 N148 N 0.25602 0.24568 -0.18270
 N149 N 0.27356 0.25788 -0.18822
 C150 C 0.27580 0.27576 -0.17410
 C151 C 0.25901 0.27462 -0.15884
 C152 C 0.24679 0.25536 -0.16484
 H153 H 0.28914 0.28828 -0.17433
 H154 H 0.23234 0.24879 -0.15663
 H155 H 0.28078 0.21870 -0.20283
 H156 H 0.26312 0.23379 -0.22299
 N157 N 0.68649 0.26354 -0.24846
 N158 N 0.69180 0.28204 -0.25805
 C159 C 0.67604 0.28583 -0.27387
 C160 C 0.65995 0.26866 -0.27442
 C161 C 0.66736 0.25475 -0.25803
 H162 H 0.67632 0.30008 -0.28416
 H163 H 0.65902 0.23986 -0.25266
 Cu164 Cu 0.71868 0.29943 -0.24867
 Cu165 Cu 0.70349 0.25343 -0.22273
 Cu166 Cu 0.75098 0.28486 -0.20509
 N167 N 0.74563 0.31659 -0.23904
 N168 N 0.75848 0.31065 -0.22226
 C169 C 0.77570 0.32553 -0.21901
 C170 C 0.77341 0.34177 -0.23448
 C171 C 0.75415 0.33550 -0.24692
 H172 H 0.78848 0.32501 -0.20586
 H173 H 0.74682 0.34417 -0.26060
 N174 N 0.74057 0.25819 -0.18997
 N175 N 0.72273 0.24605 -0.19693
 C176 C 0.71955 0.22955 -0.18281
 C177 C 0.73606 0.23142 -0.16605
 C178 C 0.74912 0.24977 -0.17118
 H179 H 0.70569 0.21757 -0.18412
 H180 H 0.76362 0.25664 -0.16175
 H181 H 0.71678 0.28417 -0.21173
 H182 H 0.73396 0.26742 -0.23097
 N183 N 0.18396 0.76520 0.25160
 N184 N 0.18817 0.78471 0.24353
 C185 C 0.17285 0.78838 0.22728
 C186 C 0.15816 0.77016 0.22499
 C187 C 0.16581 0.75574 0.24070
 H188 H 0.17232 0.80332 0.21802
 H189 H 0.15823 0.73993 0.24455
 Cu190 Cu 0.21255 0.80405 0.25557
 Cu191 Cu 0.20122 0.75454 0.27687
 Cu192 Cu 0.24910 0.78541 0.29378
 N193 N 0.24158 0.81862 0.26187
 N194 N 0.25602 0.81133 0.27655
 C195 C 0.27437 0.82498 0.27772
 C196 C 0.27119 0.84193 0.26302
 C197 C 0.25010 0.83710 0.25323
 H198 H 0.28860 0.82298 0.28894
 H199 H 0.24134 0.84629 0.24082
 N200 N 0.23893 0.75862 0.30887
 N201 N 0.22085 0.74672 0.30219
 C202 C 0.21780 0.73011 0.31618
 C203 C 0.23469 0.73162 0.33258
 C204 C 0.24780 0.74992 0.32737
 H205 H 0.20379 0.71829 0.31501
 H206 H 0.26255 0.75660 0.33654
 H207 H 0.21455 0.78449 0.29026
 H208 H 0.23024 0.77085 0.26734
 N209 N 0.48166 0.42733 0.48462
 N210 N 0.46446 0.43356 0.49601
 C211 C 0.46150 0.41977 0.51283
 C212 C 0.47775 0.40401 0.51200
 C213 C 0.49026 0.40943 0.49382
 H214 H 0.44853 0.42117 0.52485
 H215 H 0.50441 0.40085 0.48754
 Cu216 Cu 0.44744 0.45901 0.48767
 Cu217 Cu 0.49143 0.44270 0.45852
 Cu218 Cu 0.46085 0.48721 0.44237
 N219 N 0.43009 0.48377 0.47806
 N220 N 0.43541 0.49462 0.46032
 C221 C 0.42078 0.51065 0.45724
 C222 C 0.40533 0.50991 0.47395
 C223 C 0.41183 0.49260 0.48688
 H224 H 0.42149 0.52209 0.44388
 H225 H 0.40372 0.48670 0.50146
 N226 N 0.48714 0.47720 0.42636
 N227 N 0.49876 0.46025 0.43257
 C228 C 0.51538 0.45728 0.41831
 C229 C 0.51425 0.47308 0.40223
 C230 C 0.49611 0.48544 0.40795
 H231 H 0.52740 0.44449 0.41956
 H232 H 0.48966 0.49922 0.39915
 H233 H 0.47931 0.47321 0.46748
 H234 H 0.46031 0.45415 0.44970
 N235 N -0.02154 -0.07525 0.98345
 N236 N -0.03903 -0.06920 0.99451
 C237 C -0.04204 -0.08288 1.01142
 C238 C -0.02556 -0.09840 1.01098
 C239 C -0.01283 -0.09296 0.99296
 H240 H -0.05519 -0.08153 1.02325
 H241 H 0.00156 -0.10136 0.98700
 Cu242 Cu -0.05622 -0.04407 0.98566
 Cu243 Cu -0.01146 -0.05981 0.95748
 Cu244 Cu -0.04128 -0.01457 0.94179
 N245 N -0.07261 -0.01837 0.97695
 N246 N -0.06668 -0.00699 0.95975
 C247 C -0.08069 0.00967 0.95723
 C248 C -0.09634 0.00879 0.97375
 C249 C -0.09061 -0.00926 0.98599
 H250 H -0.07942 0.02162 0.94438
 H251 H -0.09904 -0.01544 1.00027
 N252 N -0.01509 -0.02483 0.92572
 N253 N -0.00383 -0.04210 0.93169
 C254 C 0.01288 -0.04505 0.91754
 C255 C 0.01222 -0.02887 0.90183
 C256 C -0.00577 -0.01632 0.90761
 H257 H 0.02481 -0.05794 0.91872
 H258 H -0.01178 -0.00218 0.89912
 H259 H -0.02363 -0.02944 0.96693
 H260 H -0.04215 -0.04786 0.94802
 N261 N 1.03799 0.59539 0.96914
 N262 N 1.05402 0.58930 0.98282
 C263 C 1.05546 0.60342 1.00081
 C264 C 1.03944 0.61927 0.99817
 C265 C 1.02879 0.61357 0.97776
 H266 H 1.06715 0.60205 1.01478
 H267 H 1.01494 0.62157 0.96985
 Cu268 Cu 1.07119 0.56341 0.97536
 Cu269 Cu 1.02966 0.57900 0.94142
 Cu270 Cu 1.04480 0.52447 0.94171
 N271 N 1.08478 0.53531 0.96843
 N272 N 1.07419 0.52021 0.95528
 C273 C 1.08654 0.50220 0.95367
 C274 C 1.10614 0.50613 0.96639
 C275 C 1.10442 0.52739 0.97556
 H276 H 1.08150 0.48740 0.94385
 H277 H 1.11630 0.53626 0.98692
 N278 N 1.02102 0.53489 0.92172
 N279 N 1.01579 0.55581 0.92120
 C280 C 0.99959 0.55796 0.90546
 C281 C 0.99440 0.53737 0.89536
 C282 C 1.00841 0.52313 0.90611
 H283 H 0.99230 0.57349 0.90160
 H284 H 1.00956 0.50556 0.90274
 H285 H 1.03414 0.55218 0.95970
 H286 H 1.05507 0.55609 0.93766
 N287 N 0.53363 0.09348 0.47349
 N288 N 0.55206 0.08936 0.48487
 C289 C 0.55503 0.10456 0.50190
 C290 C 0.53755 0.11901 0.50097
 C291 C 0.52436 0.11135 0.48270
 H292 H 0.56879 0.10500 0.51409
 H293 H 0.50876 0.11788 0.47685
 Cu294 Cu 0.56996 0.06421 0.47636
 Cu295 Cu 0.52212 0.07506 0.44814
 Cu296 Cu 0.55201 0.02936 0.43365
 N297 N 0.58612 0.03777 0.46820
 N298 N 0.57884 0.02443 0.45150
 C299 C 0.59229 0.00726 0.44970
 C300 C 0.60900 0.00975 0.46618
 C301 C 0.60464 0.02941 0.47761
 H302 H 0.58992 -0.00617 0.43736
 H303 H 0.61384 0.03670 0.49206
 N304 N 0.52446 0.03700 0.41750
 N305 N 0.51308 0.05449 0.42299
 C306 C 0.49503 0.05517 0.40905
 C307 C 0.49502 0.03721 0.39403
 C308 C 0.51397 0.02606 0.39994
 H309 H 0.48266 0.06769 0.40996
 H310 H 0.51978 0.01115 0.39195
 H311 H 0.53626 0.04649 0.45876
 H312 H 0.55253 0.06328 0.43889
 N313 N -0.02783 0.08550 0.53202
 N314 N -0.04220 0.07684 0.51677
 C315 C -0.04529 0.09132 0.50063
 C316 C -0.03208 0.11020 0.50586
 C317 C -0.02122 0.10586 0.52599
 H318 H -0.05589 0.08798 0.48585
 H319 H -0.00904 0.11646 0.53534
 Cu320 Cu -0.05500 0.04718 0.51859
 Cu321 Cu -0.01773 0.06898 0.55767
 Cu322 Cu -0.04054 0.01568 0.56083
 N323 N -0.07320 0.02140 0.52572
 N324 N -0.06738 0.00913 0.54235
 C325 C -0.08229 -0.00788 0.54346
 C326 C -0.09852 -0.00619 0.52662
 C327 C -0.09215 0.01267 0.51566
 H328 H -0.08116 -0.02062 0.55554
 H329 H -0.10064 0.01961 0.50151
 N330 N -0.01844 0.02885 0.58285
 N331 N -0.00977 0.04913 0.58200
 C332 C 0.00499 0.05281 0.59940
 C333 C 0.00539 0.03396 0.61186
 C334 C -0.00971 0.01920 0.60079
 H335 H 0.01479 0.06799 0.60271
 H336 H -0.01375 0.00242 0.60517
 H337 H -0.02248 0.03861 0.54247
 H338 H -0.04641 0.04880 0.55853
 N339 N 0.46953 0.58976 0.03520
 N340 N 0.45222 0.58292 0.02236
 C341 C 0.44910 0.59734 0.00615
 C342 C 0.46535 0.61422 0.00881
 C343 C 0.47801 0.60882 0.02754
 H344 H 0.43624 0.59537 -0.00691
 H345 H 0.49264 0.61773 0.03478
 Cu346 Cu 0.43611 0.55523 0.02727
 Cu347 Cu 0.48029 0.57283 0.06030
 Cu348 Cu 0.45129 0.52337 0.06908
 N349 N 0.41999 0.52753 0.03219
 N350 N 0.42611 0.51515 0.04866
 C351 C 0.41241 0.49706 0.04860
 C352 C 0.39678 0.49805 0.03111
 C353 C 0.40216 0.51767 0.02104
 H354 H 0.41387 0.48411 0.06040
 H355 H 0.39357 0.52440 0.00684
 N356 N 0.47717 0.53442 0.08794
 N357 N 0.48832 0.55316 0.08473
 C358 C 0.50531 0.55563 0.10013
 C359 C 0.50479 0.53757 0.11370
 C360 C 0.48668 0.52454 0.10537
 H361 H 0.51725 0.56948 0.10126
 H362 H 0.48106 0.50872 0.11125
 H363 H 0.46907 0.54236 0.04715
 H364 H 0.45000 0.55729 0.06600
 N365 N 0.52873 -0.08026 0.02497
 N366 N 0.54490 -0.07319 0.01250
 C367 C 0.54512 -0.08620 -0.00619
 C368 C 0.52815 -0.10235 -0.00545
 C369 C 0.51807 -0.09796 0.01463
 H370 H 0.55704 -0.08423 -0.01916
 H371 H 0.50439 -0.10728 0.02156
 Cu372 Cu 0.56494 -0.04843 0.02223
 Cu373 Cu 0.52323 -0.06631 0.05387
 Cu374 Cu 0.55902 -0.02256 0.07245
 N375 N 0.58553 -0.02469 0.03345
 N376 N 0.58320 -0.01442 0.05289
 C377 C 0.59959 0.00140 0.05604
 C378 C 0.61302 0.00087 0.03761
 C379 C 0.60351 -0.01592 0.02367
 H380 H 0.60164 0.01238 0.07067
 H381 H 0.60905 -0.02110 0.00739
 N382 N 0.53356 -0.03343 0.08972
 N383 N 0.52015 -0.05020 0.08261
 C384 C 0.50414 -0.05331 0.09750
 C385 C 0.50742 -0.03773 0.11492
 C386 C 0.52633 -0.02541 0.10939
 H387 H 0.49073 -0.06570 0.09542
 H388 H 0.53395 -0.01129 0.11867
 H389 H 0.53694 -0.03523 0.04770
 H390 H 0.55609 -0.05506 0.06084
 N391 N 1.03077 0.41843 0.52627
 N392 N 1.04759 0.42507 0.51438
 C393 C 1.04828 0.41186 0.49587
 C394 C 1.03096 0.39601 0.49615
 C395 C 1.02019 0.40080 0.51575
 H396 H 1.06061 0.41358 0.48324
 H397 H 1.00592 0.39195 0.52215
 Cu398 Cu 1.06742 0.44981 0.52474
 Cu399 Cu 1.02372 0.43317 0.55441
 Cu400 Cu 1.05413 0.48173 0.56905
 N401 N 1.08618 0.47536 0.53500
 N402 N 1.08079 0.48804 0.55213
 C403 C 1.09588 0.50508 0.55483
 C404 C 1.11172 0.50285 0.53863
 C405 C 1.10500 0.48377 0.52639
 H406 H 1.09530 0.51815 0.56758
 H407 H 1.11284 0.47695 0.51181
 N408 N 1.03018 0.46949 0.58742
 N409 N 1.01903 0.45075 0.58199
 C410 C 1.00367 0.44692 0.59738
 C411 C 1.00507 0.46407 0.61337
 C412 C 1.02219 0.47805 0.60651
 H413 H 0.99199 0.43287 0.59667
 H414 H 1.02803 0.49360 0.61447
 H415 H 1.03531 0.46331 0.54444
 H416 H 1.05499 0.44820 0.56274
 C417 C 0.36013 0.02282 0.23650
 C418 C 0.34649 0.00117 0.23798
 C419 C 0.35856 -0.01649 0.24375
 C420 C 0.38384 -0.01089 0.24690
 C421 C 0.37309 0.02579 0.25899
 C422 C 0.38539 0.00825 0.26454
 C423 C 0.37829 0.01750 0.21983
 C424 C 0.39078 -0.00003 0.22524
 H425 H 0.32859 0.00013 0.23459
 H426 H 0.39396 -0.02509 0.25156
 H427 H 0.37357 0.04113 0.26894
 H428 H 0.38191 0.02722 0.20559
 C429 C 0.14325 -0.03145 0.74833
 C430 C 0.15680 -0.00949 0.75148
 C431 C 0.14450 0.00840 0.75659
 C432 C 0.11916 0.00270 0.75712
 C433 C 0.12982 -0.03323 0.76946
 C434 C 0.11717 -0.01556 0.77416
 C435 C 0.12592 -0.02686 0.72981
 C436 C 0.11314 -0.00913 0.73430
 H437 H 0.17442 -0.00797 0.74819
 H438 H 0.10880 0.01700 0.76117
 H439 H 0.12977 -0.04781 0.77938
 H440 H 0.12482 -0.03605 0.71394
 C441 C 0.64537 0.47071 0.24824
 C442 C 0.65828 0.49260 0.25423
 C443 C 0.64520 0.50999 0.25907
 C444 C 0.61993 0.50395 0.25663
 C445 C 0.62974 0.46727 0.26754
 C446 C 0.61634 0.48445 0.27199
 C447 C 0.62995 0.47638 0.22847
 C448 C 0.61642 0.49356 0.23278
 H449 H 0.67622 0.49455 0.25297
 H450 H 0.60885 0.51780 0.26029
 H451 H 0.62960 0.45243 0.27706
 H452 H 0.63025 0.46803 0.21220
 C453 C 0.85860 0.52430 0.73638
 C454 C 0.84558 0.50289 0.74093
 C455 C 0.85846 0.48584 0.74681
 C456 C 0.88375 0.49172 0.74717
 C457 C 0.87365 0.52913 0.75733
 C458 C 0.88681 0.51224 0.76304
 C459 C 0.87503 0.51765 0.71839
 C460 C 0.88834 0.50081 0.72405
 H461 H 0.82752 0.50141 0.73913
 H462 H 0.89459 0.47803 0.75180
 H463 H 0.87405 0.54486 0.76659
 H464 H 0.87735 0.52631 0.70320
 C465 C 0.23865 0.36626 0.02256
 C466 C 0.23838 0.35346 0.00008
 C467 C 0.24170 0.36626 -0.01772
 C468 C 0.24495 0.39105 -0.01156
 C469 C 0.26089 0.37967 0.02380
 C470 C 0.26442 0.39244 0.00598
 C471 C 0.22111 0.38386 0.01962
 C472 C 0.22399 0.39655 0.00157
 H473 H 0.23605 0.33564 -0.00154
 H474 H 0.24766 0.40131 -0.02625
 H475 H 0.27240 0.37988 0.03816
 H476 H 0.20797 0.38673 0.03120
 C477 C 0.75025 0.13657 -0.03037
 C478 C 0.75256 0.15060 -0.00856
 C479 C 0.75627 0.13891 0.01012
 C480 C 0.75771 0.11387 0.00513
 C481 C 0.77159 0.12342 -0.03095
 C482 C 0.77572 0.11169 -0.01247
 C483 C 0.73176 0.11899 -0.02616
 C484 C 0.73555 0.10723 -0.00755
 H485 H 0.75135 0.16839 -0.00818
 H486 H 0.76093 0.10406 0.02005
 H487 H 0.78201 0.12266 -0.04537
 H488 H 0.71683 0.11604 -0.03660
 C489 C 0.24981 0.63571 0.46735
 C490 C 0.25350 0.65001 0.48887
 C491 C 0.25716 0.63849 0.50766
 C492 C 0.25729 0.61328 0.50306
 C493 C 0.27038 0.62150 0.46629
 C494 C 0.27466 0.61001 0.48492
 C495 C 0.23067 0.61920 0.47249
 C496 C 0.23440 0.60767 0.49126
 H497 H 0.25292 0.66786 0.48903
 H498 H 0.26038 0.60375 0.51821
 H499 H 0.28051 0.62038 0.45169
 H500 H 0.21562 0.61629 0.46221
 C501 C 0.73847 0.86717 0.52329
 C502 C 0.73737 0.85467 0.50051
 C503 C 0.74083 0.86765 0.48279
 C504 C 0.74485 0.89235 0.48949
 C505 C 0.76104 0.87980 0.52423
 C506 C 0.76462 0.89290 0.50667
 C507 C 0.72103 0.88492 0.52061
 C508 C 0.72427 0.89811 0.50303
 H509 H 0.73427 0.83697 0.49865
 H510 H 0.74743 0.90301 0.47510
 H511 H 0.77295 0.87881 0.53814
 H512 H 0.70647 0.88610 0.53071
 C513 C 0.02395 0.23742 0.36235
 C514 C 0.00160 0.23910 0.34968
 C515 C -0.01610 0.24310 0.36274
 C516 C -0.00954 0.24564 0.38784
 C517 C 0.02689 0.25904 0.37636
 C518 C 0.00957 0.26344 0.38975
 C519 C 0.01968 0.21992 0.37979
 C520 C 0.00222 0.22418 0.39316
 H521 H 0.00017 0.23736 0.33164
 H522 H -0.02360 0.24916 0.39885
 H523 H 0.04200 0.26946 0.37640
 H524 H 0.03010 0.20599 0.38228
 C525 C -0.03177 0.74951 0.13987
 C526 C -0.00987 0.75171 0.15384
 C527 C 0.00871 0.75564 0.14190
 C528 C 0.00364 0.75734 0.11672
 C529 C -0.03250 0.77077 0.12685
 C530 C -0.01403 0.77507 0.11489
 C531 C -0.02768 0.73151 0.12177
 C532 C -0.00905 0.73547 0.10984
 H533 H -0.00930 0.75018 0.17179
 H534 H 0.01861 0.76072 0.10681
 H535 H -0.04708 0.78083 0.12603
 H536 H -0.03837 0.71689 0.11859
 C537 C 0.46968 0.25303 0.64090
 C538 C 0.49134 0.25491 0.65526
 C539 C 0.51031 0.25807 0.64364
 C540 C 0.50572 0.25949 0.61830
 C541 C 0.46981 0.27409 0.62752
 C542 C 0.48862 0.27770 0.61592
 C543 C 0.47357 0.23465 0.62318
 C544 C 0.49252 0.23785 0.61151
 H545 H 0.49134 0.25400 0.67325
 H546 H 0.52082 0.26228 0.60844
 H547 H 0.45550 0.28439 0.62583
 H548 H 0.46248 0.22024 0.62030
 C549 C 0.52162 0.73797 0.86166
 C550 C 0.49903 0.73914 0.84927
 C551 C 0.48157 0.74338 0.86253
 C552 C 0.48847 0.74654 0.88749
 C553 C 0.52455 0.75993 0.87514
 C554 C 0.50742 0.76449 0.88874
 C555 C 0.51777 0.72086 0.87960
 C556 C 0.50047 0.72530 0.89311
 H557 H 0.49721 0.73680 0.83128
 H558 H 0.47450 0.75018 0.89858
 H559 H 0.53951 0.77048 0.87463
 H560 H 0.52821 0.70697 0.88219
 C561 C 0.09542 0.22474 0.29981
 C562 C 0.09500 0.23531 0.27935
 C563 C 0.11233 0.23280 0.26456
 C564 C 0.13041 0.21958 0.26984
 C565 C 0.13075 0.20887 0.29022
 C566 C 0.11347 0.21145 0.30506
 C567 C 0.07721 0.22772 0.31569
 C568 C 0.06895 0.20986 0.32761
 C569 C 0.05189 0.21271 0.34268
 C570 C 0.04290 0.23364 0.34646
 C571 C 0.05075 0.25129 0.33387
 C572 C 0.06783 0.24845 0.31890
 H573 H 0.11136 0.24104 0.24888
 H574 H 0.14455 0.19876 0.29493
 H575 H 0.04559 0.19828 0.35079
 H576 H 0.04365 0.26742 0.33564
 H577 H 0.11444 0.20336 0.32084
 H578 H 0.07538 0.19352 0.32496
 H579 H 0.08113 0.24534 0.27465
 H580 H 0.07383 0.26257 0.30998
 C581 C 0.59386 0.72590 0.79989
 C582 C 0.59337 0.73560 0.77898
 C583 C 0.61133 0.73366 0.76485
 C584 C 0.63012 0.72188 0.77128
 C585 C 0.63049 0.71194 0.79208
 C586 C 0.61259 0.71397 0.80625
 C587 C 0.57513 0.72855 0.81522
 C588 C 0.56773 0.71092 0.82797
 C589 C 0.55050 0.71360 0.84287
 C590 C 0.54041 0.73414 0.84560
 C591 C 0.54731 0.75146 0.83210
 C592 C 0.56458 0.74879 0.81731
 H593 H 0.61034 0.74124 0.74882
 H594 H 0.64480 0.70296 0.79767
 H595 H 0.54504 0.69934 0.85175
 H596 H 0.53942 0.76725 0.83315
 H597 H 0.61362 0.70660 0.82240
 H598 H 0.57509 0.69490 0.82621
 H599 H 0.57902 0.74457 0.77344
 H600 H 0.56990 0.76273 0.80776
 C601 C 0.39329 0.74937 0.82092
 C602 C 0.38184 0.73094 0.81030
 C603 C 0.36296 0.73361 0.79648
 C604 C 0.35484 0.75472 0.79321
 C605 C 0.36548 0.77305 0.80473
 C606 C 0.38459 0.77042 0.81835
 C607 C 0.41513 0.74679 0.83302
 C608 C 0.42157 0.76001 0.85217
 C609 C 0.44293 0.75852 0.86227
 C610 C 0.45826 0.74387 0.85333
 C611 C 0.45146 0.73011 0.83474
 C612 C 0.43029 0.73164 0.82465
 H613 H 0.35484 0.71912 0.78818
 H614 H 0.35966 0.78955 0.80246
 H615 H 0.44763 0.76932 0.87657
 H616 H 0.46262 0.71823 0.82773
 H617 H 0.39310 0.78501 0.82605
 H618 H 0.41020 0.77166 0.85923
 H619 H 0.38771 0.71442 0.81236
 H620 H 0.42612 0.72139 0.80980
 C621 C -0.10439 0.24925 0.32058
 C622 C -0.11445 0.23135 0.30785
 C623 C -0.13332 0.23416 0.29409
 C624 C -0.14316 0.25487 0.29301
 C625 C -0.13401 0.27244 0.30698
 C626 C -0.11473 0.26972 0.32037
 C627 C -0.08240 0.24684 0.33259
 C628 C -0.07659 0.25879 0.35271
 C629 C -0.05525 0.25731 0.36289
 C630 C -0.03931 0.24382 0.35316
 C631 C -0.04549 0.23130 0.33354
 C632 C -0.06654 0.23298 0.32329
 H633 H -0.14010 0.21990 0.28437
 H634 H -0.14094 0.28867 0.30685
 H635 H -0.05110 0.26716 0.37799
 H636 H -0.03397 0.22021 0.32584
 H637 H -0.10744 0.28395 0.32980
 H638 H -0.08846 0.26940 0.36056
 H639 H -0.10754 0.21510 0.30821
 H640 H -0.07009 0.22378 0.30766
 C641 C -0.10707 0.73728 0.19835
 C642 C -0.10781 0.74971 0.21859
 C643 C -0.12613 0.74748 0.23227
 C644 C -0.14409 0.73266 0.22611
 C645 C -0.14323 0.72001 0.20602
 C646 C -0.12496 0.72233 0.19228
 C647 C -0.08789 0.74015 0.18347
 C648 C -0.07928 0.72192 0.17189
 C649 C -0.06137 0.72470 0.15775
 C650 C -0.05181 0.74590 0.15452
 C651 C -0.06000 0.76398 0.16682
 C652 C -0.07795 0.76120 0.18083
 H653 H -0.12608 0.75724 0.24777
 H654 H -0.15686 0.70860 0.20063
 H655 H -0.05484 0.71008 0.14988
 H656 H -0.05248 0.78040 0.16563
 H657 H -0.12507 0.71273 0.17665
 H658 H -0.08610 0.70538 0.17411
 H659 H -0.09412 0.76106 0.22399
 H660 H -0.08416 0.77564 0.18946
 C661 C 0.39302 0.23993 0.69754
 C662 C 0.38948 0.25485 0.71548
 C663 C 0.37081 0.25225 0.72863
 C664 C 0.35515 0.23450 0.72436
 C665 C 0.35896 0.21940 0.70650
 C666 C 0.37758 0.22213 0.69328
 C667 C 0.41253 0.24316 0.68314
 C668 C 0.42425 0.22502 0.67500
 C669 C 0.44250 0.22816 0.66135
 C670 C 0.44926 0.24950 0.65508
 C671 C 0.43803 0.26765 0.66408
 C672 C 0.41974 0.26451 0.67759
 H673 H 0.36896 0.26422 0.74222
 H674 H 0.34750 0.20553 0.70233
 H675 H 0.45150 0.21384 0.65601
 H676 H 0.44343 0.28445 0.66099
 H677 H 0.37964 0.21049 0.67940
 H678 H 0.41959 0.20839 0.67955
 H679 H 0.40128 0.26851 0.71953
 H680 H 0.41117 0.27888 0.68361
 C681 C 0.59867 0.26260 0.68742
 C682 C 0.61227 0.28200 0.68717
 C683 C 0.63273 0.28380 0.69921
 C684 C 0.64001 0.26639 0.71227
 C685 C 0.62656 0.24679 0.71205
 C686 C 0.60634 0.24487 0.69965
 C687 C 0.57623 0.26111 0.67572
 C688 C 0.55838 0.24926 0.68493
 C689 C 0.53721 0.24807 0.67439
 C690 C 0.53308 0.25907 0.65451
 C691 C 0.55089 0.27091 0.64521
 C692 C 0.57223 0.27182 0.65562
 H693 H 0.64231 0.29925 0.69881
 H694 H 0.63156 0.23269 0.72127
 H695 H 0.52414 0.23835 0.68187
 H696 H 0.54836 0.27981 0.63009
 H697 H 0.59671 0.22940 0.69973
 H698 H 0.56059 0.24110 0.70056
 H699 H 0.60684 0.29613 0.67821
 H700 H 0.58560 0.28087 0.64784
 C701 C 0.09707 0.76257 0.18479
 C702 C 0.10782 0.78348 0.18843
 C703 C 0.12792 0.78588 0.20102
 C704 C 0.13769 0.76743 0.21034
 C705 C 0.12729 0.74645 0.20615
 C706 C 0.10726 0.74404 0.19348
 C707 C 0.07479 0.76023 0.17303
 C708 C 0.05820 0.74577 0.18086
 C709 C 0.03691 0.74414 0.17059
 C710 C 0.03159 0.75702 0.15228
 C711 C 0.04823 0.77123 0.14416
 C712 C 0.06961 0.77286 0.15446
 H713 H 0.13536 0.80232 0.20401
 H714 H 0.13454 0.73184 0.21273
 H715 H 0.02462 0.73270 0.17701
 H716 H 0.04461 0.78147 0.13018
 H717 H 0.09965 0.72763 0.19059
 H718 H 0.06150 0.73602 0.19529
 H719 H 0.10029 0.79813 0.18222
 H720 H 0.08210 0.78399 0.14788
 C721 C 0.30073 0.09541 0.22134
 C722 C 0.30776 0.11402 0.20977
 C723 C 0.29353 0.13154 0.20689
 C724 C 0.27202 0.13084 0.21559
 C725 C 0.26495 0.11215 0.22700
 C726 C 0.27912 0.09462 0.22979
 C727 C 0.31596 0.07701 0.22487
 C728 C 0.31664 0.06650 0.24532
 C729 C 0.33087 0.04915 0.24869
 C730 C 0.34515 0.04202 0.23189
 C731 C 0.34412 0.05234 0.21123
 C732 C 0.32978 0.06969 0.20784
 H733 H 0.29958 0.14578 0.19820
 H734 H 0.24837 0.11090 0.23360
 H735 H 0.33078 0.04125 0.26459
 H736 H 0.35387 0.04698 0.19737
 H737 H 0.27306 0.08032 0.23840
 H738 H 0.30632 0.07183 0.25885
 H739 H 0.32442 0.11525 0.20333
 H740 H 0.32920 0.07712 0.19170
 C741 C 0.79959 0.59745 0.72249
 C742 C 0.80682 0.61569 0.71047
 C743 C 0.79333 0.63386 0.70826
 C744 C 0.77236 0.63421 0.71809
 C745 C 0.76504 0.61587 0.72991
 C746 C 0.77849 0.59768 0.73205
 C747 C 0.81420 0.57848 0.72549
 C748 C 0.81567 0.56835 0.74611
 C749 C 0.82976 0.55082 0.74914
 C750 C 0.84306 0.54309 0.73177
 C751 C 0.84109 0.55293 0.71090
 C752 C 0.82691 0.57047 0.70787
 H753 H 0.79956 0.64779 0.69923
 H754 H 0.74885 0.61542 0.73739
 H755 H 0.83052 0.54337 0.76527
 H756 H 0.85011 0.54722 0.69667
 H757 H 0.77229 0.58371 0.74106
 H758 H 0.80622 0.57423 0.76008
 H759 H 0.82313 0.61613 0.70319
 H760 H 0.82569 0.57762 0.69162
 C761 C 0.81340 0.40180 0.76043
 C762 C 0.79111 0.40025 0.75224
 C763 C 0.77832 0.38069 0.75369
 C764 C 0.78744 0.36223 0.76356
 C765 C 0.80980 0.36368 0.77166
 C766 C 0.82275 0.38327 0.76993
 C767 C 0.82639 0.42298 0.75924
 C768 C 0.84787 0.42382 0.75045
 C769 C 0.85880 0.44425 0.74710
 C770 C 0.84842 0.46410 0.75254
 C771 C 0.82753 0.46306 0.76260
 C772 C 0.81662 0.44279 0.76578
 H773 H 0.76112 0.38025 0.74745
 H774 H 0.81732 0.34968 0.77922
 H775 H 0.87487 0.44446 0.73939
 H776 H 0.81938 0.47799 0.76775
 H777 H 0.83990 0.38410 0.77639
 H778 H 0.85575 0.40873 0.74530
 H779 H 0.78357 0.41424 0.74464
 H780 H 0.80030 0.44257 0.77307
 C781 C 0.31248 -0.10076 0.25458
 C782 C 0.29150 -0.10345 0.24353
 C783 C 0.27824 -0.12257 0.24581
 C784 C 0.28543 -0.13949 0.25957
 C785 C 0.30688 -0.13694 0.27015
 C786 C 0.32031 -0.11782 0.26754
 C787 C 0.32528 -0.07952 0.25340
 C788 C 0.34757 -0.07864 0.24678
 C789 C 0.35867 -0.05817 0.24397
 C790 C 0.34768 -0.03834 0.24792
 C791 C 0.32573 -0.03945 0.25564
 C792 C 0.31464 -0.05975 0.25814
 H793 H 0.26210 -0.12352 0.23715
 H794 H 0.31336 -0.14952 0.28065
 H795 H 0.37554 -0.05797 0.23806
 H796 H 0.31697 -0.02460 0.25974
 H797 H 0.33649 -0.11604 0.27622
 H798 H 0.35609 -0.09374 0.24306
 H799 H 0.28523 -0.09055 0.23326
 H800 H 0.29760 -0.06005 0.26371
 C801 C 0.19458 -0.11127 0.73728
 C802 C 0.20936 -0.11718 0.75456
 C803 C 0.22214 -0.13590 0.75222
 C804 C 0.22038 -0.14951 0.73258
 C805 C 0.20517 -0.14377 0.71545
 C806 C 0.19255 -0.12488 0.71775
 C807 C 0.18159 -0.09086 0.73959
 C808 C 0.15943 -0.09030 0.73110
 C809 C 0.14725 -0.07113 0.73359
 C810 C 0.15701 -0.05185 0.74432
 C811 C 0.17897 -0.05275 0.75340
 C812 C 0.19118 -0.07180 0.75074
 H813 H 0.23322 -0.13962 0.76608
 H814 H 0.20316 -0.15351 0.69997
 H815 H 0.13002 -0.07158 0.72747
 H816 H 0.18679 -0.03889 0.76298
 H817 H 0.18152 -0.12069 0.70398
 H818 H 0.15128 -0.10488 0.72300
 H819 H 0.21097 -0.10741 0.77008
 H820 H 0.20820 -0.07156 0.75748
 C821 C 0.69880 0.39232 0.23727
 C822 C 0.71103 0.38463 0.25566
 C823 C 0.72386 0.36591 0.25337
 C824 C 0.72467 0.35431 0.23268
 C825 C 0.71233 0.36189 0.21431
 C826 C 0.69958 0.38069 0.21657
 C827 C 0.68536 0.41240 0.23968
 C828 C 0.66433 0.41346 0.22868
 C829 C 0.65163 0.43227 0.23119
 C830 C 0.65981 0.45076 0.24439
 C831 C 0.68058 0.44930 0.25594
 C832 C 0.69329 0.43056 0.25336
 H833 H 0.73288 0.36039 0.26794
 H834 H 0.71274 0.35353 0.19806
 H835 H 0.63519 0.43211 0.22309
 H836 H 0.68700 0.46247 0.26735
 H837 H 0.69063 0.38634 0.20199
 H838 H 0.65740 0.39950 0.21856
 H839 H 0.71046 0.39292 0.27195
 H840 H 0.70939 0.43031 0.26213
 C841 C 0.68856 0.59649 0.27374
 C842 C 0.67847 0.61573 0.28164
 C843 C 0.69045 0.63608 0.28277
 C844 C 0.71262 0.63760 0.27572
 C845 C 0.72255 0.61835 0.26768
 C846 C 0.71070 0.59806 0.26676
 C847 C 0.67623 0.57476 0.27240
 C848 C 0.68697 0.55574 0.27898
 C849 C 0.67646 0.53490 0.27553
 C850 C 0.65500 0.53247 0.26516
 C851 C 0.64371 0.55164 0.25988
 C852 C 0.65423 0.57259 0.26342
 H853 H 0.68229 0.65063 0.28896
 H854 H 0.73963 0.61880 0.26232
 H855 H 0.68538 0.52065 0.28075
 H856 H 0.62713 0.55058 0.25223
 H857 H 0.71881 0.58357 0.26030
 H858 H 0.70370 0.55698 0.28652
 H859 H 0.66143 0.61495 0.28719
 H860 H 0.64553 0.58700 0.25824
 C861 C 0.18902 0.09497 0.76675
 C862 C 0.17960 0.11369 0.77664
 C863 C 0.19159 0.13401 0.77813
 C864 C 0.21312 0.13603 0.76953
 C865 C 0.22229 0.11737 0.75926
 C866 C 0.21041 0.09708 0.75796
 C867 C 0.17689 0.07315 0.76577
 C868 C 0.18830 0.05411 0.77101
 C869 C 0.17753 0.03331 0.76874
 C870 C 0.15509 0.03090 0.76084
 C871 C 0.14339 0.05010 0.75663
 C872 C 0.15418 0.07102 0.75904
 H873 H 0.18398 0.14811 0.78598
 H874 H 0.23885 0.11824 0.75258
 H875 H 0.18693 0.01910 0.77315
 H876 H 0.12611 0.04911 0.75087
 H877 H 0.21795 0.08297 0.74999
 H878 H 0.20565 0.05532 0.77684
 H879 H 0.16316 0.11249 0.78361
 H880 H 0.14496 0.08546 0.75496
 C881 C 0.22766 0.30524 0.09465
 C882 C 0.21416 0.31052 0.11266
 C883 C 0.21153 0.29591 0.12991
 C884 C 0.22235 0.27570 0.12953
 C885 C 0.23592 0.27048 0.11153
 C886 C 0.23853 0.28508 0.09427
 C887 C 0.23035 0.32073 0.07631
 C888 C 0.25127 0.32428 0.06692
 C889 C 0.25378 0.33893 0.04970
 C890 C 0.23556 0.35082 0.04176
 C891 C 0.21442 0.34653 0.05064
 C892 C 0.21192 0.33186 0.06786
 H893 H 0.20119 0.30062 0.14362
 H894 H 0.24429 0.25497 0.11052
 H895 H 0.27007 0.34089 0.04255
 H896 H 0.19958 0.35401 0.04412
 H897 H 0.24877 0.28042 0.08044
 H898 H 0.26578 0.31586 0.07300
 H899 H 0.20586 0.32609 0.11357
 H900 H 0.19542 0.32887 0.07427
 C901 C 0.73038 0.81007 0.59901
 C902 C 0.74829 0.79756 0.60642
 C903 C 0.74566 0.78320 0.62390
 C904 C 0.72509 0.78111 0.63440
 C905 C 0.70726 0.79380 0.62712
 C906 C 0.70987 0.80808 0.60960
 C907 C 0.73289 0.82489 0.58006
 C908 C 0.72318 0.84564 0.58048
 C909 C 0.72492 0.85933 0.56237
 C910 C 0.73605 0.85242 0.54313
 C911 C 0.74671 0.83207 0.54330
 C912 C 0.74491 0.81837 0.56138
 H913 H 0.75984 0.77391 0.62927
 H914 H 0.69111 0.79242 0.63461
 H915 H 0.71785 0.87545 0.56382
 H916 H 0.75648 0.82668 0.52937
 H917 H 0.69565 0.81724 0.60404
 H918 H 0.71449 0.85146 0.59500
 H919 H 0.76441 0.79900 0.59883
 H920 H 0.75269 0.80252 0.56058
 C921 C 0.74721 0.82490 0.39534
 C922 C 0.76872 0.82236 0.38708
 C923 C 0.77189 0.80856 0.36829
 C924 C 0.75366 0.79682 0.35750
 C925 C 0.73209 0.79996 0.36522
 C926 C 0.72888 0.81395 0.38382
 C927 C 0.74413 0.83744 0.41681
 C928 C 0.72862 0.82954 0.43198
 C929 C 0.72696 0.83993 0.45298
 C930 C 0.74093 0.85836 0.45954
 C931 C 0.75584 0.86686 0.44416
 C932 C 0.75744 0.85651 0.42299
 H933 H 0.78875 0.80639 0.36283
 H934 H 0.71766 0.79145 0.35701
 H935 H 0.71495 0.83322 0.46427
 H936 H 0.76689 0.88098 0.44875
 H937 H 0.71202 0.81593 0.38938
 H938 H 0.71829 0.81479 0.42799
 H939 H 0.78327 0.83026 0.39567
 H940 H 0.76933 0.86322 0.41160
 C941 C 0.24932 0.31820 -0.10174
 C942 C 0.26015 0.32608 -0.12050
 C943 C 0.26340 0.31195 -0.13907
 C944 C 0.25565 0.28976 -0.13936
 C945 C 0.24481 0.28192 -0.12068
 C946 C 0.24185 0.29589 -0.10207
 C947 C 0.24618 0.33279 -0.08159
 C948 C 0.22712 0.32978 -0.06879
 C949 C 0.22532 0.34136 -0.04841
 C950 C 0.24227 0.35657 -0.04060
 C951 C 0.26063 0.36081 -0.05392
 C952 C 0.26268 0.34887 -0.07419
 H953 H 0.27170 0.31848 -0.15331
 H954 H 0.23904 0.26481 -0.12018
 H955 H 0.21087 0.33810 -0.03847
 H956 H 0.27393 0.37243 -0.04806
 H957 H 0.23406 0.28900 -0.08773
 H958 H 0.21374 0.31810 -0.07425
 H959 H 0.26593 0.34319 -0.12094
 H960 H 0.27766 0.35154 -0.08350
 C961 C 0.74188 0.19148 -0.10824
 C962 C 0.72936 0.18367 -0.12739
 C963 C 0.72758 0.19657 -0.14615
 C964 C 0.73837 0.21757 -0.14628
 C965 C 0.75104 0.22533 -0.12722
 C966 C 0.75272 0.21247 -0.10840
 C967 C 0.74366 0.17777 -0.08824
 C968 C 0.76384 0.17736 -0.07563
 C969 C 0.76555 0.16428 -0.05702
 C970 C 0.74731 0.15084 -0.05067
 C971 C 0.72691 0.15179 -0.06299
 C972 C 0.72517 0.16499 -0.08155
 H973 H 0.71792 0.18993 -0.16063
 H974 H 0.75935 0.24152 -0.12660
 H975 H 0.78134 0.16447 -0.04762
 H976 H 0.71200 0.14279 -0.05838
 H977 H 0.76221 0.21916 -0.09383
 H978 H 0.77846 0.18692 -0.08032
 H979 H 0.72113 0.16742 -0.12799
 H980 H 0.70918 0.16545 -0.09050
 C981 C 0.24122 0.69089 0.38973
 C982 C 0.22798 0.68357 0.37088
 C983 C 0.22600 0.69671 0.35232
 C984 C 0.23728 0.71747 0.35210
 C985 C 0.25069 0.72471 0.37086
 C986 C 0.25260 0.71160 0.38947
 C987 C 0.24313 0.67695 0.40955
 C988 C 0.26362 0.67571 0.42146
 C989 C 0.26541 0.66251 0.43998
 C990 C 0.24689 0.64984 0.44696
 C991 C 0.22622 0.65158 0.43529
 C992 C 0.22443 0.66486 0.41679
 H993 H 0.21578 0.69045 0.33807
 H994 H 0.25941 0.74070 0.37141
 H995 H 0.28144 0.66208 0.44888
 H996 H 0.21116 0.64319 0.44042
 H997 H 0.26267 0.71788 0.40384
 H998 H 0.27840 0.68473 0.41631
 H999 H 0.21932 0.66754 0.37036
 H1000 H 0.20824 0.66596 0.40837
 C1001 C 0.26392 0.68205 0.59582
 C1002 C 0.28428 0.68342 0.60833
 C1003 C 0.28618 0.69562 0.62867
 C1004 C 0.26784 0.70690 0.63681
 C1005 C 0.24737 0.70507 0.62462
 C1006 C 0.24538 0.69268 0.60448
 C1007 C 0.26215 0.67048 0.57340
 C1008 C 0.24909 0.67917 0.55615
 C1009 C 0.24740 0.66869 0.53501
 C1010 C 0.25898 0.64936 0.53034
 C1011 C 0.27204 0.64057 0.54754
 C1012 C 0.27360 0.65101 0.56885
 H1013 H 0.30222 0.69683 0.63763
 H1014 H 0.23282 0.71321 0.63065
 H1015 H 0.23678 0.67573 0.52238
 H1016 H 0.28132 0.62582 0.54449
 H1017 H 0.22929 0.69151 0.59563
 H1018 H 0.24032 0.69430 0.55885
 H1019 H 0.29896 0.67567 0.60208
 H1020 H 0.28365 0.64375 0.58179
 C1021 C 0.76242 0.18152 0.09877
 C1022 C 0.74400 0.19227 0.10754
 C1023 C 0.74614 0.20454 0.12776
 C1024 C 0.76663 0.20609 0.13992
 C1025 C 0.78483 0.19467 0.13169
 C1026 C 0.78280 0.18263 0.11127
 C1027 C 0.76057 0.17010 0.07627
 C1028 C 0.77215 0.15076 0.07153
 C1029 C 0.77076 0.14058 0.05011
 C1030 C 0.75769 0.14945 0.03297
 C1031 C 0.74588 0.16859 0.03784
 C1032 C 0.74743 0.17884 0.05910
 H1033 H 0.73170 0.21283 0.13387
 H1034 H 0.80089 0.19569 0.14061
 H1035 H 0.78026 0.12600 0.04694
 H1036 H 0.73526 0.17569 0.02526
 H1037 H 0.79741 0.17482 0.10494
 H1038 H 0.78224 0.14341 0.08439
 H1039 H 0.72789 0.19132 0.09871
 H1040 H 0.73855 0.19389 0.06194
 C1041 C 0.48690 0.35050 0.55660
 C1042 C 0.50340 0.35588 0.54138
 C1043 C 0.50045 0.37319 0.52684
 C1044 C 0.48091 0.38544 0.52717
 C1045 C 0.46434 0.37980 0.54222
 C1046 C 0.46729 0.36257 0.55670
 C1047 C 0.48987 0.33242 0.57240
 C1048 C 0.48270 0.33500 0.59438
 C1049 C 0.48326 0.31746 0.60874
 C1050 C 0.49109 0.29690 0.60153
 C1051 C 0.49948 0.29457 0.58002
 C1052 C 0.49882 0.31218 0.56553
 H1053 H 0.51364 0.37708 0.51558
 H1054 H 0.44891 0.38852 0.54278
 H1055 H 0.47712 0.31984 0.62542
 H1056 H 0.50548 0.27884 0.57404
 H1057 H 0.45402 0.35851 0.56785
 H1058 H 0.47629 0.35054 0.60040
 H1059 H 0.51875 0.34699 0.54099
 H1060 H 0.50442 0.30967 0.54866
 C1061 C -0.01665 0.84829 0.05591
 C1062 C -0.03639 0.86018 0.05565
 C1063 C -0.03923 0.87739 0.04111
 C1064 C -0.02244 0.88317 0.02634
 C1065 C -0.00274 0.87116 0.02644
 C1066 C 0.00011 0.85390 0.04105
 C1067 C -0.01386 0.83009 0.07162
 C1068 C -0.00425 0.81016 0.06483
 C1069 C -0.00345 0.79247 0.07921
 C1070 C -0.01233 0.79438 0.10054
 C1071 C -0.02101 0.81460 0.10764
 C1072 C -0.02171 0.83224 0.09339
 H1073 H -0.05476 0.88595 0.04137
 H1074 H 0.01064 0.87519 0.01544
 H1075 H 0.00318 0.77701 0.07326
 H1076 H -0.02755 0.81669 0.12418
 H1077 H 0.01558 0.84519 0.04095
 H1078 H 0.00184 0.80793 0.04813
 H1079 H -0.04985 0.85598 0.06652
 H1080 H -0.02867 0.84754 0.09935
 C1081 C 0.02123 0.67122 0.04467
 C1082 C 0.01134 0.66923 0.02309
 C1083 C 0.01759 0.65270 0.00795
 C1084 C 0.03385 0.63761 0.01400
 C1085 C 0.04415 0.63995 0.03545
 C1086 C 0.03793 0.65660 0.05061
 C1087 C 0.01361 0.68811 0.06104
 C1088 C 0.02905 0.70047 0.07513
 C1089 C 0.02169 0.71613 0.09071
 C1090 C -0.00126 0.71961 0.09263
 C1091 C -0.01668 0.70737 0.07844
 C1092 C -0.00932 0.69183 0.06280
 H1093 H 0.00946 0.65179 -0.00845
 H1094 H 0.05673 0.62872 0.04077
 H1095 H 0.03394 0.72514 0.10161
 H1096 H -0.03445 0.70986 0.07938
 H1097 H 0.04576 0.65765 0.06719
 H1098 H 0.04683 0.69808 0.07403
 H1099 H -0.00128 0.68051 0.01789
 H1100 H -0.02164 0.68242 0.05232
 C1101 C 0.52152 0.17223 0.54690
 C1102 C 0.53801 0.15734 0.55280
 C1103 C 0.54365 0.14032 0.53776
 C1104 C 0.53293 0.13786 0.51652
 C1105 C 0.51701 0.15326 0.51044
 C1106 C 0.51137 0.17018 0.52543
 C1107 C 0.51428 0.18939 0.56323
 C1108 C 0.49144 0.19359 0.56498
 C1109 C 0.48440 0.20945 0.58048
 C1110 C 0.50004 0.22154 0.59456
 C1111 C 0.52289 0.21753 0.59271
 C1112 C 0.52995 0.20155 0.57726
 H1113 H 0.55594 0.12876 0.54304
 H1114 H 0.50874 0.15227 0.49409
 H1115 H 0.46670 0.21230 0.58136
 H1116 H 0.53531 0.22639 0.60353
 H1117 H 0.49898 0.18168 0.52021
 H1118 H 0.47894 0.18433 0.55459
 H1119 H 0.54602 0.15841 0.56929
 H1120 H 0.54766 0.19879 0.57619
 C1121 C -0.02067 0.16458 0.46274
 C1122 C -0.03865 0.14932 0.45832
 C1123 C -0.04275 0.13213 0.47268
 C1124 C -0.02892 0.12969 0.49182
 C1125 C -0.01149 0.14551 0.49673
 C1126 C -0.00741 0.16274 0.48236
 C1127 C -0.01490 0.18133 0.44617
 C1128 C 0.00757 0.18576 0.44127
 C1129 C 0.01311 0.20000 0.42440
 C1130 C -0.00370 0.21012 0.41193
 C1131 C -0.02614 0.20631 0.41725
 C1132 C -0.03170 0.19201 0.43417
 H1133 H -0.05655 0.12055 0.46843
 H1134 H -0.00055 0.14432 0.51133
 H1135 H 0.03060 0.20298 0.42106
 H1136 H -0.03943 0.21385 0.40789
 H1137 H 0.00636 0.17447 0.48644
 H1138 H 0.02092 0.17766 0.45000
 H1139 H -0.04908 0.15012 0.44328
 H1140 H -0.04916 0.18914 0.43772
 C1141 C 0.47799 0.66672 0.96365
 C1142 C 0.45995 0.65148 0.95954
 C1143 C 0.45557 0.63483 0.97442
 C1144 C 0.46917 0.63291 0.99382
 C1145 C 0.48684 0.64860 0.99827
 C1146 C 0.49120 0.66529 0.98335
 C1147 C 0.48372 0.68314 0.94676
 C1148 C 0.50616 0.68745 0.94167
 C1149 C 0.51159 0.70146 0.92457
 C1150 C 0.49472 0.71146 0.91209
 C1151 C 0.47232 0.70775 0.91758
 C1152 C 0.46686 0.69369 0.93472
 H1153 H 0.44176 0.62324 0.97029
 H1154 H 0.49756 0.64788 1.01309
 H1155 H 0.52906 0.70436 0.92106
 H1156 H 0.45896 0.71516 0.90820
 H1157 H 0.50503 0.67701 0.98717
 H1158 H 0.51953 0.67945 0.95045
 H1159 H 0.44963 0.65193 0.94438
 H1160 H 0.44942 0.69091 0.93842
 C1161 C 0.51534 0.84161 0.94877
 C1162 C 0.50034 0.84622 0.96568
 C1163 C 0.50420 0.86465 0.98032
 C1164 C 0.52310 0.87888 0.97825
 C1165 C 0.53760 0.87460 0.96076
 C1166 C 0.53376 0.85622 0.94625
 C1167 C 0.51261 0.82121 0.93433
 C1168 C 0.53137 0.80880 0.92979
 C1169 C 0.52947 0.79019 0.91540
 C1170 C 0.50876 0.78353 0.90506
 C1171 C 0.48975 0.79539 0.91022
 C1172 C 0.49165 0.81412 0.92475
 H1173 H 0.49251 0.86750 0.99339
 H1174 H 0.55225 0.88511 0.95844
 H1175 H 0.54431 0.78097 0.91242
 H1176 H 0.47359 0.79061 0.90254
 H1177 H 0.54539 0.85329 0.93309
 H1178 H 0.54760 0.81348 0.93743
 H1179 H 0.48602 0.83520 0.96802
 H1180 H 0.47691 0.82340 0.92801
 C1181 C 0.01794 0.34009 0.45027
 C1182 C 0.00243 0.34536 0.46650
 C1183 C 0.00640 0.36375 0.48116
 C1184 C 0.02591 0.37729 0.47979
 C1185 C 0.04097 0.37236 0.46299
 C1186 C 0.03702 0.35402 0.44843
 C1187 C 0.01497 0.31970 0.43582
 C1188 C 0.03342 0.30661 0.43199
 C1189 C 0.03138 0.28808 0.41751
 C1190 C 0.01086 0.28217 0.40641
 C1191 C -0.00791 0.29463 0.41091
 C1192 C -0.00587 0.31330 0.42552
 H1193 H -0.00573 0.36712 0.49369
 H1194 H 0.05612 0.38233 0.46125
 H1195 H 0.04599 0.27838 0.41497
 H1196 H -0.02391 0.29039 0.40260
 H1197 H 0.04907 0.35058 0.43579
 H1198 H 0.04951 0.31075 0.44020
 H1199 H -0.01240 0.33488 0.46831
 H1200 H -0.02037 0.32311 0.42823
 C1201 C 0.35006 0.55294 0.48293
 C1202 C 0.35670 0.53910 0.50004
 C1203 C 0.37455 0.52502 0.49715
 C1204 C 0.38611 0.52446 0.47708
 C1205 C 0.37918 0.53810 0.45991
 C1206 C 0.36141 0.55209 0.46279
 C1207 C 0.33140 0.56827 0.48577
 C1208 C 0.33292 0.58947 0.47710
 C1209 C 0.31476 0.60323 0.47766
 C1210 C 0.29458 0.59623 0.48695
 C1211 C 0.29342 0.57560 0.49683
 C1212 C 0.31164 0.56168 0.49618
 H1213 H 0.37944 0.51485 0.51079
 H1214 H 0.38732 0.53791 0.44408
 H1215 H 0.31644 0.61932 0.47050
 H1216 H 0.27816 0.56977 0.50415
 H1217 H 0.35638 0.56213 0.44906
 H1218 H 0.34811 0.59533 0.46959
 H1219 H 0.34839 0.53945 0.51580
 H1220 H 0.30992 0.54544 0.50300
 C1221 C 0.84966 0.05309 -0.01590
 C1222 C 0.85547 0.03813 0.00048
 C1223 C 0.87293 0.02368 -0.00284
 C1224 C 0.88492 0.02385 -0.02264
 C1225 C 0.87887 0.03866 -0.03908
 C1226 C 0.86148 0.05304 -0.03576
 C1227 C 0.83135 0.06873 -0.01259
 C1228 C 0.83366 0.09041 -0.01995
 C1229 C 0.81585 0.10458 -0.01902
 C1230 C 0.79528 0.09750 -0.01063
 C1231 C 0.79325 0.07628 -0.00211
 C1232 C 0.81113 0.06198 -0.00312
 H1233 H 0.87715 0.01261 0.01026
 H1234 H 0.88737 0.03911 -0.05469
 H1235 H 0.81804 0.12104 -0.02526
 H1236 H 0.77753 0.07037 0.00433
 H1237 H 0.85711 0.06399 -0.04894
 H1238 H 0.84919 0.09634 -0.02676
 H1239 H 0.84678 0.03786 0.01602
 H1240 H 0.80880 0.04535 0.00262
 C1241 C 0.66869 0.04406 0.02178
 C1242 C 0.66529 0.02318 0.01092
 C1243 C 0.64755 0.00905 0.01645
 C1244 C 0.63274 0.01538 0.03303
 C1245 C 0.63658 0.03593 0.04449
 C1246 C 0.65435 0.05014 0.03890
 C1247 C 0.68650 0.05970 0.01450
 C1248 C 0.69940 0.07312 0.03011
 C1249 C 0.71567 0.08823 0.02298
 C1250 C 0.71926 0.09034 0.00010
 C1251 C 0.70658 0.07672 -0.01546
 C1252 C 0.69040 0.06161 -0.00835
 H1253 H 0.64546 -0.00684 0.00760
 H1254 H 0.62547 0.04137 0.05730
 H1255 H 0.72501 0.09867 0.03536
 H1256 H 0.70913 0.07774 -0.03319
 H1257 H 0.65641 0.06619 0.04746
 H1258 H 0.69693 0.07191 0.04784
 H1259 H 0.67632 0.01777 -0.00199
 H1260 H 0.68060 0.05173 -0.02084
 C1261 C 0.16613 0.54766 0.52326
 C1262 C 0.14824 0.55516 0.53572
 C1263 C 0.13086 0.54051 0.54128
 C1264 C 0.13087 0.51812 0.53422
 C1265 C 0.14901 0.51056 0.52213
 C1266 C 0.16650 0.52514 0.51682
 C1267 C 0.18382 0.56339 0.51607
 C1268 C 0.20651 0.55819 0.51754
 C1269 C 0.22302 0.57271 0.50984
 C1270 C 0.21712 0.59250 0.50014
 C1271 C 0.19444 0.59780 0.49894
 C1272 C 0.17800 0.58346 0.50689
 H1273 H 0.11712 0.54687 0.55055
 H1274 H 0.14965 0.49337 0.51664
 H1275 H 0.24029 0.56818 0.51102
 H1276 H 0.18940 0.61312 0.49192
 H1277 H 0.18000 0.51894 0.50707
 H1278 H 0.21147 0.54289 0.52469
 H1279 H 0.14763 0.57241 0.54105
 H1280 H 0.16064 0.58783 0.50540
 C1281 C 0.15828 0.46024 -0.02216
 C1282 C 0.13767 0.45306 -0.03229
 C1283 C 0.12093 0.46799 -0.03620
 C1284 C 0.12435 0.49053 -0.03005
 C1285 C 0.14518 0.49782 -0.02031
 C1286 C 0.16201 0.48283 -0.01647
 C1287 C 0.17531 0.44395 -0.01664
 C1288 C 0.19808 0.44814 -0.02052
 C1289 C 0.21394 0.43262 -0.01503
 C1290 C 0.20738 0.41285 -0.00518
 C1291 C 0.18454 0.40863 -0.00162
 C1292 C 0.16873 0.42397 -0.00725
 H1293 H 0.10517 0.46166 -0.04367
 H1294 H 0.14849 0.51507 -0.01555
 H1295 H 0.23130 0.43632 -0.01815
 H1296 H 0.17879 0.39333 0.00543
 H1297 H 0.17772 0.48880 -0.00852
 H1298 H 0.20356 0.46333 -0.02796
 H1299 H 0.13444 0.43579 -0.03712
 H1300 H 0.15134 0.42033 -0.00393
 C1301 C 0.65982 0.96320 0.48025
 C1302 C 0.64051 0.95673 0.46737
 C1303 C 0.62419 0.97190 0.46275
 C1304 C 0.62671 0.99394 0.47097
 C1305 C 0.64612 1.00051 0.48375
 C1306 C 0.66261 0.98529 0.48824
 C1307 C 0.67653 0.94662 0.48581
 C1308 C 0.69955 0.95138 0.48414
 C1309 C 0.71511 0.93547 0.48928
 C1310 C 0.70795 0.91470 0.49652
 C1311 C 0.68490 0.90995 0.49800
 C1312 C 0.66938 0.92570 0.49269
 H1313 H 0.60941 0.96613 0.45304
 H1314 H 0.64863 1.01738 0.49020
 H1315 H 0.73271 0.93960 0.48802
 H1316 H 0.67881 0.89394 0.50315
 H1317 H 0.67730 0.99065 0.49834
 H1318 H 0.70548 0.96732 0.47867
 H1319 H 0.63803 0.93987 0.46082
 H1320 H 0.65175 0.92162 0.49424
 C1321 C 0.84448 0.94932 0.51225
 C1322 C 0.85689 0.94862 0.53251
 C1323 C 0.87529 0.96306 0.53710
 C1324 C 0.88178 0.97863 0.52157
 C1325 C 0.86931 0.97945 0.50132
 C1326 C 0.85083 0.96495 0.49671
 C1327 C 0.82471 0.93406 0.50789
 C1328 C 0.80472 0.94157 0.49839
 C1329 C 0.78537 0.92781 0.49688
 C1330 C 0.78562 0.90641 0.50504
 C1331 C 0.80597 0.89847 0.51320
 C1332 C 0.82528 0.91212 0.51458
 H1333 H 0.88419 0.96211 0.55302
 H1334 H 0.87390 0.99112 0.48890
 H1335 H 0.77006 0.93434 0.49037
 H1336 H 0.80689 0.88179 0.51894
 H1337 H 0.84166 0.96578 0.48090
 H1338 H 0.80374 0.95841 0.49310
 H1339 H 0.85212 0.93714 0.54507
 H1340 H 0.84059 0.90563 0.52136
 C1341 C 0.34236 0.45119 0.01383
 C1342 C 0.35470 0.45006 0.03408
 C1343 C 0.37236 0.46516 0.03956
 C1344 C 0.37816 0.48186 0.02496
 C1345 C 0.36585 0.48299 0.00463
 C1346 C 0.34812 0.46783 -0.00086
 C1347 C 0.32314 0.43542 0.00868
 C1348 C 0.30286 0.44267 -0.00046
 C1349 C 0.28395 0.42834 -0.00251
 C1350 C 0.28496 0.40663 0.00467
 C1351 C 0.30558 0.39902 0.01247
 C1352 C 0.32446 0.41323 0.01440
 H1353 H 0.38117 0.46386 0.05548
 H1354 H 0.36993 0.49549 -0.00714
 H1355 H 0.26833 0.43464 -0.00855
 H1356 H 0.30697 0.38217 0.01761
 H1357 H 0.33901 0.46901 -0.01667
 H1358 H 0.30130 0.45970 -0.00494
 H1359 H 0.35038 0.43776 0.04600
 H1360 H 0.34000 0.40699 0.02092
 C1361 C 0.55638 0.47992 0.34561
 C1362 C 0.54152 0.49649 0.35130
 C1363 C 0.52789 0.49437 0.36970
 C1364 C 0.52888 0.47565 0.38286
 C1365 C 0.54396 0.45924 0.37723
 C1366 C 0.55751 0.46136 0.35889
 C1367 C 0.57061 0.48169 0.32586
 C1368 C 0.57399 0.46288 0.31211
 C1369 C 0.58842 0.46397 0.29437
 C1370 C 0.59985 0.48390 0.28988
 C1371 C 0.59592 0.50294 0.30307
 C1372 C 0.58144 0.50184 0.32093
 H1373 H 0.51662 0.50743 0.37354
 H1374 H 0.54526 0.44456 0.38681
 H1375 H 0.59066 0.44913 0.28415
 H1376 H 0.60461 0.51848 0.30010
 H1377 H 0.56904 0.44846 0.35518
 H1378 H 0.56547 0.44725 0.31510
 H1379 H 0.54017 0.51093 0.34132
 H1380 H 0.57929 0.51659 0.33130
 C1381 C 0.05710 -0.02003 0.84768
 C1382 C 0.04257 -0.00330 0.85377
 C1383 C 0.02792 -0.00614 0.87125
 C1384 C 0.02746 -0.02581 0.88302
 C1385 C 0.04183 -0.04260 0.87670
 C1386 C 0.05642 -0.03976 0.85927
 C1387 C 0.07298 -0.01716 0.82935
 C1388 C 0.09469 -0.02513 0.83139
 C1389 C 0.10919 -0.02400 0.81370
 C1390 C 0.10241 -0.01481 0.79352
 C1391 C 0.08107 -0.00601 0.79171
 C1392 C 0.06646 -0.00719 0.80945
 H1393 H 0.01721 0.00722 0.87570
 H1394 H 0.04176 -0.05812 0.88503
 H1395 H 0.12573 -0.03048 0.81577
 H1396 H 0.07532 0.00099 0.77628
 H1397 H 0.06703 -0.05318 0.85468
 H1398 H 0.10044 -0.03238 0.84668
 H1399 H 0.04281 0.01216 0.84528
 H1400 H 0.04980 -0.00104 0.80729
 C1401 C 0.04829 0.01873 0.66798
 C1402 C 0.02820 0.00650 0.66314
 C1403 C 0.01406 0.01187 0.64533
 C1404 C 0.01961 0.02963 0.63188
 C1405 C 0.03926 0.04244 0.63723
 C1406 C 0.05348 0.03702 0.65509
 C1407 C 0.06417 0.01172 0.68573
 C1408 C 0.07591 0.02735 0.70005
 C1409 C 0.09141 0.02059 0.71617
 C1410 C 0.09569 -0.00191 0.71819
 C1411 C 0.08360 -0.01754 0.70414
 C1412 C 0.06807 -0.01082 0.68811
 H1413 H -0.00118 0.00194 0.64206
 H1414 H 0.04408 0.05618 0.62719
 H1415 H 0.10041 0.03307 0.72658
 H1416 H 0.08615 -0.03505 0.70547
 H1417 H 0.06892 0.04667 0.65829
 H1418 H 0.07310 0.04482 0.69880
 H1419 H 0.02347 -0.00737 0.67306
 H1420 H 0.05947 -0.02330 0.67722
 C1421 C 0.55133 0.52111 0.16660
 C1422 C 0.53120 0.50875 0.16258
 C1423 C 0.51600 0.51438 0.14577
 C1424 C 0.52054 0.53249 0.13240
 C1425 C 0.54046 0.54521 0.13680
 C1426 C 0.55567 0.53960 0.15375
 C1427 C 0.56791 0.51424 0.18373
 C1428 C 0.57918 0.52989 0.19840
 C1429 C 0.59474 0.52320 0.21450
 C1430 C 0.59957 0.50079 0.21609
 C1431 C 0.58822 0.48516 0.20144
 C1432 C 0.57258 0.49180 0.18549
 H1433 H 0.50073 0.50436 0.14331
 H1434 H 0.54460 0.55925 0.12691
 H1435 H 0.60322 0.53564 0.22539
 H1436 H 0.59128 0.46771 0.20242
 H1437 H 0.57113 0.54936 0.15638
 H1438 H 0.57578 0.54728 0.19755
 H1439 H 0.52719 0.49466 0.17250
 H1440 H 0.56432 0.47936 0.17430
 C1441 C 0.46273 -0.02495 0.16857
 C1442 C 0.45817 -0.04259 0.15300
 C1443 C 0.47296 -0.04709 0.13604
 C1444 C 0.49270 -0.03403 0.13412
 C1445 C 0.49768 -0.01691 0.15025
 C1446 C 0.48286 -0.01243 0.16726
 C1447 C 0.44573 -0.01869 0.18494
 C1448 C 0.44137 0.00368 0.18913
 C1449 C 0.42393 0.00969 0.20268
 C1450 C 0.41034 -0.00651 0.21232
 C1451 C 0.41523 -0.02884 0.20895
 C1452 C 0.43272 -0.03489 0.19532
 H1453 H 0.46845 -0.06051 0.12415
 H1454 H 0.51279 -0.00665 0.14960
 H1455 H 0.42096 0.02710 0.20542
 H1456 H 0.40510 -0.04167 0.21619
 H1457 H 0.48704 0.00106 0.17924
 H1458 H 0.45092 0.01658 0.18127
 H1459 H 0.44270 -0.05240 0.15335
 H1460 H 0.43586 -0.05227 0.19265
 C1461 C 0.95981 0.47635 0.66656
 C1462 C 0.95573 0.45844 0.65122
 C1463 C 0.97070 0.45411 0.63436
 C1464 C 0.99015 0.46759 0.63241
 C1465 C 0.99465 0.48499 0.64832
 C1466 C 0.97965 0.48931 0.66519
 C1467 C 0.94263 0.48247 0.68275
 C1468 C 0.93756 0.50476 0.68627
 C1469 C 0.92022 0.51064 0.69998
 C1470 C 0.90745 0.49438 0.71048
 C1471 C 0.91295 0.47216 0.70767
 C1472 C 0.93031 0.46623 0.69380
 H1473 H 0.96652 0.44058 0.62249
 H1474 H 1.00958 0.49552 0.64764
 H1475 H 0.91675 0.52798 0.70227
 H1476 H 0.90345 0.45934 0.71564
 H1477 H 0.98344 0.50302 0.67701
 H1478 H 0.94657 0.51766 0.67787
 H1479 H 0.94047 0.44831 0.65166
 H1480 H 0.93400 0.44893 0.69159
 C1481 C 0.94817 0.52352 0.83950
 C1482 C 0.96342 0.50765 0.84587
 C1483 C 0.97821 0.51191 0.86427
 C1484 C 0.97799 0.53212 0.87664
 C1485 C 0.96223 0.54764 0.87061
 C1486 C 0.94752 0.54339 0.85230
 C1487 C 0.93334 0.51989 0.81926
 C1488 C 0.92984 0.53740 0.80503
 C1489 C 0.91507 0.53470 0.78660
 C1490 C 0.90343 0.51441 0.78190
 C1491 C 0.90747 0.49659 0.79559
 C1492 C 0.92230 0.49931 0.81417
 H1493 H 0.99012 0.49957 0.86840
 H1494 H 0.96119 0.56317 0.87995
 H1495 H 0.91278 0.54856 0.77598
 H1496 H 0.89864 0.48081 0.79235
 H1497 H 0.93559 0.55573 0.84811
 H1498 H 0.93856 0.55326 0.80815
 H1499 H 0.96438 0.49223 0.83624
 H1500 H 0.92463 0.48555 0.82490
 C1501 C 0.44672 0.02028 0.34060
 C1502 C 0.46226 0.00484 0.34738
 C1503 C 0.47792 0.01028 0.36475
 C1504 C 0.47838 0.03128 0.37568
 C1505 C 0.46280 0.04667 0.36885
 C1506 C 0.44719 0.04124 0.35152
 C1507 C 0.43031 0.01492 0.32190
 C1508 C 0.40834 0.02217 0.32302
 C1509 C 0.39349 0.01922 0.30464
 C1510 C 0.40025 0.00886 0.28476
 C1511 C 0.42181 0.00058 0.28393
 C1512 C 0.43675 0.00362 0.30234
 H1513 H 0.48949 -0.00209 0.36968
 H1514 H 0.46280 0.06309 0.37660
 H1515 H 0.37679 0.02537 0.30584
 H1516 H 0.42750 -0.00727 0.26872
 H1517 H 0.43574 0.05366 0.34637
 H1518 H 0.40274 0.03046 0.33804
 H1519 H 0.46215 -0.01151 0.33940
 H1520 H 0.45363 -0.00201 0.30093
   
