data_POSCAR
  _audit_creation_date              2014-09-24
  _audit_creation_method            'ToBaCCo'
  _symmetry_space_group_name_H-M    'P1'
  _symmetry_Int_Tables_number       1
  _symmetry_cell_setting            triclinic
  loop_
  _symmetry_equiv_pos_as_xyz
 x,y,z
_cell_length_a 54.8262
_cell_length_b 51.0113
_cell_length_c 51.7395
_cell_angle_alpha 90.002800
_cell_angle_beta 89.618200
_cell_angle_gamma 90.230100
loop_
  _atom_site_label
  _atom_site_type_symbol
  _atom_site_fract_x
  _atom_site_fract_y
  _atom_site_fract_z
C1 C 0.28177 0.36155 0.00696
 C2 C 0.29390 0.35469 0.02958
 C3 C 0.31765 0.34500 0.02802
 C4 C 0.33032 0.34395 0.00415
 C5 C 0.31803 0.35260 -0.01832
 C6 C 0.29334 0.36042 -0.01736
 C7 C 0.35611 0.33387 0.00287
 C8 C 0.36615 0.32403 -0.02042
 C9 C 0.39053 0.31541 -0.02183
 C10 C 0.40414 0.31430 0.00108
 C11 C 0.39401 0.32184 0.02484
 C12 C 0.37076 0.33315 0.02524
 H13 H 0.26372 0.36995 0.00875
 H14 H 0.32581 0.33832 0.04575
 H15 H 0.32734 0.35260 -0.03673
 H16 H 0.35535 0.32362 -0.03776
 H17 H 0.42191 0.30511 0.00079
 H18 H 0.36427 0.34088 0.04342
 C19 C 0.71315 0.62416 -0.00186
 C20 C 0.70502 0.63069 0.02295
 C21 C 0.68301 0.64422 0.02592
 C22 C 0.66818 0.65007 0.00441
 C23 C 0.67651 0.64235 -0.02041
 C24 C 0.69932 0.63030 -0.02369
 C25 C 0.64455 0.66460 0.00794
 C26 C 0.63423 0.67910 -0.01255
 C27 C 0.61271 0.69390 -0.00909
 C28 C 0.60179 0.69416 0.01564
 C29 C 0.61199 0.68053 0.03629
 C30 C 0.63276 0.66529 0.03227
 H31 H 0.73013 0.61357 -0.00419
 H32 H 0.67807 0.65048 0.04518
 H33 H 0.66563 0.64583 -0.03739
 H34 H 0.64385 0.68050 -0.03076
 H35 H 0.58516 0.70496 0.01924
 H36 H 0.63951 0.65424 0.04851
 C37 C 0.71624 0.38045 0.98986
 C38 C 0.70221 0.37463 0.96810
 C39 C 0.68562 0.35369 0.96913
 C40 C 0.68351 0.33780 0.99143
 C41 C 0.69816 0.34396 1.01302
 C42 C 0.71427 0.36542 1.01242
 C43 C 0.66631 0.31483 0.99194
 C44 C 0.65628 0.30545 1.01546
 C45 C 0.64095 0.28316 1.01611
 C46 C 0.63422 0.27171 0.99242
 C47 C 0.64308 0.28125 0.96878
 C48 C 0.65975 0.30211 0.96877
 H49 H 0.72888 0.39683 0.98921
 H50 H 0.67418 0.35030 0.95251
 H51 H 0.69768 0.33189 1.03019
 H52 H 0.66100 0.31502 1.03335
 H53 H 0.62054 0.25634 0.99213
 H54 H 0.66755 0.30818 0.95048
 C55 C 0.28304 0.62163 1.00004
 C56 C 0.29443 0.62629 0.97628
 C57 C 0.31598 0.64104 0.97538
 C58 C 0.32531 0.65302 0.99797
 C59 C 0.31346 0.64785 1.02185
 C60 C 0.29256 0.63192 1.02290
 C61 C 0.34625 0.67198 0.99624
 C62 C 0.36126 0.67722 1.01784
 C63 C 0.38033 0.69591 1.01651
 C64 C 0.38430 0.70892 0.99281
 C65 C 0.36992 0.70382 0.97127
 C66 C 0.35087 0.68574 0.97301
 H67 H 0.26666 0.60964 1.00074
 H68 H 0.32486 0.64364 0.95684
 H69 H 0.31966 0.65682 1.03958
 H70 H 0.35878 0.66596 1.03534
 H71 H 0.39800 0.72417 0.99100
 H72 H 0.33934 0.68329 0.95631
 C73 C -0.00916 0.27551 0.37877
 C74 C 0.01375 0.28704 0.37464
 C75 C 0.01563 0.30917 0.35870
 C76 C -0.00482 0.31880 0.34524
 C77 C -0.02774 0.30679 0.34980
 C78 C -0.02999 0.28549 0.36682
 C79 C -0.00189 0.34036 0.32571
 C80 C -0.02177 0.35652 0.31878
 C81 C -0.01919 0.37629 0.29983
 C82 C 0.00394 0.37985 0.28832
 C83 C 0.02383 0.36441 0.29505
 C84 C 0.02087 0.34458 0.31337
 H85 H -0.01085 0.25889 0.39172
 H86 H 0.03333 0.31829 0.35643
 H87 H -0.04384 0.31318 0.33967
 H88 H -0.03895 0.35450 0.32891
 H89 H 0.00668 0.39409 0.27306
 H90 H 0.03634 0.33213 0.31714
 C91 C 0.00964 0.71136 0.61528
 C92 C 0.03101 0.69870 0.62279
 C93 C 0.02966 0.67786 0.64039
 C94 C 0.00732 0.67110 0.65268
 C95 C -0.01395 0.68467 0.64493
 C96 C -0.01294 0.70429 0.62594
 C97 C 0.00657 0.65176 0.67480
 C98 C -0.01580 0.64087 0.68374
 C99 C -0.01714 0.62651 0.70703
 C100 C 0.00474 0.62055 0.71970
 C101 C 0.02722 0.62938 0.71036
 C102 C 0.02807 0.64540 0.68845
 H103 H 0.01071 0.72687 0.60099
 H104 H 0.04641 0.66788 0.64488
 H105 H -0.03137 0.68114 0.65413
 H106 H -0.03248 0.64470 0.67354
 H107 H 0.00456 0.60780 0.73645
 H108 H 0.04563 0.65334 0.68303
 C109 C 1.00266 0.72012 0.37590
 C110 C 0.98142 0.71481 0.36211
 C111 C 0.98154 0.69526 0.34325
 C112 C 1.00269 0.68034 0.33839
 C113 C 1.02395 0.68579 0.35285
 C114 C 1.02422 0.70571 0.37183
 C115 C 1.00233 0.65905 0.31843
 C116 C 1.02383 0.65169 0.30508
 C117 C 1.02332 0.63251 0.28544
 C118 C 1.00079 0.62076 0.27941
 C119 C 0.97943 0.62733 0.29271
 C120 C 0.98026 0.64622 0.31223
 H121 H 1.00217 0.73618 0.38955
 H122 H 0.96510 0.69224 0.33220
 H123 H 1.03984 0.67357 0.35036
 H124 H 1.04074 0.66193 0.30887
 H125 H 0.99976 0.60548 0.26492
 H126 H 0.96363 0.65035 0.32282
 C127 C 0.99703 0.28638 0.61858
 C128 C 0.97426 0.29389 0.62824
 C129 C 0.97306 0.31269 0.64797
 C130 C 0.99440 0.32506 0.65746
 C131 C 1.01712 0.31764 0.64647
 C132 C 1.01850 0.29753 0.62803
 C133 C 0.99297 0.34417 0.67970
 C134 C 1.01367 0.34960 0.69506
 C135 C 1.01224 0.36587 0.71701
 C136 C 0.98934 0.37598 0.72410
 C137 C 0.96854 0.37108 0.70936
 C138 C 0.97061 0.35610 0.68674
 H139 H 0.99815 0.27167 0.60350
 H140 H 0.95536 0.31662 0.65629
 H141 H 1.03401 0.32665 0.65247
 H142 H 1.03078 0.34000 0.69114
 H143 H 0.98769 0.38915 0.74043
 H144 H 0.95446 0.35355 0.67519
 C145 C 0.37919 0.00801 0.27822
 C146 C 0.36773 0.03081 0.28684
 C147 C 0.34910 0.02915 0.30534
 C148 C 0.34229 0.00479 0.31639
 C149 C 0.35502 -0.01788 0.30802
 C150 C 0.37280 -0.01682 0.28808
 C151 C 0.32143 0.00293 0.33563
 C152 C 0.30952 -0.02132 0.34077
 C153 C 0.28958 -0.02279 0.35782
 C154 C 0.28069 0.00008 0.36919
 C155 C 0.29156 0.02439 0.36423
 C156 C 0.31242 0.02560 0.34838
 H157 H 0.39408 0.01015 0.26454
 H158 H 0.33979 0.04708 0.31024
 H159 H 0.35044 -0.03663 0.31622
 H160 H 0.31484 -0.03922 0.33123
 H161 H 0.26527 -0.00112 0.38238
 H162 H 0.32102 0.04449 0.34590
 C163 C 0.62485 0.00143 0.72232
 C164 C 0.62656 0.02250 0.70512
 C165 C 0.64343 0.02137 0.68472
 C166 C 0.65867 -0.00067 0.68143
 C167 C 0.65518 -0.02251 0.69790
 C168 C 0.63834 -0.02160 0.71851
 C169 C 0.67909 -0.00012 0.66206
 C170 C 0.68884 -0.02350 0.65160
 C171 C 0.70983 -0.02285 0.63589
 C172 C 0.72025 0.00139 0.62936
 C173 C 0.71048 0.02479 0.63875
 C174 C 0.69018 0.02399 0.65525
 H175 H 0.61176 0.00253 0.73805
 H176 H 0.64442 0.03769 0.67139
 H177 H 0.66660 -0.03964 0.69599
 H178 H 0.68064 -0.04231 0.65602
 H179 H 0.73600 0.00206 0.61658
 H180 H 0.68385 0.04226 0.66344
 C181 C 0.39389 1.01333 0.69833
 C182 C 0.38899 0.98811 0.68908
 C183 C 0.37236 0.98487 0.66875
 C184 C 0.35883 1.00641 0.65906
 C185 C 0.36406 1.03158 0.66939
 C186 C 0.38166 1.03500 0.68854
 C187 C 0.33783 1.00247 0.64052
 C188 C 0.32610 1.02420 0.62880
 C189 C 0.30345 1.02143 0.61631
 C190 C 0.29418 0.99603 0.61266
 C191 C 0.30637 0.97405 0.62187
 C192 C 0.32777 0.97721 0.63611
 H193 H 0.40696 1.01610 0.71374
 H194 H 0.36957 0.96524 0.66166
 H195 H 0.35397 1.04878 0.66397
 H196 H 0.33353 1.04365 0.63068
 H197 H 0.27768 0.99301 0.60161
 H198 H 0.33555 0.95973 0.64428
 C199 C 0.60490 0.98315 0.29929
 C200 C 0.61311 0.96185 0.31369
 C201 C 0.62983 0.96577 0.33347
 C202 C 0.63983 0.99082 0.33802
 C203 C 0.63080 1.01234 0.32375
 C204 C 0.61255 1.00906 0.30467
 C205 C 0.66023 0.99408 0.35693
 C206 C 0.66409 1.01797 0.37023
 C207 C 0.68349 1.02063 0.38765
 C208 C 0.69889 0.99929 0.39204
 C209 C 0.69547 0.97548 0.37922
 C210 C 0.67641 0.97307 0.36151
 H211 H 0.59306 0.97882 0.28321
 H212 H 0.63542 0.94897 0.34469
 H213 H 0.63794 1.03156 0.32788
 H214 H 0.65192 1.03438 0.36767
 H215 H 0.71373 1.00126 0.40565
 H216 H 0.67473 0.95486 0.35095
 O217 O 0.85905 0.82620 0.47475
 O218 O 0.82379 0.85514 0.52774
 O219 O 0.86025 0.82296 0.52472
 O220 O 0.82263 0.85792 0.47777
 O221 O 0.79699 0.82453 0.47625
 O222 O 0.83464 0.78953 0.52417
 O223 O 0.79744 0.82235 0.52639
 O224 O 0.83397 0.79229 0.47378
 Cu225 Cu 0.84397 0.84385 0.50143
 Cu226 Cu 0.81320 0.80374 0.50013
 C227 C 0.85272 0.80431 0.46521
 C228 C 0.80440 0.84413 0.53583
 C229 C 0.85412 0.80021 0.53235
 C230 C 0.80340 0.84735 0.46896
 O231 O 0.18323 0.15054 0.52785
 O232 O 0.14686 0.18193 0.47817
 O233 O 0.18284 0.14968 0.47787
 O234 O 0.14829 0.18453 0.52795
 O235 O 0.17468 0.21727 0.52656
 O236 O 0.20959 0.18210 0.47596
 O237 O 0.17262 0.21528 0.47642
 O238 O 0.21053 0.18242 0.52618
 Cu239 Cu 0.16273 0.16344 0.50321
 Cu240 Cu 0.19456 0.20260 0.50115
 C241 C 0.20318 0.16055 0.53526
 C242 C 0.15314 0.20397 0.46896
 C243 C 0.20216 0.15975 0.46844
 C244 C 0.15524 0.20700 0.53555
 O245 O 0.16138 0.81068 0.52621
 O246 O 0.18900 0.84604 0.47196
 O247 O 0.15569 0.80961 0.47775
 O248 O 0.19492 0.84542 0.52227
 O249 O 0.22302 0.81470 0.51896
 O250 O 0.18396 0.77942 0.47185
 O251 O 0.21793 0.81628 0.46849
 O252 O 0.18812 0.77873 0.52153
 Cu253 Cu 0.17271 0.83129 0.49965
 Cu254 Cu 0.20629 0.79434 0.49475
 C255 C 0.16933 0.78829 0.53258
 C256 C 0.20820 0.83755 0.46106
 C257 C 0.16256 0.78801 0.46800
 C258 C 0.21534 0.83599 0.52882
 O259 O 0.84482 0.18484 0.51807
 O260 O 0.79979 0.14922 0.47950
 O261 O 0.83750 0.17976 0.46855
 O262 O 0.80977 0.15332 0.52735
 O263 O 0.78307 0.18566 0.52809
 O264 O 0.81464 0.21514 0.47133
 O265 O 0.77610 0.18415 0.47846
 O266 O 0.81958 0.21827 0.52135
 Cu267 Cu 0.82554 0.16351 0.49772
 Cu268 Cu 0.79588 0.20432 0.49976
 C269 C 0.83962 0.20732 0.52706
 C270 C 0.78005 0.16028 0.47303
 C271 C 0.83173 0.20234 0.46043
 C272 C 0.79145 0.16448 0.53749
 O273 O 0.48104 0.85996 0.81774
 O274 O 0.51808 0.82070 0.86152
 O275 O 0.52728 0.85652 0.82749
 O276 O 0.47219 0.82428 0.85190
 O277 O 0.47614 0.79306 0.82267
 O278 O 0.53109 0.82684 0.79674
 O279 O 0.52280 0.79044 0.83147
 O280 O 0.48425 0.82975 0.78742
 Cu281 Cu 0.49929 0.84343 0.84256
 Cu282 Cu 0.50389 0.80697 0.80644
 C283 C 0.47615 0.85173 0.79521
 C284 C 0.52674 0.79887 0.85422
 C285 C 0.53862 0.84747 0.80800
 C286 C 0.46496 0.80293 0.84195
 O287 O 0.53132 0.18461 0.14988
 O288 O 0.47598 0.16027 0.18129
 O289 O 0.48601 0.19773 0.14888
 O290 O 0.52152 0.14860 0.18420
 O291 O 0.52925 0.17761 0.21478
 O292 O 0.48967 0.22525 0.18166
 O293 O 0.48225 0.18637 0.21461
 O294 O 0.53592 0.21474 0.18007
 Cu295 Cu 0.50320 0.17002 0.16292
 Cu296 Cu 0.50979 0.20382 0.20107
 C297 C 0.54264 0.20430 0.15885
 C298 C 0.46996 0.16835 0.20360
 C299 C 0.48183 0.21982 0.15926
 C300 C 0.53148 0.15470 0.20549
 O301 O 0.47570 0.20250 0.83942
 O302 O 0.51369 0.15771 0.80126
 O303 O 0.52191 0.19090 0.83860
 O304 O 0.46802 0.16810 0.80382
 O305 O 0.47479 0.19744 0.77319
 O306 O 0.52750 0.22275 0.81029
 O307 O 0.52150 0.18907 0.77290
 O308 O 0.48125 0.23334 0.80991
 Cu309 Cu 0.49430 0.17681 0.82377
 Cu310 Cu 0.50170 0.21387 0.78861
 C311 C 0.47213 0.22558 0.83121
 C312 C 0.52394 0.16560 0.78057
 C313 C 0.53373 0.21086 0.83081
 C314 C 0.46266 0.17811 0.78218
 O315 O 0.48136 0.80010 0.15788
 O316 O 0.52444 0.82746 0.20387
 O317 O 0.52554 0.79114 0.16962
 O318 O 0.47917 0.83725 0.19296
 O319 O 0.46706 0.80879 0.22250
 O320 O 0.51257 0.76157 0.19786
 O321 O 0.51251 0.79898 0.23355
 O322 O 0.46800 0.77146 0.18670
 Cu323 Cu 0.50363 0.81708 0.17832
 Cu324 Cu 0.48873 0.78243 0.21327
 C325 C 0.46825 0.78042 0.16374
 C326 C 0.52607 0.81800 0.22642
 C327 C 0.52635 0.76824 0.17912
 C328 C 0.46555 0.83126 0.21204
 O329 O 0.79887 0.48700 0.84005
 O330 O 0.84117 0.53238 0.80873
 O331 O 0.80448 0.53658 0.83953
 O332 O 0.83645 0.48176 0.80896
 O333 O 0.81323 0.48507 0.77445
 O334 O 0.77860 0.53801 0.80702
 O335 O 0.81671 0.53602 0.77523
 O336 O 0.77490 0.48746 0.80586
 Cu337 Cu 0.82280 0.50896 0.82753
 Cu338 Cu 0.79344 0.51184 0.78713
 C339 C 0.77943 0.48009 0.82879
 C340 C 0.83626 0.54224 0.78689
 C341 C 0.78563 0.54606 0.82904
 C342 C 0.83092 0.47450 0.78626
 O343 O 0.14773 0.51866 0.17833
 O344 O 0.18382 0.46722 0.14771
 O345 O 0.14889 0.46817 0.18091
 O346 O 0.18303 0.51834 0.14529
 O347 O 0.21021 0.52070 0.17650
 O348 O 0.17518 0.47039 0.21295
 O349 O 0.21097 0.46940 0.17898
 O350 O 0.17411 0.52158 0.21020
 Cu351 Cu 0.16332 0.49290 0.15985
 Cu352 Cu 0.19538 0.49577 0.19785
 C353 C 0.15445 0.52889 0.19947
 C354 C 0.20332 0.45924 0.15808
 C355 C 0.15601 0.46069 0.20300
 C356 C 0.20228 0.52826 0.15471
 O357 O 0.82304 0.52539 0.14452
 O358 O 0.85877 0.47551 0.17716
 O359 O 0.82553 0.47435 0.14119
 O360 O 0.85526 0.52459 0.18096
 O361 O 0.82602 0.52081 0.21043
 O362 O 0.79668 0.46957 0.17072
 O363 O 0.83036 0.47092 0.20731
 O364 O 0.79336 0.52090 0.17318
 Cu365 Cu 0.84327 0.50029 0.15772
 Cu366 Cu 0.80842 0.49502 0.19315
 C367 C 0.80222 0.53186 0.15309
 C368 C 0.85162 0.46604 0.19858
 C369 C 0.80603 0.46334 0.14905
 C370 C 0.84625 0.53041 0.20286
 O371 O 0.18097 0.51697 0.85780
 O372 O 0.14252 0.46657 0.82894
 O373 O 0.17891 0.46624 0.86039
 O374 O 0.14522 0.51712 0.82611
 O375 O 0.17062 0.51420 0.79298
 O376 O 0.20516 0.46311 0.82800
 O377 O 0.16786 0.46303 0.79585
 O378 O 0.20736 0.51397 0.82550
 Cu379 Cu 0.15938 0.49195 0.84657
 Cu380 Cu 0.19034 0.48820 0.80720
 C381 C 0.20061 0.52417 0.84679
 C382 C 0.14827 0.45628 0.80745
 C383 C 0.19785 0.45615 0.85034
 C384 C 0.15204 0.52445 0.80376
 C385 C 0.25604 0.38443 0.09562
 C386 C 0.28148 0.38855 0.09308
 C387 C 0.29446 0.37645 0.07285
 C388 C 0.28224 0.36068 0.05480
 C389 C 0.25758 0.35463 0.05890
 C390 C 0.24463 0.36615 0.07917
 C391 C 0.24210 0.40116 0.11432
 C392 C 0.21644 0.40116 0.11550
 C393 C 0.20409 0.41951 0.13053
 C394 C 0.21690 0.43799 0.14522
 C395 C 0.24246 0.43721 0.14556
 C396 C 0.25515 0.41937 0.12970
 C397 C 0.29349 0.40592 0.10974
 C398 C 0.28063 0.42077 0.12788
 H399 H 0.31305 0.40872 0.10814
 H400 H 0.29068 0.43452 0.13977
 H401 H 0.31358 0.38111 0.06984
 H402 H 0.24796 0.34204 0.04549
 H403 H 0.18433 0.41963 0.13021
 H404 H 0.25244 0.45164 0.15672
 H405 H 0.22553 0.36131 0.08088
 H406 H 0.20548 0.38795 0.10414
 C407 C 0.74780 0.59967 0.08515
 C408 C 0.72206 0.59728 0.08572
 C409 C 0.70802 0.60891 0.06622
 C410 C 0.71933 0.62238 0.04570
 C411 C 0.74470 0.62568 0.04581
 C412 C 0.75877 0.61467 0.06531
 C413 C 0.76228 0.58480 0.10473
 C414 C 0.78796 0.58484 0.10483
 C415 C 0.80069 0.56843 0.12142
 C416 C 0.78829 0.55176 0.13864
 C417 C 0.76274 0.55279 0.13999
 C418 C 0.74966 0.56894 0.12294
 C419 C 0.71061 0.58233 0.10506
 C420 C 0.72411 0.56845 0.12325
 H421 H 0.69090 0.58069 0.10567
 H422 H 0.71439 0.55655 0.13732
 H423 H 0.68840 0.60618 0.06616
 H424 H 0.75375 0.63633 0.03035
 H425 H 0.82043 0.56833 0.12028
 H426 H 0.75301 0.53998 0.15326
 H427 H 0.77822 0.61753 0.06398
 H428 H 0.79863 0.59677 0.09178
 C429 C 0.72223 0.41910 0.90067
 C430 C 0.71616 0.43193 0.92413
 C431 C 0.70782 0.41742 0.94544
 C432 C 0.70593 0.39007 0.94413
 C433 C 0.71046 0.37747 0.92050
 C434 C 0.71846 0.39178 0.89896
 C435 C 0.73400 0.43496 0.87949
 C436 C 0.74208 0.42404 0.85582
 C437 C 0.75571 0.43910 0.83820
 C438 C 0.76143 0.46518 0.84391
 C439 C 0.75220 0.47666 0.86646
 C440 C 0.73863 0.46186 0.88424
 C441 C 0.71971 0.45897 0.92676
 C442 C 0.73078 0.47361 0.90725
 H443 H 0.71475 0.46880 0.94459
 H444 H 0.73401 0.49431 0.91062
 H445 H 0.70396 0.42729 0.96357
 H446 H 0.70909 0.35633 0.91907
 H447 H 0.76280 0.43003 0.82078
 H448 H 0.75662 0.49697 0.87069
 H449 H 0.72250 0.38098 0.88154
 H450 H 0.73880 0.40377 0.85098
 C451 C 0.25606 0.59360 0.91183
 C452 C 0.28106 0.58770 0.91529
 C453 C 0.29420 0.59964 0.93544
 C454 C 0.28247 0.61691 0.95251
 C455 C 0.25814 0.62372 0.94818
 C456 C 0.24513 0.61246 0.92802
 C457 C 0.24191 0.57832 0.89224
 C458 C 0.21657 0.58131 0.88909
 C459 C 0.20356 0.56436 0.87322
 C460 C 0.21543 0.54440 0.85959
 C461 C 0.24089 0.54232 0.86099
 C462 C 0.25416 0.55884 0.87764
 C463 C 0.29241 0.56909 0.89935
 C464 C 0.27926 0.55504 0.88087
 H465 H 0.31160 0.56476 0.90172
 H466 H 0.28873 0.54030 0.86959
 H467 H 0.31308 0.59442 0.93876
 H468 H 0.24895 0.63737 0.96097
 H469 H 0.18392 0.56638 0.87217
 H470 H 0.25008 0.52671 0.85061
 H471 H 0.22637 0.61828 0.92605
 H472 H 0.20620 0.59587 0.89943
 C473 C 0.07720 0.25064 0.40769
 C474 C 0.07434 0.27817 0.40914
 C475 C 0.05384 0.29014 0.39800
 C476 C 0.03583 0.27493 0.38588
 C477 C 0.03888 0.24772 0.38432
 C478 C 0.05924 0.23571 0.39497
 C479 C 0.09868 0.23844 0.42073
 C480 C 0.10287 0.21123 0.42051
 C481 C 0.12149 0.20043 0.43516
 C482 C 0.13674 0.21640 0.45010
 C483 C 0.13397 0.24371 0.44903
 C484 C 0.11489 0.25482 0.43464
 C485 C 0.09161 0.29345 0.42223
 C486 C 0.11136 0.28201 0.43483
 H487 H 0.08952 0.31454 0.42328
 H488 H 0.12383 0.29463 0.44527
 H489 H 0.05154 0.31120 0.39941
 H490 H 0.02545 0.23563 0.37467
 H491 H 0.12353 0.17931 0.43539
 H492 H 0.14570 0.25617 0.46058
 H493 H 0.06029 0.21469 0.39327
 H494 H 0.09163 0.19778 0.40976
 C495 C 0.09808 0.73147 0.59311
 C496 C 0.08104 0.74716 0.60673
 C497 C 0.05974 0.73594 0.61694
 C498 C 0.05479 0.70919 0.61380
 C499 C 0.07208 0.69327 0.60147
 C500 C 0.09350 0.70426 0.59114
 C501 C 0.11944 0.74489 0.58034
 C502 C 0.13682 0.73159 0.56499
 C503 C 0.15447 0.74556 0.55086
 C504 C 0.15519 0.77302 0.55182
 C505 C 0.13928 0.78620 0.56862
 C506 C 0.12137 0.77250 0.58258
 C507 C 0.08486 0.77415 0.60939
 C508 C 0.10461 0.78655 0.59759
 H509 H 0.07195 0.78603 0.62013
 H510 H 0.10630 0.80764 0.59951
 H511 H 0.04658 0.74819 0.62694
 H512 H 0.06861 0.67250 0.59907
 H513 H 0.16658 0.73497 0.53798
 H514 H 0.13989 0.80743 0.56967
 H515 H 0.10594 0.69129 0.58126
 H516 H 0.13646 0.71056 0.56282
 C517 C 0.92037 0.75668 0.39293
 C518 C 0.91929 0.72905 0.39043
 C519 C 0.93839 0.71555 0.37807
 C520 C 0.95892 0.72919 0.36887
 C521 C 0.95928 0.75661 0.36995
 C522 C 0.94017 0.77026 0.38158
 C523 C 0.90133 0.77003 0.40911
 C524 C 0.90187 0.79713 0.41429
 C525 C 0.88550 0.80820 0.43182
 C526 C 0.86792 0.79271 0.44446
 C527 C 0.86622 0.76596 0.43831
 C528 C 0.88297 0.75448 0.42101
 C529 C 0.89991 0.71496 0.40155
 C530 C 0.88211 0.72741 0.41648
 H531 H 0.89892 0.69385 0.39941
 H532 H 0.86793 0.71552 0.42534
 H533 H 0.93818 0.69430 0.37738
 H534 H 0.97494 0.76743 0.36272
 H535 H 0.88698 0.82897 0.43590
 H536 H 0.85268 0.75382 0.44794
 H537 H 0.94182 0.79130 0.38238
 H538 H 0.91519 0.81007 0.40564
 C539 C 0.91194 0.25880 0.59135
 C540 C 0.93174 0.24316 0.59950
 C541 C 0.95131 0.25457 0.61272
 C542 C 0.95190 0.28159 0.61764
 C543 C 0.93188 0.29694 0.61054
 C544 C 0.91210 0.28574 0.59759
 C545 C 0.89219 0.24606 0.57572
 C546 C 0.87195 0.25984 0.56603
 C547 C 0.85469 0.24723 0.55054
 C548 C 0.85722 0.22063 0.54425
 C549 C 0.87700 0.20664 0.55428
 C550 C 0.89437 0.21905 0.56986
 C551 C 0.93234 0.21637 0.59375
 C552 C 0.91407 0.20458 0.57922
 H553 H 0.94743 0.20440 0.60015
 H554 H 0.91560 0.18385 0.57490
 H555 H 0.96652 0.24247 0.61861
 H556 H 0.93195 0.31787 0.61412
 H557 H 0.83954 0.25845 0.54312
 H558 H 0.87902 0.18599 0.54980
 H559 H 0.89746 0.29859 0.59210
 H560 H 0.86923 0.28038 0.56995
 C561 C 0.40031 0.10035 0.25493
 C562 C 0.38849 0.08192 0.23873
 C563 C 0.37644 0.06018 0.24948
 C564 C 0.37590 0.05634 0.27626
 C565 C 0.38603 0.07545 0.29246
 C566 C 0.39813 0.09726 0.28196
 C567 C 0.41584 0.12124 0.24245
 C568 C 0.43029 0.13911 0.25659
 C569 C 0.44688 0.15579 0.24394
 C570 C 0.44929 0.15517 0.21695
 C571 C 0.43364 0.13892 0.20270
 C572 C 0.41734 0.12179 0.21513
 C573 C 0.38971 0.08454 0.21184
 C574 C 0.40370 0.10416 0.20029
 H575 H 0.38031 0.07069 0.19948
 H576 H 0.40467 0.10482 0.17937
 H577 H 0.36841 0.04548 0.23695
 H578 H 0.38572 0.07276 0.31323
 H579 H 0.45872 0.16818 0.25539
 H580 H 0.43514 0.13846 0.18179
 H581 H 0.40631 0.11094 0.29526
 H582 H 0.42981 0.13972 0.27742
 C583 C 0.58169 0.08811 0.72629
 C584 C 0.57193 0.06239 0.72560
 C585 C 0.58611 0.04160 0.71642
 C586 C 0.61055 0.04553 0.70920
 C587 C 0.62002 0.07110 0.70886
 C588 C 0.60573 0.09223 0.71716
 C589 C 0.56650 0.10935 0.73830
 C590 C 0.57401 0.13582 0.73948
 C591 C 0.55986 0.15440 0.75261
 C592 C 0.53823 0.14684 0.76515
 C593 C 0.53012 0.12089 0.76320
 C594 C 0.54381 0.10227 0.74961
 C595 C 0.54859 0.05715 0.73549
 C596 C 0.53499 0.07659 0.74760
 H597 H 0.54114 0.03745 0.73482
 H598 H 0.51740 0.07134 0.75583
 H599 H 0.57851 0.02194 0.71625
 H600 H 0.63886 0.07460 0.70343
 H601 H 0.56619 0.17451 0.75365
 H602 H 0.51302 0.11519 0.77231
 H603 H 0.61417 0.11136 0.71737
 H604 H 0.59076 0.14250 0.73057
 C605 C 0.42217 0.92416 0.73054
 C606 C 0.41012 0.94474 0.74375
 C607 C 0.39885 0.96482 0.72988
 C608 C 0.39956 0.96530 0.70280
 C609 C 0.41078 0.94457 0.68955
 C610 C 0.42201 0.92420 0.70323
 C611 C 0.43508 0.90380 0.74640
 C612 C 0.44804 0.88258 0.73553
 C613 C 0.46084 0.86508 0.75131
 C614 C 0.46108 0.86842 0.77823
 C615 C 0.44753 0.88891 0.78918
 C616 C 0.43467 0.90647 0.77365
 C617 C 0.40977 0.94563 0.77076
 C618 C 0.42183 0.92696 0.78539
 H619 H 0.40039 0.96134 0.78079
 H620 H 0.42139 0.92882 0.80626
 H621 H 0.38972 0.98047 0.74027
 H622 H 0.41145 0.94450 0.66863
 H623 H 0.47109 0.84935 0.74239
 H624 H 0.44728 0.89149 0.80999
 H625 H 0.43077 0.90897 0.69213
 H626 H 0.44880 0.87940 0.71493
 C627 C 0.58394 0.88884 0.28684
 C628 C 0.60307 0.90164 0.27318
 C629 C 0.61359 0.92456 0.28312
 C630 C 0.60519 0.93525 0.30638
 C631 C 0.58726 0.92200 0.32071
 C632 C 0.57674 0.89894 0.31112
 C633 C 0.57102 0.86647 0.27379
 C634 C 0.55068 0.85335 0.28472
 C635 C 0.53699 0.83560 0.27001
 C636 C 0.54340 0.83057 0.24425
 C637 C 0.56483 0.84160 0.23407
 C638 C 0.57851 0.85957 0.24845
 C639 C 0.61072 0.89243 0.24901
 C640 C 0.59867 0.87185 0.23688
 H641 H 0.62561 0.90201 0.23879
 H642 H 0.60461 0.86619 0.21765
 H643 H 0.62748 0.93495 0.27211
 H644 H 0.58062 0.93017 0.33875
 H645 H 0.52048 0.82723 0.27820
 H646 H 0.56998 0.83748 0.21420
 H647 H 0.56244 0.88993 0.32249
 H648 H 0.54442 0.85741 0.30411
 C649 C 0.42391 0.28629 0.90963
 C650 C 0.39902 0.28097 0.91485
 C651 C 0.38754 0.29218 0.93657
 C652 C 0.40109 0.30677 0.95466
 C653 C 0.42599 0.31138 0.94952
 C654 C 0.43713 0.30170 0.92723
 C655 C 0.43572 0.27341 0.88681
 C656 C 0.45962 0.27950 0.87850
 C657 C 0.47081 0.26486 0.85902
 C658 C 0.45849 0.24383 0.84762
 C659 C 0.43418 0.23866 0.85443
 C660 C 0.42250 0.25378 0.87350
 C661 C 0.38623 0.26311 0.89937
 C662 C 0.39792 0.24919 0.87965
 H663 H 0.36720 0.25882 0.90339
 H664 H 0.38758 0.23461 0.86908
 H665 H 0.36859 0.28741 0.94050
 H666 H 0.43697 0.32299 0.96260
 H667 H 0.48958 0.26908 0.85377
 H668 H 0.42458 0.22257 0.84524
 H669 H 0.45633 0.30568 0.92465
 H670 H 0.47005 0.29519 0.88708
 C671 C 0.58016 0.73766 0.92986
 C672 C 0.57852 0.74633 0.95577
 C673 C 0.58952 0.73200 0.97558
 C674 C 0.60261 0.70882 0.97040
 C675 C 0.60508 0.70097 0.94438
 C676 C 0.59393 0.71503 0.92447
 C677 C 0.56714 0.75310 0.90945
 C678 C 0.56623 0.74546 0.88325
 C679 C 0.55328 0.76031 0.86521
 C680 C 0.54108 0.78321 0.87281
 C681 C 0.54209 0.79102 0.89878
 C682 C 0.55470 0.77614 0.91705
 C683 C 0.56594 0.76935 0.96191
 C684 C 0.55446 0.78404 0.94295
 H685 H 0.56489 0.77611 0.98175
 H686 H 0.54492 0.80168 0.94874
 H687 H 0.58850 0.73972 0.99506
 H688 H 0.61462 0.68316 0.93926
 H689 H 0.55276 0.75381 0.84530
 H690 H 0.53260 0.80855 0.90502
 H691 H 0.59615 0.70771 0.90504
 H692 H 0.57513 0.72796 0.87637
 C693 C 0.42125 0.72499 0.07979
 C694 C 0.39860 0.71258 0.08454
 C695 C 0.38546 0.70148 0.06385
 C696 C 0.39475 0.70265 0.03829
 C697 C 0.41865 0.71238 0.03470
 C698 C 0.43163 0.72333 0.05499
 C699 C 0.43332 0.73949 0.10133
 C700 C 0.45359 0.75591 0.09710
 C701 C 0.46415 0.76945 0.11745
 C702 C 0.45504 0.76694 0.14273
 C703 C 0.43454 0.75089 0.14725
 C704 C 0.42320 0.73773 0.12650
 C705 C 0.38915 0.71181 0.10983
 C706 C 0.40152 0.72354 0.13046
 H707 H 0.37198 0.70194 0.11374
 H708 H 0.39354 0.72223 0.14964
 H709 H 0.36738 0.69373 0.06763
 H710 H 0.42765 0.71154 0.01605
 H711 H 0.47996 0.78161 0.11337
 H712 H 0.42716 0.74913 0.16666
 H713 H 0.44977 0.73047 0.05078
 H714 H 0.46136 0.75899 0.07813
 C715 C 0.60889 0.25102 0.08450
 C716 C 0.61554 0.23474 0.06351
 C717 C 0.62687 0.24545 0.04159
 C718 C 0.63183 0.27251 0.03966
 C719 C 0.62676 0.28832 0.06138
 C720 C 0.61530 0.27779 0.08338
 C721 C 0.59447 0.23906 0.10637
 C722 C 0.58515 0.25371 0.12736
 C723 C 0.56946 0.24207 0.14556
 C724 C 0.56282 0.21560 0.14329
 C725 C 0.57335 0.20052 0.12354
 C726 C 0.58874 0.21200 0.10502
 C727 C 0.61032 0.20787 0.06408
 C728 C 0.59730 0.19672 0.08445
 H729 H 0.61581 0.19535 0.04816
 H730 H 0.59311 0.17595 0.08360
 H731 H 0.63200 0.23237 0.02598
 H732 H 0.63008 0.30923 0.06099
 H733 H 0.56153 0.25413 0.16063
 H734 H 0.56851 0.17996 0.12174
 H735 H 0.61109 0.29105 0.09900
 H736 H 0.58899 0.27435 0.12948
 C737 C 0.26018 0.08587 0.59172
 C738 C 0.28590 0.08750 0.59004
 C739 C 0.30038 0.06674 0.59925
 C740 C 0.28949 0.04341 0.60857
 C741 C 0.26384 0.04218 0.60990
 C742 C 0.24949 0.06298 0.60185
 C743 C 0.24528 0.10772 0.58087
 C744 C 0.21968 0.10825 0.58292
 C745 C 0.20628 0.12672 0.56937
 C746 C 0.21797 0.14544 0.55375
 C747 C 0.24357 0.14687 0.55367
 C748 C 0.25732 0.12804 0.56715
 C749 C 0.29687 0.10924 0.57799
 C750 C 0.28288 0.12880 0.56634
 H751 H 0.31656 0.11062 0.57659
 H752 H 0.29223 0.14456 0.55626
 H753 H 0.32003 0.06811 0.59728
 H754 H 0.25453 0.02525 0.61794
 H755 H 0.18655 0.12568 0.57032
 H756 H 0.25276 0.16150 0.54188
 H757 H 0.23001 0.06034 0.60318
 H758 H 0.20956 0.09419 0.59431
 C759 C 0.71187 0.08897 0.42494
 C760 C 0.70593 0.06622 0.43941
 C761 C 0.69401 0.04512 0.42760
 C762 C 0.68885 0.04559 0.40112
 C763 C 0.69320 0.06865 0.38709
 C764 C 0.70448 0.09022 0.39887
 C765 C 0.72743 0.10961 0.43751
 C766 C 0.73490 0.13293 0.42493
 C767 C 0.75142 0.15016 0.43673
 C768 C 0.76096 0.14423 0.46104
 C769 C 0.75278 0.12191 0.47420
 C770 C 0.73600 0.10477 0.46283
 C771 C 0.71345 0.06374 0.46508
 C772 C 0.72837 0.08249 0.47646
 H773 H 0.70867 0.04642 0.47618
 H774 H 0.73457 0.07915 0.49604
 H775 H 0.69047 0.02734 0.43854
 H776 H 0.68940 0.06936 0.36659
 H777 H 0.75742 0.16759 0.42652
 H778 H 0.75984 0.11772 0.49331
 H779 H 0.70841 0.10707 0.38694
 H780 H 0.72853 0.13794 0.40588
 C781 C 0.74655 0.91072 0.60251
 C782 C 0.75960 0.92999 0.61651
 C783 C 0.74716 0.95051 0.62871
 C784 C 0.72178 0.95286 0.62663
 C785 C 0.70863 0.93320 0.61384
 C786 C 0.72083 0.91229 0.60193
 C787 C 0.76089 0.89062 0.58762
 C788 C 0.74994 0.87081 0.57252
 C789 C 0.76420 0.85452 0.55676
 C790 C 0.78960 0.85770 0.55566
 C791 C 0.80073 0.87611 0.57190
 C792 C 0.78668 0.89247 0.58779
 C793 C 0.78510 0.92955 0.61724
 C794 C 0.79836 0.91131 0.60304
 H795 H 0.79503 0.94419 0.62819
 H796 H 0.81810 0.91242 0.60346
 H797 H 0.75738 0.96546 0.63896
 H798 H 0.68901 0.93465 0.61203
 H799 H 0.75523 0.84029 0.54448
 H800 H 0.82041 0.87838 0.57147
 H801 H 0.70992 0.89815 0.59162
 H802 H 0.73043 0.86809 0.57206
 C803 C 0.25311 0.90950 0.38832
 C804 C 0.27893 0.91058 0.38799
 C805 C 0.29105 0.93168 0.37586
 C806 C 0.27768 0.95199 0.36451
 C807 C 0.25224 0.94980 0.36316
 C808 C 0.24008 0.92876 0.37468
 C809 C 0.24077 0.88894 0.40457
 C810 C 0.21531 0.88817 0.40841
 C811 C 0.20486 0.87075 0.42607
 C812 C 0.21936 0.85326 0.44005
 C813 C 0.24459 0.85274 0.43531
 C814 C 0.25544 0.87080 0.41810
 C815 C 0.29238 0.89135 0.40089
 C816 C 0.28089 0.87176 0.41544
 H817 H 0.31214 0.89189 0.40035
 H818 H 0.29215 0.85780 0.42563
 H819 H 0.31075 0.93330 0.37691
 H820 H 0.24166 0.96513 0.35412
 H821 H 0.18532 0.87136 0.42922
 H822 H 0.25595 0.83940 0.44620
 H823 H 0.22046 0.92854 0.37346
 H824 H 0.20316 0.90146 0.39875
 C825 C 0.07342 0.39283 0.75968
 C826 C 0.07587 0.38717 0.73304
 C827 C 0.05613 0.37634 0.71935
 C828 C 0.03324 0.37257 0.73148
 C829 C 0.03138 0.37752 0.75819
 C830 C 0.05109 0.38724 0.77208
 C831 C 0.09409 0.40625 0.77318
 C832 C 0.09333 0.41240 0.79967
 C833 C 0.11156 0.42764 0.81077
 C834 C 0.13124 0.43703 0.79591
 C835 C 0.13320 0.42935 0.76990
 C836 C 0.11473 0.41406 0.75845
 C837 C 0.09751 0.39376 0.71992
 C838 C 0.11639 0.40721 0.73226
 H839 H 0.09951 0.38938 0.69952
 H840 H 0.13233 0.41277 0.72100
 H841 H 0.05811 0.37317 0.69874
 H842 H 0.01460 0.37367 0.76869
 H843 H 0.10984 0.43269 0.83103
 H844 H 0.14849 0.43618 0.75830
 H845 H 0.04809 0.39098 0.79234
 H846 H 0.07859 0.40616 0.81215
 C847 C 0.08534 0.59959 0.24826
 C848 C 0.06351 0.60373 0.23446
 C849 C 0.04363 0.61590 0.24647
 C850 C 0.04477 0.62433 0.27235
 C851 C 0.06732 0.62258 0.28513
 C852 C 0.08726 0.61013 0.27336
 C853 C 0.10496 0.58341 0.23569
 C854 C 0.12630 0.57544 0.24858
 C855 C 0.14288 0.55837 0.23665
 C856 C 0.13863 0.54900 0.21157
 C857 C 0.11801 0.55779 0.19827
 C858 C 0.10109 0.57441 0.21016
 C859 C 0.06128 0.59507 0.20893
 C860 C 0.07980 0.58098 0.19693
 H861 H 0.04472 0.59874 0.19822
 H862 H 0.07697 0.57424 0.17730
 H863 H 0.02709 0.61872 0.23547
 H864 H 0.06920 0.62897 0.30497
 H865 H 0.15868 0.55192 0.24733
 H866 H 0.11452 0.55085 0.17883
 H867 H 0.10376 0.60835 0.28445
 H868 H 0.13010 0.58150 0.26813
 C869 C 0.92407 0.41879 0.26422
 C870 C 0.91819 0.39561 0.27779
 C871 C 0.93661 0.38205 0.29117
 C872 C 0.96087 0.39172 0.29132
 C873 C 0.96516 0.41687 0.28087
 C874 C 0.94718 0.43011 0.26748
 C875 C 0.90548 0.43051 0.24688
 C876 C 0.91168 0.44973 0.22854
 C877 C 0.89406 0.46005 0.21242
 C878 C 0.86964 0.45197 0.21437
 C879 C 0.86323 0.43224 0.23216
 C880 C 0.88132 0.42072 0.24776
 C881 C 0.89410 0.38613 0.27742
 C882 C 0.87585 0.39898 0.26344
 H883 H 0.88925 0.36866 0.28824
 H884 H 0.85747 0.39112 0.26404
 H885 H 0.93223 0.36321 0.29966
 H886 H 0.98265 0.42656 0.28282
 H887 H 0.89952 0.47518 0.19884
 H888 H 0.84448 0.42550 0.23337
 H889 H 0.95175 0.44914 0.25965
 H890 H 0.93015 0.45669 0.22599
 C891 C 0.91666 0.60024 0.74216
 C892 C 0.91854 0.60153 0.71490
 C893 C 0.93997 0.61142 0.70314
 C894 C 0.96028 0.61867 0.71823
 C895 C 0.95786 0.61753 0.74533
 C896 C 0.93651 0.60869 0.75705
 C897 C 0.89421 0.58842 0.75406
 C898 C 0.89067 0.58692 0.78098
 C899 C 0.87109 0.57296 0.79131
 C900 C 0.85424 0.56042 0.77519
 C901 C 0.85637 0.56359 0.74829
 C902 C 0.87634 0.57744 0.73762
 C903 C 0.89948 0.59181 0.69964
 C904 C 0.87900 0.57971 0.71074
 H905 H 0.90079 0.59274 0.67875
 H906 H 0.86521 0.57166 0.69806
 H907 H 0.94132 0.61153 0.68224
 H908 H 0.97239 0.62413 0.75786
 H909 H 0.86952 0.57137 0.81214
 H910 H 0.84327 0.55417 0.73569
 H911 H 0.93629 0.60812 0.77787
 H912 H 0.90304 0.59584 0.79452
 C913 C 0.73087 0.60531 0.90395
 C914 C 0.74479 0.61966 0.92210
 C915 C 0.73382 0.62914 0.94474
 C916 C 0.70923 0.62386 0.95032
 C917 C 0.69510 0.61068 0.93191
 C918 C 0.70574 0.60155 0.90893
 C919 C 0.74397 0.59322 0.88133
 C920 C 0.73213 0.57806 0.86230
 C921 C 0.74566 0.56429 0.84374
 C922 C 0.77121 0.56532 0.84381
 C923 C 0.78301 0.58200 0.86126
 C924 C 0.76967 0.59592 0.87989
 C925 C 0.76988 0.62328 0.91835
 C926 C 0.78210 0.61145 0.89783
 H927 H 0.78045 0.63449 0.93215
 H928 H 0.80172 0.61387 0.89643
 H929 H 0.74476 0.63974 0.95871
 H930 H 0.67607 0.60638 0.93580
 H931 H 0.73621 0.55149 0.83040
 H932 H 0.80278 0.58306 0.86118
 H933 H 0.69422 0.59076 0.89584
 H934 H 0.71256 0.57583 0.86202
 C935 C 0.25193 0.38965 0.91974
 C936 C 0.27765 0.39187 0.91918
 C937 C 0.29166 0.38078 0.93914
 C938 C 0.28024 0.36811 0.96029
 C939 C 0.25478 0.36435 0.95934
 C940 C 0.24091 0.37475 0.93946
 C941 C 0.23741 0.40427 0.90002
 C942 C 0.21174 0.40533 0.90078
 C943 C 0.19906 0.42144 0.88388
 C944 C 0.21150 0.43660 0.86544
 C945 C 0.23698 0.43469 0.86348
 C946 C 0.25006 0.41904 0.88099
 C947 C 0.28912 0.40603 0.89926
 C948 C 0.27563 0.41915 0.88047
 H949 H 0.30884 0.40752 0.89853
 H950 H 0.28537 0.43033 0.86586
 H951 H 0.31118 0.38407 0.93905
 H952 H 0.24528 0.35311 0.97407
 H953 H 0.17939 0.42250 0.88562
 H954 H 0.24672 0.44661 0.84942
 H955 H 0.22153 0.37121 0.94026
 H956 H 0.20105 0.39468 0.91486
 C957 C 0.25339 0.60129 0.08782
 C958 C 0.27916 0.59954 0.08707
 C959 C 0.29238 0.61183 0.06701
 C960 C 0.28011 0.62546 0.04752
 C961 C 0.25487 0.62907 0.04964
 C962 C 0.24165 0.61737 0.06963
 C963 C 0.23964 0.58464 0.10686
 C964 C 0.21403 0.58239 0.10666
 C965 C 0.20211 0.56451 0.12273
 C966 C 0.21527 0.54873 0.13981
 C967 C 0.24069 0.55163 0.14116
 C968 C 0.25301 0.56901 0.12436
 C969 C 0.29136 0.58446 0.10552
 C970 C 0.27857 0.56978 0.12398
 H971 H 0.31110 0.58344 0.10527
 H972 H 0.28886 0.55796 0.13744
 H973 H 0.31195 0.60911 0.06545
 H974 H 0.24518 0.63993 0.03495
 H975 H 0.18245 0.56275 0.12153
 H976 H 0.25098 0.53928 0.15416
 H977 H 0.22221 0.62039 0.06986
 H978 H 0.20285 0.59350 0.09361
 C979 C 0.75448 0.39628 0.07681
 C980 C 0.76620 0.39182 0.05275
 C981 C 0.75340 0.38008 0.03240
 C982 C 0.72879 0.37301 0.03535
 C983 C 0.71757 0.37599 0.05958
 C984 C 0.73022 0.38744 0.08012
 C985 C 0.76807 0.41137 0.09713
 C986 C 0.75769 0.41826 0.12119
 C987 C 0.77036 0.43435 0.13845
 C988 C 0.79371 0.44391 0.13223
 C989 C 0.80462 0.43613 0.10887
 C990 C 0.79201 0.42020 0.09130
 C991 C 0.79031 0.40006 0.04872
 C992 C 0.80295 0.41391 0.06759
 H993 H 0.79935 0.39637 0.03038
 H994 H 0.82136 0.42044 0.06325
 H995 H 0.76232 0.37738 0.01382
 H996 H 0.69858 0.37066 0.06229
 H997 H 0.76152 0.43994 0.15639
 H998 H 0.82273 0.44321 0.10387
 H999 H 0.72045 0.38994 0.09810
 H1000 H 0.73961 0.41200 0.12680
 C1001 C 0.92450 0.74362 0.59435
 C1002 C 0.94519 0.75809 0.60243
 C1003 C 0.96492 0.74526 0.61392
 C1004 C 0.96470 0.71798 0.61726
 C1005 C 0.94378 0.70377 0.61040
 C1006 C 0.92389 0.71638 0.59909
 C1007 C 0.90472 0.75789 0.58017
 C1008 C 0.88383 0.74530 0.57022
 C1009 C 0.86693 0.75920 0.55544
 C1010 C 0.87039 0.78596 0.55026
 C1011 C 0.89057 0.79885 0.56104
 C1012 C 0.90770 0.78511 0.57572
 C1013 C 0.94650 0.78517 0.59828
 C1014 C 0.92816 0.79839 0.58523
 H1015 H 0.96225 0.79625 0.60469
 H1016 H 0.93031 0.81926 0.58200
 H1017 H 0.98085 0.75646 0.61965
 H1018 H 0.94320 0.68268 0.61282
 H1019 H 0.85148 0.74876 0.54744
 H1020 H 0.89338 0.81958 0.55739
 H1021 H 0.90853 0.70437 0.59364
 H1022 H 0.88047 0.72467 0.57312
 C1023 C 0.90359 0.24873 0.39249
 C1024 C 0.90602 0.27638 0.39330
 C1025 C 0.92698 0.28855 0.38293
 C1026 C 0.94601 0.27342 0.37264
 C1027 C 0.94311 0.24620 0.37083
 C1028 C 0.92212 0.23398 0.38037
 C1029 C 0.88244 0.23625 0.40642
 C1030 C 0.87910 0.20889 0.40774
 C1031 C 0.86146 0.19804 0.42408
 C1032 C 0.84637 0.21410 0.43924
 C1033 C 0.84800 0.24141 0.43630
 C1034 C 0.86610 0.25258 0.42026
 C1035 C 0.88823 0.29153 0.40580
 C1036 C 0.86878 0.27989 0.41909
 H1037 H 0.88993 0.31270 0.40622
 H1038 H 0.85609 0.29245 0.42935
 H1039 H 0.92928 0.30961 0.38453
 H1040 H 0.95757 0.23426 0.36275
 H1041 H 0.86029 0.17689 0.42564
 H1042 H 0.83639 0.25401 0.44787
 H1043 H 0.92130 0.21292 0.37898
 H1044 H 0.89049 0.19544 0.39712
 C1045 C 0.08415 0.26301 0.59750
 C1046 C 0.06584 0.24739 0.60936
 C1047 C 0.04524 0.25915 0.62038
 C1048 C 0.04213 0.28638 0.61954
 C1049 C 0.06070 0.30208 0.60901
 C1050 C 0.08153 0.29056 0.59808
 C1051 C 0.10472 0.24931 0.58377
 C1052 C 0.12346 0.26273 0.57034
 C1053 C 0.14075 0.24893 0.55572
 C1054 C 0.13974 0.22150 0.55414
 C1055 C 0.12206 0.20797 0.56864
 C1056 C 0.10461 0.22154 0.58326
 C1057 C 0.06759 0.22004 0.60929
 C1058 C 0.08654 0.20738 0.59648
 H1059 H 0.05366 0.20817 0.61863
 H1060 H 0.08667 0.18613 0.59634
 H1061 H 0.03104 0.24698 0.62890
 H1062 H 0.05865 0.32318 0.60830
 H1063 H 0.15427 0.25983 0.54473
 H1064 H 0.12131 0.18674 0.56780
 H1065 H 0.09499 0.30346 0.58957
 H1066 H 0.12466 0.28384 0.57028
 C1067 C 0.08687 0.73109 0.41347
 C1068 C 0.06325 0.73278 0.42446
 C1069 C 0.04311 0.72265 0.41135
 C1070 C 0.04540 0.71173 0.38644
 C1071 C 0.06914 0.70860 0.37624
 C1072 C 0.08956 0.71821 0.38951
 C1073 C 0.10761 0.74410 0.42748
 C1074 C 0.13207 0.74370 0.41864
 C1075 C 0.15034 0.75749 0.43193
 C1076 C 0.14441 0.77228 0.45389
 C1077 C 0.12040 0.77207 0.46320
 C1078 C 0.10216 0.75800 0.45049
 C1079 C 0.05950 0.74551 0.44810
 C1080 C 0.07850 0.75809 0.46069
 H1081 H 0.04139 0.74656 0.45658
 H1082 H 0.07450 0.76838 0.47855
 H1083 H 0.02544 0.72353 0.42081
 H1084 H 0.07204 0.70036 0.35720
 H1085 H 0.16892 0.75713 0.42470
 H1086 H 0.11590 0.78289 0.48064
 H1087 H 0.10716 0.71621 0.38028
 H1088 H 0.13737 0.73303 0.40152
 C1089 C 0.61179 0.91584 0.76392
 C1090 C 0.61884 0.91137 0.73792
 C1091 C 0.63073 0.93130 0.72373
 C1092 C 0.63359 0.95650 0.73445
 C1093 C 0.62798 0.96011 0.76076
 C1094 C 0.61763 0.94005 0.77538
 C1095 C 0.59611 0.89584 0.77726
 C1096 C 0.58785 0.89894 0.80288
 C1097 C 0.57006 0.88233 0.81307
 C1098 C 0.56022 0.86194 0.79820
 C1099 C 0.57001 0.85707 0.77350
 C1100 C 0.58782 0.87398 0.76290
 C1101 C 0.61201 0.88801 0.72560
 C1102 C 0.59654 0.86988 0.73770
 H1103 H 0.61752 0.88440 0.70577
 H1104 H 0.59066 0.85285 0.72683
 H1105 H 0.63480 0.92809 0.70344
 H1106 H 0.63104 0.97889 0.77001
 H1107 H 0.56341 0.88606 0.83249
 H1108 H 0.56286 0.84107 0.76199
 H1109 H 0.61305 0.94458 0.79516
 H1110 H 0.59428 0.91452 0.81519
 C1111 C 0.40733 0.91481 0.25698
 C1112 C 0.40462 0.93767 0.24188
 C1113 C 0.39284 0.95972 0.25214
 C1114 C 0.38390 0.96013 0.27782
 C1115 C 0.38640 0.93703 0.29258
 C1116 C 0.39791 0.91482 0.28238
 C1117 C 0.42069 0.89193 0.24535
 C1118 C 0.42432 0.86807 0.25854
 C1119 C 0.43809 0.84798 0.24732
 C1120 C 0.44863 0.85115 0.22271
 C1121 C 0.44429 0.87439 0.20905
 C1122 C 0.43045 0.89464 0.22007
 C1123 C 0.41395 0.93867 0.21663
 C1124 C 0.42674 0.91771 0.20604
 H1125 H 0.41176 0.95617 0.20501
 H1126 H 0.43403 0.91971 0.18661
 H1127 H 0.39013 0.97635 0.23950
 H1128 H 0.38060 0.93618 0.31257
 H1129 H 0.44111 0.83021 0.25828
 H1130 H 0.45212 0.87700 0.18991
 H1131 H 0.39966 0.89805 0.29491
 H1132 H 0.41700 0.86468 0.27765
 C1133 C 0.58100 0.07346 0.26339
 C1134 C 0.56926 0.04881 0.26441
 C1135 C 0.57937 0.02824 0.27866
 C1136 C 0.60220 0.03074 0.29106
 C1137 C 0.61401 0.05539 0.28933
 C1138 C 0.60355 0.07635 0.27592
 C1139 C 0.56897 0.09516 0.24859
 C1140 C 0.57759 0.12128 0.24857
 C1141 C 0.56541 0.14075 0.23464
 C1142 C 0.54480 0.13446 0.21996
 C1143 C 0.53608 0.10864 0.21993
 C1144 C 0.54755 0.08921 0.23458
 C1145 C 0.54755 0.04453 0.25087
 C1146 C 0.53725 0.06411 0.23581
 H1147 H 0.53863 0.02553 0.25149
 H1148 H 0.52068 0.05966 0.22535
 H1149 H 0.56866 0.01049 0.28042
 H1150 H 0.63188 0.05870 0.29737
 H1151 H 0.57223 0.16070 0.23514
 H1152 H 0.51973 0.10386 0.20917
 H1153 H 0.61371 0.09450 0.27505
 H1154 H 0.59338 0.12710 0.25953
 C1155 C 0.40230 0.10642 0.72613
 C1156 C 0.40833 0.10241 0.69975
 C1157 C 0.39987 0.07991 0.68682
 C1158 C 0.38624 0.06091 0.70016
 C1159 C 0.37952 0.06532 0.72590
 C1160 C 0.38719 0.08790 0.73871
 C1161 C 0.41409 0.12883 0.74012
 C1162 C 0.41019 0.13359 0.76664
 C1163 C 0.42480 0.15142 0.77989
 C1164 C 0.44325 0.16542 0.76698
 C1165 C 0.44550 0.16303 0.74006
 C1166 C 0.43130 0.14454 0.72660
 C1167 C 0.42399 0.11997 0.68696
 C1168 C 0.43536 0.14048 0.70014
 H1169 H 0.42842 0.11709 0.66671
 H1170 H 0.44823 0.15274 0.68966
 H1171 H 0.40524 0.07627 0.66693
 H1172 H 0.36899 0.05073 0.73639
 H1173 H 0.42251 0.15328 0.80062
 H1174 H 0.45977 0.17378 0.72998
 H1175 H 0.38194 0.08982 0.75873
 H1176 H 0.39679 0.12292 0.77781
 C1177 C 0.58167 0.70507 0.10858
 C1178 C 0.56748 0.68961 0.09157
 C1179 C 0.57784 0.68005 0.06855
 C1180 C 0.60237 0.68511 0.06261
 C1181 C 0.61699 0.69809 0.08069
 C1182 C 0.60680 0.70800 0.10345
 C1183 C 0.56897 0.71886 0.13040
 C1184 C 0.58029 0.73878 0.14503
 C1185 C 0.56670 0.75391 0.16238
 C1186 C 0.54188 0.74880 0.16629
 C1187 C 0.53076 0.72799 0.15317
 C1188 C 0.54385 0.71366 0.13457
 C1189 C 0.54286 0.68467 0.09718
 C1190 C 0.53145 0.69595 0.11860
 H1191 H 0.53212 0.67233 0.08452
 H1192 H 0.51222 0.69200 0.12177
 H1193 H 0.56662 0.66964 0.05470
 H1194 H 0.63605 0.70195 0.07644
 H1195 H 0.57534 0.77035 0.17199
 H1196 H 0.51130 0.72474 0.15554
 H1197 H 0.61871 0.71852 0.11638
 H1198 H 0.59917 0.74410 0.14216
 C1199 C 0.42961 0.28917 0.09128
 C1200 C 0.44355 0.30167 0.07167
 C1201 C 0.43186 0.31446 0.05117
 C1202 C 0.40631 0.31429 0.04932
 C1203 C 0.39257 0.30325 0.06961
 C1204 C 0.40400 0.29103 0.09038
 C1205 C 0.44269 0.27314 0.11115
 C1206 C 0.43046 0.25873 0.13066
 C1207 C 0.44334 0.24206 0.14706
 C1208 C 0.46860 0.23958 0.14445
 C1209 C 0.48114 0.25454 0.12598
 C1210 C 0.46842 0.27124 0.10930
 C1211 C 0.46905 0.30015 0.07185
 C1212 C 0.48121 0.28522 0.09023
 H1213 H 0.47975 0.30994 0.05701
 H1214 H 0.50092 0.28400 0.08903
 H1215 H 0.44270 0.32339 0.03592
 H1216 H 0.37285 0.30261 0.06873
 H1217 H 0.43351 0.23049 0.16129
 H1218 H 0.50076 0.25245 0.12404
 H1219 H 0.39240 0.28221 0.10490
 H1220 H 0.41094 0.25951 0.13318
 C1221 C 0.60615 0.25162 0.90152
 C1222 C 0.61426 0.23425 0.92098
 C1223 C 0.62800 0.24373 0.94179
 C1224 C 0.63314 0.27059 0.94421
 C1225 C 0.62610 0.28760 0.92432
 C1226 C 0.61290 0.27828 0.90317
 C1227 C 0.58949 0.24112 0.88102
 C1228 C 0.57990 0.25678 0.86106
 C1229 C 0.56256 0.24663 0.84402
 C1230 C 0.55434 0.22068 0.84646
 C1231 C 0.56478 0.20455 0.86532
 C1232 C 0.58220 0.21450 0.88251
 C1233 C 0.60755 0.20775 0.92035
 C1234 C 0.59173 0.19813 0.90163
 H1235 H 0.61392 0.19441 0.93513
 H1236 H 0.58642 0.17766 0.90252
 H1237 H 0.63374 0.23032 0.95681
 H1238 H 0.62968 0.30844 0.92573
 H1239 H 0.55489 0.25944 0.82951
 H1240 H 0.55883 0.18433 0.86712
 H1241 H 0.60734 0.29244 0.88893
 H1242 H 0.58511 0.27704 0.85863
 C1243 C 0.39590 0.74758 0.90629
 C1244 C 0.39728 0.71985 0.90617
 C1245 C 0.38652 0.70529 0.92635
 C1246 C 0.37519 0.71812 0.94711
 C1247 C 0.37274 0.74539 0.94657
 C1248 C 0.38269 0.75998 0.92629
 C1249 C 0.41045 0.76257 0.88655
 C1250 C 0.41143 0.79016 0.88612
 C1251 C 0.42819 0.80319 0.87033
 C1252 C 0.44409 0.78918 0.85417
 C1253 C 0.44171 0.76183 0.85258
 C1254 C 0.42525 0.74841 0.86891
 C1255 C 0.41078 0.70697 0.88694
 C1256 C 0.42454 0.72095 0.86876
 H1257 H 0.41162 0.68575 0.88664
 H1258 H 0.43555 0.71007 0.85501
 H1259 H 0.38865 0.68417 0.92700
 H1260 H 0.36408 0.75551 0.96258
 H1261 H 0.42936 0.82436 0.87152
 H1262 H 0.45390 0.75084 0.84009
 H1263 H 0.38083 0.78097 0.92740
 H1264 H 0.40017 0.80207 0.89854
 C1265 C 0.74142 0.91340 0.40637
 C1266 C 0.75166 0.93762 0.39833
 C1267 C 0.73677 0.95705 0.38769
 C1268 C 0.71156 0.95309 0.38540
 C1269 C 0.70161 0.92859 0.39189
 C1270 C 0.71634 0.90890 0.40219
 C1271 C 0.75751 0.89436 0.42029
 C1272 C 0.74898 0.87028 0.43035
 C1273 C 0.76415 0.85448 0.44535
 C1274 C 0.78815 0.86229 0.45067
 C1275 C 0.79717 0.88552 0.43961
 C1276 C 0.78211 0.90158 0.42467
 C1277 C 0.77646 0.94288 0.40205
 C1278 C 0.79136 0.92524 0.41495
 H1279 H 0.78431 0.96130 0.39561
 H1280 H 0.81027 0.93058 0.41804
 H1281 H 0.74463 0.97582 0.38226
 H1282 H 0.68218 0.92512 0.39025
 H1283 H 0.75679 0.83655 0.45352
 H1284 H 0.81580 0.89159 0.44329
 H1285 H 0.70758 0.89073 0.40758
 H1286 H 0.73052 0.86359 0.42742
 C1287 C 0.27009 0.90489 0.59570
 C1288 C 0.29498 0.90898 0.58933
 C1289 C 0.30773 0.93036 0.60001
 C1290 C 0.29577 0.94795 0.61656
 C1291 C 0.27177 0.94265 0.62440
 C1292 C 0.25913 0.92126 0.61437
 C1293 C 0.25604 0.88461 0.58094
 C1294 C 0.23062 0.88146 0.58365
 C1295 C 0.21779 0.86486 0.56723
 C1296 C 0.22990 0.85048 0.54803
 C1297 C 0.25540 0.85209 0.54611
 C1298 C 0.26848 0.86954 0.56203
 C1299 C 0.30651 0.89261 0.57128
 C1300 C 0.29360 0.87314 0.55811
 H1301 H 0.32565 0.89543 0.56666
 H1302 H 0.30321 0.86153 0.54380
 H1303 H 0.32632 0.93449 0.59391
 H1304 H 0.26238 0.95597 0.63736
 H1305 H 0.19812 0.86370 0.56917
 H1306 H 0.26482 0.84117 0.53112
 H1307 H 0.24052 0.91860 0.62071
 H1308 H 0.22009 0.89239 0.59759
 C1309 C 0.25684 0.09020 0.40142
 C1310 C 0.24302 0.07128 0.38779
 C1311 C 0.25475 0.05094 0.37456
 C1312 C 0.28018 0.04830 0.37528
 C1313 C 0.29403 0.06747 0.38799
 C1314 C 0.28254 0.08825 0.40088
 C1315 C 0.24333 0.11050 0.41688
 C1316 C 0.25508 0.13034 0.43124
 C1317 C 0.24161 0.14727 0.44709
 C1318 C 0.21620 0.14466 0.44911
 C1319 C 0.20427 0.12595 0.43390
 C1320 C 0.21752 0.10905 0.41779
 C1321 C 0.21751 0.07198 0.38829
 C1322 C 0.20503 0.09031 0.40317
 H1323 H 0.20699 0.05756 0.37770
 H1324 H 0.18528 0.08948 0.40360
 H1325 H 0.24393 0.03646 0.36435
 H1326 H 0.31370 0.06583 0.38882
 H1327 H 0.25118 0.16169 0.45862
 H1328 H 0.18457 0.12413 0.43505
 H1329 H 0.29401 0.10205 0.41095
 H1330 H 0.27464 0.13274 0.43088
 C1331 C 0.74548 0.09407 0.60931
 C1332 C 0.71983 0.09120 0.60756
 C1333 C 0.70817 0.06944 0.61895
 C1334 C 0.72188 0.04995 0.63118
 C1335 C 0.74709 0.05334 0.63377
 C1336 C 0.75876 0.07519 0.62322
 C1337 C 0.75759 0.11576 0.59443
 C1338 C 0.78307 0.11939 0.59404
 C1339 C 0.79385 0.13678 0.57663
 C1340 C 0.77957 0.15147 0.55966
 C1341 C 0.75408 0.15006 0.56163
 C1342 C 0.74299 0.13201 0.57865
 C1343 C 0.70623 0.10917 0.59316
 C1344 C 0.71758 0.12904 0.57887
 H1345 H 0.68658 0.10715 0.59200
 H1346 H 0.70633 0.14168 0.56711
 H1347 H 0.68866 0.06673 0.61678
 H1348 H 0.75790 0.03856 0.64338
 H1349 H 0.81358 0.13793 0.57564
 H1350 H 0.74298 0.16137 0.54846
 H1351 H 0.77828 0.07627 0.62531
 H1352 H 0.79511 0.10825 0.60616
 C1353 C 0.91535 0.58868 0.26408
 C1354 C 0.93522 0.57395 0.27362
 C1355 C 0.95542 0.58674 0.28432
 C1356 C 0.95634 0.61413 0.28570
 C1357 C 0.93610 0.62871 0.27785
 C1358 C 0.91579 0.61617 0.26712
 C1359 C 0.89537 0.57433 0.25016
 C1360 C 0.87578 0.58713 0.23784
 C1361 C 0.85894 0.57288 0.22310
 C1362 C 0.86122 0.54571 0.22072
 C1363 C 0.87990 0.53271 0.23366
 C1364 C 0.89709 0.54671 0.24804
 C1365 C 0.93528 0.54660 0.27161
 C1366 C 0.91653 0.53325 0.25924
 H1367 H 0.95036 0.53535 0.27921
 H1368 H 0.91770 0.51209 0.25766
 H1369 H 0.97096 0.57542 0.29076
 H1370 H 0.93649 0.64992 0.27888
 H1371 H 0.84462 0.58312 0.21297
 H1372 H 0.88160 0.51165 0.23159
 H1373 H 0.90097 0.62835 0.26073
 H1374 H 0.87359 0.60811 0.23869
 C1375 C 0.90241 0.40722 0.73733
 C1376 C 0.91766 0.39292 0.75417
 C1377 C 0.93833 0.38009 0.74449
 C1378 C 0.94473 0.38175 0.71824
 C1379 C 0.92920 0.39505 0.70133
 C1380 C 0.90824 0.40761 0.71070
 C1381 C 0.88160 0.42241 0.74895
 C1382 C 0.86546 0.43770 0.73417
 C1383 C 0.84798 0.45355 0.74624
 C1384 C 0.84622 0.45456 0.77328
 C1385 C 0.86117 0.43821 0.78805
 C1386 C 0.87872 0.42223 0.77618
 C1387 C 0.91287 0.39236 0.78077
 C1388 C 0.89392 0.40684 0.79155
 H1389 H 0.92446 0.38123 0.79359
 H1390 H 0.89148 0.40645 0.81236
 H1391 H 0.95002 0.36944 0.75763
 H1392 H 0.93377 0.39663 0.68099
 H1393 H 0.83658 0.46595 0.73442
 H1394 H 0.85972 0.43858 0.80896
 H1395 H 0.89731 0.41816 0.69695
 H1396 H 0.86645 0.43823 0.71335
 C1397 C 0.08740 0.59638 0.75147
 C1398 C 0.08691 0.59523 0.72413
 C1399 C 0.06823 0.60791 0.71049
 C1400 C 0.04968 0.62121 0.72384
 C1401 C 0.05108 0.62367 0.75074
 C1402 C 0.06976 0.61163 0.76441
 C1403 C 0.10574 0.58005 0.76550
 C1404 C 0.10631 0.57827 0.79265
 C1405 C 0.12192 0.56078 0.80483
 C1406 C 0.13767 0.54479 0.79040
 C1407 C 0.13826 0.54735 0.76339
 C1408 C 0.12216 0.56455 0.75084
 C1409 C 0.10435 0.58040 0.71071
 C1410 C 0.12166 0.56549 0.72377
 H1411 H 0.10419 0.57974 0.68978
 H1412 H 0.13433 0.55383 0.71249
 H1413 H 0.06717 0.60595 0.68965
 H1414 H 0.03708 0.63417 0.76133
 H1415 H 0.12131 0.55944 0.82572
 H1416 H 0.15034 0.53502 0.75206
 H1417 H 0.06948 0.61383 0.78513
 H1418 H 0.09439 0.58961 0.80491
 C1419 C 0.08889 0.39237 0.25813
 C1420 C 0.06952 0.38192 0.24328
 C1421 C 0.04924 0.37056 0.25557
 C1422 C 0.04764 0.36976 0.28257
 C1423 C 0.06751 0.37823 0.29730
 C1424 C 0.08799 0.38937 0.28524
 C1425 C 0.10850 0.40769 0.24435
 C1426 C 0.12761 0.42074 0.25730
 C1427 C 0.14375 0.43717 0.24378
 C1428 C 0.14123 0.44092 0.21709
 C1429 C 0.12320 0.42680 0.20387
 C1430 C 0.10679 0.41053 0.21720
 C1431 C 0.06976 0.38418 0.21634
 C1432 C 0.08806 0.39811 0.20356
 H1433 H 0.05510 0.37583 0.20500
 H1434 H 0.08698 0.40004 0.18274
 H1435 H 0.03389 0.36382 0.24419
 H1436 H 0.06653 0.37771 0.31821
 H1437 H 0.15764 0.44770 0.25440
 H1438 H 0.12130 0.42923 0.18316
 H1439 H 0.10240 0.39649 0.29752
 H1440 H 0.12995 0.41916 0.27792
   
