data_POSCAR
  _audit_creation_date              2014-09-24
  _audit_creation_method            'ToBaCCo'
  _symmetry_space_group_name_H-M    'P1'
  _symmetry_Int_Tables_number       1
  _symmetry_cell_setting            triclinic
  loop_
  _symmetry_equiv_pos_as_xyz
 x,y,z
_cell_length_a 45.9778
_cell_length_b 45.3784
_cell_length_c 45.9790
_cell_angle_alpha 89.318100
_cell_angle_beta 89.866300
_cell_angle_gamma 90.405200
loop_
  _atom_site_label
  _atom_site_type_symbol
  _atom_site_fract_x
  _atom_site_fract_y
  _atom_site_fract_z
C1 C 0.37880 1.35888 0.33888
 C2 C 0.37797 1.34252 0.36498
 C3 C 0.35427 1.34468 0.38352
 C4 C 0.33101 1.36296 0.37603
 C5 C 0.33154 1.37879 0.34997
 C6 C 0.35561 1.37681 0.33130
 C7 C 0.39564 1.35567 0.31433
 N8 N 0.38336 1.37124 0.29236
 C9 C 0.35876 1.38398 0.30218
 C10 C 0.30363 1.38844 0.34492
 N11 N 0.28672 1.37902 0.36731
 C12 C 0.30290 1.36332 0.38632
 C13 C 0.35577 1.32162 0.40323
 N14 N 0.37951 1.30554 0.39688
 C15 C 0.39337 1.31804 0.37369
 H16 H 0.41340 1.34036 0.31175
 H17 H 0.34275 1.39467 0.28850
 H18 H 0.29564 1.39860 0.32510
 H19 H 0.29423 1.35043 0.40437
 H20 H 0.33914 1.31505 0.41876
 H21 H 0.41139 1.30830 0.36214
 C22 C 0.36494 0.84733 0.83741
 C23 C 0.36221 0.82757 0.86118
 C24 C 0.33744 0.82799 0.87861
 C25 C 0.31517 0.84815 0.87254
 C26 C 0.31824 0.86789 0.84949
 C27 C 0.34304 0.86743 0.83193
 C28 C 0.38468 0.85007 0.81468
 N29 N 0.37490 0.87124 0.79607
 C30 C 0.34954 0.88197 0.80638
 C31 C 0.29232 0.88230 0.84611
 N32 N 0.27371 0.87177 0.86650
 C33 C 0.28702 0.85076 0.88276
 C34 C 0.33966 0.80520 0.89859
 N35 N 0.36509 0.79123 0.89380
 C36 C 0.37904 0.80446 0.87096
 H37 H 0.40388 0.83688 0.81126
 H38 H 0.33617 0.89818 0.79542
 H39 H 0.28661 0.89739 0.82864
 H40 H 0.27644 0.83697 0.89905
 H41 H 0.32374 0.79879 0.91490
 H42 H 0.39948 0.79737 0.86175
 C43 C 0.88061 1.36709 0.83208
 C44 C 0.88216 1.34817 0.85620
 C45 C 0.85847 1.34476 0.87474
 C46 C 0.83319 1.36146 0.86982
 C47 C 0.83186 1.38047 0.84590
 C48 C 0.85541 1.38274 0.82654
 C49 C 0.89653 1.36683 0.80679
 N50 N 0.88151 1.38137 0.78602
 C51 C 0.85639 1.39132 0.79763
 C52 C 0.80350 1.38966 0.84329
 N53 N 0.78788 1.37721 0.86517
 C54 C 0.80537 1.35948 0.88125
 C55 C 0.86358 1.31972 0.89141
 N56 N 0.88961 1.30842 0.88315
 C57 C 0.90109 1.32556 0.86187
 H58 H 0.91516 1.35301 0.80259
 H59 H 0.83841 1.40004 0.78510
 H60 H 0.79443 1.40249 0.82553
 H61 H 0.79800 1.34461 0.89837
 H62 H 0.84840 1.30906 0.90624
 H63 H 0.92035 1.32020 0.84946
 C64 C 0.86546 0.84911 0.32928
 C65 C 0.86491 0.83067 0.35401
 C66 C 0.84461 0.83516 0.37582
 C67 C 0.82461 0.85822 0.37314
 C68 C 0.82503 0.87641 0.34864
 C69 C 0.84556 0.87181 0.32652
 C70 C 0.88014 0.84726 0.30321
 N71 N 0.86973 0.86834 0.28503
 C72 C 0.84844 0.88334 0.29872
 C73 C 0.80157 0.89504 0.35073
 N74 N 0.78727 0.88850 0.37577
 C75 C 0.80097 0.86605 0.38969
 C76 C 0.84733 0.81237 0.39577
 N77 N 0.86873 0.79444 0.38644
 C78 C 0.87965 0.80526 0.36098
 H79 H 0.89539 0.83032 0.29711
 H80 H 0.83455 0.89960 0.28849
 H81 H 0.79478 0.91136 0.33483
 H82 H 0.79369 0.85557 0.40971
 H83 H 0.83410 0.80849 0.41496
 H84 H 0.89627 0.79485 0.34802
 C85 C 0.63380 0.65216 0.32534
 C86 C 0.62880 0.67448 0.34568
 C87 C 0.64597 0.67628 0.37048
 C88 C 0.66846 0.65593 0.37518
 C89 C 0.67310 0.63385 0.35519
 C90 C 0.65567 0.63185 0.33035
 C91 C 0.62337 0.64725 0.29759
 N92 N 0.63822 0.62430 0.28634
 C93 C 0.65806 0.61486 0.30593
 C94 C 0.69766 0.61890 0.36356
 N95 N 0.70802 0.63137 0.38815
 C96 C 0.69049 0.65399 0.39559
 C97 C 0.63729 0.70088 0.38541
 N98 N 0.61534 0.71378 0.37031
 C99 C 0.61002 0.69809 0.34599
 H100 H 0.60798 0.66072 0.28573
 H101 H 0.67465 0.59862 0.30171
 H102 H 0.70788 0.60108 0.35200
 H103 H 0.69418 0.66858 0.41369
 H104 H 0.64652 0.70904 0.40542
 H105 H 0.59401 0.70369 0.32965
 C106 C 0.62171 0.14207 0.83520
 C107 C 0.62070 0.15764 0.86143
 C108 C 0.64284 0.15442 0.88160
 C109 C 0.66646 0.13626 0.87562
 C110 C 0.66816 0.12168 0.84929
 C111 C 0.64542 0.12432 0.82901
 C112 C 0.60567 0.14470 0.81001
 N113 N 0.61878 0.12875 0.78909
 C114 C 0.64332 0.11664 0.80007
 C115 C 0.69650 0.11208 0.84652
 N116 N 0.71131 0.12024 0.87062
 C117 C 0.69338 0.13505 0.88841
 C118 C 0.63984 0.17630 0.90183
 N119 N 0.61670 0.19282 0.89432
 C120 C 0.60463 0.18171 0.86978
 H121 H 0.58737 0.15919 0.80646
 H122 H 0.65957 0.10528 0.78742
 H123 H 0.70630 0.10291 0.82723
 H124 H 0.70032 0.14708 0.90742
 H125 H 0.65513 0.18179 0.91884
 H126 H 0.58745 0.19209 0.85738
 C127 C 1.14554 0.65051 0.82971
 C128 C 1.14329 0.67254 0.85130
 C129 C 1.16465 0.67434 0.87256
 C130 C 1.18832 0.65532 0.87250
 C131 C 1.19081 0.63419 0.85129
 C132 C 1.16925 0.63156 0.83005
 C133 C 1.12932 0.64316 0.80532
 N134 N 1.14284 0.62046 0.79168
 C135 C 1.16717 0.61343 0.80645
 C136 C 1.21810 0.62202 0.85395
 N137 N 1.23163 0.63538 0.87638
 C138 C 1.21388 0.65575 0.88788
 C139 C 1.15895 0.69815 0.88960
 N140 N 1.13473 0.71125 0.87957
 C141 C 1.12467 0.69612 0.85611
 H142 H 1.10954 0.65363 0.79796
 H143 H 1.18238 0.59651 0.80024
 H144 H 1.22822 0.60672 0.83921
 H145 H 1.22013 0.67151 0.90428
 H146 H 1.17202 0.70607 0.90748
 H147 H 1.10598 0.70223 0.84317
 C148 C 1.12532 0.14479 0.32077
 C149 C 1.12331 0.16541 0.34308
 C150 C 1.14508 0.16736 0.36388
 C151 C 1.16904 0.14828 0.36270
 C152 C 1.17067 0.12751 0.34083
 C153 C 1.14886 0.12591 0.31969
 C154 C 1.11171 0.14364 0.29414
 N155 N 1.12644 0.12460 0.27729
 C156 C 1.14914 0.11364 0.29247
 C157 C 1.19835 0.11624 0.34109
 N158 N 1.21338 0.12942 0.36257
 C159 C 1.19605 0.14926 0.37583
 C160 C 1.13979 0.19246 0.37970
 N161 N 1.11541 0.20528 0.36893
 C162 C 1.10527 0.18918 0.34657
 H163 H 1.09492 0.15838 0.28638
 H164 H 1.16661 0.10090 0.28317
 H165 H 1.20778 0.10200 0.32490
 H166 H 1.20338 0.16525 0.39154
 H167 H 1.15342 0.20152 0.39660
 H168 H 1.08707 0.19525 0.33291
 C169 C 0.62857 1.35517 0.67116
 C170 C 0.62894 1.33650 0.64698
 C171 C 0.64968 1.34066 0.62529
 C172 C 0.67025 1.36357 0.62756
 C173 C 0.66955 1.38218 0.65124
 C174 C 0.64868 1.37799 0.67306
 C175 C 0.61470 1.35311 0.69778
 N176 N 0.62592 1.37422 0.71519
 C177 C 0.64672 1.38944 0.70053
 C178 C 0.69399 1.39980 0.64999
 N179 N 0.70945 1.39223 0.62627
 C180 C 0.69533 1.37017 0.61225
 C181 C 0.64663 1.31779 0.60598
 N182 N 0.62452 1.30022 0.61537
 C183 C 0.61360 1.31119 0.64046
 H184 H 0.59986 1.33582 0.70485
 H185 H 0.66133 1.40543 0.71009
 H186 H 0.70105 1.41551 0.66609
 H187 H 0.70357 1.35865 0.59351
 H188 H 0.65987 1.31379 0.58695
 H189 H 0.59637 1.30114 0.65332
 C190 C 0.63021 0.84870 1.17371
 C191 C 0.63199 0.82889 1.15027
 C192 C 0.65018 0.83542 1.12689
 C193 C 0.66689 0.86126 1.12662
 C194 C 0.66513 0.88074 1.14946
 C195 C 0.64655 0.87460 1.17294
 C196 C 0.61833 0.84649 1.20142
 N197 N 0.62686 0.87054 1.21664
 C198 C 0.64424 0.88762 1.19968
 C199 C 0.68746 0.90090 1.14607
 N200 N 0.70256 0.89380 1.12193
 C201 C 0.69016 0.86979 1.10966
 C202 C 0.64995 0.81170 1.10854
 N203 N 0.63191 0.79101 1.11993
 C204 C 0.62081 0.80094 1.14549
 H205 H 0.60662 0.82775 1.21050
 H206 H 0.65642 0.90661 1.20710
 H207 H 0.69399 0.91755 1.16146
 H208 H 0.69908 0.85781 1.09152
 H209 H 0.66234 0.80938 1.08866
 H210 H 0.60627 0.78860 1.15970
 C211 C 1.12195 1.37075 1.16093
 C212 C 1.12012 1.34482 1.14496
 C213 C 1.14365 1.33576 1.12848
 C214 C 1.16945 1.35277 1.12790
 C215 C 1.17104 1.37862 1.14375
 C216 C 1.14721 1.38757 1.16041
 C217 C 1.10470 1.38119 1.18283
 N218 N 1.11903 1.40373 1.19567
 C219 C 1.14487 1.40807 1.18213
 C220 C 1.19954 1.38812 1.14335
 N221 N 1.21514 1.36893 1.12749
 C222 C 1.19731 1.34706 1.11814
 C223 C 1.13643 1.30838 1.11773
 N224 N 1.10931 1.30106 1.12748
 C225 C 1.09922 1.32295 1.14427
 H226 H 1.08473 1.37118 1.19079
 H227 H 1.16186 1.42276 1.18960
 H228 H 1.20870 1.40602 1.15581
 H229 H 1.20449 1.32726 1.10743
 H230 H 1.15006 1.29458 1.10444
 H231 H 1.07844 1.32273 1.15540
 C232 C 1.10192 0.86339 0.65733
 C233 C 1.10521 0.84058 0.63754
 C234 C 1.12939 0.83972 0.61946
 C235 C 1.15057 0.86225 0.62099
 C236 C 1.14716 0.88491 0.64074
 C237 C 1.12280 0.88538 0.65906
 C238 C 1.08282 0.86697 0.68002
 N239 N 1.09182 0.89046 0.69541
 C240 C 1.11615 0.90208 0.68291
 C241 C 1.17170 0.90237 0.63937
 N242 N 1.18974 0.89104 0.61922
 C243 C 1.17733 0.86648 0.60780
 C244 C 1.12807 0.81319 0.60498
 N245 N 1.10374 0.79858 0.61418
 C246 C 1.08971 0.81497 0.63395
 H247 H 1.06516 0.85230 0.68628
 H248 H 1.12917 0.91979 0.69177
 H249 H 1.17642 0.92153 0.65240
 H250 H 1.18727 0.85249 0.59173
 H251 H 1.14410 0.80463 0.59009
 H252 H 1.07038 0.80809 0.64576
 C253 C 0.37119 0.64187 0.67531
 C254 C 0.37420 0.66399 0.65379
 C255 C 0.35296 0.66709 0.63263
 C256 C 0.32850 0.64864 0.63286
 C257 C 0.32536 0.62701 0.65418
 C258 C 0.34691 0.62346 0.67538
 C259 C 0.38670 0.63541 0.70019
 N260 N 0.37236 0.61356 0.71489
 C261 C 0.34806 0.60615 0.70013
 C262 C 0.29737 0.61614 0.65227
 N263 N 0.28402 0.63065 0.63024
 C264 C 0.30255 0.65058 0.61825
 C265 C 0.35924 0.69214 0.61676
 N266 N 0.38378 0.70433 0.62773
 C267 C 0.39322 0.68753 0.65034
 H268 H 0.40628 0.64638 0.70754
 H269 H 0.33198 0.59017 0.70745
 H270 H 0.28675 0.60105 0.66738
 H271 H 0.29667 0.66711 0.60217
 H272 H 0.34609 0.70169 0.59962
 H273 H 0.41150 0.69292 0.66412
 C274 C 0.37317 0.13058 1.15240
 C275 C 0.37542 0.15087 1.12902
 C276 C 0.35363 0.15184 1.10818
 C277 C 0.32918 0.13359 1.11075
 C278 C 0.32666 0.11401 1.13394
 C279 C 0.34896 0.11215 1.15451
 C280 C 0.38899 0.12652 1.17770
 N281 N 0.37485 0.10601 1.19437
 C282 C 0.35043 0.09729 1.18062
 C283 C 0.29798 0.10508 1.13536
 N284 N 0.28349 0.11882 1.11359
 C285 C 0.30217 0.13614 1.09835
 C286 C 0.35848 0.17613 1.09077
 N287 N 0.38251 0.19004 1.10041
 C288 C 0.39326 0.17508 1.12379
 H289 H 0.40858 0.13820 1.18391
 H290 H 0.33441 0.08208 1.18955
 H291 H 0.28777 0.09290 1.15308
 H292 H 0.29577 0.15244 1.08224
 H293 H 0.34433 0.18446 1.07383
 H294 H 0.41120 0.18240 1.13715
 C295 C 0.89132 0.63657 1.15651
 C296 C 0.88781 0.65592 1.13285
 C297 C 0.86535 0.65161 1.11327
 C298 C 0.84620 0.62771 1.11714
 C299 C 0.84962 0.60848 1.14052
 C300 C 0.87230 0.61300 1.16033
 C301 C 0.90893 0.63766 1.18070
 N302 N 0.90087 0.61539 1.19884
 C303 C 0.87856 0.60013 1.18677
 C304 C 0.82601 0.58955 1.14082
 N305 N 0.80865 0.59703 1.11824
 C306 C 0.82063 0.62026 1.10360
 C307 C 0.86499 0.67571 1.09470
 N308 N 0.88664 0.69420 1.10273
 C309 C 0.90077 0.68246 1.12596
 H310 H 0.92522 0.65423 1.18550
 H311 H 0.86686 0.58204 1.19710
 H312 H 0.82099 0.57279 1.15704
 H313 H 0.81073 0.63181 1.08546
 H314 H 0.84929 0.68024 1.07775
 H315 H 0.91808 0.69316 1.13787
 C316 C 0.86705 0.14205 0.67221
 C317 C 0.86792 0.16014 0.64727
 C318 C 0.84811 0.15576 0.62495
 C319 C 0.82732 0.13294 0.62734
 C320 C 0.82700 0.11472 0.65178
 C321 C 0.84679 0.11935 0.67427
 C322 C 0.87904 0.14531 0.69944
 N323 N 0.86652 0.12506 0.71743
 C324 C 0.84681 0.10913 0.70251
 C325 C 0.80239 0.09745 0.65067
 N326 N 0.78772 0.10480 0.62632
 C327 C 0.80253 0.12642 0.61173
 C328 C 0.85193 0.17867 0.60520
 N329 N 0.87360 0.19632 0.61503
 C330 C 0.88342 0.18544 0.64076
 H331 H 0.89324 0.16303 0.70635
 H332 H 0.83141 0.09371 0.71220
 H333 H 0.79454 0.08233 0.66734
 H334 H 0.79487 0.13787 0.59247
 H335 H 0.83939 0.18272 0.58568
 H336 H 0.89986 0.19570 0.65416
 C337 C 1.36502 0.37838 0.66896
 C338 C 1.34342 0.38327 0.64806
 C339 C 1.33812 0.36227 0.62707
 C340 C 1.35413 0.33609 0.62685
 C341 C 1.37535 0.33109 0.64771
 C342 C 1.38093 0.35248 0.66881
 C343 C 1.37239 0.39332 0.69373
 N344 N 1.39240 0.37713 0.70833
 C345 C 1.39781 0.35217 0.69353
 C346 C 1.38354 0.30199 0.64558
 N347 N 1.36799 0.28972 0.62382
 C348 C 1.34986 0.31009 0.61234
 C349 C 1.31362 0.37077 0.61220
 N350 N 1.30406 0.39634 0.62375
 C351 C 1.32194 0.40426 0.64567
 H352 H 1.36302 0.41370 0.70122
 H353 H 1.41187 0.33459 0.70093
 H354 H 1.39753 0.29001 0.66041
 H355 H 1.33291 0.30552 0.59667
 H356 H 1.30255 0.35839 0.59550
 H357 H 1.31854 0.42282 0.65983
 C358 C 1.34795 0.86574 1.16609
 C359 C 1.32719 0.86171 1.14374
 C360 C 1.32995 0.83821 1.12475
 C361 C 1.35324 0.81852 1.12778
 C362 C 1.37417 0.82343 1.14883
 C363 C 1.37159 0.84700 1.16789
 C364 C 1.34777 0.88161 1.19177
 N365 N 1.37084 0.87296 1.20825
 C366 C 1.38538 0.85192 1.19387
 C367 C 1.39082 0.79855 1.15101
 N368 N 1.38046 0.77853 1.13215
 C369 C 1.35746 0.79021 1.11775
 C370 C 1.30608 0.83844 1.10658
 N371 N 1.28922 0.86163 1.11363
 C372 C 1.30152 0.87583 1.13652
 H373 H 1.33038 0.89559 1.19928
 H374 H 1.40240 0.83847 1.20328
 H375 H 1.40667 0.79387 1.16781
 H376 H 1.34282 0.77792 1.10393
 H377 H 1.30140 0.82304 1.08938
 H378 H 1.29258 0.89499 1.14701
 C379 C 0.85905 0.37139 1.17535
 C380 C 0.84036 0.37518 1.15149
 C381 C 0.83933 0.35414 1.12984
 C382 C 0.85692 0.32908 1.13180
 C383 C 0.87543 0.32537 1.15534
 C384 C 0.87657 0.34664 1.17714
 C385 C 0.85967 0.38453 1.20226
 N386 N 0.87725 0.36847 1.21982
 C387 C 0.88750 0.34522 1.20496
 C388 C 0.88463 0.29655 1.15529
 N389 N 0.87233 0.28306 1.13229
 C390 C 0.85526 0.30244 1.11784
 C391 C 0.81587 0.36061 1.11234
 N392 N 0.80293 0.38504 1.12285
 C393 C 0.81749 0.39412 1.14671
 H394 H 0.84590 0.40231 1.20943
 H395 H 0.89925 0.32695 1.21458
 H396 H 0.89651 0.28542 1.17245
 H397 H 0.84021 0.29667 1.10070
 H398 H 0.80766 0.34745 1.09463
 H399 H 0.81070 0.41188 1.16064
 C400 C 0.84374 0.86337 0.66744
 C401 C 0.82079 0.86452 0.64689
 C402 C 0.82122 0.84557 0.62337
 C403 C 0.84379 0.82559 0.61988
 C404 C 0.86608 0.82432 0.63990
 C405 C 0.86613 0.84324 0.66372
 C406 C 0.84971 0.87807 0.69309
 N407 N 0.87487 0.86709 0.70439
 C408 C 0.88494 0.84587 0.68675
 C409 C 0.88388 0.80147 0.63197
 N410 N 0.87255 0.78920 0.60767
 C411 C 0.84815 0.80367 0.60001
 C412 C 0.79656 0.84996 0.60736
 N413 N 0.78088 0.87112 0.62020
 C414 C 0.79514 0.88046 0.64444
 H415 H 0.83672 0.89514 0.70284
 H416 H 0.90447 0.83322 0.69054
 H417 H 0.90281 0.79361 0.64356
 H418 H 0.83407 0.79781 0.58211
 H419 H 0.79018 0.83838 0.58791
 H420 H 0.78732 0.89704 0.65920
 C421 C 0.65756 0.62922 0.66682
 C422 C 0.67725 0.63009 0.64343
 C423 C 0.67452 0.65148 0.62197
 C424 C 0.65240 0.67223 0.62356
 C425 C 0.63291 0.67184 0.64664
 C426 C 0.63549 0.64996 0.66857
 C427 C 0.65558 0.61127 0.69111
 N428 N 0.63298 0.62050 0.70745
 C429 C 0.62047 0.64414 0.69414
 C430 C 0.61494 0.69597 0.64269
 N431 N 0.62355 0.71026 0.61790
 C432 C 0.64627 0.69604 0.60615
 C433 C 0.69724 0.64849 0.60282
 N434 N 0.71368 0.62583 0.61222
 C435 C 0.70188 0.61422 0.63698
 H436 H 0.66964 0.59303 0.69667
 H437 H 0.60210 0.65622 0.70250
 H438 H 0.59762 0.70297 0.65695
 H439 H 0.65788 0.70306 0.58673
 H440 H 0.70208 0.66231 0.58405
 H441 H 0.71102 0.59637 0.64974
 C442 C 0.63898 1.11600 1.17386
 C443 C 0.65796 1.10987 1.15095
 C444 C 0.66037 1.12933 1.12754
 C445 C 0.64339 1.15502 1.12667
 C446 C 0.62436 1.16088 1.14934
 C447 C 0.62234 1.14141 1.17313
 C448 C 0.63853 1.10540 1.20200
 N449 N 0.62215 1.12372 1.21802
 C450 C 0.61216 1.14581 1.20090
 C451 C 0.61585 1.18981 1.14644
 N452 N 0.62892 1.20143 1.12255
 C453 C 0.64603 1.18069 1.11041
 C454 C 0.68469 1.12120 1.11204
 N455 N 0.69670 1.09743 1.12555
 C456 C 0.68069 1.09033 1.14928
 H457 H 0.65206 1.08805 1.21087
 H458 H 0.60154 1.16541 1.20876
 H459 H 0.60386 1.20236 1.16231
 H460 H 0.66169 1.18493 1.09320
 H461 H 0.69424 1.13311 1.09381
 H462 H 0.68660 1.07387 1.16540
 C463 C 0.15495 0.63122 1.16719
 C464 C 0.17622 0.63076 1.14510
 C465 C 0.17554 0.65169 1.12280
 C466 C 0.15387 0.67331 1.12230
 C467 C 0.13263 0.67329 1.14370
 C468 C 0.13307 0.65215 1.16607
 C469 C 0.15386 0.61854 1.19470
 N470 N 0.13178 0.63116 1.20959
 C471 C 0.11908 0.65169 1.19248
 C472 C 0.11876 0.70002 1.14214
 N473 N 0.13107 0.71613 1.12045
 C474 C 0.15256 0.70025 1.10811
 C475 C 0.20044 0.64847 1.10652
 N476 N 0.21593 0.62603 1.11810
 C477 C 0.20169 0.61508 1.14184
 H478 H 0.16985 0.60391 1.20417
 H479 H 0.10326 0.66752 1.19990
 H480 H 0.10372 0.70859 1.15805
 H481 H 0.16845 0.70902 1.09282
 H482 H 0.20725 0.66192 1.08810
 H483 H 0.20964 0.59775 1.15604
 C484 C 0.13227 1.12324 0.66917
 C485 C 0.15179 1.11755 0.64635
 C486 C 0.15300 1.13643 0.62238
 C487 C 0.13515 1.16131 0.62106
 C488 C 0.11583 1.16685 0.64349
 C489 C 0.11415 1.14758 0.66742
 C490 C 0.13140 1.11332 0.69771
 N491 N 0.11301 1.13083 0.71263
 C492 C 0.10255 1.15184 0.69458
 C493 C 0.10797 1.19602 0.64116
 N494 N 0.12200 1.20805 0.61802
 C495 C 0.13853 1.18719 0.60546
 C496 C 0.17726 1.12924 0.60648
 N497 N 0.19058 1.10640 0.62005
 C498 C 0.17547 1.09907 0.64444
 H499 H 0.14548 1.09697 0.70750
 H500 H 0.09026 1.17080 0.70149
 H501 H 0.09664 1.20853 0.65753
 H502 H 0.15515 1.19166 0.58922
 H503 H 0.18568 1.14101 0.58761
 H504 H 0.18234 1.08298 0.66053
 C505 C 1.36647 0.62041 0.34125
 C506 C 1.34763 0.61975 0.36545
 C507 C 1.34917 0.64199 0.38587
 C508 C 1.36859 0.66555 0.38193
 C509 C 1.38662 0.66669 0.35772
 C510 C 1.38596 0.64373 0.33756
 C511 C 1.36632 0.60498 0.31551
 N512 N 1.38546 0.61812 0.29691
 C513 C 1.39720 0.64201 0.30982
 C514 C 1.39640 0.69540 0.35489
 N515 N 1.38482 0.71122 0.37678
 C516 C 1.36795 0.69334 0.39345
 C517 C 1.32523 0.63930 0.40371
 N518 N 1.30912 0.61626 0.39461
 C519 C 1.32236 0.60401 0.37125
 H520 H 1.35142 0.58740 0.30978
 H521 H 1.41063 0.65845 0.29890
 H522 H 1.40754 0.70485 0.33616
 H523 H 1.35296 0.70092 0.40992
 H524 H 1.31856 0.65460 0.42029
 H525 H 1.31313 0.58669 0.35809
 C526 C 1.35715 1.12530 0.83177
 C527 C 1.33364 1.12372 0.85116
 C528 C 1.32920 1.14618 0.87086
 C529 C 1.34833 1.17045 0.87140
 C530 C 1.37174 1.17181 0.85231
 C531 C 1.37614 1.14916 0.83240
 C532 C 1.36372 1.10935 0.80739
 N533 N 1.38615 1.12310 0.79349
 C534 C 1.39401 1.14731 0.80845
 C535 C 1.38360 1.19967 0.85394
 N536 N 1.36810 1.21492 0.87363
 C537 C 1.34637 1.19764 0.88434
 C538 C 1.30289 1.14067 0.88432
 N539 N 1.29161 1.11546 0.87324
 C540 C 1.31000 1.10494 0.85294
 H541 H 1.35179 1.09054 0.79926
 H542 H 1.40995 1.16349 0.80121
 H543 H 1.40034 1.20900 0.83993
 H544 H 1.32895 1.20512 0.89825
 H545 H 1.29221 1.15454 0.90003
 H546 H 1.30585 1.08582 0.83968
 C547 C 0.85303 0.61999 0.83202
 C548 C 0.83365 0.62410 0.85541
 C549 C 0.83872 0.64653 0.87505
 C550 C 0.86291 0.66508 0.87155
 C551 C 0.88189 0.66126 0.84853
 C552 C 0.87697 0.63857 0.82881
 C553 C 0.85312 0.60126 0.80848
 N554 N 0.87644 0.60833 0.79159
 C555 C 0.89110 0.63107 0.80371
 C556 C 0.90173 0.68417 0.84892
 N557 N 0.89498 0.70148 0.87164
 C558 C 0.87141 0.69010 0.88570
 C559 C 0.81576 0.64697 0.89431
 N560 N 0.79695 0.62537 0.88686
 C561 C 0.80746 0.61117 0.86318
 H562 H 0.83720 0.58434 0.80364
 H563 H 0.91025 0.64173 0.79461
 H564 H 0.91878 0.68873 0.83319
 H565 H 0.86042 0.70011 0.90390
 H566 H 0.81249 0.66232 0.91185
 H567 H 0.79650 0.59343 0.85200
 C568 C 0.85453 1.12340 0.33444
 C569 C 0.83083 1.12067 0.35380
 C570 C 0.82926 1.13890 0.37779
 C571 C 0.85110 1.15983 0.38280
 C572 C 0.87438 1.16238 0.36377
 C573 C 0.87612 1.14421 0.33951
 C574 C 0.86116 1.11035 0.30829
 N575 N 0.88607 1.12295 0.29782
 C576 C 0.89538 1.14363 0.31657
 C577 C 0.89084 1.18605 0.37235
 N578 N 0.87796 1.19779 0.39605
 C579 C 0.85372 1.18208 0.40277
 C580 C 0.80340 1.13305 0.39179
 N581 N 0.78932 1.11164 0.37698
 C582 C 0.80567 1.10380 0.35376
 H583 H 0.84850 1.09362 0.29738
 H584 H 0.91433 1.15761 0.31336
 H585 H 0.90984 1.19498 0.36133
 H586 H 0.83847 1.18743 0.41986
 H587 H 0.79518 1.14391 0.41093
 H588 H 0.79937 1.08767 0.33777
 C589 C 0.64986 0.38013 0.33281
 C590 C 0.66882 0.38560 0.35594
 C591 C 0.66724 0.36849 0.38112
 C592 C 0.64635 0.34595 0.38360
 C593 C 0.62743 0.34070 0.36076
 C594 C 0.62926 0.35775 0.33517
 C595 C 0.65090 0.38890 0.30404
 N596 N 0.63138 0.37251 0.28924
 C597 C 0.61811 0.35330 0.30777
 C598 C 0.61247 0.31512 0.36727
 N599 N 0.62187 0.30495 0.39344
 C600 C 0.64260 0.32338 0.40366
 C601 C 0.69138 0.37509 0.39754
 N602 N 0.70717 0.39579 0.38284
 C603 C 0.69373 0.40246 0.35754
 H604 H 0.66678 0.40366 0.29414
 H605 H 0.60390 0.33542 0.30128
 H606 H 0.59715 0.30388 0.35333
 H607 H 0.65504 0.31973 0.42332
 H608 H 0.69799 0.36425 0.41753
 H609 H 0.70263 0.41673 0.34066
 C610 C 0.63545 0.89343 0.83792
 C611 C 0.65841 0.89089 0.85753
 C612 C 0.66044 0.86644 0.87580
 C613 C 0.63889 0.84423 0.87469
 C614 C 0.61607 0.84688 0.85507
 C615 C 0.61446 0.87152 0.83650
 C616 C 0.63060 0.91298 0.81547
 N617 N 0.60732 0.90329 0.80046
 C618 C 0.59706 0.87803 0.81297
 C619 C 0.59945 0.82162 0.85719
 N620 N 0.61142 0.80391 0.87767
 C621 C 0.63559 0.81721 0.88855
 C622 C 0.68672 0.86888 0.89022
 N623 N 0.70002 0.89412 0.88078
 C624 C 0.68303 0.90766 0.86095
 H625 H 0.64415 0.93162 0.80920
 H626 H 0.57964 0.86449 0.80447
 H627 H 0.58031 0.81628 0.84458
 H628 H 0.64983 0.80778 0.90484
 H629 H 0.69596 0.85307 0.90532
 H630 H 0.68884 0.92758 0.84904
 C631 C 0.15169 0.38315 0.83039
 C632 C 0.17089 0.38790 0.85351
 C633 C 0.16915 0.37038 0.87841
 C634 C 0.14795 0.34805 0.88057
 C635 C 0.12880 0.34357 0.85776
 C636 C 0.13073 0.36110 0.83253
 C637 C 0.15225 0.39282 0.80188
 N638 N 0.13206 0.37728 0.78707
 C639 C 0.11884 0.35775 0.80530
 C640 C 0.11313 0.31835 0.86402
 N641 N 0.12234 0.30761 0.89003
 C642 C 0.14362 0.32535 0.90038
 C643 C 0.19299 0.37707 0.89527
 N644 N 0.20874 0.39820 0.88110
 C645 C 0.19561 0.40500 0.85566
 H646 H 0.16807 0.40772 0.79208
 H647 H 0.10401 0.34048 0.79863
 H648 H 0.09736 0.30778 0.85007
 H649 H 0.15592 0.32120 0.92004
 H650 H 0.19924 0.36630 0.91542
 H651 H 0.20436 0.41992 0.83926
 C652 C 0.14028 0.87972 0.33163
 C653 C 0.15850 0.87876 0.35606
 C654 C 0.15292 0.85878 0.37849
 C655 C 0.12894 0.83960 0.37672
 C656 C 0.11072 0.84082 0.35273
 C657 C 0.11644 0.86088 0.33008
 C658 C 0.14423 0.89190 0.30429
 N659 N 0.12335 0.88094 0.28667
 C660 C 0.10635 0.86191 0.30195
 C661 C 0.09268 0.81653 0.35406
 N662 N 0.09970 0.80068 0.37803
 C663 C 0.12173 0.81443 0.39218
 C664 C 0.17631 0.85977 0.39724
 N665 N 0.19557 0.87991 0.38671
 C666 C 0.18513 0.89159 0.36153
 H667 H 0.16272 0.90497 0.29702
 H668 H 0.09013 0.84747 0.29255
 H669 H 0.07757 0.80941 0.33750
 H670 H 0.13326 0.80550 0.41076
 H671 H 0.17969 0.84603 0.41632
 H672 H 0.19662 0.90719 0.34762
 O673 O 0.96533 0.89668 0.84823
 O674 O 0.96589 0.86338 0.81374
 C675 C 0.95502 0.88636 0.82470
 C676 C 0.92977 0.90118 0.81071
 C677 C 0.91768 0.89141 0.78420
 H678 H 0.92730 0.87301 0.77300
 O679 O 1.01925 1.11451 0.85649
 O680 O 1.01782 1.14931 0.82265
 C681 C 1.02907 1.12597 0.83312
 C682 C 1.05495 1.11302 0.81898
 C683 C 1.06960 1.12872 0.79679
 H684 H 1.06133 1.14963 0.78891
 O685 O 0.85172 0.96983 0.89663
 O686 O 0.81624 0.96949 0.86447
 C687 C 0.82779 0.95933 0.88759
 C688 C 0.81382 0.93461 0.90390
 C689 C 0.78554 0.92496 0.89713
 H690 H 0.77343 0.93616 0.88018
 O691 O 1.13982 1.03593 0.89368
 O692 O 1.17360 1.03748 0.85956
 C693 C 1.16356 1.04638 0.88363
 C694 C 1.17864 1.07009 0.89967
 C695 C 1.20675 1.07985 0.89180
 H696 H 1.21839 1.06909 0.87445
 O697 O 0.89915 0.85302 0.97169
 O698 O 0.86643 0.81721 0.97263
 C699 C 0.88945 0.82879 0.96210
 C700 C 0.90458 0.81420 0.93797
 C701 C 0.89656 0.78567 0.93005
 H702 H 0.87997 0.77373 0.94226
 O703 O 1.09644 1.15480 0.96853
 O704 O 1.13007 1.18970 0.96830
 C705 C 1.10634 1.17924 0.95880
 C706 C 1.09022 1.19516 0.93581
 C707 C 1.09914 1.22328 0.92594
 H708 H 1.11774 1.23399 0.93575
 O709 O 0.88920 1.02924 0.85625
 O710 O 0.85373 1.02970 0.82403
 C711 C 0.87735 1.04048 0.83387
 C712 C 0.89005 1.06755 0.82042
 C713 C 0.87424 1.08335 0.79933
 H714 H 0.85360 1.07499 0.79149
 O715 O 1.09754 0.98200 0.85227
 O716 O 1.13022 0.98468 0.81710
 C717 C 1.10668 0.97409 0.82751
 C718 C 1.09019 0.95180 0.81101
 C719 C 1.09761 0.94582 0.78212
 H720 H 1.11488 0.95815 0.77133
 O721 O 1.02551 0.85965 0.88687
 O722 O 1.02623 0.82644 0.85228
 C723 C 1.03608 0.83636 0.87608
 C724 C 1.06005 0.82057 0.89120
 C725 C 1.06992 0.79355 0.88044
 H726 H 1.05989 0.78399 0.86141
 O727 O 0.96261 1.15328 0.89705
 O728 O 0.96094 1.18844 0.86358
 C729 C 0.95229 1.17750 0.88767
 C730 C 0.92964 1.19244 0.90498
 C731 C 0.92061 1.22136 0.89848
 H732 H 0.93072 1.23348 0.88067
 O733 O 0.85077 1.10567 0.97133
 O734 O 0.81637 1.13933 0.97173
 C735 C 0.82755 1.11644 0.96084
 C736 C 0.81399 1.10292 0.93505
 C737 C 0.79361 1.11885 0.91853
 H738 H 0.78721 1.14078 0.92492
 O739 O 1.14124 0.89752 0.96515
 O740 O 1.17479 0.86311 0.96313
 C741 C 1.16401 0.88710 0.95369
 C742 C 1.17676 0.90184 0.92776
 C743 C 1.19653 0.88657 0.91024
 H744 H 1.20409 0.86490 0.91668
 O745 O 0.96211 1.11213 0.85814
 O746 O 0.96022 1.14708 0.82449
 C747 C 0.95094 1.12279 0.83515
 C748 C 0.92588 1.10781 0.82142
 C749 C 0.90960 1.12304 0.80043
 H750 H 0.91601 1.14500 0.79332
 O751 O 1.02183 0.90267 0.84923
 O752 O 1.02276 0.86985 0.81425
 C753 C 1.03153 0.89410 0.82499
 C754 C 1.05362 0.91243 0.80970
 C755 C 1.06141 0.90673 0.78080
 H756 H 1.05070 0.88908 0.76924
 O757 O 1.13809 0.97814 0.89099
 O758 O 1.17069 0.97969 0.85573
 C759 C 1.16063 0.96785 0.87886
 C760 C 1.17446 0.94095 0.89077
 C761 C 1.19366 0.92489 0.87335
 H762 H 1.19925 0.93264 0.85165
 O763 O 0.84955 1.02765 0.89562
 O764 O 0.81424 1.02695 0.86320
 C765 C 0.82568 1.03767 0.88583
 C766 C 0.81229 1.06370 0.89917
 C767 C 0.79136 1.07968 0.88345
 H768 H 0.78345 1.07179 0.86275
 O769 O 0.88900 1.14760 0.97486
 O770 O 0.85446 1.18104 0.97677
 C771 C 0.87843 1.17207 0.96657
 C772 C 0.89371 1.18968 0.94409
 C773 C 0.88482 1.21842 0.93730
 H774 H 0.86728 1.22846 0.94935
 O775 O 1.10267 0.85578 0.96538
 O776 O 1.13605 0.82121 0.96423
 C777 C 1.11250 0.83213 0.95456
 C778 C 1.09697 0.81800 0.92971
 C779 C 1.10648 0.79096 0.91831
 H780 H 1.12461 0.77971 0.92838
 O781 O 1.09842 1.03911 0.85564
 O782 O 1.13216 1.04158 0.82150
 C783 C 1.10869 1.05094 0.83260
 C784 C 1.09397 1.07654 0.81905
 C785 C 1.10795 1.09249 0.79664
 H786 H 1.12896 1.08565 0.78854
 O787 O 0.88843 0.97163 0.85348
 O788 O 0.85309 0.97184 0.82115
 C789 C 0.87725 0.96205 0.83011
 C790 C 0.89194 0.93864 0.81363
 C791 C 0.88030 0.92874 0.78730
 H792 H 0.86105 0.93899 0.77828
 O793 O 1.01878 1.15474 0.89538
 O794 O 1.01705 1.18962 0.86158
 C795 C 1.02778 1.17920 0.88490
 C796 C 1.05154 1.19511 0.89963
 C797 C 1.06073 1.22309 0.88989
 H798 H 1.04980 1.23386 0.87186
 O799 O 0.96924 0.85773 0.88960
 O800 O 0.96960 0.82386 0.85560
 C801 C 0.96035 0.83326 0.87989
 C802 C 0.93880 0.81617 0.89721
 C803 C 0.93031 0.78748 0.88944
 H804 H 0.93978 0.77718 0.87056
 O805 O 1.13586 1.11382 0.96800
 O806 O 1.16957 1.14865 0.96843
 C807 C 1.15977 1.12448 0.95867
 C808 C 1.17624 1.10872 0.93613
 C809 C 1.20424 1.11815 0.92807
 H810 H 1.21428 1.13680 0.93871
 O811 O 0.85751 0.89085 0.97257
 O812 O 0.82462 0.85518 0.97340
 C813 C 0.83385 0.87975 0.96341
 C814 C 0.81703 0.89552 0.94081
 C815 C 0.78883 0.88612 0.93365
 H816 H 0.77898 0.86744 0.94489
 Cu817 Cu 0.99536 0.88254 0.87175
 Cu818 Cu 0.99631 0.84258 0.83049
 Cu819 Cu 0.99072 1.13010 0.88007
 Cu820 Cu 0.98865 1.17183 0.83932
 Cu821 Cu 0.87322 0.99933 0.87878
 Cu822 Cu 0.83088 0.99924 0.83991
 Cu823 Cu 1.11528 1.00863 0.87678
 Cu824 Cu 1.15510 1.01106 0.83507
 C825 C 0.91676 0.92497 0.82495
 H826 H 0.92552 0.93243 0.84545
 C827 C 0.89283 0.90535 0.77243
 C828 C 1.06727 1.08679 0.82992
 H829 H 1.05664 1.07494 0.84761
 C830 C 1.09600 1.11854 0.78579
 C831 C 0.82925 0.91988 0.92600
 H832 H 0.85114 0.92698 0.93125
 C833 C 0.77294 0.90078 0.91214
 C834 C 1.16378 1.08449 0.92209
 H835 H 1.14198 1.07743 0.92800
 C836 C 1.21962 1.10385 0.90620
 C837 C 0.92595 0.82920 0.92170
 H838 H 0.93193 0.85146 0.92764
 C839 C 0.90919 0.77229 0.90607
 C840 C 1.06623 1.18151 0.92275
 H841 H 1.05948 1.15973 0.93005
 C842 C 1.08432 1.23730 0.90296
 C843 C 0.91608 1.07991 0.83123
 H844 H 0.92804 1.06841 0.84810
 C845 C 0.88389 1.11107 0.78968
 C846 C 1.06791 0.93527 0.82452
 H847 H 1.06239 0.93953 0.84700
 C848 C 1.08335 0.92353 0.76698
 C849 C 1.07353 0.83248 0.91600
 H850 H 1.06621 0.85345 0.92420
 C851 C 1.09294 0.77863 0.89366
 C852 C 0.91628 1.17705 0.92808
 H853 H 0.92279 1.15464 0.93302
 C854 C 0.89823 1.23445 0.91483
 C855 C 0.82326 1.07531 0.92518
 H856 H 0.83980 1.06337 0.93712
 C857 C 0.78249 1.10731 0.89277
 C858 C 1.16614 0.92927 0.91804
 H859 H 1.15044 0.94092 0.93112
 C860 C 1.20451 0.89782 0.88296
 O861 O 1.03030 0.89646 1.14626
 O862 O 1.03141 0.86144 1.17989
 C863 C 1.04100 0.88564 1.16945
 C864 C 1.06631 0.90033 1.18296
 C865 C 1.08224 0.88604 1.20502
 H866 H 1.07482 0.86513 1.21402
 O867 O 0.96865 1.10521 1.14714
 O868 O 0.96926 1.13783 1.18228
 C869 C 0.95934 1.11408 1.17159
 C870 C 0.93588 1.09700 1.18676
 C871 C 0.92541 1.10501 1.21447
 H872 H 0.93523 1.12332 1.22581
 O873 O 0.85205 1.02490 1.10676
 O874 O 0.81778 1.02351 1.14038
 C875 C 0.82774 1.03375 1.11653
 C876 C 0.81125 1.05625 1.09980
 C877 C 0.78253 1.06398 1.10740
 H878 H 0.77186 1.05332 1.12577
 O879 O 1.14445 0.97208 1.09729
 O880 O 1.17945 0.97353 1.12994
 C881 C 1.16856 0.96266 1.10703
 C882 C 1.18369 0.93809 1.09235
 C883 C 1.20981 0.92718 1.10374
 H884 H 1.21965 0.93750 1.12247
 O885 O 1.10317 0.85599 1.02290
 O886 O 1.13735 0.82218 1.02190
 C887 C 1.11438 0.83262 1.03314
 C888 C 1.10209 0.81879 1.05982
 C889 C 1.11832 0.79745 1.07489
 H890 H 1.13869 0.78961 1.06607
 O891 O 0.88790 1.14330 1.03145
 O892 O 0.85225 1.17554 1.03311
 C893 C 0.87604 1.16552 1.04298
 C894 C 0.88929 1.17918 1.06887
 C895 C 0.87345 1.19966 1.08499
 H896 H 0.85192 1.20628 1.07812
 O897 O 0.89336 0.96778 1.14612
 O898 O 0.85882 0.96570 1.17945
 C899 C 0.88266 0.95632 1.16918
 C900 C 0.89732 0.93082 1.18324
 C901 C 0.88267 0.91380 1.20456
 H902 H 0.86117 0.92001 1.21185
 O903 O 1.10460 1.02953 1.13714
 O904 O 1.13989 1.03073 1.16954
 C905 C 1.11590 1.04048 1.15982
 C906 C 1.10212 1.06593 1.17420
 C907 C 1.11802 1.08195 1.19482
 H908 H 1.13967 1.07511 1.20110
 O909 O 0.97555 0.85517 1.10532
 O910 O 0.97726 0.81955 1.13835
 C911 C 0.96713 0.83015 1.11480
 C912 C 0.94496 0.81343 1.09859
 C913 C 0.93846 0.78423 1.10647
 H914 H 0.95021 0.77348 1.12398
 O915 O 1.02191 1.14972 1.10552
 O916 O 1.02218 1.18337 1.13969
 C917 C 1.03154 1.17395 1.11550
 C918 C 1.05466 1.19025 1.09903
 C919 C 1.06615 1.21751 1.10859
 H920 H 1.05741 1.22783 1.12780
 O921 O 0.85891 0.89095 1.02886
 O922 O 0.82589 0.85540 1.02955
 C923 C 0.83538 0.87993 1.03874
 C924 C 0.81894 0.89586 1.06109
 C925 C 0.79015 0.88785 1.06771
 H926 H 0.77963 0.86995 1.05631
 O927 O 1.13621 1.11329 1.02449
 O928 O 1.16941 1.14865 1.02470
 C929 C 1.15952 1.12431 1.03453
 C930 C 1.17486 1.10938 1.05858
 C931 C 1.19676 1.12454 1.07356
 H932 H 1.20298 1.14677 1.06716
 O933 O 1.02548 1.10590 1.14188
 O934 O 1.02649 1.13939 1.17622
 C935 C 1.03689 1.11638 1.16462
 C936 C 1.06356 1.10286 1.17671
 C937 C 1.07995 1.11830 1.19735
 H938 H 1.07249 1.13925 1.20549
 O939 O 0.97300 0.89417 1.14588
 O940 O 0.97393 0.85860 1.17894
 C941 C 0.96273 0.88209 1.16881
 C942 C 0.93649 0.89446 1.18290
 C943 C 0.92122 0.87775 1.20396
 H944 H 0.92922 0.85639 1.21088
 O945 O 1.14364 1.03025 1.09690
 O946 O 1.17872 1.03114 1.12954
 C947 C 1.16702 1.04145 1.10667
 C948 C 1.17949 1.06825 1.09292
 C949 C 1.20202 1.08350 1.10700
 H950 H 1.21201 1.07448 1.12644
 O951 O 0.85538 0.96808 1.10493
 O952 O 0.82055 0.96657 1.13805
 C953 C 0.83155 0.95746 1.11443
 C954 C 0.81687 0.93398 1.09798
 C955 C 0.78808 0.92570 1.10438
 H956 H 0.77621 0.93697 1.12125
 O957 O 1.09508 1.15166 1.02518
 O958 O 1.12844 1.18684 1.02477
 C959 C 1.10515 1.17562 1.03508
 C960 C 1.09041 1.19039 1.05943
 C961 C 1.10138 1.21722 1.06928
 H962 H 1.11968 1.22772 1.05833
 O963 O 0.89938 0.85132 1.02839
 O964 O 0.86670 0.81550 1.02930
 C965 C 0.89026 0.82675 1.03848
 C966 C 0.90713 0.81154 1.06145
 C967 C 0.90077 0.78223 1.06977
 H968 H 0.88359 0.77017 1.05896
 O969 O 1.10657 0.97206 1.13958
 O970 O 1.14187 0.97340 1.17195
 C971 C 1.11806 0.96263 1.16299
 C972 C 1.10445 0.93789 1.17918
 C973 C 1.12008 0.92323 1.20107
 H974 H 1.14155 0.93086 1.20724
 O975 O 0.89382 1.02552 1.14508
 O976 O 0.85977 1.02365 1.17892
 C977 C 0.88339 1.03453 1.16888
 C978 C 0.89861 1.05816 1.18484
 C979 C 0.88868 1.06642 1.21229
 H980 H 0.87033 1.05504 1.22227
 O981 O 0.96523 1.14501 1.10670
 O982 O 0.96495 1.17790 1.14163
 C983 C 0.95425 1.16758 1.11834
 C984 C 0.92778 1.18076 1.10550
 C985 C 0.91170 1.20163 1.12103
 H986 H 0.91937 1.20953 1.14181
 O987 O 1.03194 0.85763 1.10554
 O988 O 1.03352 0.82278 1.13937
 C989 C 1.04302 0.83408 1.11574
 C990 C 1.06790 0.82025 1.10069
 C991 C 1.08480 0.79915 1.11542
 H992 H 1.07937 0.79245 1.13748
 O993 O 1.14499 0.89443 1.02197
 O994 O 1.17916 0.86068 1.02037
 C995 C 1.16900 0.88410 1.03126
 C996 C 1.18429 0.89925 1.05565
 C997 C 1.21051 0.88840 1.06780
 H998 H 1.22066 0.86907 1.05881
 O999 O 0.84984 1.10139 1.02803
 O1000 O 0.81426 1.13378 1.02821
 C1001 C 0.82539 1.10992 1.03746
 C1002 C 0.81017 1.09267 1.06027
 C1003 C 0.78164 1.09977 1.06787
 H1004 H 0.77015 1.11688 1.05603
 Cu1005 Cu 1.00256 0.87959 1.12259
 Cu1006 Cu 1.00402 0.83720 1.16266
 Cu1007 Cu 0.99527 1.12323 1.12193
 Cu1008 Cu 0.99579 1.16289 1.16346
 Cu1009 Cu 0.88212 0.87507 1.00042
 Cu1010 Cu 0.84267 0.83213 1.00137
 Cu1011 Cu 1.11968 0.87923 0.99403
 Cu1012 Cu 1.16011 0.83830 0.99220
 Cu1013 Cu 0.87294 1.12117 1.00123
 Cu1014 Cu 0.83076 1.16070 1.00259
 Cu1015 Cu 1.11246 1.12987 0.99630
 Cu1016 Cu 1.15272 1.17203 0.99646
 Cu1017 Cu 0.87712 0.99691 1.12248
 Cu1018 Cu 0.83593 0.99481 1.16276
 Cu1019 Cu 1.12135 1.00064 1.11433
 Cu1020 Cu 1.16352 1.00220 1.15345
 C1021 C 1.07736 0.92661 1.17061
 H1022 H 1.06564 0.93741 1.15312
 C1023 C 1.10913 0.89744 1.21387
 C1024 C 0.92240 1.07331 1.17237
 H1025 H 0.92986 1.06717 1.15093
 C1026 C 0.90177 1.08952 1.22720
 C1027 C 0.82469 1.07063 1.07601
 H1028 H 0.84692 1.06537 1.07031
 C1029 C 0.76774 1.08576 1.09120
 C1030 C 1.17131 0.92419 1.06817
 H1031 H 1.15099 0.93243 1.05954
 C1032 C 1.22329 0.90251 1.09196
 C1033 C 1.07666 0.82989 1.07276
 H1034 H 1.06439 0.84689 1.06165
 C1035 C 1.10997 0.78799 1.10266
 C1036 C 0.91655 1.16995 1.07919
 H1037 H 0.92851 1.15351 1.06728
 C1038 C 0.88452 1.21078 1.11089
 C1039 C 0.92445 0.92114 1.17286
 H1040 H 0.93556 0.93368 1.15595
 C1041 C 0.89441 0.88721 1.21469
 C1042 C 1.07474 1.07650 1.16530
 H1043 H 1.06270 1.06485 1.14873
 C1044 C 1.10713 1.10807 1.20606
 C1045 C 0.92945 0.82683 1.07584
 H1046 H 0.93423 0.84952 1.06988
 C1047 C 0.91663 0.76857 1.09223
 C1048 C 1.06688 1.17716 1.07417
 H1049 H 1.05875 1.15607 1.06681
 C1050 C 1.08966 1.23087 1.09348
 C1051 C 0.83203 0.91914 1.07611
 H1052 H 0.85437 0.92523 1.07125
 C1053 C 0.77465 0.90273 1.08909
 C1054 C 1.16628 1.08116 1.06837
 H1055 H 1.14857 1.06981 1.05764
 C1056 C 1.21016 1.11170 1.09761
 O1057 O 1.11231 0.52841 0.64911
 O1058 O 1.14639 0.52815 0.68271
 C1059 C 1.12273 0.53835 0.67269
 C1060 C 1.10738 0.56299 0.68725
 C1061 C 1.11704 0.57530 0.71369
 H1062 H 1.13556 0.56592 0.72486
 O1063 O 0.90472 0.46603 0.64452
 O1064 O 0.87100 0.46506 0.67871
 C1065 C 0.89437 0.45511 0.66792
 C1066 C 0.90857 0.42938 0.68174
 C1067 C 0.89435 0.41387 0.70431
 H1068 H 0.87398 0.42173 0.71308
 O1069 O 1.03712 0.64122 0.60018
 O1070 O 1.03691 0.67714 0.63205
 C1071 C 1.04673 0.66589 0.60881
 C1072 C 1.06973 0.68144 0.59172
 C1073 C 1.07790 0.71050 0.59830
 H1074 H 1.06701 0.72185 0.61577
 O1075 O 0.98150 0.34657 0.60488
 O1076 O 0.98341 0.31156 0.63849
 C1077 C 0.97256 0.32198 0.61525
 C1078 C 0.94847 0.30605 0.60079
 C1079 C 0.93843 0.27867 0.61151
 H1080 H 0.94912 0.26820 0.62985
 O1081 O 1.15268 0.60138 0.52364
 O1082 O 1.18534 0.63724 0.52273
 C1083 C 1.17499 0.61383 0.53427
 C1084 C 1.18764 0.60246 0.56168
 C1085 C 1.20644 0.62052 0.57775
 H1086 H 1.21328 0.64185 0.56928
 O1087 O 0.86505 0.38737 0.53228
 O1088 O 0.83076 0.35309 0.53256
 C1089 C 0.84119 0.37714 0.54207
 C1090 C 0.82543 0.39346 0.56468
 C1091 C 0.79682 0.38564 0.57201
 H1092 H 0.78595 0.36771 0.56097
 O1093 O 0.98050 0.60171 0.64201
 O1094 O 0.98012 0.63726 0.67430
 C1095 C 0.97043 0.61270 0.66517
 C1096 C 0.94688 0.59698 0.68126
 C1097 C 0.93733 0.60705 0.70836
 H1098 H 0.94765 0.62601 0.71817
 O1099 O 1.03777 0.38921 0.64349
 O1100 O 1.03857 0.35449 0.67745
 C1101 C 1.04829 0.37860 0.66690
 C1102 C 1.07321 0.39333 0.68121
 C1103 C 1.08865 0.37826 0.70304
 H1104 H 1.08166 0.35656 0.71039
 O1105 O 1.15164 0.47398 0.60590
 O1106 O 1.18685 0.47397 0.63838
 C1107 C 1.17622 0.46482 0.61457
 C1108 C 1.19214 0.44301 0.59680
 C1109 C 1.22033 0.43380 0.60452
 H1110 H 1.23096 0.44298 0.62339
 O1111 O 0.86438 0.52364 0.60514
 O1112 O 0.83104 0.52301 0.63972
 C1113 C 0.84083 0.53325 0.61576
 C1114 C 0.82479 0.55692 0.60051
 C1115 C 0.79748 0.56554 0.61080
 H1116 H 0.78767 0.55442 0.62940
 O1117 O 0.89993 0.64221 0.52571
 O1118 O 0.86640 0.67667 0.52752
 C1119 C 0.89048 0.66607 0.53614
 C1120 C 0.90741 0.68126 0.55892
 C1121 C 0.89863 0.70895 0.56896
 H1122 H 0.87980 0.71957 0.55953
 O1123 O 1.11520 0.35905 0.52616
 O1124 O 1.15063 0.32653 0.52611
 C1125 C 1.12690 0.33591 0.53649
 C1126 C 1.11349 0.32001 0.56136
 C1127 C 1.12865 0.29699 0.57490
 H1128 H 1.14981 0.29042 0.56694
 O1129 O 0.90392 0.52373 0.64512
 O1130 O 0.87081 0.52301 0.67989
 C1131 C 0.89410 0.53358 0.66893
 C1132 C 0.90958 0.55819 0.68331
 C1133 C 0.90025 0.56874 0.71042
 H1134 H 0.88213 0.55823 0.72160
 O1135 O 1.11185 0.47060 0.64602
 O1136 O 1.14681 0.46984 0.67874
 C1137 C 1.12325 0.45932 0.66860
 C1138 C 1.10984 0.43275 0.68222
 C1139 C 1.12471 0.41729 0.70422
 H1140 H 1.14529 0.42546 0.71240
 O1141 O 1.03824 0.35076 0.60253
 O1142 O 1.04021 0.31611 0.63651
 C1143 C 1.04965 0.32754 0.61288
 C1144 C 1.07527 0.31493 0.59816
 C1145 C 1.09050 0.29130 0.61089
 H1146 H 1.08258 0.28075 0.63067
 O1147 O 0.98022 0.64153 0.60109
 O1148 O 0.98038 0.67712 0.63335
 C1149 C 0.97040 0.66584 0.61028
 C1150 C 0.94665 0.68107 0.59471
 C1151 C 0.93761 0.70881 0.60418
 H1152 H 0.94863 0.71958 0.62200
 O1153 O 0.85976 0.60207 0.52756
 O1154 O 0.82578 0.63605 0.52931
 C1155 C 0.83654 0.61198 0.53863
 C1156 C 0.82246 0.59551 0.56299
 C1157 C 0.79510 0.60387 0.57376
 H1158 H 0.78371 0.62217 0.56379
 O1159 O 1.15293 0.40196 0.52345
 O1160 O 1.18810 0.36920 0.52263
 C1161 C 1.17723 0.39269 0.53267
 C1162 C 1.19258 0.40847 0.55620
 C1163 C 1.22063 0.39983 0.56424
 H1164 H 1.23170 0.38275 0.55232
 O1165 O 0.98078 0.38855 0.64250
 O1166 O 0.98145 0.35346 0.67610
 C1167 C 0.97073 0.37715 0.66577
 C1168 C 0.94546 0.39080 0.68016
 C1169 C 0.93031 0.37527 0.70203
 H1170 H 0.93759 0.35374 0.70924
 O1171 O 1.03714 0.60396 0.64381
 O1172 O 1.03665 0.63984 0.67572
 C1173 C 1.04660 0.61549 0.66708
 C1174 C 1.06986 0.60082 0.68393
 C1175 C 1.07940 0.61249 0.71037
 H1176 H 1.06900 0.63177 0.71926
 O1177 O 0.86347 0.46627 0.60636
 O1178 O 0.82964 0.46578 0.64047
 C1179 C 0.83975 0.45606 0.61673
 C1180 C 0.82437 0.43219 0.60114
 C1181 C 0.79566 0.42391 0.60838
 H1182 H 0.78415 0.43544 0.62533
 O1183 O 1.14929 0.53081 0.60690
 O1184 O 1.18365 0.53130 0.64033
 C1185 C 1.17261 0.54162 0.61705
 C1186 C 1.18619 0.56738 0.60242
 C1187 C 1.20525 0.58563 0.61793
 H1188 H 1.21116 0.58019 0.64014
 O1189 O 0.90343 0.34600 0.53177
 O1190 O 0.86950 0.31140 0.53218
 C1191 C 0.89332 0.32175 0.54170
 C1192 C 0.90933 0.30598 0.56495
 C1193 C 0.89960 0.27854 0.57588
 H1194 H 0.88052 0.26816 0.56666
 O1195 O 1.11296 0.64060 0.52149
 O1196 O 1.14580 0.67631 0.51972
 C1197 C 1.12247 0.66532 0.53022
 C1198 C 1.10658 0.68113 0.55321
 C1199 C 1.11450 0.71009 0.56028
 H1200 H 1.13182 0.72134 0.54848
 Cu1201 Cu 1.12766 0.50090 0.62392
 Cu1202 Cu 1.16933 0.50062 0.66348
 Cu1203 Cu 0.88754 0.49499 0.62192
 Cu1204 Cu 0.84738 0.49424 0.66329
 Cu1205 Cu 1.00889 0.61852 0.61856
 Cu1206 Cu 1.00851 0.66142 0.65702
 Cu1207 Cu 1.00938 0.37220 0.61995
 Cu1208 Cu 1.01102 0.33050 0.66059
 C1209 C 1.08359 0.57589 0.67290
 H1210 H 1.07628 0.56713 0.65234
 C1211 C 1.10281 0.60012 0.72537
 C1212 C 0.93444 0.41794 0.67012
 H1213 H 0.94534 0.42954 0.65244
 C1214 C 0.90495 0.38674 0.71402
 C1215 C 1.08404 0.66704 0.56889
 H1216 H 1.07808 0.64456 0.56376
 C1217 C 1.10021 0.72493 0.58250
 C1218 C 0.93396 0.31929 0.57732
 H1219 H 0.94132 0.34060 0.56927
 C1220 C 0.91415 0.26480 0.59920
 C1221 C 1.17768 0.57580 0.57416
 H1222 H 1.16236 0.56220 0.56237
 C1223 C 1.21493 0.61227 0.60578
 C1224 C 0.83894 0.41692 0.57910
 H1225 H 0.86115 0.42289 0.57359
 C1226 C 0.78182 0.40071 0.59357
 C1227 C 0.93306 0.57234 0.66908
 H1228 H 0.94009 0.56464 0.64801
 C1229 C 0.91420 0.59313 0.72298
 C1230 C 1.08386 0.42073 0.67104
 H1231 H 1.07261 0.43207 0.65357
 C1232 C 1.11428 0.39005 0.71435
 C1233 C 1.17860 0.43036 0.57237
 H1234 H 1.15670 0.43678 0.56654
 C1235 C 1.23452 0.41218 0.58816
 C1236 C 0.83702 0.57180 0.57641
 H1237 H 0.85829 0.56541 0.56860
 C1238 C 0.78260 0.58877 0.59766
 C1239 C 0.93166 0.66754 0.57180
 H1240 H 0.93828 0.64592 0.56466
 C1241 C 0.91373 0.72267 0.59165
 C1242 C 1.08672 0.32881 0.57301
 H1243 H 1.07538 0.34722 0.56316
 C1244 C 1.11726 0.28264 0.59934
 O1245 O 1.10393 0.47591 0.34795
 O1246 O 1.13591 0.47601 0.31207
 C1247 C 1.11236 0.46657 0.32349
 C1248 C 1.09499 0.44373 0.30887
 C1249 C 1.10052 0.43641 0.27986
 H1250 H 1.11699 0.44839 0.26758
 O1251 O 0.89832 0.52511 0.35818
 O1252 O 0.86415 0.52361 0.32464
 C1253 C 0.88804 0.53403 0.33410
 C1254 C 0.90385 0.55702 0.31720
 C1255 C 0.89585 0.56361 0.28853
 H1256 H 0.87838 0.55144 0.27826
 O1257 O 0.97329 0.64399 0.39151
 O1258 O 0.97206 0.67895 0.35783
 C1259 C 0.96271 0.66790 0.38155
 C1260 C 0.93901 0.68293 0.39728
 C1261 C 0.92923 0.71050 0.38750
 H1262 H 0.93942 0.72122 0.36888
 O1263 O 1.03519 0.35470 0.39436
 O1264 O 1.03575 0.32032 0.36087
 C1265 C 1.04586 0.33123 0.38412
 C1266 C 1.07031 0.31673 0.39952
 C1267 C 1.08041 0.28890 0.39106
 H1268 H 1.07010 0.27764 0.37314
 O1269 O 1.15193 0.39881 0.46600
 O1270 O 1.18644 0.36527 0.46570
 C1271 C 1.17472 0.38800 0.45472
 C1272 C 1.18646 0.40056 0.42730
 C1273 C 1.20690 0.38468 0.41105
 H1274 H 1.21572 0.36419 0.41940
 O1275 O 0.85671 0.60359 0.47105
 O1276 O 0.82285 0.63771 0.47229
 C1277 C 0.83277 0.61396 0.46194
 C1278 C 0.81716 0.59835 0.43847
 C1279 C 0.78991 0.60788 0.42811
 H1280 H 0.77934 0.62657 0.43792
 O1281 O 1.03139 0.60762 0.35000
 O1282 O 1.03024 0.64329 0.31701
 C1283 C 1.04137 0.61977 0.32689
 C1284 C 1.06714 0.60727 0.31236
 C1285 C 1.08291 0.62398 0.29162
 H1286 H 1.07557 0.64571 0.28511
 O1287 O 0.97389 0.39099 0.35776
 O1288 O 0.97353 0.35619 0.32464
 C1289 C 0.96278 0.37945 0.33529
 C1290 C 0.93640 0.39259 0.32220
 C1291 C 0.92040 0.37707 0.30124
 H1292 H 0.92778 0.35586 0.29370
 O1293 O 1.14822 0.52912 0.38726
 O1294 O 1.18164 0.52820 0.35275
 C1295 C 1.17255 0.53762 0.37705
 C1296 C 1.19005 0.55895 0.39364
 C1297 C 1.21895 0.56520 0.38599
 H1298 H 1.22904 0.55397 0.36796
 O1299 O 0.85926 0.46894 0.40118
 O1300 O 0.82424 0.46798 0.36847
 C1301 C 0.83531 0.45855 0.39211
 C1302 C 0.82067 0.43468 0.40882
 C1303 C 0.79193 0.42655 0.40245
 H1304 H 0.78007 0.43852 0.38582
 O1305 O 1.11191 0.63874 0.46533
 O1306 O 1.14516 0.67401 0.46396
 C1307 C 1.12114 0.66327 0.45530
 C1308 C 1.10362 0.67989 0.43382
 C1309 C 1.11032 0.70950 0.42777
 H1310 H 1.12833 0.72023 0.43864
 O1311 O 0.90373 0.34788 0.47537
 O1312 O 0.86996 0.31311 0.47547
 C1313 C 0.89367 0.32385 0.46563
 C1314 C 0.90971 0.30870 0.44239
 C1315 C 0.90139 0.28044 0.43325
 H1316 H 0.88323 0.26917 0.44364
 O1317 O 0.89645 0.46739 0.35918
 O1318 O 0.86148 0.46612 0.32644
 C1319 C 0.88511 0.45613 0.33663
 C1320 C 0.89855 0.43020 0.32291
 C1321 C 0.88296 0.41425 0.30202
 H1322 H 0.86166 0.42147 0.29502
 O1323 O 1.10808 0.53302 0.34809
 O1324 O 1.14137 0.53323 0.31343
 C1325 C 1.11858 0.54383 0.32468
 C1326 C 1.10492 0.56986 0.31121
 C1327 C 1.12008 0.58655 0.29013
 H1328 H 1.14125 0.57961 0.28253
 O1329 O 0.97884 0.35134 0.39789
 O1330 O 0.97940 0.31656 0.36476
 C1331 C 0.96999 0.32662 0.38863
 C1332 C 0.94770 0.30996 0.40520
 C1333 C 0.93934 0.28167 0.39657
 H1334 H 0.95017 0.27119 0.37851
 O1335 O 1.02999 0.64333 0.39293
 O1336 O 1.02901 0.67926 0.36019
 C1337 C 1.03945 0.66790 0.38339
 C1338 C 1.06341 0.68268 0.39913
 C1339 C 1.07066 0.71228 0.39324
 H1340 H 1.05820 0.72479 0.37746
 O1341 O 0.86350 0.38773 0.47611
 O1342 O 0.82938 0.35329 0.47632
 C1343 C 0.83937 0.37778 0.46690
 C1344 C 0.82281 0.39492 0.44506
 C1345 C 0.79394 0.38725 0.43851
 H1346 H 0.78340 0.36889 0.44965
 O1347 O 1.15433 0.60057 0.46631
 O1348 O 1.18798 0.63541 0.46516
 C1349 C 1.17799 0.61106 0.45607
 C1350 C 1.19305 0.59497 0.43260
 C1351 C 1.22207 0.60119 0.42460
 H1352 H 1.23433 0.61769 0.43629
 O1353 O 1.03013 0.39537 0.35417
 O1354 O 1.02985 0.36128 0.32037
 C1355 C 1.03852 0.38607 0.32965
 C1356 C 1.05891 0.40413 0.31204
 C1357 C 1.06447 0.39725 0.28293
 H1358 H 1.05324 0.37899 0.27280
 O1359 O 0.97463 0.60280 0.35274
 O1360 O 0.97337 0.63746 0.31876
 C1361 C 0.96431 0.61289 0.32915
 C1362 C 0.94107 0.59585 0.31448
 C1363 C 0.93261 0.60224 0.28572
 H1364 H 0.94349 0.61970 0.27356
 O1365 O 0.85715 0.52628 0.39711
 O1366 O 0.82289 0.52524 0.36365
 C1367 C 0.83329 0.53587 0.38682
 C1368 C 0.81779 0.55998 0.40162
 C1369 C 0.79064 0.56966 0.39162
 H1370 H 0.78035 0.55900 0.37333
 O1371 O 1.14560 0.47233 0.38521
 O1372 O 1.17764 0.47141 0.34940
 C1373 C 1.16793 0.46127 0.37338
 C1374 C 1.18232 0.43582 0.38710
 C1375 C 1.20250 0.41952 0.37116
 H1376 H 1.20815 0.42590 0.34906
 O1377 O 1.11261 0.35841 0.46964
 O1378 O 1.14721 0.32495 0.46989
 C1379 C 1.12309 0.33448 0.46031
 C1380 C 1.10761 0.31814 0.43732
 C1381 C 1.11735 0.29036 0.42859
 H1382 H 1.13566 0.28012 0.43940
 O1383 O 0.89704 0.64347 0.46927
 O1384 O 0.86358 0.67801 0.47066
 C1385 C 0.88675 0.66763 0.45977
 C1386 C 0.90176 0.68318 0.43538
 C1387 C 0.89226 0.71090 0.42516
 H1388 H 0.87408 0.72161 0.43553
 Cu1389 Cu 1.12308 0.50272 0.37062
 Cu1390 Cu 1.16241 0.50222 0.32827
 Cu1391 Cu 0.88128 0.49721 0.38218
 Cu1392 Cu 0.83977 0.49573 0.34245
 Cu1393 Cu 1.12990 0.61649 0.49400
 Cu1394 Cu 1.16970 0.65903 0.49236
 Cu1395 Cu 1.12979 0.38307 0.49642
 Cu1396 Cu 1.17172 0.34331 0.49622
 Cu1397 Cu 0.88164 0.61938 0.49819
 Cu1398 Cu 0.84126 0.66058 0.50021
 Cu1399 Cu 0.88743 0.37060 0.50381
 Cu1400 Cu 0.84648 0.32919 0.50410
 Cu1401 Cu 1.00230 0.62085 0.37496
 Cu1402 Cu 1.00089 0.66328 0.33517
 Cu1403 Cu 1.00471 0.37657 0.37939
 Cu1404 Cu 1.00488 0.33513 0.33923
 C1405 C 1.07389 0.42774 0.32469
 H1406 H 1.06997 0.43287 0.34731
 C1407 C 1.08515 0.41322 0.26685
 C1408 C 0.92666 0.57302 0.32989
 H1409 H 0.93273 0.56816 0.35218
 C1410 C 0.91011 0.58587 0.27270
 C1411 C 0.92533 0.66954 0.42138
 H1412 H 0.93262 0.64809 0.42880
 C1413 C 0.90612 0.72457 0.40118
 C1414 C 1.08393 0.33100 0.42284
 H1415 H 1.07655 0.35258 0.42929
 C1416 C 1.10390 0.27562 0.40569
 C1417 C 1.17448 0.42632 0.41524
 H1418 H 1.15831 0.43841 0.42734
 C1419 C 1.21459 0.39404 0.38298
 C1420 C 0.83066 0.57424 0.42521
 H1421 H 0.85176 0.56700 0.43275
 C1422 C 0.77659 0.59340 0.40465
 C1423 C 1.07823 0.58009 0.32179
 H1424 H 1.06671 0.56748 0.33839
 C1425 C 1.10931 0.61365 0.28058
 C1426 C 0.92540 0.41933 0.33272
 H1427 H 0.93721 0.43114 0.34935
 C1428 C 0.89369 0.38779 0.29136
 C1429 C 1.17747 0.57363 0.41713
 H1430 H 1.15499 0.56905 0.42283
 C1431 C 1.23513 0.58600 0.40137
 C1432 C 0.83589 0.41891 0.43036
 H1433 H 0.85824 0.42479 0.43510
 C1434 C 0.77846 0.40294 0.41737
 C1435 C 1.07990 0.66671 0.41967
 H1436 H 1.07469 0.64379 0.42421
 C1437 C 1.09399 0.72574 0.40781
 C1438 C 0.93308 0.32314 0.42841
 H1439 H 0.93924 0.34519 0.43490
 C1440 C 0.91631 0.26694 0.41034
 O1441 O 0.46949 0.89670 0.34997
 O1442 O 0.47056 0.86091 0.31801
 C1443 C 0.45967 0.88486 0.32701
 C1444 C 0.43429 0.89840 0.31180
 C1445 C 0.41875 0.88293 0.29026
 H1446 H 0.42583 0.86129 0.28366
 O1447 O 0.52688 1.10677 0.35587
 O1448 O 0.52886 1.14197 0.32240
 C1449 C 0.53861 1.11815 0.33339
 C1450 C 0.56475 1.10446 0.32074
 C1451 C 0.58131 1.12013 0.30002
 H1452 H 0.57431 1.14150 0.29207
 O1453 O 0.35232 0.97492 0.38700
 O1454 O 0.31893 0.97572 0.35265
 C1455 C 0.32835 0.96571 0.37678
 C1456 C 0.31163 0.94268 0.39282
 C1457 C 0.28362 0.93472 0.38375
 H1458 H 0.27367 0.94597 0.36542
 O1459 O 0.64017 1.02978 0.40023
 O1460 O 0.67657 1.03052 0.36888
 C1461 C 0.66431 1.04053 0.39149
 C1462 C 0.67798 1.06547 0.40716
 C1463 C 0.70590 1.07549 0.39910
 H1464 H 0.71781 1.06437 0.38215
 O1465 O 0.38730 0.85872 0.46616
 O1466 O 0.35347 0.82410 0.46441
 C1467 C 0.37729 0.83516 0.45524
 C1468 C 0.39274 0.82100 0.43088
 C1469 C 0.37920 0.79794 0.41579
 H1470 H 0.35790 0.78988 0.42234
 O1471 O 0.59564 1.15263 0.47368
 O1472 O 0.62962 1.18716 0.47394
 C1473 C 0.60615 1.17666 0.46373
 C1474 C 0.59115 1.19184 0.43949
 C1475 C 0.59977 1.22019 0.42999
 H1476 H 0.61715 1.23173 0.44104
 O1477 O 0.39478 1.03023 0.34607
 O1478 O 0.36241 1.03022 0.31074
 C1479 C 0.38591 1.03994 0.32166
 C1480 C 0.40276 1.06347 0.30657
 C1481 C 0.39576 1.07277 0.27819
 H1482 H 0.37836 1.06184 0.26662
 O1483 O 0.60490 0.97108 0.35758
 O1484 O 0.64120 0.97201 0.32617
 C1485 C 0.61714 0.96115 0.33490
 C1486 C 0.60373 0.93589 0.31942
 C1487 C 0.61971 0.91974 0.29892
 H1488 H 0.64176 0.92627 0.29338
 O1489 O 0.52527 0.85912 0.39454
 O1490 O 0.52695 0.82336 0.36257
 C1491 C 0.53586 0.83486 0.38609
 C1492 C 0.55924 0.82028 0.40343
 C1493 C 0.57128 0.79341 0.39428
 H1494 H 0.56313 0.78286 0.37491
 O1495 O 0.46750 1.14527 0.39243
 O1496 O 0.46892 1.18028 0.35874
 C1497 C 0.45841 1.16959 0.38225
 C1498 C 0.43569 1.18584 0.39807
 C1499 C 0.42996 1.21527 0.39078
 H1500 H 0.44210 1.22624 0.37351
 O1501 O 0.34911 1.10748 0.46387
 O1502 O 0.31613 1.14248 0.46150
 C1503 C 0.32701 1.11892 0.45176
 C1504 C 0.31472 1.10581 0.42511
 C1505 C 0.29379 1.12142 0.40904
 H1506 H 0.28563 1.14228 0.41673
 O1507 O 0.63842 0.89831 0.48131
 O1508 O 0.67184 0.86374 0.48349
 C1509 C 0.66242 0.88770 0.47269
 C1510 C 0.67888 0.90281 0.44908
 C1511 C 0.70617 0.89240 0.44020
 H1512 H 0.71608 0.87394 0.45146
 O1513 O 0.47045 1.10762 0.35014
 O1514 O 0.47221 1.14229 0.31616
 C1515 C 0.46219 1.11796 0.32571
 C1516 C 0.44023 1.10176 0.30865
 C1517 C 0.43317 1.11068 0.28018
 H1518 H 0.44452 1.12907 0.26993
 O1519 O 0.52685 0.89739 0.35210
 O1520 O 0.52826 0.86168 0.32005
 C1521 C 0.53815 0.88582 0.32976
 C1522 C 0.56440 0.89943 0.31635
 C1523 C 0.58049 0.88399 0.29549
 H1524 H 0.57263 0.86305 0.28748
 O1525 O 0.64119 0.97219 0.40096
 O1526 O 0.67752 0.97312 0.36956
 C1527 C 0.66579 0.96287 0.39262
 C1528 C 0.68041 0.93937 0.40961
 C1529 C 0.70764 0.92856 0.40097
 H1530 H 0.71856 0.93810 0.38217
 O1531 O 0.35383 1.03254 0.38468
 O1532 O 0.32145 1.03334 0.34937
 C1533 C 0.33129 1.04359 0.37301
 C1534 C 0.31702 1.06934 0.38640
 C1535 C 0.29620 1.08555 0.37065
 H1536 H 0.28987 1.07889 0.34901
 O1537 O 0.38907 1.14748 0.46819
 O1538 O 0.35615 1.18259 0.46639
 C1539 C 0.38025 1.17198 0.45802
 C1540 C 0.39790 1.18754 0.43554
 C1541 C 0.39238 1.21708 0.42779
 H1542 H 0.37549 1.22911 0.43891
 O1543 O 0.59674 0.85976 0.47894
 O1544 O 0.63007 0.82513 0.48109
 C1545 C 0.60730 0.83591 0.46950
 C1546 C 0.59367 0.82086 0.44428
 C1547 C 0.60498 0.79400 0.43473
 H1548 H 0.62282 0.78372 0.44629
 O1549 O 0.60282 1.02886 0.35866
 O1550 O 0.63918 1.03024 0.32728
 C1551 C 0.61500 1.04009 0.33633
 C1552 C 0.60198 1.06617 0.32196
 C1553 C 0.61817 1.08235 0.30128
 H1554 H 0.63937 1.07485 0.29432
 O1555 O 0.39295 0.97279 0.34775
 O1556 O 0.35959 0.97272 0.31337
 C1557 C 0.38267 0.96223 0.32441
 C1558 C 0.39677 0.93656 0.31070
 C1559 C 0.38209 0.92103 0.28889
 H1560 H 0.36112 0.92851 0.28117
 O1561 O 0.52386 1.14880 0.39334
 O1562 O 0.52476 1.18373 0.35953
 C1563 C 0.53349 1.17340 0.38369
 C1564 C 0.55545 1.18995 0.40036
 C1565 C 0.56421 1.21822 0.39123
 H1566 H 0.55428 1.22853 0.37237
 O1567 O 0.46834 0.85858 0.39210
 O1568 O 0.47007 0.82285 0.36005
 C1569 C 0.45872 0.83430 0.38241
 C1570 C 0.43288 0.82013 0.39588
 C1571 C 0.41912 0.79670 0.38158
 H1572 H 0.42825 0.78783 0.36180
 O1573 O 0.63458 1.11149 0.47478
 O1574 O 0.66883 1.14574 0.47486
 C1575 C 0.65871 1.12155 0.46529
 C1576 C 0.67511 1.10513 0.44282
 C1577 C 0.70312 1.11455 0.43442
 H1578 H 0.71310 1.13350 0.44460
 O1579 O 0.34687 0.89825 0.46559
 O1580 O 0.31290 0.86374 0.46418
 C1581 C 0.32345 0.88809 0.45490
 C1582 C 0.30898 0.90458 0.43095
 C1583 C 0.28082 0.89693 0.42146
 H1584 H 0.26897 0.87917 0.43219
 Cu1585 Cu 0.49743 0.88161 0.37522
 Cu1586 Cu 0.49922 0.83871 0.33692
 Cu1587 Cu 0.49690 1.12354 0.37625
 Cu1588 Cu 0.49859 1.16537 0.33563
 Cu1589 Cu 0.37676 1.00259 0.36984
 Cu1590 Cu 0.33726 1.00294 0.32807
 Cu1591 Cu 0.61859 1.00014 0.38242
 Cu1592 Cu 0.66213 1.00150 0.34469
 C1593 C 0.42311 0.92538 0.32160
 H1594 H 0.43418 0.93704 0.33881
 C1595 C 0.39266 0.89424 0.27880
 C1596 C 0.57510 1.07730 0.33146
 H1597 H 0.56283 1.06545 0.34805
 C1598 C 0.60796 1.10925 0.29063
 C1599 C 0.32401 0.92771 0.41663
 H1600 H 0.34581 0.93351 0.42349
 C1601 C 0.26809 0.91217 0.39791
 C1602 C 0.66279 1.08033 0.42920
 H1603 H 0.64112 1.07302 0.43528
 C1604 C 0.71854 1.09994 0.41270
 C1605 C 0.41971 0.83198 0.42079
 H1606 H 0.42988 0.85044 0.43163
 C1607 C 0.39228 0.78599 0.39125
 C1608 C 0.56876 1.17709 0.42471
 H1609 H 0.56231 1.15507 0.43157
 C1610 C 0.58614 1.23341 0.40584
 C1611 C 0.42521 1.07793 0.32143
 H1612 H 0.43037 1.07125 0.34351
 C1613 C 0.41106 1.09635 0.26484
 C1614 C 0.57592 0.92569 0.32763
 H1615 H 0.56387 0.93738 0.34410
 C1616 C 0.60814 0.89387 0.28693
 C1617 C 0.57059 0.83377 0.42859
 H1618 H 0.56193 0.85466 0.43558
 C1619 C 0.59417 0.78030 0.40992
 C1620 C 0.41982 1.17223 0.42071
 H1621 H 0.42405 1.14940 0.42628
 C1622 C 0.40865 1.23099 0.40553
 C1623 C 0.32603 1.07959 0.41375
 H1624 H 0.34263 1.06776 0.42570
 C1625 C 0.28476 1.11155 0.38189
 C1626 C 0.66638 0.92652 0.43385
 H1627 H 0.64517 0.93438 0.44033
 C1628 C 0.72056 0.90505 0.41623
 O1629 O 0.51148 0.90065 0.64582
 O1630 O 0.51038 0.86646 0.68033
 C1631 C 0.52030 0.89076 0.67012
 C1632 C 0.54257 0.90744 0.68649
 C1633 C 0.54979 0.89884 0.71492
 H1634 H 0.53868 0.88039 0.72534
 O1635 O 0.45995 1.10710 0.64181
 O1636 O 0.45748 1.14066 0.67603
 C1637 C 0.44890 1.11637 0.66525
 C1638 C 0.42535 1.09910 0.67972
 C1639 C 0.41697 1.10552 0.70831
 H1640 H 0.42833 1.12258 0.72012
 O1641 O 0.34055 1.02875 0.59852
 O1642 O 0.30540 1.02935 0.63120
 C1643 C 0.31653 1.03890 0.60757
 C1644 C 0.30174 1.06233 0.59061
 C1645 C 0.27373 1.07170 0.59834
 H1646 H 0.26249 1.06123 0.61647
 O1647 O 0.63170 0.97768 0.61328
 O1648 O 0.66424 0.97743 0.64844
 C1649 C 0.65465 0.96723 0.62472
 C1650 C 0.67015 0.94271 0.61061
 C1651 C 0.69704 0.93313 0.62151
 H1652 H 0.70692 0.94403 0.63990
 O1653 O 0.59466 0.85798 0.53606
 O1654 O 0.62802 0.82337 0.53817
 C1655 C 0.60403 0.83390 0.54676
 C1656 C 0.58728 0.81855 0.57007
 C1657 C 0.59653 0.79126 0.58134
 H1658 H 0.61550 0.78084 0.57213
 O1659 O 0.38421 1.14595 0.52486
 O1660 O 0.35024 1.17999 0.52291
 C1661 C 0.37285 1.16929 0.53465
 C1662 C 0.38515 1.18359 0.56066
 C1663 C 0.36905 1.20518 0.57509
 H1664 H 0.34803 1.21194 0.56688
 O1665 O 0.37795 0.97172 0.64142
 O1666 O 0.34294 0.97222 0.67429
 C1667 C 0.36690 0.96213 0.66513
 C1668 C 0.38207 0.93873 0.68178
 C1669 C 0.37254 0.92981 0.70961
 H1670 H 0.35404 0.94041 0.71957
 O1671 O 0.59293 1.03724 0.65056
 O1672 O 0.62598 1.03729 0.68522
 C1673 C 0.60310 1.04785 0.67398
 C1674 C 0.58884 1.07360 0.68732
 C1675 C 0.60281 1.08978 0.70935
 H1676 H 0.62359 1.08268 0.71786
 O1677 O 0.45754 0.85888 0.60420
 O1678 O 0.45622 0.82427 0.63827
 C1679 C 0.44755 0.83457 0.61393
 C1680 C 0.42537 0.81843 0.59687
 C1681 C 0.41642 0.78992 0.60527
 H1682 H 0.42621 0.77933 0.62403
 O1683 O 0.51595 1.15120 0.60393
 O1684 O 0.51310 1.18563 0.63723
 C1685 C 0.52459 1.17556 0.61420
 C1686 C 0.54908 1.19154 0.59981
 C1687 C 0.55935 1.21844 0.61068
 H1688 H 0.54858 1.22852 0.62899
 O1689 O 0.34468 0.89648 0.52228
 O1690 O 0.31126 0.86142 0.52082
 C1691 C 0.32082 0.88535 0.53130
 C1692 C 0.30435 0.90006 0.55461
 C1693 C 0.27663 0.88986 0.56283
 H1694 H 0.26667 0.87151 0.55163
 O1695 O 0.63314 1.11161 0.53133
 O1696 O 0.66773 1.14556 0.53140
 C1697 C 0.65697 1.12154 0.54120
 C1698 C 0.67221 1.10511 0.56442
 C1699 C 0.70101 1.11222 0.57134
 H1700 H 0.71245 1.12946 0.55936
 O1701 O 0.51666 1.11256 0.64574
 O1702 O 0.51407 1.14707 0.67901
 C1703 C 0.52573 1.12395 0.66925
 C1704 C 0.55100 1.11106 0.68459
 C1705 C 0.56558 1.12716 0.70610
 H1706 H 0.55778 1.14867 0.71233
 O1707 O 0.45496 0.89672 0.64609
 O1708 O 0.45387 0.86232 0.68038
 C1709 C 0.44428 0.88614 0.66958
 C1710 C 0.42012 0.90155 0.68403
 C1711 C 0.41042 0.89291 0.71193
 H1712 H 0.42112 0.87511 0.72346
 O1713 O 0.63180 1.03508 0.60975
 O1714 O 0.66520 1.03489 0.64409
 C1715 C 0.65569 1.04460 0.61982
 C1716 C 0.67192 1.06758 0.60309
 C1717 C 0.70084 1.07518 0.60986
 H1718 H 0.71190 1.06387 0.62746
 O1719 O 0.34076 0.97137 0.59920
 O1720 O 0.30547 0.97160 0.63175
 C1721 C 0.31663 0.96137 0.60865
 C1722 C 0.30205 0.93722 0.59264
 C1723 C 0.27420 0.92674 0.60055
 H1724 H 0.26263 0.93681 0.61836
 O1725 O 0.59444 1.15288 0.53042
 O1726 O 0.62871 1.18709 0.53094
 C1727 C 0.60469 1.17678 0.54048
 C1728 C 0.58865 1.19210 0.56397
 C1729 C 0.59860 1.21912 0.57521
 H1730 H 0.61788 1.22958 0.56615
 O1731 O 0.38545 0.85742 0.52313
 O1732 O 0.35227 0.82216 0.52154
 C1733 C 0.37533 0.83298 0.53250
 C1734 C 0.39017 0.81756 0.55693
 C1735 C 0.38148 0.78910 0.56581
 H1736 H 0.36430 0.77769 0.55432
 O1737 O 0.58839 0.97980 0.64928
 O1738 O 0.62065 0.97944 0.68470
 C1739 C 0.59711 0.96978 0.67355
 C1740 C 0.58001 0.94612 0.68834
 C1741 C 0.58684 0.93707 0.71679
 H1742 H 0.60420 0.94806 0.72838
 O1743 O 0.38072 1.02886 0.63815
 O1744 O 0.34598 1.02943 0.67129
 C1745 C 0.37034 1.03887 0.66157
 C1746 C 0.38677 1.06162 0.67770
 C1747 C 0.37888 1.06840 0.70632
 H1748 H 0.36094 1.05687 0.71685
 O1749 O 0.45890 1.14961 0.60378
 O1750 O 0.45588 1.18330 0.63779
 C1751 C 0.44704 1.17251 0.61405
 C1752 C 0.42168 1.18573 0.59915
 C1753 C 0.40546 1.20786 0.61284
 H1754 H 0.41224 1.21648 0.63365
 O1755 O 0.51403 0.85794 0.60898
 O1756 O 0.51267 0.82357 0.64328
 C1757 C 0.52360 0.83409 0.62002
 C1758 C 0.54808 0.81877 0.60602
 C1759 C 0.55772 0.79153 0.61705
 H1760 H 0.54677 0.78109 0.63538
 O1761 O 0.63458 0.89878 0.53814
 O1762 O 0.66809 0.86432 0.54024
 C1763 C 0.65760 0.88835 0.54944
 C1764 C 0.67180 0.90414 0.57388
 C1765 C 0.69880 0.89494 0.58512
 H1766 H 0.70979 0.87644 0.57544
 O1767 O 0.34425 1.10572 0.52071
 O1768 O 0.31035 1.13978 0.51824
 C1769 C 0.31986 1.11571 0.52885
 C1770 C 0.30312 1.09964 0.55174
 C1771 C 0.27507 1.10863 0.55976
 H1772 H 0.26475 1.12677 0.54836
 Cu1773 Cu 0.48455 0.88195 0.62285
 Cu1774 Cu 0.48319 0.84072 0.66396
 Cu1775 Cu 0.48815 1.12677 0.62046
 Cu1776 Cu 0.48475 1.16757 0.66082
 Cu1777 Cu 0.36943 0.88118 0.49446
 Cu1778 Cu 0.32922 0.83925 0.49259
 Cu1779 Cu 0.61280 0.88217 0.50851
 Cu1780 Cu 0.65274 0.84063 0.51098
 Cu1781 Cu 0.36998 1.12317 0.49465
 Cu1782 Cu 0.32982 1.16463 0.49204
 Cu1783 Cu 0.61093 1.12886 0.50252
 Cu1784 Cu 0.65216 1.16984 0.50280
 Cu1785 Cu 0.36341 1.00008 0.61602
 Cu1786 Cu 0.32138 1.00088 0.65537
 Cu1787 Cu 0.60796 1.00753 0.62732
 Cu1788 Cu 0.64719 1.00720 0.66916
 C1789 C 0.55757 0.93134 0.67345
 H1790 H 0.55239 0.93783 0.65133
 C1791 C 0.57169 0.91347 0.73010
 C1792 C 0.41031 1.07685 0.66464
 H1793 H 0.41640 1.07196 0.64246
 C1794 C 0.39388 1.09005 0.72168
 C1795 C 0.31608 1.07622 0.56711
 H1796 H 0.33787 1.06940 0.56137
 C1797 C 0.26030 1.09478 0.58292
 C1798 C 0.65783 0.92824 0.58670
 H1799 H 0.63696 0.93538 0.57845
 C1800 C 0.71156 0.90952 0.60894
 C1801 C 0.56281 0.83196 0.58239
 H1802 H 0.55574 0.85318 0.57413
 C1803 C 0.58179 0.77767 0.60488
 C1804 C 0.41153 1.17402 0.57280
 H1805 H 0.42360 1.15669 0.56230
 C1806 C 0.37907 1.21726 0.60099
 C1807 C 0.40601 0.92461 0.66936
 H1808 H 0.41327 0.93111 0.64777
 C1809 C 0.38668 0.90712 0.72483
 C1810 C 0.56267 1.08419 0.67556
 H1811 H 0.55200 1.07212 0.65837
 C1812 C 0.59132 1.11669 0.71853
 C1813 C 0.41234 0.83191 0.57249
 H1814 H 0.41891 0.85403 0.56609
 C1815 C 0.39455 0.77518 0.58976
 C1816 C 0.56371 1.17877 0.57628
 H1817 H 0.55615 1.15780 0.56808
 C1818 C 0.58392 1.23234 0.59860
 C1819 C 0.31675 0.92384 0.56947
 H1820 H 0.33830 0.93152 0.56337
 C1821 C 0.26141 0.90305 0.58552
 C1822 C 0.65793 1.08258 0.58014
 H1823 H 0.63556 1.07722 0.57493
 C1824 C 0.71544 1.09741 0.59373
 O1825 O 0.47167 0.39555 0.85733
 O1826 O 0.47038 0.36302 0.82206
 C1827 C 0.46146 0.38677 0.83330
 C1828 C 0.43832 0.40397 0.81899
 C1829 C 0.42851 0.39683 0.79104
 H1830 H 0.43869 0.37913 0.77926
 O1831 O 0.53317 0.61080 0.86106
 O1832 O 0.53170 0.64650 0.82815
 C1833 C 0.54187 0.62209 0.83712
 C1834 C 0.56427 0.60680 0.81975
 C1835 C 0.57324 0.61814 0.79258
 H1836 H 0.56336 0.63790 0.78373
 O1837 O 0.36023 0.47331 0.90499
 O1838 O 0.32480 0.47476 0.87279
 C1839 C 0.33582 0.46398 0.89594
 C1840 C 0.32043 0.44005 0.91227
 C1841 C 0.29208 0.43149 0.90451
 H1842 H 0.28109 0.44286 0.88691
 O1843 O 0.64264 0.52806 0.89402
 O1844 O 0.67594 0.52976 0.85945
 C1845 C 0.66613 0.53866 0.88373
 C1846 C 0.68217 0.56190 0.89962
 C1847 C 0.70985 0.57034 0.88996
 H1848 H 0.71973 0.55941 0.87162
 O1849 O 0.39699 0.35005 0.97568
 O1850 O 0.36240 0.31610 0.97584
 C1851 C 0.38517 0.32733 0.96466
 C1852 C 0.39686 0.31482 0.93759
 C1853 C 0.37991 0.29481 0.92170
 H1854 H 0.35896 0.28736 0.92988
 O1855 O 0.61003 0.64706 0.97679
 O1856 O 0.64460 0.68096 0.97743
 C1857 C 0.62054 0.67149 0.96774
 C1858 C 0.60505 0.68844 0.94501
 C1859 C 0.61470 0.71662 0.93631
 H1860 H 0.63305 0.72685 0.94706
 O1861 O 0.39944 0.53135 0.86394
 O1862 O 0.36474 0.53249 0.83090
 C1863 C 0.38884 0.54211 0.84066
 C1864 C 0.40450 0.56652 0.82537
 C1865 C 0.39558 0.57659 0.79772
 H1866 H 0.37747 0.56599 0.78694
 O1867 O 0.60297 0.47199 0.85236
 O1868 O 0.63647 0.47320 0.81796
 C1869 C 0.61340 0.46203 0.82889
 C1870 C 0.59982 0.43573 0.81556
 C1871 C 0.61513 0.41943 0.79470
 H1872 H 0.63610 0.42707 0.78676
 O1873 O 0.52614 0.35195 0.89613
 O1874 O 0.52383 0.31820 0.86205
 C1875 C 0.53445 0.32767 0.88571
 C1876 C 0.55727 0.31071 0.90085
 C1877 C 0.56330 0.28177 0.89271
 H1878 H 0.55056 0.27126 0.87591
 O1879 O 0.47789 0.64836 0.90508
 O1880 O 0.47638 0.68390 0.87201
 C1881 C 0.46743 0.67252 0.89583
 C1882 C 0.44404 0.68727 0.91231
 C1883 C 0.43285 0.71402 0.90198
 H1884 H 0.44212 0.72456 0.88279
 O1885 O 0.36437 0.60507 0.98308
 O1886 O 0.33113 0.63983 0.98517
 C1887 C 0.34132 0.61688 0.97345
 C1888 C 0.32738 0.60522 0.94707
 C1889 C 0.30924 0.62360 0.93051
 H1890 H 0.30421 0.64561 0.93779
 O1891 O 0.64739 0.38936 0.96365
 O1892 O 0.68053 0.35464 0.96066
 C1893 C 0.66989 0.37881 0.95163
 C1894 C 0.68323 0.39409 0.92621
 C1895 C 0.70504 0.38008 0.91009
 H1896 H 0.71280 0.35851 0.91665
 O1897 O 0.47664 0.60979 0.86399
 O1898 O 0.47522 0.64521 0.83075
 C1899 C 0.46594 0.62067 0.84084
 C1900 C 0.44226 0.60484 0.82570
 C1901 C 0.43318 0.61434 0.79809
 H1902 H 0.44393 0.63283 0.78738
 O1903 O 0.52815 0.39291 0.85640
 O1904 O 0.52694 0.35914 0.82228
 C1905 C 0.53790 0.38242 0.83283
 C1906 C 0.56313 0.39648 0.81817
 C1907 C 0.57882 0.38064 0.79743
 H1908 H 0.57191 0.35868 0.79136
 O1909 O 0.64522 0.47042 0.88920
 O1910 O 0.67844 0.47250 0.85453
 C1911 C 0.66842 0.46069 0.87766
 C1912 C 0.68286 0.43428 0.89023
 C1913 C 0.70469 0.41973 0.87445
 H1914 H 0.71205 0.42846 0.85365
 O1915 O 0.36075 0.53108 0.90455
 O1916 O 0.32600 0.53270 0.87156
 C1917 C 0.33757 0.54242 0.89460
 C1918 C 0.32520 0.56858 0.90866
 C1919 C 0.30661 0.58712 0.89272
 H1920 H 0.29970 0.58126 0.87102
 O1921 O 0.40333 0.64615 0.98447
 O1922 O 0.37002 0.68072 0.98727
 C1923 C 0.39302 0.67068 0.97576
 C1924 C 0.40740 0.68677 0.95113
 C1925 C 0.39607 0.71347 0.93986
 H1926 H 0.37720 0.72333 0.94984
 O1927 O 0.60723 0.34863 0.96739
 O1928 O 0.64024 0.31374 0.96497
 C1929 C 0.61589 0.32431 0.95718
 C1930 C 0.59747 0.30886 0.93558
 C1931 C 0.60325 0.27974 0.92708
 H1932 H 0.62120 0.26786 0.93677
 O1933 O 0.60486 0.53008 0.85221
 O1934 O 0.63785 0.53166 0.81737
 C1935 C 0.61473 0.54147 0.82871
 C1936 C 0.59973 0.56715 0.81530
 C1937 C 0.60860 0.57899 0.78817
 H1938 H 0.62592 0.56857 0.77616
 O1939 O 0.39764 0.47412 0.86230
 O1940 O 0.36242 0.47527 0.82983
 C1941 C 0.38647 0.46509 0.83875
 C1942 C 0.40143 0.44223 0.82184
 C1943 C 0.39201 0.43500 0.79378
 H1944 H 0.37400 0.44666 0.78389
 O1945 O 0.53446 0.65030 0.90164
 O1946 O 0.53303 0.68613 0.86889
 C1947 C 0.54375 0.67496 0.89189
 C1948 C 0.56761 0.69017 0.90745
 C1949 C 0.57748 0.71845 0.89898
 H1950 H 0.56707 0.72990 0.88108
 O1951 O 0.46939 0.35323 0.89523
 O1952 O 0.46718 0.32072 0.85998
 C1953 C 0.45775 0.33061 0.88388
 C1954 C 0.43217 0.31653 0.89789
 C1955 C 0.41481 0.29656 0.88231
 H1956 H 0.42066 0.29045 0.86037
 O1957 O 0.64743 0.60486 0.97286
 O1958 O 0.68238 0.63837 0.97291
 C1959 C 0.67107 0.61508 0.96235
 C1960 C 0.68501 0.59963 0.93745
 C1961 C 0.71292 0.60782 0.92703
 H1962 H 0.72488 0.62553 0.93724
 O1963 O 0.36078 0.39276 0.98118
 O1964 O 0.32608 0.35894 0.98110
 C1965 C 0.33646 0.38351 0.97196
 C1966 C 0.32063 0.40104 0.94971
 C1967 C 0.29225 0.39311 0.94170
 H1968 H 0.28127 0.37482 0.95252
 Cu1969 Cu 0.49902 0.37672 0.87978
 Cu1970 Cu 0.49701 0.33691 0.83809
 Cu1971 Cu 0.50585 0.62628 0.88628
 Cu1972 Cu 0.50388 0.66904 0.84666
 Cu1973 Cu 0.38295 0.50216 0.88726
 Cu1974 Cu 0.34082 0.50372 0.84813
 Cu1975 Cu 0.62055 0.50003 0.87526
 Cu1976 Cu 0.66037 0.50225 0.83383
 C1977 C 0.42482 0.42687 0.83409
 H1978 H 0.43195 0.43216 0.85586
 C1979 C 0.40541 0.41245 0.77835
 C1980 C 0.57741 0.58115 0.83071
 H1981 H 0.57077 0.57249 0.85177
 C1982 C 0.59527 0.60449 0.77669
 C1983 C 0.33443 0.42480 0.93510
 H1984 H 0.35648 0.43085 0.94091
 C1985 C 0.27795 0.40809 0.91925
 C1986 C 0.66994 0.57644 0.92356
 H1987 H 0.64840 0.57007 0.93098
 C1988 C 0.72528 0.59292 0.90327
 C1989 C 0.42312 0.32536 0.92565
 H1990 H 0.43594 0.34134 0.93749
 C1991 C 0.38868 0.28591 0.89412
 C1992 C 0.58137 0.67561 0.93067
 H1993 H 0.57417 0.65370 0.93710
 C1994 C 0.60104 0.73178 0.91352
 C1995 C 0.42803 0.58071 0.83904
 H1996 H 0.43480 0.57347 0.86050
 C1997 C 0.41008 0.60044 0.78402
 C1998 C 0.57360 0.42416 0.82693
 H1999 H 0.56202 0.43605 0.84359
 C2000 C 0.60475 0.39184 0.78593
 C2001 C 0.57418 0.32394 0.92254
 H2002 H 0.56980 0.34649 0.92855
 C2003 C 0.58594 0.26615 0.90570
 C2004 C 0.43149 0.67401 0.93714
 H2005 H 0.43992 0.65317 0.94500
 C2006 C 0.40894 0.72705 0.91521
 C2007 C 0.33526 0.57764 0.93602
 H2008 H 0.35026 0.56386 0.94808
 C2009 C 0.29918 0.61473 0.90338
 C2010 C 0.67249 0.42136 0.91627
 H2011 H 0.65520 0.43195 0.92820
 C2012 C 0.71566 0.39267 0.88429
 O2013 O 0.53991 0.38436 1.14506
 O2014 O 0.54052 0.34857 1.17791
 C2015 C 0.55049 0.37287 1.16798
 C2016 C 0.57581 0.38693 1.18218
 C2017 C 0.59040 0.37218 1.20478
 H2018 H 0.58226 0.35128 1.21316
 O2019 O 0.48189 0.59177 1.15816
 O2020 O 0.48356 0.62505 1.19267
 C2021 C 0.47235 0.60193 1.18199
 C2022 C 0.44655 0.58798 1.19614
 C2023 C 0.43082 0.60318 1.21758
 H2024 H 0.43851 0.62433 1.22524
 O2025 O 0.36440 0.51829 1.11436
 O2026 O 0.33082 0.51691 1.14866
 C2027 C 0.34094 0.52800 1.12509
 C2028 C 0.32579 0.55292 1.11037
 C2029 C 0.29846 0.56229 1.12031
 H2030 H 0.28781 0.55085 1.13825
 O2031 O 0.65402 0.46261 1.10096
 O2032 O 0.69012 0.46110 1.13242
 C2033 C 0.67837 0.45230 1.10906
 C2034 C 0.69303 0.42953 1.09148
 C2035 C 0.72089 0.41971 1.09920
 H2036 H 0.73191 0.42937 1.11760
 O2037 O 0.61191 0.34840 1.02385
 O2038 O 0.64595 0.31449 1.02135
 C2039 C 0.62331 0.32473 1.03331
 C2040 C 0.61109 0.30960 1.05929
 C2041 C 0.62688 0.28703 1.07292
 H2042 H 0.64748 0.27997 1.06396
 O2043 O 0.40517 0.64125 1.04148
 O2044 O 0.37125 0.67521 1.04433
 C2045 C 0.39486 0.66402 1.05338
 C2046 C 0.40935 0.67647 1.07921
 C2047 C 0.39554 0.69861 1.09518
 H2048 H 0.37529 0.70806 1.08766
 O2049 O 0.40474 0.45947 1.15198
 O2050 O 0.37160 0.45762 1.18670
 C2051 C 0.39493 0.44796 1.17533
 C2052 C 0.40999 0.42207 1.18829
 C2053 C 0.39719 0.40598 1.21146
 H2054 H 0.37703 0.41327 1.22117
 O2055 O 0.61759 0.51863 1.14545
 O2056 O 0.65400 0.51735 1.17657
 C2057 C 0.62991 0.52809 1.16825
 C2058 C 0.61684 0.55276 1.18451
 C2059 C 0.63367 0.56847 1.20459
 H2060 H 0.65589 0.56202 1.20898
 O2061 O 0.48331 0.34481 1.10452
 O2062 O 0.48452 0.30855 1.13687
 C2063 C 0.47414 0.31997 1.11379
 C2064 C 0.45059 0.30459 1.09808
 C2065 C 0.44277 0.27562 1.10581
 H2066 H 0.45460 0.26391 1.12264
 O2067 O 0.53760 0.63274 1.11567
 O2068 O 0.53865 0.66620 1.15005
 C2069 C 0.54768 0.65666 1.12576
 C2070 C 0.57044 0.67358 1.10964
 C2071 C 0.57915 0.70118 1.11986
 H2072 H 0.56883 0.71039 1.13889
 O2073 O 0.36098 0.38585 1.03756
 O2074 O 0.32721 0.35110 1.03756
 C2075 C 0.33788 0.37440 1.04821
 C2076 C 0.32375 0.38762 1.07380
 C2077 C 0.30060 0.37287 1.08787
 H2078 H 0.29235 0.35219 1.07957
 O2079 O 0.65060 0.60168 1.02931
 O2080 O 0.68522 0.63557 1.02955
 C2081 C 0.67504 0.61096 1.03835
 C2082 C 0.69174 0.59332 1.05958
 C2083 C 0.72044 0.60126 1.06613
 H2084 H 0.73076 0.61979 1.05506
 O2085 O 0.53945 0.59217 1.15579
 O2086 O 0.54122 0.62565 1.19010
 C2087 C 0.55111 0.60247 1.17860
 C2088 C 0.57781 0.58864 1.19042
 C2089 C 0.59481 0.60352 1.21116
 H2090 H 0.58741 0.62407 1.22025
 O2091 O 0.48270 0.38313 1.14590
 O2092 O 0.48330 0.34694 1.17830
 C2093 C 0.47269 0.37104 1.16894
 C2094 C 0.44767 0.38424 1.18446
 C2095 C 0.43396 0.36833 1.20701
 H2096 H 0.44203 0.34691 1.21365
 O2097 O 0.65513 0.51988 1.10334
 O2098 O 0.69155 0.51820 1.13445
 C2099 C 0.67975 0.52923 1.11191
 C2100 C 0.69431 0.55356 1.09573
 C2101 C 0.72306 0.56207 1.10223
 H2102 H 0.73515 0.55038 1.11887
 O2103 O 0.36189 0.46035 1.11556
 O2104 O 0.32876 0.45903 1.15031
 C2105 C 0.33862 0.44948 1.12647
 C2106 C 0.32381 0.42450 1.11204
 C2107 C 0.30067 0.40929 1.12587
 H2108 H 0.29258 0.41649 1.14675
 O2109 O 0.61079 0.64173 1.03367
 O2110 O 0.64509 0.67587 1.03456
 C2111 C 0.62161 0.66479 1.04487
 C2112 C 0.60675 0.67809 1.07048
 C2113 C 0.61508 0.70594 1.08134
 H2114 H 0.63227 0.71848 1.07071
 O2115 O 0.40274 0.34763 1.03243
 O2116 O 0.36901 0.31286 1.03230
 C2117 C 0.39335 0.32275 1.04129
 C2118 C 0.41081 0.30580 1.06279
 C2119 C 0.40329 0.27673 1.07088
 H2120 H 0.38481 0.26609 1.06077
 O2121 O 0.61707 0.46099 1.14386
 O2122 O 0.65308 0.45935 1.17540
 C2123 C 0.62873 0.44974 1.16636
 C2124 C 0.61438 0.42441 1.18127
 C2125 C 0.62854 0.40927 1.20395
 H2126 H 0.64952 0.41679 1.21171
 O2127 O 0.40321 0.51700 1.15538
 O2128 O 0.36969 0.51555 1.18975
 C2129 C 0.39306 0.52633 1.17930
 C2130 C 0.40752 0.55111 1.19431
 C2131 C 0.39225 0.56673 1.21558
 H2132 H 0.37048 0.55990 1.22191
 O2133 O 0.48086 0.63328 1.11906
 O2134 O 0.48222 0.66626 1.15391
 C2135 C 0.47119 0.65662 1.13054
 C2136 C 0.44607 0.67209 1.11741
 C2137 C 0.43127 0.69351 1.13339
 H2138 H 0.43852 0.69931 1.15500
 O2139 O 0.54011 0.34498 1.10479
 O2140 O 0.54120 0.30936 1.13782
 C2141 C 0.55084 0.32101 1.11445
 C2142 C 0.57563 0.30739 1.09898
 C2143 C 0.59166 0.28441 1.11207
 H2144 H 0.58532 0.27554 1.13315
 O2145 O 0.65137 0.38892 1.02046
 O2146 O 0.68541 0.35509 1.01756
 C2147 C 0.67567 0.37864 1.02863
 C2148 C 0.69204 0.39373 1.05202
 C2149 C 0.71991 0.38416 1.06026
 H2150 H 0.73026 0.36632 1.04881
 O2151 O 0.36467 0.60109 1.04002
 O2152 O 0.33065 0.63499 1.04217
 C2153 C 0.34101 0.61047 1.05078
 C2154 C 0.32584 0.59309 1.07406
 C2155 C 0.29846 0.60191 1.08440
 H2156 H 0.28798 0.62090 1.07468
 Cu2157 Cu 0.51144 0.36795 1.12184
 Cu2158 Cu 0.51231 0.32488 1.16113
 Cu2159 Cu 0.50979 0.60894 1.13393
 Cu2160 Cu 0.51172 0.64897 1.17524
 Cu2161 Cu 0.38386 0.37236 1.00690
 Cu2162 Cu 0.34279 0.33138 1.00678
 Cu2163 Cu 0.62614 0.37228 0.99393
 Cu2164 Cu 0.66647 0.33112 0.99072
 Cu2165 Cu 0.38779 0.62005 1.01208
 Cu2166 Cu 0.34738 0.66108 1.01518
 Cu2167 Cu 0.62619 0.62061 1.00313
 Cu2168 Cu 0.66772 0.66110 1.00371
 Cu2169 Cu 0.38680 0.48895 1.13088
 Cu2170 Cu 0.34700 0.48726 1.17232
 Cu2171 Cu 0.63228 0.49065 1.12034
 Cu2172 Cu 0.67569 0.48874 1.15801
 C2173 C 0.58777 0.41328 1.17084
 H2174 H 0.57705 0.42438 1.15289
 C2175 C 0.61662 0.38322 1.21555
 C2176 C 0.43483 0.56170 1.18497
 H2177 H 0.44625 0.55030 1.16786
 C2178 C 0.40358 0.59273 1.22706
 C2179 C 0.33917 0.56835 1.08705
 H2180 H 0.36042 0.56160 1.07952
 C2181 C 0.28466 0.58657 1.10745
 C2182 C 0.67893 0.41665 1.06764
 H2183 H 0.65727 0.42385 1.06183
 C2184 C 0.73441 0.39705 1.08373
 C2185 C 0.58536 0.31952 1.07234
 H2186 H 0.57353 0.33751 1.06232
 C2187 C 0.61739 0.27446 1.09911
 C2188 C 0.43495 0.66369 1.09024
 H2189 H 0.44553 0.64634 1.07829
 C2190 C 0.40619 0.70671 1.12237
 C2191 C 0.43557 0.41120 1.17527
 H2192 H 0.44541 0.42311 1.15717
 C2193 C 0.40901 0.37900 1.22051
 C2194 C 0.58882 0.56292 1.17769
 H2195 H 0.57617 0.55163 1.16133
 C2196 C 0.62286 0.59372 1.21786
 C2197 C 0.43475 0.31936 1.07634
 H2198 H 0.44049 0.34189 1.07065
 C2199 C 0.41938 0.26157 1.09236
 C2200 C 0.58417 0.66226 1.08480
 H2201 H 0.57768 0.64077 1.07702
 C2202 C 0.60105 0.71748 1.10605
 C2203 C 0.33490 0.41364 1.08580
 H2204 H 0.35310 0.42477 1.07532
 C2205 C 0.28908 0.38353 1.11380
 C2206 C 0.67892 0.56921 1.07418
 H2207 H 0.65663 0.56318 1.06935
 C2208 C 0.73612 0.58590 1.08724
 N2209 N 1.12567 1.12529 1.24944
 N2210 N 1.12562 1.12657 1.22272
 N2211 N 1.13428 0.60621 0.76599
 N2212 N 1.11186 0.61405 0.75183
 N2213 N 0.61339 1.13190 0.76182
 N2214 N 0.60833 1.13633 0.73582
 N2215 N 0.63964 0.61811 1.25920
 N2216 N 0.64265 0.61218 1.23330
 N2217 N 0.87347 0.86818 1.25734
 N2218 N 0.87660 0.86688 1.23078
 N2219 N 0.88476 0.37567 0.75899
 N2220 N 0.88812 0.36888 0.73341
 N2221 N 0.38743 0.87883 0.76904
 N2222 N 0.37580 0.89855 0.75296
 N2223 N 0.38855 0.36612 1.26546
 N2224 N 0.39351 0.35981 1.23998
 N2225 N 0.86642 1.12685 0.74520
 N2226 N 0.86575 1.12888 0.77181
 N2227 N 0.91173 0.61112 0.22706
 N2228 N 0.90069 0.59134 0.24356
 N2229 N 0.38240 1.09610 0.22236
 N2230 N 0.40397 1.10664 0.23612
 N2231 N 0.37989 0.60169 0.74216
 N2232 N 0.40170 0.61156 0.75602
 N2233 N 1.08095 0.89736 0.72296
 N2234 N 1.09286 0.91728 0.73813
 N2235 N 1.11229 0.41505 0.22306
 N2236 N 1.09159 0.40392 0.23803
 N2237 N 0.62610 0.87259 0.24449
 N2238 N 0.62670 0.87451 0.27120
 N2239 N 0.62402 0.37374 0.74301
 N2240 N 0.62296 0.37273 0.76974
 N2241 N 1.25606 1.12339 1.11397
 N2242 N 1.22992 1.12873 1.11426
 N2243 N 1.25642 0.63145 0.62669
 N2244 N 1.22996 0.63293 0.62337
 N2245 N 0.75942 1.09482 0.62040
 N2246 N 0.74469 1.10620 0.59988
 N2247 N 0.78089 0.58508 1.11324
 N2248 N 0.76494 0.59599 1.09337
 N2249 N 1.24618 0.87579 0.86533
 N2250 N 1.21986 0.87977 0.86308
 N2251 N 1.25890 0.37769 0.36634
 N2252 N 1.23225 0.37602 0.36515
 N2253 N 0.76106 0.90153 0.38437
 N2254 N 0.74767 0.89272 0.40717
 N2255 N 0.75996 0.37647 0.86578
 N2256 N 0.73319 0.37533 0.86546
 N2257 N 0.73025 0.90505 1.11515
 N2258 N 0.74571 0.89312 1.09565
 N2259 N 0.73759 0.40277 0.62015
 N2260 N 0.75276 0.39135 0.60016
 N2261 N 0.21729 0.90284 0.61245
 N2262 N 0.23317 0.89159 0.59288
 N2263 N 0.24301 0.36727 1.12852
 N2264 N 0.26965 0.36525 1.13044
 N2265 N 0.73907 1.12238 0.87218
 N2266 N 0.76560 1.12548 0.87391
 N2267 N 0.73417 0.62375 0.40214
 N2268 N 0.74935 0.60258 0.39257
 N2269 N 0.24127 1.12981 0.36364
 N2270 N 0.26803 1.13059 0.36370
 N2271 N 0.25913 0.63507 0.88068
 N2272 N 0.28552 0.63570 0.88478
 N2273 N 1.09380 1.27509 1.12124
 N2274 N 1.10342 1.25776 1.10206
 N2275 N 1.09517 0.76981 0.60720
 N2276 N 1.10900 0.75450 0.58888
 N2277 N 0.61552 1.27413 0.60171
 N2278 N 0.59385 1.25932 0.61134
 N2279 N 0.62634 0.76363 1.10695
 N2280 N 0.60812 0.74561 1.11816
 N2281 N 0.90058 1.28048 0.89028
 N2282 N 0.88781 1.26349 0.90846
 N2283 N 0.87665 0.76773 0.39996
 N2284 N 0.89696 0.75230 0.38930
 N2285 N 0.38436 1.27700 0.40786
 N2286 N 0.40353 1.26073 0.39641
 N2287 N 0.37438 0.76590 0.90901
 N2288 N 0.39792 0.75336 0.90179
 N2289 N 1.12416 0.73751 0.89152
 N2290 N 1.10263 0.75147 0.88107
 N2291 N 1.10381 0.23252 0.37706
 N2292 N 1.11506 0.24752 0.39739
 N2293 N 0.60087 0.73981 0.37789
 N2294 N 0.60768 0.75347 0.40095
 N2295 N 0.61101 0.22054 0.90623
 N2296 N 0.59156 0.23709 0.89541
 N2297 N 0.89129 0.72260 1.09115
 N2298 N 0.91080 0.73911 1.10197
 N2299 N 0.88290 0.22269 0.60148
 N2300 N 0.90416 0.23742 0.61170
 N2301 N 0.39544 0.73187 0.61945
 N2302 N 0.38432 0.74653 0.59850
 N2303 N 0.39097 0.21812 1.09033
 N2304 N 0.41169 0.23237 1.10193
 N2305 N 1.11284 1.13339 0.74037
 N2306 N 1.11283 1.13694 0.76684
 N2307 N 1.12963 0.63141 0.23741
 N2308 N 1.12767 0.63298 0.26404
 N2309 N 0.62388 1.12528 0.24573
 N2310 N 0.62599 1.12695 0.27227
 N2311 N 0.62476 0.60739 0.73415
 N2312 N 0.60394 0.61744 0.74930
 N2313 N 0.88886 0.87546 0.73027
 N2314 N 0.87922 0.89621 0.74585
 N2315 N 0.87652 0.36936 0.24769
 N2316 N 0.87515 0.36951 0.27441
 N2317 N 0.37230 0.87518 0.23608
 N2318 N 0.37337 0.87556 0.26288
 N2319 N 0.40375 0.38348 0.73585
 N2320 N 0.39463 0.40544 0.75010
 N2321 N 1.12524 0.88098 1.25885
 N2322 N 1.12762 0.88045 1.23223
 N2323 N 1.13179 0.37504 0.75930
 N2324 N 1.13193 0.37219 0.73274
 N2325 N 0.59905 0.91495 0.77341
 N2326 N 0.57923 0.90280 0.75843
 N2327 N 0.63206 0.36929 1.26159
 N2328 N 0.63322 0.36561 1.23515
 N2329 N 0.89962 1.11692 1.27113
 N2330 N 0.88959 1.09687 1.25484
 N2331 N 0.88361 0.59517 0.76502
 N2332 N 0.90524 0.60484 0.75032
 N2333 N 0.39640 1.11666 0.76556
 N2334 N 0.38459 1.09648 0.75060
 N2335 N 0.38544 0.61438 1.26927
 N2336 N 0.38447 0.61159 1.24268
 N2337 N 1.11368 1.28067 0.90280
 N2338 N 1.09342 1.26537 0.89153
 N2339 N 1.08990 0.77179 0.38338
 N2340 N 1.10232 0.75567 0.40233
 N2341 N 0.61401 1.27785 0.40636
 N2342 N 0.59475 1.26168 0.39462
 N2343 N 0.60035 0.77595 0.88539
 N2344 N 0.61195 0.76041 0.90537
 N2345 N 0.86961 1.25503 1.13031
 N2346 N 0.86623 1.22820 1.12873
 N2347 N 0.88207 0.76338 0.59435
 N2348 N 0.90427 0.74982 0.60377
 N2349 N 0.36449 1.26190 0.62048
 N2350 N 0.36000 1.23536 0.61739
 N2351 N 0.38481 0.75085 1.13581
 N2352 N 0.38916 0.72459 1.14101
 N2353 N 0.90793 0.72883 0.87747
 N2354 N 0.89865 0.74374 0.89872
 N2355 N 0.88597 0.22443 0.40901
 N2356 N 0.90764 0.23901 0.39924
 N2357 N 0.38105 0.73915 0.37538
 N2358 N 0.37644 0.76577 0.37387
 N2359 N 0.36865 0.24311 0.87533
 N2360 N 0.36873 0.27019 0.87627
 N2361 N 1.13018 0.74436 1.11965
 N2362 N 1.12985 0.77145 1.11992
 N2363 N 1.12805 0.23559 0.61594
 N2364 N 1.13493 0.26176 0.61418
 N2365 N 0.61285 0.73673 0.60624
 N2366 N 0.59150 0.75030 0.61728
 N2367 N 0.63245 0.22923 1.11832
 N2368 N 0.63691 0.25581 1.11474
 N2369 N 1.26418 1.10325 0.87978
 N2370 N 1.24795 1.11491 0.89881
 N2371 N 1.28080 0.61036 0.40470
 N2372 N 1.26446 0.59171 0.39220
 N2373 N 0.76160 1.10021 0.38379
 N2374 N 0.74689 1.11069 0.40473
 N2375 N 0.77004 0.62008 0.90060
 N2376 N 0.75325 0.59998 0.89127
 N2377 N 1.26358 0.86963 1.09877
 N2378 N 1.24955 0.89256 1.10585
 N2379 N 1.27767 0.41016 0.61689
 N2380 N 1.26229 0.40061 0.59604
 N2381 N 0.75386 0.88036 0.60932
 N2382 N 0.73912 0.90076 0.62082
 N2383 N 0.77624 0.39672 1.11367
 N2384 N 0.76224 0.38588 1.09240
 N2385 N 0.72410 1.08544 1.11941
 N2386 N 0.73916 1.09563 1.09835
 N2387 N 0.74007 0.61781 0.59928
 N2388 N 0.75524 0.59702 0.60985
 N2389 N 0.21785 1.09490 0.61255
 N2390 N 0.23211 1.10532 0.59094
 N2391 N 0.24306 0.61707 1.10734
 N2392 N 0.25687 0.59552 1.11849
 N2393 N 0.72805 0.90412 0.88772
 N2394 N 0.74416 0.89048 0.90572
 N2395 N 0.73529 0.40543 0.38980
 N2396 N 0.74940 0.39385 0.41071
 N2397 N 0.22299 0.88584 0.39883
 N2398 N 0.23971 0.90508 0.38719
 N2399 N 0.23627 0.40881 0.88912
 N2400 N 0.24950 0.39825 0.91111
   
