data_POSCAR
  _audit_creation_date              2014-09-24
  _audit_creation_method            'ToBaCCo'
  _symmetry_space_group_name_H-M    'P1'
  _symmetry_Int_Tables_number       1
  _symmetry_cell_setting            triclinic
  loop_
  _symmetry_equiv_pos_as_xyz
 x,y,z
_cell_length_a 70.9451
_cell_length_b 71.1945
_cell_length_c 70.0915
_cell_angle_alpha 89.777300
_cell_angle_beta 89.921400
_cell_angle_gamma 88.980200
loop_
  _atom_site_label
  _atom_site_type_symbol
  _atom_site_fract_x
  _atom_site_fract_y
  _atom_site_fract_z
N1 N 0.33237 0.42790 0.93016
 N2 N 0.44010 0.80552 0.43571
 N3 N 0.92861 0.93672 0.82321
 N4 N 0.43560 -0.06666 0.31893
 N5 N 0.82522 0.33401 0.34089
 N6 N -0.19811 0.79251 0.79822
 N7 N 0.92523 0.32387 0.44300
 N8 N 0.43065 0.42302 0.81389
 N9 N 0.82572 0.91509 0.92962
 N10 N 0.33248 0.82815 0.31734
 N11 N 0.80914 0.43198 0.44261
 N12 N 0.93540 0.82102 -0.07858
 N13 N 0.29616 0.31203 0.79482
 N14 N 0.16652 0.58486 0.57584
 N15 N 0.58231 0.67339 0.06504
 N16 N 0.67391 0.17265 0.69486
 N17 N 1.06409 0.07619 0.18363
 N18 N 0.06173 0.18181 1.07441
 N19 N 0.18602 0.69102 0.68244
 N20 N 1.17816 0.18623 0.17339
 N21 N 0.68526 1.06391 0.56572
 N22 N 0.56212 0.56805 0.17395
 N23 N 0.70644 0.70017 0.19205
 N24 N 0.18028 0.07608 1.06983
 N25 N 0.57636 0.16566 0.58284
 N26 N 0.06851 0.57471 0.67682
 N27 N 0.69780 0.55237 0.06707
 N28 N 0.06234 0.70047 0.54102
 N29 N 0.54612 1.04528 0.70065
 N30 N 0.41824 0.32225 0.93356
 N31 N 0.93180 0.44426 0.30965
 N32 N 0.32480 0.93435 0.42919
 O33 O 0.25219 0.47692 0.79914
 O34 O 0.21930 0.48178 0.79450
 O35 O 0.27002 0.45872 0.74289
 O36 O 0.27023 0.47023 0.71347
 O37 O 0.30163 0.49999 0.77431
 O38 O 0.29698 0.53316 0.77904
 O39 O 0.22419 0.52212 0.70624
 O40 O 0.22535 0.48839 0.70604
 O41 O 0.20286 0.53744 0.75955
 O42 O 0.21111 0.52871 0.79284
 O43 O 0.25048 0.56231 0.73799
 O44 O 0.28444 0.55365 0.73704
 O45 O 0.24858 0.54226 0.70876
 O46 O 0.28320 0.53680 0.71397
 O47 O 0.22948 0.55998 0.76238
 O48 O 0.23280 0.54667 0.79539
 O49 O 0.20067 0.52025 0.73241
 O50 O 0.20217 0.48829 0.72976
 O51 O 0.27652 0.49712 0.80203
 O52 O 0.27685 0.53098 0.80118
 O53 O 0.29878 0.48233 0.74749
 O54 O 0.29004 0.49247 0.71488
 O55 O 0.24967 0.45607 0.76784
 O56 O 0.21617 0.46614 0.77047
 Zr57 Zr 0.23978 0.48376 0.77269
 O58 O 0.22215 0.50458 0.76039
 Zr59 Zr 0.27117 0.48771 0.73776
 O60 O 0.25481 0.50851 0.72382
 Zr61 Zr 0.27508 0.51353 0.77694
 O62 O 0.25900 0.53569 0.76467
 Zr63 Zr 0.22630 0.50529 0.73078
 O64 O 0.24229 0.48276 0.74271
 Zr65 Zr 0.23021 0.53127 0.76978
 O66 O 0.24645 0.51022 0.78396
 Zr67 Zr 0.26167 0.53496 0.73479
 O68 O 0.27965 0.51425 0.74725
 O69 O 0.26832 0.48695 0.76726
 O70 O 0.23305 0.53199 0.74022
 C71 C 0.26629 0.48362 0.80817
 C72 C 0.26106 0.44909 0.75535
 C73 C 0.30813 0.48834 0.76184
 C74 C 0.23408 0.53585 0.70017
 C75 C 0.19408 0.53213 0.74455
 C76 C 0.23790 0.56927 0.74925
 H77 H 0.20884 0.50194 0.76347
 H78 H 0.26307 0.54782 0.76993
 H79 H 0.27609 0.47686 0.77324
 H80 H 0.25687 0.50767 0.70990
 H81 H 0.22902 0.47547 0.70999
 H82 H 0.26064 0.47573 0.70478
 H83 H 0.24408 0.55458 0.79427
 H84 H 0.26459 0.53013 0.80787
 H85 H 0.20613 0.47573 0.73442
 H86 H 0.21755 0.45891 0.75851
 H87 H 0.28388 0.55946 0.74983
 H88 H 0.30205 0.53479 0.76598
 H89 H 0.22058 0.49312 0.80249
 H90 H 0.20222 0.51865 0.78965
 H91 H 0.29844 0.50270 0.71886
 H92 H 0.28020 0.52796 0.70360
 O93 O 0.20285 0.03196 0.23939
 O94 O 0.20409 0.03073 0.27334
 O95 O 0.25604 0.05810 0.22619
 O96 O 0.28650 0.05208 0.23067
 O97 O 0.23760 0.00976 0.19489
 O98 O 0.23858 -0.02329 0.20165
 O99 O 0.29704 0.00636 0.28195
 O100 O 0.29107 0.03884 0.27878
 O101 O 0.24555 -0.01705 0.29844
 O102 O 0.21298 -0.01485 0.28576
 O103 O 0.27677 -0.04148 0.25510
 O104 O 0.28140 -0.03509 0.22111
 O105 O 0.30107 -0.01653 0.25969
 O106 O 0.30021 -0.01432 0.22383
 O107 O 0.25007 -0.04170 0.27307
 O108 O 0.21637 -0.03418 0.26516
 O109 O 0.26845 0.00452 0.30242
 O110 O 0.26549 0.03917 0.29659
 O111 O 0.20701 0.00926 0.21690
 O112 O 0.21450 -0.02381 0.21901
 O113 O 0.25978 0.03205 0.19914
 O114 O 0.29191 0.02799 0.21245
 O115 O 0.22887 0.05809 0.24355
 O116 O 0.22491 0.05108 0.27715
 Zr117 Zr 0.22803 0.03082 0.25536
 O118 O 0.24113 0.01381 0.27636
 Zr119 Zr 0.26657 0.03045 0.22833
 O120 O 0.28150 0.01384 0.24832
 Zr121 Zr 0.23413 -0.00206 0.22225
 O122 O 0.24778 -0.02038 0.24169
 Zr123 Zr 0.27036 0.01805 0.27577
 O124 O 0.25705 0.03665 0.25615
 Zr125 Zr 0.23812 -0.01465 0.26944
 O126 O 0.22287 0.00231 0.24972
 Zr127 Zr 0.27675 -0.01464 0.24253
 O128 O 0.26342 0.00202 0.22117
 O129 O 0.23765 0.02629 0.22775
 O130 O 0.26708 -0.01042 0.27024
 C131 C 0.19721 0.02229 0.22508
 C132 C 0.24101 0.06609 0.23269
 C133 C 0.24819 0.02297 0.18875
 C134 C 0.30649 -0.00717 0.27427
 C135 C 0.25809 -0.00888 0.30848
 C136 C 0.26529 -0.04940 0.26666
 H137 H 0.23564 0.01667 0.28899
 H138 H 0.24546 -0.03352 0.23799
 H139 H 0.23098 0.03449 0.21843
 H140 H 0.29502 0.01692 0.24783
 H141 H 0.28646 0.05006 0.27167
 H142 H 0.29536 0.04841 0.24096
 H143 H 0.22033 -0.04267 0.25470
 H144 H 0.20614 -0.02326 0.23032
 H145 H 0.25387 0.03621 0.30372
 H146 H 0.23742 0.05680 0.27880
 H147 H 0.26968 -0.04227 0.21974
 H148 H 0.25205 -0.02283 0.19801
 H149 H 0.19866 0.01807 0.27228
 H150 H 0.21300 -0.00381 0.29428
 H151 H 0.29093 0.01660 0.20449
 H152 H 0.30831 -0.00381 0.22764
 O153 O 0.56363 0.73293 0.25483
 O154 O 0.55159 0.73574 0.28614
 O155 O 0.51846 0.70550 0.22577
 O156 O 0.48801 0.71098 0.22014
 O157 O 0.54548 0.75287 0.19961
 O158 O 0.54379 0.78556 0.20406
 O159 O 0.46208 0.76181 0.26398
 O160 O 0.46661 0.72893 0.26307
 O161 O 0.50608 0.78443 0.29333
 O162 O 0.54008 0.78338 0.29142
 O163 O 0.48999 0.80645 0.23963
 O164 O 0.49594 0.79712 0.20663
 O165 O 0.46506 0.78188 0.23889
 O166 O 0.47692 0.77645 0.20518
 O167 O 0.50813 0.80770 0.26629
 O168 O 0.54342 0.80077 0.26898
 O169 O 0.48368 0.76198 0.29229
 O170 O 0.48619 0.72765 0.28765
 O171 O 0.56749 0.75359 0.23032
 O172 O 0.56013 0.78725 0.22886
 O173 O 0.52320 0.73034 0.19751
 O174 O 0.48834 0.73428 0.19980
 O175 O 0.53764 0.70678 0.25172
 O176 O 0.53024 0.71602 0.28428
 Zr177 Zr 0.53480 0.73472 0.26128
 O178 O 0.51612 0.75303 0.27560
 Zr179 Zr 0.50741 0.73300 0.22301
 O180 O 0.48689 0.75056 0.23613
 Zr181 Zr 0.54036 0.76555 0.22609
 O182 O 0.52115 0.78488 0.23837
 Zr183 Zr 0.48858 0.74839 0.26601
 O184 O 0.50711 0.72863 0.25285
 Zr185 Zr 0.52143 0.78105 0.26804
 O186 O 0.54201 0.76286 0.25591
 Zr187 Zr 0.49343 0.77866 0.23020
 O188 O 0.51298 0.76103 0.21562
 O189 O 0.53490 0.73752 0.23177
 O190 O 0.49372 0.77646 0.25983
 C191 C 0.57375 0.74126 0.24233
 C192 C 0.53013 0.69802 0.23773
 C193 C 0.53733 0.73946 0.19089
 C194 C 0.45563 0.77458 0.25262
 C195 C 0.49208 0.77566 0.30041
 C196 C 0.49637 0.81495 0.25429
 H197 H 0.51748 0.75090 0.28947
 H198 H 0.52457 0.79778 0.23468
 H199 H 0.54411 0.72890 0.22555
 H200 H 0.47413 0.74737 0.23168
 H201 H 0.47244 0.71724 0.25797
 H202 H 0.47621 0.71510 0.22650
 H203 H 0.54187 0.80943 0.25800
 H204 H 0.56485 0.78666 0.24213
 H205 H 0.49615 0.72975 0.29723
 H206 H 0.51856 0.70919 0.28135
 H207 H 0.50736 0.80463 0.20862
 H208 H 0.53197 0.78560 0.19657
 H209 H 0.55740 0.74828 0.28621
 H210 H 0.53866 0.77203 0.29943
 H211 H 0.49188 0.74519 0.19186
 H212 H 0.46748 0.76661 0.20736
 O213 O -0.05616 0.76189 0.74705
 O214 O -0.04813 0.72955 0.74269
 O215 O -0.01000 0.78105 0.78121
 O216 O 0.02113 0.78248 0.77884
 O217 O -0.02979 0.81322 0.73281
 O218 O -0.02466 0.81083 0.69932
 O219 O 0.04607 0.73976 0.72807
 O220 O 0.03769 0.73864 0.76064
 O221 O 0.00085 0.71813 0.69785
 O222 O -0.03235 0.72465 0.69571
 O223 O 0.02528 0.76922 0.68110
 O224 O 0.02244 0.80154 0.69178
 O225 O 0.04772 0.76564 0.70906
 O226 O 0.03922 0.79954 0.71482
 O227 O 0.00362 0.74668 0.67583
 O228 O -0.03202 0.74806 0.67975
 O229 O 0.02138 0.71488 0.72259
 O230 O 0.01607 0.71720 0.75718
 O231 O -0.05483 0.78684 0.72671
 O232 O -0.04417 0.78970 0.69406
 O233 O -0.00975 0.81052 0.75804
 O234 O 0.02492 0.80394 0.75679
 O235 O -0.03210 0.75881 0.77626
 O236 O -0.02880 0.72675 0.76507
 Zr237 Zr -0.02839 0.75092 0.74745
 O238 O -0.00991 0.73521 0.72993
 Zr239 Zr 0.00336 0.78385 0.75464
 O240 O 0.02353 0.76912 0.73802
 Zr241 Zr -0.02641 0.78770 0.71821
 O242 O -0.00738 0.77386 0.69979
 Zr243 Zr 0.01807 0.74019 0.73797
 O244 O -0.00051 0.75456 0.75692
 Zr245 Zr -0.01161 0.74482 0.70159
 O246 O -0.03207 0.75880 0.71864
 Zr247 Zr 0.02036 0.77746 0.70941
 O248 O 0.00141 0.79358 0.72633
 O249 O -0.02442 0.77970 0.74669
 O250 O 0.01639 0.74850 0.70948
 C251 C -0.06373 0.77583 0.73798
 C252 C -0.02358 0.77069 0.78685
 C253 C -0.02227 0.81947 0.74810
 C254 C 0.05499 0.75091 0.71694
 C255 C 0.01331 0.70885 0.70741
 C256 C 0.01743 0.75694 0.67056
 H257 H -0.01308 0.72179 0.73094
 H258 H -0.00918 0.77867 0.68666
 H259 H -0.03355 0.78646 0.75498
 H260 H 0.03634 0.77150 0.74290
 H261 H 0.03116 0.74373 0.77205
 H262 H 0.03243 0.77495 0.77526
 H263 H -0.02873 0.75919 0.67202
 H264 H -0.05029 0.77738 0.69279
 H265 H 0.00511 0.70966 0.75346
 H266 H -0.01717 0.72696 0.77285
 H267 H 0.01132 0.80191 0.68329
 H268 H -0.01240 0.81676 0.70184
 H269 H -0.05295 0.73146 0.72956
 H270 H -0.03350 0.71657 0.70714
 H271 H 0.02301 0.81304 0.74622
 H272 H 0.04688 0.79599 0.72610
 O273 O 0.04746 0.02277 0.01658
 O274 O 0.04686 0.02242 -0.01746
 O275 O -0.00748 0.04723 0.02931
 O276 O -0.03766 0.04006 0.02369
 O277 O 0.01410 -0.00061 0.06020
 O278 O 0.01447 -0.03393 0.05314
 O279 O -0.04402 -0.00508 -0.02783
 O280 O -0.04025 0.02812 -0.02335
 O281 O 0.00927 -0.02593 -0.04381
 O282 O 0.04151 -0.02237 -0.03056
 O283 O -0.02077 -0.05258 -0.00194
 O284 O -0.02579 -0.04694 0.03297
 O285 O -0.04663 -0.02873 -0.00613
 O286 O -0.04683 -0.02751 0.02944
 O287 O 0.00638 -0.05120 -0.01913
 O288 O 0.03925 -0.04268 -0.01047
 O289 O -0.01492 -0.00492 -0.04781
 O290 O -0.01421 0.02687 -0.04355
 O291 O 0.04461 -0.00043 0.03878
 O292 O 0.03927 -0.03349 0.03638
 O293 O -0.00990 0.02061 0.05583
 O294 O -0.04149 0.01590 0.04205
 O295 O 0.02004 0.04829 0.01265
 O296 O 0.02575 0.04203 -0.02144
 Zr297 Zr 0.02271 0.02146 0.00018
 O298 O 0.01101 0.00460 -0.02120
 Zr299 Zr -0.01617 0.01927 0.02649
 O300 O -0.02960 0.00230 0.00620
 Zr301 Zr 0.01832 -0.01229 0.03284
 O302 O 0.00651 -0.03071 0.01279
 Zr303 Zr -0.01843 0.00759 -0.02097
 O304 O -0.00666 0.02646 -0.00113
 Zr305 Zr 0.01616 -0.02387 -0.01469
 O306 O 0.02978 -0.00693 0.00563
 Zr307 Zr -0.02283 -0.02614 0.01155
 O308 O -0.01123 -0.00923 0.03333
 O309 O 0.01296 0.01600 0.02752
 O310 O -0.01306 -0.02080 -0.01587
 C311 C 0.05357 0.01304 0.03084
 C312 C 0.00718 0.05578 0.02327
 C313 C 0.00252 0.01217 0.06625
 C314 C -0.05243 -0.01931 -0.02074
 C315 C -0.00357 -0.01780 -0.05394
 C316 C -0.00846 -0.05964 -0.01349
 H317 H 0.01617 0.00818 -0.03379
 H318 H 0.00978 -0.04383 0.01626
 H319 H 0.01897 0.02424 0.03699
 H320 H -0.04334 0.00482 0.00649
 H321 H -0.03535 0.03989 -0.01791
 H322 H -0.04568 0.03637 0.01286
 H323 H 0.03579 -0.05156 -0.00021
 H324 H 0.04764 -0.03272 0.02511
 H325 H -0.00813 0.03790 -0.03791
 H326 H 0.01458 0.05054 -0.02080
 H327 H -0.01401 -0.05456 0.03332
 H328 H 0.00097 -0.03352 0.05673
 H329 H 0.05330 0.01003 -0.01624
 H330 H 0.04050 -0.01133 -0.03914
 H331 H -0.04007 0.00410 0.04947
 H332 H -0.05520 -0.01668 0.02628
 O333 O 0.03901 0.53592 0.50543
 O334 O 0.03636 0.53596 0.47121
 O335 O -0.01329 0.56238 0.52264
 O336 O -0.04405 0.55712 0.51937
 O337 O 0.00800 0.51218 0.54983
 O338 O 0.00548 0.47895 0.54114
 O339 O -0.05681 0.51443 0.46625
 O340 O -0.05183 0.54706 0.47320
 O341 O -0.00762 0.49211 0.44538
 O342 O 0.02660 0.49375 0.45595
 O343 O -0.03401 0.46462 0.48945
 O344 O -0.03663 0.46961 0.52431
 O345 O -0.05906 0.49033 0.48747
 O346 O -0.05681 0.48980 0.52282
 O347 O -0.00869 0.46557 0.46958
 O348 O 0.02459 0.47191 0.47424
 O349 O -0.02884 0.51643 0.44414
 O350 O -0.02724 0.54701 0.45109
 O351 O 0.03665 0.51130 0.52606
 O352 O 0.02930 0.47905 0.52302
 O353 O -0.01513 0.53471 0.54831
 O354 O -0.04766 0.53224 0.53733
 O355 O 0.01241 0.56275 0.50319
 O356 O 0.01682 0.55697 0.46906
 Zr357 Zr 0.01328 0.53613 0.49033
 O358 O -0.00131 0.52130 0.46926
 Zr359 Zr -0.02366 0.53506 0.51961
 O360 O -0.03965 0.51982 0.49988
 Zr361 Zr 0.00931 0.50139 0.52175
 O362 O -0.00499 0.48475 0.50181
 Zr363 Zr -0.03043 0.52598 0.47220
 O364 O -0.01579 0.54299 0.49169
 Zr365 Zr 0.00254 0.49232 0.47379
 O366 O 0.01886 0.50719 0.49387
 Zr367 Zr -0.03401 0.49088 0.50334
 O368 O -0.01986 0.50607 0.52482
 O369 O 0.00527 0.53014 0.51812
 O370 O -0.02644 0.49705 0.47533
 C371 C 0.04559 0.52501 0.51861
 C372 C 0.00091 0.57053 0.51507
 C373 C -0.00242 0.52520 0.55733
 C374 C -0.06539 0.50040 0.47356
 C375 C -0.01963 0.50277 0.43654
 C376 C -0.02300 0.45735 0.47678
 H377 H 0.00307 0.52534 0.45652
 H378 H -0.00213 0.47137 0.50448
 H379 H 0.01238 0.53774 0.52736
 H380 H -0.05320 0.52296 0.50140
 H381 H -0.04622 0.55821 0.47920
 H382 H -0.05402 0.55367 0.51026
 H383 H 0.02268 0.46386 0.48559
 H384 H 0.03659 0.47958 0.51098
 H385 H -0.02119 0.55773 0.45736
 H386 H 0.00593 0.56578 0.46991
 H387 H -0.02492 0.46187 0.52410
 H388 H -0.00725 0.48068 0.54673
 H389 H 0.04212 0.52321 0.47186
 H390 H 0.02483 0.50458 0.44721
 H391 H -0.04651 0.51984 0.54370
 H392 H -0.06467 0.50128 0.52097
 O393 O 0.51689 0.03632 0.52756
 O394 O 0.48380 0.03669 0.52242
 O395 O 0.52495 -0.01640 0.55760
 O396 O 0.52256 -0.04665 0.55226
 O397 O 0.56202 0.00024 0.51093
 O398 O 0.55904 -0.00153 0.47708
 O399 O 0.47537 -0.05628 0.50155
 O400 O 0.47521 -0.04973 0.53424
 O401 O 0.46303 -0.00504 0.47394
 O402 O 0.47609 0.02636 0.47496
 O403 O 0.50819 -0.03878 0.45511
 O404 O 0.53960 -0.04500 0.46484
 O405 O 0.50005 -0.06227 0.48161
 O406 O 0.53553 -0.06177 0.48775
 O407 O 0.49043 -0.01207 0.45175
 O408 O 0.49872 0.02161 0.45827
 O409 O 0.45599 -0.02662 0.49673
 O410 O 0.45858 -0.02362 0.53198
 O411 O 0.54114 0.03103 0.50686
 O412 O 0.54206 0.02264 0.47337
 O413 O 0.55508 -0.02055 0.53452
 O414 O 0.54194 -0.05287 0.52984
 O415 O 0.50821 0.01104 0.55466
 O416 O 0.47665 0.01681 0.54310
 Zr417 Zr 0.50053 0.01201 0.52559
 O418 O 0.48155 -0.00081 0.50684
 Zr419 Zr 0.52653 -0.02711 0.52988
 O420 O 0.50818 -0.04185 0.51199
 Zr421 Zr 0.53648 0.00395 0.49612
 O422 O 0.51921 -0.00981 0.47637
 Zr423 Zr 0.48097 -0.02972 0.51273
 O424 O 0.49863 -0.01665 0.53280
 Zr425 Zr 0.49154 0.00090 0.47867
 O426 O 0.50924 0.01609 0.49713
 Zr427 Zr 0.51711 -0.03839 0.48363
 O428 O 0.53667 -0.02511 0.50176
 O429 O 0.52798 0.00151 0.52440
 O430 O 0.48956 -0.02776 0.48437
 C431 C 0.53206 0.04123 0.51897
 C432 C 0.51736 -0.00141 0.56447
 C433 C 0.56645 -0.00968 0.52566
 C434 C 0.48445 -0.06669 0.48968
 C435 C 0.45171 -0.01634 0.48220
 C436 C 0.49774 -0.02745 0.44535
 H437 H 0.46898 0.00524 0.50815
 H438 H 0.52438 -0.00814 0.46339
 H439 H 0.53620 0.00805 0.53353
 H440 H 0.50803 -0.05520 0.51593
 H441 H 0.48146 -0.04537 0.54600
 H442 H 0.51170 -0.05439 0.54871
 H443 H 0.50941 0.01666 0.45061
 H444 H 0.53122 0.03157 0.47272
 H445 H 0.45247 -0.01161 0.52812
 H446 H 0.47402 0.00472 0.54952
 H447 H 0.54375 -0.03309 0.45904
 H448 H 0.56263 -0.01493 0.47879
 H449 H 0.48660 0.04176 0.50958
 H450 H 0.46756 0.02785 0.48604
 H451 H 0.55182 -0.05186 0.51991
 H452 H 0.52999 -0.06988 0.49771
 O453 O 0.57387 0.50891 -0.01267
 O454 O 0.56818 0.50852 -0.04697
 O455 O 0.52863 0.54237 0.00853
 O456 O 0.49687 0.54252 0.00702
 O457 O 0.54234 0.48910 0.03473
 O458 O 0.53587 0.45706 0.02623
 O459 O 0.47261 0.50094 -0.04350
 O460 O 0.48276 0.53266 -0.03808
 O461 O 0.51646 0.47160 -0.06755
 O462 O 0.55128 0.46813 -0.05987
 O463 O 0.48950 0.44946 -0.02116
 O464 O 0.49107 0.45510 0.01421
 O465 O 0.46855 0.47792 -0.02138
 O466 O 0.47358 0.47784 0.01348
 O467 O 0.51311 0.44619 -0.04292
 O468 O 0.54742 0.44723 -0.04077
 O469 O 0.49846 0.49837 -0.06777
 O470 O 0.50493 0.53067 -0.06026
 O471 O 0.56947 0.48542 0.00894
 O472 O 0.55768 0.45427 0.00608
 O473 O 0.52372 0.51546 0.03452
 O474 O 0.49062 0.51865 0.02632
 O475 O 0.55174 0.53900 -0.01384
 O476 O 0.55116 0.53305 -0.04722
 Zr477 Zr 0.54724 0.51249 -0.02581
 O478 O 0.52884 0.49978 -0.04524
 Zr479 Zr 0.51320 0.51735 0.00653
 O480 O 0.49332 0.50461 -0.01143
 Zr481 Zr 0.54078 0.47902 0.00656
 O482 O 0.52233 0.46465 -0.01152
 Zr483 Zr 0.50093 0.50886 -0.04002
 O484 O 0.51965 0.52353 -0.02216
 Zr485 Zr 0.52874 0.47074 -0.04015
 O486 O 0.54883 0.48317 -0.02205
 Zr487 Zr 0.49477 0.47526 -0.00770
 O488 O 0.51296 0.48822 0.01202
 O489 O 0.54080 0.50796 0.00273
 O490 O 0.50095 0.47983 -0.03634
 C491 C 0.57972 0.49764 0.00056
 C492 C 0.54315 0.54821 -0.00065
 C493 C 0.53475 0.50351 0.04287
 C494 C 0.46266 0.48838 -0.03518
 C495 C 0.50504 0.48340 -0.07561
 C496 C 0.49816 0.44055 -0.03456
 H497 H 0.53286 0.50267 -0.05841
 H498 H 0.52328 0.45104 -0.00875
 H499 H 0.54960 0.51433 0.01141
 H500 H 0.48053 0.50976 -0.00890
 H501 H 0.49000 0.54266 -0.03178
 H502 H 0.48516 0.54028 -0.00021
 H503 H 0.54510 0.43969 -0.02915
 H504 H 0.56439 0.45423 -0.00631
 H505 H 0.51678 0.52799 -0.06725
 H506 H 0.53963 0.54109 -0.04724
 H507 H 0.50035 0.44477 0.01213
 H508 H 0.52349 0.45982 0.03222
 H509 H 0.57252 0.49526 -0.04596
 H510 H 0.55058 0.47897 -0.06872
 H511 H 0.48993 0.50613 0.03244
 H512 H 0.46746 0.49036 0.01201
 O513 O 0.76604 0.30757 0.51820
 O514 O 0.76129 0.30281 0.55150
 O515 O 0.80149 0.25962 0.50405
 O516 O 0.79952 0.22811 0.50670
 O517 O 0.75557 0.27574 0.46807
 O518 O 0.72215 0.27029 0.46983
 O519 O 0.74866 0.20855 0.54942
 O520 O 0.78058 0.21723 0.55079
 O521 O 0.71694 0.25569 0.56591
 O522 O 0.71671 0.28962 0.55569
 O523 O 0.70231 0.22659 0.51791
 O524 O 0.71391 0.22625 0.48412
 O525 O 0.72974 0.20440 0.52367
 O526 O 0.73580 0.20829 0.48912
 O527 O 0.69628 0.25183 0.53688
 O528 O 0.69981 0.28572 0.53328
 O529 O 0.74133 0.23531 0.57170
 O530 O 0.77555 0.24069 0.57056
 O531 O 0.74800 0.30321 0.49178
 O532 O 0.71599 0.29279 0.48864
 O533 O 0.77987 0.25518 0.47371
 O534 O 0.77912 0.22218 0.48383
 O535 O 0.79545 0.28410 0.52410
 O536 O 0.78385 0.28421 0.55625
 Zr537 Zr 0.76696 0.28113 0.53167
 O538 O 0.74945 0.26471 0.54896
 Zr539 Zr 0.77563 0.24573 0.50195
 O540 O 0.75858 0.22761 0.51815
 Zr541 Zr 0.73973 0.27508 0.49358
 O542 O 0.72100 0.25833 0.50926
 Zr543 Zr 0.75776 0.23633 0.54672
 O544 O 0.77679 0.25303 0.53107
 Zr545 Zr 0.72189 0.26591 0.53818
 O546 O 0.73893 0.28419 0.52215
 Zr547 Zr 0.73044 0.23017 0.50887
 O548 O 0.74797 0.24666 0.49110
 O549 O 0.76744 0.27383 0.50301
 O550 O 0.72984 0.23759 0.53755
 C551 C 0.75804 0.31336 0.50280
 C552 C 0.80638 0.27442 0.51316
 C553 C 0.77082 0.26700 0.46307
 C554 C 0.73765 0.19866 0.53917
 C555 C 0.72588 0.24376 0.57646
 C556 C 0.69150 0.23655 0.52877
 H557 H 0.74995 0.26926 0.56224
 H558 H 0.70818 0.25982 0.50393
 H559 H 0.77575 0.28208 0.49550
 H560 H 0.76349 0.21457 0.51712
 H561 H 0.79196 0.22338 0.54572
 H562 H 0.79538 0.21730 0.51446
 H563 H 0.69426 0.28298 0.52068
 H564 H 0.71413 0.30031 0.50036
 H565 H 0.77123 0.25221 0.57720
 H566 H 0.79114 0.27231 0.55775
 H567 H 0.70437 0.23654 0.48354
 H568 H 0.72520 0.25743 0.46532
 H569 H 0.74825 0.30731 0.54899
 H570 H 0.72565 0.28903 0.56651
 H571 H 0.76828 0.22232 0.47494
 H572 H 0.74764 0.20181 0.49297
 O573 O 0.72156 0.70223 -0.01006
 O574 O 0.73103 0.70713 -0.04274
 O575 O 0.76959 0.67456 0.01424
 O576 O 0.80063 0.67988 0.01603
 O577 O 0.74409 0.72125 0.04374
 O578 O 0.74346 0.75446 0.03899
 O579 O 0.82137 0.73266 -0.02616
 O580 O 0.81787 0.69891 -0.02524
 O581 O 0.77462 0.75484 -0.05295
 O582 O 0.74046 0.75332 -0.04823
 O583 O 0.79318 0.77603 0.00009
 O584 O 0.78873 0.76553 0.03393
 O585 O 0.81909 0.75158 -0.00015
 O586 O 0.80985 0.74641 0.03330
 O587 O 0.77325 0.77788 -0.02525
 O588 O 0.73852 0.77105 -0.02601
 O589 O 0.79851 0.73311 -0.05286
 O590 O 0.79789 0.69938 -0.04973
 O591 O 0.71903 0.72220 0.01513
 O592 O 0.72435 0.75542 0.01634
 O593 O 0.76717 0.69863 0.04312
 O594 O 0.80069 0.70197 0.03840
 O595 O 0.74892 0.67651 -0.01052
 O596 O 0.75265 0.68667 -0.04304
 Zr597 Zr 0.74971 0.70477 -0.01934
 O598 O 0.76701 0.72328 -0.03461
 Zr599 Zr 0.78021 0.70191 0.01643
 O600 O 0.79897 0.72027 0.00273
 Zr601 Zr 0.74580 0.73444 0.01688
 O602 O 0.76301 0.75426 0.00328
 Zr603 Zr 0.79539 0.71876 -0.02692
 O604 O 0.77829 0.69853 -0.01336
 Zr605 Zr 0.76103 0.75112 -0.02646
 O606 O 0.74202 0.73272 -0.01284
 Zr607 Zr 0.79140 0.74812 0.00961
 O608 O 0.77402 0.72966 0.02505
 O609 O 0.75192 0.70663 0.01013
 O610 O 0.78938 0.74663 -0.01999
 C611 C 0.71224 0.71001 0.00363
 C612 C 0.75747 0.66742 0.00286
 C613 C 0.75377 0.70779 0.05141
 C614 C 0.82794 0.74499 -0.01468
 C615 C 0.78901 0.74659 -0.06058
 C616 C 0.78550 0.78489 -0.01393
 H617 H 0.76491 0.72143 -0.04840
 H618 H 0.75928 0.76705 0.00738
 H619 H 0.74367 0.69781 0.01703
 H620 H 0.81213 0.71715 0.00634
 H621 H 0.81233 0.68686 -0.02121
 H622 H 0.81237 0.68502 0.01065
 H623 H 0.73974 0.77871 -0.01435
 H624 H 0.71958 0.75597 0.00308
 H625 H 0.78639 0.70054 -0.05763
 H626 H 0.76520 0.68046 -0.04186
 H627 H 0.77809 0.77444 0.03170
 H628 H 0.75560 0.75402 0.04594
 H629 H 0.72409 0.71922 -0.04121
 H630 H 0.74217 0.74235 -0.05671
 H631 H 0.79826 0.71338 0.04612
 H632 H 0.81854 0.73559 0.03127
 O633 O 1.05274 0.23027 0.26164
 O634 O 1.04545 0.23417 0.29491
 O635 O 1.00245 0.20755 0.23899
 O636 O 0.97142 0.21546 0.23967
 O637 O 1.02829 0.25343 0.21011
 O638 O 1.03042 0.28604 0.21553
 O639 O 0.95535 0.26707 0.28500
 O640 O 0.95784 0.23390 0.28379
 O641 O 1.00483 0.28634 0.30866
 O642 O 1.03851 0.28078 0.30291
 O643 O 0.98468 0.31013 0.25876
 O644 O 0.98577 0.30076 0.22433
 O645 O 0.95730 0.28772 0.26028
 O646 O 0.96379 0.28347 0.22605
 O647 O 1.00757 0.30935 0.28144
 O648 O 1.04124 0.29832 0.28055
 O649 O 0.97998 0.26662 0.30999
 O650 O 0.98003 0.23161 0.30602
 O651 O 1.05465 0.25128 0.23717
 O652 O 1.05054 0.28508 0.23711
 O653 O 1.00442 0.23248 0.21107
 O654 O 0.97107 0.23866 0.21815
 O655 O 1.02421 0.20668 0.26285
 O656 O 1.02280 0.21564 0.29584
 Zr657 Zr 1.02534 0.23453 0.27268
 O658 O 1.01012 0.25381 0.28975
 Zr659 Zr 0.99281 0.23579 0.23869
 O660 O 0.97588 0.25494 0.25451
 Zr661 Zr 1.02843 0.26554 0.23730
 O662 O 1.01311 0.28603 0.25258
 Zr663 Zr 0.98117 0.25198 0.28388
 O664 O 0.99623 0.23102 0.26825
 Zr665 Zr 1.01710 0.28130 0.28189
 O666 O 1.03414 0.26199 0.26654
 Zr667 Zr 0.98407 0.28252 0.24817
 O668 O 0.99959 0.26346 0.23083
 O669 O 1.02153 0.23797 0.24348
 O670 O 0.98813 0.27956 0.27742
 C671 C 1.06156 0.23809 0.24776
 C672 C 1.01477 0.19893 0.24947
 C673 C 1.01799 0.24087 0.20253
 C674 C 0.94871 0.28060 0.27467
 C675 C 0.99029 0.27960 0.31694
 C676 C 0.99477 0.31786 0.27166
 H677 H 1.01291 0.25135 0.30334
 H678 H 1.01730 0.29861 0.24857
 H679 H 1.02900 0.22886 0.23582
 H680 H 0.96240 0.25299 0.25173
 H681 H 0.96234 0.22184 0.27829
 H682 H 0.96048 0.22120 0.24634
 H683 H 1.04013 0.30634 0.26903
 H684 H 1.05708 0.28378 0.24953
 H685 H 0.99056 0.23373 0.31492
 H686 H 1.00969 0.21110 0.29559
 H687 H 0.99710 0.30850 0.22590
 H688 H 1.01775 0.28715 0.20967
 H689 H 1.05250 0.24599 0.29375
 H690 H 1.03628 0.26995 0.31144
 H691 H 0.97376 0.25008 0.21059
 H692 H 0.95508 0.27295 0.22810
 O693 O 0.69275 1.01643 0.75375
 O694 O 0.70227 1.01564 0.78622
 O695 O 0.74391 1.03357 0.72571
 O696 O 0.77356 1.02294 0.72331
 O697 O 0.71159 0.98801 0.70294
 O698 O 0.70856 0.95594 0.71140
 O699 O 0.78926 0.97632 0.77289
 O700 O 0.78820 1.00903 0.76952
 O701 O 0.74012 0.96223 0.80274
 O702 O 0.70625 0.96939 0.79830
 O703 O 0.75554 0.93240 0.75446
 O704 O 0.75279 0.93798 0.71977
 O705 O 0.78435 0.95311 0.75137
 O706 O 0.77512 0.95477 0.71713
 O707 O 0.73436 0.93686 0.77846
 O708 O 0.70145 0.94968 0.77869
 O709 O 0.76661 0.97954 0.79991
 O710 O 0.76785 1.01416 0.79274
 O711 O 0.68746 0.99330 0.73218
 O712 O 0.68999 0.95959 0.73418
 O713 O 0.73715 1.00668 0.70021
 O714 O 0.77064 0.99817 0.70547
 O715 O 0.72280 1.03810 0.74980
 O716 O 0.72622 1.03216 0.78351
 Zr717 Zr 0.72063 1.01151 0.76278
 O718 O 0.73561 0.99285 0.78080
 Zr719 Zr 0.75061 1.00470 0.72698
 O720 O 0.76728 0.98609 0.74361
 Zr721 Zr 0.71301 0.97782 0.73110
 O722 O 0.72806 0.95778 0.74748
 Zr723 Zr 0.76412 0.99221 0.77276
 O724 O 0.74951 1.01253 0.75596
 Zr725 Zr 0.72645 0.96534 0.77636
 O726 O 0.70970 0.98432 0.76018
 Zr727 Zr 0.75696 0.95873 0.74083
 O728 O 0.74148 0.97709 0.72256
 O729 O 0.72212 1.00524 0.73387
 O730 O 0.75513 0.96468 0.76982
 C731 C 0.68219 1.00766 0.74204
 C732 C 0.73266 1.04396 0.73565
 C733 C 0.72229 0.99903 0.69348
 C734 C 0.79449 0.96152 0.76376
 C735 C 0.75583 0.96830 0.80905
 C736 C 0.74597 0.92663 0.76884
 H737 H 0.73390 0.99670 0.79422
 H738 H 0.72284 0.94522 0.74518
 H739 H 0.71466 1.01422 0.72599
 H740 H 0.78062 0.98694 0.73964
 H741 H 0.78398 1.02069 0.76293
 H742 H 0.78411 1.01786 0.73108
 H743 H 0.70128 0.94062 0.76803
 H744 H 0.68475 0.96177 0.74709
 H745 H 0.75818 1.01308 0.80284
 H746 H 0.73950 1.03580 0.78167
 H747 H 0.74048 0.93214 0.72228
 H748 H 0.72077 0.95364 0.70488
 H749 H 0.69471 1.00412 0.78730
 H750 H 0.71003 0.98038 0.80589
 H751 H 0.76619 0.98681 0.69886
 H752 H 0.78498 0.96439 0.71777
 O753 O 0.73967 0.56173 0.24777
 O754 O 0.77230 0.55441 0.25223
 O755 O 0.72116 0.51290 0.21698
 O756 O 0.71988 0.48218 0.22192
 O757 O 0.68849 0.53532 0.26449
 O758 O 0.69163 0.53301 0.29815
 O759 O 0.76424 0.46207 0.27498
 O760 O 0.76396 0.46732 0.24138
 O761 O 0.78489 0.50922 0.30054
 O762 O 0.77765 0.54300 0.29916
 O763 O 0.73484 0.48566 0.31959
 O764 O 0.70147 0.48754 0.30879
 O765 O 0.73828 0.46129 0.29401
 O766 O 0.70426 0.46814 0.28809
 O767 O 0.75679 0.50830 0.32287
 O768 O 0.75500 0.54286 0.31640
 O769 O 0.78812 0.48719 0.27731
 O770 O 0.78522 0.48973 0.24227
 O771 O 0.71460 0.56143 0.26805
 O772 O 0.71231 0.55333 0.30131
 O773 O 0.69128 0.51367 0.24079
 O774 O 0.69869 0.47966 0.24433
 O775 O 0.74307 0.53563 0.22028
 O776 O 0.77502 0.53402 0.23123
 Zr777 Zr 0.75103 0.53422 0.24916
 O778 O 0.76734 0.51734 0.26775
 Zr779 Zr 0.71848 0.50159 0.24466
 O780 O 0.73370 0.48296 0.26278
 Zr781 Zr 0.71443 0.53379 0.27874
 O782 O 0.72896 0.51657 0.29847
 Zr783 Zr 0.76260 0.48884 0.26207
 O784 O 0.74776 0.50575 0.24190
 Zr785 Zr 0.75800 0.52121 0.29592
 O786 O 0.74329 0.53996 0.27758
 Zr787 Zr 0.72572 0.48819 0.29118
 O788 O 0.70906 0.50542 0.27289
 O789 O 0.72218 0.52990 0.25038
 O790 O 0.75462 0.49274 0.29036
 C791 C 0.72563 0.56972 0.25632
 C792 C 0.73153 0.52604 0.21031
 C793 C 0.68206 0.52643 0.25009
 C794 C 0.75347 0.45392 0.28712
 C795 C 0.79418 0.49621 0.29185
 C796 C 0.74718 0.49454 0.32924
 H797 H 0.78074 0.52058 0.26628
 H798 H 0.72426 0.51928 0.31146
 H799 H 0.71512 0.53822 0.24146
 H800 H 0.73154 0.46979 0.25907
 H801 H 0.75885 0.47279 0.22941
 H802 H 0.72760 0.47131 0.22631
 H803 H 0.74337 0.54057 0.32380
 H804 H 0.72463 0.55960 0.30207
 H805 H 0.79293 0.50079 0.24522
 H806 H 0.77532 0.52169 0.22475
 H807 H 0.70198 0.49834 0.31759
 H808 H 0.68610 0.52040 0.29697
 H809 H 0.77050 0.56008 0.26499
 H810 H 0.78671 0.54213 0.28845
 H811 H 0.69007 0.48176 0.25526
 H812 H 0.70748 0.46022 0.27695
 O813 O 0.47976 0.18143 0.73233
 O814 O 0.44800 0.19300 0.73066
 O815 O 0.51089 0.22769 0.70988
 O816 O 0.51320 0.25847 0.71650
 O817 O 0.52973 0.19991 0.76082
 O818 O 0.51993 0.20089 0.79333
 O819 O 0.46374 0.28208 0.76045
 O820 O 0.46935 0.27770 0.72745
 O821 O 0.43151 0.23665 0.77817
 O822 O 0.43503 0.20215 0.77604
 O823 O 0.47872 0.25263 0.80904
 O824 O 0.51332 0.24626 0.80539
 O825 O 0.48472 0.27817 0.78470
 O826 O 0.51763 0.26670 0.78617
 O827 O 0.45405 0.23293 0.80606
 O828 O 0.45285 0.19908 0.79793
 O829 O 0.43585 0.26015 0.75661
 O830 O 0.44521 0.25919 0.72333
 O831 O 0.49999 0.17728 0.75724
 O832 O 0.49681 0.18329 0.79075
 O833 O 0.53427 0.22301 0.73884
 O834 O 0.53064 0.25698 0.74276
 O835 O 0.48575 0.20852 0.70684
 O836 O 0.45254 0.21443 0.71089
 Zr837 Zr 0.47196 0.21001 0.73339
 O838 O 0.45439 0.22797 0.74948
 Zr839 Zr 0.50847 0.23804 0.73792
 O840 O 0.49235 0.25751 0.75403
 Zr841 Zr 0.50161 0.20405 0.76974
 O842 O 0.48542 0.22198 0.78737
 Zr843 Zr 0.46368 0.25574 0.74691
 O844 O 0.48010 0.23799 0.72892
 Zr845 Zr 0.45716 0.22155 0.77861
 O846 O 0.47299 0.20195 0.76233
 Zr847 Zr 0.49351 0.24991 0.78305
 O848 O 0.51140 0.23167 0.76715
 O849 O 0.50028 0.21032 0.74080
 O850 O 0.46501 0.24953 0.77597
 C851 C 0.49060 0.17123 0.74291
 C852 C 0.50068 0.21628 0.70038
 C853 C 0.53994 0.20875 0.74871
 C854 C 0.47300 0.28811 0.77486
 C855 C 0.42580 0.25110 0.76870
 C856 C 0.46362 0.24500 0.81530
 H857 H 0.44127 0.22661 0.74507
 H858 H 0.48689 0.21806 0.80083
 H859 H 0.50803 0.20150 0.73307
 H860 H 0.49700 0.27033 0.75177
 H861 H 0.47586 0.27190 0.71638
 H862 H 0.50716 0.27036 0.72077
 H863 H 0.46315 0.19913 0.80743
 H864 H 0.48371 0.17907 0.78891
 H865 H 0.43664 0.24840 0.72309
 H866 H 0.45543 0.22680 0.70521
 H867 H 0.50932 0.23553 0.81333
 H868 H 0.52691 0.21276 0.79431
 H869 H 0.44652 0.18637 0.74300
 H870 H 0.42819 0.20505 0.76408
 H871 H 0.53629 0.25363 0.75525
 H872 H 0.51832 0.27507 0.77490
 O873 O 0.30471 0.74060 0.46806
 O874 O 0.28998 0.71039 0.46756
 O875 O 0.26148 0.77726 0.44639
 O876 O 0.23070 0.78327 0.45365
 O877 O 0.29159 0.79258 0.49635
 O878 O 0.29002 0.78304 0.52930
 O879 O 0.20330 0.73858 0.49874
 O880 O 0.20777 0.74364 0.46538
 O881 O 0.24480 0.70059 0.51601
 O882 O 0.27995 0.69883 0.51197
 O883 O 0.23585 0.74943 0.54698
 O884 O 0.24528 0.78307 0.54197
 O885 O 0.20983 0.75815 0.52333
 O886 O 0.22383 0.78919 0.52413
 O887 O 0.25285 0.72231 0.54332
 O888 O 0.28547 0.71569 0.53395
 O889 O 0.22164 0.70829 0.49484
 O890 O 0.22319 0.71674 0.46141
 O891 O 0.31108 0.76017 0.49274
 O892 O 0.30569 0.75816 0.52623
 O893 O 0.26847 0.80005 0.47503
 O894 O 0.23477 0.80117 0.47942
 O895 O 0.27764 0.74952 0.44321
 O896 O 0.26904 0.71765 0.44777
 Zr897 Zr 0.27546 0.73647 0.46999
 O898 O 0.25588 0.72163 0.48646
 Zr899 Zr 0.25114 0.77645 0.47466
 O900 O 0.23047 0.76337 0.49160
 Zr901 Zr 0.28485 0.76533 0.50581
 O902 O 0.26585 0.75157 0.52396
 Zr903 Zr 0.22920 0.73482 0.48453
 O904 O 0.24831 0.74833 0.46598
 Zr905 Zr 0.26316 0.72350 0.51535
 O906 O 0.28406 0.73662 0.49871
 Zr907 Zr 0.23874 0.76343 0.52047
 O908 O 0.25825 0.77865 0.50377
 O909 O 0.27800 0.76463 0.47705
 O910 O 0.23610 0.73521 0.51344
 C911 C 0.31605 0.75015 0.47831
 C912 C 0.27150 0.76537 0.43675
 C913 C 0.28345 0.80384 0.48442
 C914 C 0.19856 0.74803 0.51364
 C915 C 0.22938 0.69725 0.50714
 C916 C 0.24245 0.73357 0.55311
 H917 H 0.25566 0.70844 0.48216
 H918 H 0.27032 0.75252 0.53726
 H919 H 0.28739 0.77110 0.46903
 H920 H 0.21811 0.76970 0.48968
 H921 H 0.21415 0.74874 0.45395
 H922 H 0.21826 0.77964 0.45870
 H923 H 0.28763 0.72636 0.54263
 H924 H 0.30855 0.74460 0.52457
 H925 H 0.23298 0.70669 0.46103
 H926 H 0.25656 0.72164 0.44274
 H927 H 0.25562 0.77763 0.54980
 H928 H 0.27934 0.79216 0.52986
 H929 H 0.29679 0.70837 0.47974
 H930 H 0.27520 0.69195 0.50078
 H931 H 0.23816 0.80583 0.49223
 H932 H 0.21581 0.79122 0.51275
 O933 O 0.25434 0.30596 0.97865
 O934 O 0.25384 0.30009 1.01228
 O935 O 0.27606 0.25460 0.95590
 O936 O 0.26889 0.22465 0.95538
 O937 O 0.22583 0.28111 0.93131
 O938 O 0.19390 0.28330 0.94066
 O939 O 0.22469 0.20931 1.00817
 O940 O 0.25737 0.21254 1.00343
 O941 O 0.20601 0.25932 1.03394
 O942 O 0.20700 0.29184 1.02673
 O943 O 0.17686 0.23720 0.98634
 O944 O 0.18177 0.23717 0.95233
 O945 O 0.20108 0.21045 0.98625
 O946 O 0.20201 0.21724 0.95073
 O947 O 0.17930 0.25866 1.01010
 O948 O 0.18754 0.29375 1.00545
 O949 O 0.22653 0.23443 1.03298
 O950 O 0.26056 0.23482 1.02490
 O951 O 0.23026 0.30771 0.95727
 O952 O 0.19638 0.30337 0.96226
 O953 O 0.24774 0.25739 0.93029
 O954 O 0.24337 0.22376 0.93885
 O955 O 0.27861 0.27770 0.97807
 O956 O 0.27291 0.27700 1.01233
 Zr957 Zr 0.25181 0.27915 0.99112
 O958 O 0.23506 0.26421 1.01062
 Zr959 Zr 0.24800 0.24603 0.95815
 O960 O 0.23184 0.22925 0.97653
 Zr961 Zr 0.21684 0.28154 0.95983
 O962 O 0.19879 0.26595 0.97753
 Zr963 Zr 0.23788 0.23530 1.00518
 O964 O 0.25616 0.25012 0.98678
 Zr965 Zr 0.20630 0.27028 1.00610
 O966 O 0.22326 0.28744 0.98845
 Zr967 Zr 0.20335 0.23701 0.97316
 O968 O 0.21938 0.25268 0.95347
 O969 O 0.24530 0.27474 0.96263
 O970 O 0.20926 0.24144 1.00188
 C971 C 0.24474 0.31455 0.96562
 C972 C 0.28536 0.26719 0.96472
 C973 C 0.23794 0.27072 0.92251
 C974 C 0.21052 0.20221 0.99959
 C975 C 0.21442 0.24508 1.04156
 C976 C 0.17034 0.24604 1.00086
 H977 H 0.23886 0.26742 1.02375
 H978 H 0.18556 0.26976 0.97502
 H979 H 0.25340 0.28189 0.95380
 H980 H 0.23426 0.21582 0.97373
 H981 H 0.26849 0.21718 0.99641
 H982 H 0.26586 0.21473 0.96475
 H983 H 0.17689 0.29072 0.99698
 H984 H 0.19909 0.31006 0.97427
 H985 H 0.25926 0.24589 1.03331
 H986 H 0.27862 0.26426 1.01118
 H987 H 0.17519 0.24952 0.95295
 H988 H 0.19263 0.27063 0.93509
 H989 H 0.24180 0.30734 1.01198
 H990 H 0.22007 0.29230 1.03156
 H991 H 0.23182 0.22703 0.93156
 H992 H 0.21182 0.20744 0.95304
 C993 C 0.28630 0.32984 0.79349
 C994 C 0.28674 0.34079 0.77694
 C995 C 0.27824 0.35990 0.77548
 C996 C 0.27599 0.36798 0.75732
 C997 C 0.26913 0.38639 0.75529
 C998 C 0.26452 0.39715 0.77147
 C999 C 0.26623 0.38893 0.78959
 C1000 C 0.27319 0.37056 0.79164
 C1001 C 0.25847 0.41705 0.76999
 C1002 C 0.26474 0.42874 0.75539
 H1003 H 0.29355 0.33501 0.76437
 H1004 H 0.27971 0.36007 0.74464
 H1005 H 0.26747 0.39211 0.74106
 H1006 H 0.26277 0.39697 0.80226
 H1007 H 0.27509 0.36515 0.80594
 H1008 H 0.25053 0.42312 0.78173
 H1009 H 0.27809 0.33460 0.80559
 H1010 H 0.27392 0.42314 0.74437
 C1011 C 0.32836 -0.15494 0.30664
 C1012 C 0.31002 -0.14754 0.30547
 C1013 C 0.30479 -0.12973 0.29564
 C1014 C 0.28564 -0.12591 0.29205
 C1015 C 0.27985 -0.10895 0.28363
 C1016 C 0.29315 -0.09533 0.27876
 C1017 C 0.31233 -0.09926 0.28199
 C1018 C 0.31813 -0.11621 0.29047
 C1019 C 0.28754 -0.07694 0.27040
 C1020 C 0.26986 -0.06853 0.27341
 H1021 H 0.29874 -0.15547 0.31187
 H1022 H 0.27507 -0.13608 0.29583
 H1023 H 0.26500 -0.10669 0.28085
 H1024 H 0.32285 -0.08899 0.27834
 H1025 H 0.33298 -0.11836 0.29331
 H1026 H 0.29823 -0.06910 0.26290
 H1027 H 0.33966 -0.14831 0.29892
 H1028 H 0.25949 -0.07546 0.28217
 C1029 C 0.79227 0.80759 0.78830
 C1030 C 0.78424 0.82268 0.79827
 C1031 C 0.77737 0.84041 0.78936
 C1032 C 0.76785 0.85351 0.80095
 C1033 C 0.76234 0.87106 0.79378
 C1034 C 0.76615 0.87591 0.77469
 C1035 C 0.77556 0.86280 0.76304
 C1036 C 0.78111 0.84521 0.77023
 C1037 C 0.76163 0.89481 0.76689
 C1038 C 0.74849 0.90708 0.77522
 H1039 H 0.78391 0.82191 0.81370
 H1040 H 0.76501 0.85031 0.81580
 H1041 H 0.75571 0.88092 0.80348
 H1042 H 0.77888 0.86627 0.74836
 H1043 H 0.78877 0.83582 0.76084
 H1044 H 0.76909 0.89927 0.75421
 H1045 H 0.79286 0.80783 0.77290
 H1046 H 0.73999 0.90251 0.78712
 C1047 C 0.44707 0.91707 0.31432
 C1048 C 0.44794 0.90961 0.29595
 C1049 C 0.45953 0.89279 0.29097
 C1050 C 0.46413 0.88957 0.27177
 C1051 C 0.47463 0.87362 0.26645
 C1052 C 0.48059 0.86045 0.28029
 C1053 C 0.47621 0.86378 0.29950
 C1054 C 0.46565 0.87966 0.30481
 C1055 C 0.49099 0.84295 0.27526
 C1056 C 0.48908 0.83411 0.25766
 H1057 H 0.44046 0.91685 0.28456
 H1058 H 0.45962 0.89945 0.26083
 H1059 H 0.47814 0.87176 0.25154
 H1060 H 0.48057 0.85380 0.31041
 H1061 H 0.46198 0.88124 0.31969
 H1062 H 0.49869 0.83570 0.28651
 H1063 H 0.45605 0.91116 0.32535
 H1064 H 0.48023 0.84041 0.24673
 C1065 C -0.06008 0.92274 0.81346
 C1066 C -0.06759 0.90574 0.80759
 C1067 C -0.05623 0.89069 0.79843
 C1068 C -0.06520 0.87833 0.78602
 C1069 C -0.05509 0.86367 0.77738
 C1070 C -0.03576 0.86095 0.78115
 C1071 C -0.02686 0.87301 0.79394
 C1072 C -0.03694 0.88785 0.80242
 C1073 C -0.02502 0.84501 0.77273
 C1074 C -0.02964 0.83763 0.75498
 H1075 H -0.08255 0.90350 0.80937
 H1076 H -0.08011 0.88004 0.78300
 H1077 H -0.06259 0.85421 0.76816
 H1078 H -0.01207 0.87093 0.79735
 H1079 H -0.02973 0.89673 0.81243
 H1080 H -0.01348 0.83880 0.78083
 H1081 H -0.04521 0.92523 0.81145
 H1082 H -0.04021 0.84473 0.74631
 C1083 C -0.06178 -0.16282 -0.06661
 C1084 C -0.04438 -0.15398 -0.06541
 C1085 C -0.04086 -0.13733 -0.05329
 C1086 C -0.02223 -0.13332 -0.04823
 C1087 C -0.01815 -0.11743 -0.03741
 C1088 C -0.03264 -0.10494 -0.03163
 C1089 C -0.05132 -0.10910 -0.03643
 C1090 C -0.05542 -0.12505 -0.04722
 C1091 C -0.02882 -0.08739 -0.02096
 C1092 C -0.01141 -0.07851 -0.02142
 H1093 H -0.03251 -0.16007 -0.07308
 H1094 H -0.01075 -0.14256 -0.05265
 H1095 H -0.00362 -0.11514 -0.03356
 H1096 H -0.06278 -0.09973 -0.03220
 H1097 H -0.06992 -0.12736 -0.05115
 H1098 H -0.04057 -0.08033 -0.01394
 H1099 H -0.07325 -0.15810 -0.05752
 H1100 H 0.00007 -0.08456 -0.02964
 C1101 C -0.07327 0.34345 0.44792
 C1102 C -0.05592 0.35244 0.44816
 C1103 C -0.05312 0.37207 0.45468
 C1104 C -0.03460 0.37830 0.45697
 C1105 C -0.03109 0.39650 0.46329
 C1106 C -0.04610 0.40903 0.46738
 C1107 C -0.06463 0.40285 0.46521
 C1108 C -0.06816 0.38464 0.45879
 C1109 C -0.04284 0.42837 0.47431
 C1110 C -0.02655 0.43822 0.46990
 H1111 H -0.04349 0.34428 0.44421
 H1112 H -0.02273 0.36896 0.45404
 H1113 H -0.01660 0.40054 0.46531
 H1114 H -0.07644 0.41222 0.46830
 H1115 H -0.08267 0.38071 0.45701
 H1116 H -0.05396 0.43537 0.48234
 H1117 H -0.08579 0.35079 0.45283
 H1118 H -0.01613 0.43198 0.46045
 C1119 C 0.44924 -0.17691 0.43913
 C1120 C 0.45237 -0.17024 0.45753
 C1121 C 0.46118 -0.15197 0.46141
 C1122 C 0.45742 -0.14312 0.47887
 C1123 C 0.46506 -0.12565 0.48293
 C1124 C 0.47670 -0.11667 0.46956
 C1125 C 0.48108 -0.12586 0.45242
 C1126 C 0.47339 -0.14333 0.44833
 C1127 C 0.48477 -0.09802 0.47326
 C1128 C 0.47622 -0.08499 0.48546
 H1129 H 0.44740 -0.17833 0.46958
 H1130 H 0.44837 -0.14966 0.48934
 H1131 H 0.46198 -0.11938 0.49664
 H1132 H 0.49033 -0.11941 0.44208
 H1133 H 0.47725 -0.15003 0.43504
 H1134 H 0.49738 -0.09416 0.46555
 H1135 H 0.45378 -0.16875 0.42697
 H1136 H 0.46293 -0.08817 0.49223
 C1137 C 0.42549 0.33917 -0.05824
 C1138 C 0.44268 0.34673 -0.06384
 C1139 C 0.45002 0.36452 -0.05627
 C1140 C 0.46310 0.37436 -0.06729
 C1141 C 0.47059 0.39111 -0.06072
 C1142 C 0.46541 0.39824 -0.04272
 C1143 C 0.45217 0.38852 -0.03176
 C1144 C 0.44463 0.37175 -0.03838
 C1145 C 0.47333 0.41580 -0.03516
 C1146 C 0.49064 0.42266 -0.04120
 H1147 H 0.45090 0.33975 -0.07483
 H1148 H 0.46738 0.36915 -0.08118
 H1149 H 0.48020 0.39851 -0.06995
 H1150 H 0.44790 0.39377 -0.01789
 H1151 H 0.43493 0.36437 -0.02924
 H1152 H 0.46555 0.42324 -0.02414
 H1153 H 0.41714 0.34626 -0.04742
 H1154 H 0.49907 0.41484 -0.05142
 C1155 C 0.80308 0.41410 0.44952
 C1156 C 0.78479 0.41167 0.45611
 C1157 C 0.77795 0.39304 0.46145
 C1158 C 0.76632 0.39111 0.47747
 C1159 C 0.76024 0.37336 0.48303
 C1160 C 0.76533 0.35745 0.47228
 C1161 C 0.77619 0.35953 0.45573
 C1162 C 0.78267 0.37718 0.45046
 C1163 C 0.75978 0.33856 0.47825
 C1164 C 0.76108 0.33289 0.49722
 H1165 H 0.77553 0.42381 0.45788
 H1166 H 0.76233 0.40326 0.48592
 H1167 H 0.75154 0.37207 0.49566
 H1168 H 0.78009 0.34741 0.44720
 H1169 H 0.79125 0.37847 0.43775
 H1170 H 0.75695 0.32827 0.46730
 H1171 H 0.81319 0.40252 0.45026
 H1172 H 0.76615 0.34256 0.50788
 C1173 C 0.81513 0.89893 -0.06459
 C1174 C 0.82374 0.88353 -0.05548
 C1175 C 0.81379 0.86623 -0.04978
 C1176 C 0.82269 0.85395 -0.03679
 C1177 C 0.81423 0.83721 -0.03131
 C1178 C 0.79655 0.83234 -0.03872
 C1179 C 0.78776 0.84446 -0.05194
 C1180 C 0.79623 0.86126 -0.05741
 C1181 C 0.78754 0.81431 -0.03382
 C1182 C 0.79187 0.80417 -0.01726
 H1183 H 0.83863 0.88420 -0.05224
 H1184 H 0.83636 0.85726 -0.03093
 H1185 H 0.82188 0.82796 -0.02169
 H1186 H 0.77432 0.84087 -0.05814
 H1187 H 0.78912 0.86997 -0.06792
 H1188 H 0.77736 0.80873 -0.04371
 H1189 H 0.80025 0.89869 -0.06785
 H1190 H 0.80118 0.81004 -0.00672
 C1191 C 0.81452 0.32947 0.35783
 C1192 C 0.81387 0.31116 0.36524
 C1193 C 0.80332 0.30549 0.38271
 C1194 C 0.80386 0.28647 0.38818
 C1195 C 0.79447 0.28033 0.40458
 C1196 C 0.78428 0.29313 0.41604
 C1197 C 0.78345 0.31209 0.41045
 C1198 C 0.79290 0.31826 0.39408
 C1199 C 0.77431 0.28729 0.43373
 C1200 C 0.77919 0.27118 0.44426
 H1201 H 0.82142 0.30017 0.35760
 H1202 H 0.81162 0.27624 0.37971
 H1203 H 0.79506 0.26551 0.40804
 H1204 H 0.77563 0.32225 0.41895
 H1205 H 0.79196 0.33303 0.39062
 H1206 H 0.76370 0.29683 0.43951
 H1207 H 0.80637 0.34058 0.36452
 H1208 H 0.79082 0.26229 0.43962
 C1209 C 0.79462 0.78608 -0.18377
 C1210 C 0.80660 0.77997 -0.16912
 C1211 C 0.80033 0.77595 -0.14936
 C1212 C 0.81410 0.77392 -0.13510
 C1213 C 0.80899 0.77024 -0.11623
 C1214 C 0.78992 0.76837 -0.11123
 C1215 C 0.77610 0.77064 -0.12535
 C1216 C 0.78121 0.77421 -0.14428
 C1217 C 0.78412 0.76390 -0.09150
 C1218 C 0.79526 0.75265 -0.07956
 H1219 H 0.82162 0.77945 -0.17191
 H1220 H 0.82891 0.77532 -0.13854
 H1221 H 0.81998 0.76908 -0.10557
 H1222 H 0.76132 0.76924 -0.12180
 H1223 H 0.77008 0.77531 -0.15474
 H1224 H 0.77009 0.76810 -0.08690
 H1225 H 0.77975 0.78818 -0.18101
 H1226 H 0.80853 0.74690 -0.08477
 C1227 C 0.32750 0.43518 0.91155
 C1228 C 0.30939 0.44205 0.90746
 C1229 C 0.30414 0.45123 0.88912
 C1230 C 0.28504 0.45228 0.88395
 C1231 C 0.27944 0.46105 0.86694
 C1232 C 0.29287 0.46906 0.85471
 C1233 C 0.31191 0.46841 0.86009
 C1234 C 0.31753 0.45958 0.87708
 C1235 C 0.28753 0.47857 0.83657
 C1236 C 0.27102 0.47472 0.82661
 H1237 H 0.29850 0.44044 0.91816
 H1238 H 0.27441 0.44627 0.89312
 H1239 H 0.26455 0.46181 0.86366
 H1240 H 0.32251 0.47471 0.85109
 H1241 H 0.33230 0.45972 0.88082
 H1242 H 0.29750 0.48817 0.83030
 H1243 H 0.33861 0.43645 0.90108
 H1244 H 0.26160 0.46410 0.83188
 C1245 C 0.31957 -0.05362 0.41338
 C1246 C 0.30130 -0.05308 0.40584
 C1247 C 0.29550 -0.04178 0.38888
 C1248 C 0.27622 -0.04019 0.38445
 C1249 C 0.27011 -0.03035 0.36821
 C1250 C 0.28322 -0.02193 0.35595
 C1251 C 0.30244 -0.02319 0.36054
 C1252 C 0.30857 -0.03311 0.37669
 C1253 C 0.27755 -0.01201 0.33818
 C1254 C 0.26119 -0.01603 0.32800
 H1255 H 0.29056 -0.06121 0.41289
 H1256 H 0.26582 -0.04666 0.39357
 H1257 H 0.25514 -0.02930 0.36541
 H1258 H 0.31283 -0.01685 0.35131
 H1259 H 0.32357 -0.03419 0.37916
 H1260 H 0.28768 -0.00266 0.33177
 H1261 H 0.33011 -0.04443 0.40760
 H1262 H 0.25154 -0.02638 0.33339
 C1263 C -0.06338 -0.05169 -0.16223
 C1264 C -0.04722 -0.05693 -0.15197
 C1265 C -0.04040 -0.04623 -0.13534
 C1266 C -0.02155 -0.04849 -0.12959
 C1267 C -0.01487 -0.03924 -0.11343
 C1268 C -0.02706 -0.02769 -0.10258
 C1269 C -0.04582 -0.02527 -0.10849
 C1270 C -0.05249 -0.03452 -0.12456
 C1271 C -0.02116 -0.01837 -0.08479
 C1272 C -0.00590 -0.02442 -0.07365
 H1273 H -0.03936 -0.06947 -0.15600
 H1274 H -0.01196 -0.05747 -0.13761
 H1275 H -0.00021 -0.04118 -0.10959
 H1276 H -0.05555 -0.01657 -0.10032
 H1277 H -0.06727 -0.03286 -0.12803
 H1278 H -0.03052 -0.00755 -0.07914
 H1279 H -0.07084 -0.03883 -0.15854
 H1280 H 0.00333 -0.03568 -0.07848
 C1281 C -0.05969 0.44733 0.32800
 C1282 C -0.05871 0.46521 0.33592
 C1283 C -0.04939 0.46904 0.35435
 C1284 C -0.05491 0.48513 0.36448
 C1285 C -0.04653 0.48936 0.38191
 C1286 C -0.03205 0.47774 0.38946
 C1287 C -0.02651 0.46161 0.37931
 C1288 C -0.03498 0.45733 0.36187
 C1289 C -0.02321 0.48163 0.40818
 C1290 C -0.02373 0.49944 0.41635
 H1291 H -0.06553 0.47686 0.32851
 H1292 H -0.06601 0.49433 0.35905
 H1293 H -0.05183 0.50151 0.38954
 H1294 H -0.01549 0.45238 0.38483
 H1295 H -0.02997 0.44505 0.35424
 H1296 H -0.01679 0.47005 0.41604
 H1297 H -0.05343 0.43546 0.33547
 H1298 H -0.02946 0.51124 0.40838
 C1299 C 0.44005 -0.05613 0.33578
 C1300 C 0.45870 -0.05297 0.34105
 C1301 C 0.46426 -0.04423 0.35928
 C1302 C 0.48267 -0.04744 0.36595
 C1303 C 0.48831 -0.04042 0.38357
 C1304 C 0.47559 -0.02998 0.39491
 C1305 C 0.45748 -0.02594 0.38783
 C1306 C 0.45180 -0.03302 0.37021
 C1307 C 0.48073 -0.02333 0.41415
 C1308 C 0.49391 -0.03285 0.42555
 H1309 H 0.46986 -0.05831 0.33188
 H1310 H 0.49265 -0.05572 0.35765
 H1311 H 0.50263 -0.04318 0.38821
 H1312 H 0.44755 -0.01763 0.39616
 H1313 H 0.43772 -0.02961 0.36529
 H1314 H 0.47277 -0.01162 0.42012
 H1315 H 0.42858 -0.05088 0.34454
 H1316 H 0.50085 -0.04547 0.42031
 C1317 C 0.44391 0.42599 -0.17093
 C1318 C 0.44910 0.44398 -0.16541
 C1319 C 0.46262 0.44767 -0.14982
 C1320 C 0.47094 0.46538 -0.14891
 C1321 C 0.48302 0.46981 -0.13392
 C1322 C 0.48684 0.45664 -0.11937
 C1323 C 0.47897 0.43876 -0.12054
 C1324 C 0.46685 0.43433 -0.13550
 C1325 C 0.49815 0.46138 -0.10240
 C1326 C 0.49828 0.47952 -0.09496
 H1327 H 0.44351 0.45591 -0.17336
 H1328 H 0.46800 0.47587 -0.15979
 H1329 H 0.48926 0.48356 -0.13376
 H1330 H 0.48166 0.42840 -0.10945
 H1331 H 0.46043 0.42068 -0.13536
 H1332 H 0.50424 0.44996 -0.09405
 H1333 H 0.45081 0.41386 -0.16452
 H1334 H 0.49070 0.49075 -0.10224
 C1335 C 0.44230 0.79657 0.41745
 C1336 C 0.45908 0.79763 0.40718
 C1337 C 0.46186 0.78999 0.38777
 C1338 C 0.48027 0.78905 0.38053
 C1339 C 0.48365 0.78316 0.36190
 C1340 C 0.46862 0.77821 0.35000
 C1341 C 0.45025 0.77848 0.35734
 C1342 C 0.44682 0.78450 0.37602
 C1343 C 0.47201 0.77301 0.32992
 C1344 C 0.48605 0.78173 0.31941
 H1345 H 0.47095 0.80434 0.41386
 H1346 H 0.49210 0.79308 0.38927
 H1347 H 0.49806 0.78250 0.35683
 H1348 H 0.43849 0.77463 0.34840
 H1349 H 0.43237 0.78529 0.38087
 H1350 H 0.46314 0.76268 0.32326
 H1351 H 0.43079 0.78844 0.41197
 H1352 H 0.49365 0.79320 0.32575
 C1353 C -0.05448 0.81901 0.90363
 C1354 C -0.05238 0.80149 0.89476
 C1355 C -0.04449 0.79827 0.87537
 C1356 C -0.04591 0.78024 0.86747
 C1357 C -0.03933 0.77646 0.84905
 C1358 C -0.03114 0.79069 0.83804
 C1359 C -0.02928 0.80861 0.84606
 C1360 C -0.03592 0.81243 0.86449
 C1361 C -0.02406 0.78734 0.81840
 C1362 C -0.03026 0.77283 0.80667
 H1363 H -0.05757 0.78929 0.90227
 H1364 H -0.05227 0.76900 0.87555
 H1365 H -0.04049 0.76232 0.84366
 H1366 H -0.02282 0.81978 0.83796
 H1367 H -0.03424 0.82645 0.86998
 H1368 H -0.01431 0.79741 0.81255
 H1369 H -0.04869 0.83141 0.89712
 H1370 H -0.04101 0.76341 0.81164
 C1371 C 0.34894 0.81677 0.31290
 C1372 C 0.35679 0.81625 0.29456
 C1373 C 0.37438 0.80580 0.28935
 C1374 C 0.37921 0.80427 0.26995
 C1375 C 0.39598 0.79524 0.26431
 C1376 C 0.40840 0.78760 0.27801
 C1377 C 0.40347 0.78885 0.29737
 C1378 C 0.38675 0.79795 0.30303
 C1379 C 0.42656 0.77832 0.27280
 C1380 C 0.43631 0.78190 0.25584
 H1381 H 0.34951 0.82378 0.28323
 H1382 H 0.36997 0.81013 0.25908
 H1383 H 0.39902 0.79417 0.24923
 H1384 H 0.41279 0.78308 0.30823
 H1385 H 0.38391 0.79903 0.31813
 H1386 H 0.43333 0.76953 0.28353
 H1387 H 0.35493 0.80804 0.32407
 H1388 H 0.43054 0.79171 0.24548
 C1389 C -0.18134 0.78397 0.79017
 C1390 C -0.16954 0.79399 0.77798
 C1391 C -0.15082 0.78720 0.77130
 C1392 C -0.13847 0.80039 0.76357
 C1393 C -0.12039 0.79499 0.75766
 C1394 C -0.11431 0.77614 0.75914
 C1395 C -0.12669 0.76287 0.76670
 C1396 C -0.14484 0.76828 0.77261
 C1397 C -0.09491 0.77015 0.75386
 C1398 C -0.08380 0.78022 0.74111
 H1399 H -0.17350 0.80833 0.77437
 H1400 H -0.14267 0.81506 0.76245
 H1401 H -0.11112 0.80578 0.75249
 H1402 H -0.12231 0.74827 0.76803
 H1403 H -0.15401 0.75756 0.77808
 H1404 H -0.08918 0.75744 0.76033
 H1405 H -0.17707 0.77015 0.79513
 H1406 H -0.08978 0.79213 0.73346
 C1407 C 0.91029 0.31262 0.45056
 C1408 C 0.90049 0.31710 0.46727
 C1409 C 0.88457 0.30584 0.47439
 C1410 C 0.87953 0.30693 0.49373
 C1411 C 0.86425 0.29686 0.50078
 C1412 C 0.85359 0.28563 0.48851
 C1413 C 0.85876 0.28438 0.46925
 C1414 C 0.87394 0.29449 0.46219
 C1415 C 0.83671 0.27551 0.49499
 C1416 C 0.82545 0.28162 0.51016
 H1417 H 0.90505 0.32879 0.47584
 H1418 H 0.88747 0.31558 0.50342
 H1419 H 0.86094 0.29784 0.51582
 H1420 H 0.85069 0.27594 0.45948
 H1421 H 0.87690 0.29371 0.44708
 H1422 H 0.83165 0.26431 0.48601
 H1423 H 0.90716 0.29964 0.44332
 H1424 H 0.82956 0.29361 0.51852
 C1425 C 0.91978 0.80888 -0.07477
 C1426 C 0.91437 0.80415 -0.05623
 C1427 C 0.89913 0.79079 -0.05178
 C1428 C 0.89835 0.78283 -0.03345
 C1429 C 0.88405 0.77043 -0.02853
 C1430 C 0.87007 0.76585 -0.04186
 C1431 C 0.87099 0.77355 -0.06027
 C1432 C 0.88523 0.78602 -0.06517
 C1433 C 0.85407 0.75367 -0.03690
 C1434 C 0.84658 0.75287 -0.01851
 H1435 H 0.92241 0.80967 -0.04444
 H1436 H 0.90888 0.78618 -0.02288
 H1437 H 0.88405 0.76441 -0.01434
 H1438 H 0.86033 0.77032 -0.07076
 H1439 H 0.88492 0.79215 -0.07929
 H1440 H 0.84639 0.74723 -0.04846
 H1441 H 0.91308 0.80217 -0.08673
 H1442 H 0.85302 0.76077 -0.00717
 C1443 C -0.15856 -0.07899 -0.05903
 C1444 C -0.14366 -0.06904 -0.06701
 C1445 C -0.12712 -0.06243 -0.05617
 C1446 C -0.11538 -0.04922 -0.06483
 C1447 C -0.09965 -0.04244 -0.05529
 C1448 C -0.09530 -0.04872 -0.03672
 C1449 C -0.10672 -0.06231 -0.02823
 C1450 C -0.12248 -0.06910 -0.03779
 C1451 C -0.07870 -0.04193 -0.02611
 C1452 C -0.06972 -0.02514 -0.03043
 H1453 H -0.14428 -0.06563 -0.08207
 H1454 H -0.11841 -0.04408 -0.07909
 H1455 H -0.09083 -0.03257 -0.06271
 H1456 H -0.10347 -0.06765 -0.01410
 H1457 H -0.13071 -0.07970 -0.03075
 H1458 H -0.07352 -0.05038 -0.01426
 H1459 H -0.15831 -0.08279 -0.04409
 H1460 H -0.07513 -0.01605 -0.04162
 C1461 C -0.17289 0.43833 0.44915
 C1462 C -0.16306 0.45276 0.44026
 C1463 C -0.14471 0.45918 0.44742
 C1464 C -0.13973 0.47796 0.44462
 C1465 C -0.12277 0.48463 0.45186
 C1466 C -0.11034 0.47246 0.46177
 C1467 C -0.11517 0.45358 0.46415
 C1468 C -0.13210 0.44695 0.45697
 C1469 C -0.09252 0.47884 0.47027
 C1470 C -0.08357 0.49542 0.46515
 H1471 H -0.16920 0.46017 0.42822
 H1472 H -0.14920 0.48761 0.43723
 H1473 H -0.11977 0.49935 0.45001
 H1474 H -0.10576 0.44388 0.47158
 H1475 H -0.13515 0.43222 0.45878
 H1476 H -0.08571 0.46956 0.48054
 H1477 H -0.16673 0.43139 0.46149
 H1478 H -0.08930 0.50444 0.45408
 C1479 C 0.34217 -0.06244 0.43919
 C1480 C 0.34861 -0.04440 0.44295
 C1481 C 0.36646 -0.04083 0.45317
 C1482 C 0.37530 -0.02354 0.45049
 C1483 C 0.39242 -0.01983 0.45947
 C1484 C 0.40106 -0.03340 0.47139
 C1485 C 0.39183 -0.05038 0.47468
 C1486 C 0.37473 -0.05409 0.46570
 C1487 C 0.41953 -0.03044 0.48067
 C1488 C 0.43269 -0.01762 0.47401
 H1489 H 0.34057 -0.03241 0.43767
 H1490 H 0.36903 -0.01294 0.44123
 H1491 H 0.39867 -0.00629 0.45710
 H1492 H 0.39799 -0.06093 0.48407
 H1493 H 0.36802 -0.06727 0.46882
 H1494 H 0.42346 -0.03970 0.49237
 H1495 H 0.35027 -0.07453 0.44409
 H1496 H 0.42955 -0.00895 0.46168
 C1497 C 0.35004 0.43285 -0.06115
 C1498 C 0.36027 0.44858 -0.06691
 C1499 C 0.37872 0.45389 -0.05869
 C1500 C 0.38524 0.47218 -0.06178
 C1501 C 0.40272 0.47770 -0.05466
 C1502 C 0.41419 0.46492 -0.04439
 C1503 C 0.40767 0.44664 -0.04130
 C1504 C 0.39022 0.44112 -0.04843
 C1505 C 0.43286 0.46995 -0.03651
 C1506 C 0.44336 0.48545 -0.04232
 H1507 H 0.35419 0.45789 -0.07759
 H1508 H 0.37671 0.48231 -0.06967
 H1509 H 0.40699 0.49201 -0.05707
 H1510 H 0.41624 0.43646 -0.03352
 H1511 H 0.38607 0.42675 -0.04614
 H1512 H 0.43916 0.46022 -0.02632
 H1513 H 0.35506 0.42450 -0.04921
 H1514 H 0.43805 0.49486 -0.05328
 C1515 C 0.41473 0.43568 0.81165
 C1516 C 0.40513 0.43743 0.79435
 C1517 C 0.38844 0.44991 0.79144
 C1518 C 0.38348 0.45508 0.77276
 C1519 C 0.36731 0.46601 0.76923
 C1520 C 0.35552 0.47176 0.78435
 C1521 C 0.36071 0.46700 0.80309
 C1522 C 0.37693 0.45608 0.80664
 C1523 C 0.33756 0.48220 0.78104
 C1524 C 0.32731 0.48054 0.76417
 H1525 H 0.41051 0.42974 0.78214
 H1526 H 0.39215 0.45060 0.76082
 H1527 H 0.36414 0.46990 0.75464
 H1528 H 0.35188 0.47126 0.81499
 H1529 H 0.38002 0.45208 0.82121
 H1530 H 0.33131 0.48984 0.79288
 H1531 H 0.41081 0.44470 0.82345
 H1532 H 0.33266 0.47167 0.75282
 C1533 C 0.41782 -0.06346 0.30940
 C1534 C 0.40848 -0.04601 0.31000
 C1535 C 0.38987 -0.04183 0.30118
 C1536 C 0.38351 -0.02306 0.30061
 C1537 C 0.36593 -0.01829 0.29289
 C1538 C 0.35420 -0.03228 0.28565
 C1539 C 0.36059 -0.05103 0.28597
 C1540 C 0.37817 -0.05583 0.29379
 C1541 C 0.33552 -0.02767 0.27735
 C1542 C 0.32486 -0.01194 0.28284
 H1543 H 0.41541 -0.03455 0.31709
 H1544 H 0.39222 -0.01197 0.30612
 H1545 H 0.36174 -0.00361 0.29236
 H1546 H 0.35182 -0.06204 0.28042
 H1547 H 0.38225 -0.07051 0.29418
 H1548 H 0.32963 -0.03741 0.26722
 H1549 H 0.41196 -0.07478 0.30121
 H1550 H 0.32981 -0.00302 0.29418
 C1551 C 0.08563 0.56570 0.68337
 C1552 C 0.09590 0.57229 0.69889
 C1553 C 0.11382 0.56332 0.70519
 C1554 C 0.11946 0.56505 0.72427
 C1555 C 0.13632 0.55667 0.73063
 C1556 C 0.14799 0.54660 0.71786
 C1557 C 0.14240 0.54510 0.69874
 C1558 C 0.12558 0.55342 0.69242
 C1559 C 0.16595 0.53735 0.72365
 C1560 C 0.17537 0.54062 0.74080
 H1561 H 0.09020 0.58381 0.70727
 H1562 H 0.11067 0.57270 0.73434
 H1563 H 0.13990 0.55798 0.74553
 H1564 H 0.15117 0.53756 0.68856
 H1565 H 0.12204 0.55232 0.67746
 H1566 H 0.17261 0.52807 0.71333
 H1567 H 0.09019 0.55279 0.67651
 H1568 H 0.16968 0.55037 0.75117
 C1569 C 0.08225 0.07391 0.19277
 C1570 C 0.09193 0.05658 0.19305
 C1571 C 0.11103 0.05316 0.20125
 C1572 C 0.11882 0.03492 0.20014
 C1573 C 0.13683 0.03083 0.20727
 C1574 C 0.14760 0.04497 0.21566
 C1575 C 0.13975 0.06315 0.21710
 C1576 C 0.12172 0.06728 0.20990
 C1577 C 0.16675 0.04111 0.22344
 C1578 C 0.17831 0.02627 0.21716
 H1579 H 0.08504 0.04464 0.18677
 H1580 H 0.11092 0.02370 0.19372
 H1581 H 0.14207 0.01650 0.20643
 H1582 H 0.14769 0.07427 0.22364
 H1583 H 0.11643 0.08153 0.21118
 H1584 H 0.17221 0.05075 0.23392
 H1585 H 0.08821 0.08591 0.19975
 H1586 H 0.17366 0.01742 0.20563
 C1587 C 0.69247 0.71124 0.20200
 C1588 C 0.67655 0.70302 0.20992
 C1589 C 0.65933 0.71367 0.21552
 C1590 C 0.64597 0.70463 0.22688
 C1591 C 0.62870 0.71336 0.23104
 C1592 C 0.62441 0.73145 0.22392
 C1593 C 0.63780 0.74056 0.21263
 C1594 C 0.65511 0.73182 0.20847
 C1595 C 0.60567 0.74049 0.22680
 C1596 C 0.59364 0.73536 0.24157
 H1597 H 0.67617 0.68785 0.21101
 H1598 H 0.64872 0.69053 0.23219
 H1599 H 0.61855 0.70551 0.23918
 H1600 H 0.63471 0.75436 0.20671
 H1601 H 0.66470 0.73908 0.19913
 H1602 H 0.60102 0.75110 0.21664
 H1603 H 0.69318 0.72636 0.20088
 H1604 H 0.59856 0.72572 0.25252
 C1605 C 0.16826 0.69425 0.69200
 C1606 C 0.15950 0.71198 0.69201
 C1607 C 0.14053 0.71607 0.70000
 C1608 C 0.13502 0.73492 0.70255
 C1609 C 0.11686 0.73964 0.70881
 C1610 C 0.10369 0.72554 0.71247
 C1611 C 0.10932 0.70666 0.71049
 C1612 C 0.12751 0.70193 0.70417
 C1613 C 0.08402 0.73010 0.71811
 C1614 C 0.07491 0.74679 0.71261
 H1615 H 0.16709 0.72361 0.68584
 H1616 H 0.14478 0.74609 0.69954
 H1617 H 0.11325 0.75432 0.71080
 H1618 H 0.09944 0.69555 0.71329
 H1619 H 0.13100 0.68724 0.70209
 H1620 H 0.07606 0.71944 0.72550
 H1621 H 0.16189 0.68274 0.69961
 H1622 H 0.08225 0.75687 0.70386
 C1623 C 0.59351 0.16986 0.57280
 C1624 C 0.59884 0.18833 0.56939
 C1625 C 0.61594 0.19342 0.55853
 C1626 C 0.61679 0.21143 0.55045
 C1627 C 0.63299 0.21722 0.54093
 C1628 C 0.64888 0.20518 0.53958
 C1629 C 0.64785 0.18694 0.54709
 C1630 C 0.63159 0.18111 0.55660
 C1631 C 0.66690 0.21164 0.53136
 C1632 C 0.67230 0.23031 0.53280
 H1633 H 0.58949 0.19960 0.57407
 H1634 H 0.60490 0.22111 0.55159
 H1635 H 0.63304 0.23117 0.53476
 H1636 H 0.65990 0.17741 0.54623
 H1637 H 0.63164 0.16724 0.56293
 H1638 H 0.67709 0.20121 0.52645
 H1639 H 0.60155 0.15841 0.56650
 H1640 H 0.66290 0.24043 0.53955
 C1641 C 0.60127 0.67941 0.06120
 C1642 C 0.60815 0.68131 0.04259
 C1643 C 0.62715 0.68849 0.03778
 C1644 C 0.63419 0.68577 0.01924
 C1645 C 0.65190 0.69245 0.01397
 C1646 C 0.66305 0.70207 0.02721
 C1647 C 0.65585 0.70511 0.04564
 C1648 C 0.63815 0.69844 0.05089
 C1649 C 0.68203 0.70935 0.02250
 C1650 C 0.69270 0.70383 0.00661
 H1651 H 0.59915 0.67724 0.03089
 H1652 H 0.62593 0.67842 0.00874
 H1653 H 0.65657 0.69022 -0.00054
 H1654 H 0.66399 0.71268 0.05607
 H1655 H 0.63315 0.70146 0.06514
 H1656 H 0.68835 0.71878 0.03267
 H1657 H 0.61002 0.68312 0.07316
 H1658 H 0.68723 0.69376 -0.00337
 C1659 C 0.16200 0.07206 0.06209
 C1660 C 0.15542 0.05371 0.06117
 C1661 C 0.13673 0.04865 0.05355
 C1662 C 0.12988 0.03070 0.05759
 C1663 C 0.11236 0.02520 0.05070
 C1664 C 0.10127 0.03762 0.03960
 C1665 C 0.10828 0.05543 0.03524
 C1666 C 0.12581 0.06093 0.04210
 C1667 C 0.08270 0.03241 0.03185
 C1668 C 0.07199 0.01768 0.03897
 H1669 H 0.16434 0.04244 0.06668
 H1670 H 0.13812 0.02086 0.06612
 H1671 H 0.10783 0.01111 0.05388
 H1672 H 0.10015 0.06516 0.02647
 H1673 H 0.13073 0.07466 0.03808
 H1674 H 0.07692 0.04100 0.02039
 H1675 H 0.15342 0.08362 0.05679
 H1676 H 0.07686 0.00952 0.05110
 C1677 C 0.14953 0.58127 0.56534
 C1678 C 0.14127 0.56363 0.56517
 C1679 C 0.12417 0.55934 0.55397
 C1680 C 0.12031 0.54051 0.54995
 C1681 C 0.10418 0.53578 0.53975
 C1682 C 0.09141 0.54985 0.53352
 C1683 C 0.09537 0.56869 0.53730
 C1684 C 0.11148 0.57343 0.54756
 C1685 C 0.07377 0.54533 0.52341
 C1686 C 0.06441 0.52852 0.52641
 H1687 H 0.14822 0.55217 0.57273
 H1688 H 0.12986 0.52940 0.55466
 H1689 H 0.10187 0.52113 0.53665
 H1690 H 0.08572 0.57977 0.53269
 H1691 H 0.11360 0.58807 0.55076
 H1692 H 0.06702 0.55624 0.51487
 H1693 H 0.14386 0.59233 0.55629
 H1694 H 0.07017 0.51819 0.53627
 C1695 C 0.67271 0.05219 0.55507
 C1696 C 0.66062 0.03952 0.56396
 C1697 C 0.64575 0.02911 0.55379
 C1698 C 0.63127 0.02104 0.56456
 C1699 C 0.61621 0.01227 0.55560
 C1700 C 0.61538 0.01129 0.53559
 C1701 C 0.63016 0.01877 0.52482
 C1702 C 0.64530 0.02741 0.53379
 C1703 C 0.59857 0.00434 0.52551
 C1704 C 0.58537 -0.00748 0.53386
 H1705 H 0.66097 0.03836 0.57936
 H1706 H 0.63128 0.02205 0.57998
 H1707 H 0.60489 0.00707 0.56440
 H1708 H 0.62986 0.01817 0.50938
 H1709 H 0.65642 0.03282 0.52489
 H1710 H 0.59602 0.00958 0.51119
 H1711 H 0.67128 0.05490 0.53996
 H1712 H 0.58836 -0.01417 0.54744
 C1713 C 0.68280 0.54880 0.05379
 C1714 C 0.67357 0.53165 0.05322
 C1715 C 0.65781 0.52779 0.03997
 C1716 C 0.65338 0.50907 0.03603
 C1717 C 0.63812 0.50484 0.02429
 C1718 C 0.62677 0.51930 0.01643
 C1719 C 0.63145 0.53802 0.02001
 C1720 C 0.64670 0.54226 0.03176
 C1721 C 0.60958 0.51548 0.00516
 C1722 C 0.59913 0.49923 0.00766
 H1723 H 0.67855 0.52034 0.06239
 H1724 H 0.66174 0.49766 0.04211
 H1725 H 0.63531 0.49023 0.02144
 H1726 H 0.62290 0.54943 0.01419
 H1727 H 0.64928 0.55687 0.03478
 H1728 H 0.60364 0.52680 -0.00343
 H1729 H 0.67930 0.55950 0.04332
 H1730 H 0.60407 0.48841 0.01741
 C1731 C 0.05979 0.06485 0.16723
 C1732 C 0.04130 0.06013 0.16257
 C1733 C 0.03618 0.04807 0.14614
 C1734 C 0.01724 0.04764 0.14037
 C1735 C 0.01178 0.03686 0.12472
 C1736 C 0.02523 0.02622 0.11440
 C1737 C 0.04403 0.02610 0.12062
 C1738 C 0.04948 0.03684 0.13628
 C1739 C 0.02051 0.01556 0.09687
 C1740 C 0.00422 0.01883 0.08606
 H1741 H 0.02995 0.06577 0.17131
 H1742 H 0.00661 0.05585 0.14789
 H1743 H -0.00296 0.03696 0.12089
 H1744 H 0.05466 0.01787 0.11313
 H1745 H 0.06410 0.03611 0.14052
 H1746 H 0.03133 0.00629 0.09106
 H1747 H 0.07141 0.05951 0.15875
 H1748 H -0.00643 0.02873 0.09095
 C1749 C 0.05655 0.56365 0.66486
 C1750 C 0.04744 0.57108 0.64881
 C1751 C 0.03897 0.55914 0.63390
 C1752 C 0.02488 0.56684 0.62209
 C1753 C 0.01752 0.55643 0.60703
 C1754 C 0.02423 0.53805 0.60336
 C1755 C 0.03839 0.53038 0.61512
 C1756 C 0.04566 0.54075 0.63027
 C1757 C 0.01807 0.52734 0.58642
 C1758 C 0.00101 0.53098 0.57714
 H1759 H 0.04705 0.58616 0.64668
 H1760 H 0.01974 0.58109 0.62434
 H1761 H 0.00713 0.56316 0.59789
 H1762 H 0.04409 0.51644 0.61237
 H1763 H 0.05701 0.53453 0.63857
 H1764 H 0.02782 0.51706 0.58042
 H1765 H 0.05653 0.54861 0.66717
 H1766 H -0.00923 0.54049 0.58354
 C1767 C 0.53582 0.04348 0.68310
 C1768 C 0.53589 0.02670 0.67294
 C1769 C 0.52805 0.02489 0.65352
 C1770 C 0.52447 0.00686 0.64662
 C1771 C 0.51892 0.00429 0.62774
 C1772 C 0.51713 0.01974 0.61527
 C1773 C 0.51987 0.03786 0.62235
 C1774 C 0.52542 0.04045 0.64128
 C1775 C 0.51324 0.01720 0.59474
 C1776 C 0.51973 0.00131 0.58505
 H1777 H 0.54224 0.01431 0.67949
 H1778 H 0.52628 -0.00533 0.65579
 H1779 H 0.51623 -0.00984 0.62293
 H1780 H 0.51849 0.04997 0.61301
 H1781 H 0.52838 0.05455 0.64593
 H1782 H 0.50671 0.02868 0.58682
 H1783 H 0.52771 0.05544 0.67786
 H1784 H 0.52761 -0.00949 0.59269
 C1785 C 0.55406 0.56219 0.15616
 C1786 C 0.55966 0.54558 0.14703
 C1787 C 0.55243 0.53993 0.12813
 C1788 C 0.55389 0.52100 0.12275
 C1789 C 0.54775 0.51522 0.10479
 C1790 C 0.54021 0.52840 0.09174
 C1791 C 0.53865 0.54731 0.09719
 C1792 C 0.54480 0.55307 0.11511
 C1793 C 0.53386 0.52318 0.07239
 C1794 C 0.53970 0.50684 0.06294
 H1795 H 0.56937 0.53603 0.15422
 H1796 H 0.55975 0.51061 0.13251
 H1797 H 0.54880 0.50046 0.10134
 H1798 H 0.53296 0.55775 0.08738
 H1799 H 0.54394 0.56788 0.11843
 H1800 H 0.52521 0.53338 0.06472
 H1801 H 0.54281 0.57072 0.15004
 H1802 H 0.54911 0.49681 0.06982
 C1803 C 0.17047 0.57516 0.59352
 C1804 C 0.18874 0.57417 0.60100
 C1805 C 0.19405 0.56530 0.61945
 C1806 C 0.21328 0.56391 0.62405
 C1807 C 0.21917 0.55608 0.64138
 C1808 C 0.20588 0.54953 0.65460
 C1809 C 0.18666 0.55070 0.64997
 C1810 C 0.18074 0.55862 0.63265
 C1811 C 0.21163 0.54092 0.67298
 C1812 C 0.22859 0.54490 0.68208
 H1813 H 0.20002 0.58014 0.59264
 H1814 H 0.22385 0.56886 0.61416
 H1815 H 0.23413 0.55490 0.64417
 H1816 H 0.17617 0.54566 0.65991
 H1817 H 0.16578 0.55958 0.62990
 H1818 H 0.20177 0.53168 0.67996
 H1819 H 0.15908 0.56817 0.60072
 H1820 H 0.23787 0.55536 0.67621
 C1821 C 0.18693 0.06536 0.08598
 C1822 C 0.20610 0.06247 0.08968
 C1823 C 0.21313 0.05121 0.10610
 C1824 C 0.23136 0.05430 0.11299
 C1825 C 0.23809 0.04468 0.12910
 C1826 C 0.22663 0.03171 0.13867
 C1827 C 0.20882 0.02786 0.13112
 C1828 C 0.20213 0.03744 0.11501
 C1829 C 0.23225 0.02244 0.15684
 C1830 C 0.24632 0.02916 0.16879
 H1831 H 0.21632 0.06924 0.08058
 H1832 H 0.24029 0.06451 0.10612
 H1833 H 0.25219 0.04758 0.13394
 H1834 H 0.19983 0.01769 0.13797
 H1835 H 0.18836 0.03393 0.10965
 H1836 H 0.22351 0.01118 0.16203
 H1837 H 0.17656 0.05898 0.09516
 H1838 H 0.25491 0.04076 0.16433
 C1839 C 0.68566 0.17910 0.67948
 C1840 C 0.68641 0.19806 0.67435
 C1841 C 0.69707 0.20515 0.65767
 C1842 C 0.69237 0.22300 0.65036
 C1843 C 0.70147 0.22998 0.63419
 C1844 C 0.71551 0.21918 0.62493
 C1845 C 0.72075 0.20166 0.63270
 C1846 C 0.71168 0.19469 0.64889
 C1847 C 0.72493 0.22554 0.60721
 C1848 C 0.71738 0.23934 0.59507
 H1849 H 0.67803 0.20813 0.68241
 H1850 H 0.68142 0.23149 0.65704
 H1851 H 0.69746 0.24384 0.62916
 H1852 H 0.73175 0.19319 0.62606
 H1853 H 0.71629 0.18120 0.65442
 H1854 H 0.73766 0.21808 0.60284
 H1855 H 0.69395 0.16878 0.67173
 H1856 H 0.70420 0.24636 0.59856
 C1857 C 0.71198 0.70694 0.17355
 C1858 C 0.72654 0.69854 0.16302
 C1859 C 0.72958 0.70264 0.14262
 C1860 C 0.73682 0.68830 0.13094
 C1861 C 0.73916 0.69127 0.11140
 C1862 C 0.73467 0.70887 0.10322
 C1863 C 0.72753 0.72325 0.11495
 C1864 C 0.72507 0.72023 0.13449
 C1865 C 0.73729 0.71276 0.08265
 C1866 C 0.74957 0.70232 0.07113
 H1867 H 0.73483 0.68721 0.16931
 H1868 H 0.74025 0.67459 0.13688
 H1869 H 0.74415 0.67961 0.10284
 H1870 H 0.72402 0.73694 0.10901
 H1871 H 0.71988 0.73175 0.14316
 H1872 H 0.73034 0.72514 0.07671
 H1873 H 0.70375 0.71829 0.16720
 H1874 H 0.75762 0.69064 0.07701
 C1875 C 0.57253 0.67908 0.08213
 C1876 C 0.57702 0.69522 0.09228
 C1877 C 0.56697 0.70100 0.10992
 C1878 C 0.56702 0.71996 0.11524
 C1879 C 0.55796 0.72592 0.13192
 C1880 C 0.54889 0.71293 0.14384
 C1881 C 0.54868 0.69399 0.13844
 C1882 C 0.55774 0.68803 0.12174
 C1883 C 0.53969 0.71862 0.16196
 C1884 C 0.54533 0.73427 0.17226
 H1885 H 0.58756 0.70452 0.08659
 H1886 H 0.57398 0.73024 0.10637
 H1887 H 0.55794 0.74074 0.13525
 H1888 H 0.54182 0.68370 0.14738
 H1889 H 0.55781 0.67320 0.11843
 H1890 H 0.52916 0.70952 0.16804
 H1891 H 0.56053 0.67098 0.08665
 H1892 H 0.55686 0.74262 0.16706
 C1893 C 0.05581 0.70492 0.55993
 C1894 C 0.05220 0.72336 0.56566
 C1895 C 0.04329 0.72795 0.58420
 C1896 C 0.04644 0.74549 0.59251
 C1897 C 0.03834 0.75011 0.61013
 C1898 C 0.02683 0.73721 0.61973
 C1899 C 0.02314 0.71996 0.61105
 C1900 C 0.03123 0.71535 0.59349
 C1901 C 0.01830 0.74115 0.63863
 C1902 C 0.02517 0.75450 0.65124
 H1903 H 0.05620 0.73477 0.55630
 H1904 H 0.05534 0.75559 0.58543
 H1905 H 0.04100 0.76384 0.61596
 H1906 H 0.01405 0.70992 0.61796
 H1907 H 0.02775 0.70203 0.58717
 H1908 H 0.00689 0.73232 0.64329
 H1909 H 0.05258 0.69345 0.56949
 H1910 H 0.03715 0.76289 0.64735
 C1911 C 0.55250 0.58302 0.18398
 C1912 C 0.56217 0.59675 0.19404
 C1913 C 0.55310 0.61424 0.20135
 C1914 C 0.56249 0.62465 0.21528
 C1915 C 0.55509 0.64188 0.22159
 C1916 C 0.53807 0.64913 0.21402
 C1917 C 0.52868 0.63869 0.20014
 C1918 C 0.53606 0.62147 0.19384
 C1919 C 0.53034 0.66796 0.21912
 C1920 C 0.53611 0.67830 0.23490
 H1921 H 0.57722 0.59499 0.19612
 H1922 H 0.57578 0.61955 0.22109
 H1923 H 0.56311 0.64964 0.23190
 H1924 H 0.51571 0.64406 0.19384
 H1925 H 0.52866 0.61432 0.18262
 H1926 H 0.51981 0.67413 0.20969
 H1927 H 0.53741 0.58449 0.18212
 H1928 H 0.54585 0.67221 0.24514
 C1929 C 0.06514 0.59440 0.68048
 C1930 C 0.04709 0.60180 0.68383
 C1931 C 0.04353 0.62148 0.68996
 C1932 C 0.02576 0.62977 0.68659
 C1933 C 0.02174 0.64815 0.69251
 C1934 C 0.03544 0.65865 0.70206
 C1935 C 0.05305 0.65020 0.70586
 C1936 C 0.05711 0.63185 0.69985
 C1937 C 0.03154 0.67807 0.70883
 C1938 C 0.01814 0.68994 0.70027
 H1939 H 0.03509 0.59282 0.68185
 H1940 H 0.01493 0.62198 0.67935
 H1941 H 0.00775 0.65389 0.68992
 H1942 H 0.06373 0.65785 0.71349
 H1943 H 0.07073 0.62575 0.70340
 H1944 H 0.03989 0.68336 0.72052
 H1945 H 0.07720 0.60337 0.68194
 H1946 H 0.01076 0.68529 0.68769
 C1947 C 0.05883 0.16520 0.06316
 C1948 C 0.04150 0.15614 0.06293
 C1949 C 0.03797 0.13838 0.05265
 C1950 C 0.01925 0.13311 0.04958
 C1951 C 0.01520 0.11601 0.04087
 C1952 C 0.02985 0.10366 0.03525
 C1953 C 0.04858 0.10909 0.03796
 C1954 C 0.05264 0.12619 0.04668
 C1955 C 0.02621 0.08502 0.02677
 C1956 C 0.00951 0.07528 0.02966
 H1957 H 0.02973 0.16262 0.07044
 H1958 H 0.00769 0.14224 0.05398
 H1959 H 0.00058 0.11265 0.03854
 H1960 H 0.06013 0.09984 0.03375
 H1961 H 0.06726 0.12946 0.04913
 H1962 H 0.03773 0.07804 0.01931
 H1963 H 0.07020 0.16012 0.05416
 H1964 H -0.00172 0.08144 0.03817
 C1965 C 0.05623 0.68360 0.53185
 C1966 C 0.03988 0.67438 0.53743
 C1967 C 0.03473 0.65562 0.53036
 C1968 C 0.01613 0.64965 0.53278
 C1969 C 0.01094 0.63164 0.52725
 C1970 C 0.02438 0.61915 0.51937
 C1971 C 0.04291 0.62519 0.51675
 C1972 C 0.04811 0.64316 0.52230
 C1973 C 0.01972 0.59985 0.51357
 C1974 C 0.00436 0.59003 0.52070
 H1975 H 0.03039 0.68117 0.54748
 H1976 H 0.00558 0.65897 0.53899
 H1977 H -0.00361 0.62770 0.52903
 H1978 H 0.05353 0.61581 0.51073
 H1979 H 0.06271 0.64695 0.52071
 H1980 H 0.02945 0.59271 0.50400
 H1981 H 0.06458 0.67805 0.52016
 H1982 H -0.00505 0.59641 0.53106
 C1983 C 0.56668 0.14855 0.57861
 C1984 C 0.56630 0.14127 0.56013
 C1985 C 0.55715 0.12349 0.55471
 C1986 C 0.56076 0.11622 0.53645
 C1987 C 0.55278 0.09939 0.53064
 C1988 C 0.54099 0.08938 0.54305
 C1989 C 0.53694 0.09689 0.56110
 C1990 C 0.54493 0.11374 0.56693
 C1991 C 0.53252 0.07131 0.53759
 C1992 C 0.54008 0.05960 0.52348
 H1993 H 0.57347 0.14891 0.54895
 H1994 H 0.56988 0.12355 0.52663
 H1995 H 0.55573 0.09448 0.51635
 H1996 H 0.52768 0.08959 0.57082
 H1997 H 0.54129 0.11897 0.58092
 H1998 H 0.52052 0.06656 0.54575
 H1999 H 0.55937 0.14158 0.59007
 H2000 H 0.55279 0.06345 0.51601
 C2001 C 0.57300 0.65979 0.05345
 C2002 C 0.58227 0.64350 0.04720
 C2003 C 0.57226 0.62707 0.03952
 C2004 C 0.58240 0.61380 0.02871
 C2005 C 0.57371 0.59762 0.02205
 C2006 C 0.55460 0.59435 0.02612
 C2007 C 0.54454 0.60746 0.03720
 C2008 C 0.55321 0.62366 0.04382
 C2009 C 0.54506 0.57706 0.01989
 C2010 C 0.55125 0.56640 0.00439
 H2011 H 0.59745 0.64245 0.04867
 H2012 H 0.59718 0.61587 0.02554
 H2013 H 0.58221 0.58753 0.01419
 H2014 H 0.52992 0.60511 0.04086
 H2015 H 0.54505 0.63309 0.05277
 H2016 H 0.53266 0.57271 0.02767
 H2017 H 0.55788 0.66116 0.05185
 H2018 H 0.56292 0.57117 -0.00420
 C2019 C 0.68900 0.08226 0.55798
 C2020 C 0.70384 0.09324 0.56443
 C2021 C 0.70783 0.11231 0.55707
 C2022 C 0.72568 0.11981 0.56040
 C2023 C 0.72999 0.13787 0.55408
 C2024 C 0.71641 0.14895 0.54444
 C2025 C 0.69859 0.14144 0.54099
 C2026 C 0.69425 0.12338 0.54736
 C2027 C 0.72044 0.16816 0.53756
 C2028 C 0.73403 0.17946 0.54587
 H2029 H 0.71350 0.08733 0.57488
 H2030 H 0.73640 0.11160 0.56782
 H2031 H 0.74406 0.14293 0.55653
 H2032 H 0.68788 0.14971 0.53361
 H2033 H 0.68016 0.11840 0.54493
 H2034 H 0.71171 0.17396 0.52623
 H2035 H 0.68045 0.08728 0.54618
 H2036 H 0.74178 0.17449 0.55824
 C2037 C 0.71055 0.56740 0.06297
 C2038 C 0.71699 0.57087 0.04445
 C2039 C 0.72855 0.58720 0.03898
 C2040 C 0.72981 0.59201 0.01959
 C2041 C 0.73950 0.60798 0.01377
 C2042 C 0.74813 0.61955 0.02730
 C2043 C 0.74775 0.61419 0.04658
 C2044 C 0.73808 0.59821 0.05241
 C2045 C 0.75705 0.63752 0.02201
 C2046 C 0.75202 0.64777 0.00571
 H2047 H 0.71245 0.56164 0.03317
 H2048 H 0.72295 0.58359 0.00889
 H2049 H 0.74008 0.61116 -0.00131
 H2050 H 0.75457 0.62267 0.05726
 H2051 H 0.73812 0.59471 0.06741
 H2052 H 0.76620 0.64394 0.03240
 H2053 H 0.71497 0.57616 0.07463
 H2054 H 0.74201 0.64214 -0.00429
 C2055 C 0.19786 0.67514 0.68768
 C2056 C 0.19795 0.66758 0.70616
 C2057 C 0.20872 0.65039 0.71193
 C2058 C 0.21000 0.64588 0.73143
 C2059 C 0.21920 0.62937 0.73752
 C2060 C 0.22725 0.61692 0.72416
 C2061 C 0.22633 0.62159 0.70472
 C2062 C 0.21706 0.63802 0.69861
 C2063 C 0.23636 0.59882 0.72975
 C2064 C 0.23197 0.58904 0.74647
 H2065 H 0.18977 0.67474 0.71707
 H2066 H 0.20376 0.65513 0.74202
 H2067 H 0.22000 0.62650 0.75266
 H2068 H 0.23239 0.61222 0.69412
 H2069 H 0.21616 0.64058 0.68344
 H2070 H 0.24527 0.59192 0.71924
 H2071 H 0.20720 0.66928 0.67699
 H2072 H 0.22210 0.59504 0.75662
 C2073 C 0.18216 0.16926 0.18397
 C2074 C 0.20021 0.16122 0.18472
 C2075 C 0.20479 0.14426 0.19622
 C2076 C 0.22347 0.14109 0.20209
 C2077 C 0.22841 0.12508 0.21269
 C2078 C 0.21474 0.11173 0.21736
 C2079 C 0.19601 0.11503 0.21172
 C2080 C 0.19108 0.13103 0.20114
 C2081 C 0.21956 0.09401 0.22750
 C2082 C 0.23738 0.08550 0.22633
 H2083 H 0.21162 0.16830 0.17757
 H2084 H 0.23427 0.15110 0.19856
 H2085 H 0.24289 0.12331 0.21723
 H2086 H 0.18524 0.10492 0.21508
 H2087 H 0.17662 0.13269 0.19647
 H2088 H 0.20821 0.08635 0.23413
 H2089 H 0.17110 0.16349 0.19275
 H2090 H 0.24849 0.09225 0.21842
 C2091 C 0.67838 1.15496 0.70398
 C2092 C 0.69699 1.14880 0.70678
 C2093 C 0.70213 1.13041 0.71545
 C2094 C 0.72006 1.12260 0.71174
 C2095 C 0.72527 1.10500 0.71914
 C2096 C 0.71260 1.09484 0.73048
 C2097 C 0.69497 1.10301 0.73483
 C2098 C 0.68976 1.12058 0.72742
 C2099 C 0.71708 1.07579 0.73793
 C2100 C 0.73055 1.06374 0.72975
 H2101 H 0.70831 1.15751 0.70167
 H2102 H 0.72999 1.13005 0.70287
 H2103 H 0.73924 1.09954 0.71600
 H2104 H 0.68507 1.09563 0.74380
 H2105 H 0.67611 1.12640 0.73129
 H2106 H 0.70829 1.07045 0.74931
 H2107 H 0.66690 1.14629 0.70867
 H2108 H 0.73883 1.06834 0.71769
 C2109 C 0.71147 0.68134 0.19799
 C2110 C 0.71372 0.67641 0.21714
 C2111 C 0.71908 0.65710 0.22312
 C2112 C 0.71302 0.65037 0.24088
 C2113 C 0.71730 0.63192 0.24655
 C2114 C 0.72786 0.61991 0.23453
 C2115 C 0.73462 0.62695 0.21717
 C2116 C 0.73028 0.64533 0.21147
 C2117 C 0.73231 0.60013 0.23963
 C2118 C 0.72150 0.58966 0.25231
 H2119 H 0.71061 0.68677 0.22802
 H2120 H 0.70470 0.65931 0.25025
 H2121 H 0.71245 0.62725 0.26038
 H2122 H 0.74310 0.61812 0.20784
 H2123 H 0.73587 0.65029 0.19804
 H2124 H 0.74387 0.59321 0.23218
 H2125 H 0.71361 0.67073 0.18715
 H2126 H 0.70927 0.59597 0.25913
 C2127 C 0.54133 0.06047 0.71331
 C2128 C 0.52265 0.06620 0.71627
 C2129 C 0.51731 0.08377 0.72622
 C2130 C 0.49980 0.09222 0.72202
 C2131 C 0.49496 0.10980 0.72949
 C2132 C 0.50762 0.11928 0.74132
 C2133 C 0.52456 0.11025 0.74660
 C2134 C 0.52940 0.09265 0.73913
 C2135 C 0.50389 0.13868 0.74791
 C2136 C 0.49257 0.15136 0.73768
 H2137 H 0.51160 0.05841 0.70937
 H2138 H 0.49006 0.08548 0.71244
 H2139 H 0.48139 0.11593 0.72580
 H2140 H 0.53435 0.11709 0.75605
 H2141 H 0.54266 0.08623 0.74340
 H2142 H 0.51165 0.14363 0.76016
 H2143 H 0.55267 0.06796 0.72000
 H2144 H 0.48554 0.14694 0.72482
 C2145 C 1.05215 0.09219 0.18816
 C2146 C 1.05185 0.10017 0.20638
 C2147 C 1.04110 0.11755 0.21150
 C2148 C 1.03809 0.12154 0.23088
 C2149 C 1.02926 0.13835 0.23650
 C2150 C 1.02345 0.15176 0.22282
 C2151 C 1.02594 0.14754 0.20341
 C2152 C 1.03476 0.13069 0.19777
 C2153 C 1.01536 0.17039 0.22825
 C2154 C 1.01933 0.17902 0.24565
 H2155 H 1.05976 0.09315 0.21761
 H2156 H 1.04273 0.11166 0.24176
 H2157 H 1.02707 0.14075 0.25157
 H2158 H 1.02159 0.15759 0.19256
 H2159 H 1.03711 0.12837 0.18271
 H2160 H 1.00785 0.17845 0.21744
 H2161 H 1.04279 0.09774 0.17726
 H2162 H 1.02819 0.17179 0.25596
 C2163 C 0.17792 0.60047 0.57027
 C2164 C 0.18128 0.60466 0.55112
 C2165 C 0.19316 0.62035 0.54471
 C2166 C 0.19090 0.62723 0.52607
 C2167 C 0.20150 0.64231 0.51956
 C2168 C 0.21462 0.65084 0.53165
 C2169 C 0.21744 0.64346 0.55002
 C2170 C 0.20684 0.62838 0.55653
 C2171 C 0.22555 0.66736 0.52568
 C2172 C 0.21950 0.67978 0.51142
 H2173 H 0.17448 0.59634 0.54030
 H2174 H 0.18074 0.62103 0.51655
 H2175 H 0.19943 0.64709 0.50504
 H2176 H 0.22771 0.64956 0.55948
 H2177 H 0.20961 0.62303 0.57072
 H2178 H 0.23801 0.67068 0.53383
 H2179 H 0.18437 0.60869 0.58135
 H2180 H 0.20647 0.67738 0.50388
 C2181 C 0.18974 0.09297 1.06418
 C2182 C 0.18675 0.10117 1.04625
 C2183 C 0.19427 0.11953 1.04012
 C2184 C 0.19251 0.12468 1.02084
 C2185 C 0.19841 0.14223 1.01445
 C2186 C 0.20610 0.15512 1.02729
 C2187 C 0.20823 0.14988 1.04649
 C2188 C 0.20225 0.13234 1.05292
 C2189 C 0.21221 0.17395 1.02109
 C2190 C 0.20453 0.18333 1.00530
 H2191 H 0.17831 0.09366 1.03603
 H2192 H 0.18646 0.11510 1.01066
 H2193 H 0.19708 0.14552 0.99943
 H2194 H 0.21418 0.15956 1.05664
 H2195 H 0.20358 0.12917 1.06795
 H2196 H 0.22235 0.18109 1.02991
 H2197 H 0.19954 0.09915 1.07403
 H2198 H 0.19328 0.17707 0.99724
 C2199 C 0.18969 0.70102 0.66493
 C2200 C 0.20799 0.70434 0.65853
 C2201 C 0.21239 0.71366 0.64011
 C2202 C 0.23046 0.71100 0.63233
 C2203 C 0.23507 0.71877 0.61464
 C2204 C 0.22165 0.72940 0.60427
 C2205 C 0.20387 0.73287 0.61244
 C2206 C 0.19923 0.72505 0.63016
 C2207 C 0.22582 0.73680 0.58494
 C2208 C 0.23824 0.72740 0.57267
 H2209 H 0.21969 0.69908 0.66703
 H2210 H 0.24099 0.70263 0.63984
 H2211 H 0.24918 0.71643 0.60917
 H2212 H 0.19342 0.74132 0.60490
 H2213 H 0.18538 0.72809 0.63594
 H2214 H 0.21800 0.74900 0.57979
 H2215 H 0.17778 0.70616 0.65672
 H2216 H 0.24477 0.71429 0.57727
 C2217 C 0.18698 0.18915 1.15509
 C2218 C 0.18739 0.20689 1.14650
 C2219 C 0.19536 0.21072 1.12731
 C2220 C 0.19823 0.22948 1.12201
 C2221 C 0.20481 0.23399 1.10380
 C2222 C 0.20850 0.21978 1.09035
 C2223 C 0.20609 0.20098 1.09575
 C2224 C 0.19944 0.19645 1.11398
 C2225 C 0.21469 0.22420 1.07067
 C2226 C 0.20955 0.24097 1.06152
 H2227 H 0.18184 0.21878 1.15445
 H2228 H 0.19530 0.24075 1.13198
 H2229 H 0.20707 0.24861 1.10037
 H2230 H 0.20889 0.18978 1.08565
 H2231 H 0.19712 0.18184 1.11727
 H2232 H 0.22220 0.21341 1.06268
 H2233 H 0.19398 0.17735 1.14827
 H2234 H 0.20055 0.25108 1.06880
 C2235 C 0.69735 0.54433 0.08600
 C2236 C 0.71348 0.54350 0.09748
 C2237 C 0.71401 0.53732 0.11776
 C2238 C 0.73116 0.53859 0.12760
 C2239 C 0.73246 0.53376 0.14689
 C2240 C 0.71653 0.52757 0.15690
 C2241 C 0.69949 0.52573 0.14700
 C2242 C 0.69815 0.53065 0.12766
 C2243 C 0.71741 0.52272 0.17748
 C2244 C 0.73030 0.53082 0.18989
 H2245 H 0.72660 0.54817 0.09131
 H2246 H 0.74366 0.54348 0.12036
 H2247 H 0.74602 0.53472 0.15381
 H2248 H 0.68707 0.52078 0.15434
 H2249 H 0.68467 0.52924 0.12076
 H2250 H 0.70703 0.51322 0.18318
 H2251 H 0.68419 0.53890 0.09123
 H2252 H 0.73969 0.54148 0.18463
 C2253 C 0.69239 1.05861 0.58427
 C2254 C 0.69849 1.04030 0.58838
 C2255 C 0.70575 1.03456 0.60734
 C2256 C 0.70354 1.01593 0.61341
 C2257 C 0.70983 1.01015 0.63144
 C2258 C 0.71863 1.02291 0.64367
 C2259 C 0.72151 1.04134 0.63729
 C2260 C 0.71507 1.04716 0.61934
 C2261 C 0.72515 1.01745 0.66300
 C2262 C 0.71666 1.00337 0.67373
 H2263 H 0.69700 1.02958 0.57758
 H2264 H 0.69669 1.00589 0.60428
 H2265 H 0.70795 0.99566 0.63561
 H2266 H 0.72855 1.05133 0.64633
 H2267 H 0.71765 1.06144 0.61485
 H2268 H 0.73604 1.02574 0.66953
 H2269 H 0.69350 1.06937 0.59505
 H2270 H 0.70475 0.99599 0.66798
 C2271 C 0.57082 0.17677 0.59913
 C2272 C 0.55213 0.17768 0.60543
 C2273 C 0.54568 0.18820 0.62252
 C2274 C 0.52635 0.19224 0.62456
 C2275 C 0.51941 0.20111 0.64094
 C2276 C 0.53167 0.20592 0.65583
 C2277 C 0.55107 0.20236 0.65359
 C2278 C 0.55803 0.19348 0.63718
 C2279 C 0.52468 0.21415 0.67396
 C2280 C 0.50659 0.21089 0.68100
 H2281 H 0.54153 0.17067 0.59708
 H2282 H 0.51654 0.18842 0.61346
 H2283 H 0.50445 0.20416 0.64184
 H2284 H 0.56082 0.20594 0.66484
 H2285 H 0.57297 0.19030 0.63638
 H2286 H 0.53465 0.22132 0.68295
 H2287 H 0.58131 0.18525 0.60600
 H2288 H 0.49699 0.20240 0.67291
 C2289 C 1.05176 0.18424 0.09219
 C2290 C 1.04842 0.20206 0.09986
 C2291 C 1.03891 0.20576 0.11837
 C2292 C 1.03420 0.22444 0.12292
 C2293 C 1.02643 0.22897 0.14064
 C2294 C 1.02330 0.21490 0.15434
 C2295 C 1.02726 0.19612 0.14961
 C2296 C 1.03515 0.19156 0.13186
 C2297 C 1.01670 0.21968 0.17379
 C2298 C 1.02257 0.23603 0.18270
 H2299 H 1.05288 0.21412 0.09165
 H2300 H 1.03677 0.23564 0.11279
 H2301 H 1.02300 0.24355 0.14363
 H2302 H 1.02490 0.18505 0.15995
 H2303 H 1.03871 0.17700 0.12913
 H2304 H 1.00881 0.20944 0.18183
 H2305 H 1.04610 0.17200 0.09914
 H2306 H 1.03220 0.24518 0.17529
 C2307 C 0.65572 0.18149 0.69800
 C2308 C 0.64574 0.17913 0.71504
 C2309 C 0.62657 0.18702 0.71872
 C2310 C 0.61939 0.18617 0.73737
 C2311 C 0.60125 0.19297 0.74153
 C2312 C 0.58983 0.20070 0.72702
 C2313 C 0.59702 0.20175 0.70841
 C2314 C 0.61512 0.19485 0.70422
 C2315 C 0.57056 0.20806 0.73081
 C2316 C 0.55933 0.20166 0.74578
 H2317 H 0.65247 0.17129 0.72650
 H2318 H 0.62787 0.18024 0.74882
 H2319 H 0.59637 0.19238 0.75614
 H2320 H 0.58848 0.20765 0.69700
 H2321 H 0.61979 0.19547 0.68957
 H2322 H 0.56460 0.21810 0.72074
 H2323 H 0.65001 0.19055 0.68696
 H2324 H 0.56444 0.19051 0.75506
 C2325 C 1.16259 0.19807 0.17937
 C2326 C 1.15834 0.20056 0.19869
 C2327 C 1.14146 0.21083 0.20593
 C2328 C 1.13623 0.20822 0.22507
 C2329 C 1.11997 0.21688 0.23241
 C2330 C 1.10853 0.22838 0.22069
 C2331 C 1.11416 0.23160 0.20177
 C2332 C 1.13042 0.22294 0.19442
 C2333 C 1.09067 0.23714 0.22747
 C2334 C 1.08058 0.23077 0.24329
 H2335 H 1.16744 0.19377 0.20912
 H2336 H 1.14464 0.19921 0.23434
 H2337 H 1.11655 0.21453 0.24725
 H2338 H 1.10576 0.24064 0.19251
 H2339 H 1.13418 0.22588 0.17978
 H2340 H 1.08444 0.24816 0.21869
 H2341 H 1.15406 0.20488 0.16852
 H2342 H 1.08598 0.21924 0.25189
 C2343 C 0.07733 0.71051 0.53197
 C2344 C 0.09246 0.71739 0.54240
 C2345 C 0.11048 0.72347 0.53376
 C2346 C 0.12364 0.73236 0.54544
 C2347 C 0.14147 0.73687 0.53845
 C2348 C 0.14652 0.73260 0.51951
 C2349 C 0.13330 0.72392 0.50777
 C2350 C 0.11549 0.71937 0.51476
 C2351 C 0.16568 0.73577 0.51180
 C2352 C 0.17900 0.74710 0.52051
 H2353 H 0.09156 0.71721 0.55783
 H2354 H 0.12027 0.73546 0.56019
 H2355 H 0.15132 0.74310 0.54820
 H2356 H 0.13688 0.72027 0.49320
 H2357 H 0.10613 0.71210 0.50530
 H2358 H 0.16956 0.72857 0.49874
 H2359 H 0.07780 0.71058 0.51656
 H2360 H 0.17530 0.75526 0.53298
 C2361 C 0.07704 0.19410 1.06981
 C2362 C 0.08212 0.19790 1.05095
 C2363 C 0.09771 0.21045 1.04543
 C2364 C 0.09803 0.21773 1.02681
 C2365 C 0.11301 0.22866 1.02057
 C2366 C 0.12823 0.23233 1.03277
 C2367 C 0.12763 0.22561 1.05161
 C2368 C 0.11260 0.21468 1.05788
 C2369 C 0.14524 0.24217 1.02596
 C2370 C 0.15140 0.24067 1.00710
 H2371 H 0.07376 0.19194 1.03964
 H2372 H 0.08669 0.21482 1.01697
 H2373 H 0.11266 0.23410 1.00613
 H2374 H 0.13917 0.22823 1.06129
 H2375 H 0.11310 0.20907 1.07223
 H2376 H 0.15445 0.24842 1.03640
 H2377 H 0.08388 0.20145 1.08129
 H2378 H 0.14322 0.23269 0.99705
 C2379 C 0.58025 0.56074 0.17990
 C2380 C 0.58380 0.55595 0.19889
 C2381 C 0.60186 0.54759 0.20577
 C2382 C 0.60559 0.54773 0.22541
 C2383 C 0.62253 0.54032 0.23258
 C2384 C 0.63622 0.53262 0.22018
 C2385 C 0.63221 0.53180 0.20062
 C2386 C 0.61524 0.53920 0.19344
 C2387 C 0.65474 0.52544 0.22713
 C2388 C 0.66295 0.53194 0.24387
 H2389 H 0.57283 0.55885 0.20930
 H2390 H 0.59540 0.55374 0.23527
 H2391 H 0.62471 0.54054 0.24783
 H2392 H 0.64237 0.52564 0.19080
 H2393 H 0.61273 0.53810 0.17829
 H2394 H 0.66276 0.51592 0.21808
 H2395 H 0.59080 0.55810 0.16907
 H2396 H 0.65567 0.54250 0.25231
 C2397 C 0.56405 1.03568 0.70264
 C2398 C 0.57279 1.03332 0.72034
 C2399 C 0.59209 1.02544 0.72259
 C2400 C 0.60238 1.03018 0.73888
 C2401 C 0.62095 1.02379 0.74120
 C2402 C 0.62963 1.01246 0.72719
 C2403 C 0.61907 1.00704 0.71129
 C2404 C 0.60049 1.01347 0.70896
 C2405 C 0.64940 1.00573 0.72891
 C2406 C 0.66277 1.01483 0.73995
 H2407 H 0.56571 1.03866 0.73295
 H2408 H 0.59611 1.03910 0.74975
 H2409 H 0.62832 1.02763 0.75406
 H2410 H 0.62530 0.99798 0.70052
 H2411 H 0.59280 1.00886 0.69658
 H2412 H 0.65372 0.99355 0.72065
 H2413 H 0.57104 1.03062 0.68989
 H2414 H 0.65901 1.02760 0.74746
 C2415 C 0.91519 0.45437 0.30348
 C2416 C 0.90012 0.45792 0.31584
 C2417 C 0.88109 0.46364 0.30907
 C2418 C 0.86852 0.47240 0.32183
 C2419 C 0.85017 0.47725 0.31613
 C2420 C 0.84403 0.47333 0.29750
 C2421 C 0.85650 0.46423 0.28489
 C2422 C 0.87481 0.45943 0.29056
 C2423 C 0.82471 0.47795 0.29080
 C2424 C 0.81307 0.49154 0.29926
 H2425 H 0.90211 0.45568 0.33100
 H2426 H 0.87288 0.47541 0.33629
 H2427 H 0.84082 0.48366 0.32652
 H2428 H 0.85203 0.46075 0.27058
 H2429 H 0.88374 0.45196 0.28053
 H2430 H 0.81979 0.47092 0.27810
 H2431 H 0.91347 0.45687 0.28835
 H2432 H 0.81801 0.49949 0.31133
 C2433 C 0.90892 0.93988 0.81919
 C2434 C 0.90150 0.93880 0.80078
 C2435 C 0.88173 0.94420 0.79621
 C2436 C 0.87332 0.93706 0.77970
 C2437 C 0.85482 0.94227 0.77476
 C2438 C 0.84440 0.95486 0.78629
 C2439 C 0.85292 0.96212 0.80266
 C2440 C 0.87134 0.95694 0.80756
 C2441 C 0.82502 0.96148 0.78158
 C2442 C 0.81347 0.95366 0.76767
 H2443 H 0.91049 0.93385 0.78928
 H2444 H 0.88112 0.92744 0.77056
 H2445 H 0.84900 0.93665 0.76179
 H2446 H 0.84534 0.97204 0.81165
 H2447 H 0.87745 0.96339 0.81998
 H2448 H 0.81943 0.97315 0.78985
 H2449 H 0.89996 0.94457 0.83079
 H2450 H 0.81811 0.94149 0.75966
 C2451 C 0.31353 0.30921 0.78452
 C2452 C 0.32019 0.29119 0.78014
 C2453 C 0.33960 0.28671 0.77358
 C2454 C 0.34564 0.26785 0.77408
 C2455 C 0.36429 0.26291 0.76992
 C2456 C 0.37737 0.27677 0.76519
 C2457 C 0.37115 0.29550 0.76354
 C2458 C 0.35245 0.30049 0.76776
 C2459 C 0.39748 0.27195 0.76214
 C2460 C 0.40620 0.25713 0.77198
 H2461 H 0.31110 0.27951 0.78334
 H2462 H 0.33601 0.25691 0.77819
 H2463 H 0.36842 0.24821 0.77052
 H2464 H 0.38093 0.30636 0.75954
 H2465 H 0.34835 0.31513 0.76663
 H2466 H 0.40574 0.28071 0.75275
 H2467 H 0.32167 0.32138 0.78083
 H2468 H 0.39828 0.24934 0.78249
 C2469 C 0.84267 0.32392 0.33692
 C2470 C 0.85057 0.32321 0.31858
 C2471 C 0.86852 0.31319 0.31352
 C2472 C 0.87313 0.31112 0.29413
 C2473 C 0.88996 0.30216 0.28850
 C2474 C 0.90277 0.29514 0.30220
 C2475 C 0.89811 0.29700 0.32160
 C2476 C 0.88128 0.30602 0.32724
 C2477 C 0.92089 0.28571 0.29679
 C2478 C 0.93006 0.28890 0.27942
 H2479 H 0.84284 0.32996 0.30706
 H2480 H 0.86361 0.31641 0.28321
 H2481 H 0.89270 0.30058 0.27341
 H2482 H 0.90769 0.29171 0.33247
 H2483 H 0.87859 0.30750 0.34233
 H2484 H 0.92787 0.27690 0.30737
 H2485 H 0.84933 0.31611 0.34839
 H2486 H 0.92410 0.29892 0.26936
 C2487 C 0.42546 0.79943 0.44839
 C2488 C 0.42032 0.78062 0.44952
 C2489 C 0.40323 0.77442 0.45963
 C2490 C 0.39440 0.75807 0.45343
 C2491 C 0.37716 0.75279 0.46126
 C2492 C 0.36849 0.76381 0.47550
 C2493 C 0.37799 0.77941 0.48260
 C2494 C 0.39519 0.78471 0.47476
 C2495 C 0.34939 0.76001 0.48282
 C2496 C 0.33595 0.75017 0.47253
 H2497 H 0.42807 0.77033 0.44113
 H2498 H 0.40053 0.74970 0.44206
 H2499 H 0.37067 0.74022 0.45595
 H2500 H 0.37178 0.78790 0.49385
 H2501 H 0.40199 0.79693 0.48049
 H2502 H 0.34510 0.76700 0.49588
 H2503 H 0.41788 0.80994 0.45661
 H2504 H 0.33963 0.74346 0.45919
 C2505 C 0.40245 0.31390 0.94305
 C2506 C 0.38785 0.30561 0.93294
 C2507 C 0.36990 0.29971 0.94179
 C2508 C 0.35823 0.28765 0.93158
 C2509 C 0.34073 0.28248 0.93889
 C2510 C 0.33450 0.28927 0.95670
 C2511 C 0.34610 0.30144 0.96685
 C2512 C 0.36360 0.30663 0.95953
 C2513 C 0.31569 0.28488 0.96462
 C2514 C 0.30488 0.26992 0.95838
 H2515 H 0.38940 0.30380 0.91768
 H2516 H 0.36258 0.28238 0.91774
 H2517 H 0.33202 0.27361 0.93022
 H2518 H 0.34151 0.30715 0.98043
 H2519 H 0.37175 0.31649 0.96762
 H2520 H 0.31008 0.29392 0.97575
 H2521 H 0.40124 0.31568 0.95831
 H2522 H 0.31051 0.26015 0.94797
 C2523 C 0.79756 0.44285 0.42962
 C2524 C 0.78543 0.43407 0.41688
 C2525 C 0.77400 0.44402 0.40229
 C2526 C 0.76626 0.43344 0.38747
 C2527 C 0.75634 0.44226 0.37269
 C2528 C 0.75407 0.46184 0.37239
 C2529 C 0.76087 0.47240 0.38773
 C2530 C 0.77073 0.46356 0.40259
 C2531 C 0.74548 0.47081 0.35544
 C2532 C 0.75131 0.48822 0.34874
 H2533 H 0.78526 0.41886 0.41675
 H2534 H 0.76831 0.41833 0.38706
 H2535 H 0.75105 0.43383 0.36110
 H2536 H 0.75869 0.48747 0.38825
 H2537 H 0.77572 0.47216 0.41414
 H2538 H 0.73665 0.46230 0.34645
 H2539 H 0.79909 0.45790 0.42917
 H2540 H 0.76126 0.49627 0.35690
 C2541 C 0.81897 0.92691 0.91424
 C2542 C 0.80863 0.91975 0.89905
 C2543 C 0.80144 0.93129 0.88292
 C2544 C 0.78638 0.92447 0.87220
 C2545 C 0.77925 0.93465 0.85668
 C2546 C 0.78707 0.95196 0.85147
 C2547 C 0.80244 0.95860 0.86188
 C2548 C 0.80954 0.94844 0.87752
 C2549 C 0.78016 0.96269 0.83465
 C2550 C 0.76181 0.96106 0.82778
 H2551 H 0.80520 0.90498 0.89915
 H2552 H 0.78011 0.91115 0.87583
 H2553 H 0.76792 0.92863 0.84855
 H2554 H 0.80898 0.97168 0.85790
 H2555 H 0.82158 0.95387 0.88499
 H2556 H 0.78987 0.97181 0.82730
 H2557 H 0.82234 0.94166 0.91443
 H2558 H 0.75172 0.95289 0.83571
 C2559 C 0.32217 0.82475 0.33472
 C2560 C 0.31891 0.80662 0.34144
 C2561 C 0.30760 0.80261 0.35876
 C2562 C 0.29955 0.78486 0.36074
 C2563 C 0.28928 0.78027 0.37709
 C2564 C 0.28710 0.79329 0.39203
 C2565 C 0.29481 0.81119 0.38989
 C2566 C 0.30506 0.81580 0.37350
 C2567 C 0.27754 0.78843 0.41018
 C2568 C 0.27723 0.77005 0.41716
 H2569 H 0.32392 0.79483 0.33299
 H2570 H 0.30118 0.77448 0.34956
 H2571 H 0.28306 0.76653 0.37791
 H2572 H 0.29336 0.82147 0.40118
 H2573 H 0.31138 0.82949 0.37275
 H2574 H 0.27266 0.79976 0.41931
 H2575 H 0.31555 0.83660 0.34186
 H2576 H 0.28366 0.75883 0.40892
 C2577 C 0.29193 0.29944 0.81034
 C2578 C 0.27386 0.29831 0.81810
 C2579 C 0.26935 0.28827 0.83608
 C2580 C 0.25046 0.28797 0.84205
 C2581 C 0.24563 0.28042 0.85977
 C2582 C 0.25966 0.27306 0.87195
 C2583 C 0.27840 0.27245 0.86565
 C2584 C 0.28328 0.28010 0.84798
 C2585 C 0.25529 0.26666 0.89151
 C2586 C 0.24089 0.27500 0.90224
 H2587 H 0.26246 0.30585 0.81099
 H2588 H 0.23942 0.29399 0.83315
 H2589 H 0.23094 0.28054 0.86393
 H2590 H 0.28942 0.26671 0.87477
 H2591 H 0.29802 0.28000 0.84418
 H2592 H 0.26488 0.25669 0.89830
 H2593 H 0.30325 0.29075 0.81599
 H2594 H 0.23218 0.28605 0.89601
 C2595 C 0.42547 0.31527 0.91568
 C2596 C 0.42858 0.29611 0.91259
 C2597 C 0.43767 0.28851 0.89512
 C2598 C 0.43481 0.26969 0.89022
 C2599 C 0.44316 0.26200 0.87386
 C2600 C 0.45464 0.27304 0.86204
 C2601 C 0.45799 0.29167 0.86730
 C2602 C 0.44962 0.29936 0.88362
 C2603 C 0.46339 0.26570 0.84428
 C2604 C 0.45629 0.25054 0.83415
 H2605 H 0.42400 0.28628 0.92340
 H2606 H 0.42599 0.26091 0.89904
 H2607 H 0.44074 0.24739 0.87071
 H2608 H 0.46702 0.30039 0.85863
 H2609 H 0.45285 0.31369 0.88728
 H2610 H 0.47491 0.27348 0.83814
 H2611 H 0.42944 0.32534 0.90487
 H2612 H 0.44398 0.24335 0.83933
 C2613 C 0.93694 0.31496 0.42879
 C2614 C 0.94151 0.32381 0.41166
 C2615 C 0.94896 0.31325 0.39503
 C2616 C 0.96024 0.32244 0.38162
 C2617 C 0.96692 0.31294 0.36546
 C2618 C 0.96224 0.29406 0.36232
 C2619 C 0.95055 0.28504 0.37548
 C2620 C 0.94403 0.29447 0.39171
 C2621 C 0.96854 0.28377 0.34506
 C2622 C 0.98509 0.28805 0.33537
 H2623 H 0.93898 0.33878 0.41013
 H2624 H 0.96387 0.33702 0.38364
 H2625 H 0.97532 0.32059 0.35525
 H2626 H 0.94643 0.27064 0.37318
 H2627 H 0.93470 0.28716 0.40132
 H2628 H 0.96000 0.27234 0.34002
 H2629 H 0.93996 0.30007 0.43035
 H2630 H 0.99431 0.29862 0.34103
 C2631 C 0.43123 0.40547 0.80372
 C2632 C 0.44833 0.39616 0.79996
 C2633 C 0.45020 0.37704 0.79179
 C2634 C 0.46796 0.36807 0.79255
 C2635 C 0.47044 0.34970 0.78604
 C2636 C 0.45515 0.33982 0.77861
 C2637 C 0.43756 0.34899 0.77704
 C2638 C 0.43503 0.36741 0.78363
 C2639 C 0.45727 0.32005 0.77239
 C2640 C 0.47043 0.30777 0.78074
 H2641 H 0.46120 0.40298 0.80418
 H2642 H 0.47996 0.37521 0.79848
 H2643 H 0.48439 0.34336 0.78678
 H2644 H 0.42565 0.34175 0.77105
 H2645 H 0.42121 0.37387 0.78228
 H2646 H 0.44760 0.31479 0.76181
 H2647 H 0.41809 0.39956 0.79911
 H2648 H 0.47900 0.31254 0.79247
 C2649 C 0.93784 0.42878 0.29790
 C2650 C 0.95536 0.41984 0.30011
 C2651 C 0.96068 0.40222 0.29022
 C2652 C 0.97974 0.39668 0.28975
 C2653 C 0.98520 0.37939 0.28199
 C2654 C 0.97160 0.36721 0.27473
 C2655 C 0.95263 0.37300 0.27454
 C2656 C 0.94716 0.39025 0.28237
 C2657 C 0.97660 0.34815 0.26803
 C2658 C 0.99151 0.33779 0.27594
 H2659 H 0.96562 0.42591 0.30958
 H2660 H 0.99043 0.40566 0.29565
 H2661 H 1.00003 0.37558 0.28183
 H2662 H 0.94193 0.36383 0.26902
 H2663 H 0.93227 0.39368 0.28286
 H2664 H 0.96706 0.34134 0.25829
 H2665 H 0.92844 0.42416 0.28678
 H2666 H 1.00030 0.34400 0.28674
 C2667 C 0.31525 0.91688 0.43232
 C2668 C 0.31567 0.90785 0.45010
 C2669 C 0.30759 0.88916 0.45411
 C2670 C 0.31231 0.88018 0.47138
 C2671 C 0.30524 0.86251 0.47587
 C2672 C 0.29324 0.85336 0.46311
 C2673 C 0.28825 0.86244 0.44598
 C2674 C 0.29533 0.88012 0.44148
 C2675 C 0.28512 0.83475 0.46730
 C2676 C 0.29216 0.82220 0.48106
 H2677 H 0.32290 0.91466 0.46171
 H2678 H 0.32156 0.88688 0.48148
 H2679 H 0.30901 0.85630 0.48947
 H2680 H 0.27884 0.85581 0.43600
 H2681 H 0.29091 0.88659 0.42823
 H2682 H 0.27331 0.83049 0.45862
 H2683 H 0.30789 0.91068 0.42050
 H2684 H 0.30459 0.82549 0.48921
 C2685 C 0.32082 0.41452 0.94013
 C2686 C 0.30838 0.40262 0.93072
 C2687 C 0.29757 0.38753 0.94032
 C2688 C 0.28211 0.37982 0.93081
 C2689 C 0.27214 0.36491 0.93882
 C2690 C 0.27748 0.35728 0.95661
 C2691 C 0.29292 0.36501 0.96612
 C2692 C 0.30285 0.37993 0.95813
 C2693 C 0.26836 0.34053 0.96511
 C2694 C 0.25131 0.33304 0.95892
 H2695 H 0.30652 0.40424 0.91547
 H2696 H 0.27786 0.38522 0.91696
 H2697 H 0.26068 0.35916 0.93071
 H2698 H 0.29755 0.35926 0.97970
 H2699 H 0.31498 0.38496 0.96575
 H2700 H 0.27585 0.33338 0.97657
 H2701 H 0.32269 0.41309 0.95538
 H2702 H 0.24303 0.34020 0.94809
 C2703 C 0.82044 0.35087 0.33020
 C2704 C 0.80186 0.35776 0.32883
 C2705 C 0.79599 0.37533 0.31866
 C2706 C 0.77667 0.37872 0.31547
 C2707 C 0.77029 0.39529 0.30660
 C2708 C 0.78311 0.40907 0.30083
 C2709 C 0.80245 0.40559 0.30374
 C2710 C 0.80885 0.38900 0.31265
 C2711 C 0.77688 0.42711 0.29183
 C2712 C 0.75880 0.43498 0.29418
 H2713 H 0.79081 0.34953 0.33525
 H2714 H 0.76642 0.36846 0.31986
 H2715 H 0.75532 0.39711 0.30417
 H2716 H 0.81266 0.41592 0.29942
 H2717 H 0.82381 0.38723 0.31506
 H2718 H 0.78735 0.43521 0.28429
 H2719 H 0.83153 0.35790 0.32255
 H2720 H 0.74860 0.42786 0.30297
   
