data_POSCAR
  _audit_creation_date              2014-09-24
  _audit_creation_method            'ToBaCCo'
  _symmetry_space_group_name_H-M    'P1'
  _symmetry_Int_Tables_number       1
  _symmetry_cell_setting            triclinic
  loop_
  _symmetry_equiv_pos_as_xyz
 x,y,z
_cell_length_a 55.3153
_cell_length_b 55.2674
_cell_length_c 55.2399
_cell_angle_alpha 90.025500
_cell_angle_beta 89.969300
_cell_angle_gamma 89.971400
loop_
  _atom_site_label
  _atom_site_type_symbol
  _atom_site_fract_x
  _atom_site_fract_y
  _atom_site_fract_z
O1 O 0.87526 0.15796 0.81167
 O2 O 0.90211 0.12637 0.80503
 O3 O 0.81251 0.12361 0.84184
 O4 O 0.80357 0.10033 0.87364
 O5 O 0.84218 0.18771 0.87562
 O6 O 0.87582 0.19460 0.90157
 O7 O 0.87655 0.06134 0.90716
 O8 O 0.84849 0.05534 0.87683
 O9 O 0.93813 0.09140 0.87545
 O10 O 0.94582 0.12562 0.84830
 O11 O 0.90897 0.12361 0.93729
 O12 O 0.87493 0.15015 0.94560
 O13 O 0.87672 0.09038 0.93649
 O14 O 0.84849 0.12537 0.94426
 O15 O 0.93804 0.12399 0.90813
 O16 O 0.94480 0.15213 0.87314
 O17 O 0.90915 0.06219 0.87606
 O18 O 0.87729 0.05833 0.84436
 O19 O 0.87601 0.18708 0.84097
 O20 O 0.90273 0.19406 0.87494
 O21 O 0.81301 0.15866 0.87570
 O22 O 0.80781 0.12407 0.90392
 O23 O 0.84136 0.12452 0.81240
 O24 O 0.87510 0.09529 0.80765
 Zr25 Zr 0.87436 0.12547 0.83144
 O26 O 0.89739 0.10317 0.85203
 Zr27 Zr 0.83215 0.12569 0.87437
 O28 O 0.85310 0.10269 0.89633
 Zr29 Zr 0.87474 0.16804 0.87404
 O30 O 0.89728 0.14725 0.89666
 Zr31 Zr 0.87637 0.08151 0.87501
 O32 O 0.85300 0.10214 0.85276
 Zr33 Zr 0.91872 0.12419 0.87534
 O34 O 0.89787 0.14680 0.85256
 Zr35 Zr 0.87625 0.12371 0.91790
 O36 O 0.85349 0.14699 0.89763
 O37 O 0.85209 0.14804 0.85177
 O38 O 0.89895 0.10135 0.89781
 C39 C 0.87618 0.18008 0.81877
 C40 C 0.81932 0.12345 0.81962
 C41 C 0.82005 0.18078 0.87631
 C42 C 0.87675 0.06825 0.92934
 C43 C 0.93125 0.06923 0.87592
 C44 C 0.93108 0.12373 0.93028
 H45 H 0.90732 0.09311 0.84104
 H46 H 0.90719 0.15821 0.90673
 H47 H 0.84167 0.15836 0.84150
 H48 H 0.84230 0.09235 0.90614
 H49 H 0.83730 0.05885 0.86328
 H50 H 0.81020 0.08489 0.87974
 H51 H 0.94209 0.16327 0.88690
 H52 H 0.91520 0.18854 0.86332
 H53 H 0.88081 0.04170 0.85010
 H54 H 0.87001 0.10067 0.79129
 H55 H 0.88653 0.16307 0.94129
 H56 H 0.86523 0.18869 0.91474
 H57 H 0.91527 0.13648 0.81172
 H58 H 0.94193 0.11324 0.83597
 H59 H 0.81232 0.13728 0.91516
 H60 H 0.83758 0.11144 0.94162
 O61 O 0.84158 0.68801 0.37510
 O62 O 0.87314 0.69461 0.40197
 O63 O 0.87602 0.65805 0.31215
 O64 O 0.89929 0.62632 0.30307
 O65 O 0.81200 0.62416 0.34181
 O66 O 0.80516 0.59812 0.37543
 O67 O 0.93832 0.59265 0.37614
 O68 O 0.94425 0.62297 0.34800
 O69 O 0.90819 0.62429 0.43780
 O70 O 0.87388 0.65129 0.44558
 O71 O 0.87615 0.56243 0.40848
 O72 O 0.84967 0.55415 0.37442
 O73 O 0.90935 0.56332 0.37621
 O74 O 0.87441 0.55562 0.34789
 O75 O 0.87576 0.59151 0.43765
 O76 O 0.84753 0.62636 0.44457
 O77 O 0.93739 0.62380 0.40875
 O78 O 0.94119 0.65544 0.37684
 O79 O 0.81254 0.65870 0.37582
 O80 O 0.80562 0.62463 0.40244
 O81 O 0.84106 0.62417 0.31260
 O82 O 0.87566 0.59601 0.30729
 O83 O 0.87500 0.68739 0.34112
 O84 O 0.90418 0.69210 0.37487
 Zr85 Zr 0.87408 0.66829 0.37410
 O86 O 0.89640 0.64768 0.39707
 Zr87 Zr 0.87397 0.62548 0.33173
 O88 O 0.89700 0.60350 0.35263
 Zr89 Zr 0.83163 0.62567 0.37441
 O90 O 0.85245 0.60302 0.39690
 Zr91 Zr 0.91810 0.62478 0.37595
 O92 O 0.89744 0.64706 0.35264
 Zr93 Zr 0.87544 0.62432 0.41839
 O94 O 0.85279 0.64711 0.39761
 Zr95 Zr 0.87602 0.58188 0.37577
 O96 O 0.85272 0.60217 0.35305
 O97 O 0.85158 0.64801 0.35177
 O98 O 0.89831 0.60193 0.39852
 C99 C 0.81949 0.68089 0.37606
 C100 C 0.87612 0.68024 0.31904
 C101 C 0.81896 0.62352 0.31965
 C102 C 0.93145 0.57048 0.37630
 C103 C 0.93033 0.62393 0.43087
 C104 C 0.87605 0.56939 0.43063
 H105 H 0.90642 0.65866 0.40703
 H106 H 0.84152 0.59293 0.40681
 H107 H 0.84125 0.65829 0.34137
 H108 H 0.90734 0.59373 0.34178
 H109 H 0.94074 0.63652 0.33682
 H110 H 0.91473 0.62020 0.30966
 H111 H 0.83644 0.61260 0.44183
 H112 H 0.81112 0.63618 0.41498
 H113 H 0.95783 0.64973 0.38031
 H114 H 0.89877 0.70846 0.36982
 H115 H 0.83675 0.55841 0.38605
 H116 H 0.81111 0.58497 0.36480
 H117 H 0.86299 0.68791 0.41511
 H118 H 0.88621 0.66366 0.44170
 H119 H 0.86248 0.58475 0.31179
 H120 H 0.88838 0.55824 0.33702
 O121 O 0.37443 0.15765 0.31232
 O122 O 0.40132 0.12594 0.30590
 O123 O 0.31169 0.12345 0.34272
 O124 O 0.30275 0.10037 0.37464
 O125 O 0.34145 0.18772 0.37615
 O126 O 0.37508 0.19476 0.40200
 O127 O 0.37567 0.06150 0.40846
 O128 O 0.34755 0.05539 0.37817
 O129 O 0.43724 0.09137 0.37638
 O130 O 0.44498 0.12541 0.34913
 O131 O 0.40821 0.12389 0.43814
 O132 O 0.37420 0.15055 0.44633
 O133 O 0.37586 0.09071 0.43761
 O134 O 0.34771 0.12583 0.44515
 O135 O 0.43723 0.12409 0.40894
 O136 O 0.44398 0.15207 0.37381
 O137 O 0.40824 0.06218 0.37723
 O138 O 0.37633 0.05813 0.34566
 O139 O 0.37525 0.18691 0.34146
 O140 O 0.40202 0.19400 0.37541
 O141 O 0.31226 0.15869 0.37639
 O142 O 0.30699 0.12433 0.40479
 O143 O 0.34052 0.12419 0.31327
 O144 O 0.37423 0.09494 0.30865
 Zr145 Zr 0.37352 0.12524 0.33228
 O146 O 0.39650 0.10302 0.35302
 Zr147 Zr 0.33135 0.12572 0.37524
 O148 O 0.35226 0.10283 0.39736
 Zr149 Zr 0.37398 0.16803 0.37464
 O150 O 0.39649 0.14735 0.39740
 Zr151 Zr 0.37548 0.08150 0.37616
 O152 O 0.35216 0.10204 0.35376
 Zr153 Zr 0.41788 0.12416 0.37617
 O154 O 0.39708 0.14667 0.35326
 Zr155 Zr 0.37546 0.12394 0.41879
 O156 O 0.35273 0.14713 0.39836
 O157 O 0.35129 0.14793 0.35250
 O158 O 0.39812 0.10145 0.39881
 C159 C 0.37539 0.17981 0.31929
 C160 C 0.31849 0.12316 0.32049
 C161 C 0.31933 0.18080 0.37688
 C162 C 0.37586 0.06852 0.43063
 C163 C 0.43032 0.06923 0.37696
 C164 C 0.43031 0.12395 0.43109
 H165 H 0.40641 0.09289 0.34208
 H166 H 0.40642 0.15835 0.40739
 H167 H 0.34088 0.15820 0.34218
 H168 H 0.34145 0.09257 0.40724
 H169 H 0.33637 0.05884 0.36461
 H170 H 0.30932 0.08499 0.38097
 H171 H 0.44132 0.16326 0.38753
 H172 H 0.41445 0.18844 0.36377
 H173 H 0.37981 0.04152 0.35150
 H174 H 0.36917 0.10025 0.29225
 H175 H 0.38584 0.16340 0.44196
 H176 H 0.36457 0.18889 0.41526
 H177 H 0.41440 0.13623 0.31246
 H178 H 0.44098 0.11308 0.33678
 H179 H 0.31157 0.13755 0.41598
 H180 H 0.33678 0.11190 0.44260
 O181 O 0.12480 0.34225 0.31160
 O182 O 0.09786 0.37388 0.30534
 O183 O 0.18769 0.37648 0.34155
 O184 O 0.19686 0.39956 0.37336
 O185 O 0.15811 0.31226 0.37530
 O186 O 0.12457 0.30525 0.40129
 O187 O 0.12408 0.43854 0.40763
 O188 O 0.15206 0.44460 0.37718
 O189 O 0.06236 0.40866 0.37605
 O190 O 0.05441 0.37456 0.34892
 O191 O 0.09181 0.37619 0.43763
 O192 O 0.12584 0.34958 0.44561
 O193 O 0.12408 0.40937 0.43681
 O194 O 0.15235 0.37428 0.44416
 O195 O 0.06258 0.37598 0.40867
 O196 O 0.05558 0.34795 0.37361
 O197 O 0.09139 0.43783 0.37661
 O198 O 0.12312 0.44178 0.34483
 O199 O 0.12417 0.31302 0.34076
 O200 O 0.09753 0.30599 0.37486
 O201 O 0.18731 0.34128 0.37530
 O202 O 0.19276 0.37575 0.40358
 O203 O 0.15867 0.37574 0.31230
 O204 O 0.12490 0.40493 0.30788
 Zr205 Zr 0.12579 0.37468 0.33154
 O206 O 0.10295 0.39693 0.35240
 Zr207 Zr 0.16823 0.37426 0.37420
 O208 O 0.14747 0.39720 0.39642
 Zr209 Zr 0.12558 0.33195 0.37392
 O210 O 0.10323 0.35269 0.39682
 Zr211 Zr 0.12412 0.41849 0.37536
 O212 O 0.14730 0.39790 0.35283
 Zr213 Zr 0.08171 0.37585 0.37574
 O214 O 0.10236 0.35330 0.35270
 Zr215 Zr 0.12441 0.37612 0.41803
 O216 O 0.14699 0.35288 0.39747
 O217 O 0.14815 0.35201 0.35161
 O218 O 0.10163 0.39859 0.39820
 C219 C 0.12391 0.32010 0.31859
 C220 C 0.18074 0.37678 0.31938
 C221 C 0.18024 0.31918 0.37593
 C222 C 0.12400 0.43154 0.42978
 C223 C 0.06930 0.43080 0.37652
 C224 C 0.06967 0.37614 0.43077
 H225 H 0.09297 0.40704 0.34152
 H226 H 0.09336 0.34170 0.40690
 H227 H 0.15852 0.34172 0.34124
 H228 H 0.15834 0.40748 0.40621
 H229 H 0.16316 0.44115 0.36354
 H230 H 0.19031 0.41498 0.37962
 H231 H 0.05834 0.33677 0.38731
 H232 H 0.08505 0.31155 0.36329
 H233 H 0.11970 0.45841 0.35066
 H234 H 0.12988 0.39960 0.29146
 H235 H 0.11418 0.33672 0.44134
 H236 H 0.13514 0.31114 0.41450
 H237 H 0.08478 0.36366 0.31203
 H238 H 0.05835 0.38685 0.33652
 H239 H 0.18827 0.36254 0.41481
 H240 H 0.16320 0.38827 0.44159
 O241 O 0.62469 0.84174 0.31153
 O242 O 0.59783 0.87339 0.30505
 O243 O 0.68755 0.87593 0.34151
 O244 O 0.69655 0.89930 0.37325
 O245 O 0.65786 0.81193 0.37537
 O246 O 0.62429 0.80500 0.40133
 O247 O 0.62374 0.93829 0.40723
 O248 O 0.65175 0.94427 0.37682
 O249 O 0.56207 0.90826 0.37565
 O250 O 0.55422 0.87412 0.34854
 O251 O 0.59132 0.87604 0.43737
 O252 O 0.62541 0.84940 0.44547
 O253 O 0.62361 0.90922 0.43652
 O254 O 0.65182 0.87420 0.44412
 O255 O 0.56219 0.87570 0.40831
 O256 O 0.55536 0.84753 0.37328
 O257 O 0.59108 0.93746 0.37622
 O258 O 0.62285 0.94135 0.34445
 O259 O 0.62400 0.81259 0.34077
 O260 O 0.59729 0.80564 0.37483
 O261 O 0.68706 0.84096 0.37539
 O262 O 0.69244 0.87551 0.40355
 O263 O 0.65862 0.87512 0.31219
 O264 O 0.62490 0.90442 0.30763
 Zr265 Zr 0.62567 0.87421 0.33135
 O266 O 0.60273 0.89650 0.35209
 Zr267 Zr 0.66798 0.87393 0.37412
 O268 O 0.64712 0.89691 0.39623
 Zr269 Zr 0.62534 0.83161 0.37388
 O270 O 0.60290 0.85239 0.39666
 Zr271 Zr 0.62383 0.91813 0.37504
 O272 O 0.64710 0.89751 0.35263
 Zr273 Zr 0.58143 0.87548 0.37544
 O274 O 0.60218 0.85288 0.35252
 Zr275 Zr 0.62400 0.87590 0.41786
 O276 O 0.64667 0.85263 0.39742
 O277 O 0.64796 0.85161 0.35156
 O278 O 0.60128 0.89829 0.39788
 C279 C 0.62378 0.81961 0.31858
 C280 C 0.68069 0.87611 0.31930
 C281 C 0.67999 0.81885 0.37603
 C282 C 0.62358 0.93136 0.42941
 C283 C 0.56899 0.93041 0.37612
 C284 C 0.56919 0.87595 0.43043
 H285 H 0.59278 0.90658 0.34116
 H286 H 0.59300 0.84143 0.40674
 H287 H 0.65834 0.84127 0.34126
 H288 H 0.65796 0.90723 0.40602
 H289 H 0.66288 0.94077 0.36321
 H290 H 0.68999 0.91470 0.37956
 H291 H 0.55802 0.83644 0.38708
 H292 H 0.58484 0.81116 0.36322
 H293 H 0.61939 0.95799 0.35023
 H294 H 0.62994 0.89905 0.29124
 H295 H 0.61367 0.83658 0.44127
 H296 H 0.63481 0.81094 0.41455
 H297 H 0.58470 0.86323 0.31176
 H298 H 0.55815 0.88641 0.33615
 H299 H 0.68788 0.86238 0.41485
 H300 H 0.66274 0.88812 0.44146
 O301 O 0.62515 0.65770 0.18771
 O302 O 0.59821 0.62617 0.19423
 O303 O 0.68798 0.62315 0.15783
 O304 O 0.69701 0.59978 0.12611
 O305 O 0.65857 0.68727 0.12386
 O306 O 0.62507 0.69425 0.09781
 O307 O 0.62410 0.56095 0.09220
 O308 O 0.65205 0.55492 0.12264
 O309 O 0.56247 0.59127 0.12369
 O310 O 0.55471 0.62554 0.15075
 O311 O 0.59195 0.62331 0.06193
 O312 O 0.62609 0.64970 0.05375
 O313 O 0.62411 0.58995 0.06288
 O314 O 0.65248 0.62486 0.05525
 O315 O 0.56276 0.62380 0.09097
 O316 O 0.55590 0.65201 0.12590
 O317 O 0.59140 0.56196 0.12323
 O318 O 0.62313 0.55803 0.15501
 O319 O 0.62458 0.68679 0.15840
 O320 O 0.59803 0.69379 0.12428
 O321 O 0.68768 0.65812 0.12391
 O322 O 0.69297 0.62348 0.09577
 O323 O 0.65900 0.62418 0.18713
 O324 O 0.62520 0.59503 0.19173
 Zr325 Zr 0.62609 0.62518 0.16794
 O326 O 0.60313 0.60293 0.14725
 Zr327 Zr 0.66849 0.62522 0.12520
 O328 O 0.64760 0.60225 0.10314
 Zr329 Zr 0.62598 0.66770 0.12534
 O330 O 0.60351 0.64695 0.10260
 Zr331 Zr 0.62420 0.58117 0.12436
 O332 O 0.64750 0.60176 0.14672
 Zr333 Zr 0.58194 0.62399 0.12384
 O334 O 0.60271 0.64656 0.14672
 Zr335 Zr 0.62459 0.62331 0.08146
 O336 O 0.64729 0.64656 0.10185
 O337 O 0.64849 0.64766 0.14771
 O338 O 0.60176 0.60105 0.10146
 C339 C 0.62429 0.67982 0.18061
 C340 C 0.68106 0.62305 0.18002
 C341 C 0.68069 0.68026 0.12324
 C342 C 0.62400 0.56782 0.07000
 C343 C 0.56933 0.56909 0.12330
 C344 C 0.56982 0.62351 0.06885
 H345 H 0.59313 0.59292 0.15820
 H346 H 0.59368 0.65793 0.09249
 H347 H 0.65888 0.65798 0.15801
 H348 H 0.65843 0.59187 0.09338
 H349 H 0.66318 0.55841 0.13624
 H350 H 0.69040 0.58436 0.11992
 H351 H 0.55869 0.66312 0.11214
 H352 H 0.58551 0.68834 0.13586
 H353 H 0.61963 0.54139 0.14926
 H354 H 0.63022 0.60040 0.20811
 H355 H 0.61451 0.66266 0.05800
 H356 H 0.63567 0.68827 0.08466
 H357 H 0.58512 0.63634 0.18749
 H358 H 0.55855 0.61320 0.16313
 H359 H 0.68850 0.63665 0.08448
 H360 H 0.66331 0.61086 0.05790
 O361 O 0.37488 0.84258 0.68818
 O362 O 0.40189 0.87416 0.69450
 O363 O 0.31197 0.87702 0.65851
 O364 O 0.30287 0.90038 0.62682
 O365 O 0.34133 0.81287 0.62446
 O366 O 0.37479 0.80584 0.59834
 O367 O 0.37566 0.93913 0.59244
 O368 O 0.34775 0.94521 0.62297
 O369 O 0.43737 0.90893 0.62385
 O370 O 0.44525 0.87473 0.65084
 O371 O 0.40775 0.87671 0.56218
 O372 O 0.37355 0.85022 0.55423
 O373 O 0.37554 0.91004 0.56317
 O374 O 0.34721 0.87511 0.55572
 O375 O 0.43701 0.87633 0.59110
 O376 O 0.44397 0.84818 0.62606
 O377 O 0.40843 0.93822 0.62343
 O378 O 0.37675 0.94222 0.65526
 O379 O 0.37537 0.81343 0.65891
 O380 O 0.40190 0.80639 0.62472
 O381 O 0.31220 0.84200 0.62460
 O382 O 0.30679 0.87655 0.59648
 O383 O 0.34105 0.87611 0.68769
 O384 O 0.37485 0.90527 0.69210
 Zr385 Zr 0.37390 0.87507 0.66836
 O386 O 0.39677 0.89729 0.64751
 Zr387 Zr 0.33138 0.87491 0.62579
 O388 O 0.35218 0.89783 0.60359
 Zr389 Zr 0.37392 0.83245 0.62582
 O390 O 0.39630 0.85316 0.60295
 Zr391 Zr 0.37563 0.91899 0.62466
 O392 O 0.35243 0.89843 0.64718
 Zr393 Zr 0.41792 0.87620 0.62406
 O394 O 0.39724 0.85366 0.64707
 Zr395 Zr 0.37516 0.87673 0.58184
 O396 O 0.35253 0.85354 0.60238
 O397 O 0.35145 0.85253 0.64825
 O398 O 0.39803 0.89907 0.60171
 C399 C 0.37570 0.82044 0.68111
 C400 C 0.31895 0.87719 0.68068
 C401 C 0.31921 0.81986 0.62391
 C402 C 0.37568 0.93219 0.57026
 C403 C 0.43050 0.93110 0.62347
 C404 C 0.42991 0.87656 0.56901
 H405 H 0.40679 0.90734 0.65841
 H406 H 0.40612 0.84217 0.59281
 H407 H 0.34109 0.84223 0.65860
 H408 H 0.34133 0.90817 0.59384
 H409 H 0.33666 0.94176 0.63662
 H410 H 0.30942 0.91574 0.62045
 H411 H 0.44118 0.83706 0.61231
 H412 H 0.41443 0.81188 0.63627
 H413 H 0.38021 0.95884 0.64948
 H414 H 0.36990 0.89991 0.70852
 H415 H 0.38526 0.83735 0.55839
 H416 H 0.36419 0.81180 0.58519
 H417 H 0.41491 0.86388 0.68776
 H418 H 0.44137 0.88700 0.66329
 H419 H 0.31127 0.86341 0.58515
 H420 H 0.33633 0.88906 0.55844
 O421 O 0.87498 0.34210 0.68818
 O422 O 0.90183 0.37369 0.69472
 O423 O 0.81222 0.37642 0.65799
 O424 O 0.80324 0.39957 0.62614
 O425 O 0.84195 0.31221 0.62432
 O426 O 0.87560 0.30524 0.59839
 O427 O 0.87619 0.43849 0.59246
 O428 O 0.84812 0.44457 0.62280
 O429 O 0.93779 0.40847 0.62422
 O430 O 0.94552 0.37431 0.65140
 O431 O 0.90865 0.37616 0.56246
 O432 O 0.87467 0.34961 0.55422
 O433 O 0.87636 0.40938 0.56320
 O434 O 0.84816 0.37434 0.55558
 O435 O 0.93772 0.37584 0.59158
 O436 O 0.94452 0.34776 0.62661
 O437 O 0.90879 0.43770 0.62357
 O438 O 0.87691 0.44164 0.65526
 O439 O 0.87576 0.31291 0.65896
 O440 O 0.90249 0.30584 0.62498
 O441 O 0.81276 0.34127 0.62420
 O442 O 0.80752 0.37580 0.59592
 O443 O 0.84107 0.37556 0.68739
 O444 O 0.87480 0.40477 0.69206
 Zr445 Zr 0.87407 0.37454 0.66834
 O446 O 0.89706 0.39678 0.64767
 Zr447 Zr 0.83186 0.37423 0.62544
 O448 O 0.85278 0.39718 0.60342
 Zr449 Zr 0.87448 0.33186 0.62585
 O450 O 0.89699 0.35260 0.60314
 Zr451 Zr 0.87603 0.41840 0.62466
 O452 O 0.85268 0.39782 0.64699
 Zr453 Zr 0.91841 0.37570 0.62439
 O454 O 0.89760 0.35314 0.64725
 Zr455 Zr 0.87594 0.37609 0.58187
 O456 O 0.85321 0.35286 0.60223
 O457 O 0.85181 0.35193 0.64809
 O458 O 0.89862 0.39850 0.60189
 C459 C 0.87593 0.31996 0.68114
 C460 C 0.81904 0.37663 0.68020
 C461 C 0.81982 0.31915 0.62361
 C462 C 0.87638 0.43153 0.57030
 C463 C 0.93088 0.43063 0.62373
 C464 C 0.93075 0.37605 0.56945
 H465 H 0.90699 0.40686 0.65863
 H466 H 0.90691 0.34161 0.59309
 H467 H 0.84140 0.34163 0.65838
 H468 H 0.84197 0.40749 0.59359
 H469 H 0.83694 0.44110 0.63637
 H470 H 0.80986 0.41501 0.62004
 H471 H 0.94181 0.33659 0.61288
 H472 H 0.91496 0.31138 0.63657
 H473 H 0.88041 0.45826 0.64949
 H474 H 0.86971 0.39943 0.70844
 H475 H 0.88626 0.33669 0.55856
 H476 H 0.86502 0.31112 0.58519
 H477 H 0.91497 0.36352 0.68805
 H478 H 0.94160 0.38667 0.66374
 H479 H 0.81203 0.36256 0.58471
 H480 H 0.83728 0.38832 0.55815
 O481 O 0.81197 0.87467 0.15758
 O482 O 0.80554 0.90150 0.12588
 O483 O 0.84204 0.81169 0.12337
 O484 O 0.87384 0.80255 0.10023
 O485 O 0.87567 0.84154 0.18753
 O486 O 0.90161 0.87514 0.19442
 O487 O 0.90771 0.87537 0.06107
 O488 O 0.87737 0.84728 0.05511
 O489 O 0.87600 0.93715 0.09095
 O490 O 0.84893 0.94510 0.12511
 O491 O 0.93767 0.90793 0.12332
 O492 O 0.94582 0.87397 0.14998
 O493 O 0.93690 0.87554 0.09017
 O494 O 0.94439 0.84734 0.12534
 O495 O 0.90863 0.93710 0.12354
 O496 O 0.87366 0.94407 0.15169
 O497 O 0.87664 0.90803 0.06180
 O498 O 0.84499 0.87620 0.05793
 O499 O 0.84113 0.87547 0.18678
 O500 O 0.87515 0.90219 0.19370
 O501 O 0.87575 0.81224 0.15853
 O502 O 0.90402 0.80679 0.12404
 O503 O 0.81273 0.84065 0.12415
 O504 O 0.80817 0.87436 0.09486
 Zr505 Zr 0.83183 0.87362 0.12510
 O506 O 0.85255 0.89649 0.10277
 Zr507 Zr 0.87458 0.83126 0.12551
 O508 O 0.89667 0.85205 0.10249
 Zr509 Zr 0.87422 0.87405 0.16778
 O510 O 0.89699 0.89643 0.14696
 Zr511 Zr 0.87552 0.87531 0.08119
 O512 O 0.85313 0.85210 0.10186
 Zr513 Zr 0.87583 0.91786 0.12379
 O514 O 0.85292 0.89718 0.14642
 Zr515 Zr 0.91821 0.87524 0.12350
 O516 O 0.89779 0.85264 0.14682
 O517 O 0.85199 0.85136 0.14777
 O518 O 0.89828 0.89793 0.10103
 C519 C 0.81898 0.87566 0.17974
 C520 C 0.81987 0.81857 0.12313
 C521 C 0.87632 0.81938 0.18064
 C522 C 0.92986 0.87554 0.06800
 C523 C 0.87648 0.93015 0.06881
 C524 C 0.93073 0.93008 0.12334
 H525 H 0.84164 0.90643 0.09267
 H526 H 0.90704 0.90636 0.15791
 H527 H 0.84167 0.84099 0.15811
 H528 H 0.90647 0.84117 0.09220
 H529 H 0.86379 0.83615 0.05862
 H530 H 0.88005 0.80908 0.08479
 H531 H 0.88739 0.94138 0.16283
 H532 H 0.86354 0.91464 0.18815
 H533 H 0.85079 0.87960 0.04128
 H534 H 0.79180 0.86933 0.10021
 H535 H 0.94148 0.88560 0.16288
 H536 H 0.91480 0.86454 0.18853
 H537 H 0.81220 0.91464 0.13607
 H538 H 0.83655 0.94111 0.11283
 H539 H 0.91522 0.81135 0.13725
 H540 H 0.94185 0.83645 0.11135
 O541 O 0.37482 0.34183 0.18824
 O542 O 0.40173 0.37349 0.19460
 O543 O 0.31212 0.37605 0.15782
 O544 O 0.30310 0.39895 0.12583
 O545 O 0.34196 0.31166 0.12444
 O546 O 0.37565 0.30462 0.09859
 O547 O 0.37602 0.43790 0.09204
 O548 O 0.34789 0.44402 0.12235
 O549 O 0.43764 0.40808 0.12407
 O550 O 0.44537 0.37404 0.15139
 O551 O 0.40865 0.37550 0.06238
 O552 O 0.37475 0.34886 0.05418
 O553 O 0.37626 0.40866 0.06290
 O554 O 0.34813 0.37349 0.05545
 O555 O 0.43766 0.37534 0.09156
 O556 O 0.44448 0.34741 0.12667
 O557 O 0.40859 0.43726 0.12321
 O558 O 0.37667 0.44131 0.15483
 O559 O 0.37569 0.31253 0.15913
 O560 O 0.40254 0.30541 0.12520
 O561 O 0.31272 0.34068 0.12422
 O562 O 0.30746 0.37504 0.09574
 O563 O 0.34095 0.37534 0.18726
 O564 O 0.37464 0.40452 0.19186
 Zr565 Zr 0.37395 0.37421 0.16824
 O566 O 0.39690 0.39643 0.14749
 Zr567 Zr 0.33178 0.37367 0.12530
 O568 O 0.35267 0.39657 0.10317
 Zr569 Zr 0.37446 0.33137 0.12593
 O570 O 0.39695 0.35206 0.10315
 Zr571 Zr 0.37586 0.41792 0.12434
 O572 O 0.35256 0.39738 0.14675
 Zr573 Zr 0.41831 0.37528 0.12434
 O574 O 0.39753 0.35277 0.14727
 Zr575 Zr 0.37590 0.37544 0.08175
 O576 O 0.35320 0.35224 0.10219
 O577 O 0.35174 0.35150 0.14806
 O578 O 0.39852 0.39796 0.10169
 C579 C 0.37579 0.31966 0.18130
 C580 C 0.31892 0.37639 0.18004
 C581 C 0.31982 0.31857 0.12372
 C582 C 0.37623 0.43085 0.06989
 C583 C 0.43069 0.43022 0.12346
 C584 C 0.43074 0.37547 0.06942
 H585 H 0.40679 0.40657 0.15841
 H586 H 0.40690 0.34106 0.09316
 H587 H 0.34132 0.34124 0.15840
 H588 H 0.34185 0.40681 0.09329
 H589 H 0.33671 0.44057 0.13593
 H590 H 0.30969 0.41438 0.11966
 H591 H 0.44178 0.33616 0.11300
 H592 H 0.41495 0.31100 0.13683
 H593 H 0.38014 0.45791 0.14899
 H594 H 0.36959 0.39922 0.20827
 H595 H 0.38631 0.33595 0.05863
 H596 H 0.36510 0.31046 0.08534
 H597 H 0.41483 0.36320 0.18803
 H598 H 0.44140 0.38644 0.16368
 H599 H 0.31202 0.36175 0.08460
 H600 H 0.33723 0.38746 0.05793
 O601 O 0.37496 0.65830 0.81190
 O602 O 0.40192 0.62669 0.80544
 O603 O 0.31215 0.62391 0.84187
 O604 O 0.30309 0.60065 0.87362
 O605 O 0.34164 0.68806 0.87575
 O606 O 0.37520 0.69500 0.90176
 O607 O 0.37596 0.56168 0.90754
 O608 O 0.34798 0.55568 0.87711
 O609 O 0.43763 0.59178 0.87593
 O610 O 0.44539 0.62602 0.84885
 O611 O 0.40822 0.62400 0.93770
 O612 O 0.37418 0.65051 0.94590
 O613 O 0.37597 0.59075 0.93685
 O614 O 0.34767 0.62579 0.94440
 O615 O 0.43739 0.62435 0.90865
 O616 O 0.44429 0.65250 0.87371
 O617 O 0.40866 0.56255 0.87647
 O618 O 0.37688 0.55865 0.84472
 O619 O 0.37558 0.68744 0.84117
 O620 O 0.40222 0.69441 0.87525
 O621 O 0.31249 0.65898 0.87574
 O622 O 0.30719 0.62441 0.90393
 O623 O 0.34111 0.62481 0.81254
 O624 O 0.37487 0.59562 0.80793
 Zr625 Zr 0.37402 0.62581 0.83171
 O626 O 0.39696 0.60351 0.85242
 Zr627 Zr 0.33165 0.62603 0.87448
 O628 O 0.35252 0.60304 0.89655
 Zr629 Zr 0.37422 0.66841 0.87426
 O630 O 0.39666 0.64762 0.89701
 Zr631 Zr 0.37587 0.58184 0.87535
 O632 O 0.35260 0.60247 0.85298
 Zr633 Zr 0.41820 0.62456 0.87578
 O634 O 0.39745 0.64716 0.85290
 Zr635 Zr 0.37557 0.62408 0.91820
 O636 O 0.35290 0.64735 0.89780
 O637 O 0.35166 0.64837 0.85193
 O638 O 0.39836 0.60171 0.89821
 C639 C 0.37583 0.68044 0.81897
 C640 C 0.31904 0.62374 0.81967
 C641 C 0.31951 0.68110 0.87638
 C642 C 0.37606 0.56860 0.92973
 C643 C 0.43075 0.56962 0.87637
 C644 C 0.43035 0.62410 0.93077
 H645 H 0.40693 0.59346 0.84147
 H646 H 0.40653 0.65859 0.90711
 H647 H 0.34127 0.65869 0.84163
 H648 H 0.34168 0.59271 0.90633
 H649 H 0.33685 0.55917 0.86352
 H650 H 0.30968 0.58523 0.87981
 H651 H 0.44151 0.66365 0.88744
 H652 H 0.41471 0.68890 0.86365
 H653 H 0.38037 0.54201 0.85048
 H654 H 0.36988 0.60100 0.79154
 H655 H 0.38573 0.66346 0.94158
 H656 H 0.36460 0.68907 0.91493
 H657 H 0.41499 0.63692 0.81214
 H658 H 0.44154 0.61367 0.83648
 H659 H 0.31167 0.63760 0.91519
 H660 H 0.33683 0.61180 0.94179
 O661 O 0.12483 0.65849 0.68820
 O662 O 0.09795 0.62685 0.69463
 O663 O 0.18771 0.62423 0.65816
 O664 O 0.19683 0.60104 0.62635
 O665 O 0.15799 0.68836 0.62439
 O666 O 0.12441 0.69526 0.59840
 O667 O 0.12405 0.56199 0.59241
 O668 O 0.15206 0.55599 0.62281
 O669 O 0.06231 0.59193 0.62411
 O670 O 0.05443 0.62611 0.65122
 O671 O 0.09160 0.62422 0.56236
 O672 O 0.12557 0.65086 0.55422
 O673 O 0.12395 0.59108 0.56316
 O674 O 0.15212 0.62618 0.55563
 O675 O 0.06243 0.62450 0.59142
 O676 O 0.05548 0.65264 0.62642
 O677 O 0.09137 0.56276 0.62350
 O678 O 0.12316 0.55888 0.65522
 O679 O 0.12410 0.68766 0.65897
 O680 O 0.09742 0.69462 0.62493
 O681 O 0.18724 0.65934 0.62436
 O682 O 0.19264 0.62482 0.59610
 O683 O 0.15876 0.62505 0.68749
 O684 O 0.12505 0.59582 0.69207
 Zr685 Zr 0.12583 0.62602 0.66834
 O686 O 0.10295 0.60371 0.64760
 Zr687 Zr 0.16818 0.62636 0.62556
 O688 O 0.14738 0.60336 0.60345
 Zr689 Zr 0.12549 0.66865 0.62586
 O690 O 0.10309 0.64786 0.60308
 Zr691 Zr 0.12409 0.58211 0.62463
 O692 O 0.14731 0.60275 0.64703
 Zr693 Zr 0.08164 0.62474 0.62428
 O694 O 0.10233 0.64735 0.64720
 Zr695 Zr 0.12425 0.62438 0.58186
 O696 O 0.14687 0.64767 0.60229
 O697 O 0.14811 0.64864 0.64815
 O698 O 0.10154 0.60196 0.60181
 C699 C 0.12390 0.68063 0.68116
 C700 C 0.18082 0.62401 0.68035
 C701 C 0.18014 0.68145 0.62375
 C702 C 0.12393 0.56894 0.57024
 C703 C 0.06927 0.56978 0.62364
 C704 C 0.06947 0.62427 0.56930
 H705 H 0.09301 0.59363 0.65854
 H706 H 0.09319 0.65881 0.59301
 H707 H 0.15848 0.65897 0.65847
 H708 H 0.15824 0.59306 0.59365
 H709 H 0.16319 0.55949 0.63640
 H710 H 0.19028 0.58561 0.62013
 H711 H 0.05819 0.66378 0.61268
 H712 H 0.08494 0.68907 0.63652
 H713 H 0.11973 0.54224 0.64943
 H714 H 0.13005 0.60119 0.70846
 H715 H 0.11389 0.66373 0.55850
 H716 H 0.13499 0.68935 0.58520
 H717 H 0.08485 0.63707 0.68796
 H718 H 0.05838 0.61382 0.66361
 H719 H 0.18813 0.63802 0.58487
 H720 H 0.16303 0.61223 0.55823
 O721 O 0.12480 0.15778 0.18807
 O722 O 0.09772 0.12629 0.19443
 O723 O 0.18772 0.12310 0.15858
 O724 O 0.19690 0.09970 0.12694
 O725 O 0.15857 0.18724 0.12438
 O726 O 0.12520 0.19424 0.09814
 O727 O 0.12409 0.06097 0.09256
 O728 O 0.15192 0.05492 0.12314
 O729 O 0.06237 0.09134 0.12378
 O730 O 0.05448 0.12565 0.15070
 O731 O 0.09224 0.12334 0.06211
 O732 O 0.12649 0.14974 0.05416
 O733 O 0.12434 0.08997 0.06324
 O734 O 0.15279 0.12480 0.05576
 O735 O 0.06289 0.12383 0.09097
 O736 O 0.05585 0.15211 0.12585
 O737 O 0.09127 0.06201 0.12349
 O738 O 0.12286 0.05806 0.15538
 O739 O 0.12443 0.18684 0.15874
 O740 O 0.09804 0.19385 0.12450
 O741 O 0.18766 0.15807 0.12463
 O742 O 0.19307 0.12342 0.09656
 O743 O 0.15856 0.12416 0.18771
 O744 O 0.12467 0.09511 0.19214
 Zr745 Zr 0.12577 0.12524 0.16833
 O746 O 0.10291 0.10299 0.14750
 Zr747 Zr 0.16842 0.12519 0.12583
 O748 O 0.14763 0.10224 0.10365
 Zr749 Zr 0.12595 0.16772 0.12570
 O750 O 0.10359 0.14698 0.10284
 Zr751 Zr 0.12409 0.08119 0.12473
 O752 O 0.14727 0.10177 0.14724
 Zr753 Zr 0.08187 0.12405 0.12397
 O754 O 0.10253 0.14662 0.14695
 Zr755 Zr 0.12476 0.12332 0.08184
 O756 O 0.14738 0.14654 0.10235
 O757 O 0.14831 0.14767 0.14821
 O758 O 0.10179 0.10109 0.10170
 C759 C 0.12403 0.17990 0.18095
 C760 C 0.18067 0.12300 0.18074
 C761 C 0.18068 0.18021 0.12389
 C762 C 0.12412 0.06783 0.07036
 C763 C 0.06920 0.06915 0.12345
 C764 C 0.07007 0.12353 0.06890
 H765 H 0.09284 0.09299 0.15840
 H766 H 0.09382 0.15797 0.09267
 H767 H 0.15867 0.15797 0.15856
 H768 H 0.15850 0.09185 0.09395
 H769 H 0.16299 0.05839 0.13679
 H770 H 0.19033 0.08431 0.12064
 H771 H 0.05872 0.16319 0.11209
 H772 H 0.08545 0.18840 0.13601
 H773 H 0.11938 0.04142 0.14963
 H774 H 0.12960 0.10050 0.20855
 H775 H 0.11481 0.16266 0.05828
 H776 H 0.13587 0.18825 0.08505
 H777 H 0.08472 0.13655 0.18763
 H778 H 0.05828 0.11339 0.16317
 H779 H 0.18867 0.13656 0.08521
 H780 H 0.16361 0.11082 0.05850
 O781 O 0.68833 0.37553 0.84201
 O782 O 0.69485 0.40229 0.87372
 O783 O 0.65867 0.31240 0.87623
 O784 O 0.62699 0.30318 0.89950
 O785 O 0.62465 0.34222 0.81227
 O786 O 0.59850 0.37578 0.80559
 O787 O 0.59306 0.37586 0.93890
 O788 O 0.62351 0.34787 0.94470
 O789 O 0.62440 0.43778 0.90905
 O790 O 0.65130 0.44582 0.87478
 O791 O 0.56269 0.40843 0.87683
 O792 O 0.55461 0.37443 0.85010
 O793 O 0.56375 0.37598 0.90990
 O794 O 0.55613 0.34787 0.87478
 O795 O 0.59162 0.43768 0.87656
 O796 O 0.62648 0.44476 0.84831
 O797 O 0.62402 0.40862 0.93815
 O798 O 0.65579 0.37686 0.94179
 O799 O 0.65902 0.37629 0.81296
 O800 O 0.62492 0.40284 0.80617
 O801 O 0.62482 0.31290 0.84121
 O802 O 0.59671 0.30736 0.87581
 O803 O 0.68788 0.34143 0.87537
 O804 O 0.69243 0.37514 0.90472
 Zr805 Zr 0.66865 0.37437 0.87457
 O806 O 0.64795 0.39719 0.89702
 Zr807 Zr 0.62605 0.33189 0.87426
 O808 O 0.60400 0.35263 0.89740
 Zr809 Zr 0.62604 0.37472 0.83208
 O810 O 0.60332 0.39707 0.85303
 Zr811 Zr 0.62516 0.37592 0.91866
 O812 O 0.64752 0.35277 0.89786
 Zr813 Zr 0.62450 0.41852 0.87616
 O814 O 0.64737 0.39789 0.85339
 Zr815 Zr 0.58228 0.37579 0.87652
 O816 O 0.60266 0.35323 0.85310
 O817 O 0.64846 0.35208 0.85194
 O818 O 0.60222 0.39850 0.89897
 C819 C 0.68120 0.37654 0.81990
 C820 C 0.68083 0.31933 0.87639
 C821 C 0.62412 0.32004 0.81912
 C822 C 0.57090 0.37596 0.93203
 C823 C 0.62406 0.43076 0.93119
 C824 C 0.56954 0.43060 0.87682
 H825 H 0.65888 0.40714 0.90710
 H826 H 0.59319 0.40698 0.84213
 H827 H 0.65878 0.34175 0.84154
 H828 H 0.59428 0.34172 0.90771
 H829 H 0.63711 0.33677 0.94112
 H830 H 0.62081 0.30968 0.91498
 H831 H 0.61270 0.44207 0.83723
 H832 H 0.63641 0.41539 0.81174
 H833 H 0.65006 0.38022 0.95847
 H834 H 0.70879 0.37013 0.89930
 H835 H 0.55879 0.38618 0.83727
 H836 H 0.58541 0.36508 0.81150
 H837 H 0.68807 0.41546 0.86367
 H838 H 0.66373 0.44188 0.88702
 H839 H 0.58543 0.31190 0.86267
 H840 H 0.55887 0.33689 0.88865
 O841 O 0.12488 0.84261 0.81227
 O842 O 0.09804 0.87430 0.80587
 O843 O 0.18763 0.87671 0.84267
 O844 O 0.19651 0.89984 0.87461
 O845 O 0.15785 0.81245 0.87603
 O846 O 0.12416 0.80544 0.90191
 O847 O 0.12357 0.93867 0.90852
 O848 O 0.15169 0.94482 0.87825
 O849 O 0.06199 0.90887 0.87640
 O850 O 0.05431 0.87478 0.84912
 O851 O 0.09101 0.87625 0.93815
 O852 O 0.12502 0.84958 0.94625
 O853 O 0.12338 0.90943 0.93763
 O854 O 0.15148 0.87434 0.94513
 O855 O 0.06199 0.87610 0.90897
 O856 O 0.05525 0.84817 0.87381
 O857 O 0.09100 0.93805 0.87726
 O858 O 0.12296 0.94208 0.84572
 O859 O 0.12406 0.81331 0.84136
 O860 O 0.09729 0.80616 0.87528
 O861 O 0.18705 0.84149 0.87631
 O862 O 0.19227 0.87587 0.90474
 O863 O 0.15881 0.87602 0.81323
 O864 O 0.12511 0.90532 0.80870
 Zr865 Zr 0.12579 0.87499 0.83227
 O866 O 0.10277 0.89719 0.85304
 Zr867 Zr 0.16794 0.87447 0.87520
 O868 O 0.14698 0.89734 0.89734
 Zr869 Zr 0.12531 0.83216 0.87457
 O870 O 0.10276 0.85284 0.89734
 Zr871 Zr 0.12377 0.91870 0.87620
 O872 O 0.14713 0.89818 0.85377
 Zr873 Zr 0.08137 0.87606 0.87618
 O874 O 0.10222 0.85356 0.85324
 Zr875 Zr 0.12377 0.87622 0.91877
 O876 O 0.14654 0.85306 0.89831
 O877 O 0.14801 0.85228 0.85244
 O878 O 0.10112 0.89875 0.89884
 C879 C 0.12392 0.82044 0.81920
 C880 C 0.18085 0.87701 0.82044
 C881 C 0.17999 0.81937 0.87678
 C882 C 0.12339 0.93161 0.93066
 C883 C 0.06891 0.93102 0.87697
 C884 C 0.06890 0.87620 0.93113
 H885 H 0.09287 0.90732 0.84211
 H886 H 0.09282 0.84183 0.90732
 H887 H 0.15843 0.84200 0.84211
 H888 H 0.15778 0.90760 0.90724
 H889 H 0.16289 0.94138 0.86469
 H890 H 0.18993 0.91520 0.88098
 H891 H 0.05794 0.83694 0.88749
 H892 H 0.08483 0.81178 0.86371
 H893 H 0.11949 0.95869 0.85157
 H894 H 0.13020 0.90003 0.79229
 H895 H 0.11336 0.83675 0.94188
 H896 H 0.13472 0.81128 0.91515
 H897 H 0.08492 0.86406 0.81244
 H898 H 0.05829 0.88715 0.83682
 H899 H 0.18769 0.86264 0.91592
 H900 H 0.16246 0.88822 0.94255
 O901 O 0.68820 0.12478 0.65812
 O902 O 0.69464 0.09789 0.62647
 O903 O 0.65849 0.18782 0.62375
 O904 O 0.62679 0.19703 0.60054
 O905 O 0.62456 0.15826 0.68789
 O906 O 0.59842 0.12476 0.69475
 O907 O 0.59278 0.12424 0.56142
 O908 O 0.62323 0.15220 0.55547
 O909 O 0.62418 0.06241 0.59141
 O910 O 0.65111 0.05445 0.62567
 O911 O 0.56250 0.09195 0.62364
 O912 O 0.55443 0.12599 0.65027
 O913 O 0.56351 0.12427 0.59048
 O914 O 0.55600 0.15255 0.62557
 O915 O 0.59143 0.06266 0.62393
 O916 O 0.62627 0.05560 0.65215
 O917 O 0.62375 0.09147 0.56222
 O918 O 0.65552 0.12319 0.55840
 O919 O 0.65893 0.12416 0.68724
 O920 O 0.62481 0.09764 0.69417
 O921 O 0.62469 0.18749 0.65885
 O922 O 0.59653 0.19295 0.62429
 O923 O 0.68769 0.15875 0.62465
 O924 O 0.69222 0.12496 0.59541
 Zr925 Zr 0.66846 0.12586 0.62560
 O926 O 0.64773 0.10301 0.60325
 Zr927 Zr 0.62587 0.16838 0.62586
 O928 O 0.60379 0.14762 0.60282
 Zr929 Zr 0.62592 0.12569 0.66818
 O930 O 0.60316 0.10333 0.64735
 Zr931 Zr 0.62491 0.12423 0.58159
 O932 O 0.64731 0.14741 0.60228
 Zr933 Zr 0.62431 0.08177 0.62424
 O934 O 0.64721 0.10243 0.64690
 Zr935 Zr 0.58209 0.12456 0.62383
 O936 O 0.60251 0.14715 0.64715
 O937 O 0.64831 0.14825 0.64820
 O938 O 0.60200 0.10175 0.60141
 C939 C 0.68111 0.12386 0.68025
 C940 C 0.68064 0.18086 0.62357
 C941 C 0.62402 0.18042 0.68097
 C942 C 0.57063 0.12419 0.56834
 C943 C 0.62381 0.06936 0.56925
 C944 C 0.56936 0.06978 0.62368
 H945 H 0.65864 0.09301 0.59318
 H946 H 0.59304 0.09346 0.65829
 H947 H 0.65864 0.15859 0.65854
 H948 H 0.59406 0.15851 0.59250
 H949 H 0.63684 0.16330 0.55899
 H950 H 0.62062 0.19048 0.58509
 H951 H 0.61251 0.05836 0.66326
 H952 H 0.63631 0.08508 0.68862
 H953 H 0.64977 0.11978 0.54175
 H954 H 0.70859 0.12995 0.60079
 H955 H 0.55866 0.11434 0.66318
 H956 H 0.58532 0.13544 0.68884
 H957 H 0.68789 0.08478 0.63662
 H958 H 0.66352 0.05833 0.61338
 H959 H 0.58528 0.18849 0.63750
 H960 H 0.55866 0.16343 0.61162
 C961 C 0.37682 0.76795 0.73292
 N962 N 0.35573 0.75807 0.74062
 N963 N 0.35575 0.74081 0.75746
 C964 C 0.37685 0.73289 0.76712
 N965 N 0.39795 0.74277 0.75943
 N966 N 0.39793 0.76003 0.74258
 C967 C 0.37673 0.78651 0.71474
 C968 C 0.37640 0.80204 0.69942
 C969 C 0.37679 0.71436 0.78532
 C970 C 0.37649 0.69883 0.80066
 C971 C 0.37653 0.23226 0.26745
 N972 N 0.39728 0.23815 0.25577
 N973 N 0.39735 0.25544 0.23894
 C974 C 0.37667 0.26737 0.23331
 N975 N 0.35592 0.26148 0.24500
 N976 N 0.35586 0.24420 0.26182
 C977 C 0.37639 0.21368 0.28560
 C978 C 0.37606 0.19815 0.30092
 C979 C 0.37665 0.28587 0.21508
 C980 C 0.37639 0.30135 0.19970
 C981 C 0.62280 0.76733 0.26660
 N982 N 0.60337 0.75264 0.26377
 N983 N 0.60346 0.73541 0.24687
 C984 C 0.62298 0.73236 0.23232
 N985 N 0.64240 0.74705 0.23515
 N986 N 0.64232 0.76428 0.25204
 C987 C 0.62284 0.78577 0.28488
 C988 C 0.62313 0.80124 0.30026
 C989 C 0.62317 0.71378 0.21417
 C990 C 0.62356 0.69823 0.19888
 C991 C 0.12273 0.26778 0.26661
 N992 N 0.10367 0.25250 0.26451
 N993 N 0.10370 0.23519 0.24769
 C994 C 0.12280 0.23264 0.23249
 N995 N 0.14185 0.24793 0.23460
 N996 N 0.14182 0.26524 0.25141
 C997 C 0.12285 0.28628 0.28486
 C998 C 0.12320 0.30176 0.30023
 C999 C 0.12294 0.21397 0.21444
 C1000 C 0.12330 0.19835 0.19919
 C1001 C 0.12287 0.73309 0.73300
 N1002 N 0.14402 0.74215 0.74147
 N1003 N 0.14403 0.75941 0.75832
 C1004 C 0.12290 0.76815 0.76720
 N1005 N 0.10174 0.75909 0.75873
 N1006 N 0.10173 0.74182 0.74187
 C1007 C 0.12293 0.71454 0.71481
 C1008 C 0.12322 0.69901 0.69948
 C1009 C 0.12298 0.78666 0.78542
 C1010 C 0.12328 0.80214 0.80080
 C1011 C 0.87712 0.23260 0.76714
 N1012 N 0.89749 0.23752 0.75437
 N1013 N 0.89746 0.25480 0.73754
 C1014 C 0.87707 0.26766 0.73300
 N1015 N 0.85672 0.26273 0.74577
 N1016 N 0.85675 0.24547 0.76259
 C1017 C 0.87708 0.21402 0.78524
 C1018 C 0.87681 0.19847 0.80051
 C1019 C 0.87694 0.28614 0.71479
 C1020 C 0.87660 0.30162 0.69945
 C1021 C 0.76683 0.37824 0.73216
 N1022 N 0.74862 0.36183 0.73163
 N1023 N 0.73177 0.36178 0.74888
 C1024 C 0.73263 0.37813 0.76717
 N1025 N 0.75084 0.39455 0.76770
 N1026 N 0.76769 0.39460 0.75045
 C1027 C 0.78516 0.37800 0.71379
 C1028 C 0.80060 0.37753 0.69841
 C1029 C 0.71461 0.37787 0.78583
 C1030 C 0.69940 0.37740 0.80145
 C1031 C 0.26699 0.62250 0.76755
 N1032 N 0.26243 0.60217 0.75456
 N1033 N 0.24554 0.60222 0.73736
 C1034 C 0.23272 0.62261 0.73263
 N1035 N 0.23728 0.64292 0.74562
 N1036 N 0.25417 0.64287 0.76281
 C1037 C 0.28527 0.62257 0.78596
 C1038 C 0.30067 0.62293 0.80139
 C1039 C 0.21454 0.62275 0.71411
 C1040 C 0.19919 0.62317 0.69864
 C1041 C 0.26629 0.12141 0.26850
 N1042 N 0.26763 0.10552 0.24982
 N1043 N 0.25080 0.10553 0.23256
 C1044 C 0.23213 0.12143 0.23346
 N1045 N 0.23079 0.13730 0.25214
 N1046 N 0.24762 0.13730 0.26940
 C1047 C 0.28460 0.12170 0.28689
 C1048 C 0.30003 0.12222 0.30229
 C1049 C 0.21412 0.12166 0.21478
 C1050 C 0.19890 0.12212 0.19917
 C1051 C 0.76702 0.12210 0.76772
 N1052 N 0.76735 0.10523 0.74987
 N1053 N 0.75044 0.10532 0.73269
 C1054 C 0.73271 0.12229 0.73283
 N1055 N 0.73239 0.13914 0.75068
 N1056 N 0.74929 0.13905 0.76786
 C1057 C 0.78539 0.12225 0.78605
 C1058 C 0.80086 0.12264 0.80141
 C1059 C 0.71461 0.12257 0.71423
 C1060 C 0.69935 0.12303 0.69867
 C1061 C 0.73270 0.87710 0.26702
 N1062 N 0.74441 0.89782 0.26104
 N1063 N 0.76131 0.89775 0.24383
 C1064 C 0.76701 0.87696 0.23207
 N1065 N 0.75530 0.85625 0.23805
 N1066 N 0.73840 0.85632 0.25525
 C1067 C 0.71447 0.87711 0.28553
 C1068 C 0.69909 0.87682 0.30100
 C1069 C 0.78528 0.87679 0.21360
 C1070 C 0.80064 0.87641 0.19811
 C1071 C 0.76705 0.73259 0.37781
 N1072 N 0.74350 0.72632 0.37516
 N1073 N 0.72631 0.74322 0.37518
 C1074 C 0.73217 0.76690 0.37785
 N1075 N 0.75572 0.77317 0.38052
 N1076 N 0.77291 0.75626 0.38050
 C1077 C 0.78557 0.71443 0.37742
 C1078 C 0.80110 0.69914 0.37690
 C1079 C 0.71371 0.78512 0.37746
 C1080 C 0.69827 0.80049 0.37692
 C1081 C 0.76765 0.26718 0.62171
 N1082 N 0.77368 0.24339 0.62221
 N1083 N 0.75653 0.22646 0.62220
 C1084 C 0.73285 0.23279 0.62169
 N1085 N 0.72682 0.25658 0.62117
 N1086 N 0.74396 0.27351 0.62119
 C1087 C 0.78608 0.28542 0.62214
 C1088 C 0.80153 0.30080 0.62269
 C1089 C 0.71440 0.21456 0.62209
 C1090 C 0.69894 0.19920 0.62264
 C1091 C 0.73300 0.73209 0.12135
 N1092 N 0.72712 0.75572 0.11830
 N1093 N 0.74427 0.77266 0.11826
 C1094 C 0.76781 0.76647 0.12128
 N1095 N 0.77369 0.74284 0.12432
 N1096 N 0.75654 0.72591 0.12435
 C1097 C 0.71452 0.71389 0.12177
 C1098 C 0.69903 0.69856 0.12233
 C1099 C 0.78622 0.78475 0.12166
 C1100 C 0.80163 0.80016 0.12221
 C1101 C 0.26775 0.26648 0.12208
 N1102 N 0.27368 0.24283 0.12484
 N1103 N 0.25655 0.22588 0.12488
 C1104 C 0.23298 0.23206 0.12215
 N1105 N 0.22705 0.25572 0.11938
 N1106 N 0.24418 0.27267 0.11935
 C1107 C 0.28615 0.28477 0.12242
 C1108 C 0.30156 0.30017 0.12290
 C1109 C 0.21452 0.21384 0.12254
 C1110 C 0.19904 0.19850 0.12305
 C1111 C 0.26717 0.73303 0.87825
 N1112 N 0.24350 0.72667 0.87757
 N1113 N 0.22631 0.74358 0.87762
 C1114 C 0.23227 0.76737 0.87837
 N1115 N 0.25594 0.77373 0.87907
 N1116 N 0.27313 0.75682 0.87901
 C1117 C 0.28568 0.71481 0.87782
 C1118 C 0.30117 0.69946 0.87728
 C1119 C 0.21377 0.78561 0.87806
 C1120 C 0.19830 0.80098 0.87759
 C1121 C 0.26715 0.23277 0.37832
 N1122 N 0.24352 0.22648 0.37659
 N1123 N 0.22638 0.24343 0.37643
 C1124 C 0.23236 0.26717 0.37798
 N1125 N 0.25599 0.27346 0.37971
 N1126 N 0.27313 0.25651 0.37988
 C1127 C 0.28560 0.21454 0.37809
 C1128 C 0.30105 0.19917 0.37767
 C1129 C 0.21394 0.28543 0.37744
 C1130 C 0.19851 0.30081 0.37684
 C1131 C 0.51758 0.62354 1.01691
 N1132 N 0.50855 0.60241 1.00828
 N1133 N 0.49133 0.60250 0.99141
 C1134 C 0.48261 0.62371 0.98269
 N1135 N 0.49163 0.64483 0.99132
 N1136 N 0.50885 0.64475 1.00819
 C1137 C 0.53606 0.62346 1.03512
 C1138 C 0.55152 0.62346 1.05048
 C1139 C 0.46413 0.62382 0.96448
 C1140 C 0.44866 0.62394 0.94913
 C1141 C 0.48297 0.12387 0.48262
 N1142 N 0.49589 0.14424 0.48707
 N1143 N 0.51326 0.14426 0.50378
 C1144 C 0.51824 0.12389 0.51653
 N1145 N 0.50533 0.10352 0.51208
 N1146 N 0.48796 0.10350 0.49537
 C1147 C 0.46432 0.12386 0.46459
 C1148 C 0.44872 0.12389 0.44935
 C1149 C 0.53682 0.12396 0.53464
 C1150 C 0.55234 0.12405 0.54995
 C1151 C 0.51691 0.87635 0.48246
 N1152 N 0.50825 0.85523 0.49146
 N1153 N 0.49107 0.85532 0.50839
 C1154 C 0.48202 0.87652 0.51682
 N1155 N 0.49068 0.89764 0.50782
 N1156 N 0.50786 0.89756 0.49089
 C1157 C 0.53538 0.87624 0.46420
 C1158 C 0.55086 0.87612 0.44881
 C1159 C 0.46358 0.87659 0.53512
 C1160 C 0.44816 0.87660 0.55055
 C1161 C 1.01768 0.37627 0.48296
 N1162 N 1.00876 0.35509 0.49157
 N1163 N 0.99165 0.35508 0.50856
 C1164 C 0.98294 0.37624 0.51744
 N1165 N 0.99185 0.39742 0.50883
 N1166 N 1.00896 0.39743 0.49184
 C1167 C 1.03604 0.37627 0.46463
 C1168 C 1.05143 0.37622 0.44919
 C1169 C 0.96454 0.37621 0.53573
 C1170 C 0.94909 0.37615 0.55111
 C1171 C -0.01876 0.87595 1.01704
 N1172 N -0.00971 0.89716 1.00865
 N1173 N 0.00758 0.89725 0.99183
 C1174 C 0.01635 0.87613 0.98289
 N1175 N 0.00730 0.85492 0.99128
 N1176 N -0.00998 0.85484 1.00810
 C1177 C -0.03729 0.87584 1.03524
 C1178 C -0.05279 0.87570 1.05060
 C1179 C 0.03493 0.87621 0.96474
 C1180 C 0.05049 0.87623 0.94943
 C1181 C -0.01662 0.12344 -0.01782
 N1182 N -0.00329 0.14360 -0.01361
 N1183 N 0.01384 0.14356 0.00335
 C1184 C 0.01817 0.12337 0.01659
 N1185 N 0.00484 0.10321 0.01238
 N1186 N -0.01229 0.10324 -0.00457
 C1187 C -0.03508 0.12350 -0.03606
 C1188 C -0.05056 0.12359 -0.05141
 C1189 C 0.03652 0.12338 0.03494
 C1190 C 0.05188 0.12343 0.05041
 C1191 C 0.12361 1.01700 1.01885
 N1192 N 0.10244 1.00753 1.01088
 N1193 N 0.10232 0.99084 0.99345
 C1194 C 0.12336 0.98315 0.98344
 N1195 N 0.14452 0.99262 0.99141
 N1196 N 0.14465 1.00930 1.00884
 C1197 C 0.12375 1.03510 1.03749
 C1198 C 0.12392 1.05042 1.05303
 C1199 C 0.12326 0.96511 0.96474
 C1200 C 0.12327 0.94988 0.94911
 C1201 C 0.12375 0.48321 0.48241
 N1202 N 0.14488 0.49142 0.49175
 N1203 N 0.14487 0.50815 0.50913
 C1204 C 0.12373 0.51716 0.51771
 N1205 N 0.10259 0.50895 0.50837
 N1206 N 0.10260 0.49222 0.49099
 C1207 C 0.12378 0.46513 0.46376
 C1208 C 0.12386 0.44985 0.44818
 C1209 C 0.12374 0.53528 0.53633
 C1210 C 0.12380 0.55058 0.55188
 C1211 C 0.37645 0.48257 1.01728
 N1212 N 0.39758 0.49111 1.00822
 N1213 N 0.39755 0.50792 0.99091
 C1214 C 0.37639 0.51667 0.98213
 N1215 N 0.35526 0.50813 0.99119
 N1216 N 0.35529 0.49133 1.00850
 C1217 C 0.37645 0.46443 1.03589
 C1218 C 0.37638 0.44914 1.05146
 C1219 C 0.37634 0.53486 0.96357
 C1220 C 0.37624 0.55021 0.94806
 C1221 C 0.87646 0.51756 0.48297
 N1222 N 0.85543 0.50741 0.49046
 N1223 N 0.85548 0.49056 0.50771
 C1224 C 0.87656 0.48338 0.51798
 N1225 N 0.89759 0.49353 0.51049
 N1226 N 0.89753 0.51038 0.49324
 C1227 C 0.87637 0.53574 0.46446
 C1228 C 0.87624 0.55107 0.44897
 C1229 C 0.87659 0.46520 0.53649
 C1230 C 0.87654 0.44987 0.55198
 C1231 C 0.87709 1.01622 -0.01850
 N1232 N 0.85624 1.00498 -0.01218
 N1233 N 0.85622 0.98810 0.00504
 C1234 C 0.87704 0.98197 0.01645
 N1235 N 0.89789 0.99321 0.01012
 N1236 N 0.89792 1.01009 -0.00710
 C1237 C 0.87707 1.03447 -0.03695
 C1238 C 0.87696 1.04985 -0.05239
 C1239 C 0.87698 0.96379 0.03495
 C1240 C 0.87681 0.94846 0.05045
 C1241 C 0.62330 -0.01670 0.48177
 N1242 N 0.64425 -0.01008 0.49264
 N1243 N 0.64425 0.00677 0.50991
 C1244 C 0.62330 0.01747 0.51685
 N1245 N 0.60234 0.01085 0.50598
 N1246 N 0.60234 -0.00600 0.48870
 C1247 C 0.62331 -0.03490 0.46323
 C1248 C 0.62340 -0.05025 0.44773
 C1249 C 0.62335 0.03567 0.53538
 C1250 C 0.62350 0.05101 0.55089
 C1251 C 0.48238 1.01713 0.37753
 N1252 N 0.50605 1.02320 0.37954
 N1253 N 0.52306 1.00612 0.37942
 C1254 C 0.51691 0.98247 0.37726
 N1255 N 0.49324 0.97640 0.37525
 N1256 N 0.47623 0.99348 0.37538
 C1257 C 0.46409 1.03552 0.37745
 C1258 C 0.44868 1.05094 0.37728
 C1259 C 0.53522 0.96411 0.37694
 C1260 C 0.55063 0.94870 0.37659
 C1261 C -0.01732 -0.01769 0.12277
 N1262 N -0.02349 0.00592 0.12546
 N1263 N -0.00654 0.02305 0.12542
 C1264 C 0.01709 0.01709 0.12269
 N1265 N 0.02326 -0.00652 0.12000
 N1266 N 0.00631 -0.02365 0.12004
 C1267 C -0.03557 -0.03613 0.12294
 C1268 C -0.05093 -0.05159 0.12312
 C1269 C 0.03537 0.03550 0.12285
 C1270 C 0.05078 0.05091 0.12307
 C1271 C 0.51713 0.51712 0.12252
 N1272 N 0.52208 0.49467 0.11392
 N1273 N 0.50509 0.47758 0.11395
 C1274 C 0.48265 0.48243 0.12258
 N1275 N 0.47770 0.50488 0.13116
 N1276 N 0.49468 0.52198 0.13114
 C1277 C 0.53547 0.53547 0.12269
 C1278 C 0.55091 0.55085 0.12292
 C1279 C 0.46440 0.46399 0.12278
 C1280 C 0.44903 0.44854 0.12305
 C1281 C -0.01706 0.48275 0.62291
 N1282 N -0.02263 0.50575 0.61640
 N1283 N -0.00568 0.52288 0.61638
 C1284 C 0.01735 0.51752 0.62289
 N1285 N 0.02292 0.49452 0.62939
 N1286 N 0.00597 0.47740 0.62940
 C1287 C -0.03535 0.46435 0.62311
 C1288 C -0.05075 0.44893 0.62336
 C1289 C 0.03558 0.53599 0.62305
 C1290 C 0.05093 0.55145 0.62327
 C1291 C 0.48290 0.51748 0.87724
 N1292 N 0.50650 0.52345 0.87434
 N1293 N 0.52350 0.50634 0.87439
 C1294 C 0.51741 0.48275 0.87732
 N1295 N 0.49380 0.47679 0.88023
 N1296 N 0.47680 0.49390 0.88018
 C1297 C 0.46457 0.53589 0.87701
 C1298 C 0.44915 0.55132 0.87675
 C1299 C 0.53571 0.46433 0.87722
 C1300 C 0.55113 0.44889 0.87706
 C1301 C 0.62366 0.51676 1.01874
 N1302 N 0.60258 0.50671 1.01123
 N1303 N 0.60257 0.48985 0.99397
 C1304 C 0.62362 0.48255 0.98369
 N1305 N 0.64468 0.49260 0.99120
 N1306 N 0.64470 0.50945 1.00846
 C1307 C 0.62370 0.53499 1.03724
 C1308 C 0.62381 0.55038 1.05270
 C1309 C 0.62364 0.46437 0.96514
 C1310 C 0.62377 0.44905 0.94960
 C1311 C 0.37608 1.01786 0.48233
 N1312 N 0.35497 1.00814 0.49019
 N1313 N 0.35494 0.99144 0.50759
 C1314 C 0.37600 0.98395 0.51768
 N1315 N 0.39711 0.99367 0.50982
 N1316 N 0.39715 1.01038 0.49242
 C1317 C 0.37609 1.03594 0.46366
 C1318 C 0.37601 1.05121 0.44806
 C1319 C 0.37595 0.96586 0.53633
 C1320 C 0.37585 0.95056 0.55189
 C1321 C -0.01748 0.62368 0.48287
 N1322 N -0.00206 0.64265 0.48483
 N1323 N 0.01509 0.64271 0.50177
 C1324 C 0.01733 0.62380 0.51725
 N1325 N 0.00191 0.60483 0.51528
 N1326 N -0.01524 0.60477 0.49834
 C1327 C -0.03594 0.62365 0.46463
 C1328 C -0.05138 0.62372 0.44925
 C1329 C 0.03574 0.62392 0.53553
 C1330 C 0.05117 0.62407 0.55092
 C1331 C 0.48334 0.37577 1.01785
 N1332 N 0.49251 0.39697 1.00959
 N1333 N 0.50987 0.39705 0.99285
 C1334 C 0.51859 0.37592 0.98390
 N1335 N 0.50943 0.35472 0.99216
 N1336 N 0.49207 0.35464 1.00890
 C1337 C 0.46472 0.37568 1.03591
 C1338 C 0.44914 0.37558 1.05116
 C1339 C 0.53715 0.37599 0.96578
 C1340 C 0.55264 0.37600 0.95044
 C1341 C 0.48271 -0.01694 0.62284
 N1342 N 0.47765 0.00569 0.61480
 N1343 N 0.49466 0.02276 0.61489
 C1344 C 0.51724 0.01772 0.62303
 N1345 N 0.52230 -0.00491 0.63106
 N1346 N 0.50529 -0.02198 0.63097
 C1347 C 0.46435 -0.03527 0.62293
 C1348 C 0.44891 -0.05064 0.62312
 C1349 C 0.53553 0.03611 0.62322
 C1350 C 0.55095 0.05152 0.62343
 C1351 C -0.01669 0.51817 0.37706
 N1352 N 0.00689 0.52391 0.38050
 N1353 N 0.02374 0.50667 0.38059
 C1354 C 0.01751 0.48317 0.37725
 N1355 N -0.00608 0.47743 0.37382
 N1356 N -0.02293 0.49467 0.37373
 C1357 C -0.03483 0.53672 0.37684
 C1358 C -0.05016 0.55220 0.37660
 C1359 C 0.03566 0.46465 0.37712
 C1360 C 0.05098 0.44914 0.37690
 C1361 C -0.01763 1.01803 0.87701
 N1362 N 0.00610 1.02408 0.87593
 N1363 N 0.02308 1.00696 0.87611
 C1364 C 0.01684 0.98326 0.87738
 N1365 N -0.00689 0.97721 0.87847
 N1366 N -0.02387 0.99433 0.87829
 C1367 C -0.03593 1.03646 0.87666
 C1368 C -0.05134 1.05190 0.87632
 C1369 C 0.03513 0.96481 0.87737
 C1370 C 0.05053 0.94936 0.87725
 C1371 C 0.76726 0.62201 0.26719
 N1372 N 0.75198 0.60296 0.26489
 N1373 N 0.73513 0.60286 0.24764
 C1374 C 0.73308 0.62181 0.23218
 N1375 N 0.74836 0.64085 0.23448
 N1376 N 0.76520 0.64094 0.25172
 C1377 C 0.78536 0.62222 0.28578
 C1378 C 0.80064 0.62267 0.30131
 C1379 C 0.71481 0.62189 0.21375
 C1380 C 0.69943 0.62225 0.19831
 C1381 C 0.26728 0.87853 0.73331
 N1382 N 0.26468 0.85915 0.74814
 N1383 N 0.24783 0.85914 0.76539
 C1384 C 0.23308 0.87853 0.76837
 N1385 N 0.23568 0.89792 0.75356
 N1386 N 0.25254 0.89793 0.73629
 C1387 C 0.28537 0.87841 0.71467
 C1388 C 0.30065 0.87802 0.69908
 C1389 C 0.21476 0.87834 0.78680
 C1390 C 0.19932 0.87790 0.80221
 C1391 C 0.23263 0.37882 0.26711
 N1392 N 0.25638 0.37774 0.27309
 N1393 N 0.27328 0.37768 0.25589
 C1394 C 0.26694 0.37871 0.23220
 N1395 N 0.24319 0.37981 0.22622
 N1396 N 0.22629 0.37987 0.24342
 C1397 C 0.21442 0.37839 0.28558
 C1398 C 0.19907 0.37778 0.30106
 C1399 C 0.28513 0.37818 0.21371
 C1400 C 0.30050 0.37749 0.19826
 C1401 C 0.87752 0.73251 0.26715
 N1402 N 0.89593 0.73398 0.25098
 N1403 N 0.89597 0.75116 0.23406
 C1404 C 0.87761 0.76739 0.23282
 N1405 N 0.85921 0.76592 0.24899
 N1406 N 0.85917 0.74875 0.26590
 C1407 C 0.87735 0.71398 0.28530
 C1408 C 0.87694 0.69850 0.30065
 C1409 C 0.87747 0.78574 0.21448
 C1410 C 0.87709 0.80114 0.19905
 C1411 C 0.62289 0.26788 0.76703
 N1412 N 0.60196 0.25681 0.76061
 N1413 N 0.60196 0.23955 0.74375
 C1414 C 0.62288 0.23281 0.73284
 N1415 N 0.64379 0.24388 0.73926
 N1416 N 0.64380 0.26114 0.75611
 C1417 C 0.62299 0.28634 0.78528
 C1418 C 0.62335 0.30179 0.80069
 C1419 C 0.62295 0.21426 0.71467
 C1420 C 0.62329 0.19874 0.69934
 C1421 C 0.76782 0.23282 0.87814
 N1422 N 0.74413 0.22652 0.87747
 N1423 N 0.72700 0.24349 0.87747
 C1424 C 0.73303 0.26727 0.87814
 N1425 N 0.75672 0.27356 0.87882
 N1426 N 0.77385 0.25659 0.87882
 C1427 C 0.78628 0.21454 0.87775
 C1428 C 0.80173 0.19916 0.87722
 C1429 C 0.71459 0.28555 0.87775
 C1430 C 0.69914 0.30095 0.87724
 C1431 C 0.26697 0.76796 0.62212
 N1432 N 0.27291 0.74430 0.61941
 N1433 N 0.25579 0.72734 0.61937
 C1434 C 0.23221 0.73354 0.62205
 N1435 N 0.22626 0.75719 0.62475
 N1436 N 0.24339 0.77415 0.62479
 C1437 C 0.28542 0.78619 0.62253
 C1438 C 0.30089 0.80154 0.62305
 C1439 C 0.21381 0.71525 0.62240
 C1440 C 0.19840 0.69984 0.62290
   
