data_POSCAR
  _audit_creation_date              2014-09-24
  _audit_creation_method            'ToBaCCo'
  _symmetry_space_group_name_H-M    'P1'
  _symmetry_Int_Tables_number       1
  _symmetry_cell_setting            triclinic
  loop_
  _symmetry_equiv_pos_as_xyz
 x,y,z
_cell_length_a 44.8108
_cell_length_b 44.8077
_cell_length_c 44.7310
_cell_angle_alpha 89.982400
_cell_angle_beta 89.996400
_cell_angle_gamma 90.004900
loop_
  _atom_site_label
  _atom_site_type_symbol
  _atom_site_fract_x
  _atom_site_fract_y
  _atom_site_fract_z
N1 N 0.37722 1.35747 0.29561
 N2 N 0.35630 1.37798 0.29586
 C3 C 0.36101 1.39699 0.27301
 C4 C 0.38624 1.38780 0.25730
 C5 C 0.39589 1.36261 0.27264
 H6 H 0.34668 1.41569 0.26796
 H7 H 0.41464 1.34846 0.26728
 Cu8 Cu 0.32408 1.37735 0.32528
 Cu9 Cu 0.37729 1.32429 0.32357
 Cu10 Cu 0.32292 1.32374 0.37806
 N11 N 0.29464 1.37730 0.35750
 N12 N 0.29462 1.35661 0.37829
 C13 C 0.27162 1.36134 0.39703
 C14 C 0.25603 1.38646 0.38752
 C15 C 0.27161 1.39601 0.36236
 H16 H 0.26640 1.34696 0.41568
 H17 H 0.26642 1.41479 0.34817
 N18 N 0.35628 1.29512 0.37754
 N19 N 0.37708 1.29533 0.35669
 C20 C 0.39610 1.27262 0.36168
 C21 C 0.38682 1.25713 0.38688
 C22 C 0.36151 1.27226 0.39635
 H23 H 0.41495 1.26745 0.34756
 H24 H 0.34746 1.26673 0.41516
 H25 H 0.33227 1.32391 0.33296
 H26 H 0.35632 1.34786 0.35727
 N27 N 0.37718 0.85636 0.79577
 N28 N 0.35456 0.87491 0.79404
 C29 C 0.35911 0.89375 0.77102
 C30 C 0.38605 0.88654 0.75744
 C31 C 0.39686 0.86269 0.77399
 H32 H 0.34345 0.91077 0.76421
 H33 H 0.41710 0.85019 0.77009
 Cu34 Cu 0.32044 0.87175 0.82088
 Cu35 Cu 0.37776 0.82340 0.82393
 Cu36 Cu 0.32272 0.82272 0.87788
 N37 N 0.29324 0.87456 0.85477
 N38 N 0.29457 0.85571 0.87721
 C39 C 0.27260 0.86194 0.89672
 C40 C 0.25639 0.88606 0.88599
 C41 C 0.27035 0.89350 0.85926
 H42 H 0.26839 0.84923 0.91680
 H43 H 0.26394 0.91081 0.84373
 N44 N 0.35661 0.79468 0.87810
 N45 N 0.37767 0.79502 0.85752
 C46 C 0.39683 0.77251 0.86282
 C47 C 0.38736 0.75701 0.88793
 C48 C 0.36180 0.77193 0.89705
 H49 H 0.41580 0.76738 0.84885
 H50 H 0.34746 0.76622 0.91558
 H51 H 0.33291 0.81971 0.83316
 H52 H 0.35438 0.84750 0.85554
 N53 N 0.87540 1.35532 0.79343
 N54 N 0.85372 1.37501 0.79298
 C55 C 0.85858 1.39442 0.77051
 C56 C 0.88471 1.38630 0.75572
 C57 C 0.89472 1.36134 0.77124
 H58 H 0.84363 1.41252 0.76500
 H59 H 0.91421 1.34796 0.76660
 Cu60 Cu 0.82014 1.37245 0.82054
 Cu61 Cu 0.87574 1.32191 0.82112
 Cu62 Cu 0.82318 1.32362 0.87753
 N63 N 0.79337 1.37535 0.85475
 N64 N 0.79504 1.35662 0.87728
 C65 C 0.77321 1.36280 0.89696
 C66 C 0.75672 1.38674 0.88624
 C67 C 0.77039 1.39414 0.85937
 H68 H 0.76918 1.35010 0.91709
 H69 H 0.76364 1.41127 0.84377
 N70 N 0.85635 1.29478 0.87687
 N71 N 0.87625 1.29400 0.85516
 C72 C 0.89514 1.27117 0.86008
 C73 C 0.88672 1.25664 0.88614
 C74 C 0.86205 1.27245 0.89618
 H75 H 0.91323 1.26522 0.84529
 H76 H 0.84872 1.26771 0.91572
 H77 H 0.83128 1.32001 0.83245
 H78 H 0.85493 1.34705 0.85348
 N79 N 0.87542 0.85562 0.29362
 N80 N 0.85375 0.87532 0.29315
 C81 C 0.85861 0.89467 0.27063
 C82 C 0.88473 0.88650 0.25584
 C83 C 0.89472 0.86158 0.27141
 H84 H 0.84367 0.91276 0.26508
 H85 H 0.91420 0.84818 0.26678
 Cu86 Cu 0.82016 0.87283 0.32074
 Cu87 Cu 0.87576 0.82228 0.32138
 Cu88 Cu 0.82308 0.82390 0.37767
 N89 N 0.79325 0.87561 0.35488
 N90 N 0.79486 0.85683 0.37737
 C91 C 0.77293 0.86293 0.39699
 C92 C 0.75645 0.88688 0.38626
 C93 C 0.77022 0.89435 0.35945
 H94 H 0.76885 0.85019 0.41708
 H95 H 0.76351 0.91151 0.34386
 N96 N 0.85632 0.79512 0.37708
 N97 N 0.87626 0.79439 0.35542
 C98 C 0.89520 0.77161 0.36038
 C99 C 0.88675 0.75705 0.38640
 C100 C 0.86203 0.77280 0.39640
 H101 H 0.91333 0.76570 0.34563
 H102 H 0.84866 0.76802 0.41590
 H103 H 0.83126 0.82038 0.33261
 H104 H 0.85487 0.84739 0.35373
 N105 N 0.62271 0.64330 0.29584
 N106 N 0.64534 0.62477 0.29413
 C107 C 0.64083 0.60594 0.27111
 C108 C 0.61390 0.61315 0.25751
 C109 C 0.60306 0.63697 0.27404
 H110 H 0.65652 0.58894 0.26430
 H111 H 0.58283 0.64947 0.27012
 Cu112 Cu 0.67944 0.62795 0.32100
 Cu113 Cu 0.62208 0.67628 0.32392
 Cu114 Cu 0.67710 0.67713 0.37786
 N115 N 0.70663 0.62527 0.35491
 N116 N 0.70528 0.64417 0.37730
 C117 C 0.72725 0.63802 0.39683
 C118 C 0.74350 0.61391 0.38616
 C119 C 0.72955 0.60638 0.35947
 H120 H 0.73145 0.65079 0.41687
 H121 H 0.73600 0.58905 0.34398
 N122 N 0.64319 0.70511 0.37799
 N123 N 0.62212 0.70471 0.35741
 C124 C 0.60294 0.72721 0.36265
 C125 C 0.61239 0.74277 0.38771
 C126 C 0.63796 0.72790 0.39687
 H127 H 0.58396 0.73229 0.34867
 H128 H 0.65231 0.73367 0.41539
 H129 H 0.66694 0.68000 0.33313
 H130 H 0.64548 0.65226 0.35559
 N131 N 0.62444 0.14466 0.79367
 N132 N 0.64613 0.12497 0.79317
 C133 C 0.64125 0.10560 0.77068
 C134 C 0.61511 0.11375 0.75592
 C135 C 0.60511 0.13867 0.77148
 H136 H 0.65621 0.08753 0.76513
 H137 H 0.58561 0.15205 0.76688
 Cu138 Cu 0.67976 0.12747 0.82066
 Cu139 Cu 0.62414 0.17798 0.82148
 Cu140 Cu 0.67684 0.17613 0.87776
 N141 N 0.70660 0.12445 0.85481
 N142 N 0.70496 0.14312 0.87738
 C143 C 0.72682 0.13690 0.89701
 C144 C 0.74331 0.11300 0.88621
 C145 C 0.72960 0.10566 0.85934
 H146 H 0.73087 0.14954 0.91716
 H147 H 0.73634 0.08859 0.84369
 N148 N 0.64368 0.20499 0.87724
 N149 N 0.62372 0.20581 0.85559
 C150 C 0.60487 0.22865 0.86060
 C151 C 0.61338 0.24314 0.88664
 C152 C 0.63806 0.22730 0.89659
 H153 H 0.58675 0.23465 0.84586
 H154 H 0.65146 0.23201 0.91609
 H155 H 0.66862 0.17987 0.83271
 H156 H 0.64504 0.15277 0.85374
 N157 N 1.12271 0.64340 0.79591
 N158 N 1.14529 0.62481 0.79417
 C159 C 1.14068 0.60599 0.77116
 C160 C 1.11373 0.61326 0.75761
 C161 C 1.10299 0.63711 0.77416
 H162 H 1.15630 0.58894 0.76433
 H163 H 1.08277 0.64965 0.77027
 Cu164 Cu 1.17947 0.62789 0.82096
 Cu165 Cu 1.12222 0.67634 0.82404
 Cu166 Cu 1.17737 0.67704 0.87785
 N167 N 1.20678 0.62514 0.85477
 N168 N 1.20551 0.64404 0.87717
 C169 C 1.22752 0.63784 0.89664
 C170 C 1.24371 0.61370 0.88594
 C171 C 1.22968 0.60621 0.85927
 H172 H 1.23177 0.65059 0.91668
 H173 H 1.23606 0.58885 0.84378
 N174 N 1.14349 0.70510 0.87810
 N175 N 1.12238 0.70473 0.85758
 C176 C 1.10322 0.72723 0.86288
 C177 C 1.11274 0.74277 0.88794
 C178 C 1.13833 0.72787 0.89702
 H179 H 1.08422 0.73233 0.84895
 H180 H 1.15271 0.73362 0.91551
 H181 H 1.16711 0.67997 0.83316
 H182 H 1.14565 0.65225 0.85565
 N183 N 1.12277 0.14355 0.29569
 N184 N 1.14534 0.12493 0.29403
 C185 C 1.14075 0.10606 0.27107
 C186 C 1.11384 0.11331 0.25745
 C187 C 1.10309 0.13722 0.27391
 H188 H 1.15637 0.08897 0.26432
 H189 H 1.08289 0.14977 0.26996
 Cu190 Cu 1.17947 0.12808 0.32089
 Cu191 Cu 1.12224 0.17657 0.32372
 Cu192 Cu 1.17726 0.17733 0.37768
 N193 N 1.20675 0.12541 0.35474
 N194 N 1.20546 0.14436 0.37710
 C195 C 1.22748 0.13820 0.39659
 C196 C 1.24368 0.11404 0.38593
 C197 C 1.22966 0.10650 0.35928
 H198 H 1.23173 0.15099 0.41661
 H199 H 1.23604 0.08912 0.34381
 N200 N 1.14337 0.20538 0.37780
 N201 N 1.12232 0.20501 0.35721
 C202 C 1.10314 0.22751 0.36244
 C203 C 1.11256 0.24305 0.38752
 C204 C 1.13813 0.22816 0.39669
 H205 H 1.08417 0.23260 0.34846
 H206 H 1.15245 0.23390 0.41524
 H207 H 1.16711 0.18018 0.33296
 H208 H 1.14556 0.15252 0.35544
 N209 N 0.62267 1.35690 0.70416
 N210 N 0.64528 1.37546 0.70590
 C211 C 0.64074 1.39422 0.72896
 C212 C 0.61382 1.38694 0.74257
 C213 C 0.60301 1.36314 0.72598
 H214 H 0.65640 1.41124 0.73580
 H215 H 0.58280 1.35061 0.72989
 Cu216 Cu 0.67939 1.37240 0.67899
 Cu217 Cu 0.62207 1.32399 0.67602
 Cu218 Cu 0.67713 1.32317 0.62214
 N219 N 0.70667 1.37503 0.64513
 N220 N 0.70533 1.35611 0.62275
 C221 C 0.72734 1.36221 0.60325
 C222 C 0.74362 1.38631 0.61392
 C223 C 0.72964 1.39388 0.64059
 H224 H 0.73154 1.34942 0.58323
 H225 H 0.73609 1.41123 0.65606
 N226 N 0.64321 1.29520 0.62195
 N227 N 0.62213 1.29560 0.64250
 C228 C 0.60293 1.27312 0.63724
 C229 C 0.61240 1.25755 0.61219
 C230 C 0.63799 1.27241 0.60305
 H231 H 0.58395 1.26804 0.65121
 H232 H 0.65235 1.26663 0.58455
 H233 H 0.66696 1.32033 0.66687
 H234 H 0.64549 1.34805 0.64437
 N235 N 0.62253 0.85706 1.20393
 N236 N 0.64517 0.87559 1.20570
 C237 C 0.64062 0.89437 1.22875
 C238 C 0.61366 0.88713 1.24231
 C239 C 0.60285 0.86334 1.22571
 H240 H 0.65629 0.91135 1.23562
 H241 H 0.58261 0.85083 1.22959
 Cu242 Cu 0.67933 0.87246 1.17887
 Cu243 Cu 0.62196 0.82412 1.17581
 Cu244 Cu 0.67720 0.82312 1.12212
 N245 N 0.70671 0.87501 1.14508
 N246 N 0.70542 0.85604 1.12274
 C247 C 0.72748 0.86210 1.10328
 C248 C 0.74373 0.88622 1.11393
 C249 C 0.72968 0.89385 1.14055
 H250 H 0.73172 0.84927 1.08329
 H251 H 0.73610 0.91124 1.15599
 N252 N 0.64325 0.79519 1.12188
 N253 N 0.62209 0.79566 1.14235
 C254 C 0.60288 0.77318 1.13707
 C255 C 0.61243 0.75755 1.11209
 C256 C 0.63808 0.77237 1.10301
 H257 H 0.58384 0.76815 1.15097
 H258 H 0.65250 0.76653 1.08459
 H259 H 0.66687 0.82039 1.16682
 H260 H 0.64552 0.84808 1.14419
 N261 N 1.12280 1.35655 1.20415
 N262 N 1.14546 1.37505 1.20594
 C263 C 1.14089 1.39389 1.22892
 C264 C 1.11388 1.38675 1.24242
 C265 C 1.10306 1.36293 1.22586
 H266 H 1.15658 1.41086 1.23578
 H267 H 1.08278 1.35048 1.22971
 Cu268 Cu 1.17969 1.37180 1.17925
 Cu269 Cu 1.12223 1.32360 1.17604
 Cu270 Cu 1.17742 1.32283 1.12224
 N271 N 1.20700 1.37458 1.14546
 N272 N 1.20567 1.35576 1.12300
 C273 C 1.22771 1.36196 1.10356
 C274 C 1.24397 1.38603 1.11435
 C275 C 1.22996 1.39346 1.14104
 H276 H 1.23192 1.34927 1.08347
 H277 H 1.23639 1.41075 1.15660
 N278 N 1.14345 1.29487 1.12195
 N279 N 1.12234 1.29525 1.14248
 C280 C 1.10313 1.27280 1.13717
 C281 C 1.11261 1.25725 1.11211
 C282 C 1.13824 1.27211 1.10302
 H283 H 1.08412 1.26772 1.15110
 H284 H 1.15262 1.26633 1.08454
 H285 H 1.16711 1.31981 1.16692
 H286 H 1.14578 1.34767 1.14450
 N287 N 1.12296 0.85638 0.70417
 N288 N 1.14562 0.87488 0.70595
 C289 C 1.14106 0.89370 0.72896
 C290 C 1.11408 0.88653 0.74248
 C291 C 1.10325 0.86273 0.72591
 H292 H 1.15675 0.91069 0.73581
 H293 H 1.08297 0.85027 0.72976
 Cu294 Cu 1.17979 0.87168 0.67919
 Cu295 Cu 1.12236 0.82345 0.67604
 Cu296 Cu 1.17744 0.82274 0.62214
 N297 N 1.20704 0.87447 0.64534
 N298 N 1.20567 0.85567 0.62287
 C299 C 1.22766 0.86189 0.60338
 C300 C 1.24394 0.88595 0.61416
 C301 C 1.22998 0.89337 0.64088
 H302 H 1.23184 0.84922 0.58328
 H303 H 1.23644 0.91064 0.65644
 N304 N 1.14348 0.79477 0.62189
 N305 N 1.12241 0.79513 0.64246
 C306 C 1.10320 0.77266 0.63717
 C307 C 1.11264 0.75715 0.61208
 C308 C 1.13824 0.77202 0.60295
 H309 H 1.08423 0.76756 0.65115
 H310 H 1.15259 0.76627 0.58443
 H311 H 1.16723 0.81969 0.66684
 H312 H 1.14583 0.84756 0.64448
 N313 N 0.37730 0.64317 0.70433
 N314 N 0.35463 0.62468 0.70616
 C315 C 0.35920 0.60588 0.72919
 C316 C 0.38620 0.61305 0.74268
 C317 C 0.39703 0.63683 0.72606
 H318 H 0.34351 0.58892 0.73610
 H319 H 0.41731 0.64929 0.72988
 Cu320 Cu 0.32043 0.62789 0.67943
 Cu321 Cu 0.37788 0.67609 0.67617
 Cu322 Cu 0.32265 0.67694 0.62244
 N323 N 0.29310 0.62515 0.64564
 N324 N 0.29441 0.64401 0.62320
 C325 C 0.27238 0.63782 0.60375
 C326 C 0.25614 0.61371 0.61452
 C327 C 0.27016 0.60625 0.64120
 H328 H 0.26815 0.65054 0.58368
 H329 H 0.26376 0.58892 0.65673
 N330 N 0.35663 0.70489 0.62212
 N331 N 0.37777 0.70447 0.64261
 C332 C 0.39700 0.72691 0.63727
 C333 C 0.38750 0.74248 0.61223
 C334 C 0.36185 0.72766 0.60318
 H335 H 0.41604 0.73195 0.65117
 H336 H 0.34745 0.73346 0.58472
 H337 H 0.33299 0.67990 0.66711
 H338 H 0.35429 0.65206 0.64464
 N339 N 0.37754 0.14281 1.20398
 N340 N 0.35484 0.12437 1.20583
 C341 C 0.35938 0.10557 1.22887
 C342 C 0.38641 0.11269 1.24233
 C343 C 0.39728 0.13643 1.22569
 H344 H 0.34365 0.08866 1.23582
 H345 H 0.41756 0.14888 1.22951
 Cu346 Cu 0.32059 0.12767 1.17917
 Cu347 Cu 0.37811 0.17580 1.17592
 Cu348 Cu 0.32267 0.17705 1.12243
 N349 N 0.29321 0.12512 1.14541
 N350 N 0.29444 0.14411 1.12308
 C351 C 0.27238 0.13801 1.10364
 C352 C 0.25620 0.11383 1.11430
 C353 C 0.27028 0.10622 1.14090
 H354 H 0.26810 0.15085 1.08365
 H355 H 0.26394 0.08880 1.15635
 N356 N 0.35670 0.20493 1.12215
 N357 N 0.37794 0.20433 1.14254
 C358 C 0.39719 0.22677 1.13725
 C359 C 0.38759 0.24251 1.11236
 C360 C 0.36187 0.22780 1.10333
 H361 H 0.41630 0.23169 1.15108
 H362 H 0.34738 0.23374 1.08499
 H363 H 0.33318 0.17972 1.16708
 H364 H 0.35433 0.15198 1.14435
 N365 N 0.87746 0.64294 1.20408
 N366 N 0.85482 0.62442 1.20587
 C367 C 0.85933 0.60569 1.22897
 C368 C 0.88627 0.61294 1.24254
 C369 C 0.89712 0.63669 1.22590
 H370 H 0.84363 0.58873 1.23586
 H371 H 0.91735 0.64920 1.22978
 Cu372 Cu 0.82069 0.62753 1.17901
 Cu373 Cu 0.87808 0.67582 1.17590
 Cu374 Cu 0.82294 0.67671 1.12210
 N375 N 0.79339 0.62488 1.14517
 N376 N 0.79471 0.64379 1.12277
 C377 C 0.77267 0.63767 1.10331
 C378 C 0.75642 0.61357 1.11402
 C379 C 0.77043 0.60602 1.14069
 H380 H 0.76845 0.65044 1.08327
 H381 H 0.76399 0.58869 1.15619
 N382 N 0.85690 0.70464 1.12185
 N383 N 0.87802 0.70420 1.14237
 C384 C 0.89723 0.72667 1.13709
 C385 C 0.88773 0.74227 1.11208
 C386 C 0.86211 0.72745 1.10297
 H387 H 0.91623 0.73172 1.15104
 H388 H 0.84771 0.73327 1.08451
 H389 H 0.83319 0.67956 1.16680
 H390 H 0.85456 0.65179 1.14430
 N391 N 0.87761 0.14282 0.70389
 N392 N 0.85494 0.12434 0.70574
 C393 C 0.85950 0.10558 0.72882
 C394 C 0.88649 0.11277 0.74231
 C395 C 0.89733 0.13652 0.72564
 H396 H 0.84379 0.08864 0.73575
 H397 H 0.91759 0.14900 0.72947
 Cu398 Cu 0.82073 0.12752 0.67899
 Cu399 Cu 0.87816 0.17576 0.67573
 Cu400 Cu 0.82270 0.17695 0.62228
 N401 N 0.79331 0.12499 0.64524
 N402 N 0.79452 0.14401 0.62293
 C403 C 0.77245 0.13795 0.60350
 C404 C 0.75626 0.11377 0.61414
 C405 C 0.77036 0.10611 0.64073
 H406 H 0.76816 0.15081 0.58354
 H407 H 0.76402 0.08867 0.65615
 N408 N 0.85668 0.20484 0.62193
 N409 N 0.87795 0.20428 0.64229
 C410 C 0.89717 0.22673 0.63694
 C411 C 0.88752 0.24243 0.61203
 C412 C 0.86180 0.22769 0.60308
 H413 H 0.91630 0.23168 0.65074
 H414 H 0.84728 0.23361 0.58474
 H415 H 0.83323 0.17960 0.66694
 H416 H 0.85441 0.15190 0.64416
 N417 N 1.35732 0.37738 0.70351
 N418 N 1.37608 0.35492 0.70508
 C419 C 1.39476 0.35944 0.72823
 C420 C 1.38722 0.38618 0.74207
 C421 C 1.36335 0.39690 0.72551
 H422 H 1.41190 0.34389 0.73499
 H423 H 1.35060 0.41694 0.72961
 Cu424 Cu 1.37336 0.32094 0.67785
 Cu425 Cu 1.32436 0.37780 0.67542
 Cu426 Cu 1.32175 0.32152 0.62294
 N427 N 1.37481 0.29294 0.64442
 N428 N 1.35479 0.29346 0.62300
 C429 C 1.36021 0.27107 0.60374
 C430 C 1.38512 0.25532 0.61351
 C431 C 1.39381 0.27018 0.63943
 H432 H 1.34645 0.26642 0.58448
 H433 H 1.41211 0.26461 0.65411
 N434 N 1.29408 0.35569 0.62265
 N435 N 1.29525 0.37738 0.64253
 C436 C 1.27300 0.39681 0.63709
 C437 C 1.25681 0.38687 0.61262
 C438 C 1.27105 0.36075 0.60402
 H439 H 1.26856 0.41636 0.65047
 H440 H 1.26471 0.34598 0.58604
 H441 H 1.32077 0.33267 0.66753
 H442 H 1.34738 0.35370 0.64330
 N443 N 1.35732 0.87692 1.20455
 N444 N 1.37782 0.85598 1.20433
 C445 C 1.39679 0.86069 1.22721
 C446 C 1.38757 0.88592 1.24290
 C447 C 1.36242 0.89558 1.22753
 H448 H 1.41547 0.84635 1.23229
 H449 H 1.34828 0.91434 1.23284
 Cu450 Cu 1.37721 0.82377 1.17489
 Cu451 Cu 1.32422 0.87706 1.17652
 Cu452 Cu 1.32370 0.82272 1.12204
 N453 N 1.37716 0.79430 1.14269
 N454 N 1.35649 0.79433 1.12189
 C455 C 1.36118 0.77132 1.10316
 C456 C 1.38625 0.75566 1.11268
 C457 C 1.39581 0.77122 1.13785
 H458 H 1.34681 0.76615 1.08449
 H459 H 1.41457 0.76596 1.15205
 N460 N 1.29515 0.85615 1.12249
 N461 N 1.29535 0.87693 1.14335
 C462 C 1.27270 0.89601 1.13831
 C463 C 1.25726 0.88679 1.11308
 C464 C 1.27235 0.86145 1.10363
 H465 H 1.26754 0.91486 1.15243
 H466 H 1.26684 0.84742 1.08481
 H467 H 1.32380 0.83203 1.16714
 H468 H 1.34782 0.85607 1.14287
 N469 N 0.85770 0.37773 1.20441
 N470 N 0.87835 0.35694 1.20410
 C471 C 0.89728 0.36164 1.22699
 C472 C 0.88791 0.38671 1.24280
 C473 C 0.86269 0.39631 1.22748
 H474 H 0.91606 0.34739 1.23199
 H475 H 0.84840 0.41493 1.23292
 Cu476 Cu 0.87802 0.32488 1.17459
 Cu477 Cu 0.82458 0.37768 1.17637
 Cu478 Cu 0.82456 0.32351 1.12169
 N479 N 0.87827 0.29559 1.14232
 N480 N 0.85764 0.29546 1.12147
 C481 C 0.86256 0.27247 1.10279
 C482 C 0.88770 0.25712 1.11237
 C483 C 0.89709 0.27265 1.13753
 H484 H 0.84828 0.26695 1.08414
 H485 H 0.91581 0.26734 1.15177
 N486 N 0.79569 0.35666 1.12225
 N487 N 0.79571 0.37738 1.14317
 C488 C 0.77286 0.39624 1.13821
 C489 C 0.75749 0.38694 1.11295
 C490 C 0.77283 0.36178 1.10341
 H491 H 0.76752 0.41498 1.15240
 H492 H 0.76745 0.34777 1.08454
 H493 H 0.82454 0.33269 1.16682
 H494 H 0.84837 0.35701 1.14264
 N495 N 0.85656 0.87715 0.70434
 N496 N 0.87516 0.85456 0.70602
 C497 C 0.89404 0.85914 0.72898
 C498 C 0.88681 0.88607 0.74258
 C499 C 0.86291 0.89684 0.72610
 H500 H 0.91110 0.84351 0.73576
 H501 H 0.85038 0.91705 0.73003
 Cu502 Cu 0.87197 0.82043 0.67921
 Cu503 Cu 0.82351 0.87769 0.67632
 Cu504 Cu 0.82275 0.82266 0.62239
 N505 N 0.87470 0.79321 0.64533
 N506 N 0.85577 0.79452 0.62296
 C507 C 0.86196 0.77256 0.60343
 C508 C 0.88612 0.75636 0.61408
 C509 C 0.89364 0.77033 0.64077
 H510 H 0.84918 0.76834 0.58340
 H511 H 0.91101 0.76393 0.65624
 N512 N 0.79467 0.85653 0.62226
 N513 N 0.79504 0.87759 0.64285
 C514 C 0.77253 0.89676 0.63760
 C515 C 0.75698 0.88732 0.61253
 C516 C 0.77189 0.86175 0.60337
 H517 H 0.76744 0.91574 0.65157
 H518 H 0.76615 0.84743 0.58483
 H519 H 0.81988 0.83282 0.66711
 H520 H 0.84755 0.85435 0.64464
 N521 N 0.64367 0.62294 0.70449
 N522 N 0.62506 0.64551 0.70619
 C523 C 0.60619 0.64089 0.72916
 C524 C 0.61345 0.61396 0.74275
 C525 C 0.63736 0.60323 0.72625
 H526 H 0.58911 0.65650 0.73594
 H527 H 0.64990 0.58302 0.73017
 Cu528 Cu 0.62818 0.67966 0.67935
 Cu529 Cu 0.67668 0.62243 0.67640
 Cu530 Cu 0.67733 0.67749 0.62247
 N531 N 0.62544 0.70694 0.64550
 N532 N 0.64434 0.70564 0.62310
 C533 C 0.63816 0.72763 0.60360
 C534 C 0.61402 0.74384 0.61428
 C535 C 0.60652 0.72985 0.64097
 H536 H 0.65091 0.73185 0.58355
 H537 H 0.58916 0.73625 0.65646
 N538 N 0.70540 0.64363 0.62228
 N539 N 0.70508 0.62256 0.64286
 C540 C 0.72759 0.60340 0.63756
 C541 C 0.74307 0.61287 0.61244
 C542 C 0.72814 0.63843 0.60332
 H543 H 0.73272 0.58442 0.65152
 H544 H 0.73382 0.65276 0.58477
 H545 H 0.68026 0.66730 0.66719
 H546 H 0.65257 0.64577 0.64476
 N547 N 0.64489 1.12467 1.20631
 N548 N 0.62523 1.14638 1.20677
 C549 C 0.60581 1.14155 1.22922
 C550 C 0.61388 1.11540 1.24401
 C551 C 0.63883 1.10536 1.22851
 H552 H 0.58775 1.15654 1.23471
 H553 H 0.65216 1.08583 1.23316
 Cu554 Cu 0.62783 1.18000 1.17926
 Cu555 Cu 0.67824 1.12432 1.17853
 Cu556 Cu 0.67644 1.17695 1.12213
 N557 N 0.62476 1.20674 1.14505
 N558 N 0.64342 1.20507 1.12246
 C559 C 0.63716 1.22691 1.10280
 C560 C 0.61325 1.24339 1.11360
 C561 C 0.60595 1.22971 1.14050
 H562 H 0.64979 1.23095 1.08263
 H563 H 0.58889 1.23646 1.15617
 N564 N 0.70528 1.14377 1.12273
 N565 N 0.70610 1.12384 1.14441
 C566 C 0.72892 1.10497 1.13943
 C567 C 0.74342 1.11344 1.11337
 C568 C 0.72759 1.13812 1.10338
 H569 H 0.73491 1.08686 1.15419
 H570 H 0.73230 1.15148 1.08385
 H571 H 0.68021 1.16877 1.16719
 H572 H 0.65307 1.14519 1.14623
 N573 N 0.14230 0.62276 1.20432
 N574 N 0.12183 0.64373 1.20407
 C575 C 0.10285 0.63908 1.22696
 C576 C 0.11202 0.61385 1.24268
 C577 C 0.13715 0.60413 1.22732
 H578 H 0.08419 0.65346 1.23203
 H579 H 0.15129 0.58537 1.23268
 Cu580 Cu 0.12253 0.67591 1.17461
 Cu581 Cu 0.17548 0.62260 1.17637
 Cu582 Cu 0.17620 0.67699 1.12191
 N583 N 0.12266 0.70537 1.14240
 N584 N 0.14338 0.70536 1.12164
 C585 C 0.13872 0.72839 1.10292
 C586 C 0.11363 0.74403 1.11241
 C587 C 0.10402 0.72844 1.13754
 H588 H 0.15314 0.73361 1.08429
 H589 H 0.08524 0.73366 1.15171
 N590 N 0.20474 0.64355 1.12245
 N591 N 0.20447 0.62274 1.14329
 C592 C 0.22716 0.60368 1.13833
 C593 C 0.24269 0.61295 1.11316
 C594 C 0.22761 0.63829 1.10367
 H595 H 0.23228 0.58481 1.15244
 H596 H 0.23319 0.65235 1.08488
 H597 H 0.17596 0.66763 1.16700
 H598 H 0.15200 0.64363 1.14264
 N599 N 0.14281 1.12292 0.70429
 N600 N 0.12230 1.14385 0.70403
 C601 C 0.10334 1.13917 0.72692
 C602 C 0.11255 1.11397 0.74266
 C603 C 0.13771 1.10429 0.72731
 H604 H 0.08464 1.15351 0.73196
 H605 H 0.15186 1.08555 0.73267
 Cu606 Cu 0.12287 1.17600 0.67453
 Cu607 Cu 0.17593 1.12279 0.67624
 Cu608 Cu 0.17636 1.17709 0.62166
 N609 N 0.12286 1.20541 0.64228
 N610 N 0.14351 1.20541 0.62145
 C611 C 0.13876 1.22840 0.60271
 C612 C 0.11366 1.24401 0.61224
 C613 C 0.10416 1.22844 0.63743
 H614 H 0.15311 1.23361 0.58402
 H615 H 0.08541 1.23366 0.65165
 N616 N 0.20498 1.14372 0.62216
 N617 N 0.20482 1.12295 0.64305
 C618 C 0.22753 1.10393 0.63804
 C619 C 0.24295 1.11318 0.61279
 C620 C 0.22779 1.13847 0.60331
 H621 H 0.23274 1.08511 0.65219
 H622 H 0.23327 1.15249 0.58446
 H623 H 0.17629 1.16780 0.66678
 H624 H 0.15230 1.14371 0.64255
 N625 N 1.35796 0.62223 0.29701
 N626 N 1.37656 0.64482 0.29524
 C627 C 1.39517 0.64030 0.27204
 C628 C 1.38774 0.61344 0.25838
 C629 C 1.36403 0.60263 0.27509
 H630 H 1.41215 0.65596 0.26510
 H631 H 1.35139 0.58250 0.27113
 Cu632 Cu 1.37370 0.67895 0.32225
 Cu633 Cu 1.32506 0.62181 0.32513
 Cu634 Cu 1.32200 0.67852 0.37709
 N635 N 1.37505 0.70711 0.35553
 N636 N 1.35498 0.70664 0.37692
 C637 C 1.36033 0.72911 0.39609
 C638 C 1.38524 0.74487 0.38630
 C639 C 1.39400 0.72993 0.36046
 H640 H 1.34654 0.73380 0.41532
 H641 H 1.41233 0.73547 0.34580
 N642 N 1.29452 0.64419 0.37759
 N643 N 1.29591 0.62232 0.35794
 C644 C 1.27375 0.60281 0.36346
 C645 C 1.25739 0.61290 0.38774
 C646 C 1.27142 0.63919 0.39616
 H647 H 1.26948 0.58311 0.35025
 H648 H 1.26489 0.65412 0.41394
 H649 H 1.32117 0.66699 0.33260
 H650 H 1.34787 0.64638 0.35709
 N651 N 1.35688 1.12256 0.79624
 N652 N 1.37537 1.14522 0.79441
 C653 C 1.39409 1.14071 0.77132
 C654 C 1.38687 1.11374 0.75780
 C655 C 1.36315 1.10288 0.77445
 H656 H 1.41103 1.15642 0.76440
 H657 H 1.35067 1.08261 0.77060
 Cu658 Cu 1.37224 1.17939 0.82122
 Cu659 Cu 1.32403 1.12193 0.82442
 Cu660 Cu 1.32309 1.17714 0.87814
 N661 N 1.37490 1.20670 0.85504
 N662 N 1.35600 1.20538 0.87744
 C663 C 1.36213 1.22742 0.89689
 C664 C 1.38623 1.24368 0.88617
 C665 C 1.39376 1.22966 0.85951
 H666 H 1.34937 1.23164 0.91694
 H667 H 1.41110 1.23609 0.84401
 N668 N 1.29519 1.14313 0.87842
 N669 N 1.29567 1.12199 0.85794
 C670 C 1.27323 1.10275 0.86321
 C671 C 1.25760 1.11225 0.88820
 C672 C 1.27238 1.13791 0.89729
 H673 H 1.26822 1.08373 0.84929
 H674 H 1.26651 1.15233 0.91572
 H675 H 1.32023 1.16684 0.83346
 H676 H 1.34804 1.14553 0.85599
 N677 N 0.85674 0.62256 0.79581
 N678 N 0.87535 0.64514 0.79408
 C679 C 0.89415 0.64055 0.77105
 C680 C 0.88684 0.61363 0.75746
 C681 C 0.86299 0.60288 0.77402
 H682 H 0.91121 0.65617 0.76423
 H683 H 0.85042 0.58268 0.77011
 Cu684 Cu 0.87232 0.67928 0.82093
 Cu685 Cu 0.82382 0.62204 0.82397
 Cu686 Cu 0.82317 0.67712 0.87783
 N687 N 0.87501 0.70662 0.85473
 N688 N 0.85612 0.70531 0.87714
 C689 C 0.86226 0.72734 0.89660
 C690 C 0.88636 0.74359 0.88588
 C691 C 0.89389 0.72958 0.85921
 H692 H 0.84949 0.73157 0.91663
 H693 H 0.91123 0.73600 0.84371
 N694 N 0.79513 0.64324 0.87809
 N695 N 0.79546 0.62215 0.85753
 C696 C 0.77296 0.60299 0.86285
 C697 C 0.75746 0.61247 0.88793
 C698 C 0.77237 0.63805 0.89704
 H699 H 0.76784 0.58401 0.84890
 H700 H 0.76665 0.65240 0.91555
 H701 H 0.82025 0.66693 0.83312
 H702 H 0.84794 0.64541 0.85558
 N703 N 0.85662 1.12270 0.29570
 N704 N 0.87524 1.14527 0.29397
 C705 C 0.89406 1.14066 0.27096
 C706 C 0.88677 1.11373 0.25739
 C707 C 0.86290 1.10299 0.27394
 H708 H 0.91112 1.15627 0.26414
 H709 H 0.85033 1.08279 0.27004
 Cu710 Cu 0.87217 1.17945 0.32078
 Cu711 Cu 0.82367 1.12221 0.32383
 Cu712 Cu 0.82287 1.17742 0.37757
 N713 N 0.87481 1.20683 0.35455
 N714 N 0.85585 1.20558 0.37690
 C715 C 0.86197 1.22763 0.39634
 C716 C 0.88612 1.24384 0.38567
 C717 C 0.89370 1.22978 0.35905
 H718 H 0.84915 1.23189 0.41634
 H719 H 0.91110 1.23615 0.34359
 N720 N 0.79483 1.14353 0.37784
 N721 N 0.79523 1.12239 0.35735
 C722 C 0.77274 1.10321 0.36268
 C723 C 0.75718 1.11275 0.38771
 C724 C 0.77205 1.13837 0.39676
 H725 H 0.76768 1.08418 0.34878
 H726 H 0.76628 1.15277 0.41523
 H727 H 0.82006 1.16712 0.33287
 H728 H 0.84771 1.14566 0.35546
 N729 N 0.64250 0.37698 0.29571
 N730 N 0.62201 0.35604 0.29594
 C731 C 0.60306 0.36071 0.27304
 C732 C 0.61228 0.38592 0.25732
 C733 C 0.63741 0.39562 0.27271
 H734 H 0.58438 0.34635 0.26797
 H735 H 0.65155 0.41439 0.26737
 Cu736 Cu 0.62256 0.32386 0.32539
 Cu737 Cu 0.67559 0.37714 0.32376
 Cu738 Cu 0.67593 0.32292 0.37839
 N739 N 0.62250 0.29451 0.35769
 N740 N 0.64310 0.29459 0.37856
 C741 C 0.63833 0.27162 0.39733
 C742 C 0.61329 0.25595 0.38775
 C743 C 0.60382 0.27145 0.36252
 H744 H 0.65265 0.26648 0.41605
 H745 H 0.58512 0.26617 0.34826
 N746 N 0.70454 0.35629 0.37789
 N747 N 0.70441 0.37702 0.35697
 C748 C 0.72712 0.39605 0.36197
 C749 C 0.74251 0.38684 0.38724
 C750 C 0.72733 0.36157 0.39676
 H751 H 0.73237 0.41483 0.34778
 H752 H 0.73279 0.34757 0.41564
 H753 H 0.67596 0.33214 0.33327
 H754 H 0.65188 0.35624 0.35740
 N755 N 0.64322 0.87733 0.79594
 N756 N 0.62462 0.85474 0.79421
 C757 C 0.60578 0.85935 0.77123
 C758 C 0.61303 0.88630 0.75766
 C759 C 0.63690 0.89705 0.77418
 H760 H 0.58873 0.84372 0.76442
 H761 H 0.64945 0.91726 0.77027
 Cu762 Cu 0.62776 0.82055 0.82100
 Cu763 Cu 0.67622 0.87782 0.82401
 Cu764 Cu 0.67710 0.82258 0.87774
 N765 N 0.62516 0.79316 0.85479
 N766 N 0.64413 0.79441 0.87713
 C767 C 0.63804 0.77236 0.89659
 C768 C 0.61387 0.75615 0.88594
 C769 C 0.60627 0.77022 0.85932
 H770 H 0.65086 0.76809 0.91658
 H771 H 0.58886 0.76385 0.84387
 N772 N 0.70512 0.85649 0.87797
 N773 N 0.70470 0.87764 0.85747
 C774 C 0.72720 0.89681 0.86277
 C775 C 0.74279 0.88726 0.88778
 C776 C 0.72792 0.86164 0.89686
 H777 H 0.73226 0.91585 0.84887
 H778 H 0.73371 0.84723 0.91532
 H779 H 0.67987 0.83292 0.83304
 H780 H 0.65223 0.85433 0.85565
 N781 N 0.14252 0.37729 0.79689
 N782 N 0.12398 0.35466 0.79513
 C783 C 0.10531 0.35916 0.77198
 C784 C 0.11263 0.38606 0.75834
 C785 C 0.13635 0.39691 0.77501
 H786 H 0.08835 0.34348 0.76506
 H787 H 0.14894 0.41709 0.77105
 Cu788 Cu 0.12699 0.32051 0.82207
 Cu789 Cu 0.17547 0.37776 0.82499
 Cu790 Cu 0.17839 0.32113 0.87713
 N791 N 0.12540 0.29251 0.85548
 N792 N 0.14538 0.29303 0.87694
 C793 C 0.13991 0.27063 0.89618
 C794 C 0.11503 0.25487 0.88634
 C795 C 0.10640 0.26974 0.86041
 H796 H 0.15362 0.26599 0.91548
 H797 H 0.08814 0.26417 0.84567
 N798 N 0.20587 0.35547 0.87761
 N799 N 0.20456 0.37729 0.85788
 C800 C 0.22672 0.39680 0.86343
 C801 C 0.24298 0.38676 0.88780
 C802 C 0.22889 0.36050 0.89625
 H803 H 0.23105 0.41646 0.85017
 H804 H 0.23533 0.34562 0.91410
 H805 H 0.17945 0.33263 0.83263
 H806 H 0.15258 0.35323 0.85691
 N807 N 0.14210 0.87796 0.29719
 N808 N 0.12219 0.85646 0.29665
 C809 C 0.10349 0.86112 0.27354
 C810 C 0.11224 0.88691 0.25865
 C811 C 0.13683 0.89696 0.27453
 H812 H 0.08538 0.84636 0.26763
 H813 H 0.15053 0.91616 0.26959
 Cu814 Cu 0.12321 0.82362 0.32538
 Cu815 Cu 0.17502 0.87809 0.32529
 Cu816 Cu 0.17660 0.82259 0.37854
 N817 N 0.12324 0.79416 0.35759
 N818 N 0.14383 0.79417 0.37847
 C819 C 0.13906 0.77115 0.39717
 C820 C 0.11401 0.75551 0.38756
 C821 C 0.10456 0.77109 0.36236
 H822 H 0.15335 0.76599 0.41591
 H823 H 0.08583 0.76588 0.34811
 N824 N 0.20477 0.85637 0.37852
 N825 N 0.20404 0.87768 0.35822
 C826 C 0.22654 0.89688 0.36339
 C827 C 0.24246 0.88718 0.38812
 C828 C 0.22779 0.86144 0.39717
 H829 H 0.23132 0.91611 0.34964
 H830 H 0.23379 0.84694 0.41549
 H831 H 0.17643 0.83283 0.33369
 H832 H 0.15175 0.85567 0.35844
 O833 O 0.97133 0.89232 0.85060
 O834 O 0.97141 0.85746 0.81581
 C835 C 0.96113 0.88171 0.82634
 C836 C 0.93637 0.89721 0.81084
 C837 C 0.92497 0.88606 0.78379
 H838 H 0.93546 0.86684 0.77365
 O839 O 1.02922 1.10758 0.85072
 O840 O 1.02915 1.14207 0.81554
 C841 C 1.03944 1.11794 0.82635
 C842 C 1.06418 1.10230 0.81092
 C843 C 1.07611 1.11412 0.78231
 H844 H 1.06515 1.13331 0.77263
 O845 O 0.85168 0.97065 0.89195
 O846 O 0.81675 0.97053 0.85723
 C847 C 0.82737 0.96043 0.88155
 C848 C 0.81180 0.93597 0.89748
 C849 C 0.78452 0.92481 0.88678
 H850 H 0.77450 0.93511 0.86738
 O851 O 1.14848 1.02921 0.89156
 O852 O 1.18371 1.02912 0.85715
 C853 C 1.17293 1.03929 0.88137
 C854 C 1.18846 1.06366 0.89745
 C855 C 1.21582 1.07478 0.88691
 H856 H 1.22589 1.06454 0.86751
 O857 O 0.89260 0.85159 0.97058
 O858 O 0.85782 0.81677 0.97057
 C859 C 0.88201 0.82739 0.96023
 C860 C 0.89750 0.81196 0.93533
 C861 C 0.88630 0.78500 0.92386
 H862 H 0.86682 0.77518 0.93415
 O863 O 1.10742 1.14763 0.97067
 O864 O 1.14212 1.18252 0.97044
 C865 C 1.11792 1.17182 0.96021
 C866 C 1.10239 1.18722 0.93531
 C867 C 1.11449 1.21561 0.92320
 H868 H 1.13378 1.22507 0.93414
 O869 O 0.89251 1.02873 0.85076
 O870 O 0.85770 1.02865 0.81592
 C871 C 0.88195 1.03892 0.82647
 C872 C 0.89751 1.06362 0.81090
 C873 C 0.88641 1.07487 0.78377
 H874 H 0.86717 1.06436 0.77367
 O875 O 1.10776 0.97127 0.85024
 O876 O 1.14286 0.97099 0.81568
 C877 C 1.11848 0.96088 0.82612
 C878 C 1.10295 0.93610 0.81068
 C879 C 1.11408 0.92469 0.78365
 H880 H 1.13330 0.93517 0.77348
 O881 O 1.02932 0.85162 0.89197
 O882 O 1.02948 0.81662 0.85733
 C883 C 1.03955 0.82729 0.88163
 C884 C 1.06402 0.81177 0.89760
 C885 C 1.07517 0.78448 0.88694
 H886 H 1.06485 0.77442 0.86758
 O887 O 0.97113 1.14860 0.89163
 O888 O 0.97085 1.18321 0.85658
 C889 C 0.96077 1.17274 0.88099
 C890 C 0.93610 1.18821 0.89672
 C891 C 0.92470 1.21528 0.88572
 H892 H 0.93506 1.22532 0.86636
 O893 O 0.85166 1.10741 0.97044
 O894 O 0.81686 1.14219 0.97043
 C895 C 0.82742 1.11795 0.96016
 C896 C 0.81190 1.10233 0.93542
 C897 C 0.78482 1.11335 0.92407
 H898 H 0.77495 1.13281 0.93435
 O899 O 1.14844 0.89281 0.97068
 O900 O 1.18310 0.85788 0.97076
 C901 C 1.17259 0.88211 0.96037
 C902 C 1.18807 0.89751 0.93544
 C903 C 1.21502 0.88622 0.92402
 H904 H 1.22480 0.86675 0.93438
 O905 O 0.97093 1.10775 0.85062
 O906 O 0.97080 1.14225 0.81546
 C907 C 0.96061 1.11808 0.82626
 C908 C 0.93591 1.10231 0.81084
 C909 C 0.92445 1.11327 0.78374
 H910 H 0.93457 1.13279 0.77382
 O911 O 1.02961 0.89226 0.85071
 O912 O 1.02975 0.85738 0.81595
 C913 C 1.03994 0.88167 0.82648
 C914 C 1.06463 0.89733 0.81092
 C915 C 1.07613 0.88619 0.78391
 H916 H 1.06605 0.86657 0.77415
 O917 O 1.14862 0.97098 0.89114
 O918 O 1.18381 0.97086 0.85667
 C919 C 1.17295 0.96063 0.88083
 C920 C 1.18825 0.93586 0.89660
 C921 C 1.21524 0.92427 0.88556
 H922 H 1.22536 0.93452 0.86617
 O923 O 0.85162 1.02887 0.89165
 O924 O 0.81670 1.02879 0.85691
 C925 C 0.82733 1.03909 0.88114
 C926 C 0.81185 1.06379 0.89679
 C927 C 0.78473 1.07511 0.88580
 H928 H 0.77461 1.06467 0.86653
 O929 O 0.89253 1.14834 0.97043
 O930 O 0.85781 1.18321 0.97044
 C931 C 0.88202 1.17260 0.96017
 C932 C 0.89763 1.18812 0.93541
 C933 C 0.88654 1.21518 0.92407
 H934 H 0.86713 1.22507 0.93443
 O935 O 1.10761 0.85188 0.97106
 O936 O 1.14219 0.81687 0.97126
 C937 C 1.11800 0.82749 0.96098
 C938 C 1.10230 0.81185 0.93642
 C939 C 1.11313 0.78454 0.92547
 H940 H 1.13230 0.77448 0.93611
 O941 O 1.10848 1.02956 0.84964
 O942 O 1.14360 1.02932 0.81511
 C943 C 1.11929 1.03968 0.82540
 C944 C 1.10378 1.06433 0.80963
 C945 C 1.11438 1.07536 0.78372
 H946 H 1.13387 1.06522 0.77379
 O947 O 0.89244 0.97046 0.85082
 O948 O 0.85761 0.97033 0.81600
 C949 C 0.88189 0.96015 0.82657
 C950 C 0.89757 0.93550 0.81102
 C951 C 0.88647 0.92400 0.78400
 H952 H 0.86686 0.93409 0.77422
 O953 O 1.02944 1.14909 0.89096
 O954 O 1.02920 1.18367 0.85588
 C955 C 1.03962 1.17326 0.88016
 C956 C 1.06446 1.18878 0.89559
 C957 C 1.07586 1.21441 0.88475
 H958 H 1.06587 1.22438 0.86516
 O959 O 0.97108 0.85152 0.89155
 O960 O 0.97118 0.81655 0.85687
 C961 C 0.96083 0.82724 0.88106
 C962 C 0.93601 0.81185 0.89665
 C963 C 0.92449 0.78486 0.88553
 H964 H 0.93482 0.77477 0.86618
 O965 O 1.14848 1.10692 0.97120
 O966 O 1.18326 1.14174 0.97113
 C967 C 1.17276 1.11742 0.96100
 C968 C 1.18842 1.10175 0.93646
 C969 C 1.21579 1.11253 0.92564
 H970 H 1.22590 1.13160 0.93641
 O971 O 0.85174 0.89249 0.97106
 O972 O 0.81689 0.85774 0.97111
 C973 C 0.82743 0.88201 0.96091
 C974 C 0.81181 0.89770 0.93634
 C975 C 0.78451 0.88688 0.92536
 H976 H 0.77443 0.86772 0.93601
 Cu977 Cu 1.00034 0.87543 0.87468
 Cu978 Cu 1.00050 0.83351 0.83300
 Cu979 Cu 1.00019 1.12481 0.87450
 Cu980 Cu 0.99995 1.16627 0.83234
 Cu981 Cu 0.87556 0.99967 0.87477
 Cu982 Cu 0.83370 0.99955 0.83301
 Cu983 Cu 1.12481 1.00031 0.87408
 Cu984 Cu 1.16701 1.00008 0.83268
 C985 C 0.92270 0.92211 0.82409
 H986 H 0.93108 0.93051 0.84518
 C987 C 0.89988 0.89916 0.77021
 C988 C 1.07728 1.07841 0.82351
 H989 H 1.06916 1.06977 0.84461
 C990 C 1.10023 1.10176 0.76909
 C991 C 0.82511 0.92244 0.92245
 H992 H 0.84640 0.93058 0.93050
 C993 C 0.77069 0.90011 0.90042
 C994 C 1.17509 1.07712 0.92242
 H995 H 1.15374 1.06901 0.93035
 C996 C 1.22965 1.09938 0.90071
 C997 C 0.92252 0.82505 0.92172
 H998 H 0.93098 0.84608 0.93013
 C999 C 0.89949 0.77126 0.89884
 C1000 C 1.07838 1.17487 0.92224
 H1001 H 1.06951 1.15395 0.93050
 C1002 C 1.10238 1.22876 0.89886
 C1003 C 0.92244 1.07730 0.82409
 H1004 H 0.93082 1.06904 0.84525
 C1005 C 0.89956 1.09985 0.77003
 C1006 C 1.07804 0.92246 0.82396
 H1007 H 1.06964 0.93086 0.84505
 C1008 C 1.10098 0.89959 0.77010
 C1009 C 1.07756 0.82513 0.92252
 H1010 H 1.06941 0.84643 0.93055
 C1011 C 1.09988 0.77068 0.90057
 C1012 C 0.92258 1.17498 0.92175
 H1013 H 0.93093 1.15386 0.93006
 C1014 C 0.89977 1.22894 0.89908
 C1015 C 0.82508 1.07738 0.92178
 H1016 H 0.84621 1.06907 0.93008
 C1017 C 0.77105 1.10003 0.89913
 C1018 C 1.17501 0.92249 0.92171
 H1019 H 1.15398 0.93101 0.93006
 C1020 C 1.22878 0.89930 0.89895
 O1021 O 1.02885 0.89209 1.14972
 O1022 O 1.02887 0.85721 1.18451
 C1023 C 1.03907 0.88151 1.17397
 C1024 C 1.06372 0.89715 1.18951
 C1025 C 1.07478 0.88633 1.21682
 H1026 H 1.06418 0.86718 1.22699
 O1027 O 0.97119 1.10751 1.14928
 O1028 O 0.97117 1.14240 1.18404
 C1029 C 0.96094 1.11813 1.17353
 C1030 C 0.93621 1.10260 1.18905
 C1031 C 0.92484 1.11373 1.21611
 H1032 H 0.93532 1.13298 1.22621
 O1033 O 0.85164 1.02927 1.10792
 O1034 O 0.81680 1.02927 1.14273
 C1035 C 0.82738 1.03949 1.11843
 C1036 C 0.81187 1.06413 1.10270
 C1037 C 0.78481 1.07551 1.11373
 H1038 H 0.77482 1.06516 1.13312
 O1039 O 1.14867 0.97060 1.10851
 O1040 O 1.18356 0.97053 1.14327
 C1041 C 1.17298 0.96040 1.11895
 C1042 C 1.18855 0.93591 1.10308
 C1043 C 1.21568 0.92455 1.11396
 H1044 H 1.22564 0.93472 1.13346
 O1045 O 1.10749 0.85242 1.02941
 O1046 O 1.14209 0.81742 1.02961
 C1047 C 1.11789 0.82816 1.03981
 C1048 C 1.10221 0.81269 1.06455
 C1049 C 1.11395 0.78399 1.07629
 H1050 H 1.13314 0.77442 1.06526
 O1051 O 0.89265 1.14819 1.02885
 O1052 O 0.85796 1.18309 1.02885
 C1053 C 0.88217 1.17246 1.03912
 C1054 C 0.89783 1.18795 1.06386
 C1055 C 0.88704 1.21524 1.07492
 H1056 H 0.86787 1.22534 1.06432
 O1057 O 0.89254 0.97105 1.14882
 O1058 O 0.85778 0.97087 1.18372
 C1059 C 0.88199 0.96066 1.17304
 C1060 C 0.89747 0.93581 1.18844
 C1061 C 0.88516 0.92349 1.21670
 H1062 H 0.86575 0.93423 1.22618
 O1063 O 1.10772 1.02865 1.14956
 O1064 O 1.14249 1.02866 1.18444
 C1065 C 1.11827 1.03891 1.17383
 C1066 C 1.10273 1.06369 1.18925
 C1067 C 1.11384 1.07512 1.21630
 H1068 H 1.13305 1.06465 1.22647
 O1069 O 0.97095 0.85127 1.10841
 O1070 O 0.97079 0.81626 1.14306
 C1071 C 0.96074 0.82693 1.11873
 C1072 C 0.93633 0.81139 1.10269
 C1073 C 0.92521 0.78405 1.11327
 H1074 H 0.93548 0.77399 1.13266
 O1075 O 1.02925 1.14832 1.10807
 O1076 O 1.02929 1.18333 1.14271
 C1077 C 1.03942 1.17268 1.11842
 C1078 C 1.06386 1.18825 1.10248
 C1079 C 1.07502 1.21554 1.11315
 H1080 H 1.06474 1.22557 1.13255
 O1081 O 0.85194 0.89218 1.02945
 O1082 O 0.81715 0.85738 1.02948
 C1083 C 0.82773 0.88160 1.03978
 C1084 C 0.81222 0.89717 1.06458
 C1085 C 0.78524 0.88599 1.07604
 H1086 H 0.77547 0.86644 1.06583
 O1087 O 1.14821 1.10729 1.02960
 O1088 O 1.18292 1.14217 1.02951
 C1089 C 1.17237 1.11797 1.03992
 C1090 C 1.18785 1.10254 1.06484
 C1091 C 1.21478 1.11381 1.07631
 H1092 H 1.22455 1.13332 1.06602
 O1093 O 1.02947 1.10750 1.14915
 O1094 O 1.02951 1.14239 1.18390
 C1095 C 1.03975 1.11811 1.17339
 C1096 C 1.06442 1.10248 1.18898
 C1097 C 1.07590 1.11363 1.21599
 H1098 H 1.06582 1.13325 1.22573
 O1099 O 0.97054 0.89147 1.15013
 O1100 O 0.97057 0.85653 1.18485
 C1101 C 0.96029 0.88080 1.17438
 C1102 C 0.93554 0.89632 1.18996
 C1103 C 0.92417 0.88549 1.21563
 H1104 H 0.93417 0.86589 1.22549
 O1105 O 1.14850 1.02885 1.10862
 O1106 O 1.18339 1.02887 1.14338
 C1107 C 1.17272 1.03917 1.11915
 C1108 C 1.18807 1.06402 1.10354
 C1109 C 1.21502 1.07561 1.11465
 H1110 H 1.22513 1.06530 1.13401
 O1111 O 0.85156 0.97100 1.10809
 O1112 O 0.81669 0.97094 1.14288
 C1113 C 0.82733 0.96068 1.11864
 C1114 C 0.81196 0.93585 1.10306
 C1115 C 0.78495 0.92437 1.11416
 H1116 H 0.77480 0.93479 1.13344
 O1117 O 1.10734 1.14818 1.02904
 O1118 O 1.14198 1.18314 1.02880
 C1119 C 1.11776 1.17256 1.03907
 C1120 C 1.10208 1.18822 1.06361
 C1121 C 1.11292 1.21553 1.07455
 H1122 H 1.13207 1.22559 1.06389
 O1123 O 0.89294 0.85139 1.02900
 O1124 O 0.85822 0.81651 1.02896
 C1125 C 0.88249 0.82707 1.03915
 C1126 C 0.89818 0.81143 1.06373
 C1127 C 0.88740 0.78408 1.07460
 H1128 H 0.86830 0.77397 1.06387
 O1129 O 1.10774 0.97037 1.14948
 O1130 O 1.14250 0.97032 1.18438
 C1131 C 1.11824 0.96011 1.17379
 C1132 C 1.10247 0.93550 1.18938
 C1133 C 1.11323 0.92433 1.21668
 H1134 H 1.13261 0.93466 1.22667
 O1135 O 0.89234 1.02934 1.14908
 O1136 O 0.85762 1.02926 1.18401
 C1137 C 0.88184 1.03954 1.17340
 C1138 C 0.89750 1.06422 1.18896
 C1139 C 0.88640 1.07572 1.21599
 H1140 H 0.86681 1.06561 1.22581
 O1141 O 0.97104 1.14810 1.10808
 O1142 O 0.97104 1.18311 1.14272
 C1143 C 0.96080 1.17241 1.11848
 C1144 C 0.93619 1.18791 1.10267
 C1145 C 0.92506 1.21519 1.11341
 H1146 H 0.93544 1.22526 1.13274
 O1147 O 1.02922 0.85081 1.10920
 O1148 O 1.02902 0.81586 1.14392
 C1149 C 1.03939 0.82650 1.11972
 C1150 C 1.06411 0.81100 1.10409
 C1151 C 1.07509 0.78503 1.11449
 H1152 H 1.06487 0.77488 1.13387
 O1153 O 1.14880 0.89286 1.02912
 O1154 O 1.18349 0.85795 1.02919
 C1155 C 1.17302 0.88225 1.03938
 C1156 C 1.18859 0.89778 1.06410
 C1157 C 1.21573 0.88675 1.07527
 H1158 H 1.22574 0.86755 1.06465
 O1159 O 0.85156 1.10752 1.02886
 O1160 O 0.81678 1.14233 1.02886
 C1161 C 0.82733 1.11809 1.03914
 C1162 C 0.81184 1.10254 1.06394
 C1163 C 0.78480 1.11363 1.07533
 H1164 H 0.77488 1.13302 1.06496
 Cu1165 Cu 0.99988 0.87491 1.12590
 Cu1166 Cu 0.99979 0.83297 1.16758
 Cu1167 Cu 1.00025 1.12435 1.12519
 Cu1168 Cu 1.00026 1.16630 1.16684
 Cu1169 Cu 0.87579 0.87540 1.00002
 Cu1170 Cu 0.83404 0.83360 1.00004
 Cu1171 Cu 1.12463 0.87601 1.00006
 Cu1172 Cu 1.16620 0.83404 1.00022
 Cu1173 Cu 0.87557 1.12437 0.99964
 Cu1174 Cu 0.83387 1.16620 0.99964
 Cu1175 Cu 1.12439 1.12401 1.00014
 Cu1176 Cu 1.16606 1.16589 0.99995
 Cu1177 Cu 0.87550 1.00020 1.12500
 Cu1178 Cu 0.83373 1.00010 1.16684
 Cu1179 Cu 1.12468 0.99959 1.12556
 Cu1180 Cu 1.16648 0.99956 1.16737
 C1181 C 1.07753 0.92192 1.17613
 H1182 H 1.06941 0.93008 1.15484
 C1183 C 1.09966 0.89961 1.23060
 C1184 C 0.92258 1.07766 1.17584
 H1185 H 0.93095 1.06926 1.15474
 C1186 C 0.89979 1.10061 1.22974
 C1187 C 0.82503 1.07761 1.07762
 H1188 H 0.84614 1.06926 1.06929
 C1189 C 0.77110 1.10042 1.10036
 C1190 C 1.17535 0.92255 1.07797
 H1191 H 1.15417 0.93086 1.06977
 C1192 C 1.22946 0.89981 1.10034
 C1193 C 1.07831 0.82515 1.07773
 H1194 H 1.06970 0.84629 1.06974
 C1195 C 1.10149 0.77056 1.10029
 C1196 C 0.92258 1.17462 1.07772
 H1197 H 0.93073 1.15335 1.06961
 C1198 C 0.90036 1.22905 1.09983
 C1199 C 0.92161 0.92292 1.17612
 H1200 H 0.93059 0.93131 1.15526
 C1201 C 0.89743 0.89930 1.22988
 C1202 C 1.07783 1.07733 1.17596
 H1203 H 1.06945 1.06892 1.15487
 C1204 C 1.10075 1.10024 1.22982
 C1205 C 0.92284 0.82475 1.07772
 H1206 H 0.93095 0.84610 1.06975
 C1207 C 0.90058 0.77022 1.09953
 C1208 C 1.07736 1.17493 1.07752
 H1209 H 1.06921 1.15364 1.06949
 C1210 C 1.09972 1.22936 1.09949
 C1211 C 0.82525 0.92226 1.07810
 H1212 H 0.84630 0.93070 1.06971
 C1213 C 0.77141 0.89930 1.10095
 C1214 C 1.17483 1.07748 1.07846
 H1215 H 1.15382 1.06897 1.07006
 C1216 C 1.22856 1.10065 1.10134
 O1217 O 1.10738 0.52861 0.64975
 O1218 O 1.14219 0.52856 0.68459
 C1219 C 1.11797 0.53884 0.67401
 C1220 C 1.10249 0.56366 0.68943
 C1221 C 1.11362 0.57506 0.71647
 H1222 H 1.13279 0.56452 0.72666
 O1223 O 0.89256 0.47100 0.64881
 O1224 O 0.85779 0.47085 0.68369
 C1225 C 0.88200 0.46061 0.67303
 C1226 C 0.89747 0.43574 0.68842
 C1227 C 0.88514 0.42337 0.71665
 H1228 H 0.86572 0.43408 0.72613
 O1229 O 1.02912 0.64837 0.60803
 O1230 O 1.02925 0.68335 0.64270
 C1231 C 1.03934 0.67270 0.61839
 C1232 C 1.06382 0.68820 0.60245
 C1233 C 1.07499 0.71550 0.61309
 H1234 H 1.06466 0.72559 0.63243
 O1235 O 0.97087 0.35132 0.60827
 O1236 O 0.97065 0.31625 0.64287
 C1237 C 0.96060 0.32698 0.61856
 C1238 C 0.93615 0.31151 0.60253
 C1239 C 0.92501 0.28419 0.61313
 H1240 H 0.93530 0.27411 0.63250
 O1241 O 1.14830 0.60700 0.52968
 O1242 O 1.18299 0.64190 0.52962
 C1243 C 1.17244 0.61770 0.54002
 C1244 C 1.18787 0.60231 0.56500
 C1245 C 1.21479 0.61358 0.57647
 H1246 H 1.22460 0.63305 0.56613
 O1247 O 0.85165 0.39238 0.52924
 O1248 O 0.81689 0.35754 0.52933
 C1249 C 0.82747 0.38177 0.53961
 C1250 C 0.81201 0.39731 0.56445
 C1251 C 0.78504 0.38615 0.57593
 H1252 H 0.77523 0.36663 0.56570
 O1253 O 0.97111 0.60758 0.64927
 O1254 O 0.97117 0.64241 0.68409
 C1255 C 0.96092 0.61815 0.67355
 C1256 C 0.93621 0.60259 0.68907
 C1257 C 0.92486 0.61368 0.71615
 H1258 H 0.93535 0.63292 0.72627
 O1259 O 1.02885 0.39189 0.64974
 O1260 O 1.02880 0.35695 0.68446
 C1261 C 1.03904 0.38125 0.67399
 C1262 C 1.06372 0.39683 0.68957
 C1263 C 1.07491 0.38581 0.71675
 H1264 H 1.06436 0.36661 0.72689
 O1265 O 1.14820 0.47061 0.60856
 O1266 O 1.18315 0.47045 0.64326
 C1267 C 1.17252 0.46038 0.61893
 C1268 C 1.18805 0.43594 0.60295
 C1269 C 1.21522 0.42458 0.61373
 H1270 H 1.22517 0.43464 0.63329
 O1271 O 0.85175 0.52921 0.60784
 O1272 O 0.81687 0.52926 0.64261
 C1273 C 0.82747 0.53944 0.61830
 C1274 C 0.81195 0.56400 0.60247
 C1275 C 0.78472 0.57521 0.61326
 H1276 H 0.77471 0.56488 0.63266
 O1277 O 0.89261 0.64858 0.52915
 O1278 O 0.85781 0.68337 0.52920
 C1279 C 0.88201 0.67276 0.53952
 C1280 C 0.89748 0.68816 0.56445
 C1281 C 0.88624 0.71509 0.57595
 H1282 H 0.86678 0.72493 0.56564
 O1283 O 1.10706 0.35233 0.52921
 O1284 O 1.14180 0.31747 0.52929
 C1285 C 1.11758 0.32810 0.53955
 C1286 C 1.10199 0.31257 0.56431
 C1287 C 1.11382 0.28392 0.57606
 H1288 H 1.13302 0.27438 0.56501
 O1289 O 0.89237 0.52930 0.64909
 O1290 O 0.85762 0.52925 0.68400
 C1291 C 0.88185 0.53952 0.67341
 C1292 C 0.89751 0.56419 0.68897
 C1293 C 0.88643 0.57566 0.71602
 H1294 H 0.86686 0.56553 0.72585
 O1295 O 1.10754 0.47030 0.64978
 O1296 O 1.14235 0.47017 0.68461
 C1297 C 1.11809 0.45997 0.67403
 C1298 C 1.10240 0.43525 0.68956
 C1299 C 1.11333 0.42386 0.71671
 H1300 H 1.13282 0.43404 0.72663
 O1301 O 1.02914 0.35070 0.60912
 O1302 O 1.02889 0.31568 0.64377
 C1303 C 1.03928 0.32635 0.61960
 C1304 C 1.06397 0.31085 0.60393
 C1305 C 1.07503 0.28492 0.61435
 H1306 H 1.06488 0.27479 0.63377
 O1307 O 0.97089 0.64847 0.60838
 O1308 O 0.97095 0.68341 0.64309
 C1309 C 0.96063 0.67274 0.61888
 C1310 C 0.93586 0.68817 0.60325
 C1311 C 0.92430 0.71513 0.61441
 H1312 H 0.93456 0.72516 0.63383
 O1313 O 0.85180 0.60762 0.52882
 O1314 O 0.81693 0.64234 0.52886
 C1315 C 0.82751 0.61807 0.53905
 C1316 C 0.81195 0.60237 0.56368
 C1317 C 0.78472 0.61323 0.57477
 H1318 H 0.77466 0.63244 0.56419
 O1319 O 1.14818 0.39294 0.52900
 O1320 O 1.18301 0.35818 0.52888
 C1321 C 1.17247 0.38241 0.53916
 C1322 C 1.18805 0.39793 0.56386
 C1323 C 1.21527 0.38695 0.57488
 H1324 H 1.22536 0.36787 0.56412
 O1325 O 0.97054 0.39143 0.65007
 O1326 O 0.97051 0.35643 0.68473
 C1327 C 0.96027 0.38073 0.67430
 C1328 C 0.93554 0.39625 0.68990
 C1329 C 0.92417 0.38539 0.71554
 H1330 H 0.93416 0.36578 0.72538
 O1331 O 1.02937 0.60772 0.64927
 O1332 O 1.02949 0.64257 0.68405
 C1333 C 1.03967 0.61828 0.67352
 C1334 C 1.06431 0.60258 0.68912
 C1335 C 1.07582 0.61371 0.71613
 H1336 H 1.06580 0.63337 0.72586
 O1337 O 0.85155 0.47096 0.60810
 O1338 O 0.81667 0.47095 0.64288
 C1339 C 0.82730 0.46069 0.61863
 C1340 C 0.81188 0.43590 0.60303
 C1341 C 0.78487 0.42442 0.61416
 H1342 H 0.77478 0.43480 0.63348
 O1343 O 1.14830 0.52884 0.60894
 O1344 O 1.18324 0.52877 0.64366
 C1345 C 1.17257 0.53910 0.61945
 C1346 C 1.18797 0.56391 0.60382
 C1347 C 1.21492 0.57551 0.61495
 H1348 H 1.22498 0.56526 0.63436
 O1349 O 0.89262 0.35155 0.52885
 O1350 O 0.85794 0.31663 0.52885
 C1351 C 0.88220 0.32722 0.53904
 C1352 C 0.89791 0.31160 0.56363
 C1353 C 0.88713 0.28425 0.57453
 H1354 H 0.86801 0.27415 0.56384
 O1355 O 1.10748 0.64794 0.52915
 O1356 O 1.14210 0.68292 0.52893
 C1357 C 1.11787 0.67234 0.53918
 C1358 C 1.10215 0.68804 0.56368
 C1359 C 1.11300 0.71535 0.57460
 H1360 H 1.13220 0.72537 0.56398
 Cu1361 Cu 1.12436 0.49957 0.62579
 Cu1362 Cu 1.16622 0.49945 0.66753
 Cu1363 Cu 0.87555 0.50015 0.62499
 Cu1364 Cu 0.83375 0.50010 0.66680
 Cu1365 Cu 1.00013 0.62454 0.62526
 Cu1366 Cu 1.00025 0.66643 0.66698
 Cu1367 Cu 0.99986 0.37484 0.62584
 Cu1368 Cu 0.99968 0.33283 0.66744
 C1369 C 1.07765 0.57739 0.67611
 H1370 H 1.06924 0.56900 0.65502
 C1371 C 1.10061 0.60023 0.72998
 C1372 C 0.92162 0.42287 0.67609
 H1373 H 0.93061 0.43128 0.65524
 C1374 C 0.89741 0.39917 0.72980
 C1375 C 1.07738 0.67481 0.57756
 H1376 H 1.06922 0.65350 0.56955
 C1377 C 1.09974 0.72925 0.59947
 C1378 C 0.92261 0.32490 0.57759
 H1379 H 0.93074 0.34623 0.56960
 C1380 C 0.90035 0.27038 0.59944
 C1381 C 1.17480 0.57731 0.57867
 H1382 H 1.15380 0.56879 0.57025
 C1383 C 1.22851 0.60049 0.60157
 C1384 C 0.82509 0.42236 0.57800
 H1385 H 0.84614 0.43079 0.56960
 C1386 C 0.77128 0.39940 0.60091
 C1387 C 0.92258 0.57765 0.67585
 H1388 H 0.93093 0.56928 0.65473
 C1389 C 0.89983 0.60054 0.72979
 C1390 C 1.07742 0.42173 0.67633
 H1391 H 1.06918 0.43004 0.65514
 C1392 C 1.09985 0.39902 0.73049
 C1393 C 1.17480 0.42263 0.57784
 H1394 H 1.15358 0.43091 0.56973
 C1395 C 1.22901 0.39993 0.59997
 C1396 C 0.82523 0.57757 0.57750
 H1397 H 0.84647 0.56939 0.56936
 C1398 C 0.77093 0.59998 0.59971
 C1399 C 0.92246 0.67504 0.57810
 H1400 H 0.93094 0.65403 0.56966
 C1401 C 0.89934 0.72876 0.60106
 C1402 C 1.07808 0.32499 0.57752
 H1403 H 1.06941 0.34610 0.56954
 C1404 C 1.10144 0.27049 0.60011
 O1405 O 1.10794 0.47127 0.35032
 O1406 O 1.14280 0.47119 0.31552
 C1407 C 1.11851 0.46099 0.32610
 C1408 C 1.10290 0.43627 0.31066
 C1409 C 1.11398 0.42485 0.28361
 H1410 H 1.13324 0.43528 0.27347
 O1411 O 0.89207 0.52876 0.35083
 O1412 O 0.85708 0.52910 0.31616
 C1413 C 0.88144 0.53916 0.32666
 C1414 C 0.89709 0.56384 0.31116
 C1415 C 0.88606 0.57510 0.28402
 H1416 H 0.86683 0.56461 0.27389
 O1417 O 0.97096 0.64883 0.39179
 O1418 O 0.97075 0.68344 0.35674
 C1419 C 0.96067 0.67301 0.38117
 C1420 C 0.93609 0.68858 0.39693
 C1421 C 0.92470 0.71565 0.38592
 H1422 H 0.93500 0.72563 0.36649
 O1423 O 1.02906 0.35185 0.39182
 O1424 O 1.02908 0.31702 0.35700
 C1425 C 1.03923 0.32755 0.38134
 C1426 C 1.06371 0.31198 0.39723
 C1427 C 1.07492 0.28473 0.38650
 H1428 H 1.06465 0.27471 0.36709
 O1429 O 1.14778 0.39306 0.47062
 O1430 O 1.18260 0.35828 0.47049
 C1431 C 1.17198 0.38252 0.46025
 C1432 C 1.18750 0.39812 0.43547
 C1433 C 1.21614 0.38629 0.42371
 H1434 H 1.22568 0.36709 0.43476
 O1435 O 0.85185 0.60787 0.47043
 O1436 O 0.81701 0.64262 0.47050
 C1437 C 0.82760 0.61842 0.46018
 C1438 C 0.81202 0.60284 0.43543
 C1439 C 0.78503 0.61405 0.42403
 H1440 H 0.77530 0.63362 0.43424
 O1441 O 1.02893 0.60760 0.35094
 O1442 O 1.02893 0.64210 0.31578
 C1443 C 1.03917 0.61795 0.32657
 C1444 C 1.06386 0.60227 0.31111
 C1445 C 1.07567 0.61405 0.28242
 H1446 H 1.06468 0.63322 0.27274
 O1447 O 0.97114 0.39299 0.35089
 O1448 O 0.97095 0.35833 0.31590
 C1449 C 0.96080 0.38255 0.32661
 C1450 C 0.93608 0.39821 0.31119
 C1451 C 0.92427 0.38650 0.28249
 H1452 H 0.93534 0.36742 0.27275
 O1453 O 1.14875 0.52923 0.39147
 O1454 O 1.18371 0.52945 0.35677
 C1455 C 1.17306 0.53949 0.38112
 C1456 C 1.18857 0.56390 0.39716
 C1457 C 1.21577 0.57525 0.38647
 H1458 H 1.22572 0.56523 0.36688
 O1459 O 0.85111 0.47062 0.39176
 O1460 O 0.81602 0.47082 0.35720
 C1461 C 0.82674 0.46051 0.38140
 C1462 C 0.81125 0.43593 0.39723
 C1463 C 0.78407 0.42462 0.38641
 H1464 H 0.77403 0.43491 0.36701
 O1465 O 1.10749 0.64734 0.47080
 O1466 O 1.14213 0.68229 0.47060
 C1467 C 1.11794 0.67157 0.46038
 C1468 C 1.10232 0.68703 0.43559
 C1469 C 1.11415 0.71564 0.42376
 H1470 H 1.13338 0.72517 0.43477
 O1471 O 0.89232 0.35177 0.47042
 O1472 O 0.85760 0.31690 0.47045
 C1473 C 0.88177 0.32756 0.46009
 C1474 C 0.89726 0.31216 0.43518
 C1475 C 0.88608 0.28520 0.42370
 H1476 H 0.86662 0.27535 0.43400
 O1477 O 0.89141 0.47053 0.35013
 O1478 O 0.85641 0.47086 0.31549
 C1479 C 0.88071 0.46051 0.32582
 C1480 C 0.89634 0.43602 0.30998
 C1481 C 0.88585 0.42510 0.28400
 H1482 H 0.86636 0.43523 0.27406
 O1483 O 1.10855 0.52956 0.34975
 O1484 O 1.14341 0.52948 0.31496
 C1485 C 1.11914 0.53974 0.32544
 C1486 C 1.10347 0.56433 0.30974
 C1487 C 1.11393 0.57530 0.28375
 H1488 H 1.13336 0.56513 0.27374
 O1489 O 0.97084 0.35179 0.39145
 O1490 O 0.97077 0.31700 0.35660
 C1491 C 0.96051 0.32758 0.38086
 C1492 C 0.93572 0.31214 0.39645
 C1493 C 0.92421 0.28515 0.38531
 H1494 H 0.93452 0.27511 0.36592
 O1495 O 1.02923 0.64902 0.39128
 O1496 O 1.02907 0.68363 0.35622
 C1497 C 1.03944 0.67320 0.38052
 C1498 C 1.06422 0.68873 0.39604
 C1499 C 1.07532 0.71461 0.38550
 H1500 H 1.06517 0.72470 0.36607
 O1501 O 0.85130 0.39251 0.47082
 O1502 O 0.81651 0.35771 0.47093
 C1503 C 0.82701 0.38197 0.46067
 C1504 C 0.81137 0.39759 0.43603
 C1505 C 0.78419 0.38660 0.42491
 H1506 H 0.77423 0.36732 0.43546
 O1507 O 1.14868 0.60677 0.47123
 O1508 O 1.18341 0.64165 0.47120
 C1509 C 1.17293 0.61735 0.46102
 C1510 C 1.18855 0.60181 0.43635
 C1511 C 1.21580 0.61278 0.42541
 H1512 H 1.22593 0.63180 0.43625
 O1513 O 1.02942 0.39257 0.35067
 O1514 O 1.02933 0.35788 0.31572
 C1515 C 1.03965 0.38206 0.32636
 C1516 C 1.06441 0.39765 0.31083
 C1517 C 1.07587 0.38651 0.28380
 H1518 H 1.06572 0.36695 0.27400
 O1519 O 0.97062 0.60782 0.35094
 O1520 O 0.97057 0.64232 0.31577
 C1521 C 0.96032 0.61817 0.32658
 C1522 C 0.93558 0.60246 0.31115
 C1523 C 0.92417 0.61343 0.28402
 H1524 H 0.93436 0.63291 0.27410
 O1525 O 0.85114 0.52892 0.39165
 O1526 O 0.81606 0.52914 0.35708
 C1527 C 0.82688 0.53932 0.38127
 C1528 C 0.81163 0.56416 0.39695
 C1529 C 0.78460 0.57567 0.38593
 H1530 H 0.77438 0.56526 0.36669
 O1531 O 1.14934 0.47098 0.39071
 O1532 O 1.18428 0.47120 0.35598
 C1533 C 1.17366 0.46084 0.38019
 C1534 C 1.18919 0.43614 0.39585
 C1535 C 1.21511 0.42509 0.38542
 H1536 H 1.22522 0.43524 0.36599
 O1537 O 1.10712 0.35195 0.47085
 O1538 O 1.14184 0.31708 0.47091
 C1539 C 1.11760 0.32764 0.46069
 C1540 C 1.10195 0.31202 0.43609
 C1541 C 1.11283 0.28476 0.42509
 H1542 H 1.13200 0.27471 0.43574
 O1543 O 0.89272 0.64880 0.47069
 O1544 O 0.85795 0.68362 0.47076
 C1545 C 0.88219 0.67307 0.46048
 C1546 C 0.89777 0.68861 0.43574
 C1547 C 0.88668 0.71567 0.42441
 H1548 H 0.86732 0.72559 0.43482
 Cu1549 Cu 1.12515 0.50028 0.37403
 Cu1550 Cu 1.16704 0.50036 0.33231
 Cu1551 Cu 0.87493 0.49964 0.37457
 Cu1552 Cu 0.83287 0.49999 0.33302
 Cu1553 Cu 1.12453 0.62375 0.50023
 Cu1554 Cu 1.16615 0.66568 0.50007
 Cu1555 Cu 1.12406 0.37606 0.49992
 Cu1556 Cu 1.16581 0.33426 0.49989
 Cu1557 Cu 0.87575 0.62475 0.49976
 Cu1558 Cu 0.83395 0.66648 0.49983
 Cu1559 Cu 0.87545 0.37554 0.49983
 Cu1560 Cu 0.83376 0.33370 0.49991
 Cu1561 Cu 0.99993 0.62486 0.37475
 Cu1562 Cu 0.99980 0.66633 0.33260
 Cu1563 Cu 1.00014 0.37578 0.37469
 Cu1564 Cu 1.00004 0.33408 0.33279
 C1565 C 1.07793 0.42271 0.32392
 H1566 H 1.06956 0.43111 0.34502
 C1567 C 1.10079 0.39982 0.27003
 C1568 C 0.92203 0.57748 0.32440
 H1569 H 0.93035 0.56921 0.34557
 C1570 C 0.89928 0.60004 0.27029
 C1571 C 0.92265 0.67542 0.42203
 H1572 H 0.93099 0.65430 0.43034
 C1573 C 0.89983 0.72937 0.39936
 C1574 C 1.07720 0.32528 0.42221
 H1575 H 1.06902 0.34654 0.43030
 C1576 C 1.09964 0.27094 0.40015
 C1577 C 1.17507 0.42203 0.42227
 H1578 H 1.15397 0.43070 0.43027
 C1579 C 1.22955 0.39868 0.39966
 C1580 C 0.82500 0.57773 0.42188
 H1581 H 0.84607 0.56927 0.43020
 C1582 C 0.77114 0.60076 0.39914
 C1583 C 1.07703 0.57843 0.32371
 H1584 H 1.06901 0.56983 0.34487
 C1585 C 1.09975 0.60167 0.26915
 C1586 C 0.92286 0.42197 0.32385
 H1587 H 0.93089 0.43052 0.34503
 C1588 C 0.90013 0.39885 0.26929
 C1589 C 1.17528 0.57717 0.42229
 H1590 H 1.15403 0.56891 0.43033
 C1591 C 1.22957 0.59983 0.40032
 C1592 C 0.82455 0.42243 0.42222
 H1593 H 0.84575 0.43071 0.43038
 C1594 C 0.77036 0.39980 0.39995
 C1595 C 1.07836 0.67463 0.42246
 H1596 H 1.06967 0.65356 0.43054
 C1597 C 1.10177 0.72904 0.39969
 C1598 C 0.92225 0.32529 0.42156
 H1599 H 0.93069 0.34632 0.42998
 C1600 C 0.89925 0.27150 0.39864
 O1601 O 0.47092 0.89252 0.35085
 O1602 O 0.47103 0.85802 0.31570
 C1603 C 0.46071 0.88214 0.32649
 C1604 C 0.43594 0.89774 0.31109
 C1605 C 0.42403 0.88589 0.28249
 H1606 H 0.43506 0.86676 0.27280
 O1607 O 0.52901 1.10781 0.35078
 O1608 O 0.52899 1.14238 0.31568
 C1609 C 0.53932 1.11827 0.32648
 C1610 C 0.56422 1.10277 0.31116
 C1611 C 0.57670 1.11505 0.28297
 H1612 H 0.56603 1.13448 0.27344
 O1613 O 0.35134 0.97060 0.39177
 O1614 O 0.31617 0.97074 0.35730
 C1615 C 0.32692 0.96051 0.38152
 C1616 C 0.31142 0.93604 0.39751
 C1617 C 0.28414 0.92481 0.38688
 H1618 H 0.27407 0.93503 0.36747
 O1619 O 0.64823 1.02948 0.39167
 O1620 O 0.68344 1.02932 0.35724
 C1621 C 0.67267 1.03955 0.38144
 C1622 C 0.68820 1.06400 0.39741
 C1623 C 0.71547 1.07518 0.38672
 H1624 H 0.72549 1.06492 0.36731
 O1625 O 0.39271 0.85209 0.47064
 O1626 O 0.35804 0.81716 0.47045
 C1627 C 0.38221 0.82789 0.46019
 C1628 C 0.39774 0.81253 0.43527
 C1629 C 0.38568 0.78414 0.42315
 H1630 H 0.36641 0.77463 0.43411
 O1631 O 0.60710 1.14776 0.47094
 O1632 O 0.64171 1.18274 0.47065
 C1633 C 0.61750 1.17200 0.46050
 C1634 C 0.60180 1.18743 0.43575
 C1635 C 0.61352 1.21611 0.42397
 H1636 H 0.63269 1.22571 0.43501
 O1637 O 0.39229 1.02852 0.35058
 O1638 O 0.35726 1.02883 0.31597
 C1639 C 0.38165 1.03889 0.32642
 C1640 C 0.39730 1.06354 0.31088
 C1641 C 0.38626 1.07479 0.28374
 H1642 H 0.36704 1.06429 0.27361
 O1643 O 0.60745 0.97147 0.35042
 O1644 O 0.64256 0.97119 0.31587
 C1645 C 0.61817 0.96109 0.32629
 C1646 C 0.60262 0.93637 0.31079
 C1647 C 0.61373 0.92508 0.28369
 H1648 H 0.63295 0.93560 0.27356
 O1649 O 0.52886 0.85152 0.39188
 O1650 O 0.52923 0.81686 0.35690
 C1651 C 0.53921 0.82733 0.38135
 C1652 C 0.56367 0.81178 0.39730
 C1653 C 0.57484 0.78450 0.38662
 H1654 H 0.56457 0.77448 0.36722
 O1655 O 0.47077 1.14866 0.39161
 O1656 O 0.47046 1.18331 0.35659
 C1657 C 0.46041 1.17282 0.38100
 C1658 C 0.43585 1.18834 0.39683
 C1659 C 0.42450 1.21549 0.38596
 H1660 H 0.43471 1.22546 0.36648
 O1661 O 0.35180 1.10753 0.47049
 O1662 O 0.31708 1.14240 0.47057
 C1663 C 0.32761 1.11818 0.46021
 C1664 C 0.31208 1.10271 0.43534
 C1665 C 0.28513 1.11399 0.42390
 H1666 H 0.27539 1.13352 0.43417
 O1667 O 0.64807 0.89251 0.47059
 O1668 O 0.68291 0.85776 0.47056
 C1669 C 0.67229 0.88196 0.46026
 C1670 C 0.68778 0.89755 0.43544
 C1671 C 0.71487 0.88650 0.42411
 H1672 H 0.72473 0.86702 0.43439
 O1673 O 0.47069 1.10766 0.35073
 O1674 O 0.47059 1.14218 0.31559
 C1675 C 0.46040 1.11799 0.32636
 C1676 C 0.43575 1.10220 0.31089
 C1677 C 0.42433 1.11316 0.28377
 H1678 H 0.43449 1.13267 0.27386
 O1679 O 0.52922 0.89221 0.35065
 O1680 O 0.52940 0.85768 0.31554
 C1681 C 0.53957 0.88187 0.32631
 C1682 C 0.56426 0.89763 0.31085
 C1683 C 0.57573 0.88664 0.28377
 H1684 H 0.56562 0.86709 0.27390
 O1685 O 0.64828 0.97121 0.39139
 O1686 O 0.68346 0.97108 0.35692
 C1687 C 0.67260 0.96088 0.38108
 C1688 C 0.68794 0.93613 0.39684
 C1689 C 0.71507 0.92479 0.38590
 H1690 H 0.72526 0.93525 0.36666
 O1691 O 0.35130 1.02890 0.39137
 O1692 O 0.31617 1.02907 0.35686
 C1693 C 0.32702 1.03930 0.38101
 C1694 C 0.31177 1.06417 0.39669
 C1695 C 0.28479 1.07577 0.38563
 H1696 H 0.27463 1.06546 0.36631
 O1697 O 0.39261 1.14850 0.47072
 O1698 O 0.35797 1.18345 0.47092
 C1699 C 0.38214 1.17283 0.46057
 C1700 C 0.39769 1.18838 0.43581
 C1701 C 0.38669 1.21554 0.42465
 H1702 H 0.36750 1.22557 0.43527
 O1703 O 0.60708 0.85169 0.47101
 O1704 O 0.64184 0.81686 0.47101
 C1705 C 0.61756 0.82740 0.46082
 C1706 C 0.60188 0.81180 0.43622
 C1707 C 0.61270 0.78450 0.42526
 H1708 H 0.63184 0.77442 0.43594
 O1709 O 0.60817 1.02978 0.34982
 O1710 O 0.64331 1.02948 0.31532
 C1711 C 0.61902 1.03989 0.32560
 C1712 C 0.60365 1.06463 0.30986
 C1713 C 0.61464 1.07597 0.28426
 H1714 H 0.63429 1.06595 0.27452
 O1715 O 0.39142 0.97026 0.34991
 O1716 O 0.35635 0.97055 0.31534
 C1717 C 0.38065 0.96017 0.32565
 C1718 C 0.39621 0.93557 0.30986
 C1719 C 0.38563 0.92452 0.28395
 H1720 H 0.36609 0.93460 0.27405
 O1721 O 0.52901 1.14909 0.39125
 O1722 O 0.52874 1.18375 0.35625
 C1723 C 0.53911 1.17334 0.38055
 C1724 C 0.56375 1.18899 0.39615
 C1725 C 0.57474 1.21493 0.38566
 H1726 H 0.56457 1.22499 0.36623
 O1727 O 0.47061 0.85085 0.39092
 O1728 O 0.47094 0.81626 0.35587
 C1729 C 0.46048 0.82666 0.38012
 C1730 C 0.43566 0.81108 0.39554
 C1731 C 0.42431 0.78544 0.38470
 H1732 H 0.43432 0.77551 0.36510
 O1733 O 0.64834 1.10725 0.47122
 O1734 O 0.68305 1.14214 0.47109
 C1735 C 0.67257 1.11782 0.46095
 C1736 C 0.68818 1.10220 0.43632
 C1737 C 0.71547 1.11306 0.42533
 H1738 H 0.72555 1.13221 0.43599
 O1739 O 0.35157 0.89271 0.47114
 O1740 O 0.31682 0.85786 0.47114
 C1741 C 0.32728 0.88218 0.46098
 C1742 C 0.31159 0.89784 0.43643
 C1743 C 0.28428 0.88696 0.42554
 H1744 H 0.27425 0.86782 0.43627
 Cu1745 Cu 0.49990 0.87523 0.37458
 Cu1746 Cu 0.50022 0.83375 0.33247
 Cu1747 Cu 0.49988 1.12484 0.37458
 Cu1748 Cu 0.49964 1.16636 0.33249
 Cu1749 Cu 0.37509 0.99951 0.37437
 Cu1750 Cu 0.33296 0.99981 0.33291
 Cu1751 Cu 0.62450 1.00053 0.37427
 Cu1752 Cu 0.66671 1.00026 0.33287
 C1753 C 0.42277 0.92156 0.32370
 H1754 H 0.43088 0.93021 0.34480
 C1755 C 0.39986 0.89818 0.26931
 C1756 C 0.57700 1.07860 0.32354
 H1757 H 0.56849 1.06963 0.34436
 C1758 C 0.60094 1.10274 0.26992
 C1759 C 0.32481 0.92257 0.42247
 H1760 H 0.34611 0.93076 0.43046
 C1761 C 0.27039 0.90011 0.40062
 C1762 C 0.67489 1.07748 0.42240
 H1763 H 0.65361 1.06930 0.43046
 C1764 C 0.72928 1.09988 0.40037
 C1765 C 0.42172 0.82493 0.42219
 H1766 H 0.43056 0.84586 0.43047
 C1767 C 0.39782 0.77101 0.39881
 C1768 C 0.57792 1.17493 0.42258
 H1769 H 0.56933 1.15380 0.43061
 C1770 C 0.60111 1.22946 0.39989
 C1771 C 0.42223 1.07720 0.32412
 H1772 H 0.43055 1.06894 0.34530
 C1773 C 0.39946 1.09975 0.27003
 C1774 C 0.57771 0.92268 0.32403
 H1775 H 0.56933 0.93097 0.34517
 C1776 C 0.60060 0.90007 0.27002
 C1777 C 0.57716 0.82509 0.42229
 H1778 H 0.56902 0.84638 0.43033
 C1779 C 0.59951 0.77068 0.40031
 C1780 C 0.42245 1.17513 0.42194
 H1781 H 0.43075 1.15394 0.43013
 C1782 C 0.39978 1.22928 0.39959
 C1783 C 0.32507 1.07763 0.42172
 H1784 H 0.34610 1.06911 0.43008
 C1785 C 0.27131 1.10083 0.39891
 C1786 C 0.67463 0.92253 0.42179
 H1787 H 0.65350 0.93087 0.43005
 C1788 C 0.72870 0.89983 0.39920
 O1789 O 0.52875 0.89235 0.64944
 O1790 O 0.52869 0.85753 0.68429
 C1791 C 0.53894 0.88180 0.67374
 C1792 C 0.56362 0.89738 0.68928
 C1793 C 0.57498 0.88626 0.71636
 H1794 H 0.56452 0.86700 0.72647
 O1795 O 0.47104 1.10794 0.64961
 O1796 O 0.47099 1.14278 0.68442
 C1797 C 0.46080 1.11849 0.67386
 C1798 C 0.43610 1.10286 0.68934
 C1799 C 0.42481 1.11388 0.71646
 H1800 H 0.43533 1.13306 0.72664
 O1801 O 0.35151 1.02931 0.60823
 O1802 O 0.31655 1.02939 0.64291
 C1803 C 0.32720 1.03954 0.61862
 C1804 C 0.31170 1.06410 0.60276
 C1805 C 0.28453 1.07542 0.61361
 H1806 H 0.27452 1.06516 0.63303
 O1807 O 0.64818 0.97086 0.60818
 O1808 O 0.68304 0.97079 0.64297
 C1809 C 0.67247 0.96064 0.61864
 C1810 C 0.68804 0.93615 0.60276
 C1811 C 0.71527 0.92492 0.61352
 H1812 H 0.72526 0.93517 0.63296
 O1813 O 0.60749 0.85176 0.52944
 O1814 O 0.64229 0.81698 0.52940
 C1815 C 0.61811 0.82757 0.53977
 C1816 C 0.60267 0.81211 0.56470
 C1817 C 0.61394 0.78518 0.57620
 H1818 H 0.63343 0.77540 0.56591
 O1819 O 0.39274 1.14808 0.52917
 O1820 O 0.35806 1.18299 0.52937
 C1821 C 0.38225 1.17229 0.53960
 C1822 C 0.39777 1.18768 0.56451
 C1823 C 0.38568 1.21609 0.57660
 H1824 H 0.36641 1.22558 0.56563
 O1825 O 0.39230 0.97121 0.64945
 O1826 O 0.35745 0.97122 0.68426
 C1827 C 0.38169 0.96095 0.67371
 C1828 C 0.39718 0.93614 0.68917
 C1829 C 0.38604 0.92472 0.71622
 H1830 H 0.36683 0.93521 0.72638
 O1831 O 0.60728 1.02904 0.64907
 O1832 O 0.64202 1.02918 0.68399
 C1833 C 0.61782 1.03942 0.67329
 C1834 C 0.60235 1.06431 0.68864
 C1835 C 0.61467 1.07668 0.71686
 H1836 H 0.63407 1.06595 0.72636
 O1837 O 0.47087 0.85142 0.60814
 O1838 O 0.47076 0.81646 0.64285
 C1839 C 0.46068 0.82707 0.61852
 C1840 C 0.43627 0.81148 0.60255
 C1841 C 0.42509 0.78420 0.61325
 H1842 H 0.43536 0.77418 0.63267
 O1843 O 0.52892 1.14880 0.60836
 O1844 O 0.52909 1.18378 0.64302
 C1845 C 0.53916 1.17311 0.61869
 C1846 C 0.56363 1.18858 0.60270
 C1847 C 0.57480 1.21589 0.61329
 H1848 H 0.56448 1.22600 0.63262
 O1849 O 0.35197 0.89246 0.52954
 O1850 O 0.31727 0.85756 0.52951
 C1851 C 0.32781 0.88178 0.53987
 C1852 C 0.31231 0.89724 0.56475
 C1853 C 0.28538 0.88597 0.57622
 H1854 H 0.27565 0.86642 0.56598
 O1855 O 0.64816 1.10746 0.52962
 O1856 O 0.68283 1.14238 0.52950
 C1857 C 0.67234 1.11815 0.53988
 C1858 C 0.68786 1.10268 0.56473
 C1859 C 0.71482 1.11389 0.57618
 H1860 H 0.72461 1.13340 0.56590
 O1861 O 0.52933 1.10869 0.65019
 O1862 O 0.52927 1.14361 0.68492
 C1863 C 0.53956 1.11935 0.67445
 C1864 C 0.56430 1.10383 0.69007
 C1865 C 0.57567 1.11469 0.71571
 H1866 H 0.56569 1.13431 0.72553
 O1867 O 0.47049 0.89224 0.64919
 O1868 O 0.47037 0.85740 0.68402
 C1869 C 0.46016 0.88167 0.67344
 C1870 C 0.43547 0.89733 0.68897
 C1871 C 0.42396 0.88620 0.71598
 H1872 H 0.43404 0.86658 0.72576
 O1873 O 0.64837 1.02908 0.60844
 O1874 O 0.68322 1.02909 0.64325
 C1875 C 0.67261 1.03935 0.61899
 C1876 C 0.68803 1.06413 0.60337
 C1877 C 0.71503 1.07564 0.61447
 H1878 H 0.72512 1.06529 0.63382
 O1879 O 0.35157 0.97103 0.60844
 O1880 O 0.31662 0.97103 0.64314
 C1881 C 0.32733 0.96071 0.61894
 C1882 C 0.31202 0.93583 0.60335
 C1883 C 0.28505 0.92424 0.61447
 H1884 H 0.27490 0.93457 0.63379
 O1885 O 0.60722 1.14830 0.52929
 O1886 O 0.64181 1.18331 0.52901
 C1887 C 0.61762 1.17270 0.53933
 C1888 C 0.60193 1.18838 0.56387
 C1889 C 0.61276 1.21572 0.57476
 H1890 H 0.63194 1.22575 0.56409
 O1891 O 0.39279 0.85152 0.52902
 O1892 O 0.35817 0.81654 0.52884
 C1893 C 0.38239 0.82713 0.53909
 C1894 C 0.39807 0.81149 0.56365
 C1895 C 0.38723 0.78419 0.57462
 H1896 H 0.36809 0.77411 0.56396
 O1897 O 0.60747 0.97073 0.64934
 O1898 O 0.64217 0.97076 0.68428
 C1899 C 0.61796 0.96050 0.67366
 C1900 C 0.60229 0.93581 0.68921
 C1901 C 0.61337 0.92432 0.71625
 H1902 H 0.63293 0.93445 0.72609
 O1903 O 0.39227 1.02951 0.64935
 O1904 O 0.35743 1.02958 0.68416
 C1905 C 0.38171 1.03980 0.67361
 C1906 C 0.39738 1.06448 0.68917
 C1907 C 0.38634 1.07589 0.71626
 H1908 H 0.36678 1.06575 0.72610
 O1909 O 0.47063 1.14943 0.60929
 O1910 O 0.47082 1.18432 0.64404
 C1911 C 0.46042 1.17370 0.61986
 C1912 C 0.43562 1.18918 0.60431
 C1913 C 0.42424 1.21483 0.61510
 H1914 H 0.43422 1.22480 0.63468
 O1915 O 0.52910 0.85157 0.60848
 O1916 O 0.52906 0.81664 0.64322
 C1917 C 0.53938 0.82732 0.61902
 C1918 C 0.56422 0.81196 0.60343
 C1919 C 0.57580 0.78501 0.61458
 H1920 H 0.56552 0.77493 0.63397
 O1921 O 0.64822 0.89279 0.52901
 O1922 O 0.68309 0.85807 0.52894
 C1923 C 0.67252 0.88231 0.53918
 C1924 C 0.68809 0.89795 0.56383
 C1925 C 0.71534 0.88708 0.57487
 H1926 H 0.72542 0.86793 0.56421
 O1927 O 0.35157 1.10745 0.52894
 O1928 O 0.31682 1.14228 0.52900
 C1929 C 0.32733 1.11800 0.53920
 C1930 C 0.31175 1.10239 0.56390
 C1931 C 0.28459 1.11339 0.57506
 H1932 H 0.27460 1.13264 0.56449
 Cu1933 Cu 0.49979 0.87539 0.62534
 Cu1934 Cu 0.49969 0.83351 0.66710
 Cu1935 Cu 0.49999 1.12522 0.62589
 Cu1936 Cu 0.50007 1.16711 0.66759
 Cu1937 Cu 0.37574 0.87569 0.50009
 Cu1938 Cu 0.33410 0.83378 0.49998
 Cu1939 Cu 0.62422 0.87566 0.50001
 Cu1940 Cu 0.66602 0.83393 0.49996
 Cu1941 Cu 0.37565 1.12441 0.49982
 Cu1942 Cu 0.33401 1.16628 0.49998
 Cu1943 Cu 0.62424 1.12418 0.50029
 Cu1944 Cu 0.66583 1.16615 0.50004
 Cu1945 Cu 0.37540 1.00028 0.62540
 Cu1946 Cu 0.33351 1.00034 0.66711
 Cu1947 Cu 0.62434 0.99990 0.62528
 Cu1948 Cu 0.66608 0.99992 0.66714
 C1949 C 0.57723 0.92234 0.67607
 H1950 H 0.56888 0.93072 0.65495
 C1951 C 0.60000 0.89941 0.73000
 C1952 C 0.42244 1.07798 0.67605
 H1953 H 0.43075 1.06966 0.65489
 C1954 C 0.39979 1.10072 0.73008
 C1955 C 0.32496 1.07757 0.57772
 H1956 H 0.34615 1.06929 0.56954
 C1957 C 0.27079 1.10022 0.60005
 C1958 C 0.67479 0.92267 0.57773
 H1959 H 0.65353 0.93086 0.56962
 C1960 C 0.72911 0.90023 0.59987
 C1961 C 0.57764 0.82516 0.57831
 H1962 H 0.56913 0.84616 0.56988
 C1963 C 0.60081 0.77145 0.60127
 C1964 C 0.42174 1.17528 0.57765
 H1965 H 0.43059 1.15434 0.56944
 C1966 C 0.39776 1.22922 0.60097
 C1967 C 0.42208 0.92247 0.67590
 H1968 H 0.43049 0.93087 0.65481
 C1969 C 0.39912 0.89961 0.72979
 C1970 C 0.57822 1.07720 0.67628
 H1971 H 0.56924 1.06879 0.65544
 C1972 C 0.60241 1.10090 0.72999
 C1973 C 0.42279 0.82478 0.57757
 H1974 H 0.43094 0.84608 0.56952
 C1975 C 0.40041 0.77037 0.59958
 C1976 C 0.57718 1.17515 0.57780
 H1977 H 0.56902 1.15384 0.56983
 C1978 C 0.59952 1.22963 0.59962
 C1979 C 0.32529 0.92234 0.57832
 H1980 H 0.34631 0.93086 0.56992
 C1981 C 0.27156 0.89916 0.60120
 C1982 C 0.67481 1.07763 0.57833
 H1983 H 0.65377 1.06917 0.56994
 C1984 C 0.72860 1.10066 0.60118
 O1985 O 0.60778 0.52850 1.14959
 O1986 O 0.64280 0.52883 1.18422
 C1987 C 0.61846 0.53893 1.17372
 C1988 C 0.60291 0.56373 1.18914
 C1989 C 0.61400 0.57508 1.21622
 H1990 H 0.63319 0.56457 1.22641
 O1991 O 0.39269 0.47131 1.14939
 O1992 O 0.35805 0.47106 1.18440
 C1993 C 0.38227 0.46094 1.17367
 C1994 C 0.39794 0.43621 1.18909
 C1995 C 0.38613 0.42427 1.21770
 H1996 H 0.36695 0.43523 1.22738
 O1997 O 0.52904 0.64868 1.10815
 O1998 O 0.52944 0.68347 1.14300
 C1999 C 0.53937 0.67293 1.11858
 C2000 C 0.56378 0.68848 1.10258
 C2001 C 0.57491 0.71580 1.11320
 H2002 H 0.56461 0.72586 1.13257
 O2003 O 0.47074 0.35160 1.10855
 O2004 O 0.47097 0.31649 1.14310
 C2005 C 0.46069 0.32718 1.11887
 C2006 C 0.43626 0.31160 1.10292
 C2007 C 0.42511 0.28429 1.11356
 H2008 H 0.43534 0.27427 1.13299
 O2009 O 0.64816 0.60749 1.02963
 O2010 O 0.68297 0.64227 1.02963
 C2011 C 0.67236 0.61807 1.03996
 C2012 C 0.68786 0.60252 1.06479
 C2013 C 0.71487 0.61371 1.07618
 H2014 H 0.72463 0.63325 1.06592
 O2015 O 0.35201 0.39241 1.02972
 O2016 O 0.31722 0.35761 1.02977
 C2017 C 0.32783 0.38181 1.04009
 C2018 C 0.31237 0.39730 1.06499
 C2019 C 0.28542 0.38607 1.07643
 H2020 H 0.27564 0.36657 1.06614
 O2021 O 0.47119 0.60778 1.14953
 O2022 O 0.47150 0.64245 1.18451
 C2023 C 0.46114 0.61827 1.17391
 C2024 C 0.43648 0.60269 1.18951
 C2025 C 0.42539 0.61365 1.21674
 H2026 H 0.43602 0.63277 1.22691
 O2027 O 0.52879 0.39253 1.14946
 O2028 O 0.52929 0.35757 1.18416
 C2029 C 0.53929 0.38192 1.17360
 C2030 C 0.56401 0.39756 1.18903
 C2031 C 0.57591 0.38574 1.21764
 H2032 H 0.56494 0.36656 1.22731
 O2033 O 0.64862 0.47036 1.10856
 O2034 O 0.68375 0.47055 1.14308
 C2035 C 0.67302 0.46026 1.11888
 C2036 C 0.68854 0.43571 1.10302
 C2037 C 0.71576 0.42449 1.11382
 H2038 H 0.72578 0.43481 1.13321
 O2039 O 0.35143 0.52929 1.10860
 O2040 O 0.31664 0.52924 1.14346
 C2041 C 0.32713 0.53943 1.11912
 C2042 C 0.31151 0.56392 1.10327
 C2043 C 0.28436 0.57525 1.11415
 H2044 H 0.27442 0.56509 1.13367
 O2045 O 0.39246 0.64744 1.02951
 O2046 O 0.35786 0.68243 1.02968
 C2047 C 0.38205 0.67169 1.03990
 C2048 C 0.39772 0.68715 1.06466
 C2049 C 0.38595 0.71579 1.07649
 H2050 H 0.36673 0.72534 1.06551
 O2051 O 0.60762 0.35175 1.02933
 O2052 O 0.64233 0.31688 1.02936
 C2053 C 0.61812 0.32751 1.03964
 C2054 C 0.60250 0.31203 1.06443
 C2055 C 0.61352 0.28491 1.07573
 H2056 H 0.63296 0.27503 1.06541
 O2057 O 0.39236 0.52957 1.14955
 O2058 O 0.35773 0.52945 1.18457
 C2059 C 0.38192 0.53976 1.17391
 C2060 C 0.39767 0.56440 1.18946
 C2061 C 0.38683 0.57574 1.21667
 H2062 H 0.36731 0.56560 1.22659
 O2063 O 0.60841 0.47021 1.15028
 O2064 O 0.64345 0.47052 1.18488
 C2065 C 0.61915 0.46015 1.17456
 C2066 C 0.60360 0.43554 1.19035
 C2067 C 0.61416 0.42453 1.21628
 H2068 H 0.63364 0.43467 1.22622
 O2069 O 0.52896 0.35162 1.10862
 O2070 O 0.52923 0.31654 1.14320
 C2071 C 0.53934 0.32732 1.11896
 C2072 C 0.56402 0.31193 1.10314
 C2073 C 0.57535 0.28478 1.11405
 H2074 H 0.56494 0.27461 1.13333
 O2075 O 0.47078 0.64899 1.10894
 O2076 O 0.47118 0.68374 1.14383
 C2077 C 0.46068 0.67324 1.11963
 C2078 C 0.43589 0.68879 1.10415
 C2079 C 0.42486 0.71469 1.11467
 H2080 H 0.43508 0.72478 1.13407
 O2081 O 0.35119 0.60694 1.02923
 O2082 O 0.31650 0.64184 1.02926
 C2083 C 0.32697 0.61755 1.03948
 C2084 C 0.31141 0.60202 1.06423
 C2085 C 0.28425 0.61301 1.07538
 H2086 H 0.27421 0.63218 1.06472
 O2087 O 0.64876 0.39239 1.02920
 O2088 O 0.68356 0.35760 1.02919
 C2089 C 0.67301 0.38184 1.03944
 C2090 C 0.68855 0.39743 1.06417
 C2091 C 0.71577 0.38652 1.07530
 H2092 H 0.72582 0.36731 1.06473
 O2093 O 0.47051 0.39180 1.15024
 O2094 O 0.47095 0.35681 1.18491
 C2095 C 0.46051 0.38107 1.17456
 C2096 C 0.43590 0.39660 1.19036
 C2097 C 0.42487 0.38599 1.21627
 H2098 H 0.43501 0.36649 1.22619
 O2099 O 0.52948 0.60782 1.14921
 O2100 O 0.52980 0.64251 1.18416
 C2101 C 0.53991 0.61826 1.17347
 C2102 C 0.56460 0.60252 1.18894
 C2103 C 0.57606 0.61356 1.21600
 H2104 H 0.56595 0.63314 1.22582
 O2105 O 0.35168 0.47105 1.10869
 O2106 O 0.31689 0.47087 1.14356
 C2107 C 0.32751 0.46065 1.11928
 C2108 C 0.31216 0.43580 1.10367
 C2109 C 0.28518 0.42423 1.11477
 H2110 H 0.27505 0.43454 1.13411
 O2111 O 0.64865 0.52866 1.10870
 O2112 O 0.68376 0.52886 1.14324
 C2113 C 0.67293 0.53906 1.11906
 C2114 C 0.68819 0.56389 1.10336
 C2115 C 0.71523 0.57540 1.11436
 H2116 H 0.72543 0.56501 1.13363
 O2117 O 0.39290 0.35153 1.02919
 O2118 O 0.35817 0.31667 1.02919
 C2119 C 0.38244 0.32722 1.03936
 C2120 C 0.39812 0.31160 1.06395
 C2121 C 0.38733 0.28426 1.07485
 H2122 H 0.36824 0.27415 1.06411
 O2123 O 0.60730 0.64843 1.02907
 O2124 O 0.64204 0.68328 1.02902
 C2125 C 0.61776 0.67276 1.03920
 C2126 C 0.60203 0.68842 1.06372
 C2127 C 0.61282 0.71576 1.07462
 H2128 H 0.63196 0.72584 1.06393
 Cu2129 Cu 0.62486 0.49937 1.12582
 Cu2130 Cu 0.66696 0.49970 1.16732
 Cu2131 Cu 0.37551 0.50035 1.12557
 Cu2132 Cu 0.33384 0.50016 1.16751
 Cu2133 Cu 0.50010 0.62484 1.12546
 Cu2134 Cu 0.50055 0.66651 1.16739
 Cu2135 Cu 0.49968 0.37540 1.12577
 Cu2136 Cu 0.50013 0.33334 1.16732
 C2137 C 0.57803 0.57742 1.17583
 H2138 H 0.56966 0.56908 1.15470
 C2139 C 0.60088 0.60014 1.22981
 C2140 C 0.42182 0.42312 1.17649
 H2141 H 0.43044 0.43125 1.15539
 C2142 C 0.39848 0.40013 1.23090
 C2143 C 0.57732 0.67513 1.07764
 H2144 H 0.56920 0.65380 1.06966
 C2145 C 0.59959 0.72962 1.09951
 C2146 C 0.42278 0.32492 1.07793
 H2147 H 0.43090 0.34624 1.06991
 C2148 C 0.40048 0.27044 1.09981
 C2149 C 0.67484 0.57745 1.07839
 H2150 H 0.65377 0.56900 1.07007
 C2151 C 0.72873 0.60045 1.10109
 C2152 C 0.32542 0.42234 1.07861
 H2153 H 0.34645 0.43082 1.07022
 C2154 C 0.27163 0.39922 1.10144
 C2155 C 0.42267 0.57788 1.17622
 H2156 H 0.43085 0.56962 1.15500
 C2157 C 0.40042 0.60050 1.23049
 C2158 C 0.57711 0.42145 1.17645
 H2159 H 0.56901 0.43009 1.15534
 C2160 C 0.60000 0.39813 1.23088
 C2161 C 0.67528 0.42221 1.07802
 H2162 H 0.65405 0.43043 1.06987
 C2163 C 0.72956 0.39975 1.10026
 C2164 C 0.32467 0.57728 1.07813
 H2165 H 0.34586 0.56900 1.06993
 C2166 C 0.27053 0.59995 1.10047
 C2167 C 0.42168 0.67471 1.07776
 H2168 H 0.43031 0.65362 1.06969
 C2169 C 0.39842 0.72916 1.10052
 C2170 C 0.57757 0.32522 1.07815
 H2171 H 0.56927 0.34638 1.06991
 C2172 C 0.60025 0.27112 1.10068
 O2173 O 0.60772 0.47113 0.85083
 O2174 O 0.64255 0.47122 0.81600
 C2175 C 0.61831 0.46094 0.82656
 C2176 C 0.60278 0.43621 0.81103
 C2177 C 0.61389 0.42491 0.78393
 H2178 H 0.63311 0.43543 0.77380
 O2179 O 0.39239 0.52857 0.85072
 O2180 O 0.35757 0.52853 0.81589
 C2181 C 0.38181 0.53880 0.82646
 C2182 C 0.39734 0.56357 0.81098
 C2183 C 0.38622 0.57493 0.78391
 H2184 H 0.36702 0.56442 0.77375
 O2185 O 0.47085 0.64820 0.89213
 O2186 O 0.47068 0.68319 0.85745
 C2187 C 0.46060 0.67252 0.88177
 C2188 C 0.43611 0.68803 0.89770
 C2189 C 0.42496 0.71532 0.88701
 H2190 H 0.43530 0.72539 0.86766
 O2191 O 0.52931 0.35146 0.89192
 O2192 O 0.52939 0.31651 0.85722
 C2193 C 0.53955 0.32716 0.88150
 C2194 C 0.56416 0.31166 0.89727
 C2195 C 0.57549 0.28456 0.88630
 H2196 H 0.56510 0.27453 0.86696
 O2197 O 0.64856 0.39245 0.97077
 O2198 O 0.68335 0.35766 0.97076
 C2199 C 0.67277 0.38189 0.96046
 C2200 C 0.68825 0.39748 0.93565
 C2201 C 0.71530 0.38642 0.92424
 H2202 H 0.72518 0.36695 0.93450
 O2203 O 0.35155 0.60701 0.97078
 O2204 O 0.31689 0.64193 0.97080
 C2205 C 0.32741 0.61771 0.96043
 C2206 C 0.31196 0.60229 0.93549
 C2207 C 0.28505 0.61357 0.92400
 H2208 H 0.27525 0.63305 0.93432
 O2209 O 0.52890 0.60755 0.85077
 O2210 O 0.52877 0.64240 0.81595
 C2211 C 0.53909 0.61817 0.82649
 C2212 C 0.56387 0.60270 0.81099
 C2213 C 0.57528 0.61389 0.78396
 H2214 H 0.56479 0.63313 0.77383
 O2215 O 0.47115 0.39216 0.85064
 O2216 O 0.47126 0.35733 0.81582
 C2217 C 0.46096 0.38156 0.82636
 C2218 C 0.43622 0.39706 0.81080
 C2219 C 0.42501 0.38601 0.78363
 H2220 H 0.43560 0.36685 0.77348
 O2221 O 0.64851 0.52916 0.89207
 O2222 O 0.68347 0.52929 0.85738
 C2223 C 0.67284 0.53937 0.88170
 C2224 C 0.68842 0.56380 0.89765
 C2225 C 0.71571 0.57494 0.88695
 H2226 H 0.72573 0.56464 0.86756
 O2227 O 0.35155 0.47056 0.89193
 O2228 O 0.31659 0.47043 0.85724
 C2229 C 0.32723 0.46033 0.88156
 C2230 C 0.31170 0.43587 0.89752
 C2231 C 0.28452 0.42453 0.88675
 H2232 H 0.27457 0.43461 0.86720
 O2233 O 0.60763 0.64813 0.97067
 O2234 O 0.64242 0.68293 0.97066
 C2235 C 0.61823 0.67232 0.96032
 C2236 C 0.60274 0.68777 0.93542
 C2237 C 0.61395 0.71473 0.92393
 H2238 H 0.63346 0.72453 0.93419
 O2239 O 0.39254 0.35176 0.97078
 O2240 O 0.35776 0.31694 0.97083
 C2241 C 0.38194 0.32755 0.96046
 C2242 C 0.39742 0.31208 0.93557
 C2243 C 0.38619 0.28512 0.92412
 H2244 H 0.36669 0.27533 0.93441
 O2245 O 0.39221 0.47029 0.85071
 O2246 O 0.35739 0.47018 0.81588
 C2247 C 0.38166 0.45998 0.82645
 C2248 C 0.39738 0.43532 0.81089
 C2249 C 0.38645 0.42391 0.78375
 H2250 H 0.36691 0.43404 0.77388
 O2251 O 0.60777 0.52941 0.85094
 O2252 O 0.64261 0.52955 0.81613
 C2253 C 0.61834 0.53974 0.82669
 C2254 C 0.60267 0.56442 0.81115
 C2255 C 0.61380 0.57596 0.78415
 H2256 H 0.63342 0.56590 0.77437
 O2257 O 0.47103 0.35151 0.89177
 O2258 O 0.47107 0.31658 0.85706
 C2259 C 0.46075 0.32725 0.88127
 C2260 C 0.43593 0.31189 0.89689
 C2261 C 0.42440 0.28490 0.88581
 H2262 H 0.43473 0.27478 0.86646
 O2263 O 0.52910 0.64829 0.89175
 O2264 O 0.52899 0.68325 0.85704
 C2265 C 0.53935 0.67256 0.88123
 C2266 C 0.56418 0.68794 0.89680
 C2267 C 0.57571 0.71492 0.88566
 H2268 H 0.56536 0.72503 0.86631
 O2269 O 0.35167 0.39266 0.97130
 O2270 O 0.31683 0.35790 0.97140
 C2271 C 0.32736 0.38216 0.96117
 C2272 C 0.31174 0.39777 0.93654
 C2273 C 0.28452 0.38681 0.92553
 H2274 H 0.27443 0.36770 0.93628
 O2275 O 0.64851 0.60725 0.97123
 O2276 O 0.68337 0.64198 0.97126
 C2277 C 0.67283 0.61771 0.96108
 C2278 C 0.68845 0.60202 0.93651
 C2279 C 0.71575 0.61284 0.92553
 H2280 H 0.72584 0.63198 0.93618
 O2281 O 0.52943 0.39230 0.85088
 O2282 O 0.52959 0.35747 0.81607
 C2283 C 0.53976 0.38175 0.82663
 C2284 C 0.56444 0.39745 0.81111
 C2285 C 0.57592 0.38643 0.78405
 H2286 H 0.56581 0.36686 0.77421
 O2287 O 0.47062 0.60751 0.85095
 O2288 O 0.47044 0.64238 0.81615
 C2289 C 0.46028 0.61808 0.82671
 C2290 C 0.43562 0.60238 0.81116
 C2291 C 0.42413 0.61348 0.78413
 H2292 H 0.43419 0.63310 0.77434
 O2293 O 0.35150 0.52880 0.89158
 O2294 O 0.31656 0.52875 0.85687
 C2295 C 0.32724 0.53907 0.88107
 C2296 C 0.31185 0.56389 0.89670
 C2297 C 0.28490 0.57549 0.88556
 H2298 H 0.27484 0.56523 0.86616
 O2299 O 0.64850 0.47095 0.89182
 O2300 O 0.68344 0.47104 0.85710
 C2301 C 0.67279 0.46073 0.88133
 C2302 C 0.68826 0.43601 0.89698
 C2303 C 0.71534 0.42467 0.88595
 H2304 H 0.72543 0.43510 0.86664
 O2305 O 0.60776 0.35147 0.97091
 O2306 O 0.64247 0.31659 0.97094
 C2307 C 0.61825 0.32719 0.96067
 C2308 C 0.60263 0.31167 0.93595
 C2309 C 0.61367 0.28459 0.92461
 H2310 H 0.63307 0.27466 0.93496
 O2311 O 0.39242 0.64791 0.97115
 O2312 O 0.35785 0.68292 0.97131
 C2313 C 0.38205 0.67230 0.96105
 C2314 C 0.39777 0.68793 0.93648
 C2315 C 0.38695 0.71524 0.92549
 H2316 H 0.36776 0.72529 0.93610
 Cu2317 Cu 0.62462 0.50017 0.87489
 Cu2318 Cu 0.66651 0.50030 0.83315
 Cu2319 Cu 0.37540 0.49953 0.87470
 Cu2320 Cu 0.33353 0.49944 0.83297
 Cu2321 Cu 0.62441 0.62434 1.00015
 Cu2322 Cu 0.66619 0.66611 1.00015
 Cu2323 Cu 0.62470 0.37550 1.00005
 Cu2324 Cu 0.66641 0.33369 1.00007
 Cu2325 Cu 0.37536 0.62381 1.00016
 Cu2326 Cu 0.33379 0.66577 1.00027
 Cu2327 Cu 0.37577 0.37558 1.00024
 Cu2328 Cu 0.33400 0.33379 1.00031
 Cu2329 Cu 0.49986 0.62439 0.87487
 Cu2330 Cu 0.49967 0.66631 0.83316
 Cu2331 Cu 0.50023 0.37535 0.87477
 Cu2332 Cu 0.50036 0.33347 0.83306
 C2333 C 0.57788 0.42252 0.82426
 H2334 H 0.56949 0.43084 0.84539
 C2335 C 0.60077 0.39988 0.77028
 C2336 C 0.42222 0.57725 0.82425
 H2337 H 0.43061 0.56889 0.84536
 C2338 C 0.39930 0.60003 0.77033
 C2339 C 0.42254 0.67467 0.92262
 H2340 H 0.43068 0.65337 0.93067
 C2341 C 0.40022 0.72910 0.90060
 C2342 C 0.57770 0.32487 0.92229
 H2343 H 0.56940 0.34601 0.93057
 C2344 C 0.60040 0.27085 0.89964
 C2345 C 0.67507 0.42244 0.92201
 H2346 H 0.65396 0.43078 0.93035
 C2347 C 0.72902 0.39972 0.89925
 C2348 C 0.32503 0.57729 0.92184
 H2349 H 0.34603 0.56877 0.93026
 C2350 C 0.27133 0.60047 0.89891
 C2351 C 0.57753 0.57778 0.82422
 H2352 H 0.56914 0.56934 0.84530
 C2353 C 0.60039 0.60083 0.77038
 C2354 C 0.42244 0.42189 0.82407
 H2355 H 0.43069 0.43022 0.84524
 C2356 C 0.39999 0.39913 0.76993
 C2357 C 0.67513 0.57731 0.92262
 H2358 H 0.65383 0.56917 0.93066
 C2359 C 0.72956 0.59962 0.90060
 C2360 C 0.32497 0.42251 0.92260
 H2361 H 0.34620 0.43077 0.93070
 C2362 C 0.27076 0.39984 0.90047
 C2363 C 0.57769 0.67471 0.92185
 H2364 H 0.56922 0.65369 0.93027
 C2365 C 0.60074 0.72849 0.89893
 C2366 C 0.42245 0.32513 0.92195
 H2367 H 0.43093 0.34616 0.93033
 C2368 C 0.39938 0.27134 0.89912
   
