data_POSCAR
  _audit_creation_date              2014-09-24
  _audit_creation_method            'ToBaCCo'
  _symmetry_space_group_name_H-M    'P1'
  _symmetry_Int_Tables_number       1
  _symmetry_cell_setting            triclinic
  loop_
  _symmetry_equiv_pos_as_xyz
 x,y,z
_cell_length_a 47.9292
_cell_length_b 47.9818
_cell_length_c 47.9545
_cell_angle_alpha 89.879000
_cell_angle_beta 90.013000
_cell_angle_gamma 90.046000
loop_
  _atom_site_label
  _atom_site_type_symbol
  _atom_site_fract_x
  _atom_site_fract_y
  _atom_site_fract_z
C1 C 0.36616 0.33022 0.32590
 C2 C 0.35388 0.31870 0.34987
 C3 C 0.32997 0.33080 0.36186
 C4 C 0.31829 0.35449 0.34924
 C5 C 0.33017 0.36633 0.32524
 C6 C 0.35395 0.35385 0.31350
 H7 H 0.36268 0.29981 0.35851
 H8 H 0.29965 0.36371 0.35809
 H9 H 0.36198 0.36151 0.29391
 C10 C 0.36409 0.83181 -0.16991
 C11 C 0.35150 0.81971 -0.14619
 C12 C 0.32735 0.83112 -0.13441
 C13 C 0.31523 0.85486 -0.14658
 C14 C 0.32735 0.86770 -0.17015
 C15 C 0.35175 0.85586 -0.18145
 H16 H 0.35982 0.80117 -0.13656
 H17 H 0.29576 0.86220 -0.13821
 H18 H 0.36116 0.86538 -0.19973
 C19 C 0.86647 0.33015 -0.17145
 C20 C 0.85456 0.35423 -0.18325
 C21 C 0.83075 0.36680 -0.17130
 C22 C 0.81903 0.35444 -0.14736
 C23 C 0.83053 0.33037 -0.13537
 C24 C 0.85415 0.31823 -0.14775
 H25 H 0.86314 0.36199 -0.20247
 H26 H 0.80058 0.36353 -0.13794
 H27 H 0.86271 0.29901 -0.13958
 C28 C 0.86500 0.82940 0.33193
 C29 C 0.85260 0.81689 0.35537
 C30 C 0.82939 0.82914 0.36836
 C31 C 0.81809 0.85373 0.35717
 C32 C 0.82977 0.86643 0.33323
 C33 C 0.85336 0.85393 0.32103
 H34 H 0.86006 0.79693 0.36261
 H35 H 0.79997 0.86228 0.36736
 H36 H 0.86272 0.86318 0.30260
 C37 C 0.63611 0.67217 0.33051
 C38 C 0.64790 0.68444 0.35428
 C39 C 0.67177 0.67300 0.36697
 C40 C 0.68408 0.64921 0.35522
 C41 C 0.67264 0.63660 0.33132
 C42 C 0.64879 0.64836 0.31907
 H43 H 0.63873 0.70342 0.36223
 H44 H 0.70306 0.64119 0.36442
 H45 H 0.64076 0.63924 0.30007
 C46 C 0.63375 0.17402 -0.16988
 C47 C 0.64441 0.14913 -0.18091
 C48 C 0.66783 0.13588 -0.16887
 C49 C 0.68013 0.14818 -0.14523
 C50 C 0.66974 0.17298 -0.13383
 C51 C 0.64673 0.18600 -0.14652
 H52 H 0.63423 0.14079 -0.19914
 H53 H 0.69821 0.13851 -0.13563
 H54 H 0.63988 0.20610 -0.13915
 C55 C 0.13373 0.67051 -0.16890
 C56 C 0.14552 0.64627 -0.18025
 C57 C 0.16939 0.63383 -0.16844
 C58 C 0.18149 0.64651 -0.14478
 C59 C 0.16990 0.67071 -0.13304
 C60 C 0.14632 0.68272 -0.14541
 H61 H 0.13600 0.63713 -0.19861
 H62 H 0.20072 0.63880 -0.13618
 H63 H 0.13841 0.70205 -0.13698
 C64 C 0.13712 0.17243 0.32667
 C65 C 0.14945 0.14864 0.31488
 C66 C 0.17334 0.13657 0.32692
 C67 C 0.18525 0.14901 0.35058
 C68 C 0.17330 0.17294 0.36259
 C69 C 0.14935 0.18449 0.35033
 H70 H 0.14144 0.14049 0.29551
 H71 H 0.20430 0.14031 0.35896
 H72 H 0.14022 0.20314 0.35919
 C73 C 0.63355 0.33192 0.66598
 C74 C 0.64481 0.35641 0.67735
 C75 C 0.66744 0.36998 0.66469
 C76 C 0.67856 0.35902 0.63987
 C77 C 0.66829 0.33395 0.62870
 C78 C 0.64565 0.32070 0.64173
 H79 H 0.63602 0.36486 0.69637
 H80 H 0.69473 0.37028 0.62896
 H81 H 0.63825 0.30115 0.63331
 C82 C 0.63404 0.83035 1.17055
 C83 C 0.64681 0.81837 1.14692
 C84 C 0.67086 0.83004 1.13511
 C85 C 0.68267 0.85395 1.14716
 C86 C 0.67033 0.86674 1.17061
 C87 C 0.64608 0.85457 1.18199
 H88 H 0.63875 0.79969 1.13739
 H89 H 0.70215 0.86142 1.13888
 H90 H 0.63654 0.86401 1.20019
 C91 C 0.13557 0.32911 1.16782
 C92 C 0.14817 0.31687 1.14430
 C93 C 0.17249 0.32806 1.13237
 C94 C 0.18461 0.35186 1.14446
 C95 C 0.17246 0.36466 1.16774
 C96 C 0.14819 0.35303 1.17946
 H97 H 0.13906 0.29831 1.13516
 H98 H 0.20396 0.36024 1.13641
 H99 H 0.14035 0.36194 1.19846
 C100 C 0.13024 0.83114 0.66736
 C101 C 0.14085 0.82047 0.64204
 C102 C 0.16522 0.83153 0.62998
 C103 C 0.17831 0.85440 0.64252
 C104 C 0.16774 0.86605 0.66722
 C105 C 0.14399 0.85406 0.67954
 H106 H 0.13031 0.80392 0.63121
 H107 H 0.19735 0.86229 0.63333
 H108 H 0.13622 0.86271 0.69893
 C109 C 0.36321 0.67233 0.67107
 C110 C 0.35136 0.68384 0.64692
 C111 C 0.32772 0.67192 0.63453
 C112 C 0.31548 0.64828 0.64692
 C113 C 0.32708 0.63629 0.67109
 C114 C 0.35078 0.64860 0.68311
 H115 H 0.36055 0.70237 0.63775
 H116 H 0.29612 0.64025 0.63871
 H117 H 0.35886 0.63998 0.70235
 C118 C 0.36907 0.16897 1.16869
 C119 C 0.35639 0.14538 1.18101
 C120 C 0.33218 0.13347 1.16949
 C121 C 0.32019 0.14561 1.14575
 C122 C 0.33239 0.16905 1.13301
 C123 C 0.35664 0.18054 1.14471
 H124 H 0.36411 0.13699 1.20032
 H125 H 0.30086 0.13705 1.13784
 H126 H 0.36580 0.19885 1.13504
 C127 C 0.86485 0.66947 1.17293
 C128 C 0.85259 0.68144 1.14905
 C129 C 0.82847 0.67013 1.13695
 C130 C 0.81615 0.64649 1.14921
 C131 C 0.82796 0.63390 1.17280
 C132 C 0.85214 0.64559 1.18469
 H133 H 0.86180 0.69991 1.13975
 H134 H 0.79688 0.63809 1.14099
 H135 H 0.85989 0.63671 1.20379
 C136 C 0.86728 0.16719 0.67039
 C137 C 0.85521 0.14311 0.68243
 C138 C 0.83043 0.13132 0.67160
 C139 C 0.81802 0.14396 0.64819
 C140 C 0.82987 0.16763 0.63559
 C141 C 0.85422 0.17909 0.64697
 H142 H 0.86448 0.13421 0.70067
 H143 H 0.79855 0.13567 0.64032
 H144 H 0.86300 0.19766 0.63744
 C145 C 0.32757 0.36674 0.67078
 C146 C 0.35152 0.35478 0.68260
 C147 C 0.36417 0.33128 0.67051
 C148 C 0.35221 0.31949 0.64655
 C149 C 0.32816 0.33113 0.63435
 C150 C 0.31592 0.35461 0.64674
 H151 H 0.35964 0.36350 0.70173
 H152 H 0.36136 0.30074 0.63809
 H153 H 0.29680 0.36277 0.63795
 C154 C 0.32891 0.86429 0.17186
 C155 C 0.35288 0.85248 0.18385
 C156 C 0.36560 0.82888 0.17198
 C157 C 0.35375 0.81700 0.14803
 C158 C 0.32983 0.82845 0.13569
 C159 C 0.31731 0.85193 0.14795
 H160 H 0.36092 0.86138 0.20293
 H161 H 0.36316 0.79857 0.13898
 H162 H 0.29775 0.85957 0.13985
 C163 C 0.82823 0.36530 0.17313
 C164 C 0.81665 0.35344 0.14903
 C165 C 0.82890 0.33016 0.13629
 C166 C 0.85295 0.31841 0.14831
 C167 C 0.86497 0.32993 0.17232
 C168 C 0.85233 0.35324 0.18482
 H169 H 0.79783 0.36232 0.14016
 H170 H 0.86211 0.29975 0.13962
 H171 H 0.86032 0.36093 0.20439
 C172 C 0.82628 0.86576 0.67598
 C173 C 0.85050 0.85368 0.68734
 C174 C 0.86279 0.83021 0.67500
 C175 C 0.85026 0.81850 0.65119
 C176 C 0.82608 0.83021 0.63953
 C177 C 0.81412 0.85374 0.65225
 H178 H 0.85955 0.86187 0.70629
 H179 H 0.85867 0.79973 0.64200
 H180 H 0.79486 0.86245 0.64436
 C181 C 0.66995 0.63640 0.67506
 C182 C 0.64606 0.64891 0.68662
 C183 C 0.63418 0.67274 0.67424
 C184 C 0.64682 0.68421 0.65045
 C185 C 0.67070 0.67213 0.63866
 C186 C 0.68222 0.64829 0.65130
 H187 H 0.63771 0.64106 0.70600
 H188 H 0.63806 0.70285 0.64108
 H189 H 0.70126 0.63923 0.64332
 C190 C 0.67346 0.13504 0.17143
 C191 C 0.68531 0.14739 0.14753
 C192 C 0.67339 0.17122 0.13540
 C193 C 0.64956 0.18304 0.14775
 C194 C 0.63739 0.17106 0.17151
 C195 C 0.64963 0.14715 0.18333
 H196 H 0.70431 0.13913 0.13864
 H197 H 0.64074 0.20211 0.13954
 H198 H 0.64128 0.13825 0.20232
 C199 C 0.16606 0.63280 0.16650
 C200 C 0.14173 0.64431 0.17824
 C201 C 0.12825 0.66700 0.16555
 C202 C 0.13905 0.67786 0.14049
 C203 C 0.16389 0.66730 0.12908
 C204 C 0.17701 0.64465 0.14208
 H205 H 0.13363 0.63641 0.19778
 H206 H 0.12788 0.69408 0.12957
 H207 H 0.19608 0.63632 0.13325
 C208 C 0.17122 0.13641 0.66862
 C209 C 0.14731 0.14870 0.68036
 C210 C 0.13529 0.17261 0.66835
 C211 C 0.14790 0.18460 0.64483
 C212 C 0.17189 0.17288 0.63287
 C213 C 0.18348 0.14879 0.64505
 H214 H 0.13902 0.14064 0.69967
 H215 H 0.13903 0.20336 0.63582
 H216 H 0.20253 0.13992 0.63689
 C217 C 0.32649 0.63675 0.32633
 C218 C 0.35073 0.64879 0.31513
 C219 C 0.36293 0.67244 0.32727
 C220 C 0.35023 0.68432 0.35087
 C221 C 0.32606 0.67261 0.36250
 C222 C 0.31410 0.64899 0.34992
 H223 H 0.36012 0.63975 0.29667
 H224 H 0.35851 0.70320 0.35998
 H225 H 0.29441 0.64114 0.35754
 C226 C 0.33432 0.12942 0.82932
 C227 C 0.35920 0.14079 0.81867
 C228 C 0.37018 0.16572 0.82950
 C229 C 0.35686 0.17833 0.85225
 C230 C 0.33259 0.16680 0.86393
 C231 C 0.32131 0.14243 0.85208
 H232 H 0.37034 0.12993 0.80244
 H233 H 0.36536 0.19743 0.86084
 H234 H 0.30192 0.13385 0.85981
 C235 C 0.82935 0.63304 0.83147
 C236 C 0.85439 0.64368 0.82064
 C237 C 0.86723 0.66721 0.83256
 C238 C 0.85511 0.67942 0.85620
 C239 C 0.83016 0.66906 0.86748
 C240 C 0.81710 0.64616 0.85463
 H241 H 0.86381 0.63327 0.80301
 H242 H 0.86493 0.69746 0.86563
 H243 H 0.79685 0.63941 0.86182
 C244 C 0.83018 0.13537 0.32846
 C245 C 0.81870 0.14784 0.35239
 C246 C 0.83075 0.17179 0.36410
 C247 C 0.85438 0.18360 0.35130
 C248 C 0.86618 0.17154 0.32743
 C249 C 0.85378 0.14751 0.31604
 H250 H 0.79984 0.13959 0.36166
 H251 H 0.86333 0.20270 0.35924
 H252 H 0.86181 0.13852 0.29700
 C253 C 0.66681 0.36691 0.33490
 C254 C 0.67843 0.35494 0.35899
 C255 C 0.66583 0.33194 0.37204
 C256 C 0.64086 0.32120 0.36098
 C257 C 0.62947 0.33219 0.33628
 C258 C 0.64243 0.35513 0.32354
 H259 H 0.69757 0.36345 0.36751
 H260 H 0.62999 0.30473 0.37185
 H261 H 0.63385 0.36300 0.30421
 C262 C 0.66851 0.86538 0.83117
 C263 C 0.64471 0.85307 0.81924
 C264 C 0.63286 0.82893 0.83079
 C265 C 0.64535 0.81679 0.85445
 C266 C 0.66915 0.82871 0.86666
 C267 C 0.68071 0.85290 0.85466
 H268 H 0.63569 0.86161 0.80040
 H269 H 0.63722 0.79756 0.86305
 H270 H 0.69973 0.86180 0.86291
 C271 C 0.17174 0.36344 0.82718
 C272 C 0.14808 0.35077 0.81530
 C273 C 0.13648 0.32658 0.82701
 C274 C 0.14911 0.31469 0.85069
 C275 C 0.17273 0.32695 0.86289
 C276 C 0.18401 0.35124 0.85082
 H277 H 0.13894 0.35908 0.79642
 H278 H 0.14124 0.29541 0.85938
 H279 H 0.20287 0.36041 0.85914
 C280 C 0.17087 0.86583 0.32821
 C281 C 0.14704 0.85363 0.31615
 C282 C 0.13456 0.82996 0.32826
 C283 C 0.14652 0.81832 0.35233
 C284 C 0.17030 0.83012 0.36461
 C285 C 0.18246 0.85378 0.35221
 H286 H 0.13925 0.86159 0.29658
 H287 H 0.13731 0.79979 0.36150
 H288 H 0.20150 0.86255 0.36056
 O289 O 0.21647 0.97320 0.25440
 O290 O 0.25388 1.02669 0.21424
 O291 O 0.25491 0.97241 0.21617
 O292 O 0.21728 1.02750 0.25424
 O293 O 0.25060 1.02800 0.28605
 O294 O 0.28806 0.97311 0.24817
 O295 O 0.28723 1.02732 0.24602
 O296 O 0.24964 0.97364 0.28637
 Cu297 Cu 0.23229 0.99989 0.23157
 Cu298 Cu 0.27220 1.00060 0.26986
 C299 C 0.22667 0.96418 0.27712
 C300 C 0.27686 1.03617 0.22325
 C301 C 0.27790 0.96334 0.22582
 C302 C 0.22767 1.03720 0.27662
 O303 O 0.24516 0.52846 0.78613
 O304 O 0.28495 0.47429 0.74906
 O305 O 0.28494 0.52859 0.74933
 O306 O 0.24668 0.47412 0.78742
 O307 O 0.21461 0.47331 0.75436
 O308 O 0.25296 0.52812 0.71617
 O309 O 0.25292 0.47379 0.71595
 O310 O 0.21313 0.52776 0.75304
 Cu311 Cu 0.26861 0.50144 0.77132
 Cu312 Cu 0.23017 0.50068 0.73157
 C313 C 0.22245 0.53747 0.77580
 C314 C 0.27563 0.46476 0.72619
 C315 C 0.27549 0.53773 0.72636
 C316 C 0.22429 0.46427 0.77736
 O317 O 0.75467 -0.02766 0.28698
 O318 O 0.71550 0.02675 0.24944
 O319 O 0.71493 -0.02770 0.25011
 O320 O 0.75520 0.02677 0.28646
 O321 O 0.78664 0.02620 0.25282
 O322 O 0.74639 -0.02809 0.21649
 O323 O 0.74697 0.02628 0.21582
 O324 O 0.78612 -0.02823 0.25336
 Cu325 Cu 0.73193 -0.00038 0.27163
 Cu326 Cu 0.76968 -0.00101 0.23125
 C327 C 0.77696 -0.03738 0.27646
 C328 C 0.72463 0.03590 0.22631
 C329 C 0.72392 -0.03731 0.22716
 C330 C 0.77770 0.03586 0.27575
 O331 O 0.74560 0.47249 0.71563
 O332 O 0.78480 0.52654 0.75318
 O333 O 0.78377 0.47232 0.75393
 O334 O 0.74597 0.52684 0.71533
 O335 O 0.71356 0.52740 0.74805
 O336 O 0.75136 0.47282 0.78665
 O337 O 0.75245 0.52715 0.78596
 O338 O 0.71308 0.47296 0.74823
 Cu339 Cu 0.76827 0.49951 0.73121
 Cu340 Cu 0.72933 0.50017 0.77050
 C341 C 0.72282 0.46331 0.72561
 C342 C 0.77533 0.53610 0.77593
 C343 C 0.77394 0.46317 0.77679
 C344 C 0.72340 0.53652 0.72519
 O345 O 0.21513 0.52757 0.24171
 O346 O 0.25296 0.47399 0.28133
 O347 O 0.25359 0.52835 0.28001
 O348 O 0.21650 0.47330 0.24116
 O349 O 0.24990 0.47344 0.20945
 O350 O 0.28681 0.52831 0.24812
 O351 O 0.28635 0.47394 0.24961
 O352 O 0.24834 0.52781 0.20980
 Cu353 Cu 0.23122 0.50080 0.26425
 Cu354 Cu 0.27120 0.50090 0.22607
 C355 C 0.22524 0.53689 0.21907
 C356 C 0.27597 0.46470 0.27223
 C357 C 0.27653 0.53777 0.27054
 C358 C 0.22700 0.46394 0.21870
 O359 O 0.74907 1.02802 0.71756
 O360 O 0.71153 0.97440 0.75786
 O361 O 0.71204 1.02880 0.75711
 O362 O 0.74872 0.97373 0.71841
 O363 O 0.78225 0.97385 0.75000
 O364 O 0.74552 1.02893 0.78874
 O365 O 0.74506 0.97451 0.78944
 O366 O 0.78255 1.02809 0.74921
 Cu367 Cu 0.72694 1.00121 0.73459
 Cu368 Cu 0.76720 1.00135 0.77254
 C369 C 0.77218 1.03726 0.72659
 C370 C 0.72200 0.96518 0.78041
 C371 C 0.72264 1.03842 0.77940
 C372 C 0.77170 0.96436 0.72763
 O373 O 0.74906 0.52619 0.21627
 O374 O 0.71235 0.47233 0.25716
 O375 O 0.71187 0.52664 0.25567
 O376 O 0.74894 0.47180 0.21704
 O377 O 0.78270 0.47239 0.24838
 O378 O 0.74559 0.52747 0.28705
 O379 O 0.74610 0.47303 0.28850
 O380 O 0.78283 0.52670 0.24760
 Cu381 Cu 0.72717 0.49914 0.23340
 Cu382 Cu 0.76768 0.49995 0.27104
 C383 C 0.77217 0.53570 0.22505
 C384 C 0.72302 0.46345 0.27977
 C385 C 0.72244 0.53654 0.27780
 C386 C 0.77208 0.46270 0.22611
 O387 O 0.21418 0.02757 0.74290
 O388 O 0.25185 -0.02717 0.78185
 O389 O 0.25130 0.02725 0.78247
 O390 O 0.21234 -0.02676 0.74468
 O391 O 0.24487 -0.02762 0.71209
 O392 O 0.28389 0.02693 0.74993
 O393 O 0.28445 -0.02755 0.74932
 O394 O 0.24682 0.02671 0.71041
 Cu395 Cu 0.22917 0.00028 0.76623
 Cu396 Cu 0.26828 -0.00047 0.72720
 C397 C 0.22424 0.03654 0.72002
 C398 C 0.27456 -0.03677 0.77206
 C399 C 0.27403 0.03651 0.77261
 C400 C 0.22191 -0.03650 0.72207
 O401 O 0.24787 0.28309 0.97064
 O402 O 0.28817 0.24647 1.02486
 O403 O 0.28767 0.24624 0.97039
 O404 O 0.24794 0.28286 1.02504
 O405 O 0.21681 0.24892 1.02529
 O406 O 0.25651 0.21232 0.97066
 O407 O 0.25704 0.21253 1.02508
 O408 O 0.21671 0.24918 0.97081
 Cu409 Cu 0.27103 0.26806 0.99771
 Cu410 Cu 0.23365 0.22734 0.99798
 C411 C 0.22549 0.27232 0.96139
 C412 C 0.27942 0.22334 1.03431
 C413 C 0.27880 0.22309 0.96112
 C414 C 0.22565 0.27206 1.03456
 O415 O 0.24529 0.78629 0.47210
 O416 O 0.28601 0.74896 0.52552
 O417 O 0.28499 0.74940 0.47116
 O418 O 0.24711 0.78656 0.52641
 O419 O 0.21542 0.75313 0.52731
 O420 O 0.25323 0.71602 0.47179
 O421 O 0.25432 0.71553 0.52612
 O422 O 0.21355 0.75290 0.47292
 Cu423 Cu 0.26903 0.77116 0.49869
 Cu424 Cu 0.23093 0.73104 0.49960
 C425 C 0.22253 0.77588 0.46334
 C426 C 0.27700 0.72594 0.53503
 C427 C 0.27555 0.72648 0.46197
 C428 C 0.22496 0.77609 0.53644
 O429 O 0.24754 0.71399 0.02754
 O430 O 0.28585 0.75182 -0.02719
 O431 O 0.28690 0.75122 0.02716
 O432 O 0.24599 0.71496 -0.02670
 O433 O 0.21457 0.74859 -0.02577
 O434 O 0.25539 0.78475 0.02811
 O435 O 0.25440 0.78540 -0.02614
 O436 O 0.21600 0.74751 0.02855
 Cu437 Cu 0.26974 0.72962 0.00006
 Cu438 Cu 0.23192 0.76994 0.00129
 C439 C 0.22532 0.72436 0.03746
 C440 C 0.27665 0.77500 -0.03603
 C441 C 0.27802 0.77413 0.03690
 C442 C 0.22334 0.72562 -0.03545
 O443 O 0.21334 0.25182 0.47060
 O444 O 0.25118 0.29050 0.52505
 O445 O 0.25143 0.29043 0.47060
 O446 O 0.21317 0.25180 0.52498
 O447 O 0.24598 0.21952 0.52523
 O448 O 0.28427 0.25819 0.47084
 O449 O 0.28401 0.25825 0.52531
 O450 O 0.24615 0.21954 0.47081
 Cu451 Cu 0.22900 0.27437 0.49779
 Cu452 Cu 0.26841 0.23564 0.49807
 C453 C 0.22333 0.22916 0.46134
 C454 C 0.27394 0.28090 0.53458
 C455 C 0.27428 0.28082 0.46133
 C456 C 0.22308 0.22915 0.53446
 O457 O 0.75468 0.71429 0.97429
 O458 O 0.71458 0.75116 1.02834
 O459 O 0.71432 0.75048 0.97397
 O460 O 0.75438 0.71436 1.02864
 O461 O 0.78549 0.74832 1.02849
 O462 O 0.74539 0.78449 0.97369
 O463 O 0.74568 0.78513 1.02799
 O464 O 0.78579 0.74826 0.97402
 Cu465 Cu 0.73138 0.72915 1.00133
 Cu466 Cu 0.76872 0.76995 1.00101
 C467 C 0.77702 0.72506 0.96487
 C468 C 0.72336 0.77440 1.03743
 C469 C 0.72303 0.77360 0.96446
 C470 C 0.77667 0.72522 1.03799
 O471 O 0.74983 0.28423 0.47348
 O472 O 0.78817 0.24556 0.52755
 O473 O 0.78738 0.24514 0.47314
 O474 O 0.74919 0.28323 0.52788
 O475 O 0.71651 0.25076 0.52764
 O476 O 0.75478 0.21259 0.47340
 O477 O 0.75549 0.21309 0.52777
 O478 O 0.71727 0.25164 0.47324
 Cu479 Cu 0.77192 0.26780 0.50053
 Cu480 Cu 0.73273 0.22877 0.50051
 C481 C 0.72716 0.27446 0.46396
 C482 C 0.77836 0.22287 0.53700
 C483 C 0.77744 0.22239 0.46387
 C484 C 0.72636 0.27336 0.53716
 O485 O 0.78667 0.25620 -0.02706
 O486 O 0.75042 0.21589 0.02730
 O487 O 0.74971 0.21648 -0.02710
 O488 O 0.78634 0.25652 0.02731
 O489 O 0.75224 0.28744 0.02739
 O490 O 0.71567 0.24746 -0.02684
 O491 O 0.71631 0.24681 0.02748
 O492 O 0.75262 0.28718 -0.02705
 Cu493 Cu 0.77171 0.23318 0.00009
 Cu494 Cu 0.73080 0.27033 0.00025
 C495 C 0.77580 0.27847 -0.03643
 C496 C 0.72726 0.22450 0.03674
 C497 C 0.72645 0.22524 -0.03629
 C498 C 0.77543 0.27874 0.03671
 O499 O 0.74574 0.71606 0.53067
 O500 O 0.78464 0.75449 0.47640
 O501 O 0.78496 0.75355 0.53079
 O502 O 0.74730 0.71516 0.47630
 O503 O 0.71465 0.74760 0.47561
 O504 O 0.75231 0.78600 0.53068
 O505 O 0.75200 0.78696 0.47628
 O506 O 0.71310 0.74851 0.52998
 Cu507 Cu 0.76893 0.73157 0.50358
 Cu508 Cu 0.72975 0.77052 0.50309
 C509 C 0.72279 0.72588 0.53962
 C510 C 0.77479 0.77728 0.46704
 C511 C 0.77506 0.77617 0.54017
 C512 C 0.72470 0.72483 0.46653
 O513 O 0.97408 0.25259 0.21291
 O514 O 1.02839 0.21534 0.25261
 O515 O 0.97400 0.21518 0.25223
 O516 O 1.02859 0.25148 0.21214
 O517 O 1.02901 0.28520 0.24340
 O518 O 0.97431 0.24891 0.28348
 O519 O 1.02868 0.24911 0.28383
 O520 O 0.97458 0.28628 0.24419
 Cu521 Cu 1.00122 0.23027 0.22932
 Cu522 Cu 1.00168 0.27078 0.26683
 C523 C 0.96495 0.27572 0.22192
 C524 C 1.03786 0.22599 0.27496
 C525 C 0.96478 0.22588 0.27461
 C526 C 1.03827 0.27442 0.22104
 O527 O 0.52716 0.28807 0.74547
 O528 O 0.47255 0.24967 0.78348
 O529 O 0.52700 0.24933 0.78357
 O530 O 0.47274 0.28739 0.74448
 O531 O 0.47329 0.25481 0.71202
 O532 O 0.52718 0.21674 0.75113
 O533 O 0.47275 0.21717 0.75095
 O534 O 0.52765 0.25547 0.71303
 Cu535 Cu 0.49985 0.27189 0.76751
 Cu536 Cu 0.50029 0.23276 0.72855
 C537 C 0.53676 0.27833 0.72284
 C538 C 0.46316 0.22702 0.77360
 C539 C 0.53637 0.22653 0.77390
 C540 C 0.46369 0.27746 0.72164
 O541 O 0.02630 0.24942 0.71111
 O542 O -0.02733 0.28581 0.75225
 O543 O 0.02696 0.28666 0.75037
 O544 O -0.02819 0.24900 0.71246
 O545 O -0.02681 0.21544 0.74400
 O546 O 0.02816 0.25318 0.78202
 O547 O -0.02619 0.25218 0.78374
 O548 O 0.02752 0.21593 0.74275
 Cu549 Cu -0.00071 0.27108 0.72836
 Cu550 Cu 0.00080 0.23080 0.76629
 C551 C 0.03616 0.22653 0.72004
 C552 C -0.03594 0.27516 0.77496
 C553 C 0.03701 0.27632 0.77258
 C554 C -0.03698 0.22585 0.72183
 O555 O 0.47429 0.28581 0.25201
 O556 O 0.52864 0.24852 0.21259
 O557 O 0.47418 0.24908 0.21222
 O558 O 0.52867 0.28635 0.25133
 O559 O 0.52878 0.25300 0.28314
 O560 O 0.47432 0.21570 0.24398
 O561 O 0.52867 0.21522 0.24444
 O562 O 0.47438 0.25239 0.28375
 Cu563 Cu 0.50143 0.27079 0.22884
 Cu564 Cu 0.50154 0.23072 0.26701
 C565 C 0.46500 0.27535 0.27456
 C566 C 0.53802 0.22558 0.22190
 C567 C 0.46486 0.22611 0.22149
 C568 C 0.53812 0.27599 0.27378
 O569 O 1.02557 0.71543 0.75375
 O570 O 0.97171 0.75625 0.71724
 O571 O 1.02609 0.75546 0.71706
 O572 O 0.97108 0.71723 0.75477
 O573 O 0.97232 0.74865 0.78833
 O574 O 1.02723 0.78698 0.75051
 O575 O 0.97273 0.78772 0.75074
 O576 O 1.02676 0.74690 0.78725
 Cu577 Cu 0.99853 0.73293 0.73236
 Cu578 Cu 0.99992 0.77071 0.77258
 C579 C 1.03544 0.72425 0.77664
 C580 C 0.96288 0.77882 0.72784
 C581 C 1.03609 0.77771 0.72739
 C582 C 0.96213 0.72659 0.77788
 O583 O 0.52847 0.71530 0.25507
 O584 O 0.47481 0.75268 0.21473
 O585 O 0.52917 0.75381 0.21689
 O586 O 0.47409 0.71418 0.25289
 O587 O 0.47229 0.74655 0.28551
 O588 O 0.52746 0.78625 0.24942
 O589 O 0.47305 0.78510 0.24729
 O590 O 0.52670 0.74774 0.28762
 Cu591 Cu 0.50183 0.73075 0.23163
 Cu592 Cu 0.49967 0.76966 0.27074
 C593 C 0.53685 0.72524 0.27815
 C594 C 0.46469 0.77518 0.22420
 C595 C 0.53783 0.77668 0.22704
 C596 C 0.46369 0.72368 0.27527
 O597 O -0.02772 0.78622 0.25304
 O598 O 0.02655 0.74669 0.21600
 O599 O -0.02794 0.74768 0.21499
 O600 O 0.02662 0.78515 0.25405
 O601 O 0.02568 0.75261 0.28667
 O602 O -0.02914 0.71542 0.24787
 O603 O 0.02534 0.71413 0.24859
 O604 O -0.02865 0.75395 0.28592
 Cu605 Cu -0.00051 0.76966 0.23120
 Cu606 Cu -0.00183 0.73076 0.27053
 C607 C -0.03746 0.77681 0.27579
 C608 C 0.03535 0.72380 0.22605
 C609 C -0.03801 0.72527 0.22491
 C610 C 0.03553 0.77518 0.27695
 O611 O 0.47034 0.78966 0.75059
 O612 O 0.52545 0.75149 0.71322
 O613 O 0.47103 0.75103 0.71264
 O614 O 0.52480 0.78932 0.75196
 O615 O 0.52432 0.75663 0.78444
 O616 O 0.47056 0.71841 0.74520
 O617 O 0.52495 0.71880 0.74571
 O618 O 0.46986 0.75703 0.78312
 Cu619 Cu 0.49796 0.77365 0.72885
 Cu620 Cu 0.49737 0.73446 0.76790
 C621 C 0.46058 0.77977 0.77313
 C622 C 0.53467 0.72873 0.72311
 C623 C 0.46155 0.72825 0.72230
 C624 C 0.53385 0.77941 0.77481
 C625 C 0.39046 0.31580 0.31327
 C626 C 0.40885 0.32845 0.29630
 C627 C 0.43211 0.31402 0.28211
 C628 C 0.44275 0.28949 0.29026
 H629 H 0.40656 0.35034 0.29144
 H630 H 0.44101 0.32458 0.26422
 H631 H 0.39290 0.29394 0.31821
 H632 H 0.43517 0.27922 0.30887
 C633 C 0.38802 0.82065 0.81689
 C634 C 0.40217 0.79794 0.82556
 C635 C 0.42617 0.78519 0.81084
 C636 C 0.43790 0.79487 0.78733
 H637 H 0.39620 0.78695 0.84424
 H638 H 0.43419 0.76615 0.82001
 H639 H 0.39505 0.83119 0.79825
 H640 H 0.43069 0.81385 0.77760
 C641 C -0.10949 0.31568 0.81547
 C642 C -0.09081 0.32854 0.79898
 C643 C -0.06802 0.31410 0.78409
 C644 C -0.05780 0.28912 0.79135
 H645 H -0.09256 0.35065 0.79499
 H646 H -0.05907 0.32507 0.76647
 H647 H -0.10753 0.29360 0.81957
 H648 H -0.06534 0.27845 0.80975
 C649 C -0.11107 0.81649 0.31715
 C650 C -0.09311 0.79878 0.32936
 C651 C -0.07021 0.78438 0.31458
 C652 C -0.05948 0.79266 0.29011
 H653 H -0.09550 0.79350 0.35115
 H654 H -0.06161 0.76619 0.32488
 H655 H -0.10852 0.82189 0.29540
 H656 H -0.06674 0.81151 0.28009
 C657 C 0.61174 0.68599 0.31727
 C658 C 0.59392 0.67306 0.29996
 C659 C 0.57061 0.68722 0.28551
 C660 C 0.55895 0.71110 0.29412
 H661 H 0.59678 0.65130 0.29498
 H662 H 0.56255 0.67703 0.26704
 H663 H 0.60872 0.70780 0.32205
 H664 H 0.56567 0.72087 0.31329
 C665 C 0.61016 0.18771 0.81542
 C666 C 0.59265 0.20586 0.82753
 C667 C 0.56969 0.22019 0.81263
 C668 C 0.55841 0.21111 0.78871
 H669 H 0.59536 0.21139 0.84921
 H670 H 0.56151 0.23886 0.82230
 H671 H 0.60738 0.18233 0.79372
 H672 H 0.56529 0.19181 0.77940
 C673 C 1.10939 0.68338 0.81683
 C674 C 1.09163 0.70103 0.82937
 C675 C 1.06852 0.71568 0.81505
 C676 C 1.05754 0.70798 0.79052
 H677 H 1.09438 0.70615 0.85113
 H678 H 1.06003 0.73365 0.82572
 H679 H 1.10643 0.67811 0.79512
 H680 H 1.06472 0.68939 0.78006
 C681 C 1.11267 0.18641 0.31382
 C682 C 1.09435 0.17339 0.29711
 C683 C 1.07094 0.18751 0.28279
 C684 C 1.06009 0.21195 0.29079
 H685 H 1.09683 0.15147 0.29257
 H686 H 1.06216 0.17684 0.26494
 H687 H 1.11007 0.20832 0.31837
 H688 H 1.06757 0.22230 0.30935
 C689 C 0.61025 0.31802 0.68098
 C690 C 0.59266 0.29977 0.66906
 C691 C 0.56994 0.28520 0.68413
 C692 C 0.55891 0.29390 0.70829
 H693 H 0.59505 0.29435 0.64734
 H694 H 0.56161 0.26669 0.67425
 H695 H 0.60772 0.32332 0.70274
 H696 H 0.56592 0.31305 0.71785
 C697 C 0.61019 0.81890 0.18375
 C698 C 0.59625 0.79610 0.17501
 C699 C 0.57236 0.78297 0.18963
 C700 C 0.56046 0.79226 0.21316
 H701 H 0.60231 0.78531 0.15630
 H702 H 0.56456 0.76396 0.18029
 H703 H 0.60303 0.82926 0.20239
 H704 H 0.56743 0.81122 0.22305
 C705 C 1.11153 0.31624 0.17921
 C706 C 1.09633 0.32643 0.20055
 C707 C 1.07236 0.31213 0.21388
 C708 C 1.06087 0.28813 0.20530
 H709 H 1.10132 0.34624 0.20985
 H710 H 1.06408 0.32215 0.23232
 H711 H 1.10521 0.29672 0.16995
 H712 H 1.06820 0.27770 0.18677
 C713 C 1.10685 0.81972 0.68137
 C714 C 1.09258 0.79694 0.67315
 C715 C 1.06909 0.78396 0.68855
 C716 C 1.05850 0.79296 0.71282
 H717 H 1.09819 0.78591 0.65443
 H718 H 1.06047 0.76530 0.67922
 H719 H 1.10061 0.82991 0.70044
 H720 H 1.06643 0.81148 0.72283
 C721 C 0.38737 0.68683 0.68390
 C722 C 0.40533 0.67463 0.70163
 C723 C 0.42850 0.68946 0.71564
 C724 C 0.43950 0.71360 0.70672
 H725 H 0.40272 0.65296 0.70723
 H726 H 0.43699 0.67955 0.73409
 H727 H 0.39011 0.70853 0.67842
 H728 H 0.43233 0.72321 0.68761
 C729 C 0.39298 0.18221 0.17983
 C730 C 0.40793 0.17276 0.20170
 C731 C 0.43171 0.18757 0.21473
 C732 C 0.44245 0.21190 0.20603
 H733 H 0.40295 0.15322 0.21162
 H734 H 0.44040 0.17774 0.23314
 H735 H 0.39939 0.20138 0.16987
 H736 H 0.43465 0.22226 0.18761
 C737 C -0.11131 0.68259 0.18438
 C738 C -0.09657 0.67311 0.20638
 C739 C -0.07271 0.68782 0.21943
 C740 C -0.06055 0.71105 0.20959
 H741 H -0.10196 0.65377 0.21651
 H742 H -0.06502 0.67877 0.23867
 H743 H -0.10480 0.70184 0.17462
 H744 H -0.06722 0.72046 0.19024
 C745 C -0.10869 0.18059 0.68117
 C746 C -0.09352 0.17164 0.70311
 C747 C -0.06964 0.18678 0.71560
 C748 C -0.05957 0.21139 0.70685
 H749 H -0.09836 0.15235 0.71356
 H750 H -0.06033 0.17700 0.73373
 H751 H -0.10244 0.19967 0.67093
 H752 H -0.06808 0.22182 0.68879
 C753 C 0.31602 0.39051 0.31203
 C754 C 0.32880 0.40841 0.29460
 C755 C 0.31450 0.43156 0.28000
 C756 C 0.29018 0.44263 0.28818
 H757 H 0.35064 0.40578 0.28970
 H758 H 0.32494 0.43999 0.26181
 H759 H 0.29418 0.39328 0.31692
 H760 H 0.28006 0.43549 0.30703
 C761 C 0.31577 -0.10868 0.81642
 C762 C 0.29325 -0.09438 0.82531
 C763 C 0.28016 -0.07068 0.81033
 C764 C 0.28970 -0.05918 0.78666
 H765 H 0.28282 -0.09991 0.84444
 H766 H 0.26112 -0.06265 0.81944
 H767 H 0.32596 -0.10193 0.79749
 H768 H 0.30873 -0.06636 0.77704
 C769 C 0.81746 0.39055 0.81734
 C770 C 0.82683 0.40544 0.79538
 C771 C 0.81191 0.42916 0.78238
 C772 C 0.78838 0.44077 0.79206
 H773 H 0.84626 0.40032 0.78531
 H774 H 0.82101 0.43718 0.76330
 H775 H 0.79821 0.39687 0.82716
 H776 H 0.77887 0.43376 0.81124
 C777 C 0.81862 -0.10945 0.32037
 C778 C 0.79609 -0.09524 0.32933
 C779 C 0.78328 -0.07115 0.31472
 C780 C 0.79230 -0.05994 0.29067
 H781 H 0.78531 -0.10128 0.34810
 H782 H 0.76466 -0.06274 0.32434
 H783 H 0.82899 -0.10235 0.30166
 H784 H 0.81078 -0.06762 0.28040
 C785 C 0.31393 0.61224 0.68554
 C786 C 0.29684 0.59395 0.67296
 C787 C 0.28255 0.57078 0.68756
 C788 C 0.29098 0.56000 0.71195
 H789 H 0.29204 0.59621 0.65105
 H790 H 0.26447 0.56200 0.67723
 H791 H 0.31864 0.60985 0.70747
 H792 H 0.30977 0.56748 0.72194
 C793 C 0.31767 1.10962 0.18293
 C794 C 0.33050 1.09107 0.19958
 C795 C 0.31595 1.06836 0.21456
 C796 C 0.29113 1.05798 0.20701
 H797 H 0.35263 1.09283 0.20357
 H798 H 0.32668 1.05958 0.23242
 H799 H 0.29555 1.10766 0.17891
 H800 H 0.28076 1.06536 0.18838
 C801 C 0.81330 0.60977 0.18562
 C802 C 0.82598 0.59081 0.20191
 C803 C 0.81133 0.56782 0.21639
 C804 C 0.78631 0.55774 0.20893
 H805 H 0.84809 0.59245 0.20602
 H806 H 0.82219 0.55857 0.23393
 H807 H 0.79121 0.60791 0.18142
 H808 H 0.77572 0.56560 0.19062
 C809 C 0.81682 1.10801 0.68365
 C810 C 0.82626 1.09316 0.70560
 C811 C 0.81100 1.07001 0.71928
 C812 C 0.78667 1.05919 0.71065
 H813 H 0.84600 1.09785 0.71525
 H814 H 0.82059 1.06176 0.73802
 H815 H 0.79713 1.10207 0.67444
 H816 H 0.77660 1.06647 0.69187
 C817 C 0.68578 0.61228 0.31740
 C818 C 0.70360 0.59464 0.32995
 C819 C 0.71737 0.57108 0.31555
 C820 C 0.70753 0.55909 0.29230
 H821 H 0.70938 0.59773 0.35150
 H822 H 0.73624 0.56306 0.32506
 H823 H 0.68039 0.60906 0.29575
 H824 H 0.68797 0.56582 0.28329
 C825 C 0.68012 1.11140 0.82028
 C826 C 0.67091 1.09725 0.79783
 C827 C 0.68502 1.07280 0.78531
 C828 C 0.70880 1.06126 0.79451
 H829 H 0.65231 1.10360 0.78692
 H830 H 0.67529 1.06445 0.76672
 H831 H 0.69856 1.10395 0.83085
 H832 H 0.71918 1.06886 0.81297
 C833 C 0.18066 0.60992 0.81852
 C834 C 0.20236 0.59493 0.82832
 C835 C 0.21564 0.57118 0.81376
 C836 C 0.20675 0.55980 0.78984
 H837 H 0.21203 0.59993 0.84797
 H838 H 0.23433 0.56300 0.82349
 H839 H 0.17102 0.60356 0.79918
 H840 H 0.18798 0.56702 0.77969
 C841 C 0.18760 1.11225 0.31424
 C842 C 0.17478 1.09380 0.29753
 C843 C 0.18911 1.07040 0.28352
 C844 C 0.21351 1.05966 0.29192
 H845 H 0.15284 1.09609 0.29282
 H846 H 0.17859 1.06145 0.26566
 H847 H 0.20953 1.10982 0.31894
 H848 H 0.22368 1.06730 0.31053
 C849 C 0.67888 0.39544 0.67804
 C850 C 0.70534 0.40398 0.67451
 C851 C 0.71807 0.42826 0.68858
 C852 C 0.70762 0.44081 0.71126
 H853 H 0.71911 0.39257 0.66082
 H854 H 0.73809 0.43495 0.68050
 H855 H 0.66521 0.40662 0.69202
 H856 H 0.68830 0.43381 0.72054
 C857 C 0.68163 -0.10942 0.18384
 C858 C 0.70364 -0.09462 0.17441
 C859 C 0.71679 -0.07080 0.18904
 C860 C 0.70820 -0.05978 0.21326
 H861 H 0.71355 -0.09974 0.15493
 H862 H 0.73524 -0.06230 0.17911
 H863 H 0.67167 -0.10285 0.20294
 H864 H 0.68977 -0.06743 0.22372
 C865 C 0.18684 0.38897 0.18046
 C866 C 0.17389 0.40788 0.19655
 C867 C 0.18825 0.43110 0.21087
 C868 C 0.21302 0.44151 0.20310
 H869 H 0.15178 0.40608 0.20057
 H870 H 0.17738 0.44029 0.22839
 H871 H 0.20894 0.39099 0.17639
 H872 H 0.22353 0.43368 0.18478
 C873 C 0.18170 -0.11036 0.68167
 C874 C 0.19947 -0.09261 0.66913
 C875 C 0.21439 -0.06985 0.68369
 C876 C 0.20604 -0.05860 0.70784
 H877 H 0.20432 -0.09494 0.64727
 H878 H 0.23281 -0.06167 0.67345
 H879 H 0.17705 -0.10784 0.70358
 H880 H 0.18693 -0.06545 0.71769
 C881 C 0.31553 0.31845 0.38638
 C882 C 0.32776 0.30106 0.40466
 C883 C 0.31303 0.28732 0.42811
 C884 C 0.28879 0.29614 0.43894
 H885 H 0.34945 0.29547 0.40214
 H886 H 0.32310 0.26914 0.43697
 H887 H 0.29383 0.32395 0.38907
 H888 H 0.27900 0.31497 0.43136
 C889 C 0.31434 0.81645 -0.11044
 C890 C 0.29787 0.82901 -0.09163
 C891 C 0.28382 0.81422 -0.06846
 C892 C 0.29204 0.78950 -0.05829
 H893 H 0.29347 0.85103 -0.09344
 H894 H 0.26610 0.82467 -0.05917
 H895 H 0.31872 0.79442 -0.10850
 H896 H 0.31053 0.77936 -0.06624
 C897 C 0.81622 0.31769 -0.11099
 C898 C 0.82883 0.30058 -0.09274
 C899 C 0.81442 0.28644 -0.06936
 C900 C 0.78976 0.29433 -0.05876
 H901 H 0.85067 0.29558 -0.09523
 H902 H 0.82512 0.26870 -0.06036
 H903 H 0.79441 0.32277 -0.10834
 H904 H 0.77925 0.31273 -0.06646
 C905 C 0.81516 0.81591 0.39250
 C906 C 0.82769 0.79812 0.41018
 C907 C 0.81323 0.78385 0.43345
 C908 C 0.78935 0.79280 0.44489
 H909 H 0.84940 0.79275 0.40730
 H910 H 0.82314 0.76528 0.44166
 H911 H 0.79344 0.82119 0.39548
 H912 H 0.77982 0.81202 0.43796
 C913 C 0.68068 0.32088 0.60355
 C914 C 0.70732 0.32484 0.59571
 C915 C 0.72081 0.31083 0.57178
 C916 C 0.71102 0.28773 0.55950
 H917 H 0.72056 0.33881 0.60742
 H918 H 0.74069 0.31931 0.56513
 H919 H 0.66751 0.30673 0.59198
 H920 H 0.69189 0.27810 0.56656
 C921 C 0.68411 0.81545 1.11126
 C922 C 0.70062 0.82814 1.09251
 C923 C 0.71510 0.81351 1.06956
 C924 C 0.70743 0.78860 1.05947
 H925 H 0.70480 0.85022 1.09423
 H926 H 0.73273 0.82427 1.06037
 H927 H 0.67992 0.79338 1.10938
 H928 H 0.68905 0.77811 1.06730
 C929 C 0.18540 0.31333 1.10834
 C930 C 0.20322 0.32546 1.09038
 C931 C 0.21759 0.31079 1.06732
 C932 C 0.20981 0.28605 1.05689
 H933 H 0.20858 0.34720 1.09278
 H934 H 0.23538 0.32144 1.05833
 H935 H 0.17989 0.29165 1.10572
 H936 H 0.19142 0.27552 1.06462
 C937 C 0.17773 0.81971 0.60429
 C938 C 0.17481 0.79290 0.59681
 C939 C 0.18844 0.78009 0.57232
 C940 C 0.21073 0.79083 0.55925
 H941 H 0.16210 0.77901 0.60924
 H942 H 0.18054 0.75992 0.56596
 H943 H 0.19065 0.83351 0.59198
 H944 H 0.21989 0.81025 0.56607
 C945 C 0.31531 0.68595 0.60989
 C946 C 0.29877 0.67301 0.59139
 C947 C 0.28471 0.68727 0.56792
 C948 C 0.29295 0.71171 0.55708
 H949 H 0.29405 0.65111 0.59387
 H950 H 0.26674 0.67674 0.55915
 H951 H 0.32003 0.70785 0.60728
 H952 H 0.31164 0.72192 0.56451
 C953 C 0.31955 0.18320 1.10860
 C954 C 0.30195 0.17061 1.09080
 C955 C 0.28756 0.18489 1.06748
 C956 C 0.29544 0.20942 1.05656
 H957 H 0.29674 0.14888 1.09364
 H958 H 0.26962 0.17422 1.05883
 H959 H 0.32487 0.20490 1.10558
 H960 H 0.31398 0.21991 1.06394
 C961 C 0.81590 0.68461 1.11259
 C962 C 0.79872 0.67214 1.09432
 C963 C 0.78461 0.68661 1.07097
 C964 C 0.79247 0.71132 1.06042
 H965 H 0.79365 0.65032 1.09676
 H966 H 0.76693 0.67587 1.06189
 H967 H 0.82112 0.70638 1.10996
 H968 H 0.81081 0.72188 1.06820
 C969 C 0.81661 0.18206 0.61158
 C970 C 0.79895 0.16967 0.59371
 C971 C 0.78478 0.18434 0.57050
 C972 C 0.79378 0.20831 0.55922
 H973 H 0.79362 0.14794 0.59632
 H974 H 0.76627 0.17443 0.56215
 H975 H 0.82181 0.20382 0.60882
 H976 H 0.81296 0.21784 0.56628
 C977 C 0.68558 0.68624 0.39134
 C978 C 0.67270 0.70378 0.40895
 C979 C 0.68680 0.71810 0.43237
 C980 C 0.71062 0.70932 0.44411
 H981 H 0.65097 0.70896 0.40593
 H982 H 0.67661 0.73652 0.44048
 H983 H 0.70734 0.68125 0.39451
 H984 H 0.72040 0.69022 0.43728
 C985 C 0.68467 0.18557 -0.10983
 C986 C 0.67262 0.20325 -0.09181
 C987 C 0.68744 0.21734 -0.06872
 C988 C 0.71226 0.20944 -0.05846
 H989 H 0.65087 0.20869 -0.09427
 H990 H 0.67690 0.23510 -0.05964
 H991 H 0.70632 0.17987 -0.10722
 H992 H 0.72270 0.19109 -0.06626
 C993 C 0.18312 0.68519 -0.10910
 C994 C 0.19935 0.67226 -0.09026
 C995 C 0.21424 0.68668 -0.06748
 C996 C 0.20702 0.71167 -0.05735
 H997 H 0.20308 0.65010 -0.09185
 H998 H 0.23178 0.67569 -0.05842
 H999 H 0.17931 0.70732 -0.10731
 H1000 H 0.18868 0.72234 -0.06500
 C1001 C 0.18597 0.18754 0.38677
 C1002 C 0.20365 0.17550 0.40489
 C1003 C 0.21740 0.19042 0.42815
 C1004 C 0.20820 0.21443 0.43906
 H1005 H 0.20938 0.15387 0.40242
 H1006 H 0.23583 0.18067 0.43684
 H1007 H 0.18040 0.20921 0.38938
 H1008 H 0.18909 0.22386 0.43166
 C1009 C 0.31442 0.39067 0.68527
 C1010 C 0.29720 0.40889 0.67278
 C1011 C 0.28295 0.43193 0.68746
 C1012 C 0.29137 0.44268 0.71186
 H1013 H 0.29224 0.40663 0.65092
 H1014 H 0.26481 0.44063 0.67716
 H1015 H 0.31928 0.39307 0.70715
 H1016 H 0.31021 0.43532 0.72185
 C1017 C 0.31560 0.88830 0.18606
 C1018 C 0.29823 0.90625 0.17332
 C1019 C 0.28403 0.92949 0.18771
 C1020 C 0.29314 0.94095 0.21149
 H1021 H 0.29318 0.90367 0.15152
 H1022 H 0.26552 0.93778 0.17774
 H1023 H 0.32045 0.89101 0.20791
 H1024 H 0.31238 0.93399 0.22099
 C1025 C 0.81349 0.38906 0.18640
 C1026 C 0.82574 0.40704 0.20404
 C1027 C 0.81098 0.42998 0.21846
 C1028 C 0.78627 0.44042 0.21050
 H1029 H 0.84759 0.40477 0.20912
 H1030 H 0.82152 0.43891 0.23632
 H1031 H 0.79166 0.39149 0.18127
 H1032 H 0.77593 0.43277 0.19200
 C1033 C 0.81197 0.88975 0.68924
 C1034 C 0.82470 0.90800 0.70620
 C1035 C 0.81025 0.93121 0.72042
 C1036 C 0.78579 0.94198 0.71213
 H1037 H 0.84663 0.90572 0.71091
 H1038 H 0.82077 0.94005 0.73834
 H1039 H 0.79002 0.89217 0.68464
 H1040 H 0.77558 0.93447 0.69350
 C1041 C 0.68391 0.61212 0.68821
 C1042 C 0.67095 0.59388 0.70508
 C1043 C 0.68523 0.57034 0.71901
 C1044 C 0.70906 0.55892 0.70988
 H1045 H 0.64909 0.59649 0.70996
 H1046 H 0.67518 0.56188 0.73741
 H1047 H 0.70582 0.60940 0.68358
 H1048 H 0.71864 0.56606 0.69074
 C1049 C 0.68629 0.11071 0.18571
 C1050 C 0.70353 0.09257 0.17318
 C1051 C 0.71753 0.06916 0.18768
 C1052 C 0.70910 0.05827 0.21205
 H1053 H 0.70870 0.09515 0.15139
 H1054 H 0.73555 0.06036 0.17730
 H1055 H 0.68120 0.10798 0.20751
 H1056 H 0.69042 0.06580 0.22217
 C1057 C 0.18162 0.60958 0.17982
 C1058 C 0.17003 0.59123 0.19752
 C1059 C 0.18560 0.56869 0.21175
 C1060 C 0.21038 0.55874 0.20337
 H1061 H 0.14817 0.59290 0.20281
 H1062 H 0.17559 0.55961 0.22988
 H1063 H 0.20347 0.60776 0.17454
 H1064 H 0.22019 0.56646 0.18459
 C1065 C 0.18512 0.11190 0.68154
 C1066 C 0.17211 0.09379 0.69857
 C1067 C 0.18618 0.07035 0.71291
 C1068 C 0.21020 0.05893 0.70437
 H1069 H 0.15025 0.09645 0.70338
 H1070 H 0.17579 0.06196 0.73114
 H1071 H 0.20699 0.10907 0.67682
 H1072 H 0.22017 0.06601 0.68541
 C1073 C 0.31383 0.61258 0.31172
 C1074 C 0.29603 0.59458 0.32383
 C1075 C 0.28222 0.57130 0.30903
 C1076 C 0.29153 0.56019 0.28516
 H1077 H 0.29028 0.59715 0.34546
 H1078 H 0.26371 0.56272 0.31877
 H1079 H 0.31951 0.60986 0.29008
 H1080 H 0.31072 0.56747 0.27579
 C1081 C 0.32125 0.10404 0.81729
 C1082 C 0.32529 0.09575 0.79082
 C1083 C 0.31141 0.07150 0.77769
 C1084 C 0.28849 0.05899 0.78774
 H1085 H 0.33924 0.10731 0.77739
 H1086 H 0.31977 0.06483 0.75781
 H1087 H 0.30709 0.09261 0.83062
 H1088 H 0.27896 0.06605 0.80688
 C1089 C 0.81582 0.60933 0.81693
 C1090 C 0.79733 0.59211 0.82909
 C1091 C 0.78267 0.56927 0.81442
 C1092 C 0.79121 0.55805 0.79031
 H1093 H 0.79169 0.59504 0.85071
 H1094 H 0.76411 0.56116 0.82446
 H1095 H 0.82150 0.60629 0.79534
 H1096 H 0.81037 0.56487 0.78055
 C1097 C 0.81713 0.11088 0.31470
 C1098 C 0.80002 0.09290 0.32776
 C1099 C 0.78560 0.06946 0.31379
 C1100 C 0.79365 0.05822 0.28951
 H1101 H 0.79521 0.09566 0.34959
 H1102 H 0.76760 0.06094 0.32450
 H1103 H 0.82186 0.10794 0.29286
 H1104 H 0.81232 0.06544 0.27911
 C1105 C 0.68165 0.39052 0.32133
 C1106 C 0.66932 0.40850 0.30369
 C1107 C 0.68407 0.43111 0.28867
 C1108 C 0.70892 0.44156 0.29614
 H1109 H 0.64738 0.40640 0.29895
 H1110 H 0.67338 0.43979 0.27075
 H1111 H 0.70357 0.39282 0.32616
 H1112 H 0.71940 0.43421 0.31471
 C1113 C 0.68239 0.89005 0.81859
 C1114 C 0.66932 0.90849 0.80202
 C1115 C 0.68347 0.93203 0.78793
 C1116 C 0.70782 0.94300 0.79623
 H1117 H 0.64741 0.90596 0.79735
 H1118 H 0.67292 0.94076 0.76995
 H1119 H 0.70432 0.89272 0.82319
 H1120 H 0.71802 0.93558 0.81494
 C1121 C 0.18538 0.38823 0.81452
 C1122 C 0.17245 0.40610 0.79720
 C1123 C 0.18650 0.42985 0.78331
 C1124 C 0.21003 0.44174 0.79262
 H1125 H 0.15079 0.40299 0.79178
 H1126 H 0.17656 0.43802 0.76473
 H1127 H 0.20709 0.39151 0.81971
 H1128 H 0.21952 0.43484 0.81190
 C1129 C 0.18548 0.88986 0.31530
 C1130 C 0.17293 0.90842 0.29851
 C1131 C 0.18768 0.93159 0.28444
 C1132 C 0.21219 0.94215 0.29288
 H1133 H 0.15099 0.90631 0.29373
 H1134 H 0.17740 0.94047 0.26638
 H1135 H 0.20743 0.89209 0.32002
 H1136 H 0.22215 0.93463 0.31167
 C1137 C 0.38867 0.31729 0.68331
 C1138 C 0.40658 0.32998 0.70072
 C1139 C 0.43002 0.31569 0.71485
 C1140 C 0.44143 0.29178 0.70604
 H1141 H 0.40373 0.35167 0.70600
 H1142 H 0.43835 0.32577 0.73325
 H1143 H 0.39167 0.29557 0.67813
 H1144 H 0.43440 0.28207 0.68697
 C1145 C 0.39009 0.81495 0.18486
 C1146 C 0.40782 0.82763 0.20244
 C1147 C 0.43112 0.81334 0.21680
 C1148 C 0.44263 0.78938 0.20821
 H1149 H 0.40486 0.84929 0.20778
 H1150 H 0.43924 0.82349 0.23525
 H1151 H 0.39321 0.79326 0.17963
 H1152 H 0.43584 0.77959 0.18908
 C1153 C 0.88949 0.31576 0.18478
 C1154 C 0.90804 0.32856 0.20137
 C1155 C 0.93173 0.31424 0.21501
 C1156 C 0.94253 0.28992 0.20647
 H1157 H 0.90553 0.35039 0.20629
 H1158 H 0.94076 0.32466 0.23289
 H1159 H 0.89209 0.29393 0.17988
 H1160 H 0.93479 0.27979 0.18789
 C1161 C 0.88749 0.81752 0.68876
 C1162 C 0.90570 0.80078 0.67570
 C1163 C 0.92930 0.78662 0.68971
 C1164 C 0.94055 0.79477 0.71399
 H1165 H 0.90295 0.79600 0.65386
 H1166 H 0.93788 0.76868 0.67907
 H1167 H 0.89042 0.82222 0.71061
 H1168 H 0.93329 0.81341 0.72432
 C1169 C 0.60420 0.32024 0.32302
 C1170 C 0.59650 0.29349 0.32607
 C1171 C 0.57255 0.28048 0.31162
 C1172 C 0.56046 0.29089 0.28863
 H1173 H 0.60834 0.27981 0.33954
 H1174 H 0.56578 0.26045 0.31958
 H1175 H 0.59245 0.33386 0.30940
 H1176 H 0.56770 0.31018 0.27947
 C1177 C 0.60866 0.81616 0.81630
 C1178 C 0.59049 0.79867 0.82852
 C1179 C 0.56710 0.78507 0.81364
 C1180 C 0.55603 0.79452 0.78972
 H1181 H 0.59306 0.79300 0.85019
 H1182 H 0.55850 0.76652 0.82328
 H1183 H 0.60599 0.82161 0.79457
 H1184 H 0.56334 0.81374 0.78043
 C1185 C 0.11231 0.31350 0.81275
 C1186 C 0.09448 0.29584 0.82522
 C1187 C 0.07108 0.28196 0.81065
 C1188 C 0.05946 0.29145 0.78703
 H1189 H 0.09728 0.29027 0.84688
 H1190 H 0.06284 0.26328 0.82036
 H1191 H 0.10937 0.31884 0.79103
 H1192 H 0.06636 0.31083 0.77777
 C1193 C 0.11027 0.81563 0.31545
 C1194 C 0.09232 0.82809 0.29788
 C1195 C 0.06903 0.81356 0.28376
 C1196 C 0.05785 0.78944 0.29250
 H1197 H 0.09501 0.84980 0.29250
 H1198 H 0.06054 0.82371 0.26544
 H1199 H 0.10744 0.79391 0.32078
 H1200 H 0.06501 0.77962 0.31150
 C1201 C 0.60981 0.68737 0.68650
 C1202 C 0.59127 0.67515 0.70362
 C1203 C 0.56782 0.68995 0.71714
 C1204 C 0.55720 0.71421 0.70815
 H1205 H 0.59353 0.65340 0.70907
 H1206 H 0.55872 0.67989 0.73522
 H1207 H 0.60740 0.70912 0.68110
 H1208 H 0.56499 0.72397 0.68936
 C1209 C 0.61308 0.18529 0.18431
 C1210 C 0.59465 0.17257 0.20115
 C1211 C 0.57121 0.18702 0.21503
 C1212 C 0.56035 0.21133 0.20642
 H1213 H 0.59703 0.15072 0.20610
 H1214 H 0.56236 0.17668 0.23308
 H1215 H 0.61056 0.20716 0.17948
 H1216 H 0.56788 0.22135 0.18766
 C1217 C 0.10309 0.67890 0.17912
 C1218 C 0.09492 0.70543 0.17540
 C1219 C 0.07079 0.71859 0.18936
 C1220 C 0.05778 0.70832 0.21191
 H1221 H 0.10651 0.71895 0.16155
 H1222 H 0.06454 0.73872 0.18124
 H1223 H 0.09180 0.66549 0.19333
 H1224 H 0.06431 0.68885 0.22122
 C1225 C 0.11080 0.18676 0.68089
 C1226 C 0.09221 0.17378 0.69736
 C1227 C 0.06893 0.18799 0.71170
 C1228 C 0.05826 0.21263 0.70391
 H1229 H 0.09444 0.15181 0.70181
 H1230 H 0.06007 0.17717 0.72947
 H1231 H 0.10841 0.20872 0.67637
 H1232 H 0.06575 0.22314 0.68540
 C1233 C 0.38781 0.68501 0.31368
 C1234 C 0.40563 0.70229 0.32668
 C1235 C 0.42933 0.71645 0.31283
 C1236 C 0.44106 0.70796 0.28892
 H1237 H 0.40249 0.70750 0.34836
 H1238 H 0.43763 0.73463 0.32331
 H1239 H 0.39114 0.67985 0.29199
 H1240 H 0.43407 0.68909 0.27881
 C1241 C 0.39553 0.17915 0.81774
 C1242 C 0.40396 0.17552 0.79127
 C1243 C 0.42820 0.18967 0.77837
 C1244 C 0.44056 0.21255 0.78861
 H1245 H 0.39254 0.16167 0.77767
 H1246 H 0.43505 0.18147 0.75849
 H1247 H 0.40678 0.19325 0.83125
 H1248 H 0.43334 0.22193 0.80776
 C1249 C 0.89315 0.67974 0.82102
 C1250 C 0.90120 0.67673 0.79435
 C1251 C 0.92593 0.69033 0.78178
 C1252 C 0.93929 0.71231 0.79272
 H1253 H 0.88908 0.66396 0.78032
 H1254 H 0.93223 0.68266 0.76150
 H1255 H 0.90522 0.69272 0.83493
 H1256 H 0.93266 0.72123 0.81230
 C1257 C 0.89026 0.18577 0.31408
 C1258 C 0.90833 0.17305 0.29691
 C1259 C 0.93157 0.18743 0.28249
 C1260 C 0.94247 0.21190 0.29049
 H1261 H 0.90584 0.15118 0.29216
 H1262 H 0.94027 0.17683 0.26456
 H1263 H 0.89291 0.20764 0.31877
 H1264 H 0.93509 0.22223 0.30909
 C1265 C 0.31406 0.31841 0.60988
 C1266 C 0.32674 0.30134 0.59169
 C1267 C 0.31233 0.28746 0.56819
 C1268 C 0.28824 0.29626 0.55700
 H1269 H 0.34852 0.29619 0.59430
 H1270 H 0.32252 0.26926 0.55958
 H1271 H 0.29223 0.32339 0.60710
 H1272 H 0.27840 0.31516 0.56431
 C1273 C 0.31742 0.81419 0.11123
 C1274 C 0.30068 0.82701 0.09277
 C1275 C 0.28638 0.81272 0.06952
 C1276 C 0.29413 0.78805 0.05899
 H1277 H 0.29601 0.84892 0.09509
 H1278 H 0.26864 0.82350 0.06059
 H1279 H 0.32224 0.79233 0.10876
 H1280 H 0.31259 0.77754 0.06656
 C1281 C 0.81496 0.31770 0.11163
 C1282 C 0.82800 0.30117 0.09318
 C1283 C 0.81393 0.28693 0.06972
 C1284 C 0.78925 0.29462 0.05904
 H1285 H 0.84995 0.29664 0.09561
 H1286 H 0.82487 0.26935 0.06075
 H1287 H 0.79302 0.32227 0.10902
 H1288 H 0.77858 0.31290 0.06670
 C1289 C 0.81302 0.81613 0.61524
 C1290 C 0.79519 0.82863 0.59756
 C1291 C 0.78115 0.81426 0.57413
 C1292 C 0.79030 0.79054 0.56260
 H1293 H 0.78961 0.85024 0.60052
 H1294 H 0.76260 0.82416 0.56584
 H1295 H 0.81844 0.79449 0.61215
 H1296 H 0.80950 0.78102 0.56962
 C1297 C 0.31293 0.68680 0.38662
 C1298 C 0.29592 0.67399 0.40484
 C1299 C 0.28200 0.68826 0.42834
 C1300 C 0.29073 0.71240 0.43937
 H1301 H 0.29102 0.65214 0.40231
 H1302 H 0.26394 0.67789 0.43716
 H1303 H 0.31777 0.70865 0.38923
 H1304 H 0.30949 0.72241 0.43184
 C1305 C 0.31898 0.18170 0.88744
 C1306 C 0.30117 0.16957 0.90540
 C1307 C 0.28666 0.18438 0.92828
 C1308 C 0.29460 0.20903 0.93882
 H1309 H 0.29605 0.14776 0.90319
 H1310 H 0.26872 0.17385 0.93714
 H1311 H 0.32413 0.20351 0.88984
 H1312 H 0.31314 0.21939 0.93123
 C1313 C 0.81742 0.68381 0.89149
 C1314 C 0.79947 0.67166 0.90928
 C1315 C 0.78513 0.68627 0.93233
 C1316 C 0.79298 0.71097 0.94277
 H1317 H 0.79398 0.64996 0.90666
 H1318 H 0.76722 0.67570 0.94120
 H1319 H 0.82321 0.70540 0.89427
 H1320 H 0.81146 0.72142 0.93515
 C1321 C 0.81688 0.18477 0.38852
 C1322 C 0.82969 0.20222 0.40628
 C1323 C 0.81549 0.21621 0.42982
 C1324 C 0.79175 0.20708 0.44148
 H1325 H 0.85139 0.20758 0.40328
 H1326 H 0.82550 0.23470 0.43803
 H1327 H 0.79514 0.17961 0.39165
 H1328 H 0.78215 0.18791 0.43455
 C1329 C 0.67933 0.31975 0.39714
 C1330 C 0.67566 0.29313 0.40513
 C1331 C 0.68979 0.27980 0.42913
 C1332 C 0.71272 0.28982 0.44161
 H1333 H 0.66177 0.27972 0.39351
 H1334 H 0.68153 0.25981 0.43568
 H1335 H 0.69348 0.33306 0.40856
 H1336 H 0.72215 0.30909 0.43467
 C1337 C 0.68238 0.81423 0.89068
 C1338 C 0.69967 0.82680 0.90879
 C1339 C 0.71439 0.81232 0.93177
 C1340 C 0.70695 0.78747 0.94224
 H1341 H 0.70433 0.84873 0.90655
 H1342 H 0.73208 0.82320 0.94068
 H1343 H 0.67764 0.79233 0.89313
 H1344 H 0.68859 0.77680 0.93466
 C1345 C 0.18597 0.31267 0.88701
 C1346 C 0.20294 0.32540 0.90527
 C1347 C 0.21739 0.31098 0.92846
 C1348 C 0.20953 0.28634 0.93917
 H1349 H 0.20757 0.34733 0.90297
 H1350 H 0.23524 0.32167 0.93728
 H1351 H 0.18142 0.29073 0.88948
 H1352 H 0.19100 0.27591 0.93167
 C1353 C 0.18287 0.81606 0.38917
 C1354 C 0.19993 0.82886 0.40732
 C1355 C 0.21435 0.81456 0.43055
 C1356 C 0.20636 0.79007 0.44143
 H1357 H 0.20482 0.85070 0.40474
 H1358 H 0.23240 0.82512 0.43913
 H1359 H 0.17795 0.79423 0.39192
 H1360 H 0.18762 0.77980 0.43419
 C1361 C 0.68387 0.68605 0.61430
 C1362 C 0.70157 0.67336 0.59670
 C1363 C 0.71596 0.68766 0.57340
 C1364 C 0.70711 0.71149 0.56176
 H1365 H 0.70688 0.65168 0.59968
 H1366 H 0.73454 0.67766 0.56536
 H1367 H 0.67874 0.70778 0.61118
 H1368 H 0.68786 0.72109 0.56851
 C1369 C 0.68752 0.18424 0.11107
 C1370 C 0.67463 0.20131 0.09295
 C1371 C 0.68879 0.21592 0.06971
 C1372 C 0.71348 0.20840 0.05899
 H1373 H 0.65271 0.20593 0.09544
 H1374 H 0.67787 0.23363 0.06090
 H1375 H 0.70941 0.17953 0.10841
 H1376 H 0.72416 0.19001 0.06650
 C1377 C 0.17686 0.67940 0.10372
 C1378 C 0.17354 0.70614 0.09610
 C1379 C 0.18778 0.71942 0.07215
 C1380 C 0.21071 0.70923 0.05984
 H1381 H 0.16002 0.71963 0.10805
 H1382 H 0.17969 0.73945 0.06556
 H1383 H 0.19054 0.66596 0.09192
 H1384 H 0.21997 0.68992 0.06685
 C1385 C 0.18494 0.18748 0.60882
 C1386 C 0.20286 0.17547 0.59098
 C1387 C 0.21686 0.19042 0.56782
 C1388 C 0.20775 0.21443 0.55668
 H1389 H 0.20859 0.15385 0.59361
 H1390 H 0.23540 0.18069 0.55937
 H1391 H 0.17942 0.20916 0.60605
 H1392 H 0.18857 0.22385 0.56383
   
