data_POSCAR
  _audit_creation_date              2014-09-24
  _audit_creation_method            'ToBaCCo'
  _symmetry_space_group_name_H-M    'P1'
  _symmetry_Int_Tables_number       1
  _symmetry_cell_setting            triclinic
  loop_
  _symmetry_equiv_pos_as_xyz
 x,y,z
_cell_length_a 61.8491
_cell_length_b 61.7908
_cell_length_c 64.8220
_cell_angle_alpha 90.090200
_cell_angle_beta 90.027900
_cell_angle_gamma 89.935700
loop_
  _atom_site_label
  _atom_site_type_symbol
  _atom_site_fract_x
  _atom_site_fract_y
  _atom_site_fract_z
C1 C 0.39588 -0.02923 0.25106
 C2 C 0.40547 -0.01004 0.24392
 C3 C 0.41569 -0.00982 0.22462
 C4 C 0.41663 -0.02863 0.21260
 C5 C 0.40681 -0.04770 0.21964
 C6 C 0.39630 -0.04801 0.23885
 C7 C 0.40553 0.00965 0.25685
 C8 C 0.41582 0.00939 0.27613
 C9 C 0.41691 0.02824 0.28812
 C10 C 0.40716 0.04738 0.28103
 C11 C 0.39660 0.04770 0.26185
 C12 C 0.39604 0.02891 0.24970
 H13 H 0.38792 -0.02940 0.26597
 H14 H 0.42334 0.00489 0.21919
 H15 H 0.42339 -0.00540 0.28153
 H16 H 0.38803 0.02916 0.23482
 H17 H 0.40736 -0.06220 0.21019
 H18 H 0.40776 0.06195 0.29037
 C19 C 0.10365 -0.02866 0.74888
 C20 C 0.09412 -0.00941 0.75606
 C21 C 0.08399 -0.00911 0.77541
 C22 C 0.08311 -0.02789 0.78743
 C23 C 0.09288 -0.04700 0.78033
 C24 C 0.10328 -0.04739 0.76108
 C25 C 0.09405 0.01024 0.74314
 C26 C 0.08384 0.00994 0.72382
 C27 C 0.08281 0.02874 0.71180
 C28 C 0.09254 0.04787 0.71891
 C29 C 0.10302 0.04825 0.73813
 C30 C 0.10353 0.02950 0.75030
 H31 H 0.11155 -0.02896 0.73396
 H32 H 0.07639 0.00564 0.78089
 H33 H 0.07629 -0.00486 0.71839
 H34 H 0.11149 0.02980 0.76521
 H35 H 0.09241 -0.06149 0.78974
 H36 H 0.09200 0.06241 0.70956
 C37 C 0.60515 0.47053 0.24976
 C38 C 0.59559 0.48978 0.25690
 C39 C 0.58528 0.49006 0.27615
 C40 C 0.58424 0.47125 0.28813
 C41 C 0.59403 0.45214 0.28107
 C42 C 0.60461 0.45177 0.26191
 C43 C 0.59559 0.50943 0.24398
 C44 C 0.58529 0.50917 0.22471
 C45 C 0.58427 0.52796 0.21272
 C46 C 0.59409 0.54705 0.21977
 C47 C 0.60466 0.54740 0.23894
 C48 C 0.60517 0.52865 0.25111
 H49 H 0.61317 0.47025 0.23489
 H50 H 0.57764 0.50481 0.28159
 H51 H 0.57764 0.49443 0.21927
 H52 H 0.61319 0.52892 0.26599
 H53 H 0.59342 0.43762 0.29043
 H54 H 0.59350 0.56156 0.21040
 C55 C 0.89645 0.47066 0.75099
 C56 C 0.90589 0.48990 0.74381
 C57 C 0.91598 0.49017 0.72445
 C58 C 0.91690 0.47137 0.71241
 C59 C 0.90723 0.45226 0.71951
 C60 C 0.89687 0.45190 0.73878
 C61 C 0.90594 0.50959 0.75675
 C62 C 0.91613 0.50929 0.77607
 C63 C 0.91719 0.52813 0.78809
 C64 C 0.90750 0.54728 0.78097
 C65 C 0.89705 0.54764 0.76175
 C66 C 0.89651 0.52886 0.74958
 H67 H 0.88858 0.47039 0.76593
 H68 H 0.92351 0.50492 0.71896
 H69 H 0.92365 0.49448 0.78150
 H70 H 0.88857 0.52915 0.73466
 H71 H 0.90774 0.43775 0.71009
 H72 H 0.90808 0.56185 0.79033
 C73 C 0.25842 0.35733 1.02508
 C74 C 0.25861 0.37198 1.00851
 C75 C 0.27639 0.38591 1.00590
 C76 C 0.29384 0.38518 1.01978
 C77 C 0.29344 0.37055 1.03626
 C78 C 0.27582 0.35661 1.03898
 C79 C 0.24056 0.37199 0.99354
 C80 C 0.22276 0.38596 0.99617
 C81 C 0.20536 0.38529 0.98222
 C82 C 0.20584 0.37070 0.96567
 C83 C 0.22347 0.35675 0.96295
 C84 C 0.24080 0.35739 0.97689
 H85 H 0.24479 0.34650 1.02705
 H86 H 0.27671 0.39708 0.99303
 H87 H 0.22240 0.39712 1.00909
 H88 H 0.25442 0.34654 0.97486
 H89 H 0.30694 0.37000 1.04696
 H90 H 0.19242 0.37015 0.95489
 C91 C 0.74122 0.14244 1.02464
 C92 C 0.74092 0.12785 1.00798
 C93 C 0.72309 0.11398 1.00534
 C94 C 0.70570 0.11472 1.01928
 C95 C 0.70621 0.12929 1.03585
 C96 C 0.72388 0.14317 1.03859
 C97 C 0.75893 0.12781 0.99300
 C98 C 0.77673 0.11385 0.99561
 C99 C 0.79414 0.11455 0.98170
 C100 C 0.79368 0.12915 0.96520
 C101 C 0.77605 0.14309 0.96251
 C102 C 0.75869 0.14243 0.97640
 H103 H 0.75489 0.15322 1.02664
 H104 H 0.72269 0.10284 0.99241
 H105 H 0.77709 0.10270 1.00850
 H106 H 0.74508 0.15329 0.97440
 H107 H 0.69276 0.12984 1.04660
 H108 H 0.80711 0.12971 0.95446
 C109 C 0.24064 0.64268 0.52326
 C110 C 0.24041 0.62805 0.50664
 C111 C 0.22261 0.61413 0.50400
 C112 C 0.20519 0.61489 0.51791
 C113 C 0.20566 0.62951 0.53444
 C114 C 0.22330 0.64340 0.53717
 C115 C 0.25847 0.62800 0.49170
 C116 C 0.27623 0.61400 0.49433
 C117 C 0.29372 0.61474 0.48050
 C118 C 0.29336 0.62943 0.46407
 C119 C 0.27577 0.64342 0.46136
 C120 C 0.25835 0.64271 0.47518
 H121 H 0.25427 0.65350 0.52530
 H122 H 0.22225 0.60296 0.49110
 H123 H 0.27651 0.60279 0.50717
 H124 H 0.24477 0.65362 0.47317
 H125 H 0.19223 0.63012 0.54519
 H126 H 0.30685 0.63003 0.45340
 C127 C 0.76003 0.85824 0.52421
 C128 C 0.76018 0.87293 0.50768
 C129 C 0.77788 0.88699 0.50515
 C130 C 0.79531 0.88631 0.51910
 C131 C 0.79491 0.87163 0.53556
 C132 C 0.77736 0.85760 0.53815
 C133 C 0.74219 0.87283 0.49265
 C134 C 0.72436 0.88678 0.49515
 C135 C 0.70697 0.88593 0.48120
 C136 C 0.70749 0.87118 0.46477
 C137 C 0.72515 0.85725 0.46219
 C138 C 0.74247 0.85806 0.47613
 H139 H 0.74649 0.84730 0.52614
 H140 H 0.77814 0.89817 0.49228
 H141 H 0.72396 0.89804 0.50798
 H142 H 0.75611 0.84720 0.47421
 H143 H 0.80831 0.87103 0.54636
 H144 H 0.69407 0.87050 0.45400
 C145 C -0.02915 0.24526 0.32642
 C146 C -0.00871 0.24093 0.33479
 C147 C -0.00530 0.22198 0.34617
 C148 C -0.02239 0.20765 0.34956
 C149 C -0.04268 0.21177 0.34096
 C150 C -0.04606 0.23058 0.32942
 C151 C 0.00815 0.25754 0.33463
 C152 C 0.00482 0.27671 0.34576
 C153 C 0.02191 0.29110 0.34881
 C154 C 0.04213 0.28684 0.34016
 C155 C 0.04543 0.26784 0.32888
 C156 C 0.02854 0.25308 0.32619
 H157 H -0.03198 0.26030 0.31823
 H158 H 0.01022 0.21920 0.35353
 H159 H -0.01061 0.27965 0.35321
 H160 H 0.03137 0.23792 0.31819
 H161 H -0.05607 0.20088 0.34402
 H162 H 0.05553 0.29776 0.34302
 C163 C -0.02888 0.75309 0.17374
 C164 C -0.00852 0.75759 0.16531
 C165 C -0.00535 0.77660 0.15397
 C166 C -0.02257 0.79080 0.15070
 C167 C -0.04277 0.78653 0.15935
 C168 C -0.04593 0.76767 0.17084
 C169 C 0.00849 0.74109 0.16529
 C170 C 0.00533 0.72209 0.15387
 C171 C 0.02259 0.70791 0.15051
 C172 C 0.04280 0.71223 0.15920
 C173 C 0.04590 0.73107 0.17078
 C174 C 0.02884 0.74560 0.17374
 H175 H -0.03153 0.73800 0.18189
 H176 H 0.01007 0.77954 0.14652
 H177 H -0.01012 0.71917 0.14643
 H178 H 0.03153 0.76067 0.18194
 H179 H -0.05624 0.79736 0.15630
 H180 H 0.05637 0.70152 0.15618
 C181 C 0.47104 0.25367 0.67412
 C182 C 0.49138 0.25821 0.66569
 C183 C 0.49453 0.27726 0.65441
 C184 C 0.47730 0.29147 0.65120
 C185 C 0.45711 0.28713 0.65984
 C186 C 0.45400 0.26824 0.67128
 C187 C 0.50841 0.24174 0.66566
 C188 C 0.50531 0.22273 0.65423
 C189 C 0.52257 0.20857 0.65097
 C190 C 0.54274 0.21288 0.65971
 C191 C 0.54580 0.23172 0.67129
 C192 C 0.52873 0.24626 0.67420
 H193 H 0.46835 0.23857 0.68222
 H194 H 0.50995 0.28025 0.64696
 H195 H 0.48992 0.21977 0.64671
 H196 H 0.53139 0.26132 0.68242
 H197 H 0.44360 0.29790 0.65687
 H198 H 0.55627 0.20215 0.65669
 C199 C 0.47075 0.74524 0.82710
 C200 C 0.49106 0.74075 0.83567
 C201 C 0.49409 0.72198 0.84741
 C202 C 0.47675 0.70799 0.85093
 C203 C 0.45659 0.71228 0.84212
 C204 C 0.45362 0.73090 0.83024
 C205 C 0.50817 0.75708 0.83531
 C206 C 0.50530 0.77625 0.84654
 C207 C 0.52263 0.79039 0.84936
 C208 C 0.54264 0.78587 0.84039
 C209 C 0.54547 0.76686 0.82900
 C210 C 0.52833 0.75235 0.82655
 H211 H 0.46817 0.76014 0.81862
 H212 H 0.50953 0.71908 0.85489
 H213 H 0.49003 0.77940 0.85421
 H214 H 0.53081 0.73717 0.81846
 H215 H 0.44297 0.70171 0.84525
 H216 H 0.55623 0.79661 0.84305
 C217 C -0.28052 0.64589 0.99871
 C218 C -0.26124 0.65540 1.00576
 C219 C -0.26082 0.66562 1.02508
 C220 C -0.27951 0.66664 1.03721
 C221 C -0.29867 0.65691 1.03025
 C222 C -0.29918 0.64640 1.01102
 C223 C -0.24166 0.65536 0.99273
 C224 C -0.24207 0.66548 0.97339
 C225 C -0.22332 0.66650 0.96131
 C226 C -0.20414 0.65685 0.96839
 C227 C -0.20366 0.64647 0.98763
 C228 C -0.22236 0.64596 0.99986
 H229 H -0.28084 0.63793 0.98379
 H230 H -0.24605 0.67320 1.03045
 H231 H -0.25690 0.67299 0.96800
 H232 H -0.22198 0.63808 1.01479
 H233 H -0.31307 0.65752 1.03979
 H234 H -0.18963 0.65741 0.95900
 C235 C -0.28021 0.35430 0.50092
 C236 C -0.26096 0.34480 0.49378
 C237 C -0.26069 0.33440 0.47455
 C238 C -0.27950 0.33321 0.46259
 C239 C -0.29864 0.34294 0.46963
 C240 C -0.29901 0.35363 0.48879
 C241 C -0.24127 0.34495 0.50665
 C242 C -0.24140 0.33475 0.52596
 C243 C -0.22254 0.33381 0.53787
 C244 C -0.20352 0.34360 0.53072
 C245 C -0.20330 0.35407 0.51151
 C246 C -0.22211 0.35451 0.49942
 H247 H -0.28042 0.36238 0.51579
 H248 H -0.24593 0.32681 0.46911
 H249 H -0.25608 0.32711 0.53147
 H250 H -0.22194 0.36244 0.48451
 H251 H -0.31314 0.34220 0.46024
 H252 H -0.18897 0.34306 0.54003
 C253 C 0.22113 -0.14697 0.00036
 C254 C 0.24037 -0.15645 -0.00683
 C255 C 0.24065 -0.16666 -0.02617
 C256 C 0.22183 -0.16767 -0.03817
 C257 C 0.20272 -0.15794 -0.03104
 C258 C 0.20237 -0.14747 -0.01180
 C259 C 0.26003 -0.15643 0.00609
 C260 C 0.25975 -0.16653 0.02544
 C261 C 0.27854 -0.16745 0.03749
 C262 C 0.29763 -0.15773 0.03038
 C263 C 0.29798 -0.14736 0.01113
 C264 C 0.27925 -0.14695 -0.00108
 H265 H 0.22086 -0.13902 0.01528
 H266 H 0.25543 -0.17421 -0.03162
 H267 H 0.24498 -0.17407 0.03088
 H268 H 0.27952 -0.13907 -0.01600
 H269 H 0.18817 -0.15847 -0.04038
 H270 H 0.31216 -0.15818 0.03976
 C271 C 0.22126 1.14640 0.49873
 C272 C 0.24044 1.15603 0.50588
 C273 C 0.24068 1.16627 0.52520
 C274 C 0.22190 1.16718 0.53721
 C275 C 0.20285 1.15733 0.53014
 C276 C 0.20254 1.14681 0.51093
 C277 C 0.26008 1.15609 0.49295
 C278 C 0.25974 1.16630 0.47365
 C279 C 0.27852 1.16734 0.46162
 C280 C 0.29767 1.15762 0.46870
 C281 C 0.29807 1.14715 0.48790
 C282 C 0.27934 1.14663 0.50009
 H283 H 0.22102 1.13842 0.48383
 H284 H 0.25537 1.17395 0.53065
 H285 H 0.24493 1.17384 0.46825
 H286 H 0.27965 1.13866 0.51498
 H287 H 0.18836 1.15782 0.53955
 H288 H 0.31219 1.15818 0.45934
 C289 C 0.10688 0.50960 0.22587
 C290 C 0.12175 0.50965 0.24228
 C291 C 0.13591 0.52729 0.24474
 C292 C 0.13515 0.54474 0.23086
 C293 C 0.12032 0.54444 0.21453
 C294 C 0.10619 0.52695 0.21198
 C295 C 0.12172 0.49163 0.25725
 C296 C 0.13585 0.47392 0.25482
 C297 C 0.13503 0.45647 0.26869
 C298 C 0.12017 0.45683 0.28499
 C299 C 0.10608 0.47438 0.28751
 C300 C 0.10683 0.49174 0.27363
 H301 H 0.09587 0.49610 0.22398
 H302 H 0.14724 0.52753 0.25750
 H303 H 0.14719 0.47364 0.24209
 H304 H 0.09584 0.50528 0.27550
 H305 H 0.11972 0.55789 0.20381
 H306 H 0.11952 0.44337 0.29570
 C307 C -0.10709 0.99043 0.22540
 C308 C -0.12174 0.99024 0.24197
 C309 C -0.13569 0.97245 0.24455
 C310 C -0.13495 0.95498 0.23063
 C311 C -0.12031 0.95540 0.21413
 C312 C -0.10637 0.97304 0.21147
 C313 C -0.12174 1.00828 0.25698
 C314 C -0.13576 1.02606 0.25447
 C315 C -0.13504 1.04349 0.26844
 C316 C -0.12034 1.04303 0.28491
 C317 C -0.10635 1.02541 0.28749
 C318 C -0.10704 1.00807 0.27353
 H319 H -0.09625 1.00407 0.22347
 H320 H -0.14685 0.97217 0.25745
 H321 H -0.14697 1.02636 0.24160
 H322 H -0.09614 0.99447 0.27546
 H323 H -0.11970 0.94192 0.20337
 H324 H -0.11971 1.05644 0.29573
 C325 C 0.39266 0.49184 -0.27450
 C326 C 0.37804 0.49165 -0.25790
 C327 C 0.36413 0.47385 -0.25527
 C328 C 0.36486 0.45638 -0.26917
 C329 C 0.37945 0.45678 -0.28568
 C330 C 0.39337 0.47443 -0.28841
 C331 C 0.37801 0.50972 -0.24291
 C332 C 0.36405 0.52753 -0.24554
 C333 C 0.36467 0.54495 -0.23155
 C334 C 0.37922 0.54446 -0.21497
 C335 C 0.39315 0.52681 -0.21227
 C336 C 0.39255 0.50947 -0.22625
 H337 H 0.40346 0.50550 -0.27648
 H338 H 0.35299 0.47353 -0.24238
 H339 H 0.35295 0.52784 -0.25849
 H340 H 0.40339 0.49584 -0.22422
 H341 H 0.38000 0.44327 -0.29639
 H342 H 0.37977 0.55786 -0.20413
 C343 C 0.60660 0.00890 -0.27490
 C344 C 0.62119 0.00908 -0.25826
 C345 C 0.63516 0.02684 -0.25558
 C346 C 0.63451 0.04428 -0.26946
 C347 C 0.61995 0.04389 -0.28602
 C348 C 0.60598 0.02628 -0.28879
 C349 C 0.62114 -0.00897 -0.24331
 C350 C 0.63508 -0.02680 -0.24591
 C351 C 0.63436 -0.04420 -0.23199
 C352 C 0.61975 -0.04370 -0.21549
 C353 C 0.60583 -0.02604 -0.21281
 C354 C 0.60652 -0.00870 -0.22672
 H355 H 0.59576 -0.00472 -0.27692
 H356 H 0.64629 0.02715 -0.24266
 H357 H 0.64625 -0.02718 -0.25878
 H358 H 0.59568 0.00495 -0.22471
 H359 H 0.61947 0.05738 -0.29672
 H360 H 0.61917 -0.05712 -0.20474
 C361 C -0.00350 0.22098 0.92402
 C362 C -0.00813 0.24126 0.91544
 C363 C -0.02712 0.24424 0.90400
 C364 C -0.04117 0.22690 0.90079
 C365 C -0.03675 0.20677 0.90958
 C366 C -0.01793 0.20383 0.92117
 C367 C 0.00819 0.25839 0.91546
 C368 C 0.02720 0.25537 0.90407
 C369 C 0.04124 0.27272 0.90085
 C370 C 0.03678 0.29288 0.90959
 C371 C 0.01793 0.29587 0.92113
 C372 C 0.00353 0.27872 0.92398
 H373 H 0.01155 0.21842 0.93225
 H374 H -0.03017 0.25961 0.89647
 H375 H 0.03028 0.23998 0.89656
 H376 H -0.01154 0.28131 0.93217
 H377 H -0.04741 0.19318 0.90662
 H378 H 0.04742 0.30648 0.90662
 C379 C 0.50393 0.22097 0.07697
 C380 C 0.50865 0.24133 0.08538
 C381 C 0.52782 0.24441 0.09652
 C382 C 0.54196 0.22709 0.09961
 C383 C 0.53744 0.20689 0.09099
 C384 C 0.51843 0.20385 0.07970
 C385 C 0.49228 0.25846 0.08551
 C386 C 0.47328 0.25539 0.09690
 C387 C 0.45915 0.27269 0.10015
 C388 C 0.46350 0.29286 0.09147
 C389 C 0.48233 0.29590 0.07993
 C390 C 0.49683 0.27879 0.07704
 H391 H 0.48876 0.21835 0.06897
 H392 H 0.53096 0.25983 0.10394
 H393 H 0.47027 0.23997 0.10434
 H394 H 0.51187 0.28141 0.06882
 H395 H 0.54817 0.19331 0.09387
 H396 H 0.45277 0.30642 0.09445
 C397 C 0.00261 0.72175 0.57699
 C398 C 0.00736 0.74203 0.58555
 C399 C 0.02660 0.74503 0.59659
 C400 C 0.04079 0.72771 0.59944
 C401 C 0.03624 0.70758 0.59067
 C402 C 0.01717 0.70462 0.57947
 C403 C -0.00902 0.75914 0.58597
 C404 C -0.02775 0.75608 0.59776
 C405 C -0.04176 0.77342 0.60137
 C406 C -0.03756 0.79362 0.59261
 C407 C -0.01899 0.79662 0.58069
 C408 C -0.00462 0.77948 0.57745
 H409 H -0.01262 0.71917 0.56907
 H410 H 0.02976 0.76039 0.60413
 H411 H -0.03057 0.74062 0.60521
 H412 H 0.01024 0.78209 0.56894
 H413 H 0.04702 0.69401 0.59336
 H414 H -0.04816 0.80723 0.59581
 C415 C 0.49686 0.72086 0.42300
 C416 C 0.49244 0.74125 0.41455
 C417 C 0.47349 0.74449 0.40312
 C418 C 0.45926 0.72732 0.39980
 C419 C 0.46348 0.70709 0.40846
 C420 C 0.48227 0.70388 0.42004
 C421 C 0.50892 0.75825 0.41475
 C422 C 0.52809 0.75503 0.40366
 C423 C 0.54234 0.77224 0.40064
 C424 C 0.53793 0.79246 0.40929
 C425 C 0.51892 0.79564 0.42053
 C426 C 0.50430 0.77863 0.42318
 H427 H 0.51187 0.71810 0.43126
 H428 H 0.47058 0.75995 0.39569
 H429 H 0.53115 0.73960 0.39622
 H430 H 0.48913 0.78137 0.43115
 H431 H 0.45267 0.69363 0.40543
 H432 H 0.54874 0.80595 0.40645
 Zr433 Zr 0.01259 -0.03877 1.03317
 O434 O 0.03513 -0.02866 1.05579
 O435 O 0.00493 -0.06990 1.04320
 O436 O -0.00209 -0.03661 1.06264
 O437 O 0.05090 -0.05322 0.99661
 O438 O -0.03231 -0.01615 1.05696
 O439 O 0.04221 -0.05598 1.03078
 O440 O -0.02157 -0.08089 1.02096
 O441 O -0.02070 -0.04053 1.02741
 O442 O 0.00893 -0.05510 1.00509
 O443 O 0.00153 -0.00657 1.03277
 O444 O 0.03041 -0.02071 1.01144
 Zr445 Zr -0.01889 -0.00603 0.97547
 Zr446 Zr -0.03141 -0.00848 1.02540
 Zr447 Zr 0.02496 -0.03641 0.98316
 Zr448 Zr -0.02403 -0.05582 0.99892
 O449 O 0.05462 -0.02238 0.97396
 O450 O -0.05554 -0.06219 1.01027
 O451 O -0.00798 -0.03845 0.97561
 O452 O -0.03634 -0.02429 0.99719
 O453 O -0.01537 0.01045 1.00353
 O454 O 0.01431 -0.00446 0.98144
 C455 C -0.00937 -0.08336 1.03687
 C456 C 0.05465 -0.05951 1.01515
 C457 C -0.01963 -0.02717 1.06860
 O458 O -0.06216 -0.02150 1.03246
 O459 O -0.05571 0.01117 1.01245
 O460 O -0.04752 0.01262 0.97812
 C461 C -0.05936 0.01739 0.99385
 O462 O 0.04138 0.01334 1.03352
 Zr463 Zr 0.01772 0.01079 1.00985
 O464 O -0.01180 0.02566 0.96613
 O465 O -0.03303 0.02060 1.04260
 O466 O 0.00868 0.03733 1.02877
 O467 O 0.04792 0.01948 0.99677
 O468 O 0.01216 0.03752 0.99049
 C469 C 0.00030 0.04014 0.97442
 O470 O -0.04239 -0.01549 0.95347
 O471 O 0.02771 -0.06660 0.96791
 O472 O -0.00548 -0.01000 0.94565
 O473 O 0.02379 -0.03187 0.95105
 O474 O -0.01465 -0.08413 0.98266
 O475 O -0.04448 -0.06024 0.97289
 C476 C 0.01103 -0.02094 0.93940
 H477 H 0.01485 -0.06999 1.00540
 H478 H -0.05188 -0.02490 0.99353
 H479 H 0.02239 0.00351 0.97069
 H480 H 0.00385 0.00050 1.04631
 H481 H -0.05830 -0.07788 1.00848
 H482 H -0.06931 -0.01116 1.04198
 H483 H -0.04740 0.02088 1.04934
 H484 H 0.01849 0.04952 1.02547
 H485 H -0.02494 -0.09574 0.98645
 H486 H 0.04207 -0.06680 0.96112
 H487 H 0.06174 -0.03289 0.96460
 H488 H 0.05011 0.03512 0.99941
 H489 H -0.05231 -0.07414 0.97420
 H490 H -0.04430 -0.00321 0.94378
 H491 H 0.03715 -0.04095 1.06545
 H492 H 0.04700 0.02833 1.03401
 Zr493 Zr 0.51220 0.46184 0.53323
 O494 O 0.53472 0.47217 0.55579
 O495 O 0.50458 0.43078 0.54349
 O496 O 0.49749 0.46422 0.56269
 O497 O 0.55053 0.44716 0.49678
 O498 O 0.46723 0.48457 0.55684
 O499 O 0.54184 0.44465 0.53096
 O500 O 0.47811 0.41958 0.52132
 O501 O 0.47891 0.45999 0.52748
 O502 O 0.50856 0.44529 0.50527
 O503 O 0.50107 0.49402 0.53260
 O504 O 0.52999 0.47977 0.51138
 Zr505 Zr 0.48067 0.49408 0.47528
 Zr506 Zr 0.46813 0.49200 0.52523
 Zr507 Zr 0.52456 0.46383 0.48322
 Zr508 Zr 0.47561 0.44446 0.49909
 O509 O 0.55421 0.47784 0.47393
 O510 O 0.44411 0.43814 0.51050
 O511 O 0.49163 0.46167 0.47566
 O512 O 0.46324 0.47596 0.49713
 O513 O 0.48415 0.51078 0.50323
 O514 O 0.51386 0.49575 0.48126
 C515 C 0.49030 0.41725 0.53725
 C516 C 0.55429 0.44101 0.51535
 C517 C 0.47994 0.47366 0.56858
 O518 O 0.43740 0.47899 0.53237
 O519 O 0.44381 0.51151 0.51213
 O520 O 0.45201 0.51270 0.47779
 C521 C 0.44016 0.51758 0.49349
 O522 O 0.54087 0.51403 0.53322
 Zr523 Zr 0.51724 0.51124 0.50956
 O524 O 0.48771 0.52570 0.46571
 O525 O 0.46647 0.52121 0.54223
 O526 O 0.50813 0.53791 0.52828
 O527 O 0.54743 0.51987 0.49643
 O528 O 0.51163 0.53779 0.48999
 C529 C 0.49978 0.54027 0.47390
 O530 O 0.45720 0.48440 0.45335
 O531 O 0.52737 0.43353 0.46818
 O532 O 0.49411 0.48991 0.44550
 O533 O 0.52342 0.46813 0.45108
 O534 O 0.48503 0.41605 0.48304
 O535 O 0.45516 0.43980 0.47310
 C536 C 0.51065 0.47895 0.43934
 H537 H 0.51450 0.43041 0.50569
 H538 H 0.44771 0.47530 0.49348
 H539 H 0.52194 0.50365 0.47046
 H540 H 0.50338 0.50121 0.54609
 H541 H 0.44138 0.42244 0.50883
 H542 H 0.43024 0.48939 0.54181
 H543 H 0.45209 0.52152 0.54896
 H544 H 0.51792 0.55009 0.52490
 H545 H 0.47477 0.40445 0.48692
 H546 H 0.54172 0.43330 0.46139
 H547 H 0.56136 0.46727 0.46464
 H548 H 0.54958 0.53554 0.49895
 H549 H 0.44736 0.42590 0.47452
 H550 H 0.45527 0.49659 0.44357
 H551 H 0.53675 0.45996 0.56553
 H552 H 0.54646 0.52904 0.53361
 Zr553 Zr 0.48789 1.03837 0.53236
 O554 O 0.46533 1.02813 0.55485
 O555 O 0.49549 1.06947 0.54263
 O556 O 0.50252 1.03611 0.56185
 O557 O 0.44962 1.05291 0.49581
 O558 O 0.53280 1.01574 0.55611
 O559 O 0.45826 1.05555 0.53001
 O560 O 0.52200 1.08061 0.52052
 O561 O 0.52119 1.04023 0.52670
 O562 O 0.49158 1.05483 0.50440
 O563 O 0.49903 1.00620 0.53177
 O564 O 0.47015 1.02036 0.51047
 Zr565 Zr 0.51955 1.00593 0.47451
 Zr566 Zr 0.53198 1.00821 0.52449
 Zr567 Zr 0.47562 1.03620 0.48232
 Zr568 Zr 0.52454 1.05564 0.49831
 O569 O 0.44600 1.02214 0.47296
 O570 O 0.55602 1.06202 0.50979
 O571 O 0.50857 1.03834 0.47485
 O572 O 0.53692 1.02414 0.49640
 O573 O 0.51602 0.98934 0.50245
 O574 O 0.48634 1.00427 0.48039
 C575 C 0.50978 1.08299 0.53642
 C576 C 0.44583 1.05913 0.51438
 C577 C 0.52006 1.02668 0.56780
 O578 O 0.56268 1.02127 0.53172
 O579 O 0.55634 0.98868 0.51147
 O580 O 0.54823 0.98735 0.47711
 C581 C 0.56004 0.98255 0.49285
 O582 O 0.45922 0.98619 0.53229
 Zr583 Zr 0.48291 0.98890 0.50869
 O584 O 0.51255 0.97426 0.46495
 O585 O 0.53363 0.97906 0.54149
 O586 O 0.49197 0.96230 0.52745
 O587 O 0.45277 0.98019 0.49547
 O588 O 0.48858 0.96226 0.48917
 C589 C 0.50047 0.95972 0.47312
 O590 O 0.54305 1.01554 0.45262
 O591 O 0.47283 1.06644 0.46726
 O592 O 0.50615 1.01000 0.44469
 O593 O 0.47683 1.03179 0.45019
 O594 O 0.51513 1.08400 0.48223
 O595 O 0.54502 1.06021 0.47237
 C596 C 0.48962 1.02093 0.43848
 H597 H 0.48563 1.06970 0.50480
 H598 H 0.55246 1.02481 0.49279
 H599 H 0.47829 0.99632 0.46958
 H600 H 0.49670 0.99906 0.54525
 H601 H 0.55875 1.07772 0.50812
 H602 H 0.56983 1.01091 0.54119
 H603 H 0.54799 0.97879 0.54828
 H604 H 0.48219 0.95011 0.52405
 H605 H 0.52539 1.09562 0.48613
 H606 H 0.45848 1.06664 0.46044
 H607 H 0.43886 1.03267 0.46365
 H608 H 0.45061 0.96453 0.49799
 H609 H 0.55282 1.07412 0.47380
 H610 H 0.54500 1.00330 0.44286
 H611 H 0.46327 1.04036 0.56459
 H612 H 0.45362 0.97119 0.53265
 Zr613 Zr -0.01334 0.53878 1.03269
 O614 O -0.03602 0.52866 1.05514
 O615 O -0.00573 0.56990 1.04290
 O616 O 0.00115 0.53662 1.06225
 O617 O -0.05143 0.55322 0.99594
 O618 O 0.03141 0.51617 1.05671
 O619 O -0.04296 0.55596 1.03017
 O620 O 0.02096 0.58086 1.02091
 O621 O 0.01999 0.54053 1.02717
 O622 O -0.00949 0.55513 1.00470
 O623 O -0.00228 0.50658 1.03227
 O624 O -0.03102 0.52073 1.01079
 Zr625 Zr 0.01852 0.50605 0.97511
 Zr626 Zr 0.03072 0.50849 1.02513
 Zr627 Zr -0.02538 0.53645 0.98261
 Zr628 Zr 0.02350 0.55584 0.99875
 O629 O -0.05497 0.52242 0.97313
 O630 O 0.05496 0.56219 1.01029
 O631 O 0.00761 0.53848 0.97528
 O632 O 0.03583 0.52431 0.99700
 O633 O 0.01482 0.48957 1.00309
 O634 O -0.01472 0.50449 0.98085
 C635 C 0.00867 0.58333 1.03675
 C636 C -0.05531 0.55948 1.01447
 C637 C 0.01865 0.52720 1.06830
 O638 O 0.06142 0.52150 1.03243
 O639 O 0.05509 0.48883 1.01229
 O640 O 0.04713 0.48739 0.97790
 C641 C 0.05886 0.48261 0.99370
 O642 O -0.04213 0.48668 1.03268
 Zr643 Zr -0.01832 0.48923 1.00918
 O644 O 0.01149 0.47436 0.96562
 O645 O 0.03221 0.47941 1.04226
 O646 O -0.00941 0.46268 1.02808
 O647 O -0.04842 0.48054 0.99586
 O648 O -0.01263 0.46251 0.98978
 C649 C -0.00067 0.45988 0.97379
 O650 O 0.04216 0.51550 0.95330
 O651 O -0.02804 0.56665 0.96746
 O652 O 0.00530 0.51004 0.94522
 O653 O -0.02400 0.53193 0.95050
 O654 O 0.01422 0.58418 0.98257
 O655 O 0.04408 0.56027 0.97285
 C656 C -0.01116 0.52100 0.93889
 H657 H -0.01542 0.57002 1.00503
 H658 H 0.05139 0.52491 0.99346
 H659 H -0.02274 0.49652 0.97002
 H660 H -0.00468 0.49950 1.04577
 H661 H 0.05773 0.57788 1.00857
 H662 H 0.06850 0.51116 1.04197
 H663 H 0.04654 0.47914 1.04911
 H664 H -0.01920 0.45050 1.02468
 H665 H 0.02449 0.59578 0.98648
 H666 H -0.04234 0.56685 0.96057
 H667 H -0.06204 0.53293 0.96376
 H668 H -0.05063 0.46489 0.99844
 H669 H 0.05189 0.57418 0.97425
 H670 H 0.04413 0.50323 0.94359
 H671 H -0.03811 0.54094 1.06482
 H672 H -0.04776 0.47169 1.03309
 Zr673 Zr -0.01368 0.46242 0.46650
 O674 O -0.03635 0.47275 0.44409
 O675 O -0.00610 0.43133 0.45614
 O676 O 0.00082 0.46470 0.43697
 O677 O -0.05177 0.44786 0.50314
 O678 O 0.03109 0.48505 0.44265
 O679 O -0.04329 0.44529 0.46891
 O680 O 0.02055 0.42016 0.47812
 O681 O 0.01965 0.46055 0.47204
 O682 O -0.00983 0.44590 0.49441
 O683 O -0.00260 0.49459 0.46710
 O684 O -0.03135 0.48039 0.48848
 Zr685 Zr 0.01820 0.49473 0.52429
 Zr686 Zr 0.03039 0.49255 0.47427
 Zr687 Zr -0.02571 0.46450 0.51659
 Zr688 Zr 0.02316 0.44507 0.50038
 O689 O -0.05530 0.47855 0.52611
 O690 O 0.05459 0.43870 0.48878
 O691 O 0.00728 0.46233 0.52393
 O692 O 0.03550 0.47656 0.50231
 O693 O 0.01450 0.51139 0.49640
 O694 O -0.01504 0.49641 0.51853
 C695 C 0.00825 0.41780 0.46226
 C696 C -0.05564 0.44170 0.48457
 C697 C 0.01833 0.47411 0.43099
 O698 O 0.06110 0.47951 0.46692
 O699 O 0.05478 0.51207 0.48724
 O700 O 0.04682 0.51332 0.52163
 C701 C 0.05855 0.51816 0.50586
 O702 O -0.04244 0.51461 0.46677
 Zr703 Zr -0.01863 0.51185 0.49028
 O704 O 0.01116 0.52638 0.53396
 O705 O 0.03189 0.52173 0.45729
 O706 O -0.00971 0.53849 0.47154
 O707 O -0.04874 0.52053 0.50361
 O708 O -0.01294 0.53844 0.50983
 C709 C -0.00099 0.54094 0.52586
 O710 O 0.04185 0.48509 0.54607
 O711 O -0.02840 0.43421 0.53157
 O712 O 0.00499 0.49057 0.55415
 O713 O -0.02432 0.46880 0.54872
 O714 O 0.01389 0.41667 0.51643
 O715 O 0.04377 0.44042 0.52625
 C716 C -0.01147 0.47961 0.56040
 H717 H -0.01576 0.43103 0.49400
 H718 H 0.05105 0.47588 0.50587
 H719 H -0.02305 0.50433 0.52940
 H720 H -0.00500 0.50175 0.45364
 H721 H 0.05736 0.42300 0.49040
 H722 H 0.06817 0.48989 0.45744
 H723 H 0.04622 0.52201 0.45046
 H724 H -0.01949 0.55068 0.47499
 H725 H 0.02415 0.40506 0.51247
 H726 H -0.04270 0.43401 0.53844
 H727 H -0.06237 0.46800 0.53542
 H728 H -0.05094 0.53620 0.50112
 H729 H 0.05161 0.42653 0.52475
 H730 H 0.04381 0.49730 0.55585
 H731 H -0.03845 0.46053 0.43434
 H732 H -0.04806 0.52962 0.46644
 Zr733 Zr 0.48752 -0.03841 -0.03292
 O734 O 0.46486 -0.02820 -0.05538
 O735 O 0.49532 -0.06945 -0.04328
 O736 O 0.50208 -0.03600 -0.06241
 O737 O 0.44939 -0.05320 0.00360
 O738 O 0.53224 -0.01552 -0.05664
 O739 O 0.45799 -0.05569 -0.03061
 O740 O 0.52194 -0.08052 -0.02123
 O741 O 0.52084 -0.04014 -0.02728
 O742 O 0.49135 -0.05494 -0.00501
 O743 O 0.49845 -0.00619 -0.03226
 O744 O 0.46970 -0.02054 -0.01097
 Zr745 Zr 0.51905 -0.00601 0.02499
 Zr746 Zr 0.53143 -0.00809 -0.02500
 Zr747 Zr 0.47531 -0.03644 0.01713
 Zr748 Zr 0.52433 -0.05562 0.00106
 O749 O 0.44562 -0.02254 0.02656
 O750 O 0.55584 -0.06184 -0.01041
 O751 O 0.50828 -0.03846 0.02458
 O752 O 0.53652 -0.02408 0.00305
 O753 O 0.51538 0.01066 -0.00290
 O754 O 0.48583 -0.00447 0.01913
 C755 C 0.50971 -0.08291 -0.03712
 C756 C 0.44560 -0.05936 -0.01499
 C757 C 0.51955 -0.02649 -0.06835
 O758 O 0.56220 -0.02100 -0.03228
 O759 O 0.55569 0.01152 -0.01193
 O760 O 0.54760 0.01270 0.02244
 C761 C 0.55937 0.01761 0.00671
 O762 O 0.45851 0.01364 -0.03269
 Zr763 Zr 0.48226 0.01098 -0.00912
 O764 O 0.51186 0.02559 0.03465
 O765 O 0.53287 0.02112 -0.04193
 O766 O 0.49112 0.03767 -0.02781
 O767 O 0.45208 0.01952 0.00413
 O768 O 0.48778 0.03757 0.01048
 C769 C 0.49968 0.04011 0.02653
 O770 O 0.54266 -0.01558 0.04684
 O771 O 0.47274 -0.06674 0.03210
 O772 O 0.50574 -0.01021 0.05480
 O773 O 0.47655 -0.03211 0.04928
 O774 O 0.51513 -0.08408 0.01706
 O775 O 0.54486 -0.06017 0.02700
 C776 C 0.48929 -0.02123 0.06100
 H777 H 0.48550 -0.06984 -0.00545
 H778 H 0.55206 -0.02469 0.00665
 H779 H 0.47774 0.00341 0.02997
 H780 H 0.49605 0.00097 -0.04571
 H781 H 0.55868 -0.07753 -0.00877
 H782 H 0.56927 -0.01058 -0.04172
 H783 H 0.54722 0.02147 -0.04871
 H784 H 0.48127 0.04981 -0.02438
 H785 H 0.52547 -0.09563 0.01313
 H786 H 0.45841 -0.06702 0.03893
 H787 H 0.43856 -0.03313 0.03584
 H788 H 0.44981 0.03518 0.00163
 H789 H 0.55275 -0.07405 0.02555
 H790 H 0.54454 -0.00337 0.05664
 H791 H 0.46286 -0.04041 -0.06515
 H792 H 0.45284 0.02862 -0.03304
 Zr793 Zr 0.51186 0.53841 -0.03233
 O794 O 0.53433 0.52827 -0.05500
 O795 O 0.50413 0.56955 -0.04236
 O796 O 0.49709 0.53623 -0.06177
 O797 O 0.55029 0.55283 0.00412
 O798 O 0.46690 0.51582 -0.05602
 O799 O 0.54146 0.55558 -0.03002
 O800 O 0.47772 0.58060 -0.02004
 O801 O 0.47858 0.54022 -0.02651
 O802 O 0.50827 0.55476 -0.00426
 O803 O 0.50082 0.50623 -0.03190
 O804 O 0.52977 0.52034 -0.01064
 Zr805 Zr 0.48060 0.50575 0.02546
 Zr806 Zr 0.46790 0.50819 -0.02445
 Zr807 Zr 0.52440 0.53607 0.01764
 Zr808 Zr 0.47534 0.55553 0.00199
 O809 O 0.55410 0.52200 0.02678
 O810 O 0.44379 0.56194 -0.00932
 O811 O 0.49148 0.53816 0.02527
 O812 O 0.46306 0.52402 0.00376
 O813 O 0.48403 0.48925 -0.00260
 O814 O 0.51378 0.50413 0.01941
 C815 C 0.48985 0.58305 -0.03598
 C816 C 0.55397 0.55911 -0.01443
 C817 C 0.47956 0.52681 -0.06770
 O818 O 0.43712 0.52125 -0.03146
 O819 O 0.44366 0.48857 -0.01143
 O820 O 0.45198 0.48713 0.02288
 C821 C 0.44009 0.48236 0.00717
 O822 O 0.54067 0.48624 -0.03273
 Zr823 Zr 0.51710 0.48885 -0.00900
 O824 O 0.48776 0.47406 0.03481
 O825 O 0.46625 0.47909 -0.04163
 O826 O 0.50800 0.46231 -0.02787
 O827 O 0.54736 0.48013 0.00400
 O828 O 0.51165 0.46215 0.01040
 C829 C 0.49986 0.45956 0.02650
 O830 O 0.45716 0.51525 0.04750
 O831 O 0.52719 0.56626 0.03286
 O832 O 0.49411 0.50973 0.05524
 O833 O 0.52335 0.53155 0.04975
 O834 O 0.48474 0.58381 0.01824
 O835 O 0.45495 0.55998 0.02805
 C836 C 0.51064 0.52066 0.06144
 H837 H 0.51418 0.56964 -0.00459
 H838 H 0.44754 0.52465 0.00745
 H839 H 0.52191 0.49616 0.03014
 H840 H 0.50310 0.49914 -0.04543
 H841 H 0.44103 0.57763 -0.00753
 H842 H 0.42995 0.51091 -0.04095
 H843 H 0.45185 0.47883 -0.04834
 H844 H 0.51783 0.45011 -0.02459
 H845 H 0.47443 0.59545 0.01447
 H846 H 0.54157 0.56645 0.03962
 H847 H 0.56126 0.53250 0.03612
 H848 H 0.54955 0.46447 0.00136
 H849 H 0.44711 0.57389 0.02674
 H850 H 0.45531 0.50298 0.05720
 H851 H 0.53631 0.54054 -0.06467
 H852 H 0.54628 0.47124 -0.03324
 Zr853 Zr 0.01278 1.03802 0.46705
 O854 O 0.03532 1.02742 0.44463
 O855 O 0.00534 1.06908 0.45662
 O856 O -0.00183 1.03560 0.43756
 O857 O 0.05108 1.05265 0.50355
 O858 O -0.03220 1.01548 0.44338
 O859 O 0.04248 1.05503 0.46933
 O860 O -0.02113 1.08058 0.47867
 O861 O -0.02051 1.04013 0.47268
 O862 O 0.00915 1.05474 0.49493
 O863 O 0.00152 1.00592 0.46778
 O864 O 0.03044 1.02009 0.48904
 Zr865 Zr -0.01903 1.00628 0.52503
 Zr866 Zr -0.03143 1.00820 0.47503
 Zr867 Zr 0.02502 1.03620 0.51711
 Zr868 Zr -0.02382 1.05581 0.50099
 O869 O 0.05458 1.02205 0.52655
 O870 O -0.05525 1.06229 0.48944
 O871 O -0.00792 1.03861 0.52455
 O872 O -0.03633 1.02440 0.50304
 O873 O -0.01555 0.98942 0.49717
 O874 O 0.01417 1.00436 0.51918
 C875 C -0.00888 1.08275 0.46277
 C876 C 0.05490 1.05868 0.48495
 C877 C -0.01941 1.02625 0.43165
 O878 O -0.06209 1.02137 0.46774
 O879 O -0.05584 0.98888 0.48813
 O880 O -0.04775 0.98781 0.52250
 C881 C -0.05956 0.98291 0.50678
 O882 O 0.04126 0.98567 0.46741
 Zr883 Zr 0.01756 0.98872 0.49096
 O884 O -0.01216 0.97466 0.53477
 O885 O -0.03317 0.97893 0.45814
 O886 O 0.00840 0.96202 0.47231
 O887 O 0.04765 0.97992 0.50424
 O888 O 0.01176 0.96229 0.51061
 C889 C -0.00015 0.95997 0.52667
 O890 O -0.04253 1.01623 0.54683
 O891 O 0.02792 1.06655 0.53204
 O892 O -0.00565 1.01051 0.55484
 O893 O 0.02378 1.03206 0.54927
 O894 O -0.01432 1.08423 0.51696
 O895 O -0.04432 1.06072 0.52688
 C896 C 0.01092 1.02138 0.56101
 H897 H 0.01515 1.06957 0.49447
 H898 H -0.05186 1.02518 0.50664
 H899 H 0.02219 0.99646 0.53004
 H900 H 0.00383 0.99866 0.45434
 H901 H -0.05791 1.07802 0.49103
 H902 H -0.06927 1.01097 0.45832
 H903 H -0.04754 0.97869 0.45136
 H904 H 0.01811 0.94979 0.47578
 H905 H -0.02452 1.09589 0.51300
 H906 H 0.04226 1.06672 0.53886
 H907 H 0.06176 1.03261 0.53581
 H908 H 0.04975 0.96422 0.50177
 H909 H -0.05206 1.07466 0.52538
 H910 H -0.04454 1.00410 0.55666
 H911 H 0.03744 1.03956 0.43483
 H912 H 0.04677 0.97062 0.46708
 Zr913 Zr 0.71289 0.26143 0.21752
 O914 O 0.72331 0.28400 0.19510
 O915 O 0.68183 0.25396 0.20715
 O916 O 0.71519 0.24682 0.18801
 O917 O 0.69836 0.29974 0.25411
 O918 O 0.73540 0.21642 0.19373
 O919 O 0.69584 0.29115 0.21989
 O920 O 0.67054 0.22742 0.22915
 O921 O 0.71091 0.22810 0.22309
 O922 O 0.69632 0.25775 0.24542
 O923 O 0.74499 0.25018 0.21817
 O924 O 0.73085 0.27910 0.23950
 Zr925 Zr 0.74496 0.22954 0.27538
 Zr926 Zr 0.74285 0.21719 0.22536
 Zr927 Zr 0.71489 0.27363 0.26759
 Zr928 Zr 0.69538 0.22475 0.25142
 O929 O 0.72901 0.30320 0.27709
 O930 O 0.68896 0.19328 0.23985
 O931 O 0.71262 0.24064 0.27497
 O932 O 0.72680 0.21224 0.25340
 O933 O 0.76166 0.23307 0.24749
 O934 O 0.74675 0.26279 0.26959
 C935 C 0.66826 0.23969 0.21328
 C936 C 0.69225 0.30359 0.23554
 C937 C 0.72454 0.22922 0.18205
 O938 O 0.72975 0.18649 0.21804
 O939 O 0.76228 0.19275 0.23836
 O940 O 0.76348 0.20081 0.27274
 C941 C 0.76834 0.18900 0.25699
 O942 O 0.76512 0.28996 0.21782
 Zr943 Zr 0.76224 0.26621 0.24134
 O944 O 0.77657 0.23644 0.28507
 O945 O 0.77201 0.21549 0.20839
 O946 O 0.78886 0.25709 0.22262
 O947 O 0.77098 0.29633 0.25467
 O948 O 0.78875 0.26041 0.26092
 C949 C 0.79118 0.24848 0.27695
 O950 O 0.73522 0.20598 0.29716
 O951 O 0.68462 0.27653 0.28255
 O952 O 0.74075 0.24289 0.30523
 O953 O 0.71911 0.27232 0.29973
 O954 O 0.66701 0.23422 0.26745
 O955 O 0.69064 0.20422 0.27731
 C956 C 0.72983 0.25944 0.31144
 H957 H 0.68148 0.26376 0.24500
 H958 H 0.72608 0.19669 0.25697
 H959 H 0.75466 0.27080 0.28046
 H960 H 0.75219 0.25250 0.20471
 H961 H 0.67325 0.19060 0.24147
 H962 H 0.74011 0.17933 0.20857
 H963 H 0.77226 0.20112 0.20157
 H964 H 0.80106 0.26683 0.22608
 H965 H 0.65539 0.22399 0.26350
 H966 H 0.68444 0.29087 0.28941
 H967 H 0.71848 0.31036 0.28638
 H968 H 0.78665 0.29844 0.25219
 H969 H 0.67674 0.19644 0.27581
 H970 H 0.74739 0.20399 0.30696
 H971 H 0.71113 0.28613 0.18534
 H972 H 0.78012 0.29552 0.21751
 Zr973 Zr 0.78851 0.73763 0.71719
 O974 O 0.77876 0.71513 0.69435
 O975 O 0.81970 0.74547 0.70750
 O976 O 0.78661 0.75243 0.68777
 O977 O 0.80266 0.69916 0.75367
 O978 O 0.76599 0.78257 0.69341
 O979 O 0.80577 0.70804 0.71958
 O980 O 0.83033 0.77191 0.72999
 O981 O 0.79007 0.77093 0.72312
 O982 O 0.80449 0.74124 0.74543
 O983 O 0.75630 0.74857 0.71734
 O984 O 0.77029 0.71963 0.73865
 Zr985 Zr 0.75502 0.76876 0.77474
 Zr986 Zr 0.75799 0.78152 0.72490
 Zr987 Zr 0.78563 0.72502 0.76710
 Zr988 Zr 0.80501 0.77420 0.75178
 O989 O 0.77162 0.69524 0.77604
 O990 O 0.81138 0.80580 0.74063
 O991 O 0.78745 0.75796 0.77484
 O992 O 0.77344 0.78639 0.75328
 O993 O 0.73889 0.76530 0.74651
 O994 O 0.75365 0.73555 0.76859
 C995 C 0.83303 0.75979 0.71405
 C996 C 0.80916 0.69551 0.73517
 C997 C 0.77717 0.76996 0.68180
 O998 O 0.77097 0.81237 0.71810
 O999 O 0.73813 0.80572 0.73778
 O1000 O 0.73631 0.79736 0.77205
 C1001 C 0.73169 0.80927 0.75633
 O1002 O 0.73655 0.70862 0.71620
 Zr1003 Zr 0.73875 0.73220 0.74002
 O1004 O 0.72328 0.76148 0.78375
 O1005 O 0.72913 0.78311 0.70744
 O1006 O 0.71241 0.74124 0.72091
 O1007 O 0.73005 0.70188 0.75286
 O1008 O 0.71181 0.73756 0.75916
 C1009 C 0.70896 0.74934 0.77527
 O1010 O 0.76410 0.79223 0.79695
 O1011 O 0.81564 0.72229 0.78259
 O1012 O 0.75873 0.75523 0.80452
 O1013 O 0.78076 0.72604 0.79916
 O1014 O 0.83312 0.76486 0.76828
 O1015 O 0.80903 0.79458 0.77794
 C1016 C 0.76968 0.73873 0.81079
 H1017 H 0.81939 0.73536 0.74523
 H1018 H 0.77395 0.80193 0.75702
 H1019 H 0.74560 0.72738 0.77922
 H1020 H 0.74939 0.74628 0.70373
 H1021 H 0.82701 0.80862 0.74258
 H1022 H 0.76072 0.81953 0.70852
 H1023 H 0.72887 0.79753 0.70076
 H1024 H 0.70024 0.73136 0.72404
 H1025 H 0.84473 0.77522 0.76466
 H1026 H 0.81581 0.70789 0.78931
 H1027 H 0.78204 0.68811 0.78546
 H1028 H 0.71446 0.69963 0.75006
 H1029 H 0.82290 0.80249 0.77679
 H1030 H 0.75171 0.79403 0.80653
 H1031 H 0.79115 0.71319 0.68480
 H1032 H 0.72160 0.70295 0.71554
 Zr1033 Zr 0.21154 0.23817 0.78282
 O1034 O 0.22172 0.21554 0.80532
 O1035 O 0.18047 0.24589 0.79301
 O1036 O 0.21381 0.25279 0.81234
 O1037 O 0.19699 0.19992 0.74619
 O1038 O 0.23421 0.28303 0.80670
 O1039 O 0.19436 0.20856 0.78039
 O1040 O 0.16941 0.27247 0.77092
 O1041 O 0.20976 0.27151 0.77721
 O1042 O 0.19512 0.24193 0.75483
 O1043 O 0.24370 0.24919 0.78234
 O1044 O 0.22951 0.22035 0.76096
 Zr1045 Zr 0.24404 0.26974 0.72511
 Zr1046 Zr 0.24176 0.28219 0.77510
 Zr1047 Zr 0.21372 0.22589 0.73277
 Zr1048 Zr 0.19438 0.27493 0.74878
 O1049 O 0.22773 0.19620 0.72339
 O1050 O 0.18805 0.30646 0.76029
 O1051 O 0.21165 0.25888 0.72534
 O1052 O 0.22587 0.28721 0.74697
 O1053 O 0.26060 0.26613 0.75309
 O1054 O 0.24564 0.23649 0.73095
 C1055 C 0.16700 0.26024 0.78679
 C1056 C 0.19078 0.19614 0.76474
 C1057 C 0.22324 0.27031 0.81834
 O1058 O 0.22876 0.31297 0.78233
 O1059 O 0.26135 0.30649 0.76215
 O1060 O 0.26268 0.29835 0.72779
 C1061 C 0.26751 0.31015 0.74354
 O1062 O 0.26361 0.20926 0.78286
 Zr1063 Zr 0.26098 0.23299 0.75928
 O1064 O 0.27567 0.26260 0.71561
 O1065 O 0.27087 0.28372 0.79219
 O1066 O 0.28755 0.24195 0.77813
 O1067 O 0.26963 0.20278 0.74606
 O1068 O 0.28760 0.23855 0.73984
 C1069 C 0.29017 0.25044 0.72380
 O1070 O 0.23451 0.29332 0.70324
 O1071 O 0.18351 0.22321 0.71764
 O1072 O 0.23998 0.25638 0.69526
 O1073 O 0.21815 0.22711 0.70065
 O1074 O 0.16604 0.26564 0.73261
 O1075 O 0.18988 0.29546 0.72285
 C1076 C 0.22903 0.23989 0.68900
 H1077 H 0.18026 0.23603 0.75518
 H1078 H 0.22525 0.30276 0.74337
 H1079 H 0.25357 0.22841 0.72014
 H1080 H 0.25082 0.24683 0.79583
 H1081 H 0.17237 0.30926 0.75857
 H1082 H 0.23912 0.32009 0.79183
 H1083 H 0.27116 0.29810 0.79899
 H1084 H 0.29972 0.23212 0.77474
 H1085 H 0.15446 0.27597 0.73648
 H1086 H 0.18330 0.20886 0.71079
 H1087 H 0.21720 0.18910 0.71405
 H1088 H 0.28527 0.20056 0.74864
 H1089 H 0.17600 0.30334 0.72426
 H1090 H 0.24674 0.29523 0.69351
 H1091 H 0.20948 0.21352 0.81502
 H1092 H 0.27859 0.20362 0.78328
 Zr1093 Zr 0.28830 0.76313 0.28229
 O1094 O 0.27800 0.78572 0.30483
 O1095 O 0.31940 0.75553 0.29253
 O1096 O 0.28607 0.74849 0.31177
 O1097 O 0.30274 0.80143 0.24581
 O1098 O 0.26580 0.71818 0.30598
 O1099 O 0.30538 0.79279 0.27999
 O1100 O 0.33058 0.72900 0.27036
 O1101 O 0.29023 0.72979 0.27658
 O1102 O 0.30476 0.75943 0.25432
 O1103 O 0.25619 0.75198 0.28171
 O1104 O 0.27028 0.78088 0.26044
 Zr1105 Zr 0.25599 0.73142 0.22442
 Zr1106 Zr 0.25827 0.71900 0.27437
 Zr1107 Zr 0.28612 0.77540 0.23227
 Zr1108 Zr 0.30565 0.72644 0.24817
 O1109 O 0.27200 0.80503 0.22295
 O1110 O 0.31210 0.69494 0.25960
 O1111 O 0.28834 0.74242 0.22475
 O1112 O 0.27421 0.71403 0.24626
 O1113 O 0.23939 0.73497 0.25238
 O1114 O 0.25425 0.76466 0.23034
 C1115 C 0.33294 0.74124 0.28628
 C1116 C 0.30893 0.80523 0.26438
 C1117 C 0.27669 0.73093 0.31768
 O1118 O 0.27138 0.68826 0.28153
 O1119 O 0.23878 0.69463 0.26133
 O1120 O 0.23746 0.70274 0.22699
 C1121 C 0.23266 0.69093 0.24271
 O1122 O 0.23612 0.79185 0.28227
 Zr1123 Zr 0.23887 0.76810 0.25866
 O1124 O 0.22434 0.73840 0.21489
 O1125 O 0.22916 0.71736 0.29142
 O1126 O 0.21232 0.75907 0.27745
 O1127 O 0.23010 0.79825 0.24546
 O1128 O 0.21226 0.76237 0.23918
 C1129 C 0.20976 0.75046 0.22311
 O1130 O 0.26565 0.70787 0.20250
 O1131 O 0.31634 0.77821 0.21721
 O1132 O 0.26006 0.74478 0.19462
 O1133 O 0.28176 0.77415 0.20014
 O1134 O 0.33396 0.73585 0.23208
 O1135 O 0.31027 0.70592 0.22219
 C1136 C 0.27096 0.76131 0.18842
 H1137 H 0.31961 0.76539 0.25472
 H1138 H 0.27491 0.69848 0.24263
 H1139 H 0.24629 0.77271 0.21954
 H1140 H 0.24904 0.75432 0.29520
 H1141 H 0.32779 0.69221 0.25790
 H1142 H 0.26104 0.68110 0.29099
 H1143 H 0.22891 0.70298 0.29817
 H1144 H 0.20012 0.76885 0.27407
 H1145 H 0.34559 0.72558 0.23594
 H1146 H 0.31650 0.79256 0.21041
 H1147 H 0.28251 0.81217 0.21365
 H1148 H 0.21444 0.80041 0.24800
 H1149 H 0.32418 0.69812 0.22360
 H1150 H 0.25344 0.70591 0.19274
 H1151 H 0.29021 0.78779 0.31456
 H1152 H 0.22112 0.79747 0.28265
 Zr1153 Zr 0.21179 0.76233 0.71708
 O1154 O 0.22208 0.78494 0.69463
 O1155 O 0.18074 0.75474 0.70676
 O1156 O 0.21408 0.74773 0.68756
 O1157 O 0.19720 0.80060 0.75369
 O1158 O 0.23442 0.71741 0.69323
 O1159 O 0.19465 0.79200 0.71946
 O1160 O 0.16961 0.72815 0.72879
 O1161 O 0.20995 0.72899 0.72265
 O1162 O 0.19530 0.75860 0.74501
 O1163 O 0.24394 0.75120 0.71765
 O1164 O 0.22974 0.78007 0.73901
 Zr1165 Zr 0.24410 0.73058 0.77486
 Zr1166 Zr 0.24193 0.71820 0.72485
 Zr1167 Zr 0.21386 0.77455 0.76714
 Zr1168 Zr 0.19449 0.72559 0.75102
 O1169 O 0.22788 0.80419 0.77660
 O1170 O 0.18816 0.69410 0.73948
 O1171 O 0.21173 0.74156 0.77453
 O1172 O 0.22596 0.71320 0.75292
 O1173 O 0.26073 0.73416 0.74694
 O1174 O 0.24576 0.76383 0.76906
 C1175 C 0.16725 0.74041 0.71292
 C1176 C 0.19105 0.80442 0.73512
 C1177 C 0.22349 0.73017 0.68158
 O1178 O 0.22893 0.68746 0.71757
 O1179 O 0.26149 0.69384 0.73782
 O1180 O 0.26273 0.70192 0.77220
 C1181 C 0.26760 0.69013 0.75644
 O1182 O 0.26390 0.79106 0.71725
 Zr1183 Zr 0.26118 0.76731 0.74078
 O1184 O 0.27571 0.73759 0.78447
 O1185 O 0.27107 0.71660 0.70782
 O1186 O 0.28779 0.75828 0.72201
 O1187 O 0.26984 0.79746 0.75408
 O1188 O 0.28775 0.76161 0.76030
 C1189 C 0.29025 0.74969 0.77634
 O1190 O 0.23447 0.70700 0.79666
 O1191 O 0.18361 0.77732 0.78218
 O1192 O 0.23998 0.74393 0.80471
 O1193 O 0.21821 0.77329 0.79928
 O1194 O 0.16612 0.73497 0.76709
 O1195 O 0.18989 0.70507 0.77693
 C1196 C 0.22904 0.76046 0.81095
 H1197 H 0.18044 0.76455 0.74461
 H1198 H 0.22531 0.69765 0.75650
 H1199 H 0.25367 0.77187 0.77990
 H1200 H 0.25109 0.75355 0.70418
 H1201 H 0.17247 0.69135 0.74114
 H1202 H 0.23930 0.68033 0.70808
 H1203 H 0.27135 0.70223 0.70101
 H1204 H 0.29996 0.76807 0.72545
 H1205 H 0.15453 0.72468 0.76316
 H1206 H 0.18340 0.79167 0.78903
 H1207 H 0.21733 0.81132 0.78591
 H1208 H 0.28549 0.79963 0.75156
 H1209 H 0.17602 0.69724 0.77547
 H1210 H 0.24667 0.70504 0.80643
 H1211 H 0.20987 0.78702 0.68489
 H1212 H 0.27889 0.79666 0.71689
 Zr1213 Zr 0.28802 0.23770 0.21722
 O1214 O 0.27781 0.21514 0.19463
 O1215 O 0.31910 0.24532 0.20705
 O1216 O 0.28576 0.25238 0.18776
 O1217 O 0.30253 0.19936 0.25370
 O1218 O 0.26539 0.28266 0.19355
 O1219 O 0.30518 0.20803 0.21953
 O1220 O 0.33019 0.27182 0.22928
 O1221 O 0.28984 0.27103 0.22298
 O1222 O 0.30444 0.24137 0.24523
 O1223 O 0.25587 0.24882 0.21776
 O1224 O 0.27003 0.21991 0.23902
 Zr1225 Zr 0.25556 0.26930 0.27508
 Zr1226 Zr 0.25785 0.28180 0.22514
 Zr1227 Zr 0.28583 0.22537 0.26723
 Zr1228 Zr 0.30522 0.27436 0.25141
 O1229 O 0.27179 0.19571 0.27648
 O1230 O 0.31158 0.30587 0.24002
 O1231 O 0.28794 0.25834 0.27479
 O1232 O 0.27375 0.28673 0.25329
 O1233 O 0.23899 0.26578 0.24709
 O1234 O 0.25392 0.23607 0.26911
 C1235 C 0.33260 0.25961 0.21335
 C1236 C 0.30875 0.19558 0.23513
 C1237 C 0.27634 0.26994 0.18185
 O1238 O 0.27087 0.31255 0.21803
 O1239 O 0.23830 0.30616 0.23819
 O1240 O 0.23697 0.29799 0.27252
 C1241 C 0.23216 0.30983 0.25681
 O1242 O 0.23591 0.20896 0.21710
 Zr1243 Zr 0.23858 0.23265 0.24076
 O1244 O 0.22391 0.26226 0.28456
 O1245 O 0.22873 0.28344 0.20807
 O1246 O 0.21200 0.24171 0.22196
 O1247 O 0.22991 0.20246 0.25388
 O1248 O 0.21195 0.23829 0.26023
 C1249 C 0.20940 0.25017 0.27631
 O1250 O 0.26511 0.29283 0.29705
 O1251 O 0.31604 0.22256 0.28234
 O1252 O 0.25964 0.25589 0.30488
 O1253 O 0.28143 0.22656 0.29935
 O1254 O 0.33354 0.26496 0.26756
 O1255 O 0.30976 0.29485 0.27742
 C1256 C 0.27059 0.23936 0.31107
 H1257 H 0.31930 0.23542 0.24485
 H1258 H 0.27439 0.30228 0.25694
 H1259 H 0.24599 0.22800 0.27989
 H1260 H 0.24874 0.24650 0.20426
 H1261 H 0.32726 0.30862 0.24174
 H1262 H 0.26051 0.31971 0.20856
 H1263 H 0.22845 0.29782 0.20133
 H1264 H 0.19983 0.23191 0.22530
 H1265 H 0.34514 0.27525 0.26373
 H1266 H 0.31625 0.20820 0.28912
 H1267 H 0.28231 0.18856 0.28579
 H1268 H 0.21426 0.20029 0.25132
 H1269 H 0.32363 0.30269 0.27603
 H1270 H 0.25288 0.29475 0.30680
 H1271 H 0.29004 0.21309 0.18492
 H1272 H 0.22093 0.20333 0.21669
 Zr1273 Zr 0.71329 0.73743 0.28288
 O1274 O 0.72373 0.71486 0.30533
 O1275 O 0.68227 0.74503 0.29328
 O1276 O 0.71569 0.75209 0.31237
 O1277 O 0.69861 0.69911 0.24637
 O1278 O 0.73595 0.78239 0.30657
 O1279 O 0.69619 0.70777 0.28059
 O1280 O 0.67097 0.77157 0.27124
 O1281 O 0.71136 0.77076 0.27726
 O1282 O 0.69666 0.74112 0.25500
 O1283 O 0.74541 0.74855 0.28218
 O1284 O 0.73117 0.71965 0.26091
 Zr1285 Zr 0.74528 0.76907 0.22493
 Zr1286 Zr 0.74331 0.78153 0.27493
 Zr1287 Zr 0.71516 0.72513 0.23282
 Zr1288 Zr 0.69576 0.77411 0.24894
 O1289 O 0.72920 0.69548 0.22336
 O1290 O 0.68942 0.80562 0.26047
 O1291 O 0.71293 0.75811 0.22540
 O1292 O 0.72720 0.78649 0.24690
 O1293 O 0.76205 0.76553 0.25281
 O1294 O 0.74703 0.73583 0.23078
 C1295 C 0.66870 0.75934 0.28713
 C1296 C 0.69254 0.69532 0.26496
 C1297 C 0.72509 0.76966 0.31828
 O1298 O 0.73028 0.81229 0.28222
 O1299 O 0.76274 0.80589 0.26185
 O1300 O 0.76385 0.79774 0.22749
 C1301 C 0.76875 0.80957 0.24321
 O1302 O 0.76546 0.70868 0.28258
 Zr1303 Zr 0.76257 0.73240 0.25901
 O1304 O 0.77687 0.76202 0.21523
 O1305 O 0.77253 0.78316 0.29185
 O1306 O 0.78925 0.74144 0.27769
 O1307 O 0.77123 0.70221 0.24573
 O1308 O 0.78905 0.73805 0.23941
 C1309 C 0.79147 0.74993 0.22335
 O1310 O 0.73553 0.79262 0.20312
 O1311 O 0.68484 0.72232 0.21791
 O1312 O 0.74099 0.75570 0.19512
 O1313 O 0.71930 0.72636 0.20068
 O1314 O 0.66735 0.76472 0.23295
 O1315 O 0.69101 0.79462 0.22303
 C1316 C 0.73002 0.73918 0.18894
 H1317 H 0.68182 0.73517 0.25545
 H1318 H 0.72650 0.80204 0.24331
 H1319 H 0.75490 0.72777 0.21992
 H1320 H 0.75263 0.74622 0.29563
 H1321 H 0.67372 0.80837 0.25887
 H1322 H 0.74068 0.81944 0.29166
 H1323 H 0.77282 0.79753 0.29864
 H1324 H 0.80143 0.73164 0.27423
 H1325 H 0.65575 0.77500 0.23690
 H1326 H 0.68462 0.70796 0.21107
 H1327 H 0.71863 0.68834 0.21409
 H1328 H 0.78690 0.70004 0.24820
 H1329 H 0.67711 0.80245 0.22453
 H1330 H 0.74769 0.79455 0.19330
 H1331 H 0.71157 0.71280 0.31511
 H1332 H 0.78045 0.70307 0.28288
 Zr1333 Zr 0.78831 0.26211 0.78305
 O1334 O 0.77819 0.28473 0.80564
 O1335 O 0.81937 0.25431 0.79322
 O1336 O 0.78604 0.24746 0.81250
 O1337 O 0.80289 0.30039 0.74658
 O1338 O 0.76558 0.21727 0.80672
 O1339 O 0.80554 0.29169 0.78075
 O1340 O 0.83036 0.22774 0.77100
 O1341 O 0.79003 0.22878 0.77729
 O1342 O 0.80469 0.25836 0.75504
 O1343 O 0.75613 0.25115 0.78251
 O1344 O 0.77035 0.28000 0.76126
 Zr1345 Zr 0.75570 0.23068 0.72519
 Zr1346 Zr 0.75800 0.21817 0.77513
 Zr1347 Zr 0.78610 0.27447 0.73305
 Zr1348 Zr 0.80538 0.22537 0.74885
 O1349 O 0.77215 0.30420 0.72380
 O1350 O 0.81166 0.19381 0.76021
 O1351 O 0.78811 0.24149 0.72548
 O1352 O 0.77386 0.21316 0.74698
 O1353 O 0.73917 0.23428 0.75319
 O1354 O 0.75416 0.26392 0.73118
 C1355 C 0.83281 0.23994 0.78693
 C1356 C 0.80913 0.30413 0.76515
 C1357 C 0.77657 0.22995 0.81842
 O1358 O 0.77095 0.18735 0.78223
 O1359 O 0.73835 0.19392 0.76208
 O1360 O 0.73702 0.20211 0.72775
 C1361 C 0.73218 0.19029 0.74346
 O1362 O 0.73630 0.29113 0.78319
 Zr1363 Zr 0.73886 0.26741 0.75952
 O1364 O 0.72407 0.23788 0.71573
 O1365 O 0.72891 0.21666 0.79221
 O1366 O 0.71229 0.25849 0.77834
 O1367 O 0.73024 0.29765 0.74641
 O1368 O 0.71219 0.26190 0.74006
 C1369 C 0.70959 0.25003 0.72399
 O1370 O 0.76518 0.20712 0.70322
 O1371 O 0.81630 0.27711 0.71793
 O1372 O 0.75974 0.24409 0.69541
 O1373 O 0.78163 0.27331 0.70093
 O1374 O 0.83371 0.23464 0.73273
 O1375 O 0.80982 0.20488 0.72283
 C1376 C 0.77071 0.26058 0.68922
 H1377 H 0.81957 0.26423 0.75542
 H1378 H 0.77445 0.19761 0.74332
 H1379 H 0.74623 0.27204 0.72041
 H1380 H 0.74903 0.25351 0.79602
 H1381 H 0.82733 0.19099 0.75848
 H1382 H 0.76058 0.18024 0.79170
 H1383 H 0.72860 0.20228 0.79895
 H1384 H 0.70014 0.26835 0.77500
 H1385 H 0.84529 0.22429 0.73656
 H1386 H 0.81654 0.29147 0.71115
 H1387 H 0.78268 0.31129 0.71449
 H1388 H 0.71460 0.29989 0.74899
 H1389 H 0.82368 0.19698 0.72419
 H1390 H 0.75294 0.20525 0.69348
 H1391 H 0.79044 0.28671 0.81535
 H1392 H 0.72133 0.29681 0.78362
 C1393 C 0.44879 1.02537 0.34192
 N1394 N 0.45692 1.04334 0.35113
 N1395 N 0.46691 1.04192 0.36931
 C1396 C 0.46921 1.02249 0.37879
 N1397 N 0.46112 1.00452 0.36955
 N1398 N 0.45114 1.00593 0.35137
 C1399 C 0.43736 1.02692 0.32266
 C1400 C 0.42768 1.02783 0.30650
 C1401 C 0.47809 1.02130 0.39926
 C1402 C 0.48425 1.02078 0.41692
 C1403 C -0.05129 0.52524 0.84206
 N1404 N -0.04311 0.54320 0.85124
 N1405 N -0.03326 0.54181 0.86950
 C1406 C -0.03116 0.52241 0.87908
 N1407 N -0.03930 0.50445 0.86987
 N1408 N -0.04914 0.50584 0.85162
 C1409 C -0.06258 0.52678 0.82273
 C1410 C -0.07215 0.52768 0.80652
 C1411 C -0.02244 0.52127 0.89961
 C1412 C -0.01640 0.52079 0.91731
 C1413 C 0.05121 -0.02497 0.84255
 N1414 N 0.04280 -0.04290 0.85153
 N1415 N 0.03301 -0.04155 0.86981
 C1416 C 0.03119 -0.02222 0.87963
 N1417 N 0.03956 -0.00429 0.87062
 N1418 N 0.04935 -0.00563 0.85234
 C1419 C 0.06242 -0.02647 0.82318
 C1420 C 0.07192 -0.02739 0.80694
 C1421 C 0.02247 -0.02115 0.90016
 C1422 C 0.01638 -0.02071 0.91784
 C1423 C 0.55163 0.47430 0.34287
 N1424 N 0.54345 0.45636 0.35202
 N1425 N 0.53344 0.45781 0.37018
 C1426 C 0.53116 0.47726 0.37970
 N1427 N 0.53930 0.49520 0.37052
 N1428 N 0.54931 0.49375 0.35236
 C1429 C 0.56310 0.47270 0.32364
 C1430 C 0.57281 0.47174 0.30751
 C1431 C 0.52226 0.47848 0.40015
 C1432 C 0.51607 0.47904 0.41780
 C1433 C 0.55170 0.52498 0.15794
 N1434 N 0.54964 0.50559 0.14830
 N1435 N 0.53963 0.50417 0.13012
 C1436 C 0.53123 0.52209 0.12108
 N1437 N 0.53324 0.54148 0.13075
 N1438 N 0.54325 0.54290 0.14893
 C1439 C 0.56316 0.52655 0.17718
 C1440 C 0.57286 0.52750 0.19332
 C1441 C 0.52231 0.52094 0.10063
 C1442 C 0.51610 0.52045 0.08298
 C1443 C 0.05128 1.02589 0.65780
 N1444 N 0.04875 1.00643 0.64839
 N1445 N 0.03889 1.00506 0.63014
 C1446 C 0.03114 1.02309 0.62078
 N1447 N 0.03363 1.04255 0.63022
 N1448 N 0.04349 1.04392 0.64847
 C1449 C 0.06258 1.02740 0.67715
 C1450 C 0.07214 1.02829 0.69337
 C1451 C 0.02237 1.02190 0.60026
 C1452 C 0.01627 1.02134 0.58258
 C1453 C -0.05125 0.47457 0.65729
 N1454 N -0.04919 0.49405 0.64788
 N1455 N -0.03943 0.49559 0.62960
 C1456 C -0.03130 0.47771 0.62024
 N1457 N -0.03331 0.45823 0.62968
 N1458 N -0.04307 0.45669 0.64796
 C1459 C -0.06245 0.47288 0.67665
 C1460 C -0.07193 0.47187 0.69289
 C1461 C -0.02265 0.47902 0.59970
 C1462 C -0.01667 0.47965 0.58199
 C1463 C 0.44888 -0.02573 0.15768
 N1464 N 0.45124 -0.00628 0.14827
 N1465 N 0.46112 -0.00488 0.13005
 C1466 C 0.46909 -0.02287 0.12073
 N1467 N 0.46678 -0.04231 0.13017
 N1468 N 0.45689 -0.04372 0.14840
 C1469 C 0.43755 -0.02728 0.17698
 C1470 C 0.42794 -0.02820 0.19316
 C1471 C 0.47787 -0.02168 0.10023
 C1472 C 0.48397 -0.02113 0.08256
 C1473 C 0.34817 0.42265 0.01472
 N1474 N 0.34782 0.44426 0.01847
 N1475 N 0.36604 0.45579 0.01784
 C1476 C 0.38522 0.44607 0.01357
 N1477 N 0.38556 0.42446 0.00983
 N1478 N 0.36735 0.41293 0.01046
 C1479 C 0.32860 0.41002 0.01584
 C1480 C 0.31251 0.39901 0.01724
 C1481 C 0.40481 0.45865 0.01221
 C1482 C 0.42108 0.46934 0.01042
 C1483 C -0.15151 0.92324 0.51423
 N1484 N -0.15196 0.94492 0.51763
 N1485 N -0.13376 0.95648 0.51703
 C1486 C -0.11450 0.94674 0.51315
 N1487 N -0.11406 0.92506 0.50976
 N1488 N -0.13225 0.91350 0.51036
 C1489 C -0.17105 0.91057 0.51533
 C1490 C -0.18709 0.89947 0.51674
 C1491 C -0.09492 0.95932 0.51183
 C1492 C -0.07863 0.96998 0.51005
 C1493 C -0.15146 0.07706 0.98665
 N1494 N -0.13245 0.08659 0.99183
 N1495 N -0.11420 0.07509 0.99239
 C1496 C -0.11432 0.05369 0.98765
 N1497 N -0.13332 0.04415 0.98247
 N1498 N -0.15158 0.05565 0.98191
 C1499 C -0.17106 0.08968 0.98558
 C1500 C -0.18717 0.10070 0.98422
 C1501 C -0.09470 0.04111 0.98893
 C1502 C -0.07841 0.03042 0.99066
 C1503 C 0.34808 0.57723 0.48568
 N1504 N 0.36719 0.58690 0.49023
 N1505 N 0.38543 0.57538 0.49091
 C1506 C 0.38520 0.55381 0.48694
 N1507 N 0.36609 0.54413 0.48238
 N1508 N 0.34784 0.55566 0.48169
 C1509 C 0.32849 0.58985 0.48451
 C1510 C 0.31238 0.60088 0.48307
 C1511 C 0.40481 0.54124 0.48835
 C1512 C 0.42110 0.53057 0.49019
 C1513 C 0.15076 0.57752 0.51296
 N1514 N 0.15073 0.55630 0.51835
 N1515 N 0.13245 0.54486 0.51781
 C1516 C 0.11357 0.55429 0.51200
 N1517 N 0.11361 0.57551 0.50662
 N1518 N 0.13189 0.58695 0.50715
 C1519 C 0.17037 0.59010 0.51402
 C1520 C 0.18649 0.60108 0.51538
 C1521 C 0.09394 0.54177 0.51076
 C1522 C 0.07763 0.53113 0.50905
 C1523 C 0.65132 0.07729 0.01423
 N1524 N 0.65144 0.05595 0.01914
 N1525 N 0.63320 0.04444 0.01852
 C1526 C 0.61423 0.05393 0.01311
 N1527 N 0.61412 0.07527 0.00821
 N1528 N 0.63235 0.08677 0.00882
 C1529 C 0.67090 0.08991 0.01534
 C1530 C 0.68700 0.10092 0.01674
 C1531 C 0.59465 0.04135 0.01176
 C1532 C 0.57838 0.03065 0.00998
 C1533 C 0.65241 0.92325 0.48587
 N1534 N 0.63353 0.91377 0.49150
 N1535 N 0.61522 0.92519 0.49197
 C1536 C 0.61515 0.94644 0.48670
 N1537 N 0.63403 0.95592 0.48107
 N1538 N 0.65235 0.94450 0.48059
 C1539 C 0.67207 0.91071 0.48490
 C1540 C 0.68823 0.89973 0.48361
 C1541 C 0.59548 0.95894 0.48792
 C1542 C 0.57914 0.96958 0.48963
 C1543 C 0.15099 0.42287 0.98704
 N1544 N 0.13213 0.41359 0.99301
 N1545 N 0.11388 0.42510 0.99347
 C1546 C 0.11384 0.44624 0.98784
 N1547 N 0.13270 0.45553 0.98185
 N1548 N 0.15096 0.44402 0.98140
 C1549 C 0.17058 0.41021 0.98604
 C1550 C 0.18669 0.39916 0.98472
 C1551 C 0.09422 0.45884 0.98898
 C1552 C 0.07792 0.46956 0.99061
 C1553 C 0.01676 0.33809 0.39219
 N1554 N 0.03422 0.35030 0.39706
 N1555 N 0.03308 0.36478 0.41225
 C1556 C 0.01453 0.36726 0.42311
 N1557 N -0.00293 0.35502 0.41826
 N1558 N -0.00179 0.34054 0.40308
 C1559 C 0.01813 0.32227 0.37622
 C1560 C 0.01962 0.30845 0.36327
 C1561 C 0.01277 0.38400 0.43817
 C1562 C 0.01094 0.39895 0.44987
 C1563 C 0.51826 -0.16262 -0.10718
 N1564 N 0.53545 -0.14977 -0.10299
 N1565 N 0.53440 -0.13528 -0.08781
 C1566 C 0.51622 -0.13342 -0.07628
 N1567 N 0.49904 -0.14630 -0.08046
 N1568 N 0.50009 -0.16079 -0.09564
 C1569 C 0.51952 -0.17841 -0.12318
 C1570 C 0.52077 -0.19224 -0.13615
 C1571 C 0.51444 -0.11668 -0.06123
 C1572 C 0.51254 -0.10174 -0.04953
 C1573 C -0.01778 -0.16286 1.10681
 N1574 N 0.00070 -0.16057 1.09581
 N1575 N 0.00175 -0.14622 1.08055
 C1576 C -0.01571 -0.13396 1.07574
 N1577 N -0.03420 -0.13629 1.08672
 N1578 N -0.03526 -0.15063 1.10198
 C1579 C -0.01904 -0.17845 1.12293
 C1580 C -0.02041 -0.19208 1.13603
 C1581 C -0.01398 -0.11725 1.06071
 C1582 C -0.01213 -0.10228 1.04909
 C1583 C 0.48204 0.33795 0.60744
 N1584 N 0.50045 0.34013 0.59632
 N1585 N 0.50148 0.35447 0.58106
 C1586 C 0.48406 0.36684 0.57637
 N1587 N 0.46564 0.36463 0.58747
 N1588 N 0.46460 0.35028 0.60273
 C1589 C 0.48078 0.32231 0.62353
 C1590 C 0.47943 0.30864 0.63659
 C1591 C 0.48576 0.38350 0.56128
 C1592 C 0.48758 0.39841 0.54959
 C1593 C 0.51796 1.16227 0.60688
 N1594 N 0.49952 1.16002 0.59579
 N1595 N 0.49851 1.14570 0.58045
 C1596 C 0.51598 1.13344 0.57566
 N1597 N 0.53443 1.13573 0.58673
 N1598 N 0.53544 1.15004 0.60206
 C1599 C 0.51917 1.17784 0.62307
 C1600 C 0.52050 1.19145 0.63623
 C1601 C 0.51430 1.11678 0.56052
 C1602 C 0.51248 1.10185 0.54879
 C1603 C 0.01764 0.66247 1.10727
 N1604 N 0.03510 0.65033 1.10215
 N1605 N 0.03388 0.63604 1.08681
 C1606 C 0.01525 0.63369 1.07603
 N1607 N -0.00220 0.64586 1.08113
 N1608 N -0.00098 0.66015 1.09647
 C1609 C 0.01908 0.67805 1.12344
 C1610 C 0.02055 0.69170 1.13655
 C1611 C 0.01338 0.61707 1.06087
 C1612 C 0.01146 0.60217 1.04913
 C1613 C 0.48131 0.66278 -0.10569
 N1614 N 0.49981 0.66040 -0.09473
 N1615 N 0.50089 0.64600 -0.07951
 C1616 C 0.48343 0.63378 -0.07471
 N1617 N 0.46491 0.63621 -0.08565
 N1618 N 0.46383 0.65060 -0.10087
 C1619 C 0.48005 0.67836 -0.12183
 C1620 C 0.47870 0.69194 -0.13499
 C1621 C 0.48519 0.61701 -0.05974
 C1622 C 0.48707 0.60200 -0.04817
 C1623 C -0.01719 1.16204 0.39249
 N1624 N 0.00148 1.15936 0.40312
 N1625 N 0.00261 1.14499 0.41836
 C1626 C -0.01497 1.13310 0.42351
 N1627 N -0.03365 1.13581 0.41290
 N1628 N -0.03478 1.15018 0.39766
 C1629 C -0.01857 1.17773 0.37645
 C1630 C -0.02012 1.19143 0.36343
 C1631 C -0.01326 1.11645 0.43861
 C1632 C -0.01149 1.10155 0.45034
 C1633 C 0.77361 0.69802 0.90738
 N1634 N 0.79140 0.70696 0.89863
 N1635 N 0.79000 0.71688 0.88042
 C1636 C 0.77076 0.71828 0.87045
 N1637 N 0.75296 0.70938 0.87922
 N1638 N 0.75436 0.69947 0.89743
 C1639 C 0.77518 0.68671 0.92668
 C1640 C 0.77615 0.67714 0.94289
 C1641 C 0.76969 0.72713 0.84997
 C1642 C 0.76930 0.73330 0.83232
 C1643 C 0.27540 0.19890 0.40771
 N1644 N 0.29327 0.20714 0.39851
 N1645 N 0.29177 0.21703 0.38030
 C1646 C 0.27234 0.21911 0.37077
 N1647 N 0.25446 0.21091 0.38000
 N1648 N 0.25596 0.20103 0.39821
 C1649 C 0.27704 0.18759 0.42701
 C1650 C 0.27802 0.17801 0.44321
 C1651 C 0.27107 0.22791 0.35029
 C1652 C 0.27049 0.23402 0.33262
 C1653 C 0.72403 0.30038 0.40792
 N1654 N 0.70625 0.29217 0.39850
 N1655 N 0.70796 0.28210 0.38037
 C1656 C 0.72753 0.27981 0.37114
 N1657 N 0.74531 0.28797 0.38060
 N1658 N 0.74360 0.29803 0.39873
 C1659 C 0.72216 0.31192 0.42712
 C1660 C 0.72105 0.32170 0.44322
 C1661 C 0.72903 0.27090 0.35069
 C1662 C 0.72979 0.26475 0.33302
 C1663 C 0.22466 0.80079 0.90779
 N1664 N 0.20667 0.79285 0.89851
 N1665 N 0.20805 0.78299 0.88024
 C1666 C 0.22747 0.78064 0.87075
 N1667 N 0.24545 0.78854 0.88006
 N1668 N 0.24408 0.79839 0.89833
 C1669 C 0.22315 0.81209 0.92714
 C1670 C 0.22226 0.82166 0.94338
 C1671 C 0.22863 0.77187 0.85022
 C1672 C 0.22916 0.76578 0.83253
 C1673 C 0.27559 0.80133 0.09159
 N1674 N 0.25616 0.79915 0.10106
 N1675 N 0.25472 0.78938 0.11933
 C1676 C 0.27265 0.78135 0.12865
 N1677 N 0.29208 0.78349 0.11915
 N1678 N 0.29352 0.79326 0.10088
 C1679 C 0.27717 0.81252 0.07222
 C1680 C 0.27809 0.82199 0.05597
 C1681 C 0.27143 0.77266 0.14917
 C1682 C 0.27086 0.76661 0.16685
 C1683 C 0.77481 0.30139 0.59270
 N1684 N 0.75543 0.29904 0.60222
 N1685 N 0.75410 0.28907 0.62040
 C1686 C 0.77209 0.28101 0.62957
 N1687 N 0.79147 0.28330 0.62002
 N1688 N 0.79281 0.29327 0.60183
 C1689 C 0.77628 0.31280 0.57344
 C1690 C 0.77712 0.32246 0.55729
 C1691 C 0.77099 0.27214 0.65003
 C1692 C 0.77052 0.26597 0.66768
 C1693 C 0.22476 0.19946 0.59220
 N1694 N 0.24415 0.20164 0.60178
 N1695 N 0.24552 0.21153 0.62003
 C1696 C 0.22756 0.21967 0.62922
 N1697 N 0.20818 0.21754 0.61961
 N1698 N 0.20681 0.20765 0.60136
 C1699 C 0.22324 0.18812 0.57288
 C1700 C 0.22233 0.17851 0.55667
 C1701 C 0.22870 0.22845 0.64974
 C1702 C 0.22920 0.23455 0.66743
 C1703 C 0.72420 0.69885 0.09219
 N1704 N 0.74373 0.70084 0.10153
 N1705 N 0.74544 0.71071 0.11976
 C1706 C 0.72769 0.71904 0.12916
 N1707 N 0.70816 0.71710 0.11978
 N1708 N 0.70645 0.70722 0.10155
 C1709 C 0.72232 0.68753 0.07288
 C1710 C 0.72116 0.67794 0.05668
 C1711 C 0.72917 0.72780 0.14967
 C1712 C 0.72993 0.73388 0.16736
 C1713 C 0.17289 0.59895 0.23555
 N1714 N 0.16320 0.61824 0.23950
 N1715 N 0.17476 0.63645 0.24001
 C1716 C 0.19638 0.63599 0.23647
 N1717 N 0.20607 0.61670 0.23252
 N1718 N 0.19451 0.59849 0.23200
 C1719 C 0.16022 0.57939 0.23456
 C1720 C 0.14913 0.56333 0.23327
 C1721 C 0.20898 0.65558 0.23773
 C1722 C 0.21967 0.67187 0.23948
 C1723 C 0.67215 0.09851 0.73574
 N1724 N 0.66253 0.11777 0.73998
 N1725 N 0.67412 0.13594 0.74065
 C1726 C 0.69572 0.13550 0.73698
 N1727 N 0.70535 0.11625 0.73274
 N1728 N 0.69375 0.09806 0.73206
 C1729 C 0.65946 0.07898 0.73457
 C1730 C 0.64839 0.06292 0.73313
 C1731 C 0.70836 0.15505 0.73837
 C1732 C 0.71910 0.17129 0.74019
 C1733 C 0.82803 0.09682 0.26383
 N1734 N 0.80661 0.09660 0.26837
 N1735 N 0.79507 0.11485 0.26791
 C1736 C 0.80459 0.13396 0.26303
 N1737 N 0.82601 0.13417 0.25850
 N1738 N 0.83755 0.11593 0.25895
 C1739 C 0.84071 0.07724 0.26481
 C1740 C 0.85180 0.06115 0.26614
 C1741 C 0.79199 0.15358 0.26185
 C1742 C 0.78131 0.16990 0.26017
 C1743 C 0.32766 0.59820 0.76357
 N1744 N 0.30622 0.59790 0.76801
 N1745 N 0.29460 0.61611 0.76747
 C1746 C 0.30407 0.63524 0.76259
 N1747 N 0.32551 0.63553 0.75815
 N1748 N 0.33712 0.61733 0.75870
 C1749 C 0.34040 0.57866 0.76466
 C1750 C 0.35152 0.56261 0.76606
 C1751 C 0.29140 0.65481 0.76134
 C1752 C 0.28065 0.67108 0.75962
 C1753 C 0.32735 0.40205 0.73596
 N1754 N 0.33700 0.38285 0.74031
 N1755 N 0.32544 0.36465 0.74097
 C1756 C 0.30386 0.36502 0.73720
 N1757 N 0.29421 0.38422 0.73285
 N1758 N 0.30577 0.40243 0.73218
 C1759 C 0.34001 0.42161 0.73481
 C1760 C 0.35104 0.43770 0.73338
 C1761 C 0.29125 0.34545 0.73857
 C1762 C 0.28055 0.32918 0.74035
 C1763 C 0.82829 0.90165 0.23565
 N1764 N 0.83786 0.88259 0.24067
 N1765 N 0.82636 0.86436 0.24130
 C1766 C 0.80493 0.86454 0.23681
 N1767 N 0.79535 0.88360 0.23177
 N1768 N 0.80686 0.90184 0.23114
 C1769 C 0.84092 0.92123 0.23449
 C1770 C 0.85196 0.93731 0.23304
 C1771 C 0.79236 0.84494 0.23815
 C1772 C 0.78171 0.82864 0.23994
 C1773 C 0.67188 0.90136 0.76322
 N1774 N 0.69304 0.90136 0.76879
 N1775 N 0.70454 0.88308 0.76831
 C1776 C 0.69524 0.86418 0.76237
 N1777 N 0.67408 0.86419 0.75680
 N1778 N 0.66258 0.88246 0.75728
 C1779 C 0.65924 0.92097 0.76422
 C1780 C 0.64820 0.93709 0.76553
 C1781 C 0.70785 0.84457 0.76117
 C1782 C 0.71858 0.82828 0.75949
 C1783 C 0.17261 0.40207 0.26402
 N1784 N 0.19419 0.40238 0.26778
 N1785 N 0.20570 0.38411 0.26726
 C1786 C 0.19598 0.36490 0.26309
 N1787 N 0.17440 0.36459 0.25934
 N1788 N 0.16290 0.38286 0.25986
 C1789 C 0.16000 0.42169 0.26501
 C1790 C 0.14895 0.43781 0.26629
 C1791 C 0.20853 0.34525 0.26181
 C1792 C 0.21919 0.32892 0.26005
 C1793 C 0.08759 0.26831 0.85692
 N1794 N 0.10002 0.28572 0.85245
 N1795 N 0.11437 0.28477 0.83718
 C1796 C 0.11649 0.26647 0.82582
 N1797 N 0.10403 0.24906 0.83026
 N1798 N 0.08968 0.25001 0.84554
 C1799 C 0.07199 0.26946 0.87305
 C1800 C 0.05836 0.27071 0.88617
 C1801 C 0.13318 0.26481 0.81075
 C1802 C 0.14812 0.26299 0.79909
 C1803 C 0.58925 0.76744 0.35728
 N1804 N 0.60172 0.78483 0.35284
 N1805 N 0.61615 0.78382 0.33764
 C1806 C 0.61832 0.76549 0.32633
 N1807 N 0.60581 0.74811 0.33075
 N1808 N 0.59138 0.74911 0.34595
 C1809 C 0.57347 0.76869 0.37326
 C1810 C 0.55968 0.77006 0.38620
 C1811 C 0.63500 0.76382 0.31125
 C1812 C 0.64990 0.76203 0.29954
 C1813 C 0.58882 0.23173 0.14306
 N1814 N 0.59109 0.25014 0.15423
 N1815 N 0.60551 0.25114 0.16945
 C1816 C 0.61786 0.23367 0.17406
 N1817 N 0.61556 0.21525 0.16291
 N1818 N 0.60114 0.21425 0.14769
 C1819 C 0.57307 0.23050 0.12705
 C1820 C 0.55929 0.22916 0.11408
 C1821 C 0.63454 0.23531 0.18915
 C1822 C 0.64944 0.23707 0.20087
 C1823 C 0.08777 0.73222 0.64278
 N1824 N 0.08974 0.75049 0.65421
 N1825 N 0.10417 0.75150 0.66942
 C1826 C 0.11683 0.73418 0.67375
 N1827 N 0.11482 0.71589 0.66234
 N1828 N 0.10040 0.71488 0.64713
 C1829 C 0.07200 0.73098 0.62679
 C1830 C 0.05818 0.72968 0.61385
 C1831 C 0.13351 0.73587 0.68883
 C1832 C 0.14843 0.73769 0.70054
 C1833 C 0.91311 0.76873 0.64481
 N1834 N 0.91064 0.75012 0.65557
 N1835 N 0.89620 0.74896 0.67075
 C1836 C 0.88403 0.76646 0.67572
 N1837 N 0.88655 0.78509 0.66499
 N1838 N 0.90098 0.78625 0.64981
 C1839 C 0.92868 0.77005 0.62867
 C1840 C 0.94223 0.77144 0.61549
 C1841 C 0.86718 0.76461 0.69059
 C1842 C 0.85208 0.76266 0.70204
 C1843 C 0.41249 0.26797 0.14374
 N1844 N 0.41015 0.24950 0.15475
 N1845 N 0.39565 0.24842 0.16988
 C1846 C 0.38328 0.26587 0.17456
 N1847 N 0.38566 0.28436 0.16357
 N1848 N 0.40015 0.28543 0.14844
 C1849 C 0.42823 0.26924 0.12775
 C1850 C 0.44195 0.27059 0.11474
 C1851 C 0.36649 0.26414 0.18950
 C1852 C 0.35150 0.26231 0.20109
 C1853 C 0.41268 0.73248 0.35611
 N1854 N 0.40066 0.71495 0.35101
 N1855 N 0.38619 0.71616 0.33584
 C1856 C 0.38354 0.73485 0.32523
 N1857 N 0.39560 0.75237 0.33031
 N1858 N 0.41006 0.75116 0.34548
 C1859 C 0.42840 0.73107 0.37214
 C1860 C 0.44210 0.72958 0.38517
 C1861 C 0.36678 0.73666 0.31023
 C1862 C 0.35181 0.73853 0.29860
 C1863 C 0.91239 0.23141 0.85690
 N1864 N 0.89985 0.21406 0.85239
 N1865 N 0.88545 0.21512 0.83716
 C1866 C 0.88337 0.23345 0.82590
 N1867 N 0.89594 0.25078 0.83038
 N1868 N 0.91035 0.24973 0.84561
 C1869 C 0.92803 0.23017 0.87301
 C1870 C 0.94168 0.22888 0.88611
 C1871 C 0.86665 0.23522 0.81086
 C1872 C 0.85169 0.23712 0.79922
 C1873 C 0.56652 1.02751 0.66208
 N1874 N 0.55735 1.00926 0.65441
 N1875 N 0.54605 1.00987 0.63689
 C1876 C 0.54349 1.02876 0.62651
 N1877 N 0.55259 1.04703 0.63422
 N1878 N 0.56388 1.04642 0.65175
 C1879 C 0.58006 1.02662 0.68012
 C1880 C 0.59200 1.02620 0.69488
 C1881 C 0.53349 1.02888 0.60645
 C1882 C 0.52645 1.02835 0.58907
 C1883 C 0.06535 0.52838 1.16239
 N1884 N 0.05582 0.51019 1.15499
 N1885 N 0.04440 0.51079 1.13754
 C1886 C 0.04207 0.52959 1.12697
 N1887 N 0.05154 0.54779 1.13442
 N1888 N 0.06295 0.54721 1.15188
 C1889 C 0.07907 0.52746 1.18030
 C1890 C 0.09117 0.52697 1.19493
 C1891 C 0.03203 0.52962 1.10695
 C1892 C 0.02499 0.52899 1.08958
 C1893 C -0.06660 -0.02818 1.16259
 N1894 N -0.05726 -0.00995 1.15512
 N1895 N -0.04584 -0.01055 1.13768
 C1896 C -0.04332 -0.02941 1.12718
 N1897 N -0.05260 -0.04765 1.13469
 N1898 N -0.06401 -0.04705 1.15214
 C1899 C -0.08027 -0.02729 1.18054
 C1900 C -0.09229 -0.02688 1.19522
 C1901 C -0.03321 -0.02950 1.10719
 C1902 C -0.02608 -0.02891 1.08985
 C1903 C 0.43302 0.47313 0.66261
 N1904 N 0.44218 0.49137 0.65498
 N1905 N 0.45357 0.49070 0.63752
 C1906 C 0.45624 0.47177 0.62717
 N1907 N 0.44713 0.45352 0.63486
 N1908 N 0.43575 0.45418 0.65232
 C1909 C 0.41939 0.47405 0.68059
 C1910 C 0.40740 0.47449 0.69531
 C1911 C 0.46634 0.47158 0.60717
 C1912 C 0.47347 0.47207 0.58983
 C1913 C 0.43317 0.52789 -0.16204
 N1914 N 0.43563 0.54675 -0.15154
 N1915 N 0.44685 0.54731 -0.13398
 C1916 C 0.45605 0.52904 -0.12639
 N1917 N 0.45366 0.51020 -0.13693
 N1918 N 0.44244 0.50963 -0.15449
 C1919 C 0.41971 0.52705 -0.18015
 C1920 C 0.40787 0.52666 -0.19498
 C1921 C 0.46603 0.52911 -0.10632
 C1922 C 0.47309 0.52852 -0.08895
 C1923 C -0.06589 1.02668 0.33739
 N1924 N -0.06310 1.04565 0.34761
 N1925 N -0.05180 1.04631 0.36512
 C1926 C -0.04283 1.02803 0.37293
 N1927 N -0.04554 1.00907 0.36266
 N1928 N -0.05686 1.00840 0.34515
 C1929 C -0.07948 1.02575 0.31938
 C1930 C -0.09146 1.02530 0.30465
 C1931 C -0.03283 1.02823 0.39298
 C1932 C -0.02579 1.02778 0.41037
 C1933 C 0.06514 0.47306 0.33699
 N1934 N 0.06260 0.45420 0.34741
 N1935 N 0.05116 0.45361 0.36483
 C1936 C 0.04181 0.47186 0.37235
 N1937 N 0.04428 0.49070 0.36189
 N1938 N 0.05573 0.49129 0.34447
 C1939 C 0.07890 0.47395 0.31912
 C1940 C 0.09102 0.47441 0.30452
 C1941 C 0.03173 0.47181 0.39236
 C1942 C 0.02468 0.47240 0.40972
 C1943 C 0.56566 -0.02716 -0.16274
 N1944 N 0.56296 -0.04611 -0.15250
 N1945 N 0.55175 -0.04672 -0.13494
 C1946 C 0.54280 -0.02842 -0.12710
 N1947 N 0.54543 -0.00949 -0.13739
 N1948 N 0.55664 -0.00888 -0.15495
 C1949 C 0.57915 -0.02629 -0.18081
 C1950 C 0.59104 -0.02588 -0.19558
 C1951 C 0.53288 -0.02857 -0.10702
 C1952 C 0.52590 -0.02807 -0.08963
 C1953 C 0.64666 0.61592 -0.00702
 N1954 N 0.64733 0.59452 -0.01174
 N1955 N 0.62918 0.58373 -0.01591
 C1956 C 0.60977 0.59399 -0.01563
 N1957 N 0.60913 0.61541 -0.01099
 N1958 N 0.62727 0.62621 -0.00681
 C1959 C 0.66607 0.62717 -0.00102
 C1960 C 0.68235 0.63633 0.00449
 C1961 C 0.59002 0.58181 -0.01746
 C1962 C 0.57346 0.57145 -0.01726
 C1963 C 0.14760 1.11546 0.49231
 N1964 N 0.14828 1.09395 0.48810
 N1965 N 0.13017 1.08310 0.48391
 C1966 C 0.11079 1.09341 0.48368
 N1967 N 0.11013 1.11495 0.48781
 N1968 N 0.12823 1.12580 0.49200
 C1969 C 0.16693 1.12681 0.49836
 C1970 C 0.18313 1.13607 0.50392
 C1971 C 0.09104 1.08123 0.48186
 C1972 C 0.07445 1.07091 0.48209
 C1973 C 0.14730 -0.11644 1.00712
 N1974 N 0.12793 -0.12671 1.00704
 N1975 N 0.10981 -0.11590 1.01138
 C1976 C 0.11048 -0.09449 1.01605
 N1977 N 0.12987 -0.08424 1.01620
 N1978 N 0.14799 -0.09505 1.01187
 C1979 C 0.16667 -0.12770 1.00094
 C1980 C 0.18290 -0.13686 0.99529
 C1981 C 0.09073 -0.08228 1.01803
 C1982 C 0.07416 -0.07189 1.01791
 C1983 C 0.64695 0.38411 0.50726
 N1984 N 0.62757 0.37384 0.50724
 N1985 N 0.60946 0.38465 0.51161
 C1986 C 0.61013 0.40606 0.51628
 N1987 N 0.62953 0.41631 0.51639
 N1988 N 0.64764 0.40550 0.51202
 C1989 C 0.66630 0.37285 0.50107
 C1990 C 0.68255 0.36368 0.49542
 C1991 C 0.59039 0.41828 0.51829
 C1992 C 0.57381 0.42866 0.51817
 C1993 C -0.14835 0.38508 0.49254
 N1994 N -0.14903 0.40650 0.48799
 N1995 N -0.13091 0.41727 0.48367
 C1996 C -0.11153 0.40695 0.48364
 N1997 N -0.11088 0.38551 0.48810
 N1998 N -0.12899 0.37474 0.49242
 C1999 C -0.16769 0.37386 0.49872
 C2000 C -0.18390 0.36470 0.50439
 C2001 C -0.09178 0.41910 0.48168
 C2002 C -0.07519 0.42942 0.48181
 C2003 C 0.35301 -0.11628 -0.00755
 N2004 N 0.35230 -0.09487 -0.01216
 N2005 N 0.37042 -0.08405 -0.01636
 C2006 C 0.38983 -0.09431 -0.01620
 N2007 N 0.39053 -0.11573 -0.01167
 N2008 N 0.37241 -0.12656 -0.00747
 C2009 C 0.33366 -0.12755 -0.00148
 C2010 C 0.31743 -0.13673 0.00409
 C2011 C 0.40956 -0.08210 -0.01804
 C2012 C 0.42612 -0.07172 -0.01783
 C2013 C 0.35317 1.11608 0.50663
 N2014 N 0.37255 1.12634 0.50660
 N2015 N 0.39067 1.11551 0.51087
 C2016 C 0.39000 1.09409 0.51543
 N2017 N 0.37060 1.08385 0.51554
 N2018 N 0.35248 1.09468 0.51127
 C2019 C 0.33380 1.12736 0.50051
 C2020 C 0.31756 1.13654 0.49492
 C2021 C 0.40974 1.08187 0.51734
 C2022 C 0.42631 1.07148 0.51718
 C2023 C -0.14834 0.61583 1.00641
 N2024 N -0.12902 0.62621 1.00623
 N2025 N -0.11082 0.61553 1.01054
 C2026 C -0.11134 0.59415 1.01529
 N2027 N -0.13068 0.58380 1.01555
 N2028 N -0.14888 0.59447 1.01124
 C2029 C -0.16780 0.62694 1.00028
 C2030 C -0.18411 0.63599 0.99467
 C2031 C -0.09152 0.58207 1.01726
 C2032 C -0.07489 0.57178 1.01717
 C2033 C 0.00444 0.64334 0.56090
 N2034 N -0.00413 0.63861 0.54220
 N2035 N -0.00626 0.61810 0.53625
 C2036 C 0.00010 0.60179 0.54884
 N2037 N 0.00860 0.60652 0.56757
 N2038 N 0.01073 0.62703 0.57352
 C2039 C 0.00805 0.66525 0.56683
 C2040 C 0.01185 0.68342 0.57224
 C2041 C -0.00071 0.57997 0.54176
 C2042 C -0.00097 0.56189 0.53500
 C2043 C 0.50551 0.14248 0.06150
 N2044 N 0.49613 0.13774 0.04316
 N2045 N 0.49383 0.11723 0.03727
 C2046 C 0.50083 0.10093 0.04957
 N2047 N 0.51015 0.10568 0.06793
 N2048 N 0.51244 0.12619 0.07383
 C2049 C 0.50925 0.16440 0.06733
 C2050 C 0.51311 0.18260 0.07262
 C2051 C 0.49992 0.07913 0.04246
 C2052 C 0.49964 0.06107 0.03568
 C2053 C -0.00526 0.14260 0.93982
 N2054 N -0.01100 0.12626 0.92697
 N2055 N -0.00882 0.10576 0.93288
 C2056 C -0.00082 0.10108 0.95181
 N2057 N 0.00499 0.11741 0.96464
 N2058 N 0.00281 0.13792 0.95872
 C2059 C -0.00890 0.16448 0.93387
 C2060 C -0.01269 0.18264 0.92844
 C2061 C 0.00005 0.07925 0.95880
 C2062 C 0.00031 0.06115 0.96545
 C2063 C 0.49432 0.64250 0.43866
 N2064 N 0.50367 0.63782 0.45701
 N2065 N 0.50580 0.61733 0.46301
 C2066 C 0.49865 0.60101 0.45080
 N2067 N 0.48936 0.60569 0.43241
 N2068 N 0.48724 0.62617 0.42642
 C2069 C 0.49086 0.66440 0.43267
 C2070 C 0.48726 0.68261 0.42725
 C2071 C 0.49950 0.57924 0.45796
 C2072 C 0.49978 0.56120 0.46476
 C2073 C 0.50633 0.85714 0.43861
 N2074 N 0.49688 0.86203 0.45688
 N2075 N 0.49466 0.88258 0.46268
 C2076 C 0.50179 0.89877 0.45036
 N2077 N 0.51117 0.89389 0.43205
 N2078 N 0.51339 0.87334 0.42625
 C2079 C 0.50994 0.83518 0.43285
 C2080 C 0.51370 0.81694 0.42759
 C2081 C 0.50087 0.92062 0.45735
 C2082 C 0.50054 0.93872 0.46404
 C2083 C 0.00516 0.35725 0.93942
 N2084 N -0.00354 0.36209 0.95803
 N2085 N -0.00577 0.38264 0.96384
 C2086 C 0.00062 0.39887 0.95120
 N2087 N 0.00925 0.39403 0.93255
 N2088 N 0.01147 0.37348 0.92674
 C2089 C 0.00882 0.33531 0.93361
 C2090 C 0.01264 0.31711 0.92829
 C2091 C -0.00029 0.42073 0.95814
 C2092 C -0.00061 0.43886 0.96478
 C2093 C 0.49469 0.35718 0.06133
 N2094 N 0.50305 0.36185 0.04255
 N2095 N 0.50515 0.38234 0.03660
 C2096 C 0.49897 0.39869 0.04927
 N2097 N 0.49068 0.39402 0.06807
 N2098 N 0.48859 0.37352 0.07403
 C2099 C 0.49116 0.33529 0.06729
 C2100 C 0.48746 0.31712 0.07271
 C2101 C 0.49975 0.42049 0.04221
 C2102 C 0.49995 0.43857 0.03552
 C2103 C -0.00664 0.85789 0.56204
 N2104 N 0.00340 0.86249 0.54401
 N2105 N 0.00574 0.88295 0.53803
 C2106 C -0.00185 0.89933 0.54993
 N2107 N -0.01183 0.89473 0.56799
 N2108 N -0.01416 0.87428 0.57397
 C2109 C -0.01025 0.83602 0.56801
 C2110 C -0.01394 0.81785 0.57344
 C2111 C -0.00077 0.92106 0.54272
 C2112 C -0.00032 0.93907 0.53587
 C2113 C 0.27711 0.31687 0.08786
 N2114 N 0.25891 0.30756 0.09540
 N2115 N 0.25955 0.29615 0.11284
 C2116 C 0.27842 0.29361 0.12327
 N2117 N 0.29663 0.30286 0.11568
 N2118 N 0.29600 0.31426 0.09824
 C2119 C 0.27619 0.33053 0.06991
 C2120 C 0.27576 0.34255 0.05522
 C2121 C 0.27855 0.28350 0.14326
 C2122 C 0.27802 0.27639 0.16060
 C2123 C 0.77866 0.81703 0.58791
 N2124 N 0.76053 0.80730 0.59512
 N2125 N 0.76109 0.79588 0.61255
 C2126 C 0.77981 0.79375 0.62330
 N2127 N 0.79795 0.80342 0.61605
 N2128 N 0.79739 0.81483 0.59861
 C2129 C 0.77777 0.83069 0.56997
 C2130 C 0.77731 0.84270 0.55528
 C2131 C 0.77978 0.78363 0.64328
 C2132 C 0.77908 0.77648 0.66060
 C2133 C 0.22228 0.68371 0.58724
 N2134 N 0.24056 0.69285 0.59484
 N2135 N 0.24004 0.70415 0.61238
 C2136 C 0.22122 0.70675 0.62285
 N2137 N 0.20292 0.69767 0.61521
 N2138 N 0.20343 0.68638 0.59767
 C2139 C 0.22307 0.67016 0.56918
 C2140 C 0.22344 0.65822 0.55441
 C2141 C 0.22120 0.71674 0.64291
 C2142 C 0.22180 0.72378 0.66030
 C2143 C 0.72312 0.18269 0.08775
 N2144 N 0.74149 0.19159 0.09541
 N2145 N 0.74104 0.20291 0.11294
 C2146 C 0.72221 0.20576 0.12333
 N2147 N 0.70383 0.19692 0.11563
 N2148 N 0.70427 0.18561 0.09809
 C2149 C 0.72382 0.16911 0.06970
 C2150 C 0.72409 0.15715 0.05493
 C2151 C 0.72223 0.21578 0.14339
 C2152 C 0.72285 0.22282 0.16077
 C2153 C 0.77732 0.18342 0.91258
 N2154 N 0.79621 0.18596 0.90222
 N2155 N 0.79685 0.19726 0.88473
 C2156 C 0.77863 0.20648 0.87707
 N2157 N 0.75975 0.20402 0.88747
 N2158 N 0.75911 0.19271 0.90497
 C2159 C 0.77640 0.16986 0.93059
 C2160 C 0.77595 0.15792 0.94532
 C2161 C 0.77876 0.21649 0.85704
 C2162 C 0.77823 0.22354 0.83968
 C2163 C 0.27730 0.68406 0.41166
 N2164 N 0.29619 0.68649 0.40127
 N2165 N 0.29688 0.69790 0.38384
 C2166 C 0.27872 0.70734 0.37628
 N2167 N 0.25985 0.70498 0.38672
 N2168 N 0.25916 0.69357 0.40415
 C2169 C 0.27631 0.67038 0.42959
 C2170 C 0.27578 0.65835 0.44425
 C2171 C 0.27888 0.71743 0.35629
 C2172 C 0.27836 0.72452 0.33894
 C2173 C 0.72414 0.81655 0.41240
 N2174 N 0.70525 0.81371 0.40211
 N2175 N 0.70469 0.80231 0.38463
 C2176 C 0.72301 0.79330 0.37693
 N2177 N 0.74189 0.79607 0.38728
 N2178 N 0.74245 0.80748 0.40476
 C2179 C 0.72496 0.83024 0.43037
 C2180 C 0.72532 0.84229 0.44506
 C2181 C 0.72293 0.78321 0.35691
 C2182 C 0.72347 0.77611 0.33955
 C2183 C 0.22232 0.31659 0.91277
 N2184 N 0.20345 0.31404 0.90236
 N2185 N 0.20286 0.30281 0.88479
 C2186 C 0.22112 0.29366 0.87710
 N2187 N 0.23997 0.29614 0.88756
 N2188 N 0.24057 0.30738 0.90513
 C2189 C 0.22319 0.33008 0.93087
 C2190 C 0.22360 0.34197 0.94568
 C2191 C 0.22102 0.28371 0.85701
 C2192 C 0.22157 0.27669 0.83962
 C2193 C 0.86593 0.39680 0.75754
 N2194 N 0.87621 0.37739 0.75739
 N2195 N 0.86542 0.35926 0.76165
 C2196 C 0.84404 0.35995 0.76630
 N2197 N 0.83379 0.37938 0.76653
 N2198 N 0.84457 0.39751 0.76228
 C2199 C 0.87716 0.41618 0.75143
 C2200 C 0.88630 0.43243 0.74583
 C2201 C 0.83185 0.34020 0.76818
 C2202 C 0.82148 0.32363 0.76799
 C2203 C 0.36568 0.89800 0.25703
 N2204 N 0.37600 0.87861 0.25715
 N2205 N 0.36518 0.86048 0.26133
 C2206 C 0.34371 0.86114 0.26562
 N2207 N 0.33341 0.88055 0.26557
 N2208 N 0.34423 0.89868 0.26140
 C2209 C 0.37696 0.91737 0.25100
 C2210 C 0.38617 0.93360 0.24545
 C2211 C 0.33154 0.84137 0.26744
 C2212 C 0.32121 0.82478 0.26722
 C2213 C 0.13439 0.89741 0.74249
 N2214 N 0.15582 0.89800 0.73808
 N2215 N 0.16662 0.87981 0.73393
 C2216 C 0.15631 0.86044 0.73392
 N2217 N 0.13485 0.85986 0.73825
 N2218 N 0.12405 0.87805 0.74241
 C2219 C 0.12312 0.91684 0.74851
 C2220 C 0.11393 0.93312 0.75406
 C2221 C 0.16845 0.84062 0.73211
 C2222 C 0.17877 0.82400 0.73231
 C2223 C 0.63570 0.39659 0.24324
 N2224 N 0.65713 0.39719 0.23882
 N2225 N 0.66791 0.37901 0.23457
 C2226 C 0.65758 0.35964 0.23448
 N2227 N 0.63613 0.35906 0.23882
 N2228 N 0.62535 0.37724 0.24307
 C2229 C 0.62444 0.41600 0.24933
 C2230 C 0.61526 0.43227 0.25490
 C2231 C 0.66972 0.33983 0.23258
 C2232 C 0.68001 0.32319 0.23275
 C2233 C 0.63585 0.60250 0.25754
 N2234 N 0.62551 0.62188 0.25771
 N2235 N 0.63633 0.64003 0.26191
 C2236 C 0.65780 0.63939 0.26618
 N2237 N 0.66811 0.61999 0.26609
 N2238 N 0.65730 0.60184 0.26189
 C2239 C 0.62456 0.58311 0.25149
 C2240 C 0.61534 0.56687 0.24594
 C2241 C 0.66996 0.65917 0.26802
 C2242 C 0.68028 0.67577 0.26781
 C2243 C 0.13402 0.10339 0.75689
 N2244 N 0.12373 0.12279 0.75683
 N2245 N 0.13452 0.14094 0.76111
 C2246 C 0.15593 0.14027 0.76569
 N2247 N 0.16619 0.12085 0.76583
 N2248 N 0.15541 0.10270 0.76156
 C2249 C 0.12278 0.08400 0.75078
 C2250 C 0.11362 0.06774 0.74518
 C2251 C 0.16810 0.16003 0.76762
 C2252 C 0.17845 0.17661 0.76749
 C2253 C 0.36557 0.10281 0.24303
 N2254 N 0.34419 0.10213 0.23836
 N2255 N 0.33339 0.12027 0.23404
 C2256 C 0.34364 0.13967 0.23413
 N2257 N 0.36505 0.14034 0.23871
 N2258 N 0.37585 0.12220 0.24304
 C2259 C 0.37683 0.08344 0.24919
 C2260 C 0.38599 0.06719 0.25481
 C2261 C 0.33145 0.15944 0.23218
 C2262 C 0.32109 0.17604 0.23232
 C2263 C 0.86615 0.60283 0.74296
 N2264 N 0.84484 0.60213 0.73800
 N2265 N 0.83405 0.62028 0.73373
 C2266 C 0.84424 0.63972 0.73416
 N2267 N 0.86557 0.64039 0.73904
 N2268 N 0.87636 0.62224 0.74331
 C2269 C 0.87736 0.58342 0.74909
 C2270 C 0.88649 0.56715 0.75470
 C2271 C 0.83202 0.65947 0.73225
 C2272 C 0.82161 0.67603 0.73240
 C2273 C 0.89381 0.75557 0.18867
 N2274 N 0.88899 0.74620 0.20698
 N2275 N 0.86847 0.74403 0.21280
 C2276 C 0.85225 0.75114 0.20047
 N2277 N 0.85707 0.76045 0.18214
 N2278 N 0.87758 0.76261 0.17631
 C2279 C 0.91573 0.75912 0.18288
 C2280 C 0.93393 0.76283 0.17757
 C2281 C 0.83045 0.75028 0.20748
 C2282 C 0.81239 0.74999 0.21421
 C2283 C 0.39260 0.25585 0.68938
 N2284 N 0.38776 0.24665 0.70775
 N2285 N 0.36723 0.24450 0.71355
 C2286 C 0.35103 0.25147 0.70112
 N2287 N 0.35588 0.26060 0.68272
 N2288 N 0.37640 0.26274 0.67692
 C2289 C 0.41453 0.25939 0.68362
 C2290 C 0.43274 0.26309 0.67836
 C2291 C 0.32921 0.25065 0.70809
 C2292 C 0.31114 0.25041 0.71476
 C2293 C 0.39242 0.74346 0.81149
 N2294 N 0.37607 0.73680 0.82385
 N2295 N 0.35561 0.73911 0.81786
 C2296 C 0.35099 0.74819 0.79937
 N2297 N 0.36734 0.75492 0.78705
 N2298 N 0.38780 0.75261 0.79303
 C2299 C 0.41428 0.73980 0.81748
 C2300 C 0.43242 0.73604 0.82295
 C2301 C 0.32923 0.74921 0.79223
 C2302 C 0.31119 0.74960 0.78545
 C2303 C 0.89354 0.24238 0.31165
 N2304 N 0.87738 0.23456 0.32360
 N2305 N 0.85686 0.23678 0.31779
 C2306 C 0.85197 0.24694 0.29988
 N2307 N 0.86814 0.25483 0.28796
 N2308 N 0.88866 0.25261 0.29378
 C2309 C 0.91550 0.23890 0.31744
 C2310 C 0.93373 0.23528 0.32274
 C2311 C 0.83018 0.24792 0.29283
 C2312 C 0.81212 0.24832 0.28609
 C2313 C 0.10692 0.25571 0.31075
 N2314 N 0.12309 0.26296 0.32307
 N2315 N 0.14362 0.26083 0.31727
 C2316 C 0.14852 0.25136 0.29900
 N2317 N 0.13235 0.24405 0.28671
 N2318 N 0.11182 0.24618 0.29251
 C2319 C 0.08497 0.25917 0.31652
 C2320 C 0.06673 0.26279 0.32179
 C2321 C 0.17034 0.25050 0.29203
 C2322 C 0.18842 0.25021 0.28535
 C2323 C 0.60645 0.75412 0.80976
 N2324 N 0.61109 0.74805 0.79017
 N2325 N 0.63157 0.74602 0.78415
 C2326 C 0.64792 0.75000 0.79756
 N2327 N 0.64327 0.75600 0.81717
 N2328 N 0.62280 0.75803 0.82318
 C2329 C 0.58463 0.75775 0.81590
 C2330 C 0.56655 0.76156 0.82151
 C2331 C 0.66976 0.74929 0.79063
 C2332 C 0.68789 0.74916 0.78408
 C2333 C 0.60713 0.24427 0.68957
 N2334 N 0.61194 0.25328 0.70808
 N2335 N 0.63246 0.25552 0.71389
 C2336 C 0.64869 0.24886 0.70135
 N2337 N 0.64388 0.23992 0.68282
 N2338 N 0.62337 0.23768 0.67700
 C2339 C 0.58522 0.24064 0.68377
 C2340 C 0.56703 0.23689 0.67845
 C2341 C 0.67052 0.24977 0.70831
 C2342 C 0.68860 0.25005 0.71497
 C2343 C 0.10729 0.74377 0.18884
 N2344 N 0.11211 0.75350 0.20701
 N2345 N 0.13263 0.75591 0.21276
 C2346 C 0.14886 0.74871 0.20048
 N2347 N 0.14404 0.73905 0.18229
 N2348 N 0.12352 0.73664 0.17654
 C2349 C 0.08537 0.74005 0.18311
 C2350 C 0.06717 0.73626 0.17786
 C2351 C 0.17068 0.74983 0.20743
 C2352 C 0.18877 0.75029 0.21409
   
