data_POSCAR
  _audit_creation_date              2014-09-24
  _audit_creation_method            'ToBaCCo'
  _symmetry_space_group_name_H-M    'P1'
  _symmetry_Int_Tables_number       1
  _symmetry_cell_setting            triclinic
  loop_
  _symmetry_equiv_pos_as_xyz
 x,y,z
_cell_length_a 58.1705
_cell_length_b 57.9212
_cell_length_c 58.8006
_cell_angle_alpha 89.506500
_cell_angle_beta 89.603900
_cell_angle_gamma 90.085300
loop_
  _atom_site_label
  _atom_site_type_symbol
  _atom_site_fract_x
  _atom_site_fract_y
  _atom_site_fract_z
C1 C 0.34200 1.34731 0.32286
 N2 N 0.35031 1.32568 0.32712
 C3 C 0.34004 1.31213 0.34331
 N4 N 0.32169 1.32018 0.35505
 C5 C 0.31365 1.34174 0.35129
 N6 N 0.32384 1.35526 0.33516
 C7 C 0.34344 0.85221 0.81841
 N8 N 0.32576 0.85818 0.83235
 C9 C 0.32133 0.84584 0.85165
 N10 N 0.33474 0.82749 0.85691
 C11 C 0.35249 0.82132 0.84315
 N12 N 0.35681 0.83372 0.82387
 C13 C 0.85446 1.35927 0.82124
 N14 N 0.86633 1.34057 0.82848
 C15 C 0.85721 1.32571 0.84387
 N16 N 0.83603 1.32990 0.85275
 C17 C 0.82406 1.34897 0.84621
 N18 N 0.83317 1.36358 0.83012
 C19 C 0.86171 0.85241 0.32101
 N20 N 0.87203 0.83648 0.33437
 C21 C 0.86202 0.82907 0.35396
 N22 N 0.84143 0.83808 0.36062
 C23 C 0.83110 0.85452 0.34743
 N24 N 0.84121 0.86139 0.32759
 C25 C 0.65955 0.65333 0.31707
 N26 N 0.68079 0.64454 0.32507
 C27 C 0.69152 0.65257 0.34360
 N28 N 0.68243 0.67010 0.35568
 C29 C 0.66145 0.68107 0.34994
 N30 N 0.64992 0.67221 0.33026
 C31 C 0.65207 0.14696 0.81928
 N32 N 0.63897 0.16528 0.82567
 C33 C 0.64481 0.17811 0.84396
 N34 N 0.66394 0.17255 0.85593
 C35 C 0.67720 0.15434 0.84981
 N36 N 0.67118 0.14157 0.83144
 C37 C 1.15452 0.64194 0.82010
 N38 N 1.14173 0.66117 0.82426
 C39 C 1.14655 0.67473 0.84240
 N40 N 1.16422 0.66896 0.85629
 C41 C 1.17702 0.64987 0.85234
 N42 N 1.17211 0.63638 0.83421
 C43 C 1.14619 0.15284 0.31623
 N44 N 1.16478 0.13950 0.32118
 C45 C 1.17779 0.14395 0.33975
 N46 N 1.17210 0.16195 0.35340
 C47 C 1.15364 0.17540 0.34859
 N48 N 1.14075 0.17074 0.32999
 C49 C 0.64836 1.35546 0.68172
 N50 N 0.66691 1.36050 0.66844
 C51 C 0.67189 1.34758 0.64985
 N52 N 0.65811 1.32951 0.64462
 C53 C 0.63946 1.32426 0.65773
 N54 N 0.63465 1.33727 0.67627
 C55 C 0.65821 0.85445 1.18003
 N56 N 0.67586 0.85986 1.16573
 C57 C 0.67958 0.84736 1.14660
 N58 N 0.66548 0.82939 1.14183
 C59 C 0.64777 0.82379 1.15604
 N60 N 0.64421 0.83636 1.17512
 C61 C 1.14958 1.35699 1.17989
 N62 N 1.16868 1.36234 1.16746
 C63 C 1.17454 1.34955 1.14899
 N64 N 1.16119 1.33138 1.14310
 C65 C 1.14209 1.32591 1.15538
 N66 N 1.13635 1.33874 1.17370
 C67 C 1.14501 0.84380 0.67775
 N68 N 1.16298 0.85736 0.67113
 C69 C 1.17467 0.85296 0.65163
 N70 N 1.16825 0.83481 0.63865
 C71 C 1.15042 0.82108 0.64505
 N72 N 1.13877 0.82559 0.66467
 C73 C 0.34058 0.64961 0.68525
 N74 N 0.35070 0.66659 0.67237
 C75 C 0.34247 0.67138 0.65110
 N76 N 0.32452 0.65893 0.64290
 C77 C 0.31444 0.64212 0.65575
 N78 N 0.32244 0.63779 0.67689
 C79 C 0.35394 0.14061 1.17401
 N80 N 0.35915 0.16209 1.16579
 C81 C 0.34432 0.17289 1.15127
 N82 N 0.32431 0.16231 1.14557
 C83 C 0.31918 0.14093 1.15382
 N84 N 0.33418 0.13018 1.16776
 C85 C 0.85142 0.65234 1.18333
 N86 N 0.86327 0.67022 1.17396
 C87 C 0.85529 0.68164 1.15559
 N88 N 0.83511 0.67512 1.14631
 C89 C 0.82306 0.65699 1.15509
 N90 N 0.83114 0.64547 1.17383
 C91 C 0.85238 0.13761 0.67479
 N92 N 0.85830 0.16113 0.66905
 C93 C 0.84821 0.17239 0.65153
 N94 N 0.83167 0.16177 0.63906
 C95 C 0.82520 0.13958 0.64358
 N96 N 0.83523 0.12757 0.66060
 C97 C 1.35691 0.34762 0.68520
 N98 N 1.33698 0.35746 0.67808
 C99 C 1.32673 0.35025 0.65859
 N100 N 1.33647 0.33279 0.64630
 C101 C 1.35647 0.32294 0.65352
 N102 N 1.36644 0.33058 0.67277
 C103 C 1.34655 0.85613 1.17982
 N104 N 1.32821 0.86206 1.16683
 C105 C 1.32283 0.84941 1.14821
 N106 N 1.33586 0.83087 1.14271
 C107 C 1.35415 0.82475 1.15565
 N108 N 1.35940 0.83745 1.17415
 C109 C 0.84487 0.35480 1.18012
 N110 N 0.85832 0.33644 1.17452
 C111 C 0.85388 0.32405 1.15552
 N112 N 0.83591 0.33012 1.14211
 C113 C 0.82245 0.34837 1.14750
 N114 N 0.82699 0.36065 1.16653
 C115 C 0.85695 0.84649 0.68004
 N116 N 0.86164 0.82792 0.66691
 C117 C 0.84781 0.82238 0.64924
 N118 N 0.82911 0.83567 0.64471
 C119 C 0.82425 0.85437 0.65777
 N120 N 0.83822 0.85967 0.67540
 C121 C 0.65341 0.64537 0.68050
 N122 N 0.67249 0.64043 0.66810
 C123 C 0.67834 0.65361 0.64970
 N124 N 0.66496 0.67188 0.64380
 C125 C 0.64578 0.67693 0.65616
 N126 N 0.64011 0.66362 0.67443
 C127 C 0.64814 1.15281 1.17935
 N128 N 0.66637 1.13992 1.17244
 C129 C 0.67908 1.14569 1.15383
 N130 N 0.67377 1.16475 1.14149
 C131 C 0.65480 1.17933 1.14747
 N132 N 0.64217 1.17203 1.16751
 C133 C 0.14346 0.65113 1.18039
 N134 N 0.16326 0.63996 1.17463
 C135 C 0.17598 0.64650 1.15617
 N136 N 0.16905 0.66443 1.14300
 C137 C 0.14849 0.67710 1.14780
 N138 N 0.13599 0.66915 1.16762
 C139 C 0.16100 1.16202 0.68891
 N140 N 0.17597 1.14808 0.67792
 C141 C 0.18114 1.15174 0.65564
 N142 N 0.17060 1.16923 0.64397
 C143 C 0.15538 1.18318 0.65510
 N144 N 0.15100 1.17957 0.67750
 C145 C 1.34528 0.65902 0.32175
 N146 N 1.35352 0.67649 0.33467
 C147 C 1.34021 0.68619 0.35100
 N148 N 1.31857 0.67841 0.35440
 C149 C 1.31019 0.66067 0.34211
 N150 N 1.32352 0.65085 0.32564
 C151 C 1.35834 1.15633 0.81573
 N152 N 1.36675 1.17473 0.82689
 C153 C 1.35673 1.18230 0.84629
 N154 N 1.33785 1.17107 0.85487
 C155 C 1.32926 1.15240 0.84363
 N156 N 1.33953 1.14528 0.82411
 C157 C 0.85541 0.65351 0.82108
 N158 N 0.85982 0.67356 0.83433
 C159 C 0.84569 0.67980 0.85164
 N160 N 0.82685 0.66692 0.85667
 C161 C 0.82156 0.64761 0.84483
 N162 N 0.83527 0.64077 0.82743
 C163 C 0.83895 1.15137 0.30781
 N164 N 0.85334 1.16641 0.31821
 C165 C 0.84653 1.17755 0.33741
 N166 N 0.82531 1.17306 0.34650
 C167 C 0.81094 1.15804 0.33599
 N168 N 0.81776 1.14759 0.31663
 C169 C 0.66301 0.34101 0.31004
 N170 N 0.67803 0.35038 0.32506
 C171 C 0.68010 0.34091 0.34626
 N172 N 0.66675 0.32262 0.35235
 C173 C 0.65171 0.31336 0.33741
 N174 N 0.65015 0.32246 0.31621
 C175 C 0.65083 0.85811 0.82262
 N176 N 0.66960 0.86346 0.83507
 C177 C 0.67559 0.85023 0.85326
 N178 N 0.66261 0.83156 0.85899
 C179 C 0.64373 0.82606 0.84664
 N180 N 0.63794 0.83936 0.82846
 C181 C 0.16204 0.35046 0.81962
 N182 N 0.18059 0.35790 0.83159
 C183 C 0.18910 0.34487 0.84891
 N184 N 0.17916 0.32441 0.85411
 C185 C 0.16049 0.31689 0.84278
 N186 N 0.15180 0.32995 0.82546
 C187 C 0.15058 0.85194 0.31670
 N188 N 0.16894 0.86324 0.32525
 C189 C 0.18042 0.85498 0.34340
 N190 N 0.17339 0.83500 0.35338
 C191 C 0.15478 0.82342 0.34541
 N192 N 0.14325 0.83184 0.32685
 O193 O 0.98485 0.91903 0.88365
 O194 O 0.98560 0.89259 0.85690
 C195 C 0.97758 0.91125 0.86485
 C196 C 0.95916 0.92378 0.85258
 C197 C 0.95164 0.91645 0.83107
 H198 H 0.95992 0.90195 0.82293
 O199 O 1.03166 1.08699 0.88711
 O200 O 1.03288 1.11302 0.85952
 C201 C 1.04031 1.09450 0.86860
 C202 C 1.05944 1.08169 0.85783
 C203 C 1.06856 1.08887 0.83673
 H204 H 1.06107 1.10346 0.82788
 O205 O 0.89032 0.98142 0.91157
 O206 O 0.86551 0.98220 0.88338
 C207 C 0.87199 0.97418 0.90243
 C208 C 0.85849 0.95583 0.91394
 C209 C 0.83711 0.94883 0.90552
 H210 H 0.83000 0.95749 0.89075
 O211 O 1.12336 1.02500 0.92030
 O212 O 1.15105 1.02481 0.89451
 C213 C 1.14227 1.03301 0.91252
 C214 C 1.15354 1.05249 0.92437
 C215 C 1.17507 1.06138 0.91725
 H216 H 1.18412 1.05326 0.90333
 O217 O 0.91708 0.88989 0.97100
 O218 O 0.89022 0.86301 0.97012
 C219 C 0.90931 0.87115 0.96301
 C220 C 0.92256 0.85898 0.94510
 C221 C 0.91519 0.83748 0.93688
 H222 H 0.90008 0.82943 0.94428
 O223 O 1.08799 1.11905 0.97594
 O224 O 1.11533 1.14537 0.97774
 C225 C 1.09697 1.13783 0.96887
 C226 C 1.08605 1.15033 0.94969
 C227 C 1.09506 1.17119 0.94086
 H228 H 1.10983 1.17918 0.94873
 O229 O 0.92583 1.02520 0.88280
 O230 O 0.90117 1.02600 0.85447
 C231 C 0.91951 1.03315 0.86368
 C232 C 0.93334 1.05123 0.85221
 C233 C 0.92823 1.05797 0.82986
 H234 H 0.91499 1.04888 0.82071
 O235 O 1.09215 0.97940 0.88989
 O236 O 1.11988 0.97905 0.86413
 C237 C 1.10083 0.97134 0.87170
 C238 C 1.08887 0.95256 0.85943
 C239 C 1.09759 0.94454 0.83861
 H240 H 1.11284 0.95248 0.83127
 O241 O 1.02775 0.88622 0.91627
 O242 O 1.02858 0.85970 0.88960
 C243 C 1.03578 0.86748 0.90838
 C244 C 1.05421 0.85517 0.92086
 C245 C 1.06290 0.83397 0.91305
 H246 H 1.05511 0.82606 0.89841
 O247 O 0.98540 1.11925 0.91500
 O248 O 0.98629 1.14560 0.88770
 C249 C 0.97771 1.13774 0.90615
 C250 C 0.95837 1.14978 0.91745
 C251 C 0.95104 1.17175 0.91010
 H252 H 0.95976 1.18040 0.89609
 O253 O 0.88864 1.08781 0.96952
 O254 O 0.86218 1.11501 0.96824
 C255 C 0.87050 1.09624 0.96083
 C256 C 0.85943 1.08410 0.94165
 C257 C 0.83818 1.09143 0.93272
 H258 H 0.82941 1.10584 0.94045
 O259 O 1.11721 0.91674 0.97987
 O260 O 1.14380 0.88969 0.98147
 C261 C 1.13640 0.90866 0.97335
 C262 C 1.14985 0.92156 0.95593
 C263 C 1.17205 0.91452 0.94939
 H264 H 1.17984 0.89957 0.95739
 O265 O 0.98721 1.08652 0.88535
 O266 O 0.98835 1.11265 0.85783
 C267 C 0.98048 1.09391 0.86615
 C268 C 0.96309 1.08087 0.85346
 C269 C 0.95773 1.08739 0.83112
 H270 H 0.96680 1.10163 0.82300
 O271 O 1.02975 0.91948 0.88665
 O272 O 1.03059 0.89310 0.85985
 C273 C 1.03846 0.91154 0.86848
 C274 C 1.05838 0.92348 0.85772
 C275 C 1.06740 0.91576 0.83690
 H276 H 1.05882 0.90183 0.82826
 O277 O 1.12156 0.97994 0.92289
 O278 O 1.14942 0.97976 0.89724
 C279 C 1.14054 0.97207 0.91563
 C280 C 1.15197 0.95322 0.92825
 C281 C 1.17431 0.94643 0.92243
 H282 H 1.18372 0.95578 0.90929
 O283 O 0.89178 1.02639 0.91137
 O284 O 0.86703 1.02705 0.88312
 C285 C 0.87392 1.03470 0.90207
 C286 C 0.86126 1.05374 0.91312
 C287 C 0.84005 1.06111 0.90457
 H288 H 0.83265 1.05228 0.89017
 O289 O 0.92150 1.11794 0.97163
 O290 O 0.89524 1.14535 0.97053
 C291 C 0.91430 1.13705 0.96380
 C292 C 0.92787 1.14947 0.94626
 C293 C 0.92141 1.17167 0.93934
 H294 H 0.90703 1.18016 0.94757
 O295 O 1.08546 0.88553 0.97787
 O296 O 1.11175 0.85820 0.97955
 C297 C 1.09375 0.86667 0.97065
 C298 C 1.08258 0.85486 0.95135
 C299 C 1.09094 0.83367 0.94339
 H300 H 1.10530 0.82550 0.95191
 O301 O 1.09097 1.02441 0.89043
 O302 O 1.11855 1.02407 0.86450
 C303 C 1.09962 1.03204 0.87200
 C304 C 1.08801 1.05082 0.85944
 C305 C 1.09657 1.05799 0.83824
 H306 H 1.11109 1.04910 0.83069
 O307 O 0.92432 0.98035 0.88278
 O308 O 0.89954 0.98130 0.85457
 C309 C 0.91744 0.97294 0.86372
 C310 C 0.93003 0.95415 0.85216
 C311 C 0.92321 0.94698 0.83053
 H312 H 0.90921 0.95576 0.82200
 O313 O 1.03023 1.11977 0.91640
 O314 O 1.03130 1.14595 0.88894
 C315 C 1.03850 1.13822 0.90784
 C316 C 1.05730 1.15022 0.91964
 C317 C 1.06677 1.17063 0.91069
 H318 H 1.05957 1.17837 0.89547
 O319 O 0.98280 0.88834 0.91575
 O320 O 0.98357 0.86172 0.88917
 C321 C 0.97489 0.86990 0.90732
 C322 C 0.95493 0.85827 0.91828
 C323 C 0.94739 0.83677 0.91048
 H324 H 0.95678 0.82825 0.89696
 O325 O 1.11851 1.08650 0.97757
 O326 O 1.14589 1.11275 0.97972
 C327 C 1.13797 1.09433 0.97125
 C328 C 1.15125 1.08227 0.95344
 C329 C 1.17280 1.09063 0.94646
 H330 H 1.18009 1.10552 0.95483
 O331 O 0.88541 0.92123 0.97052
 O332 O 0.85830 0.89460 0.96975
 C333 C 0.86690 0.91337 0.96228
 C334 C 0.85589 0.92595 0.94330
 C335 C 0.83451 0.91903 0.93469
 H336 H 0.82539 0.90500 0.94297
 Cu337 Cu 1.00623 0.90590 0.90322
 Cu338 Cu 1.00716 0.87413 0.87122
 Cu339 Cu 1.00847 1.10061 0.90382
 Cu340 Cu 1.00972 1.13199 0.87074
 Cu341 Cu 0.91051 1.00323 0.90004
 Cu342 Cu 0.88082 1.00423 0.86603
 Cu343 Cu 1.10433 1.00219 0.90852
 Cu344 Cu 1.13747 1.00183 0.87748
 C345 C 0.94822 0.94266 0.86295
 H346 H 0.95349 0.94809 0.87971
 C347 C 0.93364 0.92807 0.81999
 C348 C 1.06926 1.06258 0.86905
 H349 H 1.06269 1.05720 0.88555
 C350 C 1.08721 1.07708 0.82697
 C351 C 0.86758 0.94446 0.93293
 H352 H 0.88424 0.94961 0.93928
 C353 C 0.82504 0.93037 0.91565
 C354 C 1.14192 1.06307 0.94251
 H355 H 1.12518 1.05670 0.94780
 C356 C 1.18480 1.08058 0.92832
 C357 C 0.94251 0.86916 0.93573
 H358 H 0.94811 0.88589 0.94167
 C359 C 0.92750 0.82633 0.91946
 C360 C 1.06694 1.14033 0.93916
 H361 H 1.05994 1.12426 0.94575
 C362 C 1.08559 1.18119 0.92116
 C363 C 0.95095 1.06262 0.86387
 H364 H 0.95474 1.05777 0.88128
 C365 C 0.94013 1.07632 0.81939
 C366 C 1.06917 0.94198 0.86879
 H367 H 1.06250 0.94784 0.88499
 C368 C 1.08715 0.92607 0.82729
 C369 C 1.06409 0.86534 0.94007
 H370 H 1.05773 0.88183 0.94595
 C371 C 1.08140 0.82314 0.92418
 C372 C 0.94661 1.13880 0.93553
 H373 H 0.95165 1.12161 0.94088
 C374 C 0.93264 1.18274 0.92120
 C375 C 0.87069 1.06518 0.93176
 H376 H 0.88717 1.05962 0.93828
 C377 C 0.82834 1.07990 0.91409
 C378 C 1.14003 0.94095 0.94526
 H379 H 1.12271 0.94614 0.94974
 C380 C 1.18432 0.92704 0.93267
 O381 O 1.01752 0.91826 1.11128
 O382 O 1.01540 0.89083 1.13746
 C383 C 1.02417 0.90952 1.12999
 C384 C 1.04275 0.92082 1.14288
 C385 C 1.04909 0.91233 1.16431
 H386 H 1.03964 0.89804 1.17193
 O387 O 0.97686 1.08588 1.10774
 O388 O 0.97604 1.11246 1.13439
 C389 C 0.96856 1.09372 1.12610
 C390 C 0.94963 1.08128 1.13768
 C391 C 0.94261 1.08787 1.15946
 H392 H 0.95170 1.10155 1.16810
 O393 O 0.88425 1.02657 1.07425
 O394 O 0.85648 1.02698 1.09998
 C395 C 0.86528 1.03451 1.08155
 C396 C 0.85366 1.05305 1.06869
 C397 C 0.83187 1.06092 1.07542
 H398 H 0.82304 1.05237 1.08938
 O399 O 1.11043 0.97755 1.08329
 O400 O 1.13654 0.97780 1.11032
 C401 C 1.12906 0.97000 1.09164
 C402 C 1.14192 0.95158 1.07985
 C403 C 1.16389 0.94529 1.08725
 H404 H 1.17178 0.95454 1.10113
 O405 O 1.08203 0.88580 1.02203
 O406 O 1.10819 0.85834 1.02399
 C407 C 1.08910 0.86687 1.03041
 C408 C 1.07504 0.85501 1.04804
 C409 C 1.08051 0.83256 1.05540
 H410 H 1.09471 0.82351 1.04753
 O411 O 0.91837 1.11773 1.01579
 O412 O 0.89200 1.14504 1.01471
 C413 C 0.91013 1.13651 1.02331
 C414 C 0.92147 1.14829 1.04254
 C415 C 0.91300 1.16943 1.05050
 H416 H 0.89847 1.17744 1.04213
 O417 O 0.91428 0.98176 1.10677
 O418 O 0.88661 0.98220 1.13262
 C419 C 0.90551 0.97420 1.12521
 C420 C 0.91709 0.95552 1.13785
 C421 C 0.90938 0.94904 1.15959
 H422 H 0.89539 0.95839 1.16757
 O423 O 1.07769 1.02212 1.11358
 O424 O 1.10350 1.02192 1.14088
 C425 C 1.08520 1.02996 1.13220
 C426 C 1.07314 1.04927 1.14341
 C427 C 1.07974 1.05633 1.16513
 H428 H 1.09285 1.04678 1.17422
 O429 O 0.97337 0.88846 1.07802
 O430 O 0.97131 0.86103 1.10422
 C431 C 0.96478 0.86964 1.08542
 C432 C 0.94681 0.85783 1.07218
 C433 C 0.93888 0.83583 1.07876
 H434 H 0.94656 0.82711 1.09318
 O435 O 1.02230 1.11827 1.07818
 O436 O 1.02136 1.14519 1.10446
 C437 C 1.02973 1.13711 1.08619
 C438 C 1.04867 1.14931 1.07431
 C439 C 1.05581 1.17135 1.08120
 H440 H 1.04672 1.17995 1.09482
 O441 O 0.88445 0.92088 1.01487
 O442 O 0.85738 0.89419 1.01438
 C443 C 0.86556 0.91277 1.02243
 C444 C 0.85341 0.92496 1.04107
 C445 C 0.83169 0.91750 1.04897
 H446 H 0.82332 0.90299 1.04099
 O447 O 1.11402 1.08467 1.02174
 O448 O 1.14146 1.11086 1.02382
 C449 C 1.13230 1.09208 1.03077
 C450 C 1.14296 1.07912 1.04979
 C451 C 1.16462 1.08586 1.05755
 H452 H 1.17375 1.09988 1.04911
 O453 O 1.02139 1.08678 1.10985
 O454 O 1.02068 1.11351 1.13632
 C455 C 1.02853 1.09464 1.12865
 C456 C 1.04621 1.08160 1.14149
 C457 C 1.05354 1.08882 1.16311
 H458 H 1.04601 1.10398 1.17077
 O459 O 0.97282 0.91959 1.10943
 O460 O 0.97070 0.89230 1.13576
 C461 C 0.96393 0.91147 1.12759
 C462 C 0.94531 0.92441 1.13897
 C463 C 0.93706 0.91780 1.16060
 H464 H 0.94489 0.90338 1.16945
 O465 O 1.11044 1.02261 1.08362
 O466 O 1.13639 1.02282 1.11078
 C467 C 1.12880 1.03072 1.09203
 C468 C 1.14124 1.04971 1.08001
 C469 C 1.16273 1.05735 1.08789
 H470 H 1.17051 1.04909 1.10252
 O471 O 0.88433 0.98168 1.07450
 O472 O 0.85653 0.98206 1.10020
 C473 C 0.86525 0.97403 1.08202
 C474 C 0.85331 0.95528 1.06983
 C475 C 0.83146 0.94797 1.07702
 H476 H 0.82297 0.95666 1.09100
 O477 O 1.08452 1.11807 1.01996
 O478 O 1.11185 1.14443 1.02179
 C479 C 1.09241 1.13666 1.02815
 C480 C 1.07913 1.14908 1.04562
 C481 C 1.08583 1.17120 1.05241
 H482 H 1.10036 1.17961 1.04417
 O483 O 0.91586 0.88950 1.01511
 O484 O 0.88904 0.86254 1.01438
 C485 C 0.90756 0.87058 1.02248
 C486 C 0.91921 0.85816 1.04110
 C487 C 0.91177 0.83606 1.04768
 H488 H 0.89803 0.82769 1.03850
 O489 O 1.07899 0.97687 1.11474
 O490 O 1.10489 0.97656 1.14192
 C491 C 1.08656 0.96858 1.13336
 C492 C 1.07387 0.94921 1.14458
 C493 C 1.08056 0.93986 1.16581
 H494 H 1.09513 0.94705 1.17468
 O495 O 0.91461 1.02663 1.10634
 O496 O 0.88699 1.02704 1.13223
 C497 C 0.90612 1.03455 1.12465
 C498 C 0.91865 1.05282 1.13697
 C499 C 0.91151 1.05998 1.15874
 H500 H 0.89692 1.05168 1.16690
 O501 O 0.97745 1.11812 1.07726
 O502 O 0.97639 1.14490 1.10368
 C503 C 0.96908 1.13670 1.08509
 C504 C 0.95022 1.14847 1.07273
 C505 C 0.94138 1.16961 1.08048
 H506 H 0.94928 1.17779 1.09492
 O507 O 1.01801 0.88784 1.07930
 O508 O 1.01589 0.86027 1.10537
 C509 C 1.02474 0.86858 1.08723
 C510 C 1.04333 0.85589 1.07553
 C511 C 1.04881 0.83336 1.08236
 H512 H 1.03892 0.82499 1.09578
 O513 O 1.11425 0.91648 1.02391
 O514 O 1.14079 0.88939 1.02579
 C515 C 1.13238 0.90831 1.03278
 C516 C 1.14350 0.92096 1.05155
 C517 C 1.16536 0.91455 1.05955
 H518 H 1.17449 0.90046 1.05158
 O519 O 0.88672 1.08645 1.01377
 O520 O 0.86020 1.11361 1.01263
 C521 C 0.86772 1.09466 1.02065
 C522 C 0.85473 1.08238 1.03871
 C523 C 0.83293 1.09007 1.04561
 H524 H 0.82506 1.10465 1.03701
 Cu525 Cu 0.99558 0.90634 1.09191
 Cu526 Cu 0.99313 0.87334 1.12335
 Cu527 Cu 0.99972 1.09964 1.09055
 Cu528 Cu 0.99854 1.13176 1.12235
 Cu529 Cu 0.90332 0.90813 0.99289
 Cu530 Cu 0.87099 0.87589 0.99208
 Cu531 Cu 1.09711 0.90384 1.00073
 Cu532 Cu 1.12875 0.87110 1.00291
 Cu533 Cu 0.90639 1.09970 0.99276
 Cu534 Cu 0.87477 1.13253 0.99139
 Cu535 Cu 1.09848 1.09947 0.99851
 Cu536 Cu 1.13146 1.13092 1.00108
 Cu537 Cu 0.90217 1.00420 1.08788
 Cu538 Cu 0.86882 1.00460 1.11883
 Cu539 Cu 1.09173 0.99971 1.09618
 Cu540 Cu 1.12291 0.99979 1.12872
 C541 C 1.05497 0.93944 1.13335
 H542 H 1.05001 0.94602 1.11680
 C543 C 1.06800 0.92146 1.17577
 C544 C 0.93777 1.06356 1.12665
 H545 H 0.94312 1.05852 1.10972
 C546 C 0.92354 1.07756 1.17002
 C547 C 0.86485 1.06373 1.05022
 H548 H 0.88184 1.05797 1.04522
 C549 C 0.82154 1.07965 1.06412
 C550 C 1.13197 0.93953 1.06181
 H551 H 1.11494 0.94429 1.05609
 C552 C 1.17562 0.92676 1.07741
 C553 C 1.05635 0.86651 1.05817
 H554 H 1.05229 0.88401 1.05294
 C555 C 1.06744 0.82172 1.07263
 C556 C 0.94020 1.13802 1.05368
 H557 H 0.94667 1.12157 1.04781
 C558 C 0.92262 1.18012 1.06954
 C559 C 0.93524 0.94333 1.12779
 H560 H 0.94114 0.94823 1.11091
 C561 C 0.91906 0.93013 1.17095
 C562 C 1.05615 1.06180 1.13185
 H563 H 1.05107 1.05643 1.11501
 C564 C 1.07030 1.07613 1.17498
 C565 C 0.93693 0.86883 1.05325
 H566 H 0.94260 0.88600 1.04836
 C567 C 0.92126 0.82497 1.06661
 C568 C 1.06036 1.13839 1.05643
 H569 H 1.05528 1.12120 1.05136
 C570 C 1.07446 1.18232 1.07028
 C571 C 0.86403 0.94387 1.05166
 H572 H 0.88096 0.94942 1.04608
 C573 C 0.82067 0.92904 1.06695
 C574 C 1.13146 1.06076 1.06089
 H575 H 1.11469 1.05544 1.05498
 C576 C 1.17443 1.07537 1.07661
 O577 O 0.97003 0.41161 0.39105
 O578 O 0.96984 0.38521 0.36424
 C579 C 0.96211 0.40386 0.37256
 C580 C 0.94348 0.41644 0.36076
 C581 C 0.93610 0.40935 0.33933
 H582 H 0.94452 0.39491 0.33116
 O583 O 1.01475 0.58327 0.38533
 O584 O 1.01368 0.61008 0.35851
 C585 C 1.02177 0.59125 0.36634
 C586 C 1.03975 0.57838 0.35370
 C587 C 1.04715 0.58535 0.33183
 H588 H 1.03950 0.60028 0.32366
 O589 O 0.88115 0.47415 0.42267
 O590 O 0.85319 0.47562 0.39755
 C591 C 0.86176 0.46719 0.41555
 C592 C 0.84933 0.44857 0.42783
 C593 C 0.82736 0.44183 0.42084
 H594 H 0.81901 0.45107 0.40708
 O595 O 1.10605 0.52142 0.41329
 O596 O 1.13153 0.52115 0.38534
 C597 C 1.12441 0.52914 0.40415
 C598 C 1.13749 0.54777 0.41531
 C599 C 1.15901 0.55459 0.40673
 H600 H 1.16636 0.54574 0.39223
 O601 O 0.91109 0.38017 0.48038
 O602 O 0.88396 0.35354 0.48190
 C603 C 0.90255 0.36134 0.47337
 C604 C 0.91423 0.34876 0.45479
 C605 C 0.90610 0.32725 0.44755
 H606 H 0.89145 0.31937 0.45609
 O607 O 1.07955 0.61426 0.47325
 O608 O 1.10685 0.64066 0.47249
 C609 C 1.08786 0.63294 0.46508
 C610 C 1.07544 0.64513 0.44632
 C611 C 1.08351 0.66621 0.43681
 H612 H 1.09865 0.67428 0.44378
 O613 O 0.91278 0.51891 0.39023
 O614 O 0.88490 0.51946 0.36499
 C615 C 0.90401 0.52699 0.37209
 C616 C 0.91556 0.54589 0.35941
 C617 C 0.90777 0.55221 0.33776
 H618 H 0.89420 0.54234 0.32982
 O619 O 1.07363 0.47526 0.38502
 O620 O 1.09925 0.47507 0.35720
 C621 C 1.08109 0.46703 0.36642
 C622 C 1.06891 0.44754 0.35565
 C623 C 1.07598 0.43949 0.33422
 H624 H 1.08961 0.44844 0.32518
 O625 O 1.01598 0.38023 0.42070
 O626 O 1.01554 0.35361 0.39412
 C627 C 1.02396 0.36180 0.41225
 C628 C 1.04380 0.35019 0.42305
 C629 C 1.05110 0.32857 0.41530
 H630 H 1.04148 0.31988 0.40216
 O631 O 0.97194 0.61454 0.41894
 O632 O 0.97021 0.64179 0.39261
 C633 C 0.96359 0.63341 0.41164
 C634 C 0.94579 0.64522 0.42549
 C635 C 0.93745 0.66724 0.41947
 H636 H 0.94457 0.67612 0.40476
 O637 O 0.88748 0.57943 0.48544
 O638 O 0.86017 0.60577 0.48674
 C639 C 0.86837 0.58721 0.47858
 C640 C 0.85569 0.57502 0.46055
 C641 C 0.83387 0.58284 0.45425
 H642 H 0.82604 0.59717 0.46315
 O643 O 1.11206 0.41531 0.47514
 O644 O 1.13915 0.38883 0.47266
 C645 C 1.13042 0.40787 0.46611
 C646 C 1.14127 0.42129 0.44740
 C647 C 1.16335 0.41569 0.43937
 H648 H 1.17289 0.40214 0.44780
 O649 O 0.97015 0.58335 0.38759
 O650 O 0.96866 0.61020 0.36084
 C651 C 0.96144 0.59126 0.36935
 C652 C 0.94272 0.57814 0.35822
 C653 C 0.93400 0.58479 0.33680
 H654 H 0.94098 0.59976 0.32799
 O655 O 1.01464 0.41174 0.38926
 O656 O 1.01439 0.38517 0.36261
 C657 C 1.02207 0.40403 0.37043
 C658 C 1.04011 0.41684 0.35768
 C659 C 1.04735 0.40916 0.33624
 H660 H 1.03925 0.39418 0.32878
 O661 O 1.10636 0.47656 0.41474
 O662 O 1.13197 0.47659 0.38689
 C663 C 1.12495 0.46911 0.40608
 C664 C 1.13845 0.45131 0.41817
 C665 C 1.16056 0.44560 0.41047
 H666 H 1.16797 0.45478 0.39604
 O667 O 0.88388 0.51899 0.42390
 O668 O 0.85587 0.52042 0.39883
 C669 C 0.86510 0.52759 0.41704
 C670 C 0.85414 0.54636 0.43022
 C671 C 0.83246 0.55483 0.42395
 H672 H 0.82341 0.54713 0.40988
 O673 O 0.91716 0.61277 0.48427
 O674 O 0.88998 0.63924 0.48590
 C675 C 0.90842 0.63156 0.47714
 C676 C 0.91934 0.64431 0.45801
 C677 C 0.91159 0.66641 0.45203
 H678 H 0.89826 0.67458 0.46210
 O679 O 1.08216 0.38186 0.47525
 O680 O 1.10917 0.35531 0.47281
 C681 C 1.08994 0.36337 0.46654
 C682 C 1.07652 0.35121 0.44891
 C683 C 1.08379 0.32966 0.44058
 H684 H 1.09905 0.32164 0.44749
 O685 O 1.07287 0.52054 0.38393
 O686 O 1.09838 0.52007 0.35602
 C687 C 1.08006 0.52803 0.36480
 C688 C 1.06755 0.54673 0.35292
 C689 C 1.07404 0.55338 0.33084
 H690 H 1.08743 0.54396 0.32199
 O691 O 0.91182 0.47370 0.39051
 O692 O 0.88392 0.47435 0.36532
 C693 C 0.90273 0.46595 0.37254
 C694 C 0.91413 0.44661 0.36054
 C695 C 0.90662 0.43897 0.33912
 H696 H 0.89256 0.44777 0.33080
 O697 O 1.01672 0.61433 0.41647
 O698 O 1.01536 0.64146 0.38999
 C699 C 1.02428 0.63311 0.40797
 C700 C 1.04403 0.64501 0.41869
 C701 C 1.05207 0.66606 0.40982
 H702 H 1.04317 0.67400 0.39564
 O703 O 0.97083 0.37846 0.42086
 O704 O 0.97042 0.35193 0.39421
 C705 C 0.96276 0.35983 0.41284
 C706 C 0.94372 0.34788 0.42504
 C707 C 0.93517 0.32643 0.41774
 H708 H 0.94338 0.31786 0.40358
 O709 O 1.11060 0.58225 0.47205
 O710 O 1.13812 0.60844 0.47129
 C711 C 1.12922 0.59008 0.46356
 C712 C 1.14003 0.57782 0.44416
 C713 C 1.16143 0.58478 0.43498
 H714 H 1.17068 0.59897 0.44255
 O715 O 0.88041 0.41253 0.48126
 O716 O 0.85312 0.38609 0.48263
 C717 C 0.86132 0.40469 0.47430
 C718 C 0.84907 0.41737 0.45604
 C719 C 0.82728 0.41031 0.44828
 H720 H 0.81881 0.39553 0.45604
 Cu721 Cu 0.99285 0.39805 0.40826
 Cu722 Cu 0.99254 0.36625 0.37618
 Cu723 Cu 0.99343 0.59621 0.40471
 Cu724 Cu 0.99180 0.62867 0.37287
 Cu725 Cu 0.90027 0.49626 0.40927
 Cu726 Cu 0.86669 0.49765 0.37914
 Cu727 Cu 1.08707 0.49848 0.40200
 Cu728 Cu 1.11778 0.49820 0.36850
 C729 C 0.93258 0.43520 0.37112
 H730 H 0.93822 0.44065 0.38775
 C731 C 0.91771 0.42031 0.32840
 C732 C 1.05013 0.55905 0.36406
 H733 H 1.04509 0.55392 0.38114
 C734 C 1.06424 0.57272 0.32034
 C735 C 0.85986 0.43651 0.44564
 H736 H 0.87686 0.44171 0.45101
 C737 C 0.81635 0.42265 0.43067
 C738 C 1.12828 0.55928 0.43416
 H739 H 1.11162 0.55406 0.44077
 C740 C 1.17100 0.57310 0.41623
 C741 C 0.93317 0.35875 0.44361
 H742 H 0.93937 0.37545 0.44904
 C743 C 0.91625 0.31602 0.42895
 C744 C 1.05566 0.63484 0.43707
 H745 H 1.04956 0.61849 0.44386
 C746 C 1.07177 0.67680 0.41848
 C747 C 0.93328 0.55866 0.36935
 H748 H 0.93932 0.55375 0.38610
 C749 C 0.91659 0.57166 0.32649
 C750 C 1.05087 0.43617 0.36721
 H751 H 1.04558 0.44204 0.38388
 C752 C 1.06539 0.42015 0.32450
 C753 C 1.05646 0.36128 0.44005
 H754 H 1.05099 0.37807 0.44599
 C755 C 1.07113 0.31829 0.42373
 C756 C 0.93661 0.63398 0.44485
 H757 H 0.94250 0.61682 0.44937
 C758 C 0.92028 0.67790 0.43276
 C759 C 0.86566 0.55656 0.44862
 H760 H 0.88262 0.55054 0.45328
 C761 C 0.82242 0.57321 0.43581
 C762 C 1.12902 0.43926 0.43680
 H763 H 1.11182 0.44341 0.44261
 C764 C 1.17304 0.42774 0.42075
 O765 O 1.02495 0.40873 0.61139
 O766 O 1.02556 0.38115 0.63743
 C767 C 1.03341 0.40011 0.62940
 C768 C 1.05283 0.41201 0.64087
 C769 C 1.06044 0.40430 0.66220
 H770 H 1.05166 0.39001 0.67056
 O771 O 0.98194 0.57608 0.61576
 O772 O 0.98306 0.60212 0.64287
 C773 C 0.97486 0.58361 0.63478
 C774 C 0.95657 0.57086 0.64724
 C775 C 0.94938 0.57770 0.66907
 H776 H 0.95788 0.59199 0.67728
 O777 O 0.88882 0.51651 0.58730
 O778 O 0.86312 0.51628 0.61506
 C779 C 0.87062 0.52449 0.59635
 C780 C 0.85835 0.54384 0.58531
 C781 C 0.83715 0.55144 0.59395
 H782 H 0.82938 0.54257 0.60839
 O783 O 1.11865 0.47016 0.57978
 O784 O 1.14658 0.47056 0.60489
 C785 C 1.13777 0.46241 0.58698
 C786 C 1.14919 0.44315 0.57471
 C787 C 1.17016 0.43360 0.58226
 H788 H 1.17874 0.44126 0.59660
 O789 O 1.08241 0.38171 0.51941
 O790 O 1.10901 0.35473 0.51697
 C791 C 1.09051 0.36243 0.52574
 C792 C 1.07843 0.34895 0.54364
 C793 C 1.08528 0.32635 0.54860
 H794 H 1.09915 0.31863 0.53890
 O795 O 0.91897 0.61174 0.52871
 O796 O 0.89172 0.63812 0.53028
 C797 C 0.91079 0.63010 0.53717
 C798 C 0.92338 0.64166 0.55569
 C799 C 0.91601 0.66295 0.56450
 H800 H 0.90146 0.67152 0.55684
 O801 O 0.92070 0.46989 0.61592
 O802 O 0.89487 0.46982 0.64355
 C803 C 0.91312 0.46182 0.63467
 C804 C 0.92519 0.44255 0.64611
 C805 C 0.91729 0.43441 0.66725
 H806 H 0.90279 0.44276 0.67538
 O807 O 1.08743 0.51446 0.61228
 O808 O 1.11519 0.51482 0.63760
 C809 C 1.09612 0.52246 0.63041
 C810 C 1.08404 0.54119 0.64276
 C811 C 1.09135 0.54846 0.66441
 H812 H 1.10570 0.53997 0.67259
 O813 O 0.97814 0.37833 0.58198
 O814 O 0.97875 0.35034 0.60761
 C815 C 0.97016 0.35941 0.58979
 C816 C 0.95043 0.34824 0.57820
 C817 C 0.94267 0.32604 0.58474
 H818 H 0.95134 0.31661 0.59814
 O819 O 1.02518 0.60831 0.58254
 O820 O 1.02641 0.63451 0.60951
 C821 C 1.03312 0.62706 0.59030
 C822 C 1.05046 0.64026 0.57699
 C823 C 1.05684 0.66246 0.58375
 H824 H 1.04858 0.67019 0.59841
 O825 O 0.88196 0.41232 0.52563
 O826 O 0.85460 0.38595 0.52725
 C827 C 0.86347 0.40454 0.53442
 C828 C 0.85267 0.41706 0.55355
 C829 C 0.83075 0.41086 0.56187
 H830 H 0.82122 0.39731 0.55358
 O831 O 1.11052 0.57972 0.51655
 O832 O 1.13790 0.60605 0.51600
 C833 C 1.12958 0.58720 0.52389
 C834 C 1.14214 0.57437 0.54212
 C835 C 1.16369 0.58246 0.54909
 H836 H 1.17125 0.59741 0.54071
 O837 O 1.02676 0.57598 0.61356
 O838 O 1.02781 0.60205 0.64065
 C839 C 1.03518 0.58344 0.63198
 C840 C 1.05392 0.57062 0.64338
 C841 C 1.06096 0.57706 0.66516
 H842 H 1.05212 0.59090 0.67389
 O843 O 0.98001 0.40807 0.61442
 O844 O 0.98033 0.38037 0.64035
 C845 C 0.97242 0.39944 0.63296
 C846 C 0.95379 0.41163 0.64543
 C847 C 0.94510 0.40328 0.66641
 H848 H 0.95231 0.38788 0.67411
 O849 O 1.11492 0.51544 0.57735
 O850 O 1.14293 0.51619 0.60237
 C851 C 1.13360 0.52411 0.58430
 C852 C 1.14421 0.54396 0.57160
 C853 C 1.16571 0.55272 0.57827
 H854 H 1.17483 0.54429 0.59197
 O855 O 0.88775 0.47153 0.58630
 O856 O 0.86196 0.47158 0.61397
 C857 C 0.86904 0.46413 0.59493
 C858 C 0.85553 0.44640 0.58296
 C859 C 0.83355 0.44025 0.59083
 H860 H 0.82618 0.44906 0.60534
 O861 O 1.08112 0.61319 0.51797
 O862 O 1.10821 0.63984 0.51753
 C863 C 1.08977 0.63154 0.52598
 C864 C 1.07842 0.64267 0.54574
 C865 C 1.08512 0.66471 0.55327
 H866 H 1.09843 0.67420 0.54421
 O867 O 0.91427 0.38178 0.52430
 O868 O 0.88722 0.35508 0.52591
 C869 C 0.90649 0.36299 0.53247
 C870 C 0.91972 0.35019 0.54989
 C871 C 0.91288 0.32787 0.55614
 H872 H 0.89842 0.31989 0.54771
 O873 O 1.08645 0.46916 0.61051
 O874 O 1.11407 0.46925 0.63596
 C875 C 1.09521 0.46100 0.62858
 C876 C 1.08334 0.44145 0.64061
 C877 C 1.09092 0.43307 0.66191
 H878 H 1.10534 0.44129 0.67010
 O879 O 0.92164 0.51491 0.61683
 O880 O 0.89592 0.51457 0.64458
 C881 C 0.91446 0.52229 0.63587
 C882 C 0.92738 0.54051 0.64776
 C883 C 0.92074 0.54726 0.66967
 H884 H 0.90671 0.53839 0.67828
 O885 O 0.98056 0.60904 0.58579
 O886 O 0.98191 0.63514 0.61285
 C887 C 0.97322 0.62763 0.59460
 C888 C 0.95408 0.64032 0.58376
 C889 C 0.94664 0.66162 0.59227
 H890 H 0.95549 0.66922 0.60654
 O891 O 1.02315 0.37707 0.58053
 O892 O 1.02406 0.34912 0.60619
 C893 C 1.03124 0.35795 0.58758
 C894 C 1.04961 0.34648 0.57407
 C895 C 1.05703 0.32385 0.57912
 H896 H 1.04871 0.31422 0.59270
 O897 O 1.11564 0.41157 0.51942
 O898 O 1.14244 0.38482 0.51698
 C899 C 1.13466 0.40305 0.52601
 C900 C 1.14749 0.41413 0.54478
 C901 C 1.16844 0.40493 0.55244
 H902 H 1.17570 0.39004 0.54399
 O903 O 0.88754 0.58003 0.52970
 O904 O 0.86023 0.60637 0.53093
 C905 C 0.86888 0.58763 0.53816
 C906 C 0.85747 0.57481 0.55696
 C907 C 0.83626 0.58226 0.56588
 H908 H 0.82777 0.59689 0.55811
 Cu909 Cu 1.00151 0.39575 0.59453
 Cu910 Cu 1.00232 0.36248 0.62548
 Cu911 Cu 1.00349 0.58971 0.59672
 Cu912 Cu 1.00507 0.62105 0.62921
 Cu913 Cu 0.89953 0.39946 0.50265
 Cu914 Cu 0.86697 0.36750 0.50468
 Cu915 Cu 1.09550 0.40034 0.49748
 Cu916 Cu 1.12768 0.36831 0.49464
 Cu917 Cu 0.90560 0.59341 0.50697
 Cu918 Cu 0.87279 0.62503 0.50850
 Cu919 Cu 1.09267 0.59487 0.49492
 Cu920 Cu 1.12550 0.62636 0.49437
 Cu921 Cu 0.90733 0.49321 0.59877
 Cu922 Cu 0.87640 0.49300 0.63210
 Cu923 Cu 1.09918 0.49222 0.59256
 Cu924 Cu 1.13245 0.49278 0.62261
 C925 C 1.06426 0.43072 0.63034
 H926 H 1.05849 0.43670 0.61385
 C927 C 1.07940 0.41452 0.67284
 C928 C 0.94550 0.55219 0.63679
 H929 H 0.95054 0.54715 0.61978
 C930 C 0.93139 0.56594 0.68032
 C931 C 0.86828 0.55551 0.56671
 H932 H 0.88477 0.54989 0.56015
 C933 C 0.82606 0.57072 0.58454
 C934 C 1.13819 0.43331 0.55591
 H935 H 1.12193 0.44029 0.55022
 C936 C 1.17989 0.41431 0.57124
 C937 C 1.06043 0.35878 0.55624
 H938 H 1.05519 0.37634 0.55248
 C939 C 1.07493 0.31371 0.56631
 C940 C 0.94248 0.63063 0.56536
 H941 H 0.94801 0.61407 0.55890
 C942 C 0.92758 0.67305 0.58291
 C943 C 0.94370 0.43136 0.63553
 H944 H 0.94977 0.43762 0.61914
 C945 C 0.92707 0.41489 0.67754
 C946 C 1.06531 0.55244 0.63245
 H947 H 1.05990 0.54740 0.61561
 C948 C 1.07965 0.56631 0.67573
 C949 C 0.93874 0.36017 0.56074
 H950 H 0.94414 0.37744 0.55589
 C951 C 0.92399 0.31581 0.57353
 C952 C 1.06107 0.63064 0.55777
 H953 H 1.05615 0.61347 0.55249
 C954 C 1.07415 0.67469 0.57220
 C955 C 0.86484 0.43491 0.56416
 H956 H 0.88191 0.43949 0.55815
 C957 C 0.82110 0.42246 0.58058
 C958 C 1.13255 0.55494 0.55340
 H959 H 1.11580 0.54869 0.54835
 C960 C 1.17545 0.57208 0.56719
 O961 O 0.48343 0.91781 0.38744
 O962 O 0.48495 0.89060 0.36147
 C963 C 0.47634 0.90919 0.36895
 C964 C 0.45740 0.92047 0.35638
 C965 C 0.45044 0.91205 0.33518
 H966 H 0.45958 0.89775 0.32754
 O967 O 0.52698 1.07769 0.38464
 O968 O 0.52818 1.10390 0.35723
 C969 C 0.53586 1.08553 0.36634
 C970 C 0.55577 1.07358 0.35595
 C971 C 0.56422 1.08048 0.33447
 H972 H 0.55524 1.09375 0.32506
 O973 O 0.38827 0.97482 0.41581
 O974 O 0.36194 0.97317 0.38908
 C975 C 0.37011 0.96590 0.40787
 C976 C 0.35875 0.94661 0.42048
 C977 C 0.33704 0.93844 0.41380
 H978 H 0.32820 0.94672 0.39979
 O979 O 0.62130 1.02136 0.42285
 O980 O 0.64929 1.02230 0.39738
 C981 C 0.63994 1.03006 0.41540
 C982 C 0.65022 1.04983 0.42757
 C983 C 0.67168 1.05900 0.42094
 H984 H 0.68135 1.05089 0.40740
 O985 O 0.42189 0.88200 0.47956
 O986 O 0.39581 0.85438 0.47826
 C987 C 0.41465 0.86319 0.47132
 C988 C 0.42793 0.85203 0.45291
 C989 C 0.42152 0.83022 0.44479
 H990 H 0.40756 0.82098 0.45304
 O991 O 0.58091 1.11434 0.47770
 O992 O 0.60679 1.14222 0.47763
 C993 C 0.58877 1.13314 0.46956
 C994 C 0.57721 1.14432 0.45017
 C995 C 0.58402 1.16636 0.44278
 H996 H 0.59733 1.17553 0.45186
 O997 O 0.41855 1.02013 0.38334
 O998 O 0.39270 1.01890 0.35614
 C999 C 0.41106 1.02732 0.36432
 C1000 C 0.42401 1.04582 0.35204
 C1001 C 0.41716 1.05417 0.33049
 H1002 H 0.40232 1.04671 0.32233
 O1003 O 0.59258 0.97560 0.39124
 O1004 O 0.62010 0.97604 0.36525
 C1005 C 0.60113 0.96804 0.37284
 C1006 C 0.58864 0.94978 0.36044
 C1007 C 0.59597 0.94231 0.33883
 H1008 H 0.61091 0.95016 0.33086
 O1009 O 0.52776 0.88765 0.42075
 O1010 O 0.52900 0.86044 0.39473
 C1011 C 0.53591 0.86877 0.41340
 C1012 C 0.55383 0.85645 0.42639
 C1013 C 0.56010 0.83401 0.42031
 H1014 H 0.55124 0.82545 0.40657
 O1015 O 0.48042 1.10961 0.41299
 O1016 O 0.48177 1.13589 0.38562
 C1017 C 0.47317 1.12829 0.40416
 C1018 C 0.45426 1.14113 0.41522
 C1019 C 0.44773 1.16281 0.40676
 H1020 H 0.45712 1.17052 0.39262
 O1021 O 0.38551 1.08177 0.47101
 O1022 O 0.35890 1.10880 0.46930
 C1023 C 0.36701 1.08969 0.46262
 C1024 C 0.35501 1.07682 0.44461
 C1025 C 0.33332 1.08395 0.43713
 H1026 H 0.32501 1.09855 0.44515
 O1027 O 0.61973 0.91753 0.48281
 O1028 O 0.64594 0.89012 0.48473
 C1029 C 0.63871 0.90892 0.47622
 C1030 C 0.65208 0.92054 0.45795
 C1031 C 0.67350 0.91195 0.45099
 H1032 H 0.68083 0.89719 0.45977
 O1033 O 0.48179 1.07753 0.38268
 O1034 O 0.48318 1.10374 0.35527
 C1035 C 0.47472 1.08532 0.36373
 C1036 C 0.45584 1.07348 0.35176
 C1037 C 0.44911 1.08117 0.33021
 H1038 H 0.45861 1.09501 0.32188
 O1039 O 0.52862 0.91874 0.38883
 O1040 O 0.52981 0.89157 0.36280
 C1041 C 0.53728 0.91043 0.37078
 C1042 C 0.55673 0.92231 0.35931
 C1043 C 0.56396 0.91544 0.33764
 H1044 H 0.55456 0.90207 0.32884
 O1045 O 0.62356 0.97629 0.42254
 O1046 O 0.65142 0.97676 0.39695
 C1047 C 0.64267 0.96866 0.41517
 C1048 C 0.65414 0.94967 0.42776
 C1049 C 0.67553 0.94070 0.42075
 H1050 H 0.68444 0.94861 0.40648
 O1051 O 0.38591 1.01993 0.41342
 O1052 O 0.35968 1.01864 0.38658
 C1053 C 0.36727 1.02724 0.40484
 C1054 C 0.35493 1.04642 0.41609
 C1055 C 0.33329 1.05409 0.40846
 H1056 H 0.32498 1.04529 0.39459
 O1057 O 0.41741 1.11320 0.47090
 O1058 O 0.39091 1.14028 0.46882
 C1059 C 0.40981 1.13170 0.46199
 C1060 C 0.42296 1.14287 0.44315
 C1061 C 0.41623 1.16435 0.43393
 H1062 H 0.40155 1.17333 0.44102
 O1063 O 0.58717 0.88705 0.48165
 O1064 O 0.61325 0.85951 0.48334
 C1065 C 0.59518 0.86800 0.47458
 C1066 C 0.58332 0.85598 0.45581
 C1067 C 0.58991 0.83366 0.44894
 H1068 H 0.60376 0.82479 0.45756
 O1069 O 0.59135 1.02014 0.39065
 O1070 O 0.61909 1.02084 0.36488
 C1071 C 0.59974 1.02794 0.37213
 C1072 C 0.58703 1.04561 0.35899
 C1073 C 0.59509 1.05264 0.33751
 H1074 H 0.61039 1.04474 0.33041
 O1075 O 0.41989 0.97547 0.38478
 O1076 O 0.39390 0.97383 0.35771
 C1077 C 0.41268 0.96694 0.36634
 C1078 C 0.42608 0.94849 0.35518
 C1079 C 0.41935 0.93982 0.33401
 H1080 H 0.40493 0.94761 0.32537
 O1081 O 0.52487 1.11058 0.41421
 O1082 O 0.52610 1.13683 0.38681
 C1083 C 0.53276 1.12938 0.40601
 C1084 C 0.55009 1.14247 0.41885
 C1085 C 0.55718 1.16455 0.41156
 H1086 H 0.54920 1.17239 0.39684
 O1087 O 0.48317 0.88659 0.41947
 O1088 O 0.48471 0.85945 0.39342
 C1089 C 0.47627 0.86741 0.41171
 C1090 C 0.45800 0.85430 0.42377
 C1091 C 0.45148 0.83243 0.41605
 H1092 H 0.46030 0.82489 0.40161
 O1093 O 0.61370 1.08406 0.48035
 O1094 O 0.63953 1.11198 0.48041
 C1095 C 0.63260 1.09257 0.47324
 C1096 C 0.64651 1.08017 0.45606
 C1097 C 0.66811 1.08877 0.44947
 H1098 H 0.67497 1.10401 0.45760
 O1099 O 0.38987 0.91289 0.47757
 O1100 O 0.36356 0.88546 0.47653
 C1101 C 0.37163 0.90457 0.46916
 C1102 C 0.35963 0.91698 0.45053
 C1103 C 0.33776 0.90958 0.44388
 H1104 H 0.32953 0.89528 0.45275
 Cu1105 Cu 0.50556 0.90557 0.40664
 Cu1106 Cu 0.50727 0.87286 0.37542
 Cu1107 Cu 0.50346 1.09109 0.40130
 Cu1108 Cu 0.50491 1.12261 0.36836
 Cu1109 Cu 0.40566 0.99781 0.40207
 Cu1110 Cu 0.37435 0.99594 0.36973
 Cu1111 Cu 0.60456 0.99821 0.40951
 Cu1112 Cu 0.63788 0.99909 0.37861
 C1113 C 0.44521 0.93882 0.36615
 H1114 H 0.45026 0.94516 0.38266
 C1115 C 0.43131 0.92139 0.32401
 C1116 C 0.56722 1.05602 0.36802
 H1117 H 0.56105 1.05087 0.38474
 C1118 C 0.58400 1.07014 0.32522
 C1119 C 0.36991 0.93574 0.43893
 H1120 H 0.38683 0.94154 0.44397
 C1121 C 0.32650 0.91996 0.42553
 C1122 C 0.63783 1.06052 0.44523
 H1123 H 0.62104 1.05397 0.45011
 C1124 C 0.68062 1.07859 0.43179
 C1125 C 0.44629 0.86388 0.44236
 H1126 H 0.45106 0.88091 0.44821
 C1127 C 0.43314 0.82043 0.42619
 C1128 C 0.56009 1.13257 0.43825
 H1129 H 0.55496 1.11541 0.44376
 C1130 C 0.57431 1.17651 0.42343
 C1131 C 0.44340 1.05566 0.36242
 H1132 H 0.44855 1.04981 0.37918
 C1133 C 0.42977 1.07194 0.31952
 C1134 C 0.56898 0.93965 0.37046
 H1135 H 0.56346 0.94492 0.38726
 C1136 C 0.58356 0.92514 0.32735
 C1137 C 0.56527 0.86719 0.44435
 H1138 H 0.56038 0.88454 0.44911
 C1139 C 0.57815 0.82260 0.43124
 C1140 C 0.44202 1.13144 0.43362
 H1141 H 0.44701 1.11466 0.44017
 C1142 C 0.42867 1.17436 0.41574
 C1143 C 0.36553 1.05788 0.43422
 H1144 H 0.38236 1.05244 0.43990
 C1145 C 0.32239 1.07290 0.41904
 C1146 C 0.64274 0.93953 0.44644
 H1147 H 0.62608 0.94602 0.45167
 C1148 C 0.68531 0.92170 0.43233
 O1149 O 0.51943 0.91928 0.61409
 O1150 O 0.51903 0.89337 0.64179
 C1151 C 0.52668 0.91207 0.63322
 C1152 C 0.54457 0.92510 0.64553
 C1153 C 0.55075 0.91831 0.66760
 H1154 H 0.54177 0.90413 0.67593
 O1155 O 0.47202 1.08372 0.60937
 O1156 O 0.47018 1.11026 0.63599
 C1157 C 0.46323 1.09132 0.62763
 C1158 C 0.44443 1.07820 0.63889
 C1159 C 0.43656 1.08431 0.66066
 H1160 H 0.44485 1.09823 0.66965
 O1161 O 0.38007 1.02197 0.57553
 O1162 O 0.35237 1.02221 0.60129
 C1163 C 0.36119 1.03008 0.58294
 C1164 C 0.34993 1.04927 0.57026
 C1165 C 0.32817 1.05776 0.57679
 H1166 H 0.31902 1.04950 0.59071
 O1167 O 0.61393 0.98037 0.58610
 O1168 O 0.63960 0.98115 0.61347
 C1169 C 0.63230 0.97270 0.59497
 C1170 C 0.64476 0.95342 0.58373
 C1171 C 0.66629 0.94561 0.59162
 H1172 H 0.67438 0.95415 0.60578
 O1173 O 0.58457 0.88730 0.52594
 O1174 O 0.61077 0.85986 0.52761
 C1175 C 0.59179 0.86834 0.53422
 C1176 C 0.57832 0.85620 0.55206
 C1177 C 0.58443 0.83380 0.55878
 H1178 H 0.59847 0.82507 0.55023
 O1179 O 0.41545 1.11427 0.51559
 O1180 O 0.38882 1.14124 0.51346
 C1181 C 0.40685 1.13311 0.52255
 C1182 C 0.41718 1.14528 0.54205
 C1183 C 0.40688 1.16543 0.55028
 H1184 H 0.39215 1.17263 0.54155
 O1185 O 0.41085 0.97719 0.60794
 O1186 O 0.38336 0.97706 0.63396
 C1187 C 0.40243 0.96940 0.62649
 C1188 C 0.41500 0.95119 0.63926
 C1189 C 0.40756 0.94388 0.66103
 H1190 H 0.39260 0.95174 0.66880
 O1191 O 0.58016 1.02586 0.61426
 O1192 O 0.60541 1.02670 0.64202
 C1193 C 0.58710 1.03428 0.63288
 C1194 C 0.57405 1.05344 0.64365
 C1195 C 0.58104 1.06252 0.66465
 H1196 H 0.59541 1.05470 0.67335
 O1197 O 0.47634 0.88459 0.58369
 O1198 O 0.47631 0.85884 0.61154
 C1199 C 0.46878 0.86591 0.59253
 C1200 C 0.45057 0.85264 0.58093
 C1201 C 0.44318 0.83122 0.58958
 H1202 H 0.45158 0.82389 0.60437
 O1203 O 0.51675 1.11711 0.57972
 O1204 O 0.51513 1.14407 0.60592
 C1205 C 0.52384 1.13609 0.58773
 C1206 C 0.54290 1.14839 0.57598
 C1207 C 0.55073 1.16998 0.58355
 H1208 H 0.54199 1.17826 0.59757
 O1209 O 0.38708 0.91284 0.52154
 O1210 O 0.36076 0.88543 0.52054
 C1211 C 0.36794 0.90458 0.52817
 C1212 C 0.35417 0.91730 0.54515
 C1213 C 0.33238 0.90934 0.55188
 H1214 H 0.32531 0.89397 0.54417
 O1215 O 0.61096 1.08535 0.52456
 O1216 O 0.63668 1.11338 0.52436
 C1217 C 0.62890 1.09458 0.53262
 C1218 C 0.64063 1.08382 0.55215
 C1219 C 0.65964 1.09477 0.56169
 H1220 H 0.66611 1.11072 0.55424
 O1221 O 0.51699 1.08536 0.61090
 O1222 O 0.51524 1.11210 0.63731
 C1223 C 0.52409 1.09369 0.62952
 C1224 C 0.54321 1.08224 0.64198
 C1225 C 0.55048 1.09089 0.66300
 H1226 H 0.54160 1.10547 0.67041
 O1227 O 0.47453 0.91881 0.61173
 O1228 O 0.47430 0.89310 0.63963
 C1229 C 0.46624 0.91129 0.63039
 C1230 C 0.44668 0.92343 0.64123
 C1231 C 0.43938 0.91695 0.66310
 H1232 H 0.44864 0.90368 0.67238
 O1233 O 0.61338 1.02554 0.58493
 O1234 O 0.63887 1.02677 0.61246
 C1235 C 0.63132 1.03427 0.59356
 C1236 C 0.64252 1.05410 0.58182
 C1237 C 0.66195 1.06516 0.59097
 H1238 H 0.66982 1.05849 0.60631
 O1239 O 0.38046 0.97671 0.57613
 O1240 O 0.35275 0.97667 0.60191
 C1241 C 0.36170 0.96854 0.58393
 C1242 C 0.35089 0.94875 0.57236
 C1243 C 0.32914 0.94044 0.57908
 H1244 H 0.31958 0.94953 0.59205
 O1245 O 0.57912 1.11647 0.52205
 O1246 O 0.60498 1.14437 0.52166
 C1247 C 0.58629 1.13584 0.52920
 C1248 C 0.57321 1.14822 0.54701
 C1249 C 0.58058 1.16989 0.55455
 H1250 H 0.59536 1.17809 0.54654
 O1251 O 0.41801 0.88076 0.52400
 O1252 O 0.39195 0.85315 0.52298
 C1253 C 0.40983 0.86185 0.53174
 C1254 C 0.42122 0.85051 0.55148
 C1255 C 0.41361 0.82914 0.56069
 H1256 H 0.39946 0.82015 0.55284
 O1257 O 0.58053 0.98086 0.61537
 O1258 O 0.60585 0.98141 0.64309
 C1259 C 0.58761 0.97331 0.63439
 C1260 C 0.57466 0.95462 0.64613
 C1261 C 0.58088 0.94722 0.66808
 H1262 H 0.59476 0.95579 0.67681
 O1263 O 0.41132 1.02198 0.60672
 O1264 O 0.38387 1.02193 0.63279
 C1265 C 0.40291 1.02963 0.62512
 C1266 C 0.41516 1.04789 0.63761
 C1267 C 0.40788 1.05395 0.65951
 H1268 H 0.39367 1.04480 0.66753
 O1269 O 0.47197 1.11626 0.57884
 O1270 O 0.47004 1.14302 0.60521
 C1271 C 0.46315 1.13475 0.58650
 C1272 C 0.44432 1.14621 0.57364
 C1273 C 0.43362 1.16648 0.58170
 H1274 H 0.43947 1.17412 0.59735
 O1275 O 0.52119 0.88679 0.58394
 O1276 O 0.52103 0.86078 0.61156
 C1277 C 0.52917 0.86846 0.59284
 C1278 C 0.54825 0.85627 0.58128
 C1279 C 0.55512 0.83402 0.58829
 H1280 H 0.54618 0.82538 0.60216
 O1281 O 0.61594 0.91912 0.52698
 O1282 O 0.64230 0.89185 0.52891
 C1283 C 0.63405 0.91092 0.53581
 C1284 C 0.64544 0.92348 0.55452
 C1285 C 0.66700 0.91635 0.56229
 H1286 H 0.67559 0.90202 0.55409
 O1287 O 0.38417 1.08252 0.51517
 O1288 O 0.35747 1.10947 0.51335
 C1289 C 0.36513 1.09079 0.52193
 C1290 C 0.35203 1.07884 0.54029
 C1291 C 0.33030 1.08687 0.54690
 H1292 H 0.32282 1.10151 0.53807
 Cu1293 Cu 0.49794 0.90491 0.59555
 Cu1294 Cu 0.49768 0.87401 0.62896
 Cu1295 Cu 0.49456 1.09798 0.59208
 Cu1296 Cu 0.49246 1.13000 0.62379
 Cu1297 Cu 0.40697 0.89972 0.50089
 Cu1298 Cu 0.37544 0.86678 0.49940
 Cu1299 Cu 0.59923 0.90549 0.50411
 Cu1300 Cu 0.63071 0.87260 0.50643
 Cu1301 Cu 0.40341 1.09533 0.49327
 Cu1302 Cu 0.37145 1.12775 0.49103
 Cu1303 Cu 0.59350 1.09726 0.50114
 Cu1304 Cu 0.62461 1.13078 0.50095
 Cu1305 Cu 0.39830 0.99946 0.58889
 Cu1306 Cu 0.36524 0.99955 0.62002
 Cu1307 Cu 0.59458 1.00304 0.59737
 Cu1308 Cu 0.62500 1.00403 0.63053
 C1309 C 0.55642 0.94347 0.63500
 H1310 H 0.55184 0.94868 0.61789
 C1311 C 0.56898 0.92899 0.67884
 C1312 C 0.43365 1.05989 0.62751
 H1313 H 0.43927 1.05536 0.61053
 C1314 C 0.41825 1.07221 0.67098
 C1315 C 0.36160 1.05992 0.55192
 H1316 H 0.37849 1.05381 0.54700
 C1317 C 0.31830 1.07670 0.56518
 C1318 C 0.63458 0.94219 0.56515
 H1319 H 0.61786 0.94771 0.55922
 C1320 C 0.67752 0.92710 0.58079
 C1321 C 0.55999 0.86718 0.56315
 H1322 H 0.55522 0.88452 0.55799
 C1323 C 0.57316 0.82271 0.57691
 C1324 C 0.43603 1.13594 0.55367
 H1325 H 0.44378 1.12016 0.54754
 C1326 C 0.41481 1.17618 0.56998
 C1327 C 0.43459 0.94079 0.62953
 H1328 H 0.44018 0.94589 0.61260
 C1329 C 0.41984 0.92683 0.67301
 C1330 C 0.55504 1.06340 0.63251
 H1331 H 0.54974 1.05679 0.61619
 C1332 C 0.56944 1.08139 0.67438
 C1333 C 0.43971 0.86192 0.56179
 H1334 H 0.44538 0.87851 0.55520
 C1335 C 0.42469 0.81936 0.57981
 C1336 C 0.55419 1.13776 0.55763
 H1337 H 0.54860 1.12091 0.55202
 C1338 C 0.56970 1.18079 0.57292
 C1339 C 0.36315 0.93714 0.55530
 H1340 H 0.38009 0.94321 0.55034
 C1341 C 0.31983 0.92062 0.56893
 C1342 C 0.63228 1.06341 0.56216
 H1343 H 0.61723 1.05523 0.55505
 C1344 C 0.67042 1.08562 0.58087
 O1345 O 0.47680 0.41564 0.89169
 O1346 O 0.47664 0.38871 0.86542
 C1347 C 0.46899 0.40762 0.87322
 C1348 C 0.45082 0.42059 0.86095
 C1349 C 0.44276 0.41341 0.83956
 H1350 H 0.44998 0.39822 0.83164
 O1351 O 0.52139 0.58623 0.89276
 O1352 O 0.52161 0.61404 0.86689
 C1353 C 0.52916 0.59484 0.87433
 C1354 C 0.54733 0.58255 0.86156
 C1355 C 0.55420 0.59046 0.83997
 H1356 H 0.54580 0.60535 0.83245
 O1357 O 0.38968 0.47963 0.92198
 O1358 O 0.36270 0.47896 0.89581
 C1359 C 0.37096 0.47151 0.91448
 C1360 C 0.35857 0.45315 0.92737
 C1361 C 0.33630 0.44702 0.92087
 H1362 H 0.32806 0.45610 0.90694
 O1363 O 0.61299 0.52435 0.92002
 O1364 O 0.63914 0.52572 0.89270
 C1365 C 0.63134 0.53288 0.91167
 C1366 C 0.64343 0.55148 0.92412
 C1367 C 0.66489 0.55986 0.91650
 H1368 H 0.67301 0.55223 0.90176
 O1369 O 0.41781 0.38581 0.98512
 O1370 O 0.39051 0.35934 0.98533
 C1371 C 0.40953 0.36707 0.97769
 C1372 C 0.42173 0.35444 0.95951
 C1373 C 0.41415 0.33251 0.95313
 H1374 H 0.40001 0.32439 0.96228
 O1375 O 0.58345 0.61534 0.98325
 O1376 O 0.61000 0.64257 0.98260
 C1377 C 0.59120 0.63434 0.97536
 C1378 C 0.57854 0.64683 0.95732
 C1379 C 0.58609 0.66868 0.94998
 H1380 H 0.60078 0.67665 0.95804
 O1381 O 0.41854 0.52573 0.88901
 O1382 O 0.39168 0.52529 0.86277
 C1383 C 0.41008 0.53377 0.87069
 C1384 C 0.42173 0.55355 0.85912
 C1385 C 0.41456 0.56219 0.83777
 H1386 H 0.40051 0.55393 0.82899
 O1387 O 0.58172 0.47914 0.88942
 O1388 O 0.60757 0.48003 0.86184
 C1389 C 0.58935 0.47152 0.87065
 C1390 C 0.57706 0.45221 0.85942
 C1391 C 0.58389 0.44432 0.83779
 H1392 H 0.59783 0.45291 0.82882
 O1393 O 0.52239 0.38505 0.92268
 O1394 O 0.52256 0.35790 0.89663
 C1395 C 0.53075 0.36654 0.91466
 C1396 C 0.55075 0.35560 0.92604
 C1397 C 0.55959 0.33436 0.91848
 H1398 H 0.55089 0.32538 0.90500
 O1399 O 0.47618 0.61668 0.92438
 O1400 O 0.47627 0.64457 0.89862
 C1401 C 0.46808 0.63551 0.91671
 C1402 C 0.44839 0.64648 0.92851
 C1403 C 0.43977 0.66785 0.92096
 H1404 H 0.44853 0.67690 0.90728
 O1405 O 0.38206 0.58127 0.98323
 O1406 O 0.35441 0.60726 0.98347
 C1407 C 0.36320 0.58898 0.97547
 C1408 C 0.35207 0.57688 0.95639
 C1409 C 0.33006 0.58322 0.94861
 H1410 H 0.32054 0.59660 0.95728
 O1411 O 0.61867 0.42017 0.97821
 O1412 O 0.64580 0.39368 0.97889
 C1413 C 0.63742 0.41203 0.97043
 C1414 C 0.64880 0.42390 0.95085
 C1415 C 0.66998 0.41636 0.94165
 H1416 H 0.67891 0.40201 0.94950
 O1417 O 0.47686 0.58701 0.89170
 O1418 O 0.47717 0.61488 0.86589
 C1419 C 0.46941 0.59571 0.87325
 C1420 C 0.45118 0.58364 0.86053
 C1421 C 0.44429 0.59165 0.83908
 H1422 H 0.45294 0.60638 0.83138
 O1423 O 0.52137 0.41725 0.89217
 O1424 O 0.52144 0.39040 0.86580
 C1425 C 0.52907 0.40937 0.87355
 C1426 C 0.54738 0.42211 0.86097
 C1427 C 0.55419 0.41488 0.83929
 H1428 H 0.54552 0.40040 0.83151
 O1429 O 0.61496 0.47953 0.91856
 O1430 O 0.64097 0.48076 0.89111
 C1431 C 0.63367 0.47239 0.90983
 C1432 C 0.64672 0.45377 0.92131
 C1433 C 0.66795 0.44641 0.91265
 H1434 H 0.67526 0.45503 0.89784
 O1435 O 0.38753 0.52423 0.92107
 O1436 O 0.36062 0.52341 0.89482
 C1437 C 0.36832 0.53113 0.91342
 C1438 C 0.35487 0.54846 0.92608
 C1439 C 0.33278 0.55455 0.91890
 H1440 H 0.32534 0.54605 0.90433
 O1441 O 0.41369 0.61268 0.98285
 O1442 O 0.38626 0.63893 0.98297
 C1443 C 0.40527 0.63138 0.97522
 C1444 C 0.41755 0.64428 0.95694
 C1445 C 0.40926 0.66566 0.94920
 H1446 H 0.39402 0.67302 0.95697
 O1447 O 0.58603 0.38975 0.97891
 O1448 O 0.61292 0.36297 0.97972
 C1449 C 0.59413 0.37078 0.97179
 C1450 C 0.58178 0.35789 0.95388
 C1451 C 0.59019 0.33662 0.94621
 H1452 H 0.60551 0.32936 0.95382
 O1453 O 0.58148 0.52445 0.88918
 O1454 O 0.60736 0.52547 0.86162
 C1455 C 0.58891 0.53295 0.87052
 C1456 C 0.57638 0.55221 0.85951
 C1457 C 0.58310 0.56047 0.83790
 H1458 H 0.59673 0.55175 0.82881
 O1459 O 0.42027 0.48028 0.88980
 O1460 O 0.39344 0.47993 0.86349
 C1461 C 0.41214 0.47220 0.87152
 C1462 C 0.42392 0.45298 0.85990
 C1463 C 0.41668 0.44603 0.83835
 H1464 H 0.40336 0.45566 0.82964
 O1465 O 0.52137 0.61747 0.92403
 O1466 O 0.52147 0.64543 0.89834
 C1467 C 0.52934 0.63651 0.91648
 C1468 C 0.54843 0.64802 0.92854
 C1469 C 0.55647 0.66982 0.92126
 H1470 H 0.54787 0.67869 0.90748
 O1471 O 0.47719 0.38441 0.92375
 O1472 O 0.47709 0.35726 0.89772
 C1473 C 0.46929 0.36552 0.91619
 C1474 C 0.45050 0.35360 0.92895
 C1475 C 0.44212 0.33181 0.92233
 H1476 H 0.44982 0.32306 0.90797
 O1477 O 0.61402 0.58268 0.98277
 O1478 O 0.64057 0.60990 0.98210
 C1479 C 0.63242 0.59110 0.97445
 C1480 C 0.64408 0.57941 0.95521
 C1481 C 0.66562 0.58718 0.94754
 H1482 H 0.67418 0.60109 0.95636
 O1483 O 0.38710 0.41807 0.98415
 O1484 O 0.35956 0.39188 0.98401
 C1485 C 0.36842 0.41040 0.97605
 C1486 C 0.35721 0.42305 0.95698
 C1487 C 0.33514 0.41667 0.94950
 H1488 H 0.32598 0.40262 0.95781
 Cu1489 Cu 0.49927 0.40313 0.91029
 Cu1490 Cu 0.49944 0.37078 0.87885
 Cu1491 Cu 0.49892 0.59915 0.91090
 Cu1492 Cu 0.49923 0.63264 0.87996
 Cu1493 Cu 0.40691 0.50268 0.90791
 Cu1494 Cu 0.37450 0.50175 0.87651
 Cu1495 Cu 0.59515 0.50172 0.90696
 Cu1496 Cu 0.62630 0.50314 0.87401
 C1497 C 0.44122 0.44040 0.87092
 H1498 H 0.44680 0.44574 0.88761
 C1499 C 0.42572 0.42623 0.82820
 C1500 C 0.55837 0.56328 0.87114
 H1501 H 0.55333 0.55726 0.88794
 C1502 C 0.57214 0.57972 0.82809
 C1503 C 0.36881 0.44134 0.94572
 H1504 H 0.38600 0.44609 0.95090
 C1505 C 0.32465 0.42879 0.93157
 C1506 C 0.63321 0.56137 0.94354
 H1507 H 0.61648 0.55539 0.94927
 C1508 C 0.67603 0.57775 0.92818
 C1509 C 0.44013 0.36469 0.94760
 H1510 H 0.44595 0.38170 0.95249
 C1511 C 0.42395 0.32120 0.93452
 C1512 C 0.55953 0.63671 0.94666
 H1513 H 0.55376 0.61973 0.95207
 C1514 C 0.57541 0.68016 0.93186
 C1515 C 0.44004 0.56447 0.87021
 H1516 H 0.44536 0.55832 0.88681
 C1517 C 0.42597 0.58125 0.82761
 C1518 C 0.55873 0.44096 0.87081
 H1519 H 0.55361 0.44656 0.88762
 C1520 C 0.57244 0.42563 0.82766
 C1521 C 0.56195 0.36713 0.94381
 H1522 H 0.55550 0.38366 0.94947
 C1523 C 0.57942 0.32480 0.92845
 C1524 C 0.43722 0.63491 0.94659
 H1525 H 0.44355 0.61826 0.95226
 C1526 C 0.42005 0.67745 0.93110
 C1527 C 0.36424 0.55945 0.94500
 H1528 H 0.38137 0.55482 0.95052
 C1529 C 0.32034 0.57196 0.92983
 C1530 C 0.63749 0.44263 0.94052
 H1531 H 0.62102 0.44828 0.94714
 C1532 C 0.67969 0.42772 0.92250
 O1533 O 0.52396 0.41690 1.11736
 O1534 O 0.52548 0.38903 1.14310
 C1535 C 0.53250 0.40835 1.13542
 C1536 C 0.55085 0.42105 1.14738
 C1537 C 0.55911 0.41348 1.16866
 H1538 H 0.55189 0.39820 1.17672
 O1539 O 0.47429 0.58616 1.11908
 O1540 O 0.47407 0.61352 1.14491
 C1541 C 0.46644 0.59447 1.13754
 C1542 C 0.44816 0.58166 1.15015
 C1543 C 0.43948 0.58931 1.17127
 H1544 H 0.44646 0.60474 1.17887
 O1545 O 0.38745 0.52129 1.09069
 O1546 O 0.36061 0.52059 1.11738
 C1547 C 0.36852 0.52862 1.09870
 C1548 C 0.35575 0.54689 1.08638
 C1549 C 0.33435 0.55439 1.09459
 H1550 H 0.32687 0.54638 1.10965
 O1551 O 0.61249 0.48130 1.08547
 O1552 O 0.63901 0.48088 1.11210
 C1553 C 0.63123 0.47350 1.09331
 C1554 C 0.64404 0.45553 1.08065
 C1555 C 0.66588 0.44869 1.08798
 H1556 H 0.67353 0.45698 1.10256
 O1557 O 0.58598 0.38981 1.02303
 O1558 O 0.61288 0.36302 1.02396
 C1559 C 0.59387 0.37105 1.03114
 C1560 C 0.58085 0.35859 1.04919
 C1561 C 0.58739 0.33619 1.05590
 H1562 H 0.60172 0.32782 1.04753
 O1563 O 0.41352 0.61308 1.02687
 O1564 O 0.38611 0.63937 1.02704
 C1565 C 0.40518 0.63179 1.03439
 C1566 C 0.41756 0.64465 1.05214
 C1567 C 0.40992 0.66650 1.05883
 H1568 H 0.39525 0.67426 1.05048
 O1569 O 0.41898 0.47647 1.12207
 O1570 O 0.39220 0.47536 1.14878
 C1571 C 0.41097 0.46793 1.14048
 C1572 C 0.42351 0.44876 1.15175
 C1573 C 0.41655 0.43977 1.17306
 H1574 H 0.40219 0.44748 1.18197
 O1575 O 0.58110 0.52564 1.11745
 O1576 O 0.60745 0.52554 1.14422
 C1577 C 0.58882 0.53340 1.13604
 C1578 C 0.57603 0.55198 1.14789
 C1579 C 0.58283 0.55993 1.16940
 H1580 H 0.59740 0.55213 1.17786
 O1581 O 0.47836 0.38594 1.08695
 O1582 O 0.47990 0.35811 1.11272
 C1583 C 0.47106 0.36679 1.09491
 C1584 C 0.45167 0.35477 1.08378
 C1585 C 0.44428 0.33313 1.09180
 H1586 H 0.45340 0.32481 1.10563
 O1587 O 0.51948 0.61654 1.08648
 O1588 O 0.51954 0.64408 1.11213
 C1589 C 0.52762 0.63535 1.09400
 C1590 C 0.54708 0.64673 1.08181
 C1591 C 0.55517 0.66854 1.08858
 H1592 H 0.54650 0.67752 1.10222
 O1593 O 0.38586 0.41779 1.02877
 O1594 O 0.35833 0.39157 1.02877
 C1595 C 0.36690 0.41004 1.03655
 C1596 C 0.35521 0.42233 1.05531
 C1597 C 0.33299 0.41588 1.06263
 H1598 H 0.32386 0.40237 1.05383
 O1599 O 0.61678 0.58517 1.02730
 O1600 O 0.64334 0.61235 1.02669
 C1601 C 0.63541 0.59364 1.03490
 C1602 C 0.64720 0.58172 1.05396
 C1603 C 0.66879 0.58898 1.06224
 H1604 H 0.67768 0.60327 1.05408
 O1605 O 0.51880 0.58448 1.11714
 O1606 O 0.51882 0.61171 1.14315
 C1607 C 0.52652 0.59274 1.13546
 C1608 C 0.54507 0.58052 1.14762
 C1609 C 0.55164 0.58770 1.16927
 H1610 H 0.54244 0.60163 1.17751
 O1611 O 0.47929 0.41716 1.11816
 O1612 O 0.48081 0.38940 1.14403
 C1613 C 0.47241 0.40832 1.13683
 C1614 C 0.45399 0.41984 1.14992
 C1615 C 0.44722 0.41142 1.17135
 H1616 H 0.45620 0.39688 1.17886
 O1617 O 0.61393 0.52601 1.08725
 O1618 O 0.64032 0.52549 1.11402
 C1619 C 0.63269 0.53346 1.09542
 C1620 C 0.64557 0.55187 1.08341
 C1621 C 0.66720 0.55878 1.09108
 H1622 H 0.67485 0.54997 1.10550
 O1623 O 0.38821 0.47668 1.09033
 O1624 O 0.36124 0.47602 1.11689
 C1625 C 0.36932 0.46884 1.09812
 C1626 C 0.35663 0.45111 1.08537
 C1627 C 0.33435 0.44480 1.09213
 H1628 H 0.32626 0.45335 1.10643
 O1629 O 0.58250 0.61374 1.02750
 O1630 O 0.60884 0.64117 1.02677
 C1631 C 0.59017 0.63280 1.03476
 C1632 C 0.57751 0.64529 1.05284
 C1633 C 0.58500 0.66716 1.05963
 H1634 H 0.59971 0.67507 1.05123
 O1635 O 0.41656 0.38555 1.02936
 O1636 O 0.38928 0.35909 1.02974
 C1637 C 0.40810 0.36694 1.03743
 C1638 C 0.42037 0.35480 1.05617
 C1639 C 0.41289 0.33320 1.06479
 H1640 H 0.39811 0.32488 1.05735
 O1641 O 0.58185 0.48044 1.11765
 O1642 O 0.60823 0.48046 1.14441
 C1643 C 0.58981 0.47245 1.13618
 C1644 C 0.57809 0.45312 1.14794
 C1645 C 0.58553 0.44584 1.16944
 H1646 H 0.59907 0.45523 1.17795
 O1647 O 0.41870 0.52178 1.12172
 O1648 O 0.39198 0.52073 1.14850
 C1649 C 0.41031 0.52936 1.14019
 C1650 C 0.42142 0.54907 1.15161
 C1651 C 0.41342 0.55655 1.17282
 H1652 H 0.39984 0.54702 1.18147
 O1653 O 0.47443 0.61592 1.08582
 O1654 O 0.47431 0.64347 1.11147
 C1655 C 0.46650 0.63480 1.09329
 C1656 C 0.44752 0.64628 1.08098
 C1657 C 0.43953 0.66812 1.08759
 H1658 H 0.44818 0.67712 1.10111
 O1659 O 0.52331 0.38813 1.08371
 O1660 O 0.52462 0.36019 1.10939
 C1661 C 0.53163 0.36920 1.09078
 C1662 C 0.55001 0.35762 1.07769
 C1663 C 0.55645 0.33510 1.08364
 H1664 H 0.54728 0.32598 1.09710
 O1665 O 0.61664 0.42227 1.02289
 O1666 O 0.64374 0.39573 1.02384
 C1667 C 0.63509 0.41439 1.03130
 C1668 C 0.64614 0.42670 1.05043
 C1669 C 0.66790 0.41991 1.05835
 H1670 H 0.67712 0.40632 1.04970
 O1671 O 0.38332 0.58022 1.02793
 O1672 O 0.35582 0.60636 1.02831
 C1673 C 0.36469 0.58795 1.03625
 C1674 C 0.35374 0.57582 1.05587
 C1675 C 0.33244 0.58323 1.06455
 H1676 H 0.32339 0.59710 1.05604
 Cu1677 Cu 0.50112 0.40482 1.09896
 Cu1678 Cu 0.50289 0.37132 1.12981
 Cu1679 Cu 0.49662 0.59814 1.09950
 Cu1680 Cu 0.49673 0.63103 1.13044
 Cu1681 Cu 0.40450 0.40447 1.00690
 Cu1682 Cu 0.37162 0.37288 1.00689
 Cu1683 Cu 0.59930 0.40829 1.00065
 Cu1684 Cu 0.63161 0.37626 1.00172
 Cu1685 Cu 0.40075 0.59405 1.00518
 Cu1686 Cu 0.36779 0.62552 1.00548
 Cu1687 Cu 0.59669 0.59640 1.00530
 Cu1688 Cu 0.62834 0.62917 1.00446
 Cu1689 Cu 0.40619 0.49906 1.10367
 Cu1690 Cu 0.37388 0.49806 1.13566
 Cu1691 Cu 0.59459 0.50348 1.09936
 Cu1692 Cu 0.62635 0.50299 1.13140
 C1693 C 0.56051 0.44088 1.13720
 H1694 H 0.55475 0.44648 1.12056
 C1695 C 0.57641 0.42598 1.17976
 C1696 C 0.43896 0.56152 1.14059
 H1697 H 0.44510 0.55578 1.12415
 C1698 C 0.42207 0.57668 1.18269
 C1699 C 0.36523 0.55756 1.06689
 H1700 H 0.38186 0.55201 1.06061
 C1701 C 0.32278 0.57270 1.08405
 C1702 C 0.63438 0.44462 1.06167
 H1703 H 0.61743 0.44968 1.05600
 C1704 C 0.67781 0.43085 1.07718
 C1705 C 0.56206 0.36918 1.06018
 H1706 H 0.55723 0.38665 1.05555
 C1707 C 0.57518 0.32444 1.07312
 C1708 C 0.43650 0.63476 1.06314
 H1709 H 0.44230 0.61775 1.05821
 C1710 C 0.42060 0.67827 1.07661
 C1711 C 0.44227 0.43868 1.14044
 H1712 H 0.44741 0.44512 1.12382
 C1713 C 0.42845 0.42105 1.18295
 C1714 C 0.55709 0.56243 1.13719
 H1715 H 0.55206 0.55689 1.12040
 C1716 C 0.57055 0.57778 1.18013
 C1717 C 0.43977 0.36533 1.06585
 H1718 H 0.44542 0.38210 1.05969
 C1719 C 0.42490 0.32226 1.08267
 C1720 C 0.55837 0.63529 1.06387
 H1721 H 0.55257 0.61833 1.05880
 C1722 C 0.57418 0.67881 1.07752
 C1723 C 0.36683 0.44002 1.06676
 H1724 H 0.38411 0.44478 1.06156
 C1725 C 0.32251 0.42715 1.08108
 C1726 C 0.63590 0.56315 1.06471
 H1727 H 0.61912 0.55778 1.05887
 C1728 C 0.67892 0.57733 1.08085
 C1729 C 1.13249 1.14842 1.29733
 C1730 C 1.13690 1.13025 1.28241
 C1731 C 1.12243 1.12454 1.26253
 C1732 C 1.12587 1.10319 1.25198
 C1733 C 1.11289 1.09686 1.23317
 C1734 C 1.09594 1.11174 1.22443
 C1735 C 1.09280 1.13334 1.23460
 C1736 C 1.10584 1.13971 1.25349
 C1737 C 1.08234 1.10566 1.20407
 C1738 C 1.07877 1.08281 1.19761
 H1739 H 1.15136 1.11899 1.28585
 H1740 H 1.13877 1.09132 1.25828
 H1741 H 1.11667 1.08050 1.22525
 H1742 H 1.08022 1.14533 1.22790
 H1743 H 1.10303 1.15663 1.26057
 H1744 H 1.07574 1.11955 1.19355
 H1745 H 1.11776 1.15945 1.29467
 H1746 H 1.08475 1.06900 1.20855
 C1747 C 1.14972 0.62696 0.80049
 C1748 C 1.13211 0.63162 0.78509
 C1749 C 1.12652 0.61699 0.76519
 C1750 C 1.10566 0.62091 0.75399
 C1751 C 1.09959 0.60798 0.73500
 C1752 C 1.11423 0.59058 0.72671
 C1753 C 1.13532 0.58691 0.73762
 C1754 C 1.14142 0.59989 0.75669
 C1755 C 1.10848 0.57711 0.70607
 C1756 C 1.08589 0.57434 0.69868
 H1757 H 1.12134 0.64656 0.78808
 H1758 H 1.09400 0.63418 0.75986
 H1759 H 1.08365 0.61219 0.72659
 H1760 H 1.14714 0.57397 0.73133
 H1761 H 1.15796 0.59666 0.76432
 H1762 H 1.12243 0.56999 0.69606
 H1763 H 1.16027 0.61176 0.79856
 H1764 H 1.07197 0.58078 0.70914
 C1765 C 0.64626 1.13372 0.80034
 C1766 C 0.62689 1.13846 0.78702
 C1767 C 0.62000 1.12539 0.76646
 C1768 C 0.60182 1.13407 0.75333
 C1769 C 0.59451 1.12262 0.73383
 C1770 C 0.60509 1.10195 0.72703
 C1771 C 0.62338 1.09331 0.74002
 C1772 C 0.63070 1.10476 0.75959
 C1773 C 0.59811 1.08954 0.70613
 C1774 C 0.57637 1.09191 0.69628
 H1775 H 0.61619 1.15303 0.79161
 H1776 H 0.59332 1.14997 0.75805
 H1777 H 0.58092 1.13040 0.72395
 H1778 H 0.63195 1.07751 0.73509
 H1779 H 0.64460 1.09721 0.76917
 H1780 H 0.61069 1.07828 0.69843
 H1781 H 0.65750 1.11957 0.79600
 H1782 H 0.56379 1.10275 0.70457
 C1783 C 0.64903 0.64142 1.29527
 C1784 C 0.62807 0.64588 1.28517
 C1785 C 0.62087 0.63205 1.26536
 C1786 C 0.59878 0.63486 1.25643
 C1787 C 0.59160 0.62161 1.23799
 C1788 C 0.60643 0.60515 1.22820
 C1789 C 0.62863 0.60265 1.23690
 C1790 C 0.63578 0.61583 1.25530
 C1791 C 0.59984 0.59120 1.20828
 C1792 C 0.57706 0.58710 1.20241
 H1793 H 0.61667 0.65887 1.29215
 H1794 H 0.58706 0.64735 1.26370
 H1795 H 0.57464 0.62474 1.23126
 H1796 H 0.64049 0.59037 1.22949
 H1797 H 0.65305 0.61326 1.26156
 H1798 H 0.61344 0.58452 1.19753
 H1799 H 0.65237 0.64902 1.30638
 H1800 H 0.56335 0.59342 1.21318
 C1801 C 0.87233 0.85886 1.30066
 C1802 C 0.86279 0.87460 1.28533
 C1803 C 0.87419 0.88093 1.26360
 C1804 C 0.86879 0.90211 1.25329
 C1805 C 0.87953 0.90890 1.23301
 C1806 C 0.89601 0.89456 1.22262
 C1807 C 0.90077 0.87301 1.23248
 C1808 C 0.88998 0.86620 1.25275
 C1809 C 0.90786 0.90109 1.20116
 C1810 C 0.90976 0.92387 1.19355
 H1811 H 0.84694 0.88335 1.28976
 H1812 H 0.85631 0.91352 1.26104
 H1813 H 0.87452 0.92519 1.22546
 H1814 H 0.91295 0.86141 1.22454
 H1815 H 0.89387 0.84927 1.25958
 H1816 H 0.91518 0.88741 1.19100
 H1817 H 0.88884 0.85116 1.29689
 H1818 H 0.90268 0.93770 1.20364
 C1819 C 0.86481 0.37316 0.80467
 C1820 C 0.85352 0.38935 0.79120
 C1821 C 0.86634 0.39956 0.77186
 C1822 C 0.85996 0.39440 0.74952
 C1823 C 0.87423 0.40082 0.73124
 C1824 C 0.89471 0.41301 0.73510
 C1825 C 0.90050 0.41911 0.75734
 C1826 C 0.88665 0.41205 0.77565
 C1827 C 0.90926 0.42082 0.71595
 C1828 C 0.91705 0.40589 0.69903
 H1829 H 0.83505 0.39140 0.79238
 H1830 H 0.84444 0.38464 0.74631
 H1831 H 0.86920 0.39649 0.71409
 H1832 H 0.91607 0.42881 0.76057
 H1833 H 0.89193 0.41600 0.79281
 H1834 H 0.91399 0.43891 0.71515
 H1835 H 0.88264 0.36949 0.80054
 H1836 H 0.91510 0.38742 0.70131
 C1837 C 0.34790 0.86612 0.79777
 C1838 C 0.36573 0.86103 0.78265
 C1839 C 0.37143 0.87516 0.76221
 C1840 C 0.39295 0.87199 0.75184
 C1841 C 0.39927 0.88481 0.73259
 C1842 C 0.38420 0.90129 0.72325
 C1843 C 0.36241 0.90407 0.73323
 C1844 C 0.35606 0.89120 0.75255
 C1845 C 0.39031 0.91476 0.70249
 C1846 C 0.41308 0.91867 0.69592
 H1847 H 0.37676 0.84647 0.78648
 H1848 H 0.40496 0.85948 0.75865
 H1849 H 0.41580 0.88127 0.72487
 H1850 H 0.35028 0.91625 0.72606
 H1851 H 0.33900 0.89367 0.75949
 H1852 H 0.37654 0.92097 0.69176
 H1853 H 0.33713 0.88105 0.79498
 H1854 H 0.42680 0.91309 0.70699
 C1855 C 0.35109 0.36145 1.30567
 C1856 C 0.36891 0.35484 1.29108
 C1857 C 0.37671 0.36934 1.27153
 C1858 C 0.39873 0.36582 1.26238
 C1859 C 0.40646 0.37873 1.24361
 C1860 C 0.39222 0.39555 1.23348
 C1861 C 0.37005 0.39879 1.24243
 C1862 C 0.36234 0.38587 1.26119
 C1863 C 0.39925 0.40907 1.21296
 C1864 C 0.42195 0.41082 1.20523
 H1865 H 0.37769 0.33864 1.29416
 H1866 H 0.41000 0.35293 1.26975
 H1867 H 0.42335 0.37493 1.23691
 H1868 H 0.35854 0.41125 1.23474
 H1869 H 0.34490 0.38853 1.26707
 H1870 H 0.38584 0.41739 1.20321
 H1871 H 0.34342 0.37833 1.30353
 H1872 H 0.43555 0.40271 1.21483
 C1873 C 0.86326 1.12352 0.69532
 C1874 C 0.88005 1.13274 0.70908
 C1875 C 0.88859 1.11972 0.72886
 C1876 C 0.90703 1.12860 0.74125
 C1877 C 0.91502 1.11689 0.76044
 C1878 C 0.90461 1.09606 0.76750
 C1879 C 0.88606 1.08730 0.75524
 C1880 C 0.87819 1.09890 0.73599
 C1881 C 0.91172 1.08389 0.78832
 C1882 C 0.93400 1.08515 0.79669
 H1883 H 0.88678 1.14989 0.70551
 H1884 H 0.91510 1.14474 0.73621
 H1885 H 0.92883 1.12455 0.77003
 H1886 H 0.87763 1.07146 0.76060
 H1887 H 0.86375 1.09169 0.72694
 H1888 H 0.89868 1.07413 0.79744
 H1889 H 0.85813 1.13116 0.68508
 H1890 H 0.94696 1.09473 0.78724
 C1891 C 0.86050 0.64263 0.20307
 C1892 C 0.85070 0.62514 0.21637
 C1893 C 0.86177 0.61850 0.23815
 C1894 C 0.86280 0.59529 0.24495
 C1895 C 0.87506 0.58882 0.26445
 C1896 C 0.88644 0.60557 0.27760
 C1897 C 0.88434 0.62886 0.27132
 C1898 C 0.87215 0.63528 0.25191
 C1899 C 0.89998 0.59978 0.29826
 C1900 C 0.90698 0.57749 0.30399
 H1901 H 0.83581 0.61575 0.21045
 H1902 H 0.85463 0.58209 0.23485
 H1903 H 0.87536 0.57073 0.26905
 H1904 H 0.89240 0.64219 0.28135
 H1905 H 0.87096 0.65345 0.24763
 H1906 H 0.90423 0.61367 0.30974
 H1907 H 0.87664 0.64992 0.20876
 H1908 H 0.90282 0.56323 0.29303
 C1909 C 0.36883 1.12791 0.18973
 C1910 C 0.37792 1.13778 0.20919
 C1911 C 0.38433 1.12337 0.22913
 C1912 C 0.40160 1.13088 0.24382
 C1913 C 0.40746 1.11770 0.26299
 C1914 C 0.39590 1.09683 0.26798
 C1915 C 0.37811 1.08974 0.25371
 C1916 C 0.37244 1.10277 0.23444
 C1917 C 0.40144 1.08276 0.28839
 C1918 C 0.42363 1.08199 0.29714
 H1919 H 0.37901 1.15641 0.21043
 H1920 H 0.41061 1.14694 0.24043
 H1921 H 0.42066 1.12418 0.27413
 H1922 H 0.36864 1.07402 0.25744
 H1923 H 0.35832 1.09693 0.22406
 H1924 H 0.38776 1.07303 0.29658
 H1925 H 0.36852 1.10928 0.18843
 H1926 H 0.43711 1.09109 0.28794
 C1927 C 0.34794 0.64364 0.70849
 C1928 C 0.37079 0.64299 0.71552
 C1929 C 0.37772 0.63098 0.73696
 C1930 C 0.39994 0.62169 0.73868
 C1931 C 0.40649 0.60903 0.75801
 C1932 C 0.39098 0.60556 0.77624
 C1933 C 0.36888 0.61506 0.77463
 C1934 C 0.36239 0.62783 0.75540
 C1935 C 0.39722 0.59229 0.79710
 C1936 C 0.41975 0.59085 0.80500
 H1937 H 0.38406 0.64873 0.70374
 H1938 H 0.41210 0.62375 0.72477
 H1939 H 0.42354 0.60160 0.75836
 H1940 H 0.35664 0.61282 0.78845
 H1941 H 0.34535 0.63526 0.75521
 H1942 H 0.38344 0.58559 0.80776
 H1943 H 0.33493 0.63556 0.71912
 H1944 H 0.43316 0.59985 0.79564
 C1945 C 1.13229 0.84880 0.69893
 C1946 C 1.13874 0.86706 0.71294
 C1947 C 1.12684 0.87374 0.73428
 C1948 C 1.13756 0.89000 0.74826
 C1949 C 1.12696 0.89752 0.76822
 C1950 C 1.10515 0.88910 0.77460
 C1951 C 1.09455 0.87253 0.76088
 C1952 C 1.10517 0.86500 0.74083
 C1953 C 1.09339 0.89676 0.79566
 C1954 C 1.09756 0.91825 0.80557
 H1955 H 1.15378 0.87708 0.70814
 H1956 H 1.15432 0.89690 0.74375
 H1957 H 1.13614 0.90962 0.77873
 H1958 H 1.07782 0.86564 0.76552
 H1959 H 1.09612 0.85267 0.73050
 H1960 H 1.08096 0.88507 0.80321
 H1961 H 1.11794 0.83776 0.70342
 H1962 H 1.10961 0.92992 0.79734
 C1963 C 1.14382 0.37015 0.19886
 C1964 C 1.12445 0.36514 0.21228
 C1965 C 1.11748 0.37804 0.23284
 C1966 C 1.10054 0.36823 0.24702
 C1967 C 1.09299 0.37963 0.26647
 C1968 C 1.10205 0.40134 0.27208
 C1969 C 1.11921 0.41109 0.25812
 C1970 C 1.12678 0.39967 0.23857
 C1971 C 1.09451 0.41370 0.29275
 C1972 C 1.07267 0.41055 0.30236
 H1973 H 1.11392 0.35040 0.20789
 H1974 H 1.09320 0.35153 0.24314
 H1975 H 1.08039 0.37110 0.27725
 H1976 H 1.12658 0.42772 0.26220
 H1977 H 1.13960 0.40806 0.22799
 H1978 H 1.10665 0.42534 0.30047
 H1979 H 1.15506 0.38430 0.20322
 H1980 H 1.06056 0.39939 0.29389
 C1981 C 0.65439 0.86839 0.20056
 C1982 C 0.63669 0.86336 0.21600
 C1983 C 0.63130 0.87700 0.23662
 C1984 C 0.61117 0.87149 0.24877
 C1985 C 0.60505 0.88365 0.26825
 C1986 C 0.61887 0.90186 0.27605
 C1987 C 0.63931 0.90708 0.26427
 C1988 C 0.64548 0.89486 0.24469
 C1989 C 0.61281 0.91483 0.29689
 C1990 C 0.59014 0.91667 0.30460
 H1991 H 0.62565 0.84875 0.21249
 H1992 H 0.60010 0.85761 0.24321
 H1993 H 0.58971 0.87831 0.27737
 H1994 H 0.65047 0.92073 0.27018
 H1995 H 0.66141 0.89943 0.23625
 H1996 H 0.62657 0.92252 0.30656
 H1997 H 0.66561 0.88300 0.20310
 H1998 H 0.57648 0.90966 0.29434
 C1999 C 0.64381 0.36904 0.70076
 C2000 C 0.62511 0.36495 0.71533
 C2001 C 0.61961 0.37878 0.73584
 C2002 C 0.60165 0.37110 0.75005
 C2003 C 0.59548 0.38338 0.76947
 C2004 C 0.60702 0.40389 0.77510
 C2005 C 0.62525 0.41144 0.76118
 C2006 C 0.63143 0.39916 0.74165
 C2007 C 0.60086 0.41711 0.79576
 C2008 C 0.57871 0.41650 0.80505
 H2009 H 0.61385 0.35053 0.71174
 H2010 H 0.59238 0.35539 0.74620
 H2011 H 0.58196 0.37641 0.78023
 H2012 H 0.63457 0.42705 0.76529
 H2013 H 0.64530 0.40593 0.73127
 H2014 H 0.61416 0.42711 0.80389
 H2015 H 0.65558 0.38303 0.70409
 H2016 H 0.56546 0.40715 0.79613
 C2017 C 1.29885 1.12963 1.14837
 C2018 C 1.28216 1.13908 1.13419
 C2019 C 1.26118 1.12621 1.12798
 C2020 C 1.25056 1.13133 1.10725
 C2021 C 1.23135 1.11885 1.10033
 C2022 C 1.22234 1.10093 1.11407
 C2023 C 1.23229 1.09653 1.13530
 C2024 C 1.25156 1.10900 1.14222
 C2025 C 1.20215 1.08728 1.10701
 C2026 C 1.19683 1.08414 1.08419
 H2027 H 1.28523 1.15570 1.12611
 H2028 H 1.25734 1.14483 1.09623
 H2029 H 1.22347 1.12356 1.08434
 H2030 H 1.22528 1.08324 1.14643
 H2031 H 1.25867 1.10524 1.15878
 H2032 H 1.19101 1.08004 1.12008
 H2033 H 1.29637 1.11243 1.15531
 H2034 H 1.20835 1.09087 1.07120
 C2035 C 1.29594 0.62914 0.64789
 C2036 C 1.28631 0.63200 0.62634
 C2037 C 1.26646 0.61818 0.61836
 C2038 C 1.25308 0.62687 0.60048
 C2039 C 1.23395 0.61465 0.59277
 C2040 C 1.22793 0.59322 0.60265
 C2041 C 1.24140 0.58444 0.62039
 C2042 C 1.26058 0.59661 0.62804
 C2043 C 1.20725 0.58019 0.59558
 C2044 C 1.19770 0.58241 0.57394
 H2045 H 1.29283 0.64557 0.61523
 H2046 H 1.25719 0.64342 0.59272
 H2047 H 1.22363 0.62239 0.57953
 H2048 H 1.23714 0.56799 0.62828
 H2049 H 1.27080 0.58885 0.64134
 H2050 H 1.19938 0.56873 0.60799
 H2051 H 1.28869 0.61649 0.65953
 H2052 H 1.20622 0.59344 0.56155
 C2053 C 0.80772 1.12860 0.63187
 C2054 C 0.79240 1.13963 0.61734
 C2055 C 0.77149 1.12721 0.61030
 C2056 C 0.75014 1.13823 0.61181
 C2057 C 0.72988 1.12581 0.60829
 C2058 C 0.73068 1.10221 0.60265
 C2059 C 0.75211 1.09139 0.60063
 C2060 C 0.77234 1.10377 0.60430
 C2061 C 0.70962 1.08858 0.59841
 C2062 C 0.68972 1.09886 0.59023
 H2063 H 0.79359 1.15810 0.61450
 H2064 H 0.74910 1.15618 0.61671
 H2065 H 0.71368 1.13465 0.61061
 H2066 H 0.75322 1.07332 0.59615
 H2067 H 0.78867 1.09494 0.60274
 H2068 H 0.71066 1.06991 0.59902
 H2069 H 0.80450 1.11067 0.63631
 H2070 H 0.68962 1.11730 0.58708
 C2071 C 0.80126 0.65109 1.14390
 C2072 C 0.79042 0.62964 1.14529
 C2073 C 0.77011 0.62372 1.13112
 C2074 C 0.75589 0.60527 1.13783
 C2075 C 0.73668 0.59921 1.12491
 C2076 C 0.73139 0.61133 1.10472
 C2077 C 0.74559 0.62975 1.09798
 C2078 C 0.76486 0.63572 1.11081
 C2079 C 0.71084 0.60564 1.09091
 C2080 C 0.70160 0.58341 1.09050
 H2081 H 0.79697 0.61681 1.15709
 H2082 H 0.75946 0.59568 1.15330
 H2083 H 0.72578 0.58535 1.13111
 H2084 H 0.74194 0.63935 1.08254
 H2085 H 0.77570 0.64950 1.10440
 H2086 H 0.70279 0.61931 1.08116
 H2087 H 0.79428 0.66431 1.13288
 H2088 H 0.71051 0.56983 1.09961
 C2089 C 1.30331 0.85163 0.86623
 C2090 C 1.28891 0.87048 0.86224
 C2091 C 1.26986 0.87699 0.87768
 C2092 C 1.26144 0.89961 0.87652
 C2093 C 1.24324 0.90651 0.89043
 C2094 C 1.23303 0.89087 0.90595
 C2095 C 1.24116 0.86810 0.90684
 C2096 C 1.25941 0.86118 0.89288
 C2097 C 1.21289 0.89730 0.92007
 C2098 C 1.20736 0.92016 0.92482
 H2099 H 1.29227 0.88161 0.84768
 H2100 H 1.26891 0.91201 0.86469
 H2101 H 1.23690 0.92393 0.88837
 H2102 H 1.23325 0.85558 0.91824
 H2103 H 1.26481 0.84335 0.89373
 H2104 H 1.20139 0.88366 0.92576
 H2105 H 1.30092 0.84118 0.88139
 H2106 H 1.21897 0.93387 0.91969
 C2107 C 1.29512 0.34948 0.36419
 C2108 C 1.28580 0.37154 0.36189
 C2109 C 1.26598 0.37935 0.37567
 C2110 C 1.25196 0.39699 0.36707
 C2111 C 1.23261 0.40424 0.37922
 C2112 C 1.22711 0.39414 0.40043
 C2113 C 1.24131 0.37676 0.40919
 C2114 C 1.26071 0.36957 0.39709
 C2115 C 1.20613 0.40046 0.41319
 C2116 C 1.19582 0.42208 0.41105
 H2117 H 1.29238 0.38309 0.34878
 H2118 H 1.25567 0.40479 0.35064
 H2119 H 1.22169 0.41721 0.37158
 H2120 H 1.23743 0.36877 0.42550
 H2121 H 1.27152 0.35651 0.40470
 H2122 H 1.19856 0.38742 0.42418
 H2123 H 1.28767 0.33743 0.37632
 H2124 H 1.20405 0.43511 0.40049
 C2125 C 0.80928 0.86553 0.35408
 C2126 C 0.79913 0.86302 0.37554
 C2127 C 0.77820 0.87593 0.38256
 C2128 C 0.76512 0.86773 0.40109
 C2129 C 0.74537 0.87945 0.40826
 C2130 C 0.73838 0.89992 0.39719
 C2131 C 0.75147 0.90814 0.37871
 C2132 C 0.77125 0.89647 0.37159
 C2133 C 0.71726 0.91263 0.40390
 C2134 C 0.70758 0.91115 0.42568
 H2135 H 0.80660 0.85095 0.38756
 H2136 H 0.77005 0.85200 0.40987
 H2137 H 0.73542 0.87209 0.42213
 H2138 H 0.74651 0.92384 0.36989
 H2139 H 0.78113 0.90392 0.35773
 H2140 H 0.70924 0.92342 0.39114
 H2141 H 0.80139 0.87660 0.34148
 H2142 H 0.71612 0.90075 0.43843
 C2143 C 0.80172 0.35357 0.85735
 C2144 C 0.79188 0.37552 0.85816
 C2145 C 0.77132 0.38098 0.87231
 C2146 C 0.76828 0.40367 0.87991
 C2147 C 0.74924 0.40960 0.89329
 C2148 C 0.73240 0.39300 0.89905
 C2149 C 0.73556 0.37021 0.89166
 C2150 C 0.75471 0.36425 0.87835
 C2151 C 0.71137 0.39899 0.91235
 C2152 C 0.70213 0.42127 0.91221
 H2153 H 0.80081 0.38971 0.84981
 H2154 H 0.78088 0.41685 0.87570
 H2155 H 0.74796 0.42716 0.89924
 H2156 H 0.72291 0.35707 0.89582
 H2157 H 0.75617 0.34667 0.87248
 H2158 H 0.70179 0.38515 0.92052
 H2159 H 0.79421 0.33966 0.86730
 H2160 H 0.71049 0.43436 0.90185
 C2161 C 0.69866 0.85299 1.13091
 C2162 C 0.71410 0.87086 1.13524
 C2163 C 0.73350 0.87756 1.12004
 C2164 C 0.74501 0.89831 1.12446
 C2165 C 0.76353 0.90547 1.11094
 C2166 C 0.77097 0.89206 1.09246
 C2167 C 0.75981 0.87105 1.08826
 C2168 C 0.74121 0.86385 1.10183
 C2169 C 0.79103 0.89898 1.07827
 C2170 C 0.79802 0.92196 1.07610
 H2171 H 0.71155 0.88097 1.15047
 H2172 H 0.73974 0.90904 1.13857
 H2173 H 0.77227 0.92125 1.11548
 H2174 H 0.76551 0.86018 1.07443
 H2175 H 0.73332 0.84743 1.09812
 H2176 H 0.80095 0.88556 1.07010
 H2177 H 0.70016 0.84290 1.11561
 H2178 H 0.78760 0.93534 1.08368
 C2179 C 0.69097 0.35246 0.63608
 C2180 C 0.70592 0.37082 0.64040
 C2181 C 0.72669 0.37652 0.62663
 C2182 C 0.74129 0.39396 0.63450
 C2183 C 0.76112 0.40011 0.62241
 C2184 C 0.76675 0.38908 0.60189
 C2185 C 0.75235 0.37146 0.59407
 C2186 C 0.73243 0.36529 0.60618
 C2187 C 0.78791 0.39501 0.58892
 C2188 C 0.79822 0.41673 0.59021
 H2189 H 0.70250 0.38157 0.65504
 H2190 H 0.73747 0.40279 0.65025
 H2191 H 0.77220 0.41315 0.62953
 H2192 H 0.75643 0.36255 0.57843
 H2193 H 0.72174 0.35187 0.59926
 H2194 H 0.79555 0.38177 0.57845
 H2195 H 0.69402 0.34126 0.62179
 H2196 H 0.78986 0.43000 0.60011
 C2197 C 0.19325 0.86692 0.64535
 C2198 C 0.20619 0.86291 0.62566
 C2199 C 0.22671 0.87648 0.61879
 C2200 C 0.24169 0.86696 0.60263
 C2201 C 0.26127 0.87894 0.59544
 C2202 C 0.26615 0.90098 0.60404
 C2203 C 0.25131 0.91049 0.62035
 C2204 C 0.23165 0.89847 0.62756
 C2205 C 0.28696 0.91392 0.59690
 C2206 C 0.29731 0.91076 0.57566
 H2207 H 0.20176 0.84834 0.61510
 H2208 H 0.23840 0.85000 0.59571
 H2209 H 0.27274 0.87061 0.58352
 H2210 H 0.25480 0.92738 0.62731
 H2211 H 0.22034 0.90668 0.63969
 H2212 H 0.29425 0.92592 0.60886
 H2213 H 0.19787 0.88083 0.65660
 H2214 H 0.28923 0.89928 0.56367
 C2215 C 0.19399 0.35463 1.13588
 C2216 C 0.20867 0.37307 1.14057
 C2217 C 0.22946 0.37910 1.12695
 C2218 C 0.24293 0.39773 1.13413
 C2219 C 0.26265 0.40429 1.12207
 C2220 C 0.26929 0.39245 1.10230
 C2221 C 0.25611 0.37359 1.09525
 C2222 C 0.23632 0.36702 1.10731
 C2223 C 0.29037 0.39879 1.08943
 C2224 C 0.29937 0.42111 1.08968
 H2225 H 0.20480 0.38380 1.15512
 H2226 H 0.23829 0.40720 1.14929
 H2227 H 0.27285 0.41831 1.12865
 H2228 H 0.26106 0.36402 1.08024
 H2229 H 0.22669 0.35252 1.10099
 H2230 H 0.29917 0.38540 1.08006
 H2231 H 0.19740 0.34355 1.12158
 H2232 H 0.28999 0.43450 1.09848
 C2233 C 0.69681 1.14927 0.86254
 C2234 C 0.71166 1.13099 0.85749
 C2235 C 0.73278 1.12551 0.87058
 C2236 C 0.74900 1.11057 0.86086
 C2237 C 0.76907 1.10467 0.87246
 C2238 C 0.77332 1.11336 0.89432
 C2239 C 0.75726 1.12848 0.90401
 C2240 C 0.73711 1.13437 0.89240
 C2241 C 0.79449 1.10733 0.90706
 C2242 C 0.80605 1.08648 0.90370
 H2243 H 0.70810 1.12053 0.84273
 H2244 H 0.74625 1.10357 0.84407
 H2245 H 0.78137 1.09363 0.86401
 H2246 H 0.76015 1.13549 0.92077
 H2247 H 0.72497 1.14555 0.90085
 H2248 H 0.80067 1.11949 0.91945
 H2249 H 0.70057 1.16046 0.87665
 H2250 H 0.79862 1.07418 0.89210
 C2251 C 0.71274 0.64121 0.35078
 C2252 C 0.72254 0.64508 0.37192
 C2253 C 0.74152 0.63072 0.38051
 C2254 C 0.74304 0.62654 0.40392
 C2255 C 0.75999 0.61195 0.41254
 C2256 C 0.77610 0.60160 0.39781
 C2257 C 0.77475 0.60617 0.37440
 C2258 C 0.75770 0.62064 0.36579
 C2259 C 0.79491 0.58655 0.40596
 C2260 C 0.80054 0.58368 0.42881
 H2261 H 0.71446 0.65714 0.38347
 H2262 H 0.73074 0.63417 0.41554
 H2263 H 0.76004 0.60889 0.43066
 H2264 H 0.78703 0.59864 0.36268
 H2265 H 0.75740 0.62404 0.34768
 H2266 H 0.80616 0.57912 0.39324
 H2267 H 0.71952 0.62785 0.33989
 H2268 H 0.79069 0.59221 0.44188
 C2269 C 0.19677 1.12997 0.34453
 C2270 C 0.21083 1.13367 0.36338
 C2271 C 0.23131 1.11963 0.36936
 C2272 C 0.24565 1.12776 0.38662
 C2273 C 0.26498 1.11528 0.39333
 C2274 C 0.27036 1.09408 0.38311
 C2275 C 0.25630 1.08604 0.36555
 C2276 C 0.23685 1.09856 0.35882
 C2277 C 0.29090 1.08065 0.39002
 C2278 C 0.29972 1.08195 0.41201
 H2279 H 0.20694 1.14810 0.37436
 H2280 H 0.24199 1.14399 0.39492
 H2281 H 0.27587 1.12259 0.40626
 H2282 H 0.26020 1.06987 0.35726
 H2283 H 0.22622 1.09145 0.34561
 H2284 H 0.29932 1.07001 0.37744
 H2285 H 0.20053 1.11607 0.33294
 H2286 H 0.29032 1.09184 0.42454
 C2287 C 0.19609 0.64435 0.86780
 C2288 C 0.20955 0.62458 0.86539
 C2289 C 0.22930 0.61863 0.88020
 C2290 C 0.24390 0.60069 0.87339
 C2291 C 0.26282 0.59440 0.88651
 C2292 C 0.26749 0.60576 0.90703
 C2293 C 0.25304 0.62381 0.91385
 C2294 C 0.23401 0.63009 0.90072
 C2295 C 0.28783 0.59975 0.92094
 C2296 C 0.29743 0.57770 0.92066
 H2297 H 0.20584 0.61309 0.85143
 H2298 H 0.24083 0.59165 0.85764
 H2299 H 0.27401 0.58099 0.88017
 H2300 H 0.25636 0.63293 0.92950
 H2301 H 0.22310 0.64375 0.90694
 H2302 H 0.29567 0.61317 0.93099
 H2303 H 0.19958 0.65656 0.88112
 H2304 H 0.28879 0.56429 0.91125
 C2305 C 1.12756 1.30623 1.14907
 C2306 C 1.13319 1.29224 1.13066
 C2307 C 1.11955 1.27213 1.12317
 C2308 C 1.12634 1.26112 1.10308
 C2309 C 1.11442 1.24193 1.09522
 C2310 C 1.09518 1.23337 1.10723
 C2311 C 1.08853 1.24412 1.12751
 C2312 C 1.10051 1.26336 1.13542
 C2313 C 1.08261 1.21261 1.09972
 C2314 C 1.08301 1.20515 1.07723
 H2315 H 1.14853 1.29640 1.12088
 H2316 H 1.14112 1.26727 1.09346
 H2317 H 1.12079 1.23360 1.08006
 H2318 H 1.07401 1.23759 1.13726
 H2319 H 1.09484 1.27094 1.15120
 H2320 H 1.07343 1.20260 1.11250
 H2321 H 1.11228 1.30307 1.15914
 H2322 H 1.09175 1.21543 1.06438
 C2323 C 1.14432 0.80150 0.63047
 C2324 C 1.12745 0.78537 0.63637
 C2325 C 1.12138 0.76531 0.62203
 C2326 C 1.10077 0.75355 0.62664
 C2327 C 1.09436 0.73445 0.61380
 C2328 C 1.10843 0.72667 0.59585
 C2329 C 1.12930 0.73808 0.59153
 C2330 C 1.13576 0.75720 0.60443
 C2331 C 1.10244 0.70601 0.58233
 C2332 C 1.07995 0.69788 0.58063
 H2333 H 1.11780 0.78784 0.65199
 H2334 H 1.08959 0.75911 0.64034
 H2335 H 1.07865 0.72558 0.61848
 H2336 H 1.14070 0.73214 0.57816
 H2337 H 1.15219 0.76514 0.60073
 H2338 H 1.11622 0.69651 0.57422
 H2339 H 1.15358 0.80006 0.61456
 H2340 H 1.06607 0.70765 0.58818
 C2341 C 0.62453 1.30457 0.65202
 C2342 C 0.62911 1.29082 0.63310
 C2343 C 0.61528 1.27060 0.62605
 C2344 C 0.62390 1.25696 0.60833
 C2345 C 0.61167 1.23787 0.60064
 C2346 C 0.59025 1.23203 0.61034
 C2347 C 0.58171 1.24539 0.62832
 C2348 C 0.59399 1.26459 0.63604
 C2349 C 0.57709 1.21165 0.60260
 C2350 C 0.57921 1.20315 0.58051
 H2351 H 0.64413 1.29491 0.62283
 H2352 H 0.64034 1.26099 0.60046
 H2353 H 0.61934 1.22750 0.58741
 H2354 H 0.56537 1.24109 0.63623
 H2355 H 0.58655 1.27464 0.64961
 H2356 H 0.56588 1.20311 0.61477
 H2357 H 0.61007 1.30092 0.66310
 H2358 H 0.58982 1.21254 0.56838
 C2359 C 0.63248 0.80419 1.15103
 C2360 C 0.63554 0.79084 1.13159
 C2361 C 0.62139 0.77046 1.12567
 C2362 C 0.62941 0.75606 1.10830
 C2363 C 0.61685 0.73673 1.10178
 C2364 C 0.59567 0.73145 1.11230
 C2365 C 0.58770 0.74564 1.12988
 C2366 C 0.60032 0.76508 1.13644
 C2367 C 0.58219 0.71083 1.10576
 C2368 C 0.58365 0.70153 1.08397
 H2369 H 0.64969 0.79512 1.12023
 H2370 H 0.64565 0.75965 1.09983
 H2371 H 0.62409 0.72574 1.08880
 H2372 H 0.57153 0.74183 1.13837
 H2373 H 0.59329 0.77585 1.14968
 H2374 H 0.57136 0.70272 1.11856
 H2375 H 0.61903 0.80014 1.16320
 H2376 H 0.59382 0.71052 1.07119
 C2377 C 0.87065 1.30529 0.85024
 C2378 C 0.86284 1.28845 0.86544
 C2379 C 0.87707 1.26824 0.87160
 C2380 C 0.87396 1.25786 0.89299
 C2381 C 0.88771 1.23931 0.89968
 C2382 C 0.90488 1.23074 0.88500
 C2383 C 0.90730 1.24047 0.86323
 C2384 C 0.89358 1.25908 0.85656
 C2385 C 0.91954 1.21096 0.89154
 C2386 C 0.92406 1.20553 0.91417
 H2387 H 0.84652 1.29085 0.87409
 H2388 H 0.86103 1.26429 0.90466
 H2389 H 0.88450 1.23154 0.91618
 H2390 H 0.91995 1.23376 0.85141
 H2391 H 0.89579 1.26600 0.83954
 H2392 H 0.92617 1.19992 0.87825
 H2393 H 0.88762 1.30380 0.84274
 H2394 H 0.91793 1.21681 0.92747
 C2395 C 0.87385 0.81083 0.36672
 C2396 C 0.86276 0.79457 0.38047
 C2397 C 0.87445 0.77280 0.38700
 C2398 C 0.86898 0.76181 0.40766
 C2399 C 0.87999 0.74124 0.41393
 C2400 C 0.89658 0.73121 0.39947
 C2401 C 0.90139 0.74184 0.37849
 C2402 C 0.89050 0.76237 0.37230
 C2403 C 0.90845 0.70928 0.40510
 C2404 C 0.91075 0.70092 0.42727
 H2405 H 0.84514 0.79740 0.38585
 H2406 H 0.85630 0.76922 0.41902
 H2407 H 0.87507 0.73312 0.42986
 H2408 H 0.91367 0.73424 0.36682
 H2409 H 0.89440 0.76979 0.35577
 H2410 H 0.91558 0.69942 0.39118
 H2411 H 0.89185 0.80833 0.36259
 H2412 H 0.90383 0.71081 0.44124
 C2413 C 0.34809 1.28877 0.34877
 C2414 C 0.37119 1.28253 0.34859
 C2415 C 0.37908 1.26138 0.36056
 C2416 C 0.40064 1.26132 0.37108
 C2417 C 0.40755 1.24247 0.38442
 C2418 C 0.39306 1.22313 0.38723
 C2419 C 0.37175 1.22299 0.37624
 C2420 C 0.36490 1.24177 0.36287
 C2421 C 0.39950 1.20292 0.40144
 C2422 C 0.42227 1.19671 0.40533
 H2423 H 0.38387 1.29500 0.34275
 H2424 H 0.41185 1.27623 0.36962
 H2425 H 0.42393 1.24344 0.39295
 H2426 H 0.36038 1.20823 0.37794
 H2427 H 0.34844 1.24088 0.35446
 H2428 H 0.38596 1.19124 0.40697
 H2429 H 0.33568 1.27750 0.35703
 H2430 H 0.43592 1.20680 0.39753
 C2431 C 0.36699 0.80136 0.84915
 C2432 C 0.36261 0.78842 0.86889
 C2433 C 0.37592 0.76801 0.87644
 C2434 C 0.36671 0.75439 0.89413
 C2435 C 0.37853 0.73516 0.90233
 C2436 C 0.40009 0.72922 0.89319
 C2437 C 0.40924 0.74263 0.87529
 C2438 C 0.39737 0.76195 0.86704
 C2439 C 0.41287 0.70871 0.90136
 C2440 C 0.40989 0.69952 0.92326
 H2441 H 0.34804 0.79321 0.87940
 H2442 H 0.35015 0.75854 0.90158
 H2443 H 0.37041 0.72480 0.91550
 H2444 H 0.42574 0.73828 0.86784
 H2445 H 0.40526 0.77211 0.85361
 H2446 H 0.42467 0.70066 0.88958
 H2447 H 0.38086 0.79682 0.83772
 H2448 H 0.39853 0.70822 0.93504
 C2449 C 1.13264 0.69552 0.84706
 C2450 C 1.13776 0.70986 0.86540
 C2451 C 1.12487 0.73091 0.87195
 C2452 C 1.13417 0.74480 0.88905
 C2453 C 1.12270 0.76452 0.89648
 C2454 C 1.10139 0.77076 0.88715
 C2455 C 1.09222 0.75717 0.86973
 C2456 C 1.10374 0.73734 0.86226
 C2457 C 1.08885 0.79168 0.89472
 C2458 C 1.09162 0.80105 0.91642
 H2459 H 1.15252 0.70551 0.87572
 H2460 H 1.15050 0.74044 0.89670
 H2461 H 1.13087 0.77498 0.90926
 H2462 H 1.07594 0.76173 0.86208
 H2463 H 1.09584 0.72711 0.84916
 H2464 H 1.07721 0.79966 0.88277
 H2465 H 1.11852 0.69943 0.83583
 H2466 H 1.10264 0.79215 0.92836
 C2467 C 1.14787 0.19486 0.36357
 C2468 C 1.12909 0.20922 0.35930
 C2469 C 1.12226 0.22913 0.37355
 C2470 C 1.10088 0.23948 0.36944
 C2471 C 1.09367 0.25856 0.38192
 C2472 C 1.10768 0.26777 0.39904
 C2473 C 1.12922 0.25765 0.40299
 C2474 C 1.13646 0.23851 0.39045
 C2475 C 1.10088 0.28854 0.41209
 C2476 C 1.07806 0.29574 0.41425
 H2477 H 1.11838 0.20542 0.34479
 H2478 H 1.08972 0.23287 0.35632
 H2479 H 1.07738 0.26631 0.37756
 H2480 H 1.14052 0.26464 0.41579
 H2481 H 1.15331 0.23152 0.39387
 H2482 H 1.11440 0.29870 0.41966
 H2483 H 1.15856 0.19751 0.37827
 H2484 H 1.06453 0.28526 0.40716
 C2485 C 0.65220 0.70283 0.36616
 C2486 C 0.63160 0.71443 0.36332
 C2487 C 0.62512 0.73378 0.37838
 C2488 C 0.60405 0.74495 0.37510
 C2489 C 0.59769 0.76357 0.38873
 C2490 C 0.61227 0.77134 0.40613
 C2491 C 0.63341 0.76024 0.40934
 C2492 C 0.63975 0.74158 0.39573
 C2493 C 0.60653 0.79178 0.42010
 C2494 C 0.58398 0.79924 0.42330
 H2495 H 0.62012 0.70934 0.34979
 H2496 H 0.59258 0.73946 0.36174
 H2497 H 0.58165 0.77217 0.38504
 H2498 H 0.64506 0.76604 0.42240
 H2499 H 0.65621 0.73345 0.39871
 H2500 H 0.62051 0.80177 0.42710
 H2501 H 0.65554 0.69202 0.35707
 H2502 H 0.57000 0.78887 0.41689
 C2503 C 0.63047 0.19800 0.85049
 C2504 C 0.63590 0.21179 0.86911
 C2505 C 0.62264 0.23236 0.87644
 C2506 C 0.63238 0.24675 0.89287
 C2507 C 0.62073 0.26628 0.90056
 C2508 C 0.59881 0.27178 0.89217
 C2509 C 0.58910 0.25756 0.87557
 C2510 C 0.60077 0.23795 0.86786
 C2511 C 0.58613 0.29258 0.89979
 C2512 C 0.58976 0.30270 0.92098
 H2513 H 0.65123 0.20763 0.87867
 H2514 H 0.64925 0.24300 0.89967
 H2515 H 0.62925 0.27721 0.91272
 H2516 H 0.57231 0.26150 0.86872
 H2517 H 0.59241 0.22727 0.85543
 H2518 H 0.57370 0.29994 0.88823
 H2519 H 0.61573 0.20187 0.84007
 H2520 H 0.60168 0.29454 0.93258
 C2521 C 0.86845 0.70131 1.14662
 C2522 C 0.86074 0.71501 1.12868
 C2523 C 0.87347 0.73558 1.12052
 C2524 C 0.86981 0.74360 1.09830
 C2525 C 0.88146 0.76306 1.09006
 C2526 C 0.89706 0.77490 1.10400
 C2527 C 0.90028 0.76718 1.12640
 C2528 C 0.88861 0.74776 1.13463
 C2529 C 0.90936 0.79594 1.09632
 C2530 C 0.91186 0.80235 1.07354
 H2531 H 0.84517 0.71017 1.11989
 H2532 H 0.85789 0.73476 1.08727
 H2533 H 0.87771 0.76889 1.07299
 H2534 H 0.91181 0.77628 1.13762
 H2535 H 0.89119 0.74273 1.15218
 H2536 H 0.91625 0.80711 1.10930
 H2537 H 0.88473 0.70500 1.15460
 H2538 H 0.90503 0.79153 1.06031
 C2539 C 0.85608 0.19595 0.64638
 C2540 C 0.85518 0.20568 0.62469
 C2541 C 0.86880 0.22650 0.61869
 C2542 C 0.87833 0.22844 0.59683
 C2543 C 0.89272 0.24696 0.59111
 C2544 C 0.89742 0.26435 0.60707
 C2545 C 0.88762 0.26252 0.62888
 C2546 C 0.87338 0.24386 0.63464
 C2547 C 0.91183 0.28484 0.60144
 C2548 C 0.91531 0.29252 0.57916
 H2549 H 0.84721 0.19601 0.61115
 H2550 H 0.87517 0.21521 0.58431
 H2551 H 0.90034 0.24725 0.57431
 H2552 H 0.89079 0.27569 0.64145
 H2553 H 0.86589 0.24317 0.65153
 H2554 H 0.91748 0.29572 0.61522
 H2555 H 0.86607 0.20440 0.65936
 H2556 H 0.90767 0.28308 0.56534
 C2557 C 0.35186 0.69022 0.63660
 C2558 C 0.36744 0.70694 0.64395
 C2559 C 0.37477 0.72713 0.62964
 C2560 C 0.39474 0.73930 0.63547
 C2561 C 0.40194 0.75866 0.62280
 C2562 C 0.38928 0.76643 0.60385
 C2563 C 0.36907 0.75452 0.59829
 C2564 C 0.36188 0.73515 0.61095
 C2565 C 0.39592 0.78740 0.59031
 C2566 C 0.41810 0.79680 0.59031
 H2567 H 0.37467 0.70512 0.66080
 H2568 H 0.40480 0.73387 0.64999
 H2569 H 0.41711 0.76771 0.62839
 H2570 H 0.35870 0.76030 0.58411
 H2571 H 0.34592 0.72696 0.60625
 H2572 H 0.38275 0.79581 0.58032
 H2573 H 0.34537 0.69118 0.61944
 H2574 H 0.43133 0.78800 0.59984
 C2575 C 0.34951 0.19560 1.14085
 C2576 C 0.37102 0.20629 1.14185
 C2577 C 0.37683 0.22800 1.12929
 C2578 C 0.39623 0.24066 1.13587
 C2579 C 0.40261 0.26091 1.12427
 C2580 C 0.38987 0.26888 1.10548
 C2581 C 0.37039 0.25634 1.09897
 C2582 C 0.36402 0.23605 1.11056
 C2583 C 0.39603 0.29044 1.09284
 C2584 C 0.41834 0.29944 1.09244
 H2585 H 0.38418 0.19848 1.15234
 H2586 H 0.40642 0.23496 1.15021
 H2587 H 0.41728 0.27042 1.13043
 H2588 H 0.36022 0.26207 1.08463
 H2589 H 0.34932 0.22661 1.10440
 H2590 H 0.38256 0.29937 1.08373
 H2591 H 0.33583 0.20363 1.13130
 H2592 H 0.43177 0.28992 1.10101
 C2593 C 1.15372 1.15719 0.71234
 C2594 C 1.15518 1.13507 0.72155
 C2595 C 1.14146 1.12813 0.74159
 C2596 C 1.13201 1.10590 0.74228
 C2597 C 1.11779 1.09911 0.76029
 C2598 C 1.11325 1.11430 0.77831
 C2599 C 1.12271 1.13658 0.77761
 C2600 C 1.13678 1.14346 0.75943
 C2601 C 1.09917 1.10723 0.79815
 C2602 C 1.09776 1.08425 0.80522
 H2603 H 1.16340 1.12160 0.71174
 H2604 H 1.13515 1.09396 0.72852
 H2605 H 1.11016 1.08208 0.75981
 H2606 H 1.11948 1.14856 0.79131
 H2607 H 1.14413 1.16064 0.75947
 H2608 H 1.09197 1.12059 0.80881
 H2609 H 1.14368 1.17025 0.72094
 H2610 H 1.10740 1.07129 0.79609
 C2611 C 1.13040 0.64474 0.19941
 C2612 C 1.13589 0.62649 0.21401
 C2613 C 1.12137 0.62043 0.23402
 C2614 C 1.12132 0.59764 0.24220
 C2615 C 1.10755 0.59128 0.26080
 C2616 C 1.09348 0.60768 0.27170
 C2617 C 1.09409 0.63063 0.26394
 C2618 C 1.10786 0.63698 0.24532
 C2619 C 1.07917 0.60179 0.29194
 C2620 C 1.07281 0.57922 0.29754
 H2621 H 1.15045 0.61554 0.21005
 H2622 H 1.13190 0.58468 0.23408
 H2623 H 1.10848 0.57362 0.26678
 H2624 H 1.08391 0.64372 0.27235
 H2625 H 1.10814 0.65494 0.24015
 H2626 H 1.07434 0.61559 0.30333
 H2627 H 1.11488 0.65452 0.20259
 H2628 H 1.07719 0.56528 0.28620
 C2629 C 0.63530 1.14661 0.19855
 C2630 C 0.64029 1.12709 0.21172
 C2631 C 0.62708 1.12022 0.23230
 C2632 C 0.63724 1.10474 0.24767
 C2633 C 0.62549 1.09759 0.26726
 C2634 C 0.60311 1.10557 0.27176
 C2635 C 0.59296 1.12119 0.25652
 C2636 C 0.60471 1.12831 0.23685
 C2637 C 0.59035 1.09842 0.29247
 C2638 C 0.59402 1.07707 0.30300
 H2639 H 0.65512 1.11669 0.20731
 H2640 H 0.65448 1.09833 0.24465
 H2641 H 0.63422 1.08618 0.27902
 H2642 H 0.57577 1.12762 0.25969
 H2643 H 0.59597 1.13980 0.22521
 H2644 H 0.57793 1.11037 0.29938
 H2645 H 0.62123 1.15778 0.20334
 H2646 H 0.60591 1.06511 0.29519
 C2647 C 0.64751 0.63108 0.70051
 C2648 C 0.62813 0.63570 0.71383
 C2649 C 0.62159 0.62263 0.73464
 C2650 C 0.60498 0.63226 0.74912
 C2651 C 0.59802 0.62073 0.76891
 C2652 C 0.60734 0.59906 0.77456
 C2653 C 0.62411 0.58947 0.76025
 C2654 C 0.63108 0.60102 0.74037
 C2655 C 0.60045 0.58657 0.79558
 C2656 C 0.57885 0.58946 0.80566
 H2657 H 0.61747 0.65031 0.70922
 H2658 H 0.59750 0.64894 0.74522
 H2659 H 0.58570 0.62912 0.77992
 H2660 H 0.63164 0.57286 0.76434
 H2661 H 0.64362 0.59274 0.72955
 H2662 H 0.61287 0.57502 0.80317
 H2663 H 0.65906 0.61719 0.70494
 H2664 H 0.56644 0.60050 0.79731
 C2665 C 0.87230 0.85199 0.69909
 C2666 C 0.86813 0.87054 0.71355
 C2667 C 0.88291 0.87709 0.73297
 C2668 C 0.87756 0.89744 0.74462
 C2669 C 0.89064 0.90450 0.76312
 C2670 C 0.90963 0.89142 0.77040
 C2671 C 0.91480 0.87084 0.75906
 C2672 C 0.90168 0.86374 0.74048
 C2673 C 0.92339 0.89825 0.79041
 C2674 C 0.92479 0.92112 0.79757
 H2675 H 0.85317 0.88117 0.71030
 H2676 H 0.86304 0.90791 0.73950
 H2677 H 0.88537 0.91992 0.77196
 H2678 H 0.92908 0.86024 0.76458
 H2679 H 0.90629 0.84772 0.73239
 H2680 H 0.93191 0.88481 0.80007
 H2681 H 0.88717 0.84110 0.70141
 H2682 H 0.91688 0.93451 0.78734
 C2683 C 0.84897 0.36777 0.19961
 C2684 C 0.86691 0.36290 0.21460
 C2685 C 0.87172 0.37619 0.23554
 C2686 C 0.88731 0.36685 0.25118
 C2687 C 0.89291 0.37871 0.27094
 C2688 C 0.88324 0.40045 0.27546
 C2689 C 0.86728 0.40968 0.26012
 C2690 C 0.86169 0.39781 0.24023
 C2691 C 0.88935 0.41341 0.29621
 C2692 C 0.91111 0.41137 0.30586
 H2693 H 0.87783 0.34817 0.21116
 H2694 H 0.89516 0.35019 0.24817
 H2695 H 0.90461 0.37059 0.28279
 H2696 H 0.85948 0.42632 0.26332
 H2697 H 0.84985 0.40593 0.22859
 H2698 H 0.87653 0.42448 0.30384
 H2699 H 0.83738 0.38189 0.20305
 H2700 H 0.92386 0.40113 0.29704
 C2701 C 0.35241 0.86996 0.19988
 C2702 C 0.37128 0.86435 0.21342
 C2703 C 0.37865 0.87720 0.23382
 C2704 C 0.39846 0.86960 0.24513
 C2705 C 0.40625 0.88082 0.26452
 C2706 C 0.39444 0.90010 0.27301
 C2707 C 0.37448 0.90759 0.26191
 C2708 C 0.36667 0.89636 0.24246
 C2709 C 0.40182 0.91211 0.29387
 C2710 C 0.42429 0.91123 0.30211
 H2711 H 0.38153 0.84951 0.20873
 H2712 H 0.40791 0.85475 0.23905
 H2713 H 0.42118 0.87390 0.27301
 H2714 H 0.36493 0.92224 0.26828
 H2715 H 0.35124 0.90277 0.23452
 H2716 H 0.38887 0.92175 0.30301
 H2717 H 0.34169 0.88466 0.20365
 H2718 H 0.43724 0.90177 0.29278
 C2719 C 0.36805 0.35423 0.70503
 C2720 C 0.36035 0.37147 0.71965
 C2721 C 0.37317 0.37766 0.74049
 C2722 C 0.37120 0.40004 0.74914
 C2723 C 0.38362 0.40660 0.76833
 C2724 C 0.39836 0.39082 0.77934
 C2725 C 0.39964 0.36819 0.77117
 C2726 C 0.38721 0.36163 0.75200
 C2727 C 0.41168 0.39698 0.79989
 C2728 C 0.41663 0.41972 0.80576
 H2729 H 0.34535 0.38155 0.71512
 H2730 H 0.36015 0.41257 0.74090
 H2731 H 0.38123 0.42392 0.77460
 H2732 H 0.41037 0.35552 0.77962
 H2733 H 0.38845 0.34390 0.74651
 H2734 H 0.41731 0.38313 0.81102
 H2735 H 0.38397 0.34543 0.70892
 H2736 H 0.41140 0.43367 0.79462
 C2737 C 1.14077 0.86156 1.29721
 C2738 C 1.12245 0.85282 1.28476
 C2739 C 1.11546 0.86478 1.26338
 C2740 C 1.09219 0.86670 1.25767
 C2741 C 1.08547 0.87967 1.23855
 C2742 C 1.10202 0.89088 1.22461
 C2743 C 1.12533 0.88799 1.22987
 C2744 C 1.13198 0.87509 1.24889
 C2745 C 1.09608 0.90508 1.20418
 C2746 C 1.07372 0.91118 1.19815
 H2747 H 1.11260 0.83824 1.29116
 H2748 H 1.07914 0.85867 1.26834
 H2749 H 1.06733 0.88068 1.23496
 H2750 H 1.13852 0.89591 1.21928
 H2751 H 1.15016 0.87326 1.25227
 H2752 H 1.10997 0.91036 1.19290
 H2753 H 1.14856 0.87750 1.29114
 H2754 H 1.05941 0.90575 1.20870
 C2755 C 1.15443 0.36380 0.80116
 C2756 C 1.13629 0.35728 0.78702
 C2757 C 1.12920 0.37044 0.76631
 C2758 C 1.10789 0.36538 0.75647
 C2759 C 1.10074 0.37666 0.73659
 C2760 C 1.11478 0.39350 0.72594
 C2761 C 1.13623 0.39837 0.73564
 C2762 C 1.14340 0.38703 0.75553
 C2763 C 1.10822 0.40544 0.70431
 C2764 C 1.08588 0.40542 0.69563
 H2765 H 1.12662 0.34182 0.79133
 H2766 H 1.09672 0.35245 0.76412
 H2767 H 1.08444 0.37158 0.72951
 H2768 H 1.14762 0.41091 0.72768
 H2769 H 1.16028 0.39103 0.76198
 H2770 H 1.12167 0.41413 0.69471
 H2771 H 1.16346 0.37980 0.79773
 H2772 H 1.07233 0.39704 0.70528
 C2773 C 0.64482 0.87272 0.80297
 C2774 C 0.62613 0.86770 0.78910
 C2775 C 0.61923 0.88165 0.76902
 C2776 C 0.59845 0.87616 0.75839
 C2777 C 0.59119 0.88839 0.73921
 C2778 C 0.60454 0.90664 0.73024
 C2779 C 0.62549 0.91198 0.74065
 C2780 C 0.63279 0.89968 0.75985
 C2781 C 0.59780 0.91945 0.70942
 C2782 C 0.57521 0.92019 0.70160
 H2783 H 0.61567 0.85275 0.79335
 H2784 H 0.58781 0.86215 0.76483
 H2785 H 0.57542 0.88299 0.73122
 H2786 H 0.63628 0.92568 0.73385
 H2787 H 0.64917 0.90427 0.76707
 H2788 H 0.61125 0.92790 0.69963
 H2789 H 0.65542 0.88772 0.79973
 H2790 H 0.56165 0.91215 0.71156
 C2791 C 0.65952 0.35097 1.28740
 C2792 C 0.64683 0.37124 1.28508
 C2793 C 0.63346 0.37761 1.26448
 C2794 C 0.61925 0.39717 1.26545
 C2795 C 0.60518 0.40317 1.24717
 C2796 C 0.60508 0.38978 1.22734
 C2797 C 0.61909 0.37014 1.22635
 C2798 C 0.63325 0.36416 1.24460
 C2799 C 0.59094 0.39603 1.20736
 C2800 C 0.58570 0.41891 1.20203
 H2801 H 0.64436 0.38164 1.30015
 H2802 H 0.61876 0.40769 1.28059
 H2803 H 0.59414 0.41809 1.24881
 H2804 H 0.61929 0.35952 1.21127
 H2805 H 0.64373 0.34892 1.24286
 H2806 H 0.58710 0.38276 1.19507
 H2807 H 0.66171 0.33940 1.27328
 H2808 H 0.59205 0.43248 1.21287
 C2809 C 0.84541 1.13920 1.28851
 C2810 C 0.86727 1.14040 1.27872
 C2811 C 0.87400 1.12622 1.25893
 C2812 C 0.89255 1.13351 1.24534
 C2813 C 0.89931 1.12073 1.22643
 C2814 C 0.88778 1.10016 1.22089
 C2815 C 0.86926 1.09282 1.23445
 C2816 C 0.86258 1.10552 1.25347
 C2817 C 0.89426 1.08666 1.20065
 C2818 C 0.91682 1.08622 1.19262
 H2819 H 0.87972 1.15251 1.28533
 H2820 H 0.90162 1.14935 1.24915
 H2821 H 0.91321 1.12732 1.21590
 H2822 H 0.86014 1.07704 1.23050
 H2823 H 0.84872 1.09880 1.26391
 H2824 H 0.88090 1.07745 1.19177
 H2825 H 0.83255 1.12810 1.28111
 H2826 H 0.93000 1.09480 1.20237
 C2827 C 0.87260 0.64550 0.79956
 C2828 C 0.86814 0.62547 0.78758
 C2829 C 0.88255 0.61797 0.76823
 C2830 C 0.87665 0.59759 0.75703
 C2831 C 0.88948 0.59004 0.73841
 C2832 C 0.90874 0.60267 0.73067
 C2833 C 0.91458 0.62320 0.74176
 C2834 C 0.90170 0.63076 0.76047
 C2835 C 0.92209 0.59556 0.71037
 C2836 C 0.92267 0.57275 0.70292
 H2837 H 0.85343 0.61501 0.79247
 H2838 H 0.86184 0.58758 0.76252
 H2839 H 0.88378 0.57465 0.72981
 H2840 H 0.92914 0.63339 0.73595
 H2841 H 0.90665 0.64665 0.76867
 H2842 H 0.93095 0.60886 0.70066
 H2843 H 0.86394 0.64956 0.81042
 H2844 H 0.91435 0.55945 0.71308
 C2845 C 0.36923 1.14934 0.79584
 C2846 C 0.36169 1.13073 0.78296
 C2847 C 0.37344 1.12345 0.76185
 C2848 C 0.37023 1.10083 0.75424
 C2849 C 0.38119 1.09320 0.73451
 C2850 C 0.39570 1.10815 0.72194
 C2851 C 0.39844 1.13094 0.72927
 C2852 C 0.38739 1.13859 0.74894
 C2853 C 0.40748 1.10111 0.70071
 C2854 C 0.40926 1.07829 0.69360
 H2855 H 0.34726 1.12046 0.78901
 H2856 H 0.35925 1.08897 0.76366
 H2857 H 0.37782 1.07575 0.72918
 H2858 H 0.40911 1.14295 0.71969
 H2859 H 0.38958 1.15645 0.75363
 H2860 H 0.41452 1.11465 0.68991
 H2861 H 0.38443 1.15882 0.79060
 H2862 H 0.40216 1.06442 0.70384
 C2863 C 0.35936 0.65062 1.30433
 C2864 C 0.35274 0.63381 1.28878
 C2865 C 0.36757 0.62690 1.26927
 C2866 C 0.36406 0.60533 1.25920
 C2867 C 0.37747 0.59838 1.24063
 C2868 C 0.39479 0.61293 1.23162
 C2869 C 0.39793 0.63473 1.24134
 C2870 C 0.38453 0.64167 1.25993
 C2871 C 0.40886 0.60646 1.21143
 C2872 C 0.41214 0.58358 1.20488
 H2873 H 0.33638 0.62510 1.29112
 H2874 H 0.35084 0.59381 1.26571
 H2875 H 0.37373 0.58184 1.23311
 H2876 H 0.41075 0.64649 1.23446
 H2877 H 0.38723 0.65882 1.26652
 H2878 H 0.41635 0.62020 1.20119
 H2879 H 0.37634 0.65814 1.30278
 H2880 H 0.40518 0.56989 1.21549
 C2881 C 1.15113 1.29574 0.84946
 C2882 C 1.12986 1.28726 0.84278
 C2883 C 1.12155 1.26540 0.85300
 C2884 C 1.10079 1.26483 0.86526
 C2885 C 1.09426 1.24483 0.87724
 C2886 C 1.10809 1.22500 0.87649
 C2887 C 1.12837 1.22530 0.86350
 C2888 C 1.13527 1.24548 0.85217
 C2889 C 1.10078 1.20349 0.88791
 C2890 C 1.09542 1.20243 0.91104
 H2891 H 1.11836 1.29780 0.83269
 H2892 H 1.09005 1.28006 0.86616
 H2893 H 1.07828 1.24471 0.88682
 H2894 H 1.13909 1.21005 0.86256
 H2895 H 1.15139 1.24561 0.84283
 H2896 H 1.10040 1.18782 0.87799
 H2897 H 1.16061 1.28580 0.86199
 H2898 H 1.09873 1.21714 0.92180
 C2899 C 1.14821 0.80181 0.35740
 C2900 C 1.12749 0.78994 0.35465
 C2901 C 1.12100 0.76915 0.36857
 C2902 C 1.10312 0.75483 0.36111
 C2903 C 1.09644 0.73524 0.37372
 C2904 C 1.10735 0.72956 0.39436
 C2905 C 1.12525 0.74380 0.40181
 C2906 C 1.13185 0.76345 0.38928
 C2907 C 1.10091 0.70870 0.40808
 C2908 C 1.07891 0.69896 0.40744
 H2909 H 1.11569 0.79593 0.34170
 H2910 H 1.09442 0.75866 0.34530
 H2911 H 1.08305 0.72438 0.36693
 H2912 H 1.13397 0.73990 0.41760
 H2913 H 1.14521 0.77420 0.39625
 H2914 H 1.11381 0.70111 0.41898
 H2915 H 1.16054 0.79544 0.36958
 H2916 H 1.06608 0.70758 0.39719
 C2917 C 0.63766 1.29482 0.34349
 C2918 C 0.63665 1.28598 0.36560
 C2919 C 0.62156 1.26651 0.37209
 C2920 C 0.61307 1.26521 0.39441
 C2921 C 0.59954 1.24653 0.40142
 C2922 C 0.59474 1.22846 0.38632
 C2923 C 0.60274 1.23007 0.36381
 C2924 C 0.61612 1.24888 0.35674
 C2925 C 0.58231 1.20739 0.39371
 C2926 C 0.58286 1.19944 0.41616
 H2927 H 0.64619 1.29438 0.37898
 H2928 H 0.61688 1.27873 0.40644
 H2929 H 0.59296 1.24634 0.41867
 H2930 H 0.59924 1.21639 0.35186
 H2931 H 0.62278 1.24915 0.33951
 H2932 H 0.57510 1.19653 0.38068
 H2933 H 0.62650 1.28774 0.33063
 H2934 H 0.59240 1.20918 0.42858
 C2935 C 0.62946 0.80589 0.85273
 C2936 C 0.63443 0.79195 0.87155
 C2937 C 0.62089 0.77142 0.87884
 C2938 C 0.62893 0.75844 0.89739
 C2939 C 0.61698 0.73899 0.90517
 C2940 C 0.59644 0.73215 0.89468
 C2941 C 0.58850 0.74487 0.87592
 C2942 C 0.60047 0.76440 0.86812
 C2943 C 0.58361 0.71134 0.90231
 C2944 C 0.58495 0.70272 0.92452
 H2945 H 0.64935 0.79626 0.88162
 H2946 H 0.64470 0.76324 0.90585
 H2947 H 0.62423 0.72915 0.91908
 H2948 H 0.57286 0.73978 0.86739
 H2949 H 0.59350 0.77378 0.85381
 H2950 H 0.57322 0.70251 0.88990
 H2951 H 0.61493 0.80225 0.84202
 H2952 H 0.59487 0.71211 0.93690
 C2953 C 0.86842 1.30411 1.14961
 C2954 C 0.86402 1.29093 1.13031
 C2955 C 0.87738 1.27043 1.12311
 C2956 C 0.86852 1.25696 1.10547
 C2957 C 0.88038 1.23764 1.09766
 C2958 C 0.90162 1.23142 1.10716
 C2959 C 0.91040 1.24465 1.12502
 C2960 C 0.89851 1.26407 1.13286
 C2961 C 0.91447 1.21085 1.09934
 C2962 C 0.91223 1.20204 1.07739
 H2963 H 0.84942 1.29562 1.11990
 H2964 H 0.85221 1.26130 1.09777
 H2965 H 0.87254 1.22742 1.08450
 H2966 H 0.92664 1.24009 1.13275
 H2967 H 0.90613 1.27403 1.14631
 H2968 H 0.92584 1.20258 1.11137
 H2969 H 0.88238 1.29976 1.16089
 H2970 H 0.90138 1.21111 1.06541
 C2971 C 0.85289 0.80206 0.63507
 C2972 C 0.87180 0.78787 0.63950
 C2973 C 0.87804 0.76686 0.62654
 C2974 C 0.89517 0.75242 0.63545
 C2975 C 0.90203 0.73255 0.62400
 C2976 C 0.89210 0.72672 0.60308
 C2977 C 0.87475 0.74096 0.59423
 C2978 C 0.86784 0.76092 0.60573
 C2979 C 0.89895 0.70560 0.59060
 C2980 C 0.92055 0.69533 0.59314
 H2981 H 0.88260 0.79209 0.65383
 H2982 H 0.90321 0.75642 0.65152
 H2983 H 0.91481 0.72163 0.63191
 H2984 H 0.86669 0.73677 0.57824
 H2985 H 0.85477 0.77162 0.59806
 H2986 H 0.88652 0.69819 0.57918
 H2987 H 0.84125 0.79821 0.62137
 H2988 H 0.93300 0.70362 0.60395
 C2989 C 0.36750 1.30501 0.64214
 C2990 C 0.35914 1.29329 0.62330
 C2991 C 0.37215 1.27340 0.61396
 C2992 C 0.36034 1.25392 0.60620
 C2993 C 0.37242 1.23423 0.59931
 C2994 C 0.39667 1.23382 0.59964
 C2995 C 0.40842 1.25355 0.60690
 C2996 C 0.39636 1.27316 0.61380
 C2997 C 0.41020 1.21314 0.59297
 C2998 C 0.40175 1.19656 0.57811
 H2999 H 0.34211 1.29709 0.61692
 H3000 H 0.34172 1.25363 0.60625
 H3001 H 0.36263 1.21922 0.59439
 H3002 H 0.42704 1.25380 0.60721
 H3003 H 0.40606 1.28813 0.61909
 H3004 H 0.42781 1.21191 0.59866
 H3005 H 0.38353 1.29910 0.64944
 H3006 H 0.38502 1.19939 0.57066
 C3007 C 0.36752 0.80558 1.15030
 C3008 C 0.36290 0.79175 1.13152
 C3009 C 0.37628 0.77100 1.12532
 C3010 C 0.36690 0.75598 1.10926
 C3011 C 0.37879 0.73630 1.10253
 C3012 C 0.40055 0.73131 1.11156
 C3013 C 0.40988 0.74608 1.12785
 C3014 C 0.39799 0.76588 1.13456
 C3015 C 0.41341 0.71048 1.10476
 C3016 C 0.41100 0.70085 1.08324
 H3017 H 0.34820 0.79589 1.12102
 H3018 H 0.35016 0.75939 1.10199
 H3019 H 0.37065 0.72484 1.09057
 H3020 H 0.42656 0.74247 1.13514
 H3021 H 0.40611 0.77713 1.14667
 H3022 H 0.42475 0.70268 1.11712
 H3023 H 0.38159 0.80140 1.16150
 H3024 H 0.40023 0.70956 1.07092
 C3025 C 0.85068 0.70045 0.86518
 C3026 C 0.87021 0.71397 0.86109
 C3027 C 0.87655 0.73486 0.87410
 C3028 C 0.89562 0.74775 0.86655
 C3029 C 0.90264 0.76744 0.87813
 C3030 C 0.89084 0.77463 0.89778
 C3031 C 0.87157 0.76201 0.90520
 C3032 C 0.86453 0.74222 0.89361
 C3033 C 0.89777 0.79560 0.91026
 C3034 C 0.92033 0.80392 0.90988
 H3035 H 0.88162 0.70906 0.84732
 H3036 H 0.90510 0.74266 0.85148
 H3037 H 0.91702 0.77717 0.87129
 H3038 H 0.86206 0.76734 0.92017
 H3039 H 0.84984 0.73287 0.90021
 H3040 H 0.88462 0.80464 0.91973
 H3041 H 0.83860 0.70484 0.87848
 H3042 H 0.93337 0.79417 0.90094
 C3043 C 0.86124 0.19390 0.34691
 C3044 C 0.85535 0.20708 0.36591
 C3045 C 0.86966 0.22632 0.37465
 C3046 C 0.86493 0.23485 0.39644
 C3047 C 0.87707 0.25372 0.40498
 C3048 C 0.89438 0.26460 0.39184
 C3049 C 0.89910 0.25606 0.37002
 C3050 C 0.88692 0.23720 0.36148
 C3051 C 0.90695 0.28550 0.39959
 C3052 C 0.90643 0.29356 0.42195
 H3053 H 0.83940 0.20330 0.37483
 H3054 H 0.85154 0.22704 0.40686
 H3055 H 0.87224 0.25991 0.42159
 H3056 H 0.91207 0.26424 0.35937
 H3057 H 0.89073 0.23176 0.34433
 H3058 H 0.91636 0.29532 0.38684
 H3059 H 0.87772 0.19656 0.33867
 H3060 H 0.89712 0.28393 0.43485
 C3061 C 0.34871 0.70506 0.36515
 C3062 C 0.37129 0.71304 0.36395
 C3063 C 0.37984 0.73208 0.37821
 C3064 C 0.39918 0.74458 0.37082
 C3065 C 0.40740 0.76310 0.38347
 C3066 C 0.39656 0.76927 0.40400
 C3067 C 0.37740 0.75660 0.41155
 C3068 C 0.36923 0.73803 0.39894
 C3069 C 0.40399 0.78948 0.41724
 C3070 C 0.42637 0.79810 0.41628
 H3071 H 0.38286 0.70580 0.35139
 H3072 H 0.40765 0.74033 0.35493
 H3073 H 0.42177 0.77289 0.37670
 H3074 H 0.36877 0.76103 0.42730
 H3075 H 0.35475 0.72837 0.40566
 H3076 H 0.39114 0.79801 0.42755
 H3077 H 0.33652 0.71290 0.37668
 H3078 H 0.43918 0.78910 0.40632
 C3079 C 0.36628 0.20181 0.85618
 C3080 C 0.35875 0.21233 0.87610
 C3081 C 0.37054 0.23345 0.88412
 C3082 C 0.37442 0.23661 0.90736
 C3083 C 0.38739 0.25545 0.91487
 C3084 C 0.39643 0.27176 0.89919
 C3085 C 0.39176 0.26890 0.87601
 C3086 C 0.37891 0.25009 0.86856
 C3087 C 0.41040 0.29212 0.90594
 C3088 C 0.41425 0.29851 0.92841
 H3089 H 0.34551 0.20430 0.88653
 H3090 H 0.36803 0.22409 0.91966
 H3091 H 0.39037 0.25674 0.93290
 H3092 H 0.39813 0.28126 0.86354
 H3093 H 0.37561 0.24857 0.85054
 H3094 H 0.41659 0.30354 0.89255
 H3095 H 0.38108 0.20923 0.84749
 H3096 H 0.40709 0.28831 0.94218
 C3097 C 1.14073 0.69823 1.13222
 C3098 C 1.12086 0.71059 1.13658
 C3099 C 1.11427 0.73055 1.12236
 C3100 C 1.09404 0.74249 1.12761
 C3101 C 1.08756 0.76176 1.11481
 C3102 C 1.10118 0.76934 1.09631
 C3103 C 1.12151 0.75750 1.09115
 C3104 C 1.12798 0.73819 1.10395
 C3105 C 1.09534 0.79026 1.08305
 C3106 C 1.07293 0.79853 1.08149
 H3107 H 1.11001 0.70570 1.15093
 H3108 H 1.08335 0.73708 1.14186
 H3109 H 1.07224 0.77096 1.11993
 H3110 H 1.13241 0.76321 1.07718
 H3111 H 1.14379 0.72943 1.09951
 H3112 H 1.10929 0.79974 1.07502
 H3113 H 1.14418 0.68761 1.14045
 H3114 H 1.05899 0.78869 1.08907
 C3115 C 1.14288 0.20051 0.64436
 C3116 C 1.14247 0.20495 0.62105
 C3117 C 1.12630 0.22240 0.61184
 C3118 C 1.13286 0.23637 0.59334
 C3119 C 1.11877 0.25459 0.58622
 C3120 C 1.09766 0.25892 0.59734
 C3121 C 1.09067 0.24425 0.61511
 C3122 C 1.10465 0.22601 0.62210
 C3123 C 1.08352 0.27950 0.59205
 C3124 C 1.08406 0.29029 0.57081
 H3125 H 1.15446 0.19641 0.60974
 H3126 H 1.14936 0.23384 0.58508
 H3127 H 1.12501 0.26582 0.57274
 H3128 H 1.07446 0.24710 0.62382
 H3129 H 1.09859 0.21496 0.63582
 H3130 H 1.07326 0.28673 0.60563
 H3131 H 1.13187 0.21075 0.65526
 H3132 H 1.09366 0.28220 0.55722
 C3133 C 0.63102 0.69665 0.65021
 C3134 C 0.63627 0.71172 0.63230
 C3135 C 0.62197 0.73190 0.62587
 C3136 C 0.62636 0.74277 0.60489
 C3137 C 0.61372 0.76206 0.59811
 C3138 C 0.59617 0.77091 0.61215
 C3139 C 0.59203 0.76033 0.63332
 C3140 C 0.60473 0.74101 0.64015
 C3141 C 0.58303 0.79188 0.60576
 C3142 C 0.58099 0.79936 0.58327
 H3143 H 0.65143 0.70830 0.62206
 H3144 H 0.63977 0.73642 0.59372
 H3145 H 0.61827 0.77025 0.58211
 H3146 H 0.57896 0.76710 0.64465
 H3147 H 0.60118 0.73370 0.65677
 H3148 H 0.57559 0.80214 0.61924
 H3149 H 0.61559 0.69897 0.66026
 H3150 H 0.58785 0.78882 0.56973
 C3151 C 0.64856 0.20156 1.13273
 C3152 C 0.62999 0.21546 1.13809
 C3153 C 0.62391 0.23566 1.12398
 C3154 C 0.60398 0.24804 1.12937
 C3155 C 0.59750 0.26704 1.11622
 C3156 C 0.61081 0.27397 1.09728
 C3157 C 0.63104 0.26193 1.09216
 C3158 C 0.63750 0.24283 1.10529
 C3159 C 0.60447 0.29431 1.08342
 C3160 C 0.58169 0.30130 1.08127
 H3161 H 0.61931 0.21112 1.15272
 H3162 H 0.59340 0.24302 1.14383
 H3163 H 0.58232 0.27652 1.12129
 H3164 H 0.64174 0.26721 1.07788
 H3165 H 0.65311 0.23374 1.10080
 H3166 H 0.61812 0.30441 1.07561
 H3167 H 0.65131 0.19039 1.14054
 H3168 H 0.56818 0.29062 1.08852
 C3169 C 1.30890 1.13943 0.85162
 C3170 C 1.29778 1.14275 0.87242
 C3171 C 1.27765 1.12855 0.87981
 C3172 C 1.26259 1.13724 0.89638
 C3173 C 1.24322 1.12457 0.90337
 C3174 C 1.23860 1.10271 0.89408
 C3175 C 1.25373 1.09394 0.87765
 C3176 C 1.27316 1.10653 0.87077
 C3177 C 1.21784 1.08910 0.90055
 C3178 C 1.20718 1.09120 0.92178
 H3179 H 1.30347 1.15664 0.88326
 H3180 H 1.26558 1.15409 0.90366
 H3181 H 1.23164 1.13227 0.91560
 H3182 H 1.25063 1.07716 0.87027
 H3183 H 1.28466 1.09869 0.85858
 H3184 H 1.21097 1.07725 0.88821
 H3185 H 1.30249 1.12649 0.84013
 H3186 H 1.21503 1.10242 0.93414
 C3187 C 1.28661 0.65309 0.34716
 C3188 C 1.28056 0.62994 0.35001
 C3189 C 1.25951 0.62270 0.36278
 C3190 C 1.25870 0.60057 0.37271
 C3191 C 1.23992 0.59372 0.38621
 C3192 C 1.22141 0.60887 0.38996
 C3193 C 1.22210 0.63089 0.37991
 C3194 C 1.24072 0.63765 0.36624
 C3195 C 1.20111 0.60229 0.40402
 C3196 C 1.19341 0.57954 0.40592
 H3197 H 1.29315 0.61690 0.34565
 H3198 H 1.27290 0.58871 0.37044
 H3199 H 1.24023 0.57676 0.39404
 H3200 H 1.20801 0.64283 0.38241
 H3201 H 1.24013 0.65459 0.35844
 H3202 H 1.19051 0.61596 0.41087
 H3203 H 1.27531 0.66635 0.35355
 H3204 H 1.20258 0.56622 0.39679
 C3205 C 0.78816 1.15214 0.34506
 C3206 C 0.78419 1.14797 0.36813
 C3207 C 0.76431 1.13420 0.37682
 C3208 C 0.76433 1.12673 0.39961
 C3209 C 0.74683 1.11240 0.40811
 C3210 C 0.72882 1.10528 0.39393
 C3211 C 0.72871 1.11276 0.37123
 C3212 C 0.74602 1.12723 0.36280
 C3213 C 0.70979 1.09028 0.40205
 C3214 C 0.70250 1.08956 0.42468
 H3215 H 0.79760 1.15252 0.38000
 H3216 H 0.77818 1.13166 0.41080
 H3217 H 0.74777 1.10659 0.42561
 H3218 H 0.71500 1.10757 0.35997
 H3219 H 0.74473 1.13265 0.34527
 H3220 H 0.69950 1.08172 0.38936
 H3221 H 0.77586 1.14672 0.33256
 H3222 H 0.71119 1.10016 0.43702
 C3223 C 0.80108 0.63376 0.85075
 C3224 C 0.78620 0.63990 0.86842
 C3225 C 0.76575 0.62627 0.87554
 C3226 C 0.75521 0.63158 0.89636
 C3227 C 0.73583 0.61945 0.90393
 C3228 C 0.72655 0.60151 0.89084
 C3229 C 0.73676 0.59648 0.86978
 C3230 C 0.75618 0.60867 0.86217
 C3231 C 0.70569 0.58861 0.89816
 C3232 C 0.69850 0.58726 0.92085
 H3233 H 0.79015 0.65519 0.87813
 H3234 H 0.76194 0.64528 0.90684
 H3235 H 0.72798 0.62466 0.91978
 H3236 H 0.72969 0.58306 0.85916
 H3237 H 0.76327 0.60439 0.84572
 H3238 H 0.69554 0.58040 0.88516
 H3239 H 0.79820 0.61820 0.84117
 H3240 H 0.70895 0.59503 0.93387
 C3241 C 1.30305 0.85528 1.13385
 C3242 C 1.28787 0.87308 1.13916
 C3243 C 1.26745 0.87923 1.12538
 C3244 C 1.25559 0.89956 1.13067
 C3245 C 1.23609 0.90607 1.11850
 C3246 C 1.22804 0.89240 1.10054
 C3247 C 1.23963 0.87186 1.09546
 C3248 C 1.25914 0.86530 1.10769
 C3249 C 1.20702 0.89845 1.08769
 C3250 C 1.19852 0.92092 1.08647
 H3251 H 1.29124 0.88329 1.15414
 H3252 H 1.26133 0.91043 1.14443
 H3253 H 1.22715 0.92151 1.12371
 H3254 H 1.23354 0.86081 1.08199
 H3255 H 1.26723 0.84917 1.10330
 H3256 H 1.19777 0.88464 1.07947
 H3257 H 1.30069 0.84509 1.11875
 H3258 H 1.20808 0.93479 1.09420
 C3259 C 1.30521 0.36174 0.65137
 C3260 C 1.29455 0.35793 0.63046
 C3261 C 1.27337 0.37032 0.62296
 C3262 C 1.26830 0.37153 0.59965
 C3263 C 1.24861 0.38302 0.59187
 C3264 C 1.23318 0.39336 0.60732
 C3265 C 1.23826 0.39211 0.63063
 C3266 C 1.25799 0.38068 0.63840
 C3267 C 1.21189 0.40570 0.59997
 C3268 C 1.20189 0.40329 0.57847
 H3269 H 1.30268 0.34626 0.61858
 H3270 H 1.27980 0.36377 0.58734
 H3271 H 1.24586 0.38396 0.57374
 H3272 H 1.22677 0.39982 0.64298
 H3273 H 1.26081 0.37971 0.65653
 H3274 H 1.20308 0.41597 0.61259
 H3275 H 1.29824 0.37454 0.66276
 H3276 H 1.20961 0.39139 0.56662
 C3277 C 0.80408 0.86908 0.65314
 C3278 C 0.78901 0.86470 0.63527
 C3279 C 0.76849 0.87889 0.62956
 C3280 C 0.75478 0.87178 0.61137
 C3281 C 0.73539 0.88437 0.60497
 C3282 C 0.72926 0.90467 0.61650
 C3283 C 0.74263 0.91162 0.63500
 C3284 C 0.76213 0.89899 0.64142
 C3285 C 0.70859 0.91819 0.60998
 C3286 C 0.70029 0.91821 0.58775
 H3287 H 0.79244 0.84985 0.62470
 H3288 H 0.75900 0.85627 0.60206
 H3289 H 0.72504 0.87782 0.59124
 H3290 H 0.73810 0.92701 0.64435
 H3291 H 0.77200 0.90520 0.65560
 H3292 H 0.69963 0.92782 0.62300
 H3293 H 0.80133 0.88359 0.66423
 H3294 H 0.71016 0.90935 0.57482
 C3295 C 0.80305 0.35444 1.13269
 C3296 C 0.78886 0.37328 1.13719
 C3297 C 0.76878 0.38016 1.12327
 C3298 C 0.75504 0.39837 1.13108
 C3299 C 0.73587 0.40561 1.11885
 C3300 C 0.73006 0.39493 1.09827
 C3301 C 0.74357 0.37655 1.09052
 C3302 C 0.76284 0.36928 1.10276
 C3303 C 0.70951 0.40195 1.08523
 C3304 C 0.70041 0.42419 1.08647
 H3305 H 0.79246 0.38354 1.15207
 H3306 H 0.75902 0.40693 1.14689
 H3307 H 0.72539 0.41923 1.12591
 H3308 H 0.73930 0.36789 1.07484
 H3309 H 0.77286 0.35526 1.09593
 H3310 H 0.70121 0.38908 1.07486
 H3311 H 0.80006 0.34354 1.11820
 H3312 H 0.70937 0.43706 1.09629
 C3313 C 0.69863 1.13117 1.14704
 C3314 C 0.71169 1.13661 1.12770
 C3315 C 0.73177 1.12340 1.11944
 C3316 C 0.74238 1.13081 1.09915
 C3317 C 0.76161 1.11941 1.09060
 C3318 C 0.77062 1.10013 1.10212
 C3319 C 0.76018 1.09278 1.12251
 C3320 C 0.74089 1.10422 1.13111
 C3321 C 0.79148 1.08812 1.09403
 C3322 C 0.79921 1.08916 1.07150
 H3323 H 0.70689 1.15167 1.11777
 H3324 H 0.73590 1.14569 1.08994
 H3325 H 0.76962 1.12624 1.07532
 H3326 H 0.76700 1.07813 1.13185
 H3327 H 0.73351 1.09800 1.14691
 H3328 H 0.80125 1.07858 1.10655
 H3329 H 0.70244 1.11620 1.15740
 H3330 H 0.78936 1.09854 1.05893
 C3331 C 0.69900 0.64827 0.63611
 C3332 C 0.71313 0.62954 0.64151
 C3333 C 0.73409 0.62278 0.62867
 C3334 C 0.74741 0.60462 0.63740
 C3335 C 0.76716 0.59722 0.62602
 C3336 C 0.77399 0.60773 0.60540
 C3337 C 0.76094 0.62614 0.59680
 C3338 C 0.74110 0.63355 0.60819
 C3339 C 0.79496 0.60040 0.59299
 C3340 C 0.80401 0.57812 0.59490
 H3341 H 0.70864 0.61911 0.65628
 H3342 H 0.74260 0.59614 0.65323
 H3343 H 0.77721 0.58359 0.63372
 H3344 H 0.76597 0.63467 0.58107
 H3345 H 0.73143 0.64753 0.60070
 H3346 H 0.80331 0.61306 0.58212
 H3347 H 0.70291 0.65944 0.62180
 H3348 H 0.79503 0.56552 0.60537
 C3349 C 0.19827 1.13638 0.64521
 C3350 C 0.20805 1.13955 0.62371
 C3351 C 0.22766 1.12517 0.61587
 C3352 C 0.23111 1.12149 0.59255
 C3353 C 0.24967 1.10817 0.58486
 C3354 C 0.26545 1.09862 0.60041
 C3355 C 0.26188 1.10227 0.62371
 C3356 C 0.24337 1.11550 0.63136
 C3357 C 0.28598 1.08519 0.59324
 C3358 C 0.29572 1.08680 0.57151
 H3359 H 0.20117 1.15264 0.61239
 H3360 H 0.21928 1.12873 0.58027
 H3361 H 0.25136 1.10533 0.56679
 H3362 H 0.27375 1.09524 0.63608
 H3363 H 0.24183 1.11853 0.64943
 H3364 H 0.29501 1.07560 0.60628
 H3365 H 0.20407 1.12213 0.65571
 H3366 H 0.28781 1.09808 0.55909
 C3367 C 0.19742 0.63430 1.15014
 C3368 C 0.21122 0.64255 1.13222
 C3369 C 0.23259 0.63179 1.12361
 C3370 C 0.23985 0.60955 1.13006
 C3371 C 0.25980 0.60006 1.12050
 C3372 C 0.27277 0.61261 1.10423
 C3373 C 0.26557 0.63487 1.09812
 C3374 C 0.24572 0.64428 1.10761
 C3375 C 0.29402 0.60364 1.09346
 C3376 C 0.30081 0.58056 1.09409
 H3377 H 0.20610 0.65837 1.12371
 H3378 H 0.23014 0.59929 1.14221
 H3379 H 0.26495 0.58305 1.12612
 H3380 H 0.27524 0.64500 1.08577
 H3381 H 0.24054 0.66146 1.10229
 H3382 H 0.30489 0.61601 1.08460
 H3383 H 0.20224 0.61918 1.15989
 H3384 H 0.29065 0.56794 1.10335
 C3385 C 0.69605 0.85581 0.86674
 C3386 C 0.70990 0.87485 0.86149
 C3387 C 0.73097 0.88122 0.87400
 C3388 C 0.74571 0.89775 0.86416
 C3389 C 0.76569 0.90460 0.87523
 C3390 C 0.77128 0.89522 0.89662
 C3391 C 0.75672 0.87851 0.90640
 C3392 C 0.73665 0.87166 0.89534
 C3393 C 0.79243 0.90200 0.90871
 C3394 C 0.80282 0.92357 0.90555
 H3395 H 0.70543 0.88544 0.84690
 H3396 H 0.74185 0.90528 0.84770
 H3397 H 0.77689 0.91689 0.86671
 H3398 H 0.76074 0.87094 0.92281
 H3399 H 0.72566 0.85917 0.90378
 H3400 H 0.79975 0.88956 0.92038
 H3401 H 0.70029 0.84431 0.88065
 H3402 H 0.79474 0.93600 0.89433
 C3403 C 0.69697 0.34943 0.36277
 C3404 C 0.71301 0.36669 0.35781
 C3405 C 0.73132 0.37352 0.37390
 C3406 C 0.74162 0.39529 0.37139
 C3407 C 0.75941 0.40209 0.38576
 C3408 C 0.76737 0.38717 0.40305
 C3409 C 0.75732 0.36524 0.40532
 C3410 C 0.73948 0.35846 0.39097
 C3411 C 0.78706 0.39334 0.41778
 C3412 C 0.79367 0.41615 0.42153
 H3413 H 0.71195 0.37578 0.34167
 H3414 H 0.73599 0.40706 0.35814
 H3415 H 0.76726 0.41877 0.38272
 H3416 H 0.76343 0.35322 0.41813
 H3417 H 0.73264 0.34119 0.39297
 H3418 H 0.79722 0.37947 0.42499
 H3419 H 0.69691 0.34125 0.37938
 H3420 H 0.78317 0.43001 0.41487
 C3421 C 0.20051 0.86787 0.35138
 C3422 C 0.21498 0.85988 0.36849
 C3423 C 0.23578 0.87268 0.37553
 C3424 C 0.24501 0.86830 0.39709
 C3425 C 0.26461 0.88004 0.40432
 C3426 C 0.27542 0.89653 0.39007
 C3427 C 0.26651 0.90046 0.36830
 C3428 C 0.24696 0.88868 0.36104
 C3429 C 0.29652 0.90906 0.39679
 C3430 C 0.30374 0.91082 0.41926
 H3431 H 0.21058 0.84405 0.37747
 H3432 H 0.23701 0.85574 0.40839
 H3433 H 0.27136 0.87567 0.42087
 H3434 H 0.27477 0.91266 0.35679
 H3435 H 0.24104 0.89189 0.34392
 H3436 H 0.30701 0.91670 0.38341
 H3437 H 0.20389 0.88432 0.34319
 H3438 H 0.29339 0.90345 0.43283
 C3439 C 0.20889 0.35213 0.86248
 C3440 C 0.21993 0.37336 0.86000
 C3441 C 0.23932 0.38012 0.87479
 C3442 C 0.24371 0.40359 0.87834
 C3443 C 0.26162 0.41053 0.89250
 C3444 C 0.27569 0.39401 0.90338
 C3445 C 0.27144 0.37054 0.89948
 C3446 C 0.25359 0.36364 0.88530
 C3447 C 0.29566 0.40028 0.91773
 C3448 C 0.30163 0.42288 0.92312
 H3449 H 0.21334 0.38585 0.84788
 H3450 H 0.23315 0.41663 0.87025
 H3451 H 0.26431 0.42883 0.89445
 H3452 H 0.28217 0.35743 0.90724
 H3453 H 0.25137 0.34537 0.88235
 H3454 H 0.30720 0.38655 0.92289
 H3455 H 0.21423 0.34034 0.87579
 H3456 H 0.29092 0.43713 0.91789
   
