data_POSCAR
  _audit_creation_date              2014-09-24
  _audit_creation_method            'ToBaCCo'
  _symmetry_space_group_name_H-M    'P1'
  _symmetry_Int_Tables_number       1
  _symmetry_cell_setting            triclinic
  loop_
  _symmetry_equiv_pos_as_xyz
 x,y,z
_cell_length_a 68.4418
_cell_length_b 68.1694
_cell_length_c 68.2245
_cell_angle_alpha 90.056700
_cell_angle_beta 89.999300
_cell_angle_gamma 89.970300
loop_
  _atom_site_label
  _atom_site_type_symbol
  _atom_site_fract_x
  _atom_site_fract_y
  _atom_site_fract_z
C1 C 0.31229 0.31268 -0.01264
 C2 C 0.31223 0.31287 0.00735
 C3 C 0.29976 0.32668 0.01863
 C4 C 0.32513 0.29974 0.01896
 C5 C 0.32665 0.30080 -0.02389
 C6 C 0.29846 0.32484 -0.02424
 C7 C 0.30087 0.34699 0.01545
 C8 C 0.28907 0.35984 0.02617
 C9 C 0.27612 0.35263 0.04045
 C10 C 0.27527 0.33230 0.04380
 C11 C 0.28704 0.31946 0.03303
 C12 C 0.33777 0.30781 0.03299
 C13 C 0.35040 0.29578 0.04365
 C14 C 0.35055 0.27538 0.04058
 C15 C 0.33754 0.26726 0.02684
 C16 C 0.32489 0.27933 0.01617
 C17 C 0.32015 0.28750 -0.03805
 C18 C 0.33346 0.27611 -0.04863
 C19 C 0.35392 0.27771 -0.04549
 C20 C 0.36014 0.29162 -0.03127
 C21 C 0.34673 0.30299 -0.02080
 C22 C 0.27821 0.32377 -0.02110
 C23 C 0.26548 0.33594 -0.03154
 C24 C 0.27275 0.34923 -0.04551
 C25 C 0.29299 0.34987 -0.04898
 C26 C 0.30570 0.33776 -0.03849
 H27 H 0.31094 0.35289 0.00472
 H28 H 0.29032 0.37545 0.02352
 H29 H 0.26532 0.32629 0.05456
 H30 H 0.28606 0.30385 0.03576
 H31 H 0.33807 0.32351 0.03548
 H32 H 0.35998 0.30244 0.05438
 H33 H 0.31503 0.27277 0.00563
 H34 H 0.30465 0.28559 -0.04062
 H35 H 0.32722 0.26538 -0.05843
 H36 H 0.37537 0.29477 -0.02865
 H37 H 0.35208 0.31369 -0.01035
 H38 H 0.27229 0.31361 -0.01045
 H39 H 0.24994 0.33489 -0.02878
 H40 H 0.29907 0.36009 -0.05947
 H41 H 0.32126 0.33880 -0.04116
 H42 H 0.33739 0.25161 0.02408
 C43 C 0.68746 0.68792 -0.00794
 C44 C 0.68781 0.68800 0.01205
 C45 C 0.69983 0.67375 0.02327
 C46 C 0.67568 0.70186 0.02368
 C47 C 0.67353 0.70027 -0.01917
 C48 C 0.70053 0.67497 -0.01959
 C49 C 0.69771 0.65348 0.02031
 C50 C 0.70923 0.64021 0.03079
 C51 C 0.72292 0.64696 0.04461
 C52 C 0.72472 0.66726 0.04779
 C53 C 0.71323 0.68052 0.03727
 C54 C 0.66301 0.69458 0.03810
 C55 C 0.65093 0.70730 0.04863
 C56 C 0.65135 0.72760 0.04503
 C57 C 0.66439 0.73492 0.03089
 C58 C 0.67654 0.72218 0.02041
 C59 C 0.68052 0.71299 -0.03371
 C60 C 0.66758 0.72462 -0.04444
 C61 C 0.64736 0.72365 -0.04091
 C62 C 0.64038 0.71071 -0.02650
 C63 C 0.65334 0.69903 -0.01581
 C64 C 0.72089 0.67536 -0.01698
 C65 C 0.73290 0.66266 -0.02767
 C66 C 0.72478 0.64943 -0.04125
 C67 C 0.70444 0.64945 -0.04414
 C68 C 0.69246 0.66213 -0.03347
 H69 H 0.68711 0.64794 0.00990
 H70 H 0.70723 0.62465 0.02829
 H71 H 0.73525 0.67291 0.05821
 H72 H 0.71499 0.69610 0.03982
 H73 H 0.66213 0.67896 0.04087
 H74 H 0.64089 0.70118 0.05926
 H75 H 0.68651 0.72814 0.00963
 H76 H 0.69605 0.71406 -0.03658
 H77 H 0.67341 0.73458 -0.05532
 H78 H 0.62486 0.70937 -0.02370
 H79 H 0.64762 0.68896 -0.00497
 H80 H 0.72743 0.68539 -0.00657
 H81 H 0.74850 0.66293 -0.02505
 H82 H 0.69779 0.63969 -0.05475
 H83 H 0.67682 0.66171 -0.03581
 H84 H 0.66528 0.75052 0.02803
 C85 C 0.68725 0.31230 1.01078
 C86 C 0.68772 0.31277 0.99081
 C87 C 0.70003 0.32705 0.98001
 C88 C 0.67526 0.29963 0.97874
 C89 C 0.67307 0.29988 1.02157
 C90 C 0.70031 0.32483 1.02286
 C91 C 0.69812 0.34729 0.98330
 C92 C 0.70967 0.36060 0.97292
 C93 C 0.72321 0.35392 0.95891
 C94 C 0.72490 0.33364 0.95550
 C95 C 0.71335 0.32035 0.96589
 C96 C 0.66263 0.30775 0.96475
 C97 C 0.65020 0.29573 0.95386
 C98 C 0.65023 0.27530 0.95666
 C99 C 0.66332 0.26712 0.97029
 C100 C 0.67577 0.27918 0.98119
 C101 C 0.67979 0.28654 1.03568
 C102 C 0.66659 0.27488 1.04606
 C103 C 0.64639 0.27646 1.04261
 C104 C 0.63969 0.29002 1.02861
 C105 C 0.65290 0.30170 1.01827
 C106 C 0.72063 0.32442 1.02040
 C107 C 0.73264 0.33685 1.03139
 C108 C 0.72463 0.35002 1.04529
 C109 C 0.70414 0.34976 1.04798
 C110 C 0.69223 0.33734 1.03697
 H111 H 0.68766 0.35277 0.99388
 H112 H 0.70813 0.37611 0.97597
 H113 H 0.73495 0.32807 0.94457
 H114 H 0.71486 0.30480 0.96300
 H115 H 0.66212 0.32348 0.96254
 H116 H 0.64055 0.30243 0.94321
 H117 H 0.68565 0.27260 0.99171
 H118 H 0.69529 0.28502 1.03849
 H119 H 0.67220 0.26445 1.05661
 H120 H 0.62421 0.29183 1.02590
 H121 H 0.64741 0.31225 1.00778
 H122 H 0.72719 0.31466 1.00972
 H123 H 0.74809 0.33659 1.02815
 H124 H 0.69708 0.35867 1.05902
 H125 H 0.67658 0.33765 1.03932
 H126 H 0.66362 0.25145 0.97282
 C127 C 0.31415 0.68581 1.01042
 C128 C 0.31412 0.68597 0.99042
 C129 C 0.30049 0.67351 0.97890
 C130 C 0.32817 0.69811 0.97909
 C131 C 0.32681 0.69925 1.02197
 C132 C 0.30200 0.67174 1.02173
 C133 C 0.30794 0.66053 0.96479
 C134 C 0.29544 0.64807 0.95446
 C135 C 0.27519 0.64843 0.95794
 C136 C 0.26769 0.66186 0.97167
 C137 C 0.28022 0.67433 0.98201
 C138 C 0.34839 0.69628 0.98206
 C139 C 0.36145 0.70790 0.97146
 C140 C 0.35457 0.72145 0.95754
 C141 C 0.33432 0.72298 0.95437
 C142 C 0.32126 0.71136 0.96498
 C143 C 0.32621 0.71959 1.01909
 C144 C 0.33879 0.73198 1.02947
 C145 C 0.35234 0.72435 1.04317
 C146 C 0.35229 0.70384 1.04631
 C147 C 0.33969 0.69154 1.03591
 C148 C 0.28901 0.67865 1.03598
 C149 C 0.27735 0.66560 1.04658
 C150 C 0.27848 0.64511 1.04335
 C151 C 0.29198 0.63837 1.02913
 C152 C 0.30359 0.65149 1.01858
 H153 H 0.32352 0.65977 0.96206
 H154 H 0.30163 0.63815 0.94371
 H155 H 0.25218 0.66242 0.97474
 H156 H 0.27415 0.68447 0.99261
 H157 H 0.35403 0.68589 0.99264
 H158 H 0.37694 0.70647 0.97434
 H159 H 0.30572 0.71282 0.96233
 H160 H 0.31618 0.72588 1.00854
 H161 H 0.33834 0.74741 1.02589
 H162 H 0.36151 0.69706 1.05724
 H163 H 0.34017 0.67589 1.03858
 H164 H 0.28782 0.69423 1.03886
 H165 H 0.26804 0.67177 1.05780
 H166 H 0.29321 0.62301 1.02539
 H167 H 0.31375 0.64583 1.00779
 H168 H 0.32858 0.73304 0.94352
 C169 C -0.00936 0.31236 0.31397
 C170 C 0.01057 0.31242 0.31406
 C171 C 0.02191 0.30026 0.32806
 C172 C 0.02201 0.32524 0.30068
 C173 C -0.02069 0.32645 0.30188
 C174 C -0.02085 0.29872 0.32648
 C175 C 0.01885 0.30188 0.34834
 C176 C 0.02953 0.29029 0.36138
 C177 C 0.04361 0.27699 0.35438
 C178 C 0.04687 0.27565 0.33408
 C179 C 0.03618 0.28726 0.32105
 C180 C 0.03587 0.33823 0.30849
 C181 C 0.04620 0.35093 0.29624
 C182 C 0.04298 0.35082 0.27589
 C183 C 0.02946 0.33741 0.26802
 C184 C 0.01912 0.32469 0.28031
 C185 C -0.03464 0.31954 0.28859
 C186 C -0.04530 0.33263 0.27703
 C187 C -0.04243 0.35313 0.27857
 C188 C -0.02850 0.35986 0.29235
 C189 C -0.01788 0.34671 0.30387
 C190 C -0.01767 0.27841 0.32591
 C191 C -0.02820 0.26586 0.33820
 C192 C -0.04248 0.27324 0.35129
 C193 C -0.04580 0.29373 0.35131
 C194 C -0.03518 0.30620 0.33908
 H195 H 0.00814 0.31210 0.35406
 H196 H 0.02659 0.29156 0.37692
 H197 H 0.05785 0.26579 0.32827
 H198 H 0.03889 0.28597 0.30546
 H199 H 0.03843 0.33877 0.32415
 H200 H 0.05678 0.36081 0.30271
 H201 H 0.00871 0.31456 0.27395
 H202 H -0.03724 0.30394 0.28710
 H203 H -0.05629 0.32646 0.26747
 H204 H -0.02504 0.37525 0.29389
 H205 H -0.00732 0.35235 0.31426
 H206 H -0.00702 0.27226 0.31589
 H207 H -0.02549 0.25031 0.33675
 H208 H -0.05592 0.30054 0.36140
 H209 H -0.03782 0.32186 0.33981
 H210 H 0.02659 0.33703 0.25242
 C211 C -0.01133 0.68719 0.68639
 C212 C 0.00858 0.68732 0.68685
 C213 C 0.02019 0.69934 0.67296
 C214 C 0.01979 0.67474 0.70064
 C215 C -0.02284 0.67323 0.69843
 C216 C -0.02259 0.70039 0.67323
 C217 C 0.01779 0.69725 0.65264
 C218 C 0.02882 0.70860 0.63970
 C219 C 0.04260 0.72213 0.64686
 C220 C 0.04516 0.72396 0.66723
 C221 C 0.03412 0.71259 0.68015
 C222 C 0.03386 0.66171 0.69329
 C223 C 0.04395 0.64918 0.70590
 C224 C 0.04027 0.64950 0.72617
 C225 C 0.02655 0.66296 0.73359
 C226 C 0.01645 0.67552 0.72094
 C227 C -0.03723 0.68028 0.71118
 C228 C -0.04804 0.66733 0.72274
 C229 C -0.04482 0.64684 0.72179
 C230 C -0.03046 0.63997 0.70853
 C231 C -0.01975 0.65298 0.69696
 C232 C -0.01982 0.72076 0.67357
 C233 C -0.03006 0.73289 0.66063
 C234 C -0.04350 0.72499 0.64697
 C235 C -0.04648 0.70445 0.64724
 C236 C -0.03623 0.69241 0.66019
 H237 H 0.00736 0.68682 0.64680
 H238 H 0.02642 0.70696 0.62410
 H239 H 0.05589 0.73401 0.67316
 H240 H 0.03632 0.71423 0.69579
 H241 H 0.03677 0.66098 0.67770
 H242 H 0.05470 0.63924 0.69978
 H243 H 0.00585 0.68569 0.72694
 H244 H -0.03983 0.69590 0.71249
 H245 H -0.05828 0.67369 0.73300
 H246 H -0.02786 0.62448 0.70633
 H247 H -0.00909 0.64722 0.68673
 H248 H -0.00950 0.72725 0.68371
 H249 H -0.02661 0.74836 0.66093
 H250 H -0.05721 0.69746 0.63794
 H251 H -0.03881 0.67674 0.65989
 H252 H 0.02334 0.66350 0.74912
 C253 C 1.01110 0.68756 0.31191
 C254 C 0.99118 0.68763 0.31136
 C255 C 0.97945 0.70135 0.32356
 C256 C 0.98008 0.67349 0.29910
 C257 C 1.02286 0.67482 0.29873
 C258 C 1.02213 0.69972 0.32620
 C259 C 0.96489 0.69392 0.33596
 C260 C 0.95405 0.70652 0.34789
 C261 C 0.95749 0.72684 0.34759
 C262 C 0.97185 0.73432 0.33489
 C263 C 0.98265 0.72169 0.32289
 C264 C 0.98293 0.65320 0.30114
 C265 C 0.97223 0.64002 0.28970
 C266 C 0.95834 0.64689 0.27615
 C267 C 0.95538 0.66722 0.27432
 C268 C 0.96609 0.68038 0.28576
 C269 C 1.02029 0.67528 0.27836
 C270 C 1.03113 0.66285 0.26620
 C271 C 1.04510 0.64973 0.27407
 C272 C 1.04780 0.64981 0.29463
 C273 C 1.03688 0.66219 0.30670
 C274 C 1.03661 0.71259 0.31958
 C275 C 1.04720 0.72401 0.33285
 C276 C 1.04374 0.72275 0.35326
 C277 C 1.02921 0.70947 0.35970
 C278 C 1.01866 0.69809 0.34636
 H279 H 0.96217 0.67829 0.33668
 H280 H 0.94326 0.70029 0.35768
 H281 H 0.97461 0.74993 0.33413
 H282 H 0.99356 0.72776 0.31313
 H283 H 0.99341 0.64758 0.31162
 H284 H 0.97493 0.62446 0.29135
 H285 H 0.96354 0.69598 0.28415
 H286 H 1.00990 0.68534 0.27184
 H287 H 1.02891 0.66422 0.25058
 H288 H 1.05766 0.63970 0.30177
 H289 H 1.03905 0.66156 0.32242
 H290 H 1.03972 0.71380 0.30406
 H291 H 1.05863 0.73317 0.32691
 H292 H 1.02529 0.70819 0.37499
 H293 H 1.00768 0.68803 0.35179
 H294 H 0.94457 0.67293 0.26425
 C295 C 1.00922 0.31363 0.68684
 C296 C 0.98929 0.31337 0.68673
 C297 C 0.97814 0.29959 0.67408
 C298 C 0.97765 0.32735 0.69869
 C299 C 1.02039 0.32652 0.70039
 C300 C 1.02083 0.30152 0.67295
 C301 C 0.96425 0.30696 0.66088
 C302 C 0.95428 0.29433 0.64826
 C303 C 0.95789 0.27403 0.64866
 C304 C 0.97141 0.26660 0.66229
 C305 C 0.98140 0.27926 0.67493
 C306 C 0.98036 0.34768 0.69688
 C307 C 0.96939 0.36069 0.70827
 C308 C 0.95536 0.35362 0.72156
 C309 C 0.95245 0.33326 0.72308
 C310 C 0.96344 0.32026 0.71168
 C311 C 1.01723 0.32593 0.72072
 C312 C 1.02731 0.33872 0.73317
 C313 C 1.04084 0.35222 0.72552
 C314 C 1.04434 0.35236 0.70521
 C315 C 1.03426 0.33960 0.69280
 C316 C 1.03510 0.28867 0.68006
 C317 C 1.04594 0.27701 0.66718
 C318 C 1.04288 0.27795 0.64669
 C319 C 1.02865 0.29132 0.63974
 C320 C 1.01791 0.30298 0.65268
 H321 H 0.96142 0.32257 0.66010
 H322 H 0.94368 0.30045 0.63819
 H323 H 0.97457 0.25105 0.66289
 H324 H 0.99185 0.27325 0.68523
 H325 H 0.99101 0.35346 0.68666
 H326 H 0.97207 0.37628 0.70685
 H327 H 0.96098 0.30463 0.71312
 H328 H 1.00681 0.31572 0.72691
 H329 H 1.02424 0.33831 0.74873
 H330 H 1.05493 0.36233 0.69892
 H331 H 1.03703 0.34017 0.67718
 H332 H 1.03756 0.28735 0.69569
 H333 H 1.05606 0.26669 0.67362
 H334 H 1.02617 0.29352 0.62425
 H335 H 1.00734 0.31327 0.64686
 H336 H 0.94153 0.32738 0.73293
 C337 C 0.31215 -0.01039 0.31254
 C338 C 0.31227 0.00961 0.31279
 C339 C 0.32622 0.02106 0.30069
 C340 C 0.29905 0.02103 0.32580
 C341 C 0.30017 -0.02184 0.32658
 C342 C 0.32459 -0.02184 0.29880
 C343 C 0.34643 0.01795 0.30226
 C344 C 0.35942 0.02874 0.29075
 C345 C 0.35244 0.04297 0.27759
 C346 C 0.33219 0.04626 0.27630
 C347 C 0.31922 0.03546 0.28783
 C348 C 0.30696 0.03482 0.33884
 C349 C 0.29486 0.04512 0.35172
 C350 C 0.27457 0.04194 0.35173
 C351 C 0.26660 0.02850 0.33828
 C352 C 0.27873 0.01819 0.32538
 C353 C 0.28689 -0.03586 0.31959
 C354 C 0.27556 -0.04675 0.33267
 C355 C 0.27746 -0.04395 0.35301
 C356 C 0.29100 -0.03009 0.35997
 C357 C 0.30231 -0.01920 0.34687
 C358 C 0.32402 -0.01851 0.27854
 C359 C 0.33626 -0.02902 0.26591
 C360 C 0.34930 -0.04340 0.27316
 C361 C 0.34932 -0.04687 0.29361
 C362 C 0.33714 -0.03628 0.30616
 H363 H 0.35213 0.00714 0.31238
 H364 H 0.37492 0.02579 0.29197
 H365 H 0.32640 0.05735 0.26654
 H366 H 0.30368 0.03820 0.28659
 H367 H 0.32258 0.03734 0.33930
 H368 H 0.30140 0.05564 0.36165
 H369 H 0.27231 0.00784 0.31520
 H370 H 0.28521 -0.03824 0.30398
 H371 H 0.26550 -0.05755 0.32689
 H372 H 0.29269 -0.02751 0.37554
 H373 H 0.31275 -0.00870 0.35256
 H374 H 0.31403 -0.00778 0.27249
 H375 H 0.33484 -0.02619 0.25039
 H376 H 0.35938 -0.05708 0.30032
 H377 H 0.33788 -0.03903 0.32178
 H378 H 0.25104 0.02567 0.33799
 C379 C 0.68735 -0.01114 0.68634
 C380 C 0.68764 0.00887 0.68664
 C381 C 0.67367 0.02030 0.69878
 C382 C 0.70146 0.02035 0.67434
 C383 C 0.69946 -0.02252 0.67230
 C384 C 0.67442 -0.02262 0.69956
 C385 C 0.65343 0.01760 0.69680
 C386 C 0.64043 0.02832 0.70840
 C387 C 0.64741 0.04211 0.72205
 C388 C 0.66768 0.04503 0.72372
 C389 C 0.68067 0.03427 0.71214
 C390 C 0.69424 0.03487 0.66171
 C391 C 0.70691 0.04536 0.64959
 C392 C 0.72711 0.04164 0.64993
 C393 C 0.73438 0.02735 0.66288
 C394 C 0.72168 0.01689 0.67507
 C395 C 0.71220 -0.03705 0.67924
 C396 C 0.72385 -0.04769 0.66619
 C397 C 0.72286 -0.04406 0.64593
 C398 C 0.70981 -0.02973 0.63899
 C399 C 0.69813 -0.01914 0.65204
 C400 C 0.67488 -0.01993 0.71992
 C401 C 0.66214 -0.03034 0.73209
 C402 C 0.64857 -0.04391 0.72423
 C403 C 0.64873 -0.04683 0.70369
 C404 C 0.66148 -0.03639 0.69162
 H405 H 0.64772 0.00722 0.68623
 H406 H 0.62489 0.02602 0.70651
 H407 H 0.67351 0.05542 0.73421
 H408 H 0.69624 0.03662 0.71379
 H409 H 0.67870 0.03778 0.66093
 H410 H 0.70083 0.05610 0.63962
 H411 H 0.72761 0.00604 0.68501
 H412 H 0.71334 -0.03993 0.69481
 H413 H 0.73387 -0.05852 0.67199
 H414 H 0.70845 -0.02687 0.62344
 H415 H 0.68805 -0.00830 0.64636
 H416 H 0.68495 -0.00952 0.72639
 H417 H 0.66251 -0.02693 0.74756
 H418 H 0.63949 -0.05764 0.69673
 H419 H 0.66110 -0.03892 0.67594
 H420 H 0.74990 0.02437 0.66370
 C421 C 0.31321 1.00986 0.68825
 C422 C 0.31341 0.98986 0.68787
 C423 C 0.32634 0.97830 0.70100
 C424 C 0.30123 0.97854 0.67384
 C425 C 0.29941 1.02144 0.67604
 C426 C 0.32729 1.02120 0.70033
 C427 C 0.33925 0.96450 0.69293
 C428 C 0.35195 0.95395 0.70497
 C429 C 0.35192 0.95690 0.72537
 C430 C 0.33863 0.97039 0.73349
 C431 C 0.32590 0.98094 0.72142
 C432 C 0.30252 0.98193 0.65359
 C433 C 0.29102 0.97117 0.64053
 C434 C 0.27818 0.95664 0.64747
 C435 C 0.27716 0.95309 0.66774
 C436 C 0.28863 0.96390 0.68079
 C437 C 0.27918 1.01811 0.67685
 C438 C 0.26649 1.02876 0.66482
 C439 C 0.27379 1.04311 0.65197
 C440 C 0.29401 1.04668 0.65154
 C441 C 0.30667 1.03599 0.66349
 C442 C 0.32041 1.03522 0.71370
 C443 C 0.33350 1.04609 0.72505
 C444 C 0.35376 1.04326 0.72309
 C445 C 0.36062 1.02936 0.70948
 C446 C 0.34751 1.01850 0.69814
 H447 H 0.33970 0.96212 0.67723
 H448 H 0.36176 0.94341 0.69831
 H449 H 0.33833 0.97305 0.74913
 H450 H 0.31583 0.99130 0.72796
 H451 H 0.31250 0.99286 0.64790
 H452 H 0.29239 0.97399 0.62498
 H453 H 0.28753 0.96101 0.69636
 H454 H 0.27324 1.00721 0.68674
 H455 H 0.25095 1.02589 0.66569
 H456 H 0.30010 1.05747 0.64163
 H457 H 0.32222 1.03881 0.66266
 H458 H 0.30486 1.03766 0.71543
 H459 H 0.32779 1.05691 0.73516
 H460 H 0.37613 1.02675 0.70773
 H461 H 0.35312 1.00800 0.68763
 H462 H 0.26729 0.94213 0.67354
 C463 C 0.68607 1.01160 0.31290
 C464 C 0.68595 0.99159 0.31291
 C465 C 0.67313 0.98021 0.29949
 C466 C 0.69817 0.98010 0.32677
 C467 C 0.69984 1.02302 0.32532
 C468 C 0.67198 1.02309 0.30095
 C469 C 0.66017 0.96629 0.30721
 C470 C 0.64744 0.95606 0.29490
 C471 C 0.64751 0.95945 0.27457
 C472 C 0.66090 0.97302 0.26679
 C473 C 0.67364 0.98325 0.27913
 C474 C 0.69688 0.98322 0.34708
 C475 C 0.70864 0.97252 0.35995
 C476 C 0.72174 0.95832 0.35278
 C477 C 0.72269 0.95496 0.33246
 C478 C 0.71096 0.96571 0.31960
 C479 C 0.72004 1.01971 0.32451
 C480 C 0.73272 1.03005 0.33682
 C481 C 0.72559 1.04425 0.35017
 C482 C 0.70521 1.04775 0.35039
 C483 C 0.69260 1.03732 0.33814
 C484 C 0.67886 1.03727 0.28777
 C485 C 0.66576 1.04810 0.27638
 C486 C 0.64551 1.04507 0.27810
 C487 C 0.63866 1.03107 0.29158
 C488 C 0.65177 1.02026 0.30296
 H489 H 0.65965 0.96362 0.32285
 H490 H 0.63757 0.94544 0.30129
 H491 H 0.66125 0.97601 0.25121
 H492 H 0.68376 0.99371 0.27284
 H493 H 0.68676 0.99394 0.35294
 H494 H 0.70731 0.97517 0.37554
 H495 H 0.71207 0.96302 0.30399
 H496 H 0.72600 1.00909 0.31431
 H497 H 0.74819 1.02723 0.33521
 H498 H 0.69859 1.05783 0.36067
 H499 H 0.67703 1.04005 0.33905
 H500 H 0.69440 1.03982 0.28618
 H501 H 0.67147 1.05900 0.26638
 H502 H 0.62316 1.02830 0.29315
 H503 H 0.64615 1.00963 0.31332
 H504 H 0.73275 0.94426 0.32648
 O505 O 0.84179 0.86870 0.51733
 O506 O 0.86921 0.84271 0.47877
 O507 O 0.84162 0.86913 0.47925
 O508 O 0.86933 0.84224 0.51699
 O509 O 0.84703 0.81890 0.51674
 O510 O 0.81937 0.84573 0.47907
 O511 O 0.84692 0.81937 0.47858
 O512 O 0.81953 0.84531 0.51710
 Cu513 Cu 0.85774 0.85802 0.49811
 Cu514 Cu 0.83101 0.82996 0.49785
 C515 C 0.82590 0.86151 0.52374
 C516 C 0.86274 0.82658 0.47206
 C517 C 0.82568 0.86208 0.47279
 C518 C 0.86291 0.82595 0.52334
 O519 O 0.15777 0.13051 0.52068
 O520 O 0.13170 0.15796 0.48223
 O521 O 0.15807 0.13032 0.48245
 O522 O 0.13145 0.15819 0.52031
 O523 O 0.15475 0.18053 0.52035
 O524 O 0.18131 0.15271 0.48254
 O525 O 0.15499 0.18031 0.48232
 O526 O 0.18101 0.15290 0.52072
 Cu527 Cu 0.14243 0.14197 0.50141
 Cu528 Cu 0.17037 0.16882 0.50149
 C529 C 0.17386 0.13702 0.52729
 C530 C 0.13883 0.17390 0.47578
 C531 C 0.17426 0.13676 0.47601
 C532 C 0.13849 0.17420 0.52673
 O533 O 0.16142 0.86540 0.48141
 O534 O 0.13455 0.83862 0.51969
 O535 O 0.16155 0.86559 0.51951
 O536 O 0.13438 0.83849 0.48160
 O537 O 0.15710 0.81553 0.48160
 O538 O 0.18426 0.84262 0.51949
 O539 O 0.15727 0.81567 0.51967
 O540 O 0.18413 0.84242 0.48142
 Cu541 Cu 0.14570 0.85433 0.50056
 Cu542 Cu 0.17297 0.82676 0.50055
 C543 C 0.17743 0.85853 0.47492
 C544 C 0.14126 0.82250 0.52616
 C545 C 0.17761 0.85880 0.52593
 C546 C 0.14104 0.82232 0.47517
 O547 O 0.87217 0.15417 0.51895
 O548 O 0.84493 0.12742 0.48070
 O549 O 0.87202 0.15434 0.48075
 O550 O 0.84512 0.12720 0.51893
 O551 O 0.82246 0.15021 0.51913
 O552 O 0.84930 0.17729 0.48104
 O553 O 0.82228 0.15045 0.48100
 O554 O 0.84943 0.17710 0.51916
 Cu555 Cu 0.86083 0.13847 0.49981
 Cu556 Cu 0.83360 0.16605 0.50011
 C557 C 0.86547 0.17026 0.52557
 C558 C 0.82892 0.13438 0.47431
 C559 C 0.86527 0.17049 0.47438
 C560 C 0.82917 0.13406 0.52556
 O561 O 0.51977 0.84121 0.86886
 O562 O 0.48157 0.86830 0.84218
 O563 O 0.48180 0.84090 0.86884
 O564 O 0.51966 0.86848 0.84204
 O565 O 0.51975 0.84579 0.81899
 O566 O 0.48195 0.81828 0.84570
 O567 O 0.48171 0.84564 0.81908
 O568 O 0.51988 0.81856 0.84576
 Cu569 Cu 0.50069 0.85701 0.85778
 Cu570 Cu 0.50084 0.82982 0.83005
 C571 C 0.52628 0.82518 0.86194
 C572 C 0.47511 0.86161 0.82604
 C573 C 0.47547 0.82480 0.86190
 C574 C 0.52617 0.86185 0.82590
 O575 O 0.47951 0.13301 0.15955
 O576 O 0.51724 0.16002 0.13217
 O577 O 0.51748 0.13348 0.15970
 O578 O 0.47922 0.15945 0.13197
 O579 O 0.47882 0.18277 0.15440
 O580 O 0.51704 0.15681 0.18211
 O581 O 0.51681 0.18332 0.15461
 O582 O 0.47911 0.15636 0.18194
 Cu583 Cu 0.49841 0.14415 0.14359
 Cu584 Cu 0.49791 0.17216 0.17050
 C585 C 0.47291 0.14003 0.17549
 C586 C 0.52344 0.17634 0.13868
 C587 C 0.52373 0.14064 0.17571
 C588 C 0.47250 0.17559 0.13842
 O589 O 0.48243 0.16066 0.86681
 O590 O 0.51984 0.13290 0.83958
 O591 O 0.52046 0.15971 0.86681
 O592 O 0.48188 0.13362 0.83973
 O593 O 0.48233 0.15657 0.81697
 O594 O 0.52088 0.18268 0.84407
 O595 O 0.52025 0.15590 0.81687
 O596 O 0.48288 0.18358 0.84403
 Cu597 Cu 0.50110 0.14443 0.85553
 Cu598 Cu 0.50162 0.17199 0.82822
 C599 C 0.47629 0.17692 0.86010
 C600 C 0.52640 0.13962 0.82350
 C601 C 0.52727 0.17568 0.86009
 C602 C 0.47558 0.14055 0.82365
 O603 O 0.48068 0.84455 0.12852
 O604 O 0.51816 0.87233 0.15571
 O605 O 0.51878 0.84512 0.12881
 O606 O 0.48008 0.87184 0.15534
 O607 O 0.48025 0.84910 0.17830
 O608 O 0.51887 0.82244 0.15185
 O609 O 0.51824 0.84958 0.17867
 O610 O 0.48086 0.82187 0.15155
 Cu611 Cu 0.49941 0.86074 0.13978
 Cu612 Cu 0.49956 0.83348 0.16739
 C613 C 0.47437 0.82843 0.13539
 C614 C 0.52461 0.86570 0.17187
 C615 C 0.52545 0.82919 0.13580
 C616 C 0.47355 0.86504 0.17139
 O617 O 0.86653 0.51957 0.83993
 O618 O 0.83969 0.48182 0.86753
 O619 O 0.86613 0.48145 0.83997
 O620 O 0.84024 0.51998 0.86755
 O621 O 0.81700 0.52024 0.84516
 O622 O 0.84288 0.48173 0.81758
 O623 O 0.81647 0.48211 0.84512
 O624 O 0.84326 0.51982 0.81757
 Cu625 Cu 0.85548 0.50067 0.85600
 Cu626 Cu 0.82757 0.50099 0.82912
 C627 C 0.85952 0.52611 0.82398
 C628 C 0.82342 0.47556 0.86109
 C629 C 0.85901 0.47508 0.82399
 C630 C 0.82415 0.52668 0.86110
 O631 O 0.13180 0.51862 0.15803
 O632 O 0.15856 0.48013 0.13125
 O633 O 0.13135 0.48037 0.15806
 O634 O 0.15911 0.51824 0.13137
 O635 O 0.18161 0.51789 0.15452
 O636 O 0.15392 0.48009 0.18113
 O637 O 0.18109 0.47983 0.15437
 O638 O 0.15434 0.51829 0.18113
 Cu639 Cu 0.14293 0.49936 0.14238
 Cu640 Cu 0.16997 0.49899 0.17012
 C641 C 0.13849 0.52505 0.17417
 C642 C 0.17448 0.47348 0.13816
 C643 C 0.13789 0.47375 0.17419
 C644 C 0.17518 0.52447 0.13833
 O645 O 0.84021 0.51763 0.13328
 O646 O 0.86768 0.48011 0.16069
 O647 O 0.84085 0.47945 0.13360
 O648 O 0.86728 0.51822 0.16020
 O649 O 0.84452 0.51819 0.18309
 O650 O 0.81808 0.47943 0.15648
 O651 O 0.84488 0.48011 0.18353
 O652 O 0.81749 0.51758 0.15619
 Cu653 Cu 0.85628 0.49887 0.14463
 Cu654 Cu 0.82895 0.49884 0.17210
 C655 C 0.82410 0.52399 0.14003
 C656 C 0.86101 0.47375 0.17686
 C657 C 0.82492 0.47281 0.14047
 C658 C 0.86051 0.52475 0.17627
 O659 O 0.12728 0.48198 0.84478
 O660 O 0.15472 0.51985 0.87187
 O661 O 0.12739 0.52020 0.84519
 O662 O 0.15452 0.48161 0.87149
 O663 O 0.17700 0.48176 0.84833
 O664 O 0.14993 0.52028 0.82209
 O665 O 0.17718 0.51992 0.84870
 O666 O 0.14982 0.48214 0.82168
 Cu667 Cu 0.13873 0.50091 0.86066
 Cu668 Cu 0.16573 0.50105 0.83289
 C669 C 0.13386 0.47560 0.82856
 C670 C 0.17068 0.52635 0.86492
 C671 C 0.13400 0.52681 0.82909
 C672 C 0.17042 0.47507 0.86440
 C673 C 0.24017 0.39228 0.07367
 C674 C 0.24913 0.37632 0.08292
 C675 C 0.26077 0.36339 0.07212
 C676 C 0.26363 0.36628 0.05190
 C677 C 0.25452 0.38234 0.04273
 C678 C 0.24287 0.39525 0.05356
 C679 C 0.22842 0.40573 0.08487
 C680 C 0.21872 0.41710 0.09429
 C681 C 0.20732 0.43082 0.10553
 C682 C 0.18956 0.43786 0.09818
 C683 C 0.17874 0.45158 0.10889
 C684 C 0.18557 0.45844 0.12711
 C685 C 0.20335 0.45112 0.13445
 C686 C 0.21414 0.43740 0.12371
 H687 H 0.24720 0.37393 0.09850
 H688 H 0.26779 0.35131 0.07964
 H689 H 0.25625 0.38481 0.02715
 H690 H 0.23597 0.40754 0.04626
 H691 H 0.18416 0.43286 0.08411
 H692 H 0.16513 0.45693 0.10282
 H693 H 0.20902 0.45610 0.14841
 H694 H 0.22787 0.43205 0.12953
 C695 C 0.75846 0.60606 0.07669
 C696 C 0.75049 0.62242 0.08618
 C697 C 0.73896 0.63575 0.07575
 C698 C 0.73523 0.63286 0.05567
 C699 C 0.74334 0.61639 0.04626
 C700 C 0.75488 0.60309 0.05671
 C701 C 0.77012 0.59223 0.08750
 C702 C 0.77975 0.58060 0.09663
 C703 C 0.79107 0.56662 0.10762
 C704 C 0.80889 0.55973 0.10025
 C705 C 0.81973 0.54594 0.11084
 C706 C 0.81286 0.53887 0.12894
 C707 C 0.79497 0.54597 0.13625
 C708 C 0.78417 0.55975 0.12564
 H709 H 0.75311 0.62482 0.10166
 H710 H 0.73273 0.64815 0.08347
 H711 H 0.74095 0.61391 0.03076
 H712 H 0.76101 0.59049 0.04921
 H713 H 0.81436 0.56495 0.08630
 H714 H 0.83343 0.54077 0.10480
 H715 H 0.78926 0.54083 0.15013
 H716 H 0.77039 0.56499 0.13147
 C717 C 0.75834 0.39460 0.92621
 C718 C 0.73869 0.39881 0.92999
 C719 C 0.72727 0.38563 0.94070
 C720 C 0.73539 0.36804 0.94776
 C721 C 0.75519 0.36397 0.94393
 C722 C 0.76658 0.37718 0.93323
 C723 C 0.76998 0.40812 0.91502
 C724 C 0.77958 0.41951 0.90558
 C725 C 0.79083 0.43323 0.89424
 C726 C 0.78356 0.44017 0.87638
 C727 C 0.79424 0.45381 0.86550
 C728 C 0.81237 0.46071 0.87236
 C729 C 0.81964 0.45352 0.89027
 C730 C 0.80891 0.43987 0.90113
 H731 H 0.73216 0.41223 0.92458
 H732 H 0.71202 0.38906 0.94318
 H733 H 0.76191 0.35066 0.94938
 H734 H 0.78180 0.37381 0.93042
 H735 H 0.76957 0.43513 0.87092
 H736 H 0.78823 0.45905 0.85178
 H737 H 0.83354 0.45854 0.89597
 H738 H 0.81467 0.43459 0.91495
 C739 C 0.23745 0.60837 0.92727
 C740 C 0.25554 0.60201 0.93439
 C741 C 0.26776 0.61501 0.94440
 C742 C 0.26205 0.63462 0.94744
 C743 C 0.24377 0.64086 0.94034
 C744 C 0.23156 0.62781 0.93030
 C745 C 0.22513 0.59494 0.91665
 C746 C 0.21517 0.58346 0.90765
 C747 C 0.20368 0.56951 0.89677
 C748 C 0.18603 0.56249 0.90439
 C749 C 0.17519 0.54853 0.89399
 C750 C 0.18189 0.54141 0.87582
 C751 C 0.19959 0.54868 0.86824
 C752 C 0.21038 0.56262 0.87866
 H753 H 0.26022 0.58698 0.93217
 H754 H 0.28159 0.60968 0.94995
 H755 H 0.23906 0.65590 0.94228
 H756 H 0.21761 0.63291 0.92479
 H757 H 0.18072 0.56769 0.91842
 H758 H 0.16163 0.54324 0.90024
 H759 H 0.20517 0.54353 0.85430
 H760 H 0.22404 0.56793 0.87263
 C761 C 0.07627 0.24105 0.39444
 C762 C 0.06938 0.23311 0.37683
 C763 C 0.05877 0.24479 0.36378
 C764 C 0.05489 0.26458 0.36821
 C765 C 0.06188 0.27241 0.38597
 C766 C 0.07250 0.26071 0.39898
 C767 C 0.08718 0.22905 0.40788
 C768 C 0.09632 0.21913 0.41926
 C769 C 0.10723 0.20747 0.43301
 C770 C 0.09963 0.18968 0.43980
 C771 C 0.11000 0.17862 0.45357
 C772 C 0.12812 0.18525 0.46073
 C773 C 0.13571 0.20307 0.45366
 C774 C 0.12531 0.21410 0.43990
 H775 H 0.07217 0.21788 0.37321
 H776 H 0.05337 0.23827 0.35036
 H777 H 0.05935 0.28765 0.38967
 H778 H 0.07782 0.26702 0.41255
 H779 H 0.08563 0.18443 0.43457
 H780 H 0.10375 0.16497 0.45872
 H781 H 0.14960 0.20859 0.45887
 H782 H 0.13131 0.22787 0.43474
 C783 C 0.07657 0.75711 0.60713
 C784 C 0.06901 0.76549 0.62426
 C785 C 0.05796 0.75413 0.63720
 C786 C 0.05432 0.73422 0.63314
 C787 C 0.06198 0.72594 0.61587
 C788 C 0.07304 0.73733 0.60297
 C789 C 0.08790 0.76879 0.59378
 C790 C 0.09738 0.77845 0.58248
 C791 C 0.10865 0.78981 0.56880
 C792 C 0.12658 0.78268 0.56198
 C793 C 0.13731 0.79342 0.54826
 C794 C 0.13022 0.81146 0.54118
 C795 C 0.11226 0.81859 0.54829
 C796 C 0.10156 0.80782 0.56201
 H797 H 0.07161 0.78082 0.62758
 H798 H 0.05204 0.76096 0.65024
 H799 H 0.05964 0.71060 0.61247
 H800 H 0.07886 0.73070 0.58976
 H801 H 0.13219 0.76875 0.56714
 H802 H 0.15107 0.78752 0.54309
 H803 H 0.10640 0.83241 0.54313
 H804 H 0.08768 0.81345 0.56720
 C805 C 0.92536 0.76401 0.38702
 C806 C 0.91581 0.74897 0.37687
 C807 C 0.92618 0.73709 0.36381
 C808 C 0.94629 0.74009 0.36073
 C809 C 0.95571 0.75545 0.37076
 C810 C 0.94530 0.76731 0.38385
 C811 C 0.91479 0.77559 0.40112
 C812 C 0.90578 0.78491 0.41312
 C813 C 0.89486 0.79564 0.42763
 C814 C 0.87721 0.78806 0.43466
 C815 C 0.86671 0.79817 0.44905
 C816 C 0.87375 0.81603 0.45661
 C817 C 0.89147 0.82359 0.44937
 C818 C 0.90195 0.81344 0.43497
 H819 H 0.90038 0.74630 0.37920
 H820 H 0.91847 0.72555 0.35611
 H821 H 0.97121 0.75797 0.36888
 H822 H 0.95285 0.77887 0.39170
 H823 H 0.87161 0.77428 0.42909
 H824 H 0.85313 0.79195 0.45429
 H825 H 0.89729 0.83730 0.45489
 H826 H 0.91562 0.81941 0.42965
 C827 C 0.92797 0.23604 0.60824
 C828 C 0.93075 0.23014 0.62769
 C829 C 0.94060 0.24240 0.64085
 C830 C 0.94773 0.26076 0.63471
 C831 C 0.94499 0.26645 0.61508
 C832 C 0.93517 0.25417 0.60196
 C833 C 0.91741 0.22375 0.59473
 C834 C 0.90841 0.21387 0.58317
 C835 C 0.89748 0.20256 0.56912
 C836 C 0.90488 0.18481 0.56194
 C837 C 0.89442 0.17418 0.54787
 C838 C 0.87642 0.18121 0.54078
 C839 C 0.86906 0.19901 0.54821
 C840 C 0.87953 0.20959 0.56226
 H841 H 0.92517 0.21615 0.63272
 H842 H 0.94232 0.23770 0.65591
 H843 H 0.95057 0.28034 0.60982
 H844 H 0.93314 0.25887 0.58693
 H845 H 0.91879 0.17925 0.56712
 H846 H 0.90049 0.16054 0.54245
 H847 H 0.85525 0.20484 0.54308
 H848 H 0.87368 0.22334 0.56769
 C849 C 0.39232 0.07606 0.24198
 C850 C 0.39683 0.07215 0.26159
 C851 C 0.38388 0.06138 0.27318
 C852 C 0.36621 0.05439 0.26528
 C853 C 0.36181 0.05840 0.24554
 C854 C 0.37480 0.06917 0.23397
 C855 C 0.40569 0.08716 0.23011
 C856 C 0.41699 0.09648 0.22029
 C857 C 0.43063 0.10761 0.20876
 C858 C 0.43718 0.12585 0.21547
 C859 C 0.45080 0.13650 0.20455
 C860 C 0.45806 0.12901 0.18675
 C861 C 0.45125 0.11072 0.18005
 C862 C 0.43762 0.10009 0.19101
 H863 H 0.41034 0.07748 0.26794
 H864 H 0.38755 0.05875 0.28839
 H865 H 0.34845 0.05300 0.23898
 H866 H 0.37120 0.07207 0.21878
 H867 H 0.43186 0.13179 0.22921
 H868 H 0.45574 0.15053 0.21012
 H869 H 0.45655 0.10454 0.16642
 H870 H 0.43265 0.08597 0.18570
 C871 C 0.60734 0.07497 0.75780
 C872 C 0.60411 0.05500 0.75434
 C873 C 0.61714 0.04429 0.74273
 C874 C 0.63360 0.05345 0.73444
 C875 C 0.63675 0.07352 0.73805
 C876 C 0.62368 0.08420 0.74965
 C877 C 0.59377 0.08605 0.76951
 C878 C 0.58234 0.09539 0.77919
 C879 C 0.56859 0.10662 0.79054
 C880 C 0.56152 0.09931 0.80834
 C881 C 0.54790 0.11010 0.81918
 C882 C 0.54116 0.12836 0.81231
 C883 C 0.54847 0.13562 0.79446
 C884 C 0.56208 0.12481 0.78366
 H885 H 0.59151 0.04770 0.76061
 H886 H 0.61448 0.02880 0.74043
 H887 H 0.64914 0.08104 0.73167
 H888 H 0.62627 0.09968 0.75217
 H889 H 0.56647 0.08524 0.81379
 H890 H 0.54256 0.10410 0.83286
 H891 H 0.54359 0.14961 0.78876
 H892 H 0.56746 0.13059 0.76989
 C893 C 0.39234 0.92509 0.76163
 C894 C 0.37307 0.92793 0.76791
 C895 C 0.35991 0.93837 0.75620
 C896 C 0.36587 0.94606 0.73802
 C897 C 0.38531 0.94322 0.73193
 C898 C 0.39843 0.93281 0.74366
 C899 C 0.40588 0.91410 0.77345
 C900 C 0.41745 0.90486 0.78304
 C901 C 0.43152 0.89378 0.79414
 C902 C 0.43849 0.90097 0.81203
 C903 C 0.45257 0.89045 0.82252
 C904 C 0.45988 0.87258 0.81519
 C905 C 0.45266 0.86542 0.79725
 C906 C 0.43858 0.87597 0.78681
 H907 H 0.36819 0.92197 0.78179
 H908 H 0.34499 0.94014 0.76119
 H909 H 0.39043 0.94922 0.71816
 H910 H 0.41333 0.93075 0.73868
 H911 H 0.43314 0.91477 0.81782
 H912 H 0.45782 0.89637 0.83628
 H913 H 0.45797 0.85172 0.79120
 H914 H 0.43331 0.87029 0.77294
 C915 C 0.60687 0.92884 0.23745
 C916 C 0.62616 0.93170 0.23124
 C917 C 0.63939 0.94174 0.24324
 C918 C 0.63349 0.94900 0.26163
 C919 C 0.61403 0.94616 0.26765
 C920 C 0.60084 0.93614 0.25564
 C921 C 0.59328 0.91816 0.22537
 C922 C 0.58169 0.90909 0.21561
 C923 C 0.56766 0.89810 0.20436
 C924 C 0.56066 0.90540 0.18652
 C925 C 0.54671 0.89484 0.17586
 C926 C 0.53958 0.87682 0.18294
 C927 C 0.54680 0.86958 0.20084
 C928 C 0.56073 0.88016 0.21146
 H929 H 0.63100 0.92604 0.21721
 H930 H 0.65432 0.94352 0.23829
 H931 H 0.60895 0.95184 0.28157
 H932 H 0.58593 0.93406 0.26057
 H933 H 0.56590 0.91929 0.18090
 H934 H 0.54146 0.90082 0.16214
 H935 H 0.54164 0.85577 0.20671
 H936 H 0.56603 0.87438 0.22526
 C937 C 0.39429 0.24297 0.92314
 C938 C 0.37537 0.24555 0.91604
 C939 C 0.36193 0.25702 0.92638
 C940 C 0.36707 0.26638 0.94429
 C941 C 0.38648 0.26342 0.95112
 C942 C 0.39980 0.25190 0.94068
 C943 C 0.40813 0.23130 0.91234
 C944 C 0.41976 0.22162 0.90324
 C945 C 0.43373 0.21022 0.89232
 C946 C 0.44083 0.21721 0.87441
 C947 C 0.45459 0.20632 0.86387
 C948 C 0.46145 0.18827 0.87112
 C949 C 0.45414 0.18131 0.88910
 C950 C 0.44037 0.19224 0.89962
 H951 H 0.37101 0.23885 0.90230
 H952 H 0.34791 0.25914 0.91946
 H953 H 0.39149 0.26904 0.96504
 H954 H 0.41441 0.24983 0.94643
 H955 H 0.43578 0.23112 0.86862
 H956 H 0.45991 0.21210 0.85008
 H957 H 0.45912 0.16748 0.89509
 H958 H 0.43497 0.18670 0.91348
 C959 C 0.60743 0.75931 0.92601
 C960 C 0.60464 0.75672 0.94616
 C961 C 0.61762 0.74514 0.95694
 C962 C 0.63360 0.73602 0.94768
 C963 C 0.63631 0.73876 0.92742
 C964 C 0.62329 0.75033 0.91667
 C965 C 0.59393 0.77102 0.91487
 C966 C 0.58253 0.78072 0.90552
 C967 C 0.56881 0.79215 0.89437
 C968 C 0.56211 0.78526 0.87625
 C969 C 0.54842 0.79610 0.86558
 C970 C 0.54124 0.81401 0.87293
 C971 C 0.54820 0.82089 0.89109
 C972 C 0.56189 0.81001 0.90173
 H973 H 0.59242 0.76364 0.95353
 H974 H 0.61530 0.74351 0.97255
 H975 H 0.64831 0.73173 0.91984
 H976 H 0.62554 0.75218 0.90106
 H977 H 0.56737 0.77144 0.87042
 H978 H 0.54337 0.79039 0.85167
 H979 H 0.54296 0.83460 0.89716
 H980 H 0.56697 0.81547 0.91575
 C981 C 0.39227 0.76142 0.07356
 C982 C 0.37475 0.76906 0.06636
 C983 C 0.36159 0.75696 0.05635
 C984 C 0.36565 0.73680 0.05334
 C985 C 0.38355 0.72944 0.06075
 C986 C 0.39662 0.74162 0.07070
 C987 C 0.40581 0.77376 0.08400
 C988 C 0.41735 0.78374 0.09288
 C989 C 0.43135 0.79524 0.10366
 C990 C 0.43841 0.78842 0.12165
 C991 C 0.45232 0.79927 0.13201
 C992 C 0.45940 0.81712 0.12450
 C993 C 0.45214 0.82392 0.10643
 C994 C 0.43821 0.81303 0.09609
 H995 H 0.37115 0.78438 0.06863
 H996 H 0.34793 0.76345 0.05175
 H997 H 0.38806 0.71445 0.05829
 H998 H 0.41026 0.73557 0.07607
 H999 H 0.43322 0.77466 0.12763
 H1000 H 0.45759 0.79361 0.14587
 H1001 H 0.45729 0.83760 0.10025
 H1002 H 0.43287 0.81843 0.08215
 C1003 C 0.60560 0.24108 0.07485
 C1004 C 0.62174 0.24932 0.08436
 C1005 C 0.63505 0.26078 0.07387
 C1006 C 0.63236 0.26415 0.05371
 C1007 C 0.61610 0.25575 0.04426
 C1008 C 0.60282 0.24429 0.05478
 C1009 C 0.59177 0.22954 0.08574
 C1010 C 0.58014 0.22003 0.09496
 C1011 C 0.56617 0.20886 0.10605
 C1012 C 0.55947 0.19079 0.09901
 C1013 C 0.54566 0.18010 0.10968
 C1014 C 0.53837 0.18740 0.12755
 C1015 C 0.54529 0.20553 0.13455
 C1016 C 0.55909 0.21618 0.12386
 H1017 H 0.62398 0.24699 0.09990
 H1018 H 0.64727 0.26725 0.08160
 H1019 H 0.61378 0.25789 0.02871
 H1020 H 0.59038 0.23795 0.04728
 H1021 H 0.56485 0.18500 0.08523
 H1022 H 0.54063 0.16620 0.10388
 H1023 H 0.53998 0.21156 0.14824
 H1024 H 0.56418 0.23016 0.12944
 C1025 C 0.23647 0.07477 0.61243
 C1026 C 0.23332 0.05476 0.61576
 C1027 C 0.24523 0.04450 0.62889
 C1028 C 0.26048 0.05415 0.63881
 C1029 C 0.26333 0.07433 0.63558
 C1030 C 0.25140 0.08455 0.62247
 C1031 C 0.22486 0.08520 0.59828
 C1032 C 0.21553 0.09413 0.58625
 C1033 C 0.20482 0.10499 0.57171
 C1034 C 0.18708 0.09781 0.56445
 C1035 C 0.17693 0.10826 0.55004
 C1036 C 0.18442 0.12602 0.54271
 C1037 C 0.20223 0.13314 0.55019
 C1038 C 0.21234 0.12267 0.56458
 H1039 H 0.22185 0.04704 0.60799
 H1040 H 0.24283 0.02893 0.63090
 H1041 H 0.27478 0.08221 0.64319
 H1042 H 0.25395 0.10004 0.62003
 H1043 H 0.18115 0.08411 0.56985
 H1044 H 0.16327 0.10238 0.54460
 H1045 H 0.20840 0.14676 0.54488
 H1046 H 0.22607 0.12834 0.57009
 C1047 C 0.76315 0.07439 0.38978
 C1048 C 0.74547 0.08283 0.38402
 C1049 C 0.73322 0.07307 0.37086
 C1050 C 0.73836 0.05450 0.36309
 C1051 C 0.75651 0.04637 0.36891
 C1052 C 0.76869 0.05621 0.38213
 C1053 C 0.77533 0.08432 0.40384
 C1054 C 0.78515 0.09286 0.41579
 C1055 C 0.79640 0.10334 0.43023
 C1056 C 0.78951 0.12123 0.43753
 C1057 C 0.80013 0.13136 0.45181
 C1058 C 0.81783 0.12370 0.45900
 C1059 C 0.82469 0.10573 0.45151
 C1060 C 0.81402 0.09561 0.43721
 H1061 H 0.74112 0.09701 0.38972
 H1062 H 0.72004 0.08058 0.36642
 H1063 H 0.76110 0.03197 0.36411
 H1064 H 0.78232 0.04947 0.38661
 H1065 H 0.77587 0.12733 0.43225
 H1066 H 0.79443 0.14515 0.45725
 H1067 H 0.83825 0.09944 0.45673
 H1068 H 0.81947 0.08175 0.43167
 C1069 C 0.75909 0.92371 0.60574
 C1070 C 0.75618 0.94386 0.60312
 C1071 C 0.74441 0.95435 0.61619
 C1072 C 0.73540 0.94481 0.63208
 C1073 C 0.73847 0.92456 0.63462
 C1074 C 0.75023 0.91409 0.62151
 C1075 C 0.77100 0.91288 0.59214
 C1076 C 0.78085 0.90380 0.58063
 C1077 C 0.79244 0.89297 0.56676
 C1078 C 0.78588 0.87482 0.55980
 C1079 C 0.79687 0.86447 0.54595
 C1080 C 0.81458 0.87218 0.53886
 C1081 C 0.82114 0.89037 0.54609
 C1082 C 0.81012 0.90069 0.55994
 H1083 H 0.76300 0.95145 0.59098
 H1084 H 0.74254 0.96997 0.61401
 H1085 H 0.73154 0.91676 0.64656
 H1086 H 0.75233 0.89848 0.62363
 H1087 H 0.77221 0.86873 0.56498
 H1088 H 0.79140 0.85052 0.54069
 H1089 H 0.83470 0.89670 0.54092
 H1090 H 0.81532 0.91474 0.56522
 C1091 C 0.24262 0.92255 0.39325
 C1092 C 0.26235 0.92606 0.39729
 C1093 C 0.27369 0.93697 0.38422
 C1094 C 0.26542 0.94448 0.36690
 C1095 C 0.24557 0.94086 0.36297
 C1096 C 0.23425 0.92996 0.37608
 C1097 C 0.23100 0.91136 0.40677
 C1098 C 0.22138 0.90200 0.41821
 C1099 C 0.21007 0.89085 0.43202
 C1100 C 0.19222 0.89814 0.43889
 C1101 C 0.18147 0.88754 0.45271
 C1102 C 0.18848 0.86950 0.45985
 C1103 C 0.20637 0.86222 0.45271
 C1104 C 0.21708 0.87285 0.43890
 H1105 H 0.26898 0.92034 0.41053
 H1106 H 0.28899 0.93929 0.38752
 H1107 H 0.23873 0.94666 0.34989
 H1108 H 0.21896 0.92737 0.37285
 H1109 H 0.18667 0.91208 0.43367
 H1110 H 0.16776 0.89354 0.45790
 H1111 H 0.21217 0.84839 0.45791
 H1112 H 0.23090 0.86709 0.43369
 C1113 C 0.07113 0.39294 0.76291
 C1114 C 0.06827 0.37355 0.76903
 C1115 C 0.05831 0.36030 0.75696
 C1116 C 0.05114 0.36628 0.73857
 C1117 C 0.05398 0.38584 0.73264
 C1118 C 0.06391 0.39905 0.74473
 C1119 C 0.08175 0.40655 0.77504
 C1120 C 0.09078 0.41816 0.78483
 C1121 C 0.10172 0.43224 0.79610
 C1122 C 0.09449 0.43917 0.81401
 C1123 C 0.10498 0.45320 0.82467
 C1124 C 0.12285 0.46049 0.81752
 C1125 C 0.13003 0.45333 0.79955
 C1126 C 0.11953 0.43932 0.78894
 H1127 H 0.07386 0.36865 0.78305
 H1128 H 0.05653 0.34530 0.76184
 H1129 H 0.04838 0.39097 0.71872
 H1130 H 0.06600 0.41403 0.73986
 H1131 H 0.08070 0.43382 0.81968
 H1132 H 0.09905 0.45841 0.83844
 H1133 H 0.14373 0.45862 0.79363
 H1134 H 0.12525 0.43408 0.77508
 C1135 C 0.07698 0.61000 0.23805
 C1136 C 0.05902 0.61736 0.23171
 C1137 C 0.04861 0.63062 0.24339
 C1138 C 0.05593 0.63675 0.26182
 C1139 C 0.07430 0.62926 0.26778
 C1140 C 0.08463 0.61606 0.25602
 C1141 C 0.08745 0.59590 0.22636
 C1142 C 0.09633 0.58392 0.21688
 C1143 C 0.10705 0.56943 0.20592
 C1144 C 0.09976 0.56240 0.18808
 C1145 C 0.11003 0.54802 0.17767
 C1146 C 0.12772 0.54048 0.18501
 C1147 C 0.13496 0.54772 0.20291
 C1148 C 0.12467 0.56209 0.21328
 H1149 H 0.05289 0.61263 0.21785
 H1150 H 0.03441 0.63519 0.23818
 H1151 H 0.08122 0.63396 0.28122
 H1152 H 0.09864 0.61057 0.26099
 H1153 H 0.08611 0.56796 0.18227
 H1154 H 0.10406 0.54276 0.16394
 H1155 H 0.14853 0.54224 0.20896
 H1156 H 0.13043 0.56741 0.22709
 C1157 C 0.92527 0.39303 0.24319
 C1158 C 0.92828 0.37379 0.23686
 C1159 C 0.93889 0.36065 0.24844
 C1160 C 0.94679 0.36649 0.26672
 C1161 C 0.94358 0.38610 0.27278
 C1162 C 0.93294 0.39915 0.26115
 C1163 C 0.91422 0.40650 0.23135
 C1164 C 0.90491 0.41786 0.22156
 C1165 C 0.89374 0.43155 0.21009
 C1166 C 0.87572 0.43833 0.21703
 C1167 C 0.86499 0.45193 0.20613
 C1168 C 0.87216 0.45896 0.18813
 C1169 C 0.89024 0.45195 0.18121
 C1170 C 0.90095 0.43833 0.19214
 H1171 H 0.92253 0.36894 0.22287
 H1172 H 0.94142 0.34617 0.24249
 H1173 H 0.94849 0.39140 0.28688
 H1174 H 0.93053 0.41401 0.26628
 H1175 H 0.87001 0.43318 0.23091
 H1176 H 0.85114 0.45703 0.21188
 H1177 H 0.89617 0.45707 0.16742
 H1178 H 0.91490 0.43319 0.18665
 C1179 C 0.92285 0.60725 0.75741
 C1180 C 0.94132 0.60201 0.75049
 C1181 C 0.95197 0.61497 0.73879
 C1182 C 0.94436 0.63361 0.73372
 C1183 C 0.92562 0.63861 0.74098
 C1184 C 0.91503 0.62555 0.75265
 C1185 C 0.91185 0.59376 0.76925
 C1186 C 0.90263 0.58236 0.77905
 C1187 C 0.89163 0.56861 0.79059
 C1188 C 0.89919 0.56160 0.80830
 C1189 C 0.88867 0.54789 0.81929
 C1190 C 0.87045 0.54101 0.81265
 C1191 C 0.86292 0.54828 0.79489
 C1192 C 0.87345 0.56198 0.78394
 H1193 H 0.94758 0.58789 0.75423
 H1194 H 0.96649 0.61047 0.73446
 H1195 H 0.91855 0.65225 0.73710
 H1196 H 0.90063 0.62969 0.75780
 H1197 H 0.91325 0.56663 0.81356
 H1198 H 0.89488 0.54259 0.83289
 H1199 H 0.84894 0.54328 0.78937
 H1200 H 0.86748 0.56731 0.77023
 C1201 C 0.76081 0.60924 0.92625
 C1202 C 0.74294 0.60303 0.93401
 C1203 C 0.73130 0.61606 0.94467
 C1204 C 0.73738 0.63555 0.94771
 C1205 C 0.75546 0.64163 0.94000
 C1206 C 0.76709 0.62854 0.92931
 C1207 C 0.77251 0.59580 0.91497
 C1208 C 0.78198 0.58430 0.90546
 C1209 C 0.79291 0.57030 0.89407
 C1210 C 0.78542 0.56349 0.87624
 C1211 C 0.79567 0.54943 0.86541
 C1212 C 0.81357 0.54197 0.87231
 C1213 C 0.82107 0.54905 0.89018
 C1214 C 0.81078 0.56312 0.90098
 H1215 H 0.73797 0.58810 0.93178
 H1216 H 0.71761 0.61086 0.95067
 H1217 H 0.76044 0.65658 0.94193
 H1218 H 0.78088 0.63352 0.92333
 H1219 H 0.77158 0.56893 0.87077
 H1220 H 0.78949 0.54430 0.85173
 H1221 H 0.83480 0.54362 0.89590
 H1222 H 0.81669 0.56827 0.91479
 C1223 C 0.23514 0.38943 0.92395
 C1224 C 0.23196 0.38545 0.94382
 C1225 C 0.24399 0.37213 0.95370
 C1226 C 0.25939 0.36266 0.94382
 C1227 C 0.26229 0.36658 0.92378
 C1228 C 0.25024 0.37988 0.91394
 C1229 C 0.22330 0.40371 0.91392
 C1230 C 0.21370 0.41583 0.90538
 C1231 C 0.20261 0.43047 0.89502
 C1232 C 0.18509 0.43763 0.90284
 C1233 C 0.17454 0.45210 0.89286
 C1234 C 0.18141 0.45960 0.87492
 C1235 C 0.19900 0.45223 0.86716
 C1236 C 0.20951 0.43777 0.87716
 H1237 H 0.22035 0.39282 0.95173
 H1238 H 0.24154 0.36960 0.96917
 H1239 H 0.27386 0.35935 0.91572
 H1240 H 0.25282 0.38284 0.89855
 H1241 H 0.17963 0.43210 0.91667
 H1242 H 0.16106 0.45746 0.89923
 H1243 H 0.20470 0.45767 0.85339
 H1244 H 0.22306 0.43235 0.87098
 C1245 C 0.24264 0.60530 0.07529
 C1246 C 0.23674 0.62474 0.07274
 C1247 C 0.24847 0.63784 0.06227
 C1248 C 0.26649 0.63179 0.05403
 C1249 C 0.27213 0.61199 0.05678
 C1250 C 0.26034 0.59897 0.06729
 C1251 C 0.23061 0.59184 0.08618
 C1252 C 0.22066 0.58048 0.09533
 C1253 C 0.20898 0.56679 0.10630
 C1254 C 0.21562 0.55982 0.12440
 C1255 C 0.20454 0.54620 0.13491
 C1256 C 0.18663 0.53933 0.12744
 C1257 C 0.18000 0.54654 0.10929
 C1258 C 0.19113 0.56018 0.09880
 H1259 H 0.22296 0.62976 0.07874
 H1260 H 0.24282 0.65249 0.06011
 H1261 H 0.28601 0.60649 0.05161
 H1262 H 0.26515 0.58396 0.06933
 H1263 H 0.22943 0.56483 0.13034
 H1264 H 0.21007 0.54095 0.14882
 H1265 H 0.16630 0.54155 0.10312
 H1266 H 0.18585 0.56546 0.08479
 C1267 C 0.76048 0.38953 0.07757
 C1268 C 0.76840 0.37216 0.07014
 C1269 C 0.75670 0.35913 0.05950
 C1270 C 0.73668 0.36318 0.05610
 C1271 C 0.72904 0.38091 0.06377
 C1272 C 0.74082 0.39386 0.07435
 C1273 C 0.77243 0.40301 0.08851
 C1274 C 0.78207 0.41459 0.09771
 C1275 C 0.79319 0.42871 0.10872
 C1276 C 0.81090 0.43583 0.10136
 C1277 C 0.82134 0.45006 0.11177
 C1278 C 0.81416 0.45737 0.12968
 C1279 C 0.79642 0.44997 0.13703
 C1280 C 0.78602 0.43575 0.12659
 H1281 H 0.78362 0.36860 0.07268
 H1282 H 0.76336 0.34558 0.05470
 H1283 H 0.71415 0.38543 0.06103
 H1284 H 0.73458 0.40739 0.07988
 H1285 H 0.81656 0.43050 0.08751
 H1286 H 0.83494 0.45544 0.10571
 H1287 H 0.79049 0.45528 0.15076
 H1288 H 0.77230 0.43036 0.13239
 C1289 C 0.92597 0.76118 0.60635
 C1290 C 0.92915 0.74139 0.60218
 C1291 C 0.93920 0.72952 0.61546
 C1292 C 0.94637 0.73717 0.63338
 C1293 C 0.94310 0.75733 0.63722
 C1294 C 0.93298 0.76914 0.62386
 C1295 C 0.91533 0.77318 0.59264
 C1296 C 0.90627 0.78283 0.58096
 C1297 C 0.89527 0.79393 0.56680
 C1298 C 0.87760 0.78652 0.55963
 C1299 C 0.86703 0.79698 0.54556
 C1300 C 0.87401 0.81503 0.53845
 C1301 C 0.89175 0.82242 0.54582
 C1302 C 0.90231 0.81192 0.55990
 H1303 H 0.92393 0.73511 0.58856
 H1304 H 0.94189 0.71451 0.61110
 H1305 H 0.94753 0.76404 0.65087
 H1306 H 0.93047 0.78445 0.62731
 H1307 H 0.87203 0.77259 0.56484
 H1308 H 0.85343 0.79087 0.54021
 H1309 H 0.89753 0.83627 0.54066
 H1310 H 0.91599 0.81778 0.56533
 C1311 C 0.92648 0.23604 0.39057
 C1312 C 0.94465 0.23025 0.38324
 C1313 C 0.95479 0.24231 0.37013
 C1314 C 0.94699 0.26060 0.36412
 C1315 C 0.92843 0.26599 0.37158
 C1316 C 0.91838 0.25386 0.38462
 C1317 C 0.91624 0.22395 0.40449
 C1318 C 0.90747 0.21419 0.41632
 C1319 C 0.89679 0.20296 0.43062
 C1320 C 0.90422 0.18513 0.43756
 C1321 C 0.89394 0.17448 0.45173
 C1322 C 0.87608 0.18155 0.45915
 C1323 C 0.86870 0.19944 0.45200
 C1324 C 0.87900 0.21005 0.43784
 H1325 H 0.95114 0.21652 0.38786
 H1326 H 0.96914 0.23752 0.36558
 H1327 H 0.92115 0.27928 0.36697
 H1328 H 0.90421 0.25841 0.39007
 H1329 H 0.91799 0.17951 0.43208
 H1330 H 0.90001 0.16077 0.45692
 H1331 H 0.85501 0.20531 0.45739
 H1332 H 0.87312 0.22384 0.43260
 C1333 C 0.07522 0.24188 0.60733
 C1334 C 0.08291 0.24658 0.62570
 C1335 C 0.07233 0.25840 0.63867
 C1336 C 0.05371 0.26588 0.63353
 C1337 C 0.04624 0.26089 0.61482
 C1338 C 0.05688 0.24904 0.60194
 C1339 C 0.08622 0.22986 0.59394
 C1340 C 0.09543 0.21989 0.58262
 C1341 C 0.10644 0.20815 0.56898
 C1342 C 0.09886 0.19035 0.56213
 C1343 C 0.10936 0.17918 0.54852
 C1344 C 0.12760 0.18570 0.54158
 C1345 C 0.13515 0.20354 0.54868
 C1346 C 0.12463 0.21468 0.56228
 H1347 H 0.09721 0.24126 0.62996
 H1348 H 0.07931 0.26220 0.65236
 H1349 H 0.03181 0.26539 0.61019
 H1350 H 0.05071 0.24536 0.58778
 H1351 H 0.08478 0.18517 0.56721
 H1352 H 0.10313 0.16553 0.54335
 H1353 H 0.14914 0.20898 0.54364
 H1354 H 0.13062 0.22844 0.56748
 C1355 C 0.07642 0.75721 0.39368
 C1356 C 0.07405 0.76353 0.37437
 C1357 C 0.06329 0.75227 0.36107
 C1358 C 0.05459 0.73433 0.36681
 C1359 C 0.05713 0.72829 0.38651
 C1360 C 0.06793 0.73961 0.39971
 C1361 C 0.08765 0.76873 0.40730
 C1362 C 0.09706 0.77828 0.41878
 C1363 C 0.10829 0.78956 0.43259
 C1364 C 0.12620 0.78240 0.43943
 C1365 C 0.13696 0.79313 0.45315
 C1366 C 0.12991 0.81119 0.46024
 C1367 C 0.11196 0.81834 0.45316
 C1368 C 0.10123 0.80757 0.43943
 H1369 H 0.08044 0.77726 0.36958
 H1370 H 0.06130 0.75822 0.34653
 H1371 H 0.05157 0.71442 0.39176
 H1372 H 0.06982 0.73450 0.41463
 H1373 H 0.13179 0.76846 0.43423
 H1374 H 0.15072 0.78721 0.45830
 H1375 H 0.10612 0.83218 0.45832
 H1376 H 0.08737 0.81324 0.43424
 C1377 C 0.60849 0.92515 0.76063
 C1378 C 0.62595 0.93229 0.76846
 C1379 C 0.63914 0.94252 0.75658
 C1380 C 0.63518 0.94579 0.73647
 C1381 C 0.61732 0.93848 0.72893
 C1382 C 0.60421 0.92832 0.74088
 C1383 C 0.59494 0.91444 0.77271
 C1384 C 0.58339 0.90532 0.78246
 C1385 C 0.56939 0.89427 0.79367
 C1386 C 0.56248 0.87633 0.78650
 C1387 C 0.54853 0.86573 0.79704
 C1388 C 0.54125 0.87294 0.81495
 C1389 C 0.54837 0.89094 0.82212
 C1390 C 0.56235 0.90153 0.81153
 H1391 H 0.62949 0.92979 0.78373
 H1392 H 0.65276 0.94704 0.76321
 H1393 H 0.61287 0.94116 0.71397
 H1394 H 0.59062 0.92300 0.73469
 H1395 H 0.56781 0.87058 0.77268
 H1396 H 0.54337 0.85193 0.79111
 H1397 H 0.54308 0.89691 0.83584
 H1398 H 0.56756 0.91542 0.81720
 C1399 C 0.38866 0.92578 0.23587
 C1400 C 0.38135 0.94405 0.23021
 C1401 C 0.36819 0.95411 0.24229
 C1402 C 0.36211 0.94612 0.26046
 C1403 C 0.36952 0.92744 0.26569
 C1404 C 0.38261 0.91747 0.25354
 C1405 C 0.40271 0.91566 0.22384
 C1406 C 0.41467 0.90696 0.21419
 C1407 C 0.42915 0.89634 0.20315
 C1408 C 0.43628 0.90384 0.18545
 C1409 C 0.45066 0.89363 0.17502
 C1410 C 0.45811 0.87577 0.18220
 C1411 C 0.45075 0.86832 0.19996
 C1412 C 0.43639 0.87855 0.21034
 H1413 H 0.38605 0.95070 0.21659
 H1414 H 0.36366 0.96856 0.23763
 H1415 H 0.36485 0.92002 0.27887
 H1416 H 0.38805 0.90321 0.25798
 H1417 H 0.43080 0.91762 0.17977
 H1418 H 0.45601 0.89976 0.16140
 H1419 H 0.45615 0.85462 0.20589
 H1420 H 0.43099 0.87262 0.22404
 C1421 C 0.60520 0.07807 0.24274
 C1422 C 0.60099 0.07441 0.26248
 C1423 C 0.61409 0.06369 0.27399
 C1424 C 0.63160 0.05649 0.26590
 C1425 C 0.63570 0.06027 0.24604
 C1426 C 0.62257 0.07098 0.23455
 C1427 C 0.59165 0.08904 0.23091
 C1428 C 0.58021 0.09820 0.22106
 C1429 C 0.56642 0.10908 0.20943
 C1430 C 0.55984 0.10150 0.19154
 C1431 C 0.54609 0.11185 0.18045
 C1432 C 0.53874 0.12994 0.18714
 C1433 C 0.54559 0.13752 0.20506
 C1434 C 0.55933 0.12714 0.21612
 H1435 H 0.58761 0.07987 0.26898
 H1436 H 0.61063 0.06124 0.28928
 H1437 H 0.64892 0.05471 0.23933
 H1438 H 0.62594 0.07368 0.21928
 H1439 H 0.56522 0.08752 0.18623
 H1440 H 0.54112 0.10560 0.16673
 H1441 H 0.54023 0.15139 0.21063
 H1442 H 0.56432 0.13314 0.22995
 C1443 C 0.39400 0.07689 0.75789
 C1444 C 0.37688 0.06953 0.76633
 C1445 C 0.36379 0.05858 0.75503
 C1446 C 0.36767 0.05484 0.73512
 C1447 C 0.38494 0.06231 0.72678
 C1448 C 0.39800 0.07326 0.73811
 C1449 C 0.40750 0.08812 0.76952
 C1450 C 0.41892 0.09748 0.77919
 C1451 C 0.43270 0.10856 0.79062
 C1452 C 0.43929 0.10131 0.80863
 C1453 C 0.45308 0.11182 0.81950
 C1454 C 0.46048 0.12974 0.81247
 C1455 C 0.45362 0.13700 0.79443
 C1456 C 0.43983 0.12646 0.78359
 H1457 H 0.37368 0.07220 0.78166
 H1458 H 0.35075 0.05281 0.76193
 H1459 H 0.38821 0.05990 0.71144
 H1460 H 0.41119 0.07894 0.73142
 H1461 H 0.43387 0.08746 0.81419
 H1462 H 0.45806 0.10582 0.83332
 H1463 H 0.45902 0.15074 0.78861
 H1464 H 0.43483 0.13220 0.76966
 C1465 C 0.61119 0.76516 0.07574
 C1466 C 0.62096 0.75018 0.08575
 C1467 C 0.63425 0.73816 0.07585
 C1468 C 0.63794 0.74096 0.05576
 C1469 C 0.62826 0.75625 0.04588
 C1470 C 0.61495 0.76825 0.05581
 C1471 C 0.59691 0.77694 0.08583
 C1472 C 0.58477 0.78646 0.09444
 C1473 C 0.57012 0.79743 0.10490
 C1474 C 0.56294 0.79035 0.12274
 C1475 C 0.54846 0.80072 0.13283
 C1476 C 0.54095 0.81835 0.12518
 C1477 C 0.54833 0.82540 0.10726
 C1478 C 0.56282 0.81498 0.09719
 H1479 H 0.61818 0.74767 0.10118
 H1480 H 0.64166 0.72668 0.08391
 H1481 H 0.63061 0.75862 0.03036
 H1482 H 0.60740 0.77976 0.04790
 H1483 H 0.56847 0.77677 0.12883
 H1484 H 0.54312 0.79489 0.14657
 H1485 H 0.54286 0.83891 0.10098
 H1486 H 0.56826 0.82058 0.08337
 C1487 C 0.39053 0.23919 0.07307
 C1488 C 0.39668 0.25723 0.06552
 C1489 C 0.38371 0.26892 0.05486
 C1490 C 0.36437 0.26273 0.05161
 C1491 C 0.35836 0.24448 0.05911
 C1492 C 0.37137 0.23280 0.06980
 C1493 C 0.40389 0.22744 0.08436
 C1494 C 0.41532 0.21794 0.09388
 C1495 C 0.42921 0.20696 0.10530
 C1496 C 0.43642 0.18903 0.09838
 C1497 C 0.45038 0.17871 0.10923
 C1498 C 0.45733 0.18622 0.12715
 C1499 C 0.44985 0.20418 0.13405
 C1500 C 0.43590 0.21447 0.12318
 H1501 H 0.41149 0.26229 0.06791
 H1502 H 0.38887 0.28275 0.04902
 H1503 H 0.34351 0.23941 0.05703
 H1504 H 0.36645 0.21888 0.07563
 H1505 H 0.43137 0.18311 0.08454
 H1506 H 0.45584 0.16493 0.10351
 H1507 H 0.45488 0.21037 0.14777
 H1508 H 0.43044 0.22835 0.12865
 C1509 C 0.61023 0.23919 0.92415
 C1510 C 0.62947 0.23289 0.92713
 C1511 C 0.64251 0.24455 0.93780
 C1512 C 0.63644 0.26270 0.94556
 C1513 C 0.61703 0.26881 0.94258
 C1514 C 0.60404 0.25713 0.93194
 C1515 C 0.59680 0.22743 0.91298
 C1516 C 0.58526 0.21793 0.90360
 C1517 C 0.57119 0.20696 0.89240
 C1518 C 0.56387 0.18921 0.89959
 C1519 C 0.54969 0.17892 0.88900
 C1520 C 0.54264 0.18629 0.87108
 C1521 C 0.55023 0.20407 0.86391
 C1522 C 0.56440 0.21433 0.87452
 H1523 H 0.63442 0.21903 0.92112
 H1524 H 0.65741 0.23955 0.93970
 H1525 H 0.61184 0.28254 0.94863
 H1526 H 0.58916 0.26211 0.92978
 H1527 H 0.56900 0.18341 0.91345
 H1528 H 0.54416 0.16528 0.89493
 H1529 H 0.54512 0.21014 0.85017
 H1530 H 0.56994 0.22809 0.86885
 C1531 C 0.39472 0.75754 0.92514
 C1532 C 0.37721 0.76549 0.93216
 C1533 C 0.36414 0.75377 0.94269
 C1534 C 0.36844 0.73392 0.94636
 C1535 C 0.38610 0.72607 0.93925
 C1536 C 0.39913 0.73781 0.92871
 C1537 C 0.40816 0.76956 0.91424
 C1538 C 0.41951 0.77949 0.90506
 C1539 C 0.43319 0.79114 0.89405
 C1540 C 0.44004 0.78442 0.87593
 C1541 C 0.45366 0.79546 0.86538
 C1542 C 0.46062 0.81340 0.87284
 C1543 C 0.45352 0.82011 0.89101
 C1544 C 0.43989 0.80903 0.90154
 H1545 H 0.37367 0.78076 0.92953
 H1546 H 0.35080 0.76031 0.94819
 H1547 H 0.38971 0.71079 0.94161
 H1548 H 0.41261 0.73148 0.92329
 H1549 H 0.43496 0.77058 0.87000
 H1550 H 0.45882 0.78986 0.85145
 H1551 H 0.45859 0.83384 0.89717
 H1552 H 0.43469 0.81437 0.91557
 C1553 C 0.75824 0.92569 0.39239
 C1554 C 0.74942 0.91627 0.37646
 C1555 C 0.73757 0.92686 0.36356
 C1556 C 0.73436 0.94705 0.36645
 C1557 C 0.74333 0.95640 0.38250
 C1558 C 0.75518 0.94577 0.39538
 C1559 C 0.77026 0.91471 0.40578
 C1560 C 0.78020 0.90548 0.41708
 C1561 C 0.79188 0.89441 0.43070
 C1562 C 0.80958 0.90203 0.43761
 C1563 C 0.82070 0.89144 0.45117
 C1564 C 0.81424 0.87308 0.45800
 C1565 C 0.79650 0.86549 0.45083
 C1566 C 0.78541 0.87610 0.43728
 H1567 H 0.75162 0.90071 0.37405
 H1568 H 0.73068 0.91920 0.35148
 H1569 H 0.74135 0.97197 0.38497
 H1570 H 0.76197 0.95322 0.40765
 H1571 H 0.81472 0.91620 0.43262
 H1572 H 0.83427 0.89770 0.45640
 H1573 H 0.79110 0.85142 0.45578
 H1574 H 0.77173 0.87007 0.43203
 C1575 C 0.24301 0.92334 0.60724
 C1576 C 0.25195 0.91404 0.62316
 C1577 C 0.26337 0.92486 0.63627
 C1578 C 0.26599 0.94516 0.63360
 C1579 C 0.25691 0.95438 0.61756
 C1580 C 0.24549 0.94353 0.60448
 C1581 C 0.23143 0.91215 0.59365
 C1582 C 0.22183 0.90274 0.58220
 C1583 C 0.21050 0.89152 0.56842
 C1584 C 0.21747 0.87345 0.56164
 C1585 C 0.20669 0.86269 0.54795
 C1586 C 0.18877 0.86991 0.54084
 C1587 C 0.18182 0.88804 0.54787
 C1588 C 0.19264 0.89876 0.56157
 H1589 H 0.25019 0.89841 0.62539
 H1590 H 0.27037 0.91731 0.64833
 H1591 H 0.25846 0.97002 0.61526
 H1592 H 0.23859 0.95088 0.59222
 H1593 H 0.23129 0.86771 0.56686
 H1594 H 0.21245 0.84881 0.54284
 H1595 H 0.16809 0.89401 0.54269
 H1596 H 0.18712 0.91275 0.56672
 C1597 C 0.23821 0.07300 0.39279
 C1598 C 0.23188 0.07024 0.37346
 C1599 C 0.24361 0.06003 0.36010
 C1600 C 0.26186 0.05249 0.36591
 C1601 C 0.26800 0.05522 0.38541
 C1602 C 0.25625 0.06540 0.39873
 C1603 C 0.22643 0.08385 0.40651
 C1604 C 0.21691 0.09305 0.41821
 C1605 C 0.20593 0.10416 0.43240
 C1606 C 0.18804 0.09712 0.43941
 C1607 C 0.17765 0.10776 0.45353
 C1608 C 0.18506 0.12558 0.46084
 C1609 C 0.20301 0.13257 0.45361
 C1610 C 0.21336 0.12192 0.43950
 H1611 H 0.21796 0.07612 0.36869
 H1612 H 0.23858 0.05834 0.34515
 H1613 H 0.28182 0.04933 0.39041
 H1614 H 0.26128 0.06740 0.41366
 H1615 H 0.18218 0.08337 0.43404
 H1616 H 0.16388 0.10197 0.45878
 H1617 H 0.20912 0.14623 0.45891
 H1618 H 0.22721 0.12748 0.43421
 C1619 C 0.76467 0.07268 0.61004
 C1620 C 0.74972 0.08263 0.61991
 C1621 C 0.73769 0.07261 0.63308
 C1622 C 0.74044 0.05245 0.63657
 C1623 C 0.75569 0.04262 0.62679
 C1624 C 0.76770 0.05268 0.61359
 C1625 C 0.77650 0.08293 0.59592
 C1626 C 0.78608 0.09170 0.58396
 C1627 C 0.79712 0.10240 0.56952
 C1628 C 0.79011 0.12035 0.56252
 C1629 C 0.80057 0.13069 0.54828
 C1630 C 0.81823 0.12318 0.54082
 C1631 C 0.82522 0.10514 0.54801
 C1632 C 0.81471 0.09483 0.56226
 H1633 H 0.74726 0.09811 0.61731
 H1634 H 0.72626 0.08064 0.64058
 H1635 H 0.75802 0.02707 0.62898
 H1636 H 0.77918 0.04481 0.60598
 H1637 H 0.77650 0.12635 0.56801
 H1638 H 0.79477 0.14452 0.54308
 H1639 H 0.83875 0.09896 0.54258
 H1640 H 0.82027 0.08092 0.56757
 C1641 C 0.92482 0.60652 0.24133
 C1642 C 0.93210 0.62374 0.23292
 C1643 C 0.94303 0.63687 0.24421
 C1644 C 0.94685 0.63290 0.26409
 C1645 C 0.93949 0.61552 0.27239
 C1646 C 0.92855 0.60243 0.26107
 C1647 C 0.91354 0.59301 0.22973
 C1648 C 0.90410 0.58158 0.22013
 C1649 C 0.89288 0.56778 0.20882
 C1650 C 0.89999 0.56093 0.19085
 C1651 C 0.88936 0.54710 0.18012
 C1652 C 0.87145 0.53992 0.18727
 C1653 C 0.86433 0.54705 0.20527
 C1654 C 0.87500 0.56088 0.21597
 H1655 H 0.92935 0.62701 0.21762
 H1656 H 0.94870 0.65000 0.23735
 H1657 H 0.94196 0.61219 0.28771
 H1658 H 0.92294 0.58916 0.26773
 H1659 H 0.91384 0.56617 0.18520
 H1660 H 0.89525 0.54191 0.16632
 H1661 H 0.85061 0.54182 0.21119
 H1662 H 0.86937 0.56608 0.22988
 C1663 C 0.92191 0.39364 0.75695
 C1664 C 0.92899 0.37618 0.76506
 C1665 C 0.93985 0.36315 0.75356
 C1666 C 0.94378 0.36743 0.73377
 C1667 C 0.93658 0.38502 0.72576
 C1668 C 0.92572 0.39802 0.73729
 C1669 C 0.91082 0.40711 0.76881
 C1670 C 0.90159 0.41851 0.77867
 C1671 C 0.89064 0.43227 0.79032
 C1672 C 0.87262 0.43929 0.78363
 C1673 C 0.86221 0.45305 0.79468
 C1674 C 0.86971 0.46000 0.81260
 C1675 C 0.88775 0.45270 0.81929
 C1676 C 0.89814 0.43894 0.80821
 H1677 H 0.92619 0.37267 0.78029
 H1678 H 0.94540 0.34985 0.76021
 H1679 H 0.93914 0.38862 0.71052
 H1680 H 0.92027 0.41148 0.73085
 H1681 H 0.86669 0.43423 0.76980
 H1682 H 0.84837 0.45837 0.78911
 H1683 H 0.89394 0.45775 0.83301
 H1684 H 0.91208 0.43361 0.81352
 C1685 C 0.07079 0.60940 0.76398
 C1686 C 0.06771 0.62881 0.76996
 C1687 C 0.05764 0.64186 0.75777
 C1688 C 0.05059 0.63565 0.73941
 C1689 C 0.05361 0.61606 0.73364
 C1690 C 0.06365 0.60305 0.74584
 C1691 C 0.08156 0.59600 0.77618
 C1692 C 0.09072 0.58450 0.78598
 C1693 C 0.10180 0.57049 0.79719
 C1694 C 0.09457 0.56336 0.81500
 C1695 C 0.10511 0.54927 0.82551
 C1696 C 0.12302 0.54211 0.81830
 C1697 C 0.13022 0.54951 0.80045
 C1698 C 0.11967 0.56359 0.78999
 H1699 H 0.07323 0.63390 0.78395
 H1700 H 0.05570 0.65690 0.76253
 H1701 H 0.04810 0.61074 0.71974
 H1702 H 0.06590 0.58805 0.74109
 H1703 H 0.08073 0.56857 0.82069
 H1704 H 0.09916 0.54387 0.83919
 H1705 H 0.14395 0.54433 0.79448
 H1706 H 0.12537 0.56898 0.77620
 C1707 C 0.07409 0.39134 0.23900
 C1708 C 0.06668 0.39748 0.25711
 C1709 C 0.05649 0.38434 0.26903
 C1710 C 0.05357 0.36480 0.26301
 C1711 C 0.06093 0.35879 0.24470
 C1712 C 0.07115 0.37198 0.23279
 C1713 C 0.08494 0.40488 0.22703
 C1714 C 0.09415 0.41644 0.21736
 C1715 C 0.10528 0.43047 0.20622
 C1716 C 0.12317 0.43727 0.21344
 C1717 C 0.13384 0.45125 0.20296
 C1718 C 0.12673 0.45865 0.18507
 C1719 C 0.10877 0.45163 0.17786
 C1720 C 0.09813 0.43764 0.18838
 H1721 H 0.06883 0.41244 0.26205
 H1722 H 0.05075 0.38950 0.28290
 H1723 H 0.05909 0.34381 0.23975
 H1724 H 0.07687 0.36705 0.21883
 H1725 H 0.12884 0.43185 0.22724
 H1726 H 0.14760 0.45633 0.20893
 H1727 H 0.10289 0.45702 0.16415
 H1728 H 0.08427 0.43250 0.18267
   
