data_POSCAR
  _audit_creation_date              2014-09-24
  _audit_creation_method            'ToBaCCo'
  _symmetry_space_group_name_H-M    'P1'
  _symmetry_Int_Tables_number       1
  _symmetry_cell_setting            triclinic
  loop_
  _symmetry_equiv_pos_as_xyz
 x,y,z
_cell_length_a 63.6168
_cell_length_b 63.6768
_cell_length_c 63.6535
_cell_angle_alpha 89.968100
_cell_angle_beta 90.029700
_cell_angle_gamma 89.984700
loop_
  _atom_site_label
  _atom_site_type_symbol
  _atom_site_fract_x
  _atom_site_fract_y
  _atom_site_fract_z
C1 C 0.13278 -0.02808 0.25367
 C2 C 0.12412 -0.00823 0.25791
 C3 C 0.11547 -0.00417 0.27780
 C4 C 0.11532 -0.01986 0.29323
 C5 C 0.12416 -0.03953 0.28898
 C6 C 0.13300 -0.04363 0.26925
 C7 C 0.12418 0.00829 0.24161
 C8 C 0.11537 0.00439 0.22174
 C9 C 0.11527 0.02017 0.20637
 C10 C 0.12435 0.03973 0.21068
 C11 C 0.13334 0.04363 0.23036
 C12 C 0.13307 0.02803 0.24587
 H13 H 0.13968 -0.03121 0.23841
 H14 H 0.10859 0.01105 0.28113
 H15 H 0.10831 -0.01075 0.21844
 H16 H 0.14009 0.03109 0.26109
 H17 H 0.12418 -0.05158 0.30104
 H18 H 0.12445 0.05192 0.19876
 C19 C 0.36661 -0.02822 0.74390
 C20 C 0.37519 -0.00826 0.73998
 C21 C 0.38400 -0.00391 0.72021
 C22 C 0.38440 -0.01942 0.70462
 C23 C 0.37564 -0.03919 0.70858
 C24 C 0.36666 -0.04357 0.72815
 C25 C 0.37499 0.00800 0.75651
 C26 C 0.38355 0.00372 0.77641
 C27 C 0.38359 0.01925 0.79201
 C28 C 0.37469 0.03894 0.78789
 C29 C 0.36596 0.04322 0.76817
 C30 C 0.36629 0.02787 0.75244
 H31 H 0.35960 -0.03164 0.75904
 H32 H 0.39085 0.01137 0.71712
 H33 H 0.39050 -0.01152 0.77957
 H34 H 0.35947 0.03123 0.73718
 H35 H 0.37582 -0.05114 0.69644
 H36 H 0.37455 0.05095 0.79999
 C37 C 0.86664 0.47168 0.24619
 C38 C 0.87503 0.49172 0.24228
 C39 C 0.88385 0.49614 0.22253
 C40 C 0.88444 0.48064 0.20695
 C41 C 0.87587 0.46079 0.21089
 C42 C 0.86688 0.45633 0.23045
 C43 C 0.87450 0.50804 0.25875
 C44 C 0.88292 0.50396 0.27876
 C45 C 0.88264 0.51957 0.29428
 C46 C 0.87356 0.53914 0.28997
 C47 C 0.86496 0.54323 0.27015
 C48 C 0.86561 0.52780 0.25450
 H49 H 0.85959 0.46821 0.26130
 H50 H 0.89053 0.51150 0.21943
 H51 H 0.89001 0.48882 0.28205
 H52 H 0.85889 0.53100 0.23917
 H53 H 0.87617 0.44885 0.19875
 H54 H 0.87318 0.55121 0.30200
 C55 C 0.63401 0.47118 0.75497
 C56 C 0.62540 0.49105 0.75926
 C57 C 0.61665 0.49503 0.77913
 C58 C 0.61633 0.47924 0.79446
 C59 C 0.62512 0.45957 0.79014
 C60 C 0.63405 0.45555 0.77047
 C61 C 0.62556 0.50763 0.74302
 C62 C 0.61692 0.50376 0.72307
 C63 C 0.61687 0.51956 0.70775
 C64 C 0.62582 0.53914 0.71217
 C65 C 0.63464 0.54305 0.73193
 C66 C 0.63433 0.52740 0.74740
 H67 H 0.64099 0.46804 0.73976
 H68 H 0.60978 0.51024 0.78251
 H69 H 0.60992 0.48862 0.71962
 H70 H 0.64122 0.53045 0.76268
 H71 H 0.62502 0.44741 0.80208
 H72 H 0.62592 0.55132 0.70025
 C73 C 0.24458 0.13256 1.02893
 C74 C 0.24011 0.12380 1.00918
 C75 C 0.22011 0.11526 1.00533
 C76 C 0.20480 0.11531 1.02117
 C77 C 0.20932 0.12427 1.04074
 C78 C 0.22914 0.13298 1.04459
 C79 C 0.25632 0.12363 0.99258
 C80 C 0.27620 0.11484 0.99653
 C81 C 0.29156 0.11466 0.98076
 C82 C 0.28723 0.12362 0.96113
 C83 C 0.26753 0.13258 0.95717
 C84 C 0.25203 0.13240 0.97278
 H85 H 0.25989 0.13939 1.03195
 H86 H 0.21665 0.10830 0.99017
 H87 H 0.27953 0.10790 1.01174
 H88 H 0.23682 0.13944 0.96969
 H89 H 0.19745 0.12449 1.05298
 H90 H 0.29916 0.12369 0.94895
 C91 C 0.75395 0.36571 1.02768
 C92 C 0.75774 0.37449 1.00778
 C93 C 0.77747 0.38339 1.00340
 C94 C 0.79317 0.38368 1.01883
 C95 C 0.78937 0.37471 1.03855
 C96 C 0.76982 0.36562 1.04297
 C97 C 0.74112 0.37436 0.99156
 C98 C 0.72130 0.38315 0.99582
 C99 C 0.70564 0.38327 0.98032
 C100 C 0.70960 0.37420 0.96067
 C101 C 0.72922 0.36523 0.95640
 C102 C 0.74502 0.36550 0.97173
 H103 H 0.73881 0.35863 1.03107
 H104 H 0.78045 0.39038 0.98816
 H105 H 0.71828 0.39021 1.01103
 H106 H 0.76020 0.35852 0.96838
 H107 H 0.80164 0.37483 1.05040
 H108 H 0.69746 0.37413 0.94869
 C109 C 0.25603 0.86677 0.52837
 C110 C 0.25989 0.87534 0.50839
 C111 C 0.27968 0.88407 0.50395
 C112 C 0.29538 0.88440 0.51941
 C113 C 0.29148 0.87564 0.53921
 C114 C 0.27186 0.86674 0.54367
 C115 C 0.24326 0.87521 0.49218
 C116 C 0.22338 0.88379 0.49653
 C117 C 0.20772 0.88391 0.48106
 C118 C 0.21172 0.87510 0.46133
 C119 C 0.23142 0.86634 0.45694
 C120 C 0.24723 0.86657 0.47226
 H121 H 0.24087 0.85983 0.53185
 H122 H 0.28267 0.89090 0.48863
 H123 H 0.22026 0.89069 0.51178
 H124 H 0.26246 0.85975 0.46883
 H125 H 0.30365 0.87572 0.55116
 H126 H 0.19954 0.87507 0.44940
 C127 C 0.74684 0.63327 0.52906
 C128 C 0.74217 0.62472 0.50925
 C129 C 0.72210 0.61633 0.50549
 C130 C 0.70693 0.61631 0.52143
 C131 C 0.71162 0.62504 0.54105
 C132 C 0.73152 0.63361 0.54485
 C133 C 0.75822 0.62458 0.49249
 C134 C 0.77809 0.61564 0.49617
 C135 C 0.79321 0.61528 0.48016
 C136 C 0.78867 0.62425 0.46058
 C137 C 0.76899 0.63336 0.45690
 C138 C 0.75372 0.63335 0.47274
 H139 H 0.76222 0.63999 0.53203
 H140 H 0.71843 0.60951 0.49032
 H141 H 0.78157 0.60866 0.51132
 H142 H 0.73851 0.64047 0.46984
 H143 H 0.69981 0.62517 0.55333
 H144 H 0.80040 0.62415 0.44821
 C145 C -0.02762 0.25388 0.13111
 C146 C -0.00761 0.25795 0.12269
 C147 C -0.00332 0.27776 0.11394
 C148 C -0.01895 0.29327 0.11344
 C149 C -0.03878 0.28915 0.12206
 C150 C -0.04309 0.26954 0.13098
 C151 C 0.00882 0.24156 0.12315
 C152 C 0.00487 0.22161 0.11459
 C153 C 0.02055 0.20613 0.11487
 C154 C 0.04007 0.21043 0.12410
 C155 C 0.04403 0.23020 0.13284
 C156 C 0.02852 0.24580 0.13218
 H157 H -0.03097 0.23873 0.13812
 H158 H 0.01204 0.28092 0.10725
 H159 H -0.01024 0.21831 0.10741
 H160 H 0.03162 0.26108 0.13902
 H161 H -0.05086 0.30120 0.12188
 H162 H 0.05218 0.19843 0.12450
 C163 C -0.02886 0.74574 0.36717
 C164 C -0.00904 0.74132 0.37587
 C165 C -0.00511 0.72133 0.38438
 C166 C -0.02090 0.70602 0.38437
 C167 C -0.04053 0.71047 0.37550
 C168 C -0.04449 0.73026 0.36681
 C169 C 0.00751 0.75757 0.37605
 C170 C 0.00349 0.77741 0.38483
 C171 C 0.01922 0.79279 0.38508
 C172 C 0.03889 0.78855 0.37620
 C173 C 0.04294 0.76890 0.36724
 C174 C 0.02736 0.75336 0.36735
 H175 H -0.03196 0.76104 0.36037
 H176 H 0.01007 0.71786 0.39131
 H177 H -0.01172 0.78073 0.39175
 H178 H 0.03052 0.73817 0.36033
 H179 H -0.05271 0.69854 0.37535
 H180 H 0.05100 0.80054 0.37623
 C181 C 0.47252 0.24723 0.86730
 C182 C 0.49239 0.24296 0.87595
 C183 C 0.49648 0.22301 0.88450
 C184 C 0.48078 0.20757 0.88458
 C185 C 0.46109 0.21189 0.87574
 C186 C 0.45698 0.23165 0.86701
 C187 C 0.50889 0.25928 0.87600
 C188 C 0.50484 0.27915 0.88471
 C189 C 0.52058 0.29456 0.88493
 C190 C 0.54026 0.29028 0.87607
 C191 C 0.54432 0.27060 0.86718
 C192 C 0.52875 0.25506 0.86732
 H193 H 0.46931 0.26249 0.86046
 H194 H 0.51173 0.21970 0.89138
 H195 H 0.48961 0.28243 0.89162
 H196 H 0.53193 0.23985 0.86037
 H197 H 0.44895 0.19992 0.87561
 H198 H 0.55243 0.30222 0.87606
 C199 C 0.47262 0.75484 0.63356
 C200 C 0.49257 0.75886 0.62498
 C201 C 0.49675 0.77857 0.61599
 C202 C 0.48109 0.79402 0.61540
 C203 C 0.46133 0.78998 0.62416
 C204 C 0.45711 0.77046 0.63333
 C205 C 0.50902 0.74249 0.62542
 C206 C 0.50502 0.72251 0.61695
 C207 C 0.52072 0.70708 0.61712
 C208 C 0.54031 0.71142 0.62614
 C209 C 0.54433 0.73121 0.63480
 C210 C 0.52879 0.74679 0.63426
 H211 H 0.46933 0.73974 0.64072
 H212 H 0.51204 0.78173 0.60915
 H213 H 0.48988 0.71913 0.60989
 H214 H 0.53194 0.76210 0.64101
 H215 H 0.44926 0.80202 0.62385
 H216 H 0.55241 0.69942 0.62641
 C217 C 0.86764 1.02712 0.75440
 C218 C 0.87662 1.00741 0.75853
 C219 C 0.88537 1.00337 0.77839
 C220 C 0.88531 1.01897 0.79391
 C221 C 0.87611 1.03854 0.78975
 C222 C 0.86719 1.04257 0.77003
 C223 C 0.87679 0.99102 0.74215
 C224 C 0.88536 0.99525 0.72227
 C225 C 0.88563 0.97965 0.70676
 C226 C 0.87692 0.95985 0.71096
 C227 C 0.86816 0.95563 0.73070
 C228 C 0.86830 0.97111 0.74631
 H229 H 0.86065 1.03027 0.73918
 H230 H 0.89249 0.98822 0.78158
 H231 H 0.89211 1.01057 0.71906
 H232 H 0.86144 0.96782 0.76156
 H233 H 0.87587 1.05060 0.80178
 H234 H 0.87693 0.94778 0.69893
 C235 C 0.36591 0.52890 0.25478
 C236 C 0.37456 0.50911 0.25929
 C237 C 0.38329 0.50533 0.27919
 C238 C 0.38357 0.52123 0.29437
 C239 C 0.37473 0.54088 0.28985
 C240 C 0.36580 0.54468 0.27009
 C241 C 0.37462 0.49245 0.24318
 C242 C 0.38340 0.49627 0.22331
 C243 C 0.38376 0.48038 0.20812
 C244 C 0.37496 0.46072 0.21258
 C245 C 0.36599 0.45688 0.23230
 C246 C 0.36601 0.47264 0.24763
 H247 H 0.35897 0.53187 0.23950
 H248 H 0.39021 0.49016 0.28270
 H249 H 0.39029 0.51145 0.21984
 H250 H 0.35903 0.46963 0.26288
 H251 H 0.37481 0.55315 0.30166
 H252 H 0.37510 0.44847 0.20076
 C253 C 0.63313 1.02807 0.24388
 C254 C 0.62416 1.00833 0.23993
 C255 C 0.61544 1.00412 0.22011
 C256 C 0.61549 1.01958 0.20446
 C257 C 0.62466 1.03918 0.20842
 C258 C 0.63357 1.04339 0.22810
 C259 C 0.62397 0.99208 0.25647
 C260 C 0.61538 0.99649 0.27629
 C261 C 0.61505 0.98101 0.29194
 C262 C 0.62372 0.96117 0.28793
 C263 C 0.63250 0.95677 0.26824
 C264 C 0.63243 0.97212 0.25249
 H265 H 0.64010 1.03135 0.25908
 H266 H 0.60830 0.98897 0.21702
 H267 H 0.60864 1.01184 0.27936
 H268 H 0.63930 0.96868 0.23729
 H269 H 0.62485 1.05110 0.19625
 H270 H 0.62366 0.94918 0.30006
 C271 C 0.13350 0.52805 0.74536
 C272 C 0.12460 0.50828 0.74137
 C273 C 0.11571 0.50415 0.72161
 C274 C 0.11552 0.51972 0.70607
 C275 C 0.12460 0.53935 0.71007
 C276 C 0.13369 0.54348 0.72968
 C277 C 0.12453 0.49198 0.75785
 C278 C 0.11593 0.49630 0.77769
 C279 C 0.11564 0.48078 0.79327
 C280 C 0.12435 0.46098 0.78923
 C281 C 0.13314 0.45664 0.76952
 C282 C 0.13303 0.47204 0.75381
 H283 H 0.14056 0.53129 0.76053
 H284 H 0.10861 0.48899 0.71849
 H285 H 0.10914 0.51159 0.78085
 H286 H 0.13989 0.46866 0.73859
 H287 H 0.12459 0.55136 0.69798
 H288 H 0.12428 0.44900 0.80135
 C289 C 0.74556 0.86753 -0.02729
 C290 C 0.74112 0.87620 -0.00751
 C291 C 0.72115 0.88473 -0.00363
 C292 C 0.70582 0.88478 -0.01943
 C293 C 0.71028 0.87591 -0.03906
 C294 C 0.73012 0.86718 -0.04296
 C295 C 0.75732 0.87632 0.00910
 C296 C 0.77718 0.88513 0.00521
 C297 C 0.79250 0.88541 0.02104
 C298 C 0.78814 0.87649 0.04070
 C299 C 0.76842 0.86750 0.04458
 C300 C 0.75299 0.86761 0.02889
 H301 H 0.76088 0.86071 -0.03032
 H302 H 0.71767 0.89164 0.01155
 H303 H 0.78052 0.89205 -0.01000
 H304 H 0.73777 0.86059 0.03193
 H305 H 0.69836 0.87578 -0.05125
 H306 H 0.80002 0.87650 0.05294
 C307 C 0.24634 0.36662 0.47267
 C308 C 0.24181 0.37526 0.49244
 C309 C 0.22183 0.38382 0.49624
 C310 C 0.20660 0.38393 0.48036
 C311 C 0.21114 0.37510 0.46073
 C312 C 0.23097 0.36635 0.45692
 C313 C 0.25793 0.37537 0.50912
 C314 C 0.27779 0.38418 0.50532
 C315 C 0.29301 0.38452 0.52121
 C316 C 0.28858 0.37566 0.54086
 C317 C 0.26886 0.36665 0.54468
 C318 C 0.25351 0.36670 0.52891
 H319 H 0.26167 0.35979 0.46969
 H320 H 0.21829 0.39071 0.51141
 H321 H 0.28125 0.39110 0.49014
 H322 H 0.23827 0.35967 0.53189
 H323 H 0.19928 0.37503 0.44848
 H324 H 0.30042 0.37576 0.55312
 C325 C 0.25374 0.63334 -0.02769
 C326 C 0.25764 0.62444 -0.00788
 C327 C 0.27738 0.61551 -0.00365
 C328 C 0.29299 0.61528 -0.01916
 C329 C 0.28908 0.62438 -0.03881
 C330 C 0.26949 0.63351 -0.04304
 C331 C 0.24114 0.62452 0.00841
 C332 C 0.22128 0.61590 0.00416
 C333 C 0.20566 0.61579 0.01968
 C334 C 0.20975 0.62473 0.03940
 C335 C 0.22947 0.63356 0.04363
 C336 C 0.24519 0.63325 0.02825
 H337 H 0.23861 0.64046 -0.03098
 H338 H 0.28044 0.60843 0.01154
 H339 H 0.21816 0.60896 -0.01109
 H340 H 0.26042 0.64012 0.03155
 H341 H 0.30122 0.62437 -0.05076
 H342 H 0.19765 0.62484 0.05141
 C343 C 0.75617 0.13338 0.47098
 C344 C 0.75988 0.12474 0.49094
 C345 C 0.77962 0.11597 0.49550
 C346 C 0.79543 0.11564 0.48019
 C347 C 0.79169 0.12449 0.46036
 C348 C 0.77209 0.13346 0.45580
 C349 C 0.74314 0.12487 0.50699
 C350 C 0.72332 0.11630 0.50245
 C351 C 0.70751 0.11622 0.51775
 C352 C 0.71132 0.12508 0.53753
 C353 C 0.73100 0.13384 0.54208
 C354 C 0.74693 0.13354 0.52691
 H355 H 0.74104 0.14037 0.46742
 H356 H 0.78247 0.10908 0.51084
 H357 H 0.72034 0.10938 0.48718
 H358 H 0.76214 0.14036 0.53046
 H359 H 0.80394 0.12442 0.44851
 H360 H 0.69903 0.12516 0.54933
 C361 C 1.02909 0.75454 0.86789
 C362 C 1.00933 0.75849 0.87688
 C363 C 1.00520 0.77822 0.88580
 C364 C 1.02075 0.79380 0.88593
 C365 C 1.04037 0.78983 0.87673
 C366 C 1.04449 0.77024 0.86762
 C367 C 0.99298 0.74206 0.87683
 C368 C 0.99722 0.72215 0.88534
 C369 C 0.98163 0.70661 0.88544
 C370 C 0.96186 0.71080 0.87662
 C371 C 0.95764 0.73057 0.86792
 C372 C 0.97309 0.74622 0.86822
 H373 H 1.03230 0.73942 0.86076
 H374 H 0.99001 0.78127 0.89292
 H375 H 1.01251 0.71895 0.89218
 H376 H 0.96980 0.76149 0.86142
 H377 H 1.05239 0.80192 0.87662
 H378 H 0.94980 0.69876 0.87651
 C379 C 0.52920 0.25525 0.36555
 C380 C 0.50940 0.25926 0.37440
 C381 C 0.50529 0.27900 0.38333
 C382 C 0.52090 0.29449 0.38360
 C383 C 0.54056 0.29046 0.37457
 C384 C 0.54468 0.27088 0.36544
 C385 C 0.49301 0.24285 0.37431
 C386 C 0.49726 0.22289 0.38268
 C387 C 0.48167 0.20738 0.38276
 C388 C 0.46188 0.21162 0.37408
 C389 C 0.45761 0.23144 0.36551
 C390 C 0.47308 0.24708 0.36582
 H391 H 0.53242 0.24012 0.35844
 H392 H 0.49010 0.28214 0.39038
 H393 H 0.51255 0.21958 0.38945
 H394 H 0.46976 0.26239 0.35912
 H395 H 0.55261 0.30252 0.37463
 H396 H 0.44985 0.19956 0.37399
 C397 C 1.02839 0.24531 0.63284
 C398 C 1.00856 0.24104 0.62418
 C399 C 1.00446 0.22111 0.61570
 C400 C 1.02013 0.20564 0.61569
 C401 C 1.03985 0.20994 0.62456
 C402 C 1.04393 0.22974 0.63323
 C403 C 0.99210 0.25738 0.62406
 C404 C 0.99611 0.27712 0.61509
 C405 C 0.98043 0.29258 0.61485
 C406 C 0.96081 0.28848 0.62398
 C407 C 0.95681 0.26888 0.63314
 C408 C 0.97234 0.25330 0.63298
 H409 H 1.03158 0.26060 0.63962
 H410 H 0.98921 0.21782 0.60883
 H411 H 1.01130 0.28026 0.60801
 H412 H 0.96921 0.23816 0.64014
 H413 H 1.05197 0.19795 0.62474
 H414 H 0.94869 0.30047 0.62399
 C415 C 0.52688 0.74716 0.13299
 C416 C 0.50715 0.74277 0.12414
 C417 C 0.50328 0.72283 0.11555
 C418 C 0.51907 0.70751 0.11562
 C419 C 0.53866 0.71191 0.12467
 C420 C 0.54253 0.73170 0.13345
 C421 C 0.49060 0.75901 0.12384
 C422 C 0.49464 0.77879 0.11498
 C423 C 0.47891 0.79417 0.11455
 C424 C 0.45918 0.78998 0.12337
 C425 C 0.45512 0.77033 0.13242
 C426 C 0.47073 0.75482 0.13245
 H427 H 0.52990 0.76245 0.13984
 H428 H 0.48815 0.71940 0.10850
 H429 H 0.50989 0.78207 0.10812
 H430 H 0.46757 0.73965 0.13952
 H431 H 0.55083 0.69999 0.12487
 H432 H 0.44705 0.80195 0.12321
 O433 O -0.01661 0.99103 0.94140
 O434 O 0.01758 1.00725 0.93980
 O435 O -0.00871 0.94048 0.98480
 O436 O 0.00449 0.93768 1.01979
 O437 O -0.06038 0.98385 0.99243
 O438 O -0.06326 1.01698 1.00677
 O439 O 0.04485 0.99672 1.04209
 O440 O 0.05201 0.96720 1.02289
 O441 O 0.03989 1.04596 0.99747
 O442 O 0.02188 1.04912 0.96620
 O443 O -0.00369 1.04132 1.04590
 O444 O -0.03519 1.01999 1.05237
 O445 O 0.01575 1.00872 1.05912
 O446 O -0.02065 0.99383 1.06220
 O447 O 0.00823 1.05834 1.01679
 O448 O -0.01052 1.05948 0.98207
 O449 O 0.05704 1.01707 1.00988
 O450 O 0.05802 0.97983 0.99142
 O451 O -0.04568 1.00332 0.95836
 O452 O -0.04909 1.03567 0.97984
 O453 O -0.04326 0.95500 1.00507
 O454 O -0.02160 0.94912 1.03560
 O455 O 0.00295 0.95748 0.95550
 O456 O 0.03554 0.97781 0.95362
 Zr457 Zr 0.00625 0.98888 0.96526
 O458 O 0.02579 1.00848 0.98339
 Zr459 Zr -0.01153 0.96419 1.00777
 O460 O 0.00781 0.98233 1.02754
 Zr461 Zr -0.03646 1.00652 0.99004
 O462 O -0.01847 1.02642 1.00942
 Zr463 Zr 0.03443 0.99282 1.01102
 O464 O 0.01638 0.97226 0.99210
 Zr465 Zr 0.00906 1.03501 0.99345
 O466 O -0.00988 1.01666 0.97321
 Zr467 Zr -0.00797 1.01002 1.03606
 O468 O -0.02821 0.99079 1.01800
 O469 O -0.02103 0.97938 0.98058
 O470 O 0.01912 1.02000 1.02076
 C471 C -0.03573 0.99748 0.94180
 C472 C -0.00252 0.94090 0.96559
 C473 C -0.05989 0.96483 0.99915
 C474 C 0.03515 1.00319 1.05853
 C475 C 0.05635 1.03642 1.00419
 C476 C 0.00278 1.05776 1.03617
 H477 H 0.03827 1.01246 0.97500
 H478 H -0.02688 1.03893 1.01317
 H479 H -0.03003 0.97034 0.97169
 H480 H 0.01179 0.97387 1.03994
 H481 H 0.04205 0.95785 1.03027
 H482 H 0.01829 0.93722 1.01263
 H483 H -0.00274 1.07289 0.98354
 H484 H -0.06272 1.03305 0.97271
 H485 H 0.07170 0.98622 0.99523
 H486 H 0.03339 0.97110 0.93973
 H487 H -0.04168 1.03150 1.04418
 H488 H -0.06225 1.01094 1.02106
 H489 H 0.01633 0.99906 0.92660
 H490 H 0.01316 1.04432 0.95425
 H491 H -0.03170 0.95876 1.04245
 H492 H -0.01155 0.98156 1.06507
 O493 O 0.48395 0.49246 0.44168
 O494 O 0.51810 0.50877 0.44004
 O495 O 0.49232 0.44136 0.48437
 O496 O 0.50583 0.43816 0.51922
 O497 O 0.44060 0.48443 0.49293
 O498 O 0.43770 0.51736 0.50774
 O499 O 0.54612 0.49704 0.54202
 O500 O 0.55324 0.46779 0.52238
 O501 O 0.54067 0.54683 0.49807
 O502 O 0.52245 0.55032 0.46697
 O503 O 0.49740 0.54142 0.54672
 O504 O 0.46607 0.51987 0.55315
 O505 O 0.51710 0.50874 0.55939
 O506 O 0.48080 0.49365 0.56255
 O507 O 0.50907 0.55886 0.51775
 O508 O 0.49011 0.56035 0.48315
 O509 O 0.55801 0.51784 0.50998
 O510 O 0.55900 0.48086 0.49104
 O511 O 0.45496 0.50441 0.45903
 O512 O 0.45159 0.53644 0.48095
 O513 O 0.45791 0.45548 0.50509
 O514 O 0.47981 0.44928 0.53538
 O515 O 0.50369 0.45877 0.45521
 O516 O 0.53624 0.47921 0.45337
 Zr517 Zr 0.50699 0.49004 0.46535
 O518 O 0.52660 0.50948 0.48360
 Zr519 Zr 0.48962 0.46476 0.50767
 O520 O 0.50903 0.48271 0.52754
 Zr521 Zr 0.46441 0.50722 0.49068
 O522 O 0.48247 0.52693 0.51018
 Zr523 Zr 0.53549 0.49350 0.51097
 O524 O 0.51738 0.47312 0.49190
 Zr525 Zr 0.50985 0.53582 0.49411
 O526 O 0.49083 0.51767 0.47378
 Zr527 Zr 0.49321 0.51023 0.53652
 O528 O 0.47292 0.49116 0.51837
 O529 O 0.47987 0.48026 0.48075
 O530 O 0.52016 0.52051 0.52116
 C531 C 0.46481 0.49884 0.44232
 C532 C 0.49835 0.44204 0.46512
 C533 C 0.44121 0.46533 0.49941
 C534 C 0.53651 0.50328 0.55860
 C535 C 0.55721 0.53726 0.50455
 C536 C 0.50372 0.55801 0.53715
 H537 H 0.53900 0.51362 0.47518
 H538 H 0.47403 0.53936 0.51414
 H539 H 0.47083 0.47131 0.47180
 H540 H 0.51313 0.47410 0.53980
 H541 H 0.54337 0.45831 0.52972
 H542 H 0.51958 0.43783 0.51193
 H543 H 0.49785 0.57378 0.48475
 H544 H 0.43792 0.53387 0.47390
 H545 H 0.57268 0.48724 0.49485
 H546 H 0.53400 0.47266 0.43942
 H547 H 0.45946 0.53144 0.54515
 H548 H 0.43881 0.51109 0.52193
 H549 H 0.51677 0.50074 0.42676
 H550 H 0.51368 0.54563 0.45501
 H551 H 0.46974 0.45880 0.54243
 H552 H 0.48997 0.48139 0.56521
 O553 O 0.45955 -0.04543 0.49434
 O554 O 0.48001 -0.04884 0.46256
 O555 O 0.50487 -0.04132 0.54320
 O556 O 0.53538 -0.02002 0.54906
 O557 O 0.45517 0.00413 0.53943
 O558 O 0.45040 0.03462 0.51972
 O559 O 0.55983 0.01678 0.48905
 O560 O 0.56451 -0.01703 0.50141
 O561 O 0.51646 0.00955 0.43868
 O562 O 0.48454 -0.00655 0.43572
 O563 O 0.50953 0.05923 0.48143
 O564 O 0.49571 0.06261 0.51703
 O565 O 0.54265 0.04576 0.50097
 O566 O 0.52056 0.05157 0.53268
 O567 O 0.49786 0.04200 0.45235
 O568 O 0.46444 0.02119 0.45037
 O569 O 0.54556 -0.00248 0.45580
 O570 O 0.55044 -0.03546 0.47960
 O571 O 0.44220 -0.01627 0.50586
 O572 O 0.44069 0.01889 0.48900
 O573 O 0.48453 -0.00709 0.55673
 O574 O 0.51977 0.00695 0.55951
 O575 O 0.49267 -0.05862 0.51430
 O576 O 0.51111 -0.05951 0.48035
 Zr577 Zr 0.49087 -0.03520 0.49102
 O578 O 0.50963 -0.01673 0.47104
 Zr579 Zr 0.50790 -0.00980 0.53340
 O580 O 0.52787 0.00926 0.51520
 Zr581 Zr 0.46542 0.00727 0.50816
 O582 O 0.48358 0.02734 0.48918
 Zr583 Zr 0.53631 -0.00638 0.48739
 O584 O 0.51856 -0.02657 0.50704
 Zr585 Zr 0.49373 0.01084 0.46253
 O586 O 0.47382 -0.00881 0.48054
 Zr587 Zr 0.51132 0.03590 0.50484
 O588 O 0.49193 0.01788 0.52497
 O589 O 0.48103 -0.01963 0.51794
 O590 O 0.52117 0.02089 0.47746
 C591 C 0.44289 -0.03560 0.50013
 C592 C 0.49878 -0.05795 0.53352
 C593 C 0.46514 -0.00144 0.55609
 C594 C 0.55923 0.03603 0.49492
 C595 C 0.53575 0.00364 0.43924
 C596 C 0.50380 0.05859 0.46211
 H597 H 0.51329 -0.02512 0.45849
 H598 H 0.47500 0.03966 0.48519
 H599 H 0.47208 -0.02855 0.52699
 H600 H 0.54034 0.01301 0.52367
 H601 H 0.56400 -0.01289 0.51637
 H602 H 0.54224 -0.03033 0.53967
 H603 H 0.46697 0.02739 0.43630
 H604 H 0.42712 0.01641 0.49627
 H605 H 0.54516 -0.03969 0.46560
 H606 H 0.50411 -0.07327 0.48235
 H607 H 0.48230 0.06419 0.50932
 H608 H 0.46056 0.04166 0.52916
 H609 H 0.47468 -0.06318 0.46552
 H610 H 0.47329 -0.01619 0.44042
 H611 H 0.51220 0.02052 0.55985
 H612 H 0.53272 0.04393 0.53864
 O613 O -0.04140 0.45466 0.99569
 O614 O -0.02086 0.45149 0.96393
 O615 O 0.00387 0.45831 1.04468
 O616 O 0.03435 0.47955 1.05081
 O617 O -0.04579 0.50392 1.04117
 O618 O -0.05048 0.53452 1.02165
 O619 O 0.05901 0.51677 0.99115
 O620 O 0.06360 0.48284 1.00330
 O621 O 0.01577 0.50990 0.94059
 O622 O -0.01619 0.49392 0.93746
 O623 O 0.00880 0.55934 0.98369
 O624 O -0.00515 0.56246 1.01929
 O625 O 0.04183 0.54568 1.00325
 O626 O 0.01965 0.55129 1.03492
 O627 O -0.00279 0.54232 0.95445
 O628 O -0.03624 0.52162 0.95223
 O629 O 0.04480 0.49773 0.95772
 O630 O 0.04960 0.46462 0.98130
 O631 O -0.05873 0.48375 1.00739
 O632 O -0.06013 0.51904 0.99080
 O633 O -0.01649 0.49251 1.05845
 O634 O 0.01875 0.50642 1.06143
 O635 O -0.00828 0.44125 1.01562
 O636 O 0.01016 0.44059 0.98171
 Zr637 Zr -0.01005 0.46486 0.99253
 O638 O 0.00881 0.48346 0.97276
 Zr639 Zr 0.00692 0.48991 1.03515
 O640 O 0.02696 0.50910 1.01716
 Zr641 Zr -0.03547 0.50724 1.00994
 O642 O -0.01723 0.52742 0.99115
 Zr643 Zr 0.03546 0.49365 0.98926
 O644 O 0.01762 0.47334 1.00869
 Zr645 Zr -0.00702 0.51111 0.96440
 O646 O -0.02702 0.49136 0.98221
 Zr647 Zr 0.01048 0.53584 1.00694
 O648 O -0.00898 0.51768 1.02689
 O649 O -0.01994 0.48023 1.01956
 O650 O 0.02039 0.52101 0.97948
 C651 C -0.05807 0.46447 1.00149
 C652 C -0.00218 0.44176 1.03484
 C653 C -0.03586 0.49824 1.05781
 C654 C 0.05841 0.53598 0.99717
 C655 C 0.03504 0.50394 0.94117
 C656 C 0.00313 0.55884 0.96434
 H657 H 0.01250 0.47515 0.96017
 H658 H -0.02578 0.53978 0.98722
 H659 H -0.02892 0.47125 1.02852
 H660 H 0.03941 0.51276 1.02570
 H661 H 0.06309 0.48695 1.01827
 H662 H 0.04125 0.46933 1.04133
 H663 H -0.03367 0.52790 0.93820
 H664 H -0.07373 0.51652 0.99801
 H665 H 0.04429 0.46044 0.96730
 H666 H 0.00311 0.42683 0.98356
 H667 H -0.01851 0.56415 1.01152
 H668 H -0.04033 0.54150 1.03114
 H669 H -0.02624 0.43714 0.96676
 H670 H -0.02751 0.48431 0.94204
 H671 H 0.01123 0.52003 1.06183
 H672 H 0.03178 0.54359 1.04087
 O673 O 0.00730 0.43931 0.51543
 O674 O -0.00911 0.43771 0.48132
 O675 O 0.05797 0.48244 0.50734
 O676 O 0.06087 0.51735 0.49398
 O677 O 0.01484 0.49038 0.55904
 O678 O -0.01828 0.50485 0.56202
 O679 O 0.00172 0.53988 0.45385
 O680 O 0.03110 0.52053 0.44658
 O681 O -0.04776 0.49550 0.45906
 O682 O -0.05097 0.46430 0.47712
 O683 O -0.04271 0.54397 0.50252
 O684 O -0.02123 0.55041 0.53388
 O685 O -0.01010 0.55700 0.48295
 O686 O 0.00496 0.56005 0.51928
 O687 O -0.05994 0.51494 0.49072
 O688 O -0.06112 0.48025 0.50952
 O689 O -0.01887 0.50774 0.44179
 O690 O 0.01834 0.48911 0.44071
 O691 O -0.00479 0.45638 0.54451
 O692 O -0.03712 0.47796 0.54797
 O693 O 0.04368 0.50286 0.54180
 O694 O 0.04959 0.53331 0.52004
 O695 O 0.04082 0.45321 0.49578
 O696 O 0.02034 0.45137 0.46324
 Zr697 Zr 0.00942 0.46311 0.49253
 O698 O -0.01024 0.48128 0.47304
 Zr699 Zr 0.03435 0.50553 0.51012
 O700 O 0.01619 0.52533 0.49082
 Zr701 Zr -0.00797 0.48804 0.53523
 O702 O -0.02789 0.50747 0.51729
 Zr703 Zr 0.00550 0.50881 0.46429
 O704 O 0.02610 0.48984 0.48229
 Zr705 Zr -0.03668 0.49149 0.48984
 O706 O -0.01830 0.47121 0.50873
 Zr707 Zr -0.01142 0.53399 0.50669
 O708 O 0.00784 0.51590 0.52688
 O709 O 0.01909 0.47844 0.51972
 O710 O -0.02159 0.51870 0.47968
 C711 C 0.00096 0.43978 0.53458
 C712 C 0.05746 0.46322 0.50122
 C713 C 0.03390 0.49701 0.55847
 C714 C -0.00462 0.55636 0.46355
 C715 C -0.03826 0.50214 0.44256
 C716 C -0.05924 0.53432 0.49615
 H717 H -0.01431 0.47289 0.46060
 H718 H -0.04036 0.51129 0.52574
 H719 H 0.02814 0.46953 0.52872
 H720 H 0.02470 0.53767 0.48679
 H721 H 0.04059 0.52777 0.45650
 H722 H 0.06127 0.51012 0.48023
 H723 H -0.07457 0.48178 0.50180
 H724 H -0.03446 0.47085 0.56160
 H725 H 0.01186 0.49289 0.42706
 H726 H 0.02703 0.43747 0.46541
 H727 H -0.03272 0.54227 0.54045
 H728 H -0.01217 0.51910 0.56097
 H729 H -0.00095 0.42449 0.48257
 H730 H -0.04615 0.45234 0.48583
 H731 H 0.04003 0.54020 0.53019
 H732 H 0.01720 0.56287 0.51012
 O733 O 0.45285 0.99668 -0.04306
 O734 O 0.44951 0.96494 -0.02256
 O735 O 0.45684 1.04555 0.00226
 O736 O 0.47820 1.05148 0.03271
 O737 O 0.50235 1.04197 -0.04744
 O738 O 0.53289 1.02233 -0.05217
 O739 O 0.51518 0.99155 0.05717
 O740 O 0.48133 1.00388 0.06186
 O741 O 0.50791 0.94119 0.01391
 O742 O 0.49185 0.93824 -0.01804
 O743 O 0.55764 0.98405 0.00693
 O744 O 0.56091 1.01968 -0.00696
 O745 O 0.54414 1.00355 0.03999
 O746 O 0.54991 1.03524 0.01792
 O747 O 0.54042 0.95493 -0.00465
 O748 O 0.51963 0.95292 -0.03808
 O749 O 0.49587 0.95831 0.04296
 O750 O 0.46289 0.98207 0.04784
 O751 O 0.48200 1.00828 -0.06039
 O752 O 0.51723 0.99160 -0.06188
 O753 O 0.49109 1.05921 -0.01810
 O754 O 0.50512 1.06201 0.01710
 O755 O 0.43959 1.01662 -0.00993
 O756 O 0.43878 0.98270 0.00848
 Zr757 Zr 0.46309 0.99343 -0.01174
 O758 O 0.48163 0.97351 0.00704
 Zr759 Zr 0.48843 1.03586 0.00525
 O760 O 0.50757 1.01771 0.02522
 Zr761 Zr 0.50555 1.01070 -0.03718
 O762 O 0.52568 0.99174 -0.01901
 Zr763 Zr 0.49197 0.98988 0.03369
 O764 O 0.47171 1.00946 0.01592
 Zr765 Zr 0.50922 0.96505 -0.00883
 O766 O 0.48952 0.98303 -0.02876
 Zr767 Zr 0.53424 1.00741 0.00869
 O768 O 0.51614 1.02751 -0.01069
 O769 O 0.47860 1.02040 -0.02161
 O770 O 0.51928 0.98001 0.01857
 C771 C 0.46268 1.00245 -0.05972
 C772 C 0.44021 1.03581 -0.00379
 C773 C 0.49678 1.05861 -0.03747
 C774 C 0.53445 0.99746 0.05656
 C775 C 0.50198 0.94175 0.03317
 C776 C 0.55702 0.96472 0.00126
 H777 H 0.47325 0.96096 0.01071
 H778 H 0.53802 0.98777 -0.02758
 H779 H 0.46964 1.02942 -0.03056
 H780 H 0.51132 1.02619 0.03767
 H781 H 0.48550 1.01883 0.06136
 H782 H 0.46793 1.04205 0.03960
 H783 H 0.52585 0.93886 -0.03553
 H784 H 0.51473 0.99887 -0.07545
 H785 H 0.45862 0.96810 0.04253
 H786 H 0.42500 0.98464 0.00146
 H787 H 0.56255 1.01191 -0.02031
 H788 H 0.53993 1.03177 -0.04202
 H789 H 0.43515 0.96785 -0.02790
 H790 H 0.48223 0.94292 -0.02933
 H791 H 0.51873 1.06236 0.00958
 H792 H 0.54223 1.04121 0.03003
 O793 O 0.44073 0.51540 0.00961
 O794 O 0.43918 0.48123 -0.00661
 O795 O 0.48385 0.50751 0.06042
 O796 O 0.51881 0.49423 0.06345
 O797 O 0.49178 0.55906 0.01708
 O798 O 0.50637 0.56194 -0.01597
 O799 O 0.54144 0.45388 0.00449
 O800 O 0.52211 0.44672 0.03388
 O801 O 0.49707 0.45891 -0.04500
 O802 O 0.46585 0.47693 -0.04836
 O803 O 0.54557 0.50246 -0.04008
 O804 O 0.55198 0.53385 -0.01868
 O805 O 0.55859 0.48294 -0.00742
 O806 O 0.56163 0.51928 0.00755
 O807 O 0.51653 0.49056 -0.05728
 O808 O 0.48181 0.50930 -0.05861
 O809 O 0.50926 0.44174 -0.01603
 O810 O 0.49063 0.44082 0.02119
 O811 O 0.45782 0.54443 -0.00259
 O812 O 0.47951 0.54782 -0.03482
 O813 O 0.50426 0.54196 0.04602
 O814 O 0.53477 0.52027 0.05207
 O815 O 0.45461 0.49590 0.04325
 O816 O 0.45283 0.46329 0.02295
 Zr817 Zr 0.46457 0.49254 0.01191
 O818 O 0.48280 0.47301 -0.00760
 Zr819 Zr 0.50698 0.51025 0.03685
 O820 O 0.52685 0.49090 0.01883
 Zr821 Zr 0.48953 0.53518 -0.00561
 O822 O 0.50902 0.51719 -0.02538
 Zr823 Zr 0.51034 0.46434 0.00823
 O824 O 0.49131 0.48239 0.02869
 Zr825 Zr 0.49304 0.48971 -0.03408
 O826 O 0.47271 0.50865 -0.01585
 Zr827 Zr 0.53555 0.50667 -0.00882
 O828 O 0.51740 0.52691 0.01029
 O829 O 0.47989 0.51977 0.02149
 O830 O 0.52027 0.47963 -0.01891
 C831 C 0.44121 0.53452 0.00316
 C832 C 0.46461 0.50138 0.05989
 C833 C 0.49838 0.55857 0.03615
 C834 C 0.55794 0.46356 -0.00190
 C835 C 0.50368 0.44245 -0.03542
 C836 C 0.53592 0.49603 -0.05658
 H837 H 0.47441 0.46055 -0.01162
 H838 H 0.51285 0.52560 -0.03788
 H839 H 0.47094 0.52878 0.03046
 H840 H 0.53920 0.48690 0.02736
 H841 H 0.52929 0.45669 0.04337
 H842 H 0.51159 0.48047 0.06389
 H843 H 0.48336 0.50153 -0.07202
 H844 H 0.47238 0.56144 -0.03225
 H845 H 0.49437 0.42715 0.01476
 H846 H 0.43889 0.46547 0.02958
 H847 H 0.54383 0.54039 -0.03019
 H848 H 0.52061 0.56095 -0.00978
 H849 H 0.42594 0.48250 0.00151
 H850 H 0.45388 0.48563 -0.04361
 H851 H 0.54167 0.53037 0.04247
 H852 H 0.56443 0.51016 0.01982
 O853 O -0.00343 -0.04153 0.45528
 O854 O -0.03515 -0.02093 0.45193
 O855 O 0.04566 0.00356 0.45921
 O856 O 0.05171 0.03402 0.48051
 O857 O 0.04190 -0.04607 0.50471
 O858 O 0.02227 -0.05071 0.53530
 O859 O -0.00810 0.05870 0.51746
 O860 O 0.00416 0.06333 0.48363
 O861 O -0.05872 0.01562 0.51031
 O862 O -0.06183 -0.01627 0.49427
 O863 O -0.01578 0.00843 0.55999
 O864 O 0.01984 -0.00549 0.56324
 O865 O 0.00385 0.04149 0.54644
 O866 O 0.03548 0.01932 0.55222
 O867 O -0.04498 -0.00306 0.54280
 O868 O -0.04716 -0.03641 0.52199
 O869 O -0.04150 0.04460 0.49822
 O870 O -0.01774 0.04938 0.46523
 O871 O 0.00814 -0.05889 0.48444
 O872 O -0.00854 -0.06032 0.51965
 O873 O 0.05926 -0.01682 0.49343
 O874 O 0.06222 0.01836 0.50745
 O875 O 0.01663 -0.00852 0.44200
 O876 O -0.01726 0.01005 0.44118
 Zr877 Zr -0.00658 -0.01021 0.46549
 O878 O -0.02642 0.00863 0.48401
 Zr879 Zr 0.03599 0.00663 0.49078
 O880 O 0.01791 0.02665 0.50989
 Zr881 Zr 0.01065 -0.03569 0.50795
 O882 O -0.00823 -0.01746 0.52805
 Zr883 Zr -0.00993 0.03522 0.49431
 O884 O 0.00958 0.01739 0.47407
 Zr885 Zr -0.03492 -0.00720 0.51161
 O886 O -0.01703 -0.02719 0.49193
 Zr887 Zr 0.00756 0.01018 0.53658
 O888 O 0.02759 -0.00927 0.51850
 O889 O 0.02039 -0.02016 0.48100
 O890 O -0.01984 0.02014 0.52163
 C891 C 0.00231 -0.05820 0.46512
 C892 C 0.03588 -0.00248 0.44260
 C893 C 0.05858 -0.03619 0.49910
 C894 C -0.00216 0.05808 0.53671
 C895 C -0.05810 0.03487 0.50434
 C896 C -0.03514 0.00277 0.55939
 H897 H -0.03899 0.01235 0.47563
 H898 H -0.01221 -0.02603 0.54039
 H899 H 0.02937 -0.02914 0.47205
 H900 H 0.02645 0.03907 0.51361
 H901 H 0.01915 0.06274 0.48772
 H902 H 0.04230 0.04091 0.47020
 H903 H -0.06121 -0.03383 0.52822
 H904 H -0.00131 -0.07391 0.51718
 H905 H -0.03175 0.04413 0.46098
 H906 H -0.01534 0.00303 0.42741
 H907 H 0.01208 -0.01886 0.56485
 H908 H 0.03183 -0.04062 0.54227
 H909 H -0.03226 -0.02627 0.43759
 H910 H -0.05720 -0.02754 0.48463
 H911 H 0.06257 0.01082 0.52105
 H912 H 0.04151 0.03138 0.54450
 O913 O 0.73488 0.18996 0.25687
 O914 O 0.76889 0.18820 0.24031
 O915 O 0.74372 0.23269 0.30780
 O916 O 0.75728 0.26750 0.31082
 O917 O 0.69167 0.24133 0.26504
 O918 O 0.68858 0.25607 0.23208
 O919 O 0.79718 0.29009 0.25166
 O920 O 0.80451 0.27045 0.28083
 O921 O 0.79131 0.24609 0.20191
 O922 O 0.77301 0.21505 0.19862
 O923 O 0.74820 0.29485 0.20749
 O924 O 0.71701 0.30139 0.22923
 O925 O 0.76811 0.30752 0.24011
 O926 O 0.73190 0.31078 0.25534
 O927 O 0.75965 0.26583 0.19004
 O928 O 0.74062 0.23129 0.18878
 O929 O 0.80887 0.25801 0.23075
 O930 O 0.81009 0.23910 0.26779
 O931 O 0.70584 0.20736 0.24506
 O932 O 0.70228 0.22921 0.21298
 O933 O 0.70921 0.25346 0.29385
 O934 O 0.73121 0.28369 0.29983
 O935 O 0.75493 0.20348 0.29040
 O936 O 0.78729 0.20152 0.26970
 Zr937 Zr 0.75798 0.21356 0.25905
 O938 O 0.77747 0.23172 0.23941
 Zr939 Zr 0.74086 0.25595 0.28435
 O940 O 0.76018 0.27572 0.26620
 Zr941 Zr 0.71533 0.23896 0.24209
 O942 O 0.73327 0.25838 0.22220
 Zr943 Zr 0.78653 0.25907 0.25526
 O944 O 0.76854 0.24010 0.27583
 Zr945 Zr 0.76056 0.24224 0.21315
 O946 O 0.74164 0.22199 0.23150
 Zr947 Zr 0.74418 0.28471 0.23875
 O948 O 0.72400 0.26664 0.25802
 O949 O 0.73095 0.22904 0.26899
 O950 O 0.77103 0.26927 0.22833
 C951 C 0.71569 0.19064 0.25061
 C952 C 0.74973 0.21343 0.30715
 C953 C 0.69242 0.24783 0.28413
 C954 C 0.78754 0.30669 0.24549
 C955 C 0.80793 0.25254 0.21135
 C956 C 0.75436 0.28525 0.19087
 H957 H 0.78983 0.22326 0.23521
 H958 H 0.72476 0.26234 0.20981
 H959 H 0.72196 0.22013 0.27803
 H960 H 0.76436 0.28797 0.27477
 H961 H 0.79472 0.27777 0.29039
 H962 H 0.77101 0.26018 0.31109
 H963 H 0.74825 0.23285 0.17529
 H964 H 0.68861 0.22221 0.21566
 H965 H 0.82373 0.24284 0.26128
 H966 H 0.78508 0.18759 0.27630
 H967 H 0.71032 0.29339 0.21771
 H968 H 0.68977 0.27027 0.23828
 H969 H 0.76760 0.17494 0.24839
 H970 H 0.76426 0.20313 0.20342
 H971 H 0.72107 0.29074 0.29037
 H972 H 0.74111 0.31338 0.26759
 O973 O 0.75503 0.70373 0.71056
 O974 O 0.78660 0.70030 0.73135
 O975 O 0.70576 0.70832 0.75543
 O976 O 0.69976 0.72987 0.78573
 O977 O 0.71002 0.75343 0.70548
 O978 O 0.72987 0.78380 0.70066
 O979 O 0.75969 0.76661 0.81038
 O980 O 0.74719 0.73288 0.81520
 O981 O 0.81042 0.75885 0.76753
 O982 O 0.81355 0.74250 0.73578
 O983 O 0.76788 0.80868 0.75981
 O984 O 0.73233 0.81206 0.74569
 O985 O 0.74803 0.79553 0.79289
 O986 O 0.71653 0.80135 0.77054
 O987 O 0.79700 0.79122 0.74853
 O988 O 0.79915 0.77013 0.71534
 O989 O 0.79303 0.74711 0.79655
 O990 O 0.76908 0.71429 0.80149
 O991 O 0.74371 0.73282 0.69293
 O992 O 0.76061 0.76791 0.69130
 O993 O 0.69247 0.74250 0.73477
 O994 O 0.68948 0.75674 0.76985
 O995 O 0.73471 0.69083 0.74359
 O996 O 0.76851 0.68993 0.76234
 Zr997 Zr 0.75809 0.71414 0.74183
 O998 O 0.77799 0.73267 0.76062
 Zr999 Zr 0.71564 0.73983 0.75832
 O1000 O 0.73377 0.75898 0.77827
 Zr1001 Zr 0.74125 0.75651 0.71595
 O1002 O 0.76019 0.77662 0.73410
 Zr1003 Zr 0.76147 0.74328 0.78707
 O1004 O 0.74189 0.72304 0.76931
 Zr1005 Zr 0.78673 0.76008 0.74460
 O1006 O 0.76878 0.74037 0.72469
 Zr1007 Zr 0.74436 0.78546 0.76162
 O1008 O 0.72428 0.76737 0.74223
 O1009 O 0.73127 0.72975 0.73165
 O1010 O 0.77163 0.77041 0.77181
 C1011 C 0.74944 0.71349 0.69379
 C1012 C 0.71544 0.69161 0.74955
 C1013 C 0.69326 0.74803 0.71536
 C1014 C 0.75389 0.78589 0.80959
 C1015 C 0.80970 0.75307 0.78684
 C1016 C 0.78725 0.80791 0.75421
 H1017 H 0.79049 0.72425 0.76445
 H1018 H 0.76429 0.78886 0.72546
 H1019 H 0.72226 0.72080 0.72269
 H1020 H 0.72521 0.76285 0.79063
 H1021 H 0.73225 0.73710 0.81453
 H1022 H 0.70907 0.71955 0.79273
 H1023 H 0.81324 0.77628 0.71792
 H1024 H 0.75342 0.76537 0.67770
 H1025 H 0.78308 0.70993 0.79633
 H1026 H 0.76652 0.67613 0.75543
 H1027 H 0.74018 0.81355 0.73237
 H1028 H 0.72036 0.79094 0.71068
 H1029 H 0.78364 0.68594 0.72611
 H1030 H 0.80890 0.73279 0.72456
 H1031 H 0.68926 0.77029 0.76223
 H1032 H 0.71040 0.79377 0.78264
 O1033 O 0.29568 0.20917 0.74703
 O1034 O 0.29915 0.22996 0.71551
 O1035 O 0.29114 0.25405 0.79629
 O1036 O 0.26959 0.28433 0.80232
 O1037 O 0.24594 0.20416 0.79198
 O1038 O 0.21554 0.19941 0.77214
 O1039 O 0.23286 0.30907 0.74234
 O1040 O 0.26663 0.31382 0.75489
 O1041 O 0.24053 0.26624 0.69168
 O1042 O 0.25689 0.23448 0.68855
 O1043 O 0.19069 0.25862 0.73415
 O1044 O 0.18729 0.24451 0.76969
 O1045 O 0.20390 0.29165 0.75398
 O1046 O 0.19806 0.26933 0.78549
 O1047 O 0.20815 0.24732 0.70507
 O1048 O 0.22921 0.21409 0.70292
 O1049 O 0.25234 0.29522 0.70907
 O1050 O 0.28523 0.30007 0.73302
 O1051 O 0.26654 0.19160 0.75831
 O1052 O 0.23141 0.19006 0.74141
 O1053 O 0.25692 0.23340 0.80956
 O1054 O 0.24268 0.26850 0.81255
 O1055 O 0.30864 0.24219 0.76737
 O1056 O 0.30954 0.26092 0.73359
 Zr1057 Zr 0.28529 0.24045 0.74399
 O1058 O 0.26677 0.25927 0.72409
 Zr1059 Zr 0.25960 0.25696 0.78641
 O1060 O 0.24047 0.27696 0.76828
 Zr1061 Zr 0.24286 0.21466 0.76078
 O1062 O 0.22274 0.23285 0.74185
 Zr1063 Zr 0.25619 0.28572 0.74060
 O1064 O 0.27642 0.26793 0.76019
 Zr1065 Zr 0.23931 0.24331 0.71535
 O1066 O 0.25902 0.22337 0.73329
 Zr1067 Zr 0.21394 0.26038 0.75768
 O1068 O 0.23202 0.24094 0.77774
 O1069 O 0.26967 0.23029 0.77079
 O1070 O 0.22902 0.27053 0.73044
 C1071 C 0.28589 0.19242 0.75259
 C1072 C 0.30787 0.24816 0.78662
 C1073 C 0.25135 0.21401 0.80874
 C1074 C 0.21356 0.30831 0.74810
 C1075 C 0.24633 0.28553 0.69242
 C1076 C 0.19146 0.25305 0.71479
 H1077 H 0.27519 0.26309 0.71160
 H1078 H 0.21048 0.22424 0.73775
 H1079 H 0.27862 0.22131 0.77979
 H1080 H 0.23661 0.28932 0.77683
 H1081 H 0.26239 0.31318 0.76981
 H1082 H 0.27989 0.29134 0.79301
 H1083 H 0.22305 0.21669 0.68884
 H1084 H 0.23394 0.17645 0.74858
 H1085 H 0.28955 0.29495 0.71900
 H1086 H 0.32335 0.25400 0.73559
 H1087 H 0.18577 0.23120 0.76183
 H1088 H 0.20839 0.20945 0.78162
 H1089 H 0.31352 0.22471 0.71848
 H1090 H 0.26660 0.22325 0.69319
 H1091 H 0.22911 0.26090 0.81275
 H1092 H 0.20565 0.28143 0.79160
 O1093 O 0.25316 0.79661 0.29078
 O1094 O 0.28469 0.80012 0.26992
 O1095 O 0.20375 0.79221 0.24603
 O1096 O 0.19761 0.77080 0.21568
 O1097 O 0.20826 0.74688 0.29579
 O1098 O 0.22816 0.71649 0.30039
 O1099 O 0.25750 0.73418 0.19065
 O1100 O 0.24493 0.76793 0.18602
 O1101 O 0.30839 0.74176 0.23336
 O1102 O 0.31165 0.75794 0.26517
 O1103 O 0.26589 0.69188 0.24099
 O1104 O 0.23042 0.68843 0.25520
 O1105 O 0.24591 0.70519 0.20805
 O1106 O 0.21448 0.69929 0.23047
 O1107 O 0.29505 0.70928 0.25224
 O1108 O 0.29736 0.73021 0.28552
 O1109 O 0.29086 0.75366 0.20445
 O1110 O 0.26685 0.78648 0.19975
 O1111 O 0.24195 0.76744 0.30831
 O1112 O 0.25894 0.73236 0.30971
 O1113 O 0.19057 0.75796 0.26662
 O1114 O 0.18744 0.74384 0.23148
 O1115 O 0.23273 0.80966 0.25784
 O1116 O 0.26647 0.81065 0.23903
 Zr1117 Zr 0.25614 0.78633 0.25945
 O1118 O 0.27597 0.76790 0.24051
 Zr1119 Zr 0.21363 0.76072 0.24299
 O1120 O 0.23168 0.74167 0.22288
 Zr1121 Zr 0.23944 0.74385 0.28519
 O1122 O 0.25831 0.72383 0.26687
 Zr1123 Zr 0.25934 0.75741 0.21406
 O1124 O 0.23982 0.77756 0.23199
 Zr1125 Zr 0.28480 0.74041 0.25636
 O1126 O 0.26693 0.76003 0.27643
 Zr1127 Zr 0.24236 0.71512 0.23936
 O1128 O 0.22236 0.73311 0.25892
 O1129 O 0.22937 0.77068 0.26964
 O1130 O 0.26957 0.73022 0.22915
 C1131 C 0.24764 0.78679 0.30753
 C1132 C 0.21344 0.80890 0.25195
 C1133 C 0.19145 0.75234 0.28600
 C1134 C 0.25173 0.71489 0.19138
 C1135 C 0.30757 0.74764 0.21408
 C1136 C 0.28528 0.69262 0.24651
 H1137 H 0.28844 0.77634 0.23667
 H1138 H 0.26246 0.71154 0.27545
 H1139 H 0.22039 0.77959 0.27867
 H1140 H 0.22308 0.73786 0.21052
 H1141 H 0.22999 0.76369 0.18671
 H1142 H 0.20689 0.78112 0.20868
 H1143 H 0.31143 0.72406 0.28286
 H1144 H 0.25180 0.73483 0.32335
 H1145 H 0.28086 0.79083 0.20489
 H1146 H 0.26451 0.82442 0.24603
 H1147 H 0.23831 0.68689 0.26851
 H1148 H 0.21860 0.70940 0.29038
 H1149 H 0.28173 0.81445 0.27525
 H1150 H 0.30705 0.76759 0.27645
 H1151 H 0.18725 0.73026 0.23906
 H1152 H 0.20832 0.70690 0.21839
 O1153 O 0.19111 0.74177 0.76601
 O1154 O 0.18943 0.75808 0.73185
 O1155 O 0.23394 0.69080 0.75775
 O1156 O 0.26882 0.68766 0.74433
 O1157 O 0.24236 0.73393 0.80939
 O1158 O 0.25717 0.76690 0.81223
 O1159 O 0.29148 0.74657 0.70395
 O1160 O 0.27186 0.71721 0.69689
 O1161 O 0.24744 0.79625 0.70926
 O1162 O 0.21628 0.79967 0.72743
 O1163 O 0.29611 0.79098 0.75254
 O1164 O 0.30258 0.76951 0.78393
 O1165 O 0.30884 0.75833 0.73295
 O1166 O 0.31203 0.74327 0.76927
 O1167 O 0.26708 0.80833 0.74082
 O1168 O 0.23248 0.80979 0.75975
 O1169 O 0.25943 0.76728 0.69200
 O1170 O 0.24050 0.73029 0.69104
 O1171 O 0.20845 0.75380 0.79497
 O1172 O 0.23030 0.78591 0.79830
 O1173 O 0.25458 0.70498 0.79216
 O1174 O 0.28495 0.69887 0.77034
 O1175 O 0.20472 0.70812 0.74633
 O1176 O 0.20282 0.72853 0.71378
 Zr1177 Zr 0.21479 0.73942 0.74300
 O1178 O 0.23301 0.75888 0.72338
 Zr1179 Zr 0.25720 0.71425 0.76046
 O1180 O 0.27703 0.73222 0.74103
 Zr1181 Zr 0.24010 0.75670 0.78555
 O1182 O 0.25957 0.77643 0.76748
 Zr1183 Zr 0.26043 0.74295 0.71455
 O1184 O 0.24140 0.72255 0.73268
 Zr1185 Zr 0.24347 0.78526 0.74008
 O1186 O 0.22317 0.76708 0.75911
 Zr1187 Zr 0.28596 0.75978 0.75681
 O1188 O 0.26784 0.74069 0.77711
 O1189 O 0.23023 0.72970 0.77014
 O1190 O 0.27056 0.76999 0.72985
 C1191 C 0.19174 0.74816 0.78514
 C1192 C 0.21467 0.69142 0.75171
 C1193 C 0.24884 0.71483 0.80883
 C1194 C 0.30806 0.75287 0.71356
 C1195 C 0.25397 0.78669 0.69277
 C1196 C 0.28651 0.80753 0.74616
 H1197 H 0.22458 0.76298 0.71097
 H1198 H 0.26351 0.78888 0.77589
 H1199 H 0.22129 0.72074 0.77917
 H1200 H 0.28933 0.72364 0.73697
 H1201 H 0.27933 0.70783 0.70677
 H1202 H 0.26156 0.68732 0.73057
 H1203 H 0.23404 0.82321 0.75198
 H1204 H 0.22326 0.78333 0.81197
 H1205 H 0.24437 0.73662 0.67735
 H1206 H 0.18887 0.72196 0.71601
 H1207 H 0.29454 0.78106 0.79050
 H1208 H 0.27137 0.76063 0.81117
 H1209 H 0.17615 0.75002 0.73319
 H1210 H 0.20433 0.79498 0.73621
 H1211 H 0.29196 0.70841 0.78043
 H1212 H 0.31472 0.73101 0.76012
 O1213 O 0.25403 0.20433 0.20937
 O1214 O 0.28580 0.20096 0.22990
 O1215 O 0.20505 0.20840 0.25452
 O1216 O 0.19908 0.22970 0.28497
 O1217 O 0.20882 0.25382 0.20483
 O1218 O 0.22848 0.28435 0.20011
 O1219 O 0.25909 0.26657 0.30954
 O1220 O 0.24673 0.23277 0.31424
 O1221 O 0.30953 0.25937 0.26635
 O1222 O 0.31255 0.24329 0.23444
 O1223 O 0.26665 0.30901 0.25933
 O1224 O 0.23105 0.31235 0.24538
 O1225 O 0.24711 0.29552 0.29233
 O1226 O 0.21537 0.30128 0.27019
 O1227 O 0.29581 0.29181 0.24778
 O1228 O 0.29789 0.27104 0.21435
 O1229 O 0.29238 0.24731 0.29539
 O1230 O 0.26858 0.21432 0.30022
 O1231 O 0.24248 0.23347 0.19198
 O1232 O 0.25926 0.26866 0.19049
 O1233 O 0.19147 0.24258 0.23413
 O1234 O 0.18862 0.25667 0.26934
 O1235 O 0.23402 0.19113 0.24242
 O1236 O 0.26796 0.19028 0.26095
 Zr1237 Zr 0.25728 0.21457 0.24067
 O1238 O 0.27721 0.23307 0.25946
 Zr1239 Zr 0.21478 0.23993 0.25756
 O1240 O 0.23293 0.25901 0.27756
 Zr1241 Zr 0.24008 0.25702 0.21516
 O1242 O 0.25901 0.27711 0.23335
 Zr1243 Zr 0.26078 0.24340 0.28607
 O1244 O 0.24118 0.22319 0.26829
 Zr1245 Zr 0.28569 0.26065 0.24358
 O1246 O 0.26774 0.24097 0.22364
 Zr1247 Zr 0.24327 0.28566 0.26103
 O1248 O 0.22319 0.26761 0.24160
 O1249 O 0.23033 0.23011 0.23075
 O1250 O 0.27068 0.27068 0.27094
 C1251 C 0.24826 0.21415 0.19270
 C1252 C 0.21478 0.19178 0.24847
 C1253 C 0.19214 0.24822 0.21474
 C1254 C 0.25320 0.28582 0.30891
 C1255 C 0.30895 0.25345 0.28563
 C1256 C 0.28601 0.30838 0.25369
 H1257 H 0.28977 0.22469 0.26315
 H1258 H 0.26300 0.28944 0.22478
 H1259 H 0.22131 0.22117 0.22179
 H1260 H 0.22444 0.26275 0.29000
 H1261 H 0.23175 0.23688 0.31367
 H1262 H 0.20850 0.21942 0.29188
 H1263 H 0.31194 0.27727 0.21691
 H1264 H 0.25201 0.26617 0.17691
 H1265 H 0.28261 0.21010 0.29500
 H1266 H 0.26599 0.17651 0.25395
 H1267 H 0.23880 0.31394 0.23200
 H1268 H 0.21899 0.29137 0.21023
 H1269 H 0.28287 0.18662 0.22459
 H1270 H 0.30788 0.23365 0.22317
 H1271 H 0.18825 0.27023 0.26174
 H1272 H 0.20942 0.29365 0.28235
 O1273 O 0.74475 0.70420 0.29157
 O1274 O 0.71305 0.70090 0.27090
 O1275 O 0.79387 0.70844 0.24657
 O1276 O 0.79993 0.72985 0.21619
 O1277 O 0.78991 0.75372 0.29636
 O1278 O 0.77019 0.78418 0.30110
 O1279 O 0.74005 0.76680 0.19150
 O1280 O 0.75244 0.73297 0.18681
 O1281 O 0.68943 0.75945 0.23449
 O1282 O 0.68630 0.74319 0.26633
 O1283 O 0.73220 0.80904 0.24182
 O1284 O 0.76776 0.81234 0.25592
 O1285 O 0.75191 0.79570 0.20885
 O1286 O 0.78353 0.80141 0.23113
 O1287 O 0.70303 0.79178 0.25324
 O1288 O 0.70085 0.77088 0.28658
 O1289 O 0.70671 0.74754 0.20548
 O1290 O 0.73047 0.71454 0.20064
 O1291 O 0.75622 0.73328 0.30906
 O1292 O 0.73939 0.76845 0.31057
 O1293 O 0.80736 0.74259 0.26709
 O1294 O 0.81034 0.75673 0.23193
 O1295 O 0.76487 0.69111 0.25852
 O1296 O 0.73100 0.69032 0.23990
 Zr1297 Zr 0.74160 0.71455 0.26027
 O1298 O 0.72174 0.73311 0.24144
 Zr1299 Zr 0.78413 0.73998 0.24358
 O1300 O 0.76605 0.75914 0.22358
 Zr1301 Zr 0.75868 0.75691 0.28594
 O1302 O 0.73980 0.77706 0.26773
 Zr1303 Zr 0.73826 0.74355 0.21492
 O1304 O 0.75779 0.72327 0.23272
 Zr1305 Zr 0.71317 0.76061 0.25737
 O1306 O 0.73106 0.74088 0.27733
 Zr1307 Zr 0.75562 0.78572 0.24014
 O1308 O 0.77565 0.76760 0.25958
 O1309 O 0.76851 0.73005 0.27032
 O1310 O 0.72827 0.77076 0.23008
 C1311 C 0.75045 0.71396 0.30828
 C1312 C 0.78413 0.69179 0.25253
 C1313 C 0.80663 0.74819 0.28647
 C1314 C 0.74593 0.78606 0.19221
 C1315 C 0.69010 0.75364 0.21520
 C1316 C 0.71282 0.80838 0.24740
 H1317 H 0.70919 0.72474 0.23767
 H1318 H 0.73576 0.78935 0.27632
 H1319 H 0.77751 0.72109 0.27929
 H1320 H 0.77460 0.76293 0.21118
 H1321 H 0.76739 0.73718 0.18739
 H1322 H 0.79054 0.71959 0.20923
 H1323 H 0.68678 0.77707 0.28398
 H1324 H 0.74659 0.76591 0.32417
 H1325 H 0.71644 0.71030 0.20583
 H1326 H 0.73295 0.67653 0.24688
 H1327 H 0.75993 0.81392 0.26924
 H1328 H 0.77967 0.79128 0.29102
 H1329 H 0.71597 0.68654 0.27621
 H1330 H 0.69092 0.73354 0.27763
 H1331 H 0.81065 0.77030 0.23952
 H1332 H 0.78955 0.79381 0.21899
 O1333 O 0.76610 0.18947 0.74132
 O1334 O 0.73194 0.18779 0.75761
 O1335 O 0.75789 0.23258 0.69056
 O1336 O 0.74448 0.26747 0.68762
 O1337 O 0.80960 0.24061 0.73373
 O1338 O 0.81254 0.25519 0.76679
 O1339 O 0.70424 0.28990 0.74664
 O1340 O 0.69706 0.27048 0.71724
 O1341 O 0.70954 0.24558 0.79615
 O1342 O 0.72766 0.21440 0.79941
 O1343 O 0.75290 0.29414 0.79113
 O1344 O 0.78429 0.30064 0.76968
 O1345 O 0.73331 0.30711 0.75848
 O1346 O 0.76965 0.31026 0.74349
 O1347 O 0.74117 0.26507 0.80835
 O1348 O 0.76005 0.23042 0.80958
 O1349 O 0.69225 0.25778 0.76725
 O1350 O 0.69118 0.23909 0.73014
 O1351 O 0.79513 0.20664 0.75344
 O1352 O 0.79856 0.22828 0.78567
 O1353 O 0.79234 0.25303 0.70486
 O1354 O 0.77055 0.28346 0.69891
 O1355 O 0.74641 0.20331 0.70772
 O1356 O 0.71384 0.20141 0.72814
 Zr1357 Zr 0.74313 0.21321 0.73909
 O1358 O 0.72358 0.23136 0.75868
 Zr1359 Zr 0.76064 0.25567 0.71415
 O1360 O 0.74128 0.27544 0.73225
 Zr1361 Zr 0.78578 0.23828 0.75651
 O1362 O 0.76778 0.25767 0.77637
 Zr1363 Zr 0.71477 0.25886 0.74290
 O1364 O 0.73282 0.23991 0.72237
 Zr1365 Zr 0.74034 0.24162 0.78512
 O1366 O 0.75930 0.22138 0.76681
 Zr1367 Zr 0.75712 0.28416 0.75986
 O1368 O 0.77737 0.26610 0.74065
 O1369 O 0.77030 0.22861 0.72945
 O1370 O 0.73013 0.26880 0.77000
 C1371 C 0.78524 0.19001 0.74771
 C1372 C 0.75181 0.21334 0.69107
 C1373 C 0.80902 0.24720 0.71467
 C1374 C 0.71390 0.30641 0.75298
 C1375 C 0.69303 0.25220 0.78663
 C1376 C 0.74654 0.28447 0.80765
 H1377 H 0.71114 0.22294 0.76275
 H1378 H 0.77622 0.26151 0.78884
 H1379 H 0.77931 0.21971 0.72044
 H1380 H 0.73723 0.28777 0.72373
 H1381 H 0.70696 0.27787 0.70783
 H1382 H 0.73072 0.26022 0.68721
 H1383 H 0.75232 0.23194 0.82302
 H1384 H 0.81222 0.22122 0.78305
 H1385 H 0.67751 0.24293 0.73652
 H1386 H 0.71604 0.18751 0.72147
 H1387 H 0.79087 0.29252 0.78119
 H1388 H 0.81147 0.26942 0.76063
 H1389 H 0.73323 0.17458 0.74947
 H1390 H 0.73639 0.20246 0.79461
 H1391 H 0.78068 0.29037 0.70847
 H1392 H 0.76051 0.31301 0.73121
 C1393 C 0.08776 1.02023 1.11742
 C1394 C 0.07810 1.02998 1.13750
 C1395 C 0.08692 1.01157 1.15038
 C1396 C 0.09676 1.00183 1.13062
 C1397 C 0.06745 1.00761 1.11414
 C1398 C 0.07625 0.98918 1.12701
 C1399 C 0.05763 1.01734 1.13392
 C1400 C 0.06660 0.99896 1.14710
 C1401 C 0.09749 1.01416 1.17066
 C1402 C 0.10595 1.01675 1.18741
 C1403 C 0.05629 1.00571 1.09410
 C1404 C 0.04680 1.00442 1.07777
 H1405 H 0.09634 1.02895 1.10499
 H1406 H 0.07897 1.04679 1.14203
 H1407 H 0.11297 0.99548 1.12950
 H1408 H 0.07537 0.97237 1.12246
 H1409 H 0.04143 1.02371 1.13507
 H1410 H 0.05802 0.99023 1.15953
 C1411 C 0.58503 0.52448 0.61936
 C1412 C 0.57404 0.52787 0.64079
 C1413 C 0.58832 0.51099 0.65050
 C1414 C 0.59949 0.50763 0.62937
 C1415 C 0.56895 0.50726 0.61418
 C1416 C 0.58322 0.49035 0.62386
 C1417 C 0.55780 0.51062 0.63531
 C1418 C 0.57223 0.49376 0.64532
 C1419 C 0.59881 0.51348 0.67084
 C1420 C 0.60717 0.51599 0.68764
 C1421 C 0.55781 0.50549 0.59411
 C1422 C 0.54828 0.50433 0.57778
 H1423 H 0.59018 0.53709 0.60847
 H1424 H 0.57037 0.54333 0.64797
 H1425 H 0.61676 0.50642 0.62717
 H1426 H 0.58687 0.47491 0.61665
 H1427 H 0.54054 0.51184 0.63754
 H1428 H 0.56709 0.48116 0.65622
 C1429 C 0.41537 -0.02106 0.61592
 C1430 C 0.42602 -0.02692 0.63699
 C1431 C 0.41342 -0.00947 0.64789
 C1432 C 0.40258 -0.00364 0.62711
 C1433 C 0.43300 -0.00511 0.61178
 C1434 C 0.42040 0.01237 0.62265
 C1435 C 0.44381 -0.01094 0.63257
 C1436 C 0.43105 0.00648 0.64377
 C1437 C 0.40277 -0.01240 0.66806
 C1438 C 0.39427 -0.01533 0.68471
 C1439 C 0.44417 -0.00318 0.59177
 C1440 C 0.45362 -0.00211 0.57541
 H1441 H 0.40904 -0.03236 0.60424
 H1442 H 0.42822 -0.04310 0.64310
 H1443 H 0.38550 -0.00067 0.62511
 H1444 H 0.41822 0.02854 0.61651
 H1445 H 0.46089 -0.01393 0.63459
 H1446 H 0.43737 0.01777 0.65545
 C1447 C -0.07049 0.47383 1.12536
 C1448 C -0.06385 0.48477 1.14602
 C1449 C -0.08694 0.49059 1.15001
 C1450 C -0.09374 0.47961 1.12962
 C1451 C -0.06772 0.49477 1.11368
 C1452 C -0.09081 0.50059 1.11763
 C1453 C -0.06091 0.50575 1.13407
 C1454 C -0.08419 0.51155 1.13836
 C1455 C -0.09740 0.48773 1.17029
 C1456 C -0.10579 0.48481 1.18701
 C1457 C -0.05671 0.49659 1.09357
 C1458 C -0.04735 0.49760 1.07716
 H1459 H -0.06475 0.45834 1.11980
 H1460 H -0.05288 0.47824 1.15792
 H1461 H -0.10736 0.46883 1.12803
 H1462 H -0.10177 0.50712 1.10572
 H1463 H -0.04729 0.51653 1.13566
 H1464 H -0.08994 0.52703 1.14396
 C1465 C -0.08067 0.52718 0.37902
 C1466 C -0.07038 0.52337 0.35732
 C1467 C -0.08981 0.51072 0.35062
 C1468 C -0.10028 0.51456 0.37203
 C1469 C -0.07067 0.50673 0.38703
 C1470 C -0.09011 0.49405 0.38037
 C1471 C -0.06022 0.50289 0.36562
 C1472 C -0.07982 0.49026 0.35862
 C1473 C -0.10014 0.51336 0.33023
 C1474 C -0.10835 0.51602 0.31337
 C1475 C -0.05961 0.50480 0.40713
 C1476 C -0.05009 0.50346 0.42344
 H1477 H -0.08090 0.54234 0.38762
 H1478 H -0.06237 0.53545 0.34762
 H1479 H -0.11688 0.51938 0.37442
 H1480 H -0.09809 0.48198 0.39010
 H1481 H -0.04362 0.49808 0.36320
 H1482 H -0.07959 0.47511 0.35000
 C1483 C 0.42342 1.02686 -0.12491
 C1484 C 0.43259 1.02012 -0.14639
 C1485 C 0.41143 1.00988 -0.15189
 C1486 C 0.40209 1.01666 -0.13070
 C1487 C 0.43066 1.00583 -0.11553
 C1488 C 0.40950 0.99557 -0.12100
 C1489 C 0.43999 0.99906 -0.13673
 C1490 C 0.41866 0.98884 -0.14254
 C1491 C 0.40101 1.01266 -0.17222
 C1492 C 0.39271 1.01549 -0.18900
 C1493 C 0.44169 1.00406 -0.09542
 C1494 C 0.45110 1.00307 -0.07902
 H1495 H 0.42549 1.04248 -0.11745
 H1496 H 0.44197 1.03025 -0.15705
 H1497 H 0.38639 1.02392 -0.12845
 H1498 H 0.40013 0.98546 -0.11031
 H1499 H 0.45569 0.99181 -0.13899
 H1500 H 0.41658 0.97324 -0.15003
 C1501 C 0.58938 0.48045 -0.11522
 C1502 C 0.58024 0.46943 -0.13489
 C1503 C 0.58765 0.48799 -0.14843
 C1504 C 0.59697 0.49899 -0.12907
 C1505 C 0.56827 0.49174 -0.11213
 C1506 C 0.57566 0.51032 -0.12565
 C1507 C 0.55898 0.48074 -0.13150
 C1508 C 0.56653 0.49927 -0.14533
 C1509 C 0.59816 0.48548 -0.16873
 C1510 C 0.60656 0.48293 -0.18550
 C1511 C 0.55714 0.49355 -0.09208
 C1512 C 0.54764 0.49479 -0.07576
 H1513 H 0.59865 0.47273 -0.10261
 H1514 H 0.58224 0.45258 -0.13891
 H1515 H 0.61271 0.50647 -0.12832
 H1516 H 0.57365 0.52716 -0.12162
 H1517 H 0.54324 0.47325 -0.13229
 H1518 H 0.55725 0.50699 -0.15794
 C1519 C 0.05988 0.00312 0.36599
 C1520 C 0.08250 0.01072 0.36108
 C1521 C 0.08700 -0.01045 0.35043
 C1522 C 0.06456 -0.01808 0.35503
 C1523 C 0.06784 -0.00622 0.38679
 C1524 C 0.07236 -0.02737 0.37611
 C1525 C 0.09028 0.00142 0.38223
 C1526 C 0.09496 -0.01979 0.37123
 C1527 C 0.09739 -0.01325 0.33010
 C1528 C 0.10569 -0.01602 0.31331
 C1529 C 0.05684 -0.00432 0.40690
 C1530 C 0.04745 -0.00322 0.42330
 H1531 H 0.04534 0.01256 0.36406
 H1532 H 0.08679 0.02636 0.35466
 H1533 H 0.05409 -0.02612 0.34363
 H1534 H 0.06807 -0.04302 0.38250
 H1535 H 0.10073 0.00946 0.39365
 H1536 H 0.10950 -0.02924 0.37316
 C1537 C 0.11609 1.09157 1.00245
 C1538 C 0.12802 1.09487 1.02344
 C1539 C 0.14842 1.08773 1.01268
 C1540 C 0.13684 1.08460 0.99173
 C1541 C 0.11197 1.06864 1.00876
 C1542 C 0.13238 1.06151 0.99800
 C1543 C 0.12358 1.07178 1.02969
 C1544 C 0.14427 1.06481 1.01897
 C1545 C 0.16883 1.09805 1.01524
 C1546 C 0.18570 1.10627 1.01779
 C1547 C 0.09186 1.05763 1.00685
 C1548 C 0.07552 1.04816 1.00552
 H1549 H 0.10427 1.10244 0.99565
 H1550 H 0.12646 1.10870 1.03392
 H1551 H 0.14253 1.08999 0.97615
 H1552 H 0.13395 1.04767 0.98752
 H1553 H 0.11791 1.06640 1.04528
 H1554 H 0.15607 1.05391 1.02579
 C1555 C 0.62237 0.57660 0.53009
 C1556 C 0.64378 0.56736 0.52317
 C1557 C 0.64931 0.58851 0.51295
 C1558 C 0.62819 0.59792 0.51991
 C1559 C 0.61281 0.56951 0.50909
 C1560 C 0.61831 0.59066 0.49886
 C1561 C 0.63394 0.56011 0.50214
 C1562 C 0.63977 0.58142 0.49194
 C1563 C 0.66976 0.59876 0.51546
 C1564 C 0.68668 0.60689 0.51793
 C1565 C 0.59269 0.55852 0.50720
 C1566 C 0.57635 0.54905 0.50588
 H1567 H 0.61499 0.57450 0.54575
 H1568 H 0.65447 0.55788 0.53318
 H1569 H 0.62607 0.61359 0.52724
 H1570 H 0.60759 0.60012 0.48885
 H1571 H 0.63608 0.54444 0.49482
 H1572 H 0.64716 0.58352 0.47629
 C1573 C 0.62577 0.42931 -0.02704
 C1574 C 0.64622 0.43509 -0.01521
 C1575 C 0.64978 0.41171 -0.01043
 C1576 C 0.62960 0.40577 -0.02230
 C1577 C 0.61355 0.43121 -0.00631
 C1578 C 0.61707 0.40782 -0.00152
 C1579 C 0.63373 0.43716 0.00556
 C1580 C 0.63759 0.41359 0.01032
 C1581 C 0.67003 0.40111 -0.01318
 C1582 C 0.68674 0.39263 -0.01596
 C1583 C 0.59351 0.44238 -0.00437
 C1584 C 0.57718 0.45188 -0.00308
 H1585 H 0.62069 0.43589 -0.04238
 H1586 H 0.65843 0.44620 -0.02086
 H1587 H 0.62813 0.39274 -0.03379
 H1588 H 0.60486 0.39673 0.00412
 H1589 H 0.63520 0.45019 0.01704
 H1590 H 0.64269 0.40700 0.02565
 C1591 C 0.12626 -0.07045 0.47447
 C1592 C 0.14687 -0.06431 0.48584
 C1593 C 0.15066 -0.08758 0.49098
 C1594 C 0.13033 -0.09388 0.47957
 C1595 C 0.11439 -0.06825 0.49537
 C1596 C 0.11815 -0.09152 0.50052
 C1597 C 0.13471 -0.06194 0.50678
 C1598 C 0.13882 -0.08540 0.51190
 C1599 C 0.17095 -0.09806 0.48805
 C1600 C 0.18769 -0.10642 0.48513
 C1601 C 0.09430 -0.05717 0.49731
 C1602 C 0.07791 -0.04775 0.49840
 H1603 H 0.12088 -0.06419 0.45910
 H1604 H 0.15889 -0.05323 0.47977
 H1605 H 0.12875 -0.10712 0.46835
 H1606 H 0.10610 -0.10258 0.50658
 H1607 H 0.13629 -0.04869 0.51799
 H1608 H 0.14422 -0.09166 0.52726
 C1609 C 0.36580 -0.05857 0.49835
 C1610 C 0.35984 -0.07978 0.48800
 C1611 C 0.35113 -0.08734 0.50921
 C1612 C 0.35679 -0.06630 0.51957
 C1613 C 0.38726 -0.06785 0.50441
 C1614 C 0.37853 -0.07542 0.52560
 C1615 C 0.38164 -0.08889 0.49403
 C1616 C 0.37259 -0.09663 0.51528
 C1617 C 0.33094 -0.09791 0.51236
 C1618 C 0.31426 -0.10633 0.51544
 C1619 C 0.40727 -0.05670 0.50225
 C1620 C 0.42361 -0.04722 0.50099
 H1621 H 0.36324 -0.04280 0.49136
 H1622 H 0.35192 -0.08169 0.47258
 H1623 H 0.34636 -0.05713 0.53011
 H1624 H 0.38642 -0.07352 0.54104
 H1625 H 0.39210 -0.09805 0.48350
 H1626 H 0.37515 -0.11239 0.52227
 C1627 C -0.13523 0.44173 0.99888
 C1628 C -0.14116 0.42075 0.98806
 C1629 C -0.15003 0.41277 1.00904
 C1630 C -0.14441 0.43358 1.01988
 C1631 C -0.11383 0.43229 1.00491
 C1632 C -0.12274 0.42431 1.02588
 C1633 C -0.11941 0.41148 0.99406
 C1634 C -0.12864 0.40333 1.01508
 C1635 C -0.17026 0.40214 1.01187
 C1636 C -0.18693 0.39362 1.01474
 C1637 C -0.09377 0.44344 1.00310
 C1638 C -0.07739 0.45289 1.00210
 H1639 H -0.13772 0.45765 0.99220
 H1640 H -0.14897 0.41916 0.97255
 H1641 H -0.15491 0.44256 1.03053
 H1642 H -0.11495 0.42588 1.04141
 H1643 H -0.10890 0.40252 0.98342
 H1644 H -0.12615 0.38742 1.02177
 C1645 C -0.12802 0.56743 0.47173
 C1646 C -0.14787 0.56284 0.48502
 C1647 C -0.15089 0.58657 0.48821
 C1648 C -0.13133 0.59131 0.47488
 C1649 C -0.11473 0.56687 0.49188
 C1650 C -0.11771 0.59060 0.49506
 C1651 C -0.13429 0.56212 0.50521
 C1652 C -0.13761 0.58603 0.50836
 C1653 C -0.17112 0.59727 0.48579
 C1654 C -0.18785 0.60584 0.48338
 C1655 C -0.09473 0.55561 0.49366
 C1656 C -0.07843 0.54605 0.49490
 H1657 H -0.12386 0.55966 0.45669
 H1658 H -0.16049 0.55154 0.48087
 H1659 H -0.13034 0.60344 0.46238
 H1660 H -0.10508 0.60188 0.49921
 H1661 H -0.13528 0.54999 0.51770
 H1662 H -0.14179 0.59380 0.52340
 C1663 C 0.37096 1.06801 -0.02701
 C1664 C 0.35118 1.06310 -0.01374
 C1665 C 0.34778 1.08677 -0.01056
 C1666 C 0.36727 1.09183 -0.02387
 C1667 C 0.38425 1.06767 -0.00685
 C1668 C 0.38088 1.09135 -0.00367
 C1669 C 0.36476 1.06260 0.00646
 C1670 C 0.36104 1.08645 0.00961
 C1671 C 0.32739 1.09714 -0.01312
 C1672 C 0.31058 1.10546 -0.01574
 C1673 C 0.40443 1.05671 -0.00523
 C1674 C 0.42087 1.04736 -0.00434
 H1675 H 0.37526 1.06032 -0.04205
 H1676 H 0.33876 1.05159 -0.01791
 H1677 H 0.36808 1.10397 -0.03637
 H1678 H 0.39332 1.10283 0.00049
 H1679 H 0.36396 1.05045 0.01895
 H1680 H 0.35671 1.09415 0.02464
 C1681 C 0.02723 1.12740 1.06686
 C1682 C 0.01293 1.14675 1.06333
 C1683 C 0.01172 1.14987 1.08723
 C1684 C 0.02607 1.13080 1.09092
 C1685 C 0.00756 1.11347 1.06816
 C1686 C 0.00635 1.11655 1.09206
 C1687 C -0.00679 1.13253 1.06446
 C1688 C -0.00796 1.13596 1.08854
 C1689 C 0.01442 1.17024 1.09756
 C1690 C 0.01707 1.18707 1.10580
 C1691 C 0.00553 1.09335 1.05719
 C1692 C 0.00414 1.07699 1.04779
 H1693 H 0.04168 1.12366 1.05784
 H1694 H 0.01565 1.15939 1.05162
 H1695 H 0.03961 1.13031 1.10192
 H1696 H 0.00363 1.10390 1.10376
 H1697 H -0.02032 1.13302 1.05346
 H1698 H -0.02240 1.13972 1.09757
 C1699 C 0.52773 0.62747 0.56854
 C1700 C 0.51338 0.64678 0.56497
 C1701 C 0.51196 0.64978 0.58887
 C1702 C 0.52636 0.63076 0.59260
 C1703 C 0.50811 0.61345 0.56961
 C1704 C 0.50669 0.61643 0.59352
 C1705 C 0.49372 0.63247 0.56588
 C1706 C 0.49232 0.63579 0.58996
 C1707 C 0.51450 0.67013 0.59928
 C1708 C 0.51706 0.68695 0.60755
 C1709 C 0.50626 0.59340 0.55851
 C1710 C 0.50498 0.57712 0.54897
 H1711 H 0.54228 0.62384 0.55962
 H1712 H 0.51614 0.65948 0.55334
 H1713 H 0.53981 0.63029 0.60371
 H1714 H 0.50393 0.60371 0.60513
 H1715 H 0.48027 0.63295 0.55476
 H1716 H 0.47779 0.63945 0.59889
 C1717 C -0.02928 0.62450 0.42955
 C1718 C -0.01739 0.64477 0.43576
 C1719 C -0.01230 0.64860 0.41248
 C1720 C -0.02423 0.62861 0.40611
 C1721 C -0.00864 0.61213 0.43155
 C1722 C -0.00354 0.61592 0.40827
 C1723 C 0.00329 0.63212 0.43792
 C1724 C 0.00836 0.63625 0.41447
 C1725 C -0.01476 0.66900 0.40216
 C1726 C -0.01728 0.68586 0.39392
 C1727 C -0.00690 0.59199 0.44252
 C1728 C -0.00574 0.57560 0.45192
 H1729 H -0.04474 0.61944 0.43586
 H1730 H -0.02310 0.65685 0.44696
 H1731 H -0.03558 0.62740 0.39291
 H1732 H 0.00216 0.60382 0.39709
 H1733 H 0.01463 0.63333 0.45113
 H1734 H 0.02380 0.64133 0.40815
 C1735 C 0.51203 1.12721 -0.07840
 C1736 C 0.49866 1.13137 -0.09836
 C1737 C 0.48977 1.15124 -0.08794
 C1738 C 0.50310 1.14741 -0.06817
 C1739 C 0.49363 1.11469 -0.06904
 C1740 C 0.48475 1.13458 -0.05866
 C1741 C 0.48031 1.11852 -0.08881
 C1742 C 0.47140 1.13869 -0.07857
 C1743 C 0.48712 1.17166 -0.09820
 C1744 C 0.48440 1.18852 -0.10639
 C1745 C 0.49531 1.09447 -0.05819
 C1746 C 0.49623 1.07800 -0.04891
 H1747 H 0.52876 1.12224 -0.07821
 H1748 H 0.50435 1.13029 -0.11481
 H1749 H 0.51244 1.15952 -0.05980
 H1750 H 0.47904 1.13568 -0.04222
 H1751 H 0.47095 1.10641 -0.09718
 H1752 H 0.45466 1.14363 -0.07875
 C1753 C 0.49118 0.36968 -0.06782
 C1754 C 0.49462 0.36682 -0.09176
 C1755 C 0.51188 0.35061 -0.08703
 C1756 C 0.50848 0.35316 -0.06327
 C1757 C 0.50807 0.38692 -0.06774
 C1758 C 0.52532 0.37070 -0.06304
 C1759 C 0.51148 0.38440 -0.09150
 C1760 C 0.52876 0.36786 -0.08694
 C1761 C 0.51443 0.33029 -0.09748
 C1762 C 0.51705 0.31352 -0.10584
 C1763 C 0.50624 0.40698 -0.05665
 C1764 C 0.50497 0.42329 -0.04716
 H1765 H 0.47571 0.37066 -0.05983
 H1766 H 0.48202 0.36497 -0.10368
 H1767 H 0.50727 0.34009 -0.05178
 H1768 H 0.53794 0.37251 -0.05112
 H1769 H 0.51270 0.39748 -0.10297
 H1770 H 0.54424 0.36689 -0.09492
 C1771 C 0.00357 -0.13544 0.44374
 C1772 C -0.01011 -0.14299 0.42507
 C1773 C 0.00994 -0.15018 0.41371
 C1774 C 0.02363 -0.14293 0.43222
 C1775 C 0.00581 -0.11392 0.43304
 C1776 C 0.02584 -0.12114 0.42167
 C1777 C -0.00791 -0.12113 0.41453
 C1778 C 0.01218 -0.12867 0.40299
 C1779 C 0.01269 -0.17045 0.40321
 C1780 C 0.01542 -0.18719 0.39483
 C1781 C 0.00397 -0.09385 0.44412
 C1782 C 0.00295 -0.07749 0.45354
 H1783 H 0.00001 -0.13800 0.46062
 H1784 H -0.02486 -0.15221 0.42634
 H1785 H 0.03663 -0.15211 0.43938
 H1786 H 0.04060 -0.11193 0.42039
 H1787 H -0.02090 -0.11193 0.40739
 H1788 H 0.01575 -0.12612 0.38611
 C1789 C 0.49516 -0.13501 0.55537
 C1790 C 0.51003 -0.14328 0.57280
 C1791 C 0.49072 -0.14939 0.58594
 C1792 C 0.47583 -0.14142 0.56868
 C1793 C 0.49502 -0.11341 0.56610
 C1794 C 0.47573 -0.11954 0.57925
 C1795 C 0.50993 -0.12134 0.58336
 C1796 C 0.49058 -0.12780 0.59669
 C1797 C 0.48786 -0.16951 0.59673
 C1798 C 0.48503 -0.18611 0.60537
 C1799 C 0.49694 -0.09347 0.55479
 C1800 C 0.49804 -0.07718 0.54521
 H1801 H 0.49706 -0.13776 0.53826
 H1802 H 0.52410 -0.15328 0.57027
 H1803 H 0.46178 -0.14989 0.56275
 H1804 H 0.46164 -0.10956 0.58178
 H1805 H 0.52398 -0.11285 0.58927
 H1806 H 0.48867 -0.12506 0.61380
 C1807 C -0.00551 0.36441 1.05531
 C1808 C 0.00960 0.35576 1.07235
 C1809 C -0.00953 0.34933 1.08559
 C1810 C -0.02465 0.35768 1.06871
 C1811 C -0.00552 0.38577 1.06653
 C1812 C -0.02464 0.37931 1.07978
 C1813 C 0.00962 0.37746 1.08341
 C1814 C -0.00955 0.37067 1.09684
 C1815 C -0.01229 0.32898 1.09595
 C1816 C -0.01514 0.31221 1.10426
 C1817 C -0.00378 0.40594 1.05561
 C1818 C -0.00281 0.42239 1.04631
 H1819 H -0.00383 0.36206 1.03811
 H1820 H 0.02364 0.34584 1.06941
 H1821 H -0.03877 0.34933 1.06277
 H1822 H -0.03870 0.38921 1.08273
 H1823 H 0.02373 0.38583 1.08933
 H1824 H -0.01124 0.37301 1.11403
 C1825 C 0.74093 0.33130 0.12537
 C1826 C 0.75758 0.34829 0.12011
 C1827 C 0.76178 0.33727 0.09906
 C1828 C 0.74517 0.32046 0.10398
 C1829 C 0.75829 0.31779 0.13535
 C1830 C 0.76249 0.30680 0.11428
 C1831 C 0.77490 0.33460 0.13042
 C1832 C 0.77912 0.32376 0.10906
 C1833 C 0.76413 0.34784 0.07874
 C1834 C 0.76654 0.35629 0.06196
 C1835 C 0.75663 0.30661 0.15540
 C1836 C 0.75548 0.29705 0.17171
 H1837 H 0.72521 0.33427 0.13231
 H1838 H 0.75558 0.36547 0.12228
 H1839 H 0.73297 0.31477 0.09289
 H1840 H 0.76451 0.28962 0.11209
 H1841 H 0.78711 0.34029 0.14151
 H1842 H 0.79485 0.32077 0.10214
 C1843 C 0.24217 0.83364 0.62755
 C1844 C 0.25971 0.84964 0.62209
 C1845 C 0.26300 0.83842 0.60098
 C1846 C 0.24551 0.82260 0.60611
 C1847 C 0.25885 0.81915 0.63730
 C1848 C 0.26214 0.80795 0.61618
 C1849 C 0.27634 0.83497 0.63217
 C1850 C 0.27966 0.82393 0.61076
 C1851 C 0.26566 0.84884 0.58063
 C1852 C 0.26825 0.85714 0.56381
 C1853 C 0.25681 0.80804 0.65735
 C1854 C 0.25539 0.79850 0.67364
 H1855 H 0.22674 0.83751 0.63469
 H1856 H 0.25874 0.86691 0.62428
 H1857 H 0.23286 0.81763 0.59516
 H1858 H 0.26313 0.79069 0.61396
 H1859 H 0.28899 0.83993 0.64311
 H1860 H 0.29510 0.82004 0.60363
 C1861 C 0.75320 0.65863 0.63381
 C1862 C 0.73201 0.65442 0.62255
 C1863 C 0.74182 0.66200 0.60183
 C1864 C 0.76298 0.66604 0.61275
 C1865 C 0.74605 0.68127 0.63812
 C1866 C 0.75585 0.68885 0.61741
 C1867 C 0.72491 0.67721 0.62717
 C1868 C 0.73467 0.68463 0.60619
 C1869 C 0.73889 0.65157 0.58155
 C1870 C 0.73586 0.64325 0.56482
 C1871 C 0.74787 0.69234 0.65820
 C1872 C 0.74885 0.70181 0.67455
 H1873 H 0.76084 0.64807 0.64541
 H1874 H 0.72217 0.64015 0.62443
 H1875 H 0.77859 0.66132 0.60658
 H1876 H 0.76568 0.70313 0.61553
 H1877 H 0.70927 0.68192 0.63332
 H1878 H 0.72703 0.69522 0.59461
 C1879 C 0.22903 0.18863 0.11971
 C1880 C 0.24669 0.18497 0.10339
 C1881 C 0.23950 0.16205 0.10121
 C1882 C 0.22181 0.16556 0.11725
 C1883 C 0.24418 0.18173 0.13722
 C1884 C 0.23699 0.15881 0.13505
 C1885 C 0.26189 0.17824 0.12120
 C1886 C 0.25466 0.15511 0.11869
 C1887 C 0.23640 0.15136 0.08109
 C1888 C 0.23335 0.14284 0.06448
 C1889 C 0.24627 0.19298 0.15716
 C1890 C 0.24747 0.20251 0.17345
 H1891 H 0.21852 0.20253 0.12035
 H1892 H 0.25064 0.19561 0.09015
 H1893 H 0.20530 0.16023 0.11541
 H1894 H 0.23303 0.14818 0.14830
 H1895 H 0.27839 0.18358 0.12306
 H1896 H 0.26516 0.14121 0.11803
 C1897 C 0.26131 0.15856 0.86664
 C1898 C 0.27621 0.16516 0.88472
 C1899 C 0.25818 0.16181 0.90043
 C1900 C 0.24330 0.15504 0.88266
 C1901 C 0.25438 0.18156 0.86433
 C1902 C 0.23634 0.17823 0.88001
 C1903 C 0.26925 0.18831 0.88211
 C1904 C 0.25126 0.18481 0.89810
 C1905 C 0.26083 0.15108 0.92060
 C1906 C 0.26358 0.14251 0.93726
 C1907 C 0.25274 0.19283 0.84434
 C1908 C 0.25186 0.20237 0.82801
 H1909 H 0.26543 0.14790 0.85348
 H1910 H 0.29263 0.15967 0.88688
 H1911 H 0.23266 0.14123 0.88313
 H1912 H 0.21992 0.18374 0.87783
 H1913 H 0.27991 0.20210 0.88167
 H1914 H 0.24715 0.19548 0.91126
 C1915 C 0.76143 0.65873 0.36627
 C1916 C 0.77650 0.66560 0.38411
 C1917 C 0.75872 0.66218 0.40008
 C1918 C 0.74368 0.65513 0.38256
 C1919 C 0.75424 0.68164 0.36390
 C1920 C 0.73644 0.67824 0.37984
 C1921 C 0.76927 0.68865 0.38144
 C1922 C 0.75153 0.68509 0.39769
 C1923 C 0.76174 0.65161 0.42029
 C1924 C 0.76476 0.64317 0.43697
 C1925 C 0.75225 0.69280 0.34387
 C1926 C 0.75115 0.70229 0.32753
 H1927 H 0.76548 0.64802 0.35313
 H1928 H 0.79301 0.66029 0.38608
 H1929 H 0.73318 0.64122 0.38326
 H1930 H 0.71994 0.68356 0.37785
 H1931 H 0.77978 0.70255 0.38077
 H1932 H 0.74749 0.69581 0.41083
 C1933 C 0.22776 0.81336 0.37993
 C1934 C 0.24496 0.81445 0.39711
 C1935 C 0.24045 0.83801 0.39969
 C1936 C 0.22322 0.83707 0.38280
 C1937 C 0.24439 0.81883 0.36332
 C1938 C 0.23988 0.84239 0.36588
 C1939 C 0.26164 0.81976 0.38019
 C1940 C 0.25710 0.84352 0.38310
 C1941 C 0.23780 0.84841 0.42004
 C1942 C 0.23514 0.85671 0.43684
 C1943 C 0.24612 0.80781 0.34320
 C1944 C 0.24707 0.79840 0.32681
 H1945 H 0.21570 0.80085 0.37842
 H1946 H 0.24701 0.80307 0.41017
 H1947 H 0.20739 0.84429 0.38409
 H1948 H 0.23782 0.85376 0.35281
 H1949 H 0.27746 0.81253 0.37889
 H1950 H 0.26914 0.85604 0.38464
 C1951 C 0.72513 0.31171 0.87968
 C1952 C 0.74221 0.31268 0.89699
 C1953 C 0.73802 0.33632 0.89939
 C1954 C 0.72090 0.33551 0.88237
 C1955 C 0.74197 0.31685 0.86317
 C1956 C 0.73778 0.34050 0.86555
 C1957 C 0.75909 0.31766 0.88018
 C1958 C 0.75487 0.34148 0.88290
 C1959 C 0.73544 0.34690 0.91966
 C1960 C 0.73287 0.35537 0.93639
 C1961 C 0.74389 0.30570 0.84314
 C1962 C 0.74522 0.29619 0.82683
 H1963 H 0.71291 0.29936 0.87814
 H1964 H 0.74401 0.30135 0.91013
 H1965 H 0.70517 0.34296 0.88349
 H1966 H 0.73597 0.35181 0.85240
 H1967 H 0.77482 0.31019 0.87905
 H1968 H 0.76707 0.35384 0.88446
 C1969 C 0.81129 0.38112 0.22935
 C1970 C 0.81678 0.39576 0.24797
 C1971 C 0.83885 0.39884 0.23869
 C1972 C 0.83350 0.38448 0.22004
 C1973 C 0.81975 0.36236 0.24198
 C1974 C 0.84182 0.36542 0.23269
 C1975 C 0.82508 0.37670 0.26064
 C1976 C 0.84734 0.38010 0.25132
 C1977 C 0.84917 0.41926 0.23640
 C1978 C 0.85738 0.43614 0.23400
 C1979 C 0.80873 0.34223 0.24351
 C1980 C 0.79927 0.32588 0.24453
 H1981 H 0.79636 0.38132 0.22033
 H1982 H 0.80660 0.40846 0.25424
 H1983 H 0.83708 0.38791 0.20332
 H1984 H 0.85198 0.35272 0.22642
 H1985 H 0.82149 0.37326 0.27736
 H1986 H 0.86228 0.37993 0.26034
 C1987 C 0.31060 0.88146 0.72831
 C1988 C 0.31626 0.89647 0.74657
 C1989 C 0.33831 0.89920 0.73713
 C1990 C 0.33280 0.88448 0.71883
 C1991 C 0.31900 0.86293 0.74131
 C1992 C 0.34104 0.86565 0.73186
 C1993 C 0.32450 0.87764 0.75963
 C1994 C 0.34673 0.88070 0.75014
 C1995 C 0.34874 0.91952 0.73444
 C1996 C 0.35705 0.93632 0.73181
 C1997 C 0.30787 0.84291 0.74336
 C1998 C 0.29832 0.82664 0.74477
 H1999 H 0.29563 0.88155 0.71934
 H2000 H 0.30619 0.90937 0.75260
 H2001 H 0.33632 0.88751 0.70202
 H2002 H 0.35110 0.85274 0.72584
 H2003 H 0.32096 0.87460 0.77643
 H2004 H 0.36171 0.88063 0.75909
 C2005 C 0.18941 0.88554 0.24763
 C2006 C 0.16734 0.89068 0.23867
 C2007 C 0.16135 0.90054 0.25986
 C2008 C 0.18325 0.89571 0.26884
 C2009 C 0.18095 0.86441 0.25565
 C2010 C 0.17495 0.87430 0.27683
 C2011 C 0.15905 0.86921 0.24666
 C2012 C 0.15289 0.87942 0.26789
 C2013 C 0.15074 0.92076 0.26269
 C2014 C 0.14228 0.93745 0.26553
 C2015 C 0.19217 0.84442 0.25377
 C2016 C 0.20172 0.82811 0.25269
 H2017 H 0.20455 0.88784 0.23928
 H2018 H 0.16408 0.89765 0.22302
 H2019 H 0.19309 0.90682 0.27800
 H2020 H 0.17820 0.86736 0.29250
 H2021 H 0.14923 0.85807 0.23751
 H2022 H 0.13775 0.87712 0.27624
 C2023 C 0.69028 0.38301 0.74883
 C2024 C 0.66818 0.38824 0.73999
 C2025 C 0.66247 0.39841 0.76111
 C2026 C 0.68440 0.39349 0.76997
 C2027 C 0.68170 0.36206 0.75717
 C2028 C 0.67598 0.37225 0.77828
 C2029 C 0.65977 0.36694 0.74830
 C2030 C 0.65389 0.37745 0.76946
 C2031 C 0.65204 0.41874 0.76378
 C2032 C 0.64372 0.43551 0.76651
 C2033 C 0.69275 0.34197 0.75532
 C2034 C 0.70221 0.32562 0.75411
 H2035 H 0.70537 0.38508 0.74032
 H2036 H 0.66485 0.39505 0.72428
 H2037 H 0.69442 0.40462 0.77890
 H2038 H 0.67930 0.36545 0.79400
 H2039 H 0.64977 0.35578 0.73938
 H2040 H 0.63880 0.37539 0.77797
 C2041 C 0.66846 0.63045 0.72758
 C2042 C 0.67939 0.60879 0.72594
 C2043 C 0.66351 0.59988 0.74179
 C2044 C 0.65241 0.62125 0.74340
 C2045 C 0.68302 0.63605 0.74601
 C2046 C 0.66715 0.62718 0.76188
 C2047 C 0.69410 0.61467 0.74439
 C2048 C 0.67807 0.60547 0.76022
 C2049 C 0.65292 0.57966 0.73892
 C2050 C 0.64447 0.56298 0.73603
 C2051 C 0.69420 0.65607 0.74786
 C2052 C 0.70373 0.67239 0.74890
 H2053 H 0.66463 0.64094 0.71418
 H2054 H 0.68432 0.60102 0.71113
 H2055 H 0.63514 0.62373 0.74296
 H2056 H 0.66224 0.63498 0.77668
 H2057 H 0.71137 0.61218 0.74482
 H2058 H 0.68189 0.59496 0.77362
 C2059 C 0.16641 0.13148 0.22707
 C2060 C 0.17721 0.10997 0.22361
 C2061 C 0.16258 0.10027 0.24019
 C2062 C 0.15161 0.12149 0.24362
 C2063 C 0.18232 0.13629 0.24459
 C2064 C 0.16770 0.12662 0.26119
 C2065 C 0.19327 0.11506 0.24116
 C2066 C 0.17849 0.10506 0.25771
 C2067 C 0.15186 0.08014 0.23726
 C2068 C 0.14329 0.06352 0.23438
 C2069 C 0.19358 0.15624 0.24657
 C2070 C 0.20312 0.17254 0.24770
 H2071 H 0.16157 0.14256 0.21450
 H2072 H 0.18100 0.10291 0.20813
 H2073 H 0.13436 0.12390 0.24460
 H2074 H 0.16392 0.13371 0.27666
 H2075 H 0.21052 0.11263 0.24017
 H2076 H 0.18332 0.09397 0.27027
 C2077 C 0.32538 0.12713 0.77644
 C2078 C 0.31624 0.10571 0.76950
 C2079 C 0.33740 0.10036 0.75917
 C2080 C 0.34670 0.12150 0.76615
 C2081 C 0.31808 0.13670 0.75551
 C2082 C 0.33924 0.13139 0.74516
 C2083 C 0.30879 0.11555 0.74854
 C2084 C 0.33012 0.10990 0.73822
 C2085 C 0.34787 0.08004 0.76173
 C2086 C 0.35624 0.06327 0.76437
 C2087 C 0.30700 0.15679 0.75393
 C2088 C 0.29755 0.17316 0.75308
 H2089 H 0.32331 0.13444 0.79214
 H2090 H 0.30689 0.09493 0.77953
 H2091 H 0.36241 0.12371 0.77342
 H2092 H 0.34857 0.14219 0.73514
 H2093 H 0.29308 0.11333 0.74128
 H2094 H 0.33219 0.10257 0.72254
 C2095 C 0.80850 0.61526 0.24712
 C2096 C 0.83104 0.61047 0.23921
 C2097 C 0.83596 0.60002 0.26041
 C2098 C 0.81360 0.60450 0.26834
 C2099 C 0.81643 0.63617 0.25616
 C2100 C 0.82136 0.62569 0.27735
 C2101 C 0.83879 0.63173 0.24822
 C2102 C 0.84388 0.62093 0.26945
 C2103 C 0.84658 0.57981 0.26326
 C2104 C 0.85508 0.56315 0.26613
 C2105 C 0.80526 0.65619 0.25428
 C2106 C 0.79577 0.67253 0.25322
 H2107 H 0.79383 0.61315 0.23792
 H2108 H 0.83514 0.60396 0.22356
 H2109 H 0.80336 0.59308 0.27665
 H2110 H 0.81727 0.63217 0.29301
 H2111 H 0.84901 0.64317 0.23992
 H2112 H 0.85855 0.62304 0.27866
 C2113 C 0.86740 0.27191 0.16020
 C2114 C 0.88827 0.27864 0.17076
 C2115 C 0.89960 0.26068 0.15928
 C2116 C 0.87904 0.25398 0.14854
 C2117 C 0.86328 0.25688 0.17863
 C2118 C 0.87458 0.23891 0.16716
 C2119 C 0.88386 0.26359 0.18934
 C2120 C 0.89547 0.24566 0.17771
 C2121 C 0.91995 0.26322 0.14884
 C2122 C 0.93677 0.26581 0.14055
 C2123 C 0.84325 0.25505 0.18981
 C2124 C 0.82699 0.25379 0.19942
 H2125 H 0.85564 0.28268 0.15313
 H2126 H 0.89413 0.29500 0.17214
 H2127 H 0.87730 0.25005 0.13164
 H2128 H 0.86871 0.22255 0.16580
 H2129 H 0.88563 0.26753 0.20624
 H2130 H 0.90724 0.23489 0.18479
 C2131 C 0.36765 0.77249 0.66284
 C2132 C 0.38851 0.77921 0.67344
 C2133 C 0.39989 0.76140 0.66179
 C2134 C 0.37934 0.75471 0.65101
 C2135 C 0.36360 0.75729 0.68114
 C2136 C 0.37495 0.73946 0.66950
 C2137 C 0.38416 0.76398 0.69189
 C2138 C 0.39583 0.74620 0.68009
 C2139 C 0.42021 0.76409 0.65132
 C2140 C 0.43700 0.76674 0.64299
 C2141 C 0.34354 0.75533 0.69227
 C2142 C 0.32723 0.75404 0.70179
 H2143 H 0.35584 0.78328 0.65587
 H2144 H 0.39430 0.79558 0.67495
 H2145 H 0.37760 0.75092 0.63408
 H2146 H 0.36914 0.72309 0.66801
 H2147 H 0.38592 0.76778 0.70882
 H2148 H 0.40764 0.73541 0.68707
 C2149 C 0.38500 0.24398 0.80783
 C2150 C 0.39390 0.25967 0.82417
 C2151 C 0.39989 0.24107 0.83835
 C2152 C 0.39128 0.22537 0.82217
 C2153 C 0.36358 0.24495 0.81894
 C2154 C 0.36958 0.22636 0.83312
 C2155 C 0.37215 0.26068 0.83511
 C2156 C 0.37848 0.24204 0.84948
 C2157 C 0.42019 0.23839 0.84888
 C2158 C 0.43695 0.23562 0.85727
 C2159 C 0.34349 0.24664 0.80781
 C2160 C 0.32713 0.24758 0.79831
 H2161 H 0.38746 0.24480 0.79059
 H2162 H 0.40413 0.27333 0.82061
 H2163 H 0.39936 0.21083 0.81696
 H2164 H 0.35937 0.21269 0.83669
 H2165 H 0.36404 0.27521 0.84031
 H2166 H 0.37604 0.24121 0.86672
 C2167 C 0.88340 0.74037 0.30759
 C2168 C 0.89387 0.75727 0.32161
 C2169 C 0.89858 0.74028 0.33809
 C2170 C 0.88841 0.72335 0.32422
 C2171 C 0.86235 0.74459 0.31865
 C2172 C 0.86708 0.72759 0.33512
 C2173 C 0.87249 0.76153 0.33251
 C2174 C 0.87755 0.74448 0.34917
 C2175 C 0.91883 0.73735 0.34864
 C2176 C 0.93553 0.73441 0.35705
 C2177 C 0.84230 0.74648 0.30752
 C2178 C 0.82593 0.74753 0.29806
 H2179 H 0.88558 0.73870 0.29037
 H2180 H 0.90511 0.76945 0.31618
 H2181 H 0.89517 0.70762 0.32092
 H2182 H 0.85585 0.71541 0.34056
 H2183 H 0.86570 0.77725 0.33579
 H2184 H 0.87539 0.74614 0.36640
 C2185 C 0.12195 0.73706 0.32528
 C2186 C 0.11891 0.74765 0.34701
 C2187 C 0.09980 0.75952 0.33822
 C2188 C 0.10251 0.74898 0.31668
 C2189 C 0.13592 0.75555 0.31853
 C2190 C 0.11680 0.76742 0.30978
 C2191 C 0.13321 0.76609 0.34006
 C2192 C 0.11380 0.77799 0.33146
 C2193 C 0.07960 0.76224 0.34889
 C2194 C 0.06291 0.76500 0.35740
 C2195 C 0.15591 0.75382 0.30727
 C2196 C 0.17222 0.75288 0.29771
 H2197 H 0.12554 0.72021 0.32261
 H2198 H 0.11953 0.73955 0.36244
 H2199 H 0.08966 0.74198 0.30719
 H2200 H 0.11614 0.77553 0.29435
 H2201 H 0.14607 0.77310 0.34955
 H2202 H 0.11023 0.79484 0.33411
 C2203 C 0.62352 0.23856 0.82588
 C2204 C 0.62037 0.24921 0.84755
 C2205 C 0.60138 0.26114 0.83859
 C2206 C 0.60421 0.25053 0.81710
 C2207 C 0.63763 0.25696 0.81919
 C2208 C 0.61862 0.26889 0.81026
 C2209 C 0.63481 0.26757 0.84067
 C2210 C 0.61551 0.27953 0.83189
 C2211 C 0.58110 0.26390 0.84909
 C2212 C 0.56435 0.26667 0.85746
 C2213 C 0.65765 0.25494 0.80802
 C2214 C 0.67392 0.25356 0.79846
 H2215 H 0.62705 0.22168 0.82329
 H2216 H 0.62084 0.24114 0.86301
 H2217 H 0.59140 0.24356 0.80753
 H2218 H 0.61813 0.27696 0.79480
 H2219 H 0.64763 0.27455 0.85023
 H2220 H 0.61199 0.29641 0.83447
 C2221 C 0.61890 0.75999 0.68565
 C2222 C 0.61588 0.75987 0.66147
 C2223 C 0.60124 0.74081 0.66369
 C2224 C 0.60395 0.74090 0.68768
 C2225 C 0.63750 0.74481 0.68315
 C2226 C 0.62284 0.72577 0.68534
 C2227 C 0.63483 0.74472 0.65916
 C2228 C 0.61986 0.72564 0.66121
 C2229 C 0.58099 0.73806 0.65312
 C2230 C 0.56428 0.73524 0.64465
 C2231 C 0.65758 0.74654 0.69428
 C2232 C 0.67396 0.74748 0.70374
 H2233 H 0.61874 0.77414 0.69583
 H2234 H 0.61277 0.77386 0.65154
 H2235 H 0.59103 0.73931 0.69929
 H2236 H 0.62592 0.71176 0.69527
 H2237 H 0.64776 0.74630 0.64757
 H2238 H 0.62003 0.71148 0.65104
 C2239 C 0.11776 0.25941 0.18457
 C2240 C 0.11503 0.25922 0.16036
 C2241 C 0.10056 0.24002 0.16244
 C2242 C 0.10297 0.24018 0.18645
 C2243 C 0.13654 0.24441 0.18231
 C2244 C 0.12205 0.22523 0.18436
 C2245 C 0.13415 0.24425 0.15829
 C2246 C 0.11935 0.22502 0.16020
 C2247 C 0.08045 0.23710 0.15160
 C2248 C 0.06387 0.23421 0.14293
 C2249 C 0.15650 0.24638 0.19362
 C2250 C 0.17283 0.24749 0.20315
 H2251 H 0.11734 0.27358 0.19471
 H2252 H 0.11190 0.27316 0.15036
 H2253 H 0.08994 0.23847 0.19791
 H2254 H 0.12515 0.21127 0.19435
 H2255 H 0.14719 0.24595 0.14685
 H2256 H 0.11978 0.21085 0.15006
 C2257 C -0.07651 1.02371 0.87846
 C2258 C -0.06657 1.02033 0.85654
 C2259 C -0.08646 1.00850 0.84966
 C2260 C -0.09657 1.01192 0.87131
 C2261 C -0.06704 1.00271 0.88569
 C2262 C -0.08693 0.99086 0.87885
 C2263 C -0.05693 0.99930 0.86405
 C2264 C -0.07699 0.98750 0.85687
 C2265 C -0.09703 1.01207 0.82953
 C2266 C -0.10545 1.01524 0.81286
 C2267 C -0.05603 1.00004 0.90574
 C2268 C -0.04683 0.99849 0.92221
 H2269 H -0.07620 1.03858 0.88756
 H2270 H -0.05832 1.03250 0.84715
 H2271 H -0.11298 1.01716 0.87406
 H2272 H -0.09516 0.97871 0.88826
 H2273 H -0.04052 0.99406 0.86128
 H2274 H -0.07732 0.97264 0.84775
 C2275 C 0.42328 0.52575 0.37970
 C2276 C 0.43290 0.52254 0.35760
 C2277 C 0.41291 0.51077 0.35093
 C2278 C 0.40312 0.51402 0.37275
 C2279 C 0.43286 0.50470 0.38663
 C2280 C 0.41286 0.49291 0.37999
 C2281 C 0.44264 0.50145 0.36481
 C2282 C 0.42248 0.48970 0.35784
 C2283 C 0.40206 0.51440 0.33095
 C2284 C 0.39345 0.51751 0.31437
 C2285 C 0.44414 0.50182 0.40649
 C2286 C 0.45354 0.50008 0.42284
 H2287 H 0.42374 0.54054 0.38891
 H2288 H 0.44102 0.53478 0.34819
 H2289 H 0.38675 0.51924 0.37579
 H2290 H 0.40477 0.48067 0.38942
 H2291 H 0.45901 0.49623 0.36176
 H2292 H 0.42201 0.47492 0.34862
 C2293 C 0.55650 -0.00223 0.36190
 C2294 C 0.57388 0.01212 0.35270
 C2295 C 0.58695 -0.00751 0.34751
 C2296 C 0.56973 -0.02188 0.35640
 C2297 C 0.56745 -0.00124 0.38339
 C2298 C 0.58052 -0.02086 0.37817
 C2299 C 0.58467 0.01316 0.37454
 C2300 C 0.59791 -0.00652 0.36900
 C2301 C 0.59751 -0.01141 0.32745
 C2302 C 0.60590 -0.01490 0.31084
 C2303 C 0.55635 0.00154 0.40336
 C2304 C 0.54702 0.00299 0.41976
 H2305 H 0.53936 -0.00042 0.35919
 H2306 H 0.57128 0.02563 0.34199
 H2307 H 0.56370 -0.03634 0.34875
 H2308 H 0.58313 -0.03439 0.38887
 H2309 H 0.59067 0.02761 0.38222
 H2310 H 0.61506 -0.00834 0.37169
 C2311 C 0.08760 0.48655 0.88330
 C2312 C 0.07826 0.47501 0.86403
 C2313 C 0.08675 0.49251 0.84976
 C2314 C 0.09626 0.50402 0.86872
 C2315 C 0.06699 0.49895 0.88548
 C2316 C 0.07546 0.51649 0.87123
 C2317 C 0.05751 0.48745 0.86650
 C2318 C 0.06614 0.50492 0.85194
 C2319 C 0.09745 0.48854 0.82979
 C2320 C 0.10593 0.48505 0.81323
 C2321 C 0.05577 0.50182 0.90536
 C2322 C 0.04637 0.50331 0.92172
 H2323 H 0.09631 0.47904 0.89642
 H2324 H 0.07953 0.45791 0.86087
 H2325 H 0.11233 0.51078 0.86941
 H2326 H 0.07418 0.53358 0.87442
 H2327 H 0.04144 0.48068 0.86578
 H2328 H 0.05743 0.51242 0.83881
 C2329 C 0.05509 0.50516 0.63561
 C2330 C 0.07149 0.48995 0.64523
 C2331 C 0.08589 0.50878 0.64978
 C2332 C 0.06965 0.52403 0.64046
 C2333 C 0.06584 0.50275 0.61414
 C2334 C 0.08024 0.52157 0.61871
 C2335 C 0.08208 0.48749 0.62343
 C2336 C 0.09666 0.50637 0.62832
 C2337 C 0.09680 0.51246 0.66970
 C2338 C 0.10550 0.51571 0.68620
 C2339 C 0.05453 0.49993 0.59430
 C2340 C 0.04513 0.49823 0.57795
 H2341 H 0.03787 0.50462 0.63839
 H2342 H 0.06802 0.47699 0.65637
 H2343 H 0.06466 0.53910 0.64767
 H2344 H 0.08372 0.53455 0.60759
 H2345 H 0.08705 0.47242 0.61621
 H2346 H 0.11388 0.50692 0.62555
 C2347 C 0.56107 1.01955 0.12811
 C2348 C 0.56284 1.00325 0.14607
 C2349 C 0.58638 1.00833 0.14796
 C2350 C 0.58475 1.02467 0.13028
 C2351 C 0.56654 1.00223 0.11222
 C2352 C 0.59008 1.00731 0.11410
 C2353 C 0.56815 0.98587 0.12989
 C2354 C 0.59188 0.99100 0.13211
 C2355 C 0.59714 1.01211 0.16795
 C2356 C 0.60568 1.01545 0.18452
 C2357 C 0.55527 0.99952 0.09234
 C2358 C 0.54583 0.99810 0.07599
 H2359 H 0.54826 1.03126 0.12626
 H2360 H 0.55176 1.00164 0.15944
 H2361 H 0.59168 1.04066 0.13065
 H2362 H 0.60115 1.00893 0.10073
 H2363 H 0.56120 0.96989 0.12950
 H2364 H 0.60470 0.97931 0.13399
 C2365 C 0.41517 0.48021 0.11917
 C2366 C 0.42568 0.47353 0.14008
 C2367 C 0.41305 0.49061 0.15153
 C2368 C 0.40237 0.49725 0.13092
 C2369 C 0.43289 0.49625 0.11573
 C2370 C 0.42027 0.51334 0.12716
 C2371 C 0.44354 0.48961 0.13636
 C2372 C 0.43076 0.50665 0.14810
 C2373 C 0.40225 0.48716 0.17155
 C2374 C 0.39366 0.48412 0.18814
 C2375 C 0.44410 0.49886 0.09581
 C2376 C 0.45343 0.50038 0.07941
 H2377 H 0.40888 0.46937 0.10705
 H2378 H 0.42778 0.45713 0.14560
 H2379 H 0.38531 0.50034 0.12891
 H2380 H 0.41818 0.52975 0.12161
 H2381 H 0.46060 0.48651 0.13838
 H2382 H 0.43704 0.51748 0.16024
 C2383 C -0.08437 -0.01872 0.61853
 C2384 C -0.07363 -0.02565 0.63923
 C2385 C -0.08634 -0.00894 0.65109
 C2386 C -0.09726 -0.00203 0.63069
 C2387 C -0.06686 -0.00242 0.61523
 C2388 C -0.07957 0.01433 0.62706
 C2389 C -0.05597 -0.00932 0.63565
 C2390 C -0.06884 0.00736 0.64781
 C2391 C -0.09690 -0.01292 0.67116
 C2392 C -0.10526 -0.01638 0.68780
 C2393 C -0.05576 0.00050 0.59527
 C2394 C -0.04643 0.00206 0.57887
 H2395 H -0.09065 -0.02940 0.60627
 H2396 H -0.07130 -0.04214 0.64442
 H2397 H -0.11437 0.00090 0.62887
 H2398 H -0.08188 0.03080 0.62184
 H2399 H -0.03887 -0.01227 0.63748
 H2400 H -0.06256 0.01804 0.66008
 C2401 C -0.13755 0.94275 0.99966
 C2402 C -0.14388 0.92165 0.98932
 C2403 C -0.15183 0.91385 1.01074
 C2404 C -0.14581 0.93479 1.02112
 C2405 C -0.11589 0.93341 1.00485
 C2406 C -0.12386 0.92561 1.02626
 C2407 C -0.12189 0.91248 0.99446
 C2408 C -0.13017 0.90451 1.01593
 C2409 C -0.17192 0.90321 1.01431
 C2410 C -0.18856 0.89471 1.01743
 C2411 C -0.09590 0.94448 1.00208
 C2412 C -0.07946 0.95372 1.00039
 H2413 H -0.14037 0.95859 0.99293
 H2414 H -0.15235 0.91989 0.97417
 H2415 H -0.15585 0.94384 1.03213
 H2416 H -0.11542 0.92736 1.04143
 H2417 H -0.11182 0.90344 0.98346
 H2418 H -0.12736 0.88867 1.02267
 C2419 C 0.36369 0.44278 0.49985
 C2420 C 0.35752 0.42165 0.48947
 C2421 C 0.34961 0.41377 0.51088
 C2422 C 0.35548 0.43473 0.52129
 C2423 C 0.38541 0.43358 0.50504
 C2424 C 0.37748 0.42569 0.52643
 C2425 C 0.37957 0.41262 0.49462
 C2426 C 0.37132 0.40457 0.51607
 C2427 C 0.32959 0.40299 0.51441
 C2428 C 0.31299 0.39441 0.51747
 C2429 C 0.40532 0.44478 0.50229
 C2430 C 0.42170 0.45412 0.50062
 H2431 H 0.36077 0.45861 0.49314
 H2432 H 0.34907 0.41986 0.47432
 H2433 H 0.34537 0.44370 0.53231
 H2434 H 0.38590 0.42748 0.54160
 H2435 H 0.38970 0.40367 0.48360
 H2436 H 0.37424 0.38874 0.52279
 C2437 C 0.37943 0.57819 -0.02232
 C2438 C 0.35745 0.56777 -0.02189
 C2439 C 0.34943 0.58589 -0.00813
 C2440 C 0.37112 0.59648 -0.00861
 C2441 C 0.38526 0.56611 -0.00224
 C2442 C 0.37727 0.58423 0.01154
 C2443 C 0.36357 0.55553 -0.00176
 C2444 C 0.35524 0.57382 0.01197
 C2445 C 0.32942 0.59668 -0.01177
 C2446 C 0.31287 0.60530 -0.01504
 C2447 C 0.40522 0.55495 0.00048
 C2448 C 0.42164 0.54566 0.00208
 H2449 H 0.38959 0.57986 -0.03639
 H2450 H 0.34910 0.56112 -0.03568
 H2451 H 0.37401 0.61343 -0.01147
 H2452 H 0.38564 0.59087 0.02533
 H2453 H 0.36068 0.53858 0.00109
 H2454 H 0.34506 0.57216 0.02603
 C2455 C -0.12540 0.06748 0.47782
 C2456 C -0.14627 0.06311 0.48949
 C2457 C -0.14937 0.08688 0.49224
 C2458 C -0.12877 0.09140 0.48051
 C2459 C -0.11375 0.06697 0.49897
 C2460 C -0.11682 0.09074 0.50173
 C2461 C -0.13435 0.06243 0.51071
 C2462 C -0.13776 0.08640 0.51342
 C2463 C -0.16928 0.09769 0.48809
 C2464 C -0.18578 0.10627 0.48444
 C2465 C -0.09390 0.05567 0.50199
 C2466 C -0.07756 0.04623 0.50359
 H2467 H -0.12011 0.05957 0.46320
 H2468 H -0.15859 0.05186 0.48440
 H2469 H -0.12668 0.10342 0.46805
 H2470 H -0.10449 0.10198 0.50682
 H2471 H -0.13643 0.05041 0.52317
 H2472 H -0.14308 0.09432 0.52801
 C2473 C 0.62311 0.08614 0.48616
 C2474 C 0.62924 0.09814 0.50645
 C2475 C 0.65090 0.08749 0.50593
 C2476 C 0.64512 0.07567 0.48570
 C2477 C 0.61504 0.06789 0.49973
 C2478 C 0.63671 0.05725 0.49922
 C2479 C 0.62085 0.07972 0.51995
 C2480 C 0.64279 0.06924 0.51948
 C2481 C 0.67095 0.09811 0.50982
 C2482 C 0.68755 0.10654 0.51333
 C2483 C 0.59508 0.05674 0.49699
 C2484 C 0.57869 0.04737 0.49555
 H2485 H 0.61479 0.09295 0.47242
 H2486 H 0.62639 0.11507 0.50948
 H2487 H 0.65534 0.07412 0.47165
 H2488 H 0.63957 0.04032 0.49620
 H2489 H 0.61065 0.08128 0.53401
 H2490 H 0.65108 0.06241 0.53323
 C2491 C 0.12230 0.57507 1.02387
 C2492 C 0.14426 0.56621 1.01834
 C2493 C 0.15006 0.58748 1.00853
 C2494 C 0.12838 0.59651 1.01411
 C2495 C 0.11422 0.56784 1.00229
 C2496 C 0.11999 0.58912 0.99247
 C2497 C 0.13591 0.55882 0.99672
 C2498 C 0.14202 0.58026 0.98694
 C2499 C 0.17012 0.59813 1.01237
 C2500 C 0.18674 0.60658 1.01575
 C2501 C 0.09428 0.55667 0.99948
 C2502 C 0.07789 0.54730 0.99795
 H2503 H 0.11398 0.57282 1.03903
 H2504 H 0.15444 0.55690 1.02903
 H2505 H 0.12550 0.61212 1.02132
 H2506 H 0.10979 0.59840 0.98179
 H2507 H 0.13879 0.54321 0.98952
 H2508 H 0.15036 0.58253 0.97180
 C2509 C 0.11825 0.41680 0.47783
 C2510 C 0.13973 0.42779 0.47467
 C2511 C 0.14960 0.41247 0.49050
 C2512 C 0.12842 0.40131 0.49362
 C2513 C 0.11354 0.43188 0.49607
 C2514 C 0.12338 0.41656 0.51193
 C2515 C 0.13472 0.44302 0.49295
 C2516 C 0.14490 0.42754 0.50875
 C2517 C 0.16977 0.40193 0.48709
 C2518 C 0.18649 0.39356 0.48408
 C2519 C 0.09349 0.44289 0.49866
 C2520 C 0.07703 0.45211 0.50019
 H2521 H 0.10707 0.41251 0.46515
 H2522 H 0.14665 0.43229 0.45931
 H2523 H 0.12606 0.38404 0.49385
 H2524 H 0.11643 0.41208 0.52728
 H2525 H 0.13710 0.46029 0.49271
 H2526 H 0.15609 0.43183 0.52142
 C2527 C 0.62386 0.93042 -0.02452
 C2528 C 0.64495 0.93659 -0.01410
 C2529 C 0.64887 0.91334 -0.00892
 C2530 C 0.62805 0.90702 -0.01938
 C2531 C 0.61289 0.93288 -0.00315
 C2532 C 0.61678 0.90963 0.00204
 C2533 C 0.63371 0.93920 0.00732
 C2534 C 0.63794 0.91578 0.01247
 C2535 C 0.66901 0.90277 -0.01247
 C2536 C 0.68571 0.89439 -0.01560
 C2537 C 0.59289 0.94401 -0.00060
 C2538 C 0.57648 0.95338 0.00072
 H2539 H 0.61786 0.93657 -0.03971
 H2540 H 0.65674 0.94756 -0.02079
 H2541 H 0.62594 0.89369 -0.03041
 H2542 H 0.60496 0.89868 0.00873
 H2543 H 0.63581 0.95255 0.01833
 H2544 H 0.64396 0.90962 0.02764
 C2545 C -0.01243 0.86671 0.93371
 C2546 C -0.00844 0.86435 0.90979
 C2547 C 0.00971 0.84916 0.91461
 C2548 C 0.00577 0.85120 0.93834
 C2549 C 0.00337 0.88493 0.93426
 C2550 C 0.02151 0.86972 0.93905
 C2551 C 0.00732 0.88290 0.91054
 C2552 C 0.02550 0.86739 0.91518
 C2553 C 0.01355 0.82917 0.90389
 C2554 C 0.01689 0.81263 0.89533
 C2555 C 0.00042 0.90487 0.94535
 C2556 C -0.00134 0.92130 0.95457
 H2557 H -0.02807 0.86665 0.94145
 H2558 H -0.02070 0.86191 0.89763
 H2559 H 0.00518 0.83794 0.94965
 H2560 H 0.03379 0.87213 0.95121
 H2561 H 0.00790 0.89617 0.89923
 H2562 H 0.04114 0.86746 0.90745
 C2563 C 0.48796 0.36830 0.43249
 C2564 C 0.49185 0.36611 0.40854
 C2565 C 0.50993 0.35077 0.41316
 C2566 C 0.50608 0.35264 0.43691
 C2567 C 0.50388 0.38642 0.43313
 C2568 C 0.52194 0.37105 0.43773
 C2569 C 0.50773 0.38456 0.40938
 C2570 C 0.52583 0.36891 0.41382
 C2571 C 0.51362 0.33085 0.40228
 C2572 C 0.51688 0.31435 0.39361
 C2573 C 0.50108 0.40626 0.44442
 C2574 C 0.49944 0.42259 0.45383
 H2575 H 0.47236 0.36827 0.44028
 H2576 H 0.47953 0.36385 0.39640
 H2577 H 0.50546 0.33929 0.44812
 H2578 H 0.53428 0.37329 0.44986
 H2579 H 0.50835 0.39792 0.39818
 H2580 H 0.54144 0.36895 0.40603
 C2581 C -0.00809 0.36278 0.55530
 C2582 C 0.00822 0.35225 0.57002
 C2583 C -0.00938 0.34801 0.58599
 C2584 C -0.02571 0.35824 0.57143
 C2585 C -0.00390 0.38388 0.56622
 C2586 C -0.02150 0.37962 0.58219
 C2587 C 0.01245 0.37368 0.58077
 C2588 C -0.00520 0.36910 0.59692
 C2589 C -0.01280 0.32798 0.59677
 C2590 C -0.01589 0.31141 0.60538
 C2591 C -0.00140 0.40384 0.55506
 C2592 C 0.00004 0.42025 0.54575
 H2593 H -0.00923 0.36039 0.53806
 H2594 H 0.02040 0.34076 0.56514
 H2595 H -0.04145 0.35168 0.56771
 H2596 H -0.03369 0.39109 0.58708
 H2597 H 0.02818 0.38026 0.58448
 H2598 H -0.00406 0.37147 0.61416
 C2599 C 0.49245 0.86498 0.05438
 C2600 C 0.50827 0.85432 0.06952
 C2601 C 0.49028 0.85051 0.08516
 C2602 C 0.47442 0.86086 0.07018
 C2603 C 0.49676 0.88610 0.06520
 C2604 C 0.47877 0.88226 0.08085
 C2605 C 0.51264 0.87578 0.08018
 C2606 C 0.49459 0.87162 0.09600
 C2607 C 0.48635 0.83059 0.09601
 C2608 C 0.48296 0.81408 0.10463
 C2609 C 0.49969 0.90594 0.05390
 C2610 C 0.50125 0.92228 0.04448
 H2611 H 0.49162 0.86245 0.03715
 H2612 H 0.52036 0.84259 0.06499
 H2613 H 0.45866 0.85454 0.06620
 H2614 H 0.46667 0.89398 0.08539
 H2615 H 0.52840 0.88213 0.08415
 H2616 H 0.49541 0.87413 0.11324
 C2617 C 0.49097 0.63464 0.06284
 C2618 C 0.48827 0.63820 0.08678
 C2619 C 0.50899 0.65060 0.08698
 C2620 C 0.51172 0.64735 0.06322
 C2621 C 0.50354 0.61457 0.06754
 C2622 C 0.52424 0.62699 0.06776
 C2623 C 0.50080 0.61780 0.09130
 C2624 C 0.52155 0.63053 0.09167
 C2625 C 0.51235 0.67075 0.09754
 C2626 C 0.51533 0.68744 0.10595
 C2627 C 0.50099 0.59455 0.05651
 C2628 C 0.49947 0.57811 0.04728
 H2629 H 0.47836 0.63610 0.05086
 H2630 H 0.47352 0.64305 0.09473
 H2631 H 0.51626 0.65971 0.05179
 H2632 H 0.53900 0.62217 0.05982
 H2633 H 0.49626 0.60542 0.10271
 H2634 H 0.53417 0.62906 0.10364
 C2635 C 0.02338 0.12674 0.56724
 C2636 C 0.01017 0.14688 0.56389
 C2637 C 0.00920 0.14983 0.58783
 C2638 C 0.02246 0.12997 0.59132
 C2639 C 0.00297 0.11390 0.56842
 C2640 C 0.00199 0.11683 0.59236
 C2641 C -0.01030 0.13376 0.56492
 C2642 C -0.01124 0.13702 0.58904
 C2643 C 0.01300 0.16995 0.59833
 C2644 C 0.01632 0.18663 0.60664
 C2645 C 0.00015 0.09393 0.55735
 C2646 C -0.00138 0.07754 0.54803
 H2647 H 0.03760 0.12231 0.55814
 H2648 H 0.01360 0.15945 0.55230
 H2649 H 0.03597 0.12863 0.60228
 H2650 H -0.00143 0.10424 0.60394
 H2651 H -0.02381 0.13509 0.55395
 H2652 H -0.02543 0.14149 0.59815
 C2653 C 0.51667 0.12990 0.42451
 C2654 C 0.50669 0.13249 0.40242
 C2655 C 0.49300 0.15044 0.41097
 C2656 C 0.50292 0.14818 0.43287
 C2657 C 0.49908 0.11443 0.43033
 C2658 C 0.48541 0.13241 0.43885
 C2659 C 0.48916 0.11668 0.40843
 C2660 C 0.47544 0.13494 0.41681
 C2661 C 0.48921 0.17058 0.40051
 C2662 C 0.48584 0.18728 0.39224
 C2663 C 0.50179 0.09443 0.44140
 C2664 C 0.50319 0.07803 0.45074
 H2665 H 0.53365 0.12760 0.42780
 H2666 H 0.51538 0.13276 0.38731
 H2667 H 0.50853 0.16136 0.44281
 H2668 H 0.47669 0.13217 0.45395
 H2669 H 0.48354 0.10350 0.39850
 H2670 H 0.45845 0.13722 0.41353
 C2671 C -0.02278 0.62581 0.93059
 C2672 C -0.01226 0.64685 0.93667
 C2673 C -0.00738 0.65081 0.91336
 C2674 C -0.01795 0.63004 0.90713
 C2675 C -0.00138 0.61481 0.93276
 C2676 C 0.00350 0.61874 0.90945
 C2677 C 0.00920 0.63557 0.93900
 C2678 C 0.01404 0.63985 0.91551
 C2679 C -0.01112 0.67095 0.90286
 C2680 C -0.01446 0.68762 0.89453
 C2681 C 0.00126 0.59479 0.94380
 C2682 C 0.00261 0.57835 0.95309
 H2683 H -0.03790 0.61983 0.93691
 H2684 H -0.01879 0.65862 0.94775
 H2685 H -0.02917 0.62799 0.89392
 H2686 H 0.01003 0.60695 0.89838
 H2687 H 0.02040 0.63763 0.95221
 H2688 H 0.02914 0.64586 0.90918
 C2689 C 0.26124 0.66005 0.86655
 C2690 C 0.27676 0.66669 0.88409
 C2691 C 0.25939 0.66306 0.90045
 C2692 C 0.24390 0.65624 0.88323
 C2693 C 0.25397 0.68298 0.86464
 C2694 C 0.23659 0.67937 0.88099
 C2695 C 0.26946 0.68978 0.88188
 C2696 C 0.25213 0.68599 0.89853
 C2697 C 0.26273 0.65219 0.92046
 C2698 C 0.26572 0.64352 0.93703
 C2699 C 0.25145 0.69424 0.84472
 C2700 C 0.24993 0.70360 0.82833
 H2701 H 0.26494 0.64950 0.85318
 H2702 H 0.29331 0.66136 0.88557
 H2703 H 0.23343 0.64231 0.88401
 H2704 H 0.22004 0.68471 0.87949
 H2705 H 0.27993 0.70370 0.88112
 H2706 H 0.24842 0.69655 0.91190
 C2707 C 0.75242 0.19181 0.38474
 C2708 C 0.74062 0.17178 0.39194
 C2709 C 0.76169 0.16223 0.39893
 C2710 C 0.77352 0.18210 0.39203
 C2711 C 0.75561 0.18180 0.36302
 C2712 C 0.77667 0.17225 0.37002
 C2713 C 0.74377 0.16193 0.36989
 C2714 C 0.76489 0.15221 0.37721
 C2715 C 0.76531 0.15161 0.41903
 C2716 C 0.76840 0.14316 0.43570
 C2717 C 0.75273 0.19291 0.34306
 C2718 C 0.75098 0.20221 0.32665
 H2719 H 0.74725 0.20821 0.38762
 H2720 H 0.72584 0.17146 0.40119
 H2721 H 0.78581 0.19028 0.40133
 H2722 H 0.79147 0.17256 0.36079
 H2723 H 0.73149 0.15378 0.36057
 H2724 H 0.77006 0.13581 0.37434
 C2725 C 0.23132 0.31228 0.38052
 C2726 C 0.24767 0.31394 0.39846
 C2727 C 0.24263 0.33745 0.40044
 C2728 C 0.22624 0.33594 0.38278
 C2729 C 0.24863 0.31778 0.36462
 C2730 C 0.24359 0.34129 0.36658
 C2731 C 0.26504 0.31927 0.38226
 C2732 C 0.25996 0.34299 0.38456
 C2733 C 0.23884 0.34813 0.42045
 C2734 C 0.23537 0.35660 0.43701
 C2735 C 0.25126 0.30658 0.34470
 C2736 C 0.25262 0.29718 0.32833
 H2737 H 0.21957 0.29952 0.37866
 H2738 H 0.24929 0.30280 0.41179
 H2739 H 0.21025 0.34290 0.38320
 H2740 H 0.24197 0.35242 0.35325
 H2741 H 0.28103 0.31229 0.38181
 H2742 H 0.27169 0.35575 0.38646
 C2743 C 0.73110 0.81268 0.88082
 C2744 C 0.74724 0.81455 0.89893
 C2745 C 0.74204 0.83805 0.90070
 C2746 C 0.72585 0.83632 0.88287
 C2747 C 0.74855 0.81817 0.86507
 C2748 C 0.74336 0.84167 0.86683
 C2749 C 0.76476 0.81988 0.88288
 C2750 C 0.75951 0.84358 0.88498
 C2751 C 0.73803 0.84883 0.92063
 C2752 C 0.73448 0.85737 0.93714
 C2753 C 0.75149 0.80686 0.84525
 C2754 C 0.75308 0.79736 0.82895
 H2755 H 0.71945 0.79984 0.87892
 H2756 H 0.74878 0.80351 0.91234
 H2757 H 0.70981 0.84319 0.88307
 H2758 H 0.74181 0.85270 0.85341
 H2759 H 0.78080 0.81300 0.88267
 H2760 H 0.77114 0.85643 0.88691
 C2761 C 0.73529 0.83407 0.12699
 C2762 C 0.75390 0.84909 0.12231
 C2763 C 0.75696 0.83825 0.10097
 C2764 C 0.73841 0.82342 0.10531
 C2765 C 0.75083 0.81831 0.13665
 C2766 C 0.75389 0.80749 0.11530
 C2767 C 0.76937 0.83315 0.13229
 C2768 C 0.77247 0.82248 0.11067
 C2769 C 0.76078 0.84906 0.08102
 C2770 C 0.76418 0.85764 0.06449
 C2771 C 0.74809 0.80699 0.15650
 C2772 C 0.74663 0.79750 0.17282
 H2773 H 0.71997 0.83870 0.13393
 H2774 H 0.75397 0.86632 0.12497
 H2775 H 0.72572 0.81954 0.09398
 H2776 H 0.75383 0.79027 0.11263
 H2777 H 0.78207 0.83703 0.14360
 H2778 H 0.78779 0.81784 0.10376
 C2779 C 0.23558 0.33353 0.62716
 C2780 C 0.25422 0.34849 0.62243
 C2781 C 0.25723 0.33759 0.60112
 C2782 C 0.23864 0.32282 0.60550
 C2783 C 0.25108 0.31775 0.63684
 C2784 C 0.25409 0.30687 0.61551
 C2785 C 0.26965 0.33252 0.63243
 C2786 C 0.27270 0.32180 0.61083
 C2787 C 0.26109 0.34834 0.58114
 C2788 C 0.26454 0.35686 0.56459
 C2789 C 0.24835 0.30646 0.65671
 C2790 C 0.24694 0.29698 0.67303
 H2791 H 0.22027 0.33821 0.63410
 H2792 H 0.25434 0.36572 0.62505
 H2793 H 0.22594 0.31895 0.59419
 H2794 H 0.25398 0.28964 0.61288
 H2795 H 0.28238 0.33640 0.64373
 H2796 H 0.28801 0.31710 0.60392
 C2797 C 0.72641 0.18296 0.62192
 C2798 C 0.73982 0.18646 0.60194
 C2799 C 0.74112 0.16254 0.59899
 C2800 C 0.72766 0.15889 0.61868
 C2801 C 0.74668 0.18198 0.63502
 C2802 C 0.74798 0.15806 0.63209
 C2803 C 0.76015 0.18564 0.61533
 C2804 C 0.76141 0.16154 0.61206
 C2805 C 0.73772 0.15197 0.57883
 C2806 C 0.73472 0.14355 0.56215
 C2807 C 0.74926 0.19300 0.65506
 C2808 C 0.75079 0.20222 0.67151
 H2809 H 0.71204 0.19189 0.62618
 H2810 H 0.73642 0.19802 0.58933
 H2811 H 0.71427 0.14779 0.61984
 H2812 H 0.75139 0.14651 0.64471
 H2813 H 0.77354 0.19675 0.61418
 H2814 H 0.77576 0.15261 0.60777
 C2815 C 0.25376 0.66006 0.13143
 C2816 C 0.23200 0.65546 0.12148
 C2817 C 0.24051 0.66279 0.10011
 C2818 C 0.26222 0.66722 0.10973
 C2819 C 0.24665 0.68270 0.13580
 C2820 C 0.25515 0.69004 0.11444
 C2821 C 0.22495 0.67826 0.12615
 C2822 C 0.23341 0.68543 0.10451
 C2823 C 0.23676 0.65199 0.08014
 C2824 C 0.23347 0.64341 0.06359
 C2825 C 0.24942 0.69401 0.15565
 C2826 C 0.25094 0.70348 0.17197
 H2827 H 0.26218 0.64976 0.14272
 H2828 H 0.22243 0.64113 0.12415
 H2829 H 0.27751 0.66255 0.10275
 H2830 H 0.26471 0.70437 0.11176
 H2831 H 0.20965 0.68292 0.13310
 H2832 H 0.22498 0.69574 0.09324
 C2833 C 0.18673 0.61566 0.75921
 C2834 C 0.16263 0.61250 0.76100
 C2835 C 0.16303 0.59993 0.74040
 C2836 C 0.18694 0.60277 0.73857
 C2837 C 0.18285 0.63568 0.74631
 C2838 C 0.18322 0.62309 0.72573
 C2839 C 0.15894 0.63286 0.74814
 C2840 C 0.15916 0.61996 0.72751
 C2841 C 0.15223 0.57994 0.73679
 C2842 C 0.14362 0.56339 0.73361
 C2843 C 0.19407 0.65558 0.74905
 C2844 C 0.20343 0.67194 0.75065
 H2845 H 0.19819 0.61411 0.77228
 H2846 H 0.15403 0.60791 0.77545
 H2847 H 0.19833 0.59019 0.73459
 H2848 H 0.19182 0.62765 0.71126
 H2849 H 0.14756 0.64546 0.75212
 H2850 H 0.14771 0.62152 0.71443
 C2851 C 0.66860 0.13087 0.22647
 C2852 C 0.67915 0.10918 0.22333
 C2853 C 0.66338 0.09959 0.23887
 C2854 C 0.65265 0.12098 0.24196
 C2855 C 0.68354 0.13512 0.24496
 C2856 C 0.66777 0.12555 0.26052
 C2857 C 0.69425 0.11372 0.24186
 C2858 C 0.67831 0.10382 0.25737
 C2859 C 0.65239 0.07971 0.23518
 C2860 C 0.64365 0.06324 0.23198
 C2861 C 0.69492 0.15490 0.24780
 C2862 C 0.70438 0.17121 0.24948
 H2863 H 0.66473 0.14221 0.21379
 H2864 H 0.68371 0.10225 0.20799
 H2865 H 0.63542 0.12374 0.24195
 H2866 H 0.66323 0.13250 0.27585
 H2867 H 0.71148 0.11094 0.24187
 H2868 H 0.68217 0.09246 0.27003
 C2869 C 0.82476 0.12629 0.77461
 C2870 C 0.81608 0.10427 0.76909
 C2871 C 0.83735 0.09874 0.75908
 C2872 C 0.84618 0.12048 0.76465
 C2873 C 0.81722 0.13434 0.75312
 C2874 C 0.83849 0.12884 0.74310
 C2875 C 0.80838 0.11259 0.74755
 C2876 C 0.82982 0.10676 0.73758
 C2877 C 0.84832 0.07885 0.76274
 C2878 C 0.85708 0.06239 0.76599
 C2879 C 0.80588 0.15417 0.75038
 C2880 C 0.79647 0.17052 0.74877
 H2881 H 0.82255 0.13453 0.78981
 H2882 H 0.80699 0.09396 0.77982
 H2883 H 0.86184 0.12351 0.77173
 H2884 H 0.84756 0.13917 0.73237
 H2885 H 0.79272 0.10957 0.74048
 H2886 H 0.83204 0.09849 0.72239
 C2887 C 0.30937 0.61548 0.24401
 C2888 C 0.33184 0.61019 0.23622
 C2889 C 0.33700 0.60119 0.25803
 C2890 C 0.31471 0.60617 0.26585
 C2891 C 0.31735 0.63697 0.25154
 C2892 C 0.32253 0.62793 0.27333
 C2893 C 0.33964 0.63202 0.24370
 C2894 C 0.34498 0.62267 0.26555
 C2895 C 0.34764 0.58118 0.26206
 C2896 C 0.35609 0.56461 0.26565
 C2897 C 0.30615 0.65687 0.24866
 C2898 C 0.29672 0.67322 0.24716
 H2899 H 0.29461 0.61274 0.23511
 H2900 H 0.33580 0.60266 0.22101
 H2901 H 0.30457 0.59534 0.27502
 H2902 H 0.31858 0.63543 0.28856
 H2903 H 0.34976 0.64288 0.23454
 H2904 H 0.35973 0.62541 0.27447
 C2905 C 0.30924 0.38246 0.23619
 C2906 C 0.31556 0.39792 0.25386
 C2907 C 0.33734 0.40019 0.24369
 C2908 C 0.33116 0.38501 0.22598
 C2909 C 0.31785 0.36422 0.24946
 C2910 C 0.33963 0.36649 0.23929
 C2911 C 0.32401 0.37936 0.26720
 C2912 C 0.34599 0.38197 0.25697
 C2913 C 0.34791 0.42029 0.24001
 C2914 C 0.35631 0.43691 0.23663
 C2915 C 0.30674 0.34422 0.25197
 C2916 C 0.29737 0.32782 0.25323
 H2917 H 0.29400 0.38246 0.22768
 H2918 H 0.30578 0.41107 0.25981
 H2919 H 0.33421 0.38754 0.20900
 H2920 H 0.34941 0.35333 0.23334
 H2921 H 0.32094 0.37681 0.28418
 H2922 H 0.36123 0.38200 0.26547
 C2923 C 0.81090 0.88156 0.73542
 C2924 C 0.81764 0.89721 0.75278
 C2925 C 0.83930 0.89907 0.74228
 C2926 C 0.83271 0.88372 0.72489
 C2927 C 0.81948 0.86342 0.74886
 C2928 C 0.84114 0.86529 0.73836
 C2929 C 0.82605 0.87876 0.76628
 C2930 C 0.84791 0.88096 0.75572
 C2931 C 0.85003 0.91904 0.73829
 C2932 C 0.85849 0.93562 0.73484
 C2933 C 0.80818 0.84359 0.75183
 C2934 C 0.79870 0.82729 0.75344
 H2935 H 0.79555 0.88162 0.72712
 H2936 H 0.80808 0.91056 0.75865
 H2937 H 0.83556 0.88596 0.70783
 H2938 H 0.85070 0.85194 0.73248
 H2939 H 0.82318 0.87650 0.78333
 H2940 H 0.86327 0.88093 0.76401
 C2941 C 0.68937 0.88558 0.24495
 C2942 C 0.66742 0.89117 0.23597
 C2943 C 0.66114 0.89995 0.25756
 C2944 C 0.68292 0.89467 0.26656
 C2945 C 0.68081 0.86408 0.25177
 C2946 C 0.67451 0.87290 0.27334
 C2947 C 0.65902 0.86933 0.24275
 C2948 C 0.65257 0.87846 0.26438
 C2949 C 0.65051 0.92004 0.26115
 C2950 C 0.64211 0.93669 0.26433
 C2951 C 0.69201 0.84415 0.24921
 C2952 C 0.70143 0.82779 0.24791
 H2953 H 0.70462 0.88829 0.23692
 H2954 H 0.66436 0.89893 0.22065
 H2955 H 0.69263 0.90530 0.27641
 H2956 H 0.67756 0.86517 0.28868
 H2957 H 0.64934 0.85868 0.23291
 H2958 H 0.63733 0.87575 0.27242
 C2959 C 0.16318 0.36718 0.76829
 C2960 C 0.17365 0.38775 0.77593
 C2961 C 0.16180 0.39984 0.75872
 C2962 C 0.15115 0.37957 0.75110
 C2963 C 0.18145 0.36396 0.75283
 C2964 C 0.16961 0.37603 0.73559
 C2965 C 0.19207 0.38425 0.76044
 C2966 C 0.18007 0.39664 0.74325
 C2967 C 0.15118 0.41992 0.76235
 C2968 C 0.14277 0.43658 0.76556
 C2969 C 0.19265 0.34404 0.75019
 C2970 C 0.20210 0.32770 0.74878
 H2971 H 0.15635 0.35484 0.77855
 H2972 H 0.17520 0.39277 0.79256
 H2973 H 0.13420 0.37787 0.74732
 H2974 H 0.16808 0.37098 0.71897
 H2975 H 0.20901 0.38598 0.76423
 H2976 H 0.18689 0.40898 0.73300
 C2977 C 0.12175 0.73598 0.82502
 C2978 C 0.11954 0.74744 0.84640
 C2979 C 0.10065 0.75964 0.83759
 C2980 C 0.10253 0.74824 0.81641
 C2981 C 0.13617 0.75372 0.81731
 C2982 C 0.11727 0.76592 0.80852
 C2983 C 0.13428 0.76512 0.83849
 C2984 C 0.11509 0.77736 0.82987
 C2985 C 0.08079 0.76324 0.84865
 C2986 C 0.06433 0.76638 0.85747
 C2987 C 0.15596 0.75095 0.80588
 C2988 C 0.17227 0.74930 0.79641
 H2989 H 0.12471 0.71893 0.82290
 H2990 H 0.12025 0.73989 0.86211
 H2991 H 0.08925 0.74134 0.80745
 H2992 H 0.11653 0.77348 0.79282
 H2993 H 0.14756 0.77203 0.84745
 H2994 H 0.11215 0.79442 0.83198
 C2995 C 0.62220 0.23620 0.32372
 C2996 C 0.61985 0.24769 0.34507
 C2997 C 0.60112 0.26000 0.33606
 C2998 C 0.60315 0.24858 0.31490
 C2999 C 0.63681 0.25386 0.31614
 C3000 C 0.61807 0.26617 0.30717
 C3001 C 0.63478 0.26528 0.33730
 C3002 C 0.61575 0.27763 0.32848
 C3003 C 0.58116 0.26371 0.34690
 C3004 C 0.56461 0.26694 0.35552
 C3005 C 0.65666 0.25094 0.30487
 C3006 C 0.67299 0.24916 0.29545
 H3007 H 0.62508 0.21914 0.32163
 H3008 H 0.62035 0.24014 0.36079
 H3009 H 0.58992 0.24176 0.30581
 H3010 H 0.61755 0.27372 0.29145
 H3011 H 0.64801 0.27210 0.34639
 H3012 H 0.61289 0.29470 0.33055
 C3013 C 0.63031 0.73104 0.16756
 C3014 C 0.60875 0.72736 0.17820
 C3015 C 0.59882 0.74318 0.16291
 C3016 C 0.62009 0.74682 0.15210
 C3017 C 0.63450 0.74917 0.18292
 C3018 C 0.62460 0.76502 0.16763
 C3019 C 0.61321 0.74554 0.19371
 C3020 C 0.60298 0.76133 0.17826
 C3021 C 0.57888 0.73941 0.15204
 C3022 C 0.56237 0.73599 0.14340
 C3023 C 0.65436 0.75180 0.19427
 C3024 C 0.67069 0.75313 0.20376
 H3025 H 0.64178 0.71861 0.16328
 H3026 H 0.60204 0.71184 0.18243
 H3027 H 0.62270 0.74728 0.13486
 H3028 H 0.63134 0.78054 0.16343
 H3029 H 0.61059 0.74506 0.21095
 H3030 H 0.59150 0.77374 0.18253
 C3031 C 0.11642 0.26196 0.68442
 C3032 C 0.11382 0.26131 0.66020
 C3033 C 0.10033 0.24142 0.66245
 C3034 C 0.10261 0.24203 0.68648
 C3035 C 0.13594 0.24791 0.68244
 C3036 C 0.12242 0.22803 0.68466
 C3037 C 0.13368 0.24730 0.65841
 C3038 C 0.11986 0.22738 0.66049
 C3039 C 0.08040 0.23745 0.65162
 C3040 C 0.06387 0.23397 0.64305
 C3041 C 0.15576 0.25081 0.69380
 C3042 C 0.17207 0.25235 0.70332
 H3043 H 0.11523 0.27622 0.69437
 H3044 H 0.11005 0.27495 0.64999
 H3045 H 0.08962 0.23980 0.69790
 H3046 H 0.12615 0.21438 0.69486
 H3047 H 0.14668 0.24953 0.64700
 H3048 H 0.12107 0.21311 0.65054
 C3049 C 0.86813 0.26875 0.66516
 C3050 C 0.88912 0.27528 0.67558
 C3051 C 0.90047 0.25827 0.66277
 C3052 C 0.87976 0.25178 0.65217
 C3053 C 0.86475 0.25258 0.68277
 C3054 C 0.87607 0.23555 0.66996
 C3055 C 0.88547 0.25907 0.69335
 C3056 C 0.89711 0.24210 0.68037
 C3057 C 0.92043 0.26178 0.65187
 C3058 C 0.93694 0.26493 0.64317
 C3059 C 0.84488 0.24993 0.69406
 C3060 C 0.82851 0.24834 0.70344
 H3061 H 0.85598 0.27968 0.65903
 H3062 H 0.89470 0.29165 0.67777
 H3063 H 0.87765 0.24883 0.63512
 H3064 H 0.87048 0.21918 0.66779
 H3065 H 0.88760 0.26203 0.71040
 H3066 H 0.90926 0.23118 0.68650
 C3067 C 0.36484 0.76303 0.15988
 C3068 C 0.38335 0.77650 0.16811
 C3069 C 0.39865 0.75900 0.16162
 C3070 C 0.38045 0.74556 0.15321
 C3071 C 0.36303 0.75272 0.18164
 C3072 C 0.37831 0.73520 0.17517
 C3073 C 0.38126 0.76616 0.19001
 C3074 C 0.39685 0.74870 0.18338
 C3075 C 0.41860 0.76285 0.15079
 C3076 C 0.43515 0.76622 0.14222
 C3077 C 0.34322 0.74989 0.19302
 C3078 C 0.32693 0.74837 0.20256
 H3079 H 0.35145 0.76887 0.15033
 H3080 H 0.38563 0.79352 0.16509
 H3081 H 0.38034 0.73715 0.13794
 H3082 H 0.37602 0.71818 0.17820
 H3083 H 0.38140 0.77458 0.20528
 H3084 H 0.41023 0.74286 0.19294
 C3085 C 0.38595 0.24496 0.30635
 C3086 C 0.39646 0.26079 0.32155
 C3087 C 0.40078 0.24270 0.33696
 C3088 C 0.39056 0.22685 0.32191
 C3089 C 0.36483 0.24875 0.31743
 C3090 C 0.36917 0.23067 0.33283
 C3091 C 0.37501 0.26463 0.33247
 C3092 C 0.37968 0.24649 0.34805
 C3093 C 0.42089 0.23894 0.34753
 C3094 C 0.43755 0.23559 0.35590
 C3095 C 0.34484 0.25144 0.30630
 C3096 C 0.32843 0.25284 0.29695
 H3097 H 0.38832 0.24439 0.28908
 H3098 H 0.40792 0.27313 0.31703
 H3099 H 0.39715 0.21127 0.31769
 H3100 H 0.35772 0.21832 0.33736
 H3101 H 0.36840 0.28020 0.33667
 H3102 H 0.37732 0.24706 0.36532
 C3103 C 0.88652 0.74428 0.80817
 C3104 C 0.89696 0.76003 0.82350
 C3105 C 0.90105 0.74189 0.83891
 C3106 C 0.89092 0.72611 0.82373
 C3107 C 0.86532 0.74813 0.81905
 C3108 C 0.86944 0.73000 0.83446
 C3109 C 0.87542 0.76394 0.83422
 C3110 C 0.87986 0.74574 0.84981
 C3111 C 0.92106 0.73805 0.84966
 C3112 C 0.93765 0.73469 0.85817
 C3113 C 0.84544 0.75092 0.80776
 C3114 C 0.82911 0.75240 0.79828
 H3115 H 0.88905 0.74373 0.79092
 H3116 H 0.90851 0.77233 0.81912
 H3117 H 0.89748 0.71052 0.81954
 H3118 H 0.85790 0.71768 0.83885
 H3119 H 0.86883 0.77953 0.83840
 H3120 H 0.87735 0.74628 0.86706
   
