data_POSCAR
  _audit_creation_date              2014-09-24
  _audit_creation_method            'ToBaCCo'
  _symmetry_space_group_name_H-M    'P1'
  _symmetry_Int_Tables_number       1
  _symmetry_cell_setting            triclinic
  loop_
  _symmetry_equiv_pos_as_xyz
 x,y,z
_cell_length_a 73.2701
_cell_length_b 73.2678
_cell_length_c 73.2473
_cell_angle_alpha 90.060800
_cell_angle_beta 90.322400
_cell_angle_gamma 90.384400
loop_
  _atom_site_label
  _atom_site_type_symbol
  _atom_site_fract_x
  _atom_site_fract_y
  _atom_site_fract_z
C1 C 0.73529 0.65885 0.97554
 H2 H 0.74941 0.65913 0.97131
 C3 C 0.72223 0.66874 0.96577
 H4 H 0.72629 0.67676 0.95404
 C5 C 0.71250 0.64737 0.99542
 H6 H 0.70862 0.63864 1.00663
 C7 C 0.69905 0.65705 0.98607
 H8 H 0.68493 0.65587 0.99025
 N9 N 0.73023 0.64841 0.99005
 C10 C 0.77913 0.63811 1.02256
 H11 H 0.77795 0.62342 1.02360
 C12 C 0.79352 0.64722 1.03124
 H13 H 0.80350 0.63953 1.03898
 C14 C 0.76757 0.66608 1.01119
 H15 H 0.75734 0.67336 1.00347
 C16 C 0.78181 0.67575 1.01969
 H17 H 0.78260 0.69046 1.01839
 Zn18 Zn 0.74801 0.63348 1.00135
 N19 N 0.76667 0.64756 1.01258
 C20 C 0.77629 0.61917 0.97936
 N21 N 0.75807 0.61852 0.98291
 C22 C 0.74652 0.60803 0.97268
 C23 C 0.75323 0.59744 0.95835
 C24 C 0.78355 0.60880 0.96518
 C25 C 0.73069 0.62830 1.03470
 C26 C 0.72254 0.61879 1.04903
 C27 C 0.72822 0.59057 1.03292
 C28 C 0.73627 0.60065 1.01886
 N29 N 0.73714 0.61919 1.01991
 H30 H 0.78520 0.62794 0.98728
 H31 H 0.73205 0.60803 0.97557
 H32 H 0.74395 0.58917 0.95022
 H33 H 0.79804 0.60948 0.96239
 H34 H 0.73181 0.64302 1.03527
 H35 H 0.71733 0.62626 1.06066
 H36 H 0.72750 0.57582 1.03190
 H37 H 0.74183 0.59364 1.00720
 C38 C 0.79494 0.66618 1.02972
 C39 C 0.70392 0.66771 0.97103
 C40 C 0.72122 0.59974 1.04811
 C41 C 0.77192 0.59787 0.95458
 C42 C 0.73916 0.34614 0.51959
 H43 H 0.75322 0.34544 0.52409
 C44 C 0.72569 0.33615 0.52873
 H45 H 0.72938 0.32764 0.54024
 C46 C 0.71695 0.35874 0.49966
 H47 H 0.71348 0.36793 0.48870
 C48 C 0.70310 0.34899 0.50839
 H49 H 0.68907 0.35058 0.50396
 N50 N 0.73459 0.35718 0.50537
 C51 C 0.78427 0.36752 0.47442
 H52 H 0.78377 0.38227 0.47404
 C53 C 0.79826 0.35834 0.46551
 H54 H 0.80862 0.36603 0.45828
 C55 C 0.77128 0.33946 0.48420
 H56 H 0.76063 0.33218 0.49134
 C57 C 0.78508 0.32972 0.47544
 H58 H 0.78511 0.31494 0.47597
 Zn59 Zn 0.75298 0.37212 0.49498
 N60 N 0.77127 0.35804 0.48368
 C61 C 0.78136 0.38526 0.51816
 N62 N 0.76323 0.38628 0.51414
 C63 C 0.75180 0.39660 0.52440
 C64 C 0.75855 0.40665 0.53922
 C65 C 0.78867 0.39508 0.53285
 C66 C 0.73621 0.37873 0.46146
 C67 C 0.72850 0.38888 0.44730
 C68 C 0.73487 0.41641 0.46447
 C69 C 0.74248 0.40573 0.47833
 N70 N 0.74279 0.38722 0.47668
 H71 H 0.79016 0.37663 0.51019
 H72 H 0.73739 0.39689 0.52112
 H73 H 0.74936 0.41479 0.54735
 H74 H 0.80310 0.39413 0.53601
 H75 H 0.73688 0.36402 0.46040
 H76 H 0.72316 0.38198 0.43530
 H77 H 0.73455 0.43112 0.46590
 H78 H 0.74813 0.41226 0.49034
 C79 C 0.79870 0.33929 0.46607
 C80 C 0.70748 0.33771 0.52313
 C81 C 0.72776 0.40787 0.44886
 C82 C 0.77716 0.40584 0.54348
 C83 C 0.23993 -0.15388 0.01936
 H84 H 0.25400 -0.15458 0.02385
 C85 C 0.22646 -0.16383 0.02855
 H86 H 0.23015 -0.17229 0.04009
 C87 C 0.21771 -0.14134 -0.00059
 H88 H 0.21423 -0.13218 -0.01158
 C89 C 0.20386 -0.15104 0.00819
 H90 H 0.18983 -0.14946 0.00377
 N91 N 0.23535 -0.14290 0.00510
 C92 C 0.28500 -0.13273 -0.02597
 H93 H 0.28452 -0.11799 -0.02641
 C94 C 0.29897 -0.14197 -0.03485
 H95 H 0.30933 -0.13432 -0.04212
 C96 C 0.27200 -0.16074 -0.01604
 H97 H 0.26135 -0.16797 -0.00885
 C98 C 0.28578 -0.17053 -0.02477
 H99 H 0.28580 -0.18530 -0.02417
 Zn100 Zn 0.25373 -0.12801 -0.00538
 N101 N 0.27200 -0.14216 -0.01664
 C102 C 0.28217 -0.11477 0.01769
 N103 N 0.26403 -0.11376 0.01370
 C104 C 0.25262 -0.10339 0.02393
 C105 C 0.25940 -0.09328 0.03869
 C106 C 0.28951 -0.10488 0.03233
 C107 C 0.23693 -0.12156 -0.03891
 C108 C 0.22915 -0.11150 -0.05309
 C109 C 0.23551 -0.08386 -0.03604
 C110 C 0.24318 -0.09448 -0.02216
 N111 N 0.24352 -0.11299 -0.02374
 H112 H 0.29095 -0.12344 0.00974
 H113 H 0.23820 -0.10311 0.02067
 H114 H 0.25022 -0.08511 0.04681
 H115 H 0.30394 -0.10583 0.03547
 H116 H 0.23762 -0.13627 -0.03990
 H117 H 0.22381 -0.11854 -0.06503
 H118 H 0.23518 -0.06914 -0.03458
 H119 H 0.24884 -0.08790 -0.01019
 C120 C 0.29940 -0.16102 -0.03420
 C121 C 0.20825 -0.16227 0.02297
 C122 C 0.22835 -0.09247 -0.05162
 C123 C 0.27802 -0.09407 0.04293
 C124 C 0.23520 0.15783 0.47500
 H125 H 0.24931 0.15807 0.47073
 C126 C 0.22212 0.16768 0.46521
 H127 H 0.22615 0.17562 0.45342
 C128 C 0.21246 0.14647 0.49501
 H129 H 0.20861 0.13780 0.50627
 C130 C 0.19899 0.15611 0.48563
 H131 H 0.18488 0.15496 0.48986
 N132 N 0.23017 0.14747 0.48958
 C133 C 0.27920 0.13725 0.52192
 H134 H 0.27803 0.12256 0.52298
 C135 C 0.29360 0.14638 0.53057
 H136 H 0.30360 0.13871 0.53830
 C137 C 0.26757 0.16520 0.51057
 H138 H 0.25731 0.17246 0.50288
 C139 C 0.28181 0.17489 0.51904
 H140 H 0.28257 0.18960 0.51774
 Zn141 Zn 0.24798 0.13258 0.50087
 N142 N 0.26669 0.14668 0.51198
 C143 C 0.27614 0.11812 0.47880
 N144 N 0.25794 0.11752 0.48245
 C145 C 0.24631 0.10700 0.47233
 C146 C 0.25293 0.09634 0.45802
 C147 C 0.28330 0.10767 0.46464
 C148 C 0.23079 0.12754 0.53432
 C149 C 0.22279 0.11806 0.54875
 C150 C 0.22845 0.08980 0.53276
 C151 C 0.23636 0.09982 0.51859
 N152 N 0.23719 0.11837 0.51954
 H153 H 0.28511 0.12690 0.48664
 H154 H 0.23186 0.10705 0.47529
 H155 H 0.24358 0.08805 0.44997
 H156 H 0.29778 0.10830 0.46176
 H157 H 0.23187 0.14226 0.53482
 H158 H 0.21763 0.12548 0.56041
 H159 H 0.22775 0.07505 0.53191
 H160 H 0.24188 0.09276 0.50693
 C161 C 0.29497 0.16535 0.52905
 C162 C 0.20383 0.16668 0.47052
 C163 C 0.22156 0.09903 0.54794
 C164 C 0.27159 0.09671 0.45414
 C165 C 0.15836 0.47715 0.23513
 H166 H 0.15845 0.47289 0.24927
 C167 C 0.16836 0.46741 0.22220
 H168 H 0.17626 0.45568 0.22638
 C169 C 0.14724 0.49705 0.21216
 H170 H 0.13860 0.50825 0.20816
 C171 C 0.15703 0.48773 0.19883
 H172 H 0.15602 0.49191 0.18468
 N173 N 0.14804 0.49164 0.22991
 C174 C 0.13707 0.52380 0.27873
 H175 H 0.12239 0.52471 0.27740
 C176 C 0.14599 0.53250 0.29320
 H177 H 0.13817 0.54012 0.30311
 C178 C 0.16520 0.51276 0.26741
 H179 H 0.17261 0.50517 0.25724
 C180 C 0.17469 0.52128 0.28174
 H181 H 0.18940 0.52013 0.28266
 Zn182 Zn 0.13287 0.50276 0.24751
 N183 N 0.14669 0.51399 0.26634
 C184 C 0.11819 0.48046 0.27556
 N185 N 0.11780 0.48415 0.25735
 C186 C 0.10754 0.47391 0.24560
 C187 C 0.09694 0.45941 0.25211
 C188 C 0.10780 0.46610 0.28262
 C189 C 0.12784 0.53615 0.23011
 C190 C 0.11837 0.55046 0.22191
 C191 C 0.09014 0.53413 0.22733
 C192 C 0.10015 0.52009 0.23544
 N193 N 0.11868 0.52126 0.23648
 H194 H 0.12678 0.48841 0.28462
 H195 H 0.10775 0.47692 0.23115
 H196 H 0.08887 0.45126 0.24267
 H197 H 0.10828 0.46318 0.29711
 H198 H 0.14254 0.53683 0.23136
 H199 H 0.12578 0.56220 0.21677
 H200 H 0.07540 0.53309 0.22645
 H201 H 0.09309 0.50835 0.24093
 C202 C 0.16495 0.53116 0.29478
 C203 C 0.16755 0.47268 0.20386
 C204 C 0.09936 0.54940 0.22045
 C205 C 0.09712 0.45547 0.27079
 C206 C -0.15541 0.01990 0.23863
 H207 H -0.15599 0.02430 0.25272
 C208 C -0.16541 0.02914 0.22525
 H209 H -0.17381 0.04063 0.22907
 C210 C -0.14303 0.00014 0.21628
 H211 H -0.13391 -0.01078 0.21271
 C212 C -0.15279 0.00897 0.20251
 H213 H -0.15126 0.00461 0.18845
 N214 N -0.14446 0.00572 0.23394
 C215 C -0.13365 -0.02548 0.28348
 H216 H -0.11891 -0.02579 0.28279
 C217 C -0.14268 -0.03453 0.29755
 H218 H -0.13489 -0.04180 0.30780
 C219 C -0.16184 -0.01573 0.27086
 H220 H -0.16922 -0.00854 0.26031
 C221 C -0.17144 -0.02463 0.28475
 H222 H -0.18621 -0.02416 0.28497
 Zn223 Zn -0.12936 -0.00471 0.25216
 N224 N -0.14326 -0.01617 0.27061
 C225 C -0.11583 0.01836 0.28043
 N226 N -0.11507 0.01446 0.26227
 C227 C -0.10491 0.02483 0.25068
 C228 C -0.09477 0.03966 0.25731
 C229 C -0.10590 0.03306 0.28760
 C230 C -0.12294 -0.03811 0.23528
 C231 C -0.11287 -0.05214 0.22741
 C232 C -0.08529 -0.03484 0.23345
 C233 C -0.09588 -0.02110 0.24122
 N234 N -0.11438 -0.02287 0.24178
 H235 H -0.12433 0.01028 0.28935
 H236 H -0.10483 0.02164 0.23626
 H237 H -0.08676 0.04789 0.24800
 H238 H -0.10664 0.03612 0.30205
 H239 H -0.13763 -0.03926 0.23614
 H240 H -0.11982 -0.06415 0.22213
 H241 H -0.07058 -0.03331 0.23292
 H242 H -0.08930 -0.00908 0.24681
 C243 C -0.16173 -0.03406 0.29823
 C244 C -0.16396 0.02370 0.20699
 C245 C -0.09389 -0.05045 0.22641
 C246 C -0.09530 0.04381 0.27594
 C247 C 0.34405 0.51866 0.73999
 H248 H 0.34350 0.52301 0.75409
 C249 C 0.33402 0.52795 0.72667
 H250 H 0.32563 0.53944 0.73051
 C251 C 0.35635 0.49898 0.71753
 H252 H 0.36546 0.48806 0.71389
 C253 C 0.34655 0.50786 0.70383
 H254 H 0.34802 0.50361 0.68974
 N255 N 0.35497 0.50449 0.73522
 C256 C 0.36588 0.47315 0.78465
 H257 H 0.38062 0.47285 0.78396
 C258 C 0.35686 0.46406 0.79871
 H259 H 0.36466 0.45676 0.80893
 C260 C 0.33768 0.48293 0.77207
 H261 H 0.33029 0.49014 0.76155
 C262 C 0.32809 0.47398 0.78595
 H263 H 0.31332 0.47443 0.78617
 Zn264 Zn 0.37012 0.49400 0.75337
 N265 N 0.35626 0.48250 0.77182
 C266 C 0.38377 0.51699 0.78165
 N267 N 0.38445 0.51313 0.76348
 C268 C 0.39457 0.52353 0.75188
 C269 C 0.40476 0.53832 0.75851
 C270 C 0.39375 0.53165 0.78883
 C271 C 0.37651 0.46066 0.73635
 C272 C 0.38656 0.44665 0.72842
 C273 C 0.41416 0.46392 0.73450
 C274 C 0.40358 0.47763 0.74233
 N275 N 0.38508 0.47586 0.74289
 H276 H 0.37529 0.50890 0.79059
 H277 H 0.39460 0.52037 0.73745
 H278 H 0.41275 0.54656 0.74918
 H279 H 0.39308 0.53468 0.80329
 H280 H 0.36181 0.45951 0.73721
 H281 H 0.37960 0.43466 0.72310
 H282 H 0.42886 0.46544 0.73397
 H283 H 0.41017 0.48962 0.74796
 C284 C 0.33781 0.46451 0.79940
 C285 C 0.33542 0.52257 0.70840
 C286 C 0.40554 0.44833 0.72741
 C287 C 0.40432 0.54242 0.77715
 C288 C 0.65862 0.97707 0.73530
 H289 H 0.65875 0.97273 0.74941
 C290 C 0.66867 0.96748 0.72230
 H291 H 0.67665 0.95577 0.72641
 C292 C 0.64735 0.99704 0.71245
 H293 H 0.63863 1.00819 0.70852
 C294 C 0.65719 0.98785 0.69906
 H295 H 0.65614 0.99212 0.68494
 N296 N 0.64819 0.99152 0.73018
 C297 C 0.63700 1.02336 0.77915
 H298 H 0.62231 1.02418 0.77782
 C299 C 0.64585 1.03207 0.79367
 H300 H 0.63793 1.03958 0.80358
 C301 C 0.66521 1.01257 0.76780
 H302 H 0.67267 1.00507 0.75759
 C303 C 0.67464 1.02108 0.78216
 H304 H 0.68936 1.02000 0.78304
 Zn305 Zn 0.63295 1.00245 0.74783
 N306 N 0.64669 1.01367 0.76672
 C307 C 0.61838 0.97993 0.77577
 N308 N 0.61800 0.98370 0.75757
 C309 C 0.60781 0.97344 0.74577
 C310 C 0.59728 0.95885 0.75221
 C311 C 0.60806 0.96549 0.78276
 C312 C 0.62770 1.03589 0.73061
 C313 C 0.61815 1.05015 0.72242
 C314 C 0.59003 1.03358 0.72769
 C315 C 0.60012 1.01960 0.73580
 N316 N 0.61864 1.02091 0.73689
 H317 H 0.62691 0.98789 0.78488
 H318 H 0.60803 0.97651 0.73133
 H319 H 0.58928 0.95070 0.74272
 H320 H 0.60852 0.96252 0.79724
 H321 H 0.64240 1.03668 0.73190
 H322 H 0.62549 1.06196 0.71733
 H323 H 0.57531 1.03243 0.72676
 H324 H 0.59314 1.00779 0.74122
 C325 C 0.66483 1.03085 0.79526
 C326 C 0.66781 0.97285 0.70400
 C327 C 0.59915 1.04894 0.72089
 C328 C 0.59745 0.95485 0.77087
 C329 C 0.01944 0.23783 -0.15346
 H330 H 0.02392 0.25192 -0.15386
 C331 C 0.02879 0.22459 -0.16342
 H332 H 0.04045 0.22848 -0.17161
 C333 C -0.00063 0.21530 -0.14160
 H334 H -0.01173 0.21160 -0.13268
 C335 C 0.00831 0.20167 -0.15133
 H336 H 0.00391 0.18759 -0.15002
 N337 N 0.00505 0.23298 -0.14279
 C338 C -0.02601 0.28242 -0.13216
 H339 H -0.02660 0.28157 -0.11743
 C340 C -0.03475 0.29663 -0.14125
 H341 H -0.04206 0.30683 -0.13351
 C342 C -0.01586 0.27008 -0.16026
 H343 H -0.00863 0.25960 -0.16760
 C344 C -0.02444 0.28412 -0.16992
 H345 H -0.02369 0.28452 -0.18468
 Zn346 Zn -0.00554 0.25103 -0.12773
 N347 N -0.01664 0.26963 -0.14170
 C348 C 0.01751 0.27912 -0.11374
 N349 N 0.01346 0.26097 -0.11310
 C350 C 0.02359 0.24929 -0.10283
 C351 C 0.03833 0.25580 -0.09247
 C352 C 0.03212 0.28619 -0.10359
 C353 C -0.03913 0.23406 -0.12190
 C354 C -0.05341 0.22617 -0.11208
 C355 C -0.03656 0.23209 -0.08418
 C356 C -0.02257 0.23988 -0.09455
 N357 N -0.02401 0.24050 -0.11308
 H358 H 0.00964 0.28813 -0.12233
 H359 H 0.02029 0.23487 -0.10284
 H360 H 0.04637 0.24641 -0.08439
 H361 H 0.03532 0.30063 -0.10425
 H362 H -0.04001 0.23498 -0.13661
 H363 H -0.06532 0.22097 -0.11931
 H364 H -0.03522 0.23157 -0.06944
 H365 H -0.01065 0.24544 -0.08778
 C366 C -0.03391 0.29754 -0.16028
 C367 C 0.02324 0.20633 -0.16221
 C368 C -0.05210 0.22511 -0.09304
 C369 C 0.04263 0.27442 -0.09289
 C370 C 0.47726 0.23572 0.15956
 H371 H 0.47305 0.24984 0.15979
 C372 C 0.46752 0.22264 0.16950
 H373 H 0.45584 0.22669 0.17750
 C374 C 0.49702 0.21294 0.14810
 H375 H 0.50814 0.20908 0.13935
 C376 C 0.48769 0.19947 0.15783
 H377 H 0.49181 0.18535 0.15667
 N378 N 0.49167 0.23067 0.14909
 C379 C 0.52404 0.27959 0.13813
 H380 H 0.52487 0.27837 0.12344
 C381 C 0.53285 0.29401 0.14705
 H382 H 0.54048 0.30397 0.13921
 C383 C 0.51305 0.26809 0.16631
 H384 H 0.50542 0.25788 0.17374
 C385 C 0.52168 0.28236 0.17579
 H386 H 0.52059 0.28319 0.19051
 Zn387 Zn 0.50277 0.24845 0.13394
 N388 N 0.51419 0.26714 0.14778
 C389 C 0.48057 0.27665 0.11959
 N390 N 0.48412 0.25844 0.11908
 C391 C 0.47373 0.24682 0.10882
 C392 C 0.45922 0.25346 0.09835
 C393 C 0.46621 0.28384 0.10933
 C394 C 0.53604 0.23115 0.12853
 C395 C 0.55020 0.22298 0.11889
 C396 C 0.53364 0.22858 0.09084
 C397 C 0.51976 0.23665 0.10101
 N398 N 0.52111 0.23757 0.11954
 H399 H 0.48863 0.28562 0.12817
 H400 H 0.47663 0.23236 0.10894
 H401 H 0.45095 0.24412 0.09028
 H402 H 0.46341 0.29833 0.10990
 H403 H 0.53686 0.23230 0.14323
 H404 H 0.56196 0.21777 0.12618
 H405 H 0.53245 0.22778 0.07611
 H406 H 0.50799 0.24218 0.09408
 C407 C 0.53159 0.29547 0.16602
 C408 C 0.47272 0.20433 0.16849
 C409 C 0.54894 0.22162 0.09989
 C410 C 0.45543 0.27214 0.09865
 C411 C 0.97614 0.73556 0.65903
 H412 H 0.97196 0.74969 0.65930
 C413 C 0.96636 0.72247 0.66892
 H414 H 0.95467 0.72652 0.67692
 C415 C 0.99589 0.71278 0.64758
 H416 H 1.00704 0.70892 0.63885
 C417 C 0.98652 0.69930 0.65725
 H418 H 0.99063 0.68517 0.65608
 N419 N 0.99058 0.73052 0.64860
 C420 C 1.02312 0.77942 0.63811
 H421 H 1.02403 0.77830 0.62341
 C422 C 1.03194 0.79374 0.64716
 H423 H 1.03964 0.80374 0.63944
 C424 C 1.01197 0.76774 0.66614
 H425 H 1.00428 0.75749 0.67346
 C426 C 1.02060 0.78191 0.67577
 H427 H 1.01945 0.78263 0.69049
 Zn428 Zn 1.00181 0.74833 0.63360
 N429 N 1.01320 0.76693 0.64761
 C430 C 0.97978 0.77667 0.61924
 N431 N 0.98329 0.75845 0.61866
 C432 C 0.97296 0.74691 0.60825
 C433 C 0.95856 0.75364 0.59769
 C434 C 0.96553 0.78395 0.60889
 C435 C 1.03508 0.73098 0.62834
 C436 C 1.04929 0.72285 0.61877
 C437 C 1.03297 0.72863 0.59062
 C438 C 1.01902 0.73667 0.60073
 N439 N 1.02023 0.73749 0.61927
 H440 H 0.98779 0.78557 0.62794
 H441 H 0.97582 0.73245 0.60832
 H442 H 0.95034 0.74437 0.58950
 H443 H 0.96276 0.79844 0.60951
 H444 H 1.03578 0.73205 0.64306
 H445 H 1.06100 0.71759 0.62612
 H446 H 1.03190 0.72792 0.57588
 H447 H 1.00732 0.74227 0.59374
 C448 C 1.03059 0.79506 0.66614
 C449 C 0.97153 0.70416 0.66789
 C450 C 1.04820 0.72161 0.59975
 C451 C 0.95481 0.77233 0.59805
 C452 C 0.51987 0.73918 0.34562
 H453 H 0.52419 0.75332 0.34512
 C454 C 0.52922 0.72601 0.33555
 H455 H 0.54071 0.73001 0.32718
 C456 C 0.50021 0.71647 0.35782
 H457 H 0.48927 0.71268 0.36689
 C458 C 0.50915 0.70291 0.34798
 H459 H 0.50492 0.68879 0.34938
 N460 N 0.50568 0.73421 0.35650
 C461 C 0.47412 0.78325 0.36738
 H462 H 0.47375 0.78243 0.38212
 C463 C 0.46503 0.79730 0.35838
 H464 H 0.45767 0.80737 0.36624
 C465 C 0.48410 0.77101 0.33918
 H466 H 0.49139 0.76061 0.33178
 C467 C 0.47517 0.78488 0.32960
 H468 H 0.47573 0.78520 0.31482
 Zn469 Zn 0.49507 0.75217 0.37164
 N470 N 0.48357 0.77059 0.35775
 C471 C 0.51788 0.78060 0.38532
 N472 N 0.51410 0.76240 0.38604
 C473 C 0.52447 0.75088 0.39626
 C474 C 0.53918 0.75763 0.40651
 C475 C 0.53246 0.78790 0.39536
 C476 C 0.46173 0.73486 0.37788
 C477 C 0.44762 0.72690 0.38788
 C478 C 0.46469 0.73307 0.41557
 C479 C 0.47851 0.74093 0.40504
 N480 N 0.47688 0.74148 0.38652
 H481 H 0.50982 0.78947 0.37678
 H482 H 0.52137 0.73643 0.39631
 H483 H 0.54741 0.74838 0.41457
 H484 H 0.53543 0.80238 0.39466
 H485 H 0.46069 0.73572 0.36317
 H486 H 0.43566 0.72156 0.38088
 H487 H 0.46608 0.73259 0.43030
 H488 H 0.49045 0.74662 0.41168
 C489 C 0.46559 0.79817 0.33932
 C490 C 0.52387 0.70770 0.33687
 C491 C 0.44914 0.72595 0.40689
 C492 C 0.54320 0.77631 0.40602
 C493 C 0.35743 -0.00368 0.22645
 C494 C 0.36427 0.00551 0.24190
 C495 C 0.37157 0.02319 0.23998
 C496 C 0.37220 0.03148 0.22278
 C497 C 0.36521 0.02230 0.20747
 C498 C 0.35775 0.00476 0.20930
 C499 C 0.36392 -0.00339 0.26000
 C500 C 0.37130 -0.02089 0.26231
 C501 C 0.37128 -0.02917 0.27954
 C502 C 0.36356 -0.02015 0.29445
 C503 C 0.35604 -0.00278 0.29221
 C504 C 0.35636 0.00565 0.27506
 H505 H 0.35166 -0.01727 0.22781
 H506 H 0.37710 0.03029 0.25179
 H507 H 0.37739 -0.02788 0.25082
 H508 H 0.35054 0.01912 0.27338
 H509 H 0.36565 0.02874 0.19415
 H510 H 0.36350 -0.02658 0.30778
 C511 C 0.13479 1.00887 0.72673
 C512 C 0.12799 0.99963 0.74208
 C513 C 0.12076 0.98193 0.74003
 C514 C 0.12020 0.97363 0.72280
 C515 C 0.12716 0.98286 0.70759
 C516 C 0.13454 1.00043 0.70956
 C517 C 0.12849 1.00845 0.76023
 C518 C 0.12114 1.02594 0.76267
 C519 C 0.12142 1.03417 0.77994
 C520 C 0.12936 1.02511 0.79477
 C521 C 0.13686 1.00775 0.79241
 C522 C 0.13628 0.99937 0.77522
 H523 H 0.14056 1.02246 0.72821
 H524 H 0.11531 0.97477 0.75176
 H525 H 0.11491 1.03297 0.75122
 H526 H 0.14212 0.98593 0.77344
 H527 H 0.12683 0.97638 0.69427
 H528 H 0.12965 1.03151 0.80813
 C529 C 0.63486 0.51021 0.22518
 C530 C 0.62810 0.50096 0.24054
 C531 C 0.62096 0.48322 0.23850
 C532 C 0.62045 0.47490 0.22128
 C533 C 0.62737 0.48414 0.20607
 C534 C 0.63465 0.50175 0.20802
 C535 C 0.62855 0.50980 0.25868
 C536 C 0.62126 0.52733 0.26107
 C537 C 0.62152 0.53559 0.27833
 C538 C 0.62938 0.52651 0.29320
 C539 C 0.63682 0.50912 0.29089
 C540 C 0.63626 0.50072 0.27371
 H541 H 0.64056 0.52383 0.22665
 H542 H 0.61553 0.47604 0.25024
 H543 H 0.61508 0.53436 0.24960
 H544 H 0.64206 0.48726 0.27197
 H545 H 0.62708 0.47765 0.19275
 H546 H 0.62965 0.53293 0.30655
 C547 C 0.85675 0.49617 0.72704
 C548 C 0.86363 0.50543 0.74245
 C549 C 0.87091 0.52310 0.74044
 C550 C 0.87146 0.53134 0.72321
 C551 C 0.86442 0.52210 0.70795
 C552 C 0.85701 0.50455 0.70987
 C553 C 0.86333 0.49659 0.76058
 C554 C 0.87057 0.47903 0.76292
 C555 C 0.87055 0.47080 0.78017
 C556 C 0.86299 0.47994 0.79509
 C557 C 0.85560 0.49736 0.79283
 C558 C 0.85591 0.50574 0.77566
 H559 H 0.85099 0.48258 0.72847
 H560 H 0.87647 0.53026 0.75220
 H561 H 0.87654 0.47196 0.75142
 H562 H 0.85018 0.51924 0.77397
 H563 H 0.86481 0.52850 0.69461
 H564 H 0.86293 0.47354 0.80843
 C565 C 0.22553 0.35455 -0.00145
 C566 C 0.24090 0.36159 0.00779
 C567 C 0.23890 0.36875 0.02547
 C568 C 0.22171 0.36903 0.03373
 C569 C 0.20649 0.36184 0.02449
 C570 C 0.20841 0.35454 0.00695
 C571 C 0.25898 0.36158 -0.00105
 C572 C 0.26115 0.36901 -0.01859
 C573 C 0.27836 0.36929 -0.02682
 C574 C 0.29340 0.36184 -0.01771
 C575 C 0.29131 0.35426 -0.00030
 C576 C 0.27418 0.35427 0.00807
 H577 H 0.22696 0.34888 -0.01504
 H578 H 0.25063 0.37443 0.03262
 H579 H 0.24955 0.37490 -0.02564
 H580 H 0.27262 0.34840 0.02156
 H581 H 0.19319 0.36202 0.03090
 H582 H 0.30672 0.36201 -0.02410
 C583 C 0.72556 0.13346 1.00864
 C584 C 0.74078 0.12658 0.99937
 C585 C 0.73853 0.11943 0.98168
 C586 C 0.72124 0.11902 0.97344
 C587 C 0.70617 0.12606 0.98270
 C588 C 0.70834 0.13335 1.00026
 C589 C 0.75899 0.12691 1.00814
 C590 C 0.76146 0.11961 1.02571
 C591 C 0.77876 0.11980 1.03394
 C592 C 0.79362 0.12760 1.02479
 C593 C 0.79123 0.13505 1.00735
 C594 C 0.77400 0.13456 0.99899
 H595 H 0.72719 0.13917 1.02222
 H596 H 0.75016 0.11392 0.97449
 H597 H 0.75000 0.11350 1.03281
 H598 H 0.77219 0.14038 0.98550
 H599 H 0.69280 0.12584 0.97627
 H600 H 0.80700 0.12783 1.03119
 C601 C 0.22546 0.63386 0.50927
 C602 C 0.24071 0.62699 0.50006
 C603 C 0.23854 0.61989 0.48235
 C604 C 0.22129 0.61951 0.47402
 C605 C 0.20618 0.62654 0.48323
 C606 C 0.20827 0.63379 0.50081
 C607 C 0.25888 0.62726 0.50893
 C608 C 0.26124 0.61990 0.52648
 C609 C 0.27851 0.62001 0.53479
 C610 C 0.29343 0.62778 0.52572
 C611 C 0.29114 0.63529 0.50830
 C612 C 0.27395 0.63489 0.49986
 H613 H 0.22703 0.63954 0.52287
 H614 H 0.25020 0.61438 0.47520
 H615 H 0.24973 0.61381 0.53351
 H616 H 0.27222 0.64076 0.48638
 H617 H 0.19284 0.62635 0.47674
 H618 H 0.30679 0.62794 0.53219
 C619 C 0.72594 0.85668 0.49762
 C620 C 0.74132 0.86359 0.50692
 C621 C 0.73934 0.87064 0.52465
 C622 C 0.72214 0.87093 0.53289
 C623 C 0.70691 0.86386 0.52360
 C624 C 0.70881 0.85667 0.50601
 C625 C 0.75942 0.86356 0.49809
 C626 C 0.76162 0.87103 0.48057
 C627 C 0.77883 0.87125 0.47234
 C628 C 0.79384 0.86370 0.48144
 C629 C 0.79172 0.85609 0.49882
 C630 C 0.77458 0.85615 0.50719
 H631 H 0.72736 0.85109 0.48400
 H632 H 0.75108 0.87623 0.53184
 H633 H 0.75005 0.87699 0.47353
 H634 H 0.77299 0.85024 0.52066
 H635 H 0.69360 0.86404 0.53001
 H636 H 0.80716 0.86383 0.47504
 C637 C -0.00385 0.22661 0.35605
 C638 C 0.00547 0.24197 0.36296
 C639 C 0.02312 0.23992 0.37025
 C640 C 0.03127 0.22269 0.37078
 C641 C 0.02196 0.20748 0.36372
 C642 C 0.00444 0.20944 0.35628
 C643 C -0.00326 0.26009 0.36265
 C644 C -0.02082 0.26239 0.36991
 C645 C -0.02899 0.27962 0.36982
 C646 C -0.01980 0.29455 0.36217
 C647 C -0.00238 0.29233 0.35478
 C648 C 0.00594 0.27518 0.35516
 H649 H -0.01742 0.22807 0.35027
 H650 H 0.03033 0.25165 0.37584
 H651 H -0.02794 0.25087 0.37592
 H652 H 0.01943 0.27351 0.34941
 H653 H 0.02829 0.19415 0.36407
 H654 H -0.02616 0.30788 0.36204
 C655 C 1.00919 0.72755 0.13285
 C656 C 0.99995 0.74286 0.12601
 C657 C 0.98228 0.74070 0.11875
 C658 C 0.97401 0.72341 0.11820
 C659 C 0.98324 0.70826 0.12519
 C660 C 1.00078 0.71033 0.13259
 C661 C 1.00873 0.76108 0.12656
 C662 C 1.02642 0.76361 0.11963
 C663 C 1.03467 0.78090 0.12008
 C664 C 1.02542 0.79569 0.12775
 C665 C 1.00786 0.79323 0.13481
 C666 C 0.99948 0.77601 0.13407
 H667 H 1.02275 0.72911 0.13867
 H668 H 0.97510 0.75239 0.11327
 H669 H 1.03360 0.75221 0.11363
 H670 H 0.98590 0.77416 0.13962
 H671 H 0.97679 0.69489 0.12488
 H672 H 1.03185 0.80906 0.12818
 C673 C 0.50876 0.22677 0.63307
 C674 C 0.49954 0.24209 0.62624
 C675 C 0.48189 0.23994 0.61890
 C676 C 0.47364 0.22265 0.61826
 C677 C 0.48286 0.20748 0.62525
 C678 C 0.50037 0.20954 0.63272
 C679 C 0.50831 0.26031 0.62686
 C680 C 0.52598 0.26289 0.61991
 C681 C 0.53420 0.28019 0.62040
 C682 C 0.52495 0.29494 0.62813
 C683 C 0.50741 0.29244 0.63523
 C684 C 0.49905 0.27521 0.63445
 H685 H 0.52231 0.22832 0.63893
 H686 H 0.47473 0.25165 0.61344
 H687 H 0.53316 0.25152 0.61385
 H688 H 0.48548 0.27332 0.64000
 H689 H 0.47642 0.19411 0.62486
 H690 H 0.53136 0.30832 0.62860
 C691 C 0.49642 0.72563 0.85563
 C692 C 0.50584 0.74102 0.86235
 C693 C 0.52361 0.73901 0.86935
 C694 C 0.53179 0.72179 0.86978
 C695 C 0.52237 0.70655 0.86292
 C696 C 0.50473 0.70847 0.85578
 C697 C 0.49710 0.75915 0.86211
 C698 C 0.47958 0.76145 0.86945
 C699 C 0.47142 0.77868 0.86943
 C700 C 0.48058 0.79362 0.86177
 C701 C 0.49796 0.79141 0.85429
 C702 C 0.50627 0.77425 0.85459
 H703 H 0.48276 0.72706 0.85006
 H704 H 0.53091 0.75076 0.87477
 H705 H 0.47248 0.74993 0.87549
 H706 H 0.51972 0.77259 0.84876
 H707 H 0.52872 0.69322 0.86320
 H708 H 0.47423 0.80695 0.86169
 C709 C 0.45688 -0.18802 0.33049
 C710 C 0.44906 -0.17549 0.32330
 C711 C 0.43961 -0.16018 0.31550
 C712 C 0.42174 -0.15640 0.32090
 C713 C 0.41295 -0.14078 0.31450
 C714 C 0.42195 -0.12867 0.30262
 C715 C 0.43979 -0.13279 0.29696
 C716 C 0.44855 -0.14844 0.30338
 C717 C 0.41305 -0.11142 0.29687
 C718 C 0.42313 -0.09502 0.29631
 C719 C 0.41457 -0.07858 0.29196
 C720 C 0.39585 -0.07830 0.28809
 C721 C 0.38576 -0.09458 0.28829
 C722 C 0.39429 -0.11105 0.29264
 C723 C 0.38695 -0.06119 0.28462
 C724 C 0.37969 -0.04669 0.28211
 H725 H 0.41474 -0.16533 0.33039
 H726 H 0.39933 -0.13787 0.31933
 H727 H 0.44699 -0.12385 0.28765
 H728 H 0.46240 -0.15121 0.29914
 H729 H 0.43752 -0.09479 0.29976
 H730 H 0.42250 -0.06604 0.29194
 H731 H 0.37126 -0.09452 0.28531
 H732 H 0.38621 -0.12347 0.29275
 C733 C 0.95729 0.31233 0.83032
 C734 C 0.94981 0.32505 0.82310
 C735 C 0.94078 0.34058 0.81523
 C736 C 0.95025 0.35711 0.81327
 C737 C 0.94117 0.37262 0.80701
 C738 C 0.92245 0.37183 0.80266
 C739 C 0.91314 0.35506 0.80431
 C740 C 0.92225 0.33954 0.81058
 C741 C 0.91256 0.38862 0.79722
 C742 C 0.89506 0.39218 0.80417
 C743 C 0.88617 0.40847 0.79993
 C744 C 0.89459 0.42140 0.78867
 C745 C 0.91185 0.41785 0.78142
 C746 C 0.92078 0.40157 0.78565
 C747 C 0.88589 0.43862 0.78524
 C748 C 0.87879 0.45320 0.78274
 H749 H 0.96456 0.35810 0.81698
 H750 H 0.94867 0.38538 0.80614
 H751 H 0.89878 0.35396 0.80087
 H752 H 0.91478 0.32683 0.81209
 H753 H 0.88848 0.38263 0.81332
 H754 H 0.87286 0.41112 0.80570
 H755 H 0.91850 0.42777 0.77270
 H756 H 0.93413 0.39914 0.77993
 C757 C 0.03340 1.19217 0.82888
 C758 C 0.04188 1.17990 0.82206
 C759 C 0.05190 1.16480 0.81466
 C760 C 0.04410 1.15378 0.80106
 C761 C 0.05325 1.13825 0.79494
 C762 C 0.07032 1.13354 0.80240
 C763 C 0.07822 1.14495 0.81578
 C764 C 0.06905 1.16046 0.82187
 C765 C 0.07949 1.11637 0.79691
 C766 C 0.09856 1.11578 0.79481
 C767 C 0.10721 1.09935 0.79063
 C768 C 0.09693 1.08332 0.78849
 C769 C 0.07794 1.08382 0.79027
 C770 C 0.06926 1.10022 0.79444
 C771 C 0.10584 1.06621 0.78511
 C772 C 0.11308 1.05170 0.78260
 H773 H 0.03081 1.15699 0.79541
 H774 H 0.04692 1.12987 0.78447
 H775 H 0.09121 1.14157 0.82199
 H776 H 0.07515 1.16882 0.83251
 H777 H 0.10678 1.12802 0.79642
 H778 H 0.12193 1.09911 0.78927
 H779 H 0.06986 1.07147 0.78873
 H780 H 0.05460 1.10014 0.79623
 C781 C 0.53403 0.69363 0.32783
 C782 C 0.54249 0.68141 0.32091
 C783 C 0.55250 0.66636 0.31339
 C784 C 0.54473 0.65552 0.29961
 C785 C 0.55384 0.64001 0.29340
 C786 C 0.57083 0.63512 0.30093
 C787 C 0.57870 0.64635 0.31448
 C788 C 0.56957 0.66184 0.32067
 C789 C 0.57993 0.61794 0.29534
 C790 C 0.59901 0.61725 0.29338
 C791 C 0.60760 0.60080 0.28915
 C792 C 0.59723 0.58484 0.28681
 C793 C 0.57823 0.58545 0.28844
 C794 C 0.56962 0.60188 0.29266
 C795 C 0.60607 0.56769 0.28343
 C796 C 0.61324 0.55315 0.28094
 H797 H 0.53150 0.65886 0.29391
 H798 H 0.54753 0.63177 0.28279
 H799 H 0.59162 0.64283 0.32074
 H800 H 0.57564 0.67005 0.33145
 H801 H 0.60729 0.62943 0.29516
 H802 H 0.62232 0.60048 0.28792
 H803 H 0.57009 0.57316 0.28675
 H804 H 0.55495 0.60188 0.29434
 C805 C 0.54026 0.31062 0.17517
 C806 C 0.54761 0.32369 0.18212
 C807 C 0.55642 0.33967 0.18956
 C808 C 0.54656 0.35197 0.20023
 C809 C 0.55472 0.36827 0.20613
 C810 C 0.57285 0.37250 0.20138
 C811 C 0.58277 0.35983 0.19101
 C812 C 0.57459 0.34355 0.18513
 C813 C 0.58113 0.39038 0.20643
 C814 C 0.59956 0.39165 0.21185
 C815 C 0.60755 0.40864 0.21560
 C816 C 0.59723 0.42458 0.21399
 C817 C 0.57883 0.42344 0.20889
 C818 C 0.57082 0.40647 0.20515
 C819 C 0.60562 0.44216 0.21696
 C820 C 0.61247 0.45702 0.21909
 H821 H 0.53247 0.34913 0.20370
 H822 H 0.54680 0.37764 0.21428
 H823 H 0.59665 0.36278 0.18690
 H824 H 0.58230 0.33420 0.17674
 H825 H 0.60779 0.37950 0.21316
 H826 H 0.62180 0.40937 0.21956
 H827 H 0.57075 0.43569 0.20752
 H828 H 0.55669 0.40600 0.20074
 C829 C 0.03929 0.81011 0.67546
 C830 C 0.04667 0.82308 0.68253
 C831 C 0.05554 0.83896 0.69015
 C832 C 0.07374 0.84279 0.68580
 C833 C 0.08198 0.85898 0.69184
 C834 C 0.07209 0.87160 0.70229
 C835 C 0.05392 0.86743 0.70695
 C836 C 0.04570 0.85122 0.70089
 C837 C 0.08043 0.88941 0.70751
 C838 C 0.07021 0.90556 0.70632
 C839 C 0.07831 0.92246 0.71020
 C840 C 0.09670 0.92347 0.71535
 C841 C 0.10692 0.90747 0.71688
 C842 C 0.09885 0.89054 0.71299
 C843 C 0.10518 0.94099 0.71840
 C844 C 0.11212 0.95580 0.72058
 H845 H 0.08143 0.83347 0.67737
 H846 H 0.09589 0.86189 0.68781
 H847 H 0.04602 0.87677 0.71515
 H848 H 0.03159 0.84841 0.70429
 H849 H 0.05610 0.90520 0.70188
 H850 H 0.07029 0.93477 0.70889
 H851 H 0.12118 0.90810 0.72086
 H852 H 0.10702 0.87834 0.71423
 C853 C 0.96094 0.69014 0.67670
 C854 C 0.95213 0.67795 0.68343
 C855 C 0.94176 0.66290 0.69069
 C856 C 0.94882 0.65242 0.70501
 C857 C 0.93942 0.63687 0.71098
 C858 C 0.92285 0.63158 0.70264
 C859 C 0.91567 0.64246 0.68855
 C860 C 0.92508 0.65799 0.68261
 C861 C 0.91354 0.61432 0.70796
 C862 C 0.89438 0.61330 0.70888
 C863 C 0.88564 0.59674 0.71279
 C864 C 0.89594 0.58100 0.71586
 C865 C 0.91500 0.58195 0.71529
 C866 C 0.92376 0.59848 0.71139
 C867 C 0.88700 0.56372 0.71885
 C868 C 0.87977 0.54905 0.72101
 H869 H 0.96174 0.65607 0.71133
 H870 H 0.94519 0.62891 0.72201
 H871 H 0.90310 0.63862 0.68167
 H872 H 0.91956 0.66592 0.67141
 H873 H 0.88614 0.62530 0.70652
 H874 H 0.87087 0.59616 0.71320
 H875 H 0.92310 0.56983 0.71754
 H876 H 0.93850 0.59873 0.71051
 C877 C 0.46213 0.19031 0.17730
 C878 C 0.45332 0.17811 0.18401
 C879 C 0.44292 0.16306 0.19122
 C880 C 0.42602 0.15848 0.18341
 C881 C 0.41658 0.14293 0.18925
 C882 C 0.42394 0.13170 0.20297
 C883 C 0.44073 0.13667 0.21105
 C884 C 0.45016 0.15223 0.20519
 C885 C 0.41459 0.11442 0.20813
 C886 C 0.42473 0.09842 0.21100
 C887 C 0.41591 0.08189 0.21476
 C888 C 0.39686 0.08109 0.21574
 C889 C 0.38664 0.09698 0.21321
 C890 C 0.39544 0.11354 0.20944
 C891 C 0.38785 0.06383 0.21861
 C892 C 0.38056 0.04918 0.22068
 H893 H 0.42036 0.16668 0.17249
 H894 H 0.40382 0.13936 0.18257
 H895 H 0.44665 0.12843 0.22180
 H896 H 0.46325 0.15563 0.21130
 H897 H 0.43945 0.09857 0.20981
 H898 H 0.42394 0.06966 0.21660
 H899 H 0.37188 0.09651 0.21394
 H900 H 0.38727 0.12565 0.20750
 C901 C 0.32848 0.45528 -0.18602
 C902 C 0.32133 0.44742 -0.17347
 C903 C 0.31357 0.43794 -0.15813
 C904 C 0.30165 0.44693 -0.14633
 C905 C 0.29528 0.43812 -0.13065
 C906 C 0.30079 0.42021 -0.12656
 C907 C 0.31246 0.41117 -0.13873
 C908 C 0.31881 0.41999 -0.15439
 C909 C 0.29514 0.41128 -0.10927
 C910 C 0.29073 0.39255 -0.10885
 C911 C 0.28648 0.38398 -0.09234
 C912 C 0.28654 0.39400 -0.07606
 C913 C 0.29059 0.41269 -0.07639
 C914 C 0.29485 0.42128 -0.09286
 C915 C 0.28318 0.38505 -0.05891
 C916 C 0.28078 0.37775 -0.04438
 H917 H 0.29753 0.46083 -0.14908
 H918 H 0.28613 0.44536 -0.12166
 H919 H 0.31717 0.39749 -0.13585
 H920 H 0.32814 0.41296 -0.16336
 H921 H 0.29064 0.38453 -0.12127
 H922 H 0.28335 0.36951 -0.09224
 H923 H 0.29078 0.42056 -0.06385
 H924 H 0.29844 0.43564 -0.09267
 C925 C 0.82894 0.95677 0.31286
 C926 C 0.82179 0.94897 0.32545
 C927 C 0.81405 0.93955 0.34083
 C928 C 0.81919 0.92158 0.34457
 C929 C 0.81285 0.91281 0.36027
 C930 C 0.80131 0.92195 0.37250
 C931 C 0.79591 0.93990 0.36841
 C932 C 0.80226 0.94864 0.35269
 C933 C 0.79567 0.91307 0.38982
 C934 C 0.79551 0.92310 0.40622
 C935 C 0.79125 0.91455 0.42271
 C936 C 0.78707 0.89589 0.42307
 C937 C 0.78687 0.88585 0.40680
 C938 C 0.79113 0.89438 0.39027
 C939 C 0.78370 0.88698 0.44024
 C940 C 0.78128 0.87970 0.45478
 H941 H 0.82842 0.91446 0.33556
 H942 H 0.81748 0.89910 0.36314
 H943 H 0.78686 0.94722 0.37744
 H944 H 0.79823 0.96258 0.34995
 H945 H 0.79921 0.93743 0.40638
 H946 H 0.79154 0.92243 0.43524
 H947 H 0.78364 0.87140 0.40692
 H948 H 0.79093 0.88634 0.37786
 C949 C 0.82757 0.03323 1.19347
 C950 C 0.82069 0.04162 1.18109
 C951 C 0.81324 0.05152 1.16585
 C952 C 0.82040 0.06867 1.16133
 C953 C 0.81432 0.07770 1.14565
 C954 C 0.80102 0.06964 1.13424
 C955 C 0.79360 0.05257 1.13913
 C956 C 0.79970 0.04357 1.15483
 C957 C 0.79557 0.07862 1.11688
 C958 C 0.79321 0.06825 1.10085
 C959 C 0.78909 0.07676 1.08428
 C960 C 0.78725 0.09573 1.08349
 C961 C 0.78929 0.10617 1.09939
 C962 C 0.79341 0.09768 1.11599
 C963 C 0.78391 0.10447 1.06621
 C964 C 0.78142 0.11158 1.05158
 H965 H 0.83099 0.07489 1.16969
 H966 H 0.82049 0.09069 1.14214
 H967 H 0.78318 0.04612 1.13075
 H968 H 0.79410 0.03028 1.15817
 H969 H 0.79505 0.05360 1.10101
 H970 H 0.78763 0.06856 1.07204
 H971 H 0.78788 0.12087 1.09893
 H972 H 0.79495 0.10602 1.12813
 C973 C 0.32648 0.53271 0.69416
 C974 C 0.31966 0.54115 0.68179
 C975 C 0.31228 0.55112 0.66656
 C976 C 0.29886 0.54318 0.65538
 C977 C 0.29284 0.55224 0.63969
 C978 C 0.30022 0.56937 0.63496
 C979 C 0.31341 0.57742 0.64652
 C980 C 0.31940 0.56833 0.66219
 C981 C 0.29487 0.57844 0.61762
 C982 C 0.29263 0.59749 0.61683
 C983 C 0.28859 0.60606 0.60025
 C984 C 0.28672 0.59571 0.58427
 C985 C 0.28864 0.57674 0.58496
 C986 C 0.29267 0.56815 0.60151
 C987 C 0.28347 0.60454 0.56702
 C988 C 0.28106 0.61172 0.55241
 H989 H 0.29329 0.52984 0.65861
 H990 H 0.28251 0.54580 0.63119
 H991 H 0.31955 0.59045 0.64313
 H992 H 0.32991 0.57453 0.67066
 H993 H 0.29404 0.60576 0.62902
 H994 H 0.28712 0.62076 0.59986
 H995 H 0.28731 0.56861 0.57266
 H996 H 0.29459 0.55351 0.60160
 C997 C 0.17412 0.53975 0.30997
 C998 C 0.18109 0.54702 0.32306
 C999 C 0.18859 0.55575 0.33905
 C1000 C 0.18441 0.57398 0.34278
 C1001 C 0.19037 0.58211 0.35904
 C1002 C 0.20057 0.57207 0.37185
 C1003 C 0.20506 0.55387 0.36779
 C1004 C 0.19908 0.54577 0.35150
 C1005 C 0.20574 0.58031 0.38970
 C1006 C 0.20428 0.57005 0.40587
 C1007 C 0.20817 0.57804 0.42279
 C1008 C 0.21358 0.59636 0.42382
 C1009 C 0.21535 0.60662 0.40781
 C1010 C 0.21146 0.59866 0.39085
 C1011 C 0.21670 0.60472 0.44135
 C1012 C 0.21896 0.61156 0.45618
 H1013 H 0.17617 0.58179 0.33331
 H1014 H 0.18647 0.59605 0.36187
 H1015 H 0.21308 0.54585 0.37726
 H1016 H 0.20236 0.53163 0.34878
 H1017 H 0.19965 0.55599 0.40548
 H1018 H 0.20667 0.57000 0.43511
 H1019 H 0.21954 0.62082 0.40845
 H1020 H 0.21290 0.60685 0.37864
 C1021 C 0.67348 0.03897 0.80966
 C1022 C 0.68049 0.04624 0.82273
 C1023 C 0.68805 0.05496 0.83871
 C1024 C 0.69833 0.04490 0.85127
 C1025 C 0.70435 0.05301 0.86753
 C1026 C 0.70012 0.07131 0.87146
 C1027 C 0.69013 0.08142 0.85854
 C1028 C 0.68412 0.07328 0.84230
 C1029 C 0.70533 0.07958 0.88928
 C1030 C 0.71132 0.09785 0.89034
 C1031 C 0.71527 0.10586 0.90727
 C1032 C 0.71329 0.09572 0.92333
 C1033 C 0.70760 0.07748 0.92240
 C1034 C 0.70366 0.06945 0.90550
 C1035 C 0.71649 0.10414 0.94083
 C1036 C 0.71882 0.11102 0.95563
 H1037 H 0.70140 0.03070 0.84865
 H1038 H 0.71220 0.04494 0.87709
 H1039 H 0.68642 0.09544 0.86126
 H1040 H 0.67604 0.08115 0.83274
 H1041 H 0.71293 0.10594 0.87809
 H1042 H 0.71968 0.11999 0.90784
 H1043 H 0.70594 0.06953 0.93475
 H1044 H 0.69881 0.05546 0.90519
 C1045 C 0.67677 0.96243 0.69005
 C1046 C 0.68362 0.95377 0.67791
 C1047 C 0.69103 0.94355 0.66292
 C1048 C 0.69090 0.92445 0.66333
 C1049 C 0.69661 0.91452 0.64810
 C1050 C 0.70250 0.92360 0.63223
 C1051 C 0.70298 0.94280 0.63214
 C1052 C 0.69726 0.95269 0.64737
 C1053 C 0.70727 0.91316 0.61555
 C1054 C 0.72193 0.91872 0.60448
 C1055 C 0.72563 0.90955 0.58817
 C1056 C 0.71476 0.89471 0.58272
 C1057 C 0.70038 0.88886 0.59380
 C1058 C 0.69666 0.89800 0.61011
 C1059 C 0.71779 0.88603 0.56537
 C1060 C 0.71996 0.87901 0.55066
 H1061 H 0.68605 0.91723 0.67528
 H1062 H 0.69629 0.89976 0.64867
 H1063 H 0.70718 0.95019 0.62006
 H1064 H 0.69726 0.96747 0.64685
 H1065 H 0.73047 0.93020 0.60839
 H1066 H 0.73680 0.91420 0.57968
 H1067 H 0.69181 0.87746 0.58966
 H1068 H 0.68512 0.89354 0.61817
 C1069 C 0.17645 0.46211 0.18999
 C1070 C 0.18326 0.45331 0.17793
 C1071 C 0.19063 0.44292 0.16304
 C1072 C 0.19702 0.45188 0.14746
 C1073 C 0.20273 0.44183 0.13233
 C1074 C 0.20205 0.42263 0.13256
 C1075 C 0.19599 0.41373 0.14846
 C1076 C 0.19030 0.42382 0.16358
 C1077 C 0.20680 0.41202 0.11598
 C1078 C 0.19606 0.39693 0.11059
 C1079 C 0.19978 0.38763 0.09437
 C1080 C 0.21428 0.39325 0.08333
 C1081 C 0.22527 0.40801 0.08873
 C1082 C 0.22158 0.41734 0.10495
 C1083 C 0.21732 0.38440 0.06607
 C1084 C 0.21950 0.37725 0.05142
 H1085 H 0.19718 0.46666 0.14684
 H1086 H 0.20706 0.44909 0.12022
 H1087 H 0.19552 0.39897 0.14913
 H1088 H 0.18533 0.41674 0.17556
 H1089 H 0.18443 0.39266 0.11863
 H1090 H 0.19111 0.37629 0.09027
 H1091 H 0.23653 0.41248 0.08028
 H1092 H 0.23021 0.42877 0.10882
 C1093 C -0.18676 0.32979 0.45706
 C1094 C -0.17424 0.32250 0.44940
 C1095 C -0.15893 0.31456 0.44017
 C1096 C -0.15980 0.31120 0.42137
 C1097 C -0.14441 0.30492 0.41213
 C1098 C -0.12793 0.30195 0.42159
 C1099 C -0.12733 0.30497 0.44056
 C1100 C -0.14272 0.31126 0.44976
 C1101 C -0.11120 0.29655 0.41163
 C1102 C -0.09893 0.28394 0.41927
 C1103 C -0.08266 0.27974 0.41035
 C1104 C -0.07844 0.28806 0.39370
 C1105 C -0.09070 0.30036 0.38583
 C1106 C -0.10697 0.30458 0.39471
 C1107 C -0.06120 0.28462 0.38507
 C1108 C -0.04660 0.28215 0.37801
 H1109 H -0.17227 0.31376 0.41380
 H1110 H -0.14537 0.30251 0.39756
 H1111 H -0.11478 0.30307 0.44819
 H1112 H -0.14185 0.31396 0.46429
 H1113 H -0.10189 0.27739 0.43217
 H1114 H -0.07326 0.27020 0.41657
 H1115 H -0.08752 0.30696 0.37299
 H1116 H -0.11598 0.31453 0.38860
 C1117 C 0.31392 0.82943 0.95683
 C1118 C 0.32642 0.82208 0.94919
 C1119 C 0.34170 0.81406 0.93997
 C1120 C 0.34078 0.81061 0.92119
 C1121 C 0.35614 0.80425 0.91195
 C1122 C 0.37264 0.80130 0.92138
 C1123 C 0.37329 0.80442 0.94034
 C1124 C 0.35793 0.81078 0.94955
 C1125 C 0.38934 0.79583 0.91141
 C1126 C 0.40161 0.78324 0.91909
 C1127 C 0.41786 0.77898 0.91015
 C1128 C 0.42204 0.78720 0.89344
 C1129 C 0.40978 0.79948 0.88554
 C1130 C 0.39353 0.80376 0.89444
 C1131 C 0.43926 0.78372 0.88479
 C1132 C 0.45384 0.78121 0.87769
 H1133 H 0.32830 0.81314 0.91363
 H1134 H 0.35514 0.80176 0.89740
 H1135 H 0.38584 0.80253 0.94795
 H1136 H 0.35883 0.81356 0.96406
 H1137 H 0.39868 0.77676 0.93203
 H1138 H 0.42726 0.76946 0.91639
 H1139 H 0.41293 0.80601 0.87266
 H1140 H 0.38451 0.81369 0.88830
 C1141 C 1.19389 0.82877 0.03291
 C1142 C 1.18143 0.82190 0.04118
 C1143 C 1.16611 0.81443 0.05093
 C1144 C 1.15089 0.80785 0.04129
 C1145 C 1.13536 0.80200 0.05068
 C1146 C 1.13484 0.80271 0.06987
 C1147 C 1.15037 0.80896 0.07945
 C1148 C 1.16589 0.81480 0.07003
 C1149 C 1.11787 0.79773 0.07975
 C1150 C 1.11193 0.80838 0.09456
 C1151 C 1.09544 0.80436 0.10322
 C1152 C 1.08467 0.78966 0.09725
 C1153 C 1.09060 0.77879 0.08275
 C1154 C 1.10709 0.78279 0.07405
 C1155 C 1.06723 0.78620 0.10554
 C1156 C 1.05246 0.78363 0.11228
 H1157 H 1.15086 0.80764 0.02650
 H1158 H 1.12356 0.79750 0.04290
 H1159 H 1.15047 0.80946 0.09423
 H1160 H 1.17759 0.81991 0.07762
 H1161 H 1.11976 0.82013 0.09910
 H1162 H 1.09093 0.81292 0.11437
 H1163 H 1.08237 0.76738 0.07802
 H1164 H 1.11139 0.77422 0.06283
 C1165 C 0.69312 0.32870 0.53303
 C1166 C 0.68066 0.32178 0.54125
 C1167 C 0.66535 0.31424 0.55096
 C1168 C 0.66533 0.31409 0.57007
 C1169 C 0.64984 0.30817 0.57949
 C1170 C 0.63415 0.30235 0.56991
 C1171 C 0.63446 0.30218 0.55070
 C1172 C 0.64996 0.30811 0.54131
 C1173 C 0.61723 0.29728 0.57983
 C1174 C 0.60623 0.28261 0.57382
 C1175 C 0.58978 0.27856 0.58257
 C1176 C 0.58412 0.28907 0.59743
 C1177 C 0.59510 0.30349 0.60370
 C1178 C 0.61155 0.30756 0.59499
 C1179 C 0.56671 0.28558 0.60577
 C1180 C 0.55197 0.28297 0.61256
 H1181 H 0.67716 0.31886 0.57767
 H1182 H 0.65010 0.30826 0.59428
 H1183 H 0.62253 0.29803 0.54293
 H1184 H 0.64977 0.30831 0.52652
 H1185 H 0.61033 0.27432 0.56233
 H1186 H 0.58138 0.26736 0.57760
 H1187 H 0.59080 0.31178 0.61513
 H1188 H 0.61956 0.31910 0.59979
 C1189 C 0.31007 0.17473 0.53761
 C1190 C 0.32308 0.18187 0.54489
 C1191 C 0.33899 0.18955 0.55366
 C1192 C 0.34270 0.18545 0.57196
 C1193 C 0.35891 0.19155 0.58014
 C1194 C 0.37168 0.20180 0.57010
 C1195 C 0.36762 0.20621 0.55182
 C1196 C 0.35139 0.20010 0.54367
 C1197 C 0.38949 0.20708 0.57841
 C1198 C 0.40568 0.20568 0.56827
 C1199 C 0.42258 0.20960 0.57635
 C1200 C 0.42355 0.21500 0.59466
 C1201 C 0.40752 0.21673 0.60480
 C1202 C 0.39059 0.21281 0.59674
 C1203 C 0.44106 0.21811 0.60315
 C1204 C 0.45585 0.22035 0.61013
 H1205 H 0.33327 0.17716 0.57978
 H1206 H 0.36173 0.18770 0.59414
 H1207 H 0.37707 0.21427 0.54380
 H1208 H 0.34868 0.20331 0.52948
 H1209 H 0.40534 0.20104 0.55423
 H1210 H 0.43491 0.20813 0.56841
 H1211 H 0.40812 0.22091 0.61898
 H1212 H 0.37836 0.21421 0.60484
 C1213 C 0.81006 0.67554 0.03827
 C1214 C 0.82309 0.68265 0.04552
 C1215 C 0.83905 0.69030 0.05424
 C1216 C 0.84285 0.68617 0.07251
 C1217 C 0.85910 0.69225 0.08062
 C1218 C 0.87182 0.70252 0.07053
 C1219 C 0.86767 0.70697 0.05229
 C1220 C 0.85140 0.70087 0.04420
 C1221 C 0.88967 0.70778 0.07877
 C1222 C 0.90580 0.70640 0.06854
 C1223 C 0.92274 0.71033 0.07654
 C1224 C 0.92380 0.71572 0.09485
 C1225 C 0.90782 0.71742 0.10507
 C1226 C 0.89086 0.71349 0.09710
 C1227 C 0.94135 0.71885 0.10325
 C1228 C 0.95617 0.72110 0.11015
 H1229 H 0.83345 0.67787 0.08036
 H1230 H 0.86198 0.68837 0.09460
 H1231 H 0.87708 0.71504 0.04424
 H1232 H 0.84862 0.70411 0.03003
 H1233 H 0.90539 0.70178 0.05450
 H1234 H 0.93503 0.70888 0.06853
 H1235 H 0.90849 0.72160 0.11926
 H1236 H 0.87867 0.71488 0.10526
 C1237 C 0.68993 0.67660 0.96050
 C1238 C 0.67774 0.68340 0.95179
 C1239 C 0.66270 0.69077 0.94153
 C1240 C 0.64754 0.69772 0.95068
 C1241 C 0.63221 0.70341 0.94084
 C1242 C 0.63181 0.70217 0.92166
 C1243 C 0.64730 0.69557 0.91256
 C1244 C 0.66262 0.68989 0.92244
 C1245 C 0.61498 0.70688 0.91134
 C1246 C 0.60895 0.69579 0.89677
 C1247 C 0.59251 0.69949 0.88778
 C1248 C 0.58189 0.71433 0.89318
 C1249 C 0.58793 0.72566 0.90741
 C1250 C 0.60437 0.72198 0.91643
 C1251 C 0.56443 0.71740 0.88466
 C1252 C 0.54964 0.71959 0.87775
 H1253 H 0.64739 0.69832 0.96546
 H1254 H 0.62043 0.70818 0.94827
 H1255 H 0.64749 0.69465 0.89780
 H1256 H 0.67427 0.68448 0.91522
 H1257 H 0.61665 0.68392 0.89269
 H1258 H 0.58791 0.69057 0.87686
 H1259 H 0.57980 0.73718 0.91170
 H1260 H 0.60874 0.73088 0.92745
 C1261 C 0.18982 0.17550 0.45997
 C1262 C 0.17764 0.18226 0.45120
 C1263 C 0.16261 0.18957 0.44087
 C1264 C 0.15763 0.18160 0.42419
 C1265 C 0.14213 0.18761 0.41482
 C1266 C 0.13135 0.20168 0.42204
 C1267 C 0.13673 0.20991 0.43861
 C1268 C 0.15224 0.20387 0.44797
 C1269 C 0.11414 0.20708 0.41276
 C1270 C 0.09832 0.21047 0.42301
 C1271 C 0.08182 0.21446 0.41429
 C1272 C 0.08087 0.21516 0.39522
 C1273 C 0.09658 0.21213 0.38489
 C1274 C 0.11311 0.20813 0.39359
 C1275 C 0.06360 0.21824 0.38632
 C1276 C 0.04896 0.22045 0.37910
 H1277 H 0.16547 0.17042 0.41864
 H1278 H 0.13824 0.18082 0.40224
 H1279 H 0.12885 0.22092 0.44441
 H1280 H 0.15595 0.21011 0.46089
 H1281 H 0.09858 0.20950 0.43776
 H1282 H 0.06972 0.21668 0.42241
 H1283 H 0.09599 0.21264 0.37012
 H1284 H 0.12508 0.20579 0.38534
 C1285 C 0.58915 0.06347 0.71233
 C1286 C 0.58105 0.07578 0.70507
 C1287 C 0.57167 0.09061 0.69633
 C1288 C 0.58039 0.10070 0.68267
 C1289 C 0.57147 0.11532 0.67434
 C1290 C 0.55367 0.12005 0.67958
 C1291 C 0.54497 0.10976 0.69326
 C1292 C 0.55393 0.09514 0.70158
 C1293 C 0.54429 0.13576 0.67092
 C1294 C 0.52561 0.13471 0.66644
 C1295 C 0.51678 0.14958 0.65843
 C1296 C 0.52649 0.16567 0.65482
 C1297 C 0.54507 0.16684 0.65918
 C1298 C 0.55393 0.15200 0.66717
 C1299 C 0.51733 0.18107 0.64685
 C1300 C 0.50963 0.19402 0.64032
 H1301 H 0.59411 0.09729 0.67848
 H1302 H 0.57843 0.12282 0.66369
 H1303 H 0.53137 0.11320 0.69775
 H1304 H 0.54708 0.08746 0.71219
 H1305 H 0.51787 0.12233 0.66895
 H1306 H 0.50239 0.14852 0.65509
 H1307 H 0.55269 0.17927 0.65651
 H1308 H 0.56825 0.15332 0.67069
 C1309 C 1.08944 0.56402 0.21195
 C1310 C 1.08142 0.57642 0.20475
 C1311 C 1.07215 0.59138 0.19611
 C1312 C 1.08217 0.60448 0.18646
 C1313 C 1.07330 0.61916 0.17820
 C1314 C 1.05424 0.62095 0.17949
 C1315 C 1.04427 0.60766 0.18916
 C1316 C 1.05319 0.59298 0.19743
 C1317 C 1.04484 0.63668 0.17090
 C1318 C 1.02799 0.63427 0.16186
 C1319 C 1.01914 0.64913 0.15386
 C1320 C 1.02700 0.66657 0.15478
 C1321 C 1.04375 0.66910 0.16371
 C1322 C 1.05263 0.65427 0.17171
 C1323 C 1.01779 0.68191 0.14677
 C1324 C 1.01006 0.69483 0.14021
 H1325 H 1.09686 0.60335 0.18532
 H1326 H 1.08132 0.62902 0.17064
 H1327 H 1.02962 0.60877 0.19059
 H1328 H 1.04530 0.58294 0.20491
 H1329 H 1.02176 0.62086 0.16081
 H1330 H 1.00618 0.64701 0.14696
 H1331 H 1.04992 0.68257 0.16458
 H1332 H 1.06545 0.65662 0.17878
 C1333 C 0.91663 0.93527 0.21814
 C1334 C 0.92516 0.92317 0.21110
 C1335 C 0.93504 0.90858 0.20260
 C1336 C 0.94758 0.91234 0.18874
 C1337 C 0.95683 0.89809 0.18019
 C1338 C 0.95361 0.87986 0.18537
 C1339 C 0.94105 0.87624 0.19939
 C1340 C 0.93184 0.89051 0.20794
 C1341 C 0.96321 0.86467 0.17613
 C1342 C 0.95385 0.84839 0.17175
 C1343 C 0.96289 0.83406 0.16313
 C1344 C 0.98139 0.83578 0.15877
 C1345 C 0.99081 0.85192 0.16301
 C1346 C 0.98179 0.86629 0.17162
 C1347 C 0.99072 0.82089 0.15015
 C1348 C 0.99853 0.80833 0.14307
 H1349 H 0.95010 0.92627 0.18445
 H1350 H 0.96625 0.90129 0.16929
 H1351 H 0.93847 0.86239 0.20387
 H1352 H 0.92217 0.88745 0.21866
 H1353 H 0.93948 0.84683 0.17480
 H1354 H 0.95545 0.82163 0.15988
 H1355 H 1.00516 0.85336 0.15975
 H1356 H 0.98942 0.87855 0.17500
 C1357 C 0.41604 0.43408 0.71909
 C1358 C 0.42458 0.42201 0.71200
 C1359 C 0.43446 0.40745 0.70344
 C1360 C 0.43118 0.38935 0.70862
 C1361 C 0.44041 0.37512 0.70003
 C1362 C 0.45306 0.37881 0.68610
 C1363 C 0.45635 0.39707 0.68107
 C1364 C 0.44709 0.41128 0.68968
 C1365 C 0.46268 0.36367 0.67681
 C1366 C 0.48129 0.36528 0.67242
 C1367 C 0.49033 0.35095 0.66376
 C1368 C 0.48089 0.33486 0.65935
 C1369 C 0.46237 0.33315 0.66359
 C1370 C 0.45331 0.34744 0.67226
 C1371 C 0.49025 0.32002 0.65068
 C1372 C 0.49807 0.30749 0.64355
 H1373 H 0.42144 0.38623 0.71927
 H1374 H 0.43777 0.36124 0.70439
 H1375 H 0.46583 0.40034 0.67025
 H1376 H 0.44966 0.42524 0.68551
 H1377 H 0.48893 0.37750 0.67594
 H1378 H 0.50470 0.35239 0.66060
 H1379 H 0.45493 0.32076 0.66021
 H1380 H 0.43892 0.34589 0.67522
 C1381 C 0.41431 0.55786 0.78425
 C1382 C 0.42251 0.57085 0.79031
 C1383 C 0.43214 0.58642 0.79765
 C1384 C 0.43997 0.58557 0.81509
 C1385 C 0.44907 0.60078 0.82236
 C1386 C 0.45046 0.61705 0.81226
 C1387 C 0.44258 0.61774 0.79470
 C1388 C 0.43348 0.60251 0.78746
 C1389 C 0.46001 0.63326 0.82002
 C1390 C 0.47137 0.64416 0.80901
 C1391 C 0.48033 0.65942 0.81633
 C1392 C 0.47806 0.66401 0.83472
 C1393 C 0.46679 0.65328 0.84579
 C1394 C 0.45782 0.63800 0.83850
 C1395 C 0.48735 0.67970 0.84223
 C1396 C 0.49521 0.69282 0.84846
 H1397 H 0.43903 0.57317 0.82308
 H1398 H 0.45520 0.59975 0.83580
 H1399 H 0.44321 0.63013 0.78669
 H1400 H 0.42739 0.60334 0.77398
 H1401 H 0.47351 0.64074 0.79480
 H1402 H 0.48907 0.66761 0.80766
 H1403 H 0.46491 0.65673 0.86004
 H1404 H 0.44899 0.63003 0.84727
 C1405 C -0.08538 0.05929 0.28304
 C1406 C -0.07725 0.07233 0.28911
 C1407 C -0.06774 0.08794 0.29649
 C1408 C -0.05192 0.08560 0.30700
 C1409 C -0.04286 0.10075 0.31443
 C1410 C -0.04951 0.11848 0.31142
 C1411 C -0.06539 0.12069 0.30078
 C1412 C -0.07443 0.10552 0.29338
 C1413 C -0.03998 0.13459 0.31942
 C1414 C -0.03797 0.15077 0.30928
 C1415 C -0.02905 0.16594 0.31684
 C1416 C -0.02204 0.16516 0.33463
 C1417 C -0.02397 0.14914 0.34484
 C1418 C -0.03287 0.13394 0.33730
 C1419 C -0.01279 0.18076 0.34236
 C1420 C -0.00498 0.19383 0.34876
 H1421 H -0.04661 0.07205 0.30947
 H1422 H -0.03054 0.09862 0.32236
 H1423 H -0.07098 0.13413 0.29842
 H1424 H -0.08671 0.10748 0.28533
 H1425 H -0.04308 0.15162 0.29541
 H1426 H -0.02757 0.17826 0.30880
 H1427 H -0.01862 0.14840 0.35864
 H1428 H -0.03442 0.12178 0.34554
 C1429 C 0.08683 0.44025 0.27781
 C1430 C 0.07846 0.42744 0.28391
 C1431 C 0.06874 0.41209 0.29144
 C1432 C 0.07221 0.39444 0.28508
 C1433 C 0.06320 0.37946 0.29277
 C1434 C 0.05057 0.38194 0.30695
 C1435 C 0.04709 0.39976 0.31316
 C1436 C 0.05613 0.41472 0.30546
 C1437 C 0.04122 0.36601 0.31536
 C1438 C 0.02264 0.36689 0.32000
 C1439 C 0.01389 0.35193 0.32803
 C1440 C 0.02358 0.33591 0.33154
 C1441 C 0.04206 0.33488 0.32696
 C1442 C 0.05084 0.34982 0.31892
 C1443 C 0.01454 0.32052 0.33979
 C1444 C 0.00689 0.30766 0.34667
 H1445 H 0.08195 0.39225 0.27423
 H1446 H 0.06600 0.36594 0.28753
 H1447 H 0.03763 0.40210 0.32421
 H1448 H 0.05342 0.42831 0.31056
 H1449 H 0.01481 0.37907 0.31723
 H1450 H -0.00044 0.35284 0.33146
 H1451 H 0.04970 0.32255 0.32966
 H1452 H 0.06521 0.34880 0.31574
 C1453 C 0.58720 0.93957 0.77782
 C1454 C 0.57886 0.92671 0.78387
 C1455 C 0.56915 0.91133 0.79134
 C1456 C 0.57277 0.89369 0.78504
 C1457 C 0.56375 0.87868 0.79266
 C1458 C 0.55097 0.88112 0.80671
 C1459 C 0.54733 0.89893 0.81286
 C1460 C 0.55639 0.91392 0.80522
 C1461 C 0.54159 0.86516 0.81505
 C1462 C 0.52296 0.86598 0.81950
 C1463 C 0.51420 0.85099 0.82748
 C1464 C 0.52392 0.83502 0.83112
 C1465 C 0.54245 0.83406 0.82672
 C1466 C 0.55124 0.84902 0.81873
 C1467 C 0.51488 0.81962 0.83934
 C1468 C 0.50722 0.80675 0.84619
 H1469 H 0.58263 0.89153 0.77429
 H1470 H 0.56666 0.86517 0.78748
 H1471 H 0.53775 0.90124 0.82381
 H1472 H 0.55356 0.92751 0.81027
 H1473 H 0.51511 0.87812 0.81663
 H1474 H 0.49983 0.85186 0.83077
 H1475 H 0.55012 0.82177 0.82952
 H1476 H 0.56565 0.84806 0.81569
 C1477 C 0.71352 0.59067 0.06139
 C1478 C 0.70633 0.58255 0.07376
 C1479 C 0.69769 0.57319 0.08869
 C1480 C 0.68523 0.58244 0.09970
 C1481 C 0.67700 0.57352 0.11439
 C1482 C 0.68112 0.55519 0.11827
 C1483 C 0.69359 0.54598 0.10705
 C1484 C 0.70183 0.55494 0.09237
 C1485 C 0.67256 0.54579 0.13404
 C1486 C 0.66665 0.52753 0.13257
 C1487 C 0.65871 0.51869 0.14749
 C1488 C 0.65658 0.52795 0.16405
 C1489 C 0.66238 0.54612 0.16564
 C1490 C 0.67031 0.55500 0.15075
 C1491 C 0.64867 0.51876 0.17948
 C1492 C 0.64219 0.51104 0.19246
 H1493 H 0.68190 0.59656 0.09694
 H1494 H 0.66727 0.58090 0.12261
 H1495 H 0.69722 0.53195 0.10982
 H1496 H 0.71150 0.54768 0.08396
 H1497 H 0.66798 0.52016 0.11984
 H1498 H 0.65425 0.50462 0.14611
 H1499 H 0.66087 0.55339 0.17843
 H1500 H 0.67494 0.56897 0.15239
 C1501 C 0.21329 1.08910 0.56270
 C1502 C 0.20631 1.08105 0.57523
 C1503 C 0.19795 1.07174 0.59034
 C1504 C 0.19154 1.05381 0.58832
 C1505 C 0.18334 1.04484 0.60302
 C1506 C 0.18142 1.05372 0.61995
 C1507 C 0.18792 1.07175 0.62182
 C1508 C 0.19612 1.08068 0.60712
 C1509 C 0.17275 1.04424 0.63560
 C1510 C 0.16079 1.05362 0.64723
 C1511 C 0.15281 1.04474 0.66209
 C1512 C 0.15666 1.02639 0.66554
 C1513 C 0.16847 1.01691 0.65403
 C1514 C 0.17646 1.02575 0.63915
 C1515 C 0.14868 1.01732 0.68101
 C1516 C 0.14214 1.00967 0.69401
 H1517 H 0.19283 1.04678 0.57537
 H1518 H 0.17828 1.03105 0.60108
 H1519 H 0.18688 1.07886 0.63474
 H1520 H 0.20107 1.09454 0.60884
 H1521 H 0.15747 1.06778 0.64472
 H1522 H 0.14365 1.05220 0.67090
 H1523 H 0.17160 1.00271 0.65662
 H1524 H 0.18579 1.01822 0.63060
 C1525 C 0.22091 0.91710 0.93529
 C1526 C 0.21392 0.92566 0.92310
 C1527 C 0.20546 0.93554 0.90838
 C1528 C 0.19274 0.94920 0.91208
 C1529 C 0.18417 0.95843 0.89773
 C1530 C 0.18820 0.95407 0.87948
 C1531 C 0.20110 0.94040 0.87592
 C1532 C 0.20966 0.93120 0.89028
 C1533 C 0.17888 0.96361 0.86420
 C1534 C 0.17305 0.95386 0.84864
 C1535 C 0.16433 0.96284 0.83423
 C1536 C 0.16133 0.98165 0.83516
 C1537 C 0.16703 0.99147 0.85059
 C1538 C 0.17574 0.98252 0.86504
 C1539 C 0.15256 0.99088 0.82020
 C1540 C 0.14533 0.99857 0.80758
 H1541 H 0.18933 0.95260 0.92604
 H1542 H 0.17414 0.96872 0.90091
 H1543 H 0.20469 0.93691 0.86203
 H1544 H 0.21950 0.92066 0.88727
 H1545 H 0.17503 0.93926 0.84770
 H1546 H 0.15994 0.95510 0.82236
 H1547 H 0.16483 1.00605 0.85142
 H1548 H 0.18025 0.99043 0.87673
 C1549 C 0.71968 0.41847 0.43444
 C1550 C 0.71279 0.42704 0.42221
 C1551 C 0.70445 0.43693 0.40743
 C1552 C 0.70946 0.43322 0.38940
 C1553 C 0.70103 0.44240 0.37496
 C1554 C 0.68745 0.45544 0.37836
 C1555 C 0.68260 0.45918 0.39655
 C1556 C 0.69104 0.44995 0.41098
 C1557 C 0.67828 0.46497 0.36299
 C1558 C 0.67434 0.48371 0.36415
 C1559 C 0.66576 0.49265 0.34963
 C1560 C 0.66099 0.48300 0.33379
 C1561 C 0.66480 0.46436 0.33253
 C1562 C 0.67339 0.45539 0.34702
 C1563 C 0.65234 0.49223 0.31877
 C1564 C 0.64519 0.49993 0.30610
 H1565 H 0.71984 0.42317 0.38651
 H1566 H 0.70525 0.43941 0.36114
 H1567 H 0.67204 0.46897 0.39960
 H1568 H 0.68700 0.45286 0.42488
 H1569 H 0.67813 0.49150 0.37617
 H1570 H 0.66293 0.50711 0.35072
 H1571 H 0.66114 0.45675 0.32034
 H1572 H 0.67600 0.44091 0.34581
 C1573 C 0.78440 0.41563 0.55898
 C1574 C 0.79062 0.42362 0.57202
 C1575 C 0.79821 0.43293 0.58764
 C1576 C 0.78934 0.44808 0.59502
 C1577 C 0.79669 0.45704 0.61027
 C1578 C 0.81304 0.45095 0.61833
 C1579 C 0.82185 0.43572 0.61078
 C1580 C 0.81446 0.42678 0.59555
 C1581 C 0.82086 0.46042 0.63455
 C1582 C 0.83981 0.46333 0.63612
 C1583 C 0.84716 0.47220 0.65141
 C1584 C 0.83570 0.47825 0.66535
 C1585 C 0.81684 0.47542 0.66393
 C1586 C 0.80945 0.46657 0.64864
 C1587 C 0.84327 0.48743 0.68106
 C1588 C 0.84957 0.49519 0.69420
 H1589 H 0.77677 0.45298 0.58898
 H1590 H 0.78972 0.46886 0.61561
 H1591 H 0.83430 0.43055 0.61682
 H1592 H 0.82140 0.41502 0.58998
 H1593 H 0.84892 0.45897 0.62540
 H1594 H 0.86178 0.47438 0.65235
 H1595 H 0.80784 0.48002 0.67466
 H1596 H 0.79484 0.46432 0.64795
 C1597 C 0.28528 -0.08422 0.05837
 C1598 C 0.29151 -0.07618 0.07138
 C1599 C 0.29910 -0.06681 0.08696
 C1600 C 0.31552 -0.07275 0.09471
 C1601 C 0.32289 -0.06377 0.10993
 C1602 C 0.31392 -0.04871 0.11762
 C1603 C 0.29742 -0.04283 0.10971
 C1604 C 0.29008 -0.05182 0.09448
 C1605 C 0.32171 -0.03922 0.13384
 C1606 C 0.31031 -0.03332 0.14805
 C1607 C 0.31768 -0.02447 0.16335
 C1608 C 0.33652 -0.02140 0.16466
 C1609 C 0.34797 -0.02718 0.15060
 C1610 C 0.34063 -0.03604 0.13529
 C1611 C 0.34407 -0.01225 0.18040
 C1612 C 0.35035 -0.00454 0.19358
 H1613 H 0.32258 -0.08438 0.08904
 H1614 H 0.33547 -0.06878 0.11584
 H1615 H 0.29031 -0.03114 0.11517
 H1616 H 0.27738 -0.04709 0.08857
 H1617 H 0.29573 -0.03577 0.14745
 H1618 H 0.30870 -0.02008 0.17418
 H1619 H 0.36256 -0.02481 0.15145
 H1620 H 0.34973 -0.04020 0.12448
 C1621 C 0.27874 0.08630 0.43915
 C1622 C 0.28499 0.07784 0.42655
 C1623 C 0.29272 0.06801 0.41148
 C1624 C 0.30986 0.05987 0.41332
 C1625 C 0.31767 0.05081 0.39853
 C1626 C 0.30843 0.04976 0.38166
 C1627 C 0.29114 0.05787 0.37998
 C1628 C 0.28336 0.06694 0.39480
 C1629 C 0.31688 0.04043 0.36583
 C1630 C 0.30627 0.02939 0.35410
 C1631 C 0.31424 0.02069 0.33916
 C1632 C 0.33290 0.02292 0.33574
 C1633 C 0.34357 0.03387 0.34732
 C1634 C 0.33563 0.04257 0.36227
 C1635 C 0.34109 0.01394 0.32038
 C1636 C 0.34793 0.00637 0.30752
 H1637 H 0.31722 0.06061 0.42618
 H1638 H 0.33088 0.04450 0.40032
 H1639 H 0.28379 0.05750 0.36712
 H1640 H 0.27013 0.07327 0.39320
 H1641 H 0.29186 0.02730 0.35660
 H1642 H 0.30587 0.01220 0.33031
 H1643 H 0.35802 0.03572 0.34477
 H1644 H 0.34411 0.05118 0.37090
 C1645 C 0.77917 0.58754 0.93960
 C1646 C 0.78554 0.57914 0.92701
 C1647 C 0.79344 0.56940 0.91196
 C1648 C 0.81222 0.57066 0.90878
 C1649 C 0.81994 0.56147 0.89402
 C1650 C 0.80896 0.55089 0.88220
 C1651 C 0.79009 0.54966 0.88555
 C1652 C 0.78239 0.55886 0.90034
 C1653 C 0.81716 0.54129 0.86640
 C1654 C 0.80814 0.54087 0.84939
 C1655 C 0.81597 0.53200 0.83448
 C1656 C 0.83288 0.52343 0.83636
 C1657 C 0.84193 0.52371 0.85323
 C1658 C 0.83414 0.53259 0.86816
 C1659 C 0.84093 0.51431 0.82100
 C1660 C 0.84765 0.50662 0.80815
 H1661 H 0.82088 0.57885 0.91765
 H1662 H 0.83446 0.56289 0.89167
 H1663 H 0.78132 0.54144 0.87684
 H1664 H 0.76784 0.55777 0.90269
 H1665 H 0.79517 0.54765 0.84754
 H1666 H 0.80886 0.53189 0.82147
 H1667 H 0.85500 0.51706 0.85485
 H1668 H 0.84131 0.53246 0.88113
 C1669 C 0.06271 0.71314 0.58974
 C1670 C 0.07502 0.70596 0.58165
 C1671 C 0.08988 0.69732 0.57232
 C1672 C 0.09239 0.70010 0.55360
 C1673 C 0.10699 0.69185 0.54464
 C1674 C 0.11927 0.68072 0.55431
 C1675 C 0.11656 0.67796 0.57311
 C1676 C 0.10196 0.68621 0.58203
 C1677 C 0.13493 0.67213 0.54488
 C1678 C 0.15217 0.67139 0.55340
 C1679 C 0.16694 0.66339 0.54450
 C1680 C 0.16467 0.65601 0.52700
 C1681 C 0.14758 0.65665 0.51842
 C1682 C 0.13279 0.66465 0.52729
 C1683 C 0.17995 0.64800 0.51779
 C1684 C 0.19283 0.64143 0.51007
 H1685 H 0.08314 0.70873 0.54596
 H1686 H 0.10884 0.69442 0.53021
 H1687 H 0.12563 0.66927 0.58088
 H1688 H 0.10011 0.68393 0.59652
 H1689 H 0.15432 0.67725 0.56682
 H1690 H 0.18013 0.66304 0.55123
 H1691 H 0.14568 0.65095 0.50488
 H1692 H 0.11964 0.66481 0.52047
 C1693 C 0.56337 0.21310 1.08980
 C1694 C 0.57560 0.20586 1.08164
 C1695 C 0.59035 0.19715 1.07220
 C1696 C 0.59388 0.20135 1.05392
 C1697 C 0.60839 0.19304 1.04488
 C1698 C 0.61958 0.18042 1.05404
 C1699 C 0.61584 0.17624 1.07239
 C1700 C 0.60133 0.18455 1.08139
 C1701 C 0.63517 0.17177 1.04456
 C1702 C 0.65193 0.16933 1.05368
 C1703 C 0.66665 0.16130 1.04474
 C1704 C 0.66482 0.15559 1.02658
 C1705 C 0.64821 0.15792 1.01739
 C1706 C 0.63346 0.16596 1.02631
 C1707 C 0.68008 0.14757 1.01733
 C1708 C 0.69293 0.14100 1.00957
 H1709 H 0.58550 0.21113 1.04670
 H1710 H 0.61106 0.19671 1.03083
 H1711 H 0.62404 0.16640 1.07974
 H1712 H 0.59868 0.18117 1.09554
 H1713 H 0.65376 0.17389 1.06764
 H1714 H 0.67948 0.15965 1.05195
 H1715 H 0.64664 0.15352 1.00334
 H1716 H 0.62068 0.16744 1.01899
 C1717 C 0.93469 0.21765 0.91634
 C1718 C 0.92239 0.21068 0.92476
 C1719 C 0.90756 0.20230 0.93454
 C1720 C 0.88964 0.20423 0.92817
 C1721 C 0.87522 0.19588 0.93744
 C1722 C 0.87853 0.18545 0.95323
 C1723 C 0.89661 0.18363 0.95954
 C1724 C 0.91102 0.19201 0.95025
 C1725 C 0.86321 0.17647 0.96299
 C1726 C 0.86507 0.15868 0.96997
 C1727 C 0.85055 0.15018 0.97899
 C1728 C 0.83401 0.15934 0.98117
 C1729 C 0.83204 0.17705 0.97434
 C1730 C 0.84652 0.18557 0.96531
 C1731 C 0.81903 0.15061 0.99040
 C1732 C 0.80640 0.14343 0.99812
 H1733 H 0.88683 0.21210 0.91597
 H1734 H 0.86150 0.19733 0.93210
 H1735 H 0.89958 0.17588 0.97178
 H1736 H 0.92485 0.19045 0.95530
 H1737 H 0.87765 0.15123 0.96820
 H1738 H 0.85221 0.13645 0.98419
 H1739 H 0.81930 0.18428 0.97601
 H1740 H 0.84474 0.19935 0.96031
 C1741 C 0.43472 0.71772 0.41736
 C1742 C 0.42248 0.71076 0.42586
 C1743 C 0.40769 0.70241 0.43571
 C1744 C 0.41127 0.69101 0.45061
 C1745 C 0.39686 0.68266 0.45994
 C1746 C 0.37867 0.68563 0.45449
 C1747 C 0.37524 0.69716 0.43953
 C1748 C 0.38965 0.70548 0.43021
 C1749 C 0.36334 0.67666 0.46426
 C1750 C 0.34716 0.68625 0.46778
 C1751 C 0.33265 0.67774 0.47678
 C1752 C 0.33409 0.65955 0.48237
 C1753 C 0.35014 0.64990 0.47899
 C1754 C 0.36469 0.65839 0.47000
 C1755 C 0.31906 0.65082 0.49152
 C1756 C 0.30638 0.64365 0.49916
 H1757 H 0.42519 0.68856 0.45499
 H1758 H 0.39994 0.67404 0.47154
 H1759 H 0.36141 0.69951 0.43483
 H1760 H 0.38673 0.71421 0.41864
 H1761 H 0.34580 0.70039 0.46375
 H1762 H 0.32030 0.68536 0.47937
 H1763 H 0.35138 0.63580 0.48322
 H1764 H 0.37686 0.65057 0.46729
 C1765 C 0.55856 0.78355 0.41606
 C1766 C 0.57148 0.78977 0.42428
 C1767 C 0.58695 0.79735 0.43389
 C1768 C 0.60054 0.78588 0.44077
 C1769 C 0.61571 0.79328 0.44985
 C1770 C 0.61749 0.81229 0.45215
 C1771 C 0.60372 0.82369 0.44523
 C1772 C 0.58855 0.81626 0.43617
 C1773 C 0.63368 0.82019 0.46164
 C1774 C 0.64208 0.83619 0.45505
 C1775 C 0.65733 0.84362 0.46398
 C1776 C 0.66438 0.83517 0.47961
 C1777 C 0.65612 0.81925 0.48627
 C1778 C 0.64088 0.81180 0.47735
 C1779 C 0.68005 0.84282 0.48882
 C1780 C 0.69317 0.84918 0.49660
 H1781 H 0.59947 0.77123 0.43901
 H1782 H 0.62619 0.78417 0.45481
 H1783 H 0.60457 0.83835 0.44699
 H1784 H 0.57810 0.82526 0.43092
 H1785 H 0.63701 0.84284 0.44286
 H1786 H 0.66365 0.85591 0.45868
 H1787 H 0.66144 0.81263 0.49838
 H1788 H 0.63459 0.79961 0.48289
 C1789 C 0.05806 0.28140 -0.08279
 C1790 C 0.07106 0.28740 -0.07453
 C1791 C 0.08664 0.29471 -0.06489
 C1792 C 0.10404 0.28769 -0.06812
 C1793 C 0.11924 0.29505 -0.05907
 C1794 C 0.11723 0.30956 -0.04664
 C1795 C 0.09966 0.31645 -0.04342
 C1796 C 0.08447 0.30908 -0.05250
 C1797 C 0.13340 0.31754 -0.03719
 C1798 C 0.13250 0.32252 -0.01865
 C1799 C 0.14772 0.33008 -0.00979
 C1800 C 0.16402 0.33278 -0.01931
 C1801 C 0.16506 0.32787 -0.03774
 C1802 C 0.14986 0.32030 -0.04663
 C1803 C 0.17968 0.34051 -0.01015
 C1804 C 0.19278 0.34694 -0.00240
 H1805 H 0.10586 0.27655 -0.07767
 H1806 H 0.13255 0.28929 -0.06166
 H1807 H 0.09769 0.32776 -0.03412
 H1808 H 0.07107 0.31467 -0.04996
 H1809 H 0.12010 0.32036 -0.01095
 H1810 H 0.14678 0.33377 0.00450
 H1811 H 0.17760 0.32994 -0.04525
 H1812 H 0.15092 0.31684 -0.06096
 C1813 C 0.44023 0.27930 0.08848
 C1814 C 0.42745 0.28556 0.08022
 C1815 C 0.41214 0.29330 0.07065
 C1816 C 0.40980 0.31223 0.07041
 C1817 C 0.39476 0.31982 0.06147
 C1818 C 0.38183 0.30854 0.05264
 C1819 C 0.38436 0.28951 0.05288
 C1820 C 0.39942 0.28195 0.06185
 C1821 C 0.36574 0.31659 0.04332
 C1822 C 0.35961 0.30968 0.02642
 C1823 C 0.34449 0.31732 0.01765
 C1824 C 0.33528 0.33193 0.02565
 C1825 C 0.34123 0.33888 0.04247
 C1826 C 0.35636 0.33128 0.05126
 C1827 C 0.31975 0.33983 0.01658
 C1828 C 0.30677 0.34643 0.00893
 H1829 H 0.41959 0.32114 0.07716
 H1830 H 0.39333 0.33452 0.06131
 H1831 H 0.37454 0.28046 0.04640
 H1832 H 0.40106 0.26727 0.06202
 H1833 H 0.36667 0.29854 0.01986
 H1834 H 0.34002 0.31187 0.00460
 H1835 H 0.33417 0.35016 0.04882
 H1836 H 0.36058 0.33674 0.06437
 C1837 C 0.93973 0.77959 0.58777
 C1838 C 0.92705 0.78593 0.57942
 C1839 C 0.91188 0.79377 0.56972
 C1840 C 0.91169 0.81250 0.56603
 C1841 C 0.89678 0.82026 0.55704
 C1842 C 0.88181 0.80937 0.55160
 C1843 C 0.88218 0.79052 0.55527
 C1844 C 0.89712 0.78279 0.56429
 C1845 C 0.86584 0.81766 0.54228
 C1846 C 0.85719 0.80865 0.52758
 C1847 C 0.84215 0.81647 0.51884
 C1848 C 0.83553 0.83337 0.52467
 C1849 C 0.84403 0.84243 0.53927
 C1850 C 0.85908 0.83464 0.54802
 C1851 C 0.82007 0.84142 0.51564
 C1852 C 0.80713 0.84814 0.50802
 H1853 H 0.92306 0.82112 0.57017
 H1854 H 0.89701 0.83476 0.55419
 H1855 H 0.87078 0.78181 0.55146
 H1856 H 0.89708 0.76828 0.56715
 H1857 H 0.86221 0.79567 0.52270
 H1858 H 0.83570 0.80937 0.50751
 H1859 H 0.83899 0.85549 0.54393
 H1860 H 0.86528 0.84179 0.55945
   
