data_POSCAR
  _audit_creation_date              2014-09-24
  _audit_creation_method            'ToBaCCo'
  _symmetry_space_group_name_H-M    'P1'
  _symmetry_Int_Tables_number       1
  _symmetry_cell_setting            triclinic
  loop_
  _symmetry_equiv_pos_as_xyz
 x,y,z
_cell_length_a 60.3175
_cell_length_b 61.4028
_cell_length_c 61.5309
_cell_angle_alpha 89.957300
_cell_angle_beta 89.921200
_cell_angle_gamma 90.056000
loop_
  _atom_site_label
  _atom_site_type_symbol
  _atom_site_fract_x
  _atom_site_fract_y
  _atom_site_fract_z
N1 N 0.34212 0.34245 0.34673
 N2 N 0.34533 0.84137 -0.15565
 N3 N 0.84443 0.34056 -0.15232
 N4 N 0.84463 0.84232 0.34518
 N5 N 0.66022 0.65196 0.34054
 N6 N 0.65772 0.15211 -0.16052
 N7 N 0.15797 0.65514 -0.15639
 N8 N 0.15943 0.15504 0.34205
 N9 N 0.65394 0.34965 0.66012
 N10 N 0.65604 0.85123 1.15986
 N11 N 0.15720 0.34726 1.15830
 N12 N 0.15436 0.84540 0.65829
 N13 N 0.34413 0.66124 0.65096
 N14 N 0.34320 0.15642 1.14969
 N15 N 0.83947 0.65709 1.15249
 N16 N 0.84293 0.16218 0.65372
 N17 N 0.34139 0.34208 0.65657
 N18 N 0.34541 0.84217 0.15493
 N19 N 0.84251 0.33771 0.15267
 N20 N 0.84495 0.84162 0.65162
 N21 N 0.66167 0.65357 0.65809
 N22 N 0.65732 0.15423 0.15943
 N23 N 0.15704 0.65268 0.15492
 N24 N 0.15621 0.15190 0.65682
 N25 N 0.34324 0.65845 0.34786
 N26 N 0.34152 0.15670 0.84674
 N27 N 0.84245 0.65741 0.85241
 N28 N 0.84225 0.16169 0.34972
 N29 N 0.65269 0.34717 0.34324
 N30 N 0.65868 0.84755 0.83978
 N31 N 0.15731 0.35073 0.84220
 N32 N 0.15533 0.84539 0.33886
 O33 O 0.24822 1.02173 0.27039
 O34 O 0.27788 0.97936 0.23933
 O35 O 0.27722 1.02171 0.23880
 O36 O 0.24959 0.97914 0.27110
 O37 O 0.22147 0.97915 0.24818
 O38 O 0.25001 1.02048 0.21487
 O39 O 0.24985 0.97772 0.21636
 O40 O 0.22146 1.02151 0.24593
 Cu41 Cu 0.26596 1.00061 0.25731
 Cu42 Cu 0.23299 0.99955 0.22892
 C43 C 0.22998 1.02913 0.26317
 C44 C 0.26867 0.97102 0.22274
 C45 C 0.26828 1.02844 0.22137
 C46 C 0.23085 0.97184 0.26516
 O47 O 0.24996 0.52502 0.71398
 O48 O 0.22192 0.48210 0.74552
 O49 O 0.22161 0.52466 0.74550
 O50 O 0.24992 0.48220 0.71382
 O51 O 0.27758 0.48231 0.73729
 O52 O 0.24902 0.52452 0.76927
 O53 O 0.24928 0.48242 0.76934
 O54 O 0.27768 0.52483 0.73737
 Cu55 Cu 0.23314 0.50351 0.72728
 Cu56 Cu 0.26622 0.50355 0.75562
 C57 C 0.26850 0.53241 0.72041
 C58 C 0.23082 0.47494 0.76280
 C59 C 0.23045 0.53179 0.76281
 C60 C 0.26840 0.47475 0.72032
 O61 O 0.74729 -0.01770 0.23386
 O62 O 0.77618 0.02407 0.26611
 O63 O 0.77657 -0.01844 0.26502
 O64 O 0.74670 0.02440 0.23506
 O65 O 0.71999 0.02356 0.25963
 O66 O 0.74961 -0.01945 0.28930
 O67 O 0.74912 0.02332 0.29030
 O68 O 0.72063 -0.01900 0.25848
 Cu69 Cu 0.76445 0.00319 0.24762
 Cu70 Cu 0.73219 0.00201 0.27692
 C71 C 0.72909 -0.02555 0.24073
 C72 C 0.76738 0.03110 0.28351
 C73 C 0.76798 -0.02652 0.28208
 C74 C 0.72828 0.03132 0.24230
 O75 O 0.75048 0.47770 0.78700
 O76 O 0.72338 0.52211 0.75712
 O77 O 0.72224 0.47971 0.75518
 O78 O 0.75180 0.52049 0.78836
 O79 O 0.77906 0.52085 0.76437
 O80 O 0.75046 0.47893 0.73233
 O81 O 0.75022 0.52150 0.73269
 O82 O 0.77864 0.47862 0.76406
 Cu83 Cu 0.73424 0.49995 0.77433
 Cu84 Cu 0.76733 0.50005 0.74595
 C85 C 0.76916 0.47057 0.78067
 C86 C 0.73213 0.52938 0.73980
 C87 C 0.73152 0.47210 0.73826
 C88 C 0.77035 0.52784 0.78182
 O89 O 0.27695 0.52210 0.26134
 O90 O 0.24805 0.47975 0.22976
 O91 O 0.24858 0.52189 0.22934
 O92 O 0.27669 0.47961 0.26155
 O93 O 0.24906 0.47980 0.28511
 O94 O 0.22118 0.52247 0.25319
 O95 O 0.22072 0.47987 0.25369
 O96 O 0.24927 0.52254 0.28484
 Cu97 Cu 0.26538 0.50080 0.24317
 Cu98 Cu 0.23233 0.50121 0.27162
 C99 C 0.26785 0.52978 0.27832
 C100 C 0.22950 0.47252 0.23642
 C101 C 0.23013 0.52945 0.23582
 C102 C 0.26753 0.47226 0.27865
 O103 O 0.75079 1.02190 0.71013
 O104 O 0.72197 0.97829 0.73991
 O105 O 0.72069 1.02089 0.73990
 O106 O 0.75195 0.97914 0.70993
 O107 O 0.77817 0.98006 0.73492
 O108 O 0.74650 1.02130 0.76533
 O109 O 0.74784 0.97908 0.76525
 O110 O 0.77693 1.02250 0.73521
 Cu111 Cu 0.73377 0.99997 0.72241
 Cu112 Cu 0.76501 1.00079 0.75267
 C113 C 0.76861 1.02985 0.71772
 C114 C 0.73000 0.97120 0.75763
 C115 C 0.72829 1.02828 0.75767
 C116 C 0.77030 0.97233 0.71740
 O117 O 0.74814 0.51723 0.21190
 O118 O 0.71975 0.47595 0.24544
 O119 O 0.71995 0.51826 0.24319
 O120 O 0.74763 0.47437 0.21311
 O121 O 0.77600 0.47582 0.23569
 O122 O 0.74701 0.51821 0.26733
 O123 O 0.74821 0.47568 0.26795
 O124 O 0.77564 0.51819 0.23553
 Cu125 Cu 0.73114 0.49628 0.22600
 Cu126 Cu 0.76449 0.49704 0.25398
 C127 C 0.76650 0.52512 0.21829
 C128 C 0.72929 0.46859 0.26233
 C129 C 0.72873 0.52577 0.26035
 C130 C 0.76651 0.46757 0.21920
 O131 O 0.24837 -0.02275 0.78559
 O132 O 0.21843 0.01980 0.75544
 O133 O 0.21833 -0.02282 0.75582
 O134 O 0.24788 0.01997 0.78567
 O135 O 0.27439 0.01999 0.76088
 O136 O 0.24432 -0.02262 0.73050
 O137 O 0.24453 0.01971 0.73024
 O138 O 0.27475 -0.02254 0.76069
 Cu139 Cu 0.23065 -0.00147 0.77315
 Cu140 Cu 0.26217 -0.00138 0.74309
 C141 C 0.26656 -0.03008 0.77818
 C142 C 0.22645 0.02713 0.73778
 C143 C 0.22627 -0.03011 0.73815
 C144 C 0.26598 0.02752 0.77827
 O145 O 0.25076 0.23093 0.97729
 O146 O 0.22225 0.26115 1.02095
 O147 O 0.22113 0.26187 0.97861
 O148 O 0.25144 0.22981 1.01938
 O149 O 0.27809 0.25449 1.01967
 O150 O 0.24814 0.28617 0.97821
 O151 O 0.24921 0.28550 1.02084
 O152 O 0.27743 0.25560 0.97721
 Cu153 Cu 0.23366 0.24352 0.99907
 Cu154 Cu 0.26588 0.27293 0.99898
 C155 C 0.26894 0.23823 0.96974
 C156 C 0.23106 0.27835 1.02853
 C157 C 0.22960 0.27930 0.97119
 C158 C 0.26986 0.23673 1.02658
 O159 O 0.24334 0.78490 0.47695
 O160 O 0.27654 0.75710 0.51895
 O161 O 0.27492 0.75601 0.47649
 O162 O 0.24580 0.78620 0.51941
 O163 O 0.21998 0.76072 0.52059
 O164 O 0.25058 0.72926 0.47926
 O165 O 0.25115 0.73125 0.52110
 O166 O 0.21909 0.75797 0.47795
 Cu167 Cu 0.26263 0.77371 0.49770
 Cu168 Cu 0.23255 0.74228 0.49993
 C169 C 0.22580 0.77586 0.46993
 C170 C 0.26939 0.73949 0.52729
 C171 C 0.26791 0.73739 0.47072
 C172 C 0.22807 0.77854 0.52749
 O173 O 0.28302 0.74739 -0.02081
 O174 O 0.25228 0.71730 0.02148
 O175 O 0.25333 0.71703 -0.02117
 O176 O 0.28226 0.74747 0.02176
 O177 O 0.25608 0.77258 0.02098
 O178 O 0.22690 0.74187 -0.02171
 O179 O 0.22581 0.74210 0.02052
 O180 O 0.25687 0.77253 -0.02110
 Cu181 Cu 0.27034 0.72976 0.00039
 Cu182 Cu 0.23875 0.75975 -0.00037
 C183 C 0.27514 0.76509 -0.02818
 C184 C 0.23384 0.72464 0.02827
 C185 C 0.23530 0.72433 -0.02891
 C186 C 0.27410 0.76521 0.02870
 O187 O 0.22616 0.23951 0.47930
 O188 O 0.25487 0.26933 0.52305
 O189 O 0.25569 0.27055 0.48091
 O190 O 0.22474 0.23880 0.52154
 O191 O 0.25139 0.21417 0.52204
 O192 O 0.28202 0.24558 0.48060
 O193 O 0.28120 0.24437 0.52320
 O194 O 0.25279 0.21486 0.47940
 Cu195 Cu 0.23769 0.25702 0.50120
 Cu196 Cu 0.26950 0.22725 0.50132
 C197 C 0.23476 0.22222 0.47173
 C198 C 0.27286 0.26180 0.53068
 C199 C 0.27400 0.26341 0.47366
 C200 C 0.23287 0.22123 0.52892
 O201 O 0.74803 0.78803 0.98010
 O202 O 0.77524 0.75682 1.02359
 O203 O 0.77627 0.75651 0.98114
 O204 O 0.74667 0.78826 1.02284
 O205 O 0.71917 0.76452 1.02203
 O206 O 0.74901 0.73245 0.98089
 O207 O 0.74801 0.73277 1.02281
 O208 O 0.72050 0.76431 0.97965
 Cu209 Cu 0.76425 0.77487 1.00200
 Cu210 Cu 0.73135 0.74619 1.00132
 C211 C 0.72980 0.78134 0.97223
 C212 C 0.76634 0.73939 1.03051
 C213 C 0.76768 0.73905 0.97394
 C214 C 0.72793 0.78169 1.02968
 O215 O 0.74341 0.28759 0.48102
 O216 O 0.77535 0.25870 0.52321
 O217 O 0.77538 0.25932 0.48056
 O218 O 0.74366 0.28749 0.52313
 O219 O 0.71933 0.26061 0.52348
 O220 O 0.75106 0.23242 0.48071
 O221 O 0.75100 0.23183 0.52253
 O222 O 0.71910 0.26070 0.48064
 Cu223 Cu 0.76195 0.27592 0.50203
 Cu224 Cu 0.73252 0.24381 0.50186
 C225 C 0.72591 0.27892 0.47347
 C226 C 0.76864 0.24026 0.52996
 C227 C 0.76863 0.24112 0.47332
 C228 C 0.72616 0.27883 0.53067
 O229 O 0.78188 0.23918 -0.02227
 O230 O 0.75214 0.20868 0.02022
 O231 O 0.75240 0.20869 -0.02249
 O232 O 0.78185 0.23884 0.02024
 O233 O 0.75564 0.26394 0.02012
 O234 O 0.72580 0.23336 -0.02235
 O235 O 0.72557 0.23338 0.02009
 O236 O 0.75562 0.26421 -0.02207
 Cu237 Cu 0.76968 0.22132 -0.00110
 Cu238 Cu 0.73796 0.25118 -0.00106
 C239 C 0.77381 0.25687 -0.02946
 C240 C 0.73395 0.21598 0.02763
 C241 C 0.73423 0.21598 -0.02991
 C242 C 0.77374 0.25645 0.02756
 O243 O 0.78382 0.74362 0.47709
 O244 O 0.75493 0.71203 0.51943
 O245 O 0.75507 0.71238 0.47673
 O246 O 0.78384 0.74287 0.51961
 O247 O 0.75700 0.76731 0.51984
 O248 O 0.72787 0.73641 0.47714
 O249 O 0.72774 0.73607 0.51956
 O250 O 0.75695 0.76803 0.47774
 Cu251 Cu 0.77209 0.72526 0.49814
 Cu252 Cu 0.73962 0.75434 0.49856
 C253 C 0.77531 0.76125 0.47023
 C254 C 0.73658 0.71883 0.52696
 C255 C 0.73667 0.71927 0.46946
 C256 C 0.77529 0.76018 0.52715
 O257 O 0.97981 0.25297 0.22369
 O258 O 1.02174 0.22255 0.25523
 O259 O 0.97845 0.22309 0.25349
 O260 O 1.02309 0.25150 0.22453
 O261 O 1.02159 0.27842 0.24825
 O262 O 0.97961 0.24769 0.27961
 O263 O 1.02291 0.24946 0.27897
 O264 O 0.97830 0.27757 0.24980
 Cu265 Cu 1.00079 0.23494 0.23673
 Cu266 Cu 1.00059 0.26587 0.26667
 C267 C 0.97149 0.27020 0.23173
 C268 C 1.02990 0.23119 0.27222
 C269 C 0.97144 0.23041 0.27152
 C270 C 1.02991 0.26984 0.23130
 O271 O 0.51970 0.28017 0.75244
 O272 O 0.47832 0.24774 0.78239
 O273 O 0.52141 0.24967 0.78113
 O274 O 0.47626 0.27898 0.75374
 O275 O 0.47706 0.25520 0.72686
 O276 O 0.52068 0.22452 0.75551
 O277 O 0.47730 0.22405 0.75543
 O278 O 0.51995 0.25550 0.72634
 Cu279 Cu 0.49884 0.26662 0.77005
 Cu280 Cu 0.49878 0.23731 0.73844
 C281 C 0.52707 0.27321 0.73439
 C282 C 0.47055 0.23050 0.77389
 C283 C 0.52876 0.23210 0.77302
 C284 C 0.46906 0.27222 0.73556
 O285 O 0.02518 0.25407 0.77573
 O286 O -0.02079 0.22504 0.74906
 O287 O 0.02232 0.22335 0.74668
 O288 O -0.01785 0.25529 0.77832
 O289 O -0.02030 0.27900 0.75144
 O290 O 0.02352 0.24934 0.72190
 O291 O -0.01975 0.24868 0.72202
 O292 O 0.02287 0.28011 0.75108
 Cu293 Cu 0.00232 0.23692 0.76503
 Cu294 Cu 0.00157 0.26678 0.73399
 C295 C 0.03157 0.27230 0.76818
 C296 C -0.02797 0.23180 0.73086
 C297 C 0.03012 0.23107 0.72911
 C298 C -0.02634 0.27231 0.77008
 O299 O 0.47542 0.27887 0.24775
 O300 O 0.52057 0.25027 0.21957
 O301 O 0.47752 0.24857 0.21816
 O302 O 0.51891 0.27977 0.24924
 O303 O 0.51889 0.25427 0.27458
 O304 O 0.47615 0.22408 0.24441
 O305 O 0.51957 0.22431 0.24441
 O306 O 0.47600 0.25429 0.27395
 Cu307 Cu 0.49804 0.26694 0.23115
 Cu308 Cu 0.49765 0.23664 0.26186
 C309 C 0.46811 0.27159 0.26571
 C310 C 0.52778 0.23241 0.22715
 C311 C 0.46958 0.23113 0.22612
 C312 C 0.52618 0.27217 0.26707
 O313 O 0.97755 0.75146 0.72508
 O314 O 1.01954 0.72119 0.75667
 O315 O 0.97618 0.72180 0.75517
 O316 O 1.02071 0.74974 0.72563
 O317 O 1.01947 0.77687 0.74911
 O318 O 0.97752 0.74665 0.78103
 O319 O 1.02088 0.74831 0.78017
 O320 O 0.97629 0.77631 0.75096
 Cu321 Cu 0.99846 0.73340 0.73819
 Cu322 Cu 0.99854 0.76462 0.76783
 C323 C 0.96944 0.76888 0.73295
 C324 C 1.02783 0.72999 0.77351
 C325 C 0.96927 0.72931 0.77314
 C326 C 1.02759 0.76814 0.73214
 O327 O 0.48100 0.75358 0.22480
 O328 O 0.52285 0.72235 0.25558
 O329 O 0.47955 0.72303 0.25389
 O330 O 0.52424 0.75232 0.22583
 O331 O 0.52261 0.77855 0.25029
 O332 O 0.48065 0.74687 0.28069
 O333 O 0.52399 0.74858 0.28007
 O334 O 0.47934 0.77742 0.25159
 Cu335 Cu 0.50195 0.73529 0.23746
 Cu336 Cu 0.50164 0.76536 0.26825
 C337 C 0.47262 0.77056 0.23329
 C338 C 0.53098 0.73050 0.27281
 C339 C 0.47250 0.72984 0.27210
 C340 C 0.53096 0.77050 0.23310
 O341 O -0.02330 0.72219 0.24523
 O342 O 0.02104 0.75354 0.27196
 O343 O -0.02185 0.75382 0.27312
 O344 O 0.02010 0.72153 0.24393
 O345 O 0.02058 0.74593 0.21756
 O346 O -0.02319 0.77685 0.24558
 O347 O 0.02028 0.77749 0.24518
 O348 O -0.02267 0.74509 0.21757
 Cu349 Cu -0.00092 0.73532 0.26122
 Cu350 Cu -0.00135 0.76373 0.22877
 C351 C -0.03058 0.72830 0.22685
 C352 C 0.02817 0.77091 0.26315
 C353 C -0.02989 0.77070 0.26420
 C354 C 0.02782 0.72845 0.22598
 O355 O 0.48030 0.77748 0.74766
 O356 O 0.52596 0.74850 0.72041
 O357 O 0.48282 0.74725 0.71832
 O358 O 0.52345 0.77873 0.74996
 O359 O 0.52454 0.75249 0.77447
 O360 O 0.48037 0.72340 0.74508
 O361 O 0.52361 0.72224 0.74482
 O362 O 0.48129 0.75366 0.77454
 Cu363 Cu 0.50324 0.76552 0.73151
 Cu364 Cu 0.50242 0.73542 0.76231
 C365 C 0.47316 0.77065 0.76587
 C366 C 0.53233 0.73021 0.72777
 C367 C 0.47423 0.73025 0.72655
 C368 C 0.53128 0.77078 0.76739
 C369 C 0.39550 0.31438 0.31040
 C370 C 0.39572 0.31392 0.33339
 C371 C 0.37848 0.32373 0.34521
 C372 C 0.36032 0.33313 0.33449
 C373 C 0.35980 0.33285 0.31168
 C374 C 0.37719 0.32380 0.29977
 C375 C 0.41445 0.30415 0.29838
 C376 C 0.41694 0.30565 0.27565
 C377 C 0.43463 0.29540 0.26517
 C378 C 0.45006 0.28320 0.27702
 C379 C 0.44805 0.28202 0.29970
 C380 C 0.43068 0.29276 0.31047
 C381 C 0.41280 0.30317 0.34444
 C382 C 0.42965 0.29242 0.33322
 H383 H 0.41288 0.30263 0.36205
 H384 H 0.44222 0.28394 0.34251
 H385 H 0.37897 0.32375 0.36282
 H386 H 0.34573 0.33950 0.30303
 H387 H 0.43598 0.29667 0.24765
 H388 H 0.46024 0.27300 0.30901
 H389 H 0.37573 0.32390 0.28230
 H390 H 0.40554 0.31476 0.26569
 C391 C 0.39962 0.81351 0.80910
 C392 C 0.39951 0.81335 0.83210
 C393 C 0.38198 0.82311 0.84355
 C394 C 0.36385 0.83217 0.83246
 C395 C 0.36367 0.83158 0.80966
 C396 C 0.38135 0.82258 0.79810
 C397 C 0.41885 0.80331 0.79748
 C398 C 0.42162 0.80448 0.77476
 C399 C 0.43953 0.79424 0.76465
 C400 C 0.45495 0.78236 0.77686
 C401 C 0.45267 0.78152 0.79954
 C402 C 0.43504 0.79226 0.80993
 C403 C 0.41657 0.80295 0.84351
 C404 C 0.43370 0.79223 0.83266
 H405 H 0.41640 0.80265 0.86113
 H406 H 0.44623 0.78402 0.84224
 H407 H 0.38223 0.82336 0.86116
 H408 H 0.34965 0.83793 0.80071
 H409 H 0.44106 0.79524 0.74713
 H410 H 0.46481 0.77274 0.80912
 H411 H 0.38014 0.82244 0.78062
 H412 H 0.41025 0.81333 0.76453
 C413 C -0.09743 0.31517 0.81702
 C414 C -0.11458 0.32447 0.80437
 C415 C -0.13352 0.33300 0.81452
 C416 C -0.13546 0.33302 0.83727
 C417 C -0.11789 0.32491 0.84977
 C418 C -0.09916 0.31602 0.83985
 C419 C -0.07830 0.30470 0.80549
 C420 C -0.06177 0.29280 0.81646
 C421 C -0.04482 0.28252 0.80491
 C422 C -0.04368 0.28414 0.78222
 C423 C -0.05985 0.29620 0.77114
 C424 C -0.07737 0.30604 0.78253
 C425 C -0.11275 0.32513 0.78168
 C426 C -0.09436 0.31646 0.77103
 H427 H -0.12573 0.33250 0.77200
 H428 H -0.09372 0.31740 0.75344
 H429 H -0.14700 0.33930 0.80473
 H430 H -0.11886 0.32519 0.86735
 H431 H -0.03255 0.27322 0.81379
 H432 H -0.05930 0.29717 0.75355
 H433 H -0.08626 0.30992 0.85033
 H434 H -0.06190 0.29077 0.83386
 C435 C -0.10167 0.81488 0.30883
 C436 C -0.10148 0.81438 0.33184
 C437 C -0.11880 0.82403 0.34365
 C438 C -0.13701 0.83335 0.33293
 C439 C -0.13743 0.83325 0.31012
 C440 C -0.11997 0.82432 0.29821
 C441 C -0.08275 0.80457 0.29682
 C442 C -0.08039 0.80579 0.27405
 C443 C -0.06288 0.79524 0.26357
 C444 C -0.04748 0.78303 0.27547
 C445 C -0.04929 0.78224 0.29819
 C446 C -0.06652 0.79321 0.30894
 C447 C -0.08435 0.80372 0.34290
 C448 C -0.06748 0.79300 0.33169
 H449 H -0.08427 0.80320 0.36050
 H450 H -0.05490 0.78454 0.34099
 H451 H -0.11838 0.82396 0.36126
 H452 H -0.15151 0.83988 0.30147
 H453 H -0.06171 0.79620 0.24603
 H454 H -0.03715 0.77321 0.30754
 H455 H -0.12138 0.82452 0.28074
 H456 H -0.09181 0.81484 0.26406
 C457 C 0.60482 0.68693 0.31464
 C458 C 0.60550 0.66392 0.31352
 C459 C 0.62332 0.65251 0.32279
 C460 C 0.64119 0.66371 0.33225
 C461 C 0.64074 0.68656 0.33269
 C462 C 0.62277 0.69803 0.32421
 C463 C 0.58541 0.69851 0.30478
 C464 C 0.58216 0.72113 0.30684
 C465 C 0.56420 0.73128 0.29680
 C466 C 0.54917 0.71923 0.28427
 C467 C 0.55189 0.69661 0.28257
 C468 C 0.56961 0.68614 0.29309
 C469 C 0.58877 0.65251 0.30258
 C470 C 0.57147 0.66341 0.29219
 H471 H 0.58936 0.63490 0.30155
 H472 H 0.55924 0.65387 0.28349
 H473 H 0.62359 0.63487 0.32222
 H474 H 0.65455 0.69562 0.33937
 H475 H 0.56235 0.74874 0.29848
 H476 H 0.54005 0.68713 0.27328
 H477 H 0.62355 0.71556 0.32482
 H478 H 0.59319 0.73126 0.31621
 C479 C 0.60271 0.18777 0.81379
 C480 C 0.60324 0.16478 0.81240
 C481 C 0.62092 0.15314 0.82163
 C482 C 0.63880 0.16410 0.83131
 C483 C 0.63852 0.18694 0.83204
 C484 C 0.62068 0.19864 0.82360
 C485 C 0.58342 0.19959 0.80401
 C486 C 0.58029 0.22220 0.80634
 C487 C 0.56233 0.23254 0.79651
 C488 C 0.54719 0.22071 0.78392
 C489 C 0.54985 0.19812 0.78184
 C490 C 0.56755 0.18744 0.79217
 C491 C 0.58649 0.15360 0.80126
 C492 C 0.56928 0.16472 0.79097
 H493 H 0.58697 0.13600 0.80003
 H494 H 0.55700 0.15536 0.78215
 H495 H 0.62107 0.13550 0.82085
 H496 H 0.65236 0.19582 0.83890
 H497 H 0.56051 0.24999 0.79846
 H498 H 0.53791 0.18881 0.77250
 H499 H 0.62158 0.21616 0.82443
 H500 H 0.59139 0.23216 0.81580
 C501 C 1.10234 0.68861 0.81633
 C502 C 1.10321 0.66558 0.81608
 C503 C 1.12114 0.65469 0.82576
 C504 C 1.13890 0.66640 0.83478
 C505 C 1.13829 0.68924 0.83431
 C506 C 1.12022 0.70022 0.82541
 C507 C 1.08278 0.69963 0.80617
 C508 C 1.07931 0.72227 0.80745
 C509 C 1.06120 0.73188 0.79719
 C510 C 1.04620 0.71926 0.78519
 C511 C 1.04913 0.69662 0.78425
 C512 C 1.06703 0.68670 0.79501
 C513 C 1.08656 0.65362 0.80562
 C514 C 1.06911 0.66397 0.79491
 H515 H 1.08731 0.63599 0.80525
 H516 H 1.05693 0.65401 0.78663
 H517 H 1.12154 0.63704 0.82589
 H518 H 1.15203 0.69866 0.84061
 H519 H 1.05919 0.74938 0.79827
 H520 H 1.03733 0.68671 0.77537
 H521 H 1.12086 0.71777 0.82532
 H522 H 1.09029 0.73283 0.81640
 C523 C 1.10380 0.18902 0.31536
 C524 C 1.10474 0.16601 0.31459
 C525 C 1.12262 0.15493 0.32415
 C526 C 1.14028 0.16646 0.33358
 C527 C 1.13956 0.18930 0.33373
 C528 C 1.12153 0.20045 0.32495
 C529 C 1.08437 0.20025 0.30515
 C530 C 1.08089 0.22287 0.30678
 C531 C 1.06294 0.23267 0.29641
 C532 C 1.04811 0.22028 0.28399
 C533 C 1.05105 0.19765 0.28271
 C534 C 1.06879 0.18753 0.29354
 C535 C 1.08823 0.15426 0.30369
 C536 C 1.07089 0.16481 0.29302
 H537 H 1.08902 0.13664 0.30294
 H538 H 1.05883 0.15501 0.28438
 H539 H 1.12311 0.13729 0.32381
 H540 H 1.15321 0.19860 0.34039
 H541 H 1.06092 0.25015 0.29777
 H542 H 1.03938 0.18790 0.27350
 H543 H 1.12211 0.21800 0.32534
 H544 H 1.09175 0.23327 0.31604
 C545 C 0.59733 0.31961 0.68959
 C546 C 0.61443 0.32841 0.70265
 C547 C 0.63298 0.33819 0.69290
 C548 C 0.63444 0.34023 0.67020
 C549 C 0.61685 0.33260 0.65739
 C550 C 0.59861 0.32230 0.66688
 C551 C 0.57859 0.30792 0.70058
 C552 C 0.56233 0.29619 0.68904
 C553 C 0.54558 0.28500 0.70007
 C554 C 0.54437 0.28559 0.72280
 C555 C 0.56037 0.29730 0.73446
 C556 C 0.57775 0.30795 0.72358
 C557 C 0.61285 0.32751 0.72534
 C558 C 0.59466 0.31792 0.73558
 H559 H 0.62579 0.33451 0.73536
 H560 H 0.59412 0.31780 0.75319
 H561 H 0.64642 0.34407 0.70299
 H562 H 0.61736 0.33445 0.63989
 H563 H 0.53345 0.27590 0.69079
 H564 H 0.55979 0.29737 0.75208
 H565 H 0.58564 0.31671 0.65619
 H566 H 0.56254 0.29502 0.67155
 C567 C 0.60322 0.81529 0.18956
 C568 C 0.60359 0.83831 0.19071
 C569 C 0.62066 0.85005 0.18045
 C570 C 0.63804 0.83917 0.16982
 C571 C 0.63799 0.81633 0.16942
 C572 C 0.62080 0.80453 0.17898
 C573 C 0.58443 0.80336 0.20020
 C574 C 0.58143 0.78071 0.19816
 C575 C 0.56388 0.77026 0.20863
 C576 C 0.54899 0.78203 0.22159
 C577 C 0.55156 0.80467 0.22345
 C578 C 0.56887 0.81544 0.21250
 C579 C 0.58722 0.84940 0.20248
 C580 C 0.57050 0.83819 0.21350
 H581 H 0.58760 0.86701 0.20355
 H582 H 0.55847 0.84750 0.22271
 H583 H 0.62064 0.86770 0.18096
 H584 H 0.65147 0.80754 0.16179
 H585 H 0.56217 0.75279 0.20685
 H586 H 0.53984 0.81394 0.23310
 H587 H 0.62184 0.78701 0.17827
 H588 H 0.59230 0.77076 0.18841
 C589 C 1.10309 0.31267 0.18735
 C590 C 1.10344 0.33571 0.18745
 C591 C 1.12088 0.34697 0.17726
 C592 C 1.13868 0.33562 0.16783
 C593 C 1.13861 0.31278 0.16848
 C594 C 1.12103 0.30143 0.17791
 C595 C 1.08398 0.30124 0.19797
 C596 C 1.08099 0.27852 0.19685
 C597 C 1.06321 0.26855 0.20741
 C598 C 1.04807 0.28088 0.21954
 C599 C 1.05057 0.30358 0.22041
 C600 C 1.06812 0.31386 0.20934
 C601 C 1.08673 0.34733 0.19821
 C602 C 1.06971 0.33663 0.20931
 H603 H 1.08709 0.36497 0.19847
 H604 H 1.05745 0.34635 0.21777
 H605 H 1.12087 0.36462 0.17699
 H606 H 1.15240 0.30365 0.16186
 H607 H 1.06152 0.25101 0.20639
 H608 H 1.03866 0.31327 0.22939
 H609 H 1.12208 0.28390 0.17808
 H610 H 1.09207 0.26816 0.18778
 C611 C 1.09986 0.81085 0.68663
 C612 C 1.10048 0.83389 0.68712
 C613 C 1.11792 0.84513 0.67694
 C614 C 1.13548 0.83377 0.66713
 C615 C 1.13506 0.81093 0.66716
 C616 C 1.11745 0.79960 0.67658
 C617 C 1.08093 0.79945 0.69759
 C618 C 1.07780 0.77675 0.69644
 C619 C 1.06028 0.76679 0.70742
 C620 C 1.04554 0.77913 0.72001
 C621 C 1.04816 0.80182 0.72091
 C622 C 1.06546 0.81207 0.70947
 C623 C 1.08411 0.84551 0.69835
 C624 C 1.06722 0.83482 0.70965
 H625 H 1.08466 0.86315 0.69887
 H626 H 1.05524 0.84454 0.71850
 H627 H 1.11822 0.86278 0.67714
 H628 H 1.14867 0.80178 0.66021
 H629 H 1.05849 0.74927 0.70635
 H630 H 1.03655 0.81151 0.73026
 H631 H 1.11826 0.78206 0.67633
 H632 H 1.08859 0.76638 0.68705
 C633 C 0.40234 0.68750 0.68073
 C634 C 0.38531 0.67829 0.69365
 C635 C 0.36630 0.66958 0.68380
 C636 C 0.36422 0.66920 0.66108
 C637 C 0.38167 0.67725 0.64830
 C638 C 0.40044 0.68639 0.65793
 C639 C 0.42160 0.69808 0.69194
 C640 C 0.43805 0.70992 0.68070
 C641 C 0.45520 0.72019 0.69197
 C642 C 0.45661 0.71860 0.71464
 C643 C 0.44048 0.70668 0.72599
 C644 C 0.42276 0.69687 0.71489
 C645 C 0.38734 0.67785 0.71632
 C646 C 0.40586 0.68657 0.72668
 H647 H 0.37444 0.67055 0.72621
 H648 H 0.40668 0.68575 0.74426
 H649 H 0.35293 0.66335 0.69382
 H650 H 0.38061 0.67670 0.63074
 H651 H 0.46743 0.72941 0.68290
 H652 H 0.44122 0.70576 0.74357
 H653 H 0.41325 0.69240 0.64726
 H654 H 0.43771 0.71189 0.66328
 C655 C 0.39971 0.18558 0.17995
 C656 C 0.38280 0.17602 0.19276
 C657 C 0.36434 0.16637 0.18276
 C658 C 0.36277 0.16533 0.16001
 C659 C 0.38020 0.17370 0.14739
 C660 C 0.39837 0.18381 0.15716
 C661 C 0.41832 0.19713 0.19127
 C662 C 0.43444 0.20946 0.18008
 C663 C 0.45107 0.22045 0.19144
 C664 C 0.45229 0.21910 0.21414
 C665 C 0.43641 0.20681 0.22543
 C666 C 0.41918 0.19630 0.21425
 C667 C 0.38442 0.17610 0.21546
 C668 C 0.40246 0.18562 0.22596
 H669 H 0.37162 0.16852 0.22528
 H670 H 0.40302 0.18512 0.24356
 H671 H 0.35101 0.15990 0.19267
 H672 H 0.37957 0.17265 0.12984
 H673 H 0.46310 0.22997 0.18241
 H674 H 0.43698 0.20610 0.24304
 H675 H 0.41119 0.19003 0.14660
 H676 H 0.43422 0.21122 0.16265
 C677 C -0.10479 0.68434 0.18591
 C678 C -0.10599 0.68514 0.16295
 C679 C -0.12396 0.67554 0.15207
 C680 C -0.14146 0.66595 0.16374
 C681 C -0.14051 0.66574 0.18652
 C682 C -0.12239 0.67462 0.19748
 C683 C -0.08523 0.69463 0.19689
 C684 C -0.08152 0.69315 0.21946
 C685 C -0.06346 0.70366 0.22901
 C686 C -0.04878 0.71607 0.21639
 C687 C -0.05193 0.71713 0.19382
 C688 C -0.06976 0.70622 0.18398
 C689 C -0.08958 0.69605 0.15102
 C690 C -0.07209 0.70672 0.16134
 H691 H -0.09055 0.69680 0.13345
 H692 H -0.06011 0.71535 0.15141
 H693 H -0.12459 0.67586 0.13447
 H694 H -0.15401 0.65890 0.19592
 H695 H -0.06128 0.70247 0.24645
 H696 H -0.04038 0.72635 0.18389
 H697 H -0.12274 0.67417 0.21500
 H698 H -0.09232 0.68393 0.23001
 C699 C -0.10229 0.18965 0.68838
 C700 C -0.10289 0.19038 0.66540
 C701 C -0.12064 0.18084 0.65412
 C702 C -0.13846 0.17136 0.66540
 C703 C -0.13818 0.17140 0.68821
 C704 C -0.12031 0.18024 0.69957
 C705 C -0.08283 0.19961 0.69979
 C706 C -0.07961 0.19796 0.72242
 C707 C -0.06151 0.20802 0.73236
 C708 C -0.04633 0.22017 0.72006
 C709 C -0.04904 0.22146 0.69746
 C710 C -0.06688 0.21095 0.68722
 C711 C -0.08608 0.20107 0.65384
 C712 C -0.06870 0.21152 0.66454
 H713 H -0.08661 0.20179 0.63624
 H714 H -0.05636 0.21997 0.65488
 H715 H -0.12077 0.18102 0.63651
 H716 H -0.15198 0.16471 0.69730
 H717 H -0.05966 0.20668 0.74982
 H718 H -0.03709 0.23046 0.68779
 H719 H -0.12115 0.17993 0.71708
 H720 H -0.09079 0.18889 0.73271
 C721 C 0.30875 0.39850 0.32142
 C722 C 0.33211 0.39677 0.31997
 C723 C 0.34300 0.37870 0.32900
 C724 C 0.33091 0.36166 0.33861
 C725 C 0.30772 0.36319 0.33950
 C726 C 0.29677 0.38139 0.33121
 C727 C 0.29776 0.41808 0.31163
 C728 C 0.27488 0.42223 0.31372
 C729 C 0.26528 0.44020 0.30350
 C730 C 0.27816 0.45434 0.29080
 C731 C 0.30108 0.45079 0.28921
 C732 C 0.31099 0.43303 0.29981
 C733 C 0.34438 0.41270 0.30895
 C734 C 0.33401 0.43021 0.29872
 H735 H 0.36225 0.41132 0.30772
 H736 H 0.34419 0.44181 0.28993
 H737 H 0.36091 0.37761 0.32816
 H738 H 0.29798 0.35006 0.34639
 H739 H 0.24757 0.44270 0.30509
 H740 H 0.31122 0.46191 0.27977
 H741 H 0.27891 0.38148 0.33214
 H742 H 0.26412 0.41184 0.32315
 C743 C 0.31028 -0.10371 0.81872
 C744 C 0.33363 -0.10496 0.81685
 C745 C 0.34510 -0.12274 0.82579
 C746 C 0.33356 -0.13997 0.83573
 C747 C 0.31033 -0.13903 0.83678
 C748 C 0.29884 -0.12112 0.82859
 C749 C 0.29869 -0.08427 0.80938
 C750 C 0.27583 -0.08047 0.81223
 C751 C 0.26564 -0.06252 0.80256
 C752 C 0.27789 -0.04804 0.78964
 C753 C 0.30079 -0.05127 0.78724
 C754 C 0.31131 -0.06899 0.79735
 C755 C 0.34532 -0.08875 0.80560
 C756 C 0.33435 -0.07141 0.79566
 H757 H 0.36318 -0.08977 0.80400
 H758 H 0.34409 -0.05958 0.78669
 H759 H 0.36303 -0.12338 0.82476
 H760 H 0.30100 -0.15234 0.84386
 H761 H 0.24797 -0.06028 0.80477
 H762 H 0.31045 -0.03988 0.77763
 H763 H 0.28100 -0.12147 0.82973
 H764 H 0.26554 -0.09110 0.82191
 C765 C 0.81048 0.39614 0.82208
 C766 C 0.83393 0.39543 0.82227
 C767 C 0.84494 0.37747 0.83135
 C768 C 0.83297 0.35953 0.83934
 C769 C 0.80972 0.35998 0.83840
 C770 C 0.79860 0.37808 0.83010
 C771 C 0.79936 0.41574 0.81253
 C772 C 0.77625 0.41899 0.81342
 C773 C 0.76661 0.43713 0.80357
 C774 C 0.77969 0.45233 0.79238
 C775 C 0.80278 0.44964 0.79197
 C776 C 0.81271 0.43174 0.80231
 C777 C 0.84624 0.41234 0.81282
 C778 C 0.83585 0.42986 0.80264
 H779 H 0.86420 0.41173 0.81280
 H780 H 0.84610 0.44225 0.79508
 H781 H 0.86290 0.37722 0.83185
 H782 H 0.80010 0.34614 0.84389
 H783 H 0.74876 0.43898 0.80423
 H784 H 0.81303 0.46160 0.78373
 H785 H 0.78074 0.37735 0.82962
 H786 H 0.76536 0.40778 0.82170
 C787 C 0.81051 -0.10152 0.32119
 C788 C 0.83386 -0.10299 0.31947
 C789 C 0.84501 -0.12117 0.32793
 C790 C 0.83317 -0.13855 0.33724
 C791 C 0.80996 -0.13735 0.33818
 C792 C 0.79876 -0.11906 0.33046
 C793 C 0.79924 -0.08170 0.31229
 C794 C 0.77640 -0.07775 0.31501
 C795 C 0.76650 -0.05948 0.30569
 C796 C 0.77903 -0.04480 0.29326
 C797 C 0.80193 -0.04816 0.29104
 C798 C 0.81216 -0.06624 0.30079
 C799 C 0.84584 -0.08660 0.30879
 C800 C 0.83518 -0.06886 0.29925
 H801 H 0.86371 -0.08779 0.30731
 H802 H 0.84514 -0.05690 0.29070
 H803 H 0.86294 -0.12203 0.32698
 H804 H 0.80041 -0.15077 0.34476
 H805 H 0.74882 -0.05714 0.30775
 H806 H 0.81180 -0.03663 0.28182
 H807 H 0.78091 -0.11922 0.33146
 H808 H 0.76590 -0.08852 0.32430
 C809 C 0.31012 0.60621 0.67792
 C810 C 0.33357 0.60698 0.67777
 C811 C 0.34461 0.62477 0.66831
 C812 C 0.33267 0.64250 0.65991
 C813 C 0.30942 0.64203 0.66088
 C814 C 0.29827 0.62410 0.66955
 C815 C 0.29895 0.58675 0.68778
 C816 C 0.27586 0.58339 0.68678
 C817 C 0.26615 0.56538 0.69688
 C818 C 0.27916 0.55043 0.70842
 C819 C 0.30223 0.55323 0.70896
 C820 C 0.31223 0.57098 0.69835
 C821 C 0.34582 0.59030 0.68760
 C822 C 0.33537 0.57294 0.69810
 H823 H 0.36378 0.59095 0.68767
 H824 H 0.34558 0.56074 0.70593
 H825 H 0.36257 0.62503 0.66780
 H826 H 0.29981 0.65573 0.65507
 H827 H 0.24832 0.56346 0.69613
 H828 H 0.31243 0.54146 0.71748
 H829 H 0.28041 0.62480 0.67002
 H830 H 0.26502 0.59441 0.67823
 C831 C 0.30962 1.10159 0.17754
 C832 C 0.33304 1.10287 0.17806
 C833 C 0.34399 1.12061 0.16837
 C834 C 0.33191 1.13778 0.15905
 C835 C 0.30866 1.13682 0.15936
 C836 C 0.29764 1.11894 0.16828
 C837 C 0.29857 1.08219 0.18766
 C838 C 0.27560 1.07829 0.18608
 C839 C 0.26596 1.06043 0.19651
 C840 C 0.27892 1.04618 0.20894
 C841 C 0.30191 1.04947 0.21002
 C842 C 0.31185 1.06707 0.19912
 C843 C 0.34534 1.08678 0.18877
 C844 C 0.33494 1.06953 0.19949
 H845 H 0.36327 1.08783 0.18935
 H846 H 0.34517 1.05781 0.20801
 H847 H 0.36194 1.12126 0.16837
 H848 H 0.29893 1.15010 0.15282
 H849 H 0.24820 1.05811 0.19533
 H850 H 0.31208 1.03822 0.21923
 H851 H 0.27976 1.11926 0.16820
 H852 H 0.26480 1.08879 0.17685
 C853 C 0.80680 0.60024 0.17710
 C854 C 0.83019 0.60194 0.17787
 C855 C 0.84085 0.62036 0.16923
 C856 C 0.82849 0.63777 0.16073
 C857 C 0.80526 0.63635 0.16079
 C858 C 0.79454 0.61781 0.16865
 C859 C 0.79607 0.58018 0.18621
 C860 C 0.77318 0.57597 0.18435
 C861 C 0.76379 0.55760 0.19410
 C862 C 0.77693 0.54312 0.20608
 C863 C 0.79988 0.54667 0.20727
 C864 C 0.80957 0.56482 0.19709
 C865 C 0.84274 0.58556 0.18785
 C866 C 0.83261 0.56764 0.19768
 H867 H 0.86064 0.58691 0.18860
 H868 H 0.84300 0.55573 0.20573
 H869 H 0.85879 0.62137 0.16941
 H870 H 0.79533 0.64977 0.15486
 H871 H 0.74606 0.55510 0.19284
 H872 H 0.81020 0.53527 0.21614
 H873 H 0.77666 0.61779 0.16844
 H874 H 0.76224 0.58665 0.17550
 C875 C 0.80979 1.10556 0.67828
 C876 C 0.83311 1.10748 0.67994
 C877 C 0.84394 1.12582 0.67130
 C878 C 0.83180 1.14293 0.66194
 C879 C 0.80861 1.14129 0.66110
 C880 C 0.79773 1.12283 0.66896
 C881 C 0.79888 1.08555 0.68729
 C882 C 0.77614 1.08108 0.68452
 C883 C 0.76657 1.06263 0.69391
 C884 C 0.77934 1.04832 0.70647
 C885 C 0.80214 1.05222 0.70876
 C886 C 0.81205 1.07045 0.69890
 C887 C 0.84537 1.09142 0.69072
 C888 C 0.83501 1.07355 0.70042
 H889 H 0.86321 1.09296 0.69217
 H890 H 0.84517 1.06185 0.70906
 H891 H 0.86185 1.12698 0.67215
 H892 H 0.79881 1.15447 0.65447
 H893 H 0.74897 1.05986 0.69181
 H894 H 0.81219 1.04096 0.71808
 H895 H 0.77988 1.12264 0.66803
 H896 H 0.76548 1.09155 0.67512
 C897 C 0.68737 0.59840 0.30483
 C898 C 0.68822 0.59858 0.32780
 C899 C 0.67856 0.61582 0.33944
 C900 C 0.66904 0.63361 0.32852
 C901 C 0.66904 0.63372 0.30571
 C902 C 0.67786 0.61632 0.29400
 C903 C 0.69736 0.57948 0.29300
 C904 C 0.69520 0.57661 0.27039
 C905 C 0.70515 0.55895 0.26003
 C906 C 0.71774 0.54387 0.27184
 C907 C 0.71967 0.54628 0.29442
 C908 C 0.70912 0.56366 0.30513
 C909 C 0.69926 0.58191 0.33896
 C910 C 0.70993 0.56510 0.32784
 H911 H 0.70013 0.58214 0.35655
 H912 H 0.71867 0.55287 0.33719
 H913 H 0.67884 0.61566 0.35706
 H914 H 0.66242 0.64749 0.29686
 H915 H 0.70332 0.55730 0.24259
 H916 H 0.72898 0.53437 0.30369
 H917 H 0.67756 0.61748 0.27652
 H918 H 0.68572 0.58767 0.26045
 C919 C 0.68459 1.09898 0.80296
 C920 C 0.68514 1.09868 0.82595
 C921 C 0.67553 1.11576 0.83784
 C922 C 0.66641 1.13389 0.82718
 C923 C 0.66663 1.13445 0.80437
 C924 C 0.67537 1.11719 0.79240
 C925 C 0.69475 1.08031 0.79087
 C926 C 0.69305 1.07795 0.76815
 C927 C 0.70350 1.06070 0.75754
 C928 C 0.71611 1.04556 0.76924
 C929 C 0.71736 1.04734 0.79193
 C930 C 0.70638 1.06429 0.80284
 C931 C 0.69592 1.08172 0.83691
 C932 C 0.70676 1.06517 0.82559
 H933 H 0.69652 1.08156 0.85451
 H934 H 0.71537 1.05274 0.83480
 H935 H 0.67559 1.11525 0.85545
 H936 H 0.66025 1.14848 0.79574
 H937 H 0.70218 1.05950 0.74002
 H938 H 0.72668 1.03536 0.80111
 H939 H 0.67528 1.11870 0.77494
 H940 H 0.68366 1.08917 0.75831
 C941 C 0.18664 0.60017 0.81152
 C942 C 0.17651 0.61696 0.79930
 C943 C 0.16710 0.63493 0.80991
 C944 C 0.16673 0.63610 0.83270
 C945 C 0.17557 0.61877 0.84476
 C946 C 0.18554 0.60110 0.83437
 C947 C 0.19794 0.58207 0.79952
 C948 C 0.21099 0.56619 0.81000
 C949 C 0.22161 0.54994 0.79803
 C950 C 0.21912 0.54887 0.77542
 C951 C 0.20622 0.56458 0.76481
 C952 C 0.19613 0.58145 0.77659
 C953 C 0.17574 0.61566 0.77659
 C954 C 0.18489 0.59802 0.76551
 H955 H 0.16772 0.62836 0.76724
 H956 H 0.18366 0.59766 0.74794
 H957 H 0.16026 0.64818 0.80041
 H958 H 0.17502 0.61909 0.86235
 H959 H 0.23164 0.53803 0.80649
 H960 H 0.20469 0.56411 0.74725
 H961 H 0.19215 0.58832 0.84449
 H962 H 0.21357 0.56630 0.82735
 C963 C 0.18743 1.10155 0.30688
 C964 C 0.18807 1.10187 0.32986
 C965 C 0.17813 1.11907 0.34132
 C966 C 0.16853 1.13670 0.33021
 C967 C 0.16872 1.13668 0.30741
 C968 C 0.17782 1.11930 0.29587
 C969 C 0.19774 1.08268 0.29524
 C970 C 0.19583 1.07968 0.27263
 C971 C 0.20606 1.06207 0.26246
 C972 C 0.21870 1.04718 0.27446
 C973 C 0.22039 1.04973 0.29704
 C974 C 0.20956 1.06705 0.30756
 C975 C 0.19919 1.08538 0.34120
 C976 C 0.21014 1.06862 0.33027
 H977 H 0.19990 1.08571 0.35880
 H978 H 0.21893 1.05653 0.33976
 H979 H 0.17826 1.11902 0.35894
 H980 H 0.16202 1.15033 0.29843
 H981 H 0.20442 1.06032 0.24501
 H982 H 0.22974 1.03797 0.30645
 H983 H 0.17766 1.12037 0.27838
 H984 H 0.18632 1.09058 0.26255
 C985 C 0.68867 0.40180 0.69131
 C986 C 0.66522 0.40106 0.69171
 C987 C 0.65390 0.38423 0.68094
 C988 C 0.66560 0.36744 0.67053
 C989 C 0.68886 0.36788 0.67080
 C990 C 0.70026 0.38486 0.68088
 C991 C 0.70013 0.42025 0.70262
 C992 C 0.72322 0.42355 0.70148
 C993 C 0.73320 0.44064 0.71273
 C994 C 0.72051 0.45477 0.72559
 C995 C 0.69743 0.45198 0.72645
 C996 C 0.68714 0.43511 0.71476
 C997 C 0.65325 0.41679 0.70329
 C998 C 0.66400 0.43319 0.71492
 H999 H 0.63530 0.41614 0.70377
 H1000 H 0.65400 0.44470 0.72399
 H1001 H 0.63593 0.38398 0.68090
 H1002 H 0.69828 0.35487 0.66334
 H1003 H 0.75103 0.44255 0.71170
 H1004 H 0.68745 0.46310 0.73602
 H1005 H 0.71812 0.38414 0.68071
 H1006 H 0.73386 0.41321 0.69189
 C1007 C 0.68581 -0.09431 0.19205
 C1008 C 0.67666 -0.11169 0.20425
 C1009 C 0.66715 -0.12959 0.19359
 C1010 C 0.66560 -0.13012 0.17082
 C1011 C 0.67367 -0.11233 0.15884
 C1012 C 0.68379 -0.09474 0.16924
 C1013 C 0.69698 -0.07612 0.20404
 C1014 C 0.70900 -0.05949 0.19346
 C1015 C 0.71946 -0.04312 0.20542
 C1016 C 0.71782 -0.04268 0.22813
 C1017 C 0.70594 -0.05914 0.23884
 C1018 C 0.69604 -0.07610 0.22704
 C1019 C 0.67681 -0.11099 0.22700
 C1020 C 0.68585 -0.09334 0.23814
 H1021 H 0.66955 -0.12416 0.23635
 H1022 H 0.68532 -0.09344 0.25575
 H1023 H 0.66099 -0.14320 0.20306
 H1024 H 0.67223 -0.11212 0.14130
 H1025 H 0.72871 -0.03063 0.19688
 H1026 H 0.70510 -0.05914 0.25645
 H1027 H 0.68969 -0.08155 0.15918
 H1028 H 0.71088 -0.05908 0.17603
 C1029 C 0.18581 0.40298 0.18924
 C1030 C 0.17612 0.38618 0.20183
 C1031 C 0.16678 0.36795 0.19160
 C1032 C 0.16598 0.36652 0.16883
 C1033 C 0.17439 0.38385 0.15642
 C1034 C 0.18432 0.40177 0.16642
 C1035 C 0.19706 0.42139 0.20082
 C1036 C 0.20973 0.43734 0.18993
 C1037 C 0.22032 0.45389 0.20153
 C1038 C 0.21816 0.45518 0.22416
 C1039 C 0.20562 0.43942 0.23518
 C1040 C 0.19559 0.42226 0.22377
 C1041 C 0.17570 0.38773 0.22454
 C1042 C 0.18477 0.40564 0.23524
 H1043 H 0.16802 0.37501 0.23418
 H1044 H 0.18382 0.40619 0.25282
 H1045 H 0.16029 0.35471 0.20139
 H1046 H 0.17350 0.38335 0.13885
 H1047 H 0.23009 0.46584 0.19277
 H1048 H 0.20436 0.44007 0.25275
 H1049 H 0.19059 0.41454 0.15604
 H1050 H 0.21205 0.43706 0.17254
 C1051 C 0.18279 -0.10164 0.69391
 C1052 C 0.18291 -0.10144 0.67092
 C1053 C 0.17284 -0.11849 0.65932
 C1054 C 0.16366 -0.13645 0.67027
 C1055 C 0.16438 -0.13693 0.69307
 C1056 C 0.17360 -0.11973 0.70476
 C1057 C 0.19323 -0.08294 0.70572
 C1058 C 0.19181 -0.08045 0.72843
 C1059 C 0.20225 -0.06304 0.73876
 C1060 C 0.21459 -0.04786 0.72679
 C1061 C 0.21572 -0.04985 0.70411
 C1062 C 0.20469 -0.06697 0.69347
 C1063 C 0.19365 -0.08460 0.65968
 C1064 C 0.20475 -0.06801 0.67072
 H1065 H 0.19395 -0.08453 0.64207
 H1066 H 0.21326 -0.05564 0.66129
 H1067 H 0.17255 -0.11806 0.64171
 H1068 H 0.15801 -0.15085 0.70191
 H1069 H 0.20103 -0.06170 0.75628
 H1070 H 0.22483 -0.03785 0.69473
 H1071 H 0.17386 -0.12118 0.72222
 H1072 H 0.18256 -0.09163 0.73850
 C1073 C 0.31621 0.31111 0.40352
 C1074 C 0.32502 0.29859 0.38626
 C1075 C 0.33344 0.30896 0.36765
 C1076 C 0.33410 0.33179 0.36623
 C1077 C 0.32649 0.34412 0.38392
 C1078 C 0.31754 0.33399 0.40226
 C1079 C 0.30588 0.29939 0.42238
 C1080 C 0.29413 0.31023 0.43897
 C1081 C 0.28400 0.29850 0.45571
 C1082 C 0.28574 0.27577 0.45661
 C1083 C 0.29762 0.26481 0.44037
 C1084 C 0.30716 0.27637 0.42300
 C1085 C 0.32546 0.27583 0.38769
 C1086 C 0.31715 0.26498 0.40588
 H1087 H 0.33249 0.26624 0.37461
 H1088 H 0.31799 0.24735 0.40626
 H1089 H 0.33931 0.29923 0.35413
 H1090 H 0.32731 0.36173 0.38342
 H1091 H 0.27475 0.30724 0.46803
 H1092 H 0.29855 0.24717 0.44072
 H1093 H 0.31189 0.34434 0.41529
 H1094 H 0.29205 0.32767 0.43900
 C1095 C 0.31894 0.81117 -0.09850
 C1096 C 0.32801 0.79829 -0.11537
 C1097 C 0.33677 0.80827 -0.13404
 C1098 C 0.33746 0.83107 -0.13589
 C1099 C 0.32972 0.84376 -0.11852
 C1100 C 0.32046 0.83401 -0.10012
 C1101 C 0.30810 0.79987 -0.07966
 C1102 C 0.29601 0.81108 -0.06357
 C1103 C 0.28546 0.79974 -0.04681
 C1104 C 0.28707 0.77702 -0.04541
 C1105 C 0.29923 0.76568 -0.06120
 C1106 C 0.30922 0.77685 -0.07858
 C1107 C 0.32828 0.77556 -0.11349
 C1108 C 0.31952 0.76510 -0.09527
 H1109 H 0.33551 0.76569 -0.12626
 H1110 H 0.32025 0.74747 -0.09455
 H1111 H 0.34279 0.79829 -0.14731
 H1112 H 0.33057 0.86136 -0.11936
 H1113 H 0.27601 0.80877 -0.03485
 H1114 H 0.30008 0.74805 -0.06046
 H1115 H 0.31468 0.84462 -0.08736
 H1116 H 0.29401 0.82853 -0.06393
 C1117 C 0.81647 0.30333 -0.10017
 C1118 C 0.81485 0.32632 -0.10019
 C1119 C 0.82457 0.33849 -0.11704
 C1120 C 0.83502 0.32805 -0.13458
 C1121 C 0.83583 0.30521 -0.13488
 C1122 C 0.82687 0.29300 -0.11788
 C1123 C 0.80636 0.29095 -0.08164
 C1124 C 0.80902 0.26831 -0.07897
 C1125 C 0.79880 0.25743 -0.06174
 C1126 C 0.78547 0.26876 -0.04692
 C1127 C 0.78314 0.29139 -0.04908
 C1128 C 0.79385 0.30259 -0.06602
 C1129 C 0.80305 0.33698 -0.08370
 C1130 C 0.79237 0.32533 -0.06726
 H1131 H 0.80162 0.35457 -0.08379
 H1132 H 0.78304 0.33430 -0.05515
 H1133 H 0.82375 0.35612 -0.11671
 H1134 H 0.84330 0.29673 -0.14846
 H1135 H 0.80096 0.23997 -0.06028
 H1136 H 0.77323 0.30031 -0.03737
 H1137 H 0.82785 0.27551 -0.11916
 H1138 H 0.81904 0.25873 -0.08990
 C1139 C 0.81798 0.81003 0.40108
 C1140 C 0.82722 0.79780 0.38382
 C1141 C 0.83599 0.80847 0.36554
 C1142 C 0.83659 0.83131 0.36449
 C1143 C 0.82868 0.84335 0.38225
 C1144 C 0.81936 0.83292 0.40025
 C1145 C 0.80723 0.79801 0.41951
 C1146 C 0.79498 0.80857 0.43594
 C1147 C 0.78467 0.79658 0.45239
 C1148 C 0.78669 0.77386 0.45313
 C1149 C 0.79891 0.76317 0.43695
 C1150 C 0.80865 0.77500 0.41988
 C1151 C 0.82771 0.77502 0.38494
 C1152 C 0.81907 0.76389 0.40282
 H1153 H 0.83506 0.76564 0.37187
 H1154 H 0.82002 0.74626 0.40299
 H1155 H 0.84214 0.79897 0.35198
 H1156 H 0.82946 0.86097 0.38205
 H1157 H 0.77516 0.80511 0.46467
 H1158 H 0.80007 0.74555 0.43718
 H1159 H 0.81345 0.84304 0.41335
 H1160 H 0.79272 0.82599 0.43609
 C1161 C 0.68190 0.32197 0.60247
 C1162 C 0.67220 0.30841 0.61849
 C1163 C 0.66306 0.31759 0.63736
 C1164 C 0.66273 0.34026 0.64032
 C1165 C 0.67141 0.35370 0.62394
 C1166 C 0.68096 0.34474 0.60531
 C1167 C 0.69277 0.31144 0.58324
 C1168 C 0.70498 0.32330 0.56766
 C1169 C 0.71554 0.31265 0.55051
 C1170 C 0.71393 0.29000 0.54821
 C1171 C 0.70158 0.27804 0.56342
 C1172 C 0.69145 0.28851 0.58113
 C1173 C 0.67165 0.28580 0.61556
 C1174 C 0.68072 0.27610 0.59710
 H1175 H 0.66398 0.27543 0.62770
 H1176 H 0.67980 0.25853 0.59558
 H1177 H 0.65637 0.30706 0.64992
 H1178 H 0.67092 0.37124 0.62570
 H1179 H 0.72508 0.32220 0.53900
 H1180 H 0.70063 0.26046 0.56197
 H1181 H 0.68740 0.35590 0.59333
 H1182 H 0.70701 0.34072 0.56869
 C1183 C 0.68403 0.82525 1.10146
 C1184 C 0.69789 0.83442 1.11759
 C1185 C 0.68861 0.84311 1.13664
 C1186 C 0.66554 0.84346 1.13967
 C1187 C 0.65181 0.83543 1.12312
 C1188 C 0.66087 0.82636 1.10431
 C1189 C 0.69469 0.81463 1.08215
 C1190 C 0.68256 0.80282 1.06652
 C1191 C 0.69338 0.79238 1.04936
 C1192 C 0.71646 0.79378 1.04711
 C1193 C 0.72867 0.80577 1.06236
 C1194 C 0.71805 0.81573 1.08008
 C1195 C 0.72092 0.83482 1.11465
 C1196 C 0.73075 0.82603 1.09611
 H1197 H 0.73152 0.84210 1.12687
 H1198 H 0.74864 0.82678 1.09460
 H1199 H 0.69937 0.84929 1.14931
 H1200 H 0.63396 0.83593 1.12494
 H1201 H 0.68364 0.78311 1.03783
 H1202 H 0.74658 0.80654 1.06097
 H1203 H 0.64947 0.82034 1.09223
 H1204 H 0.66481 0.80096 1.06754
 C1205 C 0.19026 0.32044 1.10284
 C1206 C 0.16688 0.31947 1.10452
 C1207 C 0.15609 0.32893 1.12242
 C1208 C 0.16830 0.33850 1.13933
 C1209 C 0.19153 0.33873 1.13793
 C1210 C 0.20238 0.33002 1.11990
 C1211 C 0.20114 0.31050 1.08332
 C1212 C 0.22402 0.31245 1.07911
 C1213 C 0.23350 0.30236 1.06105
 C1214 C 0.22050 0.28990 1.04685
 C1215 C 0.19760 0.28830 1.05054
 C1216 C 0.18779 0.29886 1.06839
 C1217 C 0.15448 0.30853 1.08867
 C1218 C 0.16475 0.29806 1.07124
 H1219 H 0.13659 0.30761 1.09003
 H1220 H 0.15447 0.28939 1.05968
 H1221 H 0.13815 0.32851 1.12345
 H1222 H 0.20136 0.34546 1.15102
 H1223 H 0.25119 0.30395 1.05845
 H1224 H 0.18738 0.27905 1.03937
 H1225 H 0.22025 0.33050 1.11990
 H1226 H 0.23486 0.32178 1.08947
 C1227 C 0.18717 0.82015 0.60194
 C1228 C 0.16380 0.81917 0.60367
 C1229 C 0.15309 0.82830 0.62179
 C1230 C 0.16538 0.83736 0.63895
 C1231 C 0.18861 0.83753 0.63748
 C1232 C 0.19937 0.82928 0.61919
 C1233 C 0.19798 0.81053 0.58224
 C1234 C 0.22080 0.81273 0.57791
 C1235 C 0.23027 0.80277 0.55979
 C1236 C 0.21734 0.79017 0.54566
 C1237 C 0.19446 0.78842 0.54939
 C1238 C 0.18463 0.79891 0.56728
 C1239 C 0.15137 0.80843 0.58771
 C1240 C 0.16160 0.79807 0.57019
 H1241 H 0.13348 0.80749 0.58911
 H1242 H 0.15130 0.78947 0.55860
 H1243 H 0.13516 0.82788 0.62285
 H1244 H 0.19854 0.84378 0.65073
 H1245 H 0.24795 0.80448 0.55713
 H1246 H 0.18429 0.77909 0.53825
 H1247 H 0.21724 0.82964 0.61916
 H1248 H 0.23160 0.82214 0.58824
 C1249 C 0.31542 0.69635 0.59786
 C1250 C 0.31430 0.67333 0.59857
 C1251 C 0.32440 0.66189 0.61566
 C1252 C 0.33471 0.67305 0.63280
 C1253 C 0.33519 0.69591 0.63236
 C1254 C 0.32587 0.70742 0.61508
 C1255 C 0.30465 0.70795 0.57921
 C1256 C 0.30654 0.73060 0.57590
 C1257 C 0.29552 0.74072 0.55869
 C1258 C 0.28216 0.72858 0.54457
 C1259 C 0.28069 0.70594 0.54731
 C1260 C 0.29216 0.69553 0.56421
 C1261 C 0.30256 0.66191 0.58259
 C1262 C 0.29133 0.67280 0.56605
 H1263 H 0.30155 0.64430 0.58321
 H1264 H 0.28202 0.66326 0.55439
 H1265 H 0.32387 0.64424 0.61589
 H1266 H 0.34260 0.70492 0.64561
 H1267 H 0.29702 0.75820 0.55674
 H1268 H 0.27077 0.69640 0.53612
 H1269 H 0.32656 0.72496 0.61579
 H1270 H 0.31649 0.74076 0.58634
 C1271 C 0.31398 0.18820 1.09485
 C1272 C 0.32425 0.20054 1.11144
 C1273 C 0.33370 0.19002 1.12942
 C1274 C 0.33395 0.16719 1.13082
 C1275 C 0.32481 0.15499 1.11377
 C1276 C 0.31482 0.16530 1.09608
 C1277 C 0.30280 0.20013 1.07665
 C1278 C 0.28982 0.18955 1.06081
 C1279 C 0.27921 0.20148 1.04453
 C1280 C 0.28162 0.22415 1.04340
 C1281 C 0.29457 0.23485 1.05899
 C1282 C 0.30468 0.22311 1.07586
 C1283 C 0.32515 0.22329 1.10994
 C1284 C 0.31599 0.23430 1.09230
 H1285 H 0.33327 0.23272 1.12252
 H1286 H 0.31728 0.25190 1.09181
 H1287 H 0.34077 0.19962 1.14247
 H1288 H 0.32526 0.13737 1.11426
 H1289 H 0.26915 0.19293 1.03272
 H1290 H 0.29606 0.25245 1.05847
 H1291 H 0.30803 0.15506 1.08349
 H1292 H 0.28725 0.17217 1.06097
 C1293 C 0.81003 0.69003 1.09845
 C1294 C 0.81995 0.70206 1.11546
 C1295 C 0.82957 0.69119 1.13316
 C1296 C 0.83037 0.66833 1.13381
 C1297 C 0.82171 0.65650 1.11625
 C1298 C 0.81153 0.66713 1.09888
 C1299 C 0.79858 0.70224 1.08061
 C1300 C 0.78576 0.69185 1.06452
 C1301 C 0.77516 0.70400 1.04840
 C1302 C 0.77741 0.72670 1.04770
 C1303 C 0.79000 0.73723 1.06369
 C1304 C 0.80009 0.72525 1.08041
 C1305 C 0.82035 0.72486 1.11463
 C1306 C 0.81108 0.73618 1.09722
 H1307 H 0.82820 0.73409 1.12751
 H1308 H 0.81206 0.75381 1.09720
 H1309 H 0.83630 0.70051 1.14657
 H1310 H 0.82262 0.63889 1.11614
 H1311 H 0.76538 0.69558 1.03627
 H1312 H 0.79135 0.75485 1.06348
 H1313 H 0.80512 0.65717 1.08589
 H1314 H 0.78339 0.67444 1.06432
 C1315 C 0.81500 0.19353 0.59804
 C1316 C 0.82379 0.20610 0.61527
 C1317 C 0.83311 0.19574 0.63345
 C1318 C 0.83450 0.17292 0.63447
 C1319 C 0.82700 0.16061 0.61675
 C1320 C 0.81728 0.17071 0.59882
 C1321 C 0.80359 0.20512 0.57977
 C1322 C 0.79186 0.19404 0.56336
 C1323 C 0.78072 0.20556 0.54718
 C1324 C 0.78128 0.22837 0.54668
 C1325 C 0.79310 0.23961 0.56276
 C1326 C 0.80375 0.22819 0.57958
 C1327 C 0.82320 0.22888 0.61427
 C1328 C 0.81380 0.23969 0.59659
 H1329 H 0.83021 0.23853 0.62731
 H1330 H 0.81383 0.25734 0.59655
 H1331 H 0.83898 0.20541 0.64700
 H1332 H 0.82841 0.14303 0.61695
 H1333 H 0.77160 0.19657 0.53496
 H1334 H 0.79321 0.25728 0.56270
 H1335 H 0.81173 0.16036 0.58576
 H1336 H 0.79061 0.17652 0.56302
 C1337 C 0.69446 0.67725 0.39597
 C1338 C 0.67102 0.67768 0.39510
 C1339 C 0.65988 0.66855 0.37726
 C1340 C 0.67175 0.65996 0.35958
 C1341 C 0.69501 0.66021 0.36024
 C1342 C 0.70623 0.66851 0.37822
 C1343 C 0.70573 0.68700 0.41536
 C1344 C 0.72878 0.68556 0.41875
 C1345 C 0.73861 0.69561 0.43664
 C1346 C 0.72580 0.70754 0.45146
 C1347 C 0.70275 0.70853 0.44863
 C1348 C 0.69261 0.69799 0.43097
 C1349 C 0.65889 0.68786 0.41165
 C1350 C 0.66948 0.69821 0.42895
 H1351 H 0.64095 0.68836 0.41092
 H1352 H 0.65938 0.70635 0.44105
 H1353 H 0.64192 0.66860 0.37682
 H1354 H 0.70457 0.65424 0.34659
 H1355 H 0.75642 0.69449 0.43860
 H1356 H 0.69269 0.71734 0.46030
 H1357 H 0.72410 0.66849 0.37762
 H1358 H 0.73949 0.67670 0.40785
 C1359 C 0.69185 0.17579 -0.10429
 C1360 C 0.66845 0.17676 -0.10543
 C1361 C 0.65732 0.16818 -0.12354
 C1362 C 0.66920 0.15964 -0.14125
 C1363 C 0.69245 0.15941 -0.14034
 C1364 C 0.70364 0.16714 -0.12207
 C1365 C 0.70311 0.18492 -0.08460
 C1366 C 0.72606 0.18284 -0.08093
 C1367 C 0.73592 0.19242 -0.06281
 C1368 C 0.72324 0.20451 -0.04801
 C1369 C 0.70025 0.20608 -0.05108
 C1370 C 0.69007 0.19600 -0.06898
 C1371 C 0.65636 0.18694 -0.08884
 C1372 C 0.66697 0.19679 -0.07127
 H1373 H 0.63844 0.18786 -0.08977
 H1374 H 0.65692 0.20499 -0.05917
 H1375 H 0.63936 0.16860 -0.12416
 H1376 H 0.70205 0.15349 -0.15398
 H1377 H 0.75367 0.19086 -0.06067
 H1378 H 0.69028 0.21501 -0.03944
 H1379 H 0.72151 0.16676 -0.12248
 H1380 H 0.73667 0.17384 -0.09182
 C1381 C 0.19255 0.68203 -0.10191
 C1382 C 0.16912 0.68286 -0.10285
 C1383 C 0.15784 0.67339 -0.12044
 C1384 C 0.16959 0.66402 -0.13779
 C1385 C 0.19285 0.66399 -0.13714
 C1386 C 0.20420 0.67267 -0.11941
 C1387 C 0.20396 0.69193 -0.08269
 C1388 C 0.22695 0.69002 -0.07914
 C1389 C 0.23692 0.70013 -0.06135
 C1390 C 0.22431 0.71259 -0.04682
 C1391 C 0.20131 0.71409 -0.04982
 C1392 C 0.19101 0.70348 -0.06735
 C1393 C 0.15716 0.69366 -0.08659
 C1394 C 0.16790 0.70417 -0.06948
 H1395 H 0.13923 0.69447 -0.08738
 H1396 H 0.15793 0.71276 -0.05759
 H1397 H 0.13988 0.67365 -0.12087
 H1398 H 0.20233 0.65741 -0.15057
 H1399 H 0.25468 0.69862 -0.05925
 H1400 H 0.19140 0.72332 -0.03836
 H1401 H 0.22207 0.67235 -0.11998
 H1402 H 0.23750 0.68072 -0.08981
 C1403 C 0.19321 0.18084 0.39752
 C1404 C 0.16978 0.18123 0.39648
 C1405 C 0.15879 0.17200 0.37860
 C1406 C 0.17081 0.16334 0.36106
 C1407 C 0.19406 0.16370 0.36184
 C1408 C 0.20514 0.17212 0.37987
 C1409 C 0.20432 0.19055 0.41701
 C1410 C 0.22733 0.18904 0.42062
 C1411 C 0.23700 0.19894 0.43868
 C1412 C 0.22407 0.21081 0.45343
 C1413 C 0.20106 0.21194 0.45035
 C1414 C 0.19107 0.20152 0.43254
 C1415 C 0.15752 0.19142 0.41293
 C1416 C 0.16796 0.20177 0.43032
 H1417 H 0.13958 0.19190 0.41206
 H1418 H 0.15776 0.20990 0.44234
 H1419 H 0.14083 0.17197 0.37807
 H1420 H 0.20374 0.15771 0.34828
 H1421 H 0.25478 0.19772 0.44084
 H1422 H 0.19091 0.22070 0.46198
 H1423 H 0.22301 0.17216 0.37938
 H1424 H 0.23812 0.18019 0.40979
 C1425 C 0.30874 0.39938 0.67984
 C1426 C 0.33212 0.39772 0.68065
 C1427 C 0.34276 0.37922 0.67225
 C1428 C 0.33040 0.36168 0.66401
 C1429 C 0.30718 0.36311 0.66389
 C1430 C 0.29647 0.38175 0.67148
 C1431 C 0.29801 0.41944 0.68885
 C1432 C 0.27512 0.42356 0.68703
 C1433 C 0.26574 0.44195 0.69666
 C1434 C 0.27887 0.45656 0.70849
 C1435 C 0.30182 0.45310 0.70969
 C1436 C 0.31151 0.43491 0.69962
 C1437 C 0.34467 0.41419 0.69050
 C1438 C 0.33455 0.43214 0.70020
 H1439 H 0.36257 0.41286 0.69127
 H1440 H 0.34495 0.44412 0.70816
 H1441 H 0.36069 0.37819 0.67256
 H1442 H 0.29724 0.34960 0.65816
 H1443 H 0.24800 0.44438 0.69538
 H1444 H 0.31214 0.46459 0.71844
 H1445 H 0.27860 0.38175 0.67121
 H1446 H 0.26417 0.41280 0.67828
 C1447 C 0.31114 0.89725 0.18114
 C1448 C 0.33454 0.89603 0.18227
 C1449 C 0.34574 0.87820 0.17310
 C1450 C 0.33391 0.86095 0.16361
 C1451 C 0.31067 0.86191 0.16320
 C1452 C 0.29942 0.87983 0.17166
 C1453 C 0.29982 0.91668 0.19082
 C1454 C 0.27685 0.92036 0.18886
 C1455 C 0.26695 0.93831 0.19880
 C1456 C 0.27962 0.95294 0.21110
 C1457 C 0.30261 0.94982 0.21263
 C1458 C 0.31282 0.93206 0.20228
 C1459 C 0.34656 0.91230 0.19302
 C1460 C 0.33590 0.92970 0.20318
 H1461 H 0.36447 0.91131 0.19403
 H1462 H 0.34591 0.94160 0.21171
 H1463 H 0.36368 0.87752 0.17362
 H1464 H 0.30115 0.84858 0.15646
 H1465 H 0.24920 0.94046 0.19726
 H1466 H 0.31258 0.96131 0.22175
 H1467 H 0.28155 0.87949 0.17104
 H1468 H 0.26624 0.90963 0.17969
 C1469 C 0.80838 0.39363 0.17731
 C1470 C 0.83182 0.39273 0.17764
 C1471 C 0.84291 0.37472 0.16874
 C1472 C 0.83101 0.35692 0.16041
 C1473 C 0.80775 0.35764 0.16066
 C1474 C 0.79656 0.37578 0.16878
 C1475 C 0.79716 0.41317 0.18693
 C1476 C 0.77408 0.41651 0.18576
 C1477 C 0.76432 0.43451 0.19576
 C1478 C 0.77724 0.44950 0.20735
 C1479 C 0.80031 0.44674 0.20803
 C1480 C 0.81037 0.42895 0.19758
 C1481 C 0.84401 0.40945 0.18750
 C1482 C 0.83350 0.42694 0.19764
 H1483 H 0.86196 0.40870 0.18790
 H1484 H 0.84366 0.43916 0.20553
 H1485 H 0.86088 0.37425 0.16875
 H1486 H 0.79816 0.34392 0.15485
 H1487 H 0.74648 0.43640 0.19488
 H1488 H 0.81047 0.45852 0.21658
 H1489 H 0.77869 0.37523 0.16877
 H1490 H 0.76329 0.40546 0.17719
 C1491 C 0.81582 0.90025 0.67596
 C1492 C 0.80229 0.88365 0.66709
 C1493 C 0.81194 0.86452 0.65896
 C1494 C 0.83506 0.86189 0.65874
 C1495 C 0.84846 0.87894 0.66636
 C1496 C 0.83903 0.89782 0.67497
 C1497 C 0.80478 0.91962 0.68610
 C1498 C 0.81651 0.93563 0.69783
 C1499 C 0.80532 0.95285 0.70780
 C1500 C 0.78225 0.95479 0.70595
 C1501 C 0.77044 0.93913 0.69410
 C1502 C 0.78141 0.92133 0.68467
 C1503 C 0.77924 0.88621 0.66642
 C1504 C 0.76906 0.90486 0.67462
 H1505 H 0.76889 0.87364 0.65935
 H1506 H 0.75117 0.90609 0.67364
 H1507 H 0.80141 0.85147 0.65311
 H1508 H 0.86634 0.87746 0.66594
 H1509 H 0.81473 0.96470 0.71701
 H1510 H 0.75253 0.94027 0.69304
 H1511 H 0.85017 0.91030 0.68071
 H1512 H 0.83423 0.93484 0.69998
 C1513 C 0.69042 0.60132 0.69450
 C1514 C 0.69142 0.60128 0.67152
 C1515 C 0.68140 0.61816 0.65964
 C1516 C 0.67130 0.63576 0.67032
 C1517 C 0.67115 0.63613 0.69313
 C1518 C 0.68040 0.61911 0.70507
 C1519 C 0.70068 0.58270 0.70658
 C1520 C 0.69846 0.58004 0.72922
 C1521 C 0.70850 0.56255 0.73980
 C1522 C 0.72124 0.54745 0.72817
 C1523 C 0.72331 0.54970 0.70558
 C1524 C 0.71270 0.56691 0.69466
 C1525 C 0.70284 0.58471 0.66060
 C1526 C 0.71367 0.56816 0.67194
 H1527 H 0.70382 0.58477 0.64301
 H1528 H 0.72264 0.55595 0.66276
 H1529 H 0.68174 0.61780 0.64203
 H1530 H 0.66398 0.64977 0.70176
 H1531 H 0.70656 0.56103 0.75724
 H1532 H 0.73276 0.53779 0.69645
 H1533 H 0.67992 0.62045 0.72254
 H1534 H 0.68884 0.59110 0.73903
 C1535 C 0.68487 0.10182 0.19648
 C1536 C 0.68540 0.10128 0.17349
 C1537 C 0.67555 0.11811 0.16145
 C1538 C 0.66623 0.13625 0.17192
 C1539 C 0.66648 0.13706 0.19472
 C1540 C 0.67545 0.12003 0.20686
 C1541 C 0.69520 0.08337 0.20875
 C1542 C 0.69347 0.08119 0.23149
 C1543 C 0.70390 0.06401 0.24224
 C1544 C 0.71653 0.04880 0.23065
 C1545 C 0.71794 0.05048 0.20797
 C1546 C 0.70694 0.06732 0.19692
 C1547 C 0.69636 0.08433 0.16269
 C1548 C 0.70735 0.06800 0.17416
 H1549 H 0.69695 0.08401 0.14509
 H1550 H 0.71606 0.05554 0.16507
 H1551 H 0.67559 0.11741 0.14384
 H1552 H 0.65994 0.15111 0.20320
 H1553 H 0.70245 0.06286 0.25976
 H1554 H 0.72727 0.03842 0.19890
 H1555 H 0.67537 0.12173 0.22431
 H1556 H 0.68402 0.09244 0.24124
 C1557 C 0.18757 0.59858 0.18701
 C1558 C 0.17720 0.61524 0.19921
 C1559 C 0.16754 0.63308 0.18859
 C1560 C 0.16706 0.63422 0.16580
 C1561 C 0.17646 0.61717 0.15374
 C1562 C 0.18673 0.59967 0.16414
 C1563 C 0.19867 0.58037 0.19903
 C1564 C 0.21162 0.56438 0.18860
 C1565 C 0.22187 0.54791 0.20060
 C1566 C 0.21912 0.54673 0.22318
 C1567 C 0.20633 0.56257 0.23375
 C1568 C 0.19658 0.57962 0.22195
 C1569 C 0.17626 0.61387 0.22191
 C1570 C 0.18532 0.59620 0.23300
 H1571 H 0.16810 0.62651 0.23125
 H1572 H 0.18391 0.59576 0.25056
 H1573 H 0.16031 0.64614 0.19809
 H1574 H 0.17588 0.61746 0.13615
 H1575 H 0.23184 0.53591 0.19216
 H1576 H 0.20459 0.56202 0.25129
 H1577 H 0.19363 0.58704 0.15401
 H1578 H 0.21438 0.56453 0.17128
 C1579 C 0.18472 0.09926 0.69287
 C1580 C 0.18561 0.09931 0.66988
 C1581 C 0.17585 0.11640 0.65811
 C1582 C 0.16610 0.13413 0.66891
 C1583 C 0.16624 0.13448 0.69172
 C1584 C 0.17523 0.11725 0.70356
 C1585 C 0.19458 0.08037 0.70484
 C1586 C 0.19231 0.07758 0.72747
 C1587 C 0.20225 0.05997 0.73796
 C1588 C 0.21491 0.04488 0.72625
 C1589 C 0.21682 0.04715 0.70363
 C1590 C 0.20634 0.06447 0.69282
 C1591 C 0.19666 0.08257 0.65885
 C1592 C 0.20725 0.06580 0.67010
 H1593 H 0.19757 0.08269 0.64126
 H1594 H 0.21600 0.05350 0.66084
 H1595 H 0.17599 0.11605 0.64050
 H1596 H 0.15940 0.14822 0.70046
 H1597 H 0.20043 0.05843 0.75542
 H1598 H 0.22621 0.03525 0.69443
 H1599 H 0.17495 0.11855 0.72104
 H1600 H 0.18280 0.08870 0.73732
 C1601 C 0.30955 0.60324 0.32113
 C1602 C 0.33296 0.60455 0.32035
 C1603 C 0.34396 0.62237 0.32978
 C1604 C 0.33193 0.63957 0.33910
 C1605 C 0.30869 0.63852 0.33917
 C1606 C 0.29763 0.62058 0.33051
 C1607 C 0.29843 0.58384 0.31116
 C1608 C 0.27546 0.58004 0.31286
 C1609 C 0.26575 0.56215 0.30262
 C1610 C 0.27862 0.54774 0.29027
 C1611 C 0.30162 0.55097 0.28902
 C1612 C 0.31164 0.56864 0.29970
 C1613 C 0.34519 0.58840 0.30963
 C1614 C 0.33473 0.57108 0.29913
 H1615 H 0.36312 0.58946 0.30887
 H1616 H 0.34490 0.55931 0.29061
 H1617 H 0.36192 0.62310 0.32951
 H1618 H 0.29900 0.65181 0.34576
 H1619 H 0.24799 0.55990 0.30395
 H1620 H 0.31174 0.53962 0.27986
 H1621 H 0.27976 0.62086 0.33085
 H1622 H 0.26470 0.59060 0.32206
 C1623 C 0.30775 0.10175 0.81955
 C1624 C 0.33119 0.10259 0.81960
 C1625 C 0.34218 0.12036 0.82913
 C1626 C 0.33016 0.13800 0.83766
 C1627 C 0.30692 0.13751 0.83662
 C1628 C 0.29584 0.11960 0.82791
 C1629 C 0.29663 0.08225 0.80982
 C1630 C 0.27359 0.07875 0.81122
 C1631 C 0.26389 0.06066 0.80138
 C1632 C 0.27682 0.04575 0.78969
 C1633 C 0.29987 0.04872 0.78867
 C1634 C 0.30989 0.06657 0.79909
 C1635 C 0.34346 0.08600 0.80961
 C1636 C 0.33302 0.06865 0.79912
 H1637 H 0.36142 0.08672 0.80944
 H1638 H 0.34324 0.05652 0.79117
 H1639 H 0.36014 0.12065 0.82963
 H1640 H 0.29723 0.15116 0.84241
 H1641 H 0.24609 0.05859 0.80249
 H1642 H 0.31000 0.03698 0.78005
 H1643 H 0.27798 0.12029 0.82741
 H1644 H 0.26280 0.08967 0.81995
 C1645 C 0.81424 0.59912 0.82624
 C1646 C 0.80041 0.61540 0.83524
 C1647 C 0.80975 0.63442 0.84398
 C1648 C 0.83285 0.63726 0.84458
 C1649 C 0.84652 0.62053 0.83676
 C1650 C 0.83740 0.60175 0.82763
 C1651 C 0.80354 0.57988 0.81550
 C1652 C 0.81568 0.56418 0.80376
 C1653 C 0.80486 0.54715 0.79312
 C1654 C 0.78175 0.54507 0.79425
 C1655 C 0.76951 0.56035 0.80619
 C1656 C 0.78015 0.57798 0.81633
 C1657 C 0.77735 0.61264 0.83539
 C1658 C 0.76747 0.59414 0.82651
 H1659 H 0.76677 0.62496 0.84255
 H1660 H 0.74957 0.59277 0.82707
 H1661 H 0.79904 0.64723 0.85001
 H1662 H 0.86438 0.62219 0.83747
 H1663 H 0.81461 0.53559 0.78389
 H1664 H 0.75158 0.55909 0.80673
 H1665 H 0.84877 0.58953 0.82178
 H1666 H 0.83346 0.56508 0.80209
 C1667 C 0.80877 0.10525 0.32534
 C1668 C 0.83218 0.10661 0.32457
 C1669 C 0.84309 0.12478 0.33338
 C1670 C 0.83099 0.14235 0.34194
 C1671 C 0.80774 0.14121 0.34200
 C1672 C 0.79676 0.12287 0.33404
 C1673 C 0.79775 0.08552 0.31590
 C1674 C 0.77479 0.08164 0.31768
 C1675 C 0.76515 0.06355 0.30772
 C1676 C 0.77808 0.04903 0.29555
 C1677 C 0.80108 0.05228 0.29434
 C1678 C 0.81103 0.07013 0.30477
 C1679 C 0.84449 0.09020 0.31436
 C1680 C 0.83411 0.07261 0.30424
 H1681 H 0.86241 0.09130 0.31361
 H1682 H 0.84434 0.06067 0.29601
 H1683 H 0.86104 0.12556 0.33311
 H1684 H 0.79798 0.15474 0.34796
 H1685 H 0.74739 0.06127 0.30901
 H1686 H 0.81124 0.04084 0.28534
 H1687 H 0.77889 0.12310 0.33429
 H1688 H 0.76400 0.09234 0.32669
 C1689 C 0.68710 0.39902 0.31110
 C1690 C 0.66364 0.39829 0.31103
 C1691 C 0.65244 0.38161 0.32220
 C1692 C 0.66426 0.36495 0.33267
 C1693 C 0.68751 0.36541 0.33216
 C1694 C 0.69881 0.38225 0.32169
 C1695 C 0.69843 0.41725 0.29927
 C1696 C 0.72155 0.42052 0.29996
 C1697 C 0.73139 0.43742 0.28824
 C1698 C 0.71852 0.45136 0.27536
 C1699 C 0.69543 0.44858 0.27493
 C1700 C 0.68529 0.43193 0.28708
 C1701 C 0.65154 0.41384 0.29936
 C1702 C 0.66215 0.43004 0.28731
 H1703 H 0.63359 0.41319 0.29916
 H1704 H 0.65205 0.44142 0.27819
 H1705 H 0.63448 0.38132 0.32243
 H1706 H 0.69699 0.35249 0.33970
 H1707 H 0.74923 0.43934 0.28894
 H1708 H 0.68532 0.45958 0.26535
 H1709 H 0.71667 0.38155 0.32168
 H1710 H 0.73232 0.41032 0.30953
 C1711 C 0.68772 0.89958 0.80314
 C1712 C 0.68849 0.89981 0.82613
 C1713 C 0.67849 0.88295 0.83809
 C1714 C 0.66860 0.86518 0.82748
 C1715 C 0.66873 0.86460 0.80468
 C1716 C 0.67798 0.88159 0.79265
 C1717 C 0.69793 0.91821 0.79097
 C1718 C 0.69594 0.92067 0.76828
 C1719 C 0.70607 0.93812 0.75762
 C1720 C 0.71864 0.95336 0.76923
 C1721 C 0.72037 0.95134 0.79188
 C1722 C 0.70971 0.93419 0.80285
 C1723 C 0.69964 0.91660 0.83699
 C1724 C 0.71044 0.93315 0.82558
 H1725 H 0.70043 0.91669 0.85459
 H1726 H 0.71923 0.94552 0.83473
 H1727 H 0.67860 0.88347 0.85570
 H1728 H 0.66172 0.85083 0.79611
 H1729 H 0.70439 0.93946 0.74014
 H1730 H 0.72968 0.96337 0.80100
 H1731 H 0.67770 0.88011 0.77519
 H1732 H 0.68649 0.90945 0.75849
 C1733 C 0.18799 0.40524 0.81076
 C1734 C 0.17813 0.38844 0.79835
 C1735 C 0.16844 0.37047 0.80877
 C1736 C 0.16740 0.36932 0.83155
 C1737 C 0.17627 0.38652 0.84379
 C1738 C 0.18659 0.40416 0.83360
 C1739 C 0.19916 0.42361 0.79897
 C1740 C 0.21173 0.43973 0.80966
 C1741 C 0.22206 0.45634 0.79787
 C1742 C 0.21975 0.45752 0.77524
 C1743 C 0.20736 0.44156 0.76442
 C1744 C 0.19756 0.42436 0.77602
 C1745 C 0.17770 0.38982 0.77563
 C1746 C 0.18677 0.40764 0.76474
 H1747 H 0.16992 0.37708 0.76613
 H1748 H 0.18574 0.40809 0.74716
 H1749 H 0.16163 0.35732 0.79911
 H1750 H 0.17522 0.38626 0.86136
 H1751 H 0.23173 0.46844 0.80648
 H1752 H 0.20599 0.44212 0.74686
 H1753 H 0.19306 0.41690 0.84386
 H1754 H 0.21413 0.43957 0.82702
 C1755 C 0.18920 0.89992 0.31082
 C1756 C 0.16577 0.89870 0.31025
 C1757 C 0.15474 0.88116 0.32019
 C1758 C 0.16673 0.86412 0.32985
 C1759 C 0.18997 0.86511 0.32984
 C1760 C 0.20108 0.88281 0.32065
 C1761 C 0.20034 0.91896 0.30013
 C1762 C 0.22336 0.92267 0.30140
 C1763 C 0.23307 0.94017 0.29047
 C1764 C 0.22015 0.95429 0.27783
 C1765 C 0.19712 0.95117 0.27700
 C1766 C 0.18712 0.93389 0.28835
 C1767 C 0.15354 0.91460 0.29918
 C1768 C 0.16401 0.93157 0.28810
 H1769 H 0.13561 0.91360 0.29861
 H1770 H 0.15384 0.94315 0.27933
 H1771 H 0.13679 0.88046 0.32000
 H1772 H 0.19961 0.85193 0.33670
 H1773 H 0.25086 0.94236 0.29149
 H1774 H 0.18697 0.96229 0.26762
 H1775 H 0.21895 0.88248 0.32092
 H1776 H 0.23415 0.91230 0.31077
 C1777 C 0.39610 0.31551 0.69200
 C1778 C 0.39559 0.31439 0.66902
 C1779 C 0.37799 0.32385 0.65749
 C1780 C 0.36018 0.33359 0.66850
 C1781 C 0.36048 0.33421 0.69129
 C1782 C 0.37824 0.32547 0.70291
 C1783 C 0.41524 0.30530 0.70370
 C1784 C 0.41826 0.30705 0.72635
 C1785 C 0.43601 0.29665 0.73656
 C1786 C 0.45101 0.28408 0.72452
 C1787 C 0.44850 0.28270 0.70191
 C1788 C 0.43103 0.29351 0.69140
 C1789 C 0.41229 0.30328 0.65774
 C1790 C 0.42939 0.29271 0.66871
 H1791 H 0.41183 0.30229 0.64016
 H1792 H 0.44162 0.28391 0.65926
 H1793 H 0.37784 0.32322 0.63988
 H1794 H 0.34672 0.34121 0.70018
 H1795 H 0.43772 0.29809 0.75403
 H1796 H 0.46033 0.27338 0.69243
 H1797 H 0.37737 0.32622 0.72040
 H1798 H 0.40720 0.31641 0.73645
 C1799 C 0.39946 0.81375 0.18994
 C1800 C 0.39924 0.81343 0.16695
 C1801 C 0.38181 0.82339 0.15555
 C1802 C 0.36388 0.83280 0.16671
 C1803 C 0.36382 0.83236 0.18952
 C1804 C 0.38139 0.82316 0.20100
 C1805 C 0.41859 0.80338 0.20151
 C1806 C 0.42144 0.80472 0.22419
 C1807 C 0.43923 0.79437 0.23429
 C1808 C 0.45450 0.78221 0.22214
 C1809 C 0.45213 0.78115 0.19948
 C1810 C 0.43459 0.79201 0.18907
 C1811 C 0.41610 0.80270 0.15551
 C1812 C 0.43313 0.79182 0.16635
 H1813 H 0.41585 0.80227 0.13791
 H1814 H 0.44550 0.78336 0.15677
 H1815 H 0.38195 0.82350 0.13794
 H1816 H 0.34994 0.83898 0.19852
 H1817 H 0.44080 0.79554 0.25179
 H1818 H 0.46415 0.77215 0.18993
 H1819 H 0.38025 0.82315 0.21849
 H1820 H 0.41024 0.81381 0.23441
 C1821 C 0.89779 0.31192 0.18784
 C1822 C 0.89716 0.31064 0.16489
 C1823 C 0.87939 0.31990 0.15340
 C1824 C 0.86152 0.32950 0.16448
 C1825 C 0.86193 0.33015 0.18727
 C1826 C 0.87985 0.32168 0.19881
 C1827 C 0.91713 0.30205 0.19950
 C1828 C 0.92031 0.30422 0.22206
 C1829 C 0.93822 0.29419 0.23229
 C1830 C 0.95330 0.28156 0.22038
 C1831 C 0.95064 0.27973 0.19781
 C1832 C 0.93295 0.29023 0.18725
 C1833 C 0.91389 0.29956 0.15361
 C1834 C 0.93115 0.28919 0.16458
 H1835 H 0.91334 0.29842 0.13604
 H1836 H 0.94339 0.28039 0.15514
 H1837 H 0.87915 0.31919 0.13580
 H1838 H 0.84812 0.33696 0.19624
 H1839 H 0.94002 0.29597 0.24972
 H1840 H 0.96250 0.27036 0.18843
 H1841 H 0.87903 0.32243 0.21630
 H1842 H 0.90926 0.31367 0.23210
 C1843 C 0.89808 0.81311 0.68780
 C1844 C 0.89768 0.81158 0.66485
 C1845 C 0.88064 0.82168 0.65303
 C1846 C 0.86328 0.83247 0.66377
 C1847 C 0.86345 0.83344 0.68654
 C1848 C 0.88065 0.82407 0.69842
 C1849 C 0.91668 0.80234 0.69982
 C1850 C 0.91962 0.80452 0.72242
 C1851 C 0.93692 0.79383 0.73296
 C1852 C 0.95160 0.78051 0.72134
 C1853 C 0.94911 0.77850 0.69877
 C1854 C 0.93205 0.78964 0.68790
 C1855 C 0.91391 0.79949 0.65391
 C1856 C 0.93047 0.78841 0.66522
 H1857 H 0.91352 0.79816 0.63635
 H1858 H 0.94237 0.77892 0.65603
 H1859 H 0.88055 0.82075 0.63544
 H1860 H 0.84999 0.84123 0.69522
 H1861 H 0.93860 0.79574 0.75038
 H1862 H 0.96068 0.76858 0.68962
 H1863 H 0.87967 0.82514 0.71588
 H1864 H 0.90889 0.81453 0.73224
 C1865 C 0.59664 0.31686 0.31311
 C1866 C 0.61390 0.32577 0.30028
 C1867 C 0.63233 0.33543 0.31027
 C1868 C 0.63351 0.33736 0.33299
 C1869 C 0.61582 0.32950 0.34560
 C1870 C 0.59770 0.31923 0.33587
 C1871 C 0.57789 0.30550 0.30182
 C1872 C 0.56138 0.29374 0.31306
 C1873 C 0.54457 0.28298 0.30174
 C1874 C 0.54356 0.28405 0.27901
 C1875 C 0.55984 0.29574 0.26765
 C1876 C 0.57726 0.30595 0.27881
 C1877 C 0.61256 0.32519 0.27757
 C1878 C 0.59439 0.31593 0.26707
 H1879 H 0.62564 0.33227 0.26773
 H1880 H 0.59402 0.31610 0.24946
 H1881 H 0.64586 0.34144 0.30032
 H1882 H 0.61609 0.33123 0.36311
 H1883 H 0.53224 0.27386 0.31078
 H1884 H 0.55941 0.29615 0.25003
 H1885 H 0.58462 0.31351 0.34639
 H1886 H 0.56143 0.29226 0.33053
 C1887 C 0.60140 0.81725 0.81224
 C1888 C 0.61797 0.80445 0.82232
 C1889 C 0.63662 0.81448 0.83159
 C1890 C 0.63875 0.83725 0.83164
 C1891 C 0.62165 0.84991 0.82280
 C1892 C 0.60326 0.84011 0.81314
 C1893 C 0.58266 0.80585 0.80100
 C1894 C 0.56688 0.81694 0.78825
 C1895 C 0.55019 0.80550 0.77745
 C1896 C 0.54858 0.78281 0.77936
 C1897 C 0.56408 0.77161 0.79213
 C1898 C 0.58136 0.78287 0.80250
 C1899 C 0.61586 0.78174 0.82301
 C1900 C 0.59773 0.77122 0.81369
 H1901 H 0.62839 0.77195 0.83098
 H1902 H 0.59682 0.75362 0.81474
 H1903 H 0.64972 0.80456 0.83845
 H1904 H 0.62275 0.86752 0.82307
 H1905 H 0.53845 0.81446 0.76759
 H1906 H 0.56319 0.75401 0.79332
 H1907 H 0.59072 0.85070 0.80650
 H1908 H 0.56740 0.83435 0.78601
 C1909 C 0.10193 0.31965 0.81180
 C1910 C 0.11851 0.30708 0.82215
 C1911 C 0.13667 0.31737 0.83202
 C1912 C 0.13827 0.34018 0.83249
 C1913 C 0.12125 0.35261 0.82315
 C1914 C 0.10339 0.34254 0.81282
 C1915 C 0.08345 0.30798 0.80041
 C1916 C 0.06751 0.31883 0.78766
 C1917 C 0.05078 0.30718 0.77715
 C1918 C 0.04931 0.28450 0.77933
 C1919 C 0.06513 0.27351 0.79190
 C1920 C 0.08241 0.28499 0.80203
 C1921 C 0.11679 0.28434 0.82273
 C1922 C 0.09890 0.27356 0.81325
 H1923 H 0.12935 0.27472 0.83086
 H1924 H 0.09821 0.25595 0.81435
 H1925 H 0.14969 0.30764 0.83926
 H1926 H 0.12191 0.37022 0.82374
 H1927 H 0.03880 0.31598 0.76742
 H1928 H 0.06436 0.25592 0.79329
 H1929 H 0.09084 0.35294 0.80592
 H1930 H 0.06786 0.33623 0.78531
 C1931 C 0.10090 0.81648 0.30475
 C1932 C 0.10126 0.81667 0.32775
 C1933 C 0.11876 0.82689 0.33882
 C1934 C 0.13666 0.83601 0.32736
 C1935 C 0.13655 0.83516 0.30456
 C1936 C 0.11887 0.82574 0.29338
 C1937 C 0.08179 0.80566 0.29354
 C1938 C 0.07876 0.80640 0.27084
 C1939 C 0.06105 0.79549 0.26112
 C1940 C 0.04611 0.78336 0.27371
 C1941 C 0.04860 0.78297 0.29637
 C1942 C 0.06601 0.79438 0.30637
 C1943 C 0.08454 0.80608 0.33955
 C1944 C 0.06757 0.79478 0.32908
 H1945 H 0.08490 0.80606 0.35716
 H1946 H 0.05533 0.78640 0.33894
 H1947 H 0.11875 0.82734 0.35643
 H1948 H 0.15039 0.84158 0.29533
 H1949 H 0.05932 0.79614 0.24360
 H1950 H 0.03680 0.77400 0.30623
 H1951 H 0.11988 0.82538 0.27588
 H1952 H 0.08978 0.81540 0.26033
 C1953 C 0.60394 0.68381 0.68494
 C1954 C 0.62069 0.69663 0.67508
 C1955 C 0.63950 0.68662 0.66605
 C1956 C 0.64163 0.66385 0.66603
 C1957 C 0.62437 0.65117 0.67468
 C1958 C 0.60583 0.66095 0.68410
 C1959 C 0.58495 0.69519 0.69582
 C1960 C 0.56885 0.68411 0.70827
 C1961 C 0.55183 0.69552 0.71861
 C1962 C 0.55018 0.71820 0.71652
 C1963 C 0.56605 0.72940 0.70412
 C1964 C 0.58364 0.71816 0.69421
 C1965 C 0.61859 0.71933 0.67432
 C1966 C 0.60025 0.72983 0.68330
 H1967 H 0.63127 0.72914 0.66654
 H1968 H 0.59935 0.74742 0.68218
 H1969 H 0.65270 0.69656 0.65936
 H1970 H 0.62547 0.63357 0.67443
 H1971 H 0.53981 0.68655 0.72819
 H1972 H 0.56514 0.74699 0.70279
 H1973 H 0.59318 0.65035 0.69059
 H1974 H 0.56936 0.66671 0.71060
 C1975 C 0.60181 0.18912 0.18520
 C1976 C 0.60266 0.16613 0.18658
 C1977 C 0.62047 0.15475 0.17726
 C1978 C 0.63816 0.16596 0.16746
 C1979 C 0.63750 0.18878 0.16660
 C1980 C 0.61953 0.20022 0.17515
 C1981 C 0.58245 0.20066 0.19524
 C1982 C 0.57909 0.22326 0.19313
 C1983 C 0.56113 0.23336 0.20325
 C1984 C 0.54620 0.22127 0.21592
 C1985 C 0.54909 0.19869 0.21777
 C1986 C 0.56682 0.18827 0.20719
 C1987 C 0.58612 0.15471 0.19784
 C1988 C 0.56883 0.16557 0.20829
 H1989 H 0.58685 0.13711 0.19905
 H1990 H 0.55673 0.15602 0.21719
 H1991 H 0.62091 0.13712 0.17812
 H1992 H 0.65117 0.19784 0.15960
 H1993 H 0.55915 0.25080 0.20146
 H1994 H 0.53734 0.18918 0.22718
 H1995 H 0.62015 0.21775 0.17424
 H1996 H 0.59002 0.23342 0.18363
 C1997 C 0.09991 0.68237 0.18370
 C1998 C 0.11635 0.69532 0.17353
 C1999 C 0.13508 0.68549 0.16422
 C2000 C 0.13738 0.66274 0.16402
 C2001 C 0.12047 0.64990 0.17310
 C2002 C 0.10205 0.65953 0.18295
 C2003 C 0.08084 0.69360 0.19461
 C2004 C 0.06503 0.68248 0.20739
 C2005 C 0.04783 0.69380 0.21759
 C2006 C 0.04574 0.71637 0.21496
 C2007 C 0.06136 0.72760 0.20230
 C2008 C 0.07912 0.71651 0.19259
 C2009 C 0.11393 0.71798 0.17255
 C2010 C 0.09548 0.72830 0.18148
 H2011 H 0.12639 0.72788 0.16454
 H2012 H 0.09427 0.74585 0.18009
 H2013 H 0.14801 0.69557 0.15721
 H2014 H 0.12164 0.63231 0.17270
 H2015 H 0.03603 0.68486 0.22745
 H2016 H 0.06012 0.74514 0.20064
 H2017 H 0.08963 0.64883 0.18970
 H2018 H 0.06591 0.66514 0.21005
 C2019 C 0.09961 0.18322 0.68469
 C2020 C 0.11631 0.19568 0.67433
 C2021 C 0.13477 0.18531 0.66506
 C2022 C 0.13660 0.16252 0.66530
 C2023 C 0.11939 0.15017 0.67448
 C2024 C 0.10118 0.16032 0.68414
 C2025 C 0.08101 0.19499 0.69580
 C2026 C 0.06506 0.18426 0.70871
 C2027 C 0.04852 0.19603 0.71937
 C2028 C 0.04722 0.21872 0.71716
 C2029 C 0.06287 0.22956 0.70421
 C2030 C 0.08001 0.21796 0.69396
 C2031 C 0.11450 0.21840 0.67331
 C2032 C 0.09652 0.22926 0.68256
 H2033 H 0.12714 0.22794 0.66514
 H2034 H 0.09585 0.24685 0.68125
 H2035 H 0.14794 0.19499 0.65792
 H2036 H 0.12023 0.13256 0.67441
 H2037 H 0.03666 0.18734 0.72937
 H2038 H 0.06222 0.24716 0.70278
 H2039 H 0.08855 0.14996 0.69103
 H2040 H 0.06534 0.16688 0.71118
 C2041 C 0.39832 0.68662 0.31401
 C2042 C 0.39741 0.68716 0.33698
 C2043 C 0.37964 0.67728 0.34801
 C2044 C 0.36207 0.66771 0.33647
 C2045 C 0.36267 0.66795 0.31367
 C2046 C 0.38059 0.67708 0.30257
 C2047 C 0.41777 0.69693 0.30285
 C2048 C 0.42130 0.69537 0.28027
 C2049 C 0.43933 0.70573 0.27053
 C2050 C 0.45419 0.71809 0.28294
 C2051 C 0.45118 0.71934 0.30552
 C2052 C 0.43337 0.70849 0.31559
 C2053 C 0.41390 0.69807 0.34875
 C2054 C 0.43123 0.70890 0.33826
 H2055 H 0.41312 0.69867 0.36634
 H2056 H 0.44330 0.71750 0.34807
 H2057 H 0.37923 0.67736 0.36562
 H2058 H 0.34906 0.66125 0.30437
 H2059 H 0.44140 0.70441 0.25309
 H2060 H 0.46287 0.72851 0.31528
 H2061 H 0.37995 0.67694 0.28506
 H2062 H 0.41044 0.68612 0.26987
 C2063 C 0.39978 0.18418 0.81813
 C2064 C 0.38326 0.17467 0.80484
 C2065 C 0.36433 0.16531 0.81432
 C2066 C 0.36184 0.16463 0.83700
 C2067 C 0.37891 0.17283 0.85012
 C2068 C 0.39760 0.18256 0.84087
 C2069 C 0.41876 0.19569 0.80734
 C2070 C 0.43449 0.20803 0.81897
 C2071 C 0.45135 0.21921 0.80808
 C2072 C 0.45319 0.21806 0.78541
 C2073 C 0.43778 0.20565 0.77368
 C2074 C 0.42033 0.19494 0.78439
 C2075 C 0.38567 0.17467 0.78220
 C2076 C 0.40404 0.18420 0.77222
 H2077 H 0.37318 0.16712 0.77203
 H2078 H 0.40516 0.18372 0.75465
 H2079 H 0.35125 0.15898 0.80404
 H2080 H 0.37752 0.17207 0.86765
 H2081 H 0.46302 0.22878 0.81744
 H2082 H 0.43884 0.20506 0.75609
 H2083 H 0.41008 0.18873 0.85179
 H2084 H 0.43377 0.20970 0.83640
 C2085 C 0.89608 0.68652 0.81717
 C2086 C 0.89537 0.68781 0.84012
 C2087 C 0.87803 0.67774 0.85165
 C2088 C 0.86071 0.66720 0.84059
 C2089 C 0.86109 0.66670 0.81780
 C2090 C 0.87855 0.67606 0.80622
 C2091 C 0.91515 0.69692 0.80547
 C2092 C 0.91850 0.69466 0.78294
 C2093 C 0.93628 0.70495 0.77269
 C2094 C 0.95106 0.71794 0.78454
 C2095 C 0.94817 0.72001 0.80708
 C2096 C 0.93061 0.70923 0.81767
 C2097 C 0.91166 0.69954 0.85135
 C2098 C 0.92864 0.71039 0.84033
 H2099 H 0.91103 0.70072 0.86891
 H2100 H 0.94060 0.71959 0.84973
 H2101 H 0.87780 0.67833 0.86925
 H2102 H 0.84767 0.65915 0.80888
 H2103 H 0.93824 0.70300 0.75530
 H2104 H 0.95979 0.72968 0.81642
 H2105 H 0.87776 0.67529 0.78874
 H2106 H 0.90773 0.68487 0.77294
 C2107 C 0.89756 0.18817 0.31491
 C2108 C 0.89669 0.18946 0.33785
 C2109 C 0.87889 0.18002 0.34921
 C2110 C 0.86125 0.17017 0.33801
 C2111 C 0.86187 0.16955 0.31523
 C2112 C 0.87982 0.17823 0.30381
 C2113 C 0.91696 0.19819 0.30339
 C2114 C 0.92040 0.19600 0.28085
 C2115 C 0.93835 0.20616 0.27075
 C2116 C 0.95321 0.21893 0.28275
 C2117 C 0.95029 0.22079 0.30530
 C2118 C 0.93256 0.21017 0.31573
 C2119 C 0.91320 0.20073 0.34924
 C2120 C 0.93050 0.21124 0.33839
 H2121 H 0.91245 0.20189 0.36680
 H2122 H 0.94257 0.22016 0.34790
 H2123 H 0.87847 0.18073 0.36681
 H2124 H 0.84822 0.16259 0.30618
 H2125 H 0.94035 0.20435 0.25334
 H2126 H 0.96198 0.23028 0.31475
 H2127 H 0.87918 0.17746 0.28632
 H2128 H 0.90953 0.18643 0.27075
 C2129 C 0.31433 0.30616 0.60318
 C2130 C 0.31396 0.32920 0.60308
 C2131 C 0.32355 0.34088 0.62029
 C2132 C 0.33251 0.32997 0.63833
 C2133 C 0.33206 0.30712 0.63871
 C2134 C 0.32330 0.29534 0.62135
 C2135 C 0.30440 0.29428 0.58429
 C2136 C 0.30606 0.27154 0.58171
 C2137 C 0.29613 0.26117 0.56406
 C2138 C 0.28404 0.27313 0.54873
 C2139 C 0.28265 0.29583 0.55084
 C2140 C 0.29317 0.30651 0.56819
 C2141 C 0.30346 0.34041 0.58613
 C2142 C 0.29285 0.32929 0.56933
 H2143 H 0.30298 0.35805 0.58614
 H2144 H 0.28453 0.33870 0.55687
 H2145 H 0.32367 0.35853 0.61989
 H2146 H 0.33830 0.29830 0.65266
 H2147 H 0.29753 0.24364 0.56263
 H2148 H 0.27374 0.30520 0.53873
 H2149 H 0.32324 0.27783 0.62271
 H2150 H 0.31512 0.26150 0.59301
 C2151 C 0.31776 0.81167 0.09866
 C2152 C 0.32705 0.79888 0.11548
 C2153 C 0.33621 0.80896 0.13386
 C2154 C 0.33711 0.83176 0.13545
 C2155 C 0.32912 0.84436 0.11812
 C2156 C 0.31944 0.83451 0.10002
 C2157 C 0.30663 0.80026 0.08011
 C2158 C 0.29439 0.81139 0.06407
 C2159 C 0.28382 0.79996 0.04742
 C2160 C 0.28554 0.77725 0.04612
 C2161 C 0.29769 0.76600 0.06195
 C2162 C 0.30773 0.77725 0.07919
 C2163 C 0.32719 0.77613 0.11383
 C2164 C 0.31817 0.76557 0.09584
 H2165 H 0.33456 0.76633 0.12657
 H2166 H 0.31886 0.74794 0.09524
 H2167 H 0.34238 0.79905 0.14712
 H2168 H 0.33009 0.86195 0.11877
 H2169 H 0.27437 0.80893 0.03543
 H2170 H 0.29863 0.74837 0.06129
 H2171 H 0.31349 0.84504 0.08727
 H2172 H 0.29238 0.82884 0.06435
 C2173 C 0.81572 0.30147 0.09936
 C2174 C 0.81488 0.32450 0.09935
 C2175 C 0.82439 0.33631 0.11653
 C2176 C 0.83374 0.32551 0.13444
 C2177 C 0.83374 0.30265 0.13474
 C2178 C 0.82507 0.29077 0.11740
 C2179 C 0.80581 0.28947 0.08053
 C2180 C 0.80787 0.26677 0.07789
 C2181 C 0.79782 0.25625 0.06039
 C2182 C 0.78525 0.26800 0.04528
 C2183 C 0.78355 0.29068 0.04740
 C2184 C 0.79415 0.30153 0.06461
 C2185 C 0.80400 0.33556 0.08254
 C2186 C 0.79341 0.32430 0.06582
 H2187 H 0.80316 0.35319 0.08261
 H2188 H 0.78475 0.33358 0.05348
 H2189 H 0.82413 0.35396 0.11622
 H2190 H 0.84026 0.29390 0.14861
 H2191 H 0.79948 0.23874 0.05895
 H2192 H 0.77426 0.29991 0.03547
 H2193 H 0.82536 0.27326 0.11871
 H2194 H 0.81728 0.25688 0.08904
 C2195 C 0.81665 0.80533 0.59913
 C2196 C 0.81674 0.82837 0.59859
 C2197 C 0.82659 0.84019 0.61558
 C2198 C 0.83534 0.82943 0.63381
 C2199 C 0.83416 0.80660 0.63472
 C2200 C 0.82517 0.79469 0.61759
 C2201 C 0.80675 0.79328 0.58035
 C2202 C 0.80832 0.77050 0.57811
 C2203 C 0.79845 0.75994 0.56054
 C2204 C 0.78652 0.77176 0.54499
 C2205 C 0.78526 0.79449 0.54675
 C2206 C 0.79577 0.80536 0.56399
 C2207 C 0.80649 0.83943 0.58140
 C2208 C 0.79574 0.82817 0.56476
 H2209 H 0.80632 0.85708 0.58107
 H2210 H 0.78761 0.83747 0.55209
 H2211 H 0.82718 0.85781 0.61479
 H2212 H 0.84012 0.79791 0.64886
 H2213 H 0.79975 0.74239 0.55936
 H2214 H 0.77648 0.80373 0.53445
 H2215 H 0.82460 0.77722 0.61933
 H2216 H 0.81728 0.76058 0.58959
 C2217 C 0.31385 0.68989 0.40278
 C2218 C 0.32333 0.70240 0.38581
 C2219 C 0.33310 0.69200 0.36790
 C2220 C 0.33434 0.66919 0.36691
 C2221 C 0.32607 0.65690 0.38435
 C2222 C 0.31585 0.66704 0.40201
 C2223 C 0.30213 0.70159 0.42082
 C2224 C 0.28987 0.69066 0.43702
 C2225 C 0.27876 0.70234 0.45317
 C2226 C 0.27990 0.72512 0.45378
 C2227 C 0.29208 0.73617 0.43777
 C2228 C 0.30273 0.72464 0.42106
 C2229 C 0.32302 0.72518 0.38682
 C2230 C 0.31333 0.73605 0.40429
 H2231 H 0.33053 0.73477 0.37396
 H2232 H 0.31366 0.75370 0.40439
 H2233 H 0.33948 0.70166 0.35453
 H2234 H 0.32726 0.63930 0.38412
 H2235 H 0.26935 0.69349 0.46531
 H2236 H 0.29264 0.75383 0.43790
 H2237 H 0.30971 0.65673 0.41488
 H2238 H 0.28828 0.67317 0.43728
 C2239 C 0.31194 0.19304 0.89854
 C2240 C 0.31073 0.17002 0.89841
 C2241 C 0.32098 0.15814 0.88168
 C2242 C 0.33158 0.16890 0.86438
 C2243 C 0.33195 0.19175 0.86417
 C2244 C 0.32245 0.20368 0.88105
 C2245 C 0.30140 0.20511 0.91700
 C2246 C 0.30373 0.22777 0.91981
 C2247 C 0.29337 0.23833 0.93712
 C2248 C 0.28021 0.22667 0.95187
 C2249 C 0.27804 0.20405 0.94947
 C2250 C 0.28894 0.19315 0.93245
 C2251 C 0.29886 0.15906 0.91467
 C2252 C 0.28780 0.17040 0.93106
 H2253 H 0.29773 0.14144 0.91448
 H2254 H 0.27849 0.16119 0.94302
 H2255 H 0.32047 0.14050 0.88189
 H2256 H 0.33951 0.20044 0.85075
 H2257 H 0.29539 0.25578 0.93877
 H2258 H 0.26827 0.19489 0.96113
 H2259 H 0.32313 0.22119 0.87984
 H2260 H 0.31367 0.23759 0.90901
 C2261 C 0.81220 0.68998 0.90631
 C2262 C 0.82175 0.70212 0.88913
 C2263 C 0.83143 0.69134 0.87140
 C2264 C 0.83277 0.66851 0.87090
 C2265 C 0.82434 0.65659 0.88855
 C2266 C 0.81404 0.66711 0.90595
 C2267 C 0.80078 0.70209 0.92425
 C2268 C 0.78829 0.69158 0.94056
 C2269 C 0.77755 0.70365 0.95666
 C2270 C 0.77936 0.72639 0.95715
 C2271 C 0.79173 0.73704 0.94103
 C2272 C 0.80192 0.72513 0.92430
 C2273 C 0.82180 0.72492 0.88983
 C2274 C 0.81255 0.73617 0.90730
 H2275 H 0.82938 0.73422 0.87681
 H2276 H 0.81325 0.75381 0.90721
 H2277 H 0.83788 0.70077 0.85790
 H2278 H 0.82563 0.63900 0.88879
 H2279 H 0.76790 0.69516 0.96889
 H2280 H 0.79271 0.75468 0.94106
 H2281 H 0.80787 0.65709 0.91903
 H2282 H 0.78622 0.67414 0.94091
 C2283 C 0.81413 0.19742 0.40271
 C2284 C 0.81417 0.17437 0.40293
 C2285 C 0.82420 0.16278 0.38590
 C2286 C 0.83324 0.17375 0.36792
 C2287 C 0.83257 0.19660 0.36748
 C2288 C 0.82336 0.20831 0.38468
 C2289 C 0.80342 0.20920 0.42128
 C2290 C 0.80429 0.23202 0.42364
 C2291 C 0.79339 0.24227 0.44084
 C2292 C 0.78114 0.23008 0.45592
 C2293 C 0.78067 0.20732 0.45410
 C2294 C 0.79207 0.19680 0.43720
 C2295 C 0.80358 0.16303 0.41976
 C2296 C 0.79235 0.17401 0.43628
 H2297 H 0.80345 0.14538 0.41986
 H2298 H 0.78393 0.16449 0.44863
 H2299 H 0.82452 0.14513 0.38632
 H2300 H 0.83893 0.20545 0.35357
 H2301 H 0.79412 0.25986 0.44207
 H2302 H 0.77164 0.19778 0.46603
 H2303 H 0.82310 0.22581 0.38326
 H2304 H 0.81338 0.24222 0.41246
 C2305 C 0.68099 0.32075 0.40129
 C2306 C 0.67122 0.30684 0.38566
 C2307 C 0.66189 0.31560 0.36669
 C2308 C 0.66140 0.33821 0.36327
 C2309 C 0.67008 0.35199 0.37932
 C2310 C 0.67984 0.34344 0.39804
 C2311 C 0.69214 0.31064 0.42059
 C2312 C 0.70452 0.32281 0.43576
 C2313 C 0.71529 0.31250 0.45301
 C2314 C 0.71369 0.28990 0.45581
 C2315 C 0.70122 0.27765 0.44097
 C2316 C 0.69091 0.28775 0.42317
 C2317 C 0.67081 0.28429 0.38904
 C2318 C 0.68008 0.27499 0.40759
 H2319 H 0.66309 0.27365 0.37720
 H2320 H 0.67924 0.25746 0.40948
 H2321 H 0.65523 0.30480 0.35439
 H2322 H 0.66949 0.36950 0.37723
 H2323 H 0.72493 0.32225 0.46422
 H2324 H 0.70029 0.26011 0.44277
 H2325 H 0.68630 0.35486 0.40974
 H2326 H 0.70652 0.34020 0.43432
 C2327 C 0.69071 0.82229 0.89653
 C2328 C 0.66731 0.82219 0.89494
 C2329 C 0.65690 0.83114 0.87659
 C2330 C 0.66947 0.83924 0.85912
 C2331 C 0.69269 0.83853 0.86044
 C2332 C 0.70320 0.83039 0.87892
 C2333 C 0.70118 0.81294 0.91654
 C2334 C 0.72411 0.81424 0.92068
 C2335 C 0.73319 0.80452 0.93913
 C2336 C 0.71972 0.79306 0.95378
 C2337 C 0.69676 0.79227 0.95022
 C2338 C 0.68738 0.80250 0.93199
 C2339 C 0.65448 0.81257 0.91135
 C2340 C 0.66433 0.80250 0.92923
 H2341 H 0.63656 0.81231 0.91007
 H2342 H 0.65370 0.79478 0.94120
 H2343 H 0.63896 0.83145 0.87569
 H2344 H 0.70280 0.84408 0.84698
 H2345 H 0.75094 0.80546 0.94164
 H2346 H 0.68619 0.78382 0.96175
 H2347 H 0.72107 0.83008 0.87886
 H2348 H 0.73530 0.82273 0.90991
 C2349 C 0.18552 0.32291 0.89965
 C2350 C 0.19935 0.33207 0.88343
 C2351 C 0.19000 0.34109 0.86459
 C2352 C 0.16690 0.34194 0.86191
 C2353 C 0.15323 0.33380 0.87851
 C2354 C 0.16235 0.32431 0.89707
 C2355 C 0.19623 0.31216 0.91884
 C2356 C 0.18413 0.30038 0.93456
 C2357 C 0.19498 0.28994 0.95169
 C2358 C 0.21807 0.29133 0.95380
 C2359 C 0.23025 0.30323 0.93842
 C2360 C 0.21960 0.31317 0.92073
 C2361 C 0.22239 0.33225 0.88612
 C2362 C 0.23227 0.32338 0.90457
 H2363 H 0.23297 0.33950 0.87383
 H2364 H 0.25018 0.32402 0.90594
 H2365 H 0.20072 0.34733 0.85188
 H2366 H 0.13537 0.33469 0.87700
 H2367 H 0.18528 0.28070 0.96331
 H2368 H 0.24817 0.30395 0.93970
 H2369 H 0.15100 0.31830 0.90924
 H2370 H 0.16637 0.29856 0.93365
 C2371 C 0.18192 0.81418 0.39536
 C2372 C 0.18227 0.83715 0.39349
 C2373 C 0.17274 0.84730 0.37531
 C2374 C 0.16386 0.83489 0.35823
 C2375 C 0.16425 0.81209 0.35984
 C2376 C 0.17293 0.80185 0.37820
 C2377 C 0.19204 0.80396 0.41512
 C2378 C 0.19061 0.78149 0.41954
 C2379 C 0.20108 0.77261 0.43770
 C2380 C 0.21343 0.78582 0.45178
 C2381 C 0.21437 0.80833 0.44796
 C2382 C 0.20339 0.81752 0.43003
 C2383 C 0.19278 0.84977 0.40941
 C2384 C 0.20354 0.84014 0.42702
 H2385 H 0.19322 0.86736 0.40791
 H2386 H 0.21195 0.85059 0.43857
 H2387 H 0.17268 0.86492 0.37415
 H2388 H 0.15808 0.80210 0.34667
 H2389 H 0.19998 0.75521 0.44041
 H2390 H 0.22350 0.81870 0.45905
 H2391 H 0.17299 0.78429 0.37835
 H2392 H 0.18145 0.77051 0.40923
 C2393 C 0.69519 0.67861 0.60197
 C2394 C 0.67176 0.67893 0.60311
 C2395 C 0.66084 0.67016 0.62131
 C2396 C 0.67294 0.66203 0.63905
 C2397 C 0.69619 0.66269 0.63821
 C2398 C 0.70719 0.67064 0.61990
 C2399 C 0.70622 0.68765 0.58207
 C2400 C 0.72921 0.68598 0.57834
 C2401 C 0.73884 0.69549 0.56001
 C2402 C 0.72587 0.70708 0.54509
 C2403 C 0.70285 0.70816 0.54820
 C2404 C 0.69291 0.69814 0.56630
 C2405 C 0.65943 0.68855 0.58639
 C2406 C 0.66980 0.69841 0.56864
 H2407 H 0.64149 0.68899 0.58733
 H2408 H 0.65955 0.70616 0.55642
 H2409 H 0.64288 0.66993 0.62186
 H2410 H 0.70594 0.65715 0.65190
 H2411 H 0.75663 0.69433 0.55785
 H2412 H 0.69267 0.71672 0.53646
 H2413 H 0.72507 0.67087 0.62032
 H2414 H 0.74002 0.67739 0.58935
 C2415 C 0.69146 0.17714 0.10277
 C2416 C 0.66805 0.17813 0.10394
 C2417 C 0.65691 0.16991 0.12226
 C2418 C 0.66880 0.16172 0.14011
 C2419 C 0.69206 0.16160 0.13919
 C2420 C 0.70325 0.16897 0.12075
 C2421 C 0.70272 0.18577 0.08282
 C2422 C 0.72566 0.18351 0.07912
 C2423 C 0.73555 0.19272 0.06077
 C2424 C 0.72290 0.20460 0.04580
 C2425 C 0.69991 0.20625 0.04888
 C2426 C 0.68970 0.19654 0.06700
 C2427 C 0.65597 0.18795 0.08715
 C2428 C 0.66660 0.19742 0.06933
 H2429 H 0.63806 0.18889 0.08810
 H2430 H 0.65657 0.20537 0.05707
 H2431 H 0.63896 0.17028 0.12288
 H2432 H 0.70166 0.15598 0.15294
 H2433 H 0.75330 0.19110 0.05863
 H2434 H 0.68997 0.21502 0.03710
 H2435 H 0.72112 0.16867 0.12113
 H2436 H 0.73623 0.17469 0.09016
 C2437 C 0.18733 0.68135 0.09877
 C2438 C 0.20056 0.67227 0.11545
 C2439 C 0.19053 0.66303 0.13388
 C2440 C 0.16734 0.66184 0.13568
 C2441 C 0.15430 0.66989 0.11860
 C2442 C 0.16409 0.67964 0.10046
 C2443 C 0.19873 0.69225 0.08000
 C2444 C 0.18719 0.70400 0.06390
 C2445 C 0.19863 0.71439 0.04708
 C2446 C 0.22177 0.71300 0.04564
 C2447 C 0.23343 0.70126 0.06148
 C2448 C 0.22216 0.69137 0.07888
 C2449 C 0.22371 0.67232 0.11358
 C2450 C 0.23425 0.68127 0.09548
 H2451 H 0.23384 0.66512 0.12622
 H2452 H 0.25220 0.68074 0.09473
 H2453 H 0.20078 0.65683 0.14693
 H2454 H 0.13640 0.66873 0.11940
 H2455 H 0.18933 0.72351 0.03508
 H2456 H 0.25138 0.70055 0.06073
 H2457 H 0.15320 0.68556 0.08789
 H2458 H 0.16940 0.70576 0.06426
 C2459 C 0.18651 0.17818 0.59957
 C2460 C 0.19976 0.16956 0.61647
 C2461 C 0.18974 0.16095 0.63522
 C2462 C 0.16655 0.15998 0.63713
 C2463 C 0.15350 0.16746 0.61981
 C2464 C 0.16328 0.17654 0.60133
 C2465 C 0.19787 0.18868 0.58056
 C2466 C 0.18628 0.20011 0.56427
 C2467 C 0.19769 0.21042 0.54739
 C2468 C 0.22085 0.20925 0.54607
 C2469 C 0.23255 0.19767 0.56200
 C2470 C 0.22131 0.18789 0.57948
 C2471 C 0.22290 0.16955 0.61456
 C2472 C 0.23342 0.17812 0.59626
 H2473 H 0.23305 0.16269 0.62737
 H2474 H 0.25137 0.17764 0.59553
 H2475 H 0.20001 0.15520 0.64847
 H2476 H 0.13560 0.16644 0.62070
 H2477 H 0.18836 0.21941 0.53532
 H2478 H 0.25051 0.19714 0.56133
 H2479 H 0.15237 0.18207 0.58860
 H2480 H 0.16849 0.20177 0.56456
   
