data_POSCAR
  _audit_creation_date              2014-09-24
  _audit_creation_method            'ToBaCCo'
  _symmetry_space_group_name_H-M    'P1'
  _symmetry_Int_Tables_number       1
  _symmetry_cell_setting            triclinic
  loop_
  _symmetry_equiv_pos_as_xyz
 x,y,z
_cell_length_a 59.6036
_cell_length_b 59.6816
_cell_length_c 59.7950
_cell_angle_alpha 90.002700
_cell_angle_beta 89.987700
_cell_angle_gamma 89.958200
loop_
  _atom_site_label
  _atom_site_type_symbol
  _atom_site_fract_x
  _atom_site_fract_y
  _atom_site_fract_z
C1 C 0.35919 1.36034 0.33006
 C2 C 0.36894 1.34127 0.33971
 C3 C 0.35947 1.33170 0.35891
 C4 C 0.34025 1.34121 0.36850
 C5 C 0.33045 1.36028 0.35890
 C6 C 0.33994 1.36985 0.33968
 H7 H 0.38371 1.33373 0.33221
 H8 H 0.33284 1.33363 0.38325
 H9 H 0.33226 1.38450 0.33212
 C10 C 0.35941 0.86018 0.83095
 C11 C 0.34020 0.86970 0.84057
 C12 C 0.33066 0.86009 0.85974
 C13 C 0.34040 0.84096 0.86928
 C14 C 0.35960 0.83143 0.85966
 C15 C 0.36911 0.84105 0.84051
 H16 H 0.33261 0.88439 0.83301
 H17 H 0.33295 0.83334 0.88399
 H18 H 0.38385 0.83356 0.83294
 C19 C 0.85938 1.36033 0.83136
 C20 C 0.86907 1.34124 0.84098
 C21 C 0.85957 1.33167 0.86016
 C22 C 0.84038 1.34123 0.86976
 C23 C 0.83064 1.36034 0.86017
 C24 C 0.84018 1.36990 0.84096
 H25 H 0.88380 1.33370 0.83342
 H26 H 0.83294 1.33365 0.88449
 H27 H 0.83258 1.38456 0.83335
 C28 C 0.86095 0.86063 0.33154
 C29 C 0.84172 0.87010 0.34117
 C30 C 0.83216 0.86040 0.36026
 C31 C 0.84188 0.84125 0.36974
 C32 C 0.86111 0.83177 0.36013
 C33 C 0.87065 0.84148 0.34104
 H34 H 0.83407 0.88479 0.33368
 H35 H 0.83436 0.83360 0.38439
 H36 H 0.88540 0.83402 0.33346
 C37 C 0.63928 0.63928 0.33047
 C38 C 0.65848 0.62976 0.34015
 C39 C 0.66798 0.63940 0.35930
 C40 C 0.65826 0.65854 0.36880
 C41 C 0.63908 0.66808 0.35917
 C42 C 0.62958 0.65844 0.34002
 H43 H 0.66617 0.61506 0.33270
 H44 H 0.66574 0.66613 0.38350
 H45 H 0.61485 0.66599 0.33246
 C46 C 0.64051 0.13986 0.83097
 C47 C 0.63081 0.15894 0.84062
 C48 C 0.64035 0.16852 0.85977
 C49 C 0.65959 0.15899 0.86931
 C50 C 0.66933 0.13989 0.85968
 C51 C 0.65975 0.13032 0.84051
 H52 H 0.61605 0.16645 0.83311
 H53 H 0.66707 0.16657 0.88402
 H54 H 0.66735 0.11567 0.83287
 C55 C 1.13874 0.63903 0.83151
 C56 C 1.15797 0.62949 0.84106
 C57 C 1.16756 0.63907 0.86019
 C58 C 1.15787 0.65818 0.86980
 C59 C 1.13864 0.66773 0.86027
 C60 C 1.12907 0.65814 0.84113
 H61 H 1.16560 0.61484 0.83347
 H62 H 1.16542 0.66574 0.88447
 H63 H 1.11433 0.66567 0.83361
 C64 C 1.14130 0.13994 0.32945
 C65 C 1.16054 0.13049 0.33912
 C66 C 1.16999 0.14016 0.35831
 C67 C 1.16015 0.15926 0.36782
 C68 C 1.14093 0.16871 0.35817
 C69 C 1.13150 0.15904 0.33901
 H70 H 1.16826 0.11582 0.33162
 H71 H 1.16752 0.16691 0.38255
 H72 H 1.11673 0.16652 0.33146
 C73 C 0.64060 1.36001 0.66916
 C74 C 0.65975 1.36966 0.65958
 C75 C 0.66934 1.36018 0.64035
 C76 C 0.65970 1.34106 0.63072
 C77 C 0.64056 1.33140 0.64030
 C78 C 0.63100 1.34090 0.65950
 H79 H 0.66727 1.38434 0.66722
 H80 H 0.66719 1.33353 0.61598
 H81 H 0.61631 1.33329 0.66704
 C82 C 0.63889 0.86053 1.16820
 C83 C 0.65801 0.87035 1.15872
 C84 C 0.66778 0.86095 1.13958
 C85 C 0.65840 0.84175 1.12989
 C86 C 0.63929 0.83192 1.13935
 C87 C 0.62953 0.84133 1.15849
 H88 H 0.66541 0.88507 1.16637
 H89 H 0.66610 0.83433 1.11522
 H90 H 0.61487 0.83359 1.16596
 C91 C 1.14049 1.35977 1.16996
 C92 C 1.15962 1.36955 1.16041
 C93 C 1.16929 1.36016 1.14119
 C94 C 1.15978 1.34099 1.13151
 C95 C 1.14068 1.33120 1.14103
 C96 C 1.13103 1.34060 1.16024
 H97 H 1.16708 1.38428 1.16804
 H98 H 1.16733 1.33355 1.11675
 H99 H 1.11635 1.33287 1.16768
 C100 C 1.13887 0.86036 0.66813
 C101 C 1.15793 0.87027 0.65863
 C102 C 1.16768 0.86096 0.63944
 C103 C 1.15833 0.84176 0.62972
 C104 C 1.13928 0.83183 0.63920
 C105 C 1.12954 0.84116 0.65839
 H106 H 1.16530 0.88499 0.66631
 H107 H 1.16602 0.83440 0.61500
 H108 H 1.11493 0.83335 0.66588
 C109 C 0.35858 0.64079 0.66959
 C110 C 0.36806 0.66001 0.66003
 C111 C 0.35842 0.66958 0.64091
 C112 C 0.33930 0.65989 0.63132
 C113 C 0.32978 0.64065 0.64085
 C114 C 0.33946 0.63110 0.65999
 H115 H 0.38275 0.66762 0.66756
 H116 H 0.33176 0.66745 0.61662
 H117 H 0.33204 0.61633 0.66754
 C118 C 0.36153 0.13897 1.16791
 C119 C 0.37097 0.15819 1.15830
 C120 C 0.36131 0.16768 1.13916
 C121 C 0.34222 0.15792 1.12960
 C122 C 0.33276 0.13870 1.13919
 C123 C 0.34243 0.12922 1.15833
 H124 H 0.38561 0.16588 1.16585
 H125 H 0.33459 0.16540 1.11492
 H126 H 0.33497 0.11449 1.16590
 C127 C 0.85978 0.64055 1.17045
 C128 C 0.86936 0.65976 1.16090
 C129 C 0.85981 0.66935 1.14174
 C130 C 0.84070 0.65970 1.13209
 C131 C 0.83110 0.64051 1.14160
 C132 C 0.84065 0.63093 1.16076
 H133 H 0.88404 0.66738 1.16846
 H134 H 0.83318 0.66723 1.11738
 H135 H 0.83306 0.61619 1.16820
 C136 C 0.85887 0.14022 0.67048
 C137 C 0.86838 0.15942 0.66085
 C138 C 0.85875 0.16894 0.64169
 C139 C 0.83963 0.15924 0.63212
 C140 C 0.83008 0.14004 0.64171
 C141 C 0.83973 0.13053 0.66088
 H142 H 0.88308 0.16708 0.66833
 H143 H 0.83210 0.16676 0.61740
 H144 H 0.83224 0.11578 0.66843
 C145 C 1.36067 0.35997 0.66858
 C146 C 1.34150 0.36951 0.65894
 C147 C 1.33198 0.35992 0.63978
 C148 C 1.34168 0.34079 0.63022
 C149 C 1.36087 0.33120 0.63984
 C150 C 1.37037 0.34083 0.65903
 H151 H 1.33386 0.38419 0.66646
 H152 H 1.33414 0.33327 0.61551
 H153 H 1.38509 0.33334 0.66666
 C154 C 1.36088 0.85959 1.16871
 C155 C 1.34172 0.86923 1.15914
 C156 C 1.33207 0.85969 1.14002
 C157 C 1.34162 0.84050 1.13044
 C158 C 1.36080 0.83081 1.13998
 C159 C 1.37043 0.84039 1.15912
 H160 H 1.33419 0.88395 1.16669
 H161 H 1.33397 0.83302 1.11576
 H162 H 1.38514 0.83283 1.16669
 C163 C 0.86089 0.35954 1.16830
 C164 C 0.84165 0.36915 1.15885
 C165 C 0.83196 0.35964 1.13974
 C166 C 0.84154 0.34053 1.13004
 C167 C 0.86080 0.33088 1.13947
 C168 C 0.87048 0.34042 1.15860
 H169 H 0.83410 0.38381 1.16648
 H170 H 0.83387 0.33307 1.11536
 H171 H 0.88525 0.33289 1.16609
 C172 C 0.86055 0.86051 0.66865
 C173 C 0.87026 0.84136 0.65915
 C174 C 0.86079 0.83169 0.64001
 C175 C 0.84162 0.84121 0.63034
 C176 C 0.83188 0.86036 0.63982
 C177 C 0.84137 0.87002 0.65896
 H178 H 0.88497 0.83386 0.66678
 H179 H 0.83414 0.83359 0.61566
 H180 H 0.83371 0.88470 0.66644
 C181 C 0.63917 0.63933 0.66868
 C182 C 0.62933 0.65842 0.65919
 C183 C 0.63872 0.66813 0.64002
 C184 C 0.65792 0.65870 0.63030
 C185 C 0.66777 0.63960 0.63977
 C186 C 0.65837 0.62991 0.65894
 H187 H 0.61461 0.66585 0.66686
 H188 H 0.66532 0.66634 0.61560
 H189 H 0.66612 0.61527 0.66642
 C190 C 0.63950 1.14053 1.16882
 C191 C 0.62975 1.15968 1.15939
 C192 C 0.63921 1.16945 1.14026
 C193 C 0.65843 1.15997 1.13057
 C194 C 0.66819 1.14081 1.14000
 C195 C 0.65870 1.13109 1.15912
 H196 H 0.61501 1.16708 1.16707
 H197 H 0.66594 1.16759 1.11589
 H198 H 0.66638 1.11639 1.16655
 C199 C 0.13994 0.64128 1.17059
 C200 C 0.15910 0.63174 1.16085
 C201 C 0.16859 0.64138 1.14170
 C202 C 0.15890 0.66056 1.13224
 C203 C 0.13974 0.67015 1.14193
 C204 C 0.13026 0.66048 1.16110
 H205 H 0.16675 0.61699 1.16824
 H206 H 0.16641 0.66810 1.11752
 H207 H 0.11553 0.66799 1.16873
 C208 C 0.13905 1.13999 0.66839
 C209 C 0.15827 1.13053 0.65873
 C210 C 0.16776 1.14020 0.63960
 C211 C 0.15801 1.15933 0.63010
 C212 C 0.13878 1.16882 0.63974
 C213 C 0.12930 1.15912 0.65889
 H214 H 0.16595 1.11586 0.66622
 H215 H 0.16553 1.16691 0.61541
 H216 H 0.11455 1.16654 0.66654
 C217 C 1.36007 0.64101 0.33125
 C218 C 1.36963 0.66023 0.34074
 C219 C 1.36012 0.66980 0.35996
 C220 C 1.34107 0.66006 0.36969
 C221 C 1.33152 0.64084 0.36020
 C222 C 1.34104 0.63132 0.34100
 H223 H 1.38425 0.66783 0.33303
 H224 H 1.33353 0.66753 0.38444
 H225 H 1.33351 0.61657 0.33353
 C226 C 1.36040 1.14109 0.83104
 C227 C 1.36995 1.16029 0.84059
 C228 C 1.36040 1.16983 0.85981
 C229 C 1.34132 1.16008 0.86947
 C230 C 1.33177 1.14089 0.85992
 C231 C 1.34133 1.13140 0.84072
 H232 H 1.38459 1.16789 0.83294
 H233 H 1.33375 1.16752 0.88421
 H234 H 1.33382 1.11667 0.83321
 C235 C 0.86075 0.63938 0.83166
 C236 C 0.87037 0.65855 0.84117
 C237 C 0.86090 0.66812 0.86038
 C238 C 0.84181 0.65848 0.87009
 C239 C 0.83217 0.63932 0.86059
 C240 C 0.84166 0.62976 0.84139
 H241 H 0.88501 0.66614 0.83352
 H242 H 0.83434 0.66602 0.88482
 H243 H 0.83407 0.61505 0.83389
 C244 C 0.86156 1.13869 0.33212
 C245 C 0.87112 1.15786 0.34170
 C246 C 0.86158 1.16738 0.36090
 C247 C 0.84249 1.15768 0.37055
 C248 C 0.83292 1.13851 0.36098
 C249 C 0.84247 1.12901 0.34179
 H250 H 0.88575 1.16551 0.33408
 H251 H 0.83495 1.16518 0.38526
 H252 H 0.83492 1.11431 0.33423
 C253 C 0.63984 0.35876 0.32981
 C254 C 0.65900 0.36853 0.33929
 C255 C 0.66878 0.35910 0.35840
 C256 C 0.65938 0.33991 0.36809
 C257 C 0.64022 0.33009 0.35866
 C258 C 0.63045 0.33954 0.33953
 H259 H 0.66643 0.38329 0.33171
 H260 H 0.66711 0.33253 0.38278
 H261 H 0.61573 0.33185 0.33210
 C262 C 0.63951 0.85989 0.83101
 C263 C 0.65865 0.86964 0.84050
 C264 C 0.66837 0.86021 0.85965
 C265 C 0.65890 0.84104 0.86933
 C266 C 0.63976 0.83127 0.85986
 C267 C 0.63006 0.84072 0.84071
 H268 H 0.66610 0.88434 0.83287
 H269 H 0.66654 0.83361 0.88403
 H270 H 0.61538 0.83304 0.83324
 C271 C 0.13970 0.35980 0.82984
 C272 C 0.15883 0.36950 0.83945
 C273 C 0.16843 0.36003 0.85865
 C274 C 0.15887 0.34088 0.86827
 C275 C 0.13976 0.33116 0.85869
 C276 C 0.13017 0.34063 0.83950
 H277 H 0.16640 0.38421 0.83191
 H278 H 0.16641 0.33342 0.88300
 H279 H 0.11549 0.33294 0.83200
 C280 C 0.13982 0.85961 0.33004
 C281 C 0.15895 0.86930 0.33967
 C282 C 0.16856 0.85979 0.35884
 C283 C 0.15903 0.84061 0.36841
 C284 C 0.13992 0.83090 0.35883
 C285 C 0.13031 0.84041 0.33966
 H286 H 0.16649 0.88404 0.33218
 H287 H 0.16658 0.83313 0.38313
 H288 H 0.11563 0.83273 0.33215
 O289 O 0.97803 0.91914 0.88888
 O290 O 0.97791 0.89301 0.86280
 C291 C 0.97034 0.91129 0.87069
 C292 C 0.95205 0.92328 0.85893
 C293 C 0.94447 0.91588 0.83796
 H294 H 0.95273 0.90187 0.82989
 O295 O 1.02224 1.08048 0.88828
 O296 O 1.02240 1.10647 0.86206
 C297 C 1.02995 1.08822 0.87005
 C298 C 1.04824 1.07614 0.85837
 C299 C 1.05589 1.08339 0.83736
 H300 H 1.04806 1.09771 0.82943
 O301 O 0.88831 0.97859 0.91924
 O302 O 0.86205 0.97852 0.89326
 C303 C 0.87003 0.97092 0.91145
 C304 C 0.85829 0.95263 0.92345
 C305 C 0.83730 0.94491 0.91604
 H306 H 0.82942 0.95269 0.90169
 O307 O 1.11199 1.02126 0.91924
 O308 O 1.13823 1.02109 0.89323
 C309 C 1.13029 1.02881 0.91139
 C310 C 1.14209 1.04714 0.92323
 C311 C 1.16309 1.05472 0.91576
 H312 H 1.17119 1.04643 0.90180
 O313 O 0.91898 0.88876 0.97852
 O314 O 0.89281 0.86265 0.97858
 C315 C 0.91108 0.87051 0.97094
 C316 C 0.92301 0.85866 0.95270
 C317 C 0.91560 0.83762 0.94522
 H318 H 0.90162 0.82953 0.95352
 O319 O 1.08141 1.11121 0.97785
 O320 O 1.10760 1.13729 0.97775
 C321 C 1.08933 1.12940 0.97016
 C322 C 1.07741 1.14113 0.95184
 C323 C 1.08485 1.16211 0.94423
 H324 H 1.09884 1.17023 0.95248
 O325 O 0.91903 1.02213 0.88841
 O326 O 0.89292 1.02215 0.86229
 C327 C 0.91119 1.02976 0.87018
 C328 C 0.92319 1.04802 0.85841
 C329 C 0.91567 1.05583 0.83755
 H330 H 0.90118 1.04813 0.82977
 O331 O 1.08112 0.97760 0.88873
 O332 O 1.10724 0.97739 0.86259
 C333 C 1.08895 0.96988 0.87053
 C334 C 1.07690 0.95163 0.85882
 C335 C 1.08422 0.94403 0.83782
 H336 H 1.09823 0.95224 0.82968
 O337 O 1.02169 0.88832 0.91953
 O338 O 1.02164 0.86206 0.89359
 C339 C 1.02929 0.87002 0.91176
 C340 C 1.04753 0.85820 0.92378
 C341 C 1.05511 0.83714 0.91646
 H342 H 1.04727 0.82928 0.90213
 O343 O 0.97863 1.11146 0.91884
 O344 O 0.97874 1.13761 0.89278
 C345 C 0.97107 1.12974 0.91098
 C346 C 0.95279 1.14163 0.92289
 C347 C 0.94526 1.16264 0.91545
 H348 H 0.95353 1.17067 0.90145
 O349 O 0.88868 1.08149 0.97789
 O350 O 0.86258 1.10770 0.97781
 C351 C 0.87045 1.08941 0.97024
 C352 C 0.85862 1.07748 0.95198
 C353 C 0.83763 1.08498 0.94436
 H354 H 0.82958 1.09904 0.95254
 O355 O 1.11153 0.91865 0.97853
 O356 O 1.13767 0.89248 0.97854
 C357 C 1.12977 0.91071 0.97089
 C358 C 1.14158 0.92256 0.95257
 C359 C 1.16258 0.91504 0.94499
 H360 H 1.17066 0.90103 0.95324
 O361 O 0.97845 1.08076 0.88824
 O362 O 0.97857 1.10677 0.86204
 C363 C 0.97082 1.08862 0.87002
 C364 C 0.95235 1.07682 0.85836
 C365 C 0.94460 1.08436 0.83750
 H366 H 0.95287 1.09834 0.82940
 O367 O 1.02179 0.91885 0.88875
 O368 O 1.02173 0.89274 0.86265
 C369 C 1.02942 0.91095 0.87054
 C370 C 1.04777 0.92283 0.85878
 C371 C 1.05534 0.91545 0.83778
 H372 H 1.04740 0.90116 0.82990
 O373 O 1.11181 0.97754 0.91938
 O374 O 1.13807 0.97733 0.89340
 C375 C 1.13006 0.96979 0.91160
 C376 C 1.14175 0.95146 0.92360
 C377 C 1.16274 0.94369 0.91625
 H378 H 1.17066 0.95145 0.90190
 O379 O 0.88838 1.02231 0.91910
 O380 O 0.86210 1.02231 0.89314
 C381 C 0.87011 1.02999 0.91129
 C382 C 0.85842 1.04839 0.92318
 C383 C 0.83743 1.05615 0.91578
 H384 H 0.82951 1.04831 0.90149
 O385 O 0.91955 1.11201 0.97783
 O386 O 0.89360 1.13836 0.97776
 C387 C 0.91180 1.13029 0.97016
 C388 C 0.92384 1.14192 0.95185
 C389 C 0.91653 1.16293 0.94416
 H390 H 0.90220 1.17091 0.95197
 O391 O 1.08064 0.88815 0.97864
 O392 O 1.10665 0.86185 0.97866
 C393 C 1.08843 0.86986 0.97104
 C394 C 1.07645 0.85814 0.95276
 C395 C 1.08378 0.83708 0.94523
 H396 H 1.09771 0.82890 0.95351
 O397 O 1.08127 1.02129 0.88861
 O398 O 1.10738 1.02112 0.86247
 C399 C 1.08914 1.02884 0.87037
 C400 C 1.07722 1.04713 0.85856
 C401 C 1.08463 1.05461 0.83755
 H402 H 1.09861 1.04629 0.82947
 O403 O 0.91902 0.97843 0.88860
 O404 O 0.89292 0.97838 0.86246
 C405 C 0.91116 0.97074 0.87041
 C406 C 0.92313 0.95237 0.85875
 C407 C 0.91578 0.94470 0.83778
 H408 H 0.90146 0.95258 0.82985
 O409 O 1.02237 1.11127 0.91880
 O410 O 1.02253 1.13741 0.89274
 C411 C 1.03011 1.12947 0.91095
 C412 C 1.04845 1.14118 0.92290
 C413 C 1.05613 1.16217 0.91552
 H414 H 1.04831 1.17005 0.90118
 O415 O 0.97796 0.88842 0.91947
 O416 O 0.97785 0.86214 0.89354
 C417 C 0.97026 0.87016 0.91172
 C418 C 0.95196 0.85848 0.92374
 C419 C 0.94431 0.83744 0.91649
 H420 H 0.95214 0.82949 0.90219
 O421 O 1.11215 1.08052 0.97794
 O422 O 1.13848 1.10646 0.97784
 C423 C 1.13046 1.08826 0.97028
 C424 C 1.14220 1.07619 0.95205
 C425 C 1.16320 1.08355 0.94432
 H426 H 1.17109 1.09794 0.95206
 O427 O 0.88839 0.91961 0.97836
 O428 O 0.86209 0.89363 0.97842
 C429 C 0.87010 0.91180 0.97074
 C430 C 0.85836 0.92371 0.95241
 C431 C 0.83737 0.91625 0.94478
 H432 H 0.82926 0.90226 0.95301
 Cu433 Cu 0.99988 0.90630 0.90676
 Cu434 Cu 0.99977 0.87486 0.87552
 Cu435 Cu 1.00041 1.09338 0.90614
 Cu436 Cu 1.00058 1.12468 0.87477
 Cu437 Cu 0.90629 1.00037 0.90644
 Cu438 Cu 0.87486 1.00033 0.87517
 Cu439 Cu 1.09393 0.99944 0.90660
 Cu440 Cu 1.12537 0.99921 0.87531
 C441 C 0.94141 0.94167 0.86908
 H442 H 0.94697 0.94728 0.88539
 C443 C 0.92635 0.92647 0.82725
 C444 C 1.05888 1.05787 0.86872
 H445 H 1.05328 1.05239 0.88506
 C446 C 1.07407 1.07272 0.82681
 C447 C 0.86857 0.94204 0.94177
 H448 H 0.88489 0.94769 0.94737
 C449 C 0.82671 0.92673 0.92660
 C450 C 1.13189 1.05785 0.94152
 H451 H 1.11556 1.05228 0.94718
 C452 C 1.17378 1.07292 0.92618
 C453 C 0.94133 0.86883 0.94199
 H454 H 0.94694 0.88520 0.94748
 C455 C 0.92615 0.82687 0.92713
 C456 C 1.05907 1.13092 0.94120
 H457 H 1.05343 1.11460 0.94679
 C458 C 1.07432 1.17277 0.92609
 C459 C 0.94167 1.05850 0.86856
 H460 H 0.94736 1.05279 0.88479
 C461 C 0.92626 1.07400 0.82696
 C462 C 1.05853 0.94106 0.86905
 H463 H 1.05299 0.94664 0.88538
 C464 C 1.07355 0.92595 0.82716
 C465 C 1.05818 0.86845 0.94207
 H466 H 1.05263 0.88482 0.94760
 C467 C 1.07322 0.82645 0.92709
 C468 C 0.94211 1.13152 0.94124
 H469 H 0.94764 1.11517 0.94688
 C470 C 0.92713 1.17343 0.92597
 C471 C 0.86876 1.05905 0.94142
 H472 H 0.88509 1.05336 0.94702
 C473 C 0.82690 1.07443 0.92627
 C474 C 1.13141 0.94091 0.94191
 H475 H 1.11508 0.94661 0.94747
 C476 C 1.17330 0.92550 0.92684
 O477 O 1.02188 0.91935 1.11185
 O478 O 1.02174 0.89339 1.13810
 C479 C 1.02949 0.91154 1.13010
 C480 C 1.04789 0.92343 1.14178
 C481 C 1.05564 0.91598 1.16269
 H482 H 1.04779 0.90164 1.17057
 O483 O 0.97871 1.08132 1.11108
 O484 O 0.97874 1.10743 1.13718
 C485 C 0.97107 1.08921 1.12928
 C486 C 0.95271 1.07733 1.14104
 C487 C 0.94528 1.08465 1.16209
 H488 H 0.95369 1.09852 1.17024
 O489 O 0.88841 1.02272 1.08061
 O490 O 0.86219 1.02293 1.10663
 C491 C 0.87017 1.03048 1.08842
 C492 C 0.85847 1.04880 1.07643
 C493 C 0.83747 1.05658 1.08379
 H494 H 0.82954 1.04882 1.09813
 O495 O 1.11182 0.97796 1.08099
 O496 O 1.13812 0.97793 1.10693
 C497 C 1.13009 0.97028 1.08878
 C498 C 1.14178 0.95191 1.07685
 C499 C 1.16280 0.94418 1.08420
 H500 H 1.17074 0.95201 1.09849
 O501 O 1.08076 0.88818 1.02229
 O502 O 1.10678 0.86189 1.02234
 C503 C 1.08857 0.86993 1.02998
 C504 C 1.07665 0.85831 1.04836
 C505 C 1.08414 0.83740 1.05616
 H506 H 1.09816 0.82924 1.04799
 O507 O 0.91954 1.11211 1.02146
 O508 O 0.89358 1.13846 1.02144
 C509 C 0.91178 1.13042 1.02908
 C510 C 0.92380 1.14213 1.04735
 C511 C 0.91640 1.16311 1.05507
 H512 H 0.90201 1.17102 1.04729
 O513 O 0.91904 0.97895 1.11128
 O514 O 0.89296 0.97911 1.13745
 C515 C 0.91118 0.97139 1.12953
 C516 C 0.92311 0.95310 1.14134
 C517 C 0.91571 0.94566 1.16236
 H518 H 0.90174 0.95400 1.17043
 O519 O 1.08130 1.02189 1.11152
 O520 O 1.10743 1.02192 1.13762
 C521 C 1.08920 1.02959 1.12968
 C522 C 1.07731 1.04802 1.14133
 C523 C 1.08479 1.05578 1.16222
 H524 H 1.09914 1.04793 1.17010
 O525 O 0.97802 0.88882 1.08124
 O526 O 0.97782 0.86271 1.10733
 C527 C 0.97025 0.87064 1.08911
 C528 C 0.95189 0.85894 1.07717
 C529 C 0.94411 0.83801 1.08462
 H530 H 0.95190 0.83015 1.09898
 O531 O 1.02255 1.11186 1.08046
 O532 O 1.02260 1.13813 1.10639
 C533 C 1.03024 1.13011 1.08823
 C534 C 1.04860 1.14177 1.07627
 C535 C 1.05639 1.16272 1.08366
 H536 H 1.04861 1.17063 1.09800
 O537 O 0.88833 0.91976 1.02199
 O538 O 0.86202 0.89379 1.02208
 C539 C 0.87002 0.91202 1.02963
 C540 C 0.85825 0.92406 1.04785
 C541 C 0.83723 0.91670 1.05548
 H542 H 0.82910 0.90269 1.04729
 O543 O 1.11200 1.08050 1.02156
 O544 O 1.13833 1.10644 1.02149
 C545 C 1.13030 1.08827 1.02916
 C546 C 1.14204 1.07632 1.04745
 C547 C 1.16312 1.08363 1.05495
 H548 H 1.17130 1.09753 1.04664
 O549 O 1.02248 1.08123 1.11115
 O550 O 1.02254 1.10737 1.13722
 C551 C 1.03014 1.08910 1.12935
 C552 C 1.04845 1.07715 1.14113
 C553 C 1.05615 1.08466 1.16203
 H554 H 1.04798 1.09874 1.17005
 O555 O 0.97811 0.91966 1.11169
 O556 O 0.97791 0.89371 1.13795
 C557 C 0.97037 0.91195 1.12992
 C558 C 0.95208 0.92406 1.14157
 C559 C 0.94442 0.91685 1.16259
 H560 H 0.95224 0.90254 1.17055
 O561 O 1.11191 1.02165 1.08079
 O562 O 1.13820 1.02168 1.10673
 C563 C 1.13022 1.02926 1.08853
 C564 C 1.14203 1.04746 1.07647
 C565 C 1.16311 1.05502 1.08374
 H566 H 1.17102 1.04720 1.09807
 O567 O 0.88828 0.97901 1.08070
 O568 O 0.86205 0.97915 1.10672
 C569 C 0.86999 0.97144 1.08855
 C570 C 0.85820 0.95313 1.07666
 C571 C 0.83717 0.94551 1.08407
 H572 H 0.82928 0.95339 1.09837
 O573 O 1.08155 1.11148 1.02148
 O574 O 1.10775 1.13755 1.02142
 C575 C 1.08948 1.12971 1.02907
 C576 C 1.07760 1.14156 1.04735
 C577 C 1.08514 1.16250 1.05496
 H578 H 1.09919 1.17053 1.04673
 O579 O 0.91896 0.88895 1.02216
 O580 O 0.89278 0.86285 1.02225
 C581 C 0.91104 0.87076 1.02986
 C582 C 0.92292 0.85903 1.04822
 C583 C 0.91540 0.83810 1.05590
 H584 H 0.90137 0.83002 1.04769
 O585 O 1.08112 0.97817 1.11163
 O586 O 1.10726 0.97814 1.13772
 C587 C 1.08898 0.97054 1.12985
 C588 C 1.07700 0.95228 1.14163
 C589 C 1.08450 0.94460 1.16254
 H590 H 1.09857 0.95277 1.17058
 O591 O 0.91920 1.02263 1.11117
 O592 O 0.89314 1.02285 1.13736
 C593 C 0.91142 1.03035 1.12939
 C594 C 0.92355 1.04855 1.14111
 C595 C 0.91635 1.05612 1.16217
 H596 H 0.90200 1.04831 1.17010
 O597 O 0.97878 1.11192 1.08038
 O598 O 0.97879 1.13817 1.10634
 C599 C 0.97115 1.13020 1.08817
 C600 C 0.95281 1.14198 1.07625
 C601 C 0.94519 1.16296 1.08370
 H602 H 0.95345 1.17104 1.09768
 O603 O 1.02178 0.88859 1.08130
 O604 O 1.02165 0.86248 1.10740
 C605 C 1.02936 0.87033 1.08919
 C606 C 1.04768 0.85847 1.07731
 C607 C 1.05542 0.83757 1.08489
 H608 H 1.04763 0.82982 1.09931
 O609 O 1.11150 0.91882 1.02215
 O610 O 1.13765 0.89266 1.02220
 C611 C 1.12976 0.91094 1.02978
 C612 C 1.14159 0.92288 1.04801
 C613 C 1.16260 0.91541 1.05557
 H614 H 1.17068 0.90138 1.04735
 O615 O 0.88869 1.08158 1.02152
 O616 O 0.86258 1.10778 1.02149
 C617 C 0.87045 1.08954 1.02914
 C618 C 0.85864 1.07770 1.04745
 C619 C 0.83764 1.08522 1.05503
 H620 H 0.82956 1.09921 1.04676
 Cu621 Cu 0.99997 0.90670 1.09391
 Cu622 Cu 0.99976 0.87546 1.12533
 Cu623 Cu 1.00064 1.09397 1.09317
 Cu624 Cu 1.00067 1.12541 1.12440
 Cu625 Cu 0.90629 0.90687 1.00025
 Cu626 Cu 0.87479 0.87562 1.00034
 Cu627 Cu 1.09349 0.90607 1.00040
 Cu628 Cu 1.12480 0.87458 1.00044
 Cu629 Cu 0.90672 1.09418 0.99968
 Cu630 Cu 0.87547 1.12572 0.99962
 Cu631 Cu 1.09415 1.09333 0.99972
 Cu632 Cu 1.12568 1.12455 0.99962
 Cu633 Cu 0.90634 1.00081 1.09333
 Cu634 Cu 0.87495 1.00103 1.12466
 Cu635 Cu 1.09391 0.99992 1.09364
 Cu636 Cu 1.12539 0.99992 1.12487
 C637 C 1.05856 0.94172 1.13151
 H638 H 1.05289 0.94735 1.11524
 C639 C 1.07393 0.92646 1.17320
 C640 C 0.94187 1.05914 1.13079
 H641 H 0.94733 1.05359 1.11442
 C642 C 0.92712 1.07415 1.17280
 C643 C 0.86880 1.05935 1.05813
 H644 H 0.88513 1.05365 1.05256
 C645 C 0.82692 1.07478 1.07319
 C646 C 1.13142 0.94127 1.05862
 H647 H 1.11508 0.94692 1.05306
 C648 C 1.17334 0.92594 1.07366
 C649 C 1.05827 0.86859 1.05892
 H650 H 1.05260 0.88485 1.05319
 C651 C 1.07365 0.82690 1.07442
 C652 C 0.94215 1.13181 1.05793
 H653 H 0.94775 1.11549 1.05229
 C654 C 0.92698 1.17365 1.07324
 C655 C 0.94144 0.94233 1.13119
 H656 H 0.94705 0.94778 1.11484
 C657 C 0.92625 0.92755 1.17312
 C658 C 1.05901 1.05869 1.13104
 H659 H 1.05335 1.05299 1.11479
 C660 C 1.07431 1.07409 1.17270
 C661 C 0.94131 0.86920 1.05883
 H662 H 0.94701 0.88548 1.05319
 C663 C 0.92588 0.82745 1.07408
 C664 C 1.05919 1.13145 1.05798
 H665 H 1.05348 1.11516 1.05239
 C666 C 1.07465 1.17322 1.07310
 C667 C 0.86849 0.94242 1.05841
 H668 H 0.88484 0.94799 1.05281
 C669 C 0.82656 0.92730 1.07358
 C670 C 1.13173 1.05809 1.05818
 H671 H 1.11534 1.05256 1.05268
 C672 C 1.17379 1.07310 1.07309
 O673 O 1.08091 0.52110 0.61113
 O674 O 1.10699 0.52098 0.63729
 C675 C 1.08876 0.52868 0.62936
 C676 C 1.07684 0.54702 0.64111
 C677 C 1.08420 0.55451 0.66213
 H678 H 1.09812 0.54615 0.67026
 O679 O 0.91904 0.47798 0.61144
 O680 O 0.89295 0.47807 0.63759
 C681 C 0.91117 0.47036 0.62965
 C682 C 0.92304 0.45198 0.64138
 C683 C 0.91554 0.44438 0.66231
 H684 H 0.90157 0.45271 0.67040
 O685 O 1.02213 0.61114 0.58058
 O686 O 1.02223 0.63733 0.60661
 C687 C 1.02983 0.62937 0.58841
 C688 C 1.04819 0.64108 0.57649
 C689 C 1.05579 0.66208 0.58385
 H690 H 1.04750 0.67024 0.59777
 O691 O 0.97764 0.38796 0.58080
 O692 O 0.97758 0.36173 0.60678
 C693 C 0.96992 0.36974 0.58862
 C694 C 0.95150 0.35810 0.57671
 C695 C 0.94364 0.33721 0.58417
 H696 H 0.95140 0.32932 0.59854
 O697 O 1.11201 0.58027 0.52180
 O698 O 1.13830 0.60624 0.52183
 C699 C 1.13028 0.58806 0.52946
 C700 C 1.14197 0.57608 0.54779
 C701 C 1.16286 0.58358 0.55567
 H702 H 1.17074 0.59801 0.54798
 O703 O 0.88797 0.41918 0.52180
 O704 O 0.86167 0.39321 0.52175
 C705 C 0.86967 0.41139 0.52942
 C706 C 0.85797 0.42333 0.54776
 C707 C 0.83702 0.41589 0.55556
 H708 H 0.82910 0.40154 0.54778
 O709 O 0.97830 0.58061 0.61125
 O710 O 0.97837 0.60667 0.63740
 C711 C 0.97068 0.58847 0.62948
 C712 C 0.95235 0.57658 0.64125
 C713 C 0.94479 0.58401 0.66222
 H714 H 0.95309 0.59797 0.67030
 O715 O 1.02158 0.41844 0.61132
 O716 O 1.02160 0.39238 0.63746
 C717 C 1.02927 0.41057 0.62951
 C718 C 1.04768 0.42248 0.64117
 C719 C 1.05543 0.41503 0.66209
 H720 H 1.04760 0.40069 0.66997
 O721 O 1.11157 0.47738 0.58044
 O722 O 1.13781 0.47723 0.60643
 C723 C 1.12983 0.46967 0.58823
 C724 C 1.14154 0.45135 0.57625
 C725 C 1.16258 0.44367 0.58355
 H726 H 1.17053 0.45150 0.59784
 O727 O 0.88844 0.52178 0.58080
 O728 O 0.86222 0.52190 0.60682
 C729 C 0.87018 0.52949 0.58862
 C730 C 0.85844 0.54781 0.57669
 C731 C 0.83743 0.55547 0.58410
 H732 H 0.82931 0.54725 0.59807
 O733 O 0.91920 0.61132 0.52177
 O734 O 0.89316 0.63760 0.52179
 C735 C 0.91139 0.62960 0.52940
 C736 C 0.92338 0.64133 0.54766
 C737 C 0.91600 0.66235 0.55526
 H738 H 0.90200 0.67049 0.54704
 O739 O 1.08044 0.38774 0.52152
 O740 O 1.10648 0.36147 0.52153
 C741 C 1.08825 0.36947 0.52915
 C742 C 1.07628 0.35775 0.54745
 C743 C 1.08369 0.33674 0.55504
 H744 H 1.09767 0.32860 0.54680
 O745 O 0.91911 0.52170 0.61147
 O746 O 0.89303 0.52183 0.63764
 C747 C 0.91129 0.52939 0.62969
 C748 C 0.92332 0.54767 0.64139
 C749 C 0.91597 0.55535 0.66236
 H750 H 0.90161 0.54755 0.67027
 O751 O 1.08087 0.47738 0.61110
 O752 O 1.10698 0.47724 0.63723
 C753 C 1.08871 0.46967 0.62930
 C754 C 1.07675 0.45136 0.64103
 C755 C 1.08423 0.44370 0.66194
 H756 H 1.09828 0.45191 0.67000
 O757 O 1.02140 0.38782 0.58065
 O758 O 1.02142 0.36159 0.60662
 C759 C 1.02904 0.36954 0.58842
 C760 C 1.04732 0.35775 0.57641
 C761 C 1.05498 0.33674 0.58378
 H762 H 1.04716 0.32888 0.59812
 O763 O 0.97836 0.61129 0.58063
 O764 O 0.97841 0.63749 0.60664
 C765 C 0.97074 0.62956 0.58846
 C766 C 0.95243 0.64135 0.57653
 C767 C 0.94479 0.66236 0.58391
 H768 H 0.95265 0.67023 0.59822
 O769 O 0.88839 0.58074 0.52178
 O770 O 0.86222 0.60687 0.52181
 C771 C 0.87014 0.58863 0.52943
 C772 C 0.85837 0.57672 0.54772
 C773 C 0.83736 0.58416 0.55539
 H774 H 0.82947 0.59851 0.54756
 O775 O 1.11127 0.41831 0.52151
 O776 O 1.13745 0.39218 0.52152
 C777 C 1.12954 0.41043 0.52913
 C778 C 1.14136 0.42236 0.54737
 C779 C 1.16241 0.41493 0.55489
 H780 H 1.17050 0.40093 0.54664
 O781 O 0.97783 0.41860 0.61146
 O782 O 0.97776 0.39254 0.63760
 C783 C 0.97017 0.41080 0.62969
 C784 C 0.95190 0.42285 0.64144
 C785 C 0.94414 0.41547 0.66237
 H786 H 0.95189 0.40105 0.67023
 O787 O 1.02204 0.58044 0.61119
 O788 O 1.02216 0.60648 0.63737
 C789 C 1.02972 0.58822 0.62942
 C790 C 1.04797 0.57613 0.64115
 C791 C 1.05557 0.58340 0.66217
 H792 H 1.04776 0.59775 0.67007
 O793 O 0.88831 0.47808 0.58083
 O794 O 0.86209 0.47816 0.60685
 C795 C 0.87002 0.47050 0.58866
 C796 C 0.85819 0.45222 0.57676
 C797 C 0.83724 0.44456 0.58429
 H798 H 0.82921 0.45276 0.59834
 O799 O 1.11172 0.52110 0.58059
 O800 O 1.13792 0.52099 0.60662
 C801 C 1.12999 0.52870 0.58846
 C802 C 1.14179 0.54706 0.57665
 C803 C 1.16269 0.55478 0.58427
 H804 H 1.17072 0.54656 0.59830
 O805 O 0.91857 0.38834 0.52185
 O806 O 0.89240 0.36224 0.52179
 C807 C 0.91065 0.37012 0.52946
 C808 C 0.92250 0.35831 0.54779
 C809 C 0.91489 0.33742 0.55548
 H810 H 0.90082 0.32940 0.54729
 O811 O 1.08135 0.61103 0.52174
 O812 O 1.10749 0.63717 0.52176
 C813 C 1.08922 0.62927 0.52936
 C814 C 1.07722 0.64107 0.54760
 C815 C 1.08460 0.66208 0.55522
 H816 H 1.09898 0.66995 0.54740
 Cu817 Cu 1.09365 0.49925 0.59320
 Cu818 Cu 1.12505 0.49909 0.62452
 Cu819 Cu 0.90635 0.49988 0.59353
 Cu820 Cu 0.87494 0.50000 0.62485
 Cu821 Cu 1.00020 0.59326 0.59330
 Cu822 Cu 1.00031 0.62462 0.62462
 Cu823 Cu 0.99961 0.40582 0.59346
 Cu824 Cu 0.99959 0.37443 0.62473
 C825 C 1.05858 0.55780 0.63087
 H826 H 1.05301 0.55231 0.61452
 C827 C 1.07367 0.57268 0.67279
 C828 C 0.94136 0.44125 0.63119
 H829 H 0.94703 0.44683 0.61491
 C830 C 0.92596 0.42613 0.67293
 C831 C 1.05888 0.63082 0.55822
 H832 H 1.05329 0.61448 0.55265
 C833 C 1.07398 0.67272 0.57333
 C834 C 0.94094 0.36840 0.55839
 H835 H 0.94671 0.38465 0.55274
 C836 C 0.92534 0.32673 0.57366
 C837 C 1.13168 0.55769 0.55827
 H838 H 1.11542 0.55202 0.55249
 C839 C 1.17335 0.57304 0.57391
 C840 C 0.86830 0.44163 0.55835
 H841 H 0.88461 0.44726 0.55265
 C842 C 0.82653 0.42640 0.57383
 C843 C 0.94164 0.55827 0.63108
 H844 H 0.94720 0.55264 0.61477
 C845 C 0.92661 0.57352 0.67291
 C846 C 1.05833 0.44078 0.63089
 H847 H 1.05266 0.44641 0.61463
 C848 C 1.07370 0.42554 0.67260
 C849 C 1.13118 0.44071 0.55802
 H850 H 1.11481 0.44634 0.55249
 C851 C 1.17315 0.42547 0.57297
 C852 C 0.86866 0.55840 0.55836
 H853 H 0.88500 0.55277 0.55275
 C854 C 0.82676 0.57364 0.57357
 C855 C 0.94174 0.63108 0.55827
 H856 H 0.94733 0.61474 0.55269
 C857 C 0.92658 0.67299 0.57337
 C858 C 1.05795 0.36801 0.55811
 H859 H 1.05235 0.38435 0.55254
 C860 C 1.07315 0.32611 0.57320
 O861 O 1.08089 0.47761 0.38835
 O862 O 1.10704 0.47752 0.36226
 C863 C 1.08876 0.46994 0.37016
 C864 C 1.07682 0.45163 0.35841
 C865 C 1.08436 0.44390 0.33754
 H866 H 1.09842 0.45208 0.32949
 O867 O 0.91898 0.52186 0.38840
 O868 O 0.89289 0.52200 0.36226
 C869 C 0.91115 0.52958 0.37021
 C870 C 0.92315 0.54790 0.35853
 C871 C 0.91567 0.55575 0.33766
 H872 H 0.90123 0.54804 0.32982
 O873 O 0.97848 0.61128 0.41919
 O874 O 0.97849 0.63755 0.39325
 C875 C 0.97084 0.62957 0.41142
 C876 C 0.95253 0.64133 0.42340
 C877 C 0.94492 0.66237 0.41608
 H878 H 0.95280 0.67027 0.40179
 O879 O 1.02163 0.38797 0.41878
 O880 O 1.02153 0.36176 0.39278
 C881 C 1.02922 0.36968 0.41096
 C882 C 1.04752 0.35786 0.42288
 C883 C 1.05531 0.33695 0.41534
 H884 H 1.04756 0.32917 0.40092
 O885 O 1.11127 0.41833 0.47789
 O886 O 1.13745 0.39220 0.47788
 C887 C 1.12954 0.41044 0.47026
 C888 C 1.14135 0.42236 0.45199
 C889 C 1.16236 0.41487 0.44438
 H890 H 1.17043 0.40083 0.45257
 O891 O 0.88840 0.58073 0.47814
 O892 O 0.86223 0.60687 0.47813
 C893 C 0.87014 0.58863 0.47051
 C894 C 0.85835 0.57674 0.45222
 C895 C 0.83732 0.58419 0.44466
 H896 H 0.82921 0.59817 0.45292
 O897 O 1.02215 0.58057 0.38842
 O898 O 1.02222 0.60669 0.36233
 C899 C 1.02983 0.58843 0.37022
 C900 C 1.04816 0.57645 0.35848
 C901 C 1.05596 0.58395 0.33761
 H902 H 1.04820 0.59839 0.32980
 O903 O 0.97797 0.41889 0.38823
 O904 O 0.97780 0.39283 0.36209
 C905 C 0.97026 0.41109 0.37003
 C906 C 0.95199 0.42316 0.35830
 C907 C 0.94437 0.41586 0.33730
 H908 H 0.95220 0.40151 0.32941
 O909 O 1.11169 0.52119 0.41909
 O910 O 1.13797 0.52113 0.39312
 C911 C 1.13000 0.52877 0.41131
 C912 C 1.14182 0.54703 0.42326
 C913 C 1.16284 0.55461 0.41583
 H914 H 1.17092 0.54639 0.40183
 O915 O 0.88823 0.47813 0.41897
 O916 O 0.86200 0.47818 0.39297
 C917 C 0.86995 0.47051 0.41114
 C918 C 0.85817 0.45219 0.42306
 C919 C 0.83725 0.44442 0.41552
 H920 H 0.82945 0.45216 0.40110
 O921 O 1.08137 0.61098 0.47813
 O922 O 1.10753 0.63709 0.47808
 C923 C 1.08927 0.62920 0.47047
 C924 C 1.07734 0.64097 0.45218
 C925 C 1.08481 0.66194 0.44456
 H926 H 1.09883 0.67002 0.45278
 O927 O 0.91879 0.38852 0.47820
 O928 O 0.89266 0.36238 0.47812
 C929 C 0.91094 0.37029 0.47054
 C930 C 0.92292 0.35851 0.45228
 C931 C 0.91562 0.33743 0.44484
 H932 H 0.90169 0.32928 0.45318
 O933 O 0.91896 0.47814 0.38834
 O934 O 0.89288 0.47822 0.36219
 C935 C 0.91111 0.47054 0.37011
 C936 C 0.92305 0.45222 0.35835
 C937 C 0.91568 0.44469 0.33735
 H938 H 0.90173 0.45301 0.32923
 O939 O 1.08105 0.52134 0.38837
 O940 O 1.10720 0.52129 0.36227
 C941 C 1.08896 0.52899 0.37019
 C942 C 1.07710 0.54740 0.35849
 C943 C 1.08465 0.55513 0.33762
 H944 H 1.09869 0.54690 0.32954
 O945 O 0.97789 0.38833 0.41899
 O946 O 0.97771 0.36210 0.39302
 C947 C 0.97015 0.37010 0.41123
 C948 C 0.95187 0.35840 0.42329
 C949 C 0.94430 0.33732 0.41609
 H950 H 0.95216 0.32936 0.40181
 O951 O 1.02225 0.61117 0.41914
 O952 O 1.02230 0.63743 0.39319
 C953 C 1.02994 0.62942 0.41135
 C954 C 1.04831 0.64111 0.42330
 C955 C 1.05603 0.66208 0.41591
 H956 H 1.04820 0.66998 0.40159
 O957 O 0.88804 0.41919 0.47813
 O958 O 0.86177 0.39320 0.47805
 C959 C 0.86979 0.41139 0.47043
 C960 C 0.85811 0.42329 0.45205
 C961 C 0.83719 0.41578 0.44428
 H962 H 0.82906 0.40177 0.45247
 O963 O 1.11198 0.58018 0.47817
 O964 O 1.13830 0.60613 0.47813
 C965 C 1.13028 0.58794 0.47052
 C966 C 1.14199 0.57594 0.45223
 C967 C 1.16300 0.58329 0.44455
 H968 H 1.17092 0.59763 0.45236
 O969 O 1.02173 0.41872 0.38823
 O970 O 1.02164 0.39266 0.36208
 C971 C 1.02936 0.41084 0.37001
 C972 C 1.04776 0.42272 0.35831
 C973 C 1.05556 0.41522 0.33743
 H974 H 1.04776 0.40084 0.32958
 O975 O 0.97837 0.58065 0.38851
 O976 O 0.97838 0.60678 0.36243
 C977 C 0.97070 0.58857 0.37034
 C978 C 0.95227 0.57675 0.35862
 C979 C 0.94456 0.58433 0.33776
 H980 H 0.95283 0.59833 0.32971
 O981 O 0.88827 0.52184 0.41904
 O982 O 0.86202 0.52195 0.39306
 C983 C 0.86999 0.52953 0.41126
 C984 C 0.85825 0.54782 0.42326
 C985 C 0.83722 0.55553 0.41592
 H986 H 0.82932 0.54774 0.40159
 O987 O 1.11157 0.47747 0.41901
 O988 O 1.13786 0.47738 0.39305
 C989 C 1.12984 0.46976 0.41121
 C990 C 1.14153 0.45139 0.42314
 C991 C 1.16252 0.44365 0.41576
 H992 H 1.17045 0.45147 0.40145
 O993 O 1.08051 0.38770 0.47787
 O994 O 1.10657 0.36145 0.47785
 C995 C 1.08835 0.36945 0.47021
 C996 C 1.07645 0.35778 0.45186
 C997 C 1.08398 0.33687 0.44410
 H998 H 1.09800 0.32874 0.45229
 O999 O 0.91925 0.61127 0.47815
 O1000 O 0.89322 0.63755 0.47813
 C1001 C 0.91146 0.62955 0.47052
 C1002 C 0.92347 0.64128 0.45227
 C1003 C 0.91612 0.66232 0.44472
 H1004 H 0.90212 0.67047 0.45295
 Cu1005 Cu 1.09368 0.49941 0.40631
 Cu1006 Cu 1.12515 0.49932 0.37506
 Cu1007 Cu 0.90622 0.49998 0.40629
 Cu1008 Cu 0.87482 0.50010 0.37500
 Cu1009 Cu 1.09406 0.59301 0.49996
 Cu1010 Cu 1.12555 0.62427 0.49995
 Cu1011 Cu 1.09326 0.40564 0.49970
 Cu1012 Cu 1.12461 0.37418 0.49970
 Cu1013 Cu 0.90641 0.59339 0.49996
 Cu1014 Cu 0.87508 0.62486 0.49996
 Cu1015 Cu 0.90596 0.40642 0.50001
 Cu1016 Cu 0.87449 0.37515 0.49991
 Cu1017 Cu 1.00032 0.59330 0.40641
 Cu1018 Cu 1.00035 0.62474 0.37518
 Cu1019 Cu 0.99982 0.40609 0.40616
 Cu1020 Cu 0.99964 0.37471 0.37487
 C1021 C 1.05838 0.44106 0.36854
 H1022 H 1.05267 0.44674 0.38479
 C1023 C 1.07386 0.42570 0.32692
 C1024 C 0.94159 0.55840 0.36876
 H1025 H 0.94725 0.55265 0.38499
 C1026 C 0.92627 0.57396 0.32715
 C1027 C 0.94182 0.63103 0.44164
 H1028 H 0.94739 0.61467 0.44718
 C1029 C 0.92672 0.67300 0.42663
 C1030 C 1.05808 0.36802 0.44127
 H1031 H 1.05238 0.38429 0.44697
 C1032 C 1.07354 0.32633 0.42584
 C1033 C 1.13119 0.44076 0.44140
 H1034 H 1.11486 0.44643 0.44698
 C1035 C 1.17308 0.42541 0.42627
 C1036 C 0.86856 0.55841 0.44155
 H1037 H 0.88491 0.55276 0.44710
 C1038 C 0.82663 0.57370 0.42652
 C1039 C 1.05872 0.55804 0.36866
 H1040 H 1.05300 0.55237 0.38490
 C1041 C 1.07420 0.57340 0.32704
 C1042 C 0.94135 0.44148 0.36858
 H1043 H 0.94694 0.44700 0.38491
 C1044 C 0.92623 0.42653 0.32668
 C1045 C 1.13164 0.55766 0.44161
 H1046 H 1.11529 0.55210 0.44724
 C1047 C 1.17356 0.57274 0.42635
 C1048 C 0.86835 0.44164 0.44146
 H1049 H 0.88463 0.44733 0.44717
 C1050 C 0.82663 0.42621 0.42602
 C1051 C 1.05895 0.63080 0.44157
 H1052 H 1.05329 0.61449 0.44716
 C1053 C 1.07426 0.67263 0.42644
 C1054 C 0.94119 0.36876 0.44152
 H1055 H 0.94673 0.38516 0.44698
 C1056 C 0.92620 0.32669 0.42677
 O1057 O 0.47762 0.91928 0.38856
 O1058 O 0.47744 0.89327 0.36236
 C1059 C 0.46993 0.91154 0.37032
 C1060 C 0.45173 0.92369 0.35858
 C1061 C 0.44408 0.91641 0.33758
 H1062 H 0.45184 0.90200 0.32972
 O1063 O 0.52261 1.08114 0.38869
 O1064 O 0.52282 1.10712 0.36246
 C1065 C 0.53032 1.08886 0.37044
 C1066 C 0.54852 1.07669 0.35871
 C1067 C 0.55620 1.08396 0.33772
 H1068 H 0.54847 1.09837 0.32984
 O1069 O 0.38824 0.97917 0.41911
 O1070 O 0.36207 0.97936 0.39304
 C1071 C 0.36994 0.97164 0.41123
 C1072 C 0.35807 0.95334 0.42306
 C1073 C 0.33712 0.94572 0.41547
 H1074 H 0.32911 0.95397 0.40145
 O1075 O 0.61178 1.02119 0.41935
 O1076 O 0.63803 1.02100 0.39335
 C1077 C 0.63011 1.02869 0.41154
 C1078 C 0.64202 1.04690 0.42345
 C1079 C 0.66312 1.05429 0.41609
 H1080 H 0.67121 1.04594 0.40216
 O1081 O 0.41832 0.88909 0.47799
 O1082 O 0.39203 0.86311 0.47801
 C1083 C 0.41034 0.87088 0.47039
 C1084 C 0.42223 0.85900 0.45214
 C1085 C 0.41473 0.83802 0.44460
 H1086 H 0.40069 0.82999 0.45284
 O1087 O 0.58188 1.11144 0.47807
 O1088 O 0.60818 1.13742 0.47804
 C1089 C 0.58988 1.12962 0.47042
 C1090 C 0.57802 1.14146 0.45213
 C1091 C 0.58559 1.16240 0.44450
 H1092 H 0.59966 1.17041 0.45270
 O1093 O 0.41936 1.02263 0.38857
 O1094 O 0.39334 1.02288 0.36236
 C1095 C 0.41163 1.03035 0.37034
 C1096 C 0.42380 1.04852 0.35862
 C1097 C 0.41661 1.05610 0.33756
 H1098 H 0.40226 1.04831 0.32962
 O1099 O 0.58076 0.97772 0.38870
 O1100 O 0.60689 0.97750 0.36257
 C1101 C 0.58858 0.97002 0.37049
 C1102 C 0.57651 0.95181 0.35873
 C1103 C 0.58385 0.94424 0.33773
 H1104 H 0.59787 0.95245 0.32962
 O1105 O 0.52117 0.88822 0.41911
 O1106 O 0.52106 0.86205 0.39307
 C1107 C 0.52873 0.86993 0.41127
 C1108 C 0.54699 0.85807 0.42322
 C1109 C 0.55466 0.83709 0.41576
 H1110 H 0.54686 0.82929 0.40137
 O1111 O 0.47902 1.11221 0.41921
 O1112 O 0.47917 1.13832 0.39311
 C1113 C 0.47146 1.13048 0.41131
 C1114 C 0.45314 1.14236 0.42315
 C1115 C 0.44552 1.16330 0.41558
 H1116 H 0.45379 1.17129 0.40156
 O1117 O 0.38892 1.08218 0.47790
 O1118 O 0.36283 1.10839 0.47785
 C1119 C 0.37070 1.09012 0.47024
 C1120 C 0.35889 1.07822 0.45196
 C1121 C 0.33792 1.08574 0.44431
 H1122 H 0.32986 1.09981 0.45248
 O1123 O 0.61095 0.91844 0.47815
 O1124 O 0.63704 0.89221 0.47821
 C1125 C 0.62920 0.91048 0.47057
 C1126 C 0.64109 0.92235 0.45233
 C1127 C 0.66216 0.91489 0.44486
 H1128 H 0.67021 0.90089 0.45314
 O1129 O 0.47887 1.08139 0.38872
 O1130 O 0.47904 1.10736 0.36249
 C1131 C 0.47129 1.08921 0.37047
 C1132 C 0.45295 1.07732 0.35872
 C1133 C 0.44553 1.08464 0.33766
 H1134 H 0.45394 1.09851 0.32952
 O1135 O 0.52137 0.91896 0.38855
 O1136 O 0.52125 0.89295 0.36235
 C1137 C 0.52898 0.91111 0.37032
 C1138 C 0.54736 0.92301 0.35861
 C1139 C 0.55496 0.91567 0.33761
 H1140 H 0.54703 0.90140 0.32969
 O1141 O 0.61151 0.97749 0.41929
 O1142 O 0.63779 0.97726 0.39331
 C1143 C 0.62975 0.96971 0.41149
 C1144 C 0.64139 0.95135 0.42346
 C1145 C 0.66245 0.94364 0.41621
 H1146 H 0.67045 0.95148 0.40196
 O1147 O 0.38854 1.02290 0.41911
 O1148 O 0.36237 1.02314 0.39305
 C1149 C 0.37035 1.03071 0.41125
 C1150 C 0.35869 1.04914 0.42315
 C1151 C 0.33773 1.05691 0.41574
 H1152 H 0.32980 1.04908 0.40143
 O1153 O 0.41978 1.11271 0.47796
 O1154 O 0.39383 1.13907 0.47791
 C1155 C 0.41204 1.13101 0.47031
 C1156 C 0.42409 1.14265 0.45202
 C1157 C 0.41669 1.16359 0.44420
 H1158 H 0.40229 1.17152 0.45191
 O1159 O 0.58009 0.88792 0.47814
 O1160 O 0.60604 0.86156 0.47820
 C1161 C 0.58786 0.86962 0.47053
 C1162 C 0.57591 0.85794 0.45220
 C1163 C 0.58333 0.83696 0.44453
 H1164 H 0.59731 0.82879 0.45276
 O1165 O 0.58113 1.02143 0.38867
 O1166 O 0.60725 1.02124 0.36253
 C1167 C 0.58905 1.02902 0.37046
 C1168 C 0.57725 1.04744 0.35873
 C1169 C 0.58468 1.05494 0.33774
 H1170 H 0.59859 1.04653 0.32961
 O1171 O 0.41899 0.97892 0.38852
 O1172 O 0.39296 0.97914 0.36231
 C1173 C 0.41113 0.97134 0.37028
 C1174 C 0.42296 0.95292 0.35857
 C1175 C 0.41556 0.94540 0.33757
 H1176 H 0.40166 0.95378 0.32942
 O1177 O 0.52279 1.11191 0.41923
 O1178 O 0.52300 1.13804 0.39315
 C1179 C 0.53058 1.13008 0.41136
 C1180 C 0.54898 1.14172 0.42327
 C1181 C 0.55679 1.16264 0.41586
 H1182 H 0.54898 1.17056 0.40154
 O1183 O 0.47742 0.88854 0.41911
 O1184 O 0.47724 0.86236 0.39309
 C1185 C 0.46965 0.87035 0.41128
 C1186 C 0.45126 0.85872 0.42324
 C1187 C 0.44351 0.83774 0.41592
 H1188 H 0.45133 0.82979 0.40162
 O1189 O 0.61225 1.08038 0.47816
 O1190 O 0.63869 1.10621 0.47813
 C1191 C 0.63060 1.08804 0.47054
 C1192 C 0.64228 1.07592 0.45232
 C1193 C 0.66339 1.08308 0.44469
 H1194 H 0.67140 1.09737 0.45249
 O1195 O 0.38779 0.92000 0.47789
 O1196 O 0.36136 0.89416 0.47789
 C1197 C 0.36946 0.91230 0.47024
 C1198 C 0.35782 0.92432 0.45192
 C1199 C 0.33687 0.91693 0.44408
 H1200 H 0.32894 0.90254 0.45179
 Cu1201 Cu 0.49941 0.90635 0.40645
 Cu1202 Cu 0.49923 0.87503 0.37509
 Cu1203 Cu 0.50081 1.09407 0.40658
 Cu1204 Cu 0.50102 1.12533 0.37518
 Cu1205 Cu 0.40639 1.00089 0.40644
 Cu1206 Cu 0.37506 1.00116 0.37507
 Cu1207 Cu 0.59368 0.99948 0.40660
 Cu1208 Cu 0.62512 0.99923 0.37532
 C1209 C 0.44119 0.94209 0.36883
 H1210 H 0.44679 0.94760 0.38515
 C1211 C 0.42602 0.92717 0.32693
 C1212 C 0.55902 1.05829 0.36897
 H1213 H 0.55339 1.05279 0.38530
 C1214 C 0.57426 1.07318 0.32710
 C1215 C 0.36816 0.94267 0.44142
 H1216 H 0.38446 0.94826 0.44717
 C1217 C 0.32639 0.92752 0.42586
 C1218 C 0.63184 1.05768 0.44171
 H1219 H 0.61543 1.05227 0.44729
 C1220 C 0.67394 1.07237 0.42659
 C1221 C 0.44064 0.86910 0.44149
 H1222 H 0.44633 0.88541 0.44702
 C1223 C 0.42526 0.82725 0.42650
 C1224 C 0.55958 1.13138 0.44154
 H1225 H 0.55385 1.11510 0.44714
 C1226 C 0.57507 1.17313 0.42638
 C1227 C 0.44211 1.05912 0.36895
 H1228 H 0.44755 1.05357 0.38533
 C1229 C 0.42738 1.07414 0.32695
 C1230 C 0.55812 0.94122 0.36893
 H1231 H 0.55257 0.94678 0.38526
 C1232 C 0.57319 0.92618 0.32703
 C1233 C 0.55760 0.86824 0.44157
 H1234 H 0.55199 0.88456 0.44721
 C1235 C 0.57283 0.82641 0.42631
 C1236 C 0.44245 1.13229 0.44151
 H1237 H 0.44804 1.11600 0.44724
 C1238 C 0.42730 1.17404 0.42597
 C1239 C 0.36903 1.05977 0.44140
 H1240 H 0.38534 1.05407 0.44701
 C1241 C 0.32719 1.07519 0.42622
 C1242 C 0.63096 0.94072 0.44166
 H1243 H 0.61459 0.94637 0.44715
 C1244 C 0.67297 0.92544 0.42682
 O1245 O 0.52112 0.91932 0.61137
 O1246 O 0.52099 0.89332 0.63756
 C1247 C 0.52875 0.91146 0.62958
 C1248 C 0.54721 0.92330 0.64124
 C1249 C 0.55489 0.91585 0.66218
 H1250 H 0.54696 0.90157 0.67008
 O1251 O 0.47855 1.08138 0.61119
 O1252 O 0.47870 1.10743 0.63735
 C1253 C 0.47093 1.08928 0.62940
 C1254 C 0.45247 1.07750 0.64110
 C1255 C 0.44485 1.08501 0.66202
 H1256 H 0.45321 1.09893 0.67013
 O1257 O 0.38833 1.02302 0.58049
 O1258 O 0.36201 1.02326 0.60641
 C1259 C 0.37007 1.03081 0.58824
 C1260 C 0.35844 1.04916 0.57623
 C1261 C 0.33737 1.05684 0.58346
 H1262 H 0.32937 1.04901 0.59772
 O1263 O 0.61151 0.97778 0.58052
 O1264 O 0.63774 0.97752 0.60653
 C1265 C 0.62973 0.96998 0.58833
 C1266 C 0.64136 0.95160 0.57637
 C1267 C 0.66241 0.94390 0.58364
 H1268 H 0.67042 0.95176 0.59787
 O1269 O 0.57995 0.88809 0.52178
 O1270 O 0.60589 0.86172 0.52188
 C1271 C 0.58768 0.86981 0.52947
 C1272 C 0.57565 0.85819 0.54778
 C1273 C 0.58299 0.83718 0.55544
 H1274 H 0.59695 0.82897 0.54722
 O1275 O 0.41971 1.11267 0.52160
 O1276 O 0.39377 1.13903 0.52162
 C1277 C 0.41195 1.13095 0.52926
 C1278 C 0.42396 1.14258 0.54760
 C1279 C 0.41658 1.16354 0.55539
 H1280 H 0.40223 1.17151 0.54762
 O1281 O 0.41867 0.97913 0.61126
 O1282 O 0.39251 0.97933 0.63734
 C1283 C 0.41073 0.97156 0.62946
 C1284 C 0.42254 0.95316 0.64124
 C1285 C 0.41502 0.94561 0.66219
 H1286 H 0.40105 0.95396 0.67025
 O1287 O 0.58106 1.02167 0.61118
 O1288 O 0.60713 1.02144 0.63735
 C1289 C 0.58894 1.02923 0.62941
 C1290 C 0.57711 1.04762 0.64115
 C1291 C 0.58460 1.05519 0.66209
 H1292 H 0.59855 1.04685 0.67018
 O1293 O 0.47712 0.88892 0.58083
 O1294 O 0.47692 0.86275 0.60686
 C1295 C 0.46934 0.87073 0.58866
 C1296 C 0.45095 0.85909 0.57671
 C1297 C 0.44310 0.83819 0.58414
 H1298 H 0.45083 0.83030 0.59853
 O1299 O 0.52253 1.11177 0.58060
 O1300 O 0.52272 1.13797 0.60660
 C1301 C 0.53030 1.12997 0.58841
 C1302 C 0.54868 1.14161 0.57645
 C1303 C 0.55642 1.16259 0.58378
 H1304 H 0.54859 1.17054 0.59809
 O1305 O 0.38784 0.92020 0.52153
 O1306 O 0.36141 0.89436 0.52157
 C1307 C 0.36950 0.91253 0.52916
 C1308 C 0.35781 0.92456 0.54744
 C1309 C 0.33679 0.91722 0.55509
 H1310 H 0.32862 0.90326 0.54687
 O1311 O 0.61229 1.08054 0.52178
 O1312 O 0.63869 1.10641 0.52181
 C1313 C 0.63060 1.08827 0.52945
 C1314 C 0.64223 1.07631 0.54781
 C1315 C 0.66312 1.08381 0.55567
 H1316 H 0.67126 1.09785 0.54755
 O1317 O 0.52233 1.08112 0.61127
 O1318 O 0.52252 1.10717 0.63742
 C1319 C 0.53004 1.08890 0.62949
 C1320 C 0.54829 1.07679 0.64122
 C1321 C 0.55603 1.08415 0.66216
 H1322 H 0.54830 1.09856 0.67003
 O1323 O 0.47734 0.91962 0.61144
 O1324 O 0.47714 0.89361 0.63764
 C1325 C 0.46963 0.91187 0.62967
 C1326 C 0.45136 0.92400 0.64137
 C1327 C 0.44360 0.91668 0.66232
 H1328 H 0.45133 0.90227 0.67020
 O1329 O 0.61191 1.02150 0.58067
 O1330 O 0.63810 1.02129 0.60671
 C1331 C 0.63021 1.02902 0.58854
 C1332 C 0.64208 1.04732 0.57670
 C1333 C 0.66297 1.05508 0.58434
 H1334 H 0.67072 1.04730 0.59877
 O1335 O 0.38805 0.97931 0.58054
 O1336 O 0.36174 0.97949 0.60648
 C1337 C 0.36971 0.97179 0.58832
 C1338 C 0.35787 0.95353 0.57636
 C1339 C 0.33685 0.94592 0.58379
 H1340 H 0.32900 0.95375 0.59814
 O1341 O 0.58168 1.11134 0.52168
 O1342 O 0.60795 1.13735 0.52171
 C1343 C 0.58963 1.12954 0.52931
 C1344 C 0.57772 1.14137 0.54756
 C1345 C 0.58520 1.16236 0.55512
 H1346 H 0.59923 1.17040 0.54688
 O1347 O 0.41824 0.88919 0.52164
 O1348 O 0.39195 0.86321 0.52169
 C1349 C 0.41024 0.87103 0.52933
 C1350 C 0.42204 0.85926 0.54770
 C1351 C 0.41444 0.83835 0.55536
 H1352 H 0.40041 0.83031 0.54712
 O1353 O 0.58077 0.97796 0.61114
 O1354 O 0.60685 0.97770 0.63729
 C1355 C 0.58855 0.97023 0.62935
 C1356 C 0.57646 0.95200 0.64109
 C1357 C 0.58387 0.94433 0.66202
 H1358 H 0.59795 0.95246 0.67009
 O1359 O 0.41895 1.02283 0.61121
 O1360 O 0.39279 1.02310 0.63730
 C1361 C 0.41112 1.03057 0.62940
 C1362 C 0.42322 1.04880 0.64113
 C1363 C 0.41582 1.05657 0.66206
 H1364 H 0.40137 1.04889 0.66991
 O1365 O 0.47877 1.11209 0.58060
 O1366 O 0.47891 1.13827 0.60662
 C1367 C 0.47122 1.13038 0.58843
 C1368 C 0.45293 1.14226 0.57654
 C1369 C 0.44534 1.16323 0.58407
 H1370 H 0.45359 1.17123 0.59808
 O1371 O 0.52088 0.88856 0.58083
 O1372 O 0.52074 0.86240 0.60687
 C1373 C 0.52842 0.87027 0.58867
 C1374 C 0.54667 0.85837 0.57672
 C1375 C 0.55426 0.83736 0.58416
 H1376 H 0.54641 0.82957 0.59852
 O1377 O 0.61092 0.91850 0.52175
 O1378 O 0.63700 0.89227 0.52184
 C1379 C 0.62916 0.91057 0.52939
 C1380 C 0.64104 0.92251 0.54759
 C1381 C 0.66210 0.91507 0.55507
 H1382 H 0.67014 0.90103 0.54683
 O1383 O 0.38886 1.08214 0.52152
 O1384 O 0.36276 1.10835 0.52152
 C1385 C 0.37060 1.09007 0.52913
 C1386 C 0.35872 1.07816 0.54735
 C1387 C 0.33765 1.08559 0.55481
 H1388 H 0.32959 1.09959 0.54654
 Cu1389 Cu 0.49913 0.90671 0.59351
 Cu1390 Cu 0.49893 0.87540 0.62486
 Cu1391 Cu 0.50054 1.09397 0.59331
 Cu1392 Cu 0.50073 1.12534 0.62462
 Cu1393 Cu 0.40568 0.90720 0.49975
 Cu1394 Cu 0.37404 0.87611 0.49979
 Cu1395 Cu 0.59287 0.90586 0.49994
 Cu1396 Cu 0.62410 0.87429 0.50005
 Cu1397 Cu 0.40692 1.09481 0.49975
 Cu1398 Cu 0.37568 1.12636 0.49973
 Cu1399 Cu 0.59439 1.09334 0.49992
 Cu1400 Cu 0.62603 1.12445 0.49992
 Cu1401 Cu 0.40612 1.00105 0.59328
 Cu1402 Cu 0.37463 1.00132 0.62450
 Cu1403 Cu 0.59371 0.99975 0.59326
 Cu1404 Cu 0.62508 0.99945 0.62460
 C1405 C 0.55798 0.94151 0.63094
 H1406 H 0.55237 0.94715 0.61466
 C1407 C 0.57321 0.92626 0.67270
 C1408 C 0.44167 1.05925 0.63090
 H1409 H 0.44727 1.05356 0.61463
 C1410 C 0.42654 1.07467 0.67263
 C1411 C 0.36887 1.05979 0.55803
 H1412 H 0.38525 1.05416 0.55256
 C1413 C 0.32684 1.07504 0.57285
 C1414 C 0.63092 0.94092 0.55821
 H1415 H 0.61455 0.94656 0.55271
 C1416 C 0.67292 0.92565 0.57308
 C1417 C 0.55735 0.86854 0.55839
 H1418 H 0.55180 0.88488 0.55276
 C1419 C 0.57242 0.82665 0.57362
 C1420 C 0.44227 1.13219 0.55817
 H1421 H 0.44784 1.11588 0.55247
 C1422 C 0.42717 1.17400 0.57362
 C1423 C 0.44085 0.94238 0.63108
 H1424 H 0.44654 0.94791 0.61479
 C1425 C 0.42544 0.92738 0.67286
 C1426 C 0.55881 1.05840 0.63096
 H1427 H 0.55314 1.05284 0.61467
 C1428 C 0.57418 1.07345 0.67272
 C1429 C 0.44044 0.86937 0.55835
 H1430 H 0.44620 0.88563 0.55272
 C1431 C 0.42485 0.82768 0.57357
 C1432 C 0.55931 1.13125 0.55820
 H1433 H 0.55364 1.11493 0.55265
 C1434 C 0.57466 1.17310 0.57322
 C1435 C 0.36811 0.94287 0.55805
 H1436 H 0.38447 0.94842 0.55244
 C1437 C 0.32619 0.92776 0.57326
 C1438 C 0.63196 1.05793 0.55830
 H1439 H 0.61570 1.05225 0.55253
 C1440 C 0.67362 1.07333 0.57393
 O1441 O 0.58055 0.52140 1.11208
 O1442 O 0.60654 0.52132 1.13832
 C1443 C 0.58835 0.52903 1.13032
 C1444 C 0.57638 0.54740 1.14197
 C1445 C 0.58377 0.55512 1.16291
 H1446 H 0.59811 0.54728 1.17083
 O1447 O 0.41812 0.47852 1.11141
 O1448 O 0.39194 0.47866 1.13748
 C1449 C 0.41018 0.47093 1.12961
 C1450 C 0.42203 0.45256 1.14139
 C1451 C 0.41448 0.44497 1.16231
 H1452 H 0.40045 0.45326 1.17034
 O1453 O 0.52184 0.61124 1.08097
 O1454 O 0.52186 0.63747 1.10695
 C1455 C 0.52954 0.62947 1.08880
 C1456 C 0.54795 0.64115 1.07693
 C1457 C 0.55552 0.66217 1.08428
 H1458 H 0.54718 0.67035 1.09816
 O1459 O 0.47719 0.38874 1.08107
 O1460 O 0.47691 0.36247 1.10701
 C1461 C 0.46942 0.37050 1.08879
 C1462 C 0.45116 0.35883 1.07668
 C1463 C 0.44357 0.33773 1.08382
 H1464 H 0.45141 0.32975 1.09809
 O1465 O 0.61192 0.58025 1.02250
 O1466 O 0.63824 0.60621 1.02260
 C1467 C 0.63018 0.58803 1.03021
 C1468 C 0.64180 0.57606 1.04858
 C1469 C 0.66275 0.58346 1.05640
 H1470 H 0.67070 0.59780 1.04864
 O1471 O 0.38750 0.41975 1.02167
 O1472 O 0.36123 0.39376 1.02162
 C1473 C 0.36920 0.41195 1.02927
 C1474 C 0.35743 0.42386 1.04759
 C1475 C 0.33649 0.41633 1.05531
 H1476 H 0.32840 0.40230 1.04713
 O1477 O 0.47782 0.58081 1.11147
 O1478 O 0.47783 0.60690 1.13759
 C1479 C 0.47013 0.58872 1.12965
 C1480 C 0.45167 0.57693 1.14133
 C1481 C 0.44401 0.58446 1.16223
 H1482 H 0.45234 0.59840 1.17032
 O1483 O 0.52095 0.41906 1.11202
 O1484 O 0.52073 0.39296 1.13813
 C1485 C 0.52851 0.41114 1.13024
 C1486 C 0.54693 0.42294 1.14200
 C1487 C 0.55470 0.41533 1.16285
 H1488 H 0.54683 0.40096 1.17065
 O1489 O 0.61120 0.47760 1.08153
 O1490 O 0.63738 0.47746 1.10759
 C1491 C 0.62944 0.46988 1.08938
 C1492 C 0.64117 0.45156 1.07742
 C1493 C 0.66219 0.44385 1.08476
 H1494 H 0.67011 0.45166 1.09908
 O1495 O 0.38770 0.52239 1.08067
 O1496 O 0.36137 0.52258 1.10658
 C1497 C 0.36944 0.53016 1.08842
 C1498 C 0.35782 0.54855 1.07645
 C1499 C 0.33687 0.55642 1.08384
 H1500 H 0.32893 0.54868 1.09818
 O1501 O 0.41914 0.61194 1.02177
 O1502 O 0.39317 0.63828 1.02166
 C1503 C 0.41134 0.63024 1.02936
 C1504 C 0.42329 0.64190 1.04771
 C1505 C 0.41588 0.66287 1.05545
 H1506 H 0.40153 0.67082 1.04765
 O1507 O 0.58018 0.38813 1.02245
 O1508 O 0.60617 0.36181 1.02260
 C1509 C 0.58794 0.36987 1.03015
 C1510 C 0.57591 0.35822 1.04845
 C1511 C 0.58334 0.33727 1.05618
 H1512 H 0.59737 0.32912 1.04802
 O1513 O 0.41826 0.52222 1.11144
 O1514 O 0.39209 0.52243 1.13751
 C1515 C 0.41040 0.52994 1.12963
 C1516 C 0.42246 0.54819 1.14136
 C1517 C 0.41502 0.55599 1.16227
 H1518 H 0.40056 0.54830 1.17011
 O1519 O 0.58038 0.47770 1.11206
 O1520 O 0.60641 0.47755 1.13827
 C1521 C 0.58816 0.47000 1.13029
 C1522 C 0.57612 0.45170 1.14197
 C1523 C 0.58362 0.44388 1.16282
 H1524 H 0.59773 0.45197 1.17089
 O1525 O 0.52095 0.38842 1.08137
 O1526 O 0.52072 0.36217 1.10732
 C1527 C 0.52849 0.37011 1.08919
 C1528 C 0.54685 0.35829 1.07731
 C1529 C 0.55454 0.33734 1.08482
 H1530 H 0.54670 0.32953 1.09918
 O1531 O 0.47807 0.61151 1.08086
 O1532 O 0.47808 0.63772 1.10686
 C1533 C 0.47046 0.62980 1.08865
 C1534 C 0.45220 0.64164 1.07671
 C1535 C 0.44457 0.66261 1.08419
 H1536 H 0.45279 0.67063 1.09822
 O1537 O 0.38828 0.58143 1.02169
 O1538 O 0.36216 0.60762 1.02158
 C1539 C 0.37001 0.58937 1.02926
 C1540 C 0.35813 0.57753 1.04754
 C1541 C 0.33717 0.58514 1.05516
 H1542 H 0.32917 0.59921 1.04695
 O1543 O 0.61106 0.41864 1.02250
 O1544 O 0.63718 0.39245 1.02263
 C1545 C 0.62928 0.41072 1.03019
 C1546 C 0.64106 0.42262 1.04848
 C1547 C 0.66208 0.41517 1.05605
 H1548 H 0.67019 0.40119 1.04778
 O1549 O 0.47716 0.41930 1.11182
 O1550 O 0.47687 0.39321 1.13792
 C1551 C 0.46935 0.41148 1.12998
 C1552 C 0.45099 0.42352 1.14161
 C1553 C 0.44318 0.41615 1.16252
 H1554 H 0.45094 0.40178 1.17043
 O1555 O 0.52160 0.58063 1.11169
 O1556 O 0.52163 0.60674 1.13779
 C1557 C 0.52922 0.58847 1.12992
 C1558 C 0.54748 0.57648 1.14174
 C1559 C 0.55508 0.58395 1.16267
 H1560 H 0.54686 0.59800 1.17070
 O1561 O 0.38745 0.47867 1.08073
 O1562 O 0.36113 0.47879 1.10665
 C1563 C 0.36913 0.47110 1.08850
 C1564 C 0.35737 0.45280 1.07655
 C1565 C 0.33643 0.44501 1.08404
 H1566 H 0.32859 0.45276 1.09844
 O1567 O 0.61135 0.52130 1.08154
 O1568 O 0.63749 0.52122 1.10763
 C1569 C 0.62962 0.52888 1.08942
 C1570 C 0.64149 0.54716 1.07755
 C1571 C 0.66245 0.55478 1.08512
 H1572 H 0.67045 0.54657 1.09917
 O1573 O 0.41825 0.38906 1.02177
 O1574 O 0.39211 0.36292 1.02170
 C1575 C 0.41035 0.37082 1.02937
 C1576 C 0.42226 0.35901 1.04766
 C1577 C 0.41493 0.33791 1.05503
 H1578 H 0.40103 0.32978 1.04667
 O1579 O 0.58129 0.61104 1.02232
 O1580 O 0.60745 0.63716 1.02243
 C1581 C 0.58915 0.62928 1.02997
 C1582 C 0.57709 0.64109 1.04815
 C1583 C 0.58444 0.66211 1.05576
 H1584 H 0.59884 0.66997 1.04798
 Cu1585 Cu 0.59326 0.49951 1.09419
 Cu1586 Cu 0.62457 0.49937 1.12559
 Cu1587 Cu 0.40550 0.50044 1.09346
 Cu1588 Cu 0.37399 0.50063 1.12466
 Cu1589 Cu 0.49983 0.59343 1.09364
 Cu1590 Cu 0.49986 0.62483 1.12492
 Cu1591 Cu 0.49909 0.40650 1.09398
 Cu1592 Cu 0.49877 0.37508 1.12522
 C1593 C 0.55810 0.55806 1.13164
 H1594 H 0.55252 0.55241 1.11535
 C1595 C 0.57322 0.57339 1.17339
 C1596 C 0.44043 0.44186 1.13129
 H1597 H 0.44615 0.44743 1.11502
 C1598 C 0.42494 0.42678 1.17301
 C1599 C 0.55870 0.63086 1.05873
 H1600 H 0.55313 0.61451 1.05316
 C1601 C 0.57375 0.67279 1.07381
 C1602 C 0.44052 0.36923 1.05845
 H1603 H 0.44607 0.38564 1.05304
 C1604 C 0.42549 0.32713 1.07309
 C1605 C 0.63142 0.55777 1.05914
 H1606 H 0.61512 0.55218 1.05341
 C1607 C 0.67320 0.57293 1.07466
 C1608 C 0.36761 0.44223 1.05819
 H1609 H 0.38390 0.44793 1.05252
 C1610 C 0.32586 0.42678 1.07353
 C1611 C 0.44092 0.55865 1.13115
 H1612 H 0.44655 0.55295 1.11489
 C1613 C 0.42569 0.57412 1.17283
 C1614 C 0.55764 0.44126 1.13181
 H1615 H 0.55196 0.44701 1.11559
 C1616 C 0.57305 0.42569 1.17339
 C1617 C 0.63086 0.44096 1.05914
 H1618 H 0.61451 0.44660 1.05358
 C1619 C 0.67278 0.42567 1.07418
 C1620 C 0.36820 0.55909 1.05816
 H1621 H 0.38450 0.55332 1.05257
 C1622 C 0.32641 0.57471 1.07330
 C1623 C 0.44159 0.63154 1.05832
 H1624 H 0.44720 0.61523 1.05266
 C1625 C 0.42641 0.67335 1.07370
 C1626 C 0.55752 0.36848 1.05900
 H1627 H 0.55190 0.38478 1.05332
 C1628 C 0.57280 0.32671 1.07436
 O1629 O 0.58110 0.47757 0.88919
 O1630 O 0.60731 0.47742 0.86315
 C1631 C 0.58900 0.46987 0.87101
 C1632 C 0.57705 0.45159 0.85924
 C1633 C 0.58456 0.44394 0.83833
 H1634 H 0.59862 0.45214 0.83030
 O1635 O 0.41937 0.52219 0.88831
 O1636 O 0.39335 0.52236 0.86210
 C1637 C 0.41160 0.52991 0.87009
 C1638 C 0.42365 0.54821 0.85843
 C1639 C 0.41624 0.55604 0.83754
 H1640 H 0.40182 0.54832 0.82966
 O1641 O 0.47868 0.61155 0.91940
 O1642 O 0.47892 0.63777 0.89341
 C1643 C 0.47115 0.62985 0.91156
 C1644 C 0.45278 0.64167 0.92338
 C1645 C 0.44519 0.66264 0.91586
 H1646 H 0.45350 0.67068 0.90190
 O1647 O 0.52155 0.38816 0.91957
 O1648 O 0.52157 0.36191 0.89361
 C1649 C 0.52917 0.36986 0.91181
 C1650 C 0.54742 0.35805 0.92384
 C1651 C 0.55517 0.33709 0.91641
 H1652 H 0.54744 0.32926 0.90201
 O1653 O 0.61126 0.41853 0.97887
 O1654 O 0.63737 0.39234 0.97898
 C1655 C 0.62953 0.41059 0.97131
 C1656 C 0.64141 0.42244 0.95306
 C1657 C 0.66244 0.41493 0.94552
 H1658 H 0.67049 0.40091 0.95378
 O1659 O 0.38857 0.58129 0.97805
 O1660 O 0.36242 0.60746 0.97789
 C1661 C 0.37036 0.58919 0.97033
 C1662 C 0.35863 0.57726 0.95202
 C1663 C 0.33757 0.58462 0.94447
 H1664 H 0.32940 0.59856 0.95275
 O1665 O 0.52241 0.58065 0.88890
 O1666 O 0.52269 0.60672 0.86277
 C1667 C 0.53018 0.58844 0.87071
 C1668 C 0.54846 0.57633 0.85903
 C1669 C 0.55613 0.58357 0.83803
 H1670 H 0.54833 0.59792 0.83010
 O1671 O 0.47806 0.41907 0.88877
 O1672 O 0.47801 0.39296 0.86267
 C1673 C 0.47043 0.41125 0.87054
 C1674 C 0.45220 0.42327 0.85872
 C1675 C 0.44460 0.41582 0.83778
 H1676 H 0.45281 0.40175 0.82976
 O1677 O 0.61186 0.52117 0.91992
 O1678 O 0.63818 0.52106 0.89398
 C1679 C 0.63019 0.52873 0.91214
 C1680 C 0.64200 0.54700 0.92408
 C1681 C 0.66302 0.55457 0.91665
 H1682 H 0.67111 0.54631 0.90267
 O1683 O 0.38842 0.47861 0.91887
 O1684 O 0.36228 0.47870 0.89277
 C1685 C 0.37014 0.47104 0.91099
 C1686 C 0.35824 0.45278 0.92287
 C1687 C 0.33730 0.44517 0.91529
 H1688 H 0.32932 0.45337 0.90122
 O1689 O 0.58145 0.61099 0.97871
 O1690 O 0.60762 0.63708 0.97877
 C1691 C 0.58938 0.62920 0.97110
 C1692 C 0.57751 0.64101 0.95279
 C1693 C 0.58497 0.66201 0.94527
 H1694 H 0.59895 0.67009 0.95356
 O1695 O 0.41833 0.38894 0.97814
 O1696 O 0.39217 0.36284 0.97805
 C1697 C 0.41047 0.37070 0.97050
 C1698 C 0.42246 0.35886 0.95228
 C1699 C 0.41499 0.33788 0.94469
 H1700 H 0.40092 0.32985 0.95287
 O1701 O 0.41923 0.47846 0.88833
 O1702 O 0.39324 0.47857 0.86209
 C1703 C 0.41142 0.47084 0.87010
 C1704 C 0.42336 0.45243 0.85845
 C1705 C 0.41597 0.44471 0.83751
 H1706 H 0.40166 0.45258 0.82957
 O1707 O 0.58126 0.52128 0.88917
 O1708 O 0.60744 0.52117 0.86310
 C1709 C 0.58919 0.52887 0.87097
 C1710 C 0.57733 0.54722 0.85918
 C1711 C 0.58475 0.55468 0.83817
 H1712 H 0.59869 0.54631 0.83008
 O1713 O 0.47778 0.38843 0.91942
 O1714 O 0.47774 0.36216 0.89347
 C1715 C 0.47006 0.37020 0.91161
 C1716 C 0.45162 0.35859 0.92351
 C1717 C 0.44390 0.33762 0.91615
 H1718 H 0.45177 0.32966 0.90188
 O1719 O 0.52246 0.61133 0.91954
 O1720 O 0.52274 0.63756 0.89356
 C1721 C 0.53025 0.62955 0.91177
 C1722 C 0.54858 0.64120 0.92381
 C1723 C 0.55629 0.66220 0.91652
 H1724 H 0.54850 0.67015 0.90220
 O1725 O 0.38772 0.41976 0.97801
 O1726 O 0.36141 0.39380 0.97790
 C1727 C 0.36947 0.41197 0.97029
 C1728 C 0.35787 0.42392 0.95189
 C1729 C 0.33692 0.41653 0.94404
 H1730 H 0.32895 0.40220 0.95181
 O1731 O 0.61209 0.58021 0.97886
 O1732 O 0.63842 0.60615 0.97890
 C1733 C 0.63041 0.58796 0.97127
 C1734 C 0.64215 0.57595 0.95301
 C1735 C 0.66317 0.58330 0.94532
 H1736 H 0.67110 0.59764 0.95311
 O1737 O 0.52182 0.41877 0.88888
 O1738 O 0.52183 0.39268 0.86276
 C1739 C 0.52952 0.41087 0.87071
 C1740 C 0.54795 0.42274 0.85905
 C1741 C 0.55573 0.41530 0.83814
 H1742 H 0.54789 0.40097 0.83024
 O1743 O 0.47865 0.58097 0.88867
 O1744 O 0.47889 0.60706 0.86255
 C1745 C 0.47111 0.58888 0.87043
 C1746 C 0.45273 0.57708 0.85863
 C1747 C 0.44509 0.58466 0.83774
 H1748 H 0.45336 0.59868 0.82972
 O1749 O 0.38862 0.52230 0.91892
 O1750 O 0.36245 0.52245 0.89286
 C1751 C 0.37038 0.53003 0.91108
 C1752 C 0.35862 0.54832 0.92306
 C1753 C 0.33756 0.55595 0.91574
 H1754 H 0.32966 0.54811 0.90143
 O1755 O 0.61173 0.47747 0.91990
 O1756 O 0.63807 0.47733 0.89399
 C1757 C 0.63001 0.46974 0.91215
 C1758 C 0.64167 0.45140 0.92415
 C1759 C 0.66269 0.44365 0.91684
 H1760 H 0.67065 0.45145 0.90254
 O1761 O 0.58036 0.38804 0.97881
 O1762 O 0.60635 0.36171 0.97893
 C1763 C 0.58817 0.36974 0.97123
 C1764 C 0.57628 0.35803 0.95288
 C1765 C 0.58377 0.33707 0.94524
 H1766 H 0.59776 0.32894 0.95350
 O1767 O 0.41931 0.61194 0.97814
 O1768 O 0.39332 0.63825 0.97797
 C1769 C 0.41156 0.63021 0.97044
 C1770 C 0.42366 0.64188 0.95218
 C1771 C 0.41629 0.66284 0.94440
 H1772 H 0.40187 0.67077 0.95211
 Cu1773 Cu 0.59386 0.49938 0.90714
 Cu1774 Cu 0.62539 0.49923 0.87594
 Cu1775 Cu 0.40652 0.50038 0.90621
 Cu1776 Cu 0.37521 0.50054 0.87482
 Cu1777 Cu 0.59407 0.59302 1.00059
 Cu1778 Cu 0.62558 0.62426 1.00068
 Cu1779 Cu 0.59311 0.40596 1.00064
 Cu1780 Cu 0.62438 0.37443 1.00080
 Cu1781 Cu 0.40643 0.59403 0.99993
 Cu1782 Cu 0.37514 0.62553 0.99976
 Cu1783 Cu 0.40556 0.40699 0.99990
 Cu1784 Cu 0.37409 0.37572 0.99981
 Cu1785 Cu 0.50053 0.59351 0.90673
 Cu1786 Cu 0.50084 0.62491 0.87546
 Cu1787 Cu 0.49981 0.40622 0.90676
 Cu1788 Cu 0.49978 0.37480 0.87551
 C1789 C 0.55861 0.44102 0.86935
 H1790 H 0.55292 0.44665 0.88562
 C1791 C 0.57403 0.42580 0.82765
 C1792 C 0.44203 0.55871 0.86872
 H1793 H 0.44764 0.55297 0.88498
 C1794 C 0.42685 0.57426 0.82706
 C1795 C 0.44204 0.63154 0.94169
 H1796 H 0.44761 0.61523 0.94738
 C1797 C 0.42694 0.67335 0.92625
 C1798 C 0.55796 0.36827 0.94221
 H1799 H 0.55229 0.38458 0.94782
 C1800 C 0.57335 0.32648 0.92701
 C1801 C 0.63129 0.44082 0.94239
 H1802 H 0.61494 0.44651 0.94792
 C1803 C 0.67322 0.42544 0.92743
 C1804 C 0.36891 0.55897 0.94134
 H1805 H 0.38529 0.55338 0.94688
 C1806 C 0.32690 0.57408 0.92635
 C1807 C 0.55904 0.55801 0.86936
 H1808 H 0.55342 0.55253 0.88570
 C1809 C 0.57426 0.57284 0.82746
 C1810 C 0.44161 0.44172 0.86881
 H1811 H 0.44719 0.44736 0.88510
 C1812 C 0.42649 0.42641 0.82704
 C1813 C 0.63182 0.55766 0.94240
 H1814 H 0.61546 0.55210 0.94802
 C1815 C 0.67373 0.57271 0.92714
 C1816 C 0.36828 0.44219 0.94131
 H1817 H 0.38457 0.44778 0.94706
 C1818 C 0.32651 0.42704 0.92574
 C1819 C 0.55917 0.63085 0.94208
 H1820 H 0.55351 0.61451 0.94760
 C1821 C 0.57447 0.67275 0.92715
 C1822 C 0.44092 0.36897 0.94171
 H1823 H 0.44658 0.38528 0.94728
 C1824 C 0.42560 0.32712 0.92664
 C1825 C 1.09299 1.11380 1.21863
 C1826 C 1.09946 1.09880 1.23542
 C1827 C 1.09754 1.07571 1.23183
 C1828 C 1.08925 1.06764 1.21148
 C1829 C 1.13248 1.13095 1.31044
 C1830 C 1.08469 1.10578 1.19830
 C1831 C 1.10832 1.10718 1.25620
 C1832 C 1.11584 1.11443 1.27345
 C1833 C 1.12476 1.12321 1.29348
 C1834 C 1.08277 1.08259 1.19447
 H1835 H 1.09449 1.13171 1.22120
 H1836 H 1.10248 1.06395 1.24472
 H1837 H 1.08774 1.04971 1.20912
 H1838 H 1.08016 1.11770 1.18542
 C1839 C 1.07477 0.59539 0.73211
 C1840 C 1.09786 0.59709 0.73598
 C1841 C 1.11303 0.59063 0.71931
 C1842 C 1.10517 0.58257 0.69882
 C1843 C 1.12940 0.62966 0.81139
 C1844 C 1.06686 0.58734 0.71160
 C1845 C 1.10607 0.60575 0.75689
 C1846 C 1.11319 0.61314 0.77424
 C1847 C 1.12180 0.62197 0.79437
 C1848 C 1.08199 0.58088 0.69472
 H1849 H 1.06288 0.60032 0.74490
 H1850 H 1.13094 0.59197 0.72210
 H1851 H 1.11723 0.57805 0.68604
 H1852 H 1.04893 0.58600 0.70902
 C1853 C 0.57582 1.09643 0.73194
 C1854 C 0.59895 1.09802 0.73564
 C1855 C 0.61396 1.09145 0.71889
 C1856 C 0.60591 1.08336 0.69848
 C1857 C 0.63111 1.13048 0.81087
 C1858 C 0.56772 1.08836 0.71152
 C1859 C 0.60736 1.10666 0.75649
 C1860 C 0.61464 1.11403 0.77380
 C1861 C 0.62342 1.12281 0.79388
 C1862 C 0.58269 1.08175 0.69454
 H1863 H 0.56405 1.10146 0.74481
 H1864 H 0.63190 1.09270 0.72154
 H1865 H 0.61786 1.07874 0.68563
 H1866 H 0.54977 1.08709 0.70906
 C1867 C 0.59611 0.57501 1.23264
 C1868 C 0.59794 0.59810 1.23627
 C1869 C 0.59156 0.61310 1.21945
 C1870 C 0.58343 0.60507 1.19905
 C1871 C 0.63046 0.63032 1.31145
 C1872 C 0.58799 0.56693 1.21223
 C1873 C 0.60662 0.60649 1.25711
 C1874 C 0.61401 0.61377 1.27441
 C1875 C 0.62280 0.62258 1.29447
 C1876 C 0.58157 0.58189 1.19520
 H1877 H 0.60099 0.56325 1.24557
 H1878 H 0.59301 0.63101 1.22204
 H1879 H 0.57896 0.61700 1.18615
 H1880 H 0.58653 0.54900 1.20984
 C1881 C 0.92500 0.90490 1.23245
 C1882 C 0.90190 0.90311 1.23624
 C1883 C 0.88677 0.90952 1.21953
 C1884 C 0.89468 0.91761 1.19907
 C1885 C 0.87028 0.87014 1.31147
 C1886 C 0.93296 0.91297 1.21198
 C1887 C 0.89365 0.89436 1.25710
 C1888 C 0.88650 0.88688 1.27441
 C1889 C 0.87787 0.87794 1.29449
 C1890 C 0.91787 0.91938 1.19504
 H1891 H 0.93686 0.89999 1.24529
 H1892 H 0.86886 0.90811 1.22225
 H1893 H 0.88266 0.92209 1.18625
 H1894 H 0.95089 0.91437 1.20945
 C1895 C 0.92422 0.40325 0.73218
 C1896 C 0.90108 0.40170 0.73587
 C1897 C 0.88610 0.40820 0.71906
 C1898 C 0.89419 0.41621 0.69864
 C1899 C 0.86875 0.36967 0.81123
 C1900 C 0.93236 0.41124 0.71174
 C1901 C 0.89262 0.39318 0.75675
 C1902 C 0.88529 0.38593 0.77409
 C1903 C 0.87646 0.37726 0.79420
 C1904 C 0.91742 0.41781 0.69474
 H1905 H 0.93596 0.39827 0.74509
 H1906 H 0.86816 0.40697 0.72170
 H1907 H 0.88227 0.42080 0.68576
 H1908 H 0.95032 0.41250 0.70931
 C1909 C 0.42385 0.90431 0.73204
 C1910 C 0.40072 0.90265 0.73575
 C1911 C 0.38569 0.90927 0.71904
 C1912 C 0.39372 0.91745 0.69865
 C1913 C 0.36877 0.86964 0.81086
 C1914 C 0.43192 0.91247 0.71164
 C1915 C 0.39235 0.89386 0.75656
 C1916 C 0.38512 0.88636 0.77383
 C1917 C 0.37641 0.87742 0.79389
 C1918 C 0.41694 0.91909 0.69470
 H1919 H 0.43563 0.89925 0.74488
 H1920 H 0.36776 0.90796 0.72170
 H1921 H 0.38177 0.92209 0.68582
 H1922 H 0.44987 0.91378 0.70918
 C1923 C 0.38510 0.40858 1.21908
 C1924 C 0.40010 0.40205 1.23586
 C1925 C 0.42323 0.40377 1.23222
 C1926 C 0.43134 0.41191 1.21183
 C1927 C 0.36802 0.36925 1.31102
 C1928 C 0.39317 0.41673 1.19870
 C1929 C 0.39168 0.39331 1.25667
 C1930 C 0.38442 0.38586 1.27396
 C1931 C 0.37568 0.37698 1.29402
 C1932 C 0.41639 0.41846 1.19482
 H1933 H 0.36716 0.40723 1.22169
 H1934 H 0.43499 0.39878 1.24511
 H1935 H 0.44930 0.41327 1.20942
 H1936 H 0.38124 0.42132 1.18583
 C1937 C 0.90777 1.11392 0.78111
 C1938 C 0.90105 1.09900 0.76436
 C1939 C 0.90270 1.07588 0.76796
 C1940 C 0.91099 1.06771 0.78827
 C1941 C 0.86786 1.13134 0.68946
 C1942 C 0.91607 1.10580 0.80141
 C1943 C 0.89219 1.10748 0.74362
 C1944 C 0.88465 1.11480 0.72639
 C1945 C 0.87568 1.12362 0.70640
 C1946 C 0.91775 1.08259 0.80524
 H1947 H 0.90647 1.13184 0.77853
 H1948 H 0.89756 1.06418 0.75510
 H1949 H 0.91231 1.04977 0.79065
 H1950 H 0.92081 1.11767 0.81425
 C1951 C 0.90795 0.61395 0.28130
 C1952 C 0.90134 0.59906 0.26448
 C1953 C 0.90299 0.57594 0.26805
 C1954 C 0.91117 0.56773 0.28839
 C1955 C 0.86867 0.63160 0.18946
 C1956 C 0.91614 0.60579 0.30163
 C1957 C 0.89262 0.60758 0.24370
 C1958 C 0.88520 0.61495 0.22644
 C1959 C 0.87637 0.62384 0.20642
 C1960 C 0.91782 0.58258 0.30542
 H1961 H 0.90664 0.63188 0.27875
 H1962 H 0.89794 0.56426 0.25513
 H1963 H 0.91249 0.54979 0.29073
 H1964 H 0.92079 0.61765 0.31452
 C1965 C 0.40965 1.11344 0.28030
 C1966 C 0.40328 1.09828 0.26362
 C1967 C 0.40494 1.07522 0.26753
 C1968 C 0.41287 1.06733 0.28808
 C1969 C 0.37094 1.12972 0.18805
 C1970 C 0.41760 1.10559 0.30084
 C1971 C 0.39472 1.10647 0.24266
 C1972 C 0.38739 1.11358 0.22527
 C1973 C 0.37862 1.12217 0.20510
 C1974 C 0.41926 1.08244 0.30498
 H1975 H 0.40833 1.13132 0.27748
 H1976 H 0.40006 1.06334 0.25472
 H1977 H 0.41419 1.04942 0.29070
 H1978 H 0.42207 1.11764 0.31363
 C1979 C 0.40346 0.57610 0.76799
 C1980 C 0.40167 0.59921 0.76442
 C1981 C 0.40833 0.61415 0.78118
 C1982 C 0.41666 0.60605 0.80148
 C1983 C 0.36813 0.63137 0.68961
 C1984 C 0.41178 0.56795 0.78830
 C1985 C 0.39271 0.60765 0.74370
 C1986 C 0.38508 0.61493 0.72650
 C1987 C 0.37600 0.62369 0.70653
 C1988 C 0.41843 0.58284 0.80530
 H1989 H 0.39838 0.56438 0.75512
 H1990 H 0.40692 0.63207 0.77863
 H1991 H 0.42132 0.61793 0.81435
 H1992 H 0.41317 0.55001 0.79065
 C1993 C 1.07456 0.90329 0.76782
 C1994 C 1.09765 0.90143 0.76396
 C1995 C 1.11284 0.90771 0.78066
 C1996 C 1.10501 0.91576 0.80116
 C1997 C 1.12937 0.86947 0.68831
 C1998 C 1.06668 0.91134 0.78834
 C1999 C 1.10584 0.89287 0.74299
 C2000 C 1.11299 0.88560 0.72558
 C2001 C 1.12168 0.87696 0.70539
 C2002 C 1.08183 0.91765 0.80525
 H2003 H 1.06266 0.89851 0.75499
 H2004 H 1.13074 0.90624 0.77787
 H2005 H 1.11708 0.92016 0.81396
 H2006 H 1.04876 0.91283 0.79092
 C2007 C 1.11381 0.40727 0.28103
 C2008 C 1.09887 0.40080 0.26418
 C2009 C 1.07572 0.40255 0.26776
 C2010 C 1.06754 0.41071 0.28813
 C2011 C 1.13148 0.36851 0.18901
 C2012 C 1.10568 0.41543 0.30138
 C2013 C 1.10737 0.39215 0.24336
 C2014 C 1.11475 0.38482 0.22607
 C2015 C 1.12366 0.37610 0.20600
 C2016 C 1.08245 0.41723 0.30518
 H2017 H 1.13176 0.40588 0.27847
 H2018 H 1.06400 0.39761 0.25482
 H2019 H 1.04958 0.41212 0.29048
 H2020 H 1.11757 0.41999 0.31429
 C2021 C 0.61259 0.90797 0.28061
 C2022 C 0.59744 0.90173 0.26386
 C2023 C 0.57434 0.90359 0.26767
 C2024 C 0.56641 0.91162 0.28818
 C2025 C 0.62937 0.86971 0.18833
 C2026 C 0.60470 0.91600 0.30111
 C2027 C 0.60569 0.89317 0.24291
 C2028 C 0.61289 0.88590 0.22553
 C2029 C 0.62164 0.87724 0.20538
 C2030 C 0.58152 0.91790 0.30514
 H2031 H 0.63050 0.90650 0.27788
 H2032 H 0.56247 0.89882 0.25480
 H2033 H 0.54848 0.91311 0.29071
 H2034 H 0.61674 0.92038 0.31394
 C2035 C 0.57573 0.40302 0.76836
 C2036 C 0.59887 0.40126 0.76472
 C2037 C 0.61386 0.40759 0.78157
 C2038 C 0.60578 0.41562 0.80200
 C2039 C 0.63119 0.36928 0.68931
 C2040 C 0.56761 0.41105 0.78880
 C2041 C 0.60731 0.39274 0.74383
 C2042 C 0.61463 0.38549 0.72648
 C2043 C 0.62346 0.37684 0.70635
 C2044 C 0.58256 0.41744 0.80585
 H2045 H 0.56398 0.39818 0.75541
 H2046 H 0.63180 0.40620 0.77898
 H2047 H 0.61771 0.42008 0.81491
 H2048 H 0.54966 0.41247 0.79119
 C2049 C 1.22037 1.11245 1.09107
 C2050 C 1.23712 1.09732 1.09749
 C2051 C 1.23327 1.07425 1.09579
 C2052 C 1.21272 1.06633 1.08776
 C2053 C 1.31265 1.12920 1.12986
 C2054 C 1.19983 1.10458 1.08303
 C2055 C 1.25808 1.10556 1.10611
 C2056 C 1.27547 1.11275 1.11345
 C2057 C 1.29562 1.12148 1.12222
 C2058 C 1.19575 1.08142 1.08132
 H2059 H 1.22314 1.13034 1.09242
 H2060 H 1.24613 1.06240 1.10071
 H2061 H 1.21015 1.04842 1.08641
 H2062 H 1.18699 1.11660 1.07853
 C2063 C 1.21907 0.59161 0.61400
 C2064 C 1.23598 0.59828 0.59920
 C2065 C 1.23253 0.59654 0.57611
 C2066 C 1.21221 0.58823 0.56784
 C2067 C 1.31082 0.63161 0.63188
 C2068 C 1.19877 0.58330 0.60579
 C2069 C 1.25672 0.60717 0.60777
 C2070 C 1.27393 0.61474 0.61518
 C2071 C 1.29390 0.62375 0.62409
 C2072 C 1.19509 0.58155 0.58260
 H2073 H 1.22152 0.59299 0.63190
 H2074 H 1.24552 0.60163 0.56449
 H2075 H 1.20996 0.58686 0.54993
 H2076 H 1.18579 0.57862 0.61757
 C2077 C 0.73268 1.07522 0.59773
 C2078 C 0.73622 1.09834 0.59951
 C2079 C 0.71939 1.11326 0.59282
 C2080 C 0.69909 1.10513 0.58442
 C2081 C 0.81111 1.13099 0.63276
 C2082 C 0.71237 1.06705 0.58934
 C2083 C 0.75697 1.10684 0.60843
 C2084 C 0.77419 1.11422 0.61599
 C2085 C 0.79418 1.12315 0.62497
 C2086 C 0.69533 1.08192 0.58260
 H2087 H 0.74561 1.06353 0.60285
 H2088 H 0.72191 1.13118 0.59422
 H2089 H 0.68618 1.11700 0.57970
 H2090 H 0.71005 1.04911 0.58792
 C2091 C 0.73252 0.59606 1.07659
 C2092 C 0.73604 0.59791 1.09966
 C2093 C 0.71913 0.59142 1.11454
 C2094 C 0.69876 0.58318 1.10642
 C2095 C 0.81106 0.63103 1.13208
 C2096 C 0.71214 0.58783 1.06842
 C2097 C 0.75683 0.60675 1.10813
 C2098 C 0.77409 0.61428 1.11546
 C2099 C 0.79411 0.62324 1.12431
 C2100 C 0.69501 0.58133 1.08326
 H2101 H 0.74551 0.60102 1.06492
 H2102 H 0.72163 0.59288 1.13243
 H2103 H 0.68579 0.57864 1.11826
 H2104 H 0.70984 0.58637 1.05052
 C2105 C 1.21955 0.88581 0.90849
 C2106 C 1.23633 0.90082 0.90194
 C2107 C 1.23264 0.92391 0.90375
 C2108 C 1.21220 0.93197 0.91198
 C2109 C 1.31160 0.86894 0.86871
 C2110 C 1.19912 0.89382 0.91672
 C2111 C 1.25718 0.89247 0.89308
 C2112 C 1.27449 0.88527 0.88552
 C2113 C 1.29458 0.87658 0.87652
 C2114 C 1.19519 0.91700 0.91851
 H2115 H 1.22219 0.86790 0.90707
 H2116 H 1.24553 0.93569 0.89876
 H2117 H 1.20976 0.94990 0.91339
 H2118 H 1.18624 0.88188 0.92130
 C2119 C 1.21933 0.38580 0.40773
 C2120 C 1.23611 0.40085 0.40124
 C2121 C 1.23242 0.42393 0.40316
 C2122 C 1.21198 0.43195 0.41143
 C2123 C 1.31138 0.36911 0.36787
 C2124 C 1.19890 0.39378 0.41601
 C2125 C 1.25695 0.39254 0.39233
 C2126 C 1.27426 0.38537 0.38474
 C2127 C 1.29436 0.37672 0.37570
 C2128 C 1.19497 0.41695 0.41791
 H2129 H 1.22197 0.36790 0.40623
 H2130 H 1.24530 0.43573 0.39821
 H2131 H 1.20954 0.44987 0.41292
 H2132 H 1.18602 0.38182 0.42054
 C2133 C 0.71953 0.88599 0.40876
 C2134 C 0.73632 0.90109 0.40243
 C2135 C 0.73252 0.92417 0.40428
 C2136 C 0.71198 0.93212 0.41233
 C2137 C 0.81196 0.86965 0.36968
 C2138 C 0.69899 0.89390 0.41682
 C2139 C 0.75727 0.89286 0.39373
 C2140 C 0.77468 0.88575 0.38629
 C2141 C 0.79487 0.87718 0.37742
 C2142 C 0.69496 0.91706 0.41865
 H2143 H 0.72226 0.86810 0.40730
 H2144 H 0.74542 0.93600 0.39944
 H2145 H 0.70945 0.95003 0.41378
 H2146 H 0.68612 0.88190 0.42124
 C2147 C 0.71954 0.38585 0.90904
 C2148 C 0.73631 0.40090 0.90254
 C2149 C 0.73260 0.42398 0.90443
 C2150 C 0.71215 0.43199 0.91268
 C2151 C 0.81158 0.36920 0.86913
 C2152 C 0.69910 0.39381 0.91730
 C2153 C 0.75716 0.39261 0.89362
 C2154 C 0.77447 0.38545 0.88601
 C2155 C 0.79456 0.37682 0.87696
 C2156 C 0.69514 0.41699 0.91915
 H2157 H 0.72220 0.36795 0.90756
 H2158 H 0.74548 0.43578 0.89947
 H2159 H 0.70969 0.44991 0.91414
 H2160 H 0.68623 0.38185 0.92183
 C2161 C 0.78024 0.88777 1.09188
 C2162 C 0.76340 0.90282 1.09822
 C2163 C 0.76711 0.92591 1.09642
 C2164 C 0.78762 0.93392 1.08834
 C2165 C 0.68790 0.87055 1.13035
 C2166 C 0.80073 0.89572 1.08380
 C2167 C 0.74245 0.89449 1.10681
 C2168 C 0.72507 0.88721 1.11410
 C2169 C 0.70493 0.87836 1.12279
 C2170 C 0.80467 0.91890 1.08195
 H2171 H 0.77758 0.86987 1.09330
 H2172 H 0.75418 0.93771 1.10127
 H2173 H 0.79008 0.95183 1.08689
 H2174 H 0.81364 0.88375 1.07934
 C2175 C 0.76715 0.40341 0.57581
 C2176 C 0.76362 0.40164 0.59888
 C2177 C 0.78057 0.40806 0.61375
 C2178 C 0.80098 0.41618 0.60560
 C2179 C 0.68837 0.36912 0.63143
 C2180 C 0.78758 0.41152 0.56761
 C2181 C 0.74276 0.39300 0.60740
 C2182 C 0.72545 0.38564 0.61477
 C2183 C 0.70537 0.37683 0.62366
 C2184 C 0.80473 0.41799 0.58243
 H2185 H 0.75414 0.39850 0.56415
 H2186 H 0.77806 0.40667 0.63164
 H2187 H 0.81397 0.42069 0.61743
 H2188 H 0.78989 0.41293 0.54971
 C2189 C 0.26681 0.92628 0.59628
 C2190 C 0.26310 0.90318 0.59800
 C2191 C 0.27993 0.88816 0.59155
 C2192 C 0.30040 0.89615 0.58344
 C2193 C 0.18774 0.87065 0.63019
 C2194 C 0.28730 0.93432 0.58817
 C2195 C 0.24218 0.89480 0.60660
 C2196 C 0.22483 0.88747 0.61391
 C2197 C 0.20473 0.87854 0.62261
 C2198 C 0.30433 0.91933 0.58167
 H2199 H 0.25388 0.93805 0.60121
 H2200 H 0.27728 0.87025 0.59291
 H2201 H 0.31329 0.88419 0.57890
 H2202 H 0.28975 0.95224 0.58679
 C2203 C 0.27998 0.38688 1.09223
 C2204 C 0.26315 0.40181 1.09892
 C2205 C 0.26670 0.42493 1.09712
 C2206 C 0.28704 0.43308 1.08876
 C2207 C 0.18826 0.36926 1.13228
 C2208 C 0.30030 0.39499 1.08385
 C2209 C 0.24240 0.39334 1.10787
 C2210 C 0.22517 0.38599 1.11547
 C2211 C 0.20518 0.37710 1.12448
 C2212 C 0.30409 0.41820 1.08206
 H2213 H 0.27745 0.36896 1.09363
 H2214 H 0.25378 0.43664 1.10223
 H2215 H 0.28937 0.45102 1.08735
 H2216 H 0.31321 0.38311 1.07916
 C2217 C 0.78067 1.11410 0.90785
 C2218 C 0.76384 1.09909 0.90142
 C2219 C 0.76751 1.07600 0.90329
 C2220 C 0.78797 1.06794 0.91147
 C2221 C 0.68843 1.13103 0.86856
 C2222 C 0.80112 1.10609 0.91604
 C2223 C 0.74296 1.10744 0.89265
 C2224 C 0.72561 1.11466 0.88518
 C2225 C 0.70548 1.12338 0.87629
 C2226 C 0.80502 1.08291 0.91791
 H2227 H 0.77804 1.13201 0.90638
 H2228 H 0.75459 1.06422 0.89839
 H2229 H 0.79039 1.05002 0.91295
 H2230 H 0.81402 1.11803 0.92053
 C2231 C 0.76724 0.57517 0.40355
 C2232 C 0.76349 0.59826 0.40178
 C2233 C 0.78026 0.61330 0.40828
 C2234 C 0.80073 0.60532 0.41645
 C2235 C 0.68811 0.63006 0.36879
 C2236 C 0.78772 0.56715 0.41171
 C2237 C 0.74260 0.60657 0.39300
 C2238 C 0.72526 0.61377 0.38551
 C2239 C 0.70514 0.62245 0.37657
 C2240 C 0.80471 0.58215 0.41821
 H2241 H 0.75436 0.56337 0.39859
 H2242 H 0.77758 0.63120 0.40689
 H2243 H 0.81360 0.61729 0.42100
 H2244 H 0.79020 0.54923 0.41310
 C2245 C 0.28101 1.11482 0.40754
 C2246 C 0.26423 1.09977 0.40104
 C2247 C 0.26790 1.07669 0.40301
 C2248 C 0.28830 1.06867 0.41134
 C2249 C 0.18906 1.13139 0.36735
 C2250 C 0.30141 1.10684 0.41588
 C2251 C 0.24342 1.10807 0.39205
 C2252 C 0.22614 1.11522 0.38438
 C2253 C 0.20606 1.12383 0.37526
 C2254 C 0.30532 1.08366 0.41782
 H2255 H 0.27839 1.13272 0.40600
 H2256 H 0.25501 1.06490 0.39806
 H2257 H 0.29072 1.05075 0.41287
 H2258 H 0.31429 1.11879 0.42042
 C2259 C 0.26740 0.57519 0.90367
 C2260 C 0.26352 0.59825 0.90192
 C2261 C 0.28024 0.61340 0.90831
 C2262 C 0.30080 0.60554 0.91636
 C2263 C 0.18777 0.62975 0.86951
 C2264 C 0.28797 0.56729 0.91171
 C2265 C 0.24252 0.60645 0.89329
 C2266 C 0.22509 0.61357 0.88593
 C2267 C 0.20487 0.62217 0.87716
 C2268 C 0.30491 0.58239 0.91811
 H2269 H 0.25456 0.56332 0.89878
 H2270 H 0.27744 0.63129 0.90693
 H2271 H 0.31362 0.61758 0.92084
 H2272 H 0.29056 0.54938 0.91310
 C2273 C 1.11445 1.21927 1.09154
 C2274 C 1.09944 1.23607 1.09809
 C2275 C 1.07631 1.23246 1.09626
 C2276 C 1.06822 1.21208 1.08801
 C2277 C 1.13136 1.31112 1.13147
 C2278 C 1.10640 1.19890 1.08328
 C2279 C 1.10782 1.25686 1.10698
 C2280 C 1.11505 1.27412 1.11456
 C2281 C 1.12374 1.29416 1.12361
 C2282 C 1.08318 1.19504 1.08147
 H2283 H 1.13238 1.22185 1.09298
 H2284 H 1.06454 1.24536 1.10126
 H2285 H 1.05026 1.20969 1.08659
 H2286 H 1.11834 1.18600 1.07870
 C2287 C 1.09674 0.73214 0.57463
 C2288 C 1.09841 0.73595 0.59767
 C2289 C 1.09202 0.71918 0.61272
 C2290 C 1.08401 0.69866 0.60481
 C2291 C 1.13017 0.81164 0.62968
 C2292 C 1.08874 0.71160 0.56667
 C2293 C 1.10691 0.75694 0.60595
 C2294 C 1.11412 0.77435 0.61317
 C2295 C 1.12270 0.79456 0.62195
 C2296 C 1.08229 0.69463 0.58169
 H2297 H 1.10163 0.74501 0.56283
 H2298 H 1.09334 0.72192 0.63059
 H2299 H 1.07950 0.68582 0.61678
 H2300 H 1.08738 0.70907 0.54879
 C2301 C 0.57613 1.23245 0.59605
 C2302 C 0.59924 1.23612 0.59790
 C2303 C 0.61431 1.21931 0.59149
 C2304 C 0.60632 1.19887 0.58334
 C2305 C 0.63115 1.31133 0.63084
 C2306 C 0.56810 1.21200 0.58791
 C2307 C 0.60757 1.25697 0.60667
 C2308 C 0.61478 1.27427 0.61415
 C2309 C 0.62349 1.29435 0.62307
 C2310 C 0.58312 1.19497 0.58150
 H2311 H 0.56432 1.24536 0.60095
 H2312 H 0.63223 1.22194 0.59295
 H2313 H 0.61830 1.18598 0.57886
 H2314 H 0.55015 1.20957 0.58646
 C2315 C 0.59655 0.73218 1.07503
 C2316 C 0.59818 0.73605 1.09806
 C2317 C 0.59172 0.71933 1.11314
 C2318 C 0.58369 0.69881 1.10526
 C2319 C 0.63013 0.81173 1.12988
 C2320 C 0.58853 0.71164 1.06710
 C2321 C 0.60672 0.75703 1.10630
 C2322 C 0.61398 0.77444 1.11348
 C2323 C 0.62262 0.79464 1.12219
 C2324 C 0.58203 0.69472 1.08214
 H2325 H 0.60149 0.74502 1.06321
 H2326 H 0.59301 0.72211 1.13100
 H2327 H 0.57914 0.68600 1.11725
 H2328 H 0.58722 0.70907 1.04922
 C2329 C 0.90877 1.21965 0.88642
 C2330 C 0.90234 1.23646 0.90143
 C2331 C 0.90423 1.23280 0.92447
 C2332 C 0.91241 1.21235 0.93249
 C2333 C 0.86911 1.31162 0.86956
 C2334 C 0.91697 1.19921 0.89439
 C2335 C 0.89350 1.25730 0.89312
 C2336 C 0.88595 1.27459 0.88592
 C2337 C 0.87695 1.29465 0.87722
 C2338 C 0.91883 1.19531 0.91752
 H2339 H 0.90728 1.22227 0.86855
 H2340 H 0.89931 1.24571 0.93624
 H2341 H 0.91389 1.20992 0.95037
 H2342 H 0.92145 1.18632 0.88246
 C2343 C 0.92553 0.73238 0.40383
 C2344 C 0.90243 0.73619 0.40200
 C2345 C 0.88729 0.71946 0.40838
 C2346 C 0.89519 0.69897 0.41650
 C2347 C 0.87060 0.81164 0.36943
 C2348 C 0.93347 0.71187 0.41195
 C2349 C 0.89418 0.75711 0.39330
 C2350 C 0.88700 0.77447 0.38590
 C2351 C 0.87829 0.79461 0.37709
 C2352 C 0.91837 0.69492 0.41834
 H2353 H 0.93739 0.74523 0.39896
 H2354 H 0.86938 0.72220 0.40693
 H2355 H 0.88315 0.68614 0.42097
 H2356 H 0.95140 0.70933 0.41340
 C2357 C 0.40889 1.21991 0.38603
 C2358 C 0.40232 1.23680 0.40088
 C2359 C 0.40409 1.23329 0.42396
 C2360 C 0.41231 1.21293 0.43216
 C2361 C 0.36907 1.31170 0.36838
 C2362 C 0.41713 1.19956 0.39418
 C2363 C 0.39348 1.25757 0.39238
 C2364 C 0.38594 1.27480 0.38501
 C2365 C 0.37693 1.29479 0.37615
 C2366 C 0.41890 1.19582 0.41735
 H2367 H 0.40750 1.22241 0.36813
 H2368 H 0.39906 1.24627 0.43561
 H2369 H 0.41370 1.21063 0.45007
 H2370 H 0.42173 1.18661 0.38236
 C2371 C 0.40871 0.71940 0.88643
 C2372 C 0.40213 0.73625 0.90133
 C2373 C 0.40383 0.73265 0.92440
 C2374 C 0.41199 0.71224 0.93254
 C2375 C 0.36914 0.81136 0.86906
 C2376 C 0.41688 0.69901 0.89452
 C2377 C 0.39336 0.75707 0.89288
 C2378 C 0.38588 0.77435 0.88557
 C2379 C 0.37694 0.79440 0.87676
 C2380 C 0.41859 0.69518 0.91768
 H2381 H 0.40737 0.72198 0.86854
 H2382 H 0.39880 0.74559 0.93608
 H2383 H 0.41333 0.70987 0.95045
 H2384 H 0.42150 0.68609 0.88267
 C2385 C 1.11261 0.77991 0.90893
 C2386 C 1.09746 0.76324 0.90245
 C2387 C 1.07436 0.76710 0.90421
 C2388 C 1.06644 0.78762 0.91233
 C2389 C 1.12920 0.68783 0.86967
 C2390 C 1.10474 0.80041 0.91705
 C2391 C 1.10569 0.74232 0.89372
 C2392 C 1.11285 0.72496 0.88627
 C2393 C 1.12153 0.70484 0.87740
 C2394 C 1.08155 0.80451 0.91881
 H2395 H 1.13052 0.77713 0.90754
 H2396 H 1.06248 0.75430 0.89926
 H2397 H 1.04851 0.79020 0.91371
 H2398 H 1.11678 0.81320 0.92159
 C2399 C 1.11350 0.28044 0.40723
 C2400 C 1.09856 0.26365 0.40056
 C2401 C 1.07541 0.26724 0.40229
 C2402 C 1.06723 0.28758 0.41060
 C2403 C 1.13127 0.18872 0.36756
 C2404 C 1.10537 0.30077 0.41554
 C2405 C 1.10706 0.24288 0.39172
 C2406 C 1.11445 0.22564 0.38421
 C2407 C 1.12340 0.20565 0.37529
 C2408 C 1.08213 0.30459 0.41730
 H2409 H 1.13145 0.27788 0.40587
 H2410 H 1.06369 0.25435 0.39720
 H2411 H 1.04927 0.28995 0.41197
 H2412 H 1.11726 0.31364 0.42024
 C2413 C 0.61248 0.78016 0.40791
 C2414 C 0.59742 0.76344 0.40132
 C2415 C 0.57430 0.76720 0.40304
 C2416 C 0.56626 0.78763 0.41125
 C2417 C 0.62957 0.68818 0.36852
 C2418 C 0.60449 0.80058 0.41614
 C2419 C 0.60577 0.74258 0.39254
 C2420 C 0.61303 0.72527 0.38508
 C2421 C 0.62182 0.70518 0.37622
 C2422 C 0.58128 0.80456 0.41788
 H2423 H 0.63040 0.77746 0.40656
 H2424 H 0.56249 0.75437 0.39800
 H2425 H 0.54831 0.79013 0.41262
 H2426 H 0.61646 0.81339 0.42078
 C2427 C 0.61325 0.28041 0.90870
 C2428 C 0.59828 0.26362 0.90208
 C2429 C 0.57514 0.26728 0.90375
 C2430 C 0.56699 0.28767 0.91194
 C2431 C 0.63080 0.18856 0.86923
 C2432 C 0.60514 0.30079 0.91690
 C2433 C 0.60675 0.24281 0.89332
 C2434 C 0.61411 0.22554 0.88586
 C2435 C 0.62300 0.20550 0.87697
 C2436 C 0.58191 0.30467 0.91859
 H2437 H 0.63119 0.27780 0.90739
 H2438 H 0.56340 0.25438 0.89868
 H2439 H 0.54903 0.29009 0.91326
 H2440 H 0.61705 0.31366 0.92156
 C2441 C 0.92431 0.76826 1.09737
 C2442 C 0.90118 0.76460 1.09918
 C2443 C 0.88615 0.78137 1.09259
 C2444 C 0.89417 0.80174 1.08431
 C2445 C 0.86922 0.68946 1.13234
 C2446 C 0.93237 0.78864 1.08910
 C2447 C 0.89282 0.74380 1.10806
 C2448 C 0.88560 0.72652 1.11561
 C2449 C 0.87688 0.70645 1.12457
 C2450 C 0.91738 0.80563 1.08251
 H2451 H 0.93610 0.75539 1.10240
 H2452 H 0.86822 0.77875 1.09401
 H2453 H 0.88221 0.81460 1.07968
 H2454 H 0.95032 0.79106 1.08768
 C2455 C 0.88538 0.28084 0.59223
 C2456 C 0.90033 0.26402 0.59885
 C2457 C 0.92347 0.26757 0.59704
 C2458 C 0.93164 0.28790 0.58873
 C2459 C 0.86814 0.18903 0.63219
 C2460 C 0.89350 0.30117 0.58392
 C2461 C 0.89187 0.24326 0.60776
 C2462 C 0.88458 0.22602 0.61535
 C2463 C 0.87582 0.20599 0.62437
 C2464 C 0.91673 0.30495 0.58211
 H2465 H 0.86744 0.27832 0.59365
 H2466 H 0.93520 0.25464 0.60209
 H2467 H 0.94960 0.29022 0.58732
 H2468 H 0.88161 0.31408 0.57928
 C2469 C 0.42305 0.76847 0.59678
 C2470 C 0.39991 0.76487 0.59852
 C2471 C 0.38494 0.78169 0.59192
 C2472 C 0.39304 0.80205 0.58370
 C2473 C 0.36779 0.68971 0.63149
 C2474 C 0.43120 0.78884 0.58857
 C2475 C 0.39147 0.74407 0.60732
 C2476 C 0.38419 0.72679 0.61482
 C2477 C 0.37544 0.70672 0.62374
 C2478 C 0.41627 0.80588 0.58196
 H2479 H 0.43479 0.75555 0.60182
 H2480 H 0.36700 0.77912 0.59329
 H2481 H 0.38113 0.81496 0.57907
 H2482 H 0.44915 0.79121 0.58720
 C2483 C 0.42462 0.26759 1.09546
 C2484 C 0.40155 0.26364 1.09721
 C2485 C 0.38631 0.28031 1.09086
 C2486 C 0.39408 0.30089 1.08287
 C2487 C 0.37051 0.18789 1.12978
 C2488 C 0.43244 0.28818 1.08749
 C2489 C 0.39345 0.24265 1.10585
 C2490 C 0.38644 0.22522 1.11324
 C2491 C 0.37797 0.20500 1.12208
 C2492 C 0.41725 0.30509 1.08115
 H2493 H 0.43657 0.25479 1.10032
 H2494 H 0.36841 0.27746 1.09224
 H2495 H 0.38198 0.31368 1.07844
 H2496 H 0.45036 0.29083 1.08612
 C2497 C 1.07526 1.09549 0.76753
 C2498 C 1.09836 1.09732 0.76372
 C2499 C 1.11350 1.09088 0.78041
 C2500 C 1.10562 1.08273 0.80086
 C2501 C 1.12978 1.13048 0.68849
 C2502 C 1.06733 1.08736 0.78798
 C2503 C 1.10657 1.10613 0.74287
 C2504 C 1.11367 1.11367 0.72556
 C2505 C 1.12224 1.12265 0.70548
 C2506 C 1.08243 1.08093 0.80490
 H2507 H 1.06339 1.10042 0.75471
 H2508 H 1.13142 1.09231 0.77767
 H2509 H 1.11765 1.07823 0.81366
 H2510 H 1.04940 1.08593 0.79052
 C2511 C 1.07591 0.59693 0.26804
 C2512 C 1.09905 0.59870 0.26442
 C2513 C 1.11404 0.59201 0.28114
 C2514 C 1.10597 0.58366 0.30144
 C2515 C 1.13109 0.63224 0.18957
 C2516 C 1.06780 0.58858 0.28835
 C2517 C 1.10745 0.60766 0.24370
 C2518 C 1.11471 0.61529 0.22649
 C2519 C 1.12344 0.62437 0.20650
 C2520 C 1.08275 0.58189 0.30530
 H2521 H 1.06415 0.60204 0.25520
 H2522 H 1.13198 0.59340 0.27855
 H2523 H 1.11790 0.57896 0.31427
 H2524 H 1.04984 0.58720 0.29074
 C2525 C 0.57557 1.09614 0.26789
 C2526 C 0.59868 1.09778 0.26406
 C2527 C 0.61379 1.09116 0.28070
 C2528 C 0.60586 1.08302 0.30114
 C2529 C 0.63023 1.13096 0.18889
 C2530 C 0.56759 1.08801 0.28833
 C2531 C 0.60694 1.10659 0.24323
 C2532 C 0.61408 1.11412 0.22593
 C2533 C 0.62268 1.12312 0.20587
 C2534 C 0.58266 1.08140 0.30520
 H2535 H 0.56372 1.10120 0.25510
 H2536 H 0.63171 1.09246 0.27795
 H2537 H 0.61787 1.07838 0.31391
 H2538 H 0.54965 1.08673 0.29089
 C2539 C 0.57548 0.59546 0.76812
 C2540 C 0.59858 0.59715 0.76427
 C2541 C 0.61372 0.59070 0.78096
 C2542 C 0.60582 0.58267 0.80145
 C2543 C 0.62999 0.62984 0.68882
 C2544 C 0.56753 0.58745 0.78861
 C2545 C 0.60682 0.60581 0.74337
 C2546 C 0.61393 0.61322 0.72601
 C2547 C 0.62249 0.62209 0.70587
 C2548 C 0.58263 0.58100 0.80553
 H2549 H 0.56362 0.60039 0.75530
 H2550 H 0.63163 0.59203 0.77820
 H2551 H 0.61785 0.57815 0.81425
 H2552 H 0.54960 0.58612 0.79118
 C2553 C 0.90820 0.88695 0.78098
 C2554 C 0.90190 0.90201 0.76418
 C2555 C 0.90370 0.92509 0.76791
 C2556 C 0.91172 0.93309 0.78839
 C2557 C 0.86981 0.86997 0.68876
 C2558 C 0.91623 0.89490 0.80144
 C2559 C 0.89335 0.89369 0.74327
 C2560 C 0.88607 0.88645 0.72591
 C2561 C 0.87738 0.87769 0.70579
 C2562 C 0.91806 0.91807 0.80539
 H2563 H 0.90678 0.86905 0.77831
 H2564 H 0.89889 0.93689 0.75501
 H2565 H 0.91316 0.95101 0.79086
 H2566 H 0.92065 0.88292 0.81432
 C2567 C 0.88684 0.40833 0.28027
 C2568 C 0.90199 0.40181 0.26362
 C2569 C 0.92509 0.40359 0.26745
 C2570 C 0.93301 0.41175 0.28790
 C2571 C 0.87034 0.36890 0.18838
 C2572 C 0.89471 0.41651 0.30072
 C2573 C 0.89378 0.39302 0.24277
 C2574 C 0.88664 0.38553 0.22545
 C2575 C 0.87799 0.37662 0.20537
 C2576 C 0.91789 0.41826 0.30479
 H2577 H 0.86893 0.40694 0.27752
 H2578 H 0.93697 0.39861 0.25466
 H2579 H 0.95094 0.41314 0.29046
 H2580 H 0.88266 0.42107 0.31349
 C2581 C 0.38663 0.90900 0.28051
 C2582 C 0.40179 0.90233 0.26392
 C2583 C 0.42488 0.90404 0.26778
 C2584 C 0.43280 0.91227 0.28820
 C2585 C 0.37029 0.86900 0.18878
 C2586 C 0.39449 0.91724 0.30093
 C2587 C 0.39359 0.89342 0.24310
 C2588 C 0.38649 0.88583 0.22582
 C2589 C 0.37789 0.87681 0.20576
 C2590 C 0.41768 0.91891 0.30503
 H2591 H 0.36871 0.90766 0.27773
 H2592 H 0.43677 0.89895 0.25504
 H2593 H 0.45073 0.91359 0.29079
 H2594 H 0.38245 0.92191 0.31366
 C2595 C 0.40380 0.42477 0.76770
 C2596 C 0.40199 0.40167 0.76408
 C2597 C 0.40827 0.38669 0.78095
 C2598 C 0.41630 0.39473 0.80138
 C2599 C 0.36996 0.36940 0.68870
 C2600 C 0.41182 0.43286 0.78815
 C2601 C 0.39346 0.39327 0.74318
 C2602 C 0.38620 0.38596 0.72584
 C2603 C 0.37753 0.37713 0.70572
 C2604 C 0.41816 0.41791 0.80523
 H2605 H 0.39900 0.43652 0.75475
 H2606 H 0.40684 0.36878 0.77835
 H2607 H 0.42071 0.38280 0.81430
 H2608 H 0.41328 0.45079 0.79054
 C2609 C 1.07556 0.90328 1.23235
 C2610 C 1.09869 0.90141 1.23597
 C2611 C 1.11370 0.90788 1.21918
 C2612 C 1.10566 0.91613 1.19883
 C2613 C 1.13088 0.86848 1.31103
 C2614 C 1.06747 0.91153 1.21199
 C2615 C 1.10708 0.89260 1.25676
 C2616 C 1.11436 0.88511 1.27402
 C2617 C 1.12315 0.87621 1.29406
 C2618 C 1.08244 0.91802 1.19498
 H2619 H 1.06379 0.89835 1.24525
 H2620 H 1.13164 0.90640 1.22176
 H2621 H 1.11760 0.92066 1.18596
 H2622 H 1.04952 0.91301 1.20961
 C2623 C 1.11350 0.40724 0.71866
 C2624 C 1.09849 0.40085 0.73548
 C2625 C 1.07536 0.40262 0.73184
 C2626 C 1.06726 0.41071 0.71142
 C2627 C 1.13078 0.36859 0.81078
 C2628 C 1.10544 0.41534 0.69826
 C2629 C 1.10691 0.39224 0.75635
 C2630 C 1.11422 0.38492 0.77367
 C2631 C 1.12305 0.37620 0.79376
 C2632 C 1.08222 0.41715 0.69439
 H2633 H 1.13143 0.40584 0.72126
 H2634 H 1.06360 0.39773 0.74476
 H2635 H 1.04930 0.41213 0.70903
 H2636 H 1.11737 0.41984 0.68537
 C2637 C 0.61284 0.90773 0.71879
 C2638 C 0.59778 0.90145 0.73561
 C2639 C 0.57467 0.90338 0.73196
 C2640 C 0.56663 0.91151 0.71153
 C2641 C 0.62999 0.86913 0.81090
 C2642 C 0.60486 0.91587 0.69838
 C2643 C 0.60614 0.89280 0.75648
 C2644 C 0.61341 0.88546 0.77380
 C2645 C 0.62223 0.87673 0.79390
 C2646 C 0.58165 0.91784 0.69451
 H2647 H 0.63077 0.90621 0.72141
 H2648 H 0.56286 0.89859 0.74488
 H2649 H 0.54869 0.91306 0.70912
 H2650 H 0.61683 0.92027 0.68549
 C2651 C 0.61296 0.40683 1.21912
 C2652 C 0.59801 0.40034 1.23595
 C2653 C 0.57487 0.40223 1.23242
 C2654 C 0.56670 0.41054 1.21211
 C2655 C 0.63072 0.36757 1.31085
 C2656 C 0.60485 0.41515 1.19882
 C2657 C 0.60650 0.39154 1.25671
 C2658 C 0.61389 0.38408 1.27393
 C2659 C 0.62285 0.37524 1.29392
 C2660 C 0.58162 0.41708 1.19508
 H2661 H 0.63090 0.40535 1.22163
 H2662 H 0.56314 0.39727 1.24535
 H2663 H 0.54875 0.41205 1.20980
 H2664 H 0.61675 0.41972 1.18592
 C2665 C 0.90469 1.07510 1.23223
 C2666 C 0.90303 1.09815 1.23620
 C2667 C 0.90941 1.11334 1.21955
 C2668 C 0.91735 1.10554 1.19898
 C2669 C 0.87086 1.12943 1.31193
 C2670 C 0.91262 1.06725 1.21166
 C2671 C 0.89449 1.10630 1.25719
 C2672 C 0.88719 1.11336 1.27462
 C2673 C 0.87848 1.12191 1.29483
 C2674 C 0.91901 1.08240 1.19479
 H2675 H 0.89981 1.06320 1.24502
 H2676 H 0.90810 1.13122 1.22241
 H2677 H 0.92182 1.11762 1.18622
 H2678 H 0.91394 1.04935 1.20900
 C2679 C 0.90858 0.61310 0.71924
 C2680 C 0.90217 0.59805 0.73600
 C2681 C 0.90387 0.57496 0.73224
 C2682 C 0.91189 0.56694 0.71176
 C2683 C 0.87002 0.63000 0.81149
 C2684 C 0.91661 0.60512 0.69877
 C2685 C 0.89360 0.60638 0.75692
 C2686 C 0.88631 0.61360 0.77429
 C2687 C 0.87761 0.62233 0.79444
 C2688 C 0.91833 0.58195 0.69478
 H2689 H 0.90724 0.63100 0.72193
 H2690 H 0.89897 0.56317 0.74511
 H2691 H 0.91325 0.54902 0.70927
 H2692 H 0.92112 0.61709 0.68592
 C2693 C 0.40859 1.11448 0.71880
 C2694 C 0.40200 1.09952 0.73556
 C2695 C 0.40353 1.07641 0.73185
 C2696 C 0.41158 1.06828 0.71142
 C2697 C 0.36975 1.13173 0.81090
 C2698 C 0.41664 1.10640 0.69838
 C2699 C 0.39342 1.10795 0.75643
 C2700 C 0.38611 1.11525 0.77376
 C2701 C 0.37738 1.12404 0.79388
 C2702 C 0.41821 1.08321 0.69444
 H2703 H 0.40738 1.13240 0.72145
 H2704 H 0.39849 1.06467 0.74473
 H2705 H 0.41281 1.05035 0.70897
 H2706 H 0.42130 1.11831 0.68553
 C2707 C 0.40272 0.57600 1.23206
 C2708 C 0.40122 0.59912 1.23572
 C2709 C 0.40776 0.61404 1.21889
 C2710 C 0.41576 0.60591 1.19848
 C2711 C 0.36936 0.63160 1.31111
 C2712 C 0.41072 0.56782 1.21163
 C2713 C 0.39274 0.60762 1.25661
 C2714 C 0.38553 0.61498 1.27395
 C2715 C 0.37691 0.62386 1.29407
 C2716 C 0.41733 0.58270 1.19461
 H2717 H 0.39772 0.56430 1.24498
 H2718 H 0.40656 0.63196 1.22151
 H2719 H 0.42039 0.61779 1.18559
 H2720 H 0.41195 0.54988 1.20922
 C2721 C 1.11384 1.21907 0.90774
 C2722 C 1.09874 1.23580 0.90125
 C2723 C 1.07563 1.23205 0.90306
 C2724 C 1.06765 1.21160 0.91125
 C2725 C 1.13042 1.31106 0.86817
 C2726 C 1.10591 1.19863 0.91594
 C2727 C 1.10701 1.25665 0.89243
 C2728 C 1.11417 1.27397 0.88491
 C2729 C 1.12281 1.29406 0.87596
 C2730 C 1.08272 1.19465 0.91775
 H2731 H 1.13176 1.22176 0.90632
 H2732 H 1.06379 1.24490 0.89810
 H2733 H 1.04971 1.20911 0.91268
 H2734 H 1.11792 1.18580 0.92050
 C2735 C 1.07569 0.73190 0.40334
 C2736 C 1.09880 0.73559 0.40148
 C2737 C 1.11388 0.71883 0.40798
 C2738 C 1.10591 0.69842 0.41623
 C2739 C 1.13057 0.81079 0.36829
 C2740 C 1.06767 0.71148 0.41158
 C2741 C 1.10711 0.75641 0.39262
 C2742 C 1.11429 0.77371 0.38507
 C2743 C 1.12296 0.79379 0.37609
 C2744 C 1.08271 0.69449 0.41808
 H2745 H 1.06387 0.74477 0.39838
 H2746 H 1.13180 0.72147 0.40652
 H2747 H 1.11789 0.68556 0.42078
 H2748 H 1.04973 0.70904 0.41303
 C2749 C 0.57667 1.23236 0.40321
 C2750 C 0.59979 1.23598 0.40132
 C2751 C 0.61482 1.21920 0.40785
 C2752 C 0.60680 1.19882 0.41614
 C2753 C 0.63149 1.31105 0.36774
 C2754 C 0.56860 1.21199 0.41150
 C2755 C 0.60813 1.25676 0.39237
 C2756 C 0.61531 1.27402 0.38474
 C2757 C 0.62393 1.29407 0.37564
 C2758 C 0.58359 1.19496 0.41801
 H2759 H 0.56488 1.24525 0.39823
 H2760 H 0.63275 1.22179 0.40636
 H2761 H 0.61875 1.18594 0.42070
 H2762 H 0.55065 1.20960 0.41297
 C2763 C 0.61403 0.71911 0.90900
 C2764 C 0.59893 0.73585 0.90251
 C2765 C 0.57582 0.73210 0.90430
 C2766 C 0.56783 0.71164 0.91244
 C2767 C 0.63050 0.81115 0.86938
 C2768 C 0.60609 0.69865 0.91715
 C2769 C 0.60721 0.75672 0.89371
 C2770 C 0.61435 0.77404 0.88619
 C2771 C 0.62295 0.79414 0.87721
 C2772 C 0.58289 0.69466 0.91891
 H2773 H 0.63195 0.72180 0.90759
 H2774 H 0.56399 0.74496 0.89935
 H2775 H 0.54989 0.70915 0.91384
 H2776 H 0.61809 0.68581 0.92168
 C2777 C 0.90870 1.21977 1.11297
 C2778 C 0.90222 1.23662 1.09803
 C2779 C 0.90395 1.23299 1.07497
 C2780 C 0.91208 1.21254 1.06686
 C2781 C 0.86968 1.31186 1.13046
 C2782 C 0.91683 1.19934 1.10491
 C2783 C 0.89355 1.25749 1.10646
 C2784 C 0.88617 1.27480 1.11379
 C2785 C 0.87736 1.29488 1.12267
 C2786 C 0.91859 1.19548 1.08176
 H2787 H 0.90733 1.22236 1.13085
 H2788 H 0.89900 1.24593 1.06326
 H2789 H 0.91346 1.21015 1.04896
 H2790 H 0.92138 1.18642 1.11679
 C2791 C 0.88709 0.71940 0.59169
 C2792 C 0.90221 0.73613 0.59812
 C2793 C 0.92531 0.73233 0.59630
 C2794 C 0.93328 0.71184 0.58816
 C2795 C 0.87029 0.81156 0.63071
 C2796 C 0.89501 0.69892 0.58354
 C2797 C 0.89393 0.75704 0.60683
 C2798 C 0.88673 0.77439 0.61424
 C2799 C 0.87800 0.79453 0.62306
 C2800 C 0.91820 0.69490 0.58171
 H2801 H 0.86917 0.72212 0.59312
 H2802 H 0.93716 0.74518 0.60121
 H2803 H 0.95122 0.70932 0.58672
 H2804 H 0.88299 0.68610 0.57903
 C2805 C 0.40893 1.22003 0.61347
 C2806 C 0.40251 1.23695 0.59858
 C2807 C 0.40426 1.23338 0.57551
 C2808 C 0.41235 1.21294 0.56735
 C2809 C 0.36985 1.31218 0.63096
 C2810 C 0.41704 1.19962 0.60536
 C2811 C 0.39384 1.25780 0.60705
 C2812 C 0.38644 1.27511 0.61439
 C2813 C 0.37759 1.29519 0.62323
 C2814 C 0.41882 1.19582 0.58219
 H2815 H 0.40755 1.22258 0.63136
 H2816 H 0.39934 1.24636 0.56383
 H2817 H 0.41375 1.21060 0.54944
 H2818 H 0.42155 1.18665 0.61720
 C2819 C 0.40817 0.71942 1.11350
 C2820 C 0.40181 0.73634 1.09860
 C2821 C 0.40357 0.73276 1.07553
 C2822 C 0.41162 0.71230 1.06739
 C2823 C 0.36963 0.81174 1.13105
 C2824 C 0.41622 0.69898 1.10541
 C2825 C 0.39325 0.75725 1.10707
 C2826 C 0.38596 0.77459 1.11442
 C2827 C 0.37726 0.79471 1.12329
 C2828 C 0.41803 0.69517 1.08225
 H2829 H 0.40678 0.72197 1.13139
 H2830 H 0.39870 0.74576 1.06385
 H2831 H 0.41303 0.70995 1.04948
 H2832 H 0.42070 0.68601 1.11726
 C2833 C 0.88673 0.78039 0.90900
 C2834 C 0.90187 0.76368 0.90255
 C2835 C 0.92497 0.76748 0.90436
 C2836 C 0.93290 0.78797 0.91249
 C2837 C 0.87030 0.68826 0.86972
 C2838 C 0.89461 0.80088 0.91714
 C2839 C 0.89366 0.74278 0.89379
 C2840 C 0.88653 0.72543 0.88632
 C2841 C 0.87791 0.70530 0.87743
 C2842 C 0.91779 0.80493 0.91892
 H2843 H 0.86881 0.77766 0.90758
 H2844 H 0.93685 0.75464 0.89945
 H2845 H 0.95083 0.79051 0.91390
 H2846 H 0.88257 0.81371 0.92164
 C2847 C 0.88698 0.27995 0.40893
 C2848 C 0.90220 0.26325 0.40260
 C2849 C 0.92528 0.26718 0.40435
 C2850 C 0.93313 0.28776 0.41232
 C2851 C 0.87088 0.18755 0.37024
 C2852 C 0.89478 0.30052 0.41691
 C2853 C 0.89407 0.24226 0.39400
 C2854 C 0.88700 0.22484 0.38666
 C2855 C 0.87844 0.20464 0.37789
 C2856 C 0.91795 0.30468 0.41865
 H2857 H 0.86908 0.27712 0.40754
 H2858 H 0.93721 0.25435 0.39951
 H2859 H 0.95105 0.29039 0.41370
 H2860 H 0.88268 0.31333 0.42134
 C2861 C 0.42384 0.76790 0.40361
 C2862 C 0.40073 0.76420 0.40177
 C2863 C 0.38565 0.78098 0.40822
 C2864 C 0.39361 0.80141 0.41641
 C2865 C 0.36898 0.68888 0.36881
 C2866 C 0.43185 0.78834 0.41179
 C2867 C 0.39243 0.74334 0.39296
 C2868 C 0.38526 0.72602 0.38546
 C2869 C 0.37660 0.70591 0.37654
 C2870 C 0.41681 0.80535 0.41823
 H2871 H 0.43566 0.75502 0.39869
 H2872 H 0.36772 0.77833 0.40678
 H2873 H 0.38162 0.81429 0.42092
 H2874 H 0.44979 0.79079 0.41323
 C2875 C 0.42417 0.26779 0.90371
 C2876 C 0.40106 0.26413 0.90177
 C2877 C 0.38598 0.28094 0.90816
 C2878 C 0.39395 0.30136 0.91638
 C2879 C 0.36926 0.18888 0.86871
 C2880 C 0.43218 0.28822 0.91192
 C2881 C 0.39275 0.24329 0.89294
 C2882 C 0.38557 0.22598 0.88542
 C2883 C 0.37690 0.20589 0.87648
 C2884 C 0.41715 0.30525 0.91830
 H2885 H 0.43599 0.25488 0.89883
 H2886 H 0.36806 0.27832 0.90664
 H2887 H 0.38197 0.31425 0.92084
 H2888 H 0.45012 0.29064 0.91343
 C2889 C 1.11344 0.78091 1.09317
 C2890 C 1.09843 0.76419 1.09986
 C2891 C 1.07530 0.76785 1.09808
 C2892 C 1.06720 0.78820 1.08971
 C2893 C 1.13072 0.68917 1.13307
 C2894 C 1.10539 0.80125 1.08479
 C2895 C 1.10683 0.74341 1.10878
 C2896 C 1.11413 0.72616 1.11635
 C2897 C 1.12295 0.70613 1.12532
 C2898 C 1.08217 0.80514 1.08299
 H2899 H 1.13137 0.77829 1.09456
 H2900 H 1.06353 0.75501 1.10319
 H2901 H 1.04925 0.79061 1.08831
 H2902 H 1.11733 0.81407 1.08008
 C2903 C 1.07454 0.26683 0.59627
 C2904 C 1.09765 0.26308 0.59806
 C2905 C 1.11274 0.27980 0.59154
 C2906 C 1.10478 0.30024 0.58334
 C2907 C 1.12975 0.18784 0.63091
 C2908 C 1.06653 0.28728 0.58808
 C2909 C 1.10597 0.24221 0.60684
 C2910 C 1.11321 0.22490 0.61432
 C2911 C 1.12199 0.20483 0.62320
 C2912 C 1.08158 0.30423 0.58155
 H2913 H 1.06272 0.25399 0.60125
 H2914 H 1.13066 0.27710 0.59294
 H2915 H 1.11677 0.31306 0.57877
 H2916 H 1.04859 0.28978 0.58667
 C2917 C 0.57373 0.76737 0.59669
 C2918 C 0.59684 0.76357 0.59842
 C2919 C 0.61194 0.78030 0.59195
 C2920 C 0.60400 0.80076 0.58381
 C2921 C 0.62910 0.68820 0.63076
 C2922 C 0.56574 0.78785 0.58856
 C2923 C 0.60516 0.74266 0.60707
 C2924 C 0.61243 0.72531 0.61442
 C2925 C 0.62128 0.70520 0.62316
 C2926 C 0.58080 0.80478 0.58203
 H2927 H 0.56189 0.75452 0.60165
 H2928 H 0.62986 0.77757 0.59331
 H2929 H 0.61601 0.81358 0.57925
 H2930 H 0.54780 0.79038 0.58717
 C2931 C 0.57445 0.26746 1.09752
 C2932 C 0.59758 0.26379 1.09926
 C2933 C 0.61258 0.28061 1.09280
 C2934 C 0.60452 0.30103 1.08465
 C2935 C 0.63014 0.18849 1.13151
 C2936 C 0.56634 0.28789 1.08937
 C2937 C 0.60602 0.24291 1.10789
 C2938 C 0.61338 0.22559 1.11521
 C2939 C 0.62230 0.20549 1.12392
 C2940 C 0.58130 0.30491 1.08284
 H2941 H 0.56269 0.25454 1.10246
 H2942 H 0.63052 0.27799 1.09418
 H2943 H 0.61646 0.31391 1.08009
 H2944 H 0.54839 0.29031 1.08796
 C2945 C 1.23307 1.09614 0.92454
 C2946 C 1.23672 1.09792 0.90149
 C2947 C 1.21993 1.09132 0.88652
 C2948 C 1.19953 1.08305 0.89454
 C2949 C 1.31175 1.13133 0.86939
 C2950 C 1.21266 1.08788 0.93261
 C2951 C 1.25752 1.10682 0.89312
 C2952 C 1.27479 1.11442 0.88587
 C2953 C 1.29481 1.12347 0.87710
 C2954 C 1.19564 1.08129 0.91769
 H2955 H 1.24596 1.10118 0.93627
 H2956 H 1.22255 1.09273 0.86864
 H2957 H 1.18665 1.07844 0.88264
 H2958 H 1.21023 1.08649 0.95050
 C2959 C 1.21971 0.59131 0.38678
 C2960 C 1.23651 0.59780 0.40178
 C2961 C 1.23287 0.59588 0.42482
 C2962 C 1.21246 0.58760 0.43285
 C2963 C 1.31152 0.63129 0.36972
 C2964 C 1.19931 0.58302 0.39477
 C2965 C 1.25732 0.60673 0.39345
 C2966 C 1.27458 0.61435 0.38622
 C2967 C 1.29459 0.62342 0.37745
 C2968 C 1.19543 0.58112 0.41790
 H2969 H 1.22232 0.59282 0.36891
 H2970 H 1.24578 0.60083 0.43658
 H2971 H 1.21004 0.58610 0.45074
 H2972 H 1.18641 0.57849 0.38284
 C2973 C 0.72050 1.09022 0.38717
 C2974 C 0.73731 1.09655 0.40222
 C2975 C 0.73352 1.09480 0.42526
 C2976 C 0.71296 1.08683 0.43322
 C2977 C 0.81282 1.12906 0.37040
 C2978 C 0.69995 1.08224 0.39509
 C2979 C 0.75827 1.10516 0.39395
 C2980 C 0.77565 1.11253 0.38676
 C2981 C 0.79580 1.12135 0.37806
 C2982 C 0.69593 1.08049 0.41821
 H2983 H 0.72322 1.09161 0.36931
 H2984 H 0.74644 1.09965 0.43705
 H2985 H 0.71044 1.08545 0.45111
 H2986 H 0.68706 1.07781 0.38313
 C2987 C 0.73316 0.59559 0.92550
 C2988 C 0.73681 0.59735 0.90244
 C2989 C 0.71995 0.59094 0.88748
 C2990 C 0.69949 0.58284 0.89551
 C2991 C 0.81211 0.62991 0.87011
 C2992 C 0.71268 0.58749 0.93358
 C2993 C 0.75770 0.60601 0.89404
 C2994 C 0.77503 0.61340 0.88674
 C2995 C 0.79512 0.62221 0.87789
 C2996 C 0.69561 0.58104 0.91866
 H2997 H 0.74611 0.60049 0.93722
 H2998 H 0.72256 0.59233 0.86960
 H2999 H 0.68656 0.57833 0.88362
 H3000 H 0.71027 0.58608 0.95147
 C3001 C 1.21964 0.88628 1.09188
 C3002 C 1.23649 0.90130 1.09822
 C3003 C 1.23280 0.92439 1.09641
 C3004 C 1.21231 0.93245 1.08833
 C3005 C 1.31194 0.86916 1.13068
 C3006 C 1.19915 0.89429 1.08379
 C3007 C 1.25741 0.89294 1.10687
 C3008 C 1.27477 0.88567 1.11424
 C3009 C 1.29491 0.87689 1.12302
 C3010 C 1.19524 0.91747 1.08196
 H3011 H 1.22227 0.86838 1.09331
 H3012 H 1.24575 0.93616 1.10126
 H3013 H 1.20987 0.95037 1.08689
 H3014 H 1.18623 0.88235 1.07934
 C3015 C 1.21958 0.38596 0.59117
 C3016 C 1.23637 0.40103 0.59755
 C3017 C 1.23262 0.42411 0.59571
 C3018 C 1.21211 0.43209 0.58761
 C3019 C 1.31184 0.36928 0.63034
 C3020 C 1.19908 0.39389 0.58305
 C3021 C 1.25729 0.39275 0.60627
 C3022 C 1.27466 0.38557 0.61371
 C3023 C 1.29480 0.37690 0.62260
 C3024 C 1.19509 0.41706 0.58122
 H3025 H 1.22228 0.36806 0.59261
 H3026 H 1.24551 0.43592 0.60059
 H3027 H 1.20961 0.45001 0.58616
 H3028 H 1.18620 0.38191 0.57859
 C3029 C 0.73246 0.92432 0.59562
 C3030 C 0.73620 0.90125 0.59753
 C3031 C 0.71939 0.88616 0.59125
 C3032 C 0.69886 0.89409 0.58317
 C3033 C 0.81173 0.86965 0.63034
 C3034 C 0.71193 0.93229 0.58756
 C3035 C 0.75714 0.89299 0.60624
 C3036 C 0.77452 0.88584 0.61368
 C3037 C 0.79468 0.87722 0.62258
 C3038 C 0.69488 0.91725 0.58128
 H3039 H 0.74538 0.93614 0.60042
 H3040 H 0.72207 0.86827 0.59275
 H3041 H 0.68596 0.88210 0.57879
 H3042 H 0.70944 0.95021 0.58606
 C3043 C 0.71922 0.38607 1.09218
 C3044 C 0.73604 0.40110 1.09854
 C3045 C 0.73228 0.42419 1.09684
 C3046 C 0.71174 0.43222 1.08885
 C3047 C 0.81175 0.36907 1.13052
 C3048 C 0.69869 0.39405 1.08418
 C3049 C 0.75702 0.39276 1.10707
 C3050 C 0.77444 0.38552 1.11432
 C3051 C 0.79465 0.37677 1.12297
 C3052 C 0.69471 0.41722 1.08244
 H3053 H 0.72192 0.36816 1.09353
 H3054 H 0.74521 0.43598 1.10170
 H3055 H 0.70925 0.45015 1.08747
 H3056 H 0.68580 0.38209 1.07970
 C3057 C 0.78062 1.11453 1.09129
 C3058 C 0.76379 1.09954 1.09778
 C3059 C 0.76749 1.07644 1.09608
 C3060 C 0.78797 1.06835 1.08799
 C3061 C 0.68835 1.13152 1.13050
 C3062 C 0.80110 1.10648 1.08320
 C3063 C 0.74289 1.10793 1.10646
 C3064 C 0.72553 1.11518 1.11388
 C3065 C 0.70539 1.12390 1.12275
 C3066 C 0.80502 1.08329 1.08148
 H3067 H 0.77798 1.13244 1.09264
 H3068 H 0.75457 1.06469 1.10103
 H3069 H 0.79042 1.05042 1.08664
 H3070 H 0.81400 1.11840 1.07864
 C3071 C 0.78041 0.59191 0.61310
 C3072 C 0.76358 0.59831 0.59809
 C3073 C 0.76731 0.59655 0.57504
 C3074 C 0.78783 0.58847 0.56703
 C3075 C 0.68795 0.63040 0.63025
 C3076 C 0.80092 0.58382 0.60513
 C3077 C 0.74261 0.60689 0.60643
 C3078 C 0.72521 0.61418 0.61369
 C3079 C 0.70502 0.62285 0.62249
 C3080 C 0.80487 0.58202 0.58199
 H3081 H 0.77774 0.59329 0.63097
 H3082 H 0.75438 0.60144 0.56328
 H3083 H 0.79030 0.58705 0.54914
 H3084 H 0.81381 0.57932 0.61706
 C3085 C 0.26730 1.07634 0.59544
 C3086 C 0.26351 1.09941 0.59729
 C3087 C 0.28030 1.11451 0.59094
 C3088 C 0.30083 1.10660 0.58286
 C3089 C 0.18794 1.13093 0.63014
 C3090 C 0.28784 1.06838 0.58737
 C3091 C 0.24257 1.10766 0.60601
 C3092 C 0.22519 1.11479 0.61347
 C3093 C 0.20501 1.12338 0.62238
 C3094 C 0.30486 1.08343 0.58103
 H3095 H 0.25441 1.06451 0.60029
 H3096 H 0.27758 1.13240 0.59240
 H3097 H 0.31371 1.11859 0.57843
 H3098 H 0.29035 1.05047 0.58592
 C3099 C 0.28046 0.61466 1.09186
 C3100 C 0.26360 0.59975 1.09845
 C3101 C 0.26714 0.57663 1.09658
 C3102 C 0.28750 0.56846 1.08827
 C3103 C 0.18865 0.63196 1.13210
 C3104 C 0.30081 0.60653 1.08354
 C3105 C 0.24284 0.60821 1.10742
 C3106 C 0.22561 0.61550 1.11507
 C3107 C 0.20559 0.62428 1.12419
 C3108 C 0.30459 0.58333 1.08170
 H3109 H 0.27794 0.63258 1.09332
 H3110 H 0.25419 0.56493 1.10161
 H3111 H 0.28982 0.55052 1.08682
 H3112 H 0.31375 0.61840 1.07893
 C3113 C 0.76739 0.92513 0.90346
 C3114 C 0.76372 0.90204 0.90170
 C3115 C 0.78053 0.88703 0.90825
 C3116 C 0.80096 0.89506 0.91645
 C3117 C 0.68846 0.86978 0.86897
 C3118 C 0.78782 0.93320 0.91165
 C3119 C 0.74286 0.89366 0.89294
 C3120 C 0.72555 0.88637 0.88549
 C3121 C 0.70546 0.87755 0.87665
 C3122 C 0.80485 0.91824 0.91821
 H3123 H 0.75448 0.93690 0.89846
 H3124 H 0.77791 0.86912 0.90687
 H3125 H 0.81385 0.88312 0.92104
 H3126 H 0.79025 0.95113 0.91303
 C3127 C 0.78071 0.38635 0.40739
 C3128 C 0.76389 0.40129 0.40070
 C3129 C 0.76748 0.42440 0.40243
 C3130 C 0.78784 0.43255 0.41076
 C3131 C 0.68885 0.36874 0.36772
 C3132 C 0.80105 0.39445 0.41572
 C3133 C 0.74310 0.39283 0.39184
 C3134 C 0.72584 0.38548 0.38432
 C3135 C 0.70581 0.37658 0.37542
 C3136 C 0.80487 0.41765 0.41748
 H3137 H 0.77815 0.36843 0.40602
 H3138 H 0.75457 0.43612 0.39733
 H3139 H 0.79020 0.45048 0.41213
 H3140 H 0.81394 0.38256 0.42043
 C3141 C 0.28049 0.90911 0.38590
 C3142 C 0.26360 0.90253 0.40075
 C3143 C 0.26711 0.90428 0.42383
 C3144 C 0.28748 0.91252 0.43204
 C3145 C 0.18861 0.86934 0.36830
 C3146 C 0.30085 0.91735 0.39406
 C3147 C 0.24282 0.89368 0.39225
 C3148 C 0.22557 0.88615 0.38490
 C3149 C 0.20555 0.87716 0.37605
 C3150 C 0.30460 0.91911 0.41723
 H3151 H 0.27800 0.90773 0.36801
 H3152 H 0.25413 0.89925 0.43548
 H3153 H 0.28978 0.91390 0.44995
 H3154 H 0.31382 0.92197 0.38224
 C3155 C 0.28061 0.40869 0.88578
 C3156 C 0.26363 0.40229 0.90062
 C3157 C 0.26711 0.40410 0.92370
 C3158 C 0.28752 0.41223 0.93191
 C3159 C 0.18849 0.36954 0.86809
 C3160 C 0.30100 0.41683 0.89394
 C3161 C 0.24280 0.39359 0.89210
 C3162 C 0.22551 0.38617 0.88473
 C3163 C 0.20546 0.37730 0.87585
 C3164 C 0.30470 0.41867 0.91711
 H3165 H 0.27813 0.40726 0.86788
 H3166 H 0.25408 0.39921 0.93534
 H3167 H 0.28979 0.41368 0.94982
 H3168 H 0.31401 0.42132 0.88213
   
