data_POSCAR
  _audit_creation_date              2014-09-24
  _audit_creation_method            'ToBaCCo'
  _symmetry_space_group_name_H-M    'P1'
  _symmetry_Int_Tables_number       1
  _symmetry_cell_setting            triclinic
  loop_
  _symmetry_equiv_pos_as_xyz
 x,y,z
_cell_length_a 87.8356
_cell_length_b 88.2961
_cell_length_c 89.3517
_cell_angle_alpha 89.947100
_cell_angle_beta 90.189600
_cell_angle_gamma 90.261900
loop_
  _atom_site_label
  _atom_site_type_symbol
  _atom_site_fract_x
  _atom_site_fract_y
  _atom_site_fract_z
C1 C 0.35136 0.32820 0.34571
 C2 C 0.34031 0.32795 0.35698
 C3 C 0.32940 0.33916 0.35758
 C4 C 0.32942 0.35082 0.34688
 C5 C 0.34036 0.35107 0.33579
 C6 C 0.35142 0.33969 0.33521
 C7 C 0.36299 0.31849 0.34216
 N8 N 0.37014 0.32380 0.32973
 C9 C 0.36314 0.33681 0.32543
 C10 C 0.33743 0.36339 0.32682
 N11 N 0.32495 0.37066 0.33215
 C12 C 0.32001 0.36300 0.34445
 C13 C 0.32004 0.33584 0.36949
 N14 N 0.32501 0.32287 0.37612
 C15 C 0.33742 0.31800 0.36848
 H16 H 0.36600 0.30831 0.34820
 H17 H 0.36608 0.34348 0.31568
 H18 H 0.34399 0.36681 0.31715
 H19 H 0.31007 0.36583 0.35098
 H20 H 0.31017 0.34226 0.37287
 H21 H 0.34401 0.30803 0.37115
 C22 C 0.35782 0.82720 -0.16021
 C23 C 0.34678 0.82685 -0.14891
 C24 C 0.33543 0.83766 -0.14865
 C25 C 0.33498 0.84897 -0.15970
 C26 C 0.34586 0.84925 -0.17076
 C27 C 0.35736 0.83832 -0.17101
 C28 C 0.36984 0.81788 -0.16360
 N29 N 0.37680 0.82302 -0.17631
 C30 C 0.36907 0.83564 -0.18078
 C31 C 0.34248 0.86109 -0.18014
 N32 N 0.32969 0.86822 -0.17516
 C33 C 0.32512 0.86073 -0.16253
 C34 C 0.32612 0.83429 -0.13673
 N35 N 0.33152 0.82170 -0.12975
 C36 C 0.34418 0.81711 -0.13717
 H37 H 0.37303 0.80807 -0.15711
 H38 H 0.37128 0.84237 -0.19063
 H39 H 0.34916 0.86411 -0.18982
 H40 H 0.31520 0.86322 -0.15588
 H41 H 0.31593 0.84038 -0.13364
 H42 H 0.35109 0.80743 -0.13424
 C43 C 0.84922 0.32957 -0.16008
 C44 C 0.83801 0.32964 -0.14891
 C45 C 0.82668 0.34051 -0.14914
 C46 C 0.82637 0.35140 -0.16060
 C47 C 0.83737 0.35122 -0.17155
 C48 C 0.84887 0.34029 -0.17126
 C49 C 0.86137 0.32022 -0.16298
 N50 N 0.86851 0.32498 -0.17575
 C51 C 0.86073 0.33736 -0.18075
 C52 C 0.83410 0.36262 -0.18145
 N53 N 0.82124 0.36993 -0.17695
 C54 C 0.81654 0.36302 -0.16405
 C55 C 0.81723 0.33762 -0.13720
 N56 N 0.82250 0.32525 -0.12976
 C57 C 0.83521 0.32033 -0.13688
 H58 H 0.86450 0.31062 -0.15615
 H59 H 0.86311 0.34388 -0.19071
 H60 H 0.84091 0.36526 -0.19116
 H61 H 0.80648 0.36576 -0.15770
 H62 H 0.80706 0.34385 -0.13437
 H63 H 0.84200 0.31069 -0.13354
 C64 C 0.85349 0.82803 0.33398
 C65 C 0.84244 0.82842 0.34523
 C66 C 0.83145 0.83956 0.34511
 C67 C 0.83136 0.85045 0.33366
 C68 C 0.84226 0.85006 0.32258
 C69 C 0.85345 0.83872 0.32274
 C70 C 0.86524 0.81825 0.33119
 N71 N 0.87257 0.82260 0.31841
 C72 C 0.86528 0.83525 0.31326
 C73 C 0.83916 0.86175 0.31287
 N74 N 0.82656 0.86937 0.31767
 C75 C 0.82183 0.86235 0.33050
 C76 C 0.82204 0.83689 0.35715
 N77 N 0.82704 0.82437 0.36452
 C78 C 0.83955 0.81916 0.35727
 H79 H 0.86803 0.80871 0.33822
 H80 H 0.86797 0.84150 0.30321
 H81 H 0.84566 0.86414 0.30290
 H82 H 0.81219 0.86545 0.33729
 H83 H 0.81205 0.84338 0.36007
 H84 H 0.84613 0.80935 0.36051
 C85 C 0.65006 0.67037 0.33797
 C86 C 0.66111 0.67096 0.34935
 C87 C 0.67260 0.66031 0.34971
 C88 C 0.67322 0.64895 0.33882
 C89 C 0.66238 0.64836 0.32761
 C90 C 0.65073 0.65918 0.32715
 C91 C 0.63780 0.67942 0.33452
 N92 N 0.63107 0.67403 0.32185
 C93 C 0.63893 0.66164 0.31730
 C94 C 0.66608 0.63642 0.31843
 N95 N 0.67892 0.62974 0.32383
 C96 C 0.68332 0.63739 0.33632
 C97 C 0.68202 0.66388 0.36149
 N98 N 0.67659 0.67647 0.36835
 C99 C 0.66374 0.68084 0.36102
 H100 H 0.63429 0.68941 0.34058
 H101 H 0.63626 0.65485 0.30755
 H102 H 0.66004 0.63308 0.30838
 H103 H 0.69310 0.63472 0.34321
 H104 H 0.69214 0.65776 0.36479
 H105 H 0.65705 0.69074 0.36369
 C106 C 0.64705 0.17418 -0.15808
 C107 C 0.65838 0.17370 -0.14698
 C108 C 0.66925 0.16247 -0.14734
 C109 C 0.66899 0.15161 -0.15874
 C110 C 0.65788 0.15205 -0.16964
 C111 C 0.64678 0.16346 -0.16931
 C112 C 0.63526 0.18401 -0.16077
 N113 N 0.62766 0.17964 -0.17343
 C114 C 0.63480 0.16696 -0.17863
 C115 C 0.66082 0.14038 -0.17944
 N116 N 0.67357 0.13284 -0.17481
 C117 C 0.67849 0.13981 -0.16203
 C118 C 0.67909 0.16499 -0.13560
 N119 N 0.67450 0.17753 -0.12808
 C120 C 0.66179 0.18291 -0.13498
 H121 H 0.63269 0.19363 -0.15379
 H122 H 0.63187 0.16064 -0.18858
 H123 H 0.65422 0.13802 -0.18940
 H124 H 0.68825 0.13673 -0.15532
 H125 H 0.68887 0.15814 -0.13278
 H126 H 0.65568 0.19302 -0.13179
 C127 C 0.14264 0.67609 -0.15793
 C128 C 0.15363 0.67665 -0.14651
 C129 C 0.16484 0.66576 -0.14583
 C130 C 0.16525 0.65418 -0.15654
 C131 C 0.15445 0.65363 -0.16775
 C132 C 0.14305 0.66471 -0.16847
 C133 C 0.13067 0.68537 -0.16155
 N134 N 0.12362 0.68002 -0.17415
 C135 C 0.13129 0.66727 -0.17835
 C136 C 0.15785 0.64137 -0.17663
 N137 N 0.17054 0.63434 -0.17113
 C138 C 0.17501 0.64229 -0.15875
 C139 C 0.17410 0.66927 -0.13387
 N140 N 0.16879 0.68206 -0.12724
 C141 C 0.15624 0.68663 -0.13495
 H142 H 0.12775 0.69546 -0.15539
 H143 H 0.12873 0.66016 -0.18787
 H144 H 0.15144 0.63816 -0.18647
 H145 H 0.18466 0.63988 -0.15163
 H146 H 0.18418 0.66313 -0.13051
 H147 H 0.14942 0.69645 -0.13233
 C148 C 0.14531 0.16741 0.34808
 C149 C 0.15654 0.16761 0.35927
 C150 C 0.16785 0.15673 0.35942
 C151 C 0.16806 0.14549 0.34827
 C152 C 0.15699 0.14540 0.33731
 C153 C 0.14554 0.15637 0.33725
 C154 C 0.13335 0.17686 0.34479
 N155 N 0.12620 0.17187 0.33209
 C156 C 0.13377 0.15921 0.32753
 C157 C 0.16019 0.13381 0.32766
 N158 N 0.17309 0.12662 0.33232
 C159 C 0.17788 0.13379 0.34507
 C160 C 0.17739 0.16007 0.37126
 N161 N 0.17217 0.17273 0.37821
 C162 C 0.15941 0.17737 0.37092
 H163 H 0.13033 0.18668 0.35132
 H164 H 0.13142 0.15260 0.31763
 H165 H 0.15332 0.13098 0.31801
 H166 H 0.18802 0.13120 0.35145
 H167 H 0.18759 0.15397 0.37434
 H168 H 0.15265 0.18714 0.37386
 C169 C 0.64727 0.32724 0.65173
 C170 C 0.65867 0.32742 0.64077
 C171 C 0.66958 0.33874 0.64084
 C172 C 0.66933 0.34996 0.65191
 C173 C 0.65808 0.34985 0.66270
 C174 C 0.64693 0.33839 0.66259
 C175 C 0.63546 0.31739 0.65462
 N176 N 0.62792 0.32228 0.66696
 C177 C 0.63487 0.33515 0.67189
 C178 C 0.66097 0.36184 0.67217
 N179 N 0.67376 0.36912 0.66742
 C180 C 0.67889 0.36192 0.65500
 C181 C 0.67935 0.33594 0.62918
 N182 N 0.67467 0.32317 0.62201
 C183 C 0.66201 0.31788 0.62906
 H184 H 0.63256 0.30742 0.64816
 H185 H 0.63163 0.34150 0.68172
 H186 H 0.65451 0.36477 0.68204
 H187 H 0.68889 0.36511 0.64867
 H188 H 0.68935 0.34255 0.62635
 H189 H 0.65564 0.30785 0.62589
 C190 C 0.64853 0.82719 1.15419
 C191 C 0.65930 0.82720 1.14267
 C192 C 0.67028 0.83843 1.14202
 C193 C 0.67065 0.84980 1.15298
 C194 C 0.66000 0.84977 1.16437
 C195 C 0.64881 0.83836 1.16495
 C196 C 0.63688 0.81742 1.15767
 N197 N 0.62984 0.82226 1.17038
 C198 C 0.63720 0.83519 1.17483
 C199 C 0.66343 0.86181 1.17359
 N200 N 0.67590 0.86913 1.16811
 C201 C 0.68034 0.86181 1.15547
 C202 C 0.67944 0.83527 1.12993
 N203 N 0.67429 0.82234 1.12333
 C204 C 0.66195 0.81738 1.13107
 H205 H 0.63386 0.80762 1.15107
 H206 H 0.63475 0.84178 1.18470
 H207 H 0.65750 0.86473 1.18378
 H208 H 0.68992 0.86497 1.14853
 H209 H 0.68936 0.84167 1.12648
 H210 H 0.65537 0.80732 1.12849
 C211 C 0.14874 0.33160 1.16054
 C212 C 0.15899 0.33088 1.14856
 C213 C 0.17030 0.34174 1.14709
 C214 C 0.17156 0.35344 1.15766
 C215 C 0.16147 0.35404 1.16948
 C216 C 0.14998 0.34309 1.17088
 C217 C 0.13689 0.32243 1.16501
 N218 N 0.13078 0.32803 1.17792
 C219 C 0.13892 0.34077 1.18146
 C220 C 0.16561 0.36611 1.17830
 N221 N 0.17802 0.37292 1.17217
 C222 C 0.18171 0.36526 1.15949
 C223 C 0.17879 0.33791 1.13473
 N224 N 0.17294 0.32498 1.12871
 C225 C 0.16081 0.32064 1.13712
 H226 H 0.13322 0.31241 1.15908
 H227 H 0.13733 0.34791 1.19112
 H228 H 0.16000 0.36966 1.18846
 H229 H 0.19131 0.36783 1.15235
 H230 H 0.18875 0.34388 1.13070
 H231 H 0.15380 0.31073 1.13511
 C232 C 0.14662 0.83356 0.65430
 C233 C 0.15877 0.83444 0.64418
 C234 C 0.16994 0.84534 0.64608
 C235 C 0.16912 0.85554 0.65806
 C236 C 0.15719 0.85470 0.66800
 C237 C 0.14586 0.84359 0.66615
 C238 C 0.13444 0.82380 0.65554
 N239 N 0.12631 0.82761 0.66789
 C240 C 0.13324 0.83973 0.67443
 C241 C 0.15961 0.86571 0.67865
 N242 N 0.17281 0.87331 0.67550
 C243 C 0.17860 0.86698 0.66279
 C244 C 0.18060 0.84319 0.63505
 N245 N 0.17617 0.83123 0.62648
 C246 C 0.16278 0.82584 0.63199
 H247 H 0.13196 0.81433 0.64823
 H248 H 0.12942 0.84533 0.68451
 H249 H 0.15227 0.86759 0.68813
 H250 H 0.18891 0.87031 0.65710
 H251 H 0.19085 0.84983 0.63344
 H252 H 0.15664 0.81610 0.62773
 C253 C 0.35318 0.66283 0.65862
 C254 C 0.34184 0.66371 0.64754
 C255 C 0.33001 0.65332 0.64744
 C256 C 0.32935 0.64190 0.65831
 C257 C 0.34049 0.64103 0.66921
 C258 C 0.35247 0.65157 0.66939
 C259 C 0.36565 0.67173 0.66193
 N260 N 0.37246 0.66619 0.67447
 C261 C 0.36445 0.65384 0.67907
 C262 C 0.33662 0.62926 0.67858
 N263 N 0.32337 0.62296 0.67363
 C264 C 0.31888 0.63066 0.66121
 C265 C 0.32039 0.65719 0.63593
 N266 N 0.32605 0.66969 0.62898
 C267 C 0.33922 0.67373 0.63600
 H268 H 0.36920 0.68179 0.65592
 H269 H 0.36708 0.64701 0.68879
 H270 H 0.34301 0.62561 0.68831
 H271 H 0.30850 0.62859 0.65496
 H272 H 0.31001 0.65130 0.63285
 H273 H 0.34616 0.68349 0.63321
 C274 C 0.35351 0.16320 1.16019
 C275 C 0.34214 0.16395 1.14920
 C276 C 0.33045 0.15339 1.14901
 C277 C 0.32999 0.14194 1.15994
 C278 C 0.34121 0.14125 1.17075
 C279 C 0.35309 0.15190 1.17086
 C280 C 0.36576 0.17237 1.16346
 N281 N 0.37280 0.16690 1.17590
 C282 C 0.36512 0.15433 1.18047
 C283 C 0.33760 0.12956 1.18023
 N284 N 0.32431 0.12294 1.17561
 C285 C 0.31970 0.13056 1.16306
 C286 C 0.32084 0.15729 1.13740
 N287 N 0.32642 0.16997 1.13066
 C288 C 0.33945 0.17407 1.13784
 H289 H 0.36920 0.18237 1.15731
 H290 H 0.36775 0.14775 1.19036
 H291 H 0.34439 0.12635 1.18980
 H292 H 0.30938 0.12851 1.15675
 H293 H 0.31037 0.15155 1.13435
 H294 H 0.34652 0.18373 1.13500
 C295 C 0.85180 0.66792 1.15290
 C296 C 0.84037 0.66753 1.14191
 C297 C 0.82898 0.65673 1.14267
 C298 C 0.82887 0.64615 1.15435
 C299 C 0.84013 0.64646 1.16518
 C300 C 0.85173 0.65745 1.16445
 C301 C 0.86396 0.67749 1.15524
 N302 N 0.87133 0.67313 1.16792
 C303 C 0.86393 0.66084 1.17360
 C304 C 0.83678 0.63513 1.17530
 N305 N 0.82375 0.62802 1.17084
 C306 C 0.81890 0.63473 1.15800
 C307 C 0.81914 0.65934 1.13098
 N308 N 0.82427 0.67147 1.12309
 C309 C 0.83730 0.67653 1.12968
 H310 H 0.86719 0.68694 1.14819
 H311 H 0.86696 0.65502 1.18385
 H312 H 0.84318 0.63252 1.18534
 H313 H 0.80886 0.63153 1.15168
 H314 H 0.80896 0.65286 1.12844
 H315 H 0.84384 0.68631 1.12612
 C316 C 0.85487 0.16819 0.65577
 C317 C 0.84391 0.16878 0.64429
 C318 C 0.83233 0.15813 0.64383
 C319 C 0.83156 0.14674 0.65470
 C320 C 0.84237 0.14610 0.66593
 C321 C 0.85409 0.15693 0.66646
 C322 C 0.86699 0.17738 0.65950
 N323 N 0.87370 0.17206 0.67229
 C324 C 0.86572 0.15943 0.67647
 C325 C 0.83847 0.13421 0.67516
 N326 N 0.82551 0.12768 0.66981
 C327 C 0.82123 0.13530 0.65727
 C328 C 0.82301 0.16174 0.63201
 N329 N 0.82862 0.17433 0.62519
 C330 C 0.84145 0.17870 0.63262
 H331 H 0.87041 0.18726 0.65319
 H332 H 0.86769 0.15261 0.68632
 H333 H 0.84440 0.13086 0.68526
 H334 H 0.81131 0.13275 0.65050
 H335 H 0.81287 0.15561 0.62862
 H336 H 0.84825 0.18860 0.62998
 C337 C 0.32358 0.35534 0.66474
 C338 C 0.32348 0.34368 0.65411
 C339 C 0.33482 0.33288 0.65423
 C340 C 0.34643 0.33360 0.66504
 C341 C 0.34650 0.34509 0.67556
 C342 C 0.33498 0.35606 0.67540
 C343 C 0.31380 0.36713 0.66742
 N344 N 0.31896 0.37506 0.67947
 C345 C 0.33195 0.36832 0.68441
 C346 C 0.35886 0.34278 0.68478
 N347 N 0.36633 0.33018 0.68012
 C348 C 0.35877 0.32452 0.66803
 C349 C 0.33167 0.32288 0.64280
 N350 N 0.31869 0.32735 0.63574
 C351 C 0.31364 0.34009 0.64263
 H352 H 0.30346 0.36948 0.66124
 H353 H 0.33875 0.37205 0.69384
 H354 H 0.36219 0.34984 0.69414
 H355 H 0.36181 0.31435 0.66201
 H356 H 0.33823 0.31292 0.64005
 H357 H 0.30361 0.34643 0.63948
 C358 C 0.32788 0.85390 0.16064
 C359 C 0.32846 0.84327 0.14904
 C360 C 0.33979 0.83244 0.14883
 C361 C 0.35071 0.83209 0.16036
 C362 C 0.35005 0.84256 0.17186
 C363 C 0.33859 0.85355 0.17198
 C364 C 0.31791 0.86540 0.16383
 N365 N 0.32227 0.87209 0.17686
 C366 C 0.33494 0.86487 0.18191
 C367 C 0.36165 0.83930 0.18168
 N368 N 0.36940 0.82711 0.17648
 C369 C 0.36279 0.82264 0.16340
 C370 C 0.33711 0.82338 0.13652
 N371 N 0.32439 0.82844 0.12938
 C372 C 0.31910 0.84064 0.13698
 H373 H 0.30822 0.86866 0.15706
 H374 H 0.34090 0.86737 0.19224
 H375 H 0.36428 0.84543 0.19186
 H376 H 0.36627 0.81302 0.15677
 H377 H 0.34365 0.81356 0.13328
 H378 H 0.30911 0.84713 0.13401
 C379 C 0.83310 0.35177 0.15883
 C380 C 0.83318 0.34103 0.14724
 C381 C 0.84450 0.33020 0.14677
 C382 C 0.85588 0.32995 0.15777
 C383 C 0.85583 0.34051 0.16914
 C384 C 0.84436 0.35147 0.16969
 C385 C 0.82332 0.36333 0.16252
 N386 N 0.82838 0.37002 0.17535
 C387 C 0.84128 0.36279 0.17975
 C388 C 0.86782 0.33719 0.17850
 N389 N 0.87517 0.32484 0.17308
 C390 C 0.86790 0.32037 0.16036
 C391 C 0.84150 0.32093 0.13478
 N392 N 0.82863 0.32582 0.12787
 C393 C 0.82348 0.33816 0.13539
 H394 H 0.81308 0.36637 0.15649
 H395 H 0.84802 0.36557 0.18953
 H396 H 0.87065 0.34309 0.18876
 H397 H 0.87107 0.31082 0.15347
 H398 H 0.84823 0.31130 0.13136
 H399 H 0.81321 0.34435 0.13271
 C400 C 0.82640 0.85723 0.65623
 C401 C 0.82680 0.84656 0.64466
 C402 C 0.83833 0.83598 0.64414
 C403 C 0.84963 0.83591 0.65529
 C404 C 0.84919 0.84644 0.66675
 C405 C 0.83752 0.85723 0.66719
 C406 C 0.81628 0.86851 0.65967
 N407 N 0.82097 0.87543 0.67246
 C408 C 0.83400 0.86860 0.67714
 C409 C 0.86114 0.84335 0.67625
 N410 N 0.86884 0.83121 0.67086
 C411 C 0.86189 0.82662 0.65801
 C412 C 0.83550 0.82683 0.63193
 N413 N 0.82248 0.83161 0.62514
 C414 C 0.81714 0.84369 0.63288
 H415 H 0.80626 0.87149 0.65325
 H416 H 0.84027 0.87145 0.68720
 H417 H 0.86396 0.84949 0.68637
 H418 H 0.86521 0.81696 0.65135
 H419 H 0.84218 0.81718 0.62850
 H420 H 0.80695 0.84998 0.63016
 C421 C 0.67210 0.64666 0.65206
 C422 C 0.67249 0.65741 0.64046
 C423 C 0.66164 0.66872 0.63987
 C424 C 0.65022 0.66942 0.65078
 C425 C 0.64987 0.65885 0.66217
 C426 C 0.66089 0.64745 0.66284
 C427 C 0.68133 0.63462 0.65577
 N428 N 0.67598 0.62820 0.66857
 C429 C 0.66346 0.63600 0.67292
 C430 C 0.63787 0.66242 0.67131
 N431 N 0.63085 0.67492 0.66577
 C432 C 0.63839 0.67929 0.65319
 C433 C 0.66508 0.67781 0.62785
 N434 N 0.67775 0.67234 0.62108
 C435 C 0.68233 0.65982 0.62872
 H436 H 0.69137 0.63103 0.64978
 H437 H 0.65664 0.63349 0.68270
 H438 H 0.63475 0.65650 0.68147
 H439 H 0.63546 0.68888 0.64622
 H440 H 0.65880 0.68772 0.62431
 H441 H 0.69233 0.65319 0.62619
 C442 C 0.66900 0.14990 0.15962
 C443 C 0.66982 0.16143 0.14876
 C444 C 0.65915 0.17290 0.14879
 C445 C 0.64754 0.17303 0.15947
 C446 C 0.64667 0.16172 0.17009
 C447 C 0.65751 0.15011 0.17021
 C448 C 0.67807 0.13759 0.16283
 N449 N 0.67240 0.13044 0.17512
 C450 C 0.65980 0.13803 0.17964
 C451 C 0.63451 0.16503 0.17921
 N452 N 0.62806 0.17813 0.17436
 C453 C 0.63600 0.18307 0.16226
 C454 C 0.66286 0.18282 0.13756
 N455 N 0.67556 0.17775 0.13059
 C456 C 0.67989 0.16461 0.13732
 H457 H 0.68829 0.13437 0.15692
 H458 H 0.65279 0.13504 0.18914
 H459 H 0.63087 0.15858 0.18887
 H460 H 0.63355 0.19321 0.15591
 H461 H 0.65670 0.19301 0.13466
 H462 H 0.68982 0.15805 0.13436
 C463 C 0.17464 0.64565 0.15685
 C464 C 0.17454 0.65646 0.14539
 C465 C 0.16276 0.66671 0.14432
 C466 C 0.15091 0.66632 0.15480
 C467 C 0.15102 0.65567 0.16619
 C468 C 0.16297 0.64518 0.16718
 C469 C 0.18483 0.63453 0.16063
 N470 N 0.17968 0.62724 0.17302
 C471 C 0.16627 0.63367 0.17710
 C472 C 0.13841 0.65830 0.17493
 N473 N 0.13065 0.67025 0.16911
 C474 C 0.13823 0.67518 0.15678
 C475 C 0.16589 0.67603 0.13232
 N476 N 0.17932 0.67168 0.12616
 C477 C 0.18465 0.65968 0.13411
 H478 H 0.19520 0.63188 0.15469
 H479 H 0.15955 0.63041 0.18672
 H480 H 0.13516 0.65198 0.18481
 H481 H 0.13502 0.68479 0.14996
 H482 H 0.15908 0.68550 0.12860
 H483 H 0.19510 0.65367 0.13185
 C484 C 0.16999 0.14526 0.66431
 C485 C 0.16987 0.15630 0.65299
 C486 C 0.15883 0.16744 0.65298
 C487 C 0.14772 0.16768 0.66423
 C488 C 0.14790 0.15683 0.67537
 C489 C 0.15908 0.14558 0.67542
 C490 C 0.17958 0.13337 0.66751
 N491 N 0.17476 0.12656 0.68033
 C492 C 0.16220 0.13399 0.68519
 C493 C 0.13626 0.16007 0.68507
 N494 N 0.12896 0.17266 0.68012
 C495 C 0.13589 0.17738 0.66733
 C496 C 0.16182 0.17689 0.64110
 N497 N 0.17440 0.17181 0.63388
 C498 C 0.17936 0.15917 0.64107
 H499 H 0.18955 0.13017 0.66120
 H500 H 0.15575 0.13117 0.69512
 H501 H 0.13333 0.15368 0.69500
 H502 H 0.13282 0.18734 0.66095
 H503 H 0.15529 0.18678 0.63799
 H504 H 0.18940 0.15277 0.63815
 C505 C 0.33240 0.64811 0.34520
 C506 C 0.33241 0.65927 0.35632
 C507 C 0.34349 0.67043 0.35636
 C508 C 0.35466 0.67061 0.34520
 C509 C 0.35471 0.65956 0.33422
 C510 C 0.34347 0.64819 0.33423
 C511 C 0.32270 0.63624 0.34221
 N512 N 0.32757 0.62904 0.32969
 C513 C 0.34032 0.63626 0.32475
 C514 C 0.36656 0.66289 0.32468
 N515 N 0.37361 0.67572 0.32957
 C516 C 0.36640 0.68047 0.34214
 C517 C 0.34045 0.67991 0.36819
 N518 N 0.32776 0.67479 0.37529
 C519 C 0.32279 0.66215 0.36807
 H520 H 0.31281 0.63308 0.34873
 H521 H 0.34661 0.63331 0.31478
 H522 H 0.36952 0.65668 0.31468
 H523 H 0.36942 0.69041 0.34860
 H524 H 0.34680 0.69000 0.37118
 H525 H 0.31291 0.65548 0.37114
 C526 C 0.33195 0.14683 0.84437
 C527 C 0.33102 0.15789 0.85558
 C528 C 0.34125 0.16984 0.85580
 C529 C 0.35258 0.17090 0.84478
 C530 C 0.35343 0.16001 0.83371
 C531 C 0.34306 0.14788 0.83352
 C532 C 0.32332 0.13418 0.84121
 N533 N 0.32891 0.12751 0.82867
 C534 C 0.34102 0.13587 0.82392
 C535 C 0.36522 0.16400 0.82441
 N536 N 0.37163 0.17704 0.82955
 C537 C 0.36395 0.18133 0.84204
 C538 C 0.33736 0.17897 0.86767
 N539 N 0.32500 0.17287 0.87463
 C540 C 0.32111 0.15994 0.86727
 H541 H 0.31370 0.13014 0.84764
 H542 H 0.34765 0.13365 0.81398
 H543 H 0.36895 0.15776 0.81468
 H544 H 0.36627 0.19144 0.84852
 H545 H 0.34291 0.18950 0.87073
 H546 H 0.31176 0.15250 0.87019
 C547 C 0.82891 0.64589 0.83781
 C548 C 0.82957 0.65737 0.84864
 C549 C 0.84044 0.66867 0.84754
 C550 C 0.85083 0.66863 0.83569
 C551 C 0.85026 0.65729 0.82504
 C552 C 0.83918 0.64584 0.82610
 C553 C 0.81911 0.63389 0.83565
 N554 N 0.82312 0.62655 0.82289
 C555 C 0.83543 0.63380 0.81701
 C556 C 0.86144 0.66043 0.81468
 N557 N 0.86869 0.67343 0.81879
 C558 C 0.86224 0.67849 0.83164
 C559 C 0.83804 0.67863 0.85910
 N560 N 0.82596 0.67366 0.86724
 C561 C 0.82073 0.66062 0.86092
 H562 H 0.80970 0.63083 0.84285
 H563 H 0.84097 0.63087 0.80662
 H564 H 0.86386 0.65393 0.80471
 H565 H 0.86562 0.68859 0.83767
 H566 H 0.84460 0.68878 0.86137
 H567 H 0.81094 0.65421 0.86470
 C568 C 0.83120 0.14452 0.33936
 C569 C 0.83143 0.15507 0.35112
 C570 C 0.84255 0.16621 0.35153
 C571 C 0.85351 0.16706 0.34020
 C572 C 0.85321 0.15676 0.32858
 C573 C 0.84201 0.14542 0.32817
 C574 C 0.82167 0.13258 0.33584
 N575 N 0.82643 0.12629 0.32279
 C576 C 0.83888 0.13411 0.31805
 C577 C 0.86483 0.16056 0.31899
 N578 N 0.87220 0.17294 0.32451
 C579 C 0.86534 0.17696 0.33751
 C580 C 0.83984 0.17506 0.36387
 N581 N 0.82729 0.16964 0.37099
 C582 C 0.82207 0.15740 0.36324
 H583 H 0.81182 0.12895 0.34218
 H584 H 0.84530 0.13170 0.30801
 H585 H 0.86771 0.15469 0.30876
 H586 H 0.86846 0.18661 0.34435
 H587 H 0.84628 0.18500 0.36716
 H588 H 0.81217 0.15069 0.36617
 C589 C 0.66873 0.35263 0.34125
 C590 C 0.66966 0.34148 0.35244
 C591 C 0.65849 0.33043 0.35341
 C592 C 0.64625 0.33040 0.34334
 C593 C 0.64528 0.34141 0.33239
 C594 C 0.65662 0.35257 0.33132
 C595 C 0.67821 0.36438 0.33717
 N596 N 0.67216 0.37143 0.32498
 C597 C 0.65892 0.36425 0.32139
 C598 C 0.63255 0.33823 0.32392
 N599 N 0.62582 0.32552 0.32945
 C600 C 0.63415 0.32068 0.34135
 C601 C 0.66249 0.32084 0.36485
 N602 N 0.67580 0.32577 0.37094
 C603 C 0.68026 0.33843 0.36342
 H604 H 0.68895 0.36724 0.34243
 H605 H 0.65145 0.36725 0.31220
 H606 H 0.62875 0.34445 0.31416
 H607 H 0.63165 0.31076 0.34806
 H608 H 0.65609 0.31101 0.36851
 H609 H 0.69062 0.34477 0.36556
 C610 C 0.66626 0.85643 0.84237
 C611 C 0.66690 0.84462 0.85283
 C612 C 0.65640 0.83292 0.85222
 C613 C 0.64517 0.83283 0.84102
 C614 C 0.64462 0.84446 0.83064
 C615 C 0.65521 0.85636 0.83134
 C616 C 0.67532 0.86892 0.84005
 N617 N 0.67006 0.87652 0.82786
 C618 C 0.65774 0.86887 0.82247
 C619 C 0.63311 0.84109 0.82071
 N620 N 0.62663 0.82770 0.82478
 C621 C 0.63392 0.82260 0.83724
 C622 C 0.66012 0.82288 0.86346
 N623 N 0.67265 0.82820 0.87076
 C624 C 0.67683 0.84152 0.86431
 H625 H 0.68531 0.87196 0.84653
 H626 H 0.65107 0.87210 0.81278
 H627 H 0.62977 0.84787 0.81116
 H628 H 0.63156 0.81199 0.84287
 H629 H 0.65439 0.81228 0.86585
 H630 H 0.68643 0.84845 0.86770
 C631 C 0.16455 0.35458 0.85203
 C632 C 0.16500 0.34237 0.86205
 C633 C 0.15400 0.33113 0.86132
 C634 C 0.14234 0.33200 0.85058
 C635 C 0.14185 0.34411 0.84077
 C636 C 0.15306 0.35544 0.84147
 C637 C 0.17408 0.36676 0.84974
 N638 N 0.16868 0.37501 0.83802
 C639 C 0.15578 0.36814 0.83293
 C640 C 0.12963 0.34182 0.83137
 N641 N 0.12269 0.32859 0.83519
 C642 C 0.13042 0.32250 0.84694
 C643 C 0.15752 0.32056 0.87211
 N644 N 0.17034 0.32515 0.87941
 C645 C 0.17498 0.33848 0.87329
 H646 H 0.18446 0.36912 0.85588
 H647 H 0.14886 0.37201 0.82366
 H648 H 0.12631 0.34907 0.82216
 H649 H 0.12760 0.31194 0.85244
 H650 H 0.15111 0.31036 0.87453
 H651 H 0.18505 0.34478 0.87657
 C652 C 0.16904 0.84749 0.34588
 C653 C 0.16808 0.83620 0.35687
 C654 C 0.15726 0.82487 0.35565
 C655 C 0.14716 0.82474 0.34348
 C656 C 0.14800 0.83593 0.33266
 C657 C 0.15909 0.84740 0.33385
 C658 C 0.17884 0.85949 0.34396
 N659 N 0.17518 0.86674 0.33102
 C660 C 0.16305 0.85941 0.32479
 C661 C 0.13696 0.83275 0.32211
 N662 N 0.12951 0.81988 0.32627
 C663 C 0.13571 0.81494 0.33933
 C664 C 0.15938 0.81517 0.36754
 N665 N 0.17121 0.82039 0.37596
 C666 C 0.17657 0.83328 0.36949
 H667 H 0.18799 0.86268 0.35148
 H668 H 0.15775 0.86230 0.31422
 H669 H 0.13472 0.83917 0.31203
 H670 H 0.13209 0.80499 0.34548
 H671 H 0.15280 0.80505 0.36986
 H672 H 0.18624 0.83982 0.37342
 O673 O 0.23081 0.98434 0.26078
 O674 O 0.25261 1.01358 0.24095
 O675 O 0.25217 0.98412 0.24064
 O676 O 0.23242 1.01377 0.26219
 O677 O 0.25017 1.01241 0.27965
 O678 O 0.27015 0.98347 0.25793
 O679 O 0.27040 1.01289 0.25841
 O680 O 0.24877 0.98290 0.27804
 Cu681 Cu 0.24020 0.99905 0.24942
 Cu682 Cu 0.26164 0.99781 0.27026
 C683 C 0.23604 0.97851 0.27271
 C684 C 0.26519 1.01830 0.24623
 C685 C 0.26464 0.97880 0.24561
 C686 C 0.23796 1.01816 0.27463
 O687 O 0.22333 0.48729 0.75829
 O688 O 0.24592 0.51607 0.73831
 O689 O 0.24564 0.48669 0.73924
 O690 O 0.22347 0.51686 0.75722
 O691 O 0.23997 0.51753 0.77587
 O692 O 0.26202 0.48711 0.75800
 O693 O 0.26240 0.51661 0.75698
 O694 O 0.23970 0.48802 0.77705
 Cu695 Cu 0.23292 0.50167 0.74641
 Cu696 Cu 0.25266 0.50237 0.76886
 C697 C 0.22769 0.48268 0.77108
 C698 C 0.25804 0.52125 0.74421
 C699 C 0.25761 0.48172 0.74552
 C700 C 0.22798 0.52244 0.76957
 O701 O 0.76604 0.01312 0.25102
 O702 O 0.74561 -0.01595 0.22889
 O703 O 0.74689 0.01364 0.22876
 O704 O 0.76566 -0.01642 0.25039
 O705 O 0.74684 -0.01632 0.26666
 O706 O 0.72807 0.01407 0.24502
 O707 O 0.72678 -0.01541 0.24515
 O708 O 0.74721 0.01326 0.26728
 Cu709 Cu 0.75792 -0.00144 0.23814
 Cu710 Cu 0.73535 -0.00108 0.25766
 C711 C 0.76005 0.01820 0.26293
 C712 C 0.73266 -0.02066 0.23329
 C713 C 0.73434 0.01909 0.23319
 C714 C 0.75948 -0.02159 0.26217
 O715 O 0.76697 0.51111 0.74835
 O716 O 0.74428 0.48220 0.72858
 O717 O 0.74711 0.51154 0.72675
 O718 O 0.76426 0.48183 0.75013
 O719 O 0.74595 0.48447 0.76674
 O720 O 0.72856 0.51401 0.74313
 O721 O 0.72596 0.48461 0.74522
 O722 O 0.74850 0.51385 0.76477
 Cu723 Cu 0.75749 0.49640 0.73680
 Cu724 Cu 0.73538 0.49951 0.75661
 C725 C 0.76160 0.51748 0.75992
 C726 C 0.73129 0.47836 0.73357
 C727 C 0.73491 0.51790 0.73095
 C728 C 0.75808 0.47804 0.76242
 O729 O 0.25675 0.48494 0.27102
 O730 O 0.23473 0.51433 0.25164
 O731 O 0.23498 0.48481 0.25121
 O732 O 0.25725 0.51443 0.27061
 O733 O 0.27384 0.51443 0.25215
 O734 O 0.25175 0.48482 0.23289
 O735 O 0.25131 0.51435 0.23315
 O736 O 0.27347 0.48483 0.25266
 Cu737 Cu 0.24426 0.49963 0.26296
 Cu738 Cu 0.26427 0.49963 0.24088
 C739 C 0.26881 0.47978 0.26518
 C740 C 0.23923 0.51943 0.23912
 C741 C 0.23963 0.47968 0.23875
 C742 C 0.26934 0.51955 0.26464
 O743 O 0.74229 1.01875 0.76735
 O744 O 0.76477 0.98849 0.74991
 O745 O 0.76530 1.01799 0.74917
 O746 O 0.74181 0.98932 0.76818
 O747 O 0.72603 0.98887 0.74892
 O748 O 0.74944 1.01773 0.72998
 O749 O 0.74899 0.98830 0.73065
 O750 O 0.72638 1.01844 0.74821
 Cu751 Cu 0.75513 1.00367 0.76058
 Cu752 Cu 0.73611 1.00331 0.73752
 C753 C 0.73051 1.02379 0.76079
 C754 C 0.76072 0.98320 0.73728
 C755 C 0.76138 1.02280 0.73633
 C756 C 0.72995 0.98413 0.76179
 O757 O 0.75285 0.51377 0.23061
 O758 O 0.73199 0.48391 0.25123
 O759 O 0.73158 0.51336 0.25080
 O760 O 0.75213 0.48427 0.22986
 O761 O 0.76989 0.48361 0.24735
 O762 O 0.74977 0.51385 0.26787
 O763 O 0.74977 0.48437 0.26872
 O764 O 0.77104 0.51310 0.24768
 Cu765 Cu 0.74035 0.49882 0.23889
 Cu766 Cu 0.76192 0.49870 0.25963
 C767 C 0.76558 0.51849 0.23565
 C768 C 0.73731 0.47914 0.26363
 C769 C 0.73713 0.51869 0.26282
 C770 C 0.76444 0.47886 0.23499
 O771 O 0.23296 0.01280 0.75114
 O772 O 0.25147 -0.01680 0.77380
 O773 O 0.25175 0.01280 0.77369
 O774 O 0.23251 -0.01668 0.75136
 O775 O 0.25180 -0.01678 0.73562
 O776 O 0.27114 0.01253 0.75808
 O777 O 0.27074 -0.01698 0.75804
 O778 O 0.25238 0.01271 0.73554
 Cu779 Cu 0.24025 -0.00195 0.76409
 Cu780 Cu 0.26346 -0.00216 0.74526
 C781 C 0.23953 0.01786 0.73949
 C782 C 0.26426 -0.02202 0.76973
 C783 C 0.26471 0.01777 0.76967
 C784 C 0.23886 -0.02177 0.73966
 O785 O 0.25301 0.23000 0.98834
 O786 O 0.23243 0.25139 1.01749
 O787 O 0.23311 0.25176 0.98836
 O788 O 0.25138 0.22881 1.01754
 O789 O 0.27034 0.24522 1.01885
 O790 O 0.25210 0.26817 0.98928
 O791 O 0.25142 0.26779 1.01846
 O792 O 0.27197 0.24640 0.98980
 Cu793 Cu 0.24060 0.23883 1.00281
 Cu794 Cu 0.26334 0.25854 1.00422
 C795 C 0.26605 0.23460 0.98409
 C796 C 0.23847 0.26329 1.02296
 C797 C 0.23944 0.26385 0.98377
 C798 C 0.26392 0.23309 1.02328
 O799 O 0.25359 0.77274 0.48849
 O800 O 0.27529 0.75300 0.51788
 O801 O 0.27569 0.75331 0.48865
 O802 O 0.25297 0.77235 0.51761
 O803 O 0.23645 0.75346 0.51717
 O804 O 0.25900 0.73457 0.48813
 O805 O 0.25872 0.73417 0.51723
 O806 O 0.23687 0.75403 0.48807
 Cu807 Cu 0.26607 0.76473 0.50323
 Cu808 Cu 0.24610 0.74217 0.50260
 C809 C 0.24152 0.76677 0.48324
 C810 C 0.27071 0.74020 0.52260
 C811 C 0.27117 0.74070 0.48336
 C812 C 0.24082 0.76615 0.52235
 O813 O 0.27135 0.75321 -0.01533
 O814 O 0.24987 0.73316 0.01415
 O815 O 0.24970 0.73297 -0.01493
 O816 O 0.27213 0.75265 0.01390
 O817 O 0.25526 0.77107 0.01435
 O818 O 0.23289 0.75145 -0.01490
 O819 O 0.23299 0.75158 0.01429
 O820 O 0.25456 0.77170 -0.01478
 Cu821 Cu 0.26246 0.74116 -0.00060
 Cu822 Cu 0.24224 0.76330 -0.00025
 C823 C 0.26660 0.76592 -0.02008
 C824 C 0.23774 0.73898 0.01927
 C825 C 0.23748 0.73878 -0.01987
 C826 C 0.26751 0.76515 0.01917
 O827 O 0.26922 0.25087 0.49100
 O828 O 0.25203 0.22628 0.52002
 O829 O 0.25127 0.22733 0.49077
 O830 O 0.27093 0.24909 0.52011
 O831 O 0.25118 0.26431 0.52195
 O832 O 0.23172 0.24286 0.49193
 O833 O 0.23229 0.24159 0.52103
 O834 O 0.24970 0.26640 0.49290
 Cu835 Cu 0.26282 0.23684 0.50532
 Cu836 Cu 0.23926 0.25533 0.50709
 C837 C 0.26233 0.26288 0.48707
 C838 C 0.23917 0.22980 0.52548
 C839 C 0.23820 0.23139 0.48623
 C840 C 0.26443 0.26034 0.52614
 O841 O 0.74737 0.76653 0.97972
 O842 O 0.77042 0.74744 1.00852
 O843 O 0.76834 0.74574 0.97947
 O844 O 0.74967 0.76824 1.00873
 O845 O 0.73188 0.75066 1.01085
 O846 O 0.75057 0.72814 0.98157
 O847 O 0.75272 0.72977 1.01060
 O848 O 0.72969 0.74884 0.98182
 Cu849 Cu 0.76073 0.75875 0.99386
 Cu850 Cu 0.73944 0.73758 0.99645
 C851 C 0.73460 0.76094 0.97581
 C852 C 0.76547 0.73536 1.01454
 C853 C 0.76265 0.73312 0.97547
 C854 C 0.73760 0.76328 1.01484
 O855 O 0.76257 0.23685 0.48231
 O856 O 0.74190 0.25811 0.51102
 O857 O 0.74226 0.25822 0.48191
 O858 O 0.76304 0.23759 0.51142
 O859 O 0.78097 0.25516 0.51116
 O860 O 0.76021 0.27577 0.48183
 O861 O 0.75984 0.27567 0.51106
 O862 O 0.78050 0.25441 0.48195
 Cu863 Cu 0.75065 0.24594 0.49668
 Cu864 Cu 0.77218 0.26701 0.49648
 C865 C 0.77501 0.24196 0.47715
 C866 C 0.74731 0.27046 0.51603
 C867 C 0.74773 0.27054 0.47680
 C868 C 0.77556 0.24290 0.51638
 O869 O 0.76535 0.25794 -0.01461
 O870 O 0.74801 0.23479 0.01497
 O871 O 0.74563 0.23590 -0.01416
 O872 O 0.76662 0.25778 0.01452
 O873 O 0.74757 0.27392 0.01569
 O874 O 0.72652 0.25192 -0.01245
 O875 O 0.72898 0.25091 0.01658
 O876 O 0.74621 0.27398 -0.01354
 Cu877 Cu 0.75830 0.24499 0.00004
 Cu878 Cu 0.73542 0.26430 0.00171
 C879 C 0.75877 0.26983 -0.01925
 C880 C 0.73560 0.23889 0.02093
 C881 C 0.73244 0.24022 -0.01820
 C882 C 0.76061 0.26960 0.02004
 O883 O 0.72907 0.75614 0.48165
 O884 O 0.75220 0.77512 0.51063
 O885 O 0.75073 0.77628 0.48150
 O886 O 0.73034 0.75512 0.51079
 O887 O 0.74745 0.73695 0.50967
 O888 O 0.76768 0.75799 0.48009
 O889 O 0.76923 0.75690 0.50926
 O890 O 0.74600 0.73780 0.48055
 Cu891 Cu 0.73889 0.76749 0.49628
 Cu892 Cu 0.75930 0.74559 0.49474
 C893 C 0.73362 0.74370 0.47612
 C894 C 0.76464 0.76922 0.51496
 C895 C 0.76264 0.77072 0.47569
 C896 C 0.73544 0.74247 0.51533
 O897 O 0.98709 0.25456 0.27498
 O898 O 1.01807 0.27265 0.25348
 O899 O 0.98852 0.27422 0.25329
 O900 O 1.01676 0.25366 0.27575
 O901 O 1.01626 0.23488 0.25950
 O902 O 0.98763 0.25534 0.23716
 O903 O 1.01719 0.25387 0.23724
 O904 O 0.98671 0.23570 0.25881
 Cu905 Cu 1.00268 0.26566 0.26602
 Cu906 Cu 1.00189 0.24306 0.24656
 C907 C 0.98162 0.24198 0.27053
 C908 C 1.02288 0.26634 0.24163
 C909 C 0.98320 0.26833 0.24141
 C910 C 1.02139 0.24078 0.27147
 O911 O 0.48383 0.25289 0.72818
 O912 O 0.51324 0.23174 0.74867
 O913 O 0.48357 0.23187 0.74859
 O914 O 0.51351 0.25311 0.72861
 O915 O 0.51349 0.27039 0.74641
 O916 O 0.48343 0.24931 0.76625
 O917 O 0.51319 0.24901 0.76648
 O918 O 0.48374 0.27030 0.74585
 Cu919 Cu 0.49855 0.24067 0.73674
 Cu920 Cu 0.49847 0.26149 0.75803
 C921 C 0.47868 0.26517 0.73351
 C922 C 0.51831 0.23675 0.76105
 C923 C 0.47829 0.23702 0.76079
 C924 C 0.51868 0.26536 0.73414
 O925 O 0.01342 0.24876 0.77209
 O926 O -0.01563 0.23045 0.74836
 O927 O 0.01398 0.23064 0.74916
 O928 O -0.01626 0.24853 0.77134
 O929 O -0.01586 0.26823 0.75616
 O930 O 0.01431 0.25030 0.73391
 O931 O -0.01536 0.25015 0.73317
 O932 O 0.01384 0.26838 0.75680
 Cu933 Cu -0.00116 0.23763 0.76177
 Cu934 Cu -0.00075 0.26125 0.74350
 C935 C 0.01869 0.26167 0.76845
 C936 C -0.02049 0.23717 0.73671
 C937 C 0.01935 0.23740 0.73776
 C938 C -0.02127 0.26144 0.76752
 O939 O 0.51220 0.25511 0.26821
 O940 O 0.48285 0.23348 0.24773
 O941 O 0.51252 0.23301 0.24900
 O942 O 0.48266 0.25516 0.26738
 O943 O 0.48330 0.27186 0.24901
 O944 O 0.51340 0.24969 0.23063
 O945 O 0.48382 0.25017 0.22936
 O946 O 0.51296 0.27180 0.24983
 Cu947 Cu 0.49747 0.24250 0.25991
 Cu948 Cu 0.49846 0.26256 0.23787
 C949 C 0.51760 0.26717 0.26250
 C950 C 0.47828 0.23817 0.23504
 C951 C 0.51813 0.23756 0.23671
 C952 C 0.47783 0.26727 0.26137
 O953 O 0.98136 0.74413 0.75764
 O954 O 1.01129 0.76694 0.73973
 O955 O 0.98172 0.76598 0.73808
 O956 O 1.01092 0.74504 0.75916
 O957 O 1.01229 0.72827 0.74095
 O958 O 0.98309 0.74926 0.71981
 O959 O 1.01281 0.75020 0.72150
 O960 O 0.98262 0.72741 0.73937
 Cu961 Cu 0.99617 0.75720 0.75047
 Cu962 Cu 0.99784 0.73712 0.72856
 C963 C 0.97681 0.73190 0.75159
 C964 C 1.01727 0.76245 0.72761
 C965 C 0.97736 0.76119 0.72536
 C966 C 1.01664 0.73310 0.75366
 O967 O 0.51428 0.77065 0.24746
 O968 O 0.48515 0.74814 0.26713
 O969 O 0.51477 0.74999 0.26816
 O970 O 0.48464 0.76873 0.24622
 O971 O 0.48629 0.75096 0.22898
 O972 O 0.51625 0.73211 0.25101
 O973 O 0.48664 0.73043 0.24981
 O974 O 0.51595 0.75283 0.23028
 Cu975 Cu 0.49952 0.76116 0.25896
 Cu976 Cu 0.50145 0.73981 0.23829
 C977 C 0.52020 0.76553 0.23555
 C978 C 0.48086 0.73546 0.26183
 C979 C 0.52070 0.73785 0.26331
 C980 C 0.48026 0.76303 0.23387
 O981 O 0.01712 0.74379 0.22563
 O982 O -0.01278 0.76676 0.24329
 O983 O 0.01694 0.76655 0.24403
 O984 O -0.01263 0.74377 0.22504
 O985 O -0.01320 0.72809 0.24425
 O986 O 0.01639 0.75074 0.26314
 O987 O -0.01326 0.75101 0.26246
 O988 O 0.01651 0.72794 0.24472
 Cu989 Cu 0.00220 0.75679 0.23257
 Cu990 Cu 0.00156 0.73786 0.25555
 C991 C 0.02201 0.73198 0.23218
 C992 C -0.01817 0.76280 0.25589
 C993 C 0.02178 0.76248 0.25683
 C994 C -0.01806 0.73208 0.23145
 O995 O 0.51754 0.74323 0.76740
 O996 O 0.48734 0.72445 0.74541
 O997 O 0.51692 0.72396 0.74535
 O998 O 0.48788 0.74346 0.76763
 O999 O 0.48798 0.76241 0.75153
 O1000 O 0.51730 0.74300 0.72935
 O1001 O 0.48760 0.74341 0.72932
 O1002 O 0.51755 0.76227 0.75141
 Cu1003 Cu 0.50242 0.73187 0.75806
 Cu1004 Cu 0.50264 0.75467 0.73878
 C1005 C 0.52267 0.75602 0.76318
 C1006 C 0.48228 0.73073 0.73361
 C1007 C 0.52209 0.73012 0.73355
 C1008 C 0.48292 0.75626 0.76339
 C1009 C 0.38425 0.30080 0.32261
 C1010 C 0.39641 0.29381 0.31541
 C1011 C 0.40726 0.30241 0.30760
 C1012 C 0.40574 0.31829 0.30726
 C1013 C 0.39351 0.32528 0.31442
 C1014 C 0.38265 0.31661 0.32221
 C1015 C 0.42013 0.29435 0.30049
 C1016 C 0.42920 0.30038 0.28996
 C1017 C 0.44188 0.29190 0.28299
 C1018 C 0.44701 0.29626 0.26875
 C1019 C 0.45877 0.28837 0.26173
 C1020 C 0.46569 0.27598 0.26886
 C1021 C 0.46081 0.27185 0.28327
 C1022 C 0.44913 0.27977 0.29030
 H1023 H 0.37598 0.29380 0.32835
 H1024 H 0.39732 0.28159 0.31592
 H1025 H 0.41406 0.32542 0.30178
 H1026 H 0.39272 0.33750 0.31415
 H1027 H 0.42171 0.28265 0.30372
 H1028 H 0.42689 0.31158 0.28565
 H1029 H 0.44176 0.30567 0.26295
 H1030 H 0.46233 0.29188 0.25066
 H1031 H 0.46607 0.26251 0.28917
 H1032 H 0.44599 0.27642 0.30152
 C1033 C 0.39575 0.82354 0.80390
 C1034 C 0.40783 0.81676 0.79637
 C1035 C 0.41375 0.80290 0.80118
 C1036 C 0.40723 0.79582 0.81372
 C1037 C 0.39511 0.80255 0.82129
 C1038 C 0.38900 0.81655 0.81651
 C1039 C 0.42623 0.79599 0.79242
 C1040 C 0.43584 0.78559 0.79791
 C1041 C 0.44806 0.77851 0.78892
 C1042 C 0.45366 0.76434 0.79339
 C1043 C 0.46501 0.75713 0.78514
 C1044 C 0.47109 0.76401 0.77228
 C1045 C 0.46573 0.77833 0.76797
 C1046 C 0.45439 0.78555 0.77622
 H1047 H 0.39192 0.83431 0.79967
 H1048 H 0.41262 0.82245 0.78671
 H1049 H 0.41111 0.78488 0.81754
 H1050 H 0.39046 0.79641 0.83068
 H1051 H 0.42744 0.79979 0.78097
 H1052 H 0.43463 0.78174 0.80934
 H1053 H 0.44910 0.75874 0.80320
 H1054 H 0.46894 0.74613 0.78882
 H1055 H 0.47032 0.78401 0.75822
 H1056 H 0.45084 0.79670 0.77268
 C1057 C -0.11263 0.32474 0.80437
 C1058 C -0.10019 0.31803 0.79738
 C1059 C -0.09353 0.30493 0.80325
 C1060 C -0.09970 0.29855 0.81631
 C1061 C -0.11221 0.30522 0.82335
 C1062 C -0.11903 0.31847 0.81752
 C1063 C -0.08056 0.29819 0.79502
 C1064 C -0.07067 0.28830 0.80094
 C1065 C -0.05782 0.28182 0.79234
 C1066 C -0.05197 0.26769 0.79662
 C1067 C -0.04005 0.26110 0.78863
 C1068 C -0.03362 0.26857 0.77626
 C1069 C -0.03921 0.28289 0.77221
 C1070 C -0.05112 0.28948 0.78018
 H1071 H -0.11704 0.33486 0.79921
 H1072 H -0.09571 0.32318 0.78729
 H1073 H -0.09520 0.28822 0.82103
 H1074 H -0.11648 0.29970 0.83327
 H1075 H -0.07916 0.30174 0.78351
 H1076 H -0.07205 0.28446 0.81235
 H1077 H -0.05680 0.26164 0.80603
 H1078 H -0.03595 0.25009 0.79210
 H1079 H -0.03438 0.28904 0.76285
 H1080 H -0.05486 0.30065 0.77688
 C1081 C -0.10954 0.80165 0.31775
 C1082 C -0.09727 0.79429 0.31112
 C1083 C -0.09005 0.80038 0.29852
 C1084 C -0.09553 0.81405 0.29254
 C1085 C -0.10787 0.82147 0.29915
 C1086 C -0.11519 0.81544 0.31193
 C1087 C -0.07726 0.79176 0.29186
 C1088 C -0.06701 0.79759 0.28230
 C1089 C -0.05435 0.78860 0.27592
 C1090 C -0.04808 0.79303 0.26216
 C1091 C -0.03628 0.78473 0.25568
 C1092 C -0.03038 0.77187 0.26291
 C1093 C -0.03640 0.76765 0.27686
 C1094 C -0.04819 0.77593 0.28333
 H1095 H -0.11455 0.79618 0.32735
 H1096 H -0.09338 0.78371 0.31592
 H1097 H -0.09058 0.81901 0.28262
 H1098 H -0.11147 0.83196 0.29408
 H1099 H -0.07630 0.78002 0.29517
 H1100 H -0.06796 0.80923 0.27868
 H1101 H -0.05247 0.80283 0.25629
 H1102 H -0.03185 0.78835 0.24495
 H1103 H -0.03200 0.75791 0.28282
 H1104 H -0.05226 0.77246 0.29423
 C1105 C 0.61648 0.67932 0.29875
 C1106 C 0.60392 0.68562 0.29146
 C1107 C 0.59265 0.69329 0.29953
 C1108 C 0.59414 0.69431 0.31521
 C1109 C 0.60676 0.68807 0.32250
 C1110 C 0.61807 0.68051 0.31435
 C1111 C 0.57950 0.69967 0.29115
 C1112 C 0.56997 0.71011 0.29668
 C1113 C 0.55717 0.71675 0.28799
 C1114 C 0.55111 0.73064 0.29267
 C1115 C 0.53920 0.73744 0.28476
 C1116 C 0.53301 0.73044 0.27197
 C1117 C 0.53884 0.71639 0.26745
 C1118 C 0.55071 0.70956 0.27540
 H1119 H 0.62506 0.67370 0.29213
 H1120 H 0.60307 0.68458 0.27940
 H1121 H 0.58553 0.69965 0.32199
 H1122 H 0.60754 0.68890 0.33456
 H1123 H 0.57818 0.69605 0.27966
 H1124 H 0.57199 0.71470 0.30772
 H1125 H 0.55574 0.73637 0.30240
 H1126 H 0.53494 0.74825 0.28858
 H1127 H 0.53420 0.71061 0.25775
 H1128 H 0.55460 0.69859 0.27169
 C1129 C 0.60940 0.20033 0.82624
 C1130 C 0.59701 0.20764 0.81964
 C1131 C 0.58992 0.20169 0.80687
 C1132 C 0.59567 0.18827 0.80066
 C1133 C 0.60809 0.18092 0.80722
 C1134 C 0.61530 0.18678 0.82018
 C1135 C 0.57705 0.21017 0.80009
 C1136 C 0.56665 0.20391 0.79092
 C1137 C 0.55411 0.21254 0.78376
 C1138 C 0.54755 0.20677 0.77059
 C1139 C 0.53588 0.21458 0.76329
 C1140 C 0.53039 0.22830 0.76907
 C1141 C 0.53669 0.23392 0.78244
 C1142 C 0.54840 0.22612 0.78974
 H1143 H 0.61428 0.20560 0.83604
 H1144 H 0.59291 0.21805 0.82459
 H1145 H 0.59089 0.18351 0.79054
 H1146 H 0.61189 0.17067 0.80189
 H1147 H 0.57624 0.22206 0.80288
 H1148 H 0.56744 0.19203 0.78812
 H1149 H 0.55161 0.19627 0.76581
 H1150 H 0.53123 0.20988 0.75305
 H1151 H 0.53261 0.24438 0.78727
 H1152 H 0.55275 0.23070 0.80014
 C1153 C 1.10391 0.69927 0.82457
 C1154 C 1.09168 0.70595 0.81710
 C1155 C 1.08627 0.70005 0.80354
 C1156 C 1.09349 0.68729 0.79749
 C1157 C 1.10577 0.68057 0.80493
 C1158 C 1.11134 0.68643 0.81864
 C1159 C 1.07355 0.70796 0.79589
 C1160 C 1.06454 0.70153 0.78550
 C1161 C 1.05205 0.70972 0.77776
 C1162 C 1.04709 0.70447 0.76374
 C1163 C 1.03554 0.71198 0.75594
 C1164 C 1.02859 0.72486 0.76207
 C1165 C 1.03328 0.72990 0.77627
 C1166 C 1.04482 0.72240 0.78407
 H1167 H 1.10732 0.70434 0.83504
 H1168 H 1.08636 0.71582 0.82200
 H1169 H 1.09003 0.68263 0.78683
 H1170 H 1.11092 0.67093 0.79957
 H1171 H 1.07163 0.71960 0.79911
 H1172 H 1.06646 0.68993 0.78217
 H1173 H 1.05233 0.69465 0.75869
 H1174 H 1.03214 0.70775 0.74505
 H1175 H 1.02803 0.73968 0.78139
 H1176 H 1.04785 0.72649 0.79509
 C1177 C 1.10706 0.17161 0.31236
 C1178 C 1.09504 0.17857 0.30483
 C1179 C 1.08937 0.19252 0.30964
 C1180 C 1.09608 0.19948 0.32218
 C1181 C 1.10815 0.19257 0.32975
 C1182 C 1.11402 0.17850 0.32495
 C1183 C 1.07699 0.19965 0.30085
 C1184 C 1.06752 0.21011 0.30637
 C1185 C 1.05548 0.21749 0.29732
 C1186 C 1.05018 0.23174 0.30181
 C1187 C 1.03907 0.23927 0.29347
 C1188 C 1.03292 0.23265 0.28048
 C1189 C 1.03796 0.21823 0.27615
 C1190 C 1.04906 0.21069 0.28450
 H1191 H 1.11068 0.16078 0.30814
 H1192 H 1.09009 0.17297 0.29517
 H1193 H 1.09238 0.21048 0.32599
 H1194 H 1.11296 0.19863 0.33913
 H1195 H 1.07576 0.19600 0.28935
 H1196 H 1.06877 0.21380 0.31784
 H1197 H 1.05482 0.23716 0.31171
 H1198 H 1.03538 0.25034 0.29716
 H1199 H 1.03330 0.21274 0.26630
 H1200 H 1.05238 0.19948 0.28095
 C1201 C 0.61321 0.29911 0.67288
 C1202 C 0.60074 0.29193 0.67954
 C1203 C 0.58977 0.30032 0.68730
 C1204 C 0.59145 0.31619 0.68805
 C1205 C 0.60398 0.32335 0.68145
 C1206 C 0.61501 0.31490 0.67380
 C1207 C 0.57670 0.29208 0.69408
 C1208 C 0.56771 0.29786 0.70476
 C1209 C 0.55499 0.28935 0.71184
 C1210 C 0.54958 0.29426 0.72578
 C1211 C 0.53774 0.28656 0.73296
 C1212 C 0.53096 0.27376 0.72633
 C1213 C 0.53615 0.26899 0.71225
 C1214 C 0.54796 0.27673 0.70503
 H1215 H 0.62158 0.29225 0.66721
 H1216 H 0.59973 0.27973 0.67870
 H1217 H 0.58305 0.32320 0.69345
 H1218 H 0.60490 0.33556 0.68208
 H1219 H 0.57502 0.28047 0.69058
 H1220 H 0.57016 0.30900 0.70921
 H1221 H 0.55466 0.30402 0.73123
 H1222 H 0.53399 0.29057 0.74378
 H1223 H 0.53104 0.25928 0.70675
 H1224 H 0.55135 0.27286 0.69407
 C1225 C 0.61255 0.80083 0.17279
 C1226 C 0.60031 0.79373 0.17987
 C1227 C 0.59269 0.80077 0.19168
 C1228 C 0.59776 0.81509 0.19648
 C1229 C 0.61008 0.82223 0.18945
 C1230 C 0.61774 0.81529 0.17739
 C1231 C 0.57989 0.79248 0.19882
 C1232 C 0.56903 0.79903 0.20709
 C1233 C 0.55631 0.79037 0.21395
 C1234 C 0.54930 0.79615 0.22681
 C1235 C 0.53748 0.78817 0.23376
 C1236 C 0.53231 0.77430 0.22790
 C1237 C 0.53904 0.76872 0.21477
 C1238 C 0.55085 0.77668 0.20784
 H1239 H 0.61797 0.79463 0.16390
 H1240 H 0.59676 0.78262 0.17603
 H1241 H 0.59248 0.82077 0.20582
 H1242 H 0.61334 0.83329 0.19352
 H1243 H 0.57943 0.78038 0.19695
 H1244 H 0.56947 0.81107 0.20924
 H1245 H 0.55315 0.80675 0.23164
 H1246 H 0.53248 0.79283 0.24382
 H1247 H 0.53520 0.75816 0.20986
 H1248 H 0.55551 0.77214 0.19760
 C1249 C 1.11320 0.32921 0.19889
 C1250 C 1.10122 0.32295 0.20710
 C1251 C 1.09433 0.30936 0.20266
 C1252 C 1.09988 0.30194 0.18991
 C1253 C 1.11189 0.30814 0.18166
 C1254 C 1.11886 0.32195 0.18595
 C1255 C 1.08183 0.30308 0.21193
 C1256 C 1.07127 0.29342 0.20667
 C1257 C 1.05891 0.28688 0.21596
 C1258 C 1.05203 0.27333 0.21123
 C1259 C 1.04037 0.26668 0.21957
 C1260 C 1.03522 0.27350 0.23282
 C1261 C 1.04192 0.28719 0.23747
 C1262 C 1.05362 0.29385 0.22912
 H1263 H 1.11781 0.33981 0.20288
 H1264 H 1.09723 0.32886 0.21695
 H1265 H 1.09527 0.29113 0.18638
 H1266 H 1.11567 0.30179 0.17208
 H1267 H 1.08138 0.30675 0.22347
 H1268 H 1.07172 0.28981 0.19512
 H1269 H 1.05579 0.26779 0.20108
 H1270 H 1.03540 0.25616 0.21562
 H1271 H 1.03810 0.29280 0.24754
 H1272 H 1.05823 0.30455 0.23291
 C1273 C 1.10303 0.81239 0.66345
 C1274 C 1.09030 0.80457 0.66882
 C1275 C 1.08721 0.80399 0.68421
 C1276 C 1.09731 0.81128 0.69418
 C1277 C 1.11000 0.81916 0.68880
 C1278 C 1.11302 0.81979 0.67338
 C1279 C 1.07379 0.79519 0.68942
 C1280 C 1.06722 0.79727 0.70280
 C1281 C 1.05406 0.78830 0.70836
 C1282 C 1.04591 0.79385 0.72066
 C1283 C 1.03386 0.78557 0.72677
 C1284 C 1.02966 0.77147 0.72072
 C1285 C 1.03772 0.76590 0.70835
 C1286 C 1.04984 0.77416 0.70227
 H1287 H 1.10500 0.81276 0.65150
 H1288 H 1.08280 0.79897 0.66089
 H1289 H 1.09574 0.81066 0.70616
 H1290 H 1.11767 0.82443 0.69675
 H1291 H 1.06894 0.78713 0.68163
 H1292 H 1.07130 0.80627 0.70999
 H1293 H 1.04895 0.80463 0.72565
 H1294 H 1.02790 0.79018 0.73631
 H1295 H 1.03485 0.75500 0.70352
 H1296 H 1.05604 0.76919 0.69309
 C1297 C 0.38717 0.67127 0.69755
 C1298 C 0.39977 0.67755 0.70485
 C1299 C 0.41102 0.68538 0.69679
 C1300 C 0.40949 0.68656 0.68113
 C1301 C 0.39683 0.68032 0.67383
 C1302 C 0.38552 0.67262 0.68196
 C1303 C 0.42418 0.69178 0.70515
 C1304 C 0.43337 0.70269 0.69981
 C1305 C 0.44611 0.70941 0.70856
 C1306 C 0.45154 0.72381 0.70451
 C1307 C 0.46334 0.73070 0.71257
 C1308 C 0.47004 0.72329 0.72484
 C1309 C 0.46485 0.70873 0.72871
 C1310 C 0.45308 0.70182 0.72062
 H1311 H 0.37858 0.66556 0.70416
 H1312 H 0.40067 0.67640 0.71689
 H1313 H 0.41811 0.69203 0.67439
 H1314 H 0.39601 0.68128 0.66178
 H1315 H 0.42574 0.68783 0.71652
 H1316 H 0.43104 0.70762 0.68897
 H1317 H 0.44649 0.72985 0.69519
 H1318 H 0.46712 0.74190 0.70925
 H1319 H 0.46991 0.70264 0.73798
 H1320 H 0.44967 0.69048 0.72378
 C1321 C 0.39608 0.16470 0.19135
 C1322 C 0.40848 0.17134 0.19873
 C1323 C 0.41078 0.18708 0.19823
 C1324 C 0.40022 0.19609 0.19040
 C1325 C 0.38789 0.18943 0.18298
 C1326 C 0.38569 0.17368 0.18336
 C1327 C 0.42389 0.19371 0.20645
 C1328 C 0.42993 0.20727 0.20308
 C1329 C 0.44273 0.21439 0.21140
 C1330 C 0.45041 0.22659 0.20471
 C1331 C 0.46207 0.23417 0.21231
 C1332 C 0.46630 0.22974 0.22683
 C1333 C 0.45871 0.21747 0.23354
 C1334 C 0.44698 0.20991 0.22595
 H1335 H 0.39472 0.15252 0.19177
 H1336 H 0.41635 0.16416 0.20478
 H1337 H 0.40118 0.20830 0.19024
 H1338 H 0.37985 0.19668 0.17725
 H1339 H 0.42898 0.18686 0.21514
 H1340 H 0.42565 0.21341 0.19347
 H1341 H 0.44732 0.23036 0.19356
 H1342 H 0.46769 0.24359 0.20682
 H1343 H 0.46162 0.21387 0.24477
 H1344 H 0.44110 0.20088 0.23174
 C1345 C -0.11329 0.69617 0.17246
 C1346 C -0.10055 0.70338 0.17863
 C1347 C -0.08976 0.69517 0.18690
 C1348 C -0.09192 0.67945 0.18869
 C1349 C -0.10473 0.67225 0.18257
 C1350 C -0.11554 0.68053 0.17437
 C1351 C -0.07639 0.70346 0.19308
 C1352 C -0.06735 0.69811 0.20400
 C1353 C -0.05443 0.70683 0.21051
 C1354 C -0.04916 0.70291 0.22483
 C1355 C -0.03725 0.71099 0.23156
 C1356 C -0.03027 0.72316 0.22406
 C1357 C -0.03528 0.72688 0.20957
 C1358 C -0.04717 0.71877 0.20282
 H1359 H -0.12149 0.70291 0.16636
 H1360 H -0.09919 0.71547 0.17701
 H1361 H -0.08369 0.67255 0.19455
 H1362 H -0.10602 0.66014 0.18399
 H1363 H -0.07451 0.71482 0.18892
 H1364 H -0.06993 0.68730 0.20911
 H1365 H -0.05442 0.69368 0.23095
 H1366 H -0.03363 0.70778 0.24272
 H1367 H -0.03002 0.73609 0.20343
 H1368 H -0.05046 0.72183 0.19155
 C1369 C -0.10756 0.17115 0.69237
 C1370 C -0.09553 0.17779 0.70027
 C1371 C -0.08947 0.19179 0.69588
 C1372 C -0.09578 0.19911 0.68336
 C1373 C -0.10785 0.19250 0.67542
 C1374 C -0.11412 0.17840 0.67980
 C1375 C -0.07707 0.19852 0.70508
 C1376 C -0.06746 0.20929 0.70019
 C1377 C -0.05528 0.21602 0.70966
 C1378 C -0.04965 0.23046 0.70599
 C1379 C -0.03832 0.23732 0.71472
 C1380 C -0.03228 0.22982 0.72727
 C1381 C -0.03767 0.21524 0.73077
 C1382 C -0.04898 0.20837 0.72204
 H1383 H -0.11148 0.16026 0.69628
 H1384 H -0.09090 0.17190 0.70989
 H1385 H -0.09178 0.21014 0.67983
 H1386 H -0.11235 0.19883 0.66608
 H1387 H -0.07592 0.19425 0.71637
 H1388 H -0.06863 0.21368 0.68894
 H1389 H -0.05418 0.23653 0.69644
 H1390 H -0.03437 0.24853 0.71167
 H1391 H -0.03312 0.20907 0.74025
 H1392 H -0.05253 0.19701 0.72494
 C1393 C 0.30923 0.39374 0.33452
 C1394 C 0.30228 0.40645 0.32818
 C1395 C 0.30406 0.40976 0.31292
 C1396 C 0.31277 0.39994 0.30404
 C1397 C 0.31966 0.38720 0.31036
 C1398 C 0.31799 0.38393 0.32568
 C1399 C 0.29605 0.42307 0.30659
 C1400 C 0.30075 0.43049 0.29430
 C1401 C 0.29260 0.44352 0.28743
 C1402 C 0.29701 0.44834 0.27308
 C1403 C 0.28947 0.46024 0.26591
 C1404 C 0.27732 0.46763 0.27295
 C1405 C 0.27310 0.46307 0.28743
 C1406 C 0.28067 0.45123 0.29463
 H1407 H 0.30782 0.39169 0.34637
 H1408 H 0.29555 0.41377 0.33525
 H1409 H 0.31395 0.40177 0.29213
 H1410 H 0.32600 0.37972 0.30313
 H1411 H 0.28603 0.42675 0.31251
 H1412 H 0.31102 0.42679 0.28876
 H1413 H 0.30621 0.44273 0.26728
 H1414 H 0.29302 0.46351 0.25477
 H1415 H 0.26388 0.46864 0.29323
 H1416 H 0.27708 0.44833 0.30582
 C1417 C 0.32775 -0.11379 0.80432
 C1418 C 0.32064 -0.10144 0.79756
 C1419 C 0.30833 -0.09425 0.80441
 C1420 C 0.30310 -0.09984 0.81821
 C1421 C 0.31018 -0.11225 0.82502
 C1422 C 0.32271 -0.11952 0.81823
 C1423 C 0.30120 -0.08131 0.79646
 C1424 C 0.29189 -0.07119 0.80284
 C1425 C 0.28521 -0.05835 0.79441
 C1426 C 0.27123 -0.05234 0.79906
 C1427 C 0.26445 -0.04045 0.79115
 C1428 C 0.27161 -0.03422 0.77850
 C1429 C 0.28582 -0.03993 0.77412
 C1430 C 0.29258 -0.05180 0.78201
 H1431 H 0.33706 -0.11880 0.79828
 H1432 H 0.32485 -0.09747 0.78686
 H1433 H 0.29341 -0.09490 0.82376
 H1434 H 0.30572 -0.11593 0.83566
 H1435 H 0.30395 -0.08010 0.78473
 H1436 H 0.28870 -0.07237 0.81445
 H1437 H 0.26542 -0.05705 0.80869
 H1438 H 0.25354 -0.03625 0.79487
 H1439 H 0.29174 -0.03526 0.76454
 H1440 H 0.30365 -0.05567 0.77843
 C1441 C 0.81913 0.38646 0.80140
 C1442 C 0.81207 0.39841 0.79395
 C1443 C 0.80003 0.40628 0.80052
 C1444 C 0.79499 0.40175 0.81477
 C1445 C 0.80201 0.38971 0.82227
 C1446 C 0.81429 0.38180 0.81576
 C1447 C 0.79299 0.41877 0.79186
 C1448 C 0.78436 0.42973 0.79779
 C1449 C 0.77796 0.44225 0.78868
 C1450 C 0.76454 0.44934 0.79341
 C1451 C 0.75809 0.46103 0.78496
 C1452 C 0.76503 0.46596 0.77165
 C1453 C 0.77868 0.45914 0.76714
 C1454 C 0.78512 0.44748 0.77557
 H1455 H 0.82819 0.38083 0.79552
 H1456 H 0.81611 0.40155 0.78292
 H1457 H 0.78550 0.40726 0.82013
 H1458 H 0.79776 0.38686 0.83324
 H1459 H 0.79532 0.41898 0.77998
 H1460 H 0.78163 0.42956 0.80958
 H1461 H 0.75891 0.44566 0.80357
 H1462 H 0.74761 0.46612 0.78880
 H1463 H 0.78444 0.46281 0.75706
 H1464 H 0.79581 0.44278 0.77186
 C1465 C 0.82623 -0.11157 0.29796
 C1466 C 0.81925 -0.09925 0.29094
 C1467 C 0.80571 -0.09315 0.29651
 C1468 C 0.79914 -0.09981 0.30924
 C1469 C 0.80607 -0.11215 0.31630
 C1470 C 0.81980 -0.11836 0.31082
 C1471 C 0.79865 -0.08028 0.28835
 C1472 C 0.78836 -0.07085 0.29434
 C1473 C 0.78132 -0.05811 0.28597
 C1474 C 0.76728 -0.05241 0.29084
 C1475 C 0.76019 -0.04050 0.28321
 C1476 C 0.76707 -0.03395 0.27057
 C1477 C 0.78128 -0.03942 0.26589
 C1478 C 0.78836 -0.05130 0.27351
 H1479 H 0.83672 -0.11554 0.29314
 H1480 H 0.82455 -0.09441 0.28109
 H1481 H 0.78845 -0.09583 0.31367
 H1482 H 0.80032 -0.11680 0.32591
 H1483 H 0.80225 -0.07859 0.27691
 H1484 H 0.78462 -0.07255 0.30573
 H1485 H 0.76168 -0.05731 0.30049
 H1486 H 0.74928 -0.03651 0.28715
 H1487 H 0.78699 -0.03451 0.25630
 H1488 H 0.79944 -0.05490 0.26970
 C1489 C 0.30540 0.60135 0.67213
 C1490 C 0.29719 0.58966 0.67895
 C1491 C 0.29871 0.58685 0.69433
 C1492 C 0.30849 0.59614 0.70285
 C1493 C 0.31667 0.60786 0.69604
 C1494 C 0.31521 0.61063 0.68060
 C1495 C 0.28940 0.57464 0.70116
 C1496 C 0.29349 0.56730 0.71370
 C1497 C 0.28420 0.55531 0.72101
 C1498 C 0.28820 0.55079 0.73557
 C1499 C 0.27977 0.53970 0.74308
 C1500 C 0.26712 0.53283 0.73618
 C1501 C 0.26320 0.53717 0.72155
 C1502 C 0.27166 0.54822 0.71400
 H1503 H 0.30413 0.60304 0.66020
 H1504 H 0.28966 0.58273 0.67216
 H1505 H 0.30956 0.59470 0.71483
 H1506 H 0.32383 0.61500 0.70296
 H1507 H 0.27898 0.57169 0.69541
 H1508 H 0.30416 0.57025 0.71908
 H1509 H 0.29783 0.55595 0.74123
 H1510 H 0.28312 0.53659 0.75434
 H1511 H 0.25360 0.53197 0.71586
 H1512 H 0.26832 0.55093 0.70268
 C1513 C 0.30378 1.10432 0.17609
 C1514 C 0.29615 1.09247 0.18329
 C1515 C 0.30132 1.08687 0.19707
 C1516 C 0.31423 1.09356 0.20365
 C1517 C 0.32190 1.10540 0.19650
 C1518 C 0.31686 1.11111 0.18254
 C1519 C 0.29259 1.07455 0.20447
 C1520 C 0.29855 1.06525 0.21484
 C1521 C 0.28976 1.05317 0.22255
 C1522 C 0.29526 1.04754 0.23624
 C1523 C 0.28733 1.03621 0.24396
 C1524 C 0.27375 1.03019 0.23809
 C1525 C 0.26836 1.03563 0.22427
 C1526 C 0.27629 1.04693 0.21654
 H1527 H 0.29933 1.10793 0.16540
 H1528 H 0.28615 1.08758 0.17801
 H1529 H 0.31829 1.09002 0.21453
 H1530 H 0.33157 1.11016 0.20232
 H1531 H 0.28083 1.07322 0.20110
 H1532 H 0.31034 1.06659 0.21814
 H1533 H 0.30567 1.05204 0.24106
 H1534 H 0.29182 1.03222 0.25454
 H1535 H 0.25802 1.03110 0.21934
 H1536 H 0.27189 1.05048 0.20580
 C1537 C 0.80035 0.61363 0.17688
 C1538 C 0.79300 0.60152 0.18389
 C1539 C 0.80121 0.59111 0.19258
 C1540 C 0.81703 0.59332 0.19435
 C1541 C 0.82439 0.60545 0.18731
 C1542 C 0.81616 0.61569 0.17841
 C1543 C 0.79269 0.57845 0.19970
 C1544 C 0.79921 0.56620 0.20583
 C1545 C 0.79033 0.55391 0.21305
 C1546 C 0.79712 0.54566 0.22468
 C1547 C 0.78909 0.53415 0.23197
 C1548 C 0.77414 0.53045 0.22760
 C1549 C 0.76746 0.53841 0.21567
 C1550 C 0.77546 0.55004 0.20846
 H1551 H 0.79359 0.62147 0.17038
 H1552 H 0.78081 0.60025 0.18246
 H1553 H 0.82383 0.58588 0.20123
 H1554 H 0.83658 0.60670 0.18868
 H1555 H 0.78040 0.57935 0.19984
 H1556 H 0.81145 0.56515 0.20612
 H1557 H 0.80861 0.54831 0.22832
 H1558 H 0.79462 0.52815 0.24104
 H1559 H 0.75600 0.53575 0.21197
 H1560 H 0.77004 0.55581 0.19919
 C1561 C 0.80152 1.11399 0.67502
 C1562 C 0.79364 1.10192 0.68154
 C1563 C 0.80142 1.09080 0.68974
 C1564 C 0.81737 1.09186 0.69105
 C1565 C 0.82525 1.10399 0.68456
 C1566 C 0.81741 1.11519 0.67650
 C1567 C 0.79246 1.07821 0.69638
 C1568 C 0.79747 1.06944 0.70762
 C1569 C 0.78814 1.05728 0.71455
 C1570 C 0.79177 1.05249 0.72910
 C1571 C 0.78316 1.04124 0.73615
 C1572 C 0.77074 1.03447 0.72875
 C1573 C 0.76729 1.03902 0.71406
 C1574 C 0.77594 1.05023 0.70699
 H1575 H 0.79513 1.12251 0.66901
 H1576 H 0.78138 1.10136 0.68028
 H1577 H 0.82390 1.08329 0.69681
 H1578 H 0.83752 1.10446 0.68563
 H1579 H 0.78093 1.07676 0.69231
 H1580 H 0.80846 1.07174 0.71264
 H1581 H 0.80121 1.05761 0.73512
 H1582 H 0.78616 1.03794 0.74745
 H1583 H 0.75791 1.03388 0.70798
 H1584 H 0.77310 1.05315 0.69556
 C1585 C 0.70234 0.61484 0.31971
 C1586 C 0.70983 0.60243 0.31350
 C1587 C 0.70185 0.59174 0.30486
 C1588 C 0.68616 0.59390 0.30237
 C1589 C 0.67867 0.60632 0.30862
 C1590 C 0.68665 0.61693 0.31738
 C1591 C 0.71049 0.57891 0.29832
 C1592 C 0.70400 0.56645 0.29250
 C1593 C 0.71280 0.55416 0.28536
 C1594 C 0.70580 0.54566 0.27400
 C1595 C 0.71371 0.53415 0.26674
 C1596 C 0.72876 0.53069 0.27086
 C1597 C 0.73567 0.53891 0.28253
 C1598 C 0.72778 0.55056 0.28971
 H1599 H 0.70893 0.62293 0.32614
 H1600 H 0.72193 0.60118 0.31547
 H1601 H 0.67955 0.58627 0.29547
 H1602 H 0.66657 0.60752 0.30666
 H1603 H 0.72278 0.57995 0.29823
 H1604 H 0.69175 0.56527 0.29231
 H1605 H 0.69423 0.54811 0.27055
 H1606 H 0.70801 0.52794 0.25788
 H1607 H 0.74721 0.53643 0.28602
 H1608 H 0.73338 0.55656 0.29875
 C1609 C 0.69454 1.11508 0.82331
 C1610 C 0.70155 1.10291 0.81622
 C1611 C 0.69473 1.09580 0.80391
 C1612 C 0.68068 1.10128 0.79867
 C1613 C 0.67362 1.11352 0.80573
 C1614 C 0.68039 1.12072 0.81824
 C1615 C 0.70296 1.08304 0.79683
 C1616 C 0.69663 1.07291 0.78749
 C1617 C 0.70533 1.06016 0.78098
 C1618 C 0.70072 1.05410 0.76716
 C1619 C 0.70882 1.04224 0.76060
 C1620 C 0.72164 1.03609 0.76782
 C1621 C 0.72600 1.04190 0.78183
 C1622 C 0.71792 1.05374 0.78838
 H1623 H 0.70060 1.12005 0.83261
 H1624 H 0.71243 1.09902 0.82045
 H1625 H 0.67514 1.09637 0.78900
 H1626 H 0.66280 1.11713 0.80126
 H1627 H 0.71489 1.08195 0.79970
 H1628 H 0.68483 1.07396 0.78419
 H1629 H 0.69096 1.05871 0.76133
 H1630 H 0.70510 1.03796 0.74984
 H1631 H 0.73569 1.03729 0.78779
 H1632 H 0.72147 1.05764 0.79932
 C1633 C 0.19115 0.61600 0.82936
 C1634 C 0.19838 0.60337 0.82330
 C1635 C 0.19236 0.59592 0.81077
 C1636 C 0.17894 0.60153 0.80426
 C1637 C 0.17166 0.61419 0.81028
 C1638 C 0.17760 0.62177 0.82299
 C1639 C 0.20078 0.58278 0.80464
 C1640 C 0.19456 0.57225 0.79564
 C1641 C 0.20325 0.55934 0.78941
 C1642 C 0.19808 0.55256 0.77613
 C1643 C 0.20604 0.54052 0.76973
 C1644 C 0.21929 0.53490 0.77658
 C1645 C 0.22427 0.54143 0.79008
 C1646 C 0.21632 0.55348 0.79647
 H1647 H 0.19650 0.62113 0.83899
 H1648 H 0.20879 0.59937 0.82849
 H1649 H 0.17410 0.59645 0.79432
 H1650 H 0.16139 0.61789 0.80475
 H1651 H 0.21263 0.58184 0.80781
 H1652 H 0.18276 0.57317 0.79232
 H1653 H 0.18797 0.55673 0.77055
 H1654 H 0.20184 0.53570 0.75936
 H1655 H 0.23434 0.53726 0.79573
 H1656 H 0.22038 0.55798 0.80700
 C1657 C 0.17512 1.10981 0.31091
 C1658 C 0.18211 1.09774 0.30366
 C1659 C 0.19412 1.08991 0.31043
 C1660 C 0.19920 1.09461 0.32463
 C1661 C 0.19225 1.10677 0.33192
 C1662 C 0.17999 1.11463 0.32524
 C1663 C 0.20119 1.07733 0.30198
 C1664 C 0.20940 1.06624 0.30828
 C1665 C 0.21627 1.05377 0.29951
 C1666 C 0.22926 1.04656 0.30519
 C1667 C 0.23624 1.03495 0.29716
 C1668 C 0.23028 1.03017 0.28331
 C1669 C 0.21704 1.03711 0.27780
 C1670 C 0.21007 1.04875 0.28582
 H1671 H 0.16609 1.11541 0.30489
 H1672 H 0.17807 1.09448 0.29265
 H1673 H 0.20871 1.08916 0.33009
 H1674 H 0.19652 1.10977 0.34287
 H1675 H 0.19929 1.07721 0.29001
 H1676 H 0.21154 1.06632 0.32021
 H1677 H 0.23416 1.05009 0.31577
 H1678 H 0.24638 1.02978 0.30178
 H1679 H 0.21206 1.03358 0.26725
 H1680 H 0.19973 1.05360 0.28132
 C1681 C 0.69686 0.38376 0.67390
 C1682 C 0.70391 0.39619 0.68067
 C1683 C 0.69533 0.40712 0.68827
 C1684 C 0.67938 0.40533 0.68884
 C1685 C 0.67232 0.39281 0.68212
 C1686 C 0.68099 0.38192 0.67454
 C1687 C 0.70356 0.42018 0.69503
 C1688 C 0.69742 0.43000 0.70475
 C1689 C 0.70614 0.44267 0.71164
 C1690 C 0.71934 0.44882 0.70505
 C1691 C 0.72742 0.46047 0.71214
 C1692 C 0.72241 0.46639 0.72584
 C1693 C 0.70897 0.46058 0.73218
 C1694 C 0.70093 0.44888 0.72513
 H1695 H 0.70387 0.37547 0.66831
 H1696 H 0.71619 0.39724 0.68000
 H1697 H 0.67221 0.41361 0.69420
 H1698 H 0.66005 0.39179 0.68259
 H1699 H 0.71549 0.42127 0.69226
 H1700 H 0.68586 0.42836 0.70854
 H1701 H 0.72345 0.44485 0.69437
 H1702 H 0.73761 0.46484 0.70685
 H1703 H 0.70476 0.46494 0.74270
 H1704 H 0.69071 0.44449 0.73037
 C1705 C 0.69898 -0.11525 0.17242
 C1706 C 0.70627 -0.10282 0.17902
 C1707 C 0.69818 -0.09269 0.18807
 C1708 C 0.68255 -0.09540 0.19049
 C1709 C 0.67526 -0.10782 0.18386
 C1710 C 0.68338 -0.11792 0.17476
 C1711 C 0.70666 -0.07993 0.19514
 C1712 C 0.70002 -0.06790 0.20152
 C1713 C 0.70868 -0.05569 0.20918
 C1714 C 0.70152 -0.04765 0.22069
 C1715 C 0.70929 -0.03625 0.22845
 C1716 C 0.72437 -0.03246 0.22471
 C1717 C 0.73143 -0.04021 0.21290
 C1718 C 0.72368 -0.05172 0.20521
 H1719 H 0.70567 -0.12292 0.16571
 H1720 H 0.71833 -0.10116 0.17707
 H1721 H 0.67586 -0.08820 0.19766
 H1722 H 0.66322 -0.10946 0.18583
 H1723 H 0.71895 -0.08067 0.19516
 H1724 H 0.68776 -0.06705 0.20177
 H1725 H 0.68993 -0.05037 0.22387
 H1726 H 0.70347 -0.03043 0.23741
 H1727 H 0.74300 -0.03748 0.20968
 H1728 H 0.72941 -0.05732 0.19607
 C1729 C 0.19346 0.39622 0.16907
 C1730 C 0.20097 0.40879 0.17520
 C1731 C 0.20119 0.41116 0.19075
 C1732 C 0.19406 0.40043 0.20008
 C1733 C 0.18650 0.38794 0.19396
 C1734 C 0.18603 0.38573 0.17839
 C1735 C 0.20942 0.42455 0.19681
 C1736 C 0.20670 0.43040 0.21041
 C1737 C 0.21515 0.44344 0.21694
 C1738 C 0.20917 0.45050 0.22971
 C1739 C 0.21700 0.46237 0.23671
 C1740 C 0.23103 0.46747 0.23108
 C1741 C 0.23700 0.46049 0.21826
 C1742 C 0.22922 0.44856 0.21131
 H1743 H 0.19324 0.39484 0.15704
 H1744 H 0.20651 0.41676 0.16776
 H1745 H 0.19450 0.40141 0.21213
 H1746 H 0.18125 0.37984 0.20144
 H1747 H 0.21757 0.42997 0.18949
 H1748 H 0.19758 0.42571 0.21710
 H1749 H 0.19843 0.44674 0.23438
 H1750 H 0.21210 0.46749 0.24658
 H1751 H 0.24786 0.46406 0.21373
 H1752 H 0.23453 0.44324 0.20179
 C1753 C 0.17145 -0.10845 0.69586
 C1754 C 0.17799 -0.09663 0.70410
 C1755 C 0.19236 -0.09084 0.70038
 C1756 C 0.20024 -0.09735 0.68837
 C1757 C 0.19376 -0.10917 0.68010
 C1758 C 0.17917 -0.11500 0.68362
 C1759 C 0.19895 -0.07846 0.70960
 C1760 C 0.20967 -0.06885 0.70458
 C1761 C 0.21671 -0.05673 0.71383
 C1762 C 0.23087 -0.05084 0.70942
 C1763 C 0.23805 -0.03949 0.71777
 C1764 C 0.23115 -0.03366 0.73070
 C1765 C 0.21685 -0.03936 0.73499
 C1766 C 0.20967 -0.05073 0.72664
 H1767 H 0.16024 -0.11218 0.69917
 H1768 H 0.17171 -0.09189 0.71339
 H1769 H 0.21161 -0.09367 0.68547
 H1770 H 0.20054 -0.11378 0.67117
 H1771 H 0.19466 -0.07733 0.72087
 H1772 H 0.21382 -0.06998 0.69326
 H1773 H 0.23650 -0.05515 0.69954
 H1774 H 0.24904 -0.03531 0.71411
 H1775 H 0.21116 -0.03500 0.74481
 H1776 H 0.19854 -0.05454 0.73018
 C1777 C 0.31982 0.29978 0.39101
 C1778 C 0.31334 0.29262 0.40342
 C1779 C 0.30516 0.30092 0.41408
 C1780 C 0.30353 0.31666 0.41194
 C1781 C 0.31003 0.32381 0.39952
 C1782 C 0.31827 0.31548 0.38892
 C1783 C 0.29833 0.29256 0.42691
 C1784 C 0.29172 0.29914 0.43874
 C1785 C 0.28434 0.29043 0.45094
 C1786 C 0.27167 0.29706 0.45798
 C1787 C 0.26355 0.29002 0.46943
 C1788 C 0.26942 0.27404 0.47450
 C1789 C 0.28314 0.26779 0.46691
 C1790 C 0.28999 0.27619 0.45553
 H1791 H 0.32586 0.29295 0.38295
 H1792 H 0.31471 0.28050 0.40466
 H1793 H 0.29717 0.32360 0.41961
 H1794 H 0.30873 0.33593 0.39833
 H1795 H 0.29858 0.28031 0.42636
 H1796 H 0.29089 0.31132 0.43939
 H1797 H 0.26775 0.30807 0.45432
 H1798 H 0.26506 0.28150 0.47348
 H1799 H 0.28779 0.25689 0.47000
 H1800 H 0.30004 0.27154 0.45032
 C1801 C 0.32695 0.79875 -0.11443
 C1802 C 0.32033 0.79159 -0.10210
 C1803 C 0.31146 0.79977 -0.09189
 C1804 C 0.30926 0.81537 -0.09442
 C1805 C 0.31591 0.82254 -0.10675
 C1806 C 0.32482 0.81433 -0.11692
 C1807 C 0.30440 0.79144 -0.07920
 C1808 C 0.29806 0.79813 -0.06727
 C1809 C 0.29043 0.78958 -0.05512
 C1810 C 0.27871 0.79667 -0.04718
 C1811 C 0.27102 0.78899 -0.03580
 C1812 C 0.27504 0.77409 -0.03194
 C1813 C 0.28704 0.76711 -0.03963
 C1814 C 0.29467 0.77476 -0.05111
 H1815 H 0.33351 0.79201 -0.12216
 H1816 H 0.32212 0.77956 -0.10055
 H1817 H 0.30224 0.82215 -0.08717
 H1818 H 0.31413 0.83456 -0.10825
 H1819 H 0.30432 0.77921 -0.07989
 H1820 H 0.29781 0.81033 -0.06645
 H1821 H 0.27534 0.80812 -0.04995
 H1822 H 0.26190 0.79474 -0.03003
 H1823 H 0.29048 0.75568 -0.03684
 H1824 H 0.30398 0.76911 -0.05665
 C1825 C 0.81696 0.30268 -0.11431
 C1826 C 0.81036 0.29594 -0.10174
 C1827 C 0.80220 0.30463 -0.09137
 C1828 C 0.80092 0.32034 -0.09380
 C1829 C 0.80749 0.32707 -0.10643
 C1830 C 0.81561 0.31832 -0.11681
 C1831 C 0.79574 0.29684 -0.07807
 C1832 C 0.78514 0.30276 -0.06901
 C1833 C 0.77881 0.29448 -0.05594
 C1834 C 0.76435 0.29842 -0.05055
 C1835 C 0.75788 0.29059 -0.03849
 C1836 C 0.76578 0.27870 -0.03153
 C1837 C 0.78043 0.27507 -0.03663
 C1838 C 0.78692 0.28291 -0.04861
 H1839 H 0.82298 0.29559 -0.12217
 H1840 H 0.81160 0.28384 -0.10016
 H1841 H 0.79515 0.32758 -0.08592
 H1842 H 0.80649 0.33919 -0.10792
 H1843 H 0.79954 0.28537 -0.07610
 H1844 H 0.78025 0.31368 -0.07159
 H1845 H 0.75794 0.30741 -0.05585
 H1846 H 0.74659 0.29371 -0.03478
 H1847 H 0.78693 0.26612 -0.03137
 H1848 H 0.79834 0.27993 -0.05195
 C1849 C 0.82132 0.80188 0.38003
 C1850 C 0.81466 0.79522 0.39260
 C1851 C 0.80665 0.80399 0.40302
 C1852 C 0.80546 0.81972 0.40049
 C1853 C 0.81210 0.82636 0.38786
 C1854 C 0.82012 0.81753 0.37750
 C1855 C 0.79980 0.79611 0.41612
 C1856 C 0.79190 0.80290 0.42705
 C1857 C 0.78489 0.79451 0.43969
 C1858 C 0.77228 0.80083 0.44692
 C1859 C 0.76513 0.79318 0.45868
 C1860 C 0.77055 0.77906 0.46358
 C1861 C 0.78344 0.77290 0.45663
 C1862 C 0.79058 0.78055 0.44485
 H1863 H 0.82722 0.79470 0.37216
 H1864 H 0.81575 0.78310 0.39415
 H1865 H 0.79949 0.82706 0.40810
 H1866 H 0.81113 0.83848 0.38632
 H1867 H 0.80110 0.78393 0.41649
 H1868 H 0.78976 0.81492 0.42659
 H1869 H 0.76777 0.81164 0.44330
 H1870 H 0.75528 0.79830 0.46385
 H1871 H 0.78800 0.76212 0.46024
 H1872 H 0.80062 0.77554 0.43998
 C1873 C 0.68148 0.30058 0.60720
 C1874 C 0.68886 0.29393 0.59504
 C1875 C 0.69700 0.30284 0.58476
 C1876 C 0.69733 0.31866 0.58675
 C1877 C 0.69001 0.32529 0.59895
 C1878 C 0.68205 0.31632 0.60934
 C1879 C 0.70458 0.29517 0.57202
 C1880 C 0.71567 0.30148 0.56374
 C1881 C 0.72337 0.29351 0.55127
 C1882 C 0.73781 0.29855 0.54669
 C1883 C 0.74556 0.29122 0.53514
 C1884 C 0.73897 0.27868 0.52788
 C1885 C 0.72437 0.27385 0.53220
 C1886 C 0.71660 0.28122 0.54368
 H1887 H 0.67556 0.29335 0.61506
 H1888 H 0.68831 0.28174 0.59375
 H1889 H 0.70298 0.32603 0.57884
 H1890 H 0.69036 0.33748 0.60012
 H1891 H 0.70129 0.28354 0.56995
 H1892 H 0.71995 0.31261 0.56661
 H1893 H 0.74322 0.30809 0.55221
 H1894 H 0.75677 0.29525 0.53204
 H1895 H 0.71888 0.26436 0.52669
 H1896 H 0.70526 0.27732 0.54639
 C1897 C 0.68015 0.79905 1.10927
 C1898 C 0.68648 0.79176 1.09693
 C1899 C 0.69381 0.80008 1.08564
 C1900 C 0.69454 0.81598 1.08693
 C1901 C 0.68827 0.82326 1.09936
 C1902 C 0.68097 0.81487 1.11064
 C1903 C 0.70012 0.79167 1.07270
 C1904 C 0.71015 0.79747 1.06292
 C1905 C 0.71669 0.78864 1.05038
 C1906 C 0.73055 0.79343 1.04416
 C1907 C 0.73728 0.78529 1.03254
 C1908 C 0.73024 0.77218 1.02682
 C1909 C 0.71618 0.76758 1.03278
 C1910 C 0.70942 0.77575 1.04435
 H1911 H 0.67477 0.79225 1.11786
 H1912 H 0.68569 0.77953 1.09624
 H1913 H 0.69965 0.82292 1.07833
 H1914 H 0.68883 0.83549 1.10000
 H1915 H 0.69682 0.77989 1.07172
 H1916 H 0.71451 0.80883 1.06453
 H1917 H 0.73632 0.80339 1.04846
 H1918 H 0.74809 0.78918 1.02815
 H1919 H 0.71036 0.75765 1.02847
 H1920 H 0.69844 0.77198 1.04838
 C1921 C 0.17740 0.30117 1.11488
 C1922 C 0.18340 0.29339 1.10264
 C1923 C 0.19106 0.30119 1.09121
 C1924 C 0.19222 0.31709 1.09210
 C1925 C 0.18628 0.32486 1.10438
 C1926 C 0.17887 0.31699 1.11594
 C1927 C 0.19745 0.29236 1.07857
 C1928 C 0.20872 0.29747 1.06977
 C1929 C 0.21583 0.28844 1.05766
 C1930 C 0.23023 0.29288 1.05248
 C1931 C 0.23751 0.28476 1.04120
 C1932 C 0.23052 0.27198 1.03474
 C1933 C 0.21598 0.26762 1.03973
 C1934 C 0.20867 0.27579 1.05102
 H1935 H 0.17188 0.29475 1.12365
 H1936 H 0.18223 0.28118 1.10221
 H1937 H 0.19750 0.32364 1.08329
 H1938 H 0.18729 0.33708 1.10472
 H1939 H 0.19331 0.28089 1.07719
 H1940 H 0.21374 0.30845 1.07203
 H1941 H 0.23597 0.30263 1.05727
 H1942 H 0.24868 0.28847 1.03760
 H1943 H 0.21023 0.25792 1.03488
 H1944 H 0.19737 0.27223 1.05432
 C1945 C 0.20047 0.82600 0.61365
 C1946 C 0.20856 0.81978 0.60174
 C1947 C 0.20094 0.81237 0.59001
 C1948 C 0.18492 0.81162 0.59027
 C1949 C 0.17682 0.81781 0.60223
 C1950 C 0.18450 0.82501 0.61408
 C1951 C 0.21010 0.80587 0.57768
 C1952 C 0.20502 0.79489 0.56854
 C1953 C 0.21442 0.78794 0.55662
 C1954 C 0.21026 0.77359 0.55122
 C1955 C 0.21879 0.76653 0.54008
 C1956 C 0.23169 0.77372 0.53403
 C1957 C 0.23573 0.78821 0.53924
 C1958 C 0.22716 0.79529 0.55036
 H1959 H 0.20673 0.83135 0.62267
 H1960 H 0.22088 0.82061 0.60179
 H1961 H 0.17853 0.80652 0.58121
 H1962 H 0.16451 0.81716 0.60209
 H1963 H 0.22176 0.80974 0.57677
 H1964 H 0.19384 0.79005 0.57032
 H1965 H 0.20042 0.76773 0.55573
 H1966 H 0.21532 0.75540 0.53627
 H1967 H 0.24550 0.79413 0.53468
 H1968 H 0.23047 0.80657 0.55379
 C1969 C 0.30314 0.67729 0.61483
 C1970 C 0.29629 0.68460 0.60272
 C1971 C 0.30512 0.69233 0.59208
 C1972 C 0.32108 0.69248 0.59379
 C1973 C 0.32793 0.68519 0.60597
 C1974 C 0.31903 0.67747 0.61658
 C1975 C 0.29720 0.69956 0.57926
 C1976 C 0.30343 0.71023 0.57046
 C1977 C 0.29505 0.71750 0.55795
 C1978 C 0.29960 0.73195 0.55314
 C1979 C 0.29180 0.73930 0.54158
 C1980 C 0.27930 0.73229 0.53452
 C1981 C 0.27498 0.71766 0.53908
 C1982 C 0.28280 0.71030 0.55059
 H1983 H 0.29595 0.67162 0.62291
 H1984 H 0.28400 0.68425 0.60168
 H1985 H 0.32837 0.69789 0.58564
 H1986 H 0.34022 0.68529 0.60689
 H1987 H 0.28542 0.69637 0.57753
 H1988 H 0.31472 0.71450 0.57293
 H1989 H 0.30910 0.73768 0.55849
 H1990 H 0.29547 0.75054 0.53828
 H1991 H 0.26554 0.71185 0.53373
 H1992 H 0.27930 0.69893 0.55353
 C1993 C 0.32150 0.19371 1.11688
 C1994 C 0.31528 0.20147 1.10471
 C1995 C 0.30701 0.19372 1.09362
 C1996 C 0.30517 0.17791 1.09496
 C1997 C 0.31135 0.17015 1.10721
 C1998 C 0.31964 0.17796 1.11826
 C1999 C 0.30096 0.20259 1.08079
 C2000 C 0.29020 0.19755 1.07130
 C2001 C 0.28396 0.20679 1.05883
 C2002 C 0.26964 0.20291 1.05293
 C2003 C 0.26320 0.21137 1.04133
 C2004 C 0.27097 0.22391 1.03530
 C2005 C 0.28545 0.22764 1.04098
 C2006 C 0.29192 0.21913 1.05255
 H2007 H 0.32767 0.20008 1.12530
 H2008 H 0.31693 0.21361 1.10399
 H2009 H 0.29929 0.17137 1.08650
 H2010 H 0.30996 0.15798 1.10786
 H2011 H 0.30514 0.21407 1.07965
 H2012 H 0.28505 0.18656 1.07310
 H2013 H 0.26332 0.19339 1.05744
 H2014 H 0.25204 0.20816 1.03719
 H2015 H 0.29181 0.23711 1.03644
 H2016 H 0.30322 0.22218 1.05634
 C2017 C 0.80096 0.67743 1.10880
 C2018 C 0.79375 0.68376 1.09636
 C2019 C 0.80223 0.69091 1.08507
 C2020 C 0.81821 0.69142 1.08644
 C2021 C 0.82542 0.68514 1.09896
 C2022 C 0.81687 0.67807 1.11025
 C2023 C 0.79390 0.69729 1.07206
 C2024 C 0.79987 0.70732 1.06238
 C2025 C 0.79107 0.71398 1.04981
 C2026 C 0.79585 0.72790 1.04382
 C2027 C 0.78766 0.73478 1.03224
 C2028 C 0.77452 0.72782 1.02637
 C2029 C 0.76996 0.71369 1.03207
 C2030 C 0.77819 0.70678 1.04359
 H2031 H 0.79405 0.67221 1.11740
 H2032 H 0.78145 0.68314 1.09560
 H2033 H 0.82527 0.69637 1.07783
 H2034 H 0.83772 0.68555 1.09966
 H2035 H 0.78205 0.69409 1.07095
 H2036 H 0.81128 0.71160 1.06414
 H2037 H 0.80582 0.73361 1.04828
 H2038 H 0.79151 0.74564 1.02804
 H2039 H 0.76002 0.70793 1.02763
 H2040 H 0.77445 0.69576 1.04743
 C2041 C 0.80598 0.18155 0.61045
 C2042 C 0.79936 0.18853 0.59804
 C2043 C 0.80839 0.19599 0.58737
 C2044 C 0.82431 0.19624 0.58940
 C2045 C 0.83093 0.18932 0.60191
 C2046 C 0.82184 0.18184 0.61252
 C2047 C 0.80066 0.20294 0.57426
 C2048 C 0.80720 0.21297 0.56497
 C2049 C 0.79902 0.22012 0.55226
 C2050 C 0.80445 0.23398 0.54668
 C2051 C 0.79693 0.24130 0.53494
 C2052 C 0.78381 0.23487 0.52846
 C2053 C 0.77857 0.22081 0.53378
 C2054 C 0.78613 0.21346 0.54548
 H2055 H 0.79866 0.17604 0.61853
 H2056 H 0.78710 0.18811 0.59678
 H2057 H 0.83179 0.20146 0.58131
 H2058 H 0.84319 0.18949 0.60311
 H2059 H 0.78876 0.20009 0.57272
 H2060 H 0.81868 0.21686 0.56713
 H2061 H 0.81444 0.23928 0.55157
 H2062 H 0.80132 0.25209 0.53106
 H2063 H 0.76861 0.21547 0.52889
 H2064 H 0.78189 0.20252 0.54902
 C2065 C 0.69951 0.68364 0.38276
 C2066 C 0.70640 0.69067 0.39502
 C2067 C 0.69766 0.69835 0.40569
 C2068 C 0.68172 0.69880 0.40381
 C2069 C 0.67482 0.69179 0.39146
 C2070 C 0.68365 0.68406 0.38086
 C2071 C 0.70569 0.70520 0.41869
 C2072 C 0.69953 0.71528 0.42811
 C2073 C 0.70815 0.72209 0.44076
 C2074 C 0.70369 0.73627 0.44627
 C2075 C 0.71182 0.74324 0.45789
 C2076 C 0.72456 0.73611 0.46428
 C2077 C 0.72875 0.72172 0.45907
 C2078 C 0.72060 0.71474 0.44752
 H2079 H 0.70665 0.67797 0.37469
 H2080 H 0.71867 0.69011 0.39616
 H2081 H 0.67446 0.70423 0.41191
 H2082 H 0.66255 0.69211 0.39038
 H2083 H 0.71753 0.70217 0.42010
 H2084 H 0.68814 0.71943 0.42612
 H2085 H 0.69404 0.74210 0.44140
 H2086 H 0.70825 0.75430 0.46170
 H2087 H 0.73837 0.71582 0.46391
 H2088 H 0.72403 0.70353 0.44406
 C2089 C 0.69781 0.18214 -0.11313
 C2090 C 0.70519 0.18855 -0.10079
 C2091 C 0.69708 0.19706 -0.09026
 C2092 C 0.68135 0.19921 -0.09249
 C2093 C 0.67396 0.19278 -0.10485
 C2094 C 0.68209 0.18415 -0.11531
 C2095 C 0.70563 0.20386 -0.07754
 C2096 C 0.69911 0.20932 -0.06512
 C2097 C 0.70788 0.21667 -0.05292
 C2098 C 0.70071 0.22779 -0.04429
 C2099 C 0.70866 0.23534 -0.03295
 C2100 C 0.72393 0.23175 -0.02984
 C2101 C 0.73098 0.22027 -0.03816
 C2102 C 0.72305 0.21280 -0.04960
 H2103 H 0.70450 0.17582 -0.12110
 H2104 H 0.71733 0.18685 -0.09947
 H2105 H 0.67466 0.20602 -0.08496
 H2106 H 0.66184 0.19449 -0.10616
 H2107 H 0.71789 0.20442 -0.07861
 H2108 H 0.68687 0.20905 -0.06393
 H2109 H 0.68899 0.23086 -0.04651
 H2110 H 0.70285 0.24404 -0.02667
 H2111 H 0.74269 0.21718 -0.03595
 H2112 H 0.72879 0.20392 -0.05567
 C2113 C 0.17370 0.70523 -0.11235
 C2114 C 0.18057 0.71254 -0.10018
 C2115 C 0.18938 0.70442 -0.08981
 C2116 C 0.19116 0.68871 -0.09193
 C2117 C 0.18426 0.68141 -0.10407
 C2118 C 0.17552 0.68958 -0.11448
 C2119 C 0.19686 0.71292 -0.07739
 C2120 C 0.20396 0.70640 -0.06573
 C2121 C 0.21217 0.71508 -0.05400
 C2122 C 0.22428 0.70805 -0.04651
 C2123 C 0.23249 0.71577 -0.03547
 C2124 C 0.22861 0.73066 -0.03150
 C2125 C 0.21626 0.73762 -0.03877
 C2126 C 0.20811 0.72992 -0.04992
 H2127 H 0.16724 0.71193 -0.12025
 H2128 H 0.17907 0.72465 -0.09895
 H2129 H 0.19802 0.68190 -0.08450
 H2130 H 0.18577 0.66932 -0.10526
 H2131 H 0.19674 0.72516 -0.07817
 H2132 H 0.20448 0.69423 -0.06486
 H2133 H 0.22755 0.69659 -0.04934
 H2134 H 0.24187 0.71004 -0.03002
 H2135 H 0.21293 0.74904 -0.03588
 H2136 H 0.19854 0.73554 -0.05512
 C2137 C 0.17766 0.19595 0.39270
 C2138 C 0.18413 0.20322 0.40506
 C2139 C 0.19222 0.19500 0.41590
 C2140 C 0.19355 0.17919 0.41416
 C2141 C 0.18711 0.17192 0.40173
 C2142 C 0.17906 0.18021 0.39088
 C2143 C 0.19869 0.20334 0.42890
 C2144 C 0.20974 0.19793 0.43780
 C2145 C 0.21655 0.20664 0.45038
 C2146 C 0.23108 0.20259 0.45553
 C2147 C 0.23805 0.21056 0.46721
 C2148 C 0.23060 0.22275 0.47409
 C2149 C 0.21591 0.22664 0.46917
 C2150 C 0.20892 0.21864 0.45750
 H2151 H 0.17170 0.20270 0.38446
 H2152 H 0.18287 0.21538 0.40611
 H2153 H 0.19924 0.17230 0.42245
 H2154 H 0.18813 0.15975 0.40077
 H2155 H 0.19464 0.21476 0.43063
 H2156 H 0.21476 0.18705 0.43534
 H2157 H 0.23715 0.19332 0.45037
 H2158 H 0.24934 0.20721 0.47076
 H2159 H 0.20980 0.23586 0.47436
 H2160 H 0.19750 0.22180 0.45427
 C2161 C 0.30213 0.39735 0.67732
 C2162 C 0.29455 0.40957 0.68376
 C2163 C 0.29642 0.41296 0.69899
 C2164 C 0.30601 0.40375 0.70773
 C2165 C 0.31356 0.39146 0.70129
 C2166 C 0.31164 0.38806 0.68602
 C2167 C 0.28757 0.42564 0.70540
 C2168 C 0.29180 0.43332 0.71772
 C2169 C 0.28287 0.44590 0.72438
 C2170 C 0.28671 0.45086 0.73885
 C2171 C 0.27860 0.46253 0.74571
 C2172 C 0.26642 0.46953 0.73823
 C2173 C 0.26269 0.46476 0.72368
 C2174 C 0.27085 0.45316 0.71679
 H2175 H 0.30056 0.39522 0.66550
 H2176 H 0.28720 0.41645 0.67679
 H2177 H 0.30737 0.40566 0.71961
 H2178 H 0.32054 0.38438 0.70839
 H2179 H 0.27730 0.42869 0.69948
 H2180 H 0.30225 0.43023 0.72337
 H2181 H 0.29596 0.44559 0.74495
 H2182 H 0.28179 0.46597 0.75693
 H2183 H 0.25349 0.47005 0.71754
 H2184 H 0.26769 0.45017 0.70548
 C2185 C 0.29899 0.88694 0.18185
 C2186 C 0.29159 0.89888 0.18898
 C2187 C 0.29958 0.90870 0.19856
 C2188 C 0.31523 0.90616 0.20099
 C2189 C 0.32264 0.89423 0.19382
 C2190 C 0.31462 0.88447 0.18417
 C2191 C 0.29100 0.92103 0.20605
 C2192 C 0.29755 0.93269 0.21328
 C2193 C 0.28876 0.94447 0.22121
 C2194 C 0.29554 0.95176 0.23348
 C2195 C 0.28768 0.96286 0.24140
 C2196 C 0.27290 0.96709 0.23707
 C2197 C 0.26619 0.96004 0.22458
 C2198 C 0.27403 0.94882 0.21672
 H2199 H 0.29239 0.87949 0.17472
 H2200 H 0.27952 0.90044 0.18700
 H2201 H 0.32186 0.91311 0.20853
 H2202 H 0.33469 0.89274 0.19578
 H2203 H 0.27870 0.92028 0.20566
 H2204 H 0.30979 0.93355 0.21401
 H2205 H 0.30692 0.94872 0.23708
 H2206 H 0.29323 0.96815 0.25090
 H2207 H 0.25487 0.96314 0.22090
 H2208 H 0.26862 0.94379 0.20702
 C2209 C 0.82326 0.38420 0.19865
 C2210 C 0.81652 0.39627 0.20620
 C2211 C 0.80762 0.40689 0.19848
 C2212 C 0.80542 0.40500 0.18295
 C2213 C 0.81220 0.39292 0.17540
 C2214 C 0.82125 0.38240 0.18314
 C2215 C 0.80068 0.41942 0.20720
 C2216 C 0.79406 0.43163 0.20110
 C2217 C 0.78685 0.44371 0.21011
 C2218 C 0.77481 0.45189 0.20376
 C2219 C 0.76756 0.46328 0.21185
 C2220 C 0.77236 0.46691 0.22644
 C2221 C 0.78467 0.45898 0.23271
 C2222 C 0.79185 0.44747 0.22464
 H2223 H 0.82989 0.37616 0.20505
 H2224 H 0.81830 0.39730 0.21816
 H2225 H 0.79840 0.41261 0.17650
 H2226 H 0.81048 0.39192 0.16344
 H2227 H 0.80101 0.41839 0.21927
 H2228 H 0.79329 0.43279 0.18909
 H2229 H 0.77085 0.44932 0.19254
 H2230 H 0.75820 0.46925 0.20664
 H2231 H 0.78870 0.46160 0.24388
 H2232 H 0.80142 0.44174 0.22972
 C2233 C 0.79740 0.88912 0.67872
 C2234 C 0.78994 0.90123 0.68549
 C2235 C 0.79813 0.91221 0.69355
 C2236 C 0.81407 0.91084 0.69464
 C2237 C 0.82153 0.89866 0.68790
 C2238 C 0.81328 0.88772 0.67980
 C2239 C 0.78959 0.92507 0.70009
 C2240 C 0.79511 0.93436 0.71071
 C2241 C 0.78621 0.94702 0.71714
 C2242 C 0.79013 0.95247 0.73140
 C2243 C 0.78193 0.96427 0.73793
 C2244 C 0.76966 0.97093 0.73028
 C2245 C 0.76594 0.96571 0.71587
 C2246 C 0.77416 0.95395 0.70933
 H2247 H 0.79070 0.88078 0.67272
 H2248 H 0.77767 0.90200 0.68442
 H2249 H 0.82092 0.91925 0.70034
 H2250 H 0.83381 0.89801 0.68870
 H2251 H 0.77796 0.92646 0.69634
 H2252 H 0.80622 0.93227 0.71550
 H2253 H 0.79946 0.94746 0.73760
 H2254 H 0.78513 0.96808 0.74902
 H2255 H 0.75668 0.97074 0.70959
 H2256 H 0.77114 0.95053 0.69809
 C2257 C 0.68133 0.61444 0.69203
 C2258 C 0.68727 0.60198 0.69965
 C2259 C 0.69454 0.59027 0.69187
 C2260 C 0.69568 0.59130 0.67617
 C2261 C 0.68979 0.60385 0.66855
 C2262 C 0.68248 0.61550 0.67639
 C2263 C 0.70029 0.57716 0.70062
 C2264 C 0.70999 0.56676 0.69534
 C2265 C 0.71586 0.55403 0.70452
 C2266 C 0.72962 0.54720 0.70036
 C2267 C 0.73573 0.53539 0.70885
 C2268 C 0.72816 0.53006 0.72167
 C2269 C 0.71420 0.53661 0.72563
 C2270 C 0.70806 0.54840 0.71711
 H2271 H 0.67593 0.62332 0.69841
 H2272 H 0.68619 0.60151 0.71172
 H2273 H 0.70078 0.58240 0.66962
 H2274 H 0.69062 0.60426 0.65647
 H2275 H 0.69679 0.57653 0.71221
 H2276 H 0.71457 0.56796 0.68419
 H2277 H 0.73578 0.55118 0.69063
 H2278 H 0.74648 0.53054 0.70544
 H2279 H 0.70799 0.53263 0.73533
 H2280 H 0.69714 0.55289 0.72038
 C2281 C 0.67716 0.11541 0.19799
 C2282 C 0.68320 0.10271 0.20515
 C2283 C 0.69108 0.09164 0.19703
 C2284 C 0.69266 0.09354 0.18144
 C2285 C 0.68667 0.10633 0.17429
 C2286 C 0.67882 0.11738 0.18248
 C2287 C 0.69708 0.07830 0.20530
 C2288 C 0.70757 0.06876 0.19989
 C2289 C 0.71390 0.05584 0.20855
 C2290 C 0.72798 0.04984 0.20420
 C2291 C 0.73453 0.03785 0.21211
 C2292 C 0.72711 0.03150 0.22456
 C2293 C 0.71287 0.03727 0.22876
 C2294 C 0.70628 0.04925 0.22081
 H2295 H 0.67135 0.12379 0.20466
 H2296 H 0.68175 0.10156 0.21714
 H2297 H 0.69823 0.08514 0.17462
 H2298 H 0.68790 0.10741 0.16228
 H2299 H 0.69313 0.07682 0.21666
 H2300 H 0.71249 0.07088 0.18900
 H2301 H 0.73404 0.05457 0.19474
 H2302 H 0.74549 0.03365 0.20854
 H2303 H 0.70678 0.03252 0.23819
 H2304 H 0.69517 0.05312 0.22424
 C2305 C 0.20323 0.61386 0.18018
 C2306 C 0.21063 0.60167 0.18692
 C2307 C 0.20232 0.59021 0.19416
 C2308 C 0.18631 0.59123 0.19446
 C2309 C 0.17890 0.60350 0.18775
 C2310 C 0.18728 0.61489 0.18046
 C2311 C 0.21084 0.57732 0.20076
 C2312 C 0.20504 0.56764 0.21084
 C2313 C 0.21393 0.55511 0.21762
 C2314 C 0.20930 0.54927 0.23149
 C2315 C 0.21744 0.53764 0.23841
 C2316 C 0.23039 0.53148 0.23155
 C2317 C 0.23486 0.53706 0.21750
 C2318 C 0.22669 0.54869 0.21056
 H2319 H 0.21001 0.62255 0.17481
 H2320 H 0.22295 0.60119 0.18648
 H2321 H 0.17939 0.58247 0.19951
 H2322 H 0.16659 0.60387 0.18792
 H2323 H 0.22268 0.57630 0.19760
 H2324 H 0.19365 0.56935 0.21505
 H2325 H 0.19943 0.55388 0.23711
 H2326 H 0.21364 0.53355 0.24921
 H2327 H 0.24467 0.53243 0.21183
 H2328 H 0.23033 0.55245 0.19962
 C2329 C 0.18098 0.11245 0.70339
 C2330 C 0.18755 0.10008 0.71063
 C2331 C 0.19519 0.08889 0.70247
 C2332 C 0.19603 0.09032 0.68678
 C2333 C 0.18950 0.10277 0.67954
 C2334 C 0.18184 0.11393 0.68776
 C2335 C 0.20162 0.07583 0.71079
 C2336 C 0.21213 0.06640 0.70528
 C2337 C 0.21869 0.05371 0.71405
 C2338 C 0.23310 0.04821 0.71014
 C2339 C 0.23983 0.03650 0.71831
 C2340 C 0.23222 0.02995 0.73054
 C2341 C 0.21763 0.03518 0.73424
 C2342 C 0.21089 0.04686 0.72604
 H2343 H 0.17534 0.12095 0.71006
 H2344 H 0.18668 0.09927 0.72270
 H2345 H 0.20140 0.08176 0.67998
 H2346 H 0.19011 0.10348 0.66746
 H2347 H 0.19797 0.07446 0.72227
 H2348 H 0.21687 0.06845 0.69430
 H2349 H 0.23929 0.05316 0.70086
 H2350 H 0.25106 0.03268 0.71512
 H2351 H 0.21138 0.03023 0.74347
 H2352 H 0.19952 0.05033 0.72907
 C2353 C 0.30436 0.61430 0.32382
 C2354 C 0.29719 0.60178 0.31733
 C2355 C 0.30564 0.59086 0.30958
 C2356 C 0.32155 0.59272 0.30858
 C2357 C 0.32872 0.60532 0.31503
 C2358 C 0.32020 0.61622 0.32276
 C2359 C 0.29736 0.57767 0.30313
 C2360 C 0.30313 0.56840 0.29272
 C2361 C 0.29441 0.55563 0.28602
 C2362 C 0.29886 0.55013 0.27198
 C2363 C 0.29082 0.53833 0.26510
 C2364 C 0.27816 0.53170 0.27216
 C2365 C 0.27391 0.53694 0.28639
 C2366 C 0.28199 0.54871 0.29329
 H2367 H 0.29746 0.62259 0.32954
 H2368 H 0.28495 0.60066 0.31832
 H2369 H 0.32861 0.58440 0.30313
 H2370 H 0.34097 0.60637 0.31426
 H2371 H 0.28570 0.57610 0.30668
 H2372 H 0.31430 0.57065 0.28817
 H2373 H 0.30847 0.55512 0.26619
 H2374 H 0.29444 0.53452 0.25416
 H2375 H 0.26433 0.53194 0.29221
 H2376 H 0.27852 0.55217 0.30436
 C2377 C 0.33217 0.10507 0.81241
 C2378 C 0.32621 0.09236 0.80512
 C2379 C 0.31085 0.08831 0.80680
 C2380 C 0.30147 0.09740 0.81580
 C2381 C 0.30742 0.11015 0.82304
 C2382 C 0.32284 0.11417 0.82143
 C2383 C 0.30489 0.07505 0.79843
 C2384 C 0.29277 0.06691 0.80289
 C2385 C 0.28621 0.05396 0.79437
 C2386 C 0.27160 0.04877 0.79825
 C2387 C 0.26470 0.03691 0.79038
 C2388 C 0.27226 0.02991 0.77842
 C2389 C 0.28700 0.03485 0.77472
 C2390 C 0.29395 0.04668 0.78263
 H2391 H 0.34413 0.10770 0.81104
 H2392 H 0.33365 0.08561 0.79818
 H2393 H 0.28945 0.09499 0.81695
 H2394 H 0.29982 0.11708 0.82960
 H2395 H 0.31090 0.07203 0.78835
 H2396 H 0.28709 0.06997 0.81317
 H2397 H 0.26540 0.05406 0.80730
 H2398 H 0.25334 0.03335 0.79355
 H2399 H 0.29321 0.02958 0.76567
 H2400 H 0.30537 0.04989 0.77949
 C2401 C 0.79968 0.61136 0.81905
 C2402 C 0.79201 0.59914 0.81252
 C2403 C 0.79969 0.58894 0.80319
 C2404 C 0.81532 0.59132 0.80048
 C2405 C 0.82299 0.60355 0.80704
 C2406 C 0.81527 0.61374 0.81638
 C2407 C 0.79077 0.57640 0.79627
 C2408 C 0.79690 0.56446 0.78926
 C2409 C 0.78762 0.55237 0.78211
 C2410 C 0.79385 0.54427 0.77012
 C2411 C 0.78543 0.53293 0.76293
 C2412 C 0.77063 0.52930 0.76772
 C2413 C 0.76451 0.53716 0.77996
 C2414 C 0.77291 0.54855 0.78711
 H2415 H 0.79330 0.61910 0.82596
 H2416 H 0.77997 0.59770 0.81472
 H2417 H 0.82171 0.58403 0.79316
 H2418 H 0.83502 0.60499 0.80484
 H2419 H 0.77850 0.57723 0.79695
 H2420 H 0.80910 0.56354 0.78817
 H2421 H 0.80521 0.54688 0.76616
 H2422 H 0.79053 0.52703 0.75360
 H2423 H 0.75319 0.53454 0.78402
 H2424 H 0.76791 0.55414 0.79666
 C2425 C 0.82025 0.11250 0.29948
 C2426 C 0.81376 0.10014 0.29205
 C2427 C 0.80632 0.08861 0.30004
 C2428 C 0.80566 0.08966 0.31577
 C2429 C 0.81210 0.10209 0.32320
 C2430 C 0.81950 0.11363 0.31514
 C2431 C 0.79979 0.07566 0.29152
 C2432 C 0.78927 0.06609 0.29699
 C2433 C 0.78232 0.05360 0.28813
 C2434 C 0.76816 0.04780 0.29265
 C2435 C 0.76102 0.03624 0.28455
 C2436 C 0.76793 0.03011 0.27176
 C2437 C 0.78227 0.03565 0.26740
 C2438 C 0.78944 0.04721 0.27553
 H2439 H 0.82571 0.12128 0.29293
 H2440 H 0.81450 0.09963 0.27996
 H2441 H 0.80050 0.08084 0.32246
 H2442 H 0.81161 0.10251 0.33529
 H2443 H 0.80329 0.07456 0.27998
 H2444 H 0.78476 0.06791 0.30809
 H2445 H 0.76248 0.05237 0.30238
 H2446 H 0.75000 0.03220 0.28826
 H2447 H 0.78797 0.03105 0.25770
 H2448 H 0.80059 0.05094 0.27196
 C2449 C 0.67569 0.38622 0.30168
 C2450 C 0.68229 0.39827 0.29388
 C2451 C 0.69217 0.40845 0.30111
 C2452 C 0.69544 0.40617 0.31640
 C2453 C 0.68880 0.39413 0.32421
 C2454 C 0.67885 0.38399 0.31696
 C2455 C 0.69916 0.42083 0.29212
 C2456 C 0.70625 0.43293 0.29804
 C2457 C 0.71380 0.44475 0.28888
 C2458 C 0.72612 0.45270 0.29513
 C2459 C 0.73373 0.46382 0.28691
 C2460 C 0.72904 0.46743 0.27228
 C2461 C 0.71647 0.45973 0.26611
 C2462 C 0.70892 0.44848 0.27431
 H2463 H 0.66832 0.37849 0.29565
 H2464 H 0.67969 0.39962 0.28209
 H2465 H 0.70328 0.41340 0.32242
 H2466 H 0.69142 0.39281 0.33598
 H2467 H 0.69850 0.41975 0.28007
 H2468 H 0.70718 0.43413 0.31004
 H2469 H 0.73001 0.45015 0.30637
 H2470 H 0.74329 0.46963 0.29205
 H2471 H 0.71252 0.46234 0.25491
 H2472 H 0.69916 0.44293 0.26930
 C2473 C 0.68545 0.89990 0.83048
 C2474 C 0.69258 0.91256 0.82424
 C2475 C 0.69108 0.91576 0.80893
 C2476 C 0.68232 0.90595 0.79992
 C2477 C 0.67524 0.89322 0.80617
 C2478 C 0.67680 0.88999 0.82151
 C2479 C 0.69953 0.92885 0.80269
 C2480 C 0.69527 0.93624 0.79024
 C2481 C 0.70405 0.94895 0.78352
 C2482 C 0.70078 0.95317 0.76870
 C2483 C 0.70903 0.96473 0.76168
 C2484 C 0.72075 0.97234 0.76936
 C2485 C 0.72380 0.96840 0.78430
 C2486 C 0.71550 0.95692 0.79135
 H2487 H 0.68672 0.89789 0.84237
 H2488 H 0.69931 0.91990 0.83140
 H2489 H 0.68132 0.90773 0.78799
 H2490 H 0.66894 0.88568 0.79887
 H2491 H 0.70960 0.93235 0.80876
 H2492 H 0.68504 0.93268 0.78442
 H2493 H 0.69195 0.94735 0.76243
 H2494 H 0.70636 0.96753 0.75017
 H2495 H 0.73263 0.97420 0.79058
 H2496 H 0.71812 0.95453 0.80292
 C2497 C 0.18531 0.39759 0.84044
 C2498 C 0.19258 0.41018 0.83416
 C2499 C 0.19038 0.41389 0.81904
 C2500 C 0.18086 0.40460 0.81024
 C2501 C 0.17364 0.39198 0.81650
 C2502 C 0.17580 0.38829 0.83167
 C2503 C 0.19881 0.42697 0.81270
 C2504 C 0.19401 0.43477 0.80069
 C2505 C 0.20264 0.44743 0.79370
 C2506 C 0.19846 0.45209 0.77923
 C2507 C 0.20645 0.46364 0.77194
 C2508 C 0.21882 0.47085 0.77899
 C2509 C 0.22282 0.46646 0.79360
 C2510 C 0.21480 0.45495 0.80091
 H2511 H 0.18710 0.39519 0.85219
 H2512 H 0.19993 0.41708 0.84116
 H2513 H 0.17932 0.40673 0.79841
 H2514 H 0.16670 0.38489 0.80933
 H2515 H 0.20928 0.43010 0.81829
 H2516 H 0.18336 0.43160 0.79541
 H2517 H 0.18909 0.44661 0.77343
 H2518 H 0.20305 0.46679 0.76071
 H2519 H 0.23220 0.47192 0.79940
 H2520 H 0.21817 0.45216 0.81221
 C2521 C 0.19859 0.88212 0.32812
 C2522 C 0.20631 0.89460 0.32216
 C2523 C 0.19878 0.90495 0.31284
 C2524 C 0.18331 0.90238 0.30938
 C2525 C 0.17559 0.88989 0.31536
 C2526 C 0.18312 0.87963 0.32483
 C2527 C 0.20767 0.91786 0.30664
 C2528 C 0.20142 0.93025 0.30051
 C2529 C 0.21054 0.94271 0.29389
 C2530 C 0.20407 0.95131 0.28233
 C2531 C 0.21234 0.96296 0.27553
 C2532 C 0.22721 0.96643 0.28030
 C2533 C 0.23357 0.95812 0.29217
 C2534 C 0.22532 0.94636 0.29891
 H2535 H 0.20485 0.87430 0.33511
 H2536 H 0.21825 0.89616 0.32487
 H2537 H 0.17711 0.90976 0.30191
 H2538 H 0.16367 0.88834 0.31265
 H2539 H 0.21995 0.91698 0.30716
 H2540 H 0.18919 0.93125 0.29974
 H2541 H 0.19266 0.94884 0.27837
 H2542 H 0.20706 0.96922 0.26649
 H2543 H 0.24495 0.96060 0.29618
 H2544 H 0.23050 0.94032 0.30814
 C2545 C 0.38259 0.32568 0.70233
 C2546 C 0.39544 0.31925 0.70900
 C2547 C 0.40582 0.31079 0.70053
 C2548 C 0.40302 0.30901 0.68508
 C2549 C 0.39012 0.31541 0.67843
 C2550 C 0.37973 0.32377 0.68697
 C2551 C 0.41912 0.30399 0.70842
 C2552 C 0.42987 0.29552 0.70185
 C2553 C 0.44257 0.28828 0.71016
 C2554 C 0.44947 0.27546 0.70392
 C2555 C 0.46126 0.26805 0.71143
 C2556 C 0.46654 0.27338 0.72534
 C2557 C 0.45992 0.28646 0.73143
 C2558 C 0.44809 0.29386 0.72392
 H2559 H 0.37473 0.33189 0.70929
 H2560 H 0.39722 0.32083 0.72091
 H2561 H 0.41058 0.30272 0.67793
 H2562 H 0.38837 0.31392 0.66653
 H2563 H 0.41970 0.30573 0.72040
 H2564 H 0.42916 0.29303 0.69005
 H2565 H 0.44557 0.27101 0.69328
 H2566 H 0.46617 0.25807 0.70637
 H2567 H 0.46382 0.29094 0.74205
 H2568 H 0.44347 0.30401 0.72888
 C2569 C 0.38357 0.82038 0.19945
 C2570 C 0.39608 0.81381 0.20657
 C2571 C 0.40755 0.80672 0.19826
 C2572 C 0.40624 0.80643 0.18254
 C2573 C 0.39364 0.81295 0.17541
 C2574 C 0.38221 0.82005 0.18379
 C2575 C 0.42075 0.80026 0.20650
 C2576 C 0.43076 0.79050 0.20061
 C2577 C 0.44363 0.78393 0.20924
 C2578 C 0.45005 0.77029 0.20430
 C2579 C 0.46202 0.76357 0.21220
 C2580 C 0.46792 0.77039 0.22521
 C2581 C 0.46175 0.78423 0.22997
 C2582 C 0.44981 0.79097 0.22204
 H2583 H 0.37486 0.82559 0.20624
 H2584 H 0.39677 0.81425 0.21868
 H2585 H 0.41497 0.80150 0.17561
 H2586 H 0.39303 0.81276 0.16331
 H2587 H 0.42175 0.80325 0.21820
 H2588 H 0.42914 0.78644 0.18931
 H2589 H 0.44565 0.76469 0.19440
 H2590 H 0.46655 0.75294 0.20819
 H2591 H 0.46615 0.78988 0.23984
 H2592 H 0.44564 0.80177 0.22593
 C2593 C 0.89057 0.30192 0.17773
 C2594 C 0.90283 0.29471 0.18466
 C2595 C 0.91290 0.30282 0.19392
 C2596 C 0.91035 0.31840 0.19616
 C2597 C 0.89810 0.32561 0.18919
 C2598 C 0.88803 0.31746 0.17994
 C2599 C 0.92540 0.29443 0.20141
 C2600 C 0.93739 0.30105 0.20809
 C2601 C 0.94926 0.29243 0.21619
 C2602 C 0.95694 0.29946 0.22809
 C2603 C 0.96798 0.29164 0.23626
 C2604 C 0.97172 0.27666 0.23254
 C2605 C 0.96431 0.26972 0.22037
 C2606 C 0.95319 0.27752 0.21225
 H2607 H 0.88290 0.29522 0.17090
 H2608 H 0.90440 0.28268 0.18285
 H2609 H 0.91750 0.32510 0.20347
 H2610 H 0.89655 0.33761 0.19104
 H2611 H 0.92447 0.28220 0.20153
 H2612 H 0.93844 0.31325 0.20829
 H2613 H 0.95422 0.31098 0.23124
 H2614 H 0.97356 0.29735 0.24551
 H2615 H 0.96705 0.25823 0.21715
 H2616 H 0.94788 0.27190 0.20282
 C2617 C 0.88346 0.82428 0.69351
 C2618 C 0.89590 0.81727 0.70034
 C2619 C 0.90695 0.80986 0.69174
 C2620 C 0.90539 0.80987 0.67604
 C2621 C 0.89288 0.81682 0.66922
 C2622 C 0.88177 0.82409 0.67787
 C2623 C 0.91994 0.80265 0.69966
 C2624 C 0.92921 0.79236 0.69347
 C2625 C 0.94179 0.78485 0.70175
 C2626 C 0.94745 0.77107 0.69628
 C2627 C 0.95909 0.76346 0.70384
 C2628 C 0.96539 0.76948 0.71704
 C2629 C 0.95999 0.78343 0.72234
 C2630 C 0.94841 0.79109 0.71475
 H2631 H 0.87502 0.82963 0.70051
 H2632 H 0.89681 0.81752 0.71243
 H2633 H 0.91385 0.80476 0.66891
 H2634 H 0.89203 0.81675 0.65713
 H2635 H 0.92133 0.80546 0.71136
 H2636 H 0.92710 0.78854 0.68216
 H2637 H 0.94270 0.76608 0.68622
 H2638 H 0.96303 0.75275 0.69943
 H2639 H 0.96475 0.78848 0.73237
 H2640 H 0.94486 0.80194 0.71906
 C2641 C 0.61090 0.30230 0.32439
 C2642 C 0.59822 0.29505 0.31817
 C2643 C 0.58694 0.30340 0.31072
 C2644 C 0.58841 0.31927 0.30999
 C2645 C 0.60114 0.32651 0.31616
 C2646 C 0.61256 0.31810 0.32335
 C2647 C 0.57386 0.29510 0.30405
 C2648 C 0.56516 0.30071 0.29301
 C2649 C 0.55271 0.29203 0.28569
 C2650 C 0.54793 0.29646 0.27135
 C2651 C 0.53647 0.28846 0.26386
 C2652 C 0.52947 0.27586 0.27060
 C2653 C 0.53399 0.27161 0.28510
 C2654 C 0.54542 0.27965 0.29262
 H2655 H 0.61956 0.29549 0.32974
 H2656 H 0.59734 0.28284 0.31899
 H2657 H 0.57972 0.32620 0.30486
 H2658 H 0.60196 0.33872 0.31549
 H2659 H 0.57209 0.28357 0.30777
 H2660 H 0.56780 0.31172 0.28835
 H2661 H 0.55324 0.30604 0.26581
 H2662 H 0.53321 0.29208 0.25272
 H2663 H 0.52867 0.26207 0.29067
 H2664 H 0.54833 0.27618 0.30387
 C2665 C 0.61295 0.82160 0.80135
 C2666 C 0.60125 0.81414 0.79369
 C2667 C 0.59086 0.80487 0.80136
 C2668 C 0.59234 0.80337 0.81700
 C2669 C 0.60412 0.81079 0.82465
 C2670 C 0.61453 0.82000 0.81691
 C2671 C 0.57849 0.79746 0.79263
 C2672 C 0.57008 0.78579 0.79763
 C2673 C 0.55786 0.77847 0.78862
 C2674 C 0.55326 0.76369 0.79230
 C2675 C 0.54182 0.75637 0.78409
 C2676 C 0.53469 0.76373 0.77202
 C2677 C 0.53912 0.77861 0.76848
 C2678 C 0.55048 0.78595 0.77673
 H2679 H 0.62090 0.82847 0.79504
 H2680 H 0.60037 0.81558 0.78167
 H2681 H 0.58433 0.79676 0.82346
 H2682 H 0.60489 0.80956 0.83668
 H2683 H 0.57680 0.80150 0.78132
 H2684 H 0.57259 0.78082 0.80842
 H2685 H 0.55862 0.75772 0.80150
 H2686 H 0.53862 0.74492 0.78714
 H2687 H 0.53370 0.78468 0.75938
 H2688 H 0.55321 0.79754 0.77386
 C2689 C 0.09874 0.33121 0.82087
 C2690 C 0.08642 0.32480 0.81319
 C2691 C 0.08475 0.30902 0.81218
 C2692 C 0.09579 0.29974 0.81900
 C2693 C 0.10807 0.30617 0.82675
 C2694 C 0.10973 0.32197 0.82770
 C2695 C 0.07180 0.30282 0.80333
 C2696 C 0.06681 0.28846 0.80433
 C2697 C 0.05415 0.28221 0.79512
 C2698 C 0.04700 0.26878 0.79982
 C2699 C 0.03539 0.26219 0.79127
 C2700 C 0.03069 0.26886 0.77775
 C2701 C 0.03783 0.28230 0.77301
 C2702 C 0.04949 0.28886 0.78153
 H2703 H 0.09964 0.34342 0.82152
 H2704 H 0.07817 0.33223 0.80798
 H2705 H 0.09530 0.28754 0.81810
 H2706 H 0.11653 0.29876 0.83163
 H2707 H 0.06593 0.31067 0.79605
 H2708 H 0.07178 0.28095 0.81255
 H2709 H 0.05043 0.26334 0.81016
 H2710 H 0.03015 0.25181 0.79522
 H2711 H 0.03459 0.28763 0.76256
 H2712 H 0.05500 0.29890 0.77717
 C2713 C 0.11523 0.79684 0.31909
 C2714 C 0.10309 0.78978 0.31172
 C2715 C 0.09265 0.79827 0.30329
 C2716 C 0.09464 0.81409 0.30242
 C2717 C 0.10685 0.82115 0.30976
 C2718 C 0.11722 0.81261 0.31826
 C2719 C 0.07967 0.79013 0.29617
 C2720 C 0.07069 0.79599 0.28546
 C2721 C 0.05791 0.78742 0.27852
 C2722 C 0.05291 0.79153 0.26415
 C2723 C 0.04108 0.78355 0.25713
 C2724 C 0.03393 0.77133 0.26440
 C2725 C 0.03866 0.76747 0.27895
 C2726 C 0.05044 0.77546 0.28597
 H2727 H 0.12312 0.78992 0.32538
 H2728 H 0.10186 0.77760 0.31263
 H2729 H 0.08668 0.82116 0.29642
 H2730 H 0.10796 0.83334 0.30912
 H2731 H 0.07789 0.77851 0.29962
 H2732 H 0.07314 0.80710 0.28097
 H2733 H 0.05833 0.80080 0.25823
 H2734 H 0.03766 0.78686 0.24595
 H2735 H 0.03325 0.75825 0.28494
 H2736 H 0.05350 0.77231 0.29728
 C2737 C 0.61539 0.69789 0.67011
 C2738 C 0.60306 0.70510 0.67689
 C2739 C 0.59287 0.69696 0.68595
 C2740 C 0.59534 0.68135 0.68811
 C2741 C 0.60762 0.67415 0.68130
 C2742 C 0.61786 0.68233 0.67231
 C2743 C 0.58034 0.70531 0.69339
 C2744 C 0.56835 0.69859 0.69997
 C2745 C 0.55650 0.70702 0.70821
 C2746 C 0.54875 0.69960 0.71981
 C2747 C 0.53762 0.70711 0.72805
 C2748 C 0.53381 0.72218 0.72470
 C2749 C 0.54132 0.72954 0.71285
 C2750 C 0.55256 0.72205 0.70468
 H2751 H 0.62316 0.70459 0.66344
 H2752 H 0.60155 0.71714 0.67512
 H2753 H 0.58812 0.67459 0.69526
 H2754 H 0.60908 0.66213 0.68311
 H2755 H 0.58127 0.71753 0.69364
 H2756 H 0.56729 0.68641 0.69996
 H2757 H 0.55147 0.68799 0.72266
 H2758 H 0.53197 0.70109 0.73703
 H2759 H 0.53855 0.74111 0.70993
 H2760 H 0.55795 0.72798 0.69551
 C2761 C 0.61407 0.20155 0.18026
 C2762 C 0.60156 0.20892 0.18644
 C2763 C 0.58995 0.20067 0.19354
 C2764 C 0.59107 0.18477 0.19418
 C2765 C 0.60365 0.17740 0.18805
 C2766 C 0.61526 0.18570 0.18098
 C2767 C 0.57682 0.20913 0.19969
 C2768 C 0.56706 0.20346 0.20979
 C2769 C 0.55433 0.21229 0.21622
 C2770 C 0.54833 0.20782 0.23008
 C2771 C 0.53651 0.21595 0.23668
 C2772 C 0.53036 0.22872 0.22951
 C2773 C 0.53612 0.23302 0.21547
 C2774 C 0.54791 0.22486 0.20885
 H2775 H 0.62290 0.20828 0.17504
 H2776 H 0.60099 0.22115 0.18572
 H2777 H 0.58219 0.17789 0.19911
 H2778 H 0.60414 0.16516 0.18852
 H2779 H 0.57571 0.22082 0.19624
 H2780 H 0.56888 0.19224 0.21430
 H2781 H 0.55294 0.19811 0.23592
 H2782 H 0.53229 0.21229 0.24747
 H2783 H 0.53149 0.24269 0.20957
 H2784 H 0.55177 0.22836 0.19790
 C2785 C 0.10646 0.68405 0.16576
 C2786 C 0.09356 0.69102 0.17169
 C2787 C 0.09091 0.69105 0.18718
 C2788 C 0.10154 0.68388 0.19665
 C2789 C 0.11440 0.67683 0.19070
 C2790 C 0.11706 0.67693 0.17520
 C2791 C 0.07740 0.69929 0.19291
 C2792 C 0.07179 0.69770 0.20679
 C2793 C 0.05865 0.70645 0.21261
 C2794 C 0.05124 0.70122 0.22554
 C2795 C 0.03923 0.70938 0.23179
 C2796 C 0.03435 0.72302 0.22527
 C2797 C 0.04172 0.72826 0.21231
 C2798 C 0.05378 0.72014 0.20609
 H2799 H 0.10811 0.68420 0.15377
 H2800 H 0.08565 0.69650 0.16412
 H2801 H 0.10029 0.68399 0.20868
 H2802 H 0.12251 0.67169 0.19827
 H2803 H 0.07170 0.70671 0.18507
 H2804 H 0.07667 0.68936 0.21424
 H2805 H 0.05480 0.69080 0.23088
 H2806 H 0.03383 0.70505 0.24181
 H2807 H 0.03836 0.73881 0.20710
 H2808 H 0.05942 0.72491 0.19644
 C2809 C 0.11463 0.17891 0.70301
 C2810 C 0.10221 0.18557 0.71009
 C2811 C 0.09115 0.19338 0.70180
 C2812 C 0.09276 0.19432 0.68614
 C2813 C 0.10526 0.18768 0.67905
 C2814 C 0.11628 0.17985 0.68740
 C2815 C 0.07799 0.19985 0.70995
 C2816 C 0.06869 0.21047 0.70434
 C2817 C 0.05583 0.21695 0.71292
 C2818 C 0.05049 0.23141 0.70908
 C2819 C 0.03857 0.23802 0.71706
 C2820 C 0.03167 0.23026 0.72901
 C2821 C 0.03676 0.21564 0.73261
 C2822 C 0.04864 0.20901 0.72462
 H2823 H 0.12303 0.17313 0.70979
 H2824 H 0.10126 0.18462 0.72215
 H2825 H 0.08431 0.19982 0.67924
 H2826 H 0.10609 0.18837 0.66699
 H2827 H 0.07641 0.19609 0.72137
 H2828 H 0.07098 0.21531 0.69345
 H2829 H 0.05570 0.23770 0.70002
 H2830 H 0.03487 0.24928 0.71395
 H2831 H 0.03155 0.20927 0.74162
 H2832 H 0.05199 0.19762 0.72756
 C2833 C 0.38774 0.69912 0.32334
 C2834 C 0.39995 0.70652 0.31648
 C2835 C 0.41093 0.69833 0.30851
 C2836 C 0.40948 0.68245 0.30770
 C2837 C 0.39719 0.67505 0.31451
 C2838 C 0.38620 0.68331 0.32243
 C2839 C 0.42374 0.70686 0.30161
 C2840 C 0.43309 0.70119 0.29118
 C2841 C 0.44553 0.71010 0.28411
 C2842 C 0.45122 0.70530 0.27024
 C2843 C 0.46277 0.71345 0.26306
 C2844 C 0.46894 0.72658 0.26962
 C2845 C 0.46349 0.73121 0.28365
 C2846 C 0.45200 0.72303 0.29087
 H2847 H 0.37938 0.70582 0.32920
 H2848 H 0.40077 0.71873 0.31735
 H2849 H 0.41786 0.67559 0.30210
 H2850 H 0.39643 0.66284 0.31385
 H2851 H 0.42496 0.71859 0.30487
 H2852 H 0.43117 0.68988 0.28694
 H2853 H 0.44658 0.69531 0.26484
 H2854 H 0.46674 0.70953 0.25228
 H2855 H 0.46815 0.74116 0.28910
 H2856 H 0.44842 0.72682 0.30180
 C2857 C 0.39443 0.19348 0.83164
 C2858 C 0.40680 0.20096 0.82509
 C2859 C 0.40935 0.20006 0.80960
 C2860 C 0.39900 0.19175 0.80074
 C2861 C 0.38668 0.18422 0.80730
 C2862 C 0.38428 0.18495 0.82282
 C2863 C 0.42256 0.20833 0.80313
 C2864 C 0.42865 0.20506 0.78975
 C2865 C 0.44169 0.21338 0.78300
 C2866 C 0.44914 0.20686 0.77072
 C2867 C 0.46111 0.21444 0.76360
 C2868 C 0.46593 0.22876 0.76861
 C2869 C 0.45853 0.23530 0.78092
 C2870 C 0.44650 0.22777 0.78799
 H2871 H 0.39295 0.19419 0.84363
 H2872 H 0.41450 0.20739 0.83217
 H2873 H 0.40012 0.19122 0.78871
 H2874 H 0.37885 0.17804 0.80017
 H2875 H 0.42770 0.21702 0.81003
 H2876 H 0.42425 0.19551 0.78349
 H2877 H 0.44564 0.19586 0.76655
 H2878 H 0.46654 0.20909 0.75413
 H2879 H 0.46186 0.24640 0.78496
 H2880 H 0.44086 0.23348 0.79709
 C2881 C 0.88251 0.69663 0.81137
 C2882 C 0.89458 0.70380 0.80409
 C2883 C 0.90535 0.69539 0.79608
 C2884 C 0.90374 0.67951 0.79552
 C2885 C 0.89158 0.67233 0.80276
 C2886 C 0.88091 0.68081 0.81086
 C2887 C 0.91825 0.70369 0.78911
 C2888 C 0.92781 0.69777 0.77900
 C2889 C 0.94057 0.70653 0.77233
 C2890 C 0.94624 0.70218 0.75832
 C2891 C 0.95810 0.71032 0.75160
 C2892 C 0.96459 0.72294 0.75881
 C2893 C 0.95916 0.72706 0.77300
 C2894 C 0.94737 0.71891 0.77974
 H2895 H 0.87437 0.70349 0.81734
 H2896 H 0.89552 0.71602 0.80475
 H2897 H 0.91194 0.67250 0.78984
 H2898 H 0.89074 0.66010 0.80237
 H2899 H 0.91953 0.71548 0.79218
 H2900 H 0.92592 0.68643 0.77483
 H2901 H 0.94134 0.69259 0.75245
 H2902 H 0.96208 0.70681 0.74068
 H2903 H 0.96407 0.73659 0.77896
 H2904 H 0.94381 0.72226 0.79082
 C2905 C 0.88650 0.18057 0.30196
 C2906 C 0.89880 0.18794 0.29523
 C2907 C 0.90971 0.19560 0.30393
 C2908 C 0.90813 0.19560 0.31961
 C2909 C 0.89578 0.18825 0.32633
 C2910 C 0.88485 0.18063 0.31759
 C2911 C 0.92276 0.20284 0.29617
 C2912 C 0.93185 0.21342 0.30233
 C2913 C 0.94479 0.22042 0.29420
 C2914 C 0.94998 0.23484 0.29853
 C2915 C 0.96203 0.24185 0.29095
 C2916 C 0.96917 0.23453 0.27893
 C2917 C 0.96422 0.21994 0.27486
 C2918 C 0.95225 0.21292 0.28245
 H2919 H 0.87819 0.17497 0.29490
 H2920 H 0.89976 0.18769 0.28315
 H2921 H 0.91650 0.20093 0.32678
 H2922 H 0.89495 0.18826 0.33842
 H2923 H 0.92449 0.19967 0.28461
 H2924 H 0.92938 0.21772 0.31338
 H2925 H 0.94457 0.24078 0.30766
 H2926 H 0.96563 0.25306 0.29441
 H2927 H 0.96963 0.21389 0.26580
 H2928 H 0.94906 0.20156 0.27916
 C2929 C 0.29566 0.32124 0.62083
 C2930 C 0.28863 0.31406 0.60871
 C2931 C 0.29712 0.30534 0.59863
 C2932 C 0.31289 0.30379 0.60113
 C2933 C 0.31993 0.31100 0.61326
 C2934 C 0.31142 0.31985 0.62325
 C2935 C 0.28895 0.29784 0.58604
 C2936 C 0.29582 0.29195 0.57399
 C2937 C 0.28744 0.28419 0.56174
 C2938 C 0.29504 0.27315 0.55337
 C2939 C 0.28758 0.26544 0.54181
 C2940 C 0.27236 0.26877 0.53822
 C2941 C 0.26483 0.28008 0.54636
 C2942 C 0.27227 0.28773 0.55800
 H2943 H 0.28869 0.32771 0.62844
 H2944 H 0.27646 0.31533 0.60719
 H2945 H 0.31989 0.29688 0.59397
 H2946 H 0.33209 0.30975 0.61473
 H2947 H 0.27667 0.29717 0.58686
 H2948 H 0.30807 0.29232 0.57306
 H2949 H 0.30676 0.27032 0.55592
 H2950 H 0.29375 0.25686 0.53570
 H2951 H 0.25314 0.28298 0.54378
 H2952 H 0.26619 0.29653 0.56385
 C2953 C 0.30146 0.82258 0.11441
 C2954 C 0.29453 0.81638 0.10173
 C2955 C 0.30322 0.80920 0.09069
 C2956 C 0.31915 0.80846 0.09260
 C2957 C 0.32608 0.81461 0.10536
 C2958 C 0.31731 0.82179 0.11637
 C2959 C 0.29516 0.80302 0.07738
 C2960 C 0.30121 0.79307 0.06776
 C2961 C 0.29259 0.78650 0.05497
 C2962 C 0.29731 0.77256 0.04909
 C2963 C 0.28928 0.76573 0.03736
 C2964 C 0.27637 0.77273 0.03117
 C2965 C 0.27188 0.78688 0.03676
 C2966 C 0.27993 0.79375 0.04847
 H2967 H 0.29436 0.82784 0.12278
 H2968 H 0.28227 0.81716 0.10058
 H2969 H 0.32638 0.80343 0.08422
 H2970 H 0.33833 0.81406 0.10647
 H2971 H 0.28338 0.80629 0.07599
 H2972 H 0.31252 0.78873 0.06974
 H2973 H 0.30710 0.76681 0.05376
 H2974 H 0.29310 0.75485 0.03327
 H2975 H 0.26209 0.79266 0.03210
 H2976 H 0.27625 0.80476 0.05224
 C2977 C 0.82282 0.30310 0.11279
 C2978 C 0.81620 0.29625 0.10028
 C2979 C 0.80811 0.30486 0.08973
 C2980 C 0.80693 0.32062 0.09194
 C2981 C 0.81350 0.32747 0.10453
 C2982 C 0.82156 0.31879 0.11506
 C2983 C 0.80145 0.29691 0.07660
 C2984 C 0.79062 0.30275 0.06771
 C2985 C 0.78351 0.29427 0.05514
 C2986 C 0.76903 0.29867 0.05015
 C2987 C 0.76169 0.29077 0.03865
 C2988 C 0.76872 0.27832 0.03179
 C2989 C 0.78339 0.27415 0.03648
 C2990 C 0.79076 0.28208 0.04797
 H2991 H 0.82879 0.29608 0.12078
 H2992 H 0.81735 0.28412 0.09888
 H2993 H 0.80122 0.32780 0.08391
 H2994 H 0.81258 0.33961 0.10587
 H2995 H 0.80513 0.28539 0.07476
 H2996 H 0.78594 0.31376 0.07021
 H2997 H 0.76325 0.30810 0.05535
 H2998 H 0.75041 0.29434 0.03526
 H2999 H 0.78919 0.26472 0.03130
 H3000 H 0.80215 0.27866 0.05106
 C3001 C 0.79939 0.82535 0.61057
 C3002 C 0.79235 0.81912 0.59796
 C3003 C 0.80099 0.81221 0.58671
 C3004 C 0.81695 0.81176 0.58833
 C3005 C 0.82399 0.81795 0.60102
 C3006 C 0.81528 0.82487 0.61224
 C3007 C 0.79282 0.80606 0.57344
 C3008 C 0.79890 0.79642 0.56354
 C3009 C 0.79019 0.79002 0.55074
 C3010 C 0.79488 0.77621 0.54456
 C3011 C 0.78672 0.76955 0.53281
 C3012 C 0.77371 0.77662 0.52691
 C3013 C 0.76926 0.79067 0.53278
 C3014 C 0.77745 0.79735 0.54450
 H3015 H 0.79234 0.83042 0.61910
 H3016 H 0.78007 0.81967 0.59703
 H3017 H 0.82413 0.80696 0.57978
 H3018 H 0.83627 0.81765 0.60190
 H3019 H 0.78096 0.80913 0.57230
 H3020 H 0.81032 0.79224 0.56525
 H3021 H 0.80474 0.77040 0.54903
 H3022 H 0.79049 0.75874 0.52850
 H3023 H 0.75941 0.79651 0.52835
 H3024 H 0.77379 0.80830 0.54850
 C3025 C 0.30479 0.68057 0.39005
 C3026 C 0.29784 0.68720 0.40243
 C3027 C 0.30650 0.69514 0.41311
 C3028 C 0.32239 0.69613 0.41120
 C3029 C 0.32933 0.68955 0.39875
 C3030 C 0.32061 0.68169 0.38805
 C3031 C 0.29848 0.70176 0.42613
 C3032 C 0.30443 0.71245 0.43512
 C3033 C 0.29596 0.71922 0.44779
 C3034 C 0.30032 0.73360 0.45300
 C3035 C 0.29241 0.74053 0.46467
 C3036 C 0.27998 0.73317 0.47143
 C3037 C 0.27588 0.71861 0.46650
 C3038 C 0.28383 0.71165 0.45489
 H3039 H 0.29774 0.67474 0.38192
 H3040 H 0.28561 0.68619 0.40362
 H3041 H 0.32959 0.70169 0.41936
 H3042 H 0.34157 0.69034 0.39764
 H3043 H 0.28684 0.69811 0.42785
 H3044 H 0.31554 0.71715 0.43271
 H3045 H 0.30974 0.73960 0.44786
 H3046 H 0.29590 0.75173 0.46826
 H3047 H 0.26650 0.71254 0.47163
 H3048 H 0.28047 0.70032 0.45167
 C3049 C 0.30161 0.17618 0.88963
 C3050 C 0.29398 0.18239 0.90187
 C3051 C 0.30168 0.19167 0.91217
 C3052 C 0.31724 0.19479 0.90982
 C3053 C 0.32487 0.18856 0.89758
 C3054 C 0.31716 0.17918 0.88734
 C3055 C 0.29290 0.19828 0.92476
 C3056 C 0.29929 0.20423 0.93710
 C3057 C 0.29044 0.21150 0.94921
 C3058 C 0.29758 0.22273 0.95786
 C3059 C 0.28967 0.23014 0.96920
 C3060 C 0.27445 0.22634 0.97232
 C3061 C 0.26738 0.21480 0.96395
 C3062 C 0.27529 0.20745 0.95249
 H3063 H 0.29522 0.16925 0.88183
 H3064 H 0.28197 0.17994 0.90327
 H3065 H 0.32359 0.20222 0.91715
 H3066 H 0.33686 0.19105 0.89621
 H3067 H 0.28062 0.19828 0.92365
 H3068 H 0.31154 0.20438 0.93831
 H3069 H 0.30928 0.22596 0.95567
 H3070 H 0.29550 0.23890 0.97551
 H3071 H 0.25570 0.21154 0.96616
 H3072 H 0.26954 0.19851 0.94638
 C3073 C 0.82029 0.69706 0.88123
 C3074 C 0.81406 0.70443 0.89358
 C3075 C 0.80688 0.69617 0.90500
 C3076 C 0.80628 0.68026 0.90389
 C3077 C 0.81245 0.67290 0.89147
 C3078 C 0.81953 0.68122 0.88001
 C3079 C 0.80056 0.70464 0.91790
 C3080 C 0.79039 0.69890 0.92757
 C3081 C 0.78376 0.70775 0.94006
 C3082 C 0.76985 0.70298 0.94618
 C3083 C 0.76304 0.71112 0.95776
 C3084 C 0.77006 0.72422 0.96352
 C3085 C 0.78416 0.72881 0.95766
 C3086 C 0.79100 0.72063 0.94613
 H3087 H 0.82551 0.70381 0.87251
 H3088 H 0.81476 0.71667 0.89415
 H3089 H 0.80132 0.67337 0.91263
 H3090 H 0.81196 0.66066 0.89096
 H3091 H 0.80394 0.71639 0.91890
 H3092 H 0.78596 0.68758 0.92589
 H3093 H 0.76410 0.69302 0.94184
 H3094 H 0.75220 0.70724 0.96207
 H3095 H 0.78996 0.73873 0.96200
 H3096 H 0.80201 0.72439 0.94218
 C3097 C 0.80464 0.17548 0.38626
 C3098 C 0.79797 0.18251 0.39861
 C3099 C 0.80693 0.19048 0.40904
 C3100 C 0.82283 0.19083 0.40709
 C3101 C 0.82948 0.18386 0.39471
 C3102 C 0.82045 0.17623 0.38408
 C3103 C 0.79927 0.19802 0.42179
 C3104 C 0.80555 0.20933 0.42978
 C3105 C 0.79764 0.21727 0.44215
 C3106 C 0.80295 0.23162 0.44657
 C3107 C 0.79573 0.23961 0.45802
 C3108 C 0.78304 0.23338 0.46535
 C3109 C 0.77792 0.21888 0.46118
 C3110 C 0.78517 0.21086 0.44979
 H3111 H 0.79737 0.16978 0.37823
 H3112 H 0.78572 0.18194 0.39989
 H3113 H 0.83025 0.19629 0.41514
 H3114 H 0.84173 0.18431 0.39351
 H3115 H 0.78765 0.19461 0.42401
 H3116 H 0.81665 0.21364 0.42670
 H3117 H 0.81262 0.23677 0.44100
 H3118 H 0.79999 0.25074 0.46101
 H3119 H 0.76829 0.21367 0.46675
 H3120 H 0.78104 0.19962 0.44719
 C3121 C 0.68291 0.30287 0.38514
 C3122 C 0.69033 0.29593 0.39714
 C3123 C 0.69882 0.30453 0.40743
 C3124 C 0.69966 0.32036 0.40546
 C3125 C 0.69229 0.32729 0.39336
 C3126 C 0.68378 0.31863 0.38313
 C3127 C 0.70615 0.29651 0.42016
 C3128 C 0.71702 0.30256 0.42892
 C3129 C 0.72444 0.29419 0.44136
 C3130 C 0.73875 0.29915 0.44643
 C3131 C 0.74626 0.29154 0.45799
 C3132 C 0.73959 0.27880 0.46480
 C3133 C 0.72513 0.27399 0.45995
 C3134 C 0.71758 0.28164 0.44843
 H3135 H 0.67658 0.29588 0.37734
 H3136 H 0.68943 0.28375 0.39837
 H3137 H 0.70566 0.32754 0.41330
 H3138 H 0.69293 0.33948 0.39223
 H3139 H 0.70280 0.28484 0.42186
 H3140 H 0.72135 0.31378 0.42653
 H3141 H 0.74423 0.30887 0.44131
 H3142 H 0.75737 0.29558 0.46150
 H3143 H 0.71959 0.26433 0.46510
 H3144 H 0.70632 0.27776 0.44529
 C3145 C 0.69631 0.82246 0.88454
 C3146 C 0.70393 0.81554 0.89642
 C3147 C 0.69594 0.80686 0.90700
 C3148 C 0.68003 0.80533 0.90544
 C3149 C 0.67242 0.81219 0.89345
 C3150 C 0.68048 0.82087 0.88293
 C3151 C 0.70471 0.80003 0.91953
 C3152 C 0.69924 0.78945 0.92890
 C3153 C 0.70842 0.78260 0.94111
 C3154 C 0.70392 0.76848 0.94688
 C3155 C 0.71233 0.76149 0.95822
 C3156 C 0.72544 0.76851 0.96409
 C3157 C 0.72978 0.78278 0.95857
 C3158 C 0.72132 0.78981 0.94729
 H3159 H 0.70284 0.82894 0.87651
 H3160 H 0.71615 0.81696 0.89733
 H3161 H 0.67329 0.79912 0.91348
 H3162 H 0.66018 0.81098 0.89260
 H3163 H 0.71648 0.80355 0.92059
 H3164 H 0.68790 0.78495 0.92724
 H3165 H 0.69395 0.76274 0.94246
 H3166 H 0.70865 0.75052 0.96228
 H3167 H 0.73970 0.78858 0.96302
 H3168 H 0.72486 0.80095 0.94365
 C3169 C 0.17704 0.30135 0.89240
 C3170 C 0.18428 0.29366 0.90407
 C3171 C 0.19250 0.30162 0.91507
 C3172 C 0.19314 0.31754 0.91423
 C3173 C 0.18594 0.32521 0.90250
 C3174 C 0.17781 0.31721 0.89146
 C3175 C 0.19969 0.29289 0.92740
 C3176 C 0.21074 0.29834 0.93635
 C3177 C 0.21779 0.28939 0.94860
 C3178 C 0.23231 0.29353 0.95385
 C3179 C 0.23935 0.28533 0.96533
 C3180 C 0.23196 0.27284 0.97186
 C3181 C 0.21730 0.26888 0.96682
 C3182 C 0.21025 0.27709 0.95541
 H3183 H 0.17100 0.29484 0.88399
 H3184 H 0.18351 0.28142 0.90447
 H3185 H 0.19887 0.32419 0.92271
 H3186 H 0.18647 0.33746 0.90225
 H3187 H 0.19607 0.28124 0.92865
 H3188 H 0.21541 0.30950 0.93429
 H3189 H 0.23830 0.30306 0.94893
 H3190 H 0.25062 0.28871 0.96900
 H3191 H 0.21120 0.25944 0.97176
 H3192 H 0.19882 0.27387 0.95216
 C3193 C 0.17703 0.79743 0.39070
 C3194 C 0.18363 0.79049 0.40319
 C3195 C 0.19079 0.79919 0.41434
 C3196 C 0.19075 0.81508 0.41297
 C3197 C 0.18423 0.82200 0.40044
 C3198 C 0.17743 0.81325 0.38911
 C3199 C 0.19800 0.79127 0.42717
 C3200 C 0.20891 0.79751 0.43576
 C3201 C 0.21679 0.78941 0.44810
 C3202 C 0.23076 0.79518 0.45327
 C3203 C 0.23874 0.78791 0.46473
 C3204 C 0.23289 0.77467 0.47133
 C3205 C 0.21878 0.76901 0.46637
 C3206 C 0.21075 0.77633 0.45495
 H3207 H 0.17196 0.79038 0.38211
 H3208 H 0.18337 0.77825 0.40400
 H3209 H 0.19556 0.82228 0.42157
 H3210 H 0.18437 0.83423 0.39968
 H3211 H 0.19480 0.77956 0.42888
 H3212 H 0.21302 0.80877 0.43318
 H3213 H 0.23562 0.80530 0.44831
 H3214 H 0.24956 0.79259 0.46832
 H3215 H 0.21388 0.75893 0.47136
 H3216 H 0.19979 0.77176 0.45172
 C3217 C 0.69334 0.66996 0.59820
 C3218 C 0.70058 0.67648 0.58583
 C3219 C 0.69989 0.69217 0.58331
 C3220 C 0.69206 0.70125 0.59366
 C3221 C 0.68477 0.69472 0.60596
 C3222 C 0.68528 0.67900 0.60835
 C3223 C 0.70791 0.69864 0.57014
 C3224 C 0.70445 0.71216 0.56414
 C3225 C 0.71250 0.71915 0.55124
 C3226 C 0.70610 0.73209 0.54463
 C3227 C 0.71344 0.73955 0.53288
 C3228 C 0.72741 0.73423 0.52742
 C3229 C 0.73380 0.72121 0.53392
 C3230 C 0.72650 0.71379 0.54574
 H3231 H 0.69387 0.65781 0.59970
 H3232 H 0.70665 0.66922 0.57814
 H3233 H 0.69177 0.71344 0.59256
 H3234 H 0.67900 0.70204 0.61380
 H3235 H 0.71654 0.69168 0.56505
 H3236 H 0.69495 0.71843 0.56862
 H3237 H 0.69539 0.73655 0.54864
 H3238 H 0.70821 0.74955 0.52814
 H3239 H 0.74462 0.71690 0.53004
 H3240 H 0.73210 0.70411 0.55064
 C3241 C 0.68272 0.20121 0.11734
 C3242 C 0.68912 0.20865 0.10509
 C3243 C 0.69607 0.20047 0.09354
 C3244 C 0.69661 0.18454 0.09464
 C3245 C 0.69024 0.17708 0.10699
 C3246 C 0.68306 0.18534 0.11836
 C3247 C 0.70197 0.20911 0.08049
 C3248 C 0.71106 0.20339 0.06988
 C3249 C 0.71686 0.21254 0.05715
 C3250 C 0.73047 0.20819 0.05022
 C3251 C 0.73648 0.21667 0.03840
 C3252 C 0.72894 0.22966 0.03314
 C3253 C 0.71511 0.23380 0.03981
 C3254 C 0.70909 0.22531 0.05163
 H3255 H 0.67746 0.20790 0.12603
 H3256 H 0.68853 0.22089 0.10461
 H3257 H 0.70155 0.17771 0.08590
 H3258 H 0.69050 0.16484 0.10743
 H3259 H 0.69902 0.22098 0.07998
 H3260 H 0.71516 0.19190 0.07084
 H3261 H 0.73660 0.19832 0.05412
 H3262 H 0.74712 0.21311 0.03346
 H3263 H 0.70892 0.24363 0.03590
 H3264 H 0.69827 0.22872 0.05625
 C3265 C 0.20280 0.67851 0.11253
 C3266 C 0.21012 0.68516 0.10032
 C3267 C 0.20172 0.69223 0.08892
 C3268 C 0.18571 0.69232 0.08992
 C3269 C 0.17838 0.68570 0.10219
 C3270 C 0.18684 0.67870 0.11361
 C3271 C 0.21012 0.69898 0.07614
 C3272 C 0.20426 0.70943 0.06689
 C3273 C 0.21299 0.71654 0.05452
 C3274 C 0.20825 0.73067 0.04907
 C3275 C 0.21622 0.73790 0.03758
 C3276 C 0.22910 0.73111 0.03120
 C3277 C 0.23369 0.71682 0.03643
 C3278 C 0.22569 0.70957 0.04790
 H3279 H 0.20965 0.67337 0.12122
 H3280 H 0.22244 0.68487 0.09983
 H3281 H 0.17874 0.69718 0.08118
 H3282 H 0.16607 0.68576 0.10258
 H3283 H 0.22190 0.69572 0.07490
 H3284 H 0.19293 0.71373 0.06889
 H3285 H 0.19843 0.73623 0.05385
 H3286 H 0.21234 0.74888 0.03378
 H3287 H 0.24346 0.71121 0.03162
 H3288 H 0.22941 0.69845 0.05137
 C3289 C 0.18039 0.19461 0.61893
 C3290 C 0.18717 0.20150 0.60655
 C3291 C 0.19528 0.19293 0.59607
 C3292 C 0.19637 0.17716 0.59820
 C3293 C 0.18961 0.17025 0.61064
 C3294 C 0.18151 0.17890 0.62112
 C3295 C 0.20186 0.20089 0.58294
 C3296 C 0.21259 0.19514 0.57393
 C3297 C 0.21898 0.20370 0.56107
 C3298 C 0.23372 0.20036 0.55604
 C3299 C 0.24026 0.20862 0.54429
 C3300 C 0.23212 0.22034 0.53730
 C3301 C 0.21717 0.22330 0.54199
 C3302 C 0.21064 0.21503 0.55365
 H3303 H 0.17443 0.20163 0.62689
 H3304 H 0.18609 0.21365 0.60519
 H3305 H 0.20212 0.17003 0.59020
 H3306 H 0.19044 0.15809 0.61188
 H3307 H 0.19804 0.21238 0.58107
 H3308 H 0.21754 0.18423 0.57643
 H3309 H 0.24032 0.19155 0.56141
 H3310 H 0.25177 0.20602 0.54088
 H3311 H 0.21049 0.23209 0.53668
 H3312 H 0.19901 0.21752 0.55671
   
