data_POSCAR
  _audit_creation_date              2014-09-24
  _audit_creation_method            'ToBaCCo'
  _symmetry_space_group_name_H-M    'P1'
  _symmetry_Int_Tables_number       1
  _symmetry_cell_setting            triclinic
  loop_
  _symmetry_equiv_pos_as_xyz
 x,y,z
_cell_length_a 31.5242
_cell_length_b 49.0808
_cell_length_c 37.2672
_cell_angle_alpha 89.918300
_cell_angle_beta 89.966200
_cell_angle_gamma 89.980200
loop_
  _atom_site_label
  _atom_site_type_symbol
  _atom_site_fract_x
  _atom_site_fract_y
  _atom_site_fract_z
B1 B -0.03155 -0.01952 0.01743
 B2 B 0.01894 -0.01883 0.03198
 B3 B 0.00805 -0.03068 -0.00927
 B4 B -0.03229 -0.01209 -0.02674
 B5 B -0.04558 0.01187 0.00436
 B6 B -0.01349 0.00755 0.04090
 B7 B 0.03693 0.02069 -0.01595
 B8 B -0.01357 0.02001 -0.03049
 B9 B -0.00259 0.03184 0.01079
 B10 B 0.03771 0.01322 0.02823
 B11 B 0.05099 -0.01068 -0.00286
 B12 B 0.01888 -0.00639 -0.03941
 B13 B 0.51078 0.48596 0.53639
 B14 B 0.46113 0.48658 0.51985
 B15 B 0.48406 0.51574 0.53350
 B16 B 0.53629 0.51455 0.52306
 B17 B 0.54525 0.48425 0.50215
 B18 B 0.49837 0.46687 0.50023
 B19 B 0.48909 0.51361 0.46134
 B20 B 0.53875 0.51299 0.47787
 B21 B 0.51576 0.48386 0.46422
 B22 B 0.46356 0.48504 0.47468
 B23 B 0.45462 0.51533 0.49556
 B24 B 0.50149 0.53271 0.49749
 B25 B 0.53515 0.02105 0.51498
 B26 B 0.48471 0.02090 0.52975
 B27 B 0.49571 0.03235 0.48822
 B28 B 0.53556 0.01325 0.47094
 B29 B 0.54847 -0.01057 0.50235
 B30 B 0.51661 -0.00571 0.53894
 B31 B 0.46571 -0.01883 0.48256
 B32 B 0.51614 -0.01868 0.46775
 B33 B 0.50514 -0.03013 0.50928
 B34 B 0.46530 -0.01104 0.52658
 B35 B 0.45237 0.01279 0.49516
 B36 B 0.48420 0.00791 0.45856
 B37 B -0.01472 0.51477 0.03610
 B38 B 0.03576 0.51534 0.02149
 B39 B 0.01410 0.48576 0.03505
 B40 B -0.03747 0.48536 0.02259
 B41 B -0.04734 0.51511 0.00054
 B42 B -0.00164 0.53375 -0.00005
 B43 B 0.01293 0.48681 -0.03730
 B44 B -0.03756 0.48626 -0.02268
 B45 B -0.01586 0.51583 -0.03626
 B46 B 0.03570 0.51623 -0.02377
 B47 B 0.04556 0.48649 -0.00173
 B48 B -0.00014 0.46784 -0.00115
 B49 B 0.03429 0.47907 0.48366
 B50 B -0.01612 0.47925 0.46889
 B51 B -0.00518 0.46776 0.51040
 B52 B 0.03463 0.48682 0.52771
 B53 B 0.04759 0.51067 0.49635
 B54 B 0.01578 0.50586 0.45974
 B55 B -0.03521 0.51894 0.51615
 B56 B 0.01520 0.51875 0.53096
 B57 B 0.00427 0.53025 0.48946
 B58 B -0.03555 0.51119 0.47212
 B59 B -0.04852 0.48734 0.50349
 B60 B -0.01674 0.49216 0.54010
 B61 B 0.48221 -0.01451 -0.04008
 B62 B 0.53247 -0.01472 -0.02495
 B63 B 0.51047 0.01469 -0.03885
 B64 B 0.45867 0.01475 -0.02690
 B65 B 0.44903 -0.01504 -0.00486
 B66 B 0.49508 -0.03335 -0.00374
 B67 B 0.50814 0.01379 0.03349
 B68 B 0.45789 0.01391 0.01835
 B69 B 0.47996 -0.01546 0.03226
 B70 B 0.53173 -0.01549 0.02034
 B71 B 0.54135 0.01426 -0.00174
 B72 B 0.49530 0.03255 -0.00291
 B73 B 0.46812 0.52071 -0.01818
 B74 B 0.51832 0.51963 -0.03343
 B75 B 0.50832 0.53185 0.00780
 B76 B 0.46812 0.51363 0.02613
 B77 B 0.45395 0.48953 -0.00442
 B78 B 0.48539 0.49333 -0.04150
 B79 B 0.53676 0.48039 0.01479
 B80 B 0.48655 0.48149 0.03009
 B81 B 0.49651 0.46924 -0.01116
 B82 B 0.53673 0.48747 -0.02951
 B83 B 0.55090 0.51158 0.00105
 B84 B 0.51947 0.50777 0.03813
 B85 B 0.01301 0.01464 0.46007
 B86 B -0.03662 0.01426 0.47668
 B87 B -0.01404 -0.01499 0.46293
 B88 B 0.03822 -0.01409 0.47332
 B89 B 0.04754 0.01614 0.49427
 B90 B 0.00088 0.03375 0.49629
 B91 B -0.00896 -0.01299 0.53512
 B92 B 0.04070 -0.01259 0.51853
 B93 B 0.01810 0.01666 0.53226
 B94 B -0.03412 0.01573 0.52188
 B95 B -0.04345 -0.01448 0.50092
 B96 B 0.00321 -0.03210 0.49891
 B97 B 0.77599 0.27263 0.25979
 B98 B 0.72362 0.26895 0.26755
 B99 B 0.74092 0.27458 0.22553
 B100 B 0.78779 0.25825 0.22008
 B101 B 0.79864 0.24174 0.25944
 B102 B 0.75843 0.24865 0.28880
 B103 B 0.72479 0.22084 0.23233
 B104 B 0.77706 0.22496 0.22443
 B105 B 0.75949 0.21890 0.26644
 B106 B 0.71266 0.23534 0.27213
 B107 B 0.70169 0.25174 0.23293
 B108 B 0.74171 0.24516 0.20334
 B109 B 0.74068 0.78078 0.76554
 B110 B 0.72379 0.77503 0.72331
 B111 B 0.77592 0.77926 0.73177
 B112 B 0.78759 0.76447 0.77153
 B113 B 0.74172 0.75085 0.78760
 B114 B 0.70187 0.75784 0.75793
 B115 B 0.76038 0.72555 0.72420
 B116 B 0.77703 0.73084 0.76645
 B117 B 0.72483 0.72705 0.75815
 B118 B 0.71344 0.74174 0.71849
 B119 B 0.75965 0.75515 0.70234
 B120 B 0.79930 0.74845 0.73225
 B121 B 0.27833 0.22769 0.73869
 B122 B 0.22657 0.23171 0.72910
 B123 B 0.24158 0.22637 0.77186
 B124 B 0.28827 0.24227 0.77873
 B125 B 0.30154 0.25827 0.73955
 B126 B 0.26276 0.25173 0.70869
 B127 B 0.22704 0.28023 0.76355
 B128 B 0.27866 0.27560 0.77364
 B129 B 0.26336 0.28141 0.73081
 B130 B 0.21651 0.26531 0.72373
 B131 B 0.20331 0.24938 0.76270
 B132 B 0.24162 0.25618 0.79373
 B133 B 0.22292 0.77398 0.24144
 B134 B 0.27504 0.77024 0.23270
 B135 B 0.25878 0.77536 0.27512
 B136 B 0.21192 0.75913 0.28107
 B137 B 0.20002 0.74318 0.24160
 B138 B 0.23958 0.75033 0.21168
 B139 B 0.27433 0.72170 0.26701
 B140 B 0.22228 0.72586 0.27591
 B141 B 0.23881 0.72031 0.23351
 B142 B 0.28561 0.73666 0.22730
 B143 B 0.29765 0.75251 0.26661
 B144 B 0.25830 0.74565 0.29677
 B145 B 0.25751 0.72518 0.77085
 B146 B 0.27153 0.73020 0.72776
 B147 B 0.22002 0.72607 0.73828
 B148 B 0.21081 0.74101 0.77826
 B149 B 0.25765 0.75519 0.79223
 B150 B 0.29533 0.74823 0.76069
 B151 B 0.23433 0.77976 0.72926
 B152 B 0.22002 0.77433 0.77241
 B153 B 0.27135 0.77900 0.76142
 B154 B 0.28114 0.76376 0.72168
 B155 B 0.23471 0.74987 0.70762
 B156 B 0.19655 0.75658 0.73905
 B157 B 0.22611 0.22276 0.26369
 B158 B 0.27824 0.22677 0.27232
 B159 B 0.26145 0.22122 0.23001
 B160 B 0.21471 0.23771 0.22400
 B161 B 0.20301 0.25365 0.26334
 B162 B 0.24248 0.24671 0.29330
 B163 B 0.27774 0.27487 0.23773
 B164 B 0.22551 0.27127 0.22928
 B165 B 0.24208 0.27639 0.27159
 B166 B 0.28886 0.26001 0.27734
 B167 B 0.30044 0.24397 0.23784
 B168 B 0.26075 0.25122 0.20810
 B169 B 0.77320 0.72096 0.23646
 B170 B 0.72186 0.72576 0.22558
 B171 B 0.73617 0.72002 0.26865
 B172 B 0.78303 0.73594 0.27637
 B173 B 0.79720 0.75171 0.23751
 B174 B 0.75951 0.74498 0.20595
 B175 B 0.72189 0.77377 0.26027
 B176 B 0.77342 0.76956 0.27067
 B177 B 0.75937 0.77485 0.22766
 B178 B 0.71267 0.75911 0.22014
 B179 B 0.69842 0.74329 0.25919
 B180 B 0.73660 0.74976 0.29064
 B181 B 0.74039 0.22442 0.72718
 B182 B 0.72339 0.22985 0.76932
 B183 B 0.77571 0.22623 0.76123
 B184 B 0.78717 0.24079 0.72150
 B185 B 0.74091 0.25394 0.70509
 B186 B 0.70117 0.24721 0.73490
 B187 B 0.75922 0.27993 0.76814
 B188 B 0.77642 0.27405 0.72601
 B189 B 0.72420 0.27811 0.73428
 B190 B 0.71245 0.26345 0.77411
 B191 B 0.75837 0.25008 0.79045
 B192 B 0.79832 0.25712 0.76084
 C193 C 0.06555 0.43557 0.87561
 C194 C 0.03095 0.42682 0.89626
 C195 C 0.01341 0.44358 0.92234
 C196 C 0.02858 0.47023 0.92797
 C197 C 0.06195 0.47963 0.90605
 C198 C 0.08051 0.46237 0.88030
 C199 C 0.08727 0.41560 0.85196
 N200 N 0.12779 0.41951 0.84054
 N201 N 0.14852 0.39980 0.82311
 C202 C 0.12960 0.37540 0.81646
 N203 N 0.08882 0.37186 0.82712
 N204 N 0.06820 0.39147 0.84447
 C205 C 0.15342 0.35225 0.80047
 C206 C 0.13507 0.32615 0.79950
 C207 C 0.15815 0.30369 0.78740
 C208 C 0.20031 0.30658 0.77562
 C209 C 0.21815 0.33293 0.77538
 C210 C 0.19513 0.35542 0.78786
 H211 H 0.01869 0.40631 0.89379
 H212 H -0.01110 0.43490 0.93913
 H213 H 0.07501 0.49981 0.90986
 H214 H 0.10719 0.46973 0.86477
 H215 H 0.10300 0.32283 0.80896
 H216 H 0.14282 0.28398 0.78790
 H217 H 0.25048 0.33619 0.76674
 H218 H 0.21029 0.37521 0.78819
 C219 C 0.44211 0.56682 0.37452
 C220 C 0.42616 0.54012 0.37763
 C221 C 0.44332 0.52198 0.40308
 C222 C 0.47650 0.53034 0.42586
 C223 C 0.49369 0.55655 0.42075
 C224 C 0.47736 0.57419 0.39519
 C225 C 0.41992 0.58838 0.35386
 N226 N 0.42821 0.61489 0.36149
 N227 N 0.40650 0.63485 0.34597
 C228 C 0.37560 0.62927 0.32186
 N229 N 0.36756 0.60278 0.31350
 N230 N 0.38917 0.58267 0.32940
 C231 C 0.34985 0.65183 0.30732
 C232 C 0.33460 0.65164 0.27199
 C233 C 0.31167 0.67396 0.25868
 C234 C 0.30164 0.69623 0.28100
 C235 C 0.31800 0.69637 0.31613
 C236 C 0.34172 0.67454 0.32903
 H237 H 0.39895 0.53381 0.36200
 H238 H 0.42893 0.50211 0.40636
 H239 H 0.51841 0.56443 0.43792
 H240 H 0.49097 0.59441 0.39328
 H241 H 0.34149 0.63465 0.25442
 H242 H 0.30246 0.67378 0.23079
 H243 H 0.31283 0.71344 0.33394
 H244 H 0.35347 0.67536 0.35632
 C245 C 0.94308 0.93368 0.62157
 C246 C 0.97830 0.92620 0.60088
 C247 C 0.99498 0.94388 0.57550
 C248 C 0.97816 0.97022 0.57054
 C249 C 0.94495 0.97864 0.59331
 C250 C 0.92747 0.96048 0.61861
 C251 C 0.92069 0.91216 0.64223
 N252 N 0.89057 0.91799 0.66725
 N253 N 0.86902 0.89796 0.68340
 C254 C 0.87647 0.87144 0.67477
 N255 N 0.90669 0.86575 0.65004
 N256 N 0.92834 0.88564 0.63427
 C257 C 0.85093 0.84893 0.68987
 C258 C 0.84287 0.82594 0.66865
 C259 C 0.81936 0.80419 0.68208
 C260 C 0.80308 0.80467 0.71725
 C261 C 0.81301 0.82722 0.73908
 C262 C 0.83576 0.84945 0.72525
 H263 H 0.99164 0.90590 0.60267
 H264 H 1.01970 0.93595 0.55833
 H265 H 0.93079 0.99859 0.59013
 H266 H 0.90030 0.96687 0.63426
 H267 H 0.85453 0.82483 0.64134
 H268 H 0.81426 0.78691 0.66461
 H269 H 0.80383 0.82771 0.76698
 H270 H 0.84257 0.86666 0.74248
 C271 C 0.55903 0.06744 0.11837
 C272 C 0.52414 0.07525 0.09752
 C273 C 0.50676 0.05758 0.07257
 C274 C 0.52257 0.03093 0.06813
 C275 C 0.55564 0.02227 0.09087
 C276 C 0.57380 0.04041 0.11582
 C277 C 0.58169 0.08877 0.13906
 N278 N 0.61074 0.08275 0.16489
 N279 N 0.63209 0.10263 0.18145
 C280 C 0.62551 0.12920 0.17247
 N281 N 0.59642 0.13507 0.14687
 N282 N 0.57496 0.11534 0.13067
 C283 C 0.65062 0.15160 0.18834
 C284 C 0.65876 0.17495 0.16773
 C285 C 0.68184 0.19659 0.18186
 C286 C 0.69770 0.19564 0.21714
 C287 C 0.68763 0.17274 0.23839
 C288 C 0.66524 0.15063 0.22387
 H289 H 0.51144 0.09572 0.09899
 H290 H 0.48214 0.06568 0.05543
 H291 H 0.56903 0.00207 0.08806
 H292 H 0.60071 0.03377 0.13159
 H293 H 0.64753 0.17644 0.14033
 H294 H 0.68704 0.21414 0.16482
 H295 H 0.69641 0.17187 0.26635
 H296 H 0.65833 0.13317 0.24066
 C297 C 0.86980 0.06268 0.41502
 C298 C 0.89514 0.04316 0.39783
 C299 C 0.92279 0.02681 0.41749
 C300 C 0.92562 0.02906 0.45512
 C301 C 0.89821 0.04744 0.47253
 C302 C 0.87074 0.06411 0.45271
 C303 C 0.84586 0.08292 0.39340
 N304 N 0.82721 0.10477 0.40922
 N305 N 0.80951 0.12435 0.38945
 C306 C 0.80969 0.12295 0.35301
 N307 N 0.82763 0.10085 0.33723
 N308 N 0.84536 0.08130 0.35699
 C309 C 0.79347 0.14593 0.33100
 C310 C 0.79376 0.14467 0.29331
 C311 C 0.78184 0.16728 0.27272
 C312 C 0.76975 0.19186 0.28923
 C313 C 0.76776 0.19254 0.32702
 C314 C 0.77945 0.16997 0.34754
 H315 H 0.89544 0.04147 0.36886
 H316 H 0.94397 0.01370 0.40263
 H317 H 0.89934 0.04999 0.50136
 H318 H 0.85142 0.07884 0.46687
 H319 H 0.80369 0.12630 0.27962
 H320 H 0.78183 0.16523 0.24389
 H321 H 0.75773 0.21068 0.34114
 H322 H 0.77838 0.17164 0.37649
 C323 C 0.36751 0.43929 0.58290
 C324 C 0.36734 0.43777 0.54521
 C325 C 0.39496 0.45406 0.52483
 C326 C 0.42327 0.47216 0.54174
 C327 C 0.42117 0.47462 0.57934
 C328 C 0.39361 0.45866 0.59948
 C329 C 0.34492 0.41903 0.60545
 N330 N 0.35595 0.41616 0.64045
 N331 N 0.33968 0.39631 0.66042
 C332 C 0.31135 0.37851 0.64638
 N333 N 0.29934 0.38164 0.61158
 N334 N 0.31597 0.40147 0.59142
 C335 C 0.29771 0.35478 0.66784
 C336 C 0.25731 0.34315 0.66400
 C337 C 0.24578 0.32036 0.68458
 C338 C 0.27487 0.30841 0.70870
 C339 C 0.31540 0.32001 0.71168
 C340 C 0.32640 0.34310 0.69209
 H341 H 0.34756 0.42302 0.53159
 H342 H 0.39557 0.45139 0.49601
 H343 H 0.44289 0.48754 0.59387
 H344 H 0.39450 0.46056 0.62842
 H345 H 0.23463 0.35181 0.64539
 H346 H 0.21429 0.31199 0.68122
 H347 H 0.33931 0.31105 0.72852
 H348 H 0.35809 0.35132 0.69511
 C349 C 0.62396 0.93558 0.91280
 C350 C 0.62408 0.93476 0.95053
 C351 C 0.59695 0.95162 0.97037
 C352 C 0.56886 0.96959 0.95296
 C353 C 0.57031 0.97106 0.91521
 C354 C 0.59758 0.95449 0.89549
 C355 C 0.64838 0.91547 0.89140
 N356 N 0.64906 0.91699 0.85499
 N357 N 0.66767 0.89765 0.83549
 C358 C 0.68635 0.87589 0.85156
 N359 N 0.68627 0.87460 0.88800
 N360 N 0.66771 0.89397 0.90751
 C361 C 0.70374 0.85315 0.82984
 C362 C 0.71721 0.82902 0.84654
 C363 C 0.72996 0.80664 0.82615
 C364 C 0.72961 0.80765 0.78835
 C365 C 0.71815 0.83235 0.77174
 C366 C 0.70514 0.85474 0.79218
 H367 H 0.64417 0.92050 0.96477
 H368 H 0.59689 0.94967 0.99930
 H369 H 0.54869 0.98397 0.90045
 H370 H 0.59644 0.95566 0.86650
 H371 H 0.71695 0.82710 0.87549
 H372 H 0.73941 0.78839 0.84036
 H373 H 0.71940 0.83463 0.74296
 H374 H 0.69571 0.87320 0.77840
 C375 C 0.12571 0.56530 0.08476
 C376 C 0.12637 0.56620 0.04704
 C377 C 0.09974 0.54928 0.02689
 C378 C 0.07161 0.53115 0.04397
 C379 C 0.07253 0.52959 0.08172
 C380 C 0.09930 0.54625 0.10176
 C381 C 0.14954 0.58548 0.10644
 N382 N 0.14976 0.58388 0.14286
 N383 N 0.16776 0.60330 0.16259
 C384 C 0.18624 0.62522 0.14677
 N385 N 0.18665 0.62660 0.11033
 N386 N 0.16871 0.60715 0.09059
 C387 C 0.20292 0.64803 0.16870
 C388 C 0.21597 0.67232 0.15218
 C389 C 0.22822 0.69470 0.17274
 C390 C 0.22779 0.69354 0.21054
 C391 C 0.21663 0.66872 0.22697
 C392 C 0.20410 0.64632 0.20635
 H393 H 0.14651 0.58059 0.03305
 H394 H 0.10008 0.55129 -0.00203
 H395 H 0.05084 0.51657 0.09623
 H396 H 0.09772 0.54502 0.13074
 H397 H 0.21581 0.67436 0.12325
 H398 H 0.23746 0.71306 0.15866
 H399 H 0.21784 0.66632 0.25574
 H400 H 0.19495 0.62773 0.21999
 C401 C 0.42966 0.92500 0.10987
 C402 C 0.47371 0.92777 0.10554
 C403 C 0.49031 0.94847 0.08361
 C404 C 0.46305 0.96633 0.06495
 C405 C 0.41905 0.96373 0.07038
 C406 C 0.40272 0.94378 0.09297
 C407 C 0.41066 0.90207 0.13003
 N408 N 0.37081 0.90461 0.14326
 N409 N 0.35148 0.88363 0.15872
 C410 C 0.37086 0.85903 0.16144
 N411 N 0.41099 0.85640 0.14845
 N412 N 0.43054 0.87755 0.13302
 C413 C 0.34785 0.83604 0.17843
 C414 C 0.36113 0.80876 0.17518
 C415 C 0.33772 0.78766 0.19144
 C416 C 0.30084 0.79350 0.21142
 C417 C 0.28830 0.82091 0.21441
 C418 C 0.31110 0.84167 0.19818
 H419 H 0.49520 0.91361 0.11846
 H420 H 0.52431 0.94944 0.07976
 H421 H 0.39667 0.97621 0.05574
 H422 H 0.36859 0.94210 0.09546
 H423 H 0.38937 0.80375 0.16002
 H424 H 0.34886 0.76690 0.18875
 H425 H 0.26203 0.82697 0.23094
 H426 H 0.30016 0.86239 0.20192
 C427 C 0.56686 0.42318 0.38862
 C428 C 0.59378 0.44136 0.40650
 C429 C 0.57731 0.46148 0.42863
 C430 C 0.53323 0.46491 0.43258
 C431 C 0.50606 0.44749 0.41320
 C432 C 0.52276 0.42658 0.39172
 C433 C 0.58595 0.40033 0.36853
 N434 N 0.56606 0.37585 0.36524
 N435 N 0.58586 0.35472 0.35002
 C436 C 0.62623 0.35736 0.33756
 N437 N 0.64557 0.38194 0.34054
 N438 N 0.62600 0.40288 0.35579
 C439 C 0.64964 0.33441 0.32096
 C440 C 0.68718 0.34008 0.30232
 C441 C 0.71040 0.31939 0.28645
 C442 C 0.69746 0.29202 0.28871
 C443 C 0.65982 0.28613 0.30763
 C444 C 0.63601 0.30717 0.32354
 H445 H 0.62792 0.43914 0.40501
 H446 H 0.59958 0.47359 0.44388
 H447 H 0.47197 0.44908 0.41599
 H448 H 0.50132 0.41284 0.37807
 H449 H 0.69848 0.36078 0.29913
 H450 H 0.73730 0.32551 0.27068
 H451 H 0.64839 0.26540 0.30969
 H452 H 0.60716 0.30214 0.33784
 C453 C 0.93365 0.57553 0.88649
 C454 C 0.90698 0.55617 0.90253
 C455 C 0.92345 0.53610 0.92488
 C456 C 0.96739 0.53399 0.93093
 C457 C 0.99446 0.55241 0.91301
 C458 C 0.97769 0.57320 0.89133
 C459 C 0.91436 0.59863 0.86682
 N460 N 0.93386 0.62331 0.86441
 N461 N 0.91402 0.64455 0.84945
 C462 C 0.87395 0.64187 0.83639
 N463 N 0.85495 0.61711 0.83854
 N464 N 0.87458 0.59604 0.85352
 C465 C 0.85057 0.66495 0.81990
 C466 C 0.81347 0.65939 0.80065
 C467 C 0.79043 0.68018 0.78475
 C468 C 0.80306 0.70758 0.78758
 C469 C 0.84026 0.71337 0.80712
 C470 C 0.86390 0.69222 0.82306
 H471 H 0.87285 0.55747 0.89963
 H472 H 0.90114 0.52322 0.93899
 H473 H 1.02840 0.55182 0.91735
 H474 H 0.99901 0.58780 0.87908
 H475 H 0.80242 0.63869 0.79699
 H476 H 0.76391 0.67413 0.76852
 H477 H 0.85148 0.73412 0.80964
 H478 H 0.89242 0.69720 0.83783
 C479 C 0.07029 0.07759 0.60702
 C480 C 0.09688 0.05901 0.58943
 C481 C 0.08006 0.03878 0.56768
 C482 C 0.03591 0.03563 0.56379
 C483 C 0.00907 0.05343 0.58294
 C484 C 0.02613 0.07443 0.60405
 C485 C 0.08974 0.10055 0.62672
 N486 N 0.06975 0.12499 0.63034
 N487 N 0.08959 0.14611 0.64549
 C488 C 0.13012 0.14353 0.65757
 N489 N 0.14963 0.11902 0.65419
 N490 N 0.13001 0.09808 0.63899
 C491 C 0.15338 0.16641 0.67450
 C492 C 0.19014 0.16059 0.69411
 C493 C 0.21312 0.18121 0.71038
 C494 C 0.20079 0.20867 0.70751
 C495 C 0.16391 0.21470 0.68762
 C496 C 0.14029 0.19374 0.67137
 H497 H 0.13106 0.06099 0.59084
 H498 H 0.10211 0.02638 0.55258
 H499 H -0.02505 0.05207 0.58020
 H500 H 0.00490 0.08845 0.61750
 H501 H 0.20091 0.13981 0.69778
 H502 H 0.23928 0.17499 0.72692
 H503 H 0.15290 0.23551 0.68508
 H504 H 0.11202 0.19889 0.65634
 C505 C 0.12568 0.42535 0.42804
 C506 C 0.11560 0.42040 0.46424
 C507 C 0.08805 0.43796 0.48273
 C508 C 0.07001 0.46060 0.46523
 C509 C 0.08259 0.46623 0.42971
 C510 C 0.10986 0.44889 0.41149
 C511 C 0.14910 0.40533 0.40598
 N512 N 0.14463 0.40593 0.36979
 N513 N 0.16264 0.38711 0.34926
 C514 C 0.18634 0.36698 0.36400
 N515 N 0.19164 0.36649 0.40021
 N516 N 0.17318 0.38529 0.42088
 C517 C 0.20197 0.34481 0.34096
 C518 C 0.24147 0.33238 0.34659
 C519 C 0.25519 0.31141 0.32381
 C520 C 0.22941 0.30238 0.29527
 C521 C 0.18910 0.31431 0.29113
 C522 C 0.17611 0.33565 0.31296
 H523 H 0.12753 0.40242 0.47775
 H524 H 0.07986 0.43329 0.51021
 H525 H 0.07043 0.48358 0.41507
 H526 H 0.11754 0.45360 0.38384
 H527 H 0.26174 0.33898 0.36835
 H528 H 0.28563 0.30200 0.32900
 H529 H 0.16674 0.30687 0.27148
 H530 H 0.14496 0.34441 0.30868
 C531 C 0.37928 0.57584 0.92543
 C532 C 0.39608 0.55282 0.90841
 C533 C 0.42231 0.53492 0.92686
 C534 C 0.43298 0.53952 0.96306
 C535 C 0.41403 0.56169 0.98086
 C536 C 0.38740 0.57975 0.96217
 C537 C 0.35661 0.59636 0.90353
 N538 N 0.33031 0.61520 0.91841
 N539 N 0.31185 0.63419 0.89799
 C540 C 0.31936 0.63514 0.86206
 N541 N 0.34541 0.61625 0.84735
 N542 N 0.36346 0.59722 0.86760
 C543 C 0.30243 0.65723 0.83934
 C544 C 0.32696 0.66677 0.81060
 C545 C 0.31248 0.68794 0.78903
 C546 C 0.27202 0.69940 0.79430
 C547 C 0.24761 0.69001 0.82355
 C548 C 0.26275 0.66918 0.84594
 H549 H 0.38994 0.54894 0.88028
 H550 H 0.43543 0.51806 0.91188
 H551 H 0.42079 0.56561 1.00879
 H552 H 0.37468 0.59732 0.97604
 H553 H 0.35819 0.65841 0.80545
 H554 H 0.33376 0.69560 0.76863
 H555 H 0.21705 0.69899 0.82952
 H556 H 0.24341 0.66230 0.86820
 C557 C 0.62609 0.07489 0.57074
 C558 C 0.61595 0.07992 0.53458
 C559 C 0.58861 0.06229 0.51601
 C560 C 0.57084 0.03952 0.53340
 C561 C 0.58356 0.03380 0.56885
 C562 C 0.61061 0.05121 0.58716
 C563 C 0.64916 0.09498 0.59291
 N564 N 0.64430 0.09442 0.62908
 N565 N 0.66203 0.11329 0.64968
 C566 C 0.68582 0.13343 0.63506
 N567 N 0.69149 0.13388 0.59888
 N568 N 0.67331 0.11504 0.57813
 C569 C 0.70119 0.15563 0.65814
 C570 C 0.74075 0.16803 0.65273
 C571 C 0.75419 0.18908 0.67546
 C572 C 0.72807 0.19825 0.70373
 C573 C 0.68774 0.18632 0.70769
 C574 C 0.67502 0.16489 0.68591
 H575 H 0.62762 0.09801 0.52118
 H576 H 0.58032 0.06705 0.48859
 H577 H 0.57164 0.01633 0.58340
 H578 H 0.61838 0.04644 0.61477
 H579 H 0.76127 0.16135 0.63115
 H580 H 0.78468 0.19847 0.67040
 H581 H 0.66515 0.19384 0.72711
 H582 H 0.64383 0.15614 0.69002
 C583 C 0.88014 0.92515 0.07405
 C584 C 0.88788 0.92144 0.03721
 C585 C 0.91433 0.93958 0.01848
 C586 C 0.93346 0.96164 0.03633
 C587 C 0.92316 0.96606 0.07265
 C588 C 0.89712 0.94807 0.09115
 C589 C 0.85768 0.90451 0.09591
 N590 N 0.86494 0.90337 0.13176
 N591 N 0.84709 0.88422 0.15194
 C592 C 0.82083 0.86546 0.13721
 N593 N 0.81291 0.86669 0.10137
 N594 N 0.83118 0.88581 0.08103
 C595 C 0.80401 0.84325 0.15980
 C596 C 0.76430 0.83136 0.15324
 C597 C 0.74927 0.81038 0.17544
 C598 C 0.77382 0.80079 0.20446
 C599 C 0.81430 0.81219 0.20970
 C600 C 0.82868 0.83351 0.18831
 H601 H 0.87502 0.90395 0.02328
 H602 H 0.92084 0.93579 -0.00954
 H603 H 0.93645 0.98285 0.08766
 H604 H 0.89126 0.95179 0.11937
 H605 H 0.74485 0.83840 0.13114
 H606 H 0.71870 0.80146 0.16947
 H607 H 0.83566 0.80438 0.22993
 H608 H 0.85993 0.84181 0.19342
 C609 C 0.93835 0.07687 0.88610
 C610 C 0.92266 0.05009 0.88799
 C611 C 0.93862 0.03174 0.91359
 C612 C 0.97064 0.03977 0.93774
 C613 C 0.98733 0.06625 0.93438
 C614 C 0.97153 0.08442 0.90905
 C615 C 0.91833 0.09787 0.86300
 N616 N 0.92475 0.12461 0.87041
 N617 N 0.90474 0.14392 0.85202
 C618 C 0.87767 0.13741 0.82513
 N619 N 0.87169 0.11068 0.81703
 N620 N 0.89154 0.09124 0.83574
 C621 C 0.85256 0.15918 0.80788
 C622 C 0.84165 0.15849 0.77137
 C623 C 0.81838 0.17997 0.75602
 C624 C 0.80414 0.20189 0.77725
 C625 C 0.81545 0.20221 0.81383
 C626 C 0.83952 0.18135 0.82873
 H627 H 0.89699 0.04365 0.87068
 H628 H 0.92495 0.01154 0.91503
 H629 H 1.01122 0.07378 0.95252
 H630 H 0.98458 0.10482 0.90831
 H631 H 0.85173 0.14166 0.75466
 H632 H 0.81115 0.17915 0.72776
 H633 H 0.80587 0.21856 0.83147
 H634 H 0.84733 0.18237 0.85701
 C635 C 0.06003 0.57544 0.61572
 C636 C 0.02731 0.58289 0.59215
 C637 C 0.01285 0.56487 0.56613
 C638 C 0.03030 0.53861 0.56277
 C639 C 0.06203 0.53071 0.58731
 C640 C 0.07675 0.54893 0.61350
 C641 C 0.07847 0.59630 0.63994
 N642 N 0.10830 0.58991 0.66499
 N643 N 0.12723 0.60944 0.68410
 C644 C 0.11715 0.63607 0.67872
 N645 N 0.08685 0.64231 0.65425
 N646 N 0.06784 0.62287 0.63543
 C647 C 0.14182 0.65829 0.69533
 C648 C 0.15051 0.68150 0.67478
 C649 C 0.17486 0.70257 0.68863
 C650 C 0.19097 0.70143 0.72389
 C651 C 0.18065 0.67857 0.74512
 C652 C 0.15713 0.65686 0.73067
 H653 H 0.01355 0.60310 0.59294
 H654 H -0.01078 0.57229 0.54763
 H655 H 0.07631 0.51069 0.58585
 H656 H 0.10209 0.54255 0.63121
 H657 H 0.13922 0.68315 0.64741
 H658 H 0.18087 0.71974 0.67116
 H659 H 0.19148 0.67708 0.77247
 H660 H 0.15046 0.63918 0.74715
 C661 C 0.56151 0.92434 0.38344
 C662 C 0.52863 0.91697 0.40692
 C663 C 0.51392 0.93511 0.43274
 C664 C 0.53132 0.96138 0.43601
 C665 C 0.56318 0.96920 0.41152
 C666 C 0.57811 0.95088 0.38551
 C667 C 0.58022 0.90339 0.35947
 N668 N 0.60939 0.90981 0.33386
 N669 N 0.62844 0.89027 0.31480
 C670 C 0.61917 0.86359 0.32083
 N671 N 0.58957 0.85732 0.34592
 N672 N 0.57042 0.87676 0.36467
 C673 C 0.64387 0.84143 0.30403
 C674 C 0.65332 0.81836 0.32462
 C675 C 0.67760 0.79733 0.31054
 C676 C 0.69288 0.79835 0.27499
 C677 C 0.68187 0.82108 0.25377
 C678 C 0.65840 0.84276 0.26843
 H679 H 0.51494 0.89675 0.40620
 H680 H 0.49016 0.92775 0.45118
 H681 H 0.57741 0.98923 0.41289
 H682 H 0.60356 0.95720 0.36785
 H683 H 0.64266 0.81679 0.35219
 H684 H 0.68424 0.78029 0.32806
 H685 H 0.69206 0.82248 0.22622
 H686 H 0.65113 0.86031 0.25190
 C687 C 0.43959 0.42511 0.11450
 C688 C 0.47269 0.41754 0.09144
 C689 C 0.48806 0.43556 0.06578
 C690 C 0.47121 0.46198 0.06228
 C691 C 0.43932 0.47009 0.08655
 C692 C 0.42366 0.45184 0.11243
 C693 C 0.41986 0.40411 0.13778
 N694 N 0.39207 0.41062 0.16439
 N695 N 0.37236 0.39109 0.18304
 C696 C 0.37952 0.36437 0.17554
 N697 N 0.40763 0.35798 0.14934
 N698 N 0.42746 0.37739 0.13101
 C699 C 0.35447 0.34243 0.19240
 C700 C 0.34214 0.32026 0.17127
 C701 C 0.31814 0.29922 0.18577
 C702 C 0.30618 0.29937 0.22222
 C703 C 0.31977 0.32128 0.24375
 C704 C 0.34296 0.34294 0.22878
 H705 H 0.48594 0.39718 0.09228
 H706 H 0.51172 0.42791 0.04749
 H707 H 0.42550 0.49025 0.08496
 H708 H 0.39804 0.45830 0.12980
 H709 H 0.35047 0.31939 0.14309
 H710 H 0.30912 0.28287 0.16794
 H711 H 0.31208 0.32196 0.27192
 H712 H 0.35255 0.35977 0.24569
 C713 C 0.55139 0.60839 0.05647
 C714 C 0.57163 0.59808 0.02584
 C715 C 0.55571 0.57523 0.00840
 C716 C 0.51840 0.56234 0.02043
 C717 C 0.49617 0.57415 0.04928
 C718 C 0.51245 0.59697 0.06706
 C719 C 0.57374 0.62840 0.07941
 N720 N 0.55598 0.63780 0.11024
 N721 N 0.57820 0.65337 0.13268
 C722 C 0.61918 0.65996 0.12537
 N723 N 0.63666 0.65090 0.09434
 N724 N 0.61444 0.63544 0.07189
 C725 C 0.64486 0.67594 0.15107
 C726 C 0.68903 0.67788 0.14680
 C727 C 0.71341 0.69293 0.17090
 C728 C 0.69447 0.70610 0.20035
 C729 C 0.65000 0.70477 0.20382
 C730 C 0.62562 0.68950 0.17991
 H731 H 0.60152 0.60645 0.01669
 H732 H 0.57476 0.56658 -0.01286
 H733 H 0.46786 0.56466 0.05994
 H734 H 0.49590 0.60452 0.09050
 H735 H 0.70489 0.66792 0.12462
 H736 H 0.74706 0.69474 0.16576
 H737 H 0.63357 0.71604 0.22452
 H738 H 0.59156 0.68885 0.18357
 C739 C 0.05023 0.89295 0.94087
 C740 C 0.07055 0.90292 0.97162
 C741 C 0.05491 0.92571 0.98937
 C742 C 0.01775 0.93890 0.97759
 C743 C -0.00458 0.92746 0.94855
 C744 C 0.01147 0.90470 0.93041
 C745 C 0.07235 0.87289 0.91778
 N746 N 0.05471 0.86386 0.88674
 N747 N 0.07681 0.84817 0.86430
 C748 C 0.11755 0.84110 0.87184
 N749 N 0.13488 0.84981 0.90308
 N750 N 0.11279 0.86537 0.92551
 C751 C 0.14315 0.82495 0.84623
 C752 C 0.18728 0.82281 0.85062
 C753 C 0.21161 0.80750 0.82672
 C754 C 0.19267 0.79425 0.79737
 C755 C 0.14824 0.79584 0.79372
 C756 C 0.12391 0.81137 0.81744
 H757 H 0.10033 0.89432 0.98068
 H758 H 0.07411 0.93409 1.01069
 H759 H -0.03278 0.93720 0.93807
 H760 H -0.00512 0.89743 0.90686
 H761 H 0.20314 0.83280 0.87275
 H762 H 0.24522 0.80558 0.83194
 H763 H 0.13179 0.78454 0.77309
 H764 H 0.08987 0.81218 0.81370
 C765 C 0.45490 0.10809 0.43576
 C766 C 0.43530 0.09934 0.46758
 C767 C 0.45061 0.07676 0.48612
 C768 C 0.48688 0.06269 0.47416
 C769 C 0.50868 0.07301 0.44404
 C770 C 0.49278 0.09541 0.42498
 C771 C 0.43281 0.12790 0.41222
 N772 N 0.44589 0.13241 0.37794
 N773 N 0.42287 0.14774 0.35566
 C774 C 0.38571 0.15902 0.36671
 N775 N 0.37317 0.15490 0.40113
 N776 N 0.39612 0.13965 0.42333
 C777 C 0.35848 0.17488 0.34186
 C778 C 0.31792 0.18317 0.35295
 C779 C 0.29214 0.19859 0.33041
 C780 C 0.30596 0.20619 0.29597
 C781 C 0.34640 0.19754 0.28456
 C782 C 0.37227 0.18190 0.30719
 H783 H 0.40611 0.10860 0.47683
 H784 H 0.43171 0.06917 0.50817
 H785 H 0.53627 0.06263 0.43347
 H786 H 0.50886 0.10179 0.40070
 H787 H 0.30606 0.17804 0.37938
 H788 H 0.26186 0.20519 0.34074
 H789 H 0.35835 0.20309 0.25832
 H790 H 0.40330 0.17574 0.29774
 C791 C 0.95420 0.39188 0.56255
 C792 C 0.99207 0.40453 0.57333
 C793 C 1.00789 0.42699 0.55437
 C794 C 0.98601 0.43741 0.52437
 C795 C 0.94971 0.42340 0.51244
 C796 C 0.93450 0.40074 0.53086
 C797 C 0.93214 0.37203 0.58604
 N798 N 0.89562 0.36016 0.57480
 N799 N 0.87255 0.34497 0.59698
 C800 C 0.88479 0.34104 0.63150
 N801 N 0.92180 0.35241 0.64267
 N802 N 0.94495 0.36768 0.62041
 C803 C 0.85734 0.32535 0.65634
 C804 C 0.87086 0.31848 0.69113
 C805 C 0.84476 0.30304 0.71378
 C806 C 0.80437 0.29442 0.70229
 C807 C 0.79081 0.30186 0.66772
 C808 C 0.81683 0.31709 0.64515
 H809 H 1.00820 0.39807 0.59754
 H810 H 1.03549 0.43734 0.56493
 H811 H 0.93071 0.43107 0.49052
 H812 H 0.90528 0.39152 0.52164
 H813 H 0.90184 0.32463 0.70065
 H814 H 0.85651 0.29761 0.74013
 H815 H 0.76056 0.29528 0.65735
 H816 H 0.80517 0.32211 0.61863
 C817 C 0.93342 0.56562 0.12394
 C818 C 0.91853 0.53881 0.11921
 C819 C 0.93680 0.52171 0.09314
 C820 C 0.96973 0.53130 0.07090
 C821 C 0.98476 0.55799 0.07649
 C822 C 0.96757 0.57457 0.10292
 C823 C 0.91203 0.58541 0.14803
 N824 N 0.93151 0.60929 0.15613
 N825 N 0.91111 0.62884 0.17376
 C826 C 0.87017 0.62550 0.18410
 N827 N 0.85086 0.60132 0.17687
 N828 N 0.87136 0.58166 0.15917
 C829 C 0.84655 0.64867 0.20024
 C830 C 0.80456 0.64569 0.21223
 C831 C 0.78164 0.66826 0.22461
 C832 C 0.79989 0.69449 0.22484
 C833 C 0.84235 0.69716 0.21378
 C834 C 0.86533 0.67462 0.20180
 H835 H 0.89218 0.53131 0.13503
 H836 H 0.92388 0.50148 0.08938
 H837 H 1.00897 0.56679 0.05950
 H838 H 0.97973 0.59512 0.10541
 H839 H 0.78908 0.62601 0.21145
 H840 H 0.74910 0.66515 0.23274
 H841 H 0.85800 0.71678 0.21370
 H842 H 0.89763 0.67779 0.19285
 C843 C 0.55804 0.43249 0.62291
 C844 C 0.57391 0.45922 0.61993
 C845 C 0.55666 0.47744 0.59459
 C846 C 0.52343 0.46914 0.57183
 C847 C 0.50632 0.44289 0.57683
 C848 C 0.52281 0.42514 0.60221
 C849 C 0.58019 0.41091 0.64361
 N850 N 0.57264 0.38441 0.63546
 N851 N 0.59405 0.36448 0.65136
 C852 C 0.62389 0.37009 0.67641
 N853 N 0.63123 0.39658 0.68521
 N854 N 0.60994 0.41666 0.66894
 C855 C 0.64915 0.34754 0.69175
 C856 C 0.66400 0.34815 0.72721
 C857 C 0.68668 0.32597 0.74124
 C858 C 0.69687 0.30337 0.71954
 C859 C 0.68079 0.30276 0.68433
 C860 C 0.65735 0.32448 0.67069
 H861 H 0.60111 0.46551 0.63559
 H862 H 0.57102 0.49733 0.59140
 H863 H 0.48152 0.43506 0.55968
 H864 H 0.50928 0.40491 0.60403
 H865 H 0.65706 0.36540 0.74432
 H866 H 0.69562 0.32653 0.76918
 H867 H 0.68607 0.28543 0.66698
 H868 H 0.64592 0.32329 0.64333
 C869 C 0.05987 0.06791 0.37317
 C870 C 0.02477 0.07532 0.39404
 C871 C 0.00855 0.05768 0.41965
 C872 C 0.02563 0.03141 0.42460
 C873 C 0.05870 0.02304 0.40168
 C874 C 0.07579 0.04119 0.37618
 C875 C 0.08185 0.08948 0.35233
 N876 N 0.11231 0.08378 0.32756
 N877 N 0.13361 0.10391 0.31139
 C878 C 0.12554 0.13040 0.31976
 N879 N 0.09496 0.13596 0.34420
 N880 N 0.07356 0.11598 0.35999
 C881 C 0.15092 0.15301 0.30485
 C882 C 0.15897 0.17587 0.32631
 C883 C 0.18245 0.19770 0.31309
 C884 C 0.19870 0.19740 0.27791
 C885 C 0.18860 0.17503 0.25581
 C886 C 0.16591 0.15271 0.26943
 H887 H 0.01120 0.09555 0.39225
 H888 H -0.01603 0.06561 0.43696
 H889 H 0.07304 0.00314 0.40486
 H890 H 0.10288 0.03486 0.36039
 H891 H 0.14737 0.17680 0.35365
 H892 H 0.18760 0.21487 0.33073
 H893 H 0.19760 0.17475 0.22786
 H894 H 0.15902 0.13563 0.25202
 C895 C 0.43198 0.93467 0.87163
 C896 C 0.41701 0.96148 0.87615
 C897 C 0.43486 0.97858 0.90237
 C898 C 0.46741 0.96898 0.92497
 C899 C 0.48264 0.94232 0.91952
 C900 C 0.46587 0.92572 0.89293
 C901 C 0.41072 0.91486 0.84757
 N902 N 0.43019 0.89095 0.83961
 N903 N 0.40976 0.87133 0.82217
 C904 C 0.36880 0.87466 0.81191
 N905 N 0.34951 0.89888 0.81897
 N906 N 0.37005 0.91860 0.83648
 C907 C 0.34508 0.85142 0.79616
 C908 C 0.30295 0.85436 0.78453
 C909 C 0.27989 0.83172 0.77267
 C910 C 0.29813 0.80549 0.77259
 C911 C 0.34073 0.80286 0.78324
 C912 C 0.36385 0.82546 0.79472
 H913 H 0.39087 0.96897 0.86009
 H914 H 0.42184 0.99880 0.90597
 H915 H 0.50665 0.93355 0.93675
 H916 H 0.47807 0.90517 0.89056
 H917 H 0.28749 0.87405 0.78521
 H918 H 0.24726 0.83480 0.76476
 H919 H 0.35640 0.78325 0.78336
 H920 H 0.39627 0.82235 0.80339
 C921 C 0.13227 0.93882 0.58176
 C922 C 0.10696 0.95865 0.59830
 C923 C 0.08034 0.97519 0.57806
 C924 C 0.07830 0.97274 0.54045
 C925 C 0.10606 0.95423 0.52361
 C926 C 0.13284 0.93744 0.54408
 C927 C 0.15345 0.91797 0.60430
 N928 N 0.18390 0.90115 0.59094
 N929 N 0.19976 0.88099 0.61098
 C930 C 0.18539 0.87675 0.64495
 N931 N 0.15538 0.89373 0.65831
 N932 N 0.13991 0.91393 0.63848
 C933 C 0.19896 0.85290 0.66622
 C934 C 0.16957 0.84014 0.68893
 C935 C 0.18085 0.81709 0.70851
 C936 C 0.22226 0.80660 0.70704
 C937 C 0.25194 0.81958 0.68441
 C938 C 0.24023 0.84234 0.66387
 H939 H 0.10591 0.96044 0.62725
 H940 H 0.05902 0.98844 0.59255
 H941 H 0.10552 0.95158 0.49479
 H942 H 0.15207 0.92234 0.53052
 H943 H 0.13727 0.84754 0.69077
 H944 H 0.15657 0.80731 0.72420
 H945 H 0.28414 0.81210 0.68228
 H946 H 0.26348 0.85186 0.64650
 C947 C 0.63144 0.56101 0.41490
 C948 C 0.63184 0.56232 0.45259
 C949 C 0.60466 0.54572 0.47295
 C950 C 0.57663 0.52745 0.45601
 C951 C 0.57878 0.52505 0.41839
 C952 C 0.60580 0.54143 0.39825
 C953 C 0.65324 0.58170 0.39249
 N954 N 0.64037 0.58569 0.35813
 N955 N 0.65633 0.60581 0.33842
 C956 C 0.68617 0.62275 0.35208
 N957 N 0.69989 0.61853 0.38623
 N958 N 0.68355 0.59846 0.40615
 C959 C 0.70011 0.64660 0.33095
 C960 C 0.74125 0.65728 0.33392
 C961 C 0.75322 0.68011 0.31360
 C962 C 0.72393 0.69304 0.29059
 C963 C 0.68265 0.68242 0.28848
 C964 C 0.67114 0.65930 0.30783
 H965 H 0.65130 0.57723 0.46625
 H966 H 0.60406 0.54832 0.50178
 H967 H 0.55730 0.51198 0.40384
 H968 H 0.60483 0.53969 0.36930
 H969 H 0.76418 0.64783 0.35163
 H970 H 0.78529 0.68771 0.31624
 H971 H 0.65862 0.69215 0.27251
 H972 H 0.63894 0.65182 0.30550
 C973 C 0.36779 0.06409 0.08112
 C974 C 0.36749 0.06507 0.04339
 C975 C 0.39391 0.04792 0.02332
 C976 C 0.42148 0.02949 0.04051
 C977 C 0.41997 0.02776 0.07824
 C978 C 0.39336 0.04460 0.09817
 C979 C 0.34482 0.08470 0.10280
 N980 N 0.34464 0.08313 0.13921
 N981 N 0.32775 0.10295 0.15898
 C982 C 0.31039 0.12526 0.14320
 N983 N 0.30990 0.12662 0.10676
 N984 N 0.32674 0.10677 0.08698
 C985 C 0.29499 0.14842 0.16519
 C986 C 0.28223 0.17279 0.14869
 C987 C 0.27091 0.19538 0.16926
 C988 C 0.27202 0.19436 0.20706
 C989 C 0.28312 0.16954 0.22350
 C990 C 0.29466 0.14692 0.20287
 H991 H 0.34797 0.07978 0.02936
 H992 H 0.39407 0.05008 -0.00558
 H993 H 0.44135 0.01462 0.09288
 H994 H 0.39464 0.04328 0.12715
 H995 H 0.28177 0.17468 0.11974
 H996 H 0.26174 0.21375 0.15519
 H997 H 0.28244 0.16727 0.25230
 H998 H 0.30367 0.12831 0.21652
 C999 C 0.87213 0.43619 0.91459
 C1000 C 0.87159 0.43546 0.95231
 C1001 C 0.89833 0.45243 0.97227
 C1002 C 0.92646 0.47046 0.95500
 C1003 C 0.92536 0.47191 0.91725
 C1004 C 0.89848 0.45518 0.89739
 C1005 C 0.84822 0.41588 0.89317
 N1006 N 0.84820 0.41710 0.85673
 N1007 N 0.83010 0.39754 0.83729
 C1008 C 0.81132 0.37586 0.85345
 N1009 N 0.81072 0.37487 0.88990
 N1010 N 0.82876 0.39445 0.90934
 C1011 C 0.79457 0.35287 0.83186
 C1012 C 0.78119 0.32879 0.84875
 C1013 C 0.76902 0.30620 0.82853
 C1014 C 0.76984 0.30696 0.79072
 C1015 C 0.78125 0.33159 0.77391
 C1016 C 0.79370 0.35418 0.79419
 H1017 H 0.85149 0.42115 0.96647
 H1018 H 0.89807 0.45052 1.00120
 H1019 H 0.94700 0.48490 0.90262
 H1020 H 0.89991 0.45631 0.86840
 H1021 H 0.78108 0.32707 0.87772
 H1022 H 0.75959 0.28800 0.84287
 H1023 H 0.78035 0.33368 0.74510
 H1024 H 0.80308 0.37259 0.78026
 C1025 C 0.56225 0.07452 0.88469
 C1026 C 0.51813 0.07233 0.88916
 C1027 C 0.50094 0.05149 0.91056
 C1028 C 0.52767 0.03293 0.92857
 C1029 C 0.57171 0.03498 0.92295
 C1030 C 0.58858 0.05504 0.90084
 C1031 C 0.58206 0.09761 0.86540
 N1032 N 0.62182 0.09475 0.85212
 N1033 N 0.64216 0.11582 0.83787
 C1034 C 0.62394 0.14085 0.83646
 N1035 N 0.58383 0.14380 0.84939
 N1036 N 0.56327 0.12255 0.86363
 C1037 C 0.64828 0.16398 0.82110
 C1038 C 0.63466 0.19123 0.82371
 C1039 C 0.65896 0.21239 0.80855
 C1040 C 0.69716 0.20666 0.79038
 C1041 C 0.71026 0.17931 0.78829
 C1042 C 0.68654 0.15849 0.80341
 H1043 H 0.49708 0.08707 0.87686
 H1044 H 0.46695 0.05099 0.91465
 H1045 H 0.59380 0.02207 0.93724
 H1046 H 0.62276 0.05627 0.89828
 H1047 H 0.60528 0.19617 0.83729
 H1048 H 0.64735 0.23310 0.81045
 H1049 H 0.73757 0.17328 0.77301
 H1050 H 0.69797 0.13782 0.80027
 C1051 C 0.43162 0.57654 0.60835
 C1052 C 0.40513 0.55798 0.59072
 C1053 C 0.42206 0.53787 0.56886
 C1054 C 0.46623 0.53476 0.56498
 C1055 C 0.49299 0.55260 0.58409
 C1056 C 0.47580 0.57355 0.60527
 C1057 C 0.41191 0.59937 0.62811
 N1058 N 0.43087 0.62420 0.63060
 N1059 N 0.41037 0.64525 0.64536
 C1060 C 0.37020 0.64218 0.65812
 N1061 N 0.35180 0.61726 0.65595
 N1062 N 0.37205 0.59640 0.64116
 C1063 C 0.34608 0.66503 0.67427
 C1064 C 0.30909 0.65911 0.69357
 C1065 C 0.28549 0.67971 0.70930
 C1066 C 0.29743 0.70721 0.70618
 C1067 C 0.33441 0.71334 0.68646
 C1068 C 0.35862 0.69242 0.67073
 H1069 H 0.37094 0.55991 0.59216
 H1070 H 0.40003 0.52553 0.55369
 H1071 H 0.52711 0.55131 0.58126
 H1072 H 0.49692 0.58761 0.61871
 H1073 H 0.29865 0.63830 0.69748
 H1074 H 0.25930 0.67346 0.72575
 H1075 H 0.34515 0.73418 0.68375
 H1076 H 0.38701 0.69765 0.65589
 C1077 C 0.06534 0.42631 0.11229
 C1078 C 0.09175 0.44578 0.09621
 C1079 C 0.07503 0.46570 0.07381
 C1080 C 0.03105 0.46761 0.06780
 C1081 C 0.00421 0.44906 0.08572
 C1082 C 0.02126 0.42837 0.10743
 C1083 C 0.08502 0.40332 0.13188
 N1084 N 0.06627 0.37838 0.13369
 N1085 N 0.08671 0.35721 0.14822
 C1086 C 0.12666 0.36022 0.16144
 N1087 N 0.14484 0.38525 0.16000
 N1088 N 0.12462 0.40626 0.14544
 C1089 C 0.15083 0.33715 0.17712
 C1090 C 0.18863 0.34270 0.19541
 C1091 C 0.21221 0.32189 0.21073
 C1092 C 0.19940 0.29451 0.20824
 C1093 C 0.16163 0.28874 0.18951
 C1094 C 0.13748 0.30988 0.17415
 H1095 H 0.12590 0.44465 0.09908
 H1096 H 0.09719 0.47865 0.05964
 H1097 H -0.02973 0.44946 0.08136
 H1098 H 0.00016 0.41364 0.11967
 H1099 H 0.19980 0.36340 0.19883
 H1100 H 0.23920 0.32792 0.22640
 H1101 H 0.15025 0.26801 0.18727
 H1102 H 0.10846 0.30490 0.16009
 C1103 C 0.93300 0.92395 0.38888
 C1104 C 0.90669 0.94290 0.40605
 C1105 C 0.92380 0.96321 0.42750
 C1106 C 0.96798 0.96607 0.43145
 C1107 C 0.99458 0.94790 0.41265
 C1108 C 0.97720 0.92680 0.39188
 C1109 C 0.91312 0.90088 0.36972
 N1110 N 0.93240 0.87615 0.36703
 N1111 N 0.91198 0.85496 0.35259
 C1112 C 0.87154 0.85778 0.34036
 N1113 N 0.85278 0.88258 0.34279
 N1114 N 0.87298 0.90359 0.35725
 C1115 C 0.84759 0.83483 0.32430
 C1116 C 0.81047 0.84065 0.30516
 C1117 C 0.78704 0.82002 0.28941
 C1118 C 0.79922 0.79255 0.29235
 C1119 C 0.83635 0.78649 0.31189
 C1120 C 0.86043 0.80747 0.32763
 H1121 H 0.87248 0.94114 0.40465
 H1122 H 0.90189 0.97581 0.44244
 H1123 H 1.02870 0.94901 0.41550
 H1124 H 0.99821 0.91247 0.37876
 H1125 H 0.79982 0.86144 0.30134
 H1126 H 0.76080 0.82627 0.27303
 H1127 H 0.84730 0.76568 0.31442
 H1128 H 0.88896 0.80231 0.34231
 C1129 C 0.87430 0.57359 0.57114
 C1130 C 0.88361 0.57778 0.53464
 C1131 C 0.91077 0.55985 0.51638
 C1132 C 0.92916 0.53757 0.53439
 C1133 C 0.91727 0.53263 0.57025
 C1134 C 0.89041 0.55036 0.58828
 C1135 C 0.85150 0.59415 0.59278
 N1136 N 0.85712 0.59455 0.62886
 N1137 N 0.83968 0.61391 0.64887
 C1138 C 0.81545 0.63361 0.63372
 N1139 N 0.80901 0.63309 0.59765
 N1140 N 0.82690 0.61375 0.57749
 C1141 C 0.80021 0.65630 0.65606
 C1142 C 0.76058 0.66859 0.65043
 C1143 C 0.74709 0.68994 0.67267
 C1144 C 0.77317 0.69948 0.70071
 C1145 C 0.81368 0.68779 0.70472
 C1146 C 0.82648 0.66609 0.68342
 H1147 H 0.87145 0.59550 0.52068
 H1148 H 0.91845 0.56400 0.48864
 H1149 H 0.92983 0.51558 0.58529
 H1150 H 0.88332 0.54626 0.61621
 H1151 H 0.74001 0.66153 0.62912
 H1152 H 0.71652 0.69919 0.66751
 H1153 H 0.83620 0.69558 0.72400
 H1154 H 0.85772 0.65746 0.68766
 C1155 C 0.62681 0.42577 0.07074
 C1156 C 0.61060 0.44907 0.08754
 C1157 C 0.58385 0.46674 0.06923
 C1158 C 0.57212 0.46166 0.03339
 C1159 C 0.59049 0.43923 0.01573
 C1160 C 0.61758 0.42138 0.03428
 C1161 C 0.64979 0.40541 0.09269
 N1162 N 0.67443 0.38571 0.07770
 N1163 N 0.69255 0.36662 0.09817
 C1164 C 0.68633 0.36644 0.13429
 N1165 N 0.66206 0.38623 0.14914
 N1166 N 0.64439 0.40535 0.12881
 C1167 C 0.70167 0.34393 0.15703
 C1168 C 0.67532 0.33425 0.18445
 C1169 C 0.68804 0.31262 0.20599
 C1170 C 0.72853 0.30087 0.20215
 C1171 C 0.75481 0.31041 0.17417
 C1172 C 0.74139 0.33168 0.15167
 H1173 H 0.61757 0.45334 0.11543
 H1174 H 0.57128 0.48386 0.08405
 H1175 H 0.58293 0.43495 -0.01196
 H1176 H 0.62980 0.40359 0.02057
 H1177 H 0.64403 0.34284 0.18850
 H1178 H 0.66536 0.30484 0.22519
 H1179 H 0.78542 0.30116 0.16919
 H1180 H 0.76205 0.33868 0.13034
 C1181 C 0.37481 0.92669 0.42790
 C1182 C 0.38422 0.92249 0.46437
 C1183 C 0.41158 0.94034 0.48250
 C1184 C 0.43008 0.96254 0.46438
 C1185 C 0.41819 0.96746 0.42854
 C1186 C 0.39111 0.94981 0.41064
 C1187 C 0.35162 0.90623 0.40641
 N1188 N 0.35670 0.90594 0.37026
 N1189 N 0.33892 0.88667 0.35035
 C1190 C 0.31489 0.86695 0.36567
 N1191 N 0.30897 0.86736 0.40181
 N1192 N 0.32719 0.88661 0.42187
 C1193 C 0.29937 0.84432 0.34337
 C1194 C 0.25986 0.83198 0.34936
 C1195 C 0.24610 0.81072 0.32709
 C1196 C 0.27181 0.80133 0.29868
 C1197 C 0.31222 0.81307 0.29432
 C1198 C 0.32527 0.83467 0.31565
 H1199 H 0.37194 0.90485 0.47842
 H1200 H 0.41928 0.93621 0.51023
 H1201 H 0.43084 0.98443 0.41343
 H1202 H 0.38397 0.95391 0.38273
 H1203 H 0.23957 0.83894 0.37094
 H1204 H 0.21561 0.80145 0.33249
 H1205 H 0.33450 0.80538 0.27474
 H1206 H 0.35643 0.84333 0.31113
 C1207 C 0.12514 0.07585 0.92712
 C1208 C 0.11692 0.07995 0.96381
 C1209 C 0.09053 0.06186 0.98269
 C1210 C 0.07192 0.03950 0.96511
 C1211 C 0.08276 0.03469 0.92899
 C1212 C 0.10878 0.05260 0.91035
 C1213 C 0.14727 0.09645 0.90497
 N1214 N 0.14008 0.09717 0.86909
 N1215 N 0.15747 0.11633 0.84865
 C1216 C 0.18319 0.13549 0.86313
 N1217 N 0.19107 0.13467 0.89899
 N1218 N 0.17324 0.11555 0.91960
 C1219 C 0.19928 0.15775 0.84028
 C1220 C 0.23892 0.16986 0.84631
 C1221 C 0.25324 0.19089 0.82388
 C1222 C 0.22800 0.20033 0.79519
 C1223 C 0.18760 0.18868 0.79048
 C1224 C 0.17394 0.16729 0.81207
 H1225 H 0.12930 0.09770 0.97747
 H1226 H 0.08360 0.06594 1.01056
 H1227 H 0.06997 0.01763 0.91421
 H1228 H 0.11506 0.04858 0.88228
 H1229 H 0.25886 0.16296 0.86817
 H1230 H 0.28379 0.20001 0.82944
 H1231 H 0.16577 0.19635 0.77052
 H1232 H 0.14273 0.15878 0.80740
 C1233 C 0.06451 0.92458 0.11667
 C1234 C 0.08065 0.95125 0.11475
 C1235 C 0.06568 0.96950 0.08859
 C1236 C 0.03435 0.96141 0.06384
 C1237 C 0.01748 0.93498 0.06699
 C1238 C 0.03210 0.91699 0.09297
 C1239 C 0.08325 0.90365 0.14062
 N1240 N 0.07439 0.87698 0.13475
 N1241 N 0.09352 0.85754 0.15353
 C1242 C 0.12213 0.86387 0.17931
 N1243 N 0.13050 0.89056 0.18599
 N1244 N 0.11147 0.91011 0.16688
 C1245 C 0.14677 0.84181 0.19624
 C1246 C 0.15842 0.84235 0.23257
 C1247 C 0.18136 0.82058 0.24754
 C1248 C 0.19461 0.79856 0.22602
 C1249 C 0.18245 0.79839 0.18964
 C1250 C 0.15867 0.81951 0.17516
 H1251 H 0.10577 0.95772 0.13260
 H1252 H 0.07945 0.98968 0.08729
 H1253 H -0.00587 0.92739 0.04840
 H1254 H 0.01871 0.89667 0.09362
 H1255 H 0.14917 0.85930 0.24943
 H1256 H 0.18918 0.82128 0.27567
 H1257 H 0.19116 0.78195 0.17181
 H1258 H 0.15021 0.81862 0.14701
 C1259 C 0.93715 0.42192 0.38573
 C1260 C 0.92112 0.44862 0.38733
 C1261 C 0.93664 0.46710 0.41287
 C1262 C 0.96862 0.45929 0.43723
 C1263 C 0.98576 0.43292 0.43412
 C1264 C 0.97029 0.41458 0.40889
 C1265 C 0.91749 0.40083 0.36265
 N1266 N 0.92364 0.37411 0.37044
 N1267 N 0.90387 0.35476 0.35200
 C1268 C 0.87730 0.36123 0.32468
 N1269 N 0.87161 0.38794 0.31623
 N1270 N 0.89121 0.40740 0.33498
 C1271 C 0.85247 0.33945 0.30721
 C1272 C 0.84179 0.34032 0.27065
 C1273 C 0.81862 0.31893 0.25507
 C1274 C 0.80423 0.29691 0.27612
 C1275 C 0.81532 0.29641 0.31276
 C1276 C 0.83929 0.31718 0.32789
 H1277 H 0.89548 0.45490 0.36986
 H1278 H 0.92266 0.48722 0.41408
 H1279 H 1.00973 0.42562 0.45239
 H1280 H 0.98359 0.39424 0.40834
 H1281 H 0.85197 0.35724 0.25407
 H1282 H 0.81158 0.31990 0.22679
 H1283 H 0.80562 0.27996 0.33026
 H1284 H 0.84691 0.31602 0.35620
 C1285 C 0.43906 0.07787 0.61393
 C1286 C 0.42274 0.05125 0.61203
 C1287 C 0.43777 0.03294 0.58606
 C1288 C 0.46950 0.04082 0.56148
 C1289 C 0.48672 0.06715 0.56466
 C1290 C 0.47184 0.08531 0.59040
 C1291 C 0.42013 0.09879 0.63780
 N1292 N 0.42880 0.12550 0.63192
 N1293 N 0.40944 0.14485 0.65070
 C1294 C 0.38077 0.13839 0.67648
 N1295 N 0.37263 0.11166 0.68314
 N1296 N 0.39187 0.09221 0.66406
 C1297 C 0.35592 0.16036 0.69356
 C1298 C 0.34270 0.15914 0.72952
 C1299 C 0.31928 0.18069 0.74454
 C1300 C 0.30707 0.20320 0.72338
 C1301 C 0.32088 0.20407 0.68740
 C1302 C 0.34511 0.18316 0.67292
 H1303 H 0.39738 0.04487 0.62975
 H1304 H 0.42370 0.01285 0.58478
 H1305 H 0.51042 0.07453 0.54619
 H1306 H 0.48533 0.10559 0.59104
 H1307 H 0.35101 0.14179 0.74607
 H1308 H 0.31017 0.17942 0.77238
 H1309 H 0.31315 0.22090 0.66985
 H1310 H 0.35471 0.18462 0.64507
 C1311 C 0.56517 0.57626 0.88239
 C1312 C 0.53232 0.58383 0.90570
 C1313 C 0.51702 0.56574 0.93130
 C1314 C 0.53369 0.53924 0.93448
 C1315 C 0.56535 0.53115 0.90999
 C1316 C 0.58094 0.54948 0.88416
 C1317 C 0.58477 0.59733 0.85915
 N1318 N 0.61184 0.59088 0.83199
 N1319 N 0.63134 0.61046 0.81326
 C1320 C 0.62470 0.63715 0.82125
 N1321 N 0.59733 0.64348 0.84803
 N1322 N 0.57770 0.62402 0.86642
 C1323 C 0.64950 0.65912 0.80420
 C1324 C 0.66275 0.68102 0.82542
 C1325 C 0.68629 0.70218 0.81070
 C1326 C 0.69685 0.70244 0.77395
 C1327 C 0.68244 0.68077 0.75238
 C1328 C 0.65970 0.65898 0.76753
 H1329 H 0.51919 0.60422 0.90509
 H1330 H 0.49351 0.57337 0.94974
 H1331 H 0.57902 0.51094 0.91135
 H1332 H 0.60637 0.54304 0.86659
 H1333 H 0.65546 0.68159 0.85383
 H1334 H 0.69608 0.71829 0.82862
 H1335 H 0.68907 0.68040 0.72400
 H1336 H 0.64938 0.64236 0.75056
 C1337 C 0.45252 0.39271 0.94067
 C1338 C 0.43285 0.40303 0.97155
 C1339 C 0.44909 0.42587 0.98878
 C1340 C 0.48621 0.43875 0.97632
 C1341 C 0.50790 0.42695 0.94716
 C1342 C 0.49125 0.40414 0.92955
 C1343 C 0.42970 0.37270 0.91804
 N1344 N 0.44686 0.36325 0.88700
 N1345 N 0.42418 0.34767 0.86490
 C1346 C 0.38332 0.34112 0.87277
 N1347 N 0.36645 0.35023 0.90402
 N1348 N 0.38913 0.36568 0.92613
 C1349 C 0.35712 0.32517 0.84743
 C1350 C 0.31294 0.32357 0.85197
 C1351 C 0.28808 0.30859 0.82812
 C1352 C 0.30653 0.29517 0.79865
 C1353 C 0.35102 0.29613 0.79496
 C1354 C 0.37587 0.31132 0.81861
 H1355 H 0.40312 0.39467 0.98109
 H1356 H 0.43035 0.43453 1.01022
 H1357 H 0.53602 0.43645 0.93616
 H1358 H 0.50734 0.39661 0.90589
 H1359 H 0.29746 0.33377 0.87415
 H1360 H 0.25446 0.30702 0.83350
 H1361 H 0.36705 0.28473 0.77415
 H1362 H 0.40991 0.31170 0.81474
 C1363 C 0.95625 0.10796 0.06172
 C1364 C 0.93623 0.09863 0.03045
 C1365 C 0.95150 0.07585 0.01243
 C1366 C 0.98819 0.06221 0.02430
 C1367 C 1.01034 0.07308 0.05384
 C1368 C 0.99444 0.09565 0.07244
 C1369 C 0.93416 0.12787 0.08498
 N1370 N 0.94680 0.13220 0.11938
 N1371 N 0.92348 0.14740 0.14154
 C1372 C 0.88645 0.15871 0.13023
 N1373 N 0.87441 0.15483 0.09567
 N1374 N 0.89766 0.13971 0.07359
 C1375 C 0.85874 0.17420 0.15499
 C1376 C 0.81825 0.18240 0.14362
 C1377 C 0.79197 0.19743 0.16615
 C1378 C 0.80522 0.20471 0.20082
 C1379 C 0.84558 0.19612 0.21249
 C1380 C 0.87195 0.18089 0.18989
 H1381 H 0.90673 0.10756 0.02132
 H1382 H 0.93231 0.06783 -0.00912
 H1383 H 1.03823 0.06300 0.06437
 H1384 H 1.01078 0.10246 0.09634
 H1385 H 0.80683 0.17751 0.11701
 H1386 H 0.76175 0.20400 0.15564
 H1387 H 0.85709 0.20143 0.23894
 H1388 H 0.90291 0.17476 0.19954
 C1389 C 0.54593 0.89387 0.56115
 C1390 C 0.56545 0.90274 0.52937
 C1391 C 0.55019 0.92544 0.51108
 C1392 C 0.51402 0.93951 0.52323
 C1393 C 0.49232 0.92911 0.55336
 C1394 C 0.50819 0.90659 0.57219
 C1395 C 0.56804 0.87389 0.58442
 N1396 N 0.55525 0.86935 0.61877
 N1397 N 0.57838 0.85390 0.64083
 C1398 C 0.61536 0.84254 0.62948
 N1399 N 0.62758 0.84668 0.59498
 N1400 N 0.60451 0.86204 0.57300
 C1401 C 0.64278 0.82665 0.65411
 C1402 C 0.68329 0.81842 0.64280
 C1403 C 0.70930 0.80306 0.66521
 C1404 C 0.69575 0.79544 0.69972
 C1405 C 0.65533 0.80399 0.71131
 C1406 C 0.62924 0.81958 0.68883
 H1407 H 0.59457 0.89347 0.51995
 H1408 H 0.56908 0.93309 0.48906
 H1409 H 0.46485 0.93952 0.56411
 H1410 H 0.49221 0.90014 0.59648
 H1411 H 0.69495 0.82359 0.61632
 H1412 H 0.73959 0.79654 0.65478
 H1413 H 0.64358 0.79843 0.73762
 H1414 H 0.59826 0.82569 0.69844
 C1415 C 0.04508 0.60635 0.43784
 C1416 C 0.00737 0.59364 0.42675
 C1417 C -0.00850 0.57108 0.44549
 C1418 C 0.01315 0.56063 0.47559
 C1419 C 0.04929 0.57468 0.48780
 C1420 C 0.06456 0.59742 0.46959
 C1421 C 0.06719 0.62638 0.41463
 N1422 N 0.10374 0.63812 0.42601
 N1423 N 0.12676 0.65355 0.40407
 C1424 C 0.11442 0.65787 0.36966
 N1425 N 0.07738 0.64661 0.35835
 N1426 N 0.05430 0.63109 0.38036
 C1427 C 0.14173 0.67388 0.34506
 C1428 C 0.12809 0.68104 0.31041
 C1429 C 0.15404 0.69674 0.28796
 C1430 C 0.19444 0.70532 0.29948
 C1431 C 0.20813 0.69761 0.33391
 C1432 C 0.18224 0.68213 0.35631
 H1433 H -0.00859 0.60014 0.40248
 H1434 H -0.03594 0.56069 0.43470
 H1435 H 0.06814 0.56699 0.50981
 H1436 H 0.09363 0.60668 0.47906
 H1437 H 0.09711 0.67492 0.30085
 H1438 H 0.14219 0.70237 0.26172
 H1439 H 0.23841 0.70415 0.34429
 H1440 H 0.19398 0.67689 0.38273
   
