data_POSCAR
  _audit_creation_date              2014-09-24
  _audit_creation_method            'ToBaCCo'
  _symmetry_space_group_name_H-M    'P1'
  _symmetry_Int_Tables_number       1
  _symmetry_cell_setting            triclinic
  loop_
  _symmetry_equiv_pos_as_xyz
 x,y,z
_cell_length_a 86.3727
_cell_length_b 86.3744
_cell_length_c 86.3742
_cell_angle_alpha 89.999900
_cell_angle_beta 90.000900
_cell_angle_gamma 90.000600
loop_
  _atom_site_label
  _atom_site_type_symbol
  _atom_site_fract_x
  _atom_site_fract_y
  _atom_site_fract_z
N1 N 0.34398 0.34381 0.34407
 N2 N 0.34396 0.84385 -0.15601
 N3 N 0.84395 0.34427 -0.15631
 N4 N 0.84411 0.84425 0.34369
 N5 N 0.65598 0.65618 0.34391
 N6 N 0.65626 0.15599 -0.15593
 N7 N 0.15602 0.65600 -0.15583
 N8 N 0.15601 0.15621 0.34424
 N9 N 0.65602 0.34407 0.65607
 N10 N 0.65585 0.84406 1.15614
 N11 N 0.15606 0.34371 1.15583
 N12 N 0.15600 0.84372 0.65596
 N13 N 0.34394 0.65584 0.65608
 N14 N 0.34398 0.15603 1.15598
 N15 N 0.84404 0.65605 1.15618
 N16 N 0.84379 0.15584 0.65601
 N17 N 0.34409 0.34398 0.65632
 N18 N 0.34384 0.84417 0.15617
 N19 N 0.84406 0.34412 0.15609
 N20 N 0.84405 0.84391 0.65603
 N21 N 0.65606 0.65632 0.65569
 N22 N 0.65612 0.15633 0.15581
 N23 N 0.15610 0.65589 0.15609
 N24 N 0.15596 0.15589 0.65610
 N25 N 0.34390 0.65576 0.34389
 N26 N 0.34406 0.15576 0.84381
 N27 N 0.84386 0.65613 0.84411
 N28 N 0.84389 0.15613 0.34396
 N29 N 0.65597 0.34400 0.34402
 N30 N 0.65595 0.84380 0.84410
 N31 N 0.15589 0.34378 0.84390
 N32 N 0.15614 0.84399 0.34406
 O33 O 0.23020 0.98517 0.25179
 O34 O 0.25158 1.01535 0.23059
 O35 O 0.25146 0.98518 0.23047
 O36 O 0.23032 1.01535 0.25191
 O37 O 0.24840 1.01521 0.26994
 O38 O 0.26954 0.98503 0.24850
 O39 O 0.26966 1.01521 0.24862
 O40 O 0.24828 0.98503 0.26982
 Cu41 Cu 0.23908 1.00028 0.23939
 Cu42 Cu 0.26078 1.00011 0.26103
 C43 C 0.23561 0.97989 0.26441
 C44 C 0.26426 1.02049 0.23600
 C45 C 0.26410 0.97989 0.23584
 C46 C 0.23576 1.02049 0.26458
 O47 O 0.26955 0.48478 0.74856
 O48 O 0.24835 0.51495 0.76994
 O49 O 0.24823 0.48478 0.76982
 O50 O 0.26965 0.51496 0.74866
 O51 O 0.25161 0.51509 0.73059
 O52 O 0.23019 0.48491 0.75175
 O53 O 0.23031 0.51509 0.75187
 O54 O 0.25151 0.48491 0.73049
 Cu55 Cu 0.26075 0.49986 0.76106
 Cu56 Cu 0.23910 0.50001 0.73936
 C57 C 0.26414 0.47964 0.73588
 C58 C 0.23572 0.52023 0.76454
 C59 C 0.23557 0.47963 0.76439
 C60 C 0.26428 0.52023 0.73603
 O61 O 0.73025 0.01530 0.24819
 O62 O 0.75154 -0.01487 0.26948
 O63 O 0.75156 0.01530 0.26946
 O64 O 0.73026 -0.01488 0.24817
 O65 O 0.74831 -0.01488 0.23012
 O66 O 0.76961 0.01529 0.25140
 O67 O 0.76959 -0.01489 0.25142
 O68 O 0.74830 0.01530 0.23013
 Cu69 Cu 0.73909 0.00021 0.26063
 Cu70 Cu 0.76076 0.00021 0.23896
 C71 C 0.73565 0.02051 0.23554
 C72 C 0.76419 -0.02009 0.26407
 C73 C 0.76421 0.02051 0.26405
 C74 C 0.73567 -0.02009 0.23552
 O75 O 0.74853 0.48518 0.72993
 O76 O 0.76981 0.51535 0.75123
 O77 O 0.76975 0.48518 0.75128
 O78 O 0.74857 0.51535 0.72988
 O79 O 0.73046 0.51541 0.74789
 O80 O 0.75165 0.48524 0.76929
 O81 O 0.75170 0.51541 0.76924
 O82 O 0.73042 0.48523 0.74793
 Cu83 Cu 0.76098 0.50026 0.73878
 Cu84 Cu 0.73924 0.50033 0.76039
 C85 C 0.73586 0.47999 0.73531
 C86 C 0.76437 0.52059 0.76386
 C87 C 0.76431 0.48000 0.76393
 C88 C 0.73591 0.52059 0.73525
 O89 O 0.24845 0.48459 0.23009
 O90 O 0.26985 0.51477 0.25128
 O91 O 0.26980 0.48459 0.25133
 O92 O 0.24852 0.51476 0.23003
 O93 O 0.23050 0.51483 0.24812
 O94 O 0.25178 0.48465 0.26942
 O95 O 0.25183 0.51483 0.26938
 O96 O 0.23043 0.48466 0.24818
 Cu97 Cu 0.26096 0.49967 0.23887
 Cu98 Cu 0.23933 0.49975 0.26059
 C99 C 0.23580 0.47941 0.23553
 C100 C 0.26448 0.52001 0.26394
 C101 C 0.26441 0.47941 0.26400
 C102 C 0.23589 0.52001 0.23545
 O103 O 0.76979 0.98468 0.74859
 O104 O 0.74861 1.01487 0.77000
 O105 O 0.74858 0.98469 0.76996
 O106 O 0.76985 1.01486 0.74865
 O107 O 0.75173 1.01492 0.73065
 O108 O 0.73046 0.98474 0.75197
 O109 O 0.73050 1.01492 0.75200
 O110 O 0.75167 0.98475 0.73060
 Cu111 Cu 0.76102 0.99977 0.76111
 Cu112 Cu 0.73928 0.99984 0.73950
 C113 C 0.76433 0.97951 0.73595
 C114 C 0.73595 1.02011 0.76464
 C115 C 0.73590 0.97950 0.76459
 C116 C 0.76441 1.02010 0.73603
 O117 O 0.76981 0.48494 0.24873
 O118 O 0.74850 0.51511 0.27000
 O119 O 0.74843 0.48493 0.26994
 O120 O 0.76986 0.51511 0.24878
 O121 O 0.75187 0.51517 0.23066
 O122 O 0.73044 0.48501 0.25182
 O123 O 0.73051 0.51518 0.25188
 O124 O 0.75182 0.48500 0.23061
 Cu125 Cu 0.76095 0.50002 0.26118
 Cu126 Cu 0.73936 0.50010 0.23943
 C127 C 0.76444 0.47976 0.23606
 C128 C 0.73588 0.52036 0.26456
 C129 C 0.73579 0.47976 0.26448
 C130 C 0.76451 0.52035 0.23612
 O131 O 0.24824 -0.01538 0.73031
 O132 O 0.26966 0.01480 0.75147
 O133 O 0.26954 -0.01538 0.75159
 O134 O 0.24835 0.01480 0.73020
 O135 O 0.23031 0.01494 0.74826
 O136 O 0.25150 -0.01524 0.76966
 O137 O 0.25162 0.01494 0.76953
 O138 O 0.23020 -0.01524 0.74837
 Cu139 Cu 0.26076 -0.00030 0.73908
 Cu140 Cu 0.23910 -0.00014 0.76077
 C141 C 0.23558 -0.02052 0.73574
 C142 C 0.26428 0.02008 0.76410
 C143 C 0.26412 -0.02052 0.76427
 C144 C 0.23573 0.02008 0.73559
 O145 O 0.24849 0.26942 0.98470
 O146 O 0.26969 0.24803 1.01488
 O147 O 0.26969 0.24802 0.98470
 O148 O 0.24850 0.26943 1.01488
 O149 O 0.23036 0.25146 1.01489
 O150 O 0.25155 0.23005 0.98471
 O151 O 0.25155 0.23006 1.01489
 O152 O 0.23035 0.25145 0.98471
 Cu153 Cu 0.26091 0.26052 0.99979
 Cu154 Cu 0.23914 0.23895 0.99980
 C155 C 0.23582 0.26407 0.97950
 C156 C 0.26423 0.23541 1.02010
 C157 C 0.26422 0.23540 0.97950
 C158 C 0.23583 0.26408 1.02009
 O159 O 0.24855 0.76943 0.48489
 O160 O 0.26969 0.74798 0.51506
 O161 O 0.26969 0.74799 0.48488
 O162 O 0.24854 0.76941 0.51507
 O163 O 0.23036 0.75148 0.51506
 O164 O 0.25151 0.73005 0.48488
 O165 O 0.25151 0.73005 0.51506
 O166 O 0.23037 0.75150 0.48488
 Cu167 Cu 0.26094 0.76050 0.49997
 Cu168 Cu 0.23912 0.73897 0.49997
 C169 C 0.23586 0.76411 0.47967
 C170 C 0.26420 0.73537 0.52027
 C171 C 0.26420 0.73537 0.47967
 C172 C 0.23585 0.76409 0.52027
 O173 O 0.24835 0.73035 0.01523
 O174 O 0.26975 0.75152 -0.01495
 O175 O 0.26974 0.75154 0.01523
 O176 O 0.24834 0.73034 -0.01495
 O177 O 0.23038 0.74849 -0.01495
 O178 O 0.25178 0.76968 0.01522
 O179 O 0.25179 0.76967 -0.01496
 O180 O 0.23038 0.74850 0.01522
 Cu181 Cu 0.26085 0.73912 0.00014
 Cu182 Cu 0.23928 0.76090 0.00013
 C183 C 0.23572 0.73582 0.02044
 C184 C 0.26441 0.76419 -0.02017
 C185 C 0.26440 0.76422 0.02043
 C186 C 0.23572 0.73581 -0.02016
 O187 O 0.23021 0.24872 0.48522
 O188 O 0.25166 0.26986 0.51540
 O189 O 0.25158 0.26994 0.48523
 O190 O 0.23027 0.24867 0.51540
 O191 O 0.24825 0.23054 0.51533
 O192 O 0.26956 0.25181 0.48514
 O193 O 0.26964 0.25173 0.51532
 O194 O 0.24820 0.23059 0.48515
 Cu195 Cu 0.23913 0.26111 0.50032
 Cu196 Cu 0.26071 0.23935 0.50023
 C197 C 0.23556 0.23606 0.47997
 C198 C 0.26430 0.26439 0.52057
 C199 C 0.26420 0.26449 0.47997
 C200 C 0.23563 0.23598 0.52057
 O201 O 0.76922 0.74801 1.01531
 O202 O 0.74792 0.76928 0.98512
 O203 O 0.74792 0.76930 1.01530
 O204 O 0.76921 0.74800 0.98513
 O205 O 0.75116 0.72994 0.98514
 O206 O 0.72987 0.75123 1.01531
 O207 O 0.72987 0.75122 0.98514
 O208 O 0.75117 0.72995 1.01531
 Cu209 Cu 0.76038 0.76046 1.00022
 Cu210 Cu 0.73871 0.73878 1.00023
 C211 C 0.76382 0.73536 1.02052
 C212 C 0.73527 0.76387 0.97992
 C213 C 0.73528 0.76389 1.02052
 C214 C 0.76381 0.73535 0.97992
 O215 O 0.75131 0.23018 0.48491
 O216 O 0.73003 0.25147 0.51510
 O217 O 0.73009 0.25155 0.48492
 O218 O 0.75126 0.23011 0.51509
 O219 O 0.76937 0.24811 0.51517
 O220 O 0.74821 0.26954 0.48501
 O221 O 0.74814 0.26946 0.51518
 O222 O 0.76943 0.24818 0.48499
 Cu223 Cu 0.73886 0.23902 0.50000
 Cu224 Cu 0.76060 0.26063 0.50010
 C225 C 0.76399 0.23556 0.47974
 C226 C 0.73546 0.26408 0.52035
 C227 C 0.73555 0.26419 0.47975
 C228 C 0.76392 0.23546 0.52034
 O229 O 0.73053 0.24872 -0.01520
 O230 O 0.75180 0.27004 0.01496
 O231 O 0.75182 0.27001 -0.01522
 O232 O 0.73055 0.24871 0.01497
 O233 O 0.74862 0.23067 0.01497
 O234 O 0.76989 0.25197 -0.01521
 O235 O 0.76987 0.25200 0.01497
 O236 O 0.74860 0.23068 -0.01521
 Cu237 Cu 0.73936 0.26118 -0.00013
 Cu238 Cu 0.76106 0.23952 -0.00012
 C239 C 0.73594 0.23607 -0.02041
 C240 C 0.76445 0.26465 0.02018
 C241 C 0.76448 0.26461 -0.02043
 C242 C 0.73596 0.23607 0.02018
 O243 O 0.75188 0.76997 0.51484
 O244 O 0.73046 0.74882 0.48465
 O245 O 0.73046 0.74881 0.51483
 O246 O 0.75188 0.76999 0.48466
 O247 O 0.76983 0.75183 0.48466
 O248 O 0.74841 0.73065 0.51483
 O249 O 0.74841 0.73066 0.48465
 O250 O 0.76983 0.75181 0.51483
 Cu251 Cu 0.73937 0.76122 0.49975
 Cu252 Cu 0.76092 0.73942 0.49974
 C253 C 0.76450 0.76449 0.52005
 C254 C 0.73580 0.73614 0.47944
 C255 C 0.73579 0.73613 0.52004
 C256 C 0.76450 0.76451 0.47945
 O257 O 0.98489 0.25142 0.23022
 O258 O 1.01505 0.23012 0.25152
 O259 O 0.98487 0.23020 0.25159
 O260 O 1.01507 0.25134 0.23016
 O261 O 1.01515 0.26946 0.24815
 O262 O 0.98496 0.24832 0.26958
 O263 O 1.01514 0.24824 0.26952
 O264 O 0.98497 0.26954 0.24821
 Cu265 Cu 0.99996 0.23896 0.23907
 Cu266 Cu 1.00006 0.26070 0.26067
 C267 C 0.97972 0.26410 0.23559
 C268 C 1.02030 0.23556 0.26414
 C269 C 0.97970 0.23567 0.26423
 C270 C 1.02032 0.26400 0.23551
 O271 O 0.51526 0.26975 0.74876
 O272 O 0.48510 0.24840 0.77001
 O273 O 0.51528 0.24836 0.76995
 O274 O 0.48508 0.26977 0.74880
 O275 O 0.48504 0.25179 0.73067
 O276 O 0.51523 0.23038 0.75182
 O277 O 0.48505 0.23042 0.75188
 O278 O 0.51522 0.25177 0.73062
 Cu279 Cu 0.50019 0.26087 0.76119
 Cu280 Cu 0.50013 0.23929 0.73943
 C281 C 0.52045 0.26440 0.73608
 C282 C 0.47987 0.23578 0.76456
 C283 C 0.52047 0.23573 0.76448
 C284 C 0.47985 0.26443 0.73614
 O285 O 0.01500 0.24818 0.73027
 O286 O -0.01517 0.26963 0.75141
 O287 O 0.01501 0.26949 0.75154
 O288 O -0.01518 0.24831 0.73015
 O289 O -0.01533 0.23027 0.74822
 O290 O 0.01485 0.25146 0.76961
 O291 O -0.01532 0.25159 0.76949
 O292 O 0.01485 0.23015 0.74835
 Cu293 Cu -0.00007 0.26071 0.73903
 Cu294 Cu -0.00025 0.23906 0.76073
 C295 C 0.02014 0.23551 0.73571
 C296 C -0.02046 0.26426 0.76405
 C297 C 0.02014 0.26408 0.76422
 C298 C -0.02047 0.23569 0.73555
 O299 O 0.51511 0.25153 0.26960
 O300 O 0.48494 0.23035 0.24818
 O301 O 0.51512 0.23037 0.24817
 O302 O 0.48493 0.25150 0.26961
 O303 O 0.48491 0.26967 0.25168
 O304 O 0.51510 0.24854 0.23023
 O305 O 0.48492 0.24852 0.23025
 O306 O 0.51509 0.26970 0.25166
 Cu307 Cu 0.50003 0.23912 0.26069
 Cu308 Cu 0.50000 0.26093 0.23916
 C309 C 0.52031 0.26422 0.26427
 C310 C 0.47972 0.23583 0.23557
 C311 C 0.52032 0.23586 0.23556
 C312 C 0.47971 0.26418 0.26429
 O313 O 1.01500 0.73015 0.75170
 O314 O 0.98483 0.75152 0.73048
 O315 O 1.01501 0.75140 0.73037
 O316 O 0.98483 0.73028 0.75182
 O317 O 0.98497 0.74837 0.76984
 O318 O 1.01516 0.76949 0.74838
 O319 O 0.98498 0.76962 0.74850
 O320 O 1.01515 0.74825 0.76972
 Cu321 Cu 0.99990 0.73903 0.73929
 Cu322 Cu 1.00008 0.76075 0.76091
 C323 C 1.02029 0.73556 0.76432
 C324 C 0.97970 0.76421 0.73588
 C325 C 1.02029 0.76404 0.73572
 C326 C 0.97969 0.73573 0.76448
 O327 O 0.48477 0.74856 0.26996
 O328 O 0.51494 0.76990 0.24870
 O329 O 0.48476 0.76994 0.24875
 O330 O 0.51495 0.74851 0.26989
 O331 O 0.51489 0.73053 0.25176
 O332 O 0.48470 0.75196 0.23062
 O333 O 0.51488 0.75192 0.23057
 O334 O 0.48471 0.73059 0.25183
 Cu335 Cu 0.49986 0.76103 0.26114
 Cu336 Cu 0.49979 0.73945 0.23938
 C337 C 0.47953 0.73595 0.26451
 C338 C 0.52012 0.76454 0.23602
 C339 C 0.47952 0.76459 0.23609
 C340 C 0.52013 0.73588 0.26442
 O341 O -0.01485 0.76980 0.25151
 O342 O 0.01531 0.74834 0.23037
 O343 O -0.01486 0.74848 0.23024
 O344 O 0.01532 0.76966 0.25164
 O345 O 0.01516 0.75162 0.26972
 O346 O -0.01502 0.73045 0.24832
 O347 O 0.01515 0.73031 0.24845
 O348 O -0.01502 0.75177 0.26958
 Cu349 Cu 0.00025 0.76088 0.23913
 Cu350 Cu 0.00005 0.73923 0.26083
 C351 C -0.02014 0.76443 0.26414
 C352 C 0.02044 0.73567 0.23582
 C353 C -0.02016 0.73586 0.23564
 C354 C 0.02045 0.76424 0.26432
 O355 O 0.51504 0.75175 0.76943
 O356 O 0.48487 0.73046 0.74812
 O357 O 0.51505 0.73042 0.74817
 O358 O 0.48486 0.75177 0.76939
 O359 O 0.48490 0.76980 0.75132
 O360 O 0.51509 0.74846 0.73009
 O361 O 0.48491 0.74849 0.73004
 O362 O 0.51508 0.76978 0.75135
 Cu363 Cu 0.49995 0.73929 0.76059
 Cu364 Cu 0.50000 0.76094 0.73889
 C365 C 0.52027 0.76439 0.76401
 C366 C 0.47968 0.73585 0.73546
 C367 C 0.52028 0.73581 0.73552
 C368 C 0.47967 0.76442 0.76397
 C369 C 0.38273 0.33872 0.32499
 C370 C 0.38349 0.32259 0.32363
 C371 C 0.37131 0.31345 0.32917
 C372 C 0.35838 0.32040 0.33598
 C373 C 0.35748 0.33660 0.33733
 C374 C 0.36981 0.34569 0.33181
 C375 C 0.39663 0.31540 0.31632
 C376 C 0.40751 0.30928 0.31009
 C377 C 0.42013 0.30200 0.30269
 C378 C 0.43078 0.29567 0.29627
 C379 C 0.44336 0.28801 0.28848
 C380 C 0.44940 0.27421 0.29445
 C381 C 0.46133 0.26652 0.28666
 C382 C 0.46737 0.27254 0.27277
 C383 C 0.46130 0.28649 0.26694
 C384 C 0.44937 0.29416 0.27475
 H385 H 0.39209 0.34591 0.32074
 H386 H 0.37176 0.30096 0.32812
 H387 H 0.34898 0.31317 0.34001
 H388 H 0.36939 0.35818 0.33281
 H389 H 0.44482 0.26933 0.30506
 H390 H 0.46574 0.25581 0.29146
 H391 H 0.46569 0.29143 0.25629
 H392 H 0.44477 0.30482 0.27002
 C393 C 0.37122 0.82894 0.81357
 C394 C 0.38345 0.82345 0.82268
 C395 C 0.38274 0.82484 0.83881
 C396 C 0.36982 0.83163 0.84581
 C397 C 0.35745 0.83711 0.83675
 C398 C 0.35830 0.83573 0.82055
 C399 C 0.39658 0.81617 0.81545
 C400 C 0.40747 0.80998 0.80930
 C401 C 0.42008 0.80262 0.80197
 C402 C 0.43074 0.79623 0.79562
 C403 C 0.44332 0.78848 0.78791
 C404 C 0.44933 0.77472 0.79399
 C405 C 0.46126 0.76695 0.78629
 C406 C 0.46733 0.77286 0.77236
 C407 C 0.46129 0.78677 0.76641
 C408 C 0.44936 0.79452 0.77414
 H409 H 0.37163 0.82788 0.80107
 H410 H 0.39213 0.82062 0.84597
 H411 H 0.36945 0.83265 0.85830
 H412 H 0.34886 0.83973 0.81334
 H413 H 0.44472 0.76993 0.80463
 H414 H 0.46564 0.75627 0.79117
 H415 H 0.46570 0.79163 0.75573
 H416 H 0.44478 0.80515 0.76932
 C417 C -0.11732 0.32515 0.83860
 C418 C -0.11659 0.32373 0.82247
 C419 C -0.12878 0.32924 0.81333
 C420 C -0.14169 0.33609 0.82028
 C421 C -0.14256 0.33749 0.83648
 C422 C -0.13022 0.33200 0.84557
 C423 C -0.10346 0.31639 0.81529
 C424 C -0.09259 0.31014 0.80916
 C425 C -0.07999 0.30272 0.80188
 C426 C -0.06934 0.29628 0.79555
 C427 C -0.05678 0.28848 0.78788
 C428 C -0.05067 0.29449 0.77414
 C429 C -0.03875 0.28669 0.76644
 C430 C -0.03279 0.27275 0.77241
 C431 C -0.03892 0.26687 0.78631
 C432 C -0.05084 0.27469 0.79398
 H433 H -0.10795 0.32092 0.84579
 H434 H -0.12836 0.32816 0.80084
 H435 H -0.15111 0.34010 0.81305
 H436 H -0.13061 0.33304 0.85806
 H437 H -0.05519 0.30514 0.76930
 H438 H -0.03429 0.29153 0.75577
 H439 H -0.03460 0.25617 0.79121
 H440 H -0.05550 0.26992 0.80461
 C441 C -0.12856 0.82931 0.31335
 C442 C -0.11637 0.82381 0.32250
 C443 C -0.11711 0.82522 0.33863
 C444 C -0.13004 0.83204 0.34559
 C445 C -0.14238 0.83751 0.33649
 C446 C -0.14149 0.83612 0.32029
 C447 C -0.10323 0.81650 0.31532
 C448 C -0.09234 0.81027 0.30921
 C449 C -0.07972 0.80286 0.30193
 C450 C -0.06906 0.79643 0.29562
 C451 C -0.05648 0.78864 0.28796
 C452 C -0.05055 0.77486 0.29406
 C453 C -0.03862 0.76704 0.28640
 C454 C -0.03248 0.77292 0.27250
 C455 C -0.03844 0.78686 0.26653
 C456 C -0.05037 0.79465 0.27421
 H457 H -0.12812 0.82823 0.30086
 H458 H -0.10774 0.82101 0.34582
 H459 H -0.13045 0.83307 0.35807
 H460 H -0.15091 0.84011 0.31305
 H461 H -0.05522 0.77009 0.30468
 H462 H -0.03430 0.75634 0.29130
 H463 H -0.03398 0.79170 0.25586
 H464 H -0.05489 0.80531 0.26938
 C465 C 0.62860 0.67106 0.31359
 C466 C 0.61642 0.67658 0.32275
 C467 C 0.61720 0.67520 0.33888
 C468 C 0.63014 0.66840 0.34583
 C469 C 0.64246 0.66290 0.33672
 C470 C 0.64154 0.66426 0.32053
 C471 C 0.60328 0.68388 0.31558
 C472 C 0.59238 0.69011 0.30947
 C473 C 0.57975 0.69751 0.30220
 C474 C 0.56909 0.70393 0.29589
 C475 C 0.55650 0.71171 0.28824
 C476 C 0.55051 0.72546 0.29437
 C477 C 0.53858 0.73326 0.28671
 C478 C 0.53248 0.72740 0.27278
 C479 C 0.53849 0.71350 0.26678
 C480 C 0.55042 0.70572 0.27446
 H481 H 0.62814 0.67211 0.30110
 H482 H 0.60784 0.67944 0.34608
 H483 H 0.63057 0.66740 0.35832
 H484 H 0.65095 0.66024 0.31328
 H485 H 0.55515 0.73021 0.30501
 H486 H 0.53421 0.74393 0.29163
 H487 H 0.53406 0.70868 0.25609
 H488 H 0.55499 0.69509 0.26960
 C489 C 0.62890 0.17088 0.81372
 C490 C 0.61673 0.17643 0.82287
 C491 C 0.61749 0.17506 0.83900
 C492 C 0.63042 0.16825 0.84597
 C493 C 0.64274 0.16273 0.83686
 C494 C 0.64183 0.16408 0.82067
 C495 C 0.60359 0.18374 0.81569
 C496 C 0.59270 0.18996 0.80957
 C497 C 0.58008 0.19737 0.80229
 C498 C 0.56942 0.20379 0.79598
 C499 C 0.55683 0.21157 0.78831
 C500 C 0.55084 0.22531 0.79444
 C501 C 0.53891 0.23312 0.78677
 C502 C 0.53281 0.22726 0.77284
 C503 C 0.53883 0.21335 0.76684
 C504 C 0.55077 0.20558 0.77453
 H505 H 0.62845 0.17193 0.80123
 H506 H 0.60814 0.17931 0.84619
 H507 H 0.63084 0.16725 0.85845
 H508 H 0.65124 0.16004 0.81343
 H509 H 0.55547 0.23007 0.80509
 H510 H 0.53454 0.24378 0.79170
 H511 H 0.53441 0.20853 0.75615
 H512 H 0.55534 0.19495 0.76968
 C513 C 1.12871 0.67091 0.81379
 C514 C 1.11651 0.67642 0.82292
 C515 C 1.11725 0.67504 0.83905
 C516 C 1.13018 0.66824 0.84603
 C517 C 1.14252 0.66274 0.83695
 C518 C 1.14164 0.66411 0.82075
 C519 C 1.10337 0.68371 0.81571
 C520 C 1.09248 0.68992 0.80958
 C521 C 1.07987 0.69730 0.80227
 C522 C 1.06921 0.70370 0.79593
 C523 C 1.05663 0.71146 0.78824
 C524 C 1.05068 0.72526 0.79429
 C525 C 1.03875 0.73304 0.78660
 C526 C 1.03262 0.72711 0.77271
 C527 C 1.03860 0.71315 0.76679
 C528 C 1.05052 0.70540 0.77451
 H529 H 1.12828 0.67196 0.80129
 H530 H 1.10788 0.67928 0.84623
 H531 H 1.13057 0.66723 0.85852
 H532 H 1.15106 0.66009 0.81353
 H533 H 1.05534 0.73007 0.80490
 H534 H 1.03442 0.74376 0.79146
 H535 H 1.03414 0.70828 0.75614
 H536 H 1.05506 0.69473 0.76971
 C537 C 1.12872 0.17107 0.31382
 C538 C 1.11651 0.17658 0.32293
 C539 C 1.11723 0.17520 0.33907
 C540 C 1.13015 0.16841 0.34607
 C541 C 1.14251 0.16293 0.33700
 C542 C 1.14165 0.16429 0.32080
 C543 C 1.10337 0.18385 0.31571
 C544 C 1.09248 0.19005 0.30956
 C545 C 1.07987 0.19741 0.30223
 C546 C 1.06922 0.20380 0.29587
 C547 C 1.05664 0.21153 0.28815
 C548 C 1.05067 0.22534 0.29417
 C549 C 1.03874 0.23309 0.28645
 C550 C 1.03264 0.22714 0.27256
 C551 C 1.03863 0.21318 0.26667
 C552 C 1.05056 0.20544 0.27442
 H553 H 1.12831 0.17212 0.30133
 H554 H 1.10784 0.17943 0.34623
 H555 H 1.13053 0.16741 0.35856
 H556 H 1.15108 0.16028 0.31359
 H557 H 1.05530 0.23016 0.30478
 H558 H 1.03439 0.24381 0.29129
 H559 H 1.03420 0.20828 0.25602
 H560 H 1.05511 0.19477 0.26965
 C561 C 0.62876 0.32915 0.68648
 C562 C 0.61656 0.32361 0.67737
 C563 C 0.61729 0.32498 0.66123
 C564 C 0.63019 0.33180 0.65424
 C565 C 0.64253 0.33732 0.66331
 C566 C 0.64167 0.33597 0.67951
 C567 C 0.60344 0.31630 0.68458
 C568 C 0.59257 0.31008 0.69073
 C569 C 0.57997 0.30268 0.69805
 C570 C 0.56933 0.29627 0.70440
 C571 C 0.55676 0.28850 0.71211
 C572 C 0.55073 0.27476 0.70601
 C573 C 0.53881 0.26698 0.71372
 C574 C 0.53278 0.27285 0.72767
 C575 C 0.53884 0.28674 0.73365
 C576 C 0.55075 0.29450 0.72591
 H577 H 0.62834 0.32811 0.69898
 H578 H 0.60791 0.32073 0.65407
 H579 H 0.63058 0.33280 0.64175
 H580 H 0.65109 0.34000 0.68672
 H581 H 0.55531 0.27001 0.69534
 H582 H 0.53441 0.25632 0.70881
 H583 H 0.53446 0.29157 0.74436
 H584 H 0.55536 0.30512 0.73075
 C585 C 0.62853 0.82918 0.18652
 C586 C 0.61634 0.82365 0.17738
 C587 C 0.61709 0.82501 0.16125
 C588 C 0.63001 0.83182 0.15427
 C589 C 0.64235 0.83733 0.16336
 C590 C 0.64146 0.83598 0.17956
 C591 C 0.60320 0.81635 0.18458
 C592 C 0.59231 0.81015 0.19072
 C593 C 0.57970 0.80276 0.19802
 C594 C 0.56904 0.79637 0.20437
 C595 C 0.55646 0.78862 0.21207
 C596 C 0.55042 0.77488 0.20596
 C597 C 0.53849 0.76711 0.21367
 C598 C 0.53245 0.77299 0.22762
 C599 C 0.53852 0.78688 0.23360
 C600 C 0.55045 0.79462 0.22586
 H601 H 0.62809 0.82813 0.19901
 H602 H 0.60772 0.82077 0.15407
 H603 H 0.63042 0.83282 0.14178
 H604 H 0.65088 0.84000 0.18678
 H605 H 0.55500 0.77012 0.19530
 H606 H 0.53408 0.75645 0.20876
 H607 H 0.53415 0.79171 0.24430
 H608 H 0.55506 0.80524 0.23071
 C609 C 1.11729 0.33860 0.17487
 C610 C 1.11655 0.32247 0.17626
 C611 C 1.12875 0.31333 0.17074
 C612 C 1.14168 0.32029 0.16394
 C613 C 1.14256 0.33649 0.16257
 C614 C 1.13022 0.34558 0.16806
 C615 C 1.10341 0.31527 0.18355
 C616 C 1.09253 0.30914 0.18977
 C617 C 1.07991 0.30184 0.19716
 C618 C 1.06925 0.29552 0.20357
 C619 C 1.05667 0.28784 0.21135
 C620 C 1.05060 0.27407 0.20535
 C621 C 1.03867 0.26637 0.21313
 C622 C 1.03266 0.27236 0.22704
 C623 C 1.03875 0.28629 0.23290
 C624 C 1.05068 0.29396 0.22510
 H625 H 1.10792 0.34578 0.17910
 H626 H 1.12832 0.30084 0.17180
 H627 H 1.15110 0.31307 0.15993
 H628 H 1.13062 0.35806 0.16705
 H629 H 1.05517 0.26922 0.19472
 H630 H 1.03425 0.25568 0.20830
 H631 H 1.03439 0.29121 0.24358
 H632 H 1.05531 0.30461 0.22986
 C633 C 1.11722 0.83859 0.67497
 C634 C 1.11650 0.82246 0.67636
 C635 C 1.12870 0.81333 0.67086
 C636 C 1.14163 0.82030 0.66406
 C637 C 1.14250 0.83649 0.66269
 C638 C 1.13015 0.84557 0.66817
 C639 C 1.10336 0.81525 0.68367
 C640 C 1.09248 0.80913 0.68989
 C641 C 1.07987 0.80184 0.69730
 C642 C 1.06922 0.79551 0.70372
 C643 C 1.05664 0.78785 0.71152
 C644 C 1.05054 0.77410 0.70552
 C645 C 1.03861 0.76641 0.71331
 C646 C 1.03263 0.77239 0.72724
 C647 C 1.03876 0.78630 0.73311
 C648 C 1.05069 0.79396 0.72529
 H649 H 1.10784 0.84576 0.67919
 H650 H 1.12828 0.80084 0.67193
 H651 H 1.15106 0.81308 0.66006
 H652 H 1.13053 0.85806 0.66715
 H653 H 1.05507 0.76925 0.69487
 H654 H 1.03415 0.75573 0.70848
 H655 H 1.03443 0.79121 0.74380
 H656 H 1.05535 0.80459 0.73005
 C657 C 0.37125 0.68625 0.67092
 C658 C 0.38345 0.67713 0.67645
 C659 C 0.38272 0.66099 0.67509
 C660 C 0.36979 0.65400 0.66830
 C661 C 0.35744 0.66307 0.66280
 C662 C 0.35832 0.67928 0.66414
 C663 C 0.39659 0.68434 0.68373
 C664 C 0.40748 0.69049 0.68992
 C665 C 0.42010 0.69780 0.69729
 C666 C 0.43076 0.70416 0.70368
 C667 C 0.44334 0.71187 0.71142
 C668 C 0.44933 0.70582 0.72520
 C669 C 0.46126 0.71354 0.73296
 C670 C 0.46734 0.72744 0.72703
 C671 C 0.46132 0.73336 0.71309
 C672 C 0.44940 0.72562 0.70535
 H673 H 0.37168 0.69874 0.67196
 H674 H 0.39210 0.65383 0.67933
 H675 H 0.36940 0.64151 0.66730
 H676 H 0.34889 0.68649 0.66012
 H677 H 0.44471 0.69520 0.73001
 H678 H 0.46563 0.70867 0.74366
 H679 H 0.46574 0.74403 0.70821
 H680 H 0.44482 0.73041 0.69470
 C681 C 0.38276 0.16116 0.17501
 C682 C 0.38350 0.17729 0.17636
 C683 C 0.37131 0.18642 0.17082
 C684 C 0.35838 0.17945 0.16403
 C685 C 0.35749 0.16325 0.16270
 C686 C 0.36983 0.15417 0.16821
 C687 C 0.39664 0.18450 0.18365
 C688 C 0.40753 0.19063 0.18986
 C689 C 0.42014 0.19793 0.19724
 C690 C 0.43080 0.20427 0.20365
 C691 C 0.44338 0.21195 0.21142
 C692 C 0.44939 0.22576 0.20545
 C693 C 0.46132 0.23347 0.21322
 C694 C 0.46738 0.22746 0.22710
 C695 C 0.46134 0.21350 0.23294
 C696 C 0.44942 0.20581 0.22514
 H697 H 0.39213 0.15398 0.17925
 H698 H 0.37175 0.19891 0.17185
 H699 H 0.34896 0.18667 0.16001
 H700 H 0.36943 0.14168 0.16722
 H701 H 0.44479 0.23063 0.19485
 H702 H 0.46571 0.24419 0.20842
 H703 H 0.46575 0.20856 0.24359
 H704 H 0.44483 0.19514 0.22988
 C705 C -0.11715 0.66120 0.17512
 C706 C -0.11642 0.67734 0.17650
 C707 C -0.12864 0.68646 0.17101
 C708 C -0.14158 0.67948 0.16424
 C709 C -0.14245 0.66328 0.16288
 C710 C -0.13009 0.65421 0.16835
 C711 C -0.10328 0.68455 0.18377
 C712 C -0.09239 0.69069 0.18997
 C713 C -0.07977 0.69799 0.19735
 C714 C -0.06910 0.70432 0.20375
 C715 C -0.05652 0.71200 0.21151
 C716 C -0.05040 0.72573 0.20547
 C717 C -0.03847 0.73343 0.21323
 C718 C -0.03250 0.72749 0.22718
 C719 C -0.03864 0.71360 0.23310
 C720 C -0.05057 0.70592 0.22531
 H721 H -0.10776 0.65403 0.17934
 H722 H -0.12822 0.69895 0.17206
 H723 H -0.15102 0.68670 0.16025
 H724 H -0.13047 0.64172 0.16734
 H725 H -0.05494 0.73054 0.19480
 H726 H -0.03401 0.74409 0.20837
 H727 H -0.03431 0.70872 0.24380
 H728 H -0.05524 0.69531 0.23010
 C729 C -0.12891 0.18624 0.67088
 C730 C -0.11670 0.17712 0.67639
 C731 C -0.11743 0.16099 0.67501
 C732 C -0.13035 0.15399 0.66822
 C733 C -0.14271 0.16307 0.66273
 C734 C -0.14184 0.17927 0.66410
 C735 C -0.10356 0.18433 0.68367
 C736 C -0.09267 0.19047 0.68987
 C737 C -0.08006 0.19778 0.69725
 C738 C -0.06940 0.20412 0.70366
 C739 C -0.05682 0.21180 0.71142
 C740 C -0.05087 0.20573 0.72522
 C741 C -0.03894 0.21342 0.73301
 C742 C -0.03281 0.22731 0.72709
 C743 C -0.03878 0.23324 0.71314
 C744 C -0.05071 0.22553 0.70537
 H745 H -0.12849 0.19873 0.67194
 H746 H -0.10804 0.15382 0.67923
 H747 H -0.13074 0.14151 0.66721
 H748 H -0.15127 0.18648 0.66009
 H749 H -0.05553 0.19512 0.73002
 H750 H -0.03461 0.20854 0.74371
 H751 H -0.03432 0.24390 0.70827
 H752 H -0.05524 0.23034 0.69471
 C753 C 0.32489 0.38254 0.33892
 C754 C 0.32348 0.38325 0.32278
 C755 C 0.32900 0.37105 0.31367
 C756 C 0.33582 0.35814 0.32064
 C757 C 0.33721 0.35729 0.33684
 C758 C 0.33172 0.36964 0.34591
 C759 C 0.31618 0.39638 0.31557
 C760 C 0.30996 0.40725 0.30942
 C761 C 0.30258 0.41986 0.30210
 C762 C 0.29618 0.43050 0.29574
 C763 C 0.28844 0.44308 0.28801
 C764 C 0.29447 0.44908 0.27423
 C765 C 0.28674 0.46100 0.26647
 C766 C 0.27283 0.46707 0.27242
 C767 C 0.26693 0.46104 0.28636
 C768 C 0.27469 0.44912 0.29408
 H769 H 0.32066 0.39193 0.34608
 H770 H 0.32792 0.37145 0.30118
 H771 H 0.33983 0.34871 0.31343
 H772 H 0.33275 0.36926 0.35840
 H773 H 0.30510 0.44447 0.26941
 H774 H 0.29160 0.46538 0.25578
 H775 H 0.25626 0.46545 0.29124
 H776 H 0.26990 0.44454 0.30474
 C777 C 0.33882 -0.11740 0.82493
 C778 C 0.32269 -0.11667 0.82356
 C779 C 0.31356 -0.12887 0.82909
 C780 C 0.32054 -0.14178 0.83590
 C781 C 0.33674 -0.14266 0.83725
 C782 C 0.34581 -0.13031 0.83175
 C783 C 0.31548 -0.10354 0.81625
 C784 C 0.30934 -0.09266 0.81003
 C785 C 0.30204 -0.08006 0.80262
 C786 C 0.29570 -0.06941 0.79620
 C787 C 0.28801 -0.05684 0.78842
 C788 C 0.27427 -0.05074 0.79446
 C789 C 0.26656 -0.03882 0.78668
 C790 C 0.27250 -0.03285 0.77273
 C791 C 0.28640 -0.03898 0.76683
 C792 C 0.29408 -0.05090 0.77463
 H793 H 0.34599 -0.10802 0.82069
 H794 H 0.30107 -0.12844 0.82804
 H795 H 0.31332 -0.15121 0.83992
 H796 H 0.35830 -0.13070 0.83275
 H797 H 0.26946 -0.05527 0.80512
 H798 H 0.25590 -0.03437 0.79154
 H799 H 0.29128 -0.03465 0.75612
 H800 H 0.30470 -0.05556 0.76984
 C801 C 0.83890 0.38301 0.82458
 C802 C 0.82277 0.38378 0.82320
 C803 C 0.81362 0.37160 0.82874
 C804 C 0.82056 0.35868 0.83556
 C805 C 0.83676 0.35777 0.83693
 C806 C 0.84586 0.37009 0.83141
 C807 C 0.81559 0.39691 0.81589
 C808 C 0.80947 0.40780 0.80966
 C809 C 0.80219 0.42042 0.80226
 C810 C 0.79586 0.43107 0.79585
 C811 C 0.78818 0.44366 0.78807
 C812 C 0.77441 0.44972 0.79408
 C813 C 0.76671 0.46165 0.78631
 C814 C 0.77268 0.46766 0.77239
 C815 C 0.78661 0.46157 0.76652
 C816 C 0.79429 0.44964 0.77431
 H817 H 0.84610 0.39237 0.82033
 H818 H 0.80113 0.37205 0.82768
 H819 H 0.81332 0.34927 0.83959
 H820 H 0.85835 0.36967 0.83242
 H821 H 0.76957 0.44515 0.80472
 H822 H 0.75602 0.46607 0.79114
 H823 H 0.79151 0.46593 0.75584
 H824 H 0.80493 0.44502 0.76955
 C825 C 0.83900 -0.11700 0.32461
 C826 C 0.82287 -0.11627 0.32320
 C827 C 0.81374 -0.12847 0.32872
 C828 C 0.82069 -0.14138 0.33555
 C829 C 0.83689 -0.14226 0.33693
 C830 C 0.84598 -0.12992 0.33143
 C831 C 0.81567 -0.10314 0.31589
 C832 C 0.80954 -0.09226 0.30967
 C833 C 0.80223 -0.07965 0.30227
 C834 C 0.79588 -0.06900 0.29587
 C835 C 0.78817 -0.05643 0.28812
 C836 C 0.77442 -0.05038 0.29417
 C837 C 0.76667 -0.03845 0.28643
 C838 C 0.77260 -0.03243 0.27250
 C839 C 0.78651 -0.03850 0.26658
 C840 C 0.79423 -0.05043 0.27434
 H841 H 0.84618 -0.10763 0.32037
 H842 H 0.80125 -0.12804 0.32765
 H843 H 0.81347 -0.15080 0.33956
 H844 H 0.85847 -0.13031 0.33246
 H845 H 0.76961 -0.05495 0.30482
 H846 H 0.75600 -0.03404 0.29130
 H847 H 0.79138 -0.03413 0.25589
 H848 H 0.80486 -0.05504 0.26954
 C849 C 0.32492 0.61708 0.66128
 C850 C 0.32354 0.61638 0.67741
 C851 C 0.32905 0.62860 0.68652
 C852 C 0.33584 0.64151 0.67953
 C853 C 0.33721 0.64236 0.66333
 C854 C 0.33172 0.62999 0.65427
 C855 C 0.31624 0.60325 0.68464
 C856 C 0.31003 0.59238 0.69080
 C857 C 0.30264 0.57977 0.69811
 C858 C 0.29622 0.56913 0.70446
 C859 C 0.28844 0.55656 0.71215
 C860 C 0.29446 0.55047 0.72590
 C861 C 0.28669 0.53855 0.73361
 C862 C 0.27275 0.53257 0.72765
 C863 C 0.26686 0.53868 0.71374
 C864 C 0.27466 0.55060 0.70606
 H865 H 0.32069 0.60769 0.65412
 H866 H 0.32799 0.62819 0.69901
 H867 H 0.33985 0.65095 0.68673
 H868 H 0.33273 0.63036 0.64178
 H869 H 0.30511 0.55502 0.73073
 H870 H 0.29153 0.53411 0.74429
 H871 H 0.25616 0.53434 0.70885
 H872 H 0.26989 0.55524 0.69543
 C873 C 0.32905 1.12880 0.18642
 C874 C 0.32353 1.11659 0.17732
 C875 C 0.32492 1.11728 0.16118
 C876 C 0.33174 1.13018 0.15417
 C877 C 0.33724 1.14255 0.16323
 C878 C 0.33586 1.14171 0.17943
 C879 C 0.31623 1.10347 0.18455
 C880 C 0.31000 1.09260 0.19070
 C881 C 0.30260 1.08001 0.19802
 C882 C 0.29618 1.06937 0.20437
 C883 C 0.28840 1.05680 0.21208
 C884 C 0.27460 1.05086 0.20602
 C885 C 0.26681 1.03895 0.21372
 C886 C 0.27272 1.03282 0.22761
 C887 C 0.28668 1.03879 0.23354
 C888 C 0.29445 1.05071 0.22581
 H889 H 0.32799 1.12841 0.19891
 H890 H 0.32069 1.10789 0.15403
 H891 H 0.33276 1.13055 0.14169
 H892 H 0.33988 1.15115 0.18663
 H893 H 0.26981 1.05552 0.19540
 H894 H 0.25609 1.03462 0.20885
 H895 H 0.29155 1.03434 0.24420
 H896 H 0.30512 1.05524 0.23062
 C897 C 0.82505 0.61727 0.16138
 C898 C 0.82369 0.61655 0.17752
 C899 C 0.82922 0.62876 0.18662
 C900 C 0.83599 0.64169 0.17963
 C901 C 0.83733 0.64255 0.16343
 C902 C 0.83183 0.63019 0.15437
 C903 C 0.81642 0.60342 0.18475
 C904 C 0.81022 0.59253 0.19090
 C905 C 0.80284 0.57992 0.19822
 C906 C 0.79644 0.56927 0.20456
 C907 C 0.78867 0.55669 0.21225
 C908 C 0.79466 0.55064 0.22603
 C909 C 0.78689 0.53872 0.23374
 C910 C 0.77298 0.53269 0.22775
 C911 C 0.76712 0.53877 0.21381
 C912 C 0.77492 0.55069 0.20613
 H913 H 0.82081 0.60788 0.15422
 H914 H 0.82819 0.62835 0.19912
 H915 H 0.84001 0.65112 0.18684
 H916 H 0.83281 0.63057 0.14188
 H917 H 0.80529 0.55522 0.23088
 H918 H 0.79171 0.53430 0.24443
 H919 H 0.75645 0.53439 0.20889
 H920 H 0.77016 0.55531 0.19548
 C921 C 0.82892 1.12853 0.68641
 C922 C 0.82340 1.11633 0.67728
 C923 C 0.82478 1.11706 0.66115
 C924 C 0.83158 1.12998 0.65416
 C925 C 0.83707 1.14233 0.66324
 C926 C 0.83571 1.14146 0.67944
 C927 C 0.81612 1.10319 0.68449
 C928 C 0.80992 1.09230 0.69064
 C929 C 0.80255 1.07969 0.69795
 C930 C 0.79616 1.06903 0.70431
 C931 C 0.78842 1.05645 0.71202
 C932 C 0.77462 1.05047 0.70600
 C933 C 0.76687 1.03854 0.71372
 C934 C 0.77283 1.03244 0.72761
 C935 C 0.78678 1.03845 0.73350
 C936 C 0.79451 1.05037 0.72575
 H937 H 0.82787 1.12811 0.69890
 H938 H 0.82055 1.10768 0.65398
 H939 H 0.83258 1.13037 0.64167
 H940 H 0.83972 1.15089 0.68666
 H941 H 0.76980 1.05510 0.69539
 H942 H 0.75616 1.03418 0.70888
 H943 H 0.79168 1.03401 0.74416
 H944 H 0.80518 1.05493 0.73053
 C945 C 0.66107 0.61739 0.32492
 C946 C 0.67720 0.61665 0.32351
 C947 C 0.68634 0.62886 0.32898
 C948 C 0.67939 0.64179 0.33578
 C949 C 0.66319 0.64267 0.33718
 C950 C 0.65410 0.63032 0.33172
 C951 C 0.68439 0.60350 0.31622
 C952 C 0.69052 0.59260 0.31003
 C953 C 0.69782 0.57998 0.30266
 C954 C 0.70417 0.56931 0.29628
 C955 C 0.71188 0.55672 0.28856
 C956 C 0.72560 0.55064 0.29465
 C957 C 0.73335 0.53870 0.28693
 C958 C 0.72746 0.53270 0.27297
 C959 C 0.71358 0.53881 0.26701
 C960 C 0.70586 0.55075 0.27476
 H961 H 0.65388 0.60800 0.32072
 H962 H 0.69883 0.62843 0.32790
 H963 H 0.68662 0.65123 0.33976
 H964 H 0.64161 0.63071 0.33276
 H965 H 0.73038 0.55520 0.30532
 H966 H 0.74400 0.53427 0.29183
 H967 H 0.70874 0.53446 0.25629
 H968 H 0.69526 0.55539 0.26992
 C969 C 0.68661 1.12865 0.82917
 C970 C 0.67746 1.11644 0.82369
 C971 C 0.66133 1.11719 0.82510
 C972 C 0.65436 1.13013 0.83188
 C973 C 0.66346 1.14248 0.83733
 C974 C 0.67966 1.14160 0.83594
 C975 C 0.68465 1.10328 0.81643
 C976 C 0.69078 1.09238 0.81024
 C977 C 0.69808 1.07974 0.80288
 C978 C 0.70441 1.06907 0.79650
 C979 C 0.71208 1.05648 0.78875
 C980 C 0.72586 1.05043 0.79476
 C981 C 0.73356 1.03849 0.78700
 C982 C 0.72758 1.03245 0.77310
 C983 C 0.71365 1.03853 0.76722
 C984 C 0.70597 1.05046 0.77500
 H985 H 0.69910 1.12822 0.82809
 H986 H 0.65415 1.10780 0.82090
 H987 H 0.64188 1.13053 0.83291
 H988 H 0.68689 1.15103 0.83992
 H989 H 0.73071 1.05501 0.80538
 H990 H 0.74426 1.03407 0.79183
 H991 H 0.70874 1.03414 0.75655
 H992 H 0.69532 1.05508 0.77024
 C993 C 0.18637 0.62868 0.82925
 C994 C 0.17723 0.61648 0.82375
 C995 C 0.16110 0.61722 0.82515
 C996 C 0.15413 0.63015 0.83196
 C997 C 0.16323 0.64249 0.83744
 C998 C 0.17942 0.64161 0.83606
 C999 C 0.18442 0.60334 0.81645
 C1000 C 0.19054 0.59244 0.81024
 C1001 C 0.19783 0.57983 0.80285
 C1002 C 0.20416 0.56917 0.79644
 C1003 C 0.21184 0.55658 0.78867
 C1004 C 0.20577 0.55063 0.77488
 C1005 C 0.21345 0.53870 0.76709
 C1006 C 0.22734 0.53257 0.77300
 C1007 C 0.23328 0.53855 0.78695
 C1008 C 0.22557 0.55048 0.79472
 H1009 H 0.19887 0.62824 0.82819
 H1010 H 0.15392 0.60785 0.82093
 H1011 H 0.14165 0.63055 0.83298
 H1012 H 0.18665 0.65103 0.84006
 H1013 H 0.19515 0.55529 0.77008
 H1014 H 0.20857 0.53437 0.75638
 H1015 H 0.24394 0.53409 0.79182
 H1016 H 0.23039 0.55501 0.80538
 C1017 C 0.18641 1.12891 0.32938
 C1018 C 0.17729 1.11670 0.32387
 C1019 C 0.16116 1.11743 0.32525
 C1020 C 0.15416 1.13035 0.33204
 C1021 C 0.16324 1.14270 0.33753
 C1022 C 0.17944 1.14183 0.33617
 C1023 C 0.18450 1.10356 0.31658
 C1024 C 0.19064 1.09268 0.31036
 C1025 C 0.19793 1.08007 0.30296
 C1026 C 0.20426 1.06941 0.29655
 C1027 C 0.21193 1.05683 0.28876
 C1028 C 0.20583 1.05088 0.27498
 C1029 C 0.21350 1.03896 0.26717
 C1030 C 0.22740 1.03283 0.27305
 C1031 C 0.23337 1.03881 0.28699
 C1032 C 0.22568 1.05074 0.29477
 H1033 H 0.19890 1.12849 0.32833
 H1034 H 0.15399 1.10804 0.32102
 H1035 H 0.14168 1.13074 0.33305
 H1036 H 0.18666 1.15127 0.34018
 H1037 H 0.19520 1.05554 0.27021
 H1038 H 0.20859 1.03462 0.25648
 H1039 H 0.24405 1.03436 0.29183
 H1040 H 0.23052 1.05527 0.30542
 C1041 C 0.68637 0.37144 0.67091
 C1042 C 0.67723 0.38363 0.67641
 C1043 C 0.66110 0.38287 0.67504
 C1044 C 0.65413 0.36993 0.66826
 C1045 C 0.66323 0.35759 0.66278
 C1046 C 0.67943 0.35849 0.66414
 C1047 C 0.68442 0.39680 0.68368
 C1048 C 0.69055 0.40770 0.68986
 C1049 C 0.69785 0.42034 0.69721
 C1050 C 0.70419 0.43101 0.70358
 C1051 C 0.71190 0.44361 0.71130
 C1052 C 0.70580 0.44966 0.72504
 C1053 C 0.71351 0.46161 0.73279
 C1054 C 0.72745 0.46764 0.72689
 C1055 C 0.73341 0.46156 0.71299
 C1056 C 0.72568 0.44962 0.70527
 H1057 H 0.69887 0.37189 0.67196
 H1058 H 0.65391 0.39225 0.67926
 H1059 H 0.64164 0.36951 0.66726
 H1060 H 0.68666 0.34907 0.66014
 H1061 H 0.69515 0.44508 0.72982
 H1062 H 0.70861 0.46602 0.74345
 H1063 H 0.74411 0.46595 0.70814
 H1064 H 0.73051 0.44500 0.69465
 C1065 C 0.66092 -0.11714 0.17512
 C1066 C 0.67705 -0.11639 0.17652
 C1067 C 0.68620 -0.12859 0.17103
 C1068 C 0.67925 -0.14153 0.16424
 C1069 C 0.66306 -0.14242 0.16286
 C1070 C 0.65396 -0.13008 0.16832
 C1071 C 0.68423 -0.10324 0.18381
 C1072 C 0.69036 -0.09234 0.19001
 C1073 C 0.69765 -0.07971 0.19738
 C1074 C 0.70399 -0.06904 0.20377
 C1075 C 0.71169 -0.05645 0.21150
 C1076 C 0.72545 -0.05040 0.20544
 C1077 C 0.73318 -0.03847 0.21317
 C1078 C 0.72725 -0.03243 0.22710
 C1079 C 0.71334 -0.03851 0.23303
 C1080 C 0.70563 -0.05044 0.22527
 H1081 H 0.65373 -0.10776 0.17933
 H1082 H 0.69869 -0.12815 0.17210
 H1083 H 0.68649 -0.15095 0.16025
 H1084 H 0.64147 -0.13049 0.16730
 H1085 H 0.73025 -0.05498 0.19480
 H1086 H 0.74386 -0.03405 0.20830
 H1087 H 0.70847 -0.03413 0.24372
 H1088 H 0.69500 -0.05506 0.23008
 C1089 C 0.17511 0.38247 0.16092
 C1090 C 0.17651 0.38321 0.17705
 C1091 C 0.17099 0.37102 0.18619
 C1092 C 0.16418 0.35809 0.17923
 C1093 C 0.16280 0.35721 0.16304
 C1094 C 0.16829 0.36955 0.15394
 C1095 C 0.18382 0.39634 0.18424
 C1096 C 0.19005 0.40723 0.19036
 C1097 C 0.19746 0.41984 0.19765
 C1098 C 0.20388 0.43049 0.20397
 C1099 C 0.21165 0.44307 0.21165
 C1100 C 0.20564 0.44915 0.22542
 C1101 C 0.21341 0.46107 0.23312
 C1102 C 0.22734 0.46707 0.22716
 C1103 C 0.23322 0.46097 0.21324
 C1104 C 0.22542 0.44905 0.20556
 H1105 H 0.17934 0.39184 0.15373
 H1106 H 0.17206 0.37145 0.19868
 H1107 H 0.16017 0.34867 0.18646
 H1108 H 0.16727 0.36915 0.14146
 H1109 H 0.19500 0.44459 0.23025
 H1110 H 0.20857 0.46550 0.24381
 H1111 H 0.24391 0.46533 0.20834
 H1112 H 0.23019 0.44441 0.19492
 C1113 C 0.17087 -0.12897 0.68635
 C1114 C 0.17638 -0.11676 0.67723
 C1115 C 0.17500 -0.11750 0.66110
 C1116 C 0.16821 -0.13043 0.65411
 C1117 C 0.16272 -0.14277 0.66319
 C1118 C 0.16408 -0.14190 0.67939
 C1119 C 0.18366 -0.10362 0.68443
 C1120 C 0.18986 -0.09273 0.69057
 C1121 C 0.19725 -0.08011 0.69787
 C1122 C 0.20365 -0.06945 0.70420
 C1123 C 0.21142 -0.05687 0.71188
 C1124 C 0.22521 -0.05091 0.70579
 C1125 C 0.23300 -0.03898 0.71347
 C1126 C 0.22711 -0.03286 0.72737
 C1127 C 0.21317 -0.03884 0.73333
 C1128 C 0.20540 -0.05077 0.72563
 H1129 H 0.17192 -0.12854 0.69885
 H1130 H 0.17923 -0.10812 0.65392
 H1131 H 0.16720 -0.13082 0.64162
 H1132 H 0.16008 -0.15133 0.68661
 H1133 H 0.22999 -0.05556 0.69517
 H1134 H 0.24370 -0.03464 0.70857
 H1135 H 0.20832 -0.03439 0.74400
 H1136 H 0.19475 -0.05532 0.73045
 C1137 C 0.33894 0.32483 0.38287
 C1138 C 0.32281 0.32342 0.38363
 C1139 C 0.31365 0.32890 0.37143
 C1140 C 0.32059 0.33568 0.35849
 C1141 C 0.33679 0.33708 0.35759
 C1142 C 0.34589 0.33162 0.36993
 C1143 C 0.31563 0.31614 0.39679
 C1144 C 0.30951 0.30994 0.40770
 C1145 C 0.30222 0.30258 0.42033
 C1146 C 0.29588 0.29621 0.43100
 C1147 C 0.28818 0.28848 0.44360
 C1148 C 0.29420 0.27468 0.44957
 C1149 C 0.28649 0.26693 0.46151
 C1150 C 0.27261 0.27290 0.46763
 C1151 C 0.26673 0.28686 0.46163
 C1152 C 0.27446 0.29458 0.44969
 H1153 H 0.34613 0.32063 0.39225
 H1154 H 0.30116 0.32782 0.37188
 H1155 H 0.31335 0.33967 0.34906
 H1156 H 0.35838 0.33266 0.36952
 H1157 H 0.30480 0.26984 0.44492
 H1158 H 0.29133 0.25622 0.46586
 H1159 H 0.25608 0.29177 0.46607
 H1160 H 0.26969 0.30525 0.44514
 C1161 C 0.32498 0.83876 -0.11722
 C1162 C 0.32360 0.82263 -0.11646
 C1163 C 0.32910 0.81349 -0.12866
 C1164 C 0.33589 0.82044 -0.14160
 C1165 C 0.33725 0.83664 -0.14249
 C1166 C 0.33177 0.84573 -0.13015
 C1167 C 0.31631 0.81545 -0.10331
 C1168 C 0.31010 0.80933 -0.09242
 C1169 C 0.30271 0.80204 -0.07979
 C1170 C 0.29631 0.79572 -0.06913
 C1171 C 0.28854 0.78805 -0.05654
 C1172 C 0.29453 0.77426 -0.05049
 C1173 C 0.28676 0.76656 -0.03856
 C1174 C 0.27287 0.77256 -0.03251
 C1175 C 0.26702 0.78651 -0.03858
 C1176 C 0.27481 0.79418 -0.05052
 H1177 H 0.32076 0.84595 -0.10784
 H1178 H 0.32804 0.80100 -0.12822
 H1179 H 0.33989 0.81321 -0.15102
 H1180 H 0.33279 0.85822 -0.13056
 H1181 H 0.30514 0.76940 -0.05508
 H1182 H 0.29158 0.75586 -0.03415
 H1183 H 0.25636 0.79143 -0.03419
 H1184 H 0.27006 0.80484 -0.05513
 C1185 C 0.82899 0.31398 -0.12894
 C1186 C 0.82350 0.32315 -0.11676
 C1187 C 0.82492 0.33928 -0.11753
 C1188 C 0.83174 0.34622 -0.13047
 C1189 C 0.83721 0.33709 -0.14279
 C1190 C 0.83580 0.32090 -0.14188
 C1191 C 0.81620 0.31599 -0.10360
 C1192 C 0.80999 0.30988 -0.09270
 C1193 C 0.80261 0.30260 -0.08007
 C1194 C 0.79622 0.29627 -0.06940
 C1195 C 0.78849 0.28857 -0.05680
 C1196 C 0.77471 0.29463 -0.05080
 C1197 C 0.76696 0.28692 -0.03886
 C1198 C 0.77289 0.27302 -0.03277
 C1199 C 0.78683 0.26710 -0.03880
 C1200 C 0.79456 0.27483 -0.05074
 H1201 H 0.82790 0.30149 -0.12849
 H1202 H 0.82071 0.34648 -0.10816
 H1203 H 0.83278 0.35870 -0.13089
 H1204 H 0.83979 0.31365 -0.15129
 H1205 H 0.76990 0.30525 -0.05543
 H1206 H 0.75626 0.29179 -0.03449
 H1207 H 0.79171 0.25643 -0.03438
 H1208 H 0.80520 0.27003 -0.05531
 C1209 C 0.82506 0.83916 0.38245
 C1210 C 0.82368 0.82302 0.38320
 C1211 C 0.82920 0.81388 0.37101
 C1212 C 0.83600 0.82084 0.35808
 C1213 C 0.83736 0.83704 0.35719
 C1214 C 0.83186 0.84613 0.36952
 C1215 C 0.81639 0.81583 0.39634
 C1216 C 0.81018 0.80970 0.40724
 C1217 C 0.80280 0.80240 0.41985
 C1218 C 0.79640 0.79607 0.43052
 C1219 C 0.78863 0.78838 0.44310
 C1220 C 0.79461 0.77458 0.44912
 C1221 C 0.78684 0.76688 0.46105
 C1222 C 0.77296 0.77288 0.46711
 C1223 C 0.76712 0.78684 0.46106
 C1224 C 0.77491 0.79452 0.44913
 H1225 H 0.82082 0.84634 0.39182
 H1226 H 0.82815 0.80139 0.37145
 H1227 H 0.84002 0.81361 0.34866
 H1228 H 0.83287 0.85862 0.36912
 H1229 H 0.80522 0.76972 0.44452
 H1230 H 0.79165 0.75616 0.46544
 H1231 H 0.75646 0.79177 0.46546
 H1232 H 0.77017 0.80519 0.44454
 C1233 C 0.67503 0.33893 0.61729
 C1234 C 0.67644 0.32280 0.61658
 C1235 C 0.67096 0.31368 0.62880
 C1236 C 0.66416 0.32064 0.64172
 C1237 C 0.66276 0.33684 0.64257
 C1238 C 0.66822 0.34592 0.63021
 C1239 C 0.68373 0.31559 0.60344
 C1240 C 0.68993 0.30945 0.59255
 C1241 C 0.69731 0.30213 0.57994
 C1242 C 0.70370 0.29578 0.56928
 C1243 C 0.71144 0.28807 0.55670
 C1244 C 0.70535 0.27434 0.55062
 C1245 C 0.71308 0.26660 0.53869
 C1246 C 0.72704 0.27250 0.53269
 C1247 C 0.73300 0.28638 0.53880
 C1248 C 0.72524 0.29410 0.55073
 H1249 H 0.67924 0.34610 0.60790
 H1250 H 0.67204 0.30118 0.62839
 H1251 H 0.66017 0.31343 0.65116
 H1252 H 0.66719 0.35840 0.63059
 H1253 H 0.69468 0.26956 0.55517
 H1254 H 0.70819 0.25594 0.53425
 H1255 H 0.74371 0.29123 0.53445
 H1256 H 0.73006 0.30471 0.55537
 C1257 C 0.67079 0.81363 1.12891
 C1258 C 0.67629 0.82273 1.11669
 C1259 C 0.67491 0.83887 1.11739
 C1260 C 0.66810 0.84587 1.13030
 C1261 C 0.66261 0.83681 1.14266
 C1262 C 0.66398 0.82061 1.14182
 C1263 C 0.68358 0.81551 1.10356
 C1264 C 0.68977 0.80934 1.09268
 C1265 C 0.69714 0.80201 1.08007
 C1266 C 0.70352 0.79564 1.06942
 C1267 C 0.71126 0.78791 1.05685
 C1268 C 0.70520 0.77414 1.05083
 C1269 C 0.71293 0.76638 1.03891
 C1270 C 0.72685 0.77231 1.03285
 C1271 C 0.73277 0.78624 1.03890
 C1272 C 0.72502 0.79396 1.05082
 H1273 H 0.67185 0.80113 1.12851
 H1274 H 0.67913 0.84603 1.10800
 H1275 H 0.66708 0.85836 1.13067
 H1276 H 0.65997 0.81341 1.15126
 H1277 H 0.69457 0.76933 1.05543
 H1278 H 0.70807 0.75570 1.03452
 H1279 H 0.74346 0.79111 1.03450
 H1280 H 0.72982 0.80461 1.05542
 C1281 C 0.18643 0.32878 1.12852
 C1282 C 0.17730 0.32328 1.11632
 C1283 C 0.16117 0.32467 1.11706
 C1284 C 0.15419 0.33148 1.12998
 C1285 C 0.16327 0.33696 1.14233
 C1286 C 0.17947 0.33559 1.14145
 C1287 C 0.18449 0.31598 1.10318
 C1288 C 0.19063 0.30977 1.09229
 C1289 C 0.19792 0.30239 1.07968
 C1290 C 0.20426 0.29598 1.06902
 C1291 C 0.21194 0.28821 1.05644
 C1292 C 0.22573 0.29421 1.05040
 C1293 C 0.23344 0.28644 1.03848
 C1294 C 0.22745 0.27254 1.03243
 C1295 C 0.21350 0.26669 1.03849
 C1296 C 0.20582 0.27448 1.05042
 H1297 H 0.19892 0.32772 1.12809
 H1298 H 0.15399 0.32045 1.10768
 H1299 H 0.14170 0.33250 1.13038
 H1300 H 0.18670 0.33959 1.15087
 H1301 H 0.23059 0.30482 1.05500
 H1302 H 0.24415 0.29126 1.03408
 H1303 H 0.20858 0.25602 1.03410
 H1304 H 0.19516 0.26973 1.05502
 C1305 C 0.16116 0.82469 0.61720
 C1306 C 0.17730 0.82332 0.61647
 C1307 C 0.18642 0.82884 0.62868
 C1308 C 0.17944 0.83563 0.64160
 C1309 C 0.16324 0.83699 0.64247
 C1310 C 0.15417 0.83149 0.63012
 C1311 C 0.18452 0.81603 0.60334
 C1312 C 0.19066 0.80982 0.59246
 C1313 C 0.19797 0.80244 0.57985
 C1314 C 0.20431 0.79603 0.56919
 C1315 C 0.21199 0.78825 0.55661
 C1316 C 0.22580 0.79422 0.55060
 C1317 C 0.23350 0.78644 0.53867
 C1318 C 0.22749 0.77257 0.53261
 C1319 C 0.21352 0.76673 0.53865
 C1320 C 0.20584 0.77453 0.55058
 H1321 H 0.15400 0.82046 0.60781
 H1322 H 0.19891 0.82779 0.62826
 H1323 H 0.18665 0.83965 0.65103
 H1324 H 0.14168 0.83250 0.63050
 H1325 H 0.23067 0.80482 0.55520
 H1326 H 0.24422 0.79124 0.53429
 H1327 H 0.20858 0.75609 0.53425
 H1328 H 0.19517 0.76980 0.55517
 C1329 C 0.31355 0.67069 0.62876
 C1330 C 0.32267 0.67619 0.61654
 C1331 C 0.33881 0.67480 0.61728
 C1332 C 0.34579 0.66802 0.63021
 C1333 C 0.33671 0.66255 0.64257
 C1334 C 0.32051 0.66392 0.64169
 C1335 C 0.31547 0.68346 0.60340
 C1336 C 0.30933 0.68966 0.59250
 C1337 C 0.30204 0.69704 0.57988
 C1338 C 0.29571 0.70344 0.56922
 C1339 C 0.28804 0.71121 0.55663
 C1340 C 0.29419 0.72493 0.55060
 C1341 C 0.28652 0.73273 0.53866
 C1342 C 0.27256 0.72690 0.53261
 C1343 C 0.26654 0.71302 0.53867
 C1344 C 0.27423 0.70525 0.55060
 H1345 H 0.30105 0.67175 0.62833
 H1346 H 0.34598 0.67902 0.60789
 H1347 H 0.35828 0.66701 0.63060
 H1348 H 0.31329 0.65993 0.65113
 H1349 H 0.30486 0.72966 0.55519
 H1350 H 0.29147 0.74338 0.53426
 H1351 H 0.25582 0.70822 0.53428
 H1352 H 0.26935 0.69464 0.55520
 C1353 C 0.31362 0.17089 1.12864
 C1354 C 0.32275 0.17636 1.11642
 C1355 C 0.33888 0.17497 1.11716
 C1356 C 0.34586 0.16819 1.13010
 C1357 C 0.33677 0.16274 1.14246
 C1358 C 0.32057 0.16412 1.14158
 C1359 C 0.31555 0.18363 1.10327
 C1360 C 0.30942 0.18982 1.09237
 C1361 C 0.30213 0.19719 1.07974
 C1362 C 0.29580 0.20357 1.06907
 C1363 C 0.28811 0.21132 1.05647
 C1364 C 0.29424 0.22505 1.05043
 C1365 C 0.28655 0.23283 1.03850
 C1366 C 0.27260 0.22696 1.03244
 C1367 C 0.26661 0.21307 1.03851
 C1368 C 0.27432 0.20532 1.05045
 H1369 H 0.30112 0.17196 1.12821
 H1370 H 0.34606 0.17917 1.10778
 H1371 H 0.35835 0.16716 1.13050
 H1372 H 0.31335 0.16014 1.15102
 H1373 H 0.30490 0.22981 1.05503
 H1374 H 0.29148 0.24348 1.03409
 H1375 H 0.25591 0.20825 1.03412
 H1376 H 0.26947 0.19471 1.05505
 C1377 C 0.83882 0.67504 1.11741
 C1378 C 0.82268 0.67641 1.11671
 C1379 C 0.81358 0.67091 1.12894
 C1380 C 0.82058 0.66412 1.14185
 C1381 C 0.83678 0.66277 1.14269
 C1382 C 0.84583 0.66825 1.13032
 C1383 C 0.81544 0.68369 1.10358
 C1384 C 0.80928 0.68988 1.09270
 C1385 C 0.80194 0.69724 1.08009
 C1386 C 0.79557 0.70362 1.06944
 C1387 C 0.78784 0.71135 1.05686
 C1388 C 0.77407 0.70529 1.05083
 C1389 C 0.76632 0.71301 1.03891
 C1390 C 0.77224 0.72694 1.03286
 C1391 C 0.78616 0.73287 1.03891
 C1392 C 0.79389 0.72512 1.05084
 H1393 H 0.84597 0.67927 1.10801
 H1394 H 0.80109 0.67195 1.12854
 H1395 H 0.81338 0.66012 1.15130
 H1396 H 0.85832 0.66725 1.13069
 H1397 H 0.76928 0.69464 1.05543
 H1398 H 0.75564 0.70814 1.03451
 H1399 H 0.79103 0.74356 1.03452
 H1400 H 0.80453 0.72992 1.05544
 C1401 C 0.83862 0.17485 0.61724
 C1402 C 0.82249 0.17623 0.61652
 C1403 C 0.81337 0.17072 0.62873
 C1404 C 0.82035 0.16393 0.64165
 C1405 C 0.83655 0.16256 0.64251
 C1406 C 0.84562 0.16805 0.63016
 C1407 C 0.81527 0.18351 0.60338
 C1408 C 0.80913 0.18972 0.59250
 C1409 C 0.80182 0.19711 0.57989
 C1410 C 0.79548 0.20352 0.56924
 C1411 C 0.78779 0.21130 0.55667
 C1412 C 0.79390 0.22505 0.55068
 C1413 C 0.78622 0.23286 0.53876
 C1414 C 0.77229 0.22699 0.53267
 C1415 C 0.76631 0.21308 0.53868
 C1416 C 0.77402 0.20530 0.55061
 H1417 H 0.84579 0.17907 0.60785
 H1418 H 0.80088 0.17177 0.62832
 H1419 H 0.81314 0.15992 0.65109
 H1420 H 0.85811 0.16704 0.63054
 H1421 H 0.80455 0.22981 0.55530
 H1422 H 0.79113 0.24353 0.53439
 H1423 H 0.75561 0.20825 0.53426
 H1424 H 0.76917 0.19467 0.55517
 C1425 C 0.67509 0.66136 0.38264
 C1426 C 0.67648 0.67750 0.38334
 C1427 C 0.67094 0.68661 0.37114
 C1428 C 0.66412 0.67962 0.35824
 C1429 C 0.66275 0.66342 0.35739
 C1430 C 0.66827 0.65436 0.36974
 C1431 C 0.68379 0.68472 0.39646
 C1432 C 0.69002 0.69088 0.40733
 C1433 C 0.69742 0.69820 0.41992
 C1434 C 0.70384 0.70455 0.43056
 C1435 C 0.71163 0.71224 0.44312
 C1436 C 0.72536 0.70611 0.44915
 C1437 C 0.73316 0.71380 0.46106
 C1438 C 0.72732 0.72776 0.46711
 C1439 C 0.71343 0.73377 0.46106
 C1440 C 0.70566 0.72605 0.44914
 H1441 H 0.67934 0.65420 0.39202
 H1442 H 0.67200 0.69910 0.37154
 H1443 H 0.66009 0.68683 0.34881
 H1444 H 0.66725 0.64187 0.36937
 H1445 H 0.73009 0.69544 0.44456
 H1446 H 0.74382 0.70887 0.46546
 H1447 H 0.70863 0.74448 0.46544
 H1448 H 0.69504 0.73091 0.44454
 C1449 C 0.67536 0.16114 -0.11720
 C1450 C 0.67677 0.17728 -0.11649
 C1451 C 0.67124 0.18639 -0.12870
 C1452 C 0.66441 0.17942 -0.14160
 C1453 C 0.66302 0.16322 -0.14245
 C1454 C 0.66852 0.15415 -0.13010
 C1455 C 0.68409 0.18449 -0.10338
 C1456 C 0.69032 0.19063 -0.09251
 C1457 C 0.69773 0.19795 -0.07992
 C1458 C 0.70414 0.20432 -0.06928
 C1459 C 0.71189 0.21205 -0.05672
 C1460 C 0.70583 0.22580 -0.05068
 C1461 C 0.71357 0.23356 -0.03876
 C1462 C 0.72751 0.22765 -0.03274
 C1463 C 0.73344 0.21373 -0.03881
 C1464 C 0.72567 0.20600 -0.05072
 H1465 H 0.67959 0.15398 -0.10782
 H1466 H 0.67232 0.19889 -0.12829
 H1467 H 0.66040 0.18664 -0.15103
 H1468 H 0.66748 0.14167 -0.13048
 H1469 H 0.69518 0.23060 -0.05525
 H1470 H 0.70870 0.24424 -0.03436
 H1471 H 0.74414 0.20887 -0.03444
 H1472 H 0.73048 0.19537 -0.05533
 C1473 C 0.17095 0.68639 -0.12854
 C1474 C 0.17647 0.67726 -0.11634
 C1475 C 0.17507 0.66112 -0.11707
 C1476 C 0.16825 0.65414 -0.12999
 C1477 C 0.16276 0.66322 -0.14234
 C1478 C 0.16414 0.67942 -0.14146
 C1479 C 0.18377 0.68446 -0.10321
 C1480 C 0.18999 0.69059 -0.09233
 C1481 C 0.19739 0.69789 -0.07972
 C1482 C 0.20380 0.70423 -0.06907
 C1483 C 0.21158 0.71192 -0.05649
 C1484 C 0.22532 0.70579 -0.05047
 C1485 C 0.23311 0.71348 -0.03855
 C1486 C 0.22726 0.72743 -0.03250
 C1487 C 0.21336 0.73343 -0.03854
 C1488 C 0.20559 0.72571 -0.05047
 H1489 H 0.17202 0.69888 -0.12812
 H1490 H 0.17930 0.65395 -0.10769
 H1491 H 0.16723 0.64166 -0.13038
 H1492 H 0.16013 0.68664 -0.15089
 H1493 H 0.23006 0.69513 -0.05507
 H1494 H 0.24377 0.70856 -0.03416
 H1495 H 0.20855 0.74413 -0.03415
 H1496 H 0.19498 0.73057 -0.05506
 C1497 C 0.17499 0.16138 0.38303
 C1498 C 0.17637 0.17752 0.38375
 C1499 C 0.17086 0.18663 0.37153
 C1500 C 0.16408 0.17965 0.35860
 C1501 C 0.16273 0.16345 0.35774
 C1502 C 0.16821 0.15438 0.37010
 C1503 C 0.18364 0.18474 0.39689
 C1504 C 0.18984 0.19088 0.40777
 C1505 C 0.19722 0.19819 0.42039
 C1506 C 0.20362 0.20453 0.43105
 C1507 C 0.21139 0.21221 0.44363
 C1508 C 0.20540 0.22599 0.44968
 C1509 C 0.21318 0.23369 0.46161
 C1510 C 0.22708 0.22770 0.46764
 C1511 C 0.23294 0.21376 0.46155
 C1512 C 0.22514 0.20608 0.44962
 H1513 H 0.17922 0.15422 0.39242
 H1514 H 0.17191 0.19912 0.37194
 H1515 H 0.16008 0.18686 0.34917
 H1516 H 0.16720 0.14189 0.36972
 H1517 H 0.19478 0.23084 0.44511
 H1518 H 0.20836 0.24439 0.46603
 H1519 H 0.24361 0.20884 0.46592
 H1520 H 0.22990 0.19543 0.44501
 C1521 C 0.33892 0.38274 0.67535
 C1522 C 0.32279 0.38346 0.67673
 C1523 C 0.31367 0.37125 0.67121
 C1524 C 0.32065 0.35833 0.66442
 C1525 C 0.33685 0.35747 0.66306
 C1526 C 0.34592 0.36982 0.66855
 C1527 C 0.31557 0.39659 0.68401
 C1528 C 0.30942 0.40747 0.69022
 C1529 C 0.30210 0.42008 0.69760
 C1530 C 0.29575 0.43073 0.70400
 C1531 C 0.28805 0.44331 0.71176
 C1532 C 0.27431 0.44939 0.70572
 C1533 C 0.26659 0.46132 0.71348
 C1534 C 0.27252 0.46730 0.72743
 C1535 C 0.28642 0.46119 0.73334
 C1536 C 0.29412 0.44926 0.72555
 H1537 H 0.34608 0.39212 0.67958
 H1538 H 0.30118 0.37166 0.67226
 H1539 H 0.31344 0.34889 0.66040
 H1540 H 0.35841 0.36944 0.66754
 H1541 H 0.26950 0.44485 0.69506
 H1542 H 0.25592 0.46576 0.70862
 H1543 H 0.29130 0.46553 0.74404
 H1544 H 0.30474 0.44462 0.73035
 C1545 C 0.33869 0.88296 0.17516
 C1546 C 0.32256 0.88369 0.17653
 C1547 C 0.31344 0.87148 0.17102
 C1548 C 0.32041 0.85855 0.16423
 C1549 C 0.33661 0.85768 0.16288
 C1550 C 0.34568 0.87003 0.16837
 C1551 C 0.31535 0.89682 0.18383
 C1552 C 0.30922 0.90771 0.19004
 C1553 C 0.30192 0.92032 0.19744
 C1554 C 0.29560 0.93097 0.20386
 C1555 C 0.28793 0.94355 0.21165
 C1556 C 0.27418 0.94965 0.20564
 C1557 C 0.26649 0.96158 0.21342
 C1558 C 0.27246 0.96756 0.22736
 C1559 C 0.28636 0.96143 0.23324
 C1560 C 0.29403 0.94950 0.22543
 H1561 H 0.34586 0.89234 0.17939
 H1562 H 0.30094 0.87191 0.17207
 H1563 H 0.31319 0.84912 0.16022
 H1564 H 0.35817 0.86964 0.16736
 H1565 H 0.26934 0.94512 0.19499
 H1566 H 0.25581 0.96603 0.20859
 H1567 H 0.29127 0.96576 0.24393
 H1568 H 0.30466 0.94485 0.23020
 C1569 C 0.82498 0.38287 0.16122
 C1570 C 0.82356 0.38359 0.17735
 C1571 C 0.82907 0.37138 0.18648
 C1572 C 0.83589 0.35846 0.17951
 C1573 C 0.83729 0.35761 0.16331
 C1574 C 0.83181 0.36996 0.15423
 C1575 C 0.81626 0.39671 0.18456
 C1576 C 0.81004 0.40759 0.19070
 C1577 C 0.80265 0.42020 0.19801
 C1578 C 0.79625 0.43085 0.20437
 C1579 C 0.78850 0.44342 0.21208
 C1580 C 0.79451 0.44942 0.22587
 C1581 C 0.78677 0.46135 0.23361
 C1582 C 0.77287 0.46742 0.22765
 C1583 C 0.76699 0.46139 0.21370
 C1584 C 0.77476 0.44947 0.20598
 H1585 H 0.82076 0.39226 0.15405
 H1586 H 0.82798 0.37179 0.19897
 H1587 H 0.83989 0.34903 0.18673
 H1588 H 0.83285 0.36958 0.14175
 H1589 H 0.80513 0.44481 0.23071
 H1590 H 0.79161 0.46572 0.24432
 H1591 H 0.75633 0.46580 0.20880
 H1592 H 0.76999 0.44489 0.19532
 C1593 C 0.83896 0.88263 0.67516
 C1594 C 0.82283 0.88338 0.67654
 C1595 C 0.81369 0.87120 0.67099
 C1596 C 0.82064 0.85829 0.66415
 C1597 C 0.83684 0.85741 0.66279
 C1598 C 0.84593 0.86973 0.66832
 C1599 C 0.81563 0.89650 0.68388
 C1600 C 0.80951 0.90738 0.69012
 C1601 C 0.80222 0.91997 0.69754
 C1602 C 0.79589 0.93062 0.70398
 C1603 C 0.78821 0.94318 0.71177
 C1604 C 0.77443 0.94925 0.70577
 C1605 C 0.76672 0.96117 0.71356
 C1606 C 0.77270 0.96717 0.72748
 C1607 C 0.78663 0.96108 0.73334
 C1608 C 0.79432 0.94916 0.72553
 H1609 H 0.84614 0.89199 0.67943
 H1610 H 0.80119 0.87164 0.67204
 H1611 H 0.81341 0.84889 0.66011
 H1612 H 0.85842 0.86932 0.66731
 H1613 H 0.76959 0.94469 0.69514
 H1614 H 0.75603 0.96559 0.70873
 H1615 H 0.79154 0.96544 0.74402
 H1616 H 0.80496 0.94453 0.73029
 C1617 C 0.66120 0.61754 0.67470
 C1618 C 0.67734 0.61682 0.67609
 C1619 C 0.68646 0.62903 0.67058
 C1620 C 0.67949 0.64195 0.66379
 C1621 C 0.66329 0.64282 0.66242
 C1622 C 0.65421 0.63047 0.66790
 C1623 C 0.68454 0.60368 0.68337
 C1624 C 0.69069 0.59279 0.68957
 C1625 C 0.69799 0.58017 0.69695
 C1626 C 0.70433 0.56952 0.70335
 C1627 C 0.71202 0.55694 0.71112
 C1628 C 0.72579 0.55088 0.70511
 C1629 C 0.73351 0.53896 0.71287
 C1630 C 0.72753 0.53293 0.72678
 C1631 C 0.71360 0.53901 0.73266
 C1632 C 0.70591 0.55094 0.72487
 H1633 H 0.65403 0.60816 0.67892
 H1634 H 0.69895 0.62861 0.67165
 H1635 H 0.68671 0.65139 0.65979
 H1636 H 0.64173 0.63085 0.66688
 H1637 H 0.73063 0.55546 0.69448
 H1638 H 0.74420 0.53454 0.70804
 H1639 H 0.70870 0.53463 0.74334
 H1640 H 0.69527 0.55555 0.72964
 C1641 C 0.67520 0.11757 0.16083
 C1642 C 0.67659 0.11679 0.17696
 C1643 C 0.67106 0.12897 0.18612
 C1644 C 0.66425 0.14190 0.17919
 C1645 C 0.66287 0.14282 0.16300
 C1646 C 0.66837 0.13050 0.15388
 C1647 C 0.68389 0.10364 0.18413
 C1648 C 0.69011 0.09275 0.19025
 C1649 C 0.69749 0.08012 0.19753
 C1650 C 0.70388 0.06946 0.20387
 C1651 C 0.71162 0.05687 0.21157
 C1652 C 0.70557 0.05082 0.22533
 C1653 C 0.71330 0.03889 0.23306
 C1654 C 0.72723 0.03285 0.22713
 C1655 C 0.73315 0.03893 0.21322
 C1656 C 0.72539 0.05086 0.20551
 H1657 H 0.67943 0.10821 0.15363
 H1658 H 0.67212 0.12851 0.19861
 H1659 H 0.66023 0.15130 0.18644
 H1660 H 0.66736 0.13092 0.14140
 H1661 H 0.69492 0.05540 0.23013
 H1662 H 0.70843 0.03447 0.24374
 H1663 H 0.74384 0.03455 0.20834
 H1664 H 0.73019 0.05548 0.19488
 C1665 C 0.16118 0.61708 0.17506
 C1666 C 0.17731 0.61633 0.17645
 C1667 C 0.18645 0.62853 0.17096
 C1668 C 0.17951 0.64147 0.16417
 C1669 C 0.16331 0.64237 0.16280
 C1670 C 0.15421 0.63002 0.16827
 C1671 C 0.18449 0.60317 0.18373
 C1672 C 0.19062 0.59227 0.18993
 C1673 C 0.19791 0.57964 0.19730
 C1674 C 0.20425 0.56897 0.20368
 C1675 C 0.21194 0.55638 0.21142
 C1676 C 0.22567 0.55030 0.20534
 C1677 C 0.23340 0.53836 0.21308
 C1678 C 0.22749 0.53236 0.22702
 C1679 C 0.21360 0.53846 0.23297
 C1680 C 0.20589 0.55040 0.22521
 H1681 H 0.15399 0.60771 0.17928
 H1682 H 0.19894 0.62809 0.17202
 H1683 H 0.18674 0.65089 0.16018
 H1684 H 0.14172 0.63043 0.16725
 H1685 H 0.23047 0.55486 0.19469
 H1686 H 0.24406 0.53392 0.20819
 H1687 H 0.20874 0.53411 0.24367
 H1688 H 0.19528 0.55504 0.23003
 C1689 C 0.16107 0.11709 0.67506
 C1690 C 0.17720 0.11636 0.67647
 C1691 C 0.18634 0.12858 0.67100
 C1692 C 0.17938 0.14152 0.66422
 C1693 C 0.16318 0.14238 0.66282
 C1694 C 0.15409 0.13002 0.66827
 C1695 C 0.18440 0.10321 0.68375
 C1696 C 0.19053 0.09231 0.68994
 C1697 C 0.19783 0.07969 0.69732
 C1698 C 0.20416 0.06902 0.70371
 C1699 C 0.21184 0.05644 0.71147
 C1700 C 0.20577 0.05048 0.72526
 C1701 C 0.21345 0.03854 0.73304
 C1702 C 0.22735 0.03242 0.72713
 C1703 C 0.23329 0.03840 0.71319
 C1704 C 0.22558 0.05034 0.70543
 H1705 H 0.15390 0.10769 0.67925
 H1706 H 0.19883 0.12816 0.67208
 H1707 H 0.18660 0.15096 0.66025
 H1708 H 0.14161 0.13041 0.66723
 H1709 H 0.19515 0.05513 0.73005
 H1710 H 0.20857 0.03420 0.74374
 H1711 H 0.24396 0.03395 0.70833
 H1712 H 0.23040 0.05488 0.69477
 C1713 C 0.32903 0.62848 0.31347
 C1714 C 0.32354 0.61625 0.32258
 C1715 C 0.32492 0.61697 0.33871
 C1716 C 0.33170 0.62989 0.34571
 C1717 C 0.33717 0.64226 0.33665
 C1718 C 0.33581 0.64140 0.32045
 C1719 C 0.31628 0.60311 0.31536
 C1720 C 0.31009 0.59222 0.30921
 C1721 C 0.30273 0.57960 0.30189
 C1722 C 0.29634 0.56894 0.29554
 C1723 C 0.28858 0.55636 0.28784
 C1724 C 0.27482 0.55035 0.29394
 C1725 C 0.26704 0.53842 0.28625
 C1726 C 0.27293 0.53235 0.27232
 C1727 C 0.28685 0.53837 0.26636
 C1728 C 0.29460 0.55030 0.27408
 H1729 H 0.32798 0.62806 0.30097
 H1730 H 0.32071 0.60757 0.34587
 H1731 H 0.33272 0.63027 0.35820
 H1732 H 0.33980 0.65085 0.31324
 H1733 H 0.27005 0.55497 0.30458
 H1734 H 0.25636 0.53405 0.29115
 H1735 H 0.29169 0.53396 0.25567
 H1736 H 0.30523 0.55488 0.26924
 C1737 C 0.32501 0.11700 0.83870
 C1738 C 0.32362 0.11626 0.82256
 C1739 C 0.32915 0.12846 0.81343
 C1740 C 0.33596 0.14138 0.82039
 C1741 C 0.33732 0.14226 0.83659
 C1742 C 0.33182 0.12992 0.84568
 C1743 C 0.31631 0.10313 0.81537
 C1744 C 0.31008 0.09225 0.80924
 C1745 C 0.30268 0.07964 0.80195
 C1746 C 0.29625 0.06899 0.79562
 C1747 C 0.28846 0.05642 0.78795
 C1748 C 0.29449 0.05031 0.77421
 C1749 C 0.28670 0.03839 0.76651
 C1750 C 0.27276 0.03242 0.77247
 C1751 C 0.26687 0.03855 0.78637
 C1752 C 0.27468 0.05047 0.79404
 H1753 H 0.32077 0.10763 0.84588
 H1754 H 0.32809 0.12803 0.80094
 H1755 H 0.33998 0.15080 0.81317
 H1756 H 0.33283 0.13032 0.85817
 H1757 H 0.30514 0.05484 0.76938
 H1758 H 0.29155 0.03393 0.75584
 H1759 H 0.25617 0.03422 0.79126
 H1760 H 0.26990 0.05513 0.80466
 C1761 C 0.82480 0.61739 0.83888
 C1762 C 0.82343 0.61670 0.82275
 C1763 C 0.82896 0.62892 0.81365
 C1764 C 0.83576 0.64182 0.82065
 C1765 C 0.83712 0.64266 0.83685
 C1766 C 0.83161 0.63030 0.84590
 C1767 C 0.81613 0.60358 0.81551
 C1768 C 0.80992 0.59271 0.80934
 C1769 C 0.80255 0.58012 0.80200
 C1770 C 0.79615 0.56947 0.79562
 C1771 C 0.78841 0.55691 0.78789
 C1772 C 0.79449 0.55085 0.77415
 C1773 C 0.78675 0.53893 0.76639
 C1774 C 0.77280 0.53293 0.77228
 C1775 C 0.76685 0.53901 0.78618
 C1776 C 0.77461 0.55093 0.79391
 H1777 H 0.82055 0.60800 0.84603
 H1778 H 0.82791 0.62852 0.80116
 H1779 H 0.83979 0.65126 0.81345
 H1780 H 0.83261 0.63066 0.85839
 H1781 H 0.80515 0.55541 0.76937
 H1782 H 0.79164 0.53451 0.75573
 H1783 H 0.75614 0.53465 0.79102
 H1784 H 0.76979 0.55555 0.80453
 C1785 C 0.82892 0.12885 0.31360
 C1786 C 0.82339 0.11666 0.32273
 C1787 C 0.82479 0.11740 0.33887
 C1788 C 0.83162 0.13031 0.34584
 C1789 C 0.83713 0.14264 0.33675
 C1790 C 0.83575 0.14176 0.32055
 C1791 C 0.81607 0.10353 0.31554
 C1792 C 0.80984 0.09265 0.30941
 C1793 C 0.80244 0.08005 0.30210
 C1794 C 0.79603 0.06940 0.29575
 C1795 C 0.78828 0.05683 0.28804
 C1796 C 0.77450 0.05084 0.29410
 C1797 C 0.76673 0.03891 0.28638
 C1798 C 0.77265 0.03284 0.27246
 C1799 C 0.78658 0.03886 0.26654
 C1800 C 0.79432 0.05079 0.27428
 H1801 H 0.82785 0.12842 0.30111
 H1802 H 0.82055 0.10803 0.34605
 H1803 H 0.83265 0.13070 0.35833
 H1804 H 0.83977 0.15118 0.31333
 H1805 H 0.76970 0.05545 0.30473
 H1806 H 0.75604 0.03454 0.29125
 H1807 H 0.79144 0.03445 0.25586
 H1808 H 0.80497 0.05536 0.26947
 C1809 C 0.67094 0.37133 0.31369
 C1810 C 0.67644 0.38352 0.32285
 C1811 C 0.67502 0.38277 0.33898
 C1812 C 0.66820 0.36984 0.34593
 C1813 C 0.66272 0.35751 0.33683
 C1814 C 0.66412 0.35840 0.32063
 C1815 C 0.68376 0.39666 0.31568
 C1816 C 0.68999 0.40755 0.30957
 C1817 C 0.69740 0.42017 0.30229
 C1818 C 0.70383 0.43083 0.29598
 C1819 C 0.71161 0.44341 0.28831
 C1820 C 0.70562 0.44948 0.27454
 C1821 C 0.71340 0.46141 0.26685
 C1822 C 0.72731 0.46742 0.27284
 C1823 C 0.73317 0.46132 0.28677
 C1824 C 0.72537 0.44939 0.29444
 H1825 H 0.67203 0.37177 0.30120
 H1826 H 0.67925 0.39214 0.34617
 H1827 H 0.66716 0.36944 0.35842
 H1828 H 0.66012 0.34899 0.31339
 H1829 H 0.69499 0.44492 0.26969
 H1830 H 0.70858 0.46585 0.25616
 H1831 H 0.74385 0.46568 0.29169
 H1832 H 0.73012 0.44476 0.30508
 C1833 C 0.68634 0.87110 0.82921
 C1834 C 0.67721 0.88330 0.82368
 C1835 C 0.66108 0.88257 0.82506
 C1836 C 0.65409 0.86965 0.83186
 C1837 C 0.66317 0.85730 0.83737
 C1838 C 0.67937 0.85818 0.83601
 C1839 C 0.68442 0.89644 0.81639
 C1840 C 0.69056 0.90732 0.81018
 C1841 C 0.69787 0.91993 0.80279
 C1842 C 0.70422 0.93059 0.79640
 C1843 C 0.71193 0.94316 0.78865
 C1844 C 0.70584 0.94920 0.77491
 C1845 C 0.71355 0.96113 0.76714
 C1846 C 0.72749 0.96717 0.77303
 C1847 C 0.73346 0.96110 0.78693
 C1848 C 0.72572 0.94918 0.79467
 H1849 H 0.69883 0.87153 0.82816
 H1850 H 0.65391 0.89194 0.82082
 H1851 H 0.64161 0.86925 0.83287
 H1852 H 0.68659 0.84876 0.84003
 H1853 H 0.69518 0.94462 0.77013
 H1854 H 0.70865 0.96553 0.75647
 H1855 H 0.74416 0.96548 0.79177
 H1856 H 0.73055 0.94457 0.80529
 C1857 C 0.17491 0.38257 0.83886
 C1858 C 0.17630 0.38334 0.82273
 C1859 C 0.17078 0.37116 0.81358
 C1860 C 0.16398 0.35822 0.82051
 C1861 C 0.16262 0.35730 0.83671
 C1862 C 0.16811 0.36963 0.84582
 C1863 C 0.18360 0.39649 0.81556
 C1864 C 0.18982 0.40739 0.80945
 C1865 C 0.19722 0.42001 0.80218
 C1866 C 0.20363 0.43068 0.79587
 C1867 C 0.21141 0.44327 0.78821
 C1868 C 0.20538 0.44938 0.77447
 C1869 C 0.21316 0.46131 0.76678
 C1870 C 0.22710 0.46729 0.77275
 C1871 C 0.23299 0.46115 0.78665
 C1872 C 0.22519 0.44922 0.79431
 H1873 H 0.17914 0.39193 0.84606
 H1874 H 0.17184 0.37161 0.80109
 H1875 H 0.15997 0.34881 0.81327
 H1876 H 0.16709 0.36921 0.85830
 H1877 H 0.19473 0.44484 0.76964
 H1878 H 0.20831 0.46577 0.75611
 H1879 H 0.24368 0.46549 0.79154
 H1880 H 0.22997 0.44456 0.80493
 C1881 C 0.17513 0.88279 0.33901
 C1882 C 0.17652 0.88356 0.32288
 C1883 C 0.17102 0.87136 0.31373
 C1884 C 0.16423 0.85842 0.32067
 C1885 C 0.16286 0.85751 0.33686
 C1886 C 0.16834 0.86985 0.34597
 C1887 C 0.18380 0.89671 0.31570
 C1888 C 0.18999 0.90762 0.30958
 C1889 C 0.19736 0.92025 0.30229
 C1890 C 0.20376 0.93092 0.29597
 C1891 C 0.21151 0.94352 0.28829
 C1892 C 0.20545 0.94963 0.27457
 C1893 C 0.21320 0.96157 0.26686
 C1894 C 0.22715 0.96755 0.27279
 C1895 C 0.23308 0.96141 0.28668
 C1896 C 0.22530 0.94947 0.29436
 H1897 H 0.17935 0.89216 0.34620
 H1898 H 0.17208 0.87181 0.30124
 H1899 H 0.16023 0.84900 0.31343
 H1900 H 0.16733 0.86943 0.35845
 H1901 H 0.19479 0.94509 0.26976
 H1902 H 0.20833 0.96603 0.25620
 H1903 H 0.24379 0.96575 0.29155
 H1904 H 0.23011 0.94481 0.30497
 C1905 C 0.38287 0.32497 0.66147
 C1906 C 0.38359 0.32359 0.67760
 C1907 C 0.37138 0.32909 0.68672
 C1908 C 0.35845 0.33587 0.67975
 C1909 C 0.35759 0.33724 0.66355
 C1910 C 0.36994 0.33176 0.65447
 C1911 C 0.39673 0.31630 0.68481
 C1912 C 0.40762 0.31010 0.69095
 C1913 C 0.42024 0.30273 0.69826
 C1914 C 0.43090 0.29633 0.70460
 C1915 C 0.44349 0.28856 0.71228
 C1916 C 0.44953 0.29455 0.72606
 C1917 C 0.46147 0.28679 0.73376
 C1918 C 0.46750 0.27289 0.72777
 C1919 C 0.46143 0.26703 0.71383
 C1920 C 0.44950 0.27482 0.70615
 H1921 H 0.39225 0.32075 0.65430
 H1922 H 0.37180 0.32803 0.69921
 H1923 H 0.34902 0.33988 0.68696
 H1924 H 0.36956 0.33278 0.64199
 H1925 H 0.44495 0.30517 0.73092
 H1926 H 0.46587 0.29161 0.74446
 H1927 H 0.46581 0.25637 0.70891
 H1928 H 0.44489 0.27007 0.69550
 C1929 C 0.38261 0.82517 0.16137
 C1930 C 0.38333 0.82380 0.17750
 C1931 C 0.37111 0.82931 0.18661
 C1932 C 0.35819 0.83610 0.17962
 C1933 C 0.35733 0.83745 0.16342
 C1934 C 0.36970 0.83196 0.15436
 C1935 C 0.39646 0.81652 0.18473
 C1936 C 0.40734 0.81032 0.19088
 C1937 C 0.41995 0.80294 0.19820
 C1938 C 0.43060 0.79653 0.20454
 C1939 C 0.44318 0.78875 0.21222
 C1940 C 0.44922 0.79474 0.22601
 C1941 C 0.46115 0.78697 0.23371
 C1942 C 0.46718 0.77307 0.22772
 C1943 C 0.46111 0.76721 0.21378
 C1944 C 0.44918 0.77501 0.20610
 H1945 H 0.39200 0.82094 0.15421
 H1946 H 0.37152 0.82827 0.19910
 H1947 H 0.34875 0.84011 0.18682
 H1948 H 0.36932 0.83296 0.14187
 H1949 H 0.44465 0.80537 0.23086
 H1950 H 0.46556 0.79179 0.24441
 H1951 H 0.46548 0.75654 0.20886
 H1952 H 0.44457 0.77026 0.19545
 C1953 C 0.87135 0.31374 0.17101
 C1954 C 0.88354 0.32286 0.17655
 C1955 C 0.88279 0.33900 0.17519
 C1956 C 0.86988 0.34598 0.16837
 C1957 C 0.85755 0.33690 0.16285
 C1958 C 0.85843 0.32070 0.16420
 C1959 C 0.89667 0.31566 0.18385
 C1960 C 0.90755 0.30951 0.19005
 C1961 C 0.92016 0.30219 0.19742
 C1962 C 0.93082 0.29583 0.20381
 C1963 C 0.94339 0.28810 0.21155
 C1964 C 0.94945 0.29420 0.22529
 C1965 C 0.96137 0.28647 0.23305
 C1966 C 0.96739 0.27252 0.22716
 C1967 C 0.96130 0.26656 0.21327
 C1968 C 0.94938 0.27431 0.20553
 H1969 H 0.87178 0.30124 0.17205
 H1970 H 0.89216 0.34617 0.17944
 H1971 H 0.86948 0.35847 0.16737
 H1972 H 0.84901 0.31348 0.16016
 H1973 H 0.94488 0.30486 0.23006
 H1974 H 0.96579 0.29137 0.24371
 H1975 H 0.96567 0.25585 0.20843
 H1976 H 0.94476 0.26948 0.19492
 C1977 C 0.87131 0.82891 0.68640
 C1978 C 0.88352 0.82342 0.67727
 C1979 C 0.88281 0.82485 0.66114
 C1980 C 0.86989 0.83168 0.65416
 C1981 C 0.85754 0.83715 0.66325
 C1982 C 0.85839 0.83573 0.67944
 C1983 C 0.89665 0.81611 0.68447
 C1984 C 0.90754 0.80989 0.69061
 C1985 C 0.92014 0.80250 0.69792
 C1986 C 0.93079 0.79609 0.70426
 C1987 C 0.94337 0.78832 0.71196
 C1988 C 0.94931 0.77452 0.70591
 C1989 C 0.96123 0.76673 0.71360
 C1990 C 0.96736 0.77266 0.72749
 C1991 C 0.96140 0.78662 0.73341
 C1992 C 0.94947 0.79439 0.72568
 H1993 H 0.87172 0.82782 0.69889
 H1994 H 0.89219 0.82064 0.65397
 H1995 H 0.86952 0.83273 0.64168
 H1996 H 0.84896 0.83973 0.68666
 H1997 H 0.94465 0.76971 0.69530
 H1998 H 0.96556 0.75602 0.70874
 H1999 H 0.96585 0.79150 0.74406
 H2000 H 0.94494 0.80505 0.73048
 C2001 C 0.62869 0.31363 0.32905
 C2002 C 0.61650 0.32276 0.32353
 C2003 C 0.61723 0.33889 0.32492
 C2004 C 0.63015 0.34587 0.33175
 C2005 C 0.64249 0.33679 0.33725
 C2006 C 0.64161 0.32059 0.33587
 C2007 C 0.60337 0.31556 0.31622
 C2008 C 0.59248 0.30943 0.31000
 C2009 C 0.57987 0.30213 0.30261
 C2010 C 0.56922 0.29579 0.29619
 C2011 C 0.55664 0.28810 0.28842
 C2012 C 0.55061 0.29424 0.27470
 C2013 C 0.53868 0.28656 0.26690
 C2014 C 0.53265 0.27259 0.27274
 C2015 C 0.53871 0.26658 0.28662
 C2016 C 0.55063 0.27429 0.29439
 H2017 H 0.62827 0.30114 0.32798
 H2018 H 0.60786 0.34607 0.32069
 H2019 H 0.63054 0.35836 0.33277
 H2020 H 0.65103 0.31336 0.33989
 H2021 H 0.55519 0.30492 0.26996
 H2022 H 0.53428 0.29149 0.25625
 H2023 H 0.53433 0.25586 0.29143
 H2024 H 0.55524 0.26943 0.30500
 C2025 C 0.61718 0.82478 0.83894
 C2026 C 0.61646 0.82339 0.82280
 C2027 C 0.62867 0.82890 0.81369
 C2028 C 0.64160 0.83569 0.82066
 C2029 C 0.64245 0.83707 0.83686
 C2030 C 0.63010 0.83158 0.84593
 C2031 C 0.60333 0.81611 0.81559
 C2032 C 0.59244 0.80991 0.80944
 C2033 C 0.57983 0.80254 0.80211
 C2034 C 0.56918 0.79615 0.79575
 C2035 C 0.55660 0.78841 0.78802
 C2036 C 0.55059 0.79446 0.77425
 C2037 C 0.53866 0.78672 0.76650
 C2038 C 0.53260 0.77281 0.77243
 C2039 C 0.53864 0.76690 0.78637
 C2040 C 0.55057 0.77466 0.79409
 H2041 H 0.60779 0.82056 0.84610
 H2042 H 0.62826 0.82783 0.80120
 H2043 H 0.65103 0.83970 0.81345
 H2044 H 0.63048 0.83260 0.85842
 H2045 H 0.55519 0.80509 0.76944
 H2046 H 0.53428 0.79159 0.75581
 H2047 H 0.53424 0.75622 0.79124
 H2048 H 0.55516 0.76986 0.80474
 C2049 C 0.12858 0.31343 0.82895
 C2050 C 0.11638 0.32257 0.82346
 C2051 C 0.11711 0.33870 0.82487
 C2052 C 0.13004 0.34567 0.83169
 C2053 C 0.14238 0.33657 0.83716
 C2054 C 0.14151 0.32038 0.83575
 C2055 C 0.10324 0.31538 0.81615
 C2056 C 0.09235 0.30925 0.80993
 C2057 C 0.07973 0.30196 0.80254
 C2058 C 0.06907 0.29563 0.79613
 C2059 C 0.05649 0.28796 0.78835
 C2060 C 0.05055 0.29402 0.77455
 C2061 C 0.03862 0.28634 0.76676
 C2062 C 0.03248 0.27245 0.77268
 C2063 C 0.03845 0.26652 0.78663
 C2064 C 0.05038 0.27423 0.79440
 H2065 H 0.12816 0.30094 0.82786
 H2066 H 0.10773 0.34588 0.82066
 H2067 H 0.13043 0.35815 0.83273
 H2068 H 0.15094 0.31315 0.83975
 H2069 H 0.05522 0.30463 0.76976
 H2070 H 0.03430 0.29122 0.75605
 H2071 H 0.03398 0.25586 0.79150
 H2072 H 0.05491 0.26942 0.80506
 C2073 C 0.12886 0.81362 0.32909
 C2074 C 0.11665 0.82275 0.32360
 C2075 C 0.11737 0.83888 0.32502
 C2076 C 0.13029 0.84586 0.33184
 C2077 C 0.14264 0.83678 0.33731
 C2078 C 0.14178 0.82058 0.33591
 C2079 C 0.10352 0.81555 0.31629
 C2080 C 0.09263 0.80942 0.31007
 C2081 C 0.08003 0.80213 0.30267
 C2082 C 0.06937 0.79580 0.29625
 C2083 C 0.05680 0.78811 0.28847
 C2084 C 0.05086 0.79418 0.27467
 C2085 C 0.03894 0.78650 0.26687
 C2086 C 0.03279 0.77262 0.27278
 C2087 C 0.03875 0.76668 0.28674
 C2088 C 0.05068 0.77438 0.29451
 H2089 H 0.12844 0.80113 0.32801
 H2090 H 0.10799 0.84606 0.32080
 H2091 H 0.13067 0.85835 0.33288
 H2092 H 0.15121 0.81336 0.33990
 H2093 H 0.05553 0.80480 0.26988
 H2094 H 0.03461 0.79138 0.25616
 H2095 H 0.03429 0.75602 0.29160
 H2096 H 0.05521 0.76957 0.30518
 C2097 C 0.62874 0.67120 0.68607
 C2098 C 0.61654 0.67671 0.67693
 C2099 C 0.61728 0.67533 0.66080
 C2100 C 0.63021 0.66854 0.65382
 C2101 C 0.64256 0.66305 0.66291
 C2102 C 0.64167 0.66441 0.67911
 C2103 C 0.60340 0.68400 0.68413
 C2104 C 0.59251 0.69020 0.69027
 C2105 C 0.57989 0.69758 0.69757
 C2106 C 0.56923 0.70398 0.70391
 C2107 C 0.55664 0.71173 0.71160
 C2108 C 0.55064 0.72550 0.70552
 C2109 C 0.53871 0.73327 0.71321
 C2110 C 0.53262 0.72737 0.72713
 C2111 C 0.53865 0.71344 0.73308
 C2112 C 0.55058 0.70570 0.72536
 H2113 H 0.62831 0.67226 0.69856
 H2114 H 0.60791 0.67956 0.65362
 H2115 H 0.63061 0.66753 0.64133
 H2116 H 0.65110 0.66040 0.68633
 H2117 H 0.55527 0.73028 0.69488
 H2118 H 0.53434 0.74395 0.70832
 H2119 H 0.53423 0.70859 0.74376
 H2120 H 0.55516 0.69506 0.73018
 C2121 C 0.62879 0.18665 0.17079
 C2122 C 0.61660 0.17750 0.17628
 C2123 C 0.61735 0.16137 0.17485
 C2124 C 0.63028 0.15441 0.16803
 C2125 C 0.64261 0.16352 0.16257
 C2126 C 0.64172 0.17971 0.16398
 C2127 C 0.60345 0.18467 0.18358
 C2128 C 0.59256 0.19079 0.18980
 C2129 C 0.57993 0.19806 0.19719
 C2130 C 0.56927 0.20438 0.20361
 C2131 C 0.55668 0.21204 0.21139
 C2132 C 0.55064 0.22584 0.20542
 C2133 C 0.53871 0.23353 0.21320
 C2134 C 0.53266 0.22751 0.22708
 C2135 C 0.53873 0.21356 0.23291
 C2136 C 0.55066 0.20589 0.22511
 H2137 H 0.62835 0.19914 0.17188
 H2138 H 0.60797 0.15418 0.17907
 H2139 H 0.63068 0.14193 0.16699
 H2140 H 0.65115 0.18695 0.15998
 H2141 H 0.55523 0.23072 0.19481
 H2142 H 0.53430 0.24424 0.20840
 H2143 H 0.53434 0.20861 0.24357
 H2144 H 0.55527 0.19523 0.22985
 C2145 C 0.11735 0.67494 0.16122
 C2146 C 0.11661 0.67631 0.17735
 C2147 C 0.12880 0.67077 0.18648
 C2148 C 0.14173 0.66397 0.17951
 C2149 C 0.14260 0.66262 0.16331
 C2150 C 0.13027 0.66813 0.15423
 C2151 C 0.10348 0.68362 0.18456
 C2152 C 0.09260 0.68984 0.19069
 C2153 C 0.08000 0.69724 0.19799
 C2154 C 0.06934 0.70367 0.20431
 C2155 C 0.05677 0.71147 0.21198
 C2156 C 0.05066 0.70545 0.22573
 C2157 C 0.03874 0.71325 0.23342
 C2158 C 0.03278 0.72719 0.22746
 C2159 C 0.03891 0.73307 0.21355
 C2160 C 0.05083 0.72525 0.20588
 H2161 H 0.10798 0.67919 0.15405
 H2162 H 0.12838 0.67182 0.19897
 H2163 H 0.15115 0.65994 0.18673
 H2164 H 0.13066 0.66713 0.14174
 H2165 H 0.05519 0.69480 0.23057
 H2166 H 0.03428 0.70841 0.24410
 H2167 H 0.03459 0.74376 0.20865
 H2168 H 0.05549 0.73002 0.19526
 C2169 C 0.11718 0.17490 0.66118
 C2170 C 0.11641 0.17626 0.67732
 C2171 C 0.12860 0.17073 0.68646
 C2172 C 0.14154 0.16395 0.67951
 C2173 C 0.14244 0.16261 0.66331
 C2174 C 0.13011 0.16811 0.65421
 C2175 C 0.10326 0.18355 0.68450
 C2176 C 0.09237 0.18976 0.69063
 C2177 C 0.07974 0.19714 0.69791
 C2178 C 0.06908 0.20356 0.70423
 C2179 C 0.05649 0.21134 0.71189
 C2180 C 0.05038 0.20532 0.72563
 C2181 C 0.03845 0.21310 0.73332
 C2182 C 0.03248 0.22703 0.72735
 C2183 C 0.03861 0.23292 0.71345
 C2184 C 0.05054 0.22511 0.70579
 H2185 H 0.10781 0.17915 0.65400
 H2186 H 0.12815 0.17177 0.69895
 H2187 H 0.15095 0.15993 0.68674
 H2188 H 0.13053 0.16712 0.64172
 H2189 H 0.05492 0.19467 0.73047
 H2190 H 0.03399 0.20826 0.74400
 H2191 H 0.03428 0.24361 0.70855
 H2192 H 0.05520 0.22989 0.69516
 C2193 C 0.38266 0.66095 0.32486
 C2194 C 0.38337 0.67708 0.32349
 C2195 C 0.37116 0.68619 0.32901
 C2196 C 0.35824 0.67920 0.33580
 C2197 C 0.35739 0.66300 0.33716
 C2198 C 0.36974 0.65394 0.33166
 C2199 C 0.39650 0.68431 0.31620
 C2200 C 0.40738 0.69047 0.31000
 C2201 C 0.41999 0.69780 0.30263
 C2202 C 0.43063 0.70417 0.29625
 C2203 C 0.44321 0.71190 0.28851
 C2204 C 0.44928 0.72563 0.29461
 C2205 C 0.46120 0.73339 0.28689
 C2206 C 0.46720 0.72751 0.27292
 C2207 C 0.46110 0.71363 0.26696
 C2208 C 0.44918 0.70589 0.27471
 H2209 H 0.39205 0.65379 0.32063
 H2210 H 0.37157 0.69868 0.32796
 H2211 H 0.34880 0.68641 0.33982
 H2212 H 0.36937 0.64145 0.33267
 H2213 H 0.44472 0.73039 0.30529
 H2214 H 0.46563 0.74404 0.29179
 H2215 H 0.46546 0.70880 0.25624
 H2216 H 0.44455 0.69528 0.26987
 C2217 C 0.38285 0.16087 0.82481
 C2218 C 0.38359 0.17700 0.82343
 C2219 C 0.37139 0.18613 0.82893
 C2220 C 0.35845 0.17917 0.83572
 C2221 C 0.35757 0.16298 0.83708
 C2222 C 0.36991 0.15389 0.83160
 C2223 C 0.39674 0.18420 0.81616
 C2224 C 0.40764 0.19034 0.80997
 C2225 C 0.42026 0.19766 0.80262
 C2226 C 0.43093 0.20401 0.79624
 C2227 C 0.44352 0.21174 0.78853
 C2228 C 0.44959 0.22546 0.79464
 C2229 C 0.46152 0.23322 0.78692
 C2230 C 0.46753 0.22734 0.77296
 C2231 C 0.46144 0.21346 0.76699
 C2232 C 0.44950 0.20573 0.77473
 H2233 H 0.39222 0.15369 0.82059
 H2234 H 0.37182 0.19862 0.82788
 H2235 H 0.34903 0.18640 0.83972
 H2236 H 0.36951 0.14140 0.83261
 H2237 H 0.44502 0.23023 0.80530
 H2238 H 0.46595 0.24387 0.79183
 H2239 H 0.46580 0.20863 0.75627
 H2240 H 0.44487 0.19512 0.76988
 C2241 C 0.88265 0.66124 0.82513
 C2242 C 0.88341 0.67737 0.82377
 C2243 C 0.87122 0.68651 0.82929
 C2244 C 0.85828 0.67955 0.83607
 C2245 C 0.85738 0.66335 0.83741
 C2246 C 0.86972 0.65426 0.83191
 C2247 C 0.89656 0.68456 0.81648
 C2248 C 0.90745 0.69068 0.81027
 C2249 C 0.92007 0.69796 0.80288
 C2250 C 0.93074 0.70428 0.79646
 C2251 C 0.94333 0.71193 0.78867
 C2252 C 0.94943 0.72569 0.79468
 C2253 C 0.96137 0.73337 0.78689
 C2254 C 0.96734 0.72739 0.77296
 C2255 C 0.96121 0.71348 0.76709
 C2256 C 0.94928 0.70582 0.77490
 H2257 H 0.89202 0.65405 0.82089
 H2258 H 0.87167 0.69900 0.82826
 H2259 H 0.84886 0.68678 0.84009
 H2260 H 0.86930 0.64177 0.83290
 H2261 H 0.94489 0.73053 0.80532
 H2262 H 0.96582 0.74405 0.79172
 H2263 H 0.96555 0.70856 0.75640
 H2264 H 0.94462 0.69519 0.77014
 C2265 C 0.87124 0.18646 0.32904
 C2266 C 0.88343 0.17731 0.32352
 C2267 C 0.88266 0.16118 0.32491
 C2268 C 0.86973 0.15422 0.33173
 C2269 C 0.85740 0.16333 0.33722
 C2270 C 0.85831 0.17952 0.33585
 C2271 C 0.89657 0.18448 0.31622
 C2272 C 0.90747 0.19059 0.30999
 C2273 C 0.92009 0.19787 0.30259
 C2274 C 0.93075 0.20418 0.29618
 C2275 C 0.94334 0.21184 0.28840
 C2276 C 0.94932 0.20572 0.27464
 C2277 C 0.96125 0.21339 0.26684
 C2278 C 0.96736 0.22731 0.27270
 C2279 C 0.96135 0.23330 0.28662
 C2280 C 0.94942 0.22561 0.29439
 H2281 H 0.87169 0.19895 0.32798
 H2282 H 0.89202 0.15398 0.32068
 H2283 H 0.86931 0.14173 0.33275
 H2284 H 0.84890 0.18677 0.33986
 H2285 H 0.94468 0.19508 0.26988
 H2286 H 0.96561 0.20847 0.25616
 H2287 H 0.96579 0.24399 0.29144
 H2288 H 0.94486 0.23047 0.30502
 C2289 C 0.32920 0.31362 0.62898
 C2290 C 0.32368 0.32276 0.61679
 C2291 C 0.32507 0.33889 0.61754
 C2292 C 0.33188 0.34586 0.63046
 C2293 C 0.33737 0.33677 0.64280
 C2294 C 0.33600 0.32057 0.64191
 C2295 C 0.31637 0.31558 0.60365
 C2296 C 0.31014 0.30946 0.59276
 C2297 C 0.30272 0.30219 0.58015
 C2298 C 0.29629 0.29587 0.56950
 C2299 C 0.28850 0.28821 0.55692
 C2300 C 0.27474 0.29434 0.55095
 C2301 C 0.26693 0.28667 0.53902
 C2302 C 0.27278 0.27275 0.53291
 C2303 C 0.28670 0.26675 0.53891
 C2304 C 0.29449 0.27444 0.55084
 H2305 H 0.32814 0.30113 0.62854
 H2306 H 0.32084 0.34608 0.60817
 H2307 H 0.33290 0.35835 0.63087
 H2308 H 0.34001 0.31334 0.65133
 H2309 H 0.26999 0.30498 0.55559
 H2310 H 0.25625 0.29160 0.53467
 H2311 H 0.29151 0.25606 0.53447
 H2312 H 0.30512 0.26958 0.55539
 C2313 C 0.32486 0.83899 0.11738
 C2314 C 0.32349 0.82286 0.11666
 C2315 C 0.32899 0.81375 0.12888
 C2316 C 0.33577 0.82073 0.14181
 C2317 C 0.33712 0.83693 0.14267
 C2318 C 0.33164 0.84599 0.13031
 C2319 C 0.31622 0.81563 0.10352
 C2320 C 0.31003 0.80948 0.09263
 C2321 C 0.30266 0.80217 0.08002
 C2322 C 0.29627 0.79582 0.06936
 C2323 C 0.28851 0.78812 0.05678
 C2324 C 0.29450 0.77432 0.05076
 C2325 C 0.28674 0.76661 0.03883
 C2326 C 0.27286 0.77260 0.03277
 C2327 C 0.26700 0.78656 0.03881
 C2328 C 0.27478 0.79425 0.05074
 H2329 H 0.32064 0.84615 0.10799
 H2330 H 0.32794 0.80125 0.12847
 H2331 H 0.33977 0.81352 0.15125
 H2332 H 0.33265 0.85848 0.13069
 H2333 H 0.30511 0.76947 0.05537
 H2334 H 0.29156 0.75590 0.03445
 H2335 H 0.25634 0.79148 0.03441
 H2336 H 0.27003 0.80491 0.05533
 C2337 C 0.83906 0.32514 0.11728
 C2338 C 0.82293 0.32373 0.11651
 C2339 C 0.81376 0.32922 0.12869
 C2340 C 0.82068 0.33601 0.14164
 C2341 C 0.83688 0.33740 0.14256
 C2342 C 0.84600 0.33194 0.13023
 C2343 C 0.81577 0.31643 0.10335
 C2344 C 0.80967 0.31022 0.09244
 C2345 C 0.80239 0.30284 0.07981
 C2346 C 0.79607 0.29644 0.06914
 C2347 C 0.78839 0.28870 0.05654
 C2348 C 0.79446 0.27494 0.05054
 C2349 C 0.78677 0.26717 0.03860
 C2350 C 0.77285 0.27308 0.03252
 C2351 C 0.76691 0.28701 0.03854
 C2352 C 0.77463 0.29475 0.05048
 H2353 H 0.84626 0.32093 0.10792
 H2354 H 0.80127 0.32814 0.12823
 H2355 H 0.81343 0.34000 0.15105
 H2356 H 0.85848 0.33297 0.13066
 H2357 H 0.80509 0.27014 0.05517
 H2358 H 0.79165 0.25648 0.03423
 H2359 H 0.75623 0.29187 0.03412
 H2360 H 0.76981 0.30539 0.05506
 C2361 C 0.82915 0.81362 0.62862
 C2362 C 0.82366 0.82279 0.61644
 C2363 C 0.82506 0.83892 0.61722
 C2364 C 0.83185 0.84586 0.63018
 C2365 C 0.83733 0.83674 0.64250
 C2366 C 0.83595 0.82054 0.64157
 C2367 C 0.81637 0.81564 0.60327
 C2368 C 0.81017 0.80954 0.59236
 C2369 C 0.80279 0.80227 0.57972
 C2370 C 0.79638 0.79597 0.56905
 C2371 C 0.78862 0.78831 0.55644
 C2372 C 0.77490 0.79446 0.55041
 C2373 C 0.76711 0.78680 0.53847
 C2374 C 0.77296 0.77285 0.53240
 C2375 C 0.78684 0.76683 0.53845
 C2376 C 0.79461 0.77452 0.55040
 H2377 H 0.82809 0.80113 0.62815
 H2378 H 0.82084 0.84613 0.60786
 H2379 H 0.83288 0.85835 0.63061
 H2380 H 0.83994 0.81329 0.65098
 H2381 H 0.77016 0.80512 0.55502
 H2382 H 0.75646 0.79174 0.53407
 H2383 H 0.79165 0.75613 0.53405
 H2384 H 0.80521 0.76965 0.55500
 C2385 C 0.31351 0.67060 0.37122
 C2386 C 0.32264 0.67612 0.38342
 C2387 C 0.33878 0.67475 0.38268
 C2388 C 0.34576 0.66796 0.36975
 C2389 C 0.33668 0.66247 0.35740
 C2390 C 0.32048 0.66382 0.35829
 C2391 C 0.31545 0.68341 0.39656
 C2392 C 0.30932 0.68962 0.40745
 C2393 C 0.30203 0.69702 0.42007
 C2394 C 0.29571 0.70343 0.43073
 C2395 C 0.28804 0.71121 0.44331
 C2396 C 0.29419 0.72493 0.44934
 C2397 C 0.28652 0.73273 0.46127
 C2398 C 0.27256 0.72690 0.46733
 C2399 C 0.26654 0.71302 0.46127
 C2400 C 0.27423 0.70524 0.44934
 H2401 H 0.30102 0.67165 0.37166
 H2402 H 0.34596 0.67898 0.39205
 H2403 H 0.35825 0.66696 0.36934
 H2404 H 0.31325 0.65981 0.34886
 H2405 H 0.30486 0.72966 0.44474
 H2406 H 0.29146 0.74338 0.46567
 H2407 H 0.25582 0.70822 0.46567
 H2408 H 0.26935 0.69464 0.44475
 C2409 C 0.33892 0.17479 0.88258
 C2410 C 0.32279 0.17619 0.88330
 C2411 C 0.31367 0.17068 0.87109
 C2412 C 0.32063 0.16388 0.85817
 C2413 C 0.33683 0.16250 0.85731
 C2414 C 0.34591 0.16798 0.86966
 C2415 C 0.31558 0.18348 0.89644
 C2416 C 0.30944 0.18969 0.90732
 C2417 C 0.30214 0.19708 0.91993
 C2418 C 0.29580 0.20349 0.93058
 C2419 C 0.28811 0.21126 0.94316
 C2420 C 0.29423 0.22500 0.94918
 C2421 C 0.28655 0.23279 0.96111
 C2422 C 0.27260 0.22693 0.96716
 C2423 C 0.26660 0.21304 0.96112
 C2424 C 0.27432 0.20527 0.94919
 H2425 H 0.34609 0.17901 0.89196
 H2426 H 0.30117 0.17175 0.87151
 H2427 H 0.31342 0.15988 0.84874
 H2428 H 0.35840 0.16696 0.86928
 H2429 H 0.30489 0.22975 0.94458
 H2430 H 0.29147 0.24345 0.96550
 H2431 H 0.25590 0.20822 0.96551
 H2432 H 0.26946 0.19465 0.94460
 C2433 C 0.81345 0.67100 0.87141
 C2434 C 0.82257 0.67647 0.88364
 C2435 C 0.83870 0.67508 0.88292
 C2436 C 0.84570 0.66830 0.86999
 C2437 C 0.83663 0.66285 0.85762
 C2438 C 0.82043 0.66423 0.85847
 C2439 C 0.81535 0.68373 0.89679
 C2440 C 0.80920 0.68991 0.90768
 C2441 C 0.80188 0.69725 0.92031
 C2442 C 0.79552 0.70362 0.93097
 C2443 C 0.78781 0.71135 0.94356
 C2444 C 0.79386 0.72511 0.94958
 C2445 C 0.78614 0.73286 0.96152
 C2446 C 0.77223 0.72693 0.96758
 C2447 C 0.76630 0.71301 0.96153
 C2448 C 0.77405 0.70528 0.94960
 H2449 H 0.80096 0.67207 0.87182
 H2450 H 0.84587 0.67927 0.89232
 H2451 H 0.85819 0.66727 0.86961
 H2452 H 0.81321 0.66025 0.84903
 H2453 H 0.80450 0.72992 0.94498
 H2454 H 0.79101 0.74355 0.96591
 H2455 H 0.75562 0.70813 0.96593
 H2456 H 0.76925 0.69464 0.94501
 C2457 C 0.83881 0.17517 0.38273
 C2458 C 0.82268 0.17658 0.38347
 C2459 C 0.81354 0.17109 0.37127
 C2460 C 0.82049 0.16428 0.35834
 C2461 C 0.83668 0.16289 0.35746
 C2462 C 0.84578 0.16836 0.36981
 C2463 C 0.81548 0.18387 0.39662
 C2464 C 0.80935 0.19007 0.40751
 C2465 C 0.80204 0.19744 0.42013
 C2466 C 0.79569 0.20382 0.43079
 C2467 C 0.78798 0.21155 0.44338
 C2468 C 0.77419 0.20552 0.44938
 C2469 C 0.76644 0.21325 0.46131
 C2470 C 0.77240 0.22714 0.46740
 C2471 C 0.78635 0.23304 0.46137
 C2472 C 0.79407 0.22528 0.44944
 H2473 H 0.84599 0.17939 0.39211
 H2474 H 0.80105 0.17217 0.37170
 H2475 H 0.81326 0.16029 0.34892
 H2476 H 0.85826 0.16733 0.36941
 H2477 H 0.76936 0.19491 0.44476
 H2478 H 0.75574 0.20840 0.46568
 H2479 H 0.79125 0.24370 0.46579
 H2480 H 0.80473 0.23006 0.44486
 C2481 C 0.68630 0.32906 0.37136
 C2482 C 0.67715 0.32354 0.38354
 C2483 C 0.66102 0.32493 0.38278
 C2484 C 0.65406 0.33176 0.36985
 C2485 C 0.66317 0.33725 0.35753
 C2486 C 0.67937 0.33587 0.35843
 C2487 C 0.68433 0.31622 0.39668
 C2488 C 0.69044 0.30999 0.40757
 C2489 C 0.69772 0.30259 0.42018
 C2490 C 0.70403 0.29616 0.43084
 C2491 C 0.71170 0.28838 0.44342
 C2492 C 0.70559 0.27461 0.44939
 C2493 C 0.71326 0.26680 0.46132
 C2494 C 0.72719 0.27267 0.46742
 C2495 C 0.73317 0.28659 0.46142
 C2496 C 0.72547 0.29437 0.44950
 H2497 H 0.69879 0.32799 0.37181
 H2498 H 0.65383 0.32070 0.39214
 H2499 H 0.64158 0.33278 0.36944
 H2500 H 0.68661 0.33989 0.34902
 H2501 H 0.69495 0.26985 0.44475
 H2502 H 0.70835 0.25612 0.46567
 H2503 H 0.74386 0.29142 0.46586
 H2504 H 0.73032 0.30501 0.44494
 C2505 C 0.67494 0.83869 0.88289
 C2506 C 0.67632 0.82255 0.88363
 C2507 C 0.67082 0.81342 0.87142
 C2508 C 0.66403 0.82038 0.85849
 C2509 C 0.66267 0.83658 0.85760
 C2510 C 0.66815 0.84567 0.86995
 C2511 C 0.68359 0.81535 0.89678
 C2512 C 0.68978 0.80921 0.90767
 C2513 C 0.69714 0.80190 0.92030
 C2514 C 0.70351 0.79555 0.93096
 C2515 C 0.71124 0.78784 0.94355
 C2516 C 0.70519 0.77408 0.94959
 C2517 C 0.71292 0.76635 0.96153
 C2518 C 0.72684 0.77228 0.96757
 C2519 C 0.73276 0.78620 0.96151
 C2520 C 0.72501 0.79391 0.94957
 H2521 H 0.67916 0.84586 0.89227
 H2522 H 0.67187 0.80093 0.87185
 H2523 H 0.66003 0.81316 0.84906
 H2524 H 0.66714 0.85815 0.86956
 H2525 H 0.69455 0.76927 0.94500
 H2526 H 0.70805 0.75566 0.96593
 H2527 H 0.74345 0.79107 0.96590
 H2528 H 0.72981 0.80454 0.94496
 C2529 C 0.18629 0.32883 0.87115
 C2530 C 0.17717 0.32330 0.88335
 C2531 C 0.16104 0.32468 0.88263
 C2532 C 0.15405 0.33151 0.86972
 C2533 C 0.16312 0.33702 0.85738
 C2534 C 0.17932 0.33565 0.85824
 C2535 C 0.18439 0.31599 0.89648
 C2536 C 0.19053 0.30977 0.90735
 C2537 C 0.19785 0.30238 0.91995
 C2538 C 0.20420 0.29597 0.93060
 C2539 C 0.21190 0.28820 0.94317
 C2540 C 0.22570 0.29419 0.94919
 C2541 C 0.23342 0.28642 0.96111
 C2542 C 0.22743 0.27253 0.96716
 C2543 C 0.21348 0.26667 0.96112
 C2544 C 0.20578 0.27446 0.94920
 H2545 H 0.19879 0.32778 0.87157
 H2546 H 0.15387 0.32044 0.89201
 H2547 H 0.14156 0.33252 0.86934
 H2548 H 0.18653 0.33968 0.84882
 H2549 H 0.23055 0.30480 0.94459
 H2550 H 0.24413 0.29124 0.96550
 H2551 H 0.20856 0.25601 0.96551
 H2552 H 0.19512 0.26971 0.94460
 C2553 C 0.18652 0.82906 0.37135
 C2554 C 0.17739 0.82351 0.38353
 C2555 C 0.16126 0.82489 0.38280
 C2556 C 0.15427 0.83172 0.36988
 C2557 C 0.16336 0.83724 0.35755
 C2558 C 0.17956 0.83588 0.35843
 C2559 C 0.18459 0.81619 0.39666
 C2560 C 0.19072 0.80996 0.40753
 C2561 C 0.19801 0.80254 0.42013
 C2562 C 0.20434 0.79611 0.43078
 C2563 C 0.21202 0.78831 0.44335
 C2564 C 0.22582 0.79427 0.44938
 C2565 C 0.23352 0.78648 0.46130
 C2566 C 0.22750 0.77260 0.46734
 C2567 C 0.21354 0.76677 0.46128
 C2568 C 0.20587 0.77458 0.44936
 H2569 H 0.19901 0.82801 0.37178
 H2570 H 0.15408 0.82064 0.39216
 H2571 H 0.14179 0.83273 0.36949
 H2572 H 0.18678 0.83991 0.34902
 H2573 H 0.23070 0.80488 0.44479
 H2574 H 0.24424 0.79128 0.46570
 H2575 H 0.20860 0.75612 0.46567
 H2576 H 0.19520 0.76986 0.44476
 C2577 C 0.67097 0.68671 0.62840
 C2578 C 0.67649 0.67759 0.61620
 C2579 C 0.67510 0.66146 0.61693
 C2580 C 0.66829 0.65447 0.62984
 C2581 C 0.66280 0.66355 0.64219
 C2582 C 0.66417 0.67975 0.64132
 C2583 C 0.68380 0.68480 0.60307
 C2584 C 0.69002 0.69093 0.59219
 C2585 C 0.69742 0.69823 0.57958
 C2586 C 0.70384 0.70457 0.56893
 C2587 C 0.71162 0.71225 0.55636
 C2588 C 0.72535 0.70612 0.55034
 C2589 C 0.73315 0.71380 0.53842
 C2590 C 0.72731 0.72776 0.53237
 C2591 C 0.71343 0.73376 0.53842
 C2592 C 0.70565 0.72606 0.55034
 H2593 H 0.67203 0.69921 0.62798
 H2594 H 0.67934 0.65429 0.60755
 H2595 H 0.66728 0.64198 0.63023
 H2596 H 0.66015 0.68697 0.65075
 H2597 H 0.73009 0.69545 0.55494
 H2598 H 0.74381 0.70887 0.53403
 H2599 H 0.70862 0.74448 0.53402
 H2600 H 0.69504 0.73092 0.55493
 C2601 C 0.66120 0.17545 0.11708
 C2602 C 0.67733 0.17686 0.11634
 C2603 C 0.68647 0.17133 0.12853
 C2604 C 0.67952 0.16450 0.14144
 C2605 C 0.66333 0.16310 0.14232
 C2606 C 0.65423 0.16861 0.12999
 C2607 C 0.68452 0.18419 0.10322
 C2608 C 0.69064 0.19043 0.09234
 C2609 C 0.69794 0.19783 0.07974
 C2610 C 0.70428 0.20424 0.06909
 C2611 C 0.71199 0.21200 0.05652
 C2612 C 0.72576 0.20596 0.05047
 C2613 C 0.73349 0.21371 0.03855
 C2614 C 0.72756 0.22764 0.03252
 C2615 C 0.71364 0.23355 0.03859
 C2616 C 0.70592 0.22577 0.05052
 H2617 H 0.65401 0.17969 0.10772
 H2618 H 0.69896 0.17241 0.12810
 H2619 H 0.68675 0.16047 0.15085
 H2620 H 0.64174 0.16758 0.13039
 H2621 H 0.73057 0.19532 0.05505
 H2622 H 0.74418 0.20885 0.03414
 H2623 H 0.70876 0.24423 0.03422
 H2624 H 0.69529 0.23056 0.05513
 C2625 C 0.17514 0.66106 0.11733
 C2626 C 0.17653 0.67720 0.11662
 C2627 C 0.17103 0.68631 0.12884
 C2628 C 0.16423 0.67933 0.14175
 C2629 C 0.16285 0.66313 0.14260
 C2630 C 0.16833 0.65406 0.13024
 C2631 C 0.18382 0.68442 0.10349
 C2632 C 0.19003 0.69057 0.09261
 C2633 C 0.19742 0.69789 0.08000
 C2634 C 0.20382 0.70423 0.06935
 C2635 C 0.21159 0.71193 0.05678
 C2636 C 0.22532 0.70580 0.05075
 C2637 C 0.23312 0.71349 0.03883
 C2638 C 0.22726 0.72744 0.03278
 C2639 C 0.21337 0.73344 0.03883
 C2640 C 0.20560 0.72572 0.05075
 H2641 H 0.17936 0.65390 0.10793
 H2642 H 0.17210 0.69880 0.12843
 H2643 H 0.16023 0.68653 0.15119
 H2644 H 0.16731 0.64158 0.13061
 H2645 H 0.23007 0.69514 0.05535
 H2646 H 0.24377 0.70857 0.03443
 H2647 H 0.20855 0.74415 0.03444
 H2648 H 0.19499 0.73058 0.05535
 C2649 C 0.17091 0.18632 0.62887
 C2650 C 0.17644 0.17721 0.61666
 C2651 C 0.17506 0.16108 0.61737
 C2652 C 0.16823 0.15407 0.63027
 C2653 C 0.16272 0.16314 0.64262
 C2654 C 0.16409 0.17934 0.64177
 C2655 C 0.18376 0.18444 0.60355
 C2656 C 0.18998 0.19059 0.59268
 C2657 C 0.19738 0.19792 0.58009
 C2658 C 0.20379 0.20428 0.56945
 C2659 C 0.21155 0.21200 0.55689
 C2660 C 0.22529 0.20590 0.55084
 C2661 C 0.23307 0.21362 0.53893
 C2662 C 0.22719 0.22758 0.53290
 C2663 C 0.21329 0.23354 0.53897
 C2664 C 0.20554 0.22580 0.55089
 H2665 H 0.17197 0.19881 0.62847
 H2666 H 0.17930 0.15392 0.60799
 H2667 H 0.16722 0.14159 0.63064
 H2668 H 0.16006 0.18654 0.65120
 H2669 H 0.23005 0.19524 0.55542
 H2670 H 0.24373 0.20872 0.53452
 H2671 H 0.20846 0.24425 0.53460
 H2672 H 0.19493 0.23063 0.55550
   
