data_POSCAR
  _audit_creation_date              2014-09-24
  _audit_creation_method            'ToBaCCo'
  _symmetry_space_group_name_H-M    'P1'
  _symmetry_Int_Tables_number       1
  _symmetry_cell_setting            triclinic
  loop_
  _symmetry_equiv_pos_as_xyz
 x,y,z
_cell_length_a 118.4224
_cell_length_b 118.3699
_cell_length_c 118.5356
_cell_angle_alpha 90.074200
_cell_angle_beta 90.030900
_cell_angle_gamma 90.040600
loop_
  _atom_site_label
  _atom_site_type_symbol
  _atom_site_fract_x
  _atom_site_fract_y
  _atom_site_fract_z
N1 N 0.31552 0.42697 0.90335
 N2 N 0.32345 0.43476 0.90342
 C3 C 0.32160 0.44202 0.89487
 C4 C 0.31203 0.43854 0.88922
 C5 C 0.30836 0.42900 0.89476
 H6 H 0.32672 0.44933 0.89293
 H7 H 0.30099 0.42398 0.89275
 Cu8 Cu 0.33522 0.43474 0.91488
 Cu9 Cu 0.31489 0.41495 0.91455
 Cu10 Cu 0.33593 0.41475 0.93494
 N11 N 0.34704 0.43454 0.92629
 N12 N 0.34726 0.42667 0.93412
 C13 C 0.35608 0.42855 0.94105
 C14 C 0.36161 0.43808 0.93733
 C15 C 0.35573 0.44172 0.92798
 H16 H 0.35821 0.42345 0.94832
 H17 H 0.35757 0.44908 0.92291
 N18 N 0.32372 0.40343 0.93436
 N19 N 0.31571 0.40351 0.92659
 C20 C 0.30853 0.39490 0.92859
 C21 C 0.31224 0.38922 0.93802
 C22 C 0.32185 0.39478 0.94149
 H23 H 0.30109 0.39297 0.92366
 H24 H 0.32699 0.39273 0.94875
 H25 H 0.32305 0.42368 0.92726
 H26 H 0.33199 0.41464 0.91796
 N27 N 0.42627 0.84779 0.43392
 N28 N 0.43406 0.84774 0.42599
 C29 C 0.44119 0.85646 0.42774
 C30 C 0.43762 0.86218 0.43722
 C31 C 0.42817 0.85652 0.44097
 H32 H 0.44848 0.85843 0.42261
 H33 H 0.42314 0.85852 0.44832
 Cu34 Cu 0.43420 0.83610 0.41439
 Cu35 Cu 0.41443 0.83639 0.43469
 Cu36 Cu 0.41448 0.81569 0.41393
 N37 N 0.43411 0.82452 0.40270
 N38 N 0.42635 0.81656 0.40259
 C39 C 0.42827 0.80957 0.39383
 C40 C 0.43771 0.81337 0.38822
 C41 C 0.44125 0.82284 0.39401
 H42 H 0.42325 0.80221 0.39177
 H43 H 0.44852 0.82802 0.39207
 N44 N 0.40318 0.81625 0.42613
 N45 N 0.40316 0.82413 0.43404
 C46 C 0.39458 0.82211 0.44122
 C47 C 0.38900 0.81255 0.43762
 C48 C 0.39461 0.80902 0.42808
 H49 H 0.39257 0.82714 0.44857
 H50 H 0.39263 0.80167 0.42301
 H51 H 0.42332 0.82369 0.42669
 H52 H 0.41415 0.83275 0.41765
 N53 N 0.92632 0.90332 0.81581
 N54 N 0.93417 0.90343 0.82367
 C55 C 0.94147 0.89491 0.82173
 C56 C 0.93795 0.88926 0.81218
 C57 C 0.92835 0.89476 0.80861
 H58 H 0.94883 0.89300 0.82679
 H59 H 0.92329 0.89273 0.80128
 Cu60 Cu 0.93412 0.91487 0.83547
 Cu61 Cu 0.91419 0.91443 0.81533
 Cu62 Cu 0.91402 0.93482 0.83641
 N63 N 0.93398 0.92627 0.84730
 N64 N 0.92606 0.93407 0.84760
 C65 C 0.92798 0.94102 0.85640
 C66 C 0.93758 0.93733 0.86183
 C67 C 0.94122 0.92800 0.85591
 H68 H 0.92286 0.94826 0.85861
 H69 H 0.94862 0.92295 0.85767
 N70 N 0.90258 0.93414 0.82433
 N71 N 0.90265 0.92638 0.81630
 C72 C 0.89393 0.92828 0.80924
 C73 C 0.88818 0.93765 0.81303
 C74 C 0.89381 0.94119 0.82257
 H75 H 0.89197 0.92332 0.80183
 H76 H 0.89173 0.94842 0.82775
 H77 H 0.92289 0.92722 0.82345
 H78 H 0.91399 0.91783 0.83242
 N79 N 0.42589 -0.09740 0.31622
 N80 N 0.43378 -0.09719 0.32404
 C81 C 0.44101 -0.10578 0.32224
 C82 C 0.43741 -0.11160 0.31283
 C83 C 0.42783 -0.10612 0.30919
 H84 H 0.44839 -0.10763 0.32729
 H85 H 0.42273 -0.10824 0.30191
 Cu86 Cu 0.43391 -0.08552 0.33561
 Cu87 Cu 0.41386 -0.08619 0.31557
 Cu88 Cu 0.41390 -0.06545 0.33628
 N89 N 0.43381 -0.07393 0.34726
 N90 N 0.42593 -0.06610 0.34746
 C91 C 0.42787 -0.05906 0.35618
 C92 C 0.43744 -0.06271 0.36168
 C93 C 0.44103 -0.07214 0.35587
 H94 H 0.42277 -0.05179 0.35831
 H95 H 0.44839 -0.07721 0.35773
 N96 N 0.40245 -0.06622 0.32423
 N97 N 0.40243 -0.07412 0.31635
 C98 C 0.39372 -0.07225 0.30927
 C99 C 0.38807 -0.06277 0.31292
 C100 C 0.39375 -0.05912 0.32237
 H101 H 0.39168 -0.07732 0.30195
 H102 H 0.39176 -0.05178 0.32743
 H103 H 0.42268 -0.07333 0.32342
 H104 H 0.41377 -0.08252 0.33261
 N105 N 0.81618 0.32422 0.34765
 N106 N 0.82398 0.31631 0.34749
 C107 C 0.82215 0.30911 0.35610
 C108 C 0.81273 0.31276 0.36187
 C109 C 0.80912 0.32233 0.35635
 H110 H 0.82719 0.30174 0.35799
 H111 H 0.80186 0.32746 0.35844
 Cu112 Cu 0.83559 0.31614 0.33588
 Cu113 Cu 0.81559 0.33624 0.33645
 Cu114 Cu 0.83638 0.33616 0.31584
 N115 N 0.84730 0.31622 0.32437
 N116 N 0.84754 0.32410 0.31655
 C117 C 0.85629 0.32215 0.30957
 C118 C 0.86176 0.31256 0.31324
 C119 C 0.85590 0.30898 0.32262
 H120 H 0.85846 0.32724 0.30231
 H121 H 0.85772 0.30161 0.32768
 N122 N 0.82435 0.34764 0.31655
 N123 N 0.81643 0.34766 0.32440
 C124 C 0.80938 0.35639 0.32251
 C125 C 0.81308 0.36205 0.31307
 C126 C 0.82255 0.35635 0.30947
 H127 H 0.80204 0.35844 0.32754
 H128 H 0.82765 0.35835 0.30218
 H129 H 0.82347 0.32739 0.32364
 H130 H 0.83266 0.33629 0.33287
 N131 N -0.17642 0.84756 0.81567
 N132 N -0.18407 0.84764 0.82373
 C133 C -0.19122 0.85633 0.82198
 C134 C -0.18780 0.86189 0.81236
 C135 C -0.17842 0.85617 0.80854
 H136 H -0.19842 0.85837 0.82721
 H137 H -0.17351 0.85806 0.80108
 Cu138 Cu -0.18416 0.83626 0.83556
 Cu139 Cu -0.16464 0.83613 0.81488
 Cu140 Cu -0.16489 0.81532 0.83540
 N141 N -0.18438 0.82423 0.84675
 N142 N -0.17682 0.81609 0.84665
 C143 C -0.17903 0.80884 0.85511
 C144 C -0.18845 0.81266 0.86075
 C145 C -0.19167 0.82241 0.85528
 H146 H -0.17422 0.80129 0.85697
 H147 H -0.19884 0.82769 0.85731
 N148 N -0.15349 0.81595 0.82332
 N149 N -0.15340 0.82388 0.81548
 C150 C -0.14478 0.82189 0.80834
 C151 C -0.13925 0.81230 0.81189
 C152 C -0.14493 0.80872 0.82137
 H153 H -0.14271 0.82696 0.80104
 H154 H -0.14300 0.80134 0.82638
 H155 H -0.17386 0.82366 0.82294
 H156 H -0.16424 0.83241 0.83190
 N157 N 0.93399 0.34776 0.42600
 N158 N 0.92612 0.34759 0.43383
 C159 C 0.92790 0.35619 0.44109
 C160 C 0.93735 0.36197 0.43754
 C161 C 0.94105 0.35647 0.42799
 H162 H 0.92281 0.35804 0.44843
 H163 H 0.94838 0.35855 0.42295
 Cu164 Cu 0.91453 0.33593 0.43389
 Cu165 Cu 0.93470 0.33653 0.41400
 Cu166 Cu 0.91396 0.31579 0.41393
 N167 N 0.90288 0.32434 0.43376
 N168 N 0.90271 0.31648 0.42590
 C169 C 0.89399 0.30944 0.42782
 C170 C 0.88845 0.31311 0.43735
 C171 C 0.89425 0.32256 0.44095
 H172 H 0.89189 0.30214 0.42273
 H173 H 0.89236 0.32765 0.44829
 N174 N 0.92607 0.31653 0.40255
 N175 N 0.93397 0.32442 0.40258
 C176 C 0.94110 0.32253 0.39392
 C177 C 0.93747 0.31304 0.38825
 C178 C 0.92797 0.30941 0.39388
 H179 H 0.94844 0.32759 0.39193
 H180 H 0.92291 0.30208 0.39184
 H181 H 0.91766 0.33285 0.41379
 H182 H 0.92679 0.32369 0.42277
 N183 N 0.43386 0.42585 0.84716
 N184 N 0.42587 0.43357 0.84718
 C185 C 0.42769 0.44079 0.85579
 C186 C 0.43729 0.43736 0.86138
 C187 C 0.44103 0.42789 0.85575
 H188 H 0.42252 0.44805 0.85778
 H189 H 0.44844 0.42293 0.85769
 Cu190 Cu 0.41399 0.43368 0.83583
 Cu191 Cu 0.43451 0.41393 0.83589
 Cu192 Cu 0.41408 0.41427 0.81498
 N193 N 0.40293 0.43396 0.82369
 N194 N 0.40301 0.42638 0.81557
 C195 C 0.39462 0.42867 0.80825
 C196 C 0.38907 0.43817 0.81201
 C197 C 0.39450 0.44135 0.82180
 H198 H 0.39275 0.42385 0.80072
 H199 H 0.39250 0.44855 0.82706
 N200 N 0.42597 0.40269 0.81580
 N201 N 0.43377 0.40256 0.82377
 C202 C 0.44077 0.39378 0.82194
 C203 C 0.43716 0.38819 0.81240
 C204 C 0.42780 0.39399 0.80868
 H205 H 0.44801 0.39165 0.82707
 H206 H 0.42279 0.39207 0.80130
 H207 H 0.42658 0.42318 0.82337
 H208 H 0.41747 0.41369 0.83208
 N209 N 0.81585 0.90312 0.92628
 N210 N 0.82375 0.90331 0.93409
 C211 C 0.82187 0.89485 0.94145
 C212 C 0.81233 0.88913 0.93801
 C213 C 0.80869 0.89453 0.92839
 H214 H 0.82697 0.89302 0.94879
 H215 H 0.80134 0.89244 0.92338
 Cu216 Cu 0.83550 0.91480 0.93394
 Cu217 Cu 0.81526 0.91414 0.91411
 Cu218 Cu 0.83629 0.93459 0.91370
 N219 N 0.84730 0.92623 0.93364
 N220 N 0.84756 0.93395 0.92566
 C221 C 0.85633 0.94096 0.92752
 C222 C 0.86180 0.93740 0.93713
 C223 C 0.85592 0.92807 0.94084
 H224 H 0.85847 0.94818 0.92236
 H225 H 0.85771 0.92313 0.94830
 N226 N 0.82414 0.93381 0.90234
 N227 N 0.81613 0.92603 0.90250
 C228 C 0.80900 0.92788 0.89384
 C229 C 0.81273 0.93722 0.88803
 C230 C 0.82231 0.94081 0.89357
 H231 H 0.80157 0.92290 0.89195
 H232 H 0.82745 0.94805 0.89144
 H233 H 0.83236 0.91758 0.91381
 H234 H 0.82337 0.92702 0.92267
 N235 N 0.31608 0.84710 0.32367
 N236 N 0.32401 0.84700 0.31589
 C237 C 0.32228 0.85567 0.30874
 C238 C 0.31281 0.86142 0.31227
 C239 C 0.30905 0.85582 0.32174
 H240 H 0.32743 0.85761 0.30146
 H241 H 0.30171 0.85787 0.32675
 Cu242 Cu 0.33561 0.83537 0.31580
 Cu243 Cu 0.31528 0.83577 0.33555
 Cu244 Cu 0.33605 0.81512 0.33562
 N245 N 0.34730 0.82383 0.31597
 N246 N 0.34742 0.81593 0.32377
 C247 C 0.35617 0.80893 0.32188
 C248 C 0.36178 0.81267 0.31242
 C249 C 0.35600 0.82211 0.30884
 H250 H 0.35823 0.80160 0.32692
 H251 H 0.35792 0.82723 0.30154
 N252 N 0.32382 0.81573 0.34688
 N253 N 0.31591 0.82360 0.34685
 C254 C 0.30869 0.82161 0.35540
 C255 C 0.31227 0.81208 0.36101
 C256 C 0.32184 0.80854 0.35546
 H257 H 0.30132 0.82663 0.35737
 H258 H 0.32689 0.80120 0.35747
 H259 H 0.33234 0.83217 0.33584
 H260 H 0.32329 0.82302 0.32673
 N261 N 0.81638 0.40232 0.42564
 N262 N 0.82435 0.40246 0.43338
 C263 C 0.82264 0.39383 0.44060
 C264 C 0.81314 0.38806 0.43713
 C265 C 0.80934 0.39361 0.42766
 H266 H 0.82781 0.39194 0.44787
 H267 H 0.80196 0.39154 0.42268
 Cu268 Cu 0.83597 0.41408 0.43342
 Cu269 Cu 0.81556 0.41358 0.41370
 Cu270 Cu 0.83623 0.43437 0.41360
 N271 N 0.84751 0.42578 0.43328
 N272 N 0.84756 0.43369 0.42549
 C273 C 0.85621 0.44082 0.42743
 C274 C 0.86184 0.43714 0.43691
 C275 C 0.85616 0.42762 0.44045
 H276 H 0.85820 0.44818 0.42241
 H277 H 0.85812 0.42252 0.44776
 N278 N 0.82405 0.43361 0.40229
 N279 N 0.81618 0.42569 0.40233
 C280 C 0.80901 0.42755 0.39369
 C281 C 0.81259 0.43705 0.38803
 C282 C 0.82210 0.44071 0.39363
 H283 H 0.80169 0.42246 0.39170
 H284 H 0.82714 0.44804 0.39158
 H285 H 0.83261 0.41729 0.41338
 H286 H 0.82355 0.42637 0.42254
 N287 N 0.92562 0.84717 -0.06647
 N288 N 0.93353 0.84696 -0.07425
 C289 C 0.94135 0.85486 -0.07183
 C290 C 0.93810 0.86026 -0.06204
 C291 C 0.92809 0.85526 -0.05885
 H292 H 0.94873 0.85667 -0.07690
 H293 H 0.92290 0.85742 -0.05165
 Cu294 Cu 0.93256 0.83678 -0.08708
 Cu295 Cu 0.91248 0.83733 -0.06717
 Cu296 Cu 0.91533 0.81425 -0.08504
 N297 N 0.93402 0.82390 -0.09711
 N298 N 0.92739 0.81503 -0.09617
 C299 C 0.93022 0.80739 -0.10410
 C300 C 0.93907 0.81173 -0.11026
 C301 C 0.94132 0.82220 -0.10567
 H302 H 0.92606 0.79935 -0.10538
 H303 H 0.94772 0.82813 -0.10835
 N304 N 0.90360 0.81523 -0.07329
 N305 N 0.90239 0.82412 -0.06665
 C306 C 0.89363 0.82233 -0.05963
 C307 C 0.88916 0.81185 -0.06203
 C308 C 0.89560 0.80755 -0.07069
 H309 H 0.89078 0.82816 -0.05320
 H310 H 0.89451 0.79946 -0.07479
 H311 H 0.92287 0.82500 -0.07337
 H312 H 0.91280 0.83125 -0.08371
 N313 N 0.31552 0.34678 0.82333
 N314 N 0.32370 0.34692 0.81583
 C315 C 0.32193 0.35550 0.80858
 C316 C 0.31215 0.36094 0.81177
 C317 C 0.30827 0.35525 0.82112
 H318 H 0.32726 0.35758 0.80148
 H319 H 0.30070 0.35708 0.82589
 Cu320 Cu 0.33576 0.33576 0.81609
 Cu321 Cu 0.31471 0.33548 0.83520
 Cu322 Cu 0.33557 0.31499 0.83552
 N323 N 0.34715 0.32391 0.81620
 N324 N 0.34704 0.31583 0.82381
 C325 C 0.35568 0.30871 0.82184
 C326 C 0.36146 0.31257 0.81253
 C327 C 0.35588 0.32219 0.80911
 H328 H 0.35757 0.30124 0.82674
 H329 H 0.35798 0.32745 0.80196
 N330 N 0.32326 0.31554 0.84667
 N331 N 0.31531 0.32337 0.84655
 C332 C 0.30805 0.32139 0.85508
 C333 C 0.31165 0.31192 0.86076
 C334 C 0.32127 0.30839 0.85528
 H335 H 0.30066 0.32640 0.85699
 H336 H 0.32636 0.30111 0.85738
 H337 H 0.33181 0.33203 0.83596
 H338 H 0.32316 0.32306 0.82626
 N339 N 0.15299 0.57379 0.56583
 N340 N 0.15313 0.56595 0.57369
 C341 C 0.14461 0.55863 0.57179
 C342 C 0.13891 0.56213 0.56228
 C343 C 0.14439 0.57174 0.55868
 H344 H 0.14275 0.55127 0.57685
 H345 H 0.14234 0.57678 0.55135
 Cu346 Cu 0.16465 0.56599 0.58540
 Cu347 Cu 0.16413 0.58590 0.56526
 Cu348 Cu 0.18466 0.58609 0.58618
 N349 N 0.17611 0.56619 0.59717
 N350 N 0.18392 0.57410 0.59740
 C351 C 0.19089 0.57222 0.60619
 C352 C 0.18721 0.56266 0.61169
 C353 C 0.17785 0.55901 0.60581
 H354 H 0.19814 0.57735 0.60834
 H355 H 0.17279 0.55163 0.60764
 N356 N 0.18396 0.59749 0.57408
 N357 N 0.17613 0.59742 0.56612
 C358 C 0.17802 0.60612 0.55904
 C359 C 0.18744 0.61185 0.56275
 C360 C 0.19102 0.60623 0.57226
 H361 H 0.17302 0.60809 0.55167
 H362 H 0.19830 0.60830 0.57738
 H363 H 0.17694 0.57719 0.57328
 H364 H 0.16764 0.58613 0.58233
 N365 N 0.59700 0.67659 0.06549
 N366 N 0.59715 0.68420 0.07358
 C367 C 0.60582 0.69136 0.07181
 C368 C 0.61132 0.68800 0.06213
 C369 C 0.60557 0.67863 0.05831
 H370 H 0.60793 0.69853 0.07709
 H371 H 0.60743 0.67374 0.05083
 Cu372 Cu 0.58591 0.68427 0.08556
 Cu373 Cu 0.58565 0.66475 0.06476
 Cu374 Cu 0.56478 0.66511 0.08518
 N375 N 0.57369 0.68462 0.09651
 N376 N 0.56547 0.67714 0.09633
 C377 C 0.55813 0.67947 0.10469
 C378 C 0.56200 0.68888 0.11035
 C379 C 0.57185 0.69197 0.10500
 H380 H 0.55053 0.67473 0.10648
 H381 H 0.57721 0.69907 0.10710
 N382 N 0.56550 0.65359 0.07322
 N383 N 0.57346 0.65346 0.06542
 C384 C 0.57153 0.64476 0.05832
 C385 C 0.56193 0.63924 0.06187
 C386 C 0.55829 0.64498 0.07129
 H387 H 0.57663 0.64266 0.05105
 H388 H 0.55088 0.64309 0.07628
 H389 H 0.57326 0.67410 0.07283
 H390 H 0.58188 0.66437 0.08179
 N391 N 0.67681 0.18469 0.65330
 N392 N 0.68443 0.17660 0.65323
 C393 C 0.69169 0.17842 0.64467
 C394 C 0.68837 0.18811 0.63915
 C395 C 0.67894 0.19190 0.64479
 H396 H 0.69891 0.17321 0.64267
 H397 H 0.67409 0.19941 0.64293
 Cu398 Cu 0.68442 0.16468 0.66451
 Cu399 Cu 0.66494 0.18545 0.66461
 Cu400 Cu 0.66507 0.16488 0.68535
 N401 N 0.68456 0.15349 0.67653
 N402 N 0.67698 0.15361 0.68464
 C403 C 0.67913 0.14513 0.69189
 C404 C 0.68854 0.13945 0.68809
 C405 C 0.69181 0.14491 0.67836
 H406 H 0.67428 0.14328 0.69939
 H407 H 0.69898 0.14284 0.67310
 N408 N 0.65369 0.17697 0.68467
 N409 N 0.65363 0.18482 0.67677
 C410 C 0.64499 0.19197 0.67872
 C411 C 0.63943 0.18840 0.68827
 C412 C 0.64509 0.17891 0.69186
 H413 H 0.64295 0.19928 0.67366
 H414 H 0.64314 0.17389 0.69922
 H415 H 0.67411 0.17734 0.67706
 H416 H 0.66449 0.16840 0.66828
 N417 N 1.09648 0.07294 0.18477
 N418 N 1.09631 0.06504 0.17696
 C419 C 1.10488 0.05779 0.17882
 C420 C 1.11064 0.06141 0.18826
 C421 C 1.10515 0.07101 0.19185
 H422 H 1.10673 0.05038 0.17381
 H423 H 1.10722 0.07611 0.19915
 Cu424 Cu 1.08465 0.06485 0.16540
 Cu425 Cu 1.08522 0.08492 0.18543
 Cu426 Cu 1.06444 0.08471 0.16477
 N427 N 1.07304 0.06483 0.15378
 N428 N 1.06515 0.07265 0.15361
 C429 C 1.05808 0.07061 0.14494
 C430 C 1.06176 0.06103 0.13947
 C431 C 1.07125 0.05753 0.14523
 H432 H 1.05075 0.07564 0.14285
 H433 H 1.07635 0.05019 0.14337
 N434 N 1.06517 0.09620 0.17680
 N435 N 1.07309 0.09629 0.18465
 C436 C 1.07115 0.10497 0.19176
 C437 C 1.06160 0.11052 0.18816
 C438 C 1.05799 0.10482 0.17870
 H439 H 1.07620 0.10703 0.19908
 H440 H 1.05061 0.10674 0.17368
 H441 H 1.07240 0.07600 0.17762
 H442 H 1.08149 0.08498 0.16841
 N443 N 0.07349 0.15307 1.06562
 N444 N 0.06555 0.15337 1.07337
 C445 C 0.05821 0.14486 1.07150
 C446 C 0.06180 0.13900 1.06211
 C447 C 0.07149 0.14437 1.05856
 H448 H 0.05076 0.14311 1.07648
 H449 H 0.07663 0.14217 1.05134
 Cu450 Cu 0.06547 0.16506 1.08492
 Cu451 Cu 0.08566 0.16414 1.06506
 Cu452 Cu 0.08569 0.18495 1.08572
 N453 N 0.06559 0.17668 1.09653
 N454 N 0.07354 0.18445 1.09679
 C455 C 0.07157 0.19155 1.10544
 C456 C 0.06189 0.18802 1.11083
 C457 C 0.05827 0.17859 1.10503
 H458 H 0.07672 0.19879 1.10760
 H459 H 0.05083 0.17361 1.10681
 N460 N 0.09725 0.18401 1.07379
 N461 N 0.09724 0.17609 1.06592
 C462 C 0.10601 0.17787 1.05890
 C463 C 0.11173 0.18731 1.06256
 C464 C 0.10603 0.19103 1.07198
 H465 H 0.10802 0.17278 1.05159
 H466 H 0.10805 0.19838 1.07702
 H467 H 0.08566 0.16788 1.08209
 H468 H 0.07694 0.17712 1.07281
 N469 N 0.15248 0.68376 0.67569
 N470 N 0.15245 0.67569 0.68330
 C471 C 0.14382 0.67744 0.69051
 C472 C 0.13823 0.68708 0.68717
 C473 C 0.14388 0.69090 0.67777
 H474 H 0.14181 0.67218 0.69769
 H475 H 0.14194 0.69836 0.67288
 Cu476 Cu 0.16380 0.66380 0.68323
 Cu477 Cu 0.16377 0.68454 0.66379
 Cu478 Cu 0.18449 0.66389 0.66372
 N479 N 0.17573 0.65249 0.68323
 N480 N 0.18378 0.65256 0.67559
 C481 C 0.19096 0.64399 0.67763
 C482 C 0.18718 0.63830 0.68704
 C483 C 0.17753 0.64386 0.69042
 H484 H 0.19842 0.64208 0.67272
 H485 H 0.17231 0.64181 0.69761
 N486 N 0.18379 0.67605 0.65241
 N487 N 0.17589 0.68392 0.65244
 C488 C 0.17778 0.69108 0.64381
 C489 C 0.18728 0.68751 0.63816
 C490 C 0.19092 0.67800 0.64376
 H491 H 0.17269 0.69840 0.64182
 H492 H 0.19825 0.67295 0.64172
 H493 H 0.16742 0.66747 0.66328
 H494 H 0.17632 0.67639 0.67279
 N495 N 1.17649 0.15306 0.18414
 N496 N 1.18460 0.15350 0.17657
 C497 C 1.19191 0.14499 0.17846
 C498 C 1.18814 0.13900 0.18768
 C499 C 1.17837 0.14429 0.19111
 H500 H 1.19947 0.14335 0.17361
 H501 H 1.17315 0.14206 0.19825
 Cu502 Cu 1.18490 0.16521 0.16507
 Cu503 Cu 1.16449 0.16426 0.18484
 Cu504 Cu 1.16624 0.18656 0.16598
 N505 N 1.18429 0.17660 0.15326
 N506 N 1.17694 0.18492 0.15365
 C507 C 1.17859 0.19179 0.14475
 C508 C 1.18739 0.18749 0.13849
 C509 C 1.19085 0.17788 0.14406
 H510 H 1.17388 0.19944 0.14309
 H511 H 1.19775 0.17239 0.14170
 N512 N 1.15410 0.18516 0.17723
 N513 N 1.15330 0.17655 0.18426
 C514 C 1.14421 0.17807 0.19093
 C515 C 1.13911 0.18805 0.18788
 C516 C 1.14551 0.19236 0.17920
 H517 H 1.14161 0.17246 0.19764
 H518 H 1.14408 0.20020 0.17475
 H519 H 1.16502 0.16934 0.16803
 H520 H 1.17425 0.17691 0.17837
 N521 N 0.65372 1.06512 0.57304
 N522 N 0.65379 1.07308 0.56529
 C523 C 0.64521 1.07124 0.55804
 C524 C 0.63955 1.06168 0.56149
 C525 C 0.64511 1.05797 0.57100
 H526 H 0.64326 1.07638 0.55076
 H527 H 0.64312 1.05059 0.57598
 Cu528 Cu 0.66530 1.08480 0.56534
 Cu529 Cu 0.66496 1.06445 0.58503
 Cu530 Cu 0.68545 1.08544 0.58525
 N531 N 0.67677 1.09656 0.56550
 N532 N 0.68463 1.09675 0.57336
 C533 C 0.69168 1.10546 0.57140
 C534 C 0.68802 1.11095 0.56184
 C535 C 0.67857 1.10515 0.55827
 H536 H 0.69903 1.10752 0.57643
 H537 H 0.67355 1.10696 0.55087
 N538 N 0.68484 1.07324 0.59654
 N539 N 0.67705 1.06524 0.59644
 C540 C 0.67905 1.05805 0.60501
 C541 C 0.68850 1.06173 0.61069
 C542 C 0.69199 1.07134 0.60517
 H543 H 0.67410 1.05061 0.60692
 H544 H 0.69927 1.07647 0.60724
 H545 H 0.66844 1.08154 0.58540
 H546 H 0.67770 1.07259 0.57631
 N547 N 0.57335 0.56545 0.15331
 N548 N 0.56577 0.57357 0.15313
 C549 C 0.55852 0.57167 0.14457
 C550 C 0.56180 0.56189 0.13916
 C551 C 0.57121 0.55814 0.14487
 H552 H 0.55131 0.57688 0.14250
 H553 H 0.57602 0.55058 0.14310
 Cu554 Cu 0.56581 0.58564 0.16430
 Cu555 Cu 0.58519 0.56477 0.16465
 Cu556 Cu 0.58510 0.58553 0.18525
 N557 N 0.56567 0.59690 0.17628
 N558 N 0.57322 0.59682 0.18442
 C559 C 0.57102 0.60532 0.19166
 C560 C 0.56161 0.61096 0.18781
 C561 C 0.55838 0.60546 0.17807
 H562 H 0.57580 0.60717 0.19921
 H563 H 0.55120 0.60746 0.17281
 N564 N 0.59646 0.57340 0.18468
 N565 N 0.59650 0.56548 0.17682
 C566 C 0.60512 0.55833 0.17882
 C567 C 0.61070 0.56197 0.18835
 C568 C 0.60506 0.57150 0.19188
 H569 H 0.60714 0.55098 0.17379
 H570 H 0.60703 0.57659 0.19921
 H571 H 0.57601 0.57306 0.17700
 H572 H 0.58571 0.58187 0.16821
 N573 N 0.65365 0.67680 0.18444
 N574 N 0.65344 0.68432 0.17628
 C575 C 0.64485 0.69155 0.17812
 C576 C 0.63947 0.68832 0.18791
 C577 C 0.64521 0.67896 0.19173
 H578 H 0.64273 0.69868 0.17284
 H579 H 0.64344 0.67417 0.19929
 Cu580 Cu 0.66456 0.68417 0.16420
 Cu581 Cu 0.66502 0.66498 0.18517
 Cu582 Cu 0.68547 0.66486 0.16430
 N583 N 0.67639 0.68416 0.15281
 N584 N 0.68453 0.67660 0.15289
 C585 C 0.69165 0.67868 0.14428
 C586 C 0.68773 0.68802 0.13857
 C587 C 0.67807 0.69133 0.14414
 H588 H 0.69917 0.67386 0.14240
 H589 H 0.67278 0.69848 0.14211
 N590 N 0.68501 0.65365 0.17655
 N591 N 0.67720 0.65369 0.18451
 C592 C 0.67925 0.64515 0.19172
 C593 C 0.68877 0.63955 0.18810
 C594 C 0.69224 0.64508 0.17850
 H595 H 0.67427 0.64318 0.19911
 H596 H 0.69953 0.64306 0.17340
 H597 H 0.67735 0.67404 0.17675
 H598 H 0.66845 0.66429 0.16808
 N599 N 0.15426 0.07287 1.06492
 N600 N 0.15364 0.06571 1.07338
 C601 C 0.14467 0.05887 1.07181
 C602 C 0.13949 0.06196 1.06187
 C603 C 0.14573 0.07083 1.05768
 H604 H 0.14219 0.05207 1.07736
 H605 H 0.14429 0.07535 1.04988
 Cu606 Cu 0.16485 0.06575 1.08540
 Cu607 Cu 0.16637 0.08389 1.06366
 Cu608 Cu 0.18519 0.08568 1.08598
 N609 N 0.17669 0.06567 1.09676
 N610 N 0.18451 0.07357 1.09705
 C611 C 0.19166 0.07145 1.10563
 C612 C 0.18809 0.06174 1.11093
 C613 C 0.17861 0.05825 1.10516
 H614 H 0.19898 0.07650 1.10775
 H615 H 0.17357 0.05083 1.10689
 N616 N 0.18454 0.09696 1.07379
 N617 N 0.17750 0.09617 1.06518
 C618 C 0.17934 0.10488 1.05811
 C619 C 0.18795 0.11136 1.06250
 C620 C 0.19109 0.10617 1.07240
 H621 H 0.17484 0.10636 1.05031
 H622 H 0.19776 0.10882 1.07806
 H623 H 0.17847 0.07571 1.07360
 H624 H 0.16837 0.08545 1.08088
 N625 N 0.59643 0.18521 0.57297
 N626 N 0.59624 0.17733 0.56513
 C627 C 0.60473 0.17920 0.55780
 C628 C 0.61047 0.18871 0.56130
 C629 C 0.60504 0.19234 0.57092
 H630 H 0.60655 0.17414 0.55043
 H631 H 0.60712 0.19968 0.57595
 Cu632 Cu 0.58465 0.16569 0.56512
 Cu633 Cu 0.58530 0.18583 0.58506
 Cu634 Cu 0.56462 0.16501 0.58512
 N635 N 0.57309 0.15403 0.56519
 N636 N 0.56526 0.15383 0.57307
 C637 C 0.55817 0.14516 0.57106
 C638 C 0.56178 0.13971 0.56145
 C639 C 0.57123 0.14549 0.55790
 H640 H 0.55087 0.14306 0.57612
 H641 H 0.57626 0.14367 0.55050
 N642 N 0.56543 0.17708 0.59657
 N643 N 0.57330 0.18500 0.59654
 C644 C 0.57138 0.19216 0.60517
 C645 C 0.56190 0.18854 0.61082
 C646 C 0.55830 0.17900 0.60522
 H647 H 0.57637 0.19957 0.60711
 H648 H 0.55094 0.17397 0.60720
 H649 H 0.58166 0.16877 0.58523
 H650 H 0.57243 0.17790 0.57632
 N651 N 0.09724 0.57377 0.68388
 N652 N 0.09702 0.56587 0.67606
 C653 C 0.10562 0.55863 0.67786
 C654 C 0.11145 0.56224 0.68725
 C655 C 0.10597 0.57184 0.69090
 H656 H 0.10745 0.55123 0.67281
 H657 H 0.10811 0.57695 0.69816
 Cu658 Cu 0.08531 0.56572 0.66456
 Cu659 Cu 0.08606 0.58582 0.68455
 Cu660 Cu 0.06521 0.58569 0.66394
 N661 N 0.07364 0.56570 0.65301
 N662 N 0.06580 0.57356 0.65282
 C663 C 0.05864 0.57148 0.64423
 C664 C 0.06222 0.56183 0.63882
 C665 C 0.07173 0.55833 0.64454
 H666 H 0.05130 0.57651 0.64218
 H667 H 0.07675 0.55092 0.64274
 N668 N 0.06608 0.59723 0.67592
 N669 N 0.07400 0.59727 0.68377
 C670 C 0.07218 0.60602 0.69082
 C671 C 0.06270 0.61168 0.68719
 C672 C 0.05901 0.60596 0.67776
 H673 H 0.07727 0.60808 0.69811
 H674 H 0.05167 0.60795 0.67272
 H675 H 0.07316 0.57697 0.67678
 H676 H 0.08229 0.58587 0.66753
 N677 N 0.65331 0.56546 0.07329
 N678 N 0.65341 0.57340 0.06552
 C679 C 0.64486 0.57156 0.05825
 C680 C 0.63917 0.56201 0.06169
 C681 C 0.64470 0.55832 0.07123
 H682 H 0.64295 0.57669 0.05095
 H683 H 0.64267 0.55094 0.07621
 Cu684 Cu 0.66492 0.58514 0.06560
 Cu685 Cu 0.66452 0.56480 0.08531
 Cu686 Cu 0.68502 0.58579 0.08557
 N687 N 0.67636 0.59693 0.06583
 N688 N 0.68421 0.59713 0.07369
 C689 C 0.69117 0.60593 0.07183
 C690 C 0.68744 0.61149 0.06232
 C691 C 0.67806 0.60561 0.05869
 H692 H 0.69845 0.60807 0.07692
 H693 H 0.67298 0.60747 0.05134
 N694 N 0.68440 0.57357 0.09684
 N695 N 0.67659 0.56558 0.09675
 C696 C 0.67857 0.55839 0.10533
 C697 C 0.68803 0.56206 0.11101
 C698 C 0.69154 0.57166 0.10549
 H699 H 0.67360 0.55097 0.10724
 H700 H 0.69883 0.57677 0.10755
 H701 H 0.66801 0.58190 0.08566
 H702 H 0.67728 0.57293 0.07662
 N703 N 0.07416 0.68417 0.59728
 N704 N 0.06643 0.67617 0.59727
 C705 C 0.05924 0.67798 0.60589
 C706 C 0.06269 0.68757 0.61152
 C707 C 0.07215 0.69131 0.60590
 H708 H 0.05198 0.67280 0.60788
 H709 H 0.07713 0.69873 0.60787
 Cu710 Cu 0.06632 0.66432 0.58588
 Cu711 Cu 0.08606 0.68486 0.58600
 Cu712 Cu 0.08576 0.66436 0.56513
 N713 N 0.06609 0.65316 0.57380
 N714 N 0.07371 0.65322 0.56574
 C715 C 0.07150 0.64477 0.55844
 C716 C 0.06200 0.63919 0.56216
 C717 C 0.05874 0.64467 0.57190
 H718 H 0.07636 0.64289 0.55095
 H719 H 0.05152 0.64266 0.57711
 N720 N 0.09729 0.67633 0.56592
 N721 N 0.09740 0.68416 0.57387
 C722 C 0.10614 0.69121 0.57202
 C723 C 0.11172 0.68760 0.56248
 C724 C 0.10595 0.67819 0.55880
 H725 H 0.10825 0.69848 0.57714
 H726 H 0.10789 0.67317 0.55143
 H727 H 0.07686 0.67690 0.57346
 H728 H 0.08631 0.66782 0.58223
 N729 N 0.57228 1.06469 0.65400
 N730 N 0.56494 1.07302 0.65358
 C731 C 0.55821 1.07157 0.64452
 C732 C 0.56158 1.06184 0.63907
 C733 C 0.57048 1.05764 0.64526
 H734 H 0.55127 1.07702 0.64218
 H735 H 0.57514 1.04995 0.64366
 Cu736 Cu 0.56455 1.08462 0.66524
 Cu737 Cu 0.58315 1.06325 0.66622
 Cu738 Cu 0.58502 1.08569 0.68496
 N739 N 0.56490 1.09645 0.67665
 N740 N 0.57303 1.09692 0.68421
 C741 C 0.57119 1.10575 0.69114
 C742 C 0.56143 1.11104 0.68769
 C743 C 0.55761 1.10499 0.67850
 H744 H 0.57643 1.10801 0.69828
 H745 H 0.55004 1.10661 0.67366
 N746 N 0.59619 1.07336 0.68443
 N747 N 0.59536 1.06472 0.67741
 C748 C 0.60395 1.05752 0.67938
 C749 C 0.61039 1.06185 0.68804
 C750 C 0.60530 1.07186 0.69108
 H751 H 0.60535 1.04965 0.67495
 H752 H 0.60793 1.07750 0.69777
 H753 H 0.57522 1.07302 0.67859
 H754 H 0.58444 1.08049 0.66821
 N755 N 0.43417 0.34763 0.92606
 N756 N 0.42619 0.34759 0.93378
 C757 C 0.42797 0.35621 0.94100
 C758 C 0.43753 0.36188 0.93755
 C759 C 0.44130 0.35627 0.92808
 H760 H 0.42279 0.35817 0.94825
 H761 H 0.44869 0.35827 0.92311
 Cu762 Cu 0.41438 0.33615 0.93384
 Cu763 Cu 0.43487 0.33635 0.91412
 Cu764 Cu 0.41441 0.31542 0.91433
 N765 N 0.40323 0.32406 0.93402
 N766 N 0.40328 0.31599 0.92638
 C767 C 0.39484 0.30869 0.92857
 C768 C 0.38927 0.31241 0.93807
 C769 C 0.39475 0.32215 0.94135
 H770 H 0.39294 0.30119 0.92369
 H771 H 0.39275 0.32736 0.94858
 N772 N 0.42637 0.31625 0.90282
 N773 N 0.43417 0.32422 0.90274
 C774 C 0.44122 0.32239 0.89401
 C775 C 0.43763 0.31285 0.88840
 C776 C 0.42824 0.30913 0.89414
 H777 H 0.44848 0.32753 0.89192
 H778 H 0.42323 0.30175 0.89218
 H779 H 0.41784 0.33254 0.91385
 H780 H 0.42694 0.32374 0.92325
 N781 N 0.93383 0.42590 0.34777
 N782 N 0.92600 0.43379 0.34760
 C783 C 0.92780 0.44101 0.35622
 C784 C 0.93722 0.43739 0.36201
 C785 C 0.94087 0.42782 0.35649
 H786 H 0.92274 0.44838 0.35810
 H787 H 0.94814 0.42270 0.35859
 Cu788 Cu 0.91440 0.43393 0.33596
 Cu789 Cu 0.93444 0.41387 0.33655
 Cu790 Cu 0.91368 0.41393 0.31586
 N791 N 0.90274 0.43387 0.32439
 N792 N 0.90252 0.42599 0.31655
 C793 C 0.89380 0.42796 0.30952
 C794 C 0.88833 0.43755 0.31319
 C795 C 0.89416 0.44112 0.32261
 H796 H 0.89166 0.42288 0.30224
 H797 H 0.89232 0.44849 0.32769
 N798 N 0.92570 0.40244 0.31660
 N799 N 0.93361 0.40242 0.32447
 C800 C 0.94067 0.39369 0.32257
 C801 C 0.93698 0.38803 0.31311
 C802 C 0.92752 0.39373 0.30950
 H803 H 0.94800 0.39165 0.32761
 H804 H 0.92243 0.39173 0.30218
 H805 H 0.92657 0.42269 0.32373
 H806 H 0.91738 0.41378 0.33289
 N807 N 0.31559 0.92707 0.40355
 N808 N 0.32397 0.93435 0.40308
 C809 C 0.32266 0.94092 0.39389
 C810 C 0.31297 0.93752 0.38840
 C811 C 0.30865 0.92875 0.39471
 H812 H 0.32820 0.94776 0.39146
 H813 H 0.30095 0.92409 0.39310
 Cu814 Cu 0.33553 0.93487 0.41476
 Cu815 Cu 0.31399 0.91638 0.41588
 Cu816 Cu 0.33652 0.91437 0.43444
 N817 N 0.34744 0.93436 0.42607
 N818 N 0.34789 0.92622 0.43360
 C819 C 0.35683 0.92793 0.44041
 C820 C 0.36222 0.93762 0.43691
 C821 C 0.35611 0.94154 0.42783
 H822 H 0.35911 0.92264 0.44750
 H823 H 0.35778 0.94909 0.42297
 N824 N 0.32409 0.90333 0.43404
 N825 N 0.31539 0.90422 0.42711
 C826 C 0.30811 0.89571 0.42916
 C827 C 0.31246 0.88926 0.43779
 C828 C 0.32254 0.89426 0.44072
 H829 H 0.30020 0.89437 0.42480
 H830 H 0.32821 0.89159 0.44736
 H831 H 0.32390 0.92428 0.42816
 H832 H 0.33122 0.91501 0.41770
 O833 O 0.26477 0.47012 0.75082
 O834 O 0.26311 0.47371 0.73135
 O835 O 0.27996 0.49954 0.76458
 O836 O 0.27671 0.51830 0.76465
 O837 O 0.25052 0.48545 0.77999
 O838 O 0.23075 0.48646 0.77585
 O839 O 0.24923 0.52951 0.73503
 O840 O 0.26866 0.52648 0.73755
 O841 O 0.23528 0.50110 0.72056
 O842 O 0.23602 0.48087 0.72408
 O843 O 0.22053 0.51484 0.74900
 O844 O 0.22428 0.51403 0.76934
 O845 O 0.23551 0.52951 0.74853
 O846 O 0.23700 0.52559 0.76966
 O847 O 0.22050 0.50126 0.73539
 O848 O 0.22483 0.48006 0.73711
 O849 O 0.24864 0.51496 0.72072
 O850 O 0.26921 0.51105 0.72422
 O851 O 0.25085 0.46999 0.76415
 O852 O 0.23064 0.47415 0.76291
 O853 O 0.26413 0.49909 0.78016
 O854 O 0.26212 0.51963 0.77569
 O855 O 0.28000 0.48572 0.75116
 O856 O 0.27571 0.48845 0.73071
 Zr857 Zr 0.26376 0.48645 0.74390
 O858 O 0.25366 0.49627 0.73305
 Zr859 Zr 0.26353 0.50627 0.76390
 O860 O 0.25377 0.51708 0.75371
 Zr861 Zr 0.24371 0.48631 0.76361
 O862 O 0.23288 0.49639 0.75374
 Zr863 Zr 0.25647 0.51342 0.73658
 O864 O 0.26747 0.50366 0.74674
 Zr865 Zr 0.23649 0.49362 0.73661
 O866 O 0.24655 0.48265 0.74647
 Zr867 Zr 0.23660 0.51357 0.75642
 O868 O 0.24634 0.50349 0.76751
 O869 O 0.26075 0.48924 0.76093
 O870 O 0.23934 0.51071 0.73936
 C871 C 0.25904 0.46536 0.75870
 C872 C 0.28467 0.49144 0.75911
 C873 C 0.25851 0.49102 0.78477
 C874 C 0.24092 0.53405 0.74030
 C875 C 0.24048 0.50950 0.71611
 C876 C 0.21596 0.50950 0.74076
 H877 H 0.25550 0.49452 0.72511
 H878 H 0.22494 0.49460 0.75556
 H879 H 0.26556 0.48444 0.76576
 H880 H 0.25565 0.52505 0.75536
 H881 H 0.27582 0.52288 0.73992
 H882 H 0.27488 0.52424 0.75910
 H883 H 0.21907 0.48186 0.74288
 H884 H 0.23150 0.47012 0.75564
 H885 H 0.26883 0.51750 0.71891
 H886 H 0.28151 0.48245 0.73143
 H887 H 0.21981 0.50699 0.76882
 H888 H 0.23096 0.49402 0.77942
 H889 H 0.25551 0.47026 0.73179
 H890 H 0.24335 0.48101 0.72009
 H891 H 0.25523 0.51818 0.78019
 H892 H 0.24304 0.53111 0.76797
 O893 O 0.21989 0.01444 0.24916
 O894 O 0.22350 0.01281 0.26863
 O895 O 0.24917 0.02992 0.23549
 O896 O 0.26794 0.02685 0.23544
 O897 O 0.23536 0.00034 0.21999
 O898 O 0.23655 -0.01944 0.22409
 O899 O 0.27940 -0.00053 0.26501
 O900 O 0.27616 0.01889 0.26255
 O901 O 0.25119 -0.01481 0.27939
 O902 O 0.23095 -0.01424 0.27588
 O903 O 0.26502 -0.02939 0.25094
 O904 O 0.26417 -0.02564 0.23062
 O905 O 0.27952 -0.01426 0.25150
 O906 O 0.27560 -0.01279 0.23035
 O907 O 0.25144 -0.02957 0.26453
 O908 O 0.23020 -0.02540 0.26280
 O909 O 0.26491 -0.00132 0.27927
 O910 O 0.26075 0.01924 0.27587
 O911 O 0.21989 0.00051 0.23581
 O912 O 0.22424 -0.01965 0.23700
 O913 O 0.24887 0.01407 0.21987
 O914 O 0.26942 0.01228 0.22438
 O915 O 0.23533 0.02984 0.24887
 O916 O 0.23812 0.02556 0.26932
 Zr917 Zr 0.23623 0.01359 0.25611
 O918 O 0.24614 0.00357 0.26695
 Zr919 Zr 0.25604 0.01355 0.23615
 O920 O 0.26694 0.00389 0.24634
 Zr921 Zr 0.23628 -0.00647 0.23636
 O922 O 0.24646 -0.01721 0.24622
 Zr923 Zr 0.26324 0.00655 0.26346
 O924 O 0.25339 0.01747 0.25331
 Zr925 Zr 0.24365 -0.01363 0.26335
 O926 O 0.23260 -0.00367 0.25349
 Zr927 Zr 0.26359 -0.01332 0.24357
 O928 O 0.25342 -0.00367 0.23249
 O929 O 0.23905 0.01061 0.23908
 O930 O 0.26071 -0.01061 0.26063
 C931 C 0.21519 0.00865 0.24127
 C932 C 0.24102 0.03456 0.24094
 C933 C 0.24087 0.00838 0.21524
 C934 C 0.28400 -0.00881 0.25974
 C935 C 0.25956 -0.00956 0.28385
 C936 C 0.25973 -0.03402 0.25917
 H937 H 0.24437 0.00539 0.27490
 H938 H 0.24474 -0.02517 0.24438
 H939 H 0.23420 0.01538 0.23424
 H940 H 0.27489 0.00585 0.24470
 H941 H 0.27248 0.02602 0.26020
 H942 H 0.27388 0.02509 0.24102
 H943 H 0.23204 -0.03115 0.25702
 H944 H 0.22021 -0.01884 0.24427
 H945 H 0.26721 0.01892 0.28119
 H946 H 0.23206 0.03130 0.26860
 H947 H 0.25716 -0.03015 0.23110
 H948 H 0.24409 -0.01913 0.22052
 H949 H 0.22012 0.00517 0.26818
 H950 H 0.23100 -0.00689 0.27987
 H951 H 0.26804 0.00537 0.21987
 H952 H 0.28108 -0.00671 0.23209
 O953 O 0.53031 0.73539 0.24908
 O954 O 0.52678 0.73713 0.26855
 O955 O 0.50086 0.72011 0.23548
 O956 O 0.48215 0.72340 0.23527
 O957 O 0.51495 0.74961 0.21995
 O958 O 0.51392 0.76939 0.22407
 O959 O 0.47092 0.75086 0.26492
 O960 O 0.47403 0.73143 0.26250
 O961 O 0.49931 0.76495 0.27936
 O962 O 0.51946 0.76430 0.27588
 O963 O 0.48548 0.77958 0.25095
 O964 O 0.48635 0.77581 0.23059
 O965 O 0.47088 0.76455 0.25139
 O966 O 0.47481 0.76306 0.23029
 O967 O 0.49909 0.77969 0.26452
 O968 O 0.52035 0.77535 0.26271
 O969 O 0.48544 0.75162 0.27922
 O970 O 0.48945 0.73101 0.27582
 O971 O 0.53041 0.74933 0.23577
 O972 O 0.52621 0.76954 0.23700
 O973 O 0.50138 0.73595 0.21981
 O974 O 0.48081 0.73795 0.22430
 O975 O 0.51468 0.72013 0.24887
 O976 O 0.51205 0.72454 0.26931
 Zr977 Zr 0.51400 0.73643 0.25606
 O978 O 0.50417 0.74654 0.26690
 Zr979 Zr 0.49418 0.73657 0.23608
 O980 O 0.48336 0.74633 0.24627
 Zr981 Zr 0.51408 0.75644 0.23633
 O982 O 0.50399 0.76728 0.24618
 Zr983 Zr 0.48704 0.74368 0.26340
 O984 O 0.49680 0.73268 0.25324
 Zr985 Zr 0.50678 0.76371 0.26331
 O986 O 0.51776 0.75364 0.25346
 Zr987 Zr 0.48682 0.76351 0.24352
 O988 O 0.49693 0.75376 0.23243
 O989 O 0.51120 0.73938 0.23902
 O990 O 0.48970 0.76082 0.26058
 C991 C 0.53505 0.74115 0.24120
 C992 C 0.50892 0.71540 0.24098
 C993 C 0.50941 0.74160 0.21519
 C994 C 0.46635 0.75914 0.25963
 C995 C 0.49089 0.75979 0.28381
 C996 C 0.49082 0.78418 0.25919
 H997 H 0.50593 0.74473 0.27485
 H998 H 0.50576 0.77523 0.24435
 H999 H 0.51599 0.73454 0.23420
 H1000 H 0.47540 0.74442 0.24462
 H1001 H 0.47766 0.72426 0.26017
 H1002 H 0.47632 0.72511 0.24099
 H1003 H 0.51848 0.78118 0.25704
 H1004 H 0.53029 0.76868 0.24424
 H1005 H 0.48301 0.73141 0.28114
 H1006 H 0.51804 0.71873 0.26858
 H1007 H 0.49334 0.78035 0.23115
 H1008 H 0.50634 0.76918 0.22054
 H1009 H 0.53027 0.74471 0.26804
 H1010 H 0.51954 0.75687 0.27968
 H1011 H 0.48228 0.74481 0.21976
 H1012 H 0.46934 0.75697 0.23196
 O1013 O -0.02996 0.75111 0.76465
 O1014 O -0.02647 0.73159 0.76285
 O1015 O -0.00054 0.76466 0.77993
 O1016 O 0.01823 0.76458 0.77674
 O1017 O -0.01446 0.78029 0.75058
 O1018 O -0.01343 0.77623 0.73079
 O1019 O 0.02936 0.73504 0.74914
 O1020 O 0.02630 0.73749 0.76855
 O1021 O 0.00092 0.72076 0.73507
 O1022 O -0.01928 0.72440 0.73577
 O1023 O 0.01486 0.74921 0.72051
 O1024 O 0.01409 0.76958 0.72434
 O1025 O 0.02947 0.74864 0.73552
 O1026 O 0.02562 0.76981 0.73708
 O1027 O 0.00122 0.73565 0.72038
 O1028 O -0.01998 0.73751 0.72464
 O1029 O 0.01475 0.72080 0.74843
 O1030 O 0.01082 0.72422 0.76900
 O1031 O -0.03000 0.76454 0.75082
 O1032 O -0.02582 0.76332 0.73061
 O1033 O -0.00086 0.78032 0.76420
 O1034 O 0.01965 0.77576 0.76222
 O1035 O -0.01441 0.75127 0.77986
 O1036 O -0.01176 0.73080 0.77546
 Zr1037 Zr -0.01367 0.74408 0.76360
 O1038 O -0.00388 0.73322 0.75347
 Zr1039 Zr 0.00624 0.76400 0.76353
 O1040 O 0.01702 0.75379 0.75374
 Zr1041 Zr -0.01367 0.76391 0.74368
 O1042 O -0.00362 0.75402 0.73283
 Zr1043 Zr 0.01327 0.73665 0.75635
 O1044 O 0.00353 0.74681 0.76737
 Zr1045 Zr -0.00648 0.73687 0.73634
 O1046 O -0.01742 0.74676 0.74641
 Zr1047 Zr 0.01356 0.75660 0.73659
 O1048 O 0.00351 0.76771 0.74637
 O1049 O -0.01079 0.76113 0.76070
 O1050 O 0.01061 0.73952 0.73924
 C1051 C -0.03465 0.75908 0.75897
 C1052 C -0.00868 0.75920 0.78459
 C1053 C -0.00889 0.78500 0.75860
 C1054 C 0.03395 0.74035 0.74088
 C1055 C 0.00929 0.71624 0.74026
 C1056 C 0.00951 0.74099 0.71590
 H1057 H -0.00568 0.72526 0.75527
 H1058 H -0.00538 0.75589 0.72490
 H1059 H -0.01557 0.76597 0.76552
 H1060 H 0.02499 0.75540 0.75564
 H1061 H 0.02269 0.73986 0.77571
 H1062 H 0.02419 0.75906 0.77485
 H1063 H -0.01813 0.74328 0.71891
 H1064 H -0.02988 0.75606 0.73144
 H1065 H 0.01725 0.71887 0.76860
 H1066 H -0.01778 0.73152 0.78125
 H1067 H 0.00708 0.76908 0.71983
 H1068 H -0.00585 0.77974 0.73103
 H1069 H -0.02992 0.73211 0.75526
 H1070 H -0.01919 0.72039 0.74308
 H1071 H 0.01824 0.78028 0.75535
 H1072 H 0.03110 0.76807 0.74313
 O1073 O 0.03029 0.01435 0.00069
 O1074 O 0.02671 0.01260 -0.01881
 O1075 O 0.00097 0.02954 0.01439
 O1076 O -0.01780 0.02631 0.01440
 O1077 O 0.01494 0.00004 0.02982
 O1078 O 0.01397 -0.01972 0.02565
 O1079 O -0.02917 -0.00114 -0.01506
 O1080 O -0.02598 0.01825 -0.01271
 O1081 O -0.00072 -0.01523 -0.02962
 O1082 O 0.01942 -0.01454 -0.02612
 O1083 O -0.01453 -0.02992 -0.00124
 O1084 O -0.01360 -0.02619 0.01914
 O1085 O -0.02917 -0.01482 -0.00153
 O1086 O -0.02512 -0.01350 0.01952
 O1087 O -0.00089 -0.03001 -0.01476
 O1088 O 0.02033 -0.02561 -0.01300
 O1089 O -0.01462 -0.00194 -0.02945
 O1090 O -0.01062 0.01866 -0.02605
 O1091 O 0.03041 0.00046 0.01404
 O1092 O 0.02627 -0.01979 0.01271
 O1093 O 0.00136 0.01368 0.02997
 O1094 O -0.01917 0.01175 0.02548
 O1095 O 0.01474 0.02955 0.00095
 O1096 O 0.01199 0.02521 -0.01949
 Zr1097 Zr 0.01397 0.01328 -0.00629
 O1098 O 0.00413 0.00317 -0.01713
 Zr1099 Zr -0.00581 0.01310 0.01369
 O1100 O -0.01664 0.00333 0.00351
 Zr1101 Zr 0.01410 -0.00674 0.01343
 O1102 O 0.00399 -0.01759 0.00357
 Zr1103 Zr -0.01300 0.00599 -0.01362
 O1104 O -0.00322 0.01701 -0.00347
 Zr1105 Zr 0.00675 -0.01400 -0.01356
 O1106 O 0.01775 -0.00393 -0.00370
 Zr1107 Zr -0.01317 -0.01386 0.00624
 O1108 O -0.00305 -0.00409 0.01732
 O1109 O 0.01120 0.01031 0.01074
 O1110 O -0.01034 -0.01115 -0.01083
 C1111 C 0.03503 0.00865 0.00861
 C1112 C 0.00906 0.03424 0.00891
 C1113 C 0.00938 0.00804 0.03460
 C1114 C -0.03375 -0.00937 -0.00971
 C1115 C -0.00914 -0.01008 -0.03406
 C1116 C -0.00917 -0.03453 -0.00944
 H1117 H 0.00588 0.00499 -0.02508
 H1118 H 0.00577 -0.02554 0.00539
 H1119 H 0.01599 0.01513 0.01559
 H1120 H -0.02459 0.00523 0.00518
 H1121 H -0.02233 0.02541 -0.01036
 H1122 H -0.02374 0.02448 0.00883
 H1123 H 0.01852 -0.03140 -0.00727
 H1124 H 0.03034 -0.01887 0.00548
 H1125 H -0.01708 0.01825 -0.03137
 H1126 H 0.01800 0.03101 -0.01878
 H1127 H -0.00662 -0.03073 0.01855
 H1128 H 0.00640 -0.01956 0.02917
 H1129 H 0.03022 0.00503 -0.01829
 H1130 H 0.01945 -0.00713 -0.02996
 H1131 H -0.01774 0.00486 0.02998
 H1132 H -0.03052 -0.00733 0.01795
 O1133 O 0.03003 0.51461 0.50053
 O1134 O 0.02630 0.51294 0.48109
 O1135 O 0.00084 0.52991 0.51449
 O1136 O -0.01795 0.52676 0.51452
 O1137 O 0.01476 0.50038 0.52982
 O1138 O 0.01373 0.48060 0.52560
 O1139 O -0.02949 0.49925 0.48507
 O1140 O -0.02636 0.51867 0.48755
 O1141 O -0.00130 0.48518 0.47043
 O1142 O 0.01910 0.48600 0.47395
 O1143 O -0.01484 0.47049 0.49893
 O1144 O -0.01382 0.47433 0.51935
 O1145 O -0.02946 0.48552 0.49855
 O1146 O -0.02545 0.48693 0.51960
 O1147 O -0.00135 0.47039 0.48526
 O1148 O 0.01976 0.47459 0.48676
 O1149 O -0.01506 0.49861 0.47066
 O1150 O -0.01103 0.51918 0.47415
 O1151 O 0.03020 0.50076 0.51392
 O1152 O 0.02601 0.48057 0.51266
 O1153 O 0.00120 0.51404 0.53006
 O1154 O -0.01932 0.51219 0.52564
 O1155 O 0.01453 0.52989 0.50097
 O1156 O 0.01163 0.52560 0.48054
 Zr1157 Zr 0.01366 0.51364 0.49370
 O1158 O 0.00373 0.50357 0.48290
 Zr1159 Zr -0.00601 0.51351 0.51379
 O1160 O -0.01692 0.50376 0.50366
 Zr1161 Zr 0.01385 0.49361 0.51341
 O1162 O 0.00367 0.48280 0.50358
 Zr1163 Zr -0.01337 0.50644 0.48652
 O1164 O -0.00350 0.51743 0.49662
 Zr1165 Zr 0.00634 0.48639 0.48643
 O1166 O 0.01740 0.49642 0.49626
 Zr1167 Zr -0.01347 0.48657 0.50635
 O1168 O -0.00328 0.49631 0.51739
 O1169 O 0.01097 0.51067 0.51076
 O1170 O -0.01072 0.48929 0.48927
 C1171 C 0.03481 0.50891 0.50842
 C1172 C 0.00891 0.53459 0.50897
 C1173 C 0.00922 0.50836 0.53464
 C1174 C -0.03403 0.49095 0.49036
 C1175 C -0.00969 0.49042 0.46602
 C1176 C -0.00957 0.46588 0.49068
 H1177 H 0.00543 0.50541 0.47494
 H1178 H 0.00544 0.47485 0.50540
 H1179 H 0.01582 0.51546 0.51559
 H1180 H -0.02487 0.50566 0.50536
 H1181 H -0.02272 0.52582 0.48991
 H1182 H -0.02401 0.52486 0.50910
 H1183 H 0.01813 0.46901 0.49276
 H1184 H 0.02990 0.48136 0.50532
 H1185 H -0.01752 0.51882 0.46887
 H1186 H 0.01768 0.53137 0.48122
 H1187 H -0.00694 0.46966 0.51862
 H1188 H 0.00618 0.48081 0.52919
 H1189 H 0.02962 0.50527 0.48141
 H1190 H 0.01862 0.49313 0.46963
 H1191 H -0.01795 0.50522 0.53005
 H1192 H -0.03086 0.49310 0.51801
 O1193 O 0.50071 0.03008 0.51482
 O1194 O 0.48121 0.02645 0.51314
 O1195 O 0.51450 0.00092 0.53020
 O1196 O 0.51446 -0.01789 0.52715
 O1197 O 0.52991 0.01462 0.50063
 O1198 O 0.52574 0.01353 0.48092
 O1199 O 0.48488 -0.02946 0.49967
 O1200 O 0.48737 -0.02625 0.51907
 O1201 O 0.47045 -0.00121 0.48551
 O1202 O 0.47392 0.01897 0.48606
 O1203 O 0.49894 -0.01506 0.47093
 O1204 O 0.51932 -0.01414 0.47474
 O1205 O 0.49843 -0.02956 0.48599
 O1206 O 0.51956 -0.02563 0.48749
 O1207 O 0.48532 -0.00149 0.47077
 O1208 O 0.48707 0.01979 0.47499
 O1209 O 0.47058 -0.01495 0.49894
 O1210 O 0.47403 -0.01083 0.51948
 O1211 O 0.51408 0.03011 0.50094
 O1212 O 0.51279 0.02579 0.48076
 O1213 O 0.53008 0.00114 0.51434
 O1214 O 0.52556 -0.01942 0.51259
 O1215 O 0.50102 0.01466 0.53012
 O1216 O 0.48055 0.01183 0.52583
 Zr1217 Zr 0.49376 0.01374 0.51389
 O1218 O 0.48292 0.00381 0.50386
 Zr1219 Zr 0.51378 -0.00603 0.51385
 O1220 O 0.50359 -0.01696 0.50417
 Zr1221 Zr 0.51350 0.01373 0.49388
 O1222 O 0.50365 0.00352 0.48313
 Zr1223 Zr 0.48644 -0.01330 0.50680
 O1224 O 0.49659 -0.00342 0.51774
 Zr1225 Zr 0.48650 0.00631 0.48670
 O1226 O 0.49635 0.01739 0.49668
 Zr1227 Zr 0.50633 -0.01361 0.48699
 O1228 O 0.51741 -0.00341 0.49666
 O1229 O 0.51082 0.01096 0.51093
 O1230 O 0.48925 -0.01075 0.48968
 C1231 C 0.50863 0.03479 0.50908
 C1232 C 0.50901 0.00905 0.53484
 C1233 C 0.53470 0.00912 0.50863
 C1234 C 0.49016 -0.03406 0.49140
 C1235 C 0.46599 -0.00958 0.49074
 C1236 C 0.49070 -0.00977 0.46631
 H1237 H 0.47496 0.00557 0.50567
 H1238 H 0.50549 0.00524 0.47518
 H1239 H 0.51567 0.01580 0.51569
 H1240 H 0.50524 -0.02491 0.50611
 H1241 H 0.48972 -0.02257 0.52621
 H1242 H 0.50892 -0.02388 0.52535
 H1243 H 0.49279 0.01791 0.46920
 H1244 H 0.50555 0.02987 0.48164
 H1245 H 0.46871 -0.01729 0.51914
 H1246 H 0.48126 0.01788 0.53158
 H1247 H 0.51872 -0.00721 0.47013
 H1248 H 0.52928 0.00596 0.48113
 H1249 H 0.48170 0.02989 0.50554
 H1250 H 0.47005 0.01904 0.49345
 H1251 H 0.53003 -0.01807 0.50567
 H1252 H 0.51785 -0.03108 0.49358
 O1253 O 0.52970 0.51477 0.00065
 O1254 O 0.52605 0.51296 -0.01878
 O1255 O 0.50046 0.53021 0.01437
 O1256 O 0.48168 0.52704 0.01443
 O1257 O 0.51433 0.50076 0.02999
 O1258 O 0.51330 0.48096 0.02592
 O1259 O 0.47024 0.49931 -0.01496
 O1260 O 0.47332 0.51875 -0.01253
 O1261 O 0.49850 0.48520 -0.02935
 O1262 O 0.51901 0.48612 -0.02561
 O1263 O 0.48479 0.47068 -0.00084
 O1264 O 0.48572 0.47460 0.01953
 O1265 O 0.47021 0.48571 -0.00135
 O1266 O 0.47417 0.48728 0.01973
 O1267 O 0.49833 0.47049 -0.01447
 O1268 O 0.51933 0.47451 -0.01298
 O1269 O 0.48476 0.49866 -0.02929
 O1270 O 0.48874 0.51923 -0.02585
 O1271 O 0.52981 0.50102 0.01415
 O1272 O 0.52563 0.48083 0.01300
 O1273 O 0.50079 0.51444 0.03009
 O1274 O 0.48028 0.51254 0.02563
 O1275 O 0.51419 0.53007 0.00090
 O1276 O 0.51140 0.52563 -0.01949
 Zr1277 Zr 0.51335 0.51376 -0.00622
 O1278 O 0.50346 0.50363 -0.01699
 Zr1279 Zr 0.49362 0.51379 0.01381
 O1280 O 0.48273 0.50398 0.00370
 Zr1281 Zr 0.51347 0.49388 0.01363
 O1282 O 0.50332 0.48301 0.00384
 Zr1283 Zr 0.48635 0.50654 -0.01345
 O1284 O 0.49619 0.51758 -0.00338
 Zr1285 Zr 0.50605 0.48647 -0.01333
 O1286 O 0.51708 0.49656 -0.00352
 Zr1287 Zr 0.48617 0.48680 0.00651
 O1288 O 0.49632 0.49661 0.01752
 O1289 O 0.51061 0.51092 0.01085
 O1290 O 0.48898 0.48941 -0.01058
 C1291 C 0.53445 0.50913 0.00861
 C1292 C 0.50854 0.53484 0.00883
 C1293 C 0.50879 0.50878 0.03474
 C1294 C 0.46568 0.49105 -0.00962
 C1295 C 0.49016 0.49045 -0.03385
 C1296 C 0.49007 0.46603 -0.00907
 H1297 H 0.50520 0.50542 -0.02495
 H1298 H 0.50506 0.47507 0.00572
 H1299 H 0.51544 0.51575 0.01565
 H1300 H 0.47478 0.50589 0.00535
 H1301 H 0.47695 0.52592 -0.01020
 H1302 H 0.47565 0.52513 0.00899
 H1303 H 0.51781 0.46916 -0.00676
 H1304 H 0.52950 0.48153 0.00563
 H1305 H 0.48227 0.51885 -0.03116
 H1306 H 0.51746 0.53139 -0.01883
 H1307 H 0.49265 0.46998 0.01892
 H1308 H 0.50574 0.48119 0.02947
 H1309 H 0.52930 0.50527 -0.01844
 H1310 H 0.51826 0.49299 -0.03029
 H1311 H 0.48165 0.50562 0.03010
 H1312 H 0.46872 0.49339 0.01806
 O1313 O 0.74951 0.21997 0.51477
 O1314 O 0.76899 0.22360 0.51305
 O1315 O 0.73576 0.24924 0.53013
 O1316 O 0.73574 0.26802 0.52700
 O1317 O 0.72022 0.23534 0.50063
 O1318 O 0.72433 0.23633 0.48090
 O1319 O 0.76523 0.27943 0.49946
 O1320 O 0.76279 0.27633 0.51886
 O1321 O 0.77966 0.25111 0.48535
 O1322 O 0.77616 0.23090 0.48599
 O1323 O 0.75115 0.26487 0.47077
 O1324 O 0.73075 0.26394 0.47460
 O1325 O 0.75165 0.27946 0.48581
 O1326 O 0.73053 0.27552 0.48729
 O1327 O 0.76476 0.25130 0.47064
 O1328 O 0.76302 0.23006 0.47489
 O1329 O 0.77954 0.26492 0.49875
 O1330 O 0.77613 0.26092 0.51930
 O1331 O 0.73607 0.21984 0.50094
 O1332 O 0.73727 0.22406 0.48075
 O1333 O 0.72010 0.24891 0.51430
 O1334 O 0.72459 0.26943 0.51247
 O1335 O 0.74924 0.23549 0.53005
 O1336 O 0.76968 0.23829 0.52570
 Zr1337 Zr 0.75643 0.23631 0.51380
 O1338 O 0.76723 0.24619 0.50372
 Zr1339 Zr 0.73640 0.25607 0.51374
 O1340 O 0.74655 0.26695 0.50400
 Zr1341 Zr 0.73661 0.23619 0.49384
 O1342 O 0.74644 0.24634 0.48303
 Zr1343 Zr 0.76370 0.26331 0.50663
 O1344 O 0.75359 0.25349 0.51761
 Zr1345 Zr 0.76360 0.24359 0.48658
 O1346 O 0.75378 0.23256 0.49661
 Zr1347 Zr 0.74376 0.26350 0.48684
 O1348 O 0.73272 0.25335 0.49657
 O1349 O 0.73936 0.23906 0.51087
 O1350 O 0.76085 0.26066 0.48951
 C1351 C 0.74159 0.21521 0.50907
 C1352 C 0.74129 0.24115 0.53477
 C1353 C 0.71546 0.24089 0.50863
 C1354 C 0.75991 0.28399 0.49119
 C1355 C 0.78412 0.25951 0.49057
 C1356 C 0.75939 0.25957 0.46616
 H1357 H 0.77520 0.24444 0.50553
 H1358 H 0.74459 0.24458 0.47509
 H1359 H 0.73452 0.23424 0.51567
 H1360 H 0.74490 0.27491 0.50592
 H1361 H 0.76045 0.27270 0.52601
 H1362 H 0.74125 0.27402 0.52515
 H1363 H 0.75726 0.23189 0.46912
 H1364 H 0.74455 0.22003 0.48160
 H1365 H 0.78145 0.26738 0.51893
 H1366 H 0.76899 0.23226 0.53147
 H1367 H 0.73136 0.25700 0.46999
 H1368 H 0.72081 0.24391 0.48109
 H1369 H 0.76849 0.22014 0.50546
 H1370 H 0.78012 0.23095 0.49333
 H1371 H 0.72011 0.26805 0.50554
 H1372 H 0.73221 0.28097 0.49339
 O1373 O 0.78017 0.75080 -0.01465
 O1374 O 0.77641 0.73133 -0.01315
 O1375 O 0.75096 0.76483 -0.02995
 O1376 O 0.73217 0.76490 -0.02683
 O1377 O 0.76492 0.78006 -0.00037
 O1378 O 0.76375 0.77583 0.01937
 O1379 O 0.72061 0.73525 0.00043
 O1380 O 0.72374 0.73785 -0.01895
 O1381 O 0.74877 0.72057 0.01443
 O1382 O 0.76916 0.72408 0.01369
 O1383 O 0.73523 0.74908 0.02926
 O1384 O 0.73623 0.76951 0.02555
 O1385 O 0.72063 0.74870 0.01422
 O1386 O 0.72462 0.76980 0.01292
 O1387 O 0.74871 0.73537 0.02930
 O1388 O 0.76982 0.73687 0.02516
 O1389 O 0.73504 0.72084 0.00098
 O1390 O 0.73908 0.72443 -0.01952
 O1391 O 0.78029 0.76411 -0.00068
 O1392 O 0.77603 0.76287 0.01943
 O1393 O 0.75137 0.78036 -0.01403
 O1394 O 0.73082 0.77597 -0.01221
 O1395 O 0.76469 0.75134 -0.02999
 O1396 O 0.76176 0.73085 -0.02585
 Zr1397 Zr 0.76378 0.74398 -0.01381
 O1398 O 0.75383 0.73312 -0.00384
 Zr1399 Zr 0.74411 0.76409 -0.01359
 O1400 O 0.73318 0.75391 -0.00395
 Zr1401 Zr 0.76392 0.76364 0.00634
 O1402 O 0.75374 0.75375 0.01704
 Zr1403 Zr 0.73673 0.73676 -0.00673
 O1404 O 0.74662 0.74691 -0.01760
 Zr1405 Zr 0.75641 0.73659 0.01335
 O1406 O 0.76748 0.74647 0.00343
 Zr1407 Zr 0.73661 0.75654 0.01325
 O1408 O 0.74681 0.76763 0.00362
 O1409 O 0.76109 0.76104 -0.01072
 O1410 O 0.73936 0.73945 0.01042
 C1411 C 0.78494 0.75866 -0.00884
 C1412 C 0.75905 0.75935 -0.03464
 C1413 C 0.75942 0.78491 -0.00835
 C1414 C 0.71607 0.74050 0.00875
 C1415 C 0.74039 0.71617 0.00914
 C1416 C 0.74050 0.74080 0.03383
 H1417 H 0.75553 0.72516 -0.00573
 H1418 H 0.75550 0.75554 0.02499
 H1419 H 0.76596 0.76587 -0.01547
 H1420 H 0.72523 0.75561 -0.00585
 H1421 H 0.72739 0.74023 -0.02608
 H1422 H 0.72613 0.75944 -0.02500
 H1423 H 0.76818 0.74284 0.03078
 H1424 H 0.77992 0.75551 0.01864
 H1425 H 0.73259 0.71914 -0.01922
 H1426 H 0.76782 0.73156 -0.03159
 H1427 H 0.74314 0.76881 0.03018
 H1428 H 0.75623 0.77946 0.01911
 H1429 H 0.77971 0.73162 -0.00548
 H1430 H 0.76870 0.71979 0.00654
 H1431 H 0.73221 0.78038 -0.00524
 H1432 H 0.71921 0.76822 0.00675
 O1433 O 1.00071 0.21981 0.23541
 O1434 O 0.98121 0.22339 0.23713
 O1435 O 1.01435 0.24915 0.22004
 O1436 O 1.01428 0.26795 0.22319
 O1437 O 1.02995 0.23529 0.24940
 O1438 O 1.02593 0.23645 0.26920
 O1439 O 0.98483 0.27924 0.25080
 O1440 O 0.98727 0.27613 0.23138
 O1441 O 0.97051 0.25087 0.26485
 O1442 O 0.97417 0.23057 0.26411
 O1443 O 0.99899 0.26478 0.27942
 O1444 O 1.01941 0.26390 0.27556
 O1445 O 0.99845 0.27935 0.26442
 O1446 O 1.01955 0.27550 0.26292
 O1447 O 0.98540 0.25117 0.27955
 O1448 O 0.98715 0.22999 0.27537
 O1449 O 0.97056 0.26466 0.25147
 O1450 O 0.97397 0.26067 0.23091
 O1451 O 1.01414 0.21979 0.24925
 O1452 O 1.01306 0.22406 0.26940
 O1453 O 1.03001 0.24886 0.23577
 O1454 O 1.02551 0.26938 0.23771
 O1455 O 1.00095 0.23529 0.22012
 O1456 O 0.98050 0.23803 0.22446
 Zr1457 Zr 0.99375 0.23614 0.23637
 O1458 O 0.98293 0.24598 0.24647
 Zr1459 Zr 1.01371 0.25600 0.23642
 O1460 O 1.00355 0.26684 0.24619
 Zr1461 Zr 1.01360 0.23616 0.25631
 O1462 O 1.00374 0.24626 0.26714
 Zr1463 Zr 0.98640 0.26312 0.24358
 O1464 O 0.99652 0.25332 0.23258
 Zr1465 Zr 0.98659 0.24342 0.26361
 O1466 O 0.99645 0.23244 0.25356
 Zr1467 Zr 1.00636 0.26342 0.26335
 O1468 O 1.01744 0.25332 0.25358
 O1469 O 1.01081 0.23898 0.23928
 O1470 O 0.98928 0.26050 0.26069
 C1471 C 1.00864 0.21511 0.24112
 C1472 C 1.00888 0.24099 0.21540
 C1473 C 1.03467 0.24083 0.24137
 C1474 C 0.99015 0.28383 0.25906
 C1475 C 0.96600 0.25923 0.25965
 C1476 C 0.99076 0.25947 0.28403
 H1477 H 0.97497 0.24420 0.24466
 H1478 H 1.00561 0.24452 0.27507
 H1479 H 1.01563 0.23415 0.23448
 H1480 H 1.00517 0.27480 0.24429
 H1481 H 0.98963 0.27251 0.22422
 H1482 H 1.00883 0.27397 0.22512
 H1483 H 0.99301 0.23179 0.28104
 H1484 H 1.00574 0.22008 0.26866
 H1485 H 0.96864 0.26711 0.23129
 H1486 H 0.98120 0.23198 0.21871
 H1487 H 1.01879 0.25698 0.28018
 H1488 H 1.02948 0.24402 0.26892
 H1489 H 0.98169 0.21999 0.24475
 H1490 H 0.96996 0.23084 0.25691
 H1491 H 1.03001 0.26801 0.24461
 H1492 H 1.01789 0.28090 0.25677
 O1493 O 0.71985 1.01469 0.74897
 O1494 O 0.72340 1.01310 0.76846
 O1495 O 0.74925 1.02973 0.73522
 O1496 O 0.76800 1.02647 0.73524
 O1497 O 0.73518 1.00018 0.71989
 O1498 O 0.73608 0.98044 0.72414
 O1499 O 0.77917 0.99916 0.76495
 O1500 O 0.77613 1.01857 0.76238
 O1501 O 0.75074 0.98528 0.77942
 O1502 O 0.73052 0.98602 0.77584
 O1503 O 0.76452 0.97036 0.75111
 O1504 O 0.76367 0.97397 0.73073
 O1505 O 0.77917 0.98536 0.75150
 O1506 O 0.77523 0.98669 0.73036
 O1507 O 0.75092 0.97041 0.76468
 O1508 O 0.72972 0.97474 0.76284
 O1509 O 0.76463 0.99860 0.77923
 O1510 O 0.76071 1.01917 0.77569
 O1511 O 0.71968 1.00073 0.73565
 O1512 O 0.72377 0.98048 0.73708
 O1513 O 0.74883 1.01378 0.71971
 O1514 O 0.76934 1.01181 0.72424
 O1515 O 0.73545 1.02987 0.74863
 O1516 O 0.73817 1.02568 0.76910
 Zr1517 Zr 0.73616 1.01366 0.75595
 O1518 O 0.74594 1.00360 0.76685
 Zr1519 Zr 0.75597 1.01329 0.73600
 O1520 O 0.76676 1.00358 0.74625
 Zr1521 Zr 0.73598 0.99350 0.73632
 O1522 O 0.74605 0.98270 0.74624
 Zr1523 Zr 0.76308 1.00638 0.76335
 O1524 O 0.75335 1.01734 0.75313
 Zr1525 Zr 0.74327 0.98641 0.76335
 O1526 O 0.73233 0.99644 0.75343
 Zr1527 Zr 0.76323 0.98638 0.74359
 O1528 O 0.75316 0.99608 0.73245
 O1529 O 0.73895 1.01055 0.73893
 O1530 O 0.76036 0.98923 0.76063
 C1531 C 0.71509 1.00897 0.74106
 C1532 C 0.74116 1.03449 0.74066
 C1533 C 0.74078 1.00813 0.71510
 C1534 C 0.78371 0.99082 0.75971
 C1535 C 0.75916 0.99048 0.78386
 C1536 C 0.75918 0.96584 0.75937
 H1537 H 0.74418 1.00549 0.77479
 H1538 H 0.74425 0.97474 0.74445
 H1539 H 0.73417 1.01535 0.73406
 H1540 H 0.77473 1.00544 0.74460
 H1541 H 0.77253 1.02573 0.75999
 H1542 H 0.77394 1.02466 0.74081
 H1543 H 0.73153 0.96893 0.75712
 H1544 H 0.71973 0.98143 0.74432
 H1545 H 0.76716 1.01881 0.78101
 H1546 H 0.73218 1.03149 0.76835
 H1547 H 0.75665 0.96948 0.73129
 H1548 H 0.74367 0.98057 0.72063
 H1549 H 0.71994 1.00550 0.76804
 H1550 H 0.73066 0.99337 0.77980
 H1551 H 0.76790 1.00489 0.71978
 H1552 H 0.78074 0.99274 0.73203
 O1553 O 0.73538 0.50085 0.22002
 O1554 O 0.73712 0.48137 0.22361
 O1555 O 0.72007 0.51459 0.24930
 O1556 O 0.72324 0.51448 0.26808
 O1557 O 0.74946 0.53020 0.23544
 O1558 O 0.76925 0.52614 0.23645
 O1559 O 0.75090 0.48514 0.27934
 O1560 O 0.73147 0.48750 0.27626
 O1561 O 0.76496 0.47074 0.25097
 O1562 O 0.76418 0.47436 0.23070
 O1563 O 0.77953 0.49921 0.26483
 O1564 O 0.77567 0.51969 0.26387
 O1565 O 0.76453 0.49876 0.27940
 O1566 O 0.76307 0.51984 0.27552
 O1567 O 0.77966 0.48562 0.25123
 O1568 O 0.77543 0.48738 0.23007
 O1569 O 0.75162 0.47082 0.26481
 O1570 O 0.73102 0.47416 0.26085
 O1571 O 0.74918 0.51434 0.21992
 O1572 O 0.76938 0.51324 0.22410
 O1573 O 0.73586 0.53025 0.24905
 O1574 O 0.73775 0.52574 0.26950
 O1575 O 0.72013 0.50113 0.23551
 O1576 O 0.72450 0.48067 0.23829
 Zr1577 Zr 0.73640 0.49394 0.23633
 O1578 O 0.74654 0.48313 0.24613
 Zr1579 Zr 0.73648 0.51393 0.25613
 O1580 O 0.74629 0.50380 0.26693
 Zr1581 Zr 0.75633 0.51382 0.23625
 O1582 O 0.76721 0.50398 0.24632
 Zr1583 Zr 0.74368 0.48664 0.26325
 O1584 O 0.73263 0.49673 0.25349
 Zr1585 Zr 0.76369 0.48681 0.24352
 O1586 O 0.75359 0.49664 0.23257
 Zr1587 Zr 0.76346 0.50663 0.26347
 O1588 O 0.75365 0.51767 0.25340
 O1589 O 0.73930 0.51102 0.23913
 O1590 O 0.76080 0.48953 0.26058
 C1591 C 0.74105 0.50880 0.21529
 C1592 C 0.71541 0.50909 0.24118
 C1593 C 0.74146 0.53492 0.24104
 C1594 C 0.75916 0.49048 0.28390
 C1595 C 0.75980 0.46625 0.25937
 C1596 C 0.78414 0.49097 0.25952
 H1597 H 0.74474 0.47516 0.24437
 H1598 H 0.77515 0.50585 0.24455
 H1599 H 0.73449 0.51584 0.23432
 H1600 H 0.74440 0.50544 0.27489
 H1601 H 0.72430 0.48985 0.27265
 H1602 H 0.72520 0.50906 0.27411
 H1603 H 0.78114 0.49321 0.23189
 H1604 H 0.76862 0.50591 0.22013
 H1605 H 0.73143 0.46884 0.26729
 H1606 H 0.71870 0.48136 0.23228
 H1607 H 0.78037 0.51897 0.25702
 H1608 H 0.76907 0.52963 0.24404
 H1609 H 0.74474 0.48181 0.22021
 H1610 H 0.75698 0.47014 0.23099
 H1611 H 0.74469 0.53021 0.26816
 H1612 H 0.75690 0.51822 0.28090
 O1613 O 0.50075 0.21963 0.73516
 O1614 O 0.48125 0.22317 0.73685
 O1615 O 0.51439 0.24915 0.72013
 O1616 O 0.51458 0.26786 0.72349
 O1617 O 0.52988 0.23497 0.74955
 O1618 O 0.52571 0.23593 0.76930
 O1619 O 0.48485 0.27899 0.75084
 O1620 O 0.48735 0.27595 0.73144
 O1621 O 0.47035 0.25055 0.76469
 O1622 O 0.47391 0.23035 0.76394
 O1623 O 0.49878 0.26436 0.77951
 O1624 O 0.51913 0.26352 0.77586
 O1625 O 0.49837 0.27900 0.76455
 O1626 O 0.51953 0.27504 0.76313
 O1627 O 0.48516 0.25078 0.77948
 O1628 O 0.48698 0.22954 0.77513
 O1629 O 0.47053 0.26444 0.75141
 O1630 O 0.47403 0.26052 0.73085
 O1631 O 0.51406 0.21949 0.74911
 O1632 O 0.51276 0.22361 0.76932
 O1633 O 0.53004 0.24860 0.73599
 O1634 O 0.52554 0.26916 0.73807
 O1635 O 0.50101 0.23529 0.72001
 O1636 O 0.48054 0.23793 0.72432
 Zr1637 Zr 0.49376 0.23595 0.73625
 O1638 O 0.48289 0.24575 0.74635
 Zr1639 Zr 0.51376 0.25578 0.73659
 O1640 O 0.50353 0.26658 0.74633
 Zr1641 Zr 0.51347 0.23580 0.75631
 O1642 O 0.50357 0.24587 0.76715
 Zr1643 Zr 0.48640 0.26290 0.74359
 O1644 O 0.49659 0.25316 0.73260
 Zr1645 Zr 0.48643 0.24309 0.76350
 O1646 O 0.49632 0.23214 0.75344
 Zr1647 Zr 0.50625 0.26305 0.76348
 O1648 O 0.51737 0.25298 0.75375
 O1649 O 0.51081 0.23875 0.73929
 O1650 O 0.48917 0.26019 0.76070
 C1651 C 0.50864 0.21488 0.74090
 C1652 C 0.50892 0.24107 0.71537
 C1653 C 0.53466 0.24055 0.74159
 C1654 C 0.49014 0.28354 0.75914
 C1655 C 0.46591 0.25897 0.75952
 C1656 C 0.49051 0.25904 0.78404
 H1657 H 0.47494 0.24399 0.74449
 H1658 H 0.50539 0.24408 0.77508
 H1659 H 0.51565 0.23397 0.73446
 H1660 H 0.50519 0.27455 0.74448
 H1661 H 0.48972 0.27235 0.72427
 H1662 H 0.50891 0.27372 0.72524
 H1663 H 0.49268 0.23139 0.78095
 H1664 H 0.50549 0.21958 0.76843
 H1665 H 0.46870 0.26697 0.73124
 H1666 H 0.48127 0.23194 0.71851
 H1667 H 0.51862 0.25646 0.78028
 H1668 H 0.52925 0.24350 0.76914
 H1669 H 0.48172 0.21968 0.74442
 H1670 H 0.47000 0.23040 0.75656
 H1671 H 0.53008 0.26766 0.74493
 H1672 H 0.51784 0.28057 0.75712
 O1673 O 0.28009 0.75110 0.48525
 O1674 O 0.27648 0.73159 0.48697
 O1675 O 0.25073 0.76480 0.47002
 O1676 O 0.23196 0.76476 0.47322
 O1677 O 0.26476 0.78034 0.49940
 O1678 O 0.26367 0.77625 0.51920
 O1679 O 0.22069 0.73528 0.50073
 O1680 O 0.22374 0.73774 0.48132
 O1681 O 0.24906 0.72084 0.51469
 O1682 O 0.26940 0.72452 0.51390
 O1683 O 0.23528 0.74931 0.52937
 O1684 O 0.23624 0.76975 0.52560
 O1685 O 0.22067 0.74890 0.51437
 O1686 O 0.22462 0.76999 0.51297
 O1687 O 0.24883 0.73569 0.52945
 O1688 O 0.26998 0.73742 0.52529
 O1689 O 0.23523 0.72096 0.50134
 O1690 O 0.23914 0.72441 0.48079
 O1691 O 0.28020 0.76451 0.49912
 O1692 O 0.27604 0.76335 0.51929
 O1693 O 0.25115 0.78043 0.48578
 O1694 O 0.23063 0.77597 0.48777
 O1695 O 0.26453 0.75137 0.47003
 O1696 O 0.26178 0.73090 0.47434
 Zr1697 Zr 0.26375 0.74414 0.48626
 O1698 O 0.25391 0.73331 0.49635
 Zr1699 Zr 0.24396 0.76414 0.48641
 O1700 O 0.23313 0.75397 0.49618
 Zr1701 Zr 0.26387 0.76396 0.50625
 O1702 O 0.25379 0.75409 0.51707
 Zr1703 Zr 0.23678 0.73682 0.49351
 O1704 O 0.24657 0.74695 0.48251
 Zr1705 Zr 0.25655 0.73692 0.51350
 O1706 O 0.26752 0.74680 0.50346
 Zr1707 Zr 0.23663 0.75675 0.51333
 O1708 O 0.24672 0.76783 0.50358
 O1709 O 0.26097 0.76120 0.48923
 O1710 O 0.23947 0.73966 0.51062
 C1711 C 0.28483 0.75904 0.49096
 C1712 C 0.25884 0.75932 0.46534
 C1713 C 0.25921 0.78507 0.49138
 C1714 C 0.21613 0.74062 0.50899
 C1715 C 0.24067 0.71636 0.50949
 C1716 C 0.24057 0.74105 0.53394
 H1717 H 0.25566 0.72535 0.49451
 H1718 H 0.25556 0.75594 0.52501
 H1719 H 0.26578 0.76603 0.48442
 H1720 H 0.22517 0.75562 0.49429
 H1721 H 0.22734 0.74013 0.47417
 H1722 H 0.22591 0.75934 0.47516
 H1723 H 0.26823 0.74332 0.53094
 H1724 H 0.27996 0.75600 0.51853
 H1725 H 0.23268 0.71908 0.48117
 H1726 H 0.26780 0.73160 0.46857
 H1727 H 0.24316 0.76910 0.53022
 H1728 H 0.25611 0.77981 0.51895
 H1729 H 0.27987 0.73203 0.49459
 H1730 H 0.26900 0.72023 0.50675
 H1731 H 0.23206 0.78047 0.49468
 H1732 H 0.21921 0.76837 0.50682
 O1733 O 0.26491 0.28009 0.99931
 O1734 O 0.26316 0.27653 1.01880
 O1735 O 0.28031 0.25080 0.98567
 O1736 O 0.27720 0.23198 0.98580
 O1737 O 0.25087 0.26455 0.97009
 O1738 O 0.23106 0.26344 0.97416
 O1739 O 0.24960 0.22065 1.01514
 O1740 O 0.26904 0.22381 1.01273
 O1741 O 0.23543 0.24896 1.02947
 O1742 O 0.23624 0.26933 1.02584
 O1743 O 0.22091 0.23507 1.00108
 O1744 O 0.22478 0.23600 0.98062
 O1745 O 0.23595 0.22053 1.00156
 O1746 O 0.23740 0.22436 0.98051
 O1747 O 0.22075 0.24872 1.01462
 O1748 O 0.22489 0.26987 1.01292
 O1749 O 0.24885 0.23518 1.02941
 O1750 O 0.26944 0.23924 1.02605
 O1751 O 0.25109 0.28009 0.98587
 O1752 O 0.23091 0.27586 0.98703
 O1753 O 0.26455 0.25101 0.97003
 O1754 O 0.26268 0.23051 0.97454
 O1755 O 0.28021 0.26462 0.99909
 O1756 O 0.27587 0.26189 1.01951
 Zr1757 Zr 0.26395 0.26377 1.00628
 O1758 O 0.25386 0.25391 1.01709
 Zr1759 Zr 0.26393 0.24391 0.98633
 O1760 O 0.25416 0.23306 0.99648
 Zr1761 Zr 0.24400 0.26373 0.98644
 O1762 O 0.23317 0.25362 0.99630
 Zr1763 Zr 0.25678 0.23678 1.01361
 O1764 O 0.26778 0.24659 1.00350
 Zr1765 Zr 0.23671 0.25646 1.01344
 O1766 O 0.24674 0.26746 1.00358
 Zr1767 Zr 0.23698 0.23646 0.99367
 O1768 O 0.24675 0.24656 0.98261
 O1769 O 0.26104 0.26092 0.98923
 O1770 O 0.23965 0.23938 1.01073
 C1771 C 0.25923 0.28478 0.99135
 C1772 C 0.28495 0.25895 0.99114
 C1773 C 0.25890 0.25901 0.96537
 C1774 C 0.24134 0.21605 1.00984
 C1775 C 0.24063 0.24058 1.03396
 C1776 C 0.21629 0.24040 1.00929
 H1777 H 0.25567 0.25568 1.02505
 H1778 H 0.22523 0.25536 0.99443
 H1779 H 0.26584 0.26574 0.98440
 H1780 H 0.25608 0.22509 0.99485
 H1781 H 0.27619 0.22745 1.01037
 H1782 H 0.27524 0.22592 0.99118
 H1783 H 0.21928 0.26811 1.00699
 H1784 H 0.23166 0.27983 0.99434
 H1785 H 0.26905 0.23280 1.03137
 H1786 H 0.28162 0.26796 1.01882
 H1787 H 0.22004 0.24284 0.98134
 H1788 H 0.23130 0.25585 0.97065
 H1789 H 0.25551 0.27988 1.01835
 H1790 H 0.24337 0.26894 1.03016
 H1791 H 0.25573 0.23184 0.97009
 H1792 H 0.24359 0.21900 0.98214
 C1793 C 0.30694 0.37044 0.80633
 C1794 C 0.30251 0.37841 0.80182
 C1795 C 0.29720 0.38796 0.79650
 C1796 C 0.30158 0.39881 0.79813
 C1797 C 0.29636 0.40812 0.79311
 C1798 C 0.28666 0.40670 0.78638
 C1799 C 0.28235 0.39574 0.78474
 C1800 C 0.28759 0.38643 0.78978
 C1801 C 0.28105 0.41663 0.78118
 C1802 C 0.27694 0.41615 0.77004
 C1803 C 0.27192 0.42564 0.76511
 C1804 C 0.27090 0.43568 0.77127
 C1805 C 0.27484 0.43618 0.78239
 C1806 C 0.27987 0.42674 0.78732
 C1807 C 0.26622 0.44568 0.76619
 C1808 C 0.26268 0.45444 0.76243
 H1809 H 0.30903 0.40009 0.80329
 H1810 H 0.29997 0.41643 0.79441
 H1811 H 0.27483 0.39439 0.77972
 H1812 H 0.28410 0.37807 0.78850
 H1813 H 0.27784 0.40853 0.76507
 H1814 H 0.26896 0.42518 0.75647
 H1815 H 0.27409 0.44392 0.78724
 H1816 H 0.28279 0.42732 0.79596
 C1817 C 0.30770 -0.12893 0.30701
 C1818 C 0.30336 -0.12085 0.30261
 C1819 C 0.29817 -0.11120 0.29738
 C1820 C 0.29737 -0.10098 0.30328
 C1821 C 0.29235 -0.09159 0.29821
 C1822 C 0.28805 -0.09229 0.28716
 C1823 C 0.28885 -0.10261 0.28132
 C1824 C 0.29389 -0.11200 0.28640
 C1825 C 0.28282 -0.08226 0.28175
 C1826 C 0.27301 -0.08337 0.27513
 C1827 C 0.26805 -0.07387 0.27015
 C1828 C 0.27286 -0.06318 0.27171
 C1829 C 0.28265 -0.06202 0.27822
 C1830 C 0.28761 -0.07148 0.28321
 C1831 C 0.26775 -0.05331 0.26684
 C1832 C 0.26383 -0.04470 0.26310
 H1833 H 0.30062 -0.10028 0.31180
 H1834 H 0.29172 -0.08381 0.30299
 H1835 H 0.28575 -0.10338 0.27276
 H1836 H 0.29448 -0.11986 0.28176
 H1837 H 0.26906 -0.09154 0.27396
 H1838 H 0.26045 -0.07486 0.26516
 H1839 H 0.28645 -0.05378 0.27947
 H1840 H 0.29524 -0.07037 0.28811
 C1841 C 0.80719 0.87100 0.80750
 C1842 C 0.80274 0.87906 0.80316
 C1843 C 0.79745 0.88870 0.79797
 C1844 C 0.79321 0.88791 0.78698
 C1845 C 0.78814 0.89729 0.78191
 C1846 C 0.78727 0.90760 0.78778
 C1847 C 0.79152 0.90828 0.79885
 C1848 C 0.79657 0.89889 0.80390
 C1849 C 0.78204 0.91763 0.78236
 C1850 C 0.78677 0.92843 0.78388
 C1851 C 0.78185 0.93789 0.77885
 C1852 C 0.77213 0.93671 0.77222
 C1853 C 0.76737 0.92601 0.77061
 C1854 C 0.77230 0.91652 0.77563
 C1855 C 0.76708 0.94658 0.76725
 C1856 C 0.76321 0.95517 0.76342
 H1857 H 0.79387 0.88007 0.78230
 H1858 H 0.78507 0.89654 0.77333
 H1859 H 0.79083 0.91603 0.80365
 H1860 H 0.79979 0.89957 0.81243
 H1861 H 0.79436 0.92956 0.78887
 H1862 H 0.78562 0.94614 0.78015
 H1863 H 0.75982 0.92500 0.76554
 H1864 H 0.76838 0.90834 0.77441
 C1865 C 0.44274 0.87880 0.30767
 C1866 C 0.44721 0.87076 0.30331
 C1867 C 0.45252 0.86117 0.29808
 C1868 C 0.45665 0.86196 0.28705
 C1869 C 0.46173 0.85261 0.28192
 C1870 C 0.46272 0.84232 0.28778
 C1871 C 0.45858 0.84163 0.29889
 C1872 C 0.45352 0.85099 0.30399
 C1873 C 0.46794 0.83232 0.28230
 C1874 C 0.46326 0.82150 0.28384
 C1875 C 0.46818 0.81207 0.27874
 C1876 C 0.47782 0.81329 0.27204
 C1877 C 0.48254 0.82401 0.27042
 C1878 C 0.47762 0.83348 0.27550
 C1879 C 0.48288 0.80345 0.26703
 C1880 C 0.48676 0.79486 0.26319
 H1881 H 0.45590 0.86979 0.28239
 H1882 H 0.46471 0.85337 0.27332
 H1883 H 0.45936 0.83388 0.30367
 H1884 H 0.45038 0.85030 0.31255
 H1885 H 0.45573 0.82035 0.28888
 H1886 H 0.46446 0.80381 0.28005
 H1887 H 0.49003 0.82504 0.26528
 H1888 H 0.48149 0.84167 0.27428
 C1889 C -0.05669 0.87975 0.80689
 C1890 C -0.05225 0.87177 0.80239
 C1891 C -0.04702 0.86222 0.79699
 C1892 C -0.03543 0.86230 0.79468
 C1893 C -0.03037 0.85299 0.78946
 C1894 C -0.03685 0.84347 0.78650
 C1895 C -0.04850 0.84350 0.78882
 C1896 C -0.05354 0.85281 0.79403
 C1897 C -0.03147 0.83347 0.78116
 C1898 C -0.03466 0.82250 0.78442
 C1899 C -0.02966 0.81307 0.77942
 C1900 C -0.02139 0.81444 0.77110
 C1901 C -0.01813 0.82531 0.76779
 C1902 C -0.02313 0.83478 0.77280
 C1903 C -0.01638 0.80458 0.76607
 C1904 C -0.01263 0.79588 0.76234
 H1905 H -0.03030 0.86953 0.79696
 H1906 H -0.02136 0.85316 0.78792
 H1907 H -0.05374 0.83636 0.78651
 H1908 H -0.06253 0.85268 0.79574
 H1909 H -0.04093 0.82121 0.79094
 H1910 H -0.03222 0.80470 0.78207
 H1911 H -0.01176 0.82645 0.76133
 H1912 H -0.02059 0.84311 0.77003
 C1913 C -0.05640 -0.13032 -0.05670
 C1914 C -0.05186 -0.12233 -0.05231
 C1915 C -0.04653 -0.11267 -0.04719
 C1916 C -0.04572 -0.11184 -0.03543
 C1917 C -0.04072 -0.10234 -0.03048
 C1918 C -0.03647 -0.09354 -0.03723
 C1919 C -0.03727 -0.09450 -0.04904
 C1920 C -0.04227 -0.10400 -0.05397
 C1921 C -0.03135 -0.08334 -0.03200
 C1922 C -0.03357 -0.07255 -0.03645
 C1923 C -0.02878 -0.06294 -0.03155
 C1924 C -0.02171 -0.06395 -0.02215
 C1925 C -0.01944 -0.07463 -0.01764
 C1926 C -0.02423 -0.08427 -0.02253
 C1927 C -0.01688 -0.05395 -0.01718
 C1928 C -0.01315 -0.04526 -0.01339
 H1929 H -0.04904 -0.11848 -0.03010
 H1930 H -0.04035 -0.10179 -0.02137
 H1931 H -0.03395 -0.08794 -0.05447
 H1932 H -0.04284 -0.10456 -0.06308
 H1933 H -0.03914 -0.07153 -0.04362
 H1934 H -0.03063 -0.05470 -0.03508
 H1935 H -0.01396 -0.07551 -0.01037
 H1936 H -0.02226 -0.09247 -0.01900
 C1937 C -0.05775 0.37102 0.44265
 C1938 C -0.05338 0.37902 0.44719
 C1939 C -0.04816 0.38857 0.45264
 C1940 C -0.05434 0.39513 0.46028
 C1941 C -0.04930 0.40444 0.46553
 C1942 C -0.03800 0.40730 0.46321
 C1943 C -0.03185 0.40062 0.45555
 C1944 C -0.03691 0.39132 0.45030
 C1945 C -0.03272 0.41732 0.46861
 C1946 C -0.02147 0.41695 0.47244
 C1947 C -0.01648 0.42648 0.47735
 C1948 C -0.02266 0.43648 0.47850
 C1949 C -0.03387 0.43692 0.47476
 C1950 C -0.03887 0.42741 0.46986
 C1951 C -0.01753 0.44646 0.48317
 C1952 C -0.01362 0.45514 0.48680
 H1953 H -0.06304 0.39305 0.46217
 H1954 H -0.05421 0.40933 0.47149
 H1955 H -0.02320 0.40270 0.45347
 H1956 H -0.03206 0.38631 0.44437
 H1957 H -0.01656 0.40927 0.47170
 H1958 H -0.00779 0.42606 0.48020
 H1959 H -0.03871 0.44465 0.47552
 H1960 H -0.04748 0.42803 0.46684
 C1961 C 0.44259 -0.12870 0.44212
 C1962 C 0.44699 -0.12063 0.44654
 C1963 C 0.45219 -0.11101 0.45187
 C1964 C 0.45343 -0.10087 0.44595
 C1965 C 0.45840 -0.09150 0.45116
 C1966 C 0.46220 -0.09215 0.46240
 C1967 C 0.46095 -0.10240 0.46827
 C1968 C 0.45597 -0.11176 0.46304
 C1969 C 0.46735 -0.08215 0.46798
 C1970 C 0.47682 -0.08335 0.47507
 C1971 C 0.48168 -0.07390 0.48025
 C1972 C 0.47713 -0.06315 0.47843
 C1973 C 0.46769 -0.06188 0.47144
 C1974 C 0.46283 -0.07131 0.46625
 C1975 C 0.48217 -0.05331 0.48352
 C1976 C 0.48606 -0.04473 0.48740
 H1977 H 0.45057 -0.10021 0.43729
 H1978 H 0.45937 -0.08379 0.44637
 H1979 H 0.46366 -0.10313 0.47697
 H1980 H 0.45502 -0.11956 0.46772
 H1981 H 0.48057 -0.09157 0.47646
 H1982 H 0.48902 -0.07496 0.48560
 H1983 H 0.46409 -0.05360 0.46998
 H1984 H 0.45545 -0.07012 0.46098
 C1985 C 0.44239 0.37098 -0.05740
 C1986 C 0.44670 0.37906 -0.05292
 C1987 C 0.45183 0.38871 -0.04757
 C1988 C 0.45815 0.38737 -0.03768
 C1989 C 0.46311 0.39675 -0.03248
 C1990 C 0.46180 0.40761 -0.03710
 C1991 C 0.45545 0.40886 -0.04706
 C1992 C 0.45051 0.39947 -0.05225
 C1993 C 0.46700 0.41761 -0.03156
 C1994 C 0.46106 0.42788 -0.03089
 C1995 C 0.46601 0.43735 -0.02587
 C1996 C 0.47694 0.43671 -0.02143
 C1997 C 0.48290 0.42652 -0.02197
 C1998 C 0.47796 0.41702 -0.02699
 C1999 C 0.48206 0.44665 -0.01665
 C2000 C 0.48598 0.45531 -0.01296
 H2001 H 0.45921 0.37907 -0.03397
 H2002 H 0.46783 0.39553 -0.02475
 H2003 H 0.45442 0.41709 -0.05092
 H2004 H 0.44567 0.40061 -0.05993
 H2005 H 0.45256 0.42857 -0.03418
 H2006 H 0.46131 0.44520 -0.02549
 H2007 H 0.49140 0.42595 -0.01862
 H2008 H 0.48280 0.40927 -0.02750
 C2009 C 0.80803 0.37846 0.44250
 C2010 C 0.80374 0.37042 0.44703
 C2011 C 0.79858 0.36083 0.45241
 C2012 C 0.78752 0.36156 0.45650
 C2013 C 0.78248 0.35222 0.46167
 C2014 C 0.78845 0.34201 0.46280
 C2015 C 0.79958 0.34138 0.45869
 C2016 C 0.80460 0.35073 0.45353
 C2017 C 0.78306 0.33202 0.46814
 C2018 C 0.78472 0.32116 0.46362
 C2019 C 0.77968 0.31174 0.46862
 C2020 C 0.77290 0.31303 0.47820
 C2021 C 0.77117 0.32380 0.48278
 C2022 C 0.77621 0.33324 0.47778
 C2023 C 0.76787 0.30322 0.48330
 C2024 C 0.76399 0.29465 0.48718
 H2025 H 0.78277 0.36933 0.45564
 H2026 H 0.77386 0.35293 0.46462
 H2027 H 0.80444 0.33368 0.45956
 H2028 H 0.81318 0.35007 0.45041
 H2029 H 0.78980 0.31995 0.45612
 H2030 H 0.78106 0.30345 0.46499
 H2031 H 0.76598 0.32488 0.49023
 H2032 H 0.77489 0.34148 0.48154
 C2033 C 0.80711 0.87964 -0.05654
 C2034 C 0.80271 0.87168 -0.05198
 C2035 C 0.79748 0.86214 -0.04658
 C2036 C 0.79199 0.86347 -0.03621
 C2037 C 0.78695 0.85418 -0.03094
 C2038 C 0.78738 0.84342 -0.03599
 C2039 C 0.79288 0.84219 -0.04644
 C2040 C 0.79789 0.85149 -0.05169
 C2041 C 0.78219 0.83349 -0.03037
 C2042 C 0.78776 0.82300 -0.03041
 C2043 C 0.78281 0.81358 -0.02535
 C2044 C 0.77224 0.81449 -0.02015
 C2045 C 0.76666 0.82490 -0.01995
 C2046 C 0.77161 0.83437 -0.02501
 C2047 C 0.76710 0.80456 -0.01541
 C2048 C 0.76327 0.79582 -0.01189
 H2049 H 0.79164 0.87168 -0.03217
 H2050 H 0.78289 0.85537 -0.02285
 H2051 H 0.79321 0.83405 -0.05061
 H2052 H 0.80209 0.85037 -0.05973
 H2053 H 0.79597 0.82210 -0.03431
 H2054 H 0.78721 0.80556 -0.02555
 H2055 H 0.75844 0.82568 -0.01601
 H2056 H 0.76707 0.84230 -0.02494
 C2057 C 0.80756 0.30752 0.37149
 C2058 C 0.80317 0.30314 0.37955
 C2059 C 0.79791 0.29796 0.38918
 C2060 C 0.79514 0.28646 0.38898
 C2061 C 0.79003 0.28143 0.39834
 C2062 C 0.78762 0.28785 0.40804
 C2063 C 0.79041 0.29941 0.40815
 C2064 C 0.79552 0.30442 0.39878
 C2065 C 0.78231 0.28251 0.41806
 C2066 C 0.78596 0.28536 0.42899
 C2067 C 0.78096 0.28039 0.43843
 C2068 C 0.77226 0.27250 0.43709
 C2069 C 0.76856 0.26958 0.42626
 C2070 C 0.77356 0.27454 0.41679
 C2071 C 0.76721 0.26749 0.44692
 C2072 C 0.76336 0.26364 0.45550
 H2073 H 0.79698 0.28138 0.38160
 H2074 H 0.78811 0.27249 0.39806
 H2075 H 0.78853 0.30461 0.41543
 H2076 H 0.79759 0.31334 0.39901
 H2077 H 0.79278 0.29133 0.43025
 H2078 H 0.78391 0.28269 0.44678
 H2079 H 0.76181 0.26350 0.42513
 H2080 H 0.77049 0.27227 0.40848
 C2081 C 0.80608 0.80744 -0.12978
 C2082 C 0.80151 0.80304 -0.12183
 C2083 C 0.79610 0.79781 -0.11229
 C2084 C 0.79269 0.80441 -0.10310
 C2085 C 0.78760 0.79933 -0.09375
 C2086 C 0.78586 0.78757 -0.09346
 C2087 C 0.78922 0.78103 -0.10279
 C2088 C 0.79432 0.78612 -0.11213
 C2089 C 0.78074 0.78216 -0.08338
 C2090 C 0.77283 0.77334 -0.08453
 C2091 C 0.76805 0.76829 -0.07498
 C2092 C 0.77114 0.77198 -0.06419
 C2093 C 0.77902 0.78071 -0.06298
 C2094 C 0.78378 0.78577 -0.07249
 C2095 C 0.76634 0.76691 -0.05425
 C2096 C 0.76274 0.76314 -0.04552
 H2097 H 0.79399 0.81347 -0.10315
 H2098 H 0.78496 0.80462 -0.08678
 H2099 H 0.78811 0.77195 -0.10277
 H2100 H 0.79695 0.78093 -0.11919
 H2101 H 0.77024 0.77045 -0.09281
 H2102 H 0.76195 0.76154 -0.07601
 H2103 H 0.78150 0.78361 -0.05466
 H2104 H 0.78997 0.79241 -0.07131
 C2105 C 0.30680 0.44389 0.87969
 C2106 C 0.30236 0.44836 0.87170
 C2107 C 0.29705 0.45363 0.86214
 C2108 C 0.30198 0.45280 0.85145
 C2109 C 0.29675 0.45777 0.84213
 C2110 C 0.28649 0.46364 0.84337
 C2111 C 0.28164 0.46450 0.85417
 C2112 C 0.28688 0.45952 0.86349
 C2113 C 0.28085 0.46875 0.83341
 C2114 C 0.27579 0.47949 0.83411
 C2115 C 0.27068 0.48433 0.82463
 C2116 C 0.27053 0.47848 0.81436
 C2117 C 0.27545 0.46776 0.81362
 C2118 C 0.28056 0.46292 0.82306
 C2119 C 0.26574 0.48351 0.80441
 C2120 C 0.26215 0.48726 0.79567
 H2121 H 0.30986 0.44830 0.85032
 H2122 H 0.30078 0.45710 0.83395
 H2123 H 0.27369 0.46886 0.85537
 H2124 H 0.28298 0.46018 0.87172
 H2125 H 0.27598 0.48423 0.84193
 H2126 H 0.26696 0.49267 0.82528
 H2127 H 0.27539 0.46316 0.80571
 H2128 H 0.28423 0.45458 0.82229
 C2129 C 0.30801 -0.05745 0.37855
 C2130 C 0.30378 -0.05315 0.37035
 C2131 C 0.29867 -0.04795 0.36064
 C2132 C 0.29452 -0.03691 0.36135
 C2133 C 0.28947 -0.03186 0.35196
 C2134 C 0.28852 -0.03780 0.34171
 C2135 C 0.29274 -0.04890 0.34107
 C2136 C 0.29778 -0.05393 0.35048
 C2137 C 0.28315 -0.03245 0.33172
 C2138 C 0.28774 -0.03400 0.32089
 C2139 C 0.28266 -0.02903 0.31148
 C2140 C 0.27294 -0.02244 0.31276
 C2141 C 0.26831 -0.02081 0.32349
 C2142 C 0.27339 -0.02577 0.33293
 C2143 C 0.26773 -0.01749 0.30296
 C2144 C 0.26373 -0.01365 0.29444
 H2145 H 0.29520 -0.03219 0.36916
 H2146 H 0.28644 -0.02326 0.35267
 H2147 H 0.29201 -0.05374 0.33335
 H2148 H 0.30093 -0.06250 0.34984
 H2149 H 0.29533 -0.03896 0.31969
 H2150 H 0.28633 -0.03033 0.30321
 H2151 H 0.26076 -0.01576 0.32457
 H2152 H 0.26957 -0.02454 0.34114
 C2153 C -0.05736 -0.05786 -0.12905
 C2154 C -0.05286 -0.05358 -0.12097
 C2155 C -0.04749 -0.04846 -0.11134
 C2156 C -0.04310 -0.05524 -0.10273
 C2157 C -0.03794 -0.05029 -0.09334
 C2158 C -0.03710 -0.03846 -0.09243
 C2159 C -0.04150 -0.03171 -0.10116
 C2160 C -0.04666 -0.03669 -0.11054
 C2161 C -0.03178 -0.03319 -0.08236
 C2162 C -0.02469 -0.02370 -0.08346
 C2163 C -0.01977 -0.01873 -0.07393
 C2164 C -0.02187 -0.02318 -0.06321
 C2165 C -0.02889 -0.03262 -0.06203
 C2166 C -0.03382 -0.03759 -0.07153
 C2167 C -0.01697 -0.01809 -0.05331
 C2168 C -0.01317 -0.01418 -0.04472
 H2169 H -0.04367 -0.06436 -0.10328
 H2170 H -0.03451 -0.05571 -0.08684
 H2171 H -0.04111 -0.02259 -0.10064
 H2172 H -0.05006 -0.03136 -0.11715
 H2173 H -0.02286 -0.02020 -0.09169
 H2174 H -0.01433 -0.01144 -0.07493
 H2175 H -0.03061 -0.03610 -0.05376
 H2176 H -0.03936 -0.04478 -0.07038
 C2177 C -0.05791 0.44241 0.37113
 C2178 C -0.05359 0.44687 0.37919
 C2179 C -0.04842 0.45222 0.38882
 C2180 C -0.05510 0.45792 0.39672
 C2181 C -0.05010 0.46308 0.40609
 C2182 C -0.03833 0.46261 0.40769
 C2183 C -0.03169 0.45688 0.39968
 C2184 C -0.03671 0.45172 0.39031
 C2185 C -0.03304 0.46794 0.41775
 C2186 C -0.02271 0.47377 0.41683
 C2187 C -0.01770 0.47868 0.42634
 C2188 C -0.02294 0.47782 0.43688
 C2189 C -0.03322 0.47207 0.43787
 C2190 C -0.03824 0.46717 0.42838
 C2191 C -0.01779 0.48265 0.44678
 C2192 C -0.01383 0.48640 0.45538
 H2193 H -0.06417 0.45839 0.39563
 H2194 H -0.05543 0.46754 0.41203
 H2195 H -0.02263 0.45623 0.40075
 H2196 H -0.03146 0.44730 0.38427
 H2197 H -0.01856 0.47463 0.40873
 H2198 H -0.00974 0.48312 0.42548
 H2199 H -0.03733 0.47131 0.44600
 H2200 H -0.04611 0.46261 0.42941
 C2201 C 0.44272 -0.05758 0.37131
 C2202 C 0.44714 -0.05324 0.37939
 C2203 C 0.45237 -0.04804 0.38904
 C2204 C 0.44622 -0.04660 0.39902
 C2205 C 0.45130 -0.04159 0.40843
 C2206 C 0.46261 -0.03796 0.40798
 C2207 C 0.46870 -0.03940 0.39789
 C2208 C 0.46361 -0.04442 0.38849
 C2209 C 0.46802 -0.03276 0.41802
 C2210 C 0.47523 -0.02336 0.41690
 C2211 C 0.48022 -0.01843 0.42641
 C2212 C 0.47808 -0.02285 0.43714
 C2213 C 0.47098 -0.03222 0.43833
 C2214 C 0.46598 -0.03715 0.42885
 C2215 C 0.48299 -0.01778 0.44702
 C2216 C 0.48676 -0.01387 0.45563
 H2217 H 0.43751 -0.04934 0.39952
 H2218 H 0.44633 -0.04045 0.41601
 H2219 H 0.47745 -0.03680 0.39733
 H2220 H 0.46845 -0.04551 0.38081
 H2221 H 0.47686 -0.01971 0.40868
 H2222 H 0.48568 -0.01116 0.42540
 H2223 H 0.46928 -0.03572 0.44661
 H2224 H 0.46061 -0.04447 0.42999
 C2225 C 0.44247 0.44270 -0.12904
 C2226 C 0.44680 0.44720 -0.12100
 C2227 C 0.45194 0.45255 -0.11138
 C2228 C 0.46371 0.45333 -0.11058
 C2229 C 0.46870 0.45844 -0.10118
 C2230 C 0.46197 0.46283 -0.09243
 C2231 C 0.45014 0.46206 -0.09335
 C2232 C 0.44517 0.45695 -0.10276
 C2233 C 0.46724 0.46805 -0.08232
 C2234 C 0.46283 0.46592 -0.07151
 C2235 C 0.46780 0.47076 -0.06197
 C2236 C 0.47724 0.47779 -0.06308
 C2237 C 0.48170 0.47998 -0.07379
 C2238 C 0.47674 0.47513 -0.08336
 C2239 C 0.48228 0.48265 -0.05315
 C2240 C 0.48613 0.48642 -0.04452
 H2241 H 0.46903 0.44993 -0.11720
 H2242 H 0.47782 0.45878 -0.10065
 H2243 H 0.44473 0.46549 -0.08683
 H2244 H 0.43606 0.45643 -0.10331
 H2245 H 0.45564 0.46038 -0.07041
 H2246 H 0.46430 0.46898 -0.05372
 H2247 H 0.48899 0.48542 -0.07474
 H2248 H 0.48025 0.47702 -0.09157
 C2249 C 0.44295 0.80830 0.37852
 C2250 C 0.44731 0.80398 0.37041
 C2251 C 0.45249 0.79876 0.36073
 C2252 C 0.46364 0.79491 0.36132
 C2253 C 0.46866 0.78980 0.35194
 C2254 C 0.46258 0.78849 0.34182
 C2255 C 0.45136 0.79238 0.34132
 C2256 C 0.44636 0.79748 0.35071
 C2257 C 0.46792 0.78314 0.33180
 C2258 C 0.46601 0.78752 0.32094
 C2259 C 0.47100 0.78249 0.31151
 C2260 C 0.47796 0.77303 0.31278
 C2261 C 0.47994 0.76861 0.32355
 C2262 C 0.47496 0.77363 0.33301
 C2263 C 0.48295 0.76790 0.30296
 C2264 C 0.48681 0.76395 0.29442
 H2265 H 0.46847 0.79588 0.36903
 H2266 H 0.47735 0.78702 0.35254
 H2267 H 0.44640 0.79136 0.33370
 H2268 H 0.43770 0.80039 0.35017
 H2269 H 0.46077 0.79491 0.31974
 H2270 H 0.46942 0.78600 0.30321
 H2271 H 0.48528 0.76126 0.32462
 H2272 H 0.47648 0.76999 0.34124
 C2273 C -0.05544 0.80656 0.88025
 C2274 C -0.05093 0.80220 0.87224
 C2275 C -0.04566 0.79703 0.86259
 C2276 C -0.04545 0.80271 0.85226
 C2277 C -0.04050 0.79765 0.84282
 C2278 C -0.03570 0.78680 0.84360
 C2279 C -0.03590 0.78118 0.85405
 C2280 C -0.04086 0.78626 0.86348
 C2281 C -0.03062 0.78136 0.83351
 C2282 C -0.02047 0.77522 0.83436
 C2283 C -0.01565 0.77025 0.82478
 C2284 C -0.02093 0.77133 0.81428
 C2285 C -0.03106 0.77735 0.81338
 C2286 C -0.03587 0.78233 0.82292
 C2287 C -0.01599 0.76653 0.80428
 C2288 C -0.01232 0.76290 0.79551
 H2289 H -0.04912 0.81106 0.85148
 H2290 H -0.04035 0.80226 0.83494
 H2291 H -0.03239 0.77277 0.85488
 H2292 H -0.04102 0.78177 0.87143
 H2293 H -0.01617 0.77443 0.84238
 H2294 H -0.00779 0.76565 0.82556
 H2295 H -0.03523 0.77823 0.80529
 H2296 H -0.04377 0.78685 0.82201
 C2297 C 0.37143 0.80755 0.30716
 C2298 C 0.37951 0.80320 0.30276
 C2299 C 0.38915 0.79797 0.29753
 C2300 C 0.39925 0.80400 0.29635
 C2301 C 0.40864 0.79889 0.29137
 C2302 C 0.40807 0.78766 0.28748
 C2303 C 0.39786 0.78169 0.28865
 C2304 C 0.38847 0.78681 0.29365
 C2305 C 0.41811 0.78219 0.28232
 C2306 C 0.41697 0.77515 0.27281
 C2307 C 0.42647 0.77007 0.26794
 C2308 C 0.43719 0.77196 0.27254
 C2309 C 0.43839 0.77892 0.28202
 C2310 C 0.42893 0.78400 0.28689
 C2311 C 0.44706 0.76696 0.26753
 C2312 C 0.45567 0.76313 0.26368
 H2313 H 0.39986 0.81265 0.29929
 H2314 H 0.41633 0.80377 0.29045
 H2315 H 0.39719 0.77299 0.28588
 H2316 H 0.38071 0.78205 0.29455
 H2317 H 0.40877 0.77370 0.26903
 H2318 H 0.42546 0.76474 0.26058
 H2319 H 0.44666 0.78043 0.28566
 H2320 H 0.43006 0.78924 0.29429
 C2321 C -0.12970 0.80697 0.80663
 C2322 C -0.12169 0.80249 0.80223
 C2323 C -0.11210 0.79717 0.79700
 C2324 C -0.11323 0.79186 0.78649
 C2325 C -0.10389 0.78677 0.78138
 C2326 C -0.09327 0.78693 0.78670
 C2327 C -0.09223 0.79224 0.79729
 C2328 C -0.10159 0.79732 0.80239
 C2329 C -0.08327 0.78171 0.78122
 C2330 C -0.07270 0.78712 0.78165
 C2331 C -0.06324 0.78218 0.77665
 C2332 C -0.06418 0.77177 0.77111
 C2333 C -0.07467 0.76634 0.77055
 C2334 C -0.08417 0.77128 0.77555
 C2335 C -0.05425 0.76668 0.76631
 C2336 C -0.04553 0.76289 0.76268
 H2337 H -0.12133 0.79172 0.78223
 H2338 H -0.10493 0.78287 0.77317
 H2339 H -0.08421 0.79237 0.80168
 H2340 H -0.10062 0.80136 0.81054
 H2341 H -0.07176 0.79523 0.78579
 H2342 H -0.05517 0.78647 0.77713
 H2343 H -0.07548 0.75825 0.76633
 H2344 H -0.09217 0.76686 0.77517
 C2345 C 0.87881 0.30798 0.44261
 C2346 C 0.87073 0.30364 0.44702
 C2347 C 0.86107 0.29843 0.45225
 C2348 C 0.86228 0.29265 0.46247
 C2349 C 0.85291 0.28756 0.46753
 C2350 C 0.84219 0.28821 0.46244
 C2351 C 0.84108 0.29403 0.45215
 C2352 C 0.85046 0.29911 0.44710
 C2353 C 0.83221 0.28287 0.46783
 C2354 C 0.82170 0.28841 0.46783
 C2355 C 0.81227 0.28337 0.47279
 C2356 C 0.81319 0.27272 0.47784
 C2357 C 0.82360 0.26714 0.47792
 C2358 C 0.83306 0.27218 0.47296
 C2359 C 0.80333 0.26755 0.48270
 C2360 C 0.79476 0.26361 0.48650
 H2361 H 0.87045 0.29210 0.46654
 H2362 H 0.85401 0.28326 0.47552
 H2363 H 0.83298 0.29455 0.44794
 H2364 H 0.84944 0.30353 0.43917
 H2365 H 0.82080 0.29670 0.46409
 H2366 H 0.80425 0.28777 0.47268
 H2367 H 0.82439 0.25887 0.48175
 H2368 H 0.84099 0.26764 0.47296
 C2369 C 0.87975 0.80649 -0.05659
 C2370 C 0.87183 0.80200 -0.05205
 C2371 C 0.86231 0.79669 -0.04669
 C2372 C 0.85143 0.79842 -0.05094
 C2373 C 0.84215 0.79336 -0.04571
 C2374 C 0.84364 0.78649 -0.03614
 C2375 C 0.85462 0.78474 -0.03197
 C2376 C 0.86390 0.78983 -0.03721
 C2377 C 0.83373 0.78125 -0.03052
 C2378 C 0.83416 0.77002 -0.02665
 C2379 C 0.82468 0.76503 -0.02166
 C2380 C 0.81470 0.77123 -0.02044
 C2381 C 0.81425 0.78245 -0.02414
 C2382 C 0.82369 0.78743 -0.02914
 C2383 C 0.80469 0.76611 -0.01585
 C2384 C 0.79589 0.76235 -0.01239
 H2385 H 0.85011 0.80368 -0.05830
 H2386 H 0.83382 0.79472 -0.04922
 H2387 H 0.85602 0.77959 -0.02456
 H2388 H 0.87229 0.78846 -0.03385
 H2389 H 0.84174 0.76501 -0.02770
 H2390 H 0.82509 0.75632 -0.01889
 H2391 H 0.80656 0.78732 -0.02325
 H2392 H 0.82315 0.79613 -0.03188
 C2393 C -0.12864 -0.05736 -0.05754
 C2394 C -0.12065 -0.05292 -0.05304
 C2395 C -0.11115 -0.04760 -0.04764
 C2396 C -0.10120 -0.05370 -0.04583
 C2397 C -0.09197 -0.04855 -0.04056
 C2398 C -0.09257 -0.03721 -0.03703
 C2399 C -0.10261 -0.03115 -0.03890
 C2400 C -0.11183 -0.03632 -0.04417
 C2401 C -0.08273 -0.03174 -0.03149
 C2402 C -0.07967 -0.02057 -0.03421
 C2403 C -0.07017 -0.01558 -0.02928
 C2404 C -0.06364 -0.02164 -0.02153
 C2405 C -0.06670 -0.03269 -0.01866
 C2406 C -0.07619 -0.03770 -0.02359
 C2407 C -0.05342 -0.01684 -0.01703
 C2408 C -0.04460 -0.01318 -0.01351
 H2409 H -0.10056 -0.06243 -0.04852
 H2410 H -0.08430 -0.05340 -0.03940
 H2411 H -0.10337 -0.02245 -0.03617
 H2412 H -0.11951 -0.03153 -0.04550
 H2413 H -0.08446 -0.01581 -0.04037
 H2414 H -0.06781 -0.00706 -0.03165
 H2415 H -0.06168 -0.03748 -0.01271
 H2416 H -0.07841 -0.04625 -0.02121
 C2417 C -0.12859 0.44238 0.44220
 C2418 C -0.12057 0.44684 0.44662
 C2419 C -0.11100 0.45224 0.45183
 C2420 C -0.10875 0.45055 0.46330
 C2421 C -0.09944 0.45579 0.46835
 C2422 C -0.09226 0.46279 0.46198
 C2423 C -0.09463 0.46445 0.45047
 C2424 C -0.10394 0.45921 0.44544
 C2425 C -0.08227 0.46822 0.46728
 C2426 C -0.07193 0.46873 0.46146
 C2427 C -0.06249 0.47374 0.46645
 C2428 C -0.06323 0.47833 0.47731
 C2429 C -0.07347 0.47790 0.48318
 C2430 C -0.08294 0.47287 0.47820
 C2431 C -0.05334 0.48320 0.48243
 C2432 C -0.04473 0.48697 0.48633
 H2433 H -0.11415 0.44515 0.46832
 H2434 H -0.09776 0.45423 0.47719
 H2435 H -0.08934 0.46990 0.44538
 H2436 H -0.10563 0.46061 0.43657
 H2437 H -0.07109 0.46507 0.45313
 H2438 H -0.05457 0.47396 0.46187
 H2439 H -0.07413 0.48141 0.49160
 H2440 H -0.09081 0.47271 0.48284
 C2441 C 0.37137 -0.05742 0.44177
 C2442 C 0.37946 -0.05303 0.44615
 C2443 C 0.38908 -0.04782 0.45144
 C2444 C 0.38842 -0.04416 0.46266
 C2445 C 0.39779 -0.03915 0.46783
 C2446 C 0.40796 -0.03775 0.46186
 C2447 C 0.40852 -0.04144 0.45058
 C2448 C 0.39914 -0.04643 0.44541
 C2449 C 0.41796 -0.03255 0.46737
 C2450 C 0.42882 -0.03696 0.46550
 C2451 C 0.43825 -0.03205 0.47062
 C2452 C 0.43697 -0.02266 0.47769
 C2453 C 0.42620 -0.01821 0.47965
 C2454 C 0.41674 -0.02313 0.47454
 C2455 C 0.44679 -0.01760 0.48276
 C2456 C 0.45536 -0.01369 0.48665
 H2457 H 0.38069 -0.04523 0.46741
 H2458 H 0.39713 -0.03653 0.47657
 H2459 H 0.41618 -0.04035 0.44571
 H2460 H 0.39974 -0.04921 0.43672
 H2461 H 0.43002 -0.04429 0.46016
 H2462 H 0.44655 -0.03557 0.46906
 H2463 H 0.42512 -0.01091 0.48507
 H2464 H 0.40851 -0.01946 0.47604
 C2465 C 0.37076 0.44308 -0.05786
 C2466 C 0.37886 0.44751 -0.05354
 C2467 C 0.38852 0.45277 -0.04834
 C2468 C 0.38768 0.45725 -0.03745
 C2469 C 0.39707 0.46230 -0.03235
 C2470 C 0.40745 0.46290 -0.03810
 C2471 C 0.40819 0.45839 -0.04907
 C2472 C 0.39878 0.45336 -0.05415
 C2473 C 0.41748 0.46813 -0.03266
 C2474 C 0.42822 0.46322 -0.03390
 C2475 C 0.43768 0.46815 -0.02885
 C2476 C 0.43655 0.47805 -0.02248
 C2477 C 0.42590 0.48299 -0.02115
 C2478 C 0.41641 0.47806 -0.02620
 C2479 C 0.44641 0.48312 -0.01750
 C2480 C 0.45501 0.48701 -0.01367
 H2481 H 0.37977 0.45681 -0.03286
 H2482 H 0.39626 0.46556 -0.02385
 H2483 H 0.41601 0.45886 -0.05377
 H2484 H 0.39952 0.44995 -0.06260
 H2485 H 0.42930 0.45549 -0.03868
 H2486 H 0.44588 0.46424 -0.02992
 H2487 H 0.42494 0.49068 -0.01628
 H2488 H 0.40828 0.48211 -0.02519
 C2489 C 0.37967 0.44371 0.80675
 C2490 C 0.37175 0.44836 0.80236
 C2491 C 0.36225 0.45387 0.79719
 C2492 C 0.35282 0.45672 0.80370
 C2493 C 0.34349 0.46191 0.79867
 C2494 C 0.34348 0.46432 0.78705
 C2495 C 0.35304 0.46152 0.78059
 C2496 C 0.36236 0.45632 0.78564
 C2497 C 0.33342 0.46954 0.78168
 C2498 C 0.33462 0.47800 0.77343
 C2499 C 0.32508 0.48287 0.76842
 C2500 C 0.31427 0.47931 0.77159
 C2501 C 0.31302 0.47088 0.77975
 C2502 C 0.32251 0.46602 0.78476
 C2503 C 0.30434 0.48420 0.76659
 C2504 C 0.29559 0.48782 0.76287
 H2505 H 0.35266 0.45490 0.81265
 H2506 H 0.33632 0.46410 0.80390
 H2507 H 0.35322 0.46315 0.77161
 H2508 H 0.36961 0.45412 0.78051
 H2509 H 0.34291 0.48096 0.77096
 H2510 H 0.32614 0.48942 0.76213
 H2511 H 0.30468 0.46803 0.78224
 H2512 H 0.32131 0.45940 0.79095
 C2513 C 0.37844 -0.05754 0.30773
 C2514 C 0.37039 -0.05311 0.30338
 C2515 C 0.36078 -0.04780 0.29818
 C2516 C 0.36145 -0.03656 0.29460
 C2517 C 0.35211 -0.03137 0.28958
 C2518 C 0.34196 -0.03738 0.28810
 C2519 C 0.34138 -0.04869 0.29171
 C2520 C 0.35074 -0.05386 0.29671
 C2521 C 0.33199 -0.03187 0.28287
 C2522 C 0.32110 -0.03380 0.28721
 C2523 C 0.31170 -0.02870 0.28225
 C2524 C 0.31303 -0.02160 0.27291
 C2525 C 0.32382 -0.01959 0.26854
 C2526 C 0.33326 -0.02468 0.27350
 C2527 C 0.30323 -0.01659 0.26780
 C2528 C 0.29466 -0.01277 0.26386
 H2529 H 0.36918 -0.03178 0.29572
 H2530 H 0.35277 -0.02262 0.28702
 H2531 H 0.33374 -0.05358 0.29056
 H2532 H 0.35014 -0.06257 0.29943
 H2533 H 0.31987 -0.03915 0.29450
 H2534 H 0.30338 -0.03030 0.28571
 H2535 H 0.32494 -0.01416 0.26128
 H2536 H 0.34151 -0.02315 0.26990
 C2537 C 0.12105 0.55693 0.69239
 C2538 C 0.12910 0.55248 0.69675
 C2539 C 0.13871 0.54722 0.70198
 C2540 C 0.14913 0.54706 0.69642
 C2541 C 0.15851 0.54208 0.70155
 C2542 C 0.15760 0.53718 0.71232
 C2543 C 0.14707 0.53731 0.71781
 C2544 C 0.13769 0.54231 0.71267
 C2545 C 0.16762 0.53206 0.71784
 C2546 C 0.16668 0.52188 0.72390
 C2547 C 0.17618 0.51704 0.72898
 C2548 C 0.18671 0.52233 0.72809
 C2549 C 0.18771 0.53249 0.72215
 C2550 C 0.17824 0.53733 0.71706
 C2551 C 0.19662 0.51733 0.73302
 C2552 C 0.20525 0.51350 0.73680
 H2553 H 0.15001 0.55081 0.68813
 H2554 H 0.16646 0.54197 0.69704
 H2555 H 0.14612 0.53373 0.72616
 H2556 H 0.12967 0.54241 0.71705
 H2557 H 0.15864 0.51756 0.72454
 H2558 H 0.17534 0.50915 0.73351
 H2559 H 0.19583 0.53666 0.72141
 H2560 H 0.17921 0.54525 0.71260
 C2561 C 0.12017 0.05606 0.19350
 C2562 C 0.12815 0.05157 0.19792
 C2563 C 0.13770 0.04622 0.20319
 C2564 C 0.13609 0.03722 0.21067
 C2565 C 0.14538 0.03200 0.21574
 C2566 C 0.15642 0.03571 0.21336
 C2567 C 0.15793 0.04479 0.20586
 C2568 C 0.14863 0.05001 0.20082
 C2569 C 0.16632 0.03013 0.21863
 C2570 C 0.17612 0.02806 0.21225
 C2571 C 0.18558 0.02311 0.21724
 C2572 C 0.18539 0.02012 0.22866
 C2573 C 0.17565 0.02202 0.23506
 C2574 C 0.16615 0.02697 0.23007
 C2575 C 0.19543 0.01560 0.23377
 C2576 C 0.20424 0.01217 0.23754
 H2577 H 0.12765 0.03421 0.21254
 H2578 H 0.14395 0.02495 0.22138
 H2579 H 0.16631 0.04795 0.20400
 H2580 H 0.14997 0.05699 0.19508
 H2581 H 0.17646 0.03025 0.20339
 H2582 H 0.19309 0.02170 0.21221
 H2583 H 0.17544 0.01981 0.24393
 H2584 H 0.15877 0.02856 0.23522
 C2585 C 0.63000 0.69375 0.19318
 C2586 C 0.62204 0.69828 0.19762
 C2587 C 0.61250 0.70365 0.20289
 C2588 C 0.60153 0.70033 0.19999
 C2589 C 0.59224 0.70554 0.20506
 C2590 C 0.59380 0.71415 0.21311
 C2591 C 0.60486 0.71740 0.21600
 C2592 C 0.61415 0.71218 0.21091
 C2593 C 0.58390 0.71971 0.21844
 C2594 C 0.58386 0.72221 0.23005
 C2595 C 0.57436 0.72713 0.23508
 C2596 C 0.56484 0.72964 0.22855
 C2597 C 0.56487 0.72731 0.21698
 C2598 C 0.57433 0.72239 0.21195
 C2599 C 0.55478 0.73413 0.23368
 C2600 C 0.54598 0.73756 0.23746
 H2601 H 0.60016 0.69370 0.19382
 H2602 H 0.58384 0.70274 0.20278
 H2603 H 0.60633 0.72408 0.22208
 H2604 H 0.62261 0.71482 0.21319
 H2605 H 0.59105 0.72013 0.23529
 H2606 H 0.57439 0.72882 0.24407
 H2607 H 0.55754 0.72919 0.21185
 H2608 H 0.57417 0.72071 0.20296
 C2609 C 0.12863 0.69221 0.69253
 C2610 C 0.12058 0.69653 0.69701
 C2611 C 0.11096 0.70170 0.70235
 C2612 C 0.10120 0.69535 0.70437
 C2613 C 0.09183 0.70037 0.70949
 C2614 C 0.09209 0.71183 0.71267
 C2615 C 0.10196 0.71813 0.71064
 C2616 C 0.11132 0.71310 0.70550
 C2617 C 0.08206 0.71719 0.71797
 C2618 C 0.08332 0.72488 0.72696
 C2619 C 0.07385 0.72989 0.73193
 C2620 C 0.06302 0.72730 0.72797
 C2621 C 0.06169 0.71969 0.71902
 C2622 C 0.07113 0.71467 0.71405
 C2623 C 0.05318 0.73235 0.73301
 C2624 C 0.04461 0.73624 0.73687
 H2625 H 0.10084 0.68651 0.70199
 H2626 H 0.08442 0.69525 0.71107
 H2627 H 0.10237 0.72700 0.71285
 H2628 H 0.11882 0.71810 0.70395
 H2629 H 0.09162 0.72689 0.73025
 H2630 H 0.07497 0.73575 0.73888
 H2631 H 0.05334 0.71764 0.71586
 H2632 H 0.06988 0.70892 0.70705
 C2633 C 0.61994 0.19394 0.55584
 C2634 C 0.62787 0.19832 0.55122
 C2635 C 0.63737 0.20347 0.54569
 C2636 C 0.64464 0.19688 0.53913
 C2637 C 0.65397 0.20182 0.53386
 C2638 C 0.65614 0.21345 0.53510
 C2639 C 0.64872 0.22003 0.54164
 C2640 C 0.63940 0.21506 0.54690
 C2641 C 0.66626 0.21862 0.52980
 C2642 C 0.66567 0.22937 0.52475
 C2643 C 0.67530 0.23426 0.51994
 C2644 C 0.68559 0.22846 0.52013
 C2645 C 0.68623 0.21776 0.52509
 C2646 C 0.67664 0.21287 0.52989
 C2647 C 0.69567 0.23348 0.51557
 C2648 C 0.70449 0.23719 0.51214
 H2649 H 0.64313 0.18791 0.53810
 H2650 H 0.65944 0.19656 0.52877
 H2651 H 0.65025 0.22897 0.54287
 H2652 H 0.63383 0.22024 0.55199
 H2653 H 0.65777 0.23394 0.52445
 H2654 H 0.67472 0.24255 0.51613
 H2655 H 0.69418 0.21324 0.52535
 H2656 H 0.67741 0.20467 0.53386
 C2657 C 0.62095 0.69326 0.05698
 C2658 C 0.62903 0.69763 0.05261
 C2659 C 0.63871 0.70280 0.04738
 C2660 C 0.63754 0.70856 0.03715
 C2661 C 0.64696 0.71349 0.03202
 C2662 C 0.65769 0.71270 0.03708
 C2663 C 0.65876 0.70690 0.04738
 C2664 C 0.64933 0.70199 0.05249
 C2665 C 0.66773 0.71784 0.03160
 C2666 C 0.67813 0.71209 0.03153
 C2667 C 0.68760 0.71694 0.02646
 C2668 C 0.68684 0.72758 0.02138
 C2669 C 0.67654 0.73336 0.02136
 C2670 C 0.66703 0.72852 0.02643
 C2671 C 0.69675 0.73259 0.01647
 C2672 C 0.70538 0.73645 0.01270
 H2673 H 0.62936 0.70919 0.03310
 H2674 H 0.64589 0.71776 0.02402
 H2675 H 0.66687 0.70626 0.05154
 H2676 H 0.65033 0.69755 0.06042
 H2677 H 0.67891 0.70381 0.03531
 H2678 H 0.69555 0.71240 0.02653
 H2679 H 0.67587 0.74163 0.01753
 H2680 H 0.65918 0.73321 0.02648
 C2681 C 0.12987 0.05667 0.05669
 C2682 C 0.12184 0.05223 0.05228
 C2683 C 0.11225 0.04694 0.04698
 C2684 C 0.11262 0.03549 0.04404
 C2685 C 0.10329 0.03037 0.03891
 C2686 C 0.09346 0.03665 0.03667
 C2687 C 0.09320 0.04817 0.03961
 C2688 C 0.10254 0.05327 0.04473
 C2689 C 0.08346 0.03121 0.03139
 C2690 C 0.07252 0.03380 0.03521
 C2691 C 0.06309 0.02878 0.03021
 C2692 C 0.06443 0.02110 0.02132
 C2693 C 0.07527 0.01841 0.01747
 C2694 C 0.08474 0.02342 0.02249
 C2695 C 0.05457 0.01614 0.01622
 C2696 C 0.04589 0.01242 0.01242
 H2697 H 0.12009 0.03051 0.04576
 H2698 H 0.10369 0.02146 0.03686
 H2699 H 0.08582 0.05327 0.03785
 H2700 H 0.10219 0.06215 0.04692
 H2701 H 0.07126 0.03961 0.04216
 H2702 H 0.05473 0.03089 0.03328
 H2703 H 0.07640 0.01250 0.01059
 H2704 H 0.09305 0.02135 0.01929
 C2705 C 0.12943 0.55670 0.55700
 C2706 C 0.12147 0.55218 0.55252
 C2707 C 0.11196 0.54684 0.54715
 C2708 C 0.10104 0.54875 0.55122
 C2709 C 0.09177 0.54370 0.54594
 C2710 C 0.09330 0.53665 0.53649
 C2711 C 0.10432 0.53471 0.53250
 C2712 C 0.11358 0.53980 0.53780
 C2713 C 0.08342 0.53142 0.53079
 C2714 C 0.08380 0.52014 0.52702
 C2715 C 0.07436 0.51520 0.52189
 C2716 C 0.06446 0.52148 0.52042
 C2717 C 0.06406 0.53273 0.52403
 C2718 C 0.07346 0.53768 0.52917
 C2719 C 0.05449 0.51640 0.51568
 C2720 C 0.04573 0.51264 0.51209
 H2721 H 0.09968 0.55416 0.55848
 H2722 H 0.08341 0.54522 0.54930
 H2723 H 0.10576 0.52943 0.52518
 H2724 H 0.12200 0.53828 0.53456
 H2725 H 0.09130 0.51508 0.52826
 H2726 H 0.07473 0.50645 0.51921
 H2727 H 0.05643 0.53767 0.52296
 H2728 H 0.07295 0.54642 0.53182
 C2729 C 0.63001 0.05646 0.55611
 C2730 C 0.62201 0.05208 0.55160
 C2731 C 0.61243 0.04688 0.54622
 C2732 C 0.61399 0.03948 0.53713
 C2733 C 0.60467 0.03448 0.53188
 C2734 C 0.59365 0.03684 0.53564
 C2735 C 0.59218 0.04425 0.54482
 C2736 C 0.60151 0.04923 0.55006
 C2737 C 0.58371 0.03163 0.53004
 C2738 C 0.57390 0.03804 0.52811
 C2739 C 0.56441 0.03310 0.52314
 C2740 C 0.56458 0.02170 0.52001
 C2741 C 0.57434 0.01527 0.52175
 C2742 C 0.58387 0.02021 0.52671
 C2743 C 0.55451 0.01662 0.51550
 C2744 C 0.54568 0.01286 0.51211
 H2745 H 0.62241 0.03762 0.53408
 H2746 H 0.60606 0.02890 0.52476
 H2747 H 0.58383 0.04610 0.54802
 H2748 H 0.60021 0.05491 0.55712
 H2749 H 0.57358 0.04689 0.53042
 H2750 H 0.55689 0.03815 0.52185
 H2751 H 0.57453 0.00642 0.51942
 H2752 H 0.59125 0.01503 0.52819
 C2753 C 0.62965 0.55680 0.05627
 C2754 C 0.62166 0.55243 0.05170
 C2755 C 0.61211 0.54724 0.04625
 C2756 C 0.60343 0.55396 0.04191
 C2757 C 0.59408 0.54895 0.03673
 C2758 C 0.59329 0.53711 0.03581
 C2759 C 0.60210 0.53043 0.04013
 C2760 C 0.61145 0.53547 0.04533
 C2761 C 0.58322 0.53179 0.03055
 C2762 C 0.58433 0.52235 0.02339
 C2763 C 0.57478 0.51735 0.01851
 C2764 C 0.56404 0.52171 0.02074
 C2765 C 0.56286 0.53108 0.02786
 C2766 C 0.57236 0.53609 0.03272
 C2767 C 0.55410 0.51664 0.01592
 C2768 C 0.54536 0.51288 0.01229
 H2769 H 0.60387 0.56308 0.04255
 H2770 H 0.58751 0.55433 0.03335
 H2771 H 0.60168 0.52130 0.03969
 H2772 H 0.61811 0.53018 0.04869
 H2773 H 0.59258 0.51892 0.02146
 H2774 H 0.57579 0.51010 0.01300
 H2775 H 0.55457 0.53449 0.02969
 H2776 H 0.57120 0.54322 0.03833
 C2777 C 0.05660 0.05565 0.12991
 C2778 C 0.05223 0.05117 0.12188
 C2779 C 0.04701 0.04588 0.11227
 C2780 C 0.04196 0.03524 0.11333
 C2781 C 0.03693 0.03008 0.10396
 C2782 C 0.03692 0.03551 0.09341
 C2783 C 0.04197 0.04624 0.09246
 C2784 C 0.04698 0.05138 0.10183
 C2785 C 0.03177 0.03001 0.08340
 C2786 C 0.03712 0.03066 0.07283
 C2787 C 0.03223 0.02566 0.06334
 C2788 C 0.02194 0.01992 0.06426
 C2789 C 0.01657 0.01913 0.07474
 C2790 C 0.02147 0.02413 0.08427
 C2791 C 0.01688 0.01518 0.05429
 C2792 C 0.01313 0.01162 0.04552
 H2793 H 0.04195 0.03090 0.12137
 H2794 H 0.03322 0.02178 0.10493
 H2795 H 0.04195 0.05071 0.08450
 H2796 H 0.05082 0.05964 0.10094
 H2797 H 0.04513 0.03497 0.07191
 H2798 H 0.03646 0.02632 0.05526
 H2799 H 0.00857 0.01476 0.07553
 H2800 H 0.01710 0.02358 0.09227
 C2801 C 0.05689 0.55628 0.62945
 C2802 C 0.05240 0.55159 0.62161
 C2803 C 0.04707 0.54595 0.61225
 C2804 C 0.03663 0.54974 0.60821
 C2805 C 0.03151 0.54432 0.59905
 C2806 C 0.03677 0.53505 0.59380
 C2807 C 0.04723 0.53126 0.59799
 C2808 C 0.05233 0.53668 0.60715
 C2809 C 0.03152 0.52951 0.58384
 C2810 C 0.03823 0.52622 0.57462
 C2811 C 0.03330 0.52132 0.56509
 C2812 C 0.02161 0.51961 0.56464
 C2813 C 0.01486 0.52275 0.57381
 C2814 C 0.01978 0.52767 0.58336
 C2815 C 0.01662 0.51518 0.55449
 C2816 C 0.01292 0.51182 0.54562
 H2817 H 0.03250 0.55692 0.61208
 H2818 H 0.02354 0.54754 0.59592
 H2819 H 0.05143 0.52406 0.59422
 H2820 H 0.06039 0.53366 0.61024
 H2821 H 0.04725 0.52769 0.57465
 H2822 H 0.03859 0.51903 0.55799
 H2823 H 0.00580 0.52151 0.57352
 H2824 H 0.01442 0.53000 0.59038
 C2825 C 0.55662 0.05697 0.62992
 C2826 C 0.55217 0.05261 0.62187
 C2827 C 0.54679 0.04737 0.61230
 C2828 C 0.54958 0.03629 0.60923
 C2829 C 0.54433 0.03119 0.59996
 C2830 C 0.53622 0.03712 0.59362
 C2831 C 0.53346 0.04824 0.59680
 C2832 C 0.53871 0.05332 0.60608
 C2833 C 0.53080 0.03180 0.58363
 C2834 C 0.52898 0.03812 0.57375
 C2835 C 0.52406 0.03311 0.56427
 C2836 C 0.52088 0.02172 0.56451
 C2837 C 0.52258 0.01536 0.57430
 C2838 C 0.52751 0.02037 0.58381
 C2839 C 0.51625 0.01661 0.55449
 C2840 C 0.51271 0.01281 0.54573
 H2841 H 0.55584 0.03162 0.61398
 H2842 H 0.54676 0.02268 0.59763
 H2843 H 0.52716 0.05298 0.59218
 H2844 H 0.53646 0.06188 0.60840
 H2845 H 0.53157 0.04688 0.57327
 H2846 H 0.52287 0.03809 0.55670
 H2847 H 0.52017 0.00654 0.57457
 H2848 H 0.52869 0.01532 0.59133
 C2849 C 0.55633 0.55648 0.12979
 C2850 C 0.55178 0.55185 0.12194
 C2851 C 0.54644 0.54626 0.11256
 C2852 C 0.55156 0.53684 0.10760
 C2853 C 0.54647 0.53146 0.09840
 C2854 C 0.53616 0.53545 0.09404
 C2855 C 0.53103 0.54488 0.09914
 C2856 C 0.53615 0.55025 0.10833
 C2857 C 0.53093 0.52995 0.08404
 C2858 C 0.51916 0.52838 0.08340
 C2859 C 0.51427 0.52349 0.07381
 C2860 C 0.52108 0.52011 0.06477
 C2861 C 0.53279 0.52155 0.06539
 C2862 C 0.53769 0.52642 0.07494
 C2863 C 0.51613 0.51568 0.05459
 C2864 C 0.51246 0.51230 0.04572
 H2865 H 0.55951 0.53366 0.11082
 H2866 H 0.55056 0.52414 0.09475
 H2867 H 0.52318 0.54824 0.09588
 H2868 H 0.53212 0.55756 0.11209
 H2869 H 0.51375 0.53090 0.09032
 H2870 H 0.50519 0.52246 0.07340
 H2871 H 0.53813 0.51906 0.05839
 H2872 H 0.54675 0.52767 0.07510
 C2873 C 0.19230 0.55741 0.62135
 C2874 C 0.19662 0.55301 0.62943
 C2875 C 0.20183 0.54778 0.63908
 C2876 C 0.21262 0.54305 0.63816
 C2877 C 0.21772 0.53803 0.64754
 C2878 C 0.21209 0.53769 0.65798
 C2879 C 0.20123 0.54244 0.65881
 C2880 C 0.19614 0.54745 0.64942
 C2881 C 0.21752 0.53246 0.66799
 C2882 C 0.21654 0.53754 0.67868
 C2883 C 0.22158 0.53260 0.68812
 C2884 C 0.22766 0.52253 0.68703
 C2885 C 0.22873 0.51742 0.67644
 C2886 C 0.22371 0.52235 0.66696
 C2887 C 0.23259 0.51745 0.69689
 C2888 C 0.23642 0.51356 0.70547
 H2889 H 0.21712 0.54329 0.63020
 H2890 H 0.22614 0.53457 0.64667
 H2891 H 0.19661 0.54218 0.66669
 H2892 H 0.18777 0.55106 0.65022
 H2893 H 0.21198 0.54540 0.67972
 H2894 H 0.22071 0.53664 0.69628
 H2895 H 0.23338 0.50959 0.67551
 H2896 H 0.22450 0.51818 0.65887
 C2897 C 0.19333 0.05623 0.12036
 C2898 C 0.19771 0.05159 0.12828
 C2899 C 0.20288 0.04606 0.13776
 C2900 C 0.21462 0.04479 0.13826
 C2901 C 0.21963 0.03955 0.14757
 C2902 C 0.21294 0.03552 0.15651
 C2903 C 0.20114 0.03678 0.15589
 C2904 C 0.19615 0.04201 0.14658
 C2905 C 0.21824 0.03024 0.16655
 C2906 C 0.21418 0.03272 0.17743
 C2907 C 0.21916 0.02783 0.18691
 C2908 C 0.22827 0.02040 0.18569
 C2909 C 0.23239 0.01786 0.17492
 C2910 C 0.22741 0.02275 0.16540
 C2911 C 0.23332 0.01558 0.19561
 C2912 C 0.23709 0.01198 0.20434
 H2913 H 0.21990 0.04794 0.13149
 H2914 H 0.22874 0.03885 0.14787
 H2915 H 0.19576 0.03365 0.16257
 H2916 H 0.18705 0.04292 0.14627
 H2917 H 0.20726 0.03857 0.17861
 H2918 H 0.21594 0.02990 0.19522
 H2919 H 0.23942 0.01211 0.17389
 H2920 H 0.23063 0.02059 0.15713
 C2921 C 0.69386 0.19339 0.62973
 C2922 C 0.69849 0.19783 0.62184
 C2923 C 0.70402 0.20310 0.61241
 C2924 C 0.70174 0.21439 0.60974
 C2925 C 0.70702 0.21948 0.60050
 C2926 C 0.71466 0.21332 0.59379
 C2927 C 0.71695 0.20200 0.59660
 C2928 C 0.71166 0.19694 0.60584
 C2929 C 0.72001 0.21860 0.58377
 C2930 C 0.72118 0.21242 0.57369
 C2931 C 0.72598 0.21741 0.56416
 C2932 C 0.72970 0.22863 0.56455
 C2933 C 0.72865 0.23484 0.57454
 C2934 C 0.72383 0.22986 0.58410
 C2935 C 0.73422 0.23372 0.55450
 C2936 C 0.73767 0.23747 0.54571
 H2937 H 0.69581 0.21923 0.61475
 H2938 H 0.70497 0.22815 0.59847
 H2939 H 0.72289 0.19709 0.59169
 H2940 H 0.71352 0.18821 0.60786
 H2941 H 0.71817 0.20380 0.57310
 H2942 H 0.72668 0.21254 0.55644
 H2943 H 0.73148 0.24354 0.57492
 H2944 H 0.72315 0.23479 0.59177
 C2945 C 0.69286 0.69340 0.12901
 C2946 C 0.69719 0.69793 0.12101
 C2947 C 0.70236 0.70333 0.11145
 C2948 C 0.69613 0.71087 0.10483
 C2949 C 0.70111 0.71604 0.09548
 C2950 C 0.71241 0.71374 0.09262
 C2951 C 0.71863 0.70620 0.09936
 C2952 C 0.71362 0.70103 0.10871
 C2953 C 0.71763 0.71903 0.08253
 C2954 C 0.72886 0.72293 0.08282
 C2955 C 0.73379 0.72774 0.07324
 C2956 C 0.72756 0.72871 0.06326
 C2957 C 0.71637 0.72490 0.06290
 C2958 C 0.71143 0.72010 0.07246
 C2959 C 0.73262 0.73333 0.05324
 C2960 C 0.73648 0.73693 0.04455
 H2961 H 0.68742 0.71274 0.10689
 H2962 H 0.69615 0.72191 0.09054
 H2963 H 0.72729 0.70414 0.09729
 H2964 H 0.71852 0.69518 0.11376
 H2965 H 0.73381 0.72232 0.09049
 H2966 H 0.74246 0.73065 0.07360
 H2967 H 0.71149 0.72554 0.05519
 H2968 H 0.70284 0.71703 0.07191
 C2969 C 0.55678 0.69438 0.11980
 C2970 C 0.55240 0.69898 0.12775
 C2971 C 0.54725 0.70446 0.13729
 C2972 C 0.55398 0.71011 0.14520
 C2973 C 0.54902 0.71531 0.15456
 C2974 C 0.53725 0.71493 0.15613
 C2975 C 0.53055 0.70927 0.14810
 C2976 C 0.53553 0.70407 0.13875
 C2977 C 0.53202 0.72020 0.16624
 C2978 C 0.52173 0.72610 0.16540
 C2979 C 0.51677 0.73090 0.17499
 C2980 C 0.52204 0.72987 0.18551
 C2981 C 0.53230 0.72407 0.18640
 C2982 C 0.53726 0.71927 0.17685
 C2983 C 0.51695 0.73450 0.19551
 C2984 C 0.51317 0.73800 0.20427
 H2985 H 0.56306 0.71048 0.14415
 H2986 H 0.55440 0.71970 0.16052
 H2987 H 0.52149 0.70867 0.14918
 H2988 H 0.53025 0.69966 0.13270
 H2989 H 0.51757 0.72708 0.15732
 H2990 H 0.50884 0.73538 0.17421
 H2991 H 0.53642 0.72318 0.19451
 H2992 H 0.54509 0.71466 0.17781
 C2993 C 0.05738 0.69275 0.62111
 C2994 C 0.05293 0.69712 0.62915
 C2995 C 0.04763 0.70234 0.63875
 C2996 C 0.04437 0.71369 0.63832
 C2997 C 0.03931 0.71878 0.64769
 C2998 C 0.03746 0.71257 0.65764
 C2999 C 0.04073 0.70114 0.65796
 C3000 C 0.04578 0.69607 0.64858
 C3001 C 0.03227 0.71800 0.66768
 C3002 C 0.03640 0.71566 0.67855
 C3003 C 0.03151 0.72071 0.68802
 C3004 C 0.02243 0.72817 0.68676
 C3005 C 0.01827 0.73059 0.67598
 C3006 C 0.02317 0.72555 0.66649
 C3007 C 0.01741 0.73317 0.69662
 C3008 C 0.01355 0.73700 0.70522
 H3009 H 0.04579 0.71862 0.63076
 H3010 H 0.03701 0.72762 0.64723
 H3011 H 0.03928 0.69610 0.66544
 H3012 H 0.04823 0.68726 0.64900
 H3013 H 0.04349 0.71002 0.67974
 H3014 H 0.03481 0.71879 0.69633
 H3015 H 0.01122 0.73632 0.67492
 H3016 H 0.01972 0.72742 0.65823
 C3017 C 0.55609 0.62038 0.19311
 C3018 C 0.55152 0.62827 0.19764
 C3019 C 0.54615 0.63769 0.20312
 C3020 C 0.53476 0.63706 0.20623
 C3021 C 0.52958 0.64619 0.21163
 C3022 C 0.53573 0.65609 0.21402
 C3023 C 0.54717 0.65664 0.21083
 C3024 C 0.55233 0.64750 0.20543
 C3025 C 0.53026 0.66584 0.21970
 C3026 C 0.53612 0.67206 0.22797
 C3027 C 0.53118 0.68156 0.23293
 C3028 C 0.52033 0.68497 0.22974
 C3029 C 0.51435 0.67872 0.22167
 C3030 C 0.51926 0.66920 0.21670
 C3031 C 0.51575 0.69533 0.23413
 C3032 C 0.51235 0.70433 0.23748
 H3033 H 0.52991 0.62948 0.20452
 H3034 H 0.52080 0.64547 0.21408
 H3035 H 0.55209 0.66420 0.21238
 H3036 H 0.56114 0.64810 0.20302
 H3037 H 0.54453 0.66960 0.23056
 H3038 H 0.53592 0.68637 0.23912
 H3039 H 0.50599 0.68136 0.21905
 H3040 H 0.51460 0.66467 0.21026
 C3041 C 0.05753 0.62136 0.69236
 C3042 C 0.05316 0.62946 0.69671
 C3043 C 0.04792 0.63912 0.70189
 C3044 C 0.04372 0.63840 0.71290
 C3045 C 0.03863 0.64779 0.71794
 C3046 C 0.03769 0.65805 0.71202
 C3047 C 0.04192 0.65867 0.70095
 C3048 C 0.04700 0.64927 0.69592
 C3049 C 0.03239 0.66807 0.71738
 C3050 C 0.03706 0.67889 0.71584
 C3051 C 0.03205 0.68834 0.72081
 C3052 C 0.02231 0.68714 0.72738
 C3053 C 0.01760 0.67642 0.72900
 C3054 C 0.02261 0.66693 0.72404
 C3055 C 0.01720 0.69699 0.73232
 C3056 C 0.01331 0.70558 0.73616
 H3057 H 0.04442 0.63059 0.71761
 H3058 H 0.03559 0.64709 0.72652
 H3059 H 0.04119 0.66640 0.69612
 H3060 H 0.05019 0.64992 0.68738
 H3061 H 0.04466 0.68003 0.71090
 H3062 H 0.03578 0.69660 0.71952
 H3063 H 0.01004 0.67540 0.73404
 H3064 H 0.01874 0.65873 0.72527
 C3065 C 0.05640 0.12945 0.05692
 C3066 C 0.05188 0.12144 0.05253
 C3067 C 0.04654 0.11186 0.04727
 C3068 C 0.04044 0.11321 0.03724
 C3069 C 0.03538 0.10387 0.03207
 C3070 C 0.03638 0.09304 0.03685
 C3071 C 0.04248 0.09180 0.04697
 C3072 C 0.04752 0.10115 0.05214
 C3073 C 0.03122 0.08305 0.03127
 C3074 C 0.03711 0.07275 0.03082
 C3075 C 0.03223 0.06327 0.02575
 C3076 C 0.02142 0.06394 0.02103
 C3077 C 0.01551 0.07417 0.02134
 C3078 C 0.02039 0.08369 0.02641
 C3079 C 0.01641 0.05395 0.01625
 C3080 C 0.01271 0.04518 0.01262
 H3081 H 0.03965 0.12147 0.03339
 H3082 H 0.03085 0.10507 0.02422
 H3083 H 0.04326 0.08361 0.05095
 H3084 H 0.05219 0.10002 0.05992
 H3085 H 0.04552 0.07203 0.03433
 H3086 H 0.03689 0.05539 0.02556
 H3087 H 0.00710 0.07476 0.01778
 H3088 H 0.01560 0.09147 0.02673
 C3089 C 0.05654 0.62975 0.55684
 C3090 C 0.05205 0.62180 0.55231
 C3091 C 0.04683 0.61228 0.54684
 C3092 C 0.05354 0.60396 0.54181
 C3093 C 0.04852 0.59464 0.53658
 C3094 C 0.03669 0.59350 0.53630
 C3095 C 0.03001 0.60196 0.54131
 C3096 C 0.03505 0.61128 0.54655
 C3097 C 0.03140 0.58343 0.53101
 C3098 C 0.02154 0.58445 0.52443
 C3099 C 0.01658 0.57489 0.51952
 C3100 C 0.02140 0.56423 0.52114
 C3101 C 0.03119 0.56315 0.52766
 C3102 C 0.03616 0.57266 0.53256
 C3103 C 0.01636 0.55426 0.51632
 C3104 C 0.01263 0.54551 0.51268
 H3105 H 0.06266 0.60468 0.54194
 H3106 H 0.05390 0.58836 0.53266
 H3107 H 0.02089 0.60125 0.54136
 H3108 H 0.02977 0.61766 0.55044
 H3109 H 0.01775 0.59264 0.52299
 H3110 H 0.00900 0.57582 0.51448
 H3111 H 0.03496 0.55492 0.52901
 H3112 H 0.04363 0.57156 0.53771
 C3113 C 0.55656 0.13019 0.55603
 C3114 C 0.55217 0.12221 0.55148
 C3115 C 0.54696 0.11265 0.54608
 C3116 C 0.53521 0.11218 0.54486
 C3117 C 0.53014 0.10280 0.53975
 C3118 C 0.53678 0.09377 0.53581
 C3119 C 0.54859 0.09437 0.53700
 C3120 C 0.55363 0.10375 0.54210
 C3121 C 0.53141 0.08366 0.53067
 C3122 C 0.53542 0.07279 0.53327
 C3123 C 0.53038 0.06324 0.52850
 C3124 C 0.52126 0.06441 0.52107
 C3125 C 0.51719 0.07518 0.51842
 C3126 C 0.52223 0.08476 0.52320
 C3127 C 0.51618 0.05445 0.51631
 C3128 C 0.51240 0.04570 0.51272
 H3129 H 0.52996 0.11901 0.54793
 H3130 H 0.52103 0.10252 0.53907
 H3131 H 0.55393 0.08762 0.53392
 H3132 H 0.56274 0.10405 0.54297
 H3133 H 0.54235 0.07165 0.53912
 H3134 H 0.53357 0.05494 0.53065
 H3135 H 0.51015 0.07617 0.51267
 H3136 H 0.51904 0.09302 0.52095
 C3137 C 0.55658 0.62973 0.05657
 C3138 C 0.55208 0.62177 0.05208
 C3139 C 0.54674 0.61226 0.04672
 C3140 C 0.53918 0.61393 0.03779
 C3141 C 0.53406 0.60466 0.03252
 C3142 C 0.53647 0.59360 0.03611
 C3143 C 0.54404 0.59202 0.04513
 C3144 C 0.54913 0.60129 0.05039
 C3145 C 0.53118 0.58372 0.03047
 C3146 C 0.53757 0.57395 0.02829
 C3147 C 0.53256 0.56451 0.02329
 C3148 C 0.52111 0.56468 0.02038
 C3149 C 0.51470 0.57441 0.02237
 C3150 C 0.51970 0.58389 0.02736
 C3151 C 0.51599 0.55463 0.01584
 C3152 C 0.51223 0.54581 0.01239
 H3153 H 0.53729 0.62239 0.03487
 H3154 H 0.52836 0.60614 0.02553
 H3155 H 0.54594 0.58362 0.04820
 H3156 H 0.55494 0.59990 0.05732
 H3157 H 0.54645 0.57361 0.03043
 H3158 H 0.53761 0.55701 0.02180
 H3159 H 0.50581 0.57460 0.02021
 H3160 H 0.51455 0.59125 0.02904
 C3161 C 0.69332 0.12041 0.55642
 C3162 C 0.69789 0.12830 0.55192
 C3163 C 0.70346 0.13771 0.54662
 C3164 C 0.71279 0.14275 0.55184
 C3165 C 0.71819 0.15194 0.54678
 C3166 C 0.71431 0.15621 0.53640
 C3167 C 0.70497 0.15104 0.53118
 C3168 C 0.69958 0.14185 0.53627
 C3169 C 0.71986 0.16617 0.53118
 C3170 C 0.72164 0.16667 0.51945
 C3171 C 0.72663 0.17620 0.51456
 C3172 C 0.72991 0.18532 0.52133
 C3173 C 0.72824 0.18486 0.53301
 C3174 C 0.72326 0.17536 0.53791
 C3175 C 0.73447 0.19543 0.51638
 C3176 C 0.73797 0.20425 0.51271
 H3177 H 0.71589 0.13959 0.55984
 H3178 H 0.72544 0.15565 0.55094
 H3179 H 0.70170 0.15423 0.52327
 H3180 H 0.69234 0.13802 0.53217
 H3181 H 0.71921 0.15968 0.51407
 H3182 H 0.72784 0.17649 0.50550
 H3183 H 0.73063 0.19193 0.53832
 H3184 H 0.72185 0.17532 0.54693
 C3185 C 0.69250 0.62116 0.05706
 C3186 C 0.69677 0.62926 0.05260
 C3187 C 0.70187 0.63891 0.04727
 C3188 C 0.69507 0.64741 0.04269
 C3189 C 0.70001 0.65681 0.03753
 C3190 C 0.71184 0.65782 0.03687
 C3191 C 0.71860 0.64920 0.04147
 C3192 C 0.71364 0.63981 0.04663
 C3193 C 0.71710 0.66788 0.03154
 C3194 C 0.72671 0.66677 0.02465
 C3195 C 0.73170 0.67629 0.01975
 C3196 C 0.72714 0.68703 0.02167
 C3197 C 0.71757 0.68821 0.02849
 C3198 C 0.71257 0.67872 0.03339
 C3199 C 0.73228 0.69691 0.01684
 C3200 C 0.73624 0.70551 0.01310
 H3201 H 0.68595 0.64678 0.04310
 H3202 H 0.69458 0.66323 0.03395
 H3203 H 0.72772 0.64980 0.04124
 H3204 H 0.71898 0.63329 0.05018
 H3205 H 0.73031 0.65853 0.02296
 H3206 H 0.73910 0.67529 0.01447
 H3207 H 0.71400 0.69649 0.03007
 H3208 H 0.70528 0.67988 0.03877
 C3209 C 0.19237 0.62871 0.69235
 C3210 C 0.19674 0.62067 0.69680
 C3211 C 0.20199 0.61106 0.70208
 C3212 C 0.21310 0.61180 0.70603
 C3213 C 0.21823 0.60243 0.71107
 C3214 C 0.21230 0.59219 0.71221
 C3215 C 0.20111 0.59156 0.70824
 C3216 C 0.19600 0.60093 0.70321
 C3217 C 0.21778 0.58218 0.71741
 C3218 C 0.21606 0.57133 0.71285
 C3219 C 0.22114 0.56190 0.71776
 C3220 C 0.22803 0.56314 0.72728
 C3221 C 0.22983 0.57389 0.73188
 C3222 C 0.22475 0.58336 0.72697
 C3223 C 0.23304 0.55329 0.73233
 C3224 C 0.23689 0.54471 0.73622
 H3225 H 0.21782 0.61959 0.70517
 H3226 H 0.22689 0.60315 0.71392
 H3227 H 0.19627 0.58385 0.70913
 H3228 H 0.18738 0.60027 0.70021
 H3229 H 0.21088 0.57016 0.70541
 H3230 H 0.21970 0.55362 0.71412
 H3231 H 0.23510 0.57494 0.73928
 H3232 H 0.22613 0.59157 0.73076
 C3233 C 0.19355 0.12951 0.19294
 C3234 C 0.19811 0.12157 0.19737
 C3235 C 0.20357 0.11208 0.20263
 C3236 C 0.20923 0.10410 0.19601
 C3237 C 0.21445 0.09482 0.20107
 C3238 C 0.21407 0.09338 0.21285
 C3239 C 0.20842 0.10150 0.21945
 C3240 C 0.20320 0.11078 0.21436
 C3241 C 0.21933 0.08334 0.21819
 C3242 C 0.22530 0.08430 0.22843
 C3243 C 0.23015 0.07477 0.23345
 C3244 C 0.22907 0.06417 0.22831
 C3245 C 0.22317 0.06315 0.21813
 C3246 C 0.21833 0.07264 0.21310
 C3247 C 0.23379 0.05422 0.23342
 C3248 C 0.23736 0.04547 0.23719
 H3249 H 0.20961 0.10505 0.18692
 H3250 H 0.21885 0.08880 0.19578
 H3251 H 0.20785 0.10055 0.22851
 H3252 H 0.19881 0.11690 0.21956
 H3253 H 0.22631 0.09244 0.23249
 H3254 H 0.23470 0.07565 0.24133
 H3255 H 0.22223 0.05497 0.21411
 H3256 H 0.21365 0.07158 0.20533
 C3257 C 0.69391 1.12994 0.69332
 C3258 C 0.69836 1.12193 0.69777
 C3259 C 0.70356 1.11233 0.70309
 C3260 C 0.71521 1.11219 0.70503
 C3261 C 0.72026 1.10280 0.71013
 C3262 C 0.71368 1.09343 0.71332
 C3263 C 0.70196 1.09370 0.71140
 C3264 C 0.69694 1.10309 0.70631
 C3265 C 0.71902 1.08333 0.71849
 C3266 C 0.71548 1.07243 0.71535
 C3267 C 0.72043 1.06290 0.72020
 C3268 C 0.72900 1.06411 0.72825
 C3269 C 0.73263 1.07491 0.73143
 C3270 C 0.72768 1.08448 0.72657
 C3271 C 0.73392 1.05415 0.73316
 C3272 C 0.73755 1.04540 0.73687
 H3273 H 0.72042 1.11929 0.70255
 H3274 H 0.72931 1.10279 0.71138
 H3275 H 0.69665 1.08670 0.71391
 H3276 H 0.68790 1.10313 0.70489
 H3277 H 0.70897 1.07126 0.70904
 H3278 H 0.71758 1.05458 0.71765
 H3279 H 0.73923 1.07593 0.73767
 H3280 H 0.73050 1.09276 0.72924
 C3281 C 0.69410 0.63003 0.19338
 C3282 C 0.69857 0.62205 0.19782
 C3283 C 0.70384 0.61248 0.20311
 C3284 C 0.71008 0.61388 0.21305
 C3285 C 0.71513 0.60455 0.21823
 C3286 C 0.71396 0.59369 0.21354
 C3287 C 0.70772 0.59239 0.20351
 C3288 C 0.70270 0.60172 0.19835
 C3289 C 0.71914 0.58373 0.21910
 C3290 C 0.71320 0.57346 0.21971
 C3291 C 0.71811 0.56400 0.22471
 C3292 C 0.72903 0.56464 0.22918
 C3293 C 0.73500 0.57483 0.22872
 C3294 C 0.73008 0.58434 0.22373
 C3295 C 0.73409 0.55464 0.23387
 C3296 C 0.73781 0.54586 0.23741
 H3297 H 0.71099 0.62217 0.21683
 H3298 H 0.71977 0.60580 0.22601
 H3299 H 0.70681 0.58416 0.19961
 H3300 H 0.69792 0.60055 0.19064
 H3301 H 0.70471 0.57276 0.21637
 H3302 H 0.71342 0.55614 0.22502
 H3303 H 0.74348 0.57540 0.23211
 H3304 H 0.73491 0.59210 0.22328
 C3305 C 0.55635 0.12006 0.69265
 C3306 C 0.55186 0.12804 0.69711
 C3307 C 0.54656 0.13758 0.70247
 C3308 C 0.53863 0.13591 0.71106
 C3309 C 0.53357 0.14518 0.71635
 C3310 C 0.53641 0.15626 0.71312
 C3311 C 0.54435 0.15784 0.70443
 C3312 C 0.54938 0.14856 0.69915
 C3313 C 0.53117 0.16615 0.71880
 C3314 C 0.53770 0.17572 0.72144
 C3315 C 0.53275 0.18515 0.72651
 C3316 C 0.52121 0.18516 0.72904
 C3317 C 0.51464 0.17564 0.72657
 C3318 C 0.51959 0.16617 0.72150
 C3319 C 0.51615 0.19519 0.73369
 C3320 C 0.51239 0.20396 0.73723
 H3321 H 0.53640 0.12744 0.71372
 H3322 H 0.52758 0.14370 0.72309
 H3323 H 0.54659 0.16626 0.70164
 H3324 H 0.55548 0.14995 0.69248
 H3325 H 0.54666 0.17590 0.71962
 H3326 H 0.53791 0.19248 0.72836
 H3327 H 0.50568 0.17559 0.72841
 H3328 H 0.51431 0.15898 0.71946
 C3329 C 1.05628 0.12006 0.19342
 C3330 C 1.05179 0.12805 0.19784
 C3331 C 1.04647 0.13761 0.20311
 C3332 C 1.04139 0.13649 0.21371
 C3333 C 1.03631 0.14582 0.21887
 C3334 C 1.03628 0.15641 0.21348
 C3335 C 1.04136 0.15742 0.20280
 C3336 C 1.04641 0.14808 0.19765
 C3337 C 1.03111 0.16640 0.21901
 C3338 C 1.03646 0.17699 0.21845
 C3339 C 1.03155 0.18646 0.22347
 C3340 C 1.02122 0.18549 0.22913
 C3341 C 1.01585 0.17498 0.22982
 C3342 C 1.02078 0.16547 0.22481
 C3343 C 1.01615 0.19544 0.23391
 C3344 C 1.01239 0.20419 0.23749
 H3345 H 1.04141 0.12842 0.21801
 H3346 H 1.03258 0.14481 0.22714
 H3347 H 1.04133 0.16542 0.19837
 H3348 H 1.05028 0.14903 0.18943
 H3349 H 1.04450 0.17794 0.21420
 H3350 H 1.03578 0.19455 0.22289
 H3351 H 1.00783 0.17416 0.23414
 H3352 H 1.01641 0.15745 0.22528
 C3353 C 0.19264 0.62151 0.55758
 C3354 C 0.19701 0.62960 0.55321
 C3355 C 0.20224 0.63924 0.54798
 C3356 C 0.20161 0.64985 0.55315
 C3357 C 0.20664 0.65924 0.54806
 C3358 C 0.21237 0.65813 0.53771
 C3359 C 0.21297 0.64741 0.53260
 C3360 C 0.20793 0.63804 0.53770
 C3361 C 0.21762 0.66813 0.53226
 C3362 C 0.22826 0.66731 0.52703
 C3363 C 0.23323 0.67679 0.52203
 C3364 C 0.22762 0.68719 0.52217
 C3365 C 0.21701 0.68807 0.52730
 C3366 C 0.21204 0.67862 0.53230
 C3367 C 0.23273 0.69708 0.51731
 C3368 C 0.23663 0.70569 0.51353
 H3369 H 0.19726 0.65088 0.56112
 H3370 H 0.20616 0.66734 0.55228
 H3371 H 0.21719 0.64631 0.52457
 H3372 H 0.20843 0.62986 0.53362
 H3373 H 0.23282 0.65938 0.52697
 H3374 H 0.24147 0.67603 0.51813
 H3375 H 0.21259 0.69608 0.52746
 H3376 H 0.20378 0.67949 0.53612
 C3377 C 0.19301 0.12117 1.05749
 C3378 C 0.19734 0.12933 1.05324
 C3379 C 0.20256 0.13904 1.04813
 C3380 C 0.20577 0.14826 1.05480
 C3381 C 0.21090 0.15767 1.04985
 C3382 C 0.21289 0.15796 1.03815
 C3383 C 0.20964 0.14864 1.03152
 C3384 C 0.20451 0.13924 1.03649
 C3385 C 0.21828 0.16798 1.03288
 C3386 C 0.22639 0.16668 1.02428
 C3387 C 0.23142 0.17615 1.01933
 C3388 C 0.22841 0.18701 1.02289
 C3389 C 0.22037 0.18838 1.03142
 C3390 C 0.21533 0.17894 1.03639
 C3391 C 0.23346 0.19683 1.01783
 C3392 C 0.23732 0.20540 1.01393
 H3393 H 0.20434 0.14816 1.06383
 H3394 H 0.21344 0.16464 1.05520
 H3395 H 0.21093 0.14867 1.02248
 H3396 H 0.20204 0.13215 1.03125
 H3397 H 0.22893 0.15835 1.02150
 H3398 H 0.23766 0.17500 1.01274
 H3399 H 0.21794 0.19676 1.03421
 H3400 H 0.20901 0.18023 1.04286
 C3401 C 0.19247 0.69278 0.62856
 C3402 C 0.19681 0.69724 0.62052
 C3403 C 0.20197 0.70260 0.61091
 C3404 C 0.19523 0.70680 0.60218
 C3405 C 0.20022 0.71196 0.59282
 C3406 C 0.21204 0.71300 0.59208
 C3407 C 0.21874 0.70879 0.60093
 C3408 C 0.21373 0.70361 0.61028
 C3409 C 0.21734 0.71834 0.58206
 C3410 C 0.22670 0.72560 0.58326
 C3411 C 0.23170 0.73056 0.57379
 C3412 C 0.22742 0.72832 0.56301
 C3413 C 0.21812 0.72113 0.56173
 C3414 C 0.21311 0.71617 0.57118
 C3415 C 0.23254 0.73326 0.55317
 C3416 C 0.23647 0.73705 0.54460
 H3417 H 0.18612 0.70609 0.60260
 H3418 H 0.19482 0.71525 0.58622
 H3419 H 0.22786 0.70932 0.60055
 H3420 H 0.21903 0.70037 0.61699
 H3421 H 0.23007 0.72753 0.59154
 H3422 H 0.23889 0.73612 0.57487
 H3423 H 0.21476 0.71931 0.55342
 H3424 H 0.20604 0.71050 0.56994
 C3425 C 0.19243 0.19243 1.12864
 C3426 C 0.19674 0.19665 1.12044
 C3427 C 0.20194 0.20174 1.11073
 C3428 C 0.21317 0.20541 1.11127
 C3429 C 0.21823 0.21045 1.10188
 C3430 C 0.21212 0.21188 1.09180
 C3431 C 0.20084 0.20814 1.09134
 C3432 C 0.19579 0.20312 1.10074
 C3433 C 0.21748 0.21722 1.08181
 C3434 C 0.21547 0.21294 1.07092
 C3435 C 0.22048 0.21798 1.06151
 C3436 C 0.22756 0.22736 1.06284
 C3437 C 0.22964 0.23168 1.07364
 C3438 C 0.22464 0.22664 1.08307
 C3439 C 0.23257 0.23250 1.05306
 C3440 C 0.23647 0.23645 1.04454
 H3441 H 0.21802 0.20436 1.11895
 H3442 H 0.22697 0.21309 1.10246
 H3443 H 0.19586 0.20925 1.08375
 H3444 H 0.18709 0.20034 1.10023
 H3445 H 0.21013 0.20561 1.06967
 H3446 H 0.21883 0.21454 1.05319
 H3447 H 0.23507 0.23896 1.07476
 H3448 H 0.22624 0.23022 1.09133
 C3449 C 0.69334 0.55676 0.12053
 C3450 C 0.69780 0.55229 0.12850
 C3451 C 0.70309 0.54696 0.13803
 C3452 C 0.70151 0.55136 0.14888
 C3453 C 0.70655 0.54615 0.15817
 C3454 C 0.71325 0.53643 0.15674
 C3455 C 0.71485 0.53210 0.14580
 C3456 C 0.70978 0.53733 0.13651
 C3457 C 0.71848 0.53083 0.16665
 C3458 C 0.72963 0.52673 0.16616
 C3459 C 0.73458 0.52170 0.17563
 C3460 C 0.72844 0.52067 0.18566
 C3461 C 0.71731 0.52461 0.18617
 C3462 C 0.71236 0.52964 0.17675
 C3463 C 0.73355 0.51600 0.19563
 C3464 C 0.73732 0.51245 0.20438
 H3465 H 0.69638 0.55883 0.15015
 H3466 H 0.70530 0.54978 0.16646
 H3467 H 0.71986 0.52457 0.14445
 H3468 H 0.71104 0.53383 0.12815
 H3469 H 0.73458 0.52763 0.15854
 H3470 H 0.74323 0.51875 0.17517
 H3471 H 0.71248 0.52387 0.19390
 H3472 H 0.70371 0.53256 0.17734
 C3473 C 0.69382 1.05644 0.62020
 C3474 C 0.69828 1.05197 0.62817
 C3475 C 0.70355 1.04663 0.63770
 C3476 C 0.70360 1.05204 0.64820
 C3477 C 0.70858 1.04680 0.65752
 C3478 C 0.71357 1.03606 0.65645
 C3479 C 0.71355 1.03073 0.64584
 C3480 C 0.70856 1.03598 0.63653
 C3481 C 0.71864 1.03043 0.66642
 C3482 C 0.72891 1.02450 0.66551
 C3483 C 0.73373 1.01939 0.67500
 C3484 C 0.72833 1.02010 0.68547
 C3485 C 0.71807 1.02588 0.68642
 C3486 C 0.71325 1.03100 0.67697
 C3487 C 0.73333 1.01528 0.69542
 C3488 C 0.73705 1.01170 0.70417
 H3489 H 0.69978 1.06029 0.64919
 H3490 H 0.70860 1.05119 0.66554
 H3491 H 0.71722 1.02242 0.64479
 H3492 H 0.70854 1.03171 0.62844
 H3493 H 0.73331 1.02402 0.65752
 H3494 H 0.74171 1.01499 0.67420
 H3495 H 0.71381 1.02648 0.69449
 H3496 H 0.70526 1.03534 0.67791
 C3497 C 0.55654 0.19394 0.62025
 C3498 C 0.55205 0.19855 0.62813
 C3499 C 0.54675 0.20410 0.63753
 C3500 C 0.55269 0.21229 0.64366
 C3501 C 0.54761 0.21762 0.65287
 C3502 C 0.53651 0.21484 0.65608
 C3503 C 0.53058 0.20666 0.64980
 C3504 C 0.53568 0.20133 0.64059
 C3505 C 0.53128 0.22021 0.66612
 C3506 C 0.51984 0.22345 0.66603
 C3507 C 0.51491 0.22826 0.67563
 C3508 C 0.52135 0.22989 0.68540
 C3509 C 0.53274 0.22676 0.68553
 C3510 C 0.53768 0.22197 0.67596
 C3511 C 0.51631 0.23430 0.69552
 C3512 C 0.51260 0.23764 0.70438
 H3513 H 0.56125 0.21453 0.64134
 H3514 H 0.55234 0.22398 0.65745
 H3515 H 0.52208 0.20423 0.65215
 H3516 H 0.53102 0.19499 0.63591
 H3517 H 0.51473 0.22231 0.65854
 H3518 H 0.50607 0.23063 0.67546
 H3519 H 0.53777 0.22788 0.69308
 H3520 H 0.54644 0.21939 0.67636
 C3521 C 1.05650 0.19325 0.12035
 C3522 C 1.05197 0.19764 0.12834
 C3523 C 1.04658 0.20286 0.13789
 C3524 C 1.04395 0.19640 0.14741
 C3525 C 1.03882 0.20146 0.15675
 C3526 C 1.03627 0.21307 0.15670
 C3527 C 1.03887 0.21948 0.14706
 C3528 C 1.04401 0.21440 0.13772
 C3529 C 1.03107 0.21848 0.16674
 C3530 C 1.02247 0.22661 0.16555
 C3531 C 1.01759 0.23163 0.17507
 C3532 C 1.02126 0.22861 0.18587
 C3533 C 1.02983 0.22057 0.18713
 C3534 C 1.03470 0.21554 0.17765
 C3535 C 1.01632 0.23358 0.19578
 C3536 C 1.01262 0.23729 0.20451
 H3537 H 1.04586 0.18745 0.14761
 H3538 H 1.03678 0.19627 0.16398
 H3539 H 1.03713 0.22845 0.14682
 H3540 H 1.04604 0.21948 0.13040
 H3541 H 1.01942 0.22896 0.15726
 H3542 H 1.01094 0.23783 0.17400
 H3543 H 1.03276 0.21819 0.19545
 H3544 H 1.04141 0.20945 0.17885
 C3545 C 0.62990 0.19364 0.69360
 C3546 C 0.62190 0.19799 0.69815
 C3547 C 0.61234 0.20309 0.70364
 C3548 C 0.60396 0.19626 0.70840
 C3549 C 0.59462 0.20117 0.71368
 C3550 C 0.59354 0.21300 0.71427
 C3551 C 0.60206 0.21979 0.70952
 C3552 C 0.61139 0.21486 0.70423
 C3553 C 0.58348 0.21820 0.71964
 C3554 C 0.58452 0.22787 0.72648
 C3555 C 0.57497 0.23277 0.73143
 C3556 C 0.56429 0.22806 0.72958
 C3557 C 0.56318 0.21844 0.72280
 C3558 C 0.57269 0.21354 0.71786
 C3559 C 0.55433 0.23308 0.73439
 C3560 C 0.54558 0.23681 0.73798
 H3561 H 0.60463 0.18714 0.70802
 H3562 H 0.58829 0.19571 0.71738
 H3563 H 0.60139 0.22891 0.70971
 H3564 H 0.61782 0.22022 0.70055
 H3565 H 0.59273 0.23158 0.72810
 H3566 H 0.57592 0.24022 0.73667
 H3567 H 0.55494 0.21476 0.72126
 H3568 H 0.57158 0.20621 0.71250
 C3569 C 1.12946 0.19320 0.19311
 C3570 C 1.12140 0.19753 0.19757
 C3571 C 1.11182 0.20270 0.20296
 C3572 C 1.11166 0.21436 0.20488
 C3573 C 1.10235 0.21938 0.21012
 C3574 C 1.09306 0.21278 0.21349
 C3575 C 1.09333 0.20105 0.21155
 C3576 C 1.10265 0.19605 0.20632
 C3577 C 1.08307 0.21811 0.21887
 C3578 C 1.07211 0.21458 0.21595
 C3579 C 1.06269 0.21958 0.22095
 C3580 C 1.06406 0.22819 0.22894
 C3581 C 1.07491 0.23179 0.23192
 C3582 C 1.08438 0.22679 0.22691
 C3583 C 1.05421 0.23325 0.23392
 C3584 C 1.04553 0.23703 0.23764
 H3585 H 1.11871 0.21959 0.20229
 H3586 H 1.10233 0.22845 0.21136
 H3587 H 1.08638 0.19572 0.21418
 H3588 H 1.10270 0.18701 0.20491
 H3589 H 1.07081 0.20804 0.20967
 H3590 H 1.05431 0.21676 0.21855
 H3591 H 1.07606 0.23844 0.23811
 H3592 H 1.09271 0.22960 0.22943
 C3593 C 0.12136 0.69277 0.55727
 C3594 C 0.12944 0.69711 0.55286
 C3595 C 0.13908 0.70230 0.54759
 C3596 C 0.13764 0.71164 0.54051
 C3597 C 0.14701 0.71671 0.53541
 C3598 C 0.15794 0.71250 0.53737
 C3599 C 0.15929 0.70309 0.54448
 C3600 C 0.14991 0.69803 0.54955
 C3601 C 0.16792 0.71794 0.53207
 C3602 C 0.17797 0.71939 0.53823
 C3603 C 0.18740 0.72440 0.53323
 C3604 C 0.18693 0.72803 0.52201
 C3605 C 0.17697 0.72668 0.51581
 C3606 C 0.16751 0.72168 0.52080
 C3607 C 0.19683 0.73285 0.51689
 C3608 C 0.20545 0.73661 0.51300
 H3609 H 0.12929 0.71503 0.53895
 H3610 H 0.14571 0.72402 0.53009
 H3611 H 0.16758 0.69956 0.54602
 H3612 H 0.15112 0.69078 0.55499
 H3613 H 0.17851 0.71675 0.54696
 H3614 H 0.19508 0.72539 0.53811
 H3615 H 0.17654 0.72940 0.50709
 H3616 H 0.15994 0.72055 0.51580
 C3617 C 0.12141 0.19247 1.05739
 C3618 C 0.12950 0.19683 1.05303
 C3619 C 0.13915 0.20206 1.04782
 C3620 C 0.13941 0.20368 1.03613
 C3621 C 0.14880 0.20875 1.03106
 C3622 C 0.15806 0.21224 1.03764
 C3623 C 0.15770 0.21060 1.04939
 C3624 C 0.14830 0.20555 1.05444
 C3625 C 0.16811 0.21749 1.03227
 C3626 C 0.17904 0.21466 1.03593
 C3627 C 0.18851 0.21959 1.03091
 C3628 C 0.18719 0.22741 1.02217
 C3629 C 0.17635 0.23029 1.01844
 C3630 C 0.16686 0.22535 1.02346
 C3631 C 0.19704 0.23243 1.01713
 C3632 C 0.20562 0.23630 1.01328
 H3633 H 0.13238 0.20100 1.03092
 H3634 H 0.14888 0.20977 1.02199
 H3635 H 0.16463 0.21333 1.05470
 H3636 H 0.14817 0.20437 1.06350
 H3637 H 0.18029 0.20852 1.04258
 H3638 H 0.19686 0.21727 1.03384
 H3639 H 0.17524 0.23636 1.01170
 H3640 H 0.15855 0.22780 1.02054
 C3641 C 0.62025 0.55673 0.19366
 C3642 C 0.62827 0.55233 0.19812
 C3643 C 0.63787 0.54708 0.20341
 C3644 C 0.63663 0.53679 0.20908
 C3645 C 0.64598 0.53165 0.21415
 C3646 C 0.65670 0.53675 0.21357
 C3647 C 0.65784 0.54713 0.20789
 C3648 C 0.64848 0.55225 0.20285
 C3649 C 0.66670 0.53125 0.21877
 C3650 C 0.67715 0.53126 0.21313
 C3651 C 0.68661 0.52626 0.21805
 C3652 C 0.68580 0.52116 0.22867
 C3653 C 0.67543 0.52101 0.23433
 C3654 C 0.66592 0.52601 0.22940
 C3655 C 0.69576 0.51639 0.23373
 C3656 C 0.70450 0.51279 0.23748
 H3657 H 0.62846 0.53270 0.20955
 H3658 H 0.64487 0.52361 0.21834
 H3659 H 0.66594 0.55134 0.20744
 H3660 H 0.64952 0.56023 0.19852
 H3661 H 0.67798 0.53507 0.20487
 H3662 H 0.69460 0.52641 0.21359
 H3663 H 0.67472 0.51714 0.24257
 H3664 H 0.65802 0.52597 0.23399
 C3665 C 0.62006 1.05670 0.69322
 C3666 C 0.62814 1.05232 0.69761
 C3667 C 0.63776 1.04707 0.70286
 C3668 C 0.64825 1.04716 0.69743
 C3669 C 0.65761 1.04209 0.70253
 C3670 C 0.65660 1.03686 0.71314
 C3671 C 0.64600 1.03678 0.71851
 C3672 C 0.63665 1.04186 0.71339
 C3673 C 0.66659 1.03160 0.71861
 C3674 C 0.66564 1.02123 0.72433
 C3675 C 0.67511 1.01626 0.72935
 C3676 C 0.68563 1.02162 0.72874
 C3677 C 0.68663 1.03197 0.72313
 C3678 C 0.67719 1.03693 0.71811
 C3679 C 0.69553 1.01653 0.73360
 C3680 C 0.70423 1.01274 0.73728
 H3681 H 0.64920 1.05113 0.68926
 H3682 H 0.66561 1.04216 0.69812
 H3683 H 0.64499 1.03294 0.72673
 H3684 H 0.62858 1.04177 0.71768
 H3685 H 0.65761 1.01686 0.72475
 H3686 H 0.67426 1.00822 0.73362
 H3687 H 0.69473 1.03620 0.72261
 H3688 H 0.67817 1.04500 0.71392
 C3689 C 0.87873 0.44289 0.30806
 C3690 C 0.87068 0.44736 0.30371
 C3691 C 0.86107 0.45266 0.29849
 C3692 C 0.85080 0.45333 0.30428
 C3693 C 0.84144 0.45839 0.29918
 C3694 C 0.84222 0.46286 0.28821
 C3695 C 0.85261 0.46218 0.28248
 C3696 C 0.86196 0.45710 0.28759
 C3697 C 0.83223 0.46810 0.28274
 C3698 C 0.83335 0.47798 0.27623
 C3699 C 0.82390 0.48293 0.27115
 C3700 C 0.81322 0.47804 0.27251
 C3701 C 0.81203 0.46820 0.27893
 C3702 C 0.82145 0.46326 0.28401
 C3703 C 0.80338 0.48311 0.26748
 C3704 C 0.79480 0.48697 0.26361
 H3705 H 0.85003 0.44995 0.31273
 H3706 H 0.83361 0.45892 0.30387
 H3707 H 0.85344 0.46540 0.27397
 H3708 H 0.86986 0.45660 0.28302
 H3709 H 0.84151 0.48198 0.27520
 H3710 H 0.82491 0.49057 0.26624
 H3711 H 0.80380 0.46434 0.28002
 H3712 H 0.82032 0.45557 0.28882
 C3713 C 0.87852 0.94286 0.80789
 C3714 C 0.87043 0.94724 0.80353
 C3715 C 0.86078 0.95246 0.79832
 C3716 C 0.86130 0.96375 0.79485
 C3717 C 0.85192 0.96883 0.78979
 C3718 C 0.84188 0.96267 0.78814
 C3719 C 0.84146 0.95132 0.79164
 C3720 C 0.85085 0.94626 0.79669
 C3721 C 0.83187 0.96807 0.78288
 C3722 C 0.82097 0.96590 0.78708
 C3723 C 0.81152 0.97089 0.78210
 C3724 C 0.81281 0.97812 0.77285
 C3725 C 0.82361 0.98038 0.76862
 C3726 C 0.83309 0.97540 0.77361
 C3727 C 0.80296 0.98306 0.76774
 C3728 C 0.79438 0.98685 0.76381
 H3729 H 0.86894 0.96863 0.79609
 H3730 H 0.85247 0.97761 0.78732
 H3731 H 0.83391 0.94631 0.79035
 H3732 H 0.85037 0.93750 0.79930
 H3733 H 0.81976 0.96044 0.79430
 H3734 H 0.80320 0.96911 0.78546
 H3735 H 0.82469 0.98594 0.76145
 H3736 H 0.84135 0.97713 0.77011
 C3737 C 0.37113 0.30744 0.80729
 C3738 C 0.37922 0.30310 0.80291
 C3739 C 0.38888 0.29787 0.79771
 C3740 C 0.38811 0.29353 0.78675
 C3741 C 0.39749 0.28843 0.78171
 C3742 C 0.40779 0.28762 0.78759
 C3743 C 0.40847 0.29200 0.79861
 C3744 C 0.39908 0.29708 0.80363
 C3745 C 0.41780 0.28228 0.78224
 C3746 C 0.42861 0.28700 0.78370
 C3747 C 0.43805 0.28194 0.77876
 C3748 C 0.43683 0.27212 0.77228
 C3749 C 0.42612 0.26737 0.77073
 C3750 C 0.41665 0.27243 0.77567
 C3751 C 0.44667 0.26696 0.76738
 C3752 C 0.45525 0.26303 0.76357
 H3753 H 0.38026 0.29412 0.78208
 H3754 H 0.39674 0.28527 0.77317
 H3755 H 0.41622 0.29136 0.80341
 H3756 H 0.39976 0.30038 0.81214
 H3757 H 0.42976 0.29466 0.78856
 H3758 H 0.44631 0.28570 0.77999
 H3759 H 0.42509 0.25975 0.76577
 H3760 H 0.40846 0.26852 0.77451
 C3761 C 0.87139 0.30725 0.30814
 C3762 C 0.87945 0.30281 0.30380
 C3763 C 0.88907 0.29755 0.29857
 C3764 C 0.88827 0.29336 0.28755
 C3765 C 0.89764 0.28832 0.28243
 C3766 C 0.90794 0.28742 0.28827
 C3767 C 0.90865 0.29163 0.29936
 C3768 C 0.89927 0.29666 0.30446
 C3769 C 0.91794 0.28219 0.28281
 C3770 C 0.92874 0.28692 0.28429
 C3771 C 0.93817 0.28197 0.27922
 C3772 C 0.93696 0.27224 0.27261
 C3773 C 0.92626 0.26748 0.27105
 C3774 C 0.91679 0.27242 0.27610
 C3775 C 0.94680 0.26717 0.26761
 C3776 C 0.95537 0.26328 0.26375
 H3777 H 0.88043 0.29404 0.28290
 H3778 H 0.89687 0.28529 0.27384
 H3779 H 0.91642 0.29093 0.30413
 H3780 H 0.89998 0.29985 0.31301
 H3781 H 0.92989 0.29451 0.28926
 H3782 H 0.94643 0.28574 0.28047
 H3783 H 0.92523 0.25992 0.26598
 H3784 H 0.90861 0.26851 0.27492
 C3785 C 0.37949 0.80720 0.44290
 C3786 C 0.37151 0.80270 0.44734
 C3787 C 0.36197 0.79735 0.45263
 C3788 C 0.35140 0.79753 0.44735
 C3789 C 0.34210 0.79243 0.45251
 C3790 C 0.34324 0.78707 0.46304
 C3791 C 0.35391 0.78687 0.46826
 C3792 C 0.36321 0.79200 0.46308
 C3793 C 0.33330 0.78181 0.46859
 C3794 C 0.33425 0.77134 0.47415
 C3795 C 0.32480 0.76635 0.47920
 C3796 C 0.31431 0.77178 0.47878
 C3797 C 0.31332 0.78223 0.47335
 C3798 C 0.32273 0.78721 0.46830
 C3799 C 0.30441 0.76665 0.48361
 C3800 C 0.29571 0.76284 0.48724
 H3801 H 0.35035 0.80161 0.43924
 H3802 H 0.33403 0.79258 0.44821
 H3803 H 0.35503 0.78293 0.47642
 H3804 H 0.37135 0.79183 0.46726
 H3805 H 0.34225 0.76692 0.47441
 H3806 H 0.32564 0.75824 0.48332
 H3807 H 0.30524 0.78651 0.47298
 H3808 H 0.32175 0.79534 0.46424
 C3809 C 0.37983 0.30712 0.94354
 C3810 C 0.37190 0.30269 0.94813
 C3811 C 0.36240 0.29743 0.95359
 C3812 C 0.36186 0.28566 0.95457
 C3813 C 0.35255 0.28056 0.95975
 C3814 C 0.34364 0.28718 0.96399
 C3815 C 0.34431 0.29901 0.96302
 C3816 C 0.35362 0.30409 0.95785
 C3817 C 0.33360 0.28179 0.96921
 C3818 C 0.32271 0.28595 0.96694
 C3819 C 0.31323 0.28089 0.97178
 C3820 C 0.31447 0.27159 0.97896
 C3821 C 0.32525 0.26736 0.98129
 C3822 C 0.33477 0.27242 0.97644
 C3823 C 0.30456 0.26649 0.98378
 C3824 C 0.29584 0.26271 0.98743
 H3825 H 0.36859 0.28042 0.95127
 H3826 H 0.35222 0.27143 0.96024
 H3827 H 0.33767 0.30435 0.96633
 H3828 H 0.35397 0.31321 0.95716
 H3829 H 0.32151 0.29303 0.96129
 H3830 H 0.30492 0.28420 0.96989
 H3831 H 0.32630 0.26018 0.98684
 H3832 H 0.34305 0.26910 0.97844
 C3833 C 0.80732 0.44223 0.37843
 C3834 C 0.80289 0.44658 0.37038
 C3835 C 0.79760 0.45179 0.36078
 C3836 C 0.79602 0.44560 0.35084
 C3837 C 0.79093 0.45065 0.34148
 C3838 C 0.78735 0.46198 0.34194
 C3839 C 0.78895 0.46812 0.35199
 C3840 C 0.79405 0.46305 0.36134
 C3841 C 0.78208 0.46738 0.33194
 C3842 C 0.77277 0.47468 0.33318
 C3843 C 0.76781 0.47971 0.32372
 C3844 C 0.77210 0.47753 0.31294
 C3845 C 0.78136 0.47032 0.31164
 C3846 C 0.78633 0.46528 0.32106
 C3847 C 0.76704 0.48256 0.30313
 C3848 C 0.76318 0.48643 0.29456
 H3849 H 0.79871 0.43686 0.35032
 H3850 H 0.78968 0.44566 0.33392
 H3851 H 0.78642 0.47689 0.35256
 H3852 H 0.79527 0.46792 0.36899
 H3853 H 0.76923 0.47636 0.34143
 H3854 H 0.76061 0.48525 0.32482
 H3855 H 0.78477 0.46859 0.30333
 H3856 H 0.79357 0.45984 0.31985
 C3857 C 0.80751 0.94239 0.87840
 C3858 C 0.80310 0.94675 0.87034
 C3859 C 0.79783 0.95196 0.86072
 C3860 C 0.79646 0.94585 0.85070
 C3861 C 0.79138 0.95091 0.84134
 C3862 C 0.78759 0.96216 0.84188
 C3863 C 0.78897 0.96823 0.85201
 C3864 C 0.79406 0.96315 0.86136
 C3865 C 0.78230 0.96756 0.83189
 C3866 C 0.77281 0.97462 0.83310
 C3867 C 0.76781 0.97962 0.82364
 C3868 C 0.77225 0.97764 0.81289
 C3869 C 0.78172 0.97068 0.81161
 C3870 C 0.78671 0.96567 0.82103
 C3871 C 0.76714 0.98261 0.80306
 C3872 C 0.76323 0.98644 0.79450
 H3873 H 0.79931 0.93717 0.85013
 H3874 H 0.79030 0.94597 0.83372
 H3875 H 0.78627 0.97694 0.85264
 H3876 H 0.79511 0.96797 0.86907
 H3877 H 0.76915 0.97612 0.84133
 H3878 H 0.76046 0.98496 0.82472
 H3879 H 0.78524 0.96912 0.80332
 H3880 H 0.79410 0.96042 0.81983
 C3881 C 0.30695 0.80677 0.37050
 C3882 C 0.30248 0.80229 0.37847
 C3883 C 0.29719 0.79696 0.38800
 C3884 C 0.28558 0.79472 0.38788
 C3885 C 0.28043 0.78962 0.39720
 C3886 C 0.28684 0.78674 0.40677
 C3887 C 0.29851 0.78898 0.40677
 C3888 C 0.30364 0.79405 0.39745
 C3889 C 0.28137 0.78157 0.41678
 C3890 C 0.28450 0.78499 0.42771
 C3891 C 0.27945 0.78012 0.43716
 C3892 C 0.27120 0.77176 0.43586
 C3893 C 0.26797 0.76830 0.42503
 C3894 C 0.27302 0.77318 0.41553
 C3895 C 0.26621 0.76679 0.44574
 C3896 C 0.26252 0.76307 0.45445
 H3897 H 0.28050 0.79696 0.38062
 H3898 H 0.27141 0.78813 0.39700
 H3899 H 0.30370 0.78671 0.41394
 H3900 H 0.31264 0.79572 0.39761
 H3901 H 0.29078 0.79154 0.42895
 H3902 H 0.28199 0.78289 0.44550
 H3903 H 0.26161 0.76181 0.42393
 H3904 H 0.27051 0.77029 0.40723
 C3905 C 0.30631 0.30666 0.87028
 C3906 C 0.30180 0.30227 0.87827
 C3907 C 0.29641 0.29707 0.88782
 C3908 C 0.29554 0.28529 0.88847
 C3909 C 0.29038 0.28024 0.89780
 C3910 C 0.28604 0.28692 0.90661
 C3911 C 0.28689 0.29876 0.90583
 C3912 C 0.29204 0.30378 0.89649
 C3913 C 0.28080 0.28159 0.91667
 C3914 C 0.28298 0.28591 0.92751
 C3915 C 0.27812 0.28091 0.93700
 C3916 C 0.27101 0.27154 0.93582
 C3917 C 0.26877 0.26716 0.92508
 C3918 C 0.27364 0.27215 0.91555
 C3919 C 0.26618 0.26650 0.94574
 C3920 C 0.26256 0.26275 0.95447
 H3921 H 0.29892 0.28001 0.88180
 H3922 H 0.28998 0.27111 0.89822
 H3923 H 0.28349 0.30413 0.91240
 H3924 H 0.29262 0.31291 0.89605
 H3925 H 0.28859 0.29305 0.92868
 H3926 H 0.27996 0.28434 0.94529
 H3927 H 0.26326 0.25992 0.92407
 H3928 H 0.27171 0.26872 0.90730
 C3929 C 0.44281 0.30764 0.87875
 C3930 C 0.44715 0.30323 0.87067
 C3931 C 0.45232 0.29795 0.86103
 C3932 C 0.44609 0.29631 0.85113
 C3933 C 0.45109 0.29120 0.84175
 C3934 C 0.46243 0.28764 0.84215
 C3935 C 0.46862 0.28929 0.85216
 C3936 C 0.46359 0.29442 0.86153
 C3937 C 0.46777 0.28231 0.83214
 C3938 C 0.47506 0.27300 0.83336
 C3939 C 0.48001 0.26796 0.82389
 C3940 C 0.47775 0.27218 0.81310
 C3941 C 0.47056 0.28147 0.81181
 C3942 C 0.46560 0.28650 0.82125
 C3943 C 0.48268 0.26704 0.80327
 C3944 C 0.48649 0.26311 0.79469
 H3945 H 0.43734 0.29897 0.85067
 H3946 H 0.44606 0.28991 0.83423
 H3947 H 0.47739 0.28678 0.85268
 H3948 H 0.46850 0.29567 0.86914
 H3949 H 0.47679 0.26950 0.84162
 H3950 H 0.48554 0.26076 0.82498
 H3951 H 0.46878 0.28483 0.80350
 H3952 H 0.46016 0.29375 0.82004
 C3953 C 0.94269 0.30780 0.37865
 C3954 C 0.94708 0.30338 0.37060
 C3955 C 0.95229 0.29808 0.36099
 C3956 C 0.96360 0.29469 0.36150
 C3957 C 0.96868 0.28958 0.35214
 C3958 C 0.96250 0.28783 0.34215
 C3959 C 0.95112 0.29124 0.34175
 C3960 C 0.94606 0.29633 0.35111
 C3961 C 0.96790 0.28256 0.33214
 C3962 C 0.96569 0.28673 0.32126
 C3963 C 0.97071 0.28176 0.31182
 C3964 C 0.97802 0.27257 0.31311
 C3965 C 0.98031 0.26836 0.32390
 C3966 C 0.97530 0.27333 0.33336
 C3967 C 0.98299 0.26747 0.30327
 C3968 C 0.98679 0.26356 0.29469
 H3969 H 0.96851 0.29603 0.36910
 H3970 H 0.97748 0.28717 0.35266
 H3971 H 0.94610 0.28986 0.33423
 H3972 H 0.93729 0.29889 0.35065
 H3973 H 0.96017 0.29392 0.32004
 H3974 H 0.96889 0.28510 0.30350
 H3975 H 0.98592 0.26122 0.32498
 H3976 H 0.97706 0.26985 0.34162
 C3977 C 0.44229 0.37851 0.80720
 C3978 C 0.44661 0.37041 0.80281
 C3979 C 0.45177 0.36074 0.79755
 C3980 C 0.44542 0.35095 0.79562
 C3981 C 0.45043 0.34154 0.79054
 C3982 C 0.46186 0.34181 0.78731
 C3983 C 0.46815 0.35171 0.78925
 C3984 C 0.46313 0.36111 0.79434
 C3985 C 0.46720 0.33176 0.78204
 C3986 C 0.47479 0.33298 0.77298
 C3987 C 0.47977 0.32348 0.76802
 C3988 C 0.47724 0.31267 0.77206
 C3989 C 0.46973 0.31138 0.78108
 C3990 C 0.46474 0.32085 0.78604
 C3991 C 0.48224 0.30281 0.76702
 C3992 C 0.48608 0.29421 0.76316
 H3993 H 0.43661 0.35059 0.79804
 H3994 H 0.44532 0.33411 0.78903
 H3995 H 0.47700 0.35212 0.78698
 H3996 H 0.46813 0.36864 0.79581
 H3997 H 0.47675 0.34125 0.76963
 H3998 H 0.48555 0.32456 0.76102
 H3999 H 0.46774 0.30305 0.78430
 H4000 H 0.45907 0.31964 0.79310
 C4001 C 0.94213 0.37837 0.30787
 C4002 C 0.94646 0.37030 0.30343
 C4003 C 0.95163 0.36067 0.29810
 C4004 C 0.96295 0.36113 0.29473
 C4005 C 0.96797 0.35178 0.28956
 C4006 C 0.96174 0.34182 0.28771
 C4007 C 0.95036 0.34145 0.29111
 C4008 C 0.94535 0.35082 0.29627
 C4009 C 0.96709 0.33183 0.28233
 C4010 C 0.96478 0.32088 0.28634
 C4011 C 0.96978 0.31147 0.28128
 C4012 C 0.97715 0.31284 0.27216
 C4013 C 0.97953 0.32368 0.26811
 C4014 C 0.97454 0.33313 0.27317
 C4015 C 0.98217 0.30303 0.26702
 C4016 C 0.98605 0.29448 0.26311
 H4017 H 0.96789 0.36870 0.29614
 H4018 H 0.97678 0.35227 0.28717
 H4019 H 0.94529 0.33397 0.28966
 H4020 H 0.93657 0.35038 0.29880
 H4021 H 0.95922 0.31961 0.29347
 H4022 H 0.96791 0.30311 0.28451
 H4023 H 0.98520 0.32483 0.26103
 H4024 H 0.97638 0.34143 0.26981
 C4025 C 0.30726 0.87965 0.44306
 C4026 C 0.30290 0.87163 0.44756
 C4027 C 0.29768 0.86209 0.45298
 C4028 C 0.30431 0.85303 0.45665
 C4029 C 0.29926 0.84375 0.46190
 C4030 C 0.28749 0.84339 0.46354
 C4031 C 0.28091 0.85257 0.45985
 C4032 C 0.28598 0.86185 0.45460
 C4033 C 0.28211 0.83342 0.46891
 C4034 C 0.27323 0.83476 0.47670
 C4035 C 0.26819 0.82531 0.48171
 C4036 C 0.27195 0.81445 0.47898
 C4037 C 0.28076 0.81305 0.47124
 C4038 C 0.28581 0.82245 0.46624
 C4039 C 0.26685 0.80461 0.48395
 C4040 C 0.26304 0.79594 0.48767
 H4041 H 0.31338 0.85315 0.45548
 H4042 H 0.30457 0.83688 0.46477
 H4043 H 0.27182 0.85248 0.46086
 H4044 H 0.28077 0.86881 0.45177
 H4045 H 0.27028 0.84310 0.47901
 H4046 H 0.26138 0.82649 0.48770
 H4047 H 0.28371 0.80467 0.46903
 H4048 H 0.29250 0.82113 0.46016
 C4049 C 0.30697 0.37969 0.94336
 C4050 C 0.30256 0.37171 0.94787
 C4051 C 0.29734 0.36215 0.95327
 C4052 C 0.28577 0.36225 0.95565
 C4053 C 0.28069 0.35293 0.96081
 C4054 C 0.28714 0.34337 0.96365
 C4055 C 0.29879 0.34338 0.96129
 C4056 C 0.30384 0.35272 0.95613
 C4057 C 0.28174 0.33334 0.96890
 C4058 C 0.28486 0.32239 0.96550
 C4059 C 0.27984 0.31293 0.97043
 C4060 C 0.27165 0.31425 0.97883
 C4061 C 0.26844 0.32510 0.98227
 C4062 C 0.27345 0.33460 0.97733
 C4063 C 0.26666 0.30436 0.98383
 C4064 C 0.26295 0.29566 0.98758
 H4065 H 0.28065 0.36951 0.95345
 H4066 H 0.27169 0.35312 0.96240
 H4067 H 0.30401 0.33622 0.96351
 H4068 H 0.31282 0.35257 0.95437
 H4069 H 0.29107 0.32113 0.95892
 H4070 H 0.28236 0.30457 0.96768
 H4071 H 0.26212 0.32621 0.98878
 H4072 H 0.27096 0.34291 0.98020
 C4073 C 0.80793 0.37170 0.30785
 C4074 C 0.80360 0.37978 0.30345
 C4075 C 0.79841 0.38942 0.29818
 C4076 C 0.80446 0.39951 0.29701
 C4077 C 0.79943 0.40888 0.29191
 C4078 C 0.78825 0.40828 0.28790
 C4079 C 0.78225 0.39809 0.28908
 C4080 C 0.78730 0.38873 0.29420
 C4081 C 0.78288 0.41827 0.28257
 C4082 C 0.77597 0.41705 0.27297
 C4083 C 0.77098 0.42650 0.26794
 C4084 C 0.77280 0.43727 0.27246
 C4085 C 0.77963 0.43857 0.28202
 C4086 C 0.78463 0.42915 0.28705
 C4087 C 0.76781 0.44708 0.26735
 C4088 C 0.76393 0.45563 0.26343
 H4089 H 0.81308 0.40012 0.30003
 H4090 H 0.80432 0.41655 0.29099
 H4091 H 0.77359 0.39741 0.28621
 H4092 H 0.78253 0.38097 0.29508
 H4093 H 0.77458 0.40880 0.26924
 H4094 H 0.76574 0.42541 0.26052
 H4095 H 0.78108 0.44687 0.28561
 H4096 H 0.78976 0.43036 0.29451
   
