data_POSCAR
  _audit_creation_date              2014-09-24
  _audit_creation_method            'ToBaCCo'
  _symmetry_space_group_name_H-M    'P1'
  _symmetry_Int_Tables_number       1
  _symmetry_cell_setting            triclinic
  loop_
  _symmetry_equiv_pos_as_xyz
 x,y,z
_cell_length_a 66.4528
_cell_length_b 66.4446
_cell_length_c 66.5320
_cell_angle_alpha 90.009200
_cell_angle_beta 90.005700
_cell_angle_gamma 90.013200
loop_
  _atom_site_label
  _atom_site_type_symbol
  _atom_site_fract_x
  _atom_site_fract_y
  _atom_site_fract_z
C1 C 0.36087 0.33588 0.33617
 N2 N 0.35247 0.35256 0.32788
 C3 C 0.33582 0.36098 0.33621
 N4 N 0.32751 0.35258 0.35286
 C5 C 0.33581 0.33590 0.36125
 N6 N 0.35247 0.32757 0.35283
 C7 C 0.36093 0.83563 -0.16469
 N8 N 0.35244 0.85227 -0.17301
 C9 C 0.33575 0.86068 -0.16472
 N10 N 0.32754 0.85232 -0.14798
 C11 C 0.33592 0.83571 -0.13954
 N12 N 0.35258 0.82740 -0.14795
 C13 C 0.86065 0.33622 -0.16443
 N14 N 0.85222 0.35285 -0.17278
 C15 C 0.83551 0.36127 -0.16452
 N16 N 0.82725 0.35288 -0.14781
 C17 C 0.83559 0.33625 -0.13937
 N18 N 0.85227 0.32794 -0.14775
 C19 C 0.86108 0.83532 0.33558
 N20 N 0.85272 0.82710 0.35232
 C21 C 0.83611 0.83548 0.36078
 N22 N 0.82779 0.85215 0.35238
 C23 C 0.83605 0.86049 0.33567
 N24 N 0.85266 0.85202 0.32731
 C25 C 0.63927 0.66424 0.33592
 N26 N 0.64768 0.64758 0.32759
 C27 C 0.66434 0.63915 0.33590
 N28 N 0.67262 0.64751 0.35260
 C29 C 0.66430 0.66416 0.36103
 N30 N 0.64765 0.67250 0.35262
 C31 C 0.63909 0.16446 -0.16492
 N32 N 0.64756 0.14779 -0.17322
 C33 C 0.66425 0.13937 -0.16492
 N34 N 0.67248 0.14777 -0.14820
 C35 C 0.66412 0.16440 -0.13978
 N36 N 0.64746 0.17271 -0.14820
 C37 C 0.13965 0.66395 -0.16444
 N38 N 0.14809 0.64732 -0.17278
 C39 C 0.16479 0.63889 -0.16452
 N40 N 0.17305 0.64728 -0.14780
 C41 C 0.16470 0.66392 -0.13936
 N42 N 0.14803 0.67223 -0.14775
 C43 C 0.13914 0.16437 0.33520
 N44 N 0.14760 0.14770 0.32690
 C45 C 0.16425 0.13924 0.33521
 N46 N 0.17246 0.14760 0.35196
 C47 C 0.16412 0.16424 0.36039
 N48 N 0.14749 0.17259 0.35195
 C49 C 0.63905 0.33579 0.66389
 N50 N 0.64743 0.32751 0.64721
 C51 C 0.66409 0.33584 0.63880
 N52 N 0.67243 0.35249 0.64722
 C53 C 0.66414 0.36087 0.66391
 N54 N 0.64748 0.35244 0.67222
 C55 C 0.63919 0.83566 1.16474
 N56 N 0.64757 0.82740 1.14803
 C57 C 0.66422 0.83573 1.13961
 N58 N 0.67257 0.85238 1.14803
 C59 C 0.66433 0.86077 1.16474
 N60 N 0.64764 0.85235 1.17303
 C61 C 0.13901 0.33527 1.16454
 N62 N 0.14741 0.32702 1.14783
 C63 C 0.16403 0.33540 1.13939
 N64 N 0.17231 0.35210 1.14777
 C65 C 0.16401 0.36048 1.16444
 N66 N 0.14739 0.35201 1.17279
 C67 C 0.13912 0.83563 0.66475
 N68 N 0.14745 0.82742 0.64799
 C69 C 0.16409 0.83576 0.63956
 N70 N 0.17247 0.85237 0.64802
 C71 C 0.16428 0.86072 0.66478
 N72 N 0.14760 0.85228 0.67308
 C73 C 0.36087 0.66437 0.66400
 N74 N 0.35246 0.67268 0.64734
 C75 C 0.33580 0.66434 0.63893
 N76 N 0.32750 0.64766 0.64732
 C77 C 0.33581 0.63926 0.66397
 N78 N 0.35247 0.64768 0.67229
 C79 C 0.36070 0.16426 1.16500
 N80 N 0.35235 0.17247 1.14824
 C81 C 0.33571 0.16412 1.13982
 N82 N 0.32734 0.14751 1.14828
 C83 C 0.33555 0.13917 1.16503
 N84 N 0.35223 0.14762 1.17333
 C85 C 0.86082 0.66431 1.16483
 N86 N 0.85245 0.67255 1.14811
 C87 C 0.83582 0.66419 1.13967
 N88 N 0.82750 0.64752 1.14807
 C89 C 0.83574 0.63914 1.16479
 N90 N 0.85240 0.64761 1.17311
 C91 C 0.86042 0.16395 0.66415
 N92 N 0.85207 0.17221 0.64745
 C93 C 0.83537 0.16392 0.63907
 N94 N 0.82697 0.14732 0.64754
 C95 C 0.83520 0.13895 0.66427
 N96 N 0.85193 0.14735 0.67252
 C97 C 0.33561 0.36056 0.66451
 N98 N 0.32729 0.35215 0.64786
 C99 C 0.33559 0.33547 0.63946
 N100 N 0.35225 0.32715 0.64786
 C101 C 0.36067 0.33546 0.66451
 N102 N 0.35228 0.35214 0.67282
 C103 C 0.33593 0.86158 0.16405
 N104 N 0.32762 0.85316 0.14740
 C105 C 0.33597 0.83651 0.13899
 N106 N 0.35267 0.82824 0.14737
 C107 C 0.36107 0.83656 0.16401
 N108 N 0.35264 0.85321 0.17234
 C109 C 0.83638 0.36084 0.16384
 N110 N 0.82803 0.35242 0.14720
 C111 C 0.83628 0.33571 0.13883
 N112 N 0.85293 0.32736 0.14723
 C113 C 0.86138 0.33568 0.16387
 N114 N 0.85303 0.35240 0.17214
 C115 C 0.83600 0.86148 0.66435
 N116 N 0.82770 0.85305 0.64769
 C117 C 0.83604 0.83640 0.63929
 N118 N 0.85273 0.82812 0.64768
 C119 C 0.86113 0.83645 0.66433
 N120 N 0.85269 0.85310 0.67265
 C121 C 0.66420 0.63931 0.66460
 N122 N 0.67250 0.64770 0.64793
 C123 C 0.66419 0.66438 0.63954
 N124 N 0.64754 0.67271 0.64795
 C125 C 0.63915 0.66442 0.66463
 N126 N 0.64755 0.64774 0.67293
 C127 C 0.66374 0.13857 0.16355
 N128 N 0.64706 0.14695 0.17184
 C129 C 0.63864 0.16363 0.16355
 N130 N 0.64706 0.17196 0.14691
 C131 C 0.66375 0.16367 0.13852
 N132 N 0.67207 0.14699 0.14692
 C133 C 0.16380 0.63913 0.16393
 N134 N 0.17214 0.64755 0.14729
 C135 C 0.16383 0.66422 0.13889
 N136 N 0.14714 0.67253 0.14726
 C137 C 0.13871 0.66420 0.16390
 N138 N 0.14711 0.64752 0.17220
 C139 C 0.16395 0.13830 0.66421
 N140 N 0.17225 0.14669 0.64753
 C141 C 0.16392 0.16335 0.63913
 N142 N 0.14726 0.17167 0.64754
 C143 C 0.13888 0.16339 0.66421
 N144 N 0.14729 0.14672 0.67253
 C145 C 0.33585 0.63957 0.33565
 N146 N 0.35252 0.64799 0.32734
 C147 C 0.36092 0.66468 0.33564
 N148 N 0.35251 0.67299 0.35229
 C149 C 0.33585 0.66466 0.36070
 N150 N 0.32754 0.64798 0.35231
 C151 C 0.33602 0.13830 0.83616
 N152 N 0.35270 0.14671 0.82787
 C153 C 0.36111 0.16338 0.83618
 N154 N 0.35271 0.17170 0.85283
 C155 C 0.33603 0.16339 0.86122
 N156 N 0.32770 0.14672 0.85281
 C157 C 0.83626 0.63917 0.83609
 N158 N 0.85291 0.64761 0.82776
 C159 C 0.86131 0.66430 0.83604
 N160 N 0.85292 0.67261 0.85271
 C161 C 0.83627 0.66427 0.86113
 N162 N 0.82797 0.64758 0.85275
 C163 C 0.83601 0.13877 0.33552
 N164 N 0.82770 0.14717 0.35217
 C165 C 0.83603 0.16383 0.36060
 N166 N 0.85274 0.17212 0.35223
 C167 C 0.86115 0.16380 0.33558
 N168 N 0.85271 0.14715 0.32724
 C169 C 0.66433 0.36078 0.33516
 N170 N 0.64766 0.35237 0.32685
 C171 C 0.63923 0.33571 0.33517
 N172 N 0.64761 0.32742 0.35184
 C173 C 0.66428 0.33574 0.36025
 N174 N 0.67261 0.35240 0.35184
 C175 C 0.66412 0.86149 0.83638
 N176 N 0.64742 0.85310 0.82811
 C177 C 0.63903 0.83642 0.83641
 N178 N 0.64747 0.82808 0.85303
 C179 C 0.66417 0.83638 0.86140
 N180 N 0.67248 0.85306 0.85300
 C181 C 0.16405 0.36087 0.83621
 N182 N 0.14739 0.35246 0.82789
 C183 C 0.13900 0.33575 0.83615
 N184 N 0.14741 0.32741 0.85279
 C185 C 0.16408 0.33573 0.86121
 N186 N 0.17238 0.35243 0.85285
 C187 C 0.16367 0.86131 0.33572
 N188 N 0.14701 0.85288 0.32740
 C189 C 0.13862 0.83619 0.33571
 N190 N 0.14702 0.82790 0.35238
 C191 C 0.16367 0.83625 0.36079
 N192 N 0.17197 0.85293 0.35239
 O193 O 0.24763 1.02029 0.27564
 O194 O 0.27535 0.98105 0.24802
 O195 O 0.27539 1.02031 0.24810
 O196 O 0.24763 0.98103 0.27561
 O197 O 0.22417 0.98106 0.25207
 O198 O 0.25195 1.02034 0.22455
 O199 O 0.25189 0.98109 0.22448
 O200 O 0.22418 1.02032 0.25209
 Cu201 Cu 0.26386 1.00067 0.26421
 Cu202 Cu 0.23569 1.00071 0.23594
 C203 C 0.23124 1.02705 0.26851
 C204 C 0.26829 0.97433 0.23160
 C205 C 0.26834 1.02707 0.23170
 C206 C 0.23123 0.97430 0.26847
 O207 O 0.22431 0.48055 0.75239
 O208 O 0.25196 0.51971 0.72461
 O209 O 0.25193 0.48045 0.72471
 O210 O 0.22436 0.51981 0.75231
 O211 O 0.24792 0.51984 0.77575
 O212 O 0.27548 0.48049 0.74815
 O213 O 0.27552 0.51974 0.74804
 O214 O 0.24786 0.48058 0.77583
 Cu215 Cu 0.23577 0.50013 0.73615
 Cu216 Cu 0.26406 0.50017 0.76430
 C217 C 0.23143 0.47384 0.76878
 C218 C 0.26839 0.52645 0.73165
 C219 C 0.26835 0.47371 0.73178
 C220 C 0.23150 0.52658 0.76867
 O221 O 0.74773 -0.02017 0.22415
 O222 O 0.77542 0.01917 0.25167
 O223 O 0.77545 -0.02008 0.25173
 O224 O 0.74773 0.01909 0.22405
 O225 O 0.72425 0.01913 0.24755
 O226 O 0.75197 -0.02004 0.27525
 O227 O 0.75194 0.01920 0.27518
 O228 O 0.72425 -0.02013 0.24766
 Cu229 Cu 0.76394 -0.00050 0.23554
 Cu230 Cu 0.73574 -0.00045 0.26377
 C231 C 0.73133 -0.02690 0.23128
 C232 C 0.76835 0.02594 0.26806
 C233 C 0.76838 -0.02679 0.26815
 C234 C 0.73133 0.02583 0.23114
 O235 O 0.72463 0.51952 0.74819
 O236 O 0.75228 0.48022 0.77574
 O237 O 0.75233 0.51947 0.77579
 O238 O 0.72463 0.48027 0.74808
 O239 O 0.74814 0.48031 0.72460
 O240 O 0.77584 0.51949 0.75231
 O241 O 0.77579 0.48024 0.75226
 O242 O 0.74814 0.51956 0.72470
 Cu243 Cu 0.73611 0.49987 0.76431
 Cu244 Cu 0.76434 0.49990 0.73611
 C245 C 0.73173 0.52629 0.73181
 C246 C 0.76868 0.47347 0.76865
 C247 C 0.76875 0.52622 0.76871
 C248 C 0.73172 0.47356 0.73167
 O249 O 0.25192 0.48052 0.27568
 O250 O 0.22424 0.51967 0.24793
 O251 O 0.22426 0.48042 0.24803
 O252 O 0.25192 0.51977 0.27556
 O253 O 0.27543 0.51972 0.25208
 O254 O 0.24777 0.48038 0.22454
 O255 O 0.24775 0.51963 0.22445
 O256 O 0.27543 0.48047 0.25219
 Cu257 Cu 0.23572 0.50010 0.26416
 Cu258 Cu 0.26396 0.50004 0.23596
 C259 C 0.26834 0.47377 0.26861
 C260 C 0.23133 0.52637 0.23152
 C261 C 0.23136 0.47364 0.23165
 C262 C 0.26834 0.52650 0.26845
 O263 O 0.74770 1.02044 0.77559
 O264 O 0.77541 0.98114 0.74805
 O265 O 0.77535 1.02039 0.74793
 O266 O 0.74778 0.98118 0.77573
 O267 O 0.72425 0.98106 0.75227
 O268 O 0.75182 1.02027 0.72447
 O269 O 0.75188 0.98102 0.72459
 O270 O 0.72417 1.02032 0.75212
 Cu271 Cu 0.76393 1.00080 0.76418
 Cu272 Cu 0.73566 1.00065 0.73601
 C273 C 0.73127 1.02713 0.76849
 C274 C 0.76831 0.97433 0.73168
 C275 C 0.76823 1.02706 0.73152
 C276 C 0.73137 0.97439 0.76868
 O277 O 0.74838 0.51976 0.27526
 O278 O 0.77611 0.48061 0.24756
 O279 O 0.77607 0.51988 0.24765
 O280 O 0.74839 0.48051 0.27513
 O281 O 0.72491 0.48056 0.25162
 O282 O 0.75259 0.51991 0.22414
 O283 O 0.75263 0.48065 0.22404
 O284 O 0.72490 0.51981 0.25175
 Cu285 Cu 0.76460 0.50019 0.26376
 Cu286 Cu 0.73640 0.50024 0.23552
 C287 C 0.73197 0.52651 0.26818
 C288 C 0.76904 0.47390 0.23114
 C289 C 0.76899 0.52666 0.23127
 C290 C 0.73198 0.47378 0.26800
 O291 O 0.27558 0.01872 0.75220
 O292 O 0.24787 -0.02053 0.72456
 O293 O 0.24790 0.01872 0.72456
 O294 O 0.27561 -0.02053 0.75213
 O295 O 0.25214 -0.02056 0.77565
 O296 O 0.22442 0.01871 0.74807
 O297 O 0.22440 -0.02055 0.74807
 O298 O 0.25210 0.01869 0.77570
 Cu299 Cu 0.26410 -0.00090 0.73600
 Cu300 Cu 0.23590 -0.00093 0.76423
 C301 C 0.26850 0.02545 0.76861
 C302 C 0.23147 -0.02728 0.73167
 C303 C 0.23150 0.02545 0.73167
 C304 C 0.26854 -0.02729 0.76853
 O305 O 0.24799 0.27516 0.98060
 O306 O 0.27564 0.24753 1.01983
 O307 O 0.27564 0.24746 0.98063
 O308 O 0.24795 0.27516 1.01980
 O309 O 0.22444 0.25164 1.01980
 O310 O 0.25213 0.22395 0.98064
 O311 O 0.25213 0.22401 1.01984
 O312 O 0.22448 0.25164 0.98060
 Cu313 Cu 0.26417 0.26369 1.00022
 Cu314 Cu 0.23593 0.23545 1.00022
 C315 C 0.23158 0.26806 0.97387
 C316 C 0.26854 0.23112 1.02658
 C317 C 0.26854 0.23104 0.97391
 C318 C 0.23153 0.26806 1.02653
 O319 O 0.24761 0.77598 0.48035
 O320 O 0.27533 0.74830 0.51950
 O321 O 0.27533 0.74837 0.48030
 O322 O 0.24763 0.77593 0.51955
 O323 O 0.22415 0.75237 0.51952
 O324 O 0.25186 0.72482 0.48026
 O325 O 0.25186 0.72474 0.51946
 O326 O 0.22413 0.75243 0.48031
 Cu327 Cu 0.26383 0.76451 0.49992
 Cu328 Cu 0.23564 0.73623 0.49988
 C329 C 0.23120 0.76887 0.47360
 C330 C 0.26826 0.73186 0.52620
 C331 C 0.26826 0.73195 0.47354
 C332 C 0.23123 0.76879 0.52628
 O333 O 0.22466 0.74794 -0.01970
 O334 O 0.25221 0.77576 0.01950
 O335 O 0.25228 0.77567 -0.01971
 O336 O 0.22455 0.74806 0.01949
 O337 O 0.24808 0.72458 0.01961
 O338 O 0.27582 0.75219 -0.01960
 O339 O 0.27574 0.75228 0.01960
 O340 O 0.24820 0.72446 -0.01960
 Cu341 Cu 0.23606 0.76422 -0.00011
 Cu342 Cu 0.26433 0.73602 0.00002
 C343 C 0.23180 0.73152 -0.02639
 C344 C 0.26862 0.76870 0.02628
 C345 C 0.26871 0.76857 -0.02639
 C346 C 0.23165 0.73167 0.02628
 O347 O 0.22416 0.24760 0.48048
 O348 O 0.25178 0.27518 0.51980
 O349 O 0.25184 0.27528 0.48060
 O350 O 0.22415 0.24746 0.51969
 O351 O 0.24768 0.22397 0.51963
 O352 O 0.27536 0.25178 0.48055
 O353 O 0.27530 0.25169 0.51975
 O354 O 0.24768 0.22411 0.48043
 Cu355 Cu 0.23562 0.26374 0.50015
 Cu356 Cu 0.26387 0.23552 0.50009
 C357 C 0.23127 0.23122 0.47370
 C358 C 0.26819 0.26808 0.52653
 C359 C 0.26826 0.26821 0.47386
 C360 C 0.23126 0.23103 0.52638
 O361 O 0.72456 0.75210 1.01987
 O362 O 0.75229 0.72451 0.98066
 O363 O 0.75224 0.72444 1.01986
 O364 O 0.72462 0.75218 0.98067
 O365 O 0.74813 0.77570 0.98074
 O366 O 0.77575 0.74797 1.01993
 O367 O 0.77580 0.74803 0.98073
 O368 O 0.74807 0.77562 1.01994
 Cu369 Cu 0.73607 0.73594 1.00025
 Cu370 Cu 0.76430 0.76419 1.00034
 C371 C 0.73165 0.76850 1.02664
 C372 C 0.76871 0.73162 0.97396
 C373 C 0.76864 0.73154 1.02663
 C374 C 0.73172 0.76861 0.97398
 O375 O 0.74791 0.27543 0.48000
 O376 O 0.77547 0.24772 0.51926
 O377 O 0.77556 0.24774 0.48006
 O378 O 0.74787 0.27545 0.51921
 O379 O 0.72432 0.25198 0.51917
 O380 O 0.75201 0.22426 0.48001
 O381 O 0.75192 0.22425 0.51922
 O382 O 0.72437 0.25195 0.47997
 Cu383 Cu 0.76407 0.26395 0.49964
 Cu384 Cu 0.73579 0.23575 0.49959
 C385 C 0.73150 0.26835 0.47324
 C386 C 0.76833 0.23132 0.52598
 C387 C 0.76845 0.23133 0.47331
 C388 C 0.73143 0.26838 0.52592
 O389 O 0.72428 0.24800 -0.01987
 O390 O 0.75200 0.27554 0.01942
 O391 O 0.75193 0.27569 -0.01979
 O392 O 0.72428 0.24790 0.01934
 O393 O 0.74778 0.22438 0.01925
 O394 O 0.77543 0.25218 -0.01988
 O395 O 0.77550 0.25202 0.01932
 O396 O 0.74779 0.22448 -0.01995
 Cu397 Cu 0.73576 0.26414 -0.00021
 Cu398 Cu 0.76399 0.23590 -0.00032
 C399 C 0.73137 0.23160 -0.02666
 C400 C 0.76842 0.26842 0.02611
 C401 C 0.76833 0.26862 -0.02656
 C402 C 0.73138 0.23146 0.02601
 O403 O 0.77580 0.75209 0.48068
 O404 O 0.74808 0.72453 0.51992
 O405 O 0.74809 0.72445 0.48072
 O406 O 0.77575 0.75221 0.51988
 O407 O 0.75226 0.77573 0.51981
 O408 O 0.72460 0.74798 0.48065
 O409 O 0.72458 0.74806 0.51985
 O410 O 0.75231 0.77561 0.48061
 Cu411 Cu 0.76429 0.73596 0.50031
 Cu412 Cu 0.73608 0.76421 0.50022
 C413 C 0.76872 0.76849 0.47390
 C414 C 0.73167 0.73165 0.52663
 C415 C 0.73168 0.73155 0.47395
 C416 C 0.76866 0.76865 0.52657
 O417 O 1.02021 0.27529 0.24778
 O418 O 0.98096 0.24761 0.27541
 O419 O 1.02021 0.24762 0.27542
 O420 O 0.98096 0.27526 0.24776
 O421 O 0.98097 0.25174 0.22428
 O422 O 1.02023 0.22411 0.25194
 O423 O 0.98097 0.22408 0.25193
 O424 O 1.02022 0.25177 0.22430
 Cu425 Cu 1.00058 0.26381 0.26395
 Cu426 Cu 1.00060 0.23556 0.23576
 C427 C 1.02695 0.26819 0.23139
 C428 C 0.97422 0.23119 0.26832
 C429 C 1.02696 0.23121 0.26833
 C430 C 0.97422 0.26815 0.23136
 O431 O 0.48045 0.25158 0.72462
 O432 O 0.51985 0.22398 0.75212
 O433 O 0.48059 0.22389 0.75224
 O434 O 0.51970 0.25165 0.72449
 O435 O 0.51973 0.27516 0.74798
 O436 O 0.48062 0.24740 0.77573
 O437 O 0.51987 0.24749 0.77562
 O438 O 0.48049 0.27509 0.74811
 Cu439 Cu 0.50014 0.23542 0.73601
 Cu440 Cu 0.50018 0.26365 0.76422
 C441 C 0.47371 0.26798 0.73173
 C442 C 0.52662 0.23109 0.76850
 C443 C 0.47389 0.23098 0.76865
 C444 C 0.52643 0.26808 0.73157
 O445 O -0.01973 0.27546 0.75198
 O446 O 0.01948 0.24764 0.72446
 O447 O -0.01977 0.24772 0.72441
 O448 O 0.01951 0.27535 0.75207
 O449 O 0.01942 0.25188 0.77558
 O450 O -0.01986 0.22425 0.74793
 O451 O 0.01939 0.22417 0.74798
 O452 O -0.01983 0.25199 0.77551
 Cu453 Cu -0.00012 0.26390 0.73587
 Cu454 Cu -0.00023 0.23571 0.76411
 C455 C -0.02651 0.26841 0.76838
 C456 C 0.02616 0.23122 0.73158
 C457 C -0.02656 0.23134 0.73151
 C458 C 0.02620 0.26827 0.76848
 O459 O 0.51913 0.24753 0.22410
 O460 O 0.48005 0.27527 0.25190
 O461 O 0.51930 0.27524 0.25171
 O462 O 0.47988 0.24756 0.22429
 O463 O 0.47997 0.22408 0.24779
 O464 O 0.51939 0.25175 0.27521
 O465 O 0.48014 0.25178 0.27541
 O466 O 0.51922 0.22404 0.24760
 Cu467 Cu 0.49958 0.26376 0.23564
 Cu468 Cu 0.49969 0.23555 0.26386
 C469 C 0.52589 0.23112 0.23117
 C470 C 0.47339 0.26819 0.26834
 C471 C 0.52611 0.26816 0.26807
 C472 C 0.47315 0.23117 0.23143
 O473 O 1.02014 0.77589 0.74791
 O474 O 0.98087 0.74825 0.77554
 O475 O 1.02011 0.74815 0.77548
 O476 O 0.98089 0.77596 0.74795
 O477 O 0.98081 0.75248 0.72443
 O478 O 1.02003 0.72469 0.75195
 O479 O 0.98079 0.72477 0.75202
 O480 O 1.02006 0.75242 0.72438
 Cu481 Cu 1.00051 0.76442 0.76408
 Cu482 Cu 1.00041 0.73623 0.73583
 C483 C 1.02685 0.76881 0.73150
 C484 C 0.97409 0.73185 0.76844
 C485 C 1.02681 0.73174 0.76835
 C486 C 0.97411 0.76890 0.73155
 O487 O 0.52003 0.77612 0.24781
 O488 O 0.48068 0.74852 0.27538
 O489 O 0.51992 0.74844 0.27544
 O490 O 0.48078 0.77620 0.24776
 O491 O 0.48075 0.75269 0.22427
 O492 O 0.51990 0.72494 0.25195
 O493 O 0.48066 0.72501 0.25190
 O494 O 0.52000 0.75261 0.22432
 Cu495 Cu 0.50036 0.76469 0.26395
 Cu496 Cu 0.50033 0.73645 0.23575
 C497 C 0.52678 0.76901 0.23142
 C498 C 0.47391 0.73212 0.26828
 C499 C 0.52664 0.73202 0.26836
 C500 C 0.47403 0.76912 0.23136
 O501 O 0.01896 0.74788 0.22433
 O502 O -0.02027 0.77548 0.25207
 O503 O 0.01898 0.77555 0.25198
 O504 O -0.02029 0.74780 0.22443
 O505 O -0.02021 0.72429 0.24791
 O506 O 0.01907 0.75204 0.27546
 O507 O -0.02018 0.75197 0.27555
 O508 O 0.01904 0.72437 0.24781
 Cu509 Cu -0.00066 0.76404 0.23584
 Cu510 Cu -0.00056 0.73580 0.26404
 C511 C 0.02574 0.73148 0.23140
 C512 C -0.02696 0.76837 0.26847
 C513 C 0.02577 0.76846 0.26836
 C514 C -0.02700 0.73138 0.23153
 O515 O 0.48016 0.77605 0.75237
 O516 O 0.51951 0.74842 0.72485
 O517 O 0.48027 0.74840 0.72471
 O518 O 0.51941 0.77609 0.75249
 O519 O 0.51936 0.75257 0.77596
 O520 O 0.48021 0.72488 0.74818
 O521 O 0.51945 0.72490 0.74832
 O522 O 0.48011 0.75253 0.77585
 Cu523 Cu 0.49984 0.76461 0.73625
 Cu524 Cu 0.49978 0.73636 0.76444
 C525 C 0.47337 0.76894 0.76874
 C526 C 0.52624 0.73200 0.73195
 C527 C 0.47352 0.73198 0.73177
 C528 C 0.52611 0.76899 0.76890
 C529 C 0.41036 0.30843 0.30868
 N530 N 0.40227 0.32549 0.30089
 N531 N 0.38663 0.33435 0.30977
 C532 C 0.37851 0.32647 0.32676
 N533 N 0.38666 0.30946 0.33460
 N534 N 0.40230 0.30060 0.32573
 C535 C 0.42718 0.29831 0.29854
 N536 N 0.43495 0.28098 0.30606
 N537 N 0.44982 0.27149 0.29654
 C538 C 0.45746 0.27899 0.27916
 N539 N 0.44975 0.29637 0.27169
 N540 N 0.43488 0.30586 0.28121
 C541 C 0.40985 0.80890 0.80860
 N542 N 0.40166 0.82586 0.80070
 N543 N 0.38591 0.83464 0.80946
 C544 C 0.37774 0.82677 0.82645
 N545 N 0.38602 0.80986 0.83440
 N546 N 0.40177 0.80109 0.82564
 C547 C 0.42679 0.79887 0.79858
 N548 N 0.43461 0.78159 0.80618
 N549 N 0.44960 0.77217 0.79678
 C550 C 0.45732 0.77968 0.77944
 N551 N 0.44956 0.79700 0.77189
 N552 N 0.43458 0.80642 0.78129
 C553 C -0.08974 0.30875 0.80831
 N554 N -0.09783 0.30098 0.82537
 N555 N -0.11350 0.30985 0.83416
 C556 C -0.12166 0.32682 0.82623
 N557 N -0.11351 0.33464 0.80922
 N558 N -0.09783 0.32577 0.80043
 C559 C -0.07287 0.29861 0.79827
 N560 N -0.06509 0.30611 0.78095
 N561 N -0.05017 0.29659 0.77153
 C562 C -0.04250 0.27923 0.77909
 N563 N -0.05022 0.27179 0.79646
 N564 N -0.06513 0.28131 0.80587
 C565 C -0.09021 0.80843 0.30866
 N566 N -0.09835 0.82545 0.30083
 N567 N -0.11403 0.83427 0.30966
 C568 C -0.12218 0.82640 0.32666
 N569 N -0.11395 0.80943 0.33454
 N570 N -0.09827 0.80061 0.32571
 C571 C -0.07334 0.79835 0.29856
 N572 N -0.06553 0.78105 0.30610
 N573 N -0.05061 0.77160 0.29662
 C574 C -0.04295 0.77912 0.27926
 N575 N -0.05069 0.79647 0.27177
 N576 N -0.06562 0.80592 0.28125
 C577 C 0.58975 0.69173 0.30852
 N578 N 0.59782 0.69952 0.32558
 N579 N 0.61347 0.69065 0.33442
 C580 C 0.62162 0.67366 0.32654
 N581 N 0.61349 0.66581 0.30953
 N582 N 0.59784 0.67469 0.30069
 C583 C 0.57291 0.70186 0.29842
 N584 N 0.56516 0.69433 0.28110
 N585 N 0.55028 0.70383 0.27162
 C586 C 0.54259 0.72121 0.27913
 N587 N 0.55028 0.72869 0.29650
 N588 N 0.56517 0.71919 0.30597
 C589 C 0.59018 0.19117 0.80835
 N590 N 0.59834 0.17419 0.80047
 N591 N 0.61409 0.16542 0.80924
 C592 C 0.62228 0.17331 0.82622
 N593 N 0.61402 0.19024 0.83415
 N594 N 0.59827 0.19901 0.82538
 C595 C 0.57322 0.20120 0.79834
 N596 N 0.56540 0.21847 0.80593
 N597 N 0.55041 0.22789 0.79654
 C598 C 0.54269 0.22037 0.77920
 N599 N 0.55044 0.20304 0.77165
 N600 N 0.56544 0.19363 0.78105
 C601 C 1.09005 0.69141 0.80829
 N602 N 1.09814 0.69919 0.82535
 N603 N 1.11381 0.69032 0.83415
 C604 C 1.12197 0.67336 0.82621
 N605 N 1.11382 0.66553 0.80920
 N606 N 1.09815 0.67440 0.80040
 C607 C 1.07318 0.70155 0.79824
 N608 N 1.06540 0.69405 0.78092
 N609 N 1.05048 0.70357 0.77150
 C610 C 1.04280 0.72092 0.77907
 N611 N 1.05052 0.72837 0.79643
 N612 N 1.06544 0.71886 0.80585
 C613 C 1.09034 0.19119 0.30837
 N614 N 1.09840 0.19900 0.32542
 N615 N 1.11411 0.19020 0.33422
 C616 C 1.12237 0.17326 0.32630
 N617 N 1.11421 0.16540 0.30930
 N618 N 1.09850 0.17420 0.30050
 C619 C 1.07343 0.20125 0.29831
 N620 N 1.06568 0.19369 0.28100
 N621 N 1.05073 0.20313 0.27156
 C622 C 1.04298 0.22047 0.27908
 N623 N 1.05067 0.22798 0.29644
 N624 N 1.06562 0.21854 0.30588
 C625 C 0.58952 0.30834 0.69132
 N626 N 0.59758 0.30053 0.67426
 N627 N 0.61323 0.30939 0.66541
 C628 C 0.62140 0.32638 0.67329
 N629 N 0.61328 0.33424 0.69029
 N630 N 0.59763 0.32538 0.69914
 C631 C 0.57269 0.29822 0.70144
 N632 N 0.56497 0.30575 0.71876
 N633 N 0.55008 0.29626 0.72826
 C634 C 0.54238 0.27888 0.72077
 N635 N 0.55004 0.27139 0.70339
 N636 N 0.56492 0.28088 0.69390
 C637 C 0.59029 0.80893 0.19149
 N638 N 0.59846 0.82593 0.19936
 N639 N 0.61420 0.83470 0.19058
 C640 C 0.62239 0.82680 0.17361
 N641 N 0.61413 0.80985 0.16570
 N642 N 0.59838 0.80108 0.17448
 C643 C 0.57335 0.79890 0.20153
 N644 N 0.56552 0.78161 0.19395
 N645 N 0.55054 0.77220 0.20336
 C646 C 0.54283 0.77973 0.22070
 N647 N 0.55059 0.79706 0.22823
 N648 N 0.56558 0.80648 0.21882
 C649 C 1.09026 0.30834 0.19137
 N650 N 1.09835 0.32539 0.19920
 N651 N 1.11404 0.33423 0.19040
 C652 C 1.12225 0.32634 0.17343
 N653 N 1.11407 0.30935 0.16555
 N654 N 1.09837 0.30051 0.17435
 C655 C 1.07337 0.29825 0.20143
 N656 N 1.06561 0.28092 0.19387
 N657 N 1.05068 0.27145 0.20331
 C658 C 1.04296 0.27897 0.22065
 N659 N 1.05065 0.29634 0.22816
 N660 N 1.06559 0.30581 0.21872
 C661 C 1.09027 0.80883 0.69152
 N662 N 1.09846 0.82580 0.69942
 N663 N 1.11418 0.83459 0.69064
 C664 C 1.12233 0.82675 0.67363
 N665 N 1.11404 0.80983 0.66567
 N666 N 1.09831 0.80104 0.67446
 C667 C 1.07334 0.79878 0.70156
 N668 N 1.06550 0.78151 0.69396
 N669 N 1.05054 0.77207 0.70339
 C670 C 1.04287 0.77956 0.72076
 N671 N 1.05065 0.79687 0.72832
 N672 N 1.06561 0.80631 0.71889
 C673 C 0.41040 0.69180 0.69146
 N674 N 0.40231 0.67473 0.69925
 N675 N 0.38666 0.66588 0.69038
 C676 C 0.37852 0.67377 0.67340
 N677 N 0.38667 0.69079 0.66556
 N678 N 0.40233 0.69964 0.67443
 C679 C 0.42724 0.70190 0.70159
 N680 N 0.43501 0.71924 0.69409
 N681 N 0.44990 0.72872 0.70360
 C682 C 0.45756 0.72120 0.72096
 N683 N 0.44985 0.70382 0.72842
 N684 N 0.43497 0.69434 0.71891
 C685 C 0.40959 0.19110 0.19169
 N686 N 0.40142 0.17413 0.19961
 N687 N 0.38568 0.16533 0.19086
 C688 C 0.37750 0.17316 0.17385
 N689 N 0.38577 0.19007 0.16588
 N690 N 0.40151 0.19888 0.17464
 C691 C 0.42654 0.20117 0.20168
 N692 N 0.43434 0.21844 0.19405
 N693 N 0.44934 0.22789 0.20342
 C694 C 0.45708 0.22041 0.22076
 N695 N 0.44934 0.20309 0.22835
 N696 N 0.43434 0.19364 0.21898
 C697 C -0.09037 0.69120 0.19161
 N698 N -0.09847 0.69901 0.17458
 N699 N -0.11419 0.69019 0.16580
 C700 C -0.12241 0.67322 0.17372
 N701 N -0.11420 0.66536 0.19070
 N702 N -0.09849 0.67419 0.19948
 C703 C -0.07346 0.70130 0.20165
 N704 N -0.06567 0.69376 0.21894
 N705 N -0.05071 0.70324 0.22836
 C706 C -0.04301 0.72059 0.22082
 N707 N -0.05075 0.72808 0.20347
 N708 N -0.06570 0.71861 0.19406
 C709 C -0.08989 0.19126 0.69144
 N710 N -0.09794 0.19906 0.67438
 N711 N -0.11365 0.19024 0.66557
 C712 C -0.12187 0.17330 0.67350
 N713 N -0.11376 0.16545 0.69050
 N714 N -0.09806 0.17427 0.69932
 C715 C -0.07300 0.20133 0.70151
 N716 N -0.06527 0.19380 0.71884
 N717 N -0.05033 0.20325 0.72829
 C718 C -0.04257 0.22058 0.72076
 N719 N -0.05023 0.22807 0.70338
 N720 N -0.06517 0.21862 0.69393
 C721 C 0.30846 0.41059 0.30883
 N722 N 0.32550 0.40248 0.30101
 N723 N 0.33433 0.38680 0.30985
 C724 C 0.32644 0.37867 0.32683
 N725 N 0.30946 0.38684 0.33470
 N726 N 0.30063 0.40251 0.32586
 C727 C 0.29838 0.42745 0.29872
 N728 N 0.28106 0.43523 0.30625
 N729 N 0.27159 0.45013 0.29676
 C730 C 0.27911 0.45780 0.27940
 N731 N 0.29647 0.45008 0.27192
 N732 N 0.30594 0.43518 0.28140
 C733 C 0.30878 -0.09058 0.80848
 N734 N 0.32579 -0.09869 0.80060
 N735 N 0.33464 -0.11438 0.80939
 C736 C 0.32681 -0.12257 0.82639
 N737 N 0.30985 -0.11436 0.83432
 N738 N 0.30100 -0.09867 0.82552
 C739 C 0.29866 -0.07370 0.79843
 N740 N 0.28136 -0.06594 0.80603
 N741 N 0.27187 -0.05101 0.79661
 C742 C 0.27933 -0.04329 0.77925
 N743 N 0.29668 -0.05099 0.77170
 N744 N 0.30617 -0.06592 0.78112
 C745 C 0.80870 0.41007 0.80864
 N746 N 0.82572 0.40194 0.80081
 N747 N 0.83451 0.38623 0.80961
 C748 C 0.82662 0.37804 0.82658
 N749 N 0.80965 0.38627 0.83447
 N750 N 0.80085 0.40198 0.82566
 C751 C 0.79864 0.42698 0.79859
 N752 N 0.78134 0.43477 0.80615
 N753 N 0.77190 0.44973 0.79671
 C754 C 0.77943 0.45744 0.77938
 N755 N 0.79678 0.44971 0.77186
 N756 N 0.80621 0.43476 0.78129
 C757 C 0.80862 -0.08994 0.30830
 N758 N 0.82563 -0.09808 0.30043
 N759 N 0.83448 -0.11374 0.30927
 C760 C 0.82666 -0.12184 0.32629
 N761 N 0.80970 -0.11365 0.33421
 N762 N 0.80085 -0.09799 0.32537
 C763 C 0.79851 -0.07309 0.29820
 N764 N 0.78120 -0.06531 0.30577
 N765 N 0.77171 -0.05041 0.29631
 C766 C 0.77918 -0.04275 0.27892
 N767 N 0.79652 -0.05047 0.27139
 N768 N 0.80602 -0.06537 0.28086
 C769 C 0.30848 0.58965 0.69138
 N770 N 0.32553 0.59776 0.69917
 N771 N 0.33435 0.61343 0.69032
 C772 C 0.32644 0.62157 0.67336
 N773 N 0.30944 0.61340 0.66551
 N774 N 0.30062 0.59772 0.67436
 C775 C 0.29840 0.57278 0.70150
 N776 N 0.28106 0.56500 0.69399
 N777 N 0.27161 0.55009 0.70349
 C778 C 0.27915 0.54242 0.72084
 N779 N 0.29654 0.55014 0.72829
 N780 N 0.30599 0.56504 0.71879
 C781 C 0.30860 1.09040 0.19182
 N782 N 0.32559 1.09854 0.19972
 N783 N 0.33444 1.11424 0.19093
 C784 C 0.32662 1.12241 0.17392
 N785 N 0.30968 1.11417 0.16597
 N786 N 0.30084 1.09848 0.17475
 C787 C 0.29849 1.07351 0.20184
 N788 N 0.28120 1.06573 0.19422
 N789 N 0.27170 1.05079 0.20362
 C790 C 0.27915 1.04308 0.22100
 N791 N 0.29648 1.05080 0.22858
 N792 N 0.30598 1.06574 0.21917
 C793 C 0.80899 0.59021 0.19147
 N794 N 0.82596 0.59838 0.19937
 N795 N 0.83474 0.61413 0.19062
 C796 C 0.82687 0.62233 0.17364
 N797 N 0.80994 0.61406 0.16569
 N798 N 0.80117 0.59831 0.17444
 C799 C 0.79894 0.57325 0.20147
 N800 N 0.78167 0.56544 0.19385
 N801 N 0.77224 0.55044 0.20324
 C802 C 0.77974 0.54272 0.22058
 N803 N 0.79706 0.55047 0.22815
 N804 N 0.80649 0.56546 0.21876
 C805 C 0.80828 1.09028 0.69125
 N806 N 0.82533 1.09839 0.69905
 N807 N 0.83416 1.11406 0.69020
 C808 C 0.82627 1.12223 0.67321
 N809 N 0.80927 1.11401 0.66536
 N810 N 0.80044 1.09834 0.67421
 C811 C 0.79820 1.07342 0.70137
 N812 N 0.78088 1.06562 0.69386
 N813 N 0.77143 1.05070 0.70336
 C814 C 0.77897 1.04305 0.72071
 N815 N 0.79634 1.05079 0.72818
 N816 N 0.80578 1.06570 0.71868
 C817 C 0.69176 0.58963 0.30843
 N818 N 0.69957 0.59767 0.32549
 N819 N 0.69071 0.61332 0.33436
 C820 C 0.67373 0.62150 0.32649
 N821 N 0.66588 0.61339 0.30947
 N822 N 0.67473 0.59775 0.30061
 C823 C 0.70187 0.57279 0.29830
 N824 N 0.69434 0.56508 0.28096
 N825 N 0.70382 0.55019 0.27147
 C826 C 0.72118 0.54247 0.27897
 N827 N 0.72867 0.55012 0.29635
 N828 N 0.71918 0.56501 0.30585
 C829 C 0.69113 1.09055 0.80835
 N830 N 0.69894 1.09867 0.82537
 N831 N 0.69012 1.11438 0.83414
 C832 C 0.67316 1.12259 0.82621
 N833 N 0.66530 1.11438 0.80924
 N834 N 0.67412 1.09865 0.80047
 C835 C 0.70122 1.07363 0.79833
 N836 N 0.69367 1.06581 0.78105
 N837 N 0.70314 1.05084 0.77165
 C838 C 0.72050 1.04316 0.77919
 N839 N 0.72800 1.05092 0.79652
 N840 N 0.71853 1.06588 0.80592
 C841 C 0.19157 0.59006 0.80867
 N842 N 0.19943 0.59816 0.82568
 N843 N 0.19064 0.61388 0.83448
 C844 C 0.17368 0.62211 0.82659
 N845 N 0.16577 0.61392 0.80962
 N846 N 0.17456 0.59819 0.80083
 C847 C 0.20161 0.57313 0.79861
 N848 N 0.19402 0.56534 0.78134
 N849 N 0.20343 0.55036 0.77190
 C850 C 0.22078 0.54263 0.77941
 N851 N 0.22833 0.55036 0.79673
 N852 N 0.21892 0.56533 0.80616
 C853 C 0.19111 1.09041 0.30846
 N854 N 0.19889 1.09848 0.32551
 N855 N 0.19008 1.11420 0.33429
 C856 C 0.17315 1.12246 0.32634
 N857 N 0.16531 1.11429 0.30933
 N858 N 0.17413 1.09857 0.30055
 C859 C 0.20119 1.07350 0.29842
 N860 N 0.19367 1.06575 0.28109
 N861 N 0.20314 1.05080 0.27167
 C862 C 0.22046 1.04306 0.27924
 N863 N 0.22793 1.05075 0.29661
 N864 N 0.21846 1.06570 0.30603
 C865 C 0.69156 0.41040 0.69139
 N866 N 0.67452 0.40229 0.69919
 N867 N 0.66567 0.38664 0.69032
 C868 C 0.67354 0.37852 0.67332
 N869 N 0.69054 0.38669 0.66547
 N870 N 0.69939 0.40235 0.67434
 C871 C 0.70166 0.42725 0.70152
 N872 N 0.71899 0.43503 0.69400
 N873 N 0.72846 0.44993 0.70350
 C874 C 0.72095 0.45759 0.72087
 N875 N 0.70358 0.44987 0.72835
 N876 N 0.69411 0.43497 0.71884
 C877 C 0.69119 -0.09036 0.19144
 N878 N 0.67419 -0.09848 0.19933
 N879 N 0.66537 -0.11422 0.19057
 C880 C 0.67323 -0.12243 0.17359
 N881 N 0.69018 -0.11421 0.16565
 N882 N 0.69900 -0.09848 0.17442
 C883 C 0.70128 -0.07343 0.20145
 N884 N 0.71857 -0.06565 0.19384
 N885 N 0.72804 -0.05068 0.20324
 C886 C 0.72055 -0.04294 0.22058
 N887 N 0.70321 -0.05066 0.22814
 N888 N 0.69375 -0.06563 0.21875
 C889 C 0.19130 0.41021 0.19170
 N890 N 0.19912 0.40212 0.17467
 N891 N 0.19031 0.38640 0.16587
 C892 C 0.17336 0.37820 0.17379
 N893 N 0.16548 0.38634 0.19077
 N894 N 0.17429 0.40206 0.19957
 C895 C 0.20136 0.42713 0.20175
 N896 N 0.19381 0.43491 0.21905
 N897 N 0.20326 0.44987 0.22847
 C898 C 0.22061 0.45760 0.22094
 N899 N 0.22811 0.44988 0.20359
 N900 N 0.21866 0.43492 0.19417
 C901 C 0.19125 -0.09055 0.69163
 N902 N 0.17425 -0.09869 0.69951
 N903 N 0.16540 -0.11437 0.69070
 C904 C 0.17322 -0.12253 0.67368
 N905 N 0.19017 -0.11430 0.66575
 N906 N 0.19901 -0.09861 0.67456
 C907 C 0.20136 -0.07367 0.70169
 N908 N 0.21866 -0.06589 0.69410
 N909 N 0.22815 -0.05096 0.70355
 C910 C 0.22068 -0.04328 0.72092
 N911 N 0.20334 -0.05100 0.72846
 N912 N 0.19385 -0.06593 0.71902
 C913 C 0.30843 0.30848 0.41078
 N914 N 0.32547 0.30065 0.40268
 N915 N 0.33431 0.30950 0.38703
 C916 C 0.32643 0.32650 0.37890
 N917 N 0.30944 0.33439 0.38706
 N918 N 0.30060 0.32553 0.40271
 C919 C 0.29833 0.29836 0.42761
 N920 N 0.28100 0.30590 0.43537
 N921 N 0.27153 0.29640 0.45025
 C922 C 0.27904 0.27902 0.45792
 N923 N 0.29641 0.27153 0.45022
 N924 N 0.30588 0.28103 0.43534
 C925 C 0.30874 0.80852 -0.08977
 N926 N 0.32577 0.80067 -0.09787
 N927 N 0.33455 0.80945 -0.11360
 C928 C 0.32662 0.82639 -0.12180
 N929 N 0.30964 0.83429 -0.11364
 N930 N 0.30086 0.82551 -0.09791
 C931 C 0.29869 0.79848 -0.07285
 N932 N 0.28138 0.80605 -0.06510
 N933 N 0.27194 0.79663 -0.05015
 C934 C 0.27947 0.77930 -0.04240
 N935 N 0.29684 0.77178 -0.05008
 N936 N 0.30628 0.78120 -0.06504
 C937 C 0.80833 0.30888 -0.08975
 N938 N 0.80045 0.32590 -0.09785
 N939 N 0.80925 0.33474 -0.11353
 C940 C 0.82625 0.32688 -0.12168
 N941 N 0.83418 0.30992 -0.11352
 N942 N 0.82538 0.30108 -0.09785
 C943 C 0.79828 0.29877 -0.07288
 N944 N 0.80587 0.28145 -0.06515
 N945 N 0.79644 0.27195 -0.05024
 C946 C 0.77907 0.27943 -0.04252
 N947 N 0.77153 0.29679 -0.05019
 N948 N 0.78096 0.30629 -0.06509
 C949 C 0.80884 0.80834 0.41052
 N950 N 0.82583 0.80043 0.40240
 N951 N 0.83464 0.80919 0.38668
 C952 C 0.82677 0.82618 0.37851
 N953 N 0.80984 0.83414 0.38669
 N954 N 0.80103 0.82538 0.40241
 C955 C 0.79877 0.79833 0.42744
 N956 N 0.78148 0.80595 0.43520
 N957 N 0.77201 0.79655 0.45015
 C958 C 0.77949 0.77919 0.45789
 N959 N 0.79683 0.77162 0.45019
 N960 N 0.80630 0.78102 0.43524
 C961 C 0.69138 0.30852 0.58916
 N962 N 0.69924 0.32554 0.59727
 N963 N 0.69043 0.33436 0.61296
 C964 C 0.67344 0.32648 0.62111
 N965 N 0.66553 0.30951 0.61294
 N966 N 0.67433 0.30069 0.59725
 C967 C 0.70144 0.29843 0.57228
 N968 N 0.69385 0.28113 0.56451
 N969 N 0.70330 0.27166 0.54958
 C970 C 0.72067 0.27916 0.54189
 N971 N 0.72821 0.29651 0.54961
 N972 N 0.71877 0.30598 0.56453
 C973 C 0.69152 0.80847 1.08994
 N974 N 0.69935 0.82551 1.09806
 N975 N 0.69054 0.83430 1.11375
 C976 C 0.67357 0.82638 1.12191
 N977 N 0.66568 0.80940 1.11374
 N978 N 0.67449 0.80061 1.09804
 C979 C 0.70160 0.79843 1.07305
 N980 N 0.69405 0.78111 1.06526
 N981 N 0.70351 0.77169 1.05032
 C982 C 0.72087 0.77923 1.04264
 N983 N 0.72837 0.79659 1.05037
 N984 N 0.71891 0.80602 1.06530
 C985 C 0.19138 0.30812 1.08977
 N986 N 0.17437 0.30024 1.09788
 N987 N 0.16555 0.30904 1.11356
 C988 C 0.17340 0.32605 1.12171
 N989 N 0.19036 0.33399 1.11354
 N990 N 0.19919 0.32518 1.09785
 C991 C 0.20147 0.29806 1.07289
 N992 N 0.21878 0.30565 1.06513
 N993 N 0.22825 0.29620 1.05021
 C994 C 0.22076 0.27882 1.04251
 N995 N 0.20340 0.27128 1.05021
 N996 N 0.19393 0.28073 1.06513
 C997 C 0.19124 0.80864 0.58974
 N998 N 0.19911 0.82565 0.59788
 N999 N 0.19034 0.83440 0.61363
 C1000 C 0.17339 0.82647 0.62181
 N1001 N 0.16546 0.80952 0.61361
 N1002 N 0.17423 0.80076 0.59786
 C1003 C 0.20127 0.79863 0.57280
 N1004 N 0.19371 0.78133 0.56500
 N1005 N 0.20314 0.77193 0.55002
 C1006 C 0.22048 0.77949 0.54231
 N1007 N 0.22799 0.79685 0.55005
 N1008 N 0.21856 0.80625 0.56502
 C1009 C 0.30842 0.69172 0.58937
 N1010 N 0.30060 0.67466 0.59744
 N1011 N 0.30944 0.66582 0.61310
 C1012 C 0.32642 0.67372 0.62127
 N1013 N 0.33429 0.69073 0.61314
 N1014 N 0.32546 0.69957 0.59748
 C1015 C 0.29833 0.70181 0.57252
 N1016 N 0.30587 0.71915 0.56478
 N1017 N 0.29640 0.72862 0.54988
 C1018 C 0.27904 0.72109 0.54217
 N1019 N 0.27155 0.70370 0.54984
 N1020 N 0.28102 0.69423 0.56474
 C1021 C 0.30853 0.19123 1.09002
 N1022 N 0.32555 0.19911 1.09813
 N1023 N 0.33432 0.19036 1.11387
 C1024 C 0.32640 0.17341 1.12207
 N1025 N 0.30944 0.16548 1.11390
 N1026 N 0.30066 0.17423 1.09816
 C1027 C 0.29849 0.20124 1.07308
 N1028 N 0.28119 0.19365 1.06531
 N1029 N 0.27176 0.20305 1.05034
 C1030 C 0.27928 0.22040 1.04260
 N1031 N 0.29663 0.22794 1.05031
 N1032 N 0.30607 0.21854 1.06528
 C1033 C 0.80860 0.69145 1.08996
 N1034 N 0.82561 0.69931 1.09810
 N1035 N 0.83440 0.69051 1.11381
 C1036 C 0.82649 0.67352 1.12196
 N1037 N 0.80953 0.66561 1.11376
 N1038 N 0.80075 0.67441 1.09805
 C1039 C 0.79856 0.70152 1.07306
 N1040 N 0.78127 0.69395 1.06526
 N1041 N 0.77184 0.70340 1.05031
 C1042 C 0.77937 0.72077 1.04263
 N1043 N 0.79672 0.72829 1.05037
 N1044 N 0.80614 0.71883 1.06532
 C1045 C 0.80819 0.19121 0.58936
 N1046 N 0.80027 0.17422 0.59749
 N1047 N 0.80904 0.16541 0.61321
 C1048 C 0.82605 0.17326 0.62136
 N1049 N 0.83402 0.19019 0.61316
 N1050 N 0.82526 0.19900 0.59745
 C1051 C 0.79818 0.20128 0.57245
 N1052 N 0.80581 0.21856 0.56467
 N1053 N 0.79641 0.22803 0.54972
 C1054 C 0.77904 0.22055 0.54200
 N1055 N 0.77145 0.20322 0.54971
 N1056 N 0.78085 0.19376 0.56466
 C1057 C 0.69160 0.69144 0.41069
 N1058 N 0.69944 0.67440 0.40258
 N1059 N 0.69063 0.66560 0.38689
 C1060 C 0.67365 0.67350 0.37873
 N1061 N 0.66576 0.69048 0.38690
 N1062 N 0.67458 0.69929 0.40259
 C1063 C 0.70168 0.70151 0.42758
 N1064 N 0.69412 0.71883 0.43533
 N1065 N 0.70357 0.72829 0.45026
 C1066 C 0.72092 0.72077 0.45797
 N1067 N 0.72844 0.70340 0.45028
 N1068 N 0.71898 0.69394 0.43535
 C1069 C 0.69134 0.19165 -0.09006
 N1070 N 0.69920 0.17464 -0.09818
 N1071 N 0.69041 0.16584 -0.11389
 C1072 C 0.67344 0.17374 -0.12206
 N1073 N 0.66553 0.19071 -0.11389
 N1074 N 0.67432 0.19950 -0.09817
 C1075 C 0.70139 0.20170 -0.07314
 N1076 N 0.69382 0.21900 -0.06534
 N1077 N 0.70326 0.22842 -0.05038
 C1078 C 0.72062 0.22088 -0.04268
 N1079 N 0.72814 0.20354 -0.05042
 N1080 N 0.71870 0.19412 -0.06537
 C1081 C 0.19192 0.69127 -0.08969
 N1082 N 0.17487 0.69907 -0.09780
 N1083 N 0.16609 0.69023 -0.11349
 C1084 C 0.17404 0.67328 -0.12166
 N1085 N 0.19103 0.66543 -0.11350
 N1086 N 0.19981 0.67426 -0.09780
 C1087 C 0.20194 0.70138 -0.07280
 N1088 N 0.21926 0.69387 -0.06499
 N1089 N 0.22866 0.70336 -0.05006
 C1090 C 0.22109 0.72071 -0.04238
 N1091 N 0.20372 0.72817 -0.05012
 N1092 N 0.19432 0.71868 -0.06505
 C1093 C 0.19130 0.19137 0.41020
 N1094 N 0.17430 0.19925 0.40208
 N1095 N 0.16552 0.19049 0.38633
 C1096 C 0.17343 0.17353 0.37814
 N1097 N 0.19038 0.16560 0.38632
 N1098 N 0.19916 0.17436 0.40206
 C1099 C 0.20134 0.20138 0.42714
 N1100 N 0.21864 0.19378 0.43492
 N1101 N 0.22806 0.20318 0.44990
 C1102 C 0.22054 0.22051 0.45765
 N1103 N 0.20319 0.22806 0.44994
 N1104 N 0.19377 0.21866 0.43496
 C1105 C 0.30831 0.41026 0.69181
 N1106 N 0.30046 0.40214 0.67480
 N1107 N 0.30926 0.38643 0.66599
 C1108 C 0.32625 0.37826 0.67387
 N1109 N 0.33416 0.38644 0.69083
 N1110 N 0.32535 0.40215 0.69963
 C1111 C 0.29826 0.42718 0.70186
 N1112 N 0.30586 0.43498 0.71913
 N1113 N 0.29643 0.44995 0.72856
 C1114 C 0.27907 0.45766 0.72105
 N1115 N 0.27152 0.44992 0.70374
 N1116 N 0.28094 0.43495 0.69431
 C1117 C 0.30848 0.91112 0.19147
 N1118 N 0.30066 0.90303 0.17443
 N1119 N 0.30952 0.88737 0.16559
 C1120 C 0.32652 0.87924 0.17345
 N1121 N 0.33440 0.88739 0.19043
 N1122 N 0.32554 0.90305 0.19928
 C1123 C 0.29837 0.92798 0.20157
 N1124 N 0.30591 0.93573 0.21889
 N1125 N 0.29643 0.95064 0.22835
 C1126 C 0.27907 0.95835 0.22084
 N1127 N 0.27158 0.95066 0.20348
 N1128 N 0.28106 0.93575 0.19401
 C1129 C 0.80913 0.41058 0.19110
 N1130 N 0.80128 0.40247 0.17408
 N1131 N 0.81008 0.38675 0.16528
 C1132 C 0.82704 0.37856 0.17318
 N1133 N 0.83494 0.38673 0.19014
 N1134 N 0.82614 0.40245 0.19894
 C1135 C 0.79906 0.42748 0.20115
 N1136 N 0.80661 0.43525 0.21846
 N1137 N 0.79716 0.45019 0.22790
 C1138 C 0.77981 0.45791 0.22038
 N1139 N 0.77231 0.45021 0.20302
 N1140 N 0.78176 0.43527 0.19358
 C1141 C 0.80853 0.91105 0.69169
 N1142 N 0.80071 0.90292 0.67467
 N1143 N 0.80957 0.88726 0.66585
 C1144 C 0.82658 0.87914 0.67373
 N1145 N 0.83445 0.88732 0.69070
 N1146 N 0.82559 0.90299 0.69952
 C1147 C 0.79841 0.92792 0.70176
 N1148 N 0.80596 0.93573 0.71904
 N1149 N 0.79648 0.95066 0.72847
 C1150 C 0.77910 0.95832 0.72096
 N1151 N 0.77159 0.95057 0.70363
 N1152 N 0.78107 0.93564 0.69420
 C1153 C 0.69159 0.58966 0.69188
 N1154 N 0.67457 0.59777 0.69974
 N1155 N 0.66573 0.61346 0.69094
 C1156 C 0.67359 0.62163 0.67396
 N1157 N 0.69056 0.61346 0.66605
 N1158 N 0.69940 0.59777 0.67485
 C1159 C 0.70169 0.57277 0.70192
 N1160 N 0.71899 0.56500 0.69434
 N1161 N 0.72846 0.55005 0.70375
 C1162 C 0.72096 0.54232 0.72109
 N1163 N 0.70361 0.55002 0.72863
 N1164 N 0.69414 0.56497 0.71921
 C1165 C 0.69114 0.08900 0.19095
 N1166 N 0.69898 0.09709 0.17392
 N1167 N 0.69014 0.11275 0.16508
 C1168 C 0.67313 0.12090 0.17293
 N1169 N 0.66524 0.11275 0.18991
 N1170 N 0.67409 0.09708 0.19875
 C1171 C 0.70125 0.07215 0.20105
 N1172 N 0.69369 0.06440 0.21837
 N1173 N 0.70317 0.04950 0.22785
 C1174 C 0.72054 0.04180 0.22036
 N1175 N 0.72805 0.04948 0.20300
 N1176 N 0.71857 0.06438 0.19352
 C1177 C 0.19117 0.58955 0.19132
 N1178 N 0.19902 0.59764 0.17430
 N1179 N 0.19019 0.61331 0.16546
 C1180 C 0.17318 0.62146 0.17331
 N1181 N 0.16528 0.61330 0.19028
 N1182 N 0.17411 0.59763 0.19912
 C1183 C 0.20127 0.57269 0.20143
 N1184 N 0.19371 0.56494 0.21873
 N1185 N 0.20318 0.55004 0.22821
 C1186 C 0.22056 0.54234 0.22074
 N1187 N 0.22807 0.55002 0.20338
 N1188 N 0.21860 0.56493 0.19390
 C1189 C 0.19135 0.08872 0.69159
 N1190 N 0.17432 0.09683 0.69942
 N1191 N 0.16548 0.11250 0.69059
 C1192 C 0.17335 0.12064 0.67360
 N1193 N 0.19033 0.11247 0.66571
 N1194 N 0.19917 0.09679 0.67455
 C1195 C 0.20145 0.07185 0.70168
 N1196 N 0.21875 0.06407 0.69412
 N1197 N 0.22822 0.04915 0.70357
 C1198 C 0.22073 0.04146 0.72093
 N1199 N 0.20337 0.04917 0.72844
 N1200 N 0.19390 0.06410 0.71899
 C1201 C 0.30847 0.58990 0.30838
 N1202 N 0.30065 0.59801 0.32540
 N1203 N 0.30949 0.61371 0.33420
 C1204 C 0.32647 0.62187 0.32630
 N1205 N 0.33434 0.61370 0.30932
 N1206 N 0.32550 0.59800 0.30053
 C1207 C 0.29838 0.57299 0.29833
 N1208 N 0.30593 0.56519 0.28104
 N1209 N 0.29646 0.55024 0.27163
 C1210 C 0.27910 0.54253 0.27916
 N1211 N 0.27160 0.55028 0.29650
 N1212 N 0.28107 0.56523 0.30591
 C1213 C 0.30863 0.08871 0.80876
 N1214 N 0.30079 0.09679 0.82579
 N1215 N 0.30963 0.11247 0.83463
 C1216 C 0.32663 0.12063 0.82677
 N1217 N 0.33452 0.11248 0.80979
 N1218 N 0.32568 0.09681 0.80095
 C1219 C 0.29854 0.07184 0.79866
 N1220 N 0.30609 0.06409 0.78135
 N1221 N 0.29663 0.04916 0.77187
 C1222 C 0.27927 0.04144 0.77937
 N1223 N 0.27176 0.04913 0.79673
 N1224 N 0.28122 0.06405 0.80620
 C1225 C 0.80890 0.58951 0.80879
 N1226 N 0.80108 0.59761 0.82582
 N1227 N 0.80991 0.61330 0.83463
 C1228 C 0.82689 0.62148 0.82673
 N1229 N 0.83476 0.61332 0.80976
 N1230 N 0.82592 0.59762 0.80095
 C1231 C 0.79880 0.57262 0.79873
 N1232 N 0.80635 0.56485 0.78142
 N1233 N 0.79688 0.54992 0.77197
 C1234 C 0.77952 0.54221 0.77948
 N1235 N 0.77202 0.54991 0.79683
 N1236 N 0.78149 0.56484 0.80628
 C1237 C 0.80855 0.08921 0.30811
 N1238 N 0.80073 0.09731 0.32514
 N1239 N 0.80959 0.11297 0.33398
 C1240 C 0.82660 0.12111 0.32612
 N1241 N 0.83447 0.11296 0.30914
 N1242 N 0.82561 0.09729 0.30029
 C1243 C 0.79844 0.07235 0.29802
 N1244 N 0.80597 0.06457 0.28072
 N1245 N 0.79649 0.04965 0.27127
 C1246 C 0.77913 0.04195 0.27879
 N1247 N 0.77163 0.04967 0.29614
 N1248 N 0.78111 0.06459 0.30558
 C1249 C 0.69179 0.41040 0.30788
 N1250 N 0.67476 0.40230 0.30001
 N1251 N 0.66590 0.38662 0.30881
 C1252 C 0.67374 0.37846 0.32580
 N1253 N 0.69072 0.38661 0.33371
 N1254 N 0.69958 0.40230 0.32491
 C1255 C 0.70190 0.42729 0.29784
 N1256 N 0.71920 0.43506 0.30544
 N1257 N 0.72868 0.45001 0.29604
 C1258 C 0.72120 0.45774 0.27869
 N1259 N 0.70386 0.45004 0.27114
 N1260 N 0.69438 0.43509 0.28054
 C1261 C 0.69141 0.91112 0.80896
 N1262 N 0.69931 0.90303 0.82596
 N1263 N 0.69050 0.88734 0.83481
 C1264 C 0.67348 0.87918 0.82699
 N1265 N 0.66554 0.88733 0.81004
 N1266 N 0.67435 0.90301 0.80119
 C1267 C 0.70146 0.92800 0.79883
 N1268 N 0.69385 0.93573 0.78154
 N1269 N 0.70327 0.95065 0.77204
 C1270 C 0.72065 0.95839 0.77949
 N1271 N 0.72822 0.95073 0.79683
 N1272 N 0.71880 0.93580 0.80633
 C1273 C 0.19137 0.41056 0.80893
 N1274 N 0.17432 0.40246 0.80112
 N1275 N 0.16550 0.38675 0.80993
 C1276 C 0.17342 0.37858 0.82687
 N1277 N 0.19042 0.38674 0.83474
 N1278 N 0.19923 0.40244 0.82593
 C1279 C 0.20143 0.42745 0.79885
 N1280 N 0.21877 0.43522 0.80637
 N1281 N 0.22822 0.45015 0.79690
 C1282 C 0.22067 0.45786 0.77957
 N1283 N 0.20329 0.45015 0.77210
 N1284 N 0.19384 0.43522 0.78157
 C1285 C 0.19104 0.91096 0.30842
 N1286 N 0.17403 0.90284 0.30056
 N1287 N 0.16519 0.88714 0.30937
 C1288 C 0.17305 0.87900 0.32636
 N1289 N 0.19001 0.88719 0.33427
 N1290 N 0.19885 0.90288 0.32546
 C1291 C 0.20114 0.92786 0.29837
 N1292 N 0.21844 0.93564 0.30597
 N1293 N 0.22791 0.95058 0.29655
 C1294 C 0.22044 0.95829 0.27918
 N1295 N 0.20310 0.95057 0.27163
 N1296 N 0.19362 0.93562 0.28105
 C1297 C 0.41030 0.30807 0.69181
 N1298 N 0.40221 0.32511 0.69965
 N1299 N 0.38653 0.33395 0.69085
 C1300 C 0.37835 0.32607 0.67388
 N1301 N 0.38649 0.30907 0.66599
 N1302 N 0.40218 0.30024 0.67479
 C1303 C 0.42720 0.29798 0.70186
 N1304 N 0.43497 0.28067 0.69428
 N1305 N 0.44992 0.27121 0.70370
 C1306 C 0.45766 0.27873 0.72103
 N1307 N 0.44996 0.29609 0.72856
 N1308 N 0.43500 0.30554 0.71914
 C1309 C 0.41076 0.80926 0.19130
 N1310 N 0.40266 0.80142 0.17428
 N1311 N 0.38696 0.81024 0.16547
 C1312 C 0.37878 0.82721 0.17336
 N1313 N 0.38694 0.83510 0.19034
 N1314 N 0.40264 0.82629 0.19914
 C1315 C 0.42765 0.79918 0.20136
 N1316 N 0.43542 0.80673 0.21867
 N1317 N 0.45035 0.79727 0.22811
 C1318 C 0.45805 0.77990 0.22060
 N1319 N 0.45035 0.77240 0.20325
 N1320 N 0.43542 0.78186 0.19380
 C1321 C 0.91095 0.30826 0.19124
 N1322 N 0.90283 0.30040 0.17424
 N1323 N 0.88716 0.30925 0.16540
 C1324 C 0.87904 0.32628 0.17325
 N1325 N 0.88722 0.33418 0.19020
 N1326 N 0.90289 0.32533 0.19904
 C1327 C 0.92782 0.29817 0.20133
 N1328 N 0.93560 0.30575 0.21862
 N1329 N 0.95053 0.29629 0.22808
 C1330 C 0.95822 0.27891 0.22060
 N1331 N 0.95050 0.27137 0.20326
 N1332 N 0.93558 0.28083 0.19380
 C1333 C 0.91080 0.80910 0.69161
 N1334 N 0.90270 0.80129 0.67458
 N1335 N 0.88700 0.81012 0.66578
 C1336 C 0.87883 0.82708 0.67369
 N1337 N 0.88698 0.83495 0.69067
 N1338 N 0.90268 0.82612 0.69947
 C1339 C 0.92769 0.79901 0.70166
 N1340 N 0.93547 0.80653 0.71897
 N1341 N 0.95041 0.79705 0.72839
 C1342 C 0.95811 0.77970 0.72084
 N1343 N 0.95039 0.77222 0.70348
 N1344 N 0.93545 0.78170 0.69406
 C1345 C 0.58957 0.30830 0.30789
 N1346 N 0.59768 0.30051 0.32493
 N1347 N 0.61337 0.30935 0.33372
 C1348 C 0.62154 0.32632 0.32580
 N1349 N 0.61338 0.33417 0.30882
 N1350 N 0.59768 0.32532 0.30002
 C1351 C 0.57266 0.29821 0.29787
 N1352 N 0.56485 0.30574 0.28058
 N1353 N 0.54988 0.29627 0.27118
 C1354 C 0.54217 0.27892 0.27875
 N1355 N 0.54992 0.27144 0.29608
 N1356 N 0.56489 0.28091 0.30547
 C1357 C 0.58936 0.80909 0.80908
 N1358 N 0.59747 0.80123 0.82609
 N1359 N 0.61317 0.81005 0.83491
 C1360 C 0.62132 0.82705 0.82705
 N1361 N 0.61315 0.83497 0.81010
 N1362 N 0.59745 0.82615 0.80128
 C1363 C 0.57248 0.79901 0.79899
 N1364 N 0.56472 0.80659 0.78170
 N1365 N 0.54980 0.79714 0.77222
 C1366 C 0.54209 0.77976 0.77969
 N1367 N 0.54978 0.77222 0.79704
 N1368 N 0.56470 0.78168 0.80651
 C1369 C 0.08944 0.30837 0.80869
 N1370 N 0.09751 0.30052 0.82572
 N1371 N 0.11318 0.30936 0.83458
 C1372 C 0.12134 0.32637 0.82674
 N1373 N 0.11320 0.33427 0.80977
 N1374 N 0.09754 0.32543 0.80091
 C1375 C 0.07258 0.29828 0.79857
 N1376 N 0.06485 0.30584 0.78126
 N1377 N 0.04993 0.29639 0.77177
 C1378 C 0.04220 0.27902 0.77926
 N1379 N 0.04987 0.27151 0.79662
 N1380 N 0.06478 0.28096 0.80611
 C1381 C 0.08905 0.80871 0.30836
 N1382 N 0.09713 0.82576 0.30053
 N1383 N 0.11279 0.83463 0.30935
 C1384 C 0.12096 0.82677 0.32633
 N1385 N 0.11282 0.80977 0.33421
 N1386 N 0.09715 0.80090 0.32539
 C1387 C 0.07217 0.79859 0.29830
 N1388 N 0.06444 0.78126 0.30586
 N1389 N 0.04951 0.77176 0.29643
 C1390 C 0.04177 0.77926 0.27909
 N1391 N 0.04945 0.79663 0.27157
 N1392 N 0.06438 0.80612 0.28100
 C1393 C 0.58957 0.69186 0.69197
 N1394 N 0.59767 0.69967 0.67494
 N1395 N 0.61334 0.69082 0.66612
 C1396 C 0.62149 0.67383 0.67401
 N1397 N 0.61333 0.66596 0.69099
 N1398 N 0.59766 0.67481 0.69981
 C1399 C 0.57269 0.70196 0.70203
 N1400 N 0.56490 0.69441 0.71932
 N1401 N 0.54996 0.70388 0.72875
 C1402 C 0.54226 0.72124 0.72123
 N1403 N 0.55000 0.72875 0.70390
 N1404 N 0.56494 0.71928 0.69447
 C1405 C 0.58903 0.19097 0.19092
 N1406 N 0.59712 0.19881 0.17390
 N1407 N 0.61279 0.18999 0.16506
 C1408 C 0.62096 0.17299 0.17292
 N1409 N 0.61281 0.16509 0.18989
 N1410 N 0.59714 0.17392 0.19873
 C1411 C 0.57218 0.20105 0.20103
 N1412 N 0.56445 0.19350 0.21835
 N1413 N 0.54955 0.20297 0.22784
 C1414 C 0.54184 0.22034 0.22036
 N1415 N 0.54950 0.22785 0.20300
 N1416 N 0.56440 0.21838 0.19350
 C1417 C 0.08905 0.69149 0.19124
 N1418 N 0.09715 0.69936 0.17423
 N1419 N 0.11284 0.69055 0.16540
 C1420 C 0.12101 0.67356 0.17326
 N1421 N 0.11285 0.66564 0.19021
 N1422 N 0.09715 0.67444 0.19904
 C1423 C 0.07216 0.70154 0.20133
 N1424 N 0.06441 0.69395 0.21862
 N1425 N 0.04947 0.70338 0.22810
 C1426 C 0.04174 0.72075 0.22062
 N1427 N 0.04942 0.72829 0.20328
 N1428 N 0.06436 0.71886 0.19381
 C1429 C 0.08934 0.19088 0.69157
 N1430 N 0.09742 0.17384 0.69942
 N1431 N 0.11308 0.16497 0.69059
 C1432 C 0.12122 0.17280 0.67359
 N1433 N 0.11308 0.18979 0.66569
 N1434 N 0.09742 0.19866 0.67452
 C1435 C 0.07249 0.20102 0.70164
 N1436 N 0.06476 0.21834 0.69405
 N1437 N 0.04985 0.22786 0.70349
 C1438 C 0.04214 0.22040 0.72086
 N1439 N 0.04981 0.20303 0.72840
 N1440 N 0.06472 0.19352 0.71896
 C1441 C 0.41054 0.69206 0.30830
 N1442 N 0.40244 0.67501 0.30047
 N1443 N 0.38675 0.66618 0.30929
 C1444 C 0.37859 0.67407 0.32626
 N1445 N 0.38675 0.69107 0.33414
 N1446 N 0.40244 0.69990 0.32532
 C1447 C 0.42743 0.70214 0.29823
 N1448 N 0.43522 0.71946 0.30579
 N1449 N 0.45017 0.72890 0.29635
 C1450 C 0.45788 0.72138 0.27901
 N1451 N 0.45016 0.70402 0.27150
 N1452 N 0.43521 0.69457 0.28094
 C1453 C 0.41072 0.19077 0.80882
 N1454 N 0.40263 0.19860 0.82585
 N1455 N 0.38696 0.18976 0.83468
 C1456 C 0.37880 0.17276 0.82681
 N1457 N 0.38694 0.16488 0.80983
 N1458 N 0.40262 0.17372 0.80100
 C1459 C 0.42758 0.20087 0.79873
 N1460 N 0.43533 0.19332 0.78142
 N1461 N 0.45023 0.20280 0.77194
 C1462 C 0.45793 0.22018 0.77944
 N1463 N 0.45025 0.22769 0.79680
 N1464 N 0.43534 0.21820 0.80627
 C1465 C 0.91085 0.69173 0.80860
 N1466 N 0.90278 0.69956 0.82564
 N1467 N 0.88712 0.69071 0.83449
 C1468 C 0.87896 0.67371 0.82663
 N1469 N 0.88709 0.66583 0.80964
 N1470 N 0.90274 0.67467 0.80079
 C1471 C 0.92771 0.70182 0.79849
 N1472 N 0.93544 0.69427 0.78117
 N1473 N 0.95035 0.70374 0.77170
 C1474 C 0.95809 0.72109 0.77920
 N1475 N 0.95042 0.72860 0.79657
 N1476 N 0.93550 0.71914 0.80604
 C1477 C 0.91085 0.19111 0.30832
 N1478 N 0.90273 0.17408 0.30047
 N1479 N 0.88702 0.16527 0.30927
 C1480 C 0.87886 0.17316 0.32624
 N1481 N 0.88703 0.19014 0.33413
 N1482 N 0.90274 0.19896 0.32533
 C1483 C 0.92776 0.20118 0.29827
 N1484 N 0.93554 0.21850 0.30583
 N1485 N 0.95049 0.22795 0.29639
 C1486 C 0.95821 0.22043 0.27906
 N1487 N 0.95049 0.20306 0.27154
 N1488 N 0.93554 0.19361 0.28098
 C1489 C 0.30823 0.30811 0.58987
 N1490 N 0.30039 0.32515 0.59797
 N1491 N 0.30922 0.33398 0.61364
 C1492 C 0.32620 0.32609 0.62180
 N1493 N 0.33409 0.30910 0.61364
 N1494 N 0.32527 0.30028 0.59796
 C1495 C 0.29816 0.29804 0.57298
 N1496 N 0.30573 0.28074 0.56520
 N1497 N 0.29629 0.27129 0.55025
 C1498 C 0.27893 0.27881 0.54255
 N1499 N 0.27140 0.29616 0.55027
 N1500 N 0.28085 0.30560 0.56522
 C1501 C 0.30862 0.80903 0.08946
 N1502 N 0.30075 0.82605 0.09754
 N1503 N 0.30957 0.83493 0.11320
 C1504 C 0.32659 0.82709 0.12134
 N1505 N 0.33451 0.81012 0.11319
 N1506 N 0.32569 0.80125 0.09754
 C1507 C 0.29856 0.79889 0.07261
 N1508 N 0.30616 0.78157 0.06488
 N1509 N 0.29672 0.77206 0.04997
 C1510 C 0.27934 0.77952 0.04226
 N1511 N 0.27179 0.79688 0.04992
 N1512 N 0.28122 0.80639 0.06483
 C1513 C 0.80874 0.30838 0.08932
 N1514 N 0.80097 0.32545 0.09742
 N1515 N 0.80986 0.33427 0.11306
 C1516 C 0.82684 0.32633 0.12119
 N1517 N 0.83466 0.30931 0.11304
 N1518 N 0.82577 0.30049 0.09739
 C1519 C 0.79859 0.29832 0.07247
 N1520 N 0.80609 0.28100 0.06468
 N1521 N 0.79658 0.27157 0.04976
 C1522 C 0.77922 0.27913 0.04211
 N1523 N 0.77176 0.29650 0.04984
 N1524 N 0.78127 0.30593 0.06476
 C1525 C 0.80872 0.80893 0.58974
 N1526 N 0.82577 0.80113 0.59784
 N1527 N 0.83459 0.81000 0.61350
 C1528 C 0.82667 0.82699 0.62163
 N1529 N 0.80967 0.83483 0.61347
 N1530 N 0.80086 0.82597 0.59781
 C1531 C 0.79865 0.79880 0.57289
 N1532 N 0.78133 0.80633 0.56510
 N1533 N 0.77188 0.79683 0.55020
 C1534 C 0.77941 0.77945 0.54254
 N1535 N 0.79678 0.77197 0.55026
 N1536 N 0.80622 0.78147 0.56516
 C1537 C 0.30844 0.69198 0.41027
 N1538 N 0.32547 0.69985 0.40218
 N1539 N 0.33431 0.69104 0.38651
 C1540 C 0.32646 0.67403 0.37836
 N1541 N 0.30948 0.66611 0.38651
 N1542 N 0.30064 0.67492 0.40218
 C1543 C 0.29834 0.70203 0.42714
 N1544 N 0.28104 0.69443 0.43490
 N1545 N 0.27156 0.70386 0.44982
 C1546 C 0.27904 0.72123 0.45754
 N1547 N 0.29639 0.72879 0.44985
 N1548 N 0.30587 0.71937 0.43492
 C1549 C 0.30866 0.19082 0.91075
 N1550 N 0.30081 0.17378 0.90267
 N1551 N 0.30964 0.16492 0.88701
 C1552 C 0.32664 0.17279 0.87887
 N1553 N 0.33454 0.18978 0.88701
 N1554 N 0.32571 0.19864 0.90266
 C1555 C 0.29857 0.20094 0.92759
 N1556 N 0.30614 0.21827 0.93534
 N1557 N 0.29668 0.22775 0.95024
 C1558 C 0.27931 0.22025 0.95794
 N1559 N 0.27178 0.20288 0.95025
 N1560 N 0.28125 0.19339 0.93536
 C1561 C 0.80889 0.69160 0.91072
 N1562 N 0.82592 0.69947 0.90262
 N1563 N 0.83475 0.69065 0.88695
 C1564 C 0.82689 0.67364 0.87880
 N1565 N 0.80992 0.66572 0.88696
 N1566 N 0.80108 0.67454 0.90263
 C1567 C 0.79879 0.70166 0.92758
 N1568 N 0.78148 0.69408 0.93533
 N1569 N 0.77201 0.70351 0.95025
 C1570 C 0.77950 0.72089 0.95797
 N1571 N 0.79686 0.72843 0.95028
 N1572 N 0.80633 0.71899 0.93536
 C1573 C 0.80863 0.19120 0.41014
 N1574 N 0.80078 0.17417 0.40202
 N1575 N 0.80963 0.16534 0.38637
 C1576 C 0.82664 0.17321 0.37825
 N1577 N 0.83454 0.19019 0.38643
 N1578 N 0.82570 0.19902 0.40209
 C1579 C 0.79853 0.20128 0.42700
 N1580 N 0.80609 0.21859 0.43478
 N1581 N 0.79662 0.22806 0.44969
 C1582 C 0.77923 0.22056 0.45735
 N1583 N 0.77171 0.20320 0.44962
 N1584 N 0.78118 0.19374 0.43472
 C1585 C 0.69154 0.30843 0.40990
 N1586 N 0.67451 0.30060 0.40180
 N1587 N 0.66571 0.30941 0.38611
 C1588 C 0.67363 0.32638 0.37794
 N1589 N 0.69061 0.33427 0.38610
 N1590 N 0.69941 0.32545 0.40180
 C1591 C 0.70159 0.29836 0.42680
 N1592 N 0.71891 0.30591 0.43458
 N1593 N 0.72833 0.29646 0.44952
 C1594 C 0.72078 0.27911 0.45723
 N1595 N 0.70342 0.27161 0.44951
 N1596 N 0.69399 0.28106 0.43457
 C1597 C 0.69161 0.80888 0.91086
 N1598 N 0.69945 0.82594 0.90279
 N1599 N 0.69060 0.83481 0.88716
 C1600 C 0.67358 0.82695 0.87902
 N1601 N 0.66569 0.80995 0.88715
 N1602 N 0.67454 0.80108 0.90278
 C1603 C 0.70171 0.79875 0.92768
 N1604 N 0.69414 0.78142 0.93541
 N1605 N 0.70360 0.77192 0.95030
 C1606 C 0.72097 0.77941 0.95801
 N1607 N 0.72850 0.79679 0.95034
 N1608 N 0.71904 0.80628 0.93545
 C1609 C 0.19147 0.30825 0.91070
 N1610 N 0.19929 0.32532 0.90265
 N1611 N 0.19045 0.33419 0.88701
 C1612 C 0.17346 0.32631 0.87884
 N1613 N 0.16559 0.30929 0.88695
 N1614 N 0.17442 0.30043 0.90259
 C1615 C 0.20156 0.29814 0.92754
 N1616 N 0.19400 0.28080 0.93527
 N1617 N 0.20346 0.27132 0.95017
 C1618 C 0.22082 0.27883 0.95789
 N1619 N 0.22833 0.29621 0.95022
 N1620 N 0.21887 0.30569 0.93532
 C1621 C 0.19104 0.80894 0.41039
 N1622 N 0.17402 0.80107 0.40228
 N1623 N 0.16518 0.80989 0.38661
 C1624 C 0.17305 0.82689 0.37846
 N1625 N 0.19003 0.83481 0.38663
 N1626 N 0.19886 0.82599 0.40230
 C1627 C 0.20114 0.79887 0.42726
 N1628 N 0.21844 0.80646 0.43503
 N1629 N 0.22791 0.79701 0.44994
 C1630 C 0.22042 0.77963 0.45763
 N1631 N 0.20307 0.77208 0.44992
 N1632 N 0.19360 0.78153 0.43501
 C1633 C 0.69154 0.69167 0.58992
 N1634 N 0.69936 0.67463 0.59802
 N1635 N 0.69053 0.66582 0.61370
 C1636 C 0.67356 0.67374 0.62186
 N1637 N 0.66569 0.69073 0.61370
 N1638 N 0.67451 0.69954 0.59802
 C1639 C 0.70162 0.70173 0.57304
 N1640 N 0.69408 0.71904 0.56526
 N1641 N 0.70354 0.72847 0.55032
 C1642 C 0.72089 0.72093 0.54263
 N1643 N 0.72839 0.70357 0.55035
 N1644 N 0.71892 0.69414 0.56528
 C1645 C 0.69119 0.19115 0.08906
 N1646 N 0.67413 0.19896 0.09714
 N1647 N 0.66528 0.19009 0.11277
 C1648 C 0.67315 0.17308 0.12089
 N1649 N 0.69016 0.16523 0.11276
 N1650 N 0.69902 0.17410 0.09713
 C1651 C 0.70130 0.20129 0.07225
 N1652 N 0.71863 0.19375 0.06449
 N1653 N 0.72811 0.20326 0.04961
 C1654 C 0.72060 0.22065 0.04195
 N1655 N 0.70323 0.22813 0.04965
 N1656 N 0.69375 0.21863 0.06453
 C1657 C 0.19134 0.69161 0.08941
 N1658 N 0.17428 0.69945 0.09746
 N1659 N 0.16540 0.69061 0.11309
 C1660 C 0.17326 0.67362 0.12126
 N1661 N 0.19027 0.66573 0.11316
 N1662 N 0.19915 0.67456 0.09752
 C1663 C 0.20148 0.70169 0.07258
 N1664 N 0.21883 0.69412 0.06488
 N1665 N 0.22833 0.70357 0.04999
 C1666 C 0.22084 0.72093 0.04225
 N1667 N 0.20345 0.72845 0.04989
 N1668 N 0.19395 0.71900 0.06478
 C1669 C 0.19121 0.19075 0.58953
 N1670 N 0.17417 0.19856 0.59764
 N1671 N 0.16536 0.18971 0.61331
 C1672 C 0.17328 0.17273 0.62145
 N1673 N 0.19027 0.16487 0.61328
 N1674 N 0.19907 0.17371 0.59761
 C1675 C 0.20127 0.20086 0.57267
 N1676 N 0.21859 0.19334 0.56489
 N1677 N 0.22804 0.20284 0.54999
 C1678 C 0.22050 0.22021 0.54233
 N1679 N 0.20313 0.22769 0.55004
 N1680 N 0.19369 0.21819 0.56494
   
