data_POSCAR
  _audit_creation_date              2014-09-24
  _audit_creation_method            'ToBaCCo'
  _symmetry_space_group_name_H-M    'P1'
  _symmetry_Int_Tables_number       1
  _symmetry_cell_setting            triclinic
  loop_
  _symmetry_equiv_pos_as_xyz
 x,y,z
_cell_length_a 44.8477
_cell_length_b 48.2076
_cell_length_c 47.4758
_cell_angle_alpha 89.511500
_cell_angle_beta 90.349200
_cell_angle_gamma 90.899400
loop_
  _atom_site_label
  _atom_site_type_symbol
  _atom_site_fract_x
  _atom_site_fract_y
  _atom_site_fract_z
C1 C 0.36848 0.32179 0.33177
 C2 C 0.35871 0.34769 0.32217
 C3 C 0.33788 0.36272 0.33758
 C4 C 0.32578 0.35090 0.36220
 C5 C 0.33465 0.32459 0.37148
 C6 C 0.35675 0.31053 0.35682
 H7 H 0.36708 0.35601 0.30241
 H8 H 0.30872 0.36172 0.37365
 H9 H 0.36380 0.29030 0.36416
 C10 C 0.35472 0.82777 -0.16685
 C11 C 0.34488 0.85366 -0.17687
 C12 C 0.32135 0.86767 -0.16379
 C13 C 0.30712 0.85471 -0.14064
 C14 C 0.31685 0.82912 -0.13025
 C15 C 0.34108 0.81626 -0.14275
 H16 H 0.35422 0.86205 -0.19622
 H17 H 0.28874 0.86462 -0.13021
 H18 H 0.34902 0.79696 -0.13379
 C19 C 0.85811 0.33015 -0.17041
 C20 C 0.84772 0.35562 -0.18060
 C21 C 0.82583 0.37039 -0.16601
 C22 C 0.81355 0.35822 -0.14148
 C23 C 0.82358 0.33257 -0.13135
 C24 C 0.84640 0.31900 -0.14541
 H25 H 0.85610 0.36340 -0.20058
 H26 H 0.79634 0.36869 -0.12990
 H27 H 0.85427 0.29926 -0.13747
 C28 C 0.86641 0.82697 0.33506
 C29 C 0.85211 0.81435 0.35805
 C30 C 0.82886 0.82781 0.37158
 C31 C 0.82064 0.85444 0.36271
 C32 C 0.83521 0.86785 0.33998
 C33 C 0.85795 0.85351 0.32611
 H34 H 0.85830 0.79366 0.36474
 H35 H 0.80293 0.86468 0.37382
 H36 H 0.86836 0.86235 0.30748
 C37 C 0.63529 0.67057 0.32201
 C38 C 0.64937 0.64817 0.30925
 C39 C 0.67384 0.63556 0.32235
 C40 C 0.68406 0.64528 0.34850
 C41 C 0.67017 0.66767 0.36141
 C42 C 0.64604 0.68047 0.34791
 H43 H 0.64149 0.64075 0.28900
 H44 H 0.70281 0.63541 0.35878
 H45 H 0.63554 0.69805 0.35764
 C46 C 0.63930 0.16215 -0.17039
 C47 C 0.65400 0.14089 -0.18455
 C48 C 0.68163 0.13103 -0.17489
 C49 C 0.69462 0.14308 -0.15074
 C50 C 0.68043 0.16467 -0.13671
 C51 C 0.65265 0.17378 -0.14633
 H52 H 0.64443 0.13271 -0.20385
 H53 H 0.71562 0.13550 -0.14256
 H54 H 0.64175 0.19042 -0.13538
 C55 C 0.13727 0.66422 -0.17299
 C56 C 0.15099 0.64218 -0.18662
 C57 C 0.17526 0.62840 -0.17405
 C58 C 0.18387 0.63580 -0.14648
 C59 C 0.16988 0.65752 -0.13248
 C60 C 0.14672 0.67176 -0.14593
 H61 H 0.14300 0.63613 -0.20730
 H62 H 0.20262 0.62578 -0.13636
 H63 H 0.13655 0.68920 -0.13563
 C64 C 0.13626 0.16644 0.32988
 C65 C 0.14961 0.14477 0.31524
 C66 C 0.17582 0.13266 0.32561
 C67 C 0.18818 0.14190 0.35112
 C68 C 0.17474 0.16328 0.36601
 C69 C 0.14899 0.17567 0.35521
 H70 H 0.13998 0.13774 0.29551
 H71 H 0.20839 0.13265 0.35927
 H72 H 0.13898 0.19261 0.36645
 C73 C 0.62628 0.33341 0.66869
 C74 C 0.63817 0.35784 0.68048
 C75 C 0.66192 0.37217 0.66738
 C76 C 0.67421 0.36144 0.64270
 C77 C 0.66274 0.33687 0.63094
 C78 C 0.63902 0.32280 0.64420
 H79 H 0.62895 0.36569 0.69984
 H80 H 0.69273 0.37220 0.63263
 H81 H 0.63055 0.30347 0.63553
 C82 C 0.63982 0.84103 1.16243
 C83 C 0.65442 0.82877 1.13963
 C84 C 0.68185 0.83910 1.12994
 C85 C 0.69611 0.86092 1.14420
 C86 C 0.68298 0.87271 1.16804
 C87 C 0.65436 0.86332 1.17621
 H88 H 0.64503 0.81040 1.12976
 H89 H 0.71754 0.86857 1.13676
 H90 H 0.64375 0.87295 1.19400
 C91 C 0.13637 0.33469 1.17076
 C92 C 0.15044 0.32292 1.14735
 C93 C 0.17749 0.33375 1.13718
 C94 C 0.19089 0.35663 1.15050
 C95 C 0.17774 0.36820 1.17433
 C96 C 0.15048 0.35739 1.18420
 H97 H 0.14018 0.30539 1.13665
 H98 H 0.21191 0.36498 1.14276
 H99 H 0.14112 0.36581 1.20325
 C100 C 0.13670 0.82921 0.66531
 C101 C 0.14536 0.85604 0.67403
 C102 C 0.16912 0.87061 0.66096
 C103 C 0.18383 0.85791 0.63843
 C104 C 0.17472 0.83170 0.62883
 C105 C 0.15096 0.81772 0.64192
 H106 H 0.13530 0.86456 0.69271
 H107 H 0.20229 0.86844 0.62802
 H108 H 0.14395 0.79755 0.63413
 C109 C 0.37131 0.66864 0.66771
 C110 C 0.35930 0.64342 0.67758
 C111 C 0.33732 0.62904 0.66202
 C112 C 0.32595 0.64131 0.63729
 C113 C 0.33687 0.66720 0.62800
 C114 C 0.35959 0.68075 0.64320
 H115 H 0.36753 0.63475 0.69722
 H116 H 0.30871 0.63074 0.62520
 H117 H 0.36815 0.70070 0.63595
 C118 C 0.37464 0.16101 1.15472
 C119 C 0.36098 0.17500 1.13224
 C120 C 0.33594 0.16342 1.11874
 C121 C 0.32399 0.13799 1.12830
 C122 C 0.33716 0.12360 1.15105
 C123 C 0.36233 0.13577 1.16429
 H124 H 0.36964 0.19505 1.12539
 H125 H 0.30480 0.12924 1.11739
 H126 H 0.37194 0.12615 1.18288
 C127 C 0.87440 0.65997 1.16914
 C128 C 0.86233 0.67346 1.14552
 C129 C 0.83874 0.66117 1.13041
 C130 C 0.82818 0.63471 1.13826
 C131 C 0.83992 0.62114 1.16198
 C132 C 0.86326 0.63376 1.17722
 H133 H 0.87015 0.69416 1.13988
 H134 H 0.80953 0.62544 1.12692
 H135 H 0.87173 0.62387 1.19618
 C136 C 0.86898 0.16738 0.66430
 C137 C 0.85624 0.14348 0.67702
 C138 C 0.82819 0.13302 0.66834
 C139 C 0.81342 0.14610 0.64573
 C140 C 0.82588 0.16964 0.63267
 C141 C 0.85345 0.18010 0.64188
 H142 H 0.86677 0.13445 0.69548
 H143 H 0.79214 0.13801 0.63824
 H144 H 0.86273 0.19835 0.63147
 C145 C 0.32634 0.36216 0.67107
 C146 C 0.34931 0.34815 0.68516
 C147 C 0.35944 0.32274 0.67505
 C148 C 0.34673 0.31160 0.65045
 C149 C 0.32315 0.32501 0.63679
 C150 C 0.31319 0.35041 0.64700
 H151 H 0.35893 0.35682 0.70421
 H152 H 0.35449 0.29199 0.64251
 H153 H 0.29500 0.36085 0.63641
 C154 C 0.32228 0.86816 0.16312
 C155 C 0.30787 0.85429 0.14097
 C156 C 0.31955 0.82966 0.13046
 C157 C 0.34601 0.81922 0.14195
 C158 C 0.36048 0.83305 0.16414
 C159 C 0.34846 0.85741 0.17480
 H160 H 0.28753 0.86257 0.13202
 H161 H 0.35512 0.80017 0.13390
 H162 H 0.35950 0.86806 0.19207
 C163 C 0.82524 0.36698 0.16979
 C164 C 0.81147 0.35325 0.14712
 C165 C 0.82366 0.32889 0.13645
 C166 C 0.84990 0.31842 0.14843
 C167 C 0.86382 0.33202 0.17111
 C168 C 0.85125 0.35615 0.18182
 H169 H 0.79110 0.36131 0.13802
 H170 H 0.85919 0.29944 0.14044
 H171 H 0.86173 0.36653 0.19955
 C172 C 0.82876 0.86631 0.66439
 C173 C 0.85219 0.85223 0.67776
 C174 C 0.86183 0.82670 0.66747
 C175 C 0.84799 0.81533 0.64351
 C176 C 0.82394 0.82873 0.63059
 C177 C 0.81470 0.85440 0.64082
 H178 H 0.86243 0.86081 0.69657
 H179 H 0.85518 0.79550 0.63562
 H180 H 0.79608 0.86474 0.63084
 C181 C 0.66563 0.63340 0.67461
 C182 C 0.64245 0.64666 0.68854
 C183 C 0.62918 0.67015 0.67654
 C184 C 0.63973 0.68070 0.65080
 C185 C 0.66214 0.66696 0.63607
 C186 C 0.67497 0.64325 0.64816
 H187 H 0.63505 0.63899 0.70890
 H188 H 0.63023 0.69947 0.64208
 H189 H 0.69269 0.63276 0.63730
 C190 C 0.67555 0.12422 0.17069
 C191 C 0.68734 0.13365 0.14493
 C192 C 0.67560 0.15704 0.13138
 C193 C 0.65258 0.17162 0.14417
 C194 C 0.64155 0.16324 0.17053
 C195 C 0.65278 0.13925 0.18347
 H196 H 0.70568 0.12279 0.13544
 H197 H 0.64380 0.18998 0.13394
 H198 H 0.64412 0.13252 0.20371
 C199 C 0.17667 0.62723 0.17995
 C200 C 0.18820 0.63815 0.15471
 C201 C 0.17486 0.66106 0.14162
 C202 C 0.14932 0.67249 0.15344
 C203 C 0.13739 0.66156 0.17853
 C204 C 0.15127 0.63896 0.19178
 H205 H 0.20807 0.62937 0.14572
 H206 H 0.13916 0.69035 0.14348
 H207 H 0.14276 0.63098 0.21162
 C208 C 0.16419 0.12879 0.67167
 C209 C 0.14348 0.14478 0.68617
 C210 C 0.13353 0.16995 0.67475
 C211 C 0.14406 0.17879 0.64836
 C212 C 0.16485 0.16308 0.63365
 C213 C 0.17509 0.13823 0.64559
 H214 H 0.13538 0.13778 0.70653
 H215 H 0.13636 0.19818 0.63941
 H216 H 0.19172 0.12634 0.63470
 C217 C 0.33795 0.63225 0.33474
 C218 C 0.36039 0.64533 0.31876
 C219 C 0.37236 0.67096 0.32709
 C220 C 0.36097 0.68409 0.35087
 C221 C 0.33910 0.67090 0.36757
 C222 C 0.32746 0.64502 0.35911
 H223 H 0.36879 0.63537 0.30008
 H224 H 0.36963 0.70439 0.35664
 H225 H 0.31040 0.63465 0.37160
 C226 C 0.31980 0.12818 0.83710
 C227 C 0.34630 0.13899 0.82546
 C228 C 0.35887 0.16380 0.83557
 C229 C 0.34452 0.17809 0.85700
 C230 C 0.31743 0.16814 0.86801
 C231 C 0.30531 0.14296 0.85825
 H232 H 0.35698 0.12823 0.80839
 H233 H 0.35420 0.19733 0.86478
 H234 H 0.28448 0.13505 0.86684
 C235 C 0.82884 0.62897 0.83519
 C236 C 0.85358 0.64156 0.82209
 C237 C 0.86734 0.66513 0.83385
 C238 C 0.85563 0.67651 0.85844
 C239 C 0.83089 0.66405 0.87172
 C240 C 0.81737 0.64042 0.85982
 H241 H 0.86216 0.63294 0.80280
 H242 H 0.86587 0.69498 0.86737
 H243 H 0.79818 0.63077 0.86991
 C244 C 0.83166 0.13276 0.34272
 C245 C 0.85661 0.14540 0.33005
 C246 C 0.86783 0.17084 0.33990
 C247 C 0.85349 0.18405 0.36216
 C248 C 0.82809 0.17188 0.37452
 C249 C 0.81745 0.14609 0.36495
 H250 H 0.86721 0.13550 0.31239
 H251 H 0.86162 0.20408 0.36934
 H252 H 0.79784 0.13664 0.37449
 C253 C 0.66177 0.37647 0.33812
 C254 C 0.67524 0.36402 0.36170
 C255 C 0.66483 0.33831 0.37189
 C256 C 0.64007 0.32546 0.35914
 C257 C 0.62598 0.33790 0.33592
 C258 C 0.63723 0.36318 0.32522
 H259 H 0.69458 0.37380 0.37146
 H260 H 0.63239 0.30531 0.36669
 H261 H 0.62733 0.37218 0.30644
 C262 C 0.67245 0.87417 0.84110
 C263 C 0.64646 0.86192 0.82980
 C264 C 0.63373 0.83807 0.84229
 C265 C 0.64771 0.82609 0.86585
 C266 C 0.67357 0.83827 0.87743
 C267 C 0.68598 0.86215 0.86485
 H268 H 0.63628 0.87083 0.81111
 H269 H 0.63863 0.80713 0.87504
 H270 H 0.70621 0.87136 0.87353
 C271 C 0.16466 0.37837 0.83665
 C272 C 0.13712 0.36910 0.82586
 C273 C 0.12202 0.34642 0.83828
 C274 C 0.13449 0.33348 0.86205
 C275 C 0.16204 0.34256 0.87300
 C276 C 0.17666 0.36551 0.86071
 H277 H 0.12826 0.37857 0.80686
 H278 H 0.12377 0.31512 0.87095
 H279 H 0.19829 0.37219 0.86868
 C280 C 0.17202 0.87627 0.33474
 C281 C 0.14547 0.86437 0.32434
 C282 C 0.13297 0.84063 0.33726
 C283 C 0.14731 0.82892 0.36075
 C284 C 0.17373 0.84080 0.37143
 C285 C 0.18559 0.86491 0.35887
 H286 H 0.13528 0.87281 0.30543
 H287 H 0.13875 0.80971 0.36986
 H288 H 0.20649 0.87363 0.36656
 O289 O 0.28665 0.97477 0.23520
 O290 O 0.25264 1.03046 0.27648
 O291 O 0.25282 0.97590 0.27926
 O292 O 0.29060 1.02843 0.23555
 O293 O 0.25367 1.02660 0.20474
 O294 O 0.21357 0.97656 0.25092
 O295 O 0.21537 1.03142 0.24584
 O296 O 0.24694 0.97324 0.20735
 Cu297 Cu 0.27436 1.00244 0.25971
 Cu298 Cu 0.22831 1.00226 0.22452
 C299 C 0.27229 0.96431 0.21456
 C300 C 0.22860 1.04101 0.26741
 C301 C 0.22730 0.96662 0.27216
 C302 C 0.27933 1.03570 0.21216
 O303 O 0.25397 0.52750 0.78012
 O304 O 0.29092 0.47156 0.74142
 O305 O 0.29364 0.52571 0.74086
 O306 O 0.25340 0.47299 0.78280
 O307 O 0.21587 0.47373 0.75242
 O308 O 0.25815 0.52410 0.70859
 O309 O 0.25317 0.47000 0.71132
 O310 O 0.21828 0.52793 0.74785
 Cu311 Cu 0.27657 0.49945 0.76450
 Cu312 Cu 0.23266 0.49897 0.72696
 C313 C 0.23033 0.53787 0.76988
 C314 C 0.27801 0.46097 0.72004
 C315 C 0.28309 0.53370 0.71737
 C316 C 0.22804 0.46416 0.77462
 O317 O 0.76194 -0.02667 0.22172
 O318 O 0.79562 0.02830 0.26548
 O319 O 0.79877 -0.02576 0.26345
 O320 O 0.75870 0.02729 0.22251
 O321 O 0.72084 0.02411 0.25203
 O322 O 0.76154 -0.02800 0.29345
 O323 O 0.75720 0.02590 0.29439
 O324 O 0.72427 -0.03001 0.25140
 Cu325 Cu 0.78257 0.00130 0.24032
 Cu326 Cu 0.73714 -0.00235 0.27575
 C327 C 0.73774 -0.03823 0.22962
 C328 C 0.78209 0.03653 0.28725
 C329 C 0.78700 -0.03603 0.28549
 C330 C 0.73300 0.03465 0.23031
 O331 O 0.74322 0.47481 0.71533
 O332 O 0.78394 0.52636 0.75849
 O333 O 0.78340 0.47257 0.75473
 O334 O 0.74579 0.52935 0.71757
 O335 O 0.70887 0.52748 0.74816
 O336 O 0.74851 0.47255 0.78715
 O337 O 0.74670 0.52643 0.78881
 O338 O 0.70754 0.47299 0.74717
 Cu339 Cu 0.76758 0.50082 0.73327
 Cu340 Cu 0.72413 0.49940 0.77086
 C341 C 0.71851 0.46495 0.72412
 C342 C 0.77192 0.53556 0.78066
 C343 C 0.77301 0.46344 0.77782
 C344 C 0.72150 0.53865 0.72695
 O345 O 0.29761 0.52426 0.26563
 O346 O 0.25939 0.47081 0.22291
 O347 O 0.25958 0.52572 0.22432
 O348 O 0.29888 0.47048 0.26253
 O349 O 0.26297 0.46910 0.29404
 O350 O 0.22240 0.52303 0.25461
 O351 O 0.22299 0.46856 0.25408
 O352 O 0.26019 0.52329 0.29572
 Cu353 Cu 0.28238 0.49809 0.24059
 Cu354 Cu 0.23842 0.49567 0.27766
 C355 C 0.28515 0.53318 0.28768
 C356 C 0.23516 0.46000 0.23179
 C357 C 0.23482 0.53430 0.23335
 C358 C 0.28778 0.46046 0.28497
 O359 O 0.75719 1.02546 0.78282
 O360 O 0.79236 0.97090 0.74128
 O361 O 0.79223 1.02533 0.74086
 O362 O 0.75600 0.97117 0.78449
 O363 O 0.71692 0.97134 0.75595
 O364 O 0.75370 1.02439 0.71165
 O365 O 0.75328 0.96974 0.71280
 O366 O 0.71865 1.02515 0.75361
 Cu367 Cu 0.77840 0.99782 0.76524
 Cu368 Cu 0.73183 0.99715 0.73047
 C369 C 0.73274 1.03565 0.77433
 C370 C 0.77890 0.96114 0.71987
 C371 C 0.77823 1.03520 0.71981
 C372 C 0.72996 0.96260 0.77801
 O373 O 0.78334 0.46978 0.24555
 O374 O 0.75049 0.52952 0.28091
 O375 O 0.74562 0.47522 0.28623
 O376 O 0.78860 0.52301 0.24093
 O377 O 0.75101 0.52426 0.21062
 O378 O 0.70884 0.47478 0.25506
 O379 O 0.71282 0.52885 0.25068
 O380 O 0.74702 0.47067 0.21387
 Cu381 Cu 0.77057 0.49933 0.26672
 Cu382 Cu 0.72606 0.49950 0.22955
 C383 C 0.77111 0.46055 0.22328
 C384 C 0.72646 0.53973 0.27142
 C385 C 0.72011 0.46656 0.27821
 C386 C 0.77709 0.53186 0.21815
 O387 O 0.28027 0.02496 0.76012
 O388 O 0.24405 -0.02700 0.71428
 O389 O 0.24315 0.02668 0.71783
 O390 O 0.28169 -0.02907 0.75615
 O391 O 0.24500 -0.03113 0.78673
 O392 O 0.20527 0.02310 0.74734
 O393 O 0.20692 -0.03084 0.74443
 O394 O 0.24189 0.02282 0.78911
 Cu395 Cu 0.26611 -0.00084 0.73416
 Cu396 Cu 0.22099 -0.00461 0.76990
 C397 C 0.26698 0.03312 0.78205
 C398 C 0.21912 -0.03762 0.72146
 C399 C 0.21775 0.03436 0.72613
 C400 C 0.27027 -0.03927 0.77839
 O401 O 0.21180 0.26030 1.02975
 O402 O 0.24378 0.22025 0.97185
 O403 O 0.24814 0.21909 1.02635
 O404 O 0.20622 0.26016 0.97454
 O405 O 0.24323 0.29092 0.97261
 O406 O 0.28646 0.24821 1.02239
 O407 O 0.28051 0.25118 0.96814
 O408 O 0.25031 0.28943 1.02787
 Cu409 Cu 0.22356 0.23708 1.00101
 Cu410 Cu 0.26878 0.27315 0.99764
 C411 C 0.22622 0.28112 1.03923
 C412 C 0.26719 0.22934 0.95971
 C413 C 0.27463 0.22632 1.03276
 C414 C 0.21800 0.28197 0.96405
 O415 O 0.25805 0.79134 0.47213
 O416 O 0.29675 0.74789 0.52497
 O417 O 0.29725 0.75230 0.47027
 O418 O 0.25909 0.78807 0.52753
 O419 O 0.22129 0.75829 0.52458
 O420 O 0.26199 0.72000 0.47035
 O421 O 0.25870 0.71819 0.52488
 O422 O 0.22257 0.75915 0.46905
 Cu423 Cu 0.28135 0.77313 0.49889
 Cu424 Cu 0.23729 0.73597 0.49689
 C425 C 0.23419 0.78199 0.46091
 C426 C 0.28407 0.72586 0.53418
 C427 C 0.28668 0.72955 0.46105
 C428 C 0.23404 0.77899 0.53618
 O429 O 0.27828 0.75003 -0.02699
 O430 O 0.24766 0.70663 0.03031
 O431 O 0.24513 0.70543 -0.02500
 O432 O 0.27934 0.75142 0.02794
 O433 O 0.23859 0.77662 0.02805
 O434 O 0.20422 0.73034 -0.02440
 O435 O 0.20690 0.73182 0.03048
 O436 O 0.23733 0.77493 -0.02733
 Cu437 Cu 0.26667 0.72580 0.00140
 Cu438 Cu 0.21769 0.75600 0.00155
 C439 C 0.26283 0.76953 -0.03723
 C440 C 0.22266 0.71257 0.04090
 C441 C 0.21886 0.71014 -0.03378
 C442 C 0.26430 0.77120 0.03776
 O443 O 0.21318 0.23513 0.47269
 O444 O 0.24680 0.27835 0.52841
 O445 O 0.24932 0.27774 0.47270
 O446 O 0.20877 0.23793 0.52687
 O447 O 0.24579 0.20842 0.52939
 O448 O 0.28741 0.24939 0.47620
 O449 O 0.28431 0.24929 0.53166
 O450 O 0.25170 0.20707 0.47480
 Cu451 Cu 0.22594 0.26041 0.49975
 Cu452 Cu 0.27121 0.22579 0.50348
 C453 C 0.22689 0.21396 0.46411
 C454 C 0.27072 0.27046 0.54025
 C455 C 0.27468 0.26987 0.46450
 C456 C 0.22013 0.21617 0.53719
 O457 O 0.75472 0.71492 0.97514
 O458 O 0.72213 0.75685 1.03127
 O459 O 0.71936 0.75735 0.97682
 O460 O 0.75640 0.71424 1.03014
 O461 O 0.79495 0.74329 1.03044
 O462 O 0.75925 0.78476 0.97442
 O463 O 0.76055 0.78607 1.02896
 O464 O 0.79472 0.74225 0.97536
 Cu465 Cu 0.73428 0.73290 1.00332
 Cu466 Cu 0.78144 0.76682 1.00205
 C467 C 0.78052 0.72125 0.96603
 C468 C 0.73559 0.77879 1.03935
 C469 C 0.73282 0.77851 0.96675
 C470 C 0.78140 0.72200 1.04023
 O471 O 0.74439 0.21920 0.47512
 O472 O 0.70652 0.26032 0.52867
 O473 O 0.70803 0.26003 0.47419
 O474 O 0.74286 0.21883 0.53066
 O475 O 0.78148 0.24791 0.53116
 O476 O 0.74650 0.28927 0.47494
 O477 O 0.74503 0.28944 0.52998
 O478 O 0.78284 0.24843 0.47615
 Cu479 Cu 0.72171 0.23648 0.50222
 Cu480 Cu 0.76785 0.27168 0.50330
 C481 C 0.76954 0.22741 0.46578
 C482 C 0.71921 0.28201 0.53826
 C483 C 0.72167 0.28131 0.46456
 C484 C 0.76788 0.22661 0.54073
 O485 O 0.78764 0.25615 -0.02531
 O486 O 0.75422 0.20843 0.02723
 O487 O 0.75655 0.21110 -0.02785
 O488 O 0.78759 0.25292 0.03011
 O489 O 0.74650 0.27760 0.03083
 O490 O 0.71568 0.23617 -0.02768
 O491 O 0.71328 0.23333 0.02680
 O492 O 0.74693 0.28133 -0.02476
 Cu493 Cu 0.77568 0.22973 0.00121
 Cu494 Cu 0.72662 0.25979 0.00146
 C495 C 0.77228 0.27605 -0.03497
 C496 C 0.72791 0.21274 0.03579
 C497 C 0.73125 0.21708 -0.03816
 C498 C 0.77201 0.27181 0.04086
 O499 O 0.77947 0.75107 0.47409
 O500 O 0.73827 0.71128 0.52838
 O501 O 0.74232 0.70984 0.47314
 O502 O 0.77781 0.75122 0.52917
 O503 O 0.74109 0.78120 0.52671
 O504 O 0.70459 0.73879 0.47168
 O505 O 0.70188 0.74149 0.52658
 O506 O 0.74203 0.78024 0.47122
 Cu507 Cu 0.76314 0.72785 0.50154
 Cu508 Cu 0.71878 0.76349 0.49878
 C509 C 0.76713 0.77193 0.46274
 C510 C 0.71320 0.71974 0.53699
 C511 C 0.71767 0.71745 0.46262
 C512 C 0.76526 0.77292 0.53782
 O513 O 0.97149 0.25676 0.21723
 O514 O 1.02856 0.21683 0.25483
 O515 O 0.97076 0.21820 0.25594
 O516 O 1.02917 0.25610 0.21653
 O517 O 1.03012 0.28854 0.24910
 O518 O 0.97412 0.24920 0.28988
 O519 O 1.03189 0.24938 0.28725
 O520 O 0.97215 0.28783 0.25121
 Cu521 Cu 0.99984 0.23375 0.23280
 Cu522 Cu 1.00229 0.27197 0.27269
 C523 C 0.96208 0.27904 0.22781
 C524 C 1.03987 0.22623 0.27745
 C525 C 0.96294 0.22701 0.27987
 C526 C 1.03909 0.27913 0.22579
 O527 O 0.46603 0.24349 0.71905
 O528 O 0.52756 0.20635 0.75292
 O529 O 0.46956 0.20628 0.75844
 O530 O 0.52404 0.24730 0.71659
 O531 O 0.52725 0.27782 0.75096
 O532 O 0.47030 0.23898 0.79083
 O533 O 0.52838 0.23685 0.78728
 O534 O 0.46895 0.27610 0.75145
 Cu535 Cu 0.49678 0.22269 0.73342
 Cu536 Cu 0.49914 0.26060 0.77346
 C537 C 0.45673 0.26581 0.72959
 C538 C 0.53804 0.21481 0.77621
 C539 C 0.46007 0.21623 0.78138
 C540 C 0.53488 0.26961 0.72680
 O541 O 0.02255 0.26064 0.78835
 O542 O -0.02847 0.21649 0.74633
 O543 O 0.02913 0.22077 0.75172
 O544 O -0.03505 0.25417 0.78410
 O545 O -0.03418 0.28658 0.75086
 O546 O 0.02937 0.25225 0.71763
 O547 O -0.02844 0.24858 0.71286
 O548 O 0.02347 0.29181 0.75396
 Cu549 Cu -0.00283 0.23484 0.77107
 Cu550 Cu -0.00239 0.27297 0.73041
 C551 C 0.03154 0.28382 0.77830
 C552 C -0.03726 0.22521 0.72241
 C553 C 0.04012 0.23070 0.72916
 C554 C -0.04563 0.27591 0.77293
 O555 O 0.53470 0.24398 0.21292
 O556 O 0.47186 0.27734 0.24854
 O557 O 0.52945 0.28243 0.25047
 O558 O 0.47680 0.24051 0.20864
 O559 O 0.47683 0.20766 0.24136
 O560 O 0.52930 0.25003 0.28367
 O561 O 0.47177 0.24412 0.28092
 O562 O 0.53473 0.21129 0.24580
 Cu563 Cu 0.50310 0.26429 0.22679
 Cu564 Cu 0.50327 0.22495 0.26619
 C565 C 0.54559 0.22205 0.22356
 C566 C 0.46114 0.26631 0.27078
 C567 C 0.53802 0.27358 0.27435
 C568 C 0.46800 0.21694 0.21766
 O569 O 1.03018 0.71187 0.74940
 O570 O 0.96989 0.74825 0.71206
 O571 O 1.02889 0.74939 0.71030
 O572 O 0.97254 0.71083 0.75165
 O573 O 0.97320 0.74421 0.78328
 O574 O 1.03014 0.78239 0.74230
 O575 O 0.97166 0.78168 0.74362
 O576 O 1.03153 0.74496 0.78134
 Cu577 Cu 1.00012 0.72694 0.72743
 Cu578 Cu 1.00163 0.76668 0.76579
 C579 C 1.04146 0.72251 0.77147
 C580 C 0.96011 0.77079 0.72181
 C581 C 1.04001 0.77182 0.71989
 C582 C 0.96340 0.72094 0.77457
 O583 O 0.53126 0.79133 0.23547
 O584 O 0.47599 0.75065 0.27583
 O585 O 0.53356 0.75222 0.27369
 O586 O 0.47309 0.79062 0.23912
 O587 O 0.47312 0.76086 0.20396
 O588 O 0.53028 0.72001 0.24094
 O589 O 0.47248 0.72067 0.24094
 O590 O 0.53140 0.75920 0.20276
 Cu591 Cu 0.50374 0.77446 0.25933
 Cu592 Cu 0.50167 0.73715 0.21864
 C593 C 0.54102 0.78217 0.21231
 C594 C 0.46481 0.72874 0.26519
 C595 C 0.54153 0.72916 0.26372
 C596 C 0.46293 0.78233 0.21561
 O597 O -0.02695 0.78002 0.25648
 O598 O 0.03376 0.74235 0.22260
 O599 O -0.02403 0.74044 0.22046
 O600 O 0.03129 0.78333 0.25822
 O601 O 0.03157 0.75286 0.29323
 O602 O -0.02527 0.71070 0.25617
 O603 O 0.03275 0.71150 0.25728
 O604 O -0.02637 0.75026 0.29215
 Cu605 Cu 0.00376 0.76466 0.23597
 Cu606 Cu 0.00349 0.72828 0.27828
 C607 C -0.03740 0.77119 0.27977
 C608 C 0.04296 0.72006 0.23383
 C609 C -0.03462 0.71871 0.23218
 C610 C 0.04060 0.77559 0.28227
 O611 O 0.52590 0.75744 0.79715
 O612 O 0.46980 0.71774 0.75622
 O613 O 0.52727 0.71847 0.75900
 O614 O 0.46745 0.75454 0.79546
 O615 O 0.46710 0.78654 0.76194
 O616 O 0.52870 0.75139 0.72633
 O617 O 0.47151 0.74992 0.72277
 O618 O 0.52603 0.79010 0.76424
 Cu619 Cu 0.49771 0.73397 0.78048
 Cu620 Cu 0.49854 0.77306 0.74077
 C621 C 0.53557 0.78052 0.78750
 C622 C 0.46160 0.72691 0.73226
 C623 C 0.53761 0.72834 0.73614
 C624 C 0.45601 0.77583 0.78418
 C625 C 0.38549 0.27947 0.30476
 C626 C 0.39088 0.30658 0.31529
 C627 C 0.41825 0.31995 0.30977
 C628 C 0.44046 0.30674 0.29482
 C629 C 0.43620 0.27959 0.28530
 C630 C 0.40856 0.26570 0.29011
 C631 C 0.35743 0.26602 0.30766
 C632 C 0.35259 0.23934 0.29730
 C633 C 0.37534 0.22568 0.28359
 C634 C 0.40301 0.23872 0.27987
 H635 H 0.33883 0.27606 0.31747
 H636 H 0.33100 0.22929 0.29976
 H637 H 0.37142 0.20501 0.27549
 H638 H 0.41985 0.22764 0.26864
 H639 H 0.42259 0.34075 0.31742
 H640 H 0.46147 0.31758 0.29123
 C641 C 0.37750 0.78470 0.81440
 C642 C 0.37810 0.81387 0.81940
 C643 C 0.40330 0.82944 0.81077
 C644 C 0.42812 0.81671 0.79951
 C645 C 0.42897 0.78791 0.79658
 C646 C 0.40340 0.77157 0.80374
 C647 C 0.35098 0.76860 0.81745
 C648 C 0.35065 0.74014 0.81267
 C649 C 0.37631 0.72714 0.80388
 C650 C 0.40229 0.74262 0.79908
 H651 H 0.32993 0.77783 0.82260
 H652 H 0.33021 0.72819 0.81538
 H653 H 0.37588 0.70505 0.79997
 H654 H 0.42105 0.73153 0.79107
 H655 H 0.40454 0.85166 0.81396
 H656 H 0.44722 0.82949 0.79365
 C657 C -0.12307 0.28814 0.80324
 C658 C -0.11861 0.31533 0.81390
 C659 C -0.09126 0.32911 0.80946
 C660 C -0.06813 0.31618 0.79558
 C661 C -0.07153 0.28899 0.78594
 C662 C -0.09921 0.27477 0.78934
 C663 C -0.15094 0.27420 0.80533
 C664 C -0.15495 0.24754 0.79463
 C665 C -0.13157 0.23442 0.78130
 C666 C -0.10399 0.24787 0.77847
 H667 H -0.16999 0.28383 0.81479
 H668 H -0.17642 0.23711 0.79646
 H669 H -0.13491 0.21382 0.77281
 H670 H -0.08669 0.23715 0.76735
 H671 H -0.08765 0.34998 0.81723
 H672 H -0.04709 0.32726 0.79296
 C673 C -0.11387 0.80324 0.29158
 C674 C -0.11014 0.81205 0.31983
 C675 C -0.08352 0.80652 0.33418
 C676 C -0.06032 0.79318 0.32081
 C677 C -0.06291 0.78519 0.29261
 C678 C -0.09003 0.78974 0.27780
 C679 C -0.14114 0.80676 0.27702
 C680 C -0.14477 0.79740 0.24950
 C681 C -0.12155 0.78416 0.23605
 C682 C -0.09447 0.78026 0.24997
 H683 H -0.16003 0.81634 0.28686
 H684 H -0.16582 0.80019 0.23864
 H685 H -0.12463 0.77663 0.21480
 H686 H -0.07743 0.76926 0.23885
 H687 H -0.08057 0.81287 0.35587
 H688 H -0.03998 0.78939 0.33253
 C689 C 0.58263 0.67047 0.30173
 C690 C 0.61000 0.68442 0.30778
 C691 C 0.61363 0.71238 0.30015
 C692 C 0.59108 0.72645 0.28608
 C693 C 0.56428 0.71295 0.27890
 C694 C 0.55961 0.68480 0.28702
 C695 C 0.57725 0.64288 0.31080
 C696 C 0.55003 0.62960 0.30524
 C697 C 0.52762 0.64353 0.29081
 C698 C 0.53221 0.67085 0.28182
 H699 H 0.59374 0.63146 0.32266
 H700 H 0.54621 0.60847 0.31238
 H701 H 0.50643 0.63320 0.28681
 H702 H 0.51387 0.68095 0.27129
 H703 H 0.63431 0.72335 0.30487
 H704 H 0.59479 0.74802 0.28029
 C705 C 0.58694 0.15749 0.80825
 C706 C 0.61143 0.17408 0.81772
 C707 C 0.61032 0.20296 0.81432
 C708 C 0.58608 0.21546 0.80138
 C709 C 0.56247 0.19957 0.79031
 C710 C 0.56284 0.17016 0.79340
 C711 C 0.58550 0.12866 0.81382
 C712 C 0.56209 0.11236 0.80340
 C713 C 0.53945 0.12442 0.78765
 C714 C 0.53956 0.15298 0.78287
 H715 H 0.60213 0.11847 0.82663
 H716 H 0.56146 0.09027 0.80766
 H717 H 0.52132 0.11164 0.77957
 H718 H 0.52099 0.16115 0.77112
 H719 H 0.62875 0.21606 0.82123
 H720 H 0.58627 0.23785 0.79914
 C721 C 1.11816 0.70824 0.80395
 C722 C 1.11378 0.68017 0.81237
 C723 C 1.08664 0.66671 0.80637
 C724 C 1.06358 0.68076 0.79298
 C725 C 1.06683 0.70878 0.78546
 C726 C 1.09447 0.72272 0.79046
 C727 C 1.14592 0.72199 0.80784
 C728 C 1.15019 0.74936 0.79886
 C729 C 1.12711 0.76348 0.78565
 C730 C 1.09954 0.75038 0.78138
 H731 H 1.16471 0.71165 0.81741
 H732 H 1.17161 0.75959 0.80194
 H733 H 1.13066 0.78462 0.77841
 H734 H 1.08259 0.76202 0.77044
 H735 H 1.08320 0.64515 0.81232
 H736 H 1.04286 0.66970 0.78878
 C737 C 1.08218 0.16720 0.31340
 C738 C 1.11008 0.18077 0.31785
 C739 C 1.11347 0.20887 0.31059
 C740 C 1.09021 0.22336 0.29814
 C741 C 1.06287 0.21016 0.29238
 C742 C 1.05835 0.18203 0.30055
 C743 C 1.07719 0.13946 0.32214
 C744 C 1.04944 0.12658 0.31818
 C745 C 1.02614 0.14107 0.30574
 C746 C 1.03040 0.16854 0.29706
 H747 H 1.09445 0.12763 0.33247
 H748 H 1.04591 0.10532 0.32505
 H749 H 1.00456 0.13104 0.30302
 H750 H 1.01145 0.17914 0.28812
 H751 H 1.13459 0.21955 0.31412
 H752 H 1.09384 0.24491 0.29224
 C753 C 0.57365 0.31269 0.66906
 C754 C 0.60138 0.31816 0.68269
 C755 C 0.60597 0.30842 0.71022
 C756 C 0.58407 0.29284 0.72405
 C757 C 0.55697 0.28624 0.71073
 C758 C 0.55132 0.29644 0.68314
 C759 C 0.56722 0.32377 0.64212
 C760 C 0.53978 0.31852 0.62910
 C761 C 0.51807 0.30258 0.64277
 C762 C 0.52357 0.29177 0.66960
 H763 H 0.58302 0.33700 0.63110
 H764 H 0.53522 0.32715 0.60842
 H765 H 0.49669 0.29884 0.63267
 H766 H 0.50573 0.28017 0.67968
 H767 H 0.62694 0.31256 0.72096
 H768 H 0.58852 0.28546 0.74527
 C769 C 0.58995 0.81767 0.15540
 C770 C 0.61278 0.82932 0.17303
 C771 C 0.60935 0.82700 0.20239
 C772 C 0.58578 0.81209 0.21414
 C773 C 0.56471 0.79822 0.19732
 C774 C 0.56661 0.80092 0.16748
 C775 C 0.58866 0.82380 0.12621
 C776 C 0.56726 0.81137 0.10890
 C777 C 0.54610 0.79328 0.12029
 C778 C 0.54537 0.78841 0.14924
 H779 H 0.60377 0.83870 0.11654
 H780 H 0.56696 0.81597 0.08654
 H781 H 0.52953 0.78364 0.10672
 H782 H 0.52759 0.77512 0.15676
 H783 H 0.62607 0.83518 0.21676
 H784 H 0.58478 0.81042 0.23690
 C785 C 1.08517 0.33781 0.19117
 C786 C 1.11008 0.32230 0.18190
 C787 C 1.10890 0.29321 0.18469
 C788 C 1.08540 0.27979 0.19832
 C789 C 1.06191 0.29475 0.20953
 C790 C 1.06097 0.32389 0.20511
 C791 C 1.08259 0.36644 0.18496
 C792 C 1.05775 0.38117 0.19342
 C793 C 1.03452 0.36768 0.20744
 C794 C 1.03583 0.33931 0.21296
 H795 H 1.09914 0.37761 0.17269
 H796 H 1.05623 0.40308 0.18853
 H797 H 1.01505 0.37915 0.21349
 H798 H 1.01651 0.32959 0.22259
 H799 H 1.12728 0.28063 0.17788
 H800 H 1.08620 0.25748 0.20110
 C801 C 1.11722 0.78569 0.68806
 C802 C 1.11422 0.81413 0.67995
 C803 C 1.08778 0.82779 0.68682
 C804 C 1.06400 0.81364 0.69936
 C805 C 1.06563 0.78531 0.70559
 C806 C 1.09255 0.77112 0.70047
 C807 C 1.14492 0.77205 0.68650
 C808 C 1.14772 0.74451 0.69510
 C809 C 1.12338 0.73007 0.70610
 C810 C 1.09615 0.74319 0.70903
 H811 H 1.16502 0.78268 0.67967
 H812 H 1.16908 0.73447 0.69367
 H813 H 1.12578 0.70878 0.71308
 H814 H 1.07840 0.73133 0.71884
 H815 H 1.08490 0.84947 0.68137
 H816 H 1.04386 0.82487 0.70388
 C817 C 0.42426 0.68793 0.67136
 C818 C 0.39587 0.68249 0.68344
 C819 C 0.39064 0.69007 0.71135
 C820 C 0.41252 0.70378 0.72702
 C821 C 0.44015 0.71072 0.71516
 C822 C 0.44648 0.70247 0.68725
 C823 C 0.43137 0.67853 0.64415
 C824 C 0.45944 0.68383 0.63266
 C825 C 0.48102 0.69830 0.64804
 C826 C 0.47475 0.70751 0.67508
 H827 H 0.41561 0.66658 0.63174
 H828 H 0.46456 0.67646 0.61179
 H829 H 0.50286 0.70215 0.63910
 H830 H 0.49244 0.71809 0.68645
 H831 H 0.36921 0.68570 0.72098
 H832 H 0.40750 0.70967 0.74836
 C833 C 0.42721 0.18208 0.15590
 C834 C 0.40055 0.17364 0.16975
 C835 C 0.39821 0.17727 0.19889
 C836 C 0.42098 0.19010 0.21414
 C837 C 0.44651 0.20052 0.20070
 C838 C 0.45028 0.19590 0.17146
 C839 C 0.43190 0.17634 0.12716
 C840 C 0.45823 0.18464 0.11388
 C841 C 0.48062 0.19831 0.12899
 C842 C 0.47691 0.20371 0.15754
 H843 H 0.41563 0.16490 0.11484
 H844 H 0.46145 0.18011 0.09182
 H845 H 0.50118 0.20437 0.11863
 H846 H 0.49538 0.21344 0.16862
 H847 H 0.37824 0.17061 0.20994
 H848 H 0.41811 0.19267 0.23654
 C849 C -0.10954 0.68419 0.21406
 C850 C -0.10302 0.67441 0.18670
 C851 C -0.07474 0.67933 0.17524
 C852 C -0.05279 0.69346 0.19049
 C853 C -0.05841 0.70288 0.21772
 C854 C -0.08697 0.69842 0.22979
 C855 C -0.13831 0.68100 0.22574
 C856 C -0.14458 0.69128 0.25238
 C857 C -0.12253 0.70512 0.26777
 C858 C -0.09402 0.70876 0.25666
 H859 H -0.15634 0.67092 0.21433
 H860 H -0.16674 0.68870 0.26103
 H861 H -0.12761 0.71331 0.28832
 H862 H -0.07786 0.72011 0.26920
 H863 H -0.06968 0.67223 0.15424
 H864 H -0.03115 0.69703 0.18097
 C865 C -0.07990 0.16554 0.68603
 C866 C -0.10521 0.18037 0.67594
 C867 C -0.10543 0.20936 0.67929
 C868 C -0.08293 0.22318 0.69389
 C869 C -0.05913 0.20881 0.70583
 C870 C -0.05696 0.17984 0.70143
 C871 C -0.07571 0.13731 0.67939
 C872 C -0.05079 0.12316 0.68915
 C873 C -0.02904 0.13689 0.70496
 C874 C -0.03181 0.16500 0.71079
 H875 H -0.09110 0.12608 0.66590
 H876 H -0.04808 0.10152 0.68399
 H877 H -0.00955 0.12586 0.71217
 H878 H -0.01365 0.17497 0.72202
 H879 H -0.12420 0.22151 0.67223
 H880 H -0.08481 0.24536 0.69686
 C881 C 0.34611 0.41145 0.31743
 C882 C 0.32676 0.38959 0.32646
 C883 C 0.29592 0.39249 0.32323
 C884 C 0.28411 0.41599 0.31057
 C885 C 0.30264 0.43719 0.29984
 C886 C 0.33414 0.43501 0.30312
 C887 C 0.37712 0.41061 0.32278
 C888 C 0.39615 0.43157 0.31293
 C889 C 0.38473 0.45389 0.29789
 C890 C 0.35413 0.45578 0.29316
 H891 H 0.38694 0.39401 0.33496
 H892 H 0.41987 0.43051 0.31703
 H893 H 0.39966 0.47004 0.29013
 H894 H 0.34672 0.47376 0.28174
 H895 H 0.28075 0.37602 0.32989
 H896 H 0.26011 0.41705 0.30810
 C897 C 0.32962 -0.08571 0.81356
 C898 C 0.31055 -0.10710 0.82466
 C899 C 0.27955 -0.10377 0.82240
 C900 C 0.26749 -0.08152 0.80778
 C901 C 0.28567 -0.06154 0.79448
 C902 C 0.31723 -0.06328 0.79761
 C903 C 0.36056 -0.08505 0.81967
 C904 C 0.37921 -0.06454 0.80837
 C905 C 0.36748 -0.04375 0.79146
 C906 C 0.33689 -0.04280 0.78640
 H907 H 0.37061 -0.09991 0.83386
 H908 H 0.40287 -0.06459 0.81305
 H909 H 0.38206 -0.02774 0.78286
 H910 H 0.32928 -0.02539 0.77418
 H911 H 0.26416 -0.11944 0.83041
 H912 H 0.24343 -0.08057 0.80593
 C913 C 0.83350 0.41646 0.81024
 C914 C 0.81479 0.39571 0.82293
 C915 C 0.78383 0.39982 0.82291
 C916 C 0.77126 0.42213 0.80874
 C917 C 0.78888 0.44135 0.79375
 C918 C 0.82054 0.43893 0.79480
 C919 C 0.86482 0.41645 0.81423
 C920 C 0.88310 0.43636 0.80141
 C921 C 0.87069 0.45719 0.78502
 C922 C 0.83985 0.45878 0.78199
 H923 H 0.87551 0.40155 0.82793
 H924 H 0.90702 0.43581 0.80450
 H925 H 0.88500 0.47274 0.77523
 H926 H 0.83187 0.47624 0.77008
 H927 H 0.76874 0.38467 0.83232
 H928 H 0.74718 0.42365 0.80852
 C929 C 0.84503 -0.08492 0.31919
 C930 C 0.82532 -0.10613 0.32961
 C931 C 0.79446 -0.10174 0.32782
 C932 C 0.78309 -0.07864 0.31415
 C933 C 0.80183 -0.05876 0.30141
 C934 C 0.83331 -0.06153 0.30423
 C935 C 0.87601 -0.08543 0.32502
 C936 C 0.89524 -0.06501 0.31443
 C937 C 0.88409 -0.04322 0.29848
 C938 C 0.85353 -0.04122 0.29367
 H939 H 0.88563 -0.10116 0.33848
 H940 H 0.91891 -0.06594 0.31890
 H941 H 0.89915 -0.02733 0.29038
 H942 H 0.84639 -0.02323 0.28211
 H943 H 0.77859 -0.11724 0.33532
 H944 H 0.75907 -0.07702 0.31245
 C945 C 0.34361 0.58073 0.68354
 C946 C 0.32514 0.60200 0.67263
 C947 C 0.29413 0.59837 0.67371
 C948 C 0.28137 0.57524 0.68679
 C949 C 0.29896 0.55557 0.70074
 C950 C 0.33061 0.55802 0.69890
 C951 C 0.37475 0.58129 0.67906
 C952 C 0.39296 0.56123 0.69107
 C953 C 0.38058 0.54005 0.70744
 C954 C 0.34981 0.53826 0.71119
 H955 H 0.38527 0.59694 0.66585
 H956 H 0.41679 0.56211 0.68764
 H957 H 0.39485 0.52460 0.71690
 H958 H 0.34166 0.52105 0.72361
 H959 H 0.27949 0.61407 0.66521
 H960 H 0.25729 0.57350 0.68714
 C961 C 0.34134 1.07665 0.17346
 C962 C 0.32412 1.09874 0.16200
 C963 C 0.29285 1.09665 0.16379
 C964 C 0.27905 1.07541 0.17907
 C965 C 0.29576 1.05563 0.19371
 C966 C 0.32730 1.05563 0.19040
 C967 C 0.37192 1.07401 0.16696
 C968 C 0.38888 1.05300 0.17894
 C969 C 0.37569 1.03369 0.19698
 C970 C 0.34525 1.03467 0.20243
 H971 H 0.38288 1.08776 0.15203
 H972 H 0.41232 1.05152 0.17394
 H973 H 0.38894 1.01728 0.20611
 H974 H 0.33621 1.01819 0.21541
 H975 H 0.27872 1.11269 0.15520
 H976 H 0.25497 1.07540 0.18069
 C977 C 0.83928 0.57081 0.17883
 C978 C 0.82455 0.59614 0.17346
 C979 C 0.79444 0.59858 0.18060
 C980 C 0.77922 0.57700 0.19403
 C981 C 0.79365 0.55234 0.20093
 C982 C 0.82367 0.54868 0.19271
 C983 C 0.86895 0.56680 0.17023
 C984 C 0.88297 0.54161 0.17531
 C985 C 0.86770 0.51995 0.18876
 C986 C 0.83831 0.52331 0.19734
 H987 H 0.88138 0.58287 0.15916
 H988 H 0.90572 0.53878 0.16854
 H989 H 0.87861 0.50036 0.19237
 H990 H 0.82709 0.50573 0.20713
 H991 H 0.78287 0.61781 0.17666
 H992 H 0.75627 0.58004 0.20017
 C993 C 0.78488 1.10978 0.69178
 C994 C 0.81501 1.10998 0.68237
 C995 C 0.83229 1.08629 0.68711
 C996 C 0.81982 1.06217 0.69868
 C997 C 0.78968 1.06080 0.70603
 C998 C 0.77198 1.08491 0.70316
 C999 C 0.76813 1.13441 0.69258
 C1000 C 0.73898 1.13427 0.70247
 C1001 C 0.72599 1.10982 0.71242
 C1002 C 0.74226 1.08547 0.71301
 H1003 H 0.77774 1.15423 0.68674
 H1004 H 0.72659 1.15336 0.70285
 H1005 H 0.70343 1.10985 0.72040
 H1006 H 0.73133 1.06750 0.72200
 H1007 H 0.85545 1.08599 0.68074
 H1008 H 0.83380 1.04423 0.70162
 C1009 C 0.71829 0.61364 0.29886
 C1010 C 0.68854 0.61193 0.30879
 C1011 C 0.67209 0.58722 0.30559
 C1012 C 0.68480 0.56408 0.29345
 C1013 C 0.71439 0.56491 0.28425
 C1014 C 0.73133 0.58994 0.28643
 C1015 C 0.73503 0.63867 0.30018
 C1016 C 0.76394 0.64030 0.28958
 C1017 C 0.77661 0.61725 0.27725
 C1018 C 0.76053 0.59232 0.27554
 H1019 H 0.72584 0.65729 0.30896
 H1020 H 0.77646 0.65965 0.29065
 H1021 H 0.79892 0.61875 0.26874
 H1022 H 0.77109 0.57522 0.26520
 H1023 H 0.64924 0.58578 0.31284
 H1024 H 0.67150 0.54523 0.29149
 C1025 C 0.72603 1.10935 0.80338
 C1026 C 0.69541 1.10880 0.81127
 C1027 C 0.67804 1.08502 0.80524
 C1028 C 0.69069 1.06153 0.79381
 C1029 C 0.72111 1.06089 0.78763
 C1030 C 0.73899 1.08519 0.79164
 C1031 C 0.74334 1.13411 0.80443
 C1032 C 0.77289 1.13483 0.79559
 C1033 C 0.78570 1.11118 0.78481
 C1034 C 0.76900 1.08669 0.78258
 H1035 H 0.73396 1.15345 0.81096
 H1036 H 0.78571 1.15402 0.79656
 H1037 H 0.80852 1.11196 0.77751
 H1038 H 0.77978 1.06944 0.77288
 H1039 H 0.65457 1.08409 0.81057
 H1040 H 0.67658 1.04347 0.79005
 C1041 C 0.19897 0.61027 0.78240
 C1042 C 0.19072 0.60757 0.81133
 C1043 C 0.19815 0.58303 0.82590
 C1044 C 0.21115 0.56091 0.81218
 C1045 C 0.21709 0.56228 0.78336
 C1046 C 0.21150 0.58722 0.76824
 C1047 C 0.19746 0.63597 0.76778
 C1048 C 0.20561 0.63829 0.73958
 C1049 C 0.21635 0.61544 0.72548
 C1050 C 0.21965 0.59026 0.73967
 H1051 H 0.19101 0.65482 0.77809
 H1052 H 0.20405 0.65807 0.72875
 H1053 H 0.22294 0.61741 0.70365
 H1054 H 0.22933 0.57352 0.72816
 H1055 H 0.19256 0.58027 0.84793
 H1056 H 0.21583 0.54217 0.82407
 C1057 C 0.20122 1.11413 0.28203
 C1058 C 0.19042 1.11025 0.30985
 C1059 C 0.19374 1.08445 0.32327
 C1060 C 0.20662 1.06235 0.30938
 C1061 C 0.21624 1.06532 0.28155
 C1062 C 0.21395 1.09138 0.26768
 C1063 C 0.20048 1.14030 0.26842
 C1064 C 0.21134 1.14378 0.24114
 C1065 C 0.22343 1.12147 0.22701
 C1066 C 0.22490 1.09555 0.24012
 H1067 H 0.19201 1.15840 0.27880
 H1068 H 0.21060 1.16395 0.23099
 H1069 H 0.23203 1.12434 0.20591
 H1070 H 0.23506 1.07897 0.22862
 H1071 H 0.18589 1.08130 0.34462
 H1072 H 0.20852 1.04259 0.32023
 C1073 C 0.65843 0.42150 0.68618
 C1074 C 0.67521 0.39749 0.68033
 C1075 C 0.70564 0.39723 0.68721
 C1076 C 0.71931 0.41966 0.70060
 C1077 C 0.70298 0.44301 0.70786
 C1078 C 0.67240 0.44438 0.70023
 C1079 C 0.62833 0.42365 0.67766
 C1080 C 0.61221 0.44743 0.68334
 C1081 C 0.62577 0.46965 0.69719
 C1082 C 0.65561 0.46832 0.70542
 H1083 H 0.61709 0.40726 0.66613
 H1084 H 0.58914 0.44876 0.67669
 H1085 H 0.61321 0.48817 0.70126
 H1086 H 0.66543 0.48641 0.71536
 H1087 H 0.71884 0.37918 0.68273
 H1088 H 0.74272 0.41839 0.70617
 C1089 C 0.72821 -0.10835 0.19279
 C1090 C 0.69791 -0.10628 0.18360
 C1091 C 0.68184 -0.08259 0.19093
 C1092 C 0.69524 -0.06085 0.20557
 C1093 C 0.72522 -0.06183 0.21358
 C1094 C 0.74197 -0.08580 0.20760
 C1095 C 0.74440 -0.13317 0.18992
 C1096 C 0.77368 -0.13510 0.19965
 C1097 C 0.78728 -0.11282 0.21322
 C1098 C 0.77159 -0.08855 0.21754
 H1099 H 0.73448 -0.15173 0.18111
 H1100 H 0.78568 -0.15423 0.19712
 H1101 H 0.80988 -0.11461 0.22110
 H1102 H 0.78278 -0.07240 0.22938
 H1103 H 0.65879 -0.08035 0.18442
 H1104 H 0.68212 -0.04282 0.21037
 C1105 C 0.22072 0.38689 0.20397
 C1106 C 0.19320 0.39091 0.18973
 C1107 C 0.18002 0.41707 0.19012
 C1108 C 0.19398 0.43932 0.20372
 C1109 C 0.22173 0.43614 0.21690
 C1110 C 0.23535 0.40978 0.21724
 C1111 C 0.23356 0.36039 0.20612
 C1112 C 0.26060 0.35668 0.22018
 C1113 C 0.27521 0.37913 0.23264
 C1114 C 0.26274 0.40542 0.23133
 H1115 H 0.22252 0.34226 0.19756
 H1116 H 0.27015 0.33622 0.22161
 H1117 H 0.29613 0.37613 0.24367
 H1118 H 0.27464 0.42213 0.24165
 H1119 H 0.15880 0.42029 0.17967
 H1120 H 0.18317 0.45926 0.20377
 C1121 C 0.16125 -0.08251 0.68183
 C1122 C 0.18012 -0.10408 0.67236
 C1123 C 0.21112 -0.10084 0.67619
 C1124 C 0.22311 -0.07878 0.69140
 C1125 C 0.20478 -0.05882 0.70320
 C1126 C 0.17368 -0.05983 0.69745
 C1127 C 0.13067 -0.08189 0.67437
 C1128 C 0.11259 -0.06041 0.68315
 C1129 C 0.12460 -0.03869 0.69882
 C1130 C 0.15485 -0.03814 0.70569
 H1131 H 0.12059 -0.09746 0.66094
 H1132 H 0.08923 -0.06035 0.67728
 H1133 H 0.11054 -0.02183 0.70516
 H1134 H 0.16329 -0.02011 0.71667
 H1135 H 0.22632 -0.11660 0.66926
 H1136 H 0.24698 -0.07805 0.69507
 C1137 C 0.28898 0.29996 0.39087
 C1138 C 0.31842 0.31047 0.39467
 C1139 C 0.33287 0.30691 0.42063
 C1140 C 0.31835 0.29372 0.44305
 C1141 C 0.28893 0.28390 0.44017
 C1142 C 0.27408 0.28656 0.41377
 C1143 C 0.27434 0.30178 0.36447
 C1144 C 0.24572 0.29071 0.36074
 C1145 C 0.23122 0.27745 0.38300
 C1146 C 0.24517 0.27527 0.40922
 H1147 H 0.28496 0.31137 0.34638
 H1148 H 0.23484 0.29219 0.34037
 H1149 H 0.20913 0.26858 0.37989
 H1150 H 0.23318 0.26422 0.42556
 H1151 H 0.35552 0.31452 0.42358
 H1152 H 0.33007 0.29139 0.46293
 C1153 C 0.27269 0.80207 -0.11047
 C1154 C 0.30106 0.81500 -0.10678
 C1155 C 0.31574 0.81289 -0.08078
 C1156 C 0.30274 0.79840 -0.05841
 C1157 C 0.27464 0.78567 -0.06133
 C1158 C 0.25937 0.78721 -0.08757
 C1159 C 0.25775 0.80273 -0.13675
 C1160 C 0.23037 0.78908 -0.14038
 C1161 C 0.21748 0.77437 -0.11812
 C1162 C 0.23178 0.77328 -0.09199
 H1163 H 0.26719 0.81346 -0.15478
 H1164 H 0.21922 0.78970 -0.16066
 H1165 H 0.19639 0.76354 -0.12119
 H1166 H 0.22118 0.76111 -0.07555
 H1167 H 0.33761 0.82235 -0.07788
 H1168 H 0.31480 0.79702 -0.03860
 C1169 C 0.77943 0.30805 -0.10877
 C1170 C 0.80889 0.31899 -0.10696
 C1171 C 0.82518 0.31597 -0.08191
 C1172 C 0.81268 0.30255 -0.05861
 C1173 C 0.78341 0.29205 -0.05954
 C1174 C 0.76643 0.29465 -0.08484
 C1175 C 0.76305 0.30917 -0.13428
 C1176 C 0.73446 0.29760 -0.13616
 C1177 C 0.72168 0.28460 -0.11286
 C1178 C 0.73737 0.28306 -0.08748
 H1179 H 0.77228 0.31855 -0.15314
 H1180 H 0.72227 0.29850 -0.15589
 H1181 H 0.69959 0.27536 -0.11452
 H1182 H 0.72660 0.27207 -0.07041
 H1183 H 0.84787 0.32390 -0.08049
 H1184 H 0.82604 0.30024 -0.03967
 C1185 C 0.78240 0.80344 0.38989
 C1186 C 0.81200 0.81335 0.39414
 C1187 C 0.82617 0.80889 0.42009
 C1188 C 0.81128 0.79542 0.44207
 C1189 C 0.78174 0.78612 0.43875
 C1190 C 0.76714 0.78961 0.41234
 C1191 C 0.76795 0.80621 0.36351
 C1192 C 0.73919 0.79559 0.35932
 C1193 C 0.72440 0.78183 0.38112
 C1194 C 0.73815 0.77873 0.40734
 H1195 H 0.77883 0.81621 0.34577
 H1196 H 0.72846 0.79779 0.33896
 H1197 H 0.70222 0.77330 0.37764
 H1198 H 0.72597 0.76733 0.42333
 H1199 H 0.84893 0.81608 0.42339
 H1200 H 0.82280 0.79247 0.46198
 C1201 C 0.66022 0.32040 0.58022
 C1202 C 0.67651 0.32509 0.60549
 C1203 C 0.70651 0.31756 0.60708
 C1204 C 0.72014 0.30445 0.58468
 C1205 C 0.70414 0.29825 0.56006
 C1206 C 0.67410 0.30673 0.55735
 C1207 C 0.63065 0.32958 0.57693
 C1208 C 0.61493 0.32497 0.55194
 C1209 C 0.62842 0.31157 0.52965
 C1210 C 0.65776 0.30268 0.53215
 H1211 H 0.61962 0.34083 0.59336
 H1212 H 0.59226 0.33212 0.54976
 H1213 H 0.61622 0.30834 0.51018
 H1214 H 0.66756 0.29310 0.51399
 H1215 H 0.71928 0.32115 0.62620
 H1216 H 0.74313 0.29817 0.58700
 C1217 C 0.70185 0.83896 1.07985
 C1218 C 0.69640 0.82538 1.10600
 C1219 C 0.70357 0.79739 1.10928
 C1220 C 0.71608 0.78278 1.08736
 C1221 C 0.72220 0.79570 1.06152
 C1222 C 0.71504 0.82400 1.05744
 C1223 C 0.69359 0.86676 1.07515
 C1224 C 0.69852 0.87961 1.04913
 C1225 C 0.71147 0.86505 1.02729
 C1226 C 0.71962 0.83750 1.03127
 H1227 H 0.68296 0.87870 1.09133
 H1228 H 0.69204 0.90094 1.04581
 H1229 H 0.71500 0.87508 1.00707
 H1230 H 0.72909 0.82686 1.01356
 H1231 H 0.69931 0.78670 1.12906
 H1232 H 0.72129 0.76120 1.09076
 C1233 C 0.21928 0.30678 1.11474
 C1234 C 0.19169 0.32067 1.11263
 C1235 C 0.17634 0.32110 1.08683
 C1236 C 0.18794 0.30833 1.06319
 C1237 C 0.21544 0.29509 1.06456
 C1238 C 0.23143 0.29417 1.09041
 C1239 C 0.23454 0.30419 1.14070
 C1240 C 0.26147 0.29022 1.14254
 C1241 C 0.27354 0.27824 1.11871
 C1242 C 0.25869 0.28002 1.09290
 H1243 H 0.22559 0.31243 1.15986
 H1244 H 0.27289 0.28846 1.16261
 H1245 H 0.29435 0.26722 1.12029
 H1246 H 0.26864 0.26994 1.07511
 H1247 H 0.15505 0.33131 1.08505
 H1248 H 0.17541 0.30884 1.04361
 C1249 C 0.22030 0.80800 0.60971
 C1250 C 0.19104 0.81813 0.60585
 C1251 C 0.17651 0.81448 0.57993
 C1252 C 0.19074 0.80164 0.55763
 C1253 C 0.21996 0.79219 0.56059
 C1254 C 0.23488 0.79487 0.58693
 C1255 C 0.23505 0.80988 0.63603
 C1256 C 0.26349 0.79914 0.63980
 C1257 C 0.27765 0.78612 0.61765
 C1258 C 0.26356 0.78385 0.59150
 H1259 H 0.22466 0.81928 0.65401
 H1260 H 0.27447 0.80067 0.66010
 H1261 H 0.29958 0.77751 0.62081
 H1262 H 0.27520 0.77298 0.57520
 H1263 H 0.15399 0.82180 0.57690
 H1264 H 0.17897 0.79936 0.53777
 C1265 C 0.34072 0.68461 0.57760
 C1266 C 0.32410 0.68055 0.60262
 C1267 C 0.29480 0.69000 0.60394
 C1268 C 0.28214 0.70420 0.58131
 C1269 C 0.29842 0.70939 0.55669
 C1270 C 0.32771 0.69904 0.55440
 C1271 C 0.36973 0.67403 0.57490
 C1272 C 0.38556 0.67759 0.54992
 C1273 C 0.37270 0.69136 0.52713
 C1274 C 0.34401 0.70187 0.52922
 H1275 H 0.38021 0.66253 0.59182
 H1276 H 0.40775 0.66930 0.54811
 H1277 H 0.38491 0.69360 0.50765
 H1278 H 0.33442 0.71163 0.51087
 H1279 H 0.28184 0.68689 0.62293
 H1280 H 0.25965 0.71183 0.58330
 C1281 C 0.33570 0.18432 1.06938
 C1282 C 0.32129 0.17856 1.09535
 C1283 C 0.29213 0.18755 1.09948
 C1284 C 0.27740 0.20267 1.07875
 C1285 C 0.29140 0.20943 1.05327
 C1286 C 0.32064 0.19993 1.04813
 C1287 C 0.36441 0.17420 1.06373
 C1288 C 0.37813 0.17964 1.03796
 C1289 C 0.36342 0.19480 1.01720
 C1290 C 0.33488 0.20471 1.02204
 H1291 H 0.37627 0.16163 1.07891
 H1292 H 0.40016 0.17175 1.03395
 H1293 H 0.37405 0.19864 0.99710
 H1294 H 0.32403 0.21566 1.00497
 H1295 H 0.28083 0.18317 1.11918
 H1296 H 0.25502 0.20970 1.08289
 C1297 C 0.79279 0.68473 1.11104
 C1298 C 0.82306 0.67712 1.10823
 C1299 C 0.83883 0.68504 1.08405
 C1300 C 0.82493 0.69962 1.06234
 C1301 C 0.79471 0.70636 1.06396
 C1302 C 0.77832 0.69905 1.08855
 C1303 C 0.77686 0.67920 1.13615
 C1304 C 0.74716 0.68677 1.13872
 C1305 C 0.73286 0.70030 1.11664
 C1306 C 0.74819 0.70656 1.09189
 H1307 H 0.78722 0.66947 1.15423
 H1308 H 0.73528 0.68234 1.15806
 H1309 H 0.70983 0.70632 1.11882
 H1310 H 0.73613 0.71763 1.07578
 H1311 H 0.86207 0.67968 1.08189
 H1312 H 0.83780 0.70535 1.04389
 C1313 C 0.78360 0.19955 0.61495
 C1314 C 0.80963 0.18410 0.60982
 C1315 C 0.82110 0.18298 0.58249
 C1316 C 0.80706 0.19664 0.56023
 C1317 C 0.78092 0.21140 0.56464
 C1318 C 0.76883 0.21293 0.59207
 C1319 C 0.77249 0.20281 0.64246
 C1320 C 0.74688 0.21808 0.64720
 C1321 C 0.73209 0.23068 0.62477
 C1322 C 0.74295 0.22831 0.59746
 H1323 H 0.78382 0.19413 0.66053
 H1324 H 0.73862 0.22033 0.66842
 H1325 H 0.71230 0.24264 0.62858
 H1326 H 0.73104 0.23880 0.58074
 H1327 H 0.84121 0.17155 0.57842
 H1328 H 0.81665 0.19568 0.53937
 C1329 C 0.66403 0.67839 0.41336
 C1330 C 0.68160 0.67837 0.38861
 C1331 C 0.71076 0.68918 0.38948
 C1332 C 0.72227 0.70093 0.41400
 C1333 C 0.70496 0.70229 0.43837
 C1334 C 0.67588 0.69043 0.43844
 C1335 C 0.63524 0.66610 0.41396
 C1336 C 0.61850 0.66589 0.43863
 C1337 C 0.63018 0.67749 0.46314
 C1338 C 0.65866 0.68952 0.46315
 H1339 H 0.62560 0.65620 0.39562
 H1340 H 0.59648 0.65636 0.43880
 H1341 H 0.61727 0.67687 0.48232
 H1342 H 0.66743 0.69749 0.48270
 H1343 H 0.72448 0.68914 0.37077
 H1344 H 0.74460 0.70986 0.41368
 C1345 C 0.72206 0.19333 -0.11432
 C1346 C 0.69482 0.17814 -0.11209
 C1347 C 0.68050 0.17612 -0.08600
 C1348 C 0.69286 0.18854 -0.06216
 C1349 C 0.72027 0.20273 -0.06357
 C1350 C 0.73532 0.20508 -0.08973
 C1351 C 0.73579 0.19808 -0.14065
 C1352 C 0.76256 0.21304 -0.14261
 C1353 C 0.77604 0.22374 -0.11850
 C1354 C 0.76263 0.21989 -0.09232
 H1355 H 0.72563 0.19093 -0.15999
 H1356 H 0.77278 0.21653 -0.16296
 H1357 H 0.79674 0.23548 -0.12014
 H1358 H 0.77365 0.22912 -0.07436
 H1359 H 0.65945 0.16493 -0.08412
 H1360 H 0.68096 0.18700 -0.04240
 C1361 C 0.16395 0.66996 -0.08079
 C1362 C 0.18183 0.66758 -0.10518
 C1363 C 0.21169 0.67648 -0.10427
 C1364 C 0.22358 0.68894 -0.08034
 C1365 C 0.20594 0.69309 -0.05657
 C1366 C 0.17611 0.68287 -0.05626
 C1367 C 0.13444 0.65936 -0.08006
 C1368 C 0.11722 0.66168 -0.05586
 C1369 C 0.12909 0.67423 -0.03191
 C1370 C 0.15829 0.68461 -0.03194
 H1371 H 0.12460 0.64883 -0.09795
 H1372 H 0.09463 0.65343 -0.05560
 H1373 H 0.11571 0.67567 -0.01309
 H1374 H 0.16686 0.69344 -0.01259
 H1375 H 0.22566 0.67479 -0.12271
 H1376 H 0.24640 0.69665 -0.08091
 C1377 C 0.17419 0.17010 0.41884
 C1378 C 0.18830 0.17359 0.39239
 C1379 C 0.21564 0.18793 0.39071
 C1380 C 0.22841 0.19995 0.41452
 C1381 C 0.21423 0.19788 0.44063
 C1382 C 0.18748 0.18215 0.44322
 C1383 C 0.14744 0.15452 0.42169
 C1384 C 0.13425 0.15082 0.44802
 C1385 C 0.14757 0.16223 0.47193
 C1386 C 0.17402 0.17766 0.46964
 H1387 H 0.13674 0.14480 0.40374
 H1388 H 0.11380 0.13876 0.44994
 H1389 H 0.13752 0.15886 0.49237
 H1390 H 0.18430 0.18546 0.48867
 H1391 H 0.22669 0.19056 0.37061
 H1392 H 0.24905 0.21176 0.41239
 C1393 C 0.33291 0.41298 0.68365
 C1394 C 0.31504 0.38850 0.68228
 C1395 C 0.28555 0.38893 0.69177
 C1396 C 0.27387 0.41282 0.70335
 C1397 C 0.29132 0.43702 0.70585
 C1398 C 0.32087 0.43746 0.69539
 C1399 C 0.36219 0.41391 0.67285
 C1400 C 0.37918 0.43836 0.67367
 C1401 C 0.36725 0.46235 0.68480
 C1402 C 0.33833 0.46200 0.69540
 H1403 H 0.37206 0.39597 0.66332
 H1404 H 0.40157 0.43880 0.66527
 H1405 H 0.38035 0.48139 0.68491
 H1406 H 0.32943 0.48115 0.70294
 H1407 H 0.27160 0.37040 0.69067
 H1408 H 0.25117 0.41221 0.71108
 C1409 C 0.32278 0.92020 0.16930
 C1410 C 0.30967 0.89375 0.17448
 C1411 C 0.28394 0.89139 0.19090
 C1412 C 0.27171 0.91470 0.20312
 C1413 C 0.28491 0.94092 0.19925
 C1414 C 0.31000 0.94406 0.18152
 C1415 C 0.34793 0.92355 0.15177
 C1416 C 0.35988 0.94989 0.14614
 C1417 C 0.34688 0.97328 0.15755
 C1418 C 0.32211 0.97047 0.17502
 H1419 H 0.35828 0.90595 0.14202
 H1420 H 0.37906 0.95220 0.13255
 H1421 H 0.35588 0.99370 0.15262
 H1422 H 0.31200 0.98905 0.18281
 H1423 H 0.27358 0.87125 0.19470
 H1424 H 0.25209 0.91217 0.21616
 C1425 C 0.80826 0.41705 0.16677
 C1426 C 0.81170 0.39189 0.18209
 C1427 C 0.80250 0.39028 0.21021
 C1428 C 0.78954 0.41282 0.22315
 C1429 C 0.78511 0.43760 0.20830
 C1430 C 0.79472 0.44010 0.17998
 C1431 C 0.81884 0.42015 0.13895
 C1432 C 0.81584 0.44521 0.12440
 C1433 C 0.80258 0.46768 0.13728
 C1434 C 0.79218 0.46529 0.16482
 H1435 H 0.82990 0.40347 0.12834
 H1436 H 0.82409 0.44729 0.10310
 H1437 H 0.80058 0.48716 0.12596
 H1438 H 0.78258 0.48346 0.17415
 H1439 H 0.80523 0.37125 0.22221
 H1440 H 0.78253 0.41080 0.24489
 C1441 C 0.83503 0.91633 0.68085
 C1442 C 0.81707 0.89220 0.67659
 C1443 C 0.78709 0.89225 0.68473
 C1444 C 0.77506 0.91513 0.69791
 C1445 C 0.79263 0.93870 0.70362
 C1446 C 0.82272 0.93978 0.69451
 C1447 C 0.86471 0.91799 0.67113
 C1448 C 0.88198 0.94196 0.67509
 C1449 C 0.86998 0.96482 0.68837
 C1450 C 0.84061 0.96392 0.69784
 H1451 H 0.87470 0.90104 0.66000
 H1452 H 0.90469 0.94291 0.66752
 H1453 H 0.88339 0.98348 0.69104
 H1454 H 0.83201 0.98251 0.70720
 H1455 H 0.77302 0.87406 0.68151
 H1456 H 0.75200 0.91405 0.70457
 C1457 C 0.71097 0.61212 0.69777
 C1458 C 0.68100 0.60987 0.68827
 C1459 C 0.66504 0.58497 0.69234
 C1460 C 0.67851 0.56211 0.70493
 C1461 C 0.70837 0.56347 0.71369
 C1462 C 0.72479 0.58875 0.71061
 C1463 C 0.72722 0.63741 0.69561
 C1464 C 0.75639 0.63959 0.70573
 C1465 C 0.76983 0.61686 0.71843
 C1466 C 0.75427 0.59172 0.72100
 H1467 H 0.71747 0.65583 0.68652
 H1468 H 0.76851 0.65912 0.70398
 H1469 H 0.79236 0.61878 0.72658
 H1470 H 0.76550 0.57496 0.73163
 H1471 H 0.64201 0.58318 0.68550
 H1472 H 0.66562 0.54308 0.70758
 C1473 C 0.69057 0.07337 0.17245
 C1474 C 0.68852 0.09981 0.18527
 C1475 C 0.69988 0.10353 0.21258
 C1476 C 0.71382 0.08201 0.22691
 C1477 C 0.71723 0.05619 0.21425
 C1478 C 0.70543 0.05150 0.18696
 C1479 C 0.67753 0.06790 0.14588
 C1480 C 0.67985 0.04184 0.13360
 C1481 C 0.69484 0.02068 0.14758
 C1482 C 0.70743 0.02531 0.17408
 H1483 H 0.66504 0.08347 0.13455
 H1484 H 0.66977 0.03799 0.11320
 H1485 H 0.69644 0.00048 0.13797
 H1486 H 0.71840 0.00817 0.18446
 H1487 H 0.69844 0.12351 0.22272
 H1488 H 0.72262 0.08570 0.24788
 C1489 C 0.22074 0.60813 0.20709
 C1490 C 0.19215 0.60435 0.19467
 C1491 C 0.17807 0.57824 0.19597
 C1492 C 0.19220 0.55573 0.20860
 C1493 C 0.22099 0.55863 0.21988
 C1494 C 0.23547 0.58503 0.21947
 C1495 C 0.23463 0.63458 0.20825
 C1496 C 0.26266 0.63813 0.22066
 C1497 C 0.27724 0.61553 0.23243
 C1498 C 0.26384 0.58926 0.23199
 H1499 H 0.22369 0.65281 0.20018
 H1500 H 0.27299 0.65856 0.22137
 H1501 H 0.29890 0.61842 0.24227
 H1502 H 0.27581 0.57250 0.24185
 H1503 H 0.15605 0.57522 0.18687
 H1504 H 0.18075 0.53578 0.20923
 C1505 C 0.17449 0.07689 0.67185
 C1506 C 0.17615 0.10329 0.68490
 C1507 C 0.19023 0.10587 0.71121
 C1508 C 0.20324 0.08315 0.72431
 C1509 C 0.20283 0.05721 0.71140
 C1510 C 0.18829 0.05372 0.68512
 C1511 C 0.15884 0.07281 0.64629
 C1512 C 0.15745 0.04670 0.63383
 C1513 C 0.17138 0.02420 0.64659
 C1514 C 0.18666 0.02756 0.67202
 H1515 H 0.14720 0.08956 0.63593
 H1516 H 0.14536 0.04388 0.61423
 H1517 H 0.17015 0.00399 0.63684
 H1518 H 0.19693 0.00952 0.68142
 H1519 H 0.19161 0.12583 0.72150
 H1520 H 0.21419 0.08593 0.74451
 C1521 C 0.34223 0.58104 0.32378
 C1522 C 0.32503 0.60538 0.32556
 C1523 C 0.29492 0.60450 0.31761
 C1524 C 0.28208 0.58043 0.30659
 C1525 C 0.29901 0.55655 0.30312
 C1526 C 0.32904 0.55641 0.31255
 C1527 C 0.37206 0.58046 0.33346
 C1528 C 0.38848 0.55619 0.33201
 C1529 C 0.37546 0.53206 0.32131
 C1530 C 0.34598 0.53208 0.31181
 H1531 H 0.38279 0.59854 0.34261
 H1532 H 0.41129 0.55601 0.33958
 H1533 H 0.38815 0.51318 0.32070
 H1534 H 0.33625 0.51283 0.30459
 H1535 H 0.28148 0.62292 0.31905
 H1536 H 0.25905 0.58082 0.29958
 C1537 C 0.32159 0.07669 0.82606
 C1538 C 0.30632 0.10226 0.82583
 C1539 C 0.27785 0.10360 0.81362
 C1540 C 0.26506 0.08060 0.80045
 C1541 C 0.28042 0.05563 0.79894
 C1542 C 0.30850 0.05321 0.81244
 C1543 C 0.34922 0.07373 0.84009
 C1544 C 0.36376 0.04837 0.84035
 C1545 C 0.35092 0.02544 0.82709
 C1546 C 0.32347 0.02773 0.81338
 H1547 H 0.35955 0.09075 0.85139
 H1548 H 0.38492 0.04640 0.85122
 H1549 H 0.36209 0.00572 0.82776
 H1550 H 0.31368 0.00933 0.80413
 H1551 H 0.26581 0.12292 0.81349
 H1552 H 0.24340 0.08260 0.79048
 C1553 C 0.82950 0.57802 0.82240
 C1554 C 0.81482 0.60385 0.82292
 C1555 C 0.78619 0.60604 0.81127
 C1556 C 0.77242 0.58341 0.79828
 C1557 C 0.78688 0.55797 0.79654
 C1558 C 0.81533 0.55487 0.80916
 C1559 C 0.85762 0.57450 0.83534
 C1560 C 0.87150 0.54882 0.83510
 C1561 C 0.85750 0.52614 0.82240
 C1562 C 0.82960 0.52903 0.80968
 H1563 H 0.86888 0.59136 0.84613
 H1564 H 0.89304 0.54641 0.84516
 H1565 H 0.86815 0.50616 0.82272
 H1566 H 0.81894 0.51084 0.80087
 H1567 H 0.77468 0.62563 0.81173
 H1568 H 0.75055 0.58598 0.78884
 C1569 C 0.83620 0.08192 0.32993
 C1570 C 0.81928 0.10648 0.33132
 C1571 C 0.79017 0.10657 0.32045
 C1572 C 0.77821 0.08334 0.30705
 C1573 C 0.79506 0.05938 0.30399
 C1574 C 0.82396 0.05819 0.31612
 C1575 C 0.86474 0.08020 0.34251
 C1576 C 0.88091 0.05576 0.34123
 C1577 C 0.86887 0.03256 0.32782
 C1578 C 0.84060 0.03364 0.31552
 H1579 H 0.87460 0.09746 0.35381
 H1580 H 0.90275 0.05472 0.35100
 H1581 H 0.88135 0.01354 0.32725
 H1582 H 0.83159 0.01501 0.30612
 H1583 H 0.77692 0.12514 0.32152
 H1584 H 0.75597 0.08441 0.29809
 C1585 C 0.65965 0.42599 0.31869
 C1586 C 0.67567 0.40150 0.32495
 C1587 C 0.70578 0.40006 0.31749
 C1588 C 0.71982 0.42178 0.30315
 C1589 C 0.70417 0.44556 0.29542
 C1590 C 0.67398 0.44815 0.30359
 C1591 C 0.62998 0.42929 0.32769
 C1592 C 0.61462 0.45354 0.32151
 C1593 C 0.62853 0.47506 0.30664
 C1594 C 0.65798 0.47257 0.29787
 H1595 H 0.61857 0.41343 0.33997
 H1596 H 0.59187 0.45576 0.32855
 H1597 H 0.61656 0.49394 0.30216
 H1598 H 0.66815 0.49011 0.28707
 H1599 H 0.71839 0.38156 0.32210
 H1600 H 0.74293 0.41957 0.29713
 C1601 C 0.67148 0.92384 0.82240
 C1602 C 0.68660 0.89853 0.82698
 C1603 C 0.71584 0.89586 0.81725
 C1604 C 0.72977 0.91719 0.80215
 C1605 C 0.71480 0.94178 0.79605
 C1606 C 0.68566 0.94561 0.80667
 C1607 C 0.64292 0.92829 0.83373
 C1608 C 0.62847 0.95336 0.82927
 C1609 C 0.64225 0.97456 0.81383
 C1610 C 0.67062 0.97090 0.80276
 H1611 H 0.63171 0.91271 0.84651
 H1612 H 0.60659 0.95646 0.83809
 H1613 H 0.63104 0.99408 0.81070
 H1614 H 0.68077 0.98822 0.79161
 H1615 H 0.72775 0.87674 0.82076
 H1616 H 0.75212 0.91411 0.79434
 C1617 C 0.20958 0.39350 0.80775
 C1618 C 0.18214 0.39965 0.82093
 C1619 C 0.17034 0.42627 0.81803
 C1620 C 0.18548 0.44693 0.80290
 C1621 C 0.21303 0.44166 0.79054
 C1622 C 0.22533 0.41479 0.79275
 C1623 C 0.22123 0.36641 0.80827
 C1624 C 0.24806 0.36065 0.79500
 C1625 C 0.26363 0.38154 0.78072
 C1626 C 0.25243 0.40833 0.77946
 H1627 H 0.20962 0.34931 0.81846
 H1628 H 0.25668 0.33981 0.79561
 H1629 H 0.28435 0.37691 0.77029
 H1630 H 0.26504 0.42372 0.76769
 H1631 H 0.14917 0.43106 0.82758
 H1632 H 0.17575 0.46731 0.80104
 C1633 C 0.21533 0.89491 0.30573
 C1634 C 0.18719 0.89875 0.31854
 C1635 C 0.17268 0.92409 0.31506
 C1636 C 0.18589 0.94584 0.29984
 C1637 C 0.21418 0.94300 0.28803
 C1638 C 0.22915 0.91734 0.29075
 C1639 C 0.22959 0.86895 0.30662
 C1640 C 0.25712 0.86540 0.29381
 C1641 C 0.27086 0.88740 0.27962
 C1642 C 0.25708 0.91306 0.27795
 H1643 H 0.21949 0.85098 0.31672
 H1644 H 0.26773 0.84539 0.29470
 H1645 H 0.29214 0.88447 0.26951
 H1646 H 0.26839 0.92921 0.26611
 H1647 H 0.15095 0.92708 0.32431
 H1648 H 0.17411 0.96519 0.29759
 C1649 C 0.37851 0.28021 0.70106
 C1650 C 0.38307 0.30756 0.69044
 C1651 C 0.41087 0.32074 0.69415
 C1652 C 0.43437 0.30702 0.70724
 C1653 C 0.43088 0.27958 0.71661
 C1654 C 0.40276 0.26593 0.71380
 C1655 C 0.35016 0.26700 0.70004
 C1656 C 0.34602 0.24013 0.71055
 C1657 C 0.36983 0.22600 0.72248
 C1658 C 0.39790 0.23869 0.72420
 H1659 H 0.33082 0.27739 0.69163
 H1660 H 0.32417 0.23031 0.70961
 H1661 H 0.36645 0.20519 0.73075
 H1662 H 0.41551 0.22705 0.73413
 H1663 H 0.41456 0.34172 0.68641
 H1664 H 0.45568 0.31770 0.70950
 C1665 C 0.41525 0.82142 0.16186
 C1666 C 0.38793 0.82167 0.17666
 C1667 C 0.38651 0.81088 0.20409
 C1668 C 0.41136 0.79887 0.21660
 C1669 C 0.43831 0.79736 0.20204
 C1670 C 0.44072 0.80932 0.17477
 C1671 C 0.41800 0.83352 0.13479
 C1672 C 0.44529 0.83383 0.12088
 C1673 C 0.47030 0.82240 0.13370
 C1674 C 0.46814 0.81030 0.16042
 H1675 H 0.39928 0.84318 0.12434
 H1676 H 0.44714 0.84329 0.10019
 H1677 H 0.49151 0.82321 0.12300
 H1678 H 0.48814 0.80237 0.17008
 H1679 H 0.36578 0.81124 0.21568
 H1680 H 0.40932 0.78999 0.23757
 C1681 C 0.91779 0.31652 0.17031
 C1682 C 0.89058 0.32018 0.18481
 C1683 C 0.88847 0.31223 0.21319
 C1684 C 0.91226 0.29973 0.22700
 C1685 C 0.93881 0.29464 0.21279
 C1686 C 0.94212 0.30361 0.18444
 C1687 C 0.92164 0.32604 0.14234
 C1688 C 0.94870 0.32269 0.12855
 C1689 C 0.97246 0.31013 0.14235
 C1690 C 0.96937 0.30075 0.17006
 H1691 H 0.90403 0.33651 0.13103
 H1692 H 0.95134 0.33012 0.10711
 H1693 H 0.99351 0.30787 0.13163
 H1694 H 0.98865 0.29175 0.18017
 H1695 H 0.86792 0.31515 0.22460
 H1696 H 0.90956 0.29315 0.24873
 C1697 C 0.88137 0.78475 0.69429
 C1698 C 0.88594 0.81153 0.68223
 C1699 C 0.91413 0.82436 0.68426
 C1700 C 0.93788 0.81088 0.69721
 C1701 C 0.93425 0.78403 0.70822
 C1702 C 0.90579 0.77080 0.70715
 C1703 C 0.85284 0.77189 0.69470
 C1704 C 0.84862 0.74572 0.70691
 C1705 C 0.87251 0.73199 0.71920
 C1706 C 0.90081 0.74436 0.71948
 H1707 H 0.83343 0.78203 0.68610
 H1708 H 0.82662 0.73615 0.70706
 H1709 H 0.86905 0.71178 0.72885
 H1710 H 0.91853 0.73314 0.72977
 H1711 H 0.91784 0.84493 0.67545
 H1712 H 0.95941 0.82134 0.69831
 C1713 C 0.57480 0.31417 0.33468
 C1714 C 0.60146 0.32298 0.32108
 C1715 C 0.60562 0.31665 0.29266
 C1716 C 0.58453 0.30106 0.27792
 C1717 C 0.55876 0.29088 0.29116
 C1718 C 0.55328 0.29789 0.31961
 C1719 C 0.56861 0.32189 0.36265
 C1720 C 0.54211 0.31347 0.37558
 C1721 C 0.52113 0.29760 0.36089
 C1722 C 0.52645 0.28999 0.33313
 H1723 H 0.58386 0.33488 0.37459
 H1724 H 0.53768 0.31957 0.39702
 H1725 H 0.50044 0.29143 0.37095
 H1726 H 0.50911 0.27835 0.32233
 H1727 H 0.62577 0.32334 0.28191
 H1728 H 0.58875 0.29638 0.25606
 C1729 C 0.58043 0.81874 0.84465
 C1730 C 0.60701 0.82456 0.82942
 C1731 C 0.60867 0.81690 0.80108
 C1732 C 0.58505 0.80307 0.78795
 C1733 C 0.55911 0.79604 0.80278
 C1734 C 0.55639 0.80408 0.83129
 C1735 C 0.57679 0.82790 0.87258
 C1736 C 0.55054 0.82210 0.88724
 C1737 C 0.52726 0.80754 0.87430
 C1738 C 0.52995 0.79876 0.84654
 H1739 H 0.59385 0.84003 0.88316
 H1740 H 0.54814 0.82921 0.90866
 H1741 H 0.50684 0.80334 0.88573
 H1742 H 0.51097 0.78821 0.83710
 H1743 H 0.62871 0.82125 0.78909
 H1744 H 0.58735 0.79718 0.76609
 C1745 C 0.06923 0.32561 0.83738
 C1746 C 0.09623 0.33315 0.82361
 C1747 C 0.10002 0.32601 0.79533
 C1748 C 0.07838 0.31074 0.78101
 C1749 C 0.05243 0.30148 0.79456
 C1750 C 0.04721 0.30945 0.82278
 C1751 C 0.06327 0.33435 0.86505
 C1752 C 0.03655 0.32698 0.87821
 C1753 C 0.01514 0.31113 0.86401
 C1754 C 0.02022 0.30255 0.83651
 H1755 H 0.07890 0.34736 0.87655
 H1756 H 0.03228 0.33386 0.89943
 H1757 H -0.00569 0.30575 0.87425
 H1758 H 0.00260 0.29096 0.82605
 H1759 H 0.12044 0.33151 0.78439
 H1760 H 0.08243 0.30537 0.75931
 C1761 C 0.08093 0.81861 0.33887
 C1762 C 0.10731 0.82584 0.32398
 C1763 C 0.11026 0.81757 0.29592
 C1764 C 0.08818 0.80168 0.28279
 C1765 C 0.06256 0.79318 0.29737
 C1766 C 0.05844 0.80197 0.32553
 C1767 C 0.07602 0.82816 0.36647
 C1768 C 0.04988 0.82111 0.38077
 C1769 C 0.02802 0.80478 0.36782
 C1770 C 0.03208 0.79539 0.34044
 H1771 H 0.09203 0.84151 0.37706
 H1772 H 0.04644 0.82860 0.40191
 H1773 H 0.00765 0.79960 0.37894
 H1774 H 0.01419 0.78334 0.33104
 H1775 H 0.13026 0.82287 0.28423
 H1776 H 0.09149 0.79533 0.26120
 C1777 C 0.57670 0.67078 0.69627
 C1778 C 0.60459 0.68412 0.69117
 C1779 C 0.60923 0.71156 0.69987
 C1780 C 0.58715 0.72562 0.71417
 C1781 C 0.55989 0.71256 0.72048
 C1782 C 0.55423 0.68504 0.71123
 C1783 C 0.57029 0.64389 0.68603
 C1784 C 0.54260 0.63122 0.69075
 C1785 C 0.52072 0.64505 0.70550
 C1786 C 0.52634 0.67169 0.71563
 H1787 H 0.58635 0.63258 0.67392
 H1788 H 0.53800 0.61064 0.68271
 H1789 H 0.49916 0.63521 0.70888
 H1790 H 0.50841 0.68178 0.72641
 H1791 H 0.63031 0.72208 0.69579
 H1792 H 0.59157 0.74674 0.72083
 C1793 C 0.62200 0.20810 0.19109
 C1794 C 0.61816 0.17954 0.18457
 C1795 C 0.59132 0.16596 0.19149
 C1796 C 0.56823 0.18016 0.20410
 C1797 C 0.57099 0.20852 0.20987
 C1798 C 0.59808 0.22279 0.20348
 C1799 C 0.64944 0.22220 0.18646
 C1800 C 0.65294 0.25020 0.19303
 C1801 C 0.62948 0.26459 0.20473
 C1802 C 0.60238 0.25108 0.21012
 H1803 H 0.66861 0.21173 0.17824
 H1804 H 0.67407 0.26071 0.18926
 H1805 H 0.63240 0.28627 0.21000
 H1806 H 0.58510 0.26296 0.21982
 H1807 H 0.58810 0.14415 0.18682
 H1808 H 0.54776 0.16896 0.20906
 C1809 C 0.08456 0.66131 0.19806
 C1810 C 0.11188 0.67532 0.19203
 C1811 C 0.11532 0.70338 0.19902
 C1812 C 0.09263 0.71749 0.21233
 C1813 C 0.06587 0.70394 0.21935
 C1814 C 0.06138 0.67572 0.21193
 C1815 C 0.07937 0.63356 0.18979
 C1816 C 0.05223 0.62022 0.19544
 C1817 C 0.02964 0.63425 0.20901
 C1818 C 0.03398 0.66177 0.21706
 H1819 H 0.09595 0.62207 0.17853
 H1820 H 0.04859 0.59895 0.18897
 H1821 H 0.00851 0.62385 0.21305
 H1822 H 0.01552 0.67202 0.22687
 H1823 H 0.13599 0.71441 0.19443
 H1824 H 0.09620 0.73912 0.21764
 C1825 C 0.11593 0.21506 0.69641
 C1826 C 0.11130 0.18656 0.69000
 C1827 C 0.08443 0.17345 0.69768
 C1828 C 0.06197 0.18809 0.71069
 C1829 C 0.06532 0.21649 0.71596
 C1830 C 0.09253 0.23025 0.70904
 C1831 C 0.14358 0.22862 0.69137
 C1832 C 0.14773 0.25662 0.69766
 C1833 C 0.12470 0.27154 0.70945
 C1834 C 0.09743 0.25854 0.71529
 H1835 H 0.16241 0.21770 0.68306
 H1836 H 0.16901 0.26672 0.69358
 H1837 H 0.12811 0.29323 0.71446
 H1838 H 0.08046 0.27077 0.72502
 H1839 H 0.08058 0.15170 0.69311
 H1840 H 0.04143 0.17725 0.71611
 C1841 C 0.42628 0.68683 0.32353
 C1842 C 0.39744 0.68386 0.31142
 C1843 C 0.39211 0.69390 0.28414
 C1844 C 0.41449 0.70783 0.26922
 C1845 C 0.44266 0.71243 0.28133
 C1846 C 0.44899 0.70157 0.30853
 C1847 C 0.43324 0.67487 0.34996
 C1848 C 0.46168 0.67793 0.36166
 C1849 C 0.48377 0.69266 0.34718
 C1850 C 0.47763 0.70433 0.32085
 H1851 H 0.41700 0.66257 0.36152
 H1852 H 0.46667 0.66863 0.38194
 H1853 H 0.50588 0.69479 0.35625
 H1854 H 0.49567 0.71509 0.31017
 H1855 H 0.37025 0.69143 0.27456
 H1856 H 0.40953 0.71583 0.24833
 C1857 C 0.41412 0.16313 0.82380
 C1858 C 0.38595 0.17606 0.82253
 C1859 C 0.38335 0.20192 0.80914
 C1860 C 0.40784 0.21472 0.79644
 C1861 C 0.43564 0.20198 0.79654
 C1862 C 0.43922 0.17633 0.81080
 C1863 C 0.41818 0.13787 0.83849
 C1864 C 0.44625 0.12590 0.84022
 C1865 C 0.47080 0.13901 0.82780
 C1866 C 0.46741 0.16407 0.81332
 H1867 H 0.39992 0.12741 0.84913
 H1868 H 0.44906 0.10657 0.85162
 H1869 H 0.49261 0.12989 0.82973
 H1870 H 0.48703 0.17419 0.80478
 H1871 H 0.36203 0.21219 0.80831
 H1872 H 0.40498 0.23464 0.78612
 C1873 C 0.92036 0.66428 0.81499
 C1874 C 0.89343 0.67851 0.81996
 C1875 C 0.89096 0.70624 0.81129
 C1876 C 0.91417 0.71972 0.79716
 C1877 C 0.94043 0.70580 0.79093
 C1878 C 0.94391 0.67795 0.80004
 C1879 C 0.92475 0.63705 0.82525
 C1880 C 0.95132 0.62335 0.82022
 C1881 C 0.97415 0.63656 0.80531
 C1882 C 0.97066 0.66364 0.79544
 H1883 H 0.90803 0.62629 0.83764
 H1884 H 0.95431 0.60246 0.82817
 H1885 H 0.99482 0.62590 0.80167
 H1886 H 0.98924 0.67332 0.78459
 H1887 H 0.87063 0.71743 0.81508
 H1888 H 0.91128 0.74103 0.79035
 C1889 C 0.92126 0.18922 0.33934
 C1890 C 0.89352 0.18433 0.32562
 C1891 C 0.88998 0.19213 0.29733
 C1892 C 0.91298 0.20543 0.28277
 C1893 C 0.94020 0.21146 0.29609
 C1894 C 0.94485 0.20288 0.32442
 C1895 C 0.92636 0.18013 0.36728
 C1896 C 0.95400 0.18447 0.38025
 C1897 C 0.97709 0.19764 0.36564
 C1898 C 0.97272 0.20671 0.33799
 H1899 H 0.90926 0.16927 0.37919
 H1900 H 0.95762 0.17732 0.40165
 H1901 H 0.99860 0.20065 0.37573
 H1902 H 0.99152 0.21623 0.32728
 H1903 H 0.86898 0.18825 0.28654
 H1904 H 0.90925 0.21166 0.26107
 C1905 C 0.27862 0.30085 0.61412
 C1906 C 0.30814 0.31172 0.61246
 C1907 C 0.32432 0.30886 0.58755
 C1908 C 0.31166 0.29577 0.56424
 C1909 C 0.28238 0.28534 0.56508
 C1910 C 0.26559 0.28759 0.59021
 C1911 C 0.26217 0.30193 0.63937
 C1912 C 0.23349 0.29045 0.64096
 C1913 C 0.22077 0.27748 0.61766
 C1914 C 0.23659 0.27591 0.59255
 H1915 H 0.27138 0.31125 0.65822
 H1916 H 0.22119 0.29140 0.66047
 H1917 H 0.19862 0.26834 0.61911
 H1918 H 0.22596 0.26513 0.57527
 H1919 H 0.34702 0.31676 0.58621
 H1920 H 0.32484 0.29374 0.54533
 C1921 C 0.27521 0.80268 0.11087
 C1922 C 0.30402 0.81472 0.10746
 C1923 C 0.31874 0.81227 0.08170
 C1924 C 0.30526 0.79850 0.05923
 C1925 C 0.27650 0.78711 0.06171
 C1926 C 0.26115 0.78899 0.08773
 C1927 C 0.26055 0.80300 0.13713
 C1928 C 0.23257 0.79048 0.14044
 C1929 C 0.21870 0.77733 0.11783
 C1930 C 0.23273 0.77652 0.09175
 H1931 H 0.27073 0.81245 0.15547
 H1932 H 0.22169 0.79079 0.16073
 H1933 H 0.19708 0.76740 0.12059
 H1934 H 0.22127 0.76545 0.07517
 H1935 H 0.34090 0.82114 0.07899
 H1936 H 0.31738 0.79676 0.03966
 C1937 C 0.78064 0.30096 0.11532
 C1938 C 0.80898 0.31420 0.11273
 C1939 C 0.82426 0.31295 0.08715
 C1940 C 0.81178 0.29932 0.06408
 C1941 C 0.78356 0.28664 0.06582
 C1942 C 0.76781 0.28702 0.09168
 C1943 C 0.76523 0.30040 0.14120
 C1944 C 0.73782 0.28659 0.14371
 C1945 C 0.72538 0.27283 0.12072
 C1946 C 0.74018 0.27288 0.09498
 H1947 H 0.77437 0.31023 0.15980
 H1948 H 0.72631 0.28629 0.16369
 H1949 H 0.70427 0.26184 0.12291
 H1950 H 0.72993 0.26136 0.07797
 H1951 H 0.84607 0.32273 0.08503
 H1952 H 0.82422 0.29878 0.04460
 C1953 C 0.77774 0.80492 0.61051
 C1954 C 0.80743 0.81504 0.60731
 C1955 C 0.82224 0.81110 0.58181
 C1956 C 0.80806 0.79773 0.55942
 C1957 C 0.77857 0.78808 0.56178
 C1958 C 0.76315 0.79140 0.58753
 C1959 C 0.76260 0.80700 0.63641
 C1960 C 0.73372 0.79633 0.63949
 C1961 C 0.71948 0.78314 0.61708
 C1962 C 0.73399 0.78053 0.59138
 H1963 H 0.77299 0.81647 0.65463
 H1964 H 0.72243 0.79807 0.65948
 H1965 H 0.69718 0.77464 0.61970
 H1966 H 0.72222 0.76960 0.57484
 H1967 H 0.84504 0.81841 0.57927
 H1968 H 0.82021 0.79490 0.54002
 C1969 C 0.34645 0.69671 0.41405
 C1970 C 0.32753 0.68464 0.39321
 C1971 C 0.29661 0.68645 0.39620
 C1972 C 0.28429 0.70041 0.41867
 C1973 C 0.30228 0.71434 0.43845
 C1974 C 0.33392 0.71273 0.43613
 C1975 C 0.37755 0.69248 0.41390
 C1976 C 0.39623 0.70542 0.43344
 C1977 C 0.38433 0.72235 0.45388
 C1978 C 0.35360 0.72575 0.45554
 H1979 H 0.38772 0.67872 0.39911
 H1980 H 0.42004 0.70217 0.43280
 H1981 H 0.39897 0.73241 0.46901
 H1982 H 0.34598 0.73847 0.47243
 H1983 H 0.28169 0.67728 0.38071
 H1984 H 0.26021 0.70095 0.42008
 C1985 C 0.29414 0.21236 0.88566
 C1986 C 0.30206 0.18422 0.88989
 C1987 C 0.29673 0.17145 0.91603
 C1988 C 0.28495 0.18634 0.93824
 C1989 C 0.27873 0.21456 0.93514
 C1990 C 0.28301 0.22784 0.90864
 C1991 C 0.29636 0.22526 0.85889
 C1992 C 0.28866 0.25294 0.85506
 C1993 C 0.27848 0.26826 0.87764
 C1994 C 0.27563 0.25594 0.90417
 H1995 H 0.30349 0.21400 0.84058
 H1996 H 0.29044 0.26251 0.83441
 H1997 H 0.27237 0.28971 0.87451
 H1998 H 0.26695 0.26855 0.92083
 H1999 H 0.30246 0.14993 0.91948
 H2000 H 0.28147 0.17594 0.95830
 C2001 C 0.83565 0.67975 0.92258
 C2002 C 0.81855 0.67637 0.89756
 C2003 C 0.78913 0.68566 0.89664
 C2004 C 0.77696 0.69936 0.91943
 C2005 C 0.79390 0.70438 0.94377
 C2006 C 0.82325 0.69397 0.94586
 C2007 C 0.86453 0.66872 0.92525
 C2008 C 0.88095 0.67196 0.95007
 C2009 C 0.86887 0.68585 0.97278
 C2010 C 0.84026 0.69664 0.97087
 H2011 H 0.87450 0.65711 0.90844
 H2012 H 0.90305 0.66337 0.95180
 H2013 H 0.88159 0.68802 0.99211
 H2014 H 0.83149 0.70655 0.98933
 H2015 H 0.77573 0.68299 0.87776
 H2016 H 0.75442 0.70700 0.91766
 C2017 C 0.78276 0.19655 0.39298
 C2018 C 0.81206 0.18653 0.39697
 C2019 C 0.82663 0.19061 0.42281
 C2020 C 0.81242 0.20377 0.44488
 C2021 C 0.78312 0.21300 0.44187
 C2022 C 0.76807 0.20977 0.41565
 C2023 C 0.76811 0.19456 0.36662
 C2024 C 0.73961 0.20511 0.36274
 C2025 C 0.72523 0.21796 0.38485
 C2026 C 0.73922 0.22035 0.41103
 H2027 H 0.77866 0.18531 0.34864
 H2028 H 0.72872 0.20353 0.34240
 H2029 H 0.70322 0.22638 0.38164
 H2030 H 0.72734 0.23105 0.42727
 H2031 H 0.84915 0.18333 0.42595
 H2032 H 0.82430 0.20656 0.46462
 C2033 C 0.71013 0.31393 0.39170
 C2034 C 0.68080 0.32398 0.39497
 C2035 C 0.66580 0.31954 0.42041
 C2036 C 0.67952 0.30583 0.44276
 C2037 C 0.70876 0.29643 0.44044
 C2038 C 0.72434 0.30019 0.41471
 C2039 C 0.72524 0.31632 0.36574
 C2040 C 0.75376 0.30573 0.36262
 C2041 C 0.76769 0.29242 0.38509
 C2042 C 0.75323 0.28959 0.41088
 H2043 H 0.71505 0.32592 0.34748
 H2044 H 0.76500 0.30764 0.34257
 H2045 H 0.78972 0.28398 0.38246
 H2046 H 0.76475 0.27855 0.42744
 H2047 H 0.64322 0.32677 0.42295
 H2048 H 0.66724 0.30265 0.46213
 C2049 C 0.67434 0.82195 0.92844
 C2050 C 0.68848 0.82517 0.90194
 C2051 C 0.71729 0.81506 0.89827
 C2052 C 0.73165 0.80074 0.91986
 C2053 C 0.71752 0.79590 0.94566
 C2054 C 0.68893 0.80707 0.95047
 C2055 C 0.64634 0.83376 0.93373
 C2056 C 0.63286 0.83070 0.95998
 C2057 C 0.64706 0.81614 0.98149
 C2058 C 0.67486 0.80449 0.97693
 H2059 H 0.63489 0.84587 0.91787
 H2060 H 0.61140 0.83992 0.96373
 H2061 H 0.63663 0.81409 1.00192
 H2062 H 0.68533 0.79394 0.99448
 H2063 H 0.72844 0.81764 0.87821
 H2064 H 0.75360 0.79252 0.91605
 C2065 C 0.18433 0.29800 0.89170
 C2066 C 0.17693 0.32625 0.89545
 C2067 C 0.18370 0.33921 0.92104
 C2068 C 0.19691 0.32453 0.94310
 C2069 C 0.20300 0.29628 0.94046
 C2070 C 0.19668 0.28268 0.91462
 C2071 C 0.18068 0.28487 0.86534
 C2072 C 0.18787 0.25709 0.86195
 C2073 C 0.19900 0.24188 0.88456
 C2074 C 0.20344 0.25443 0.91060
 H2075 H 0.17284 0.29599 0.84694
 H2076 H 0.18495 0.24737 0.84163
 H2077 H 0.20469 0.22033 0.88180
 H2078 H 0.21286 0.24185 0.92719
 H2079 H 0.17857 0.36088 0.92399
 H2080 H 0.20208 0.33520 0.96256
 C2081 C 0.20466 0.80023 0.38758
 C2082 C 0.19092 0.82585 0.39331
 C2083 C 0.19328 0.83720 0.42032
 C2084 C 0.20796 0.82302 0.44194
 C2085 C 0.22042 0.79705 0.43714
 C2086 C 0.21930 0.78563 0.40972
 C2087 C 0.20464 0.78903 0.36015
 C2088 C 0.21832 0.76386 0.35482
 C2089 C 0.23243 0.74949 0.37650
 C2090 C 0.23306 0.76025 0.40366
 H2091 H 0.19446 0.79973 0.34252
 H2092 H 0.21813 0.75555 0.33370
 H2093 H 0.24319 0.73004 0.37221
 H2094 H 0.24472 0.74872 0.41975
 H2095 H 0.18318 0.85694 0.42479
 H2096 H 0.20896 0.83205 0.46275
 C2097 C 0.65465 0.68599 0.58618
 C2098 C 0.67361 0.67848 0.60899
 C2099 C 0.70438 0.68321 0.60667
 C2100 C 0.71646 0.69582 0.58283
 C2101 C 0.69822 0.70496 0.56066
 C2102 C 0.66685 0.70021 0.56225
 C2103 C 0.62391 0.67912 0.58635
 C2104 C 0.60527 0.68738 0.56438
 C2105 C 0.61683 0.70232 0.54169
 C2106 C 0.64725 0.70854 0.54045
 H2107 H 0.61401 0.66693 0.60319
 H2108 H 0.58172 0.68212 0.56493
 H2109 H 0.60221 0.70882 0.52473
 H2110 H 0.65490 0.71979 0.52215
 H2111 H 0.71925 0.67766 0.62382
 H2112 H 0.74037 0.69941 0.58218
 C2113 C 0.67174 0.17086 0.07974
 C2114 C 0.68877 0.16760 0.10478
 C2115 C 0.71875 0.17617 0.10520
 C2116 C 0.73149 0.18940 0.08195
 C2117 C 0.71459 0.19457 0.05764
 C2118 C 0.68476 0.18446 0.05595
 C2119 C 0.64217 0.16053 0.07770
 C2120 C 0.62576 0.16372 0.05288
 C2121 C 0.63850 0.17693 0.02960
 C2122 C 0.66774 0.18710 0.03096
 H2123 H 0.63166 0.14956 0.09506
 H2124 H 0.60313 0.15567 0.05161
 H2125 H 0.62575 0.17906 0.01029
 H2126 H 0.67699 0.19650 0.01212
 H2127 H 0.73206 0.17369 0.12415
 H2128 H 0.75431 0.19697 0.08353
 C2129 C 0.21677 0.68761 0.11731
 C2130 C 0.18850 0.67405 0.11632
 C2131 C 0.17247 0.67335 0.09092
 C2132 C 0.18413 0.68550 0.06654
 C2133 C 0.21243 0.69817 0.06671
 C2134 C 0.22915 0.69925 0.09221
 C2135 C 0.23248 0.69086 0.14297
 C2136 C 0.26012 0.70443 0.14383
 C2137 C 0.27257 0.71522 0.11926
 C2138 C 0.25733 0.71276 0.09372
 H2139 H 0.22328 0.68356 0.16267
 H2140 H 0.27182 0.70678 0.16370
 H2141 H 0.29395 0.72594 0.12005
 H2142 H 0.26770 0.72210 0.07546
 H2143 H 0.15065 0.66342 0.09002
 H2144 H 0.17095 0.68500 0.04734
 C2145 C 0.15943 0.18234 0.58378
 C2146 C 0.17751 0.17386 0.60682
 C2147 C 0.20848 0.17738 0.60522
 C2148 C 0.22161 0.19019 0.58199
 C2149 C 0.20426 0.20048 0.55970
 C2150 C 0.17274 0.19634 0.56027
 C2151 C 0.12842 0.17671 0.58340
 C2152 C 0.11068 0.18554 0.56099
 C2153 C 0.12341 0.19985 0.53844
 C2154 C 0.15405 0.20510 0.53791
 H2155 H 0.11765 0.16505 0.60014
 H2156 H 0.08694 0.18112 0.56104
 H2157 H 0.10953 0.20656 0.52102
 H2158 H 0.16260 0.21568 0.51952
 H2159 H 0.22264 0.17099 0.62259
 H2160 H 0.24562 0.19316 0.58203
   
