data_POSCAR
  _audit_creation_date              2014-09-24
  _audit_creation_method            'ToBaCCo'
  _symmetry_space_group_name_H-M    'P1'
  _symmetry_Int_Tables_number       1
  _symmetry_cell_setting            triclinic
  loop_
  _symmetry_equiv_pos_as_xyz
 x,y,z
_cell_length_a 50.8097
_cell_length_b 49.9681
_cell_length_c 54.1629
_cell_angle_alpha 89.148600
_cell_angle_beta 88.999200
_cell_angle_gamma 89.934800
loop_
  _atom_site_label
  _atom_site_type_symbol
  _atom_site_fract_x
  _atom_site_fract_y
  _atom_site_fract_z
C1 C 0.17473 0.21178 0.21731
 N2 N 0.19098 0.19093 0.22243
 C3 C 0.21202 0.18552 0.20755
 N4 N 0.21680 0.20125 0.18729
 C5 C 0.20068 0.22219 0.18187
 N6 N 0.17968 0.22734 0.19698
 C7 C 0.67951 0.72477 0.72855
 N8 N 0.68449 0.74204 0.70947
 C9 C 0.70474 0.73759 0.69336
 N10 N 0.72042 0.71585 0.69680
 C11 C 0.71581 0.69851 0.71596
 N12 N 0.69513 0.70295 0.73164
 C13 C 0.29929 0.77832 0.73011
 N14 N 0.28297 0.79980 0.73211
 C15 C 0.26417 0.80455 0.71494
 N16 N 0.26244 0.78783 0.69541
 C17 C 0.27889 0.76656 0.69302
 N18 N 0.29705 0.76178 0.71060
 C19 C 0.81058 0.27360 0.22530
 N20 N 0.80573 0.25747 0.20594
 C21 C 0.78580 0.26289 0.19020
 N22 N 0.77061 0.28501 0.19384
 C23 C 0.77530 0.30147 0.21308
 N24 N 0.79520 0.29553 0.22867
 C25 C 0.82266 0.71083 0.28436
 N26 N 0.81930 0.72684 0.30422
 C27 C 0.79707 0.72532 0.31845
 N28 N 0.77806 0.70742 0.31277
 C29 C 0.78133 0.69091 0.29320
 N30 N 0.80363 0.69281 0.27906
 C31 C 0.31816 0.20580 -0.24413
 N32 N 0.31567 0.22173 -0.22409
 C33 C 0.29602 0.21773 -0.20716
 N34 N 0.27864 0.19749 -0.21033
 C35 C 0.28077 0.18123 -0.23019
 N36 N 0.30061 0.18559 -0.24698
 C37 C 0.69728 0.30284 -0.22401
 N38 N 0.71512 0.32304 -0.22507
 C39 C 0.73390 0.32524 -0.20763
 N40 N 0.73457 0.30682 -0.18891
 C41 C 0.71670 0.28659 -0.18748
 N42 N 0.69816 0.28470 -0.20513
 C43 C 0.18695 0.78518 0.27941
 N44 N 0.20252 0.80635 0.27300
 C45 C 0.22338 0.81310 0.28699
 N46 N 0.22839 0.79840 0.30769
 C47 C 0.21291 0.77735 0.31452
 N48 N 0.19223 0.77079 0.30025
 C49 C 0.47688 0.45350 0.47546
 N50 N 0.45613 0.47053 0.47715
 C51 C 0.45157 0.48905 0.45914
 N52 N 0.46811 0.49046 0.43915
 C53 C 0.48898 0.47350 0.43713
 N54 N 0.49321 0.45507 0.45537
 C55 C -0.04630 -0.07175 0.98373
 N56 N -0.02897 -0.06760 0.96470
 C57 C -0.03237 -0.04694 0.94842
 N58 N -0.05338 -0.03025 0.95143
 C59 C -0.07103 -0.03430 0.97034
 N60 N -0.06723 -0.05514 0.98627
 C61 C 1.04625 0.55670 0.97058
 N62 N 1.03104 0.55278 0.95055
 C63 C 1.03507 0.53135 0.93580
 N64 N 1.05481 0.51386 0.94094
 C65 C 1.07059 0.51786 0.96055
 N66 N 1.06605 0.53916 0.97531
 C67 C 0.53177 0.06841 0.47490
 N68 N 0.55123 0.04995 0.47750
 C69 C 0.55353 0.02924 0.46152
 N70 N 0.53626 0.02754 0.44269
 C71 C 0.51723 0.04630 0.43954
 N72 N 0.51498 0.06658 0.45578
 C73 C -0.04492 0.06714 0.53886
 N74 N -0.02632 0.06281 0.55620
 C75 C -0.02802 0.04116 0.57168
 N76 N -0.04811 0.02349 0.56915
 C77 C -0.06670 0.02745 0.55170
 N78 N -0.06506 0.04956 0.53687
 C79 C 0.45744 0.55686 0.03012
 N80 N 0.47333 0.55237 0.04972
 C81 C 0.47036 0.53009 0.06413
 N82 N 0.45095 0.51247 0.05913
 C83 C 0.43481 0.51670 0.03975
 N84 N 0.43828 0.53880 0.02509
 C85 C 0.53262 -0.06703 0.02695
 N86 N 0.55049 -0.04759 0.02071
 C87 C 0.55340 -0.02588 0.03541
 N88 N 0.53820 -0.02367 0.05619
 C89 C 0.52031 -0.04276 0.06248
 N90 N 0.51777 -0.06429 0.04787
 C91 C 1.03336 0.43100 0.52837
 N92 N 1.01792 0.43612 0.54850
 C93 C 1.02376 0.45638 0.56393
 N94 N 1.04549 0.47154 0.55920
 C95 C 1.06126 0.46660 0.53927
 N96 N 1.05500 0.44642 0.52391
 C97 C 0.42032 0.01887 0.21744
 H98 H 0.41842 0.03816 0.22611
 C99 C 0.43843 0.01542 0.19810
 H100 H 0.44999 0.03240 0.19168
 C101 C 0.40690 -0.02639 0.21510
 H102 H 0.39501 -0.04279 0.22215
 C103 C 0.42506 -0.03086 0.19598
 H104 H 0.42681 -0.05076 0.18851
 N105 N 0.40450 -0.00168 0.22506
 C106 C 0.33990 0.04273 0.25962
 H107 H 0.33880 0.03328 0.27771
 C108 C 0.32296 0.06387 0.25387
 H109 H 0.30940 0.07099 0.26793
 C110 C 0.35886 0.04468 0.21939
 H111 H 0.37229 0.03668 0.20572
 C112 C 0.34212 0.06562 0.21276
 H113 H 0.34307 0.07348 0.19404
 Zn114 Zn 0.38026 0.00507 0.25114
 N115 N 0.35783 0.03399 0.24264
 C116 C 0.39638 0.03286 0.29468
 N117 N 0.40057 0.01202 0.27922
 C118 C 0.41975 -0.00632 0.28358
 C119 C 0.43530 -0.00453 0.30439
 C120 C 0.41113 0.03508 0.31611
 C121 C 0.34488 -0.03627 0.23959
 C122 C 0.32915 -0.05874 0.24441
 C123 C 0.34114 -0.05673 0.28731
 C124 C 0.35705 -0.03473 0.28155
 N125 N 0.35887 -0.02515 0.25797
 H126 H 0.38130 0.04747 0.29078
 H127 H 0.42278 -0.02259 0.27089
 H128 H 0.45070 -0.01921 0.30709
 H129 H 0.40670 0.05118 0.32866
 H130 H 0.34632 -0.02794 0.22106
 H131 H 0.31900 -0.06783 0.22928
 H132 H 0.33961 -0.06351 0.30634
 H133 H 0.36764 -0.02510 0.29607
 C134 C 0.32399 0.07570 0.23015
 C135 C 0.44086 -0.00968 0.18692
 C136 C 0.32714 -0.06936 0.26859
 C137 C 0.43080 0.01605 0.32135
 C138 C 0.07790 -0.01929 0.72300
 H139 H 0.08088 -0.03847 0.73205
 C140 C 0.06130 -0.01730 0.70279
 H141 H 0.05194 -0.03521 0.69618
 C142 C 0.08672 0.02723 0.72071
 H143 H 0.09607 0.04466 0.72819
 C144 C 0.07010 0.03017 0.70055
 H145 H 0.06697 0.04994 0.69270
 N146 N 0.09053 0.00270 0.73131
 C147 C 0.14811 -0.04107 0.77501
 H148 H 0.14396 -0.03294 0.79306
 C149 C 0.16649 -0.06170 0.77243
 H150 H 0.17566 -0.06977 0.78881
 C151 C 0.14096 -0.04022 0.73194
 H152 H 0.13152 -0.03125 0.71612
 C153 C 0.15962 -0.06044 0.72844
 H154 H 0.16419 -0.06670 0.70981
 Zn155 Zn 0.11203 -0.00189 0.75934
 N156 N 0.13536 -0.03117 0.75499
 C157 C 0.08596 -0.03181 0.79796
 N158 N 0.08900 -0.00735 0.78692
 C159 C 0.07451 0.01402 0.79444
 C160 C 0.05677 0.01153 0.81433
 C161 C 0.06830 -0.03526 0.81783
 C162 C 0.14697 0.03855 0.74399
 C163 C 0.16399 0.06021 0.74646
 C164 C 0.15428 0.05980 0.79027
 C165 C 0.13697 0.03852 0.78685
 N166 N 0.13350 0.02850 0.76394
 H167 H 0.09683 -0.04882 0.79109
 H168 H 0.07692 0.03314 0.78505
 H169 H 0.04598 0.02901 0.82035
 H170 H 0.06591 -0.05498 0.82610
 H171 H 0.14440 0.02975 0.72607
 H172 H 0.17374 0.06832 0.73010
 H173 H 0.15726 0.06685 0.80881
 H174 H 0.12690 0.02952 0.80263
 C175 C 0.17262 -0.07167 0.74886
 C176 C 0.05714 0.00771 0.69126
 C177 C 0.16807 0.07107 0.76990
 C178 C 0.05347 -0.01337 0.82638
 C179 C 0.58385 0.49587 0.21117
 H180 H 0.58017 0.47904 0.22354
 C181 C 0.56650 0.50141 0.19207
 H182 H 0.54931 0.48887 0.19025
 C183 C 0.61013 0.53324 0.19961
 H184 H 0.62688 0.54590 0.20280
 C185 C 0.59356 0.53922 0.17994
 H186 H 0.59836 0.55605 0.16790
 N187 N 0.60523 0.51162 0.21453
 C188 C 0.66076 0.45960 0.25275
 H189 H 0.66234 0.46976 0.27016
 C190 C 0.67509 0.43618 0.24858
 H191 H 0.68724 0.42824 0.26319
 C192 C 0.64260 0.45766 0.21284
 H193 H 0.63022 0.46634 0.19881
 C194 C 0.65684 0.43436 0.20778
 H195 H 0.65530 0.42549 0.18975
 Zn196 Zn 0.62673 0.50219 0.24158
 N197 N 0.64474 0.46972 0.23507
 C198 C 0.60140 0.47481 0.28216
 N199 N 0.60396 0.49844 0.26956
 C200 C 0.58947 0.52023 0.27598
 C201 C 0.57221 0.51907 0.29629
 C202 C 0.58421 0.47270 0.30253
 C203 C 0.67027 0.53496 0.22903
 C204 C 0.68922 0.55476 0.23244
 C205 C 0.67215 0.56070 0.27388
 C206 C 0.65337 0.54102 0.26957
 N207 N 0.65242 0.52892 0.24727
 H208 H 0.61243 0.45746 0.27633
 H209 H 0.59160 0.53866 0.26541
 H210 H 0.56144 0.53690 0.30143
 H211 H 0.58224 0.45364 0.31214
 H212 H 0.66957 0.52457 0.21167
 H213 H 0.70266 0.55980 0.21736
 H214 H 0.67269 0.56974 0.29190
 H215 H 0.63977 0.53527 0.28423
 C216 C 0.67343 0.42327 0.22576
 C217 C 0.57133 0.52321 0.17590
 C218 C 0.69026 0.56809 0.25510
 C219 C 0.56942 0.49508 0.30995
 C220 C 0.92755 0.53136 0.71649
 H221 H 0.92666 0.55095 0.72469
 C222 C 0.94514 0.52654 0.69693
 H223 H 0.95738 0.54275 0.68991
 C224 C 0.91228 0.48663 0.71556
 H225 H 0.89994 0.47090 0.72323
 C226 C 0.92974 0.48085 0.69621
 H227 H 0.93048 0.46068 0.68922
 N228 N 0.91106 0.51171 0.72492
 C229 C 0.84702 0.55644 0.76014
 H230 H 0.84588 0.54606 0.77780
 C231 C 0.82957 0.57730 0.75504
 H232 H 0.81560 0.58329 0.76923
 C233 C 0.86663 0.56092 0.72031
 H234 H 0.88052 0.55398 0.70653
 C235 C 0.84933 0.58168 0.71431
 H236 H 0.85034 0.59050 0.69595
 Zn237 Zn 0.88710 0.51934 0.75110
 N238 N 0.86541 0.54898 0.74304
 C239 C 0.90402 0.54779 0.79351
 N240 N 0.90723 0.52563 0.77950
 C241 C 0.92599 0.50712 0.78479
 C242 C 0.94257 0.51054 0.80477
 C243 C 0.91971 0.55166 0.81407
 C244 C 0.84971 0.48241 0.73714
 C245 C 0.83138 0.46183 0.73984
 C246 C 0.84198 0.45841 0.78309
 C247 C 0.86067 0.47867 0.77938
 N248 N 0.86411 0.49018 0.75665
 H249 H 0.88936 0.56256 0.78884
 H250 H 0.92836 0.48985 0.77314
 H251 H 0.95790 0.49592 0.80794
 H252 H 0.91617 0.56907 0.82529
 H253 H 0.85262 0.49221 0.71935
 H254 H 0.82086 0.45554 0.72374
 H255 H 0.83897 0.45017 0.80150
 H256 H 0.87191 0.48567 0.79477
 C257 C 0.83050 0.59022 0.73182
 C258 C 0.94620 0.50105 0.68633
 C259 C 0.82695 0.44969 0.76314
 C260 C 0.93953 0.53302 0.81991
 C261 C 0.21850 0.39058 -0.00222
 H262 H 0.22864 0.39073 0.01517
 C263 C 0.19657 0.40696 -0.00570
 H264 H 0.18974 0.41928 0.00938
 C265 C 0.21499 0.37376 -0.04268
 H266 H 0.22252 0.36120 -0.05724
 C267 C 0.19323 0.39012 -0.04710
 H268 H 0.18436 0.38991 -0.06512
 N269 N 0.22691 0.37399 -0.02040
 C270 C 0.26976 0.31308 0.02164
 H271 H 0.28847 0.31288 0.01180
 C272 C 0.26587 0.29650 0.04239
 H273 H 0.28198 0.28412 0.04868
 C274 C 0.22622 0.32963 0.02531
 H275 H 0.21053 0.34198 0.01827
 C276 C 0.22136 0.31313 0.04589
 H277 H 0.20191 0.31317 0.05438
 Zn278 Zn 0.25664 0.35213 -0.01424
 N279 N 0.25030 0.32977 0.01393
 C280 C 0.30098 0.37378 0.01057
 N281 N 0.28556 0.37548 -0.00966
 C282 C 0.28938 0.39513 -0.02700
 C283 C 0.30915 0.41422 -0.02424
 C284 C 0.32136 0.39206 0.01377
 C285 C 0.24353 0.31195 -0.04670
 C286 C 0.24646 0.29471 -0.06657
 C287 C 0.28987 0.31301 -0.07438
 C288 C 0.28596 0.33018 -0.05448
 N289 N 0.26295 0.32948 -0.04129
 H290 H 0.29746 0.35843 0.02443
 H291 H 0.27660 0.39629 -0.04275
 H292 H 0.31108 0.43015 -0.03790
 H293 H 0.33369 0.38975 0.02974
 H294 H 0.22553 0.31171 -0.03574
 H295 H 0.23033 0.28159 -0.07097
 H296 H 0.30845 0.31363 -0.08444
 H297 H 0.30133 0.34394 -0.04954
 C298 C 0.24142 0.29651 0.05497
 C299 C 0.18355 0.40688 -0.02840
 C300 C 0.26987 0.29506 -0.08078
 C301 C 0.32552 0.41295 -0.00358
 C302 C 0.71003 0.09272 -0.02083
 H303 H 0.72119 0.09569 -0.03784
 C304 C 0.68978 0.07381 -0.01965
 H305 H 0.68519 0.06265 -0.03599
 C306 C 0.70264 0.10373 0.02110
 H307 H 0.70817 0.11488 0.03714
 C308 C 0.68232 0.08499 0.02314
 H309 H 0.67238 0.08205 0.04081
 N310 N 0.71589 0.10741 -0.00071
 C311 C 0.76030 0.17338 -0.03432
 H312 H 0.77808 0.17158 -0.02372
 C313 C 0.75866 0.19267 -0.05307
 H314 H 0.77553 0.20533 -0.05703
 C315 C 0.71706 0.15839 -0.04220
 H316 H 0.70078 0.14524 -0.03759
 C317 C 0.71446 0.17764 -0.06100
 H318 H 0.69604 0.17911 -0.07068
 Zn319 Zn 0.74469 0.13144 -0.00356
 N320 N 0.73985 0.15650 -0.02949
 C321 C 0.78596 0.11041 -0.03339
 N322 N 0.77501 0.11050 -0.01029
 C323 C 0.78432 0.09428 0.00793
 C324 C 0.80607 0.07784 0.00352
 C325 C 0.80737 0.09381 -0.03878
 C326 C 0.72738 0.16628 0.03339
 C327 C 0.72914 0.18257 0.05404
 C328 C 0.77462 0.16935 0.05787
 C329 C 0.77194 0.15318 0.03723
 N330 N 0.74848 0.15168 0.02561
 H331 H 0.77764 0.12266 -0.04790
 H332 H 0.77489 0.09425 0.02599
 H333 H 0.81356 0.06584 0.01863
 H334 H 0.81518 0.09355 -0.05749
 H335 H 0.70912 0.16525 0.02348
 H336 H 0.71192 0.19358 0.06016
 H337 H 0.79362 0.17061 0.06650
 H338 H 0.78884 0.14244 0.03018
 C339 C 0.73551 0.19505 -0.06674
 C340 C 0.67558 0.06973 0.00257
 C341 C 0.75302 0.18430 0.06661
 C342 C 0.81783 0.07719 -0.02020
 C343 C 0.21164 0.58886 0.49437
 H344 H 0.22080 0.58859 0.47619
 C345 C 0.19029 0.57212 0.49985
 H346 H 0.18292 0.55939 0.48554
 C347 C 0.20980 0.60658 0.53468
 H348 H 0.21774 0.61971 0.54834
 C349 C 0.18868 0.58989 0.54108
 H350 H 0.18067 0.59041 0.55972
 N351 N 0.22046 0.60616 0.51148
 C352 C 0.25933 0.66429 0.46246
 H353 H 0.27871 0.66481 0.47041
 C354 C 0.25428 0.67893 0.44090
 H355 H 0.27009 0.69031 0.43218
 C356 C 0.21545 0.64835 0.46410
 H357 H 0.20016 0.63695 0.47350
 C358 C 0.20944 0.66291 0.44274
 H359 H 0.18953 0.66242 0.43596
 Zn360 Zn 0.24858 0.62921 0.50223
 N361 N 0.24019 0.64890 0.47326
 C362 C 0.28934 0.60431 0.47391
 N363 N 0.27857 0.60732 0.49688
 C364 C 0.28794 0.59343 0.51662
 C365 C 0.30952 0.57637 0.51387
 C366 C 0.31078 0.58719 0.47026
 C367 C 0.23340 0.67001 0.53376
 C368 C 0.23520 0.68788 0.55320
 C369 C 0.28035 0.67411 0.55860
 C370 C 0.27764 0.65639 0.53909
 N371 N 0.25421 0.65423 0.52751
 H372 H 0.28099 0.61465 0.45825
 H373 H 0.27865 0.59571 0.53459
 H374 H 0.31701 0.56609 0.53002
 H375 H 0.31867 0.58468 0.45175
 H376 H 0.21509 0.66811 0.52404
 H377 H 0.21803 0.69945 0.55847
 H378 H 0.29911 0.67549 0.56766
 H379 H 0.29423 0.64433 0.53333
 C380 C 0.22905 0.67829 0.43067
 C381 C 0.17834 0.57261 0.52345
 C382 C 0.25881 0.68987 0.56615
 C383 C 0.32124 0.57295 0.49042
 C384 C 0.70842 0.91237 0.51562
 H385 H 0.71862 0.90985 0.53287
 C386 C 0.68772 0.93062 0.51390
 H387 H 0.68175 0.94142 0.53024
 C388 C 0.70396 0.90085 0.47365
 H389 H 0.71077 0.88957 0.45790
 C390 C 0.68355 0.91939 0.47093
 H391 H 0.67503 0.92218 0.45290
 N392 N 0.71590 0.89772 0.49576
 C393 C 0.76134 0.83553 0.53289
 H394 H 0.77972 0.83706 0.52257
 C395 C 0.75924 0.81806 0.55319
 H396 H 0.77626 0.80645 0.55856
 C397 C 0.71709 0.84942 0.53863
 H398 H 0.70054 0.86127 0.53261
 C399 C 0.71405 0.83209 0.55891
 H400 H 0.69510 0.83086 0.56830
 Zn401 Zn 0.74553 0.87523 0.49937
 N402 N 0.74064 0.85124 0.52641
 C403 C 0.78521 0.89917 0.52782
 N404 N 0.77431 0.89824 0.50509
 C405 C 0.78192 0.91556 0.48676
 C406 C 0.80192 0.93407 0.49061
 C407 C 0.80486 0.91778 0.53267
 C408 C 0.73182 0.83601 0.46615
 C409 C 0.73436 0.81895 0.44607
 C410 C 0.77596 0.83992 0.43565
 C411 C 0.77285 0.85623 0.45624
 N412 N 0.75087 0.85423 0.47084
 H413 H 0.77806 0.88615 0.54254
 H414 H 0.77230 0.91508 0.46911
 H415 H 0.80807 0.94707 0.47544
 H416 H 0.81254 0.91865 0.55115
 H417 H 0.71474 0.83453 0.47830
 H418 H 0.71920 0.80418 0.44322
 H419 H 0.79331 0.84244 0.42398
 H420 H 0.78813 0.87031 0.46052
 C421 C 0.73542 0.81639 0.56667
 C422 C 0.67511 0.93466 0.49124
 C423 C 0.75663 0.82079 0.43034
 C424 C 0.81358 0.93559 0.51392
 C425 C 0.00976 0.21747 0.41673
 H426 H 0.02680 0.23036 0.41501
 C427 C 0.00852 0.19805 0.43546
 H428 H 0.02459 0.19658 0.44825
 C429 C -0.03227 0.20498 0.40266
 H430 H -0.04836 0.20804 0.39018
 C431 C -0.03411 0.18488 0.42085
 H432 H -0.05139 0.17223 0.42151
 N433 N -0.01035 0.22051 0.40070
 C434 C 0.03056 0.25872 0.33850
 H435 H 0.02090 0.27803 0.33815
 C436 C 0.05146 0.25361 0.32218
 H437 H 0.05801 0.26935 0.30959
 C438 C 0.03402 0.21515 0.35602
 H439 H 0.02693 0.20014 0.36906
 C440 C 0.05476 0.20905 0.33981
 H441 H 0.06330 0.18921 0.34051
 Zn442 Zn -0.00559 0.24829 0.37687
 N443 N 0.02258 0.23974 0.35523
 C444 C 0.02763 0.28877 0.39505
 N445 N 0.00256 0.27931 0.39481
 C446 C -0.01673 0.29023 0.40915
 C447 C -0.01132 0.31206 0.42400
 C448 C 0.03405 0.31018 0.41007
 C449 C -0.04618 0.23305 0.34507
 C450 C -0.06794 0.23680 0.32995
 C451 C -0.06673 0.28398 0.33883
 C452 C -0.04533 0.27923 0.35410
 N453 N -0.03574 0.25402 0.35726
 H454 H 0.04292 0.27912 0.38430
 H455 H -0.03637 0.28191 0.40905
 H456 H -0.02724 0.32081 0.43469
 H457 H 0.05434 0.31667 0.41058
 H458 H -0.03759 0.21334 0.34709
 H459 H -0.07636 0.21961 0.32111
 H460 H -0.07350 0.30435 0.33622
 H461 H -0.03599 0.29590 0.36288
 C462 C 0.06393 0.22849 0.32270
 C463 C -0.01352 0.18117 0.43764
 C464 C -0.07857 0.26259 0.32663
 C465 C 0.01446 0.32219 0.42487
 C466 C -0.00158 0.69483 0.09404
 H467 H -0.02135 0.70284 0.09508
 C468 C 0.00420 0.67393 0.07806
 H469 H -0.01151 0.66551 0.06741
 C470 C 0.04273 0.69630 0.10685
 H471 H 0.05783 0.70563 0.11756
 C472 C 0.04950 0.67568 0.09080
 H473 H 0.06984 0.66934 0.08947
 N474 N 0.01750 0.70534 0.10824
 C475 C -0.03101 0.74787 0.16214
 H476 H -0.02240 0.76761 0.16032
 C477 C -0.05227 0.74352 0.17836
 H478 H -0.06020 0.76018 0.18866
 C479 C -0.03112 0.70231 0.15067
 H480 H -0.02241 0.68614 0.14033
 C481 C -0.05236 0.69703 0.16673
 H482 H -0.05986 0.67681 0.16843
 Zn483 Zn 0.00816 0.73522 0.12744
 N484 N -0.02112 0.72749 0.14845
 C485 C -0.02421 0.77337 0.10246
 N486 N 0.00039 0.76295 0.10462
 C487 C 0.02044 0.77096 0.08931
 C488 C 0.01640 0.79080 0.07140
 C489 C -0.02921 0.79310 0.08459
 C490 C 0.04639 0.72677 0.16341
 C491 C 0.06708 0.73336 0.17882
 C492 C 0.06565 0.77861 0.16255
 C493 C 0.04515 0.77109 0.14731
 N494 N 0.03622 0.74544 0.14775
 H495 H -0.04009 0.76609 0.11425
 H496 H 0.03970 0.76198 0.09118
 H497 H 0.03288 0.79735 0.05992
 H498 H -0.04902 0.80081 0.08289
 H499 H 0.03860 0.70663 0.16368
 H500 H 0.07539 0.71797 0.19062
 H501 H 0.07222 0.79921 0.16212
 H502 H 0.03617 0.78590 0.13541
 C503 C -0.06328 0.71781 0.18080
 C504 C 0.03011 0.66421 0.07605
 C505 C 0.07707 0.75959 0.17846
 C506 C -0.00871 0.80218 0.06881
 C507 C 0.50847 0.22633 0.58433
 H508 H 0.49231 0.24007 0.58143
 C509 C 0.51258 0.20521 0.56819
 H510 H 0.49962 0.20329 0.55268
 C511 C 0.54571 0.21351 0.60739
 H512 H 0.55891 0.21709 0.62238
 C513 C 0.55020 0.19170 0.59201
 H514 H 0.56644 0.17836 0.59593
 N515 N 0.52487 0.23006 0.60350
 C516 C 0.47655 0.27550 0.65498
 H517 H 0.48654 0.29460 0.65399
 C518 C 0.45459 0.27214 0.67051
 H519 H 0.44745 0.28913 0.68083
 C520 C 0.47399 0.23037 0.64246
 H521 H 0.48206 0.21400 0.63190
 C522 C 0.45230 0.22594 0.65821
 H523 H 0.44404 0.20602 0.65960
 Zn524 Zn 0.51737 0.26018 0.62314
 N525 N 0.48570 0.25481 0.64127
 C526 C 0.49091 0.30198 0.59761
 N527 N 0.51456 0.28992 0.60125
 C528 C 0.53631 0.29737 0.58788
 C529 C 0.53492 0.31814 0.57040
 C530 C 0.48858 0.32267 0.58019
 C531 C 0.54778 0.24549 0.66338
 C532 C 0.56609 0.24838 0.68202
 C533 C 0.57488 0.29327 0.66689
 C534 C 0.55664 0.28935 0.64828
 N535 N 0.54372 0.26563 0.64673
 H536 H 0.47361 0.29508 0.60765
 H537 H 0.55475 0.28704 0.59074
 H538 H 0.55257 0.32402 0.56026
 H539 H 0.46941 0.33149 0.57718
 H540 H 0.53669 0.22710 0.66215
 H541 H 0.56944 0.23175 0.69460
 H542 H 0.58448 0.31251 0.66810
 H543 H 0.55239 0.30550 0.63550
 C544 C 0.44238 0.24695 0.67271
 C545 C 0.53352 0.18726 0.57202
 C546 C 0.57990 0.27258 0.68407
 C547 C 0.51077 0.33105 0.56628
 C548 C 0.49741 0.71218 0.91583
 H549 H 0.51594 0.72274 0.91671
 C550 C 0.49258 0.69016 0.93143
 H551 H 0.50781 0.68370 0.94391
 C552 C 0.45554 0.70755 0.89785
 H553 H 0.44110 0.71446 0.88481
 C554 C 0.44975 0.68562 0.91332
 H555 H 0.43070 0.67611 0.91211
 N556 N 0.47923 0.72007 0.89909
 C557 C 0.52018 0.75689 0.83613
 H558 H 0.50783 0.77431 0.83350
 C559 C 0.54065 0.75167 0.81937
 H560 H 0.54350 0.76503 0.80365
 C561 C 0.53049 0.71789 0.85939
 H562 H 0.52641 0.70461 0.87485
 C563 C 0.55152 0.71220 0.84337
 H564 H 0.56365 0.69487 0.84722
 Zn565 Zn 0.48754 0.74929 0.87758
 N566 N 0.51558 0.74017 0.85575
 C567 C 0.52210 0.78972 0.89375
 N568 N 0.49779 0.77865 0.89698
 C569 C 0.48081 0.78764 0.91464
 C570 C 0.48769 0.80911 0.92940
 C571 C 0.52999 0.81094 0.90841
 C572 C 0.45240 0.74128 0.83937
 C573 C 0.43161 0.74681 0.82356
 C574 C 0.42227 0.78678 0.84662
 C575 C 0.44362 0.78078 0.86167
 N576 N 0.45803 0.75818 0.85798
 H577 H 0.53560 0.78190 0.88001
 H578 H 0.46179 0.77819 0.91717
 H579 H 0.47343 0.81636 0.94279
 H580 H 0.54962 0.81901 0.90584
 H581 H 0.46438 0.72364 0.83659
 H582 H 0.42818 0.73339 0.80846
 H583 H 0.41072 0.80450 0.85042
 H584 H 0.44853 0.79424 0.87626
 C585 C 0.55694 0.72922 0.82301
 C586 C 0.46851 0.67639 0.93024
 C587 C 0.41601 0.76977 0.82712
 C588 C 0.51268 0.82102 0.92655
 C589 C 0.13135 0.23408 0.22600
 C590 C 0.15203 0.21751 0.23391
 C591 C 0.15092 0.20636 0.25791
 C592 C 0.12955 0.21173 0.27381
 C593 C 0.10874 0.22817 0.26558
 C594 C 0.10981 0.23922 0.24164
 C595 C 0.08727 0.23334 0.28146
 C596 C 0.08647 0.22266 0.30568
 C597 C 0.10750 0.20655 0.31366
 C598 C 0.12874 0.20102 0.29785
 H599 H 0.16681 0.19372 0.26436
 H600 H 0.09405 0.25193 0.23503
 H601 H 0.07110 0.24547 0.27484
 H602 H 0.14464 0.18854 0.30452
 H603 H 0.13167 0.24286 0.20760
 H604 H 0.10778 0.19848 0.33232
 C605 C 0.64909 0.75626 0.75024
 C606 C 0.65735 0.72989 0.74583
 C607 C 0.64414 0.70854 0.75780
 C608 C 0.62268 0.71348 0.77377
 C609 C 0.61481 0.74010 0.77837
 C610 C 0.62819 0.76134 0.76657
 C611 C 0.59362 0.74508 0.79460
 C612 C 0.57955 0.72379 0.80588
 C613 C 0.58732 0.69735 0.80077
 C614 C 0.60880 0.69226 0.78506
 H615 H 0.65021 0.68811 0.75430
 H616 H 0.62237 0.78188 0.76982
 H617 H 0.58834 0.76559 0.79858
 H618 H 0.61438 0.67171 0.78155
 H619 H 0.65905 0.77301 0.74126
 H620 H 0.57664 0.68048 0.80867
 C621 C 0.32622 0.74600 0.75443
 C622 C 0.31927 0.77262 0.74895
 C623 C 0.33212 0.79353 0.76094
 C624 C 0.35229 0.78786 0.77769
 C625 C 0.35899 0.76098 0.78315
 C626 C 0.34566 0.74021 0.77160
 C627 C 0.37921 0.75526 0.79973
 C628 C 0.39365 0.77601 0.81043
 C629 C 0.38686 0.80271 0.80468
 C630 C 0.36624 0.80856 0.78870
 H631 H 0.32705 0.81413 0.75662
 H632 H 0.35058 0.71949 0.77552
 H633 H 0.38364 0.73456 0.80423
 H634 H 0.36156 0.82929 0.78458
 H635 H 0.31648 0.72959 0.74548
 H636 H 0.39781 0.81921 0.81212
 C637 C -0.15085 0.24682 0.23657
 C638 C -0.16861 0.26790 0.24144
 C639 C -0.16497 0.28328 0.26276
 C640 C -0.14412 0.27781 0.27872
 C641 C -0.12616 0.25707 0.27324
 C642 C -0.12976 0.24165 0.25217
 C643 C -0.10486 0.25214 0.28886
 C644 C -0.10147 0.26736 0.31027
 C645 C -0.11998 0.28750 0.31580
 C646 C -0.14093 0.29280 0.30011
 H647 H -0.17843 0.29944 0.26716
 H648 H -0.11625 0.22556 0.24773
 H649 H -0.09070 0.23678 0.28401
 H650 H -0.15470 0.30860 0.30477
 H651 H -0.15290 0.23448 0.22045
 H652 H -0.11842 0.29915 0.33239
 C653 C -0.13265 0.73021 0.27526
 C654 C -0.15351 0.71359 0.26831
 C655 C -0.15173 0.70033 0.24558
 C656 C -0.12975 0.70407 0.22984
 C657 C -0.10909 0.72105 0.23696
 C658 C -0.11063 0.73383 0.25978
 C659 C -0.08734 0.72518 0.22105
 C660 C -0.08597 0.71274 0.19792
 C661 C -0.10657 0.69572 0.19113
 C662 C -0.12822 0.69139 0.20695
 H663 H -0.16763 0.68750 0.23989
 H664 H -0.09494 0.74687 0.26556
 H665 H -0.07143 0.73801 0.22672
 H666 H -0.14391 0.67835 0.20115
 H667 H -0.13337 0.74061 0.29266
 H668 H -0.10619 0.68612 0.17334
 C669 C 0.33997 0.19556 0.71634
 C670 C 0.33861 0.21023 0.73838
 C671 C 0.35824 0.22950 0.74259
 C672 C 0.37879 0.23382 0.72539
 C673 C 0.37963 0.21928 0.70324
 C674 C 0.36010 0.20023 0.69889
 C675 C 0.40008 0.22391 0.68591
 C676 C 0.42019 0.24245 0.69069
 C677 C 0.41925 0.25640 0.71310
 C678 C 0.39867 0.25233 0.73012
 H679 H 0.35790 0.24096 0.75944
 H680 H 0.36048 0.18880 0.68204
 H681 H 0.40018 0.21316 0.66869
 H682 H 0.39850 0.26345 0.74715
 H683 H 0.32530 0.18060 0.71234
 H684 H 0.43469 0.27022 0.71779
 C685 C 0.68144 0.31303 0.73337
 C686 C 0.67748 0.30033 0.75648
 C687 C 0.65465 0.28494 0.76067
 C688 C 0.63606 0.28221 0.74202
 C689 C 0.64049 0.29466 0.71873
 C690 C 0.66320 0.31008 0.71462
 C691 C 0.62219 0.29142 0.69991
 C692 C 0.59919 0.27622 0.70412
 C693 C 0.59480 0.26439 0.72758
 C694 C 0.61311 0.26721 0.74628
 H695 H 0.65124 0.27523 0.77847
 H696 H 0.66689 0.31984 0.69690
 H697 H 0.62611 0.30041 0.68189
 H698 H 0.60927 0.25774 0.76411
 H699 H 0.69890 0.32494 0.72964
 H700 H 0.57704 0.25310 0.73163
 C701 C 0.14538 0.75952 0.27238
 C702 C 0.16459 0.77778 0.26370
 C703 C 0.16240 0.78881 0.23978
 C704 C 0.14146 0.78165 0.22470
 C705 C 0.12220 0.76342 0.23366
 C706 C 0.12431 0.75251 0.25754
 C707 C 0.10118 0.75638 0.21860
 C708 C 0.09926 0.76711 0.19451
 C709 C 0.11871 0.78507 0.18578
 C710 C 0.13954 0.79234 0.20075
 H711 H 0.17712 0.80277 0.23273
 H712 H 0.10974 0.73848 0.26472
 H713 H 0.08618 0.74280 0.22575
 H714 H 0.15423 0.80622 0.19352
 H715 H 0.14652 0.75075 0.29073
 H716 H 0.11804 0.79328 0.16719
 C717 C 0.22090 0.14229 0.22977
 C718 C 0.22964 0.16286 0.21364
 C719 C 0.25540 0.16182 0.20378
 C720 C 0.27231 0.14070 0.21020
 C721 C 0.26324 0.12007 0.22632
 C722 C 0.23748 0.12100 0.23592
 C723 C 0.28009 0.09889 0.23266
 C724 C 0.30613 0.09817 0.22342
 C725 C 0.31498 0.11900 0.20759
 C726 C 0.29821 0.13997 0.20095
 H727 H 0.26245 0.17766 0.19148
 H728 H 0.23020 0.10537 0.24832
 H729 H 0.27277 0.08284 0.24456
 H730 H 0.30557 0.15571 0.18872
 H731 H 0.20113 0.14254 0.23756
 H732 H 0.33504 0.11928 0.20052
 C733 C 0.72545 0.65367 0.73506
 C734 C 0.73363 0.67550 0.72018
 C735 C 0.75927 0.67560 0.70996
 C736 C 0.77668 0.65447 0.71495
 C737 C 0.76824 0.63262 0.72992
 C738 C 0.74252 0.63233 0.73973
 C739 C 0.78571 0.61158 0.73505
 C740 C 0.81179 0.61224 0.72582
 C741 C 0.81994 0.63417 0.71100
 C742 C 0.80253 0.65499 0.70550
 H743 H 0.76593 0.69241 0.69862
 H744 H 0.73571 0.61574 0.75126
 H745 H 0.77890 0.59465 0.74613
 H746 H 0.80940 0.67166 0.69411
 H747 H 0.70578 0.65306 0.74308
 H748 H 0.83997 0.63550 0.70394
 C749 C 0.77428 0.34656 0.80655
 C750 C 0.75249 0.34609 0.79078
 C751 C 0.74979 0.36691 0.77313
 C752 C 0.76838 0.38755 0.77120
 C753 C 0.79054 0.38728 0.78655
 C754 C 0.79324 0.36675 0.80424
 C755 C 0.80963 0.40748 0.78390
 C756 C 0.80654 0.42843 0.76647
 C757 C 0.78378 0.42887 0.75198
 C758 C 0.76510 0.40852 0.75411
 H759 H 0.73306 0.36734 0.76097
 H760 H 0.81002 0.36630 0.81632
 H761 H 0.82704 0.40654 0.79513
 H762 H 0.74798 0.40927 0.74245
 H763 H 0.77709 0.33100 0.82040
 H764 H 0.78021 0.44507 0.73898
 C765 C 0.23278 -0.14762 0.26062
 C766 C 0.23951 -0.16498 0.28030
 C767 C 0.26275 -0.15987 0.29328
 C768 C 0.27882 -0.13800 0.28682
 C769 C 0.27145 -0.12039 0.26752
 C770 C 0.24843 -0.12543 0.25450
 C771 C 0.28717 -0.09803 0.26162
 C772 C 0.31059 -0.09331 0.27441
 C773 C 0.31804 -0.11157 0.29308
 C774 C 0.30221 -0.13350 0.29938
 H775 H 0.26864 -0.17302 0.30830
 H776 H 0.24254 -0.11223 0.23953
 H777 H 0.28086 -0.08413 0.24737
 H778 H 0.30836 -0.14702 0.31401
 H779 H 0.21513 -0.15083 0.25014
 H780 H 0.33627 -0.10906 0.30283
 C781 C 0.22513 -0.17107 0.70114
 C782 C 0.24625 -0.17405 0.71754
 C783 C 0.24861 -0.15550 0.73678
 C784 C 0.23022 -0.13468 0.73963
 C785 C 0.20886 -0.13250 0.72340
 C786 C 0.20657 -0.15072 0.70418
 C787 C 0.19008 -0.11217 0.72663
 C788 C 0.19258 -0.09336 0.74557
 C789 C 0.21433 -0.09544 0.76128
 C790 C 0.23280 -0.11598 0.75847
 H791 H 0.26475 -0.15709 0.74956
 H792 H 0.19039 -0.14925 0.69146
 H793 H 0.17334 -0.11130 0.71454
 H794 H 0.24921 -0.11714 0.77096
 H795 H 0.22251 -0.18478 0.68608
 H796 H 0.21733 -0.08101 0.77565
 C797 C 0.76926 0.34658 0.23170
 C798 C 0.75939 0.32599 0.21703
 C799 C 0.73437 0.32904 0.20659
 C800 C 0.71931 0.35218 0.21107
 C801 C 0.72959 0.37270 0.22576
 C802 C 0.75461 0.36974 0.23588
 C803 C 0.71468 0.39584 0.23023
 C804 C 0.68926 0.39874 0.22063
 C805 C 0.67916 0.37809 0.20613
 C806 C 0.69407 0.35512 0.20131
 H807 H 0.72644 0.31328 0.19537
 H808 H 0.76279 0.38527 0.24719
 H809 H 0.72306 0.41169 0.24103
 H810 H 0.68576 0.33956 0.19012
 H811 H 0.78851 0.34489 0.23986
 H812 H 0.65953 0.37948 0.19876
 C813 C 0.73553 0.67266 0.29798
 C814 C 0.76102 0.67069 0.28764
 C815 C 0.76713 0.64894 0.27233
 C816 C 0.74821 0.62925 0.26775
 C817 C 0.72267 0.63148 0.27823
 C818 C 0.71649 0.65334 0.29319
 C819 C 0.70379 0.61173 0.27374
 C820 C 0.71016 0.58938 0.25924
 C821 C 0.73572 0.58739 0.24898
 C822 C 0.75450 0.60718 0.25309
 H823 H 0.78675 0.64702 0.26435
 H824 H 0.69699 0.65538 0.30139
 H825 H 0.68410 0.61387 0.28147
 H826 H 0.77404 0.60505 0.24502
 H827 H 0.73023 0.68922 0.30976
 H828 H 0.74140 0.57027 0.23809
 C829 C 0.26664 0.14144 0.74773
 C830 C 0.26281 0.16011 0.76674
 C831 C 0.24063 0.15713 0.78261
 C832 C 0.22271 0.13615 0.77947
 C833 C 0.22718 0.11735 0.76066
 C834 C 0.24919 0.12018 0.74491
 C835 C 0.20954 0.09607 0.75783
 C836 C 0.18691 0.09361 0.77311
 C837 C 0.18247 0.11283 0.79148
 C838 C 0.20028 0.13371 0.79477
 H839 H 0.23700 0.17129 0.79726
 H840 H 0.25285 0.10600 0.73030
 H841 H 0.21372 0.08130 0.74386
 H842 H 0.19638 0.14810 0.80915
 H843 H 0.28338 0.14292 0.73513
 H844 H 0.16503 0.11197 0.80323
 C845 C 0.19418 0.26472 0.15766
 C846 C 0.20598 0.23934 0.15979
 C847 C 0.22279 0.23048 0.14066
 C848 C 0.22756 0.24664 0.11963
 C849 C 0.21575 0.27218 0.11783
 C850 C 0.19915 0.28105 0.13696
 C851 C 0.22060 0.28841 0.09689
 C852 C 0.23677 0.27934 0.07735
 C853 C 0.24827 0.25378 0.07931
 C854 C 0.24382 0.23766 0.10028
 H855 H 0.23189 0.21088 0.14195
 H856 H 0.18989 0.30057 0.13587
 H857 H 0.21193 0.30822 0.09597
 H858 H 0.25292 0.21805 0.10127
 H859 H 0.18125 0.27210 0.17214
 H860 H 0.26043 0.24600 0.06446
 C861 C 0.69714 0.78128 0.67143
 C862 C 0.70917 0.75593 0.67198
 C863 C 0.72472 0.74794 0.65164
 C864 C 0.72775 0.76480 0.63083
 C865 C 0.71545 0.79018 0.63049
 C866 C 0.70037 0.79831 0.65094
 C867 C 0.71823 0.80695 0.60963
 C868 C 0.73288 0.79862 0.58884
 C869 C 0.74505 0.77332 0.58940
 C870 C 0.74258 0.75661 0.61023
 H871 H 0.73399 0.72838 0.65173
 H872 H 0.69083 0.81771 0.65100
 H873 H 0.70911 0.82656 0.60967
 H874 H 0.75205 0.73717 0.61011
 H875 H 0.68516 0.78800 0.68687
 H876 H 0.75618 0.76624 0.57356
 C877 C 0.81593 0.75239 0.35228
 C878 C 0.79375 0.74296 0.33995
 C879 C 0.76851 0.75074 0.34815
 C880 C 0.76550 0.76799 0.36826
 C881 C 0.78793 0.77700 0.38075
 C882 C 0.81305 0.76902 0.37265
 C883 C 0.78492 0.79393 0.40106
 C884 C 0.75977 0.80268 0.40880
 C885 C 0.73765 0.79391 0.39586
 C886 C 0.74046 0.77658 0.37596
 H887 H 0.75128 0.74380 0.33861
 H888 H 0.83048 0.77580 0.38194
 H889 H 0.80223 0.79999 0.41094
 H890 H 0.72305 0.77011 0.36645
 H891 H 0.83556 0.74660 0.34634
 H892 H 0.71806 0.80066 0.40089
 C893 C 0.30537 0.26076 -0.18591
 C894 C 0.29365 0.23527 -0.18545
 C895 C 0.27980 0.22665 -0.16409
 C896 C 0.27775 0.24321 -0.14344
 C897 C 0.28927 0.26894 -0.14425
 C898 C 0.30304 0.27751 -0.16557
 C899 C 0.28676 0.28571 -0.12378
 C900 C 0.27316 0.27701 -0.10226
 C901 C 0.26228 0.25110 -0.10155
 C902 C 0.26442 0.23444 -0.12197
 H903 H 0.27089 0.20694 -0.16341
 H904 H 0.31206 0.29715 -0.16650
 H905 H 0.29499 0.30570 -0.12482
 H906 H 0.25569 0.21467 -0.12093
 H907 H 0.31610 0.26791 -0.20215
 H908 H 0.25219 0.24357 -0.08511
 C909 C 0.70476 0.24190 -0.16898
 C910 C 0.71747 0.26674 -0.16696
 C911 C 0.73086 0.27249 -0.14517
 C912 C 0.73155 0.25372 -0.12568
 C913 C 0.71904 0.22867 -0.12806
 C914 C 0.70567 0.22298 -0.14977
 C915 C 0.72022 0.20968 -0.10875
 C916 C 0.73353 0.21546 -0.08690
 C917 C 0.74543 0.24071 -0.08460
 C918 C 0.74456 0.25958 -0.10383
 H919 H 0.74053 0.29166 -0.14326
 H920 H 0.69591 0.20390 -0.15191
 H921 H 0.71120 0.19024 -0.11098
 H922 H 0.75405 0.27879 -0.10159
 H923 H 0.69434 0.23694 -0.18557
 H924 H 0.75535 0.24598 -0.06783
 C925 C 0.23581 0.77236 0.35488
 C926 C 0.21848 0.76200 0.33744
 C927 C 0.20659 0.73699 0.34214
 C928 C 0.21202 0.72249 0.36386
 C929 C 0.22932 0.73324 0.38130
 C930 C 0.24107 0.75819 0.37664
 C931 C 0.23462 0.71887 0.40309
 C932 C 0.22318 0.69361 0.40765
 C933 C 0.20615 0.68304 0.39005
 C934 C 0.20054 0.69738 0.36843
 H935 H 0.19330 0.72866 0.32882
 H936 H 0.25440 0.76672 0.38979
 H937 H 0.24745 0.72753 0.41659
 H938 H 0.18736 0.68874 0.35521
 H939 H 0.24519 0.79160 0.35183
 H940 H 0.19739 0.66346 0.39281
 C941 C 0.29022 0.72407 0.67121
 C942 C 0.27734 0.74900 0.67128
 C943 C 0.26343 0.75724 0.65025
 C944 C 0.26256 0.74092 0.62941
 C945 C 0.27548 0.71587 0.62962
 C946 C 0.28920 0.70761 0.65063
 C947 C 0.27440 0.69944 0.60887
 C948 C 0.26066 0.70774 0.58776
 C949 C 0.24813 0.73286 0.58769
 C950 C 0.24903 0.74927 0.60832
 H951 H 0.25356 0.77648 0.64994
 H952 H 0.29923 0.68846 0.65111
 H953 H 0.28384 0.67998 0.60938
 H954 H 0.23914 0.76849 0.60776
 H955 H 0.30104 0.71718 0.68714
 H956 H 0.23774 0.73994 0.57157
 C957 C 0.79356 0.21967 0.16841
 C958 C 0.78114 0.24484 0.16919
 C959 C 0.76483 0.25264 0.14959
 C960 C 0.76142 0.23573 0.12935
 C961 C 0.77416 0.21059 0.12882
 C962 C 0.79003 0.20269 0.14852
 C963 C 0.77105 0.19381 0.10853
 C964 C 0.75558 0.20186 0.08844
 C965 C 0.74291 0.22691 0.08921
 C966 C 0.74574 0.24364 0.10948
 H967 H 0.75518 0.27199 0.14984
 H968 H 0.79992 0.18347 0.14844
 H969 H 0.78060 0.17440 0.10846
 H970 H 0.73589 0.26288 0.10947
 H971 H 0.80611 0.21300 0.18324
 H972 H 0.73118 0.23386 0.07389
 C973 C 0.46749 0.43494 0.51791
 C974 C 0.48136 0.43330 0.49527
 C975 C 0.49911 0.41202 0.49163
 C976 C 0.50259 0.39244 0.51016
 C977 C 0.48845 0.39430 0.53276
 C978 C 0.47110 0.41571 0.53651
 C979 C 0.49163 0.37456 0.55115
 C980 C 0.50847 0.35261 0.54719
 C981 C 0.52254 0.35105 0.52465
 C982 C 0.51972 0.37082 0.50636
 H983 H 0.50988 0.41040 0.47426
 H984 H 0.46011 0.41746 0.55374
 H985 H 0.48096 0.37633 0.56855
 H986 H 0.53065 0.36899 0.48910
 H987 H 0.45379 0.45114 0.52132
 H988 H 0.53534 0.33421 0.52089
 C989 C -0.05587 0.90654 0.02480
 C990 C -0.04230 0.90628 0.00193
 C991 C -0.02492 0.88508 -0.00320
 C992 C -0.02117 0.86443 0.01426
 C993 C -0.03468 0.86514 0.03728
 C994 C -0.05199 0.88625 0.04234
 C995 C -0.03059 0.84480 0.05492
 C996 C -0.01337 0.82344 0.04985
 C997 C -0.00037 0.82274 0.02670
 C998 C -0.00414 0.84308 0.00913
 H999 H -0.01446 0.88453 -0.02081
 H1000 H -0.06254 0.88709 0.05988
 H1001 H -0.04050 0.84590 0.07276
 H1002 H 0.00623 0.84207 -0.00848
 H1003 H -0.06931 0.92265 0.02932
 H1004 H 0.01262 0.80631 0.02205
 C1005 C 0.02198 0.59757 -0.01922
 C1006 C 0.04128 0.57825 -0.01354
 C1007 C 0.05511 0.58061 0.00871
 C1008 C 0.04932 0.60133 0.02513
 C1009 C 0.02997 0.62051 0.01910
 C1010 C 0.01658 0.61858 -0.00318
 C1011 C 0.02413 0.64118 0.03556
 C1012 C 0.03690 0.64264 0.05837
 C1013 C 0.05604 0.62329 0.06419
 C1014 C 0.06232 0.60296 0.04767
 H1015 H 0.06998 0.56601 0.01367
 H1016 H 0.00165 0.63313 -0.00808
 H1017 H 0.00971 0.65617 0.03048
 H1018 H 0.07710 0.58829 0.05268
 H1019 H 0.01098 0.59660 -0.03613
 H1020 H 0.06593 0.62356 0.08173
 C1021 C 0.50269 0.09966 0.49815
 C1022 C 0.52811 0.08987 0.49306
 C1023 C 0.54969 0.10076 0.50530
 C1024 C 0.54591 0.12167 0.52209
 C1025 C 0.52020 0.13111 0.52723
 C1026 C 0.49873 0.11987 0.51528
 C1027 C 0.51631 0.15188 0.54400
 C1028 C 0.53784 0.16427 0.55517
 C1029 C 0.56340 0.15481 0.54974
 C1030 C 0.56736 0.13356 0.53356
 H1031 H 0.56938 0.09344 0.50133
 H1032 H 0.47889 0.12693 0.51897
 H1033 H 0.49642 0.15832 0.54830
 H1034 H 0.58725 0.12675 0.52970
 H1035 H 0.48577 0.09142 0.48905
 H1036 H 0.58047 0.16414 0.55761
 C1037 C -0.06623 0.10291 0.51360
 C1038 C -0.04316 0.09030 0.52172
 C1039 C -0.01865 0.09893 0.51227
 C1040 C -0.01726 0.11942 0.49426
 C1041 C -0.04058 0.13210 0.48631
 C1042 C -0.06494 0.12389 0.49630
 C1043 C -0.03923 0.15248 0.46822
 C1044 C -0.01492 0.15993 0.45728
 C1045 C 0.00810 0.14683 0.46518
 C1046 C 0.00697 0.12702 0.48364
 H1047 H -0.00080 0.08900 0.51821
 H1048 H -0.08303 0.13331 0.49038
 H1049 H -0.05715 0.16254 0.46277
 H1050 H 0.02501 0.11732 0.48930
 H1051 H -0.08531 0.09651 0.52069
 H1052 H 0.02706 0.15155 0.45684
 C1053 C 0.47554 0.60305 1.02343
 C1054 C 0.46103 0.58133 1.01459
 C1055 C 0.45028 0.58317 0.99085
 C1056 C 0.45430 0.60620 0.97605
 C1057 C 0.46886 0.62788 0.98521
 C1058 C 0.47927 0.62613 1.00896
 C1059 C 0.47299 0.65085 0.97042
 C1060 C 0.46322 0.65240 0.94627
 C1061 C 0.44879 0.63062 0.93736
 C1062 C 0.44426 0.60785 0.95213
 H1063 H 0.43918 0.56655 0.98372
 H1064 H 0.49049 0.64255 1.01628
 H1065 H 0.48376 0.66754 0.97781
 H1066 H 0.43318 0.59137 0.94472
 H1067 H 0.48392 0.60229 1.04167
 H1068 H 0.44139 0.63092 0.91874
 C1069 C 0.51250 0.88932 1.02084
 C1070 C 0.52874 0.91046 1.01206
 C1071 C 0.53998 0.90869 0.98812
 C1072 C 0.53413 0.88683 0.97302
 C1073 C 0.51775 0.86603 0.98226
 C1074 C 0.50736 0.86731 1.00625
 C1075 C 0.51153 0.84441 0.96726
 C1076 C 0.52064 0.84349 0.94264
 C1077 C 0.53700 0.86429 0.93356
 C1078 C 0.54385 0.88562 0.94866
 H1079 H 0.55243 0.92466 0.98085
 H1080 H 0.49478 0.85149 1.01361
 H1081 H 0.49946 0.82833 0.97487
 H1082 H 0.55632 0.90142 0.94112
 H1083 H 0.50365 0.88958 1.03917
 H1084 H 0.54412 0.86441 0.91461
 C1085 C 0.00633 0.39223 0.51838
 C1086 C 0.02696 0.41015 0.51234
 C1087 C 0.04094 0.40683 0.48985
 C1088 C 0.03431 0.38628 0.47372
 C1089 C 0.01396 0.36821 0.48032
 C1090 C 0.00013 0.37134 0.50268
 C1091 C 0.00772 0.34731 0.46445
 C1092 C 0.02104 0.34455 0.44160
 C1093 C 0.04089 0.36310 0.43503
 C1094 C 0.04761 0.38359 0.45101
 H1095 H 0.05674 0.42044 0.48457
 H1096 H -0.01564 0.35772 0.50798
 H1097 H -0.00728 0.33302 0.47017
 H1098 H 0.06309 0.39745 0.44551
 H1099 H -0.00491 0.39402 0.53545
 H1100 H 0.05115 0.36199 0.41740
 C1101 C 0.42718 0.53081 0.44684
 C1102 C 0.42873 0.50737 0.46144
 C1103 C 0.40834 0.50158 0.47859
 C1104 C 0.38682 0.51894 0.48125
 C1105 C 0.38564 0.54265 0.46679
 C1106 C 0.40590 0.54836 0.44959
 C1107 C 0.36428 0.56025 0.46984
 C1108 C 0.34386 0.55430 0.48700
 C1109 C 0.34515 0.53036 0.50093
 C1110 C 0.36645 0.51294 0.49819
 H1111 H 0.40910 0.48348 0.48984
 H1112 H 0.40530 0.56642 0.43828
 H1113 H 0.36380 0.57872 0.45913
 H1114 H 0.36694 0.49471 0.50926
 H1115 H 0.44262 0.53578 0.43352
 H1116 H 0.32951 0.52487 0.51385
 C1117 C 0.88753 -0.02385 -0.00838
 C1118 C 0.90716 -0.01724 -0.02620
 C1119 C 0.90455 0.00682 -0.03992
 C1120 C 0.88319 0.02413 -0.03542
 C1121 C 0.86368 0.01693 -0.01767
 C1122 C 0.86595 -0.00715 -0.00441
 C1123 C 0.84229 0.03402 -0.01320
 C1124 C 0.84036 0.05888 -0.02559
 C1125 C 0.86010 0.06599 -0.04307
 C1126 C 0.88114 0.04869 -0.04810
 H1127 H 0.91941 0.01252 -0.05361
 H1128 H 0.85117 -0.01293 0.00933
 H1129 H 0.82708 0.02776 -0.00010
 H1130 H 0.89601 0.05472 -0.06164
 H1131 H 0.88858 -0.04216 0.00251
 H1132 H 0.85956 0.08513 -0.05266
 C1133 C 0.57035 0.02056 0.04041
 C1134 C 0.57296 -0.00466 0.02940
 C1135 C 0.59487 -0.00955 0.01384
 C1136 C 0.61434 0.01021 0.01012
 C1137 C 0.61158 0.03526 0.02168
 C1138 C 0.58934 0.04035 0.03648
 C1139 C 0.63129 0.05472 0.01866
 C1140 C 0.65413 0.04948 0.00451
 C1141 C 0.65655 0.02462 -0.00722
 C1142 C 0.63682 0.00521 -0.00450
 H1143 H 0.59720 -0.02892 0.00532
 H1144 H 0.58687 0.05947 0.04541
 H1145 H 0.62888 0.07393 0.02745
 H1146 H 0.63937 -0.01387 -0.01348
 H1147 H 0.55360 0.02502 0.05230
 H1148 H 0.67402 0.01990 -0.01803
 C1149 C 0.10511 0.47366 0.51841
 C1150 C 0.08503 0.48301 0.53427
 C1151 C 0.08780 0.50817 0.54523
 C1152 C 0.11017 0.52389 0.54020
 C1153 C 0.13030 0.51420 0.52436
 C1154 C 0.12761 0.48903 0.51363
 C1155 C 0.15267 0.52991 0.51935
 C1156 C 0.15505 0.55554 0.52951
 C1157 C 0.13476 0.56500 0.54513
 C1158 C 0.11265 0.54927 0.55055
 H1159 H 0.07240 0.51571 0.55736
 H1160 H 0.14283 0.48129 0.50142
 H1161 H 0.16825 0.52207 0.50760
 H1162 H 0.09732 0.55710 0.56260
 H1163 H 0.10353 0.45431 0.50981
 H1164 H 0.13571 0.58481 0.55287
 C1165 C 0.11351 0.50808 -0.01927
 C1166 C 0.09305 0.49977 -0.03455
 C1167 C 0.09455 0.47439 -0.04539
 C1168 C 0.11622 0.45760 -0.04108
 C1169 C 0.13684 0.46640 -0.02602
 C1170 C 0.13525 0.49163 -0.01517
 C1171 C 0.15874 0.44989 -0.02210
 C1172 C 0.16026 0.42435 -0.03265
 C1173 C 0.13940 0.41567 -0.04730
 C1174 C 0.11768 0.43217 -0.05158
 H1175 H 0.07884 0.46765 -0.05707
 H1176 H 0.15085 0.49866 -0.00352
 H1177 H 0.17477 0.45716 -0.01110
 H1178 H 0.10197 0.42499 -0.06302
 H1179 H 0.11295 0.52755 -0.01076
 H1180 H 0.13969 0.39594 -0.05529
 C1181 C 0.57376 0.98674 0.44960
 C1182 C 0.57340 1.00980 0.46433
 C1183 C 0.59343 1.01298 0.48176
 C1184 C 0.61347 0.99378 0.48415
 C1185 C 0.61323 0.97062 0.46954
 C1186 C 0.59325 0.96727 0.45239
 C1187 C 0.63305 0.95125 0.47218
 C1188 C 0.65374 0.95500 0.48876
 C1189 C 0.65397 0.97850 0.50282
 C1190 C 0.63393 0.99751 0.50074
 H1191 H 0.59384 1.03060 0.49319
 H1192 H 0.59281 0.94967 0.44095
 H1193 H 0.63217 0.93319 0.46141
 H1194 H 0.63464 1.01531 0.51189
 H1195 H 0.55875 0.98341 0.43602
 H1196 H 0.66987 0.98250 0.51527
 C1197 C 0.91285 0.98407 0.56160
 C1198 C 0.91303 1.00867 0.54850
 C1199 C 0.89279 1.01384 0.53156
 C1200 C 0.87313 0.99483 0.52755
 C1201 C 0.87369 0.96997 0.54024
 C1202 C 0.89354 0.96486 0.55733
 C1203 C 0.85445 0.95063 0.53559
 C1204 C 0.83415 0.95602 0.51880
 C1205 C 0.83353 0.98120 0.50680
 C1206 C 0.85292 1.00028 0.51096
 H1207 H 0.89218 1.03270 0.52141
 H1208 H 0.89418 0.94596 0.56738
 H1209 H 0.85556 0.93130 0.54483
 H1210 H 0.85201 1.01939 0.50128
 H1211 H 0.92797 0.97929 0.57482
 H1212 H 0.81785 0.98639 0.49433
 C1213 C 0.40059 0.48488 0.05552
 C1214 C 0.41328 0.49762 0.03533
 C1215 C 0.40562 0.49155 0.01124
 C1216 C 0.38585 0.47243 0.00740
 C1217 C 0.37303 0.46001 0.02790
 C1218 C 0.38043 0.46651 0.05187
 C1219 C 0.35317 0.44109 0.02417
 C1220 C 0.34636 0.43352 0.00017
 C1221 C 0.35957 0.44578 -0.02010
 C1222 C 0.37890 0.46520 -0.01653
 H1223 H 0.41552 0.50111 -0.00444
 H1224 H 0.37086 0.45713 0.06780
 H1225 H 0.34295 0.43246 0.04009
 H1226 H 0.38868 0.47429 -0.03249
 H1227 H 0.40611 0.48937 0.07424
 H1228 H 0.35526 0.44015 -0.03881
 C1229 C 0.53097 0.46095 0.41516
 C1230 C 0.50691 0.47492 0.41523
 C1231 C 0.50010 0.49010 0.39419
 C1232 C 0.51698 0.49122 0.37340
 C1233 C 0.54116 0.47721 0.37364
 C1234 C 0.54796 0.46217 0.39461
 C1235 C 0.55814 0.47851 0.35293
 C1236 C 0.55126 0.49349 0.33179
 C1237 C 0.52700 0.50712 0.33172
 C1238 C 0.51008 0.50606 0.35233
 H1239 H 0.48157 0.50087 0.39387
 H1240 H 0.56641 0.45129 0.39513
 H1241 H 0.57689 0.46818 0.35345
 H1242 H 0.49155 0.51679 0.35174
 H1243 H 0.53681 0.44915 0.43108
 H1244 H 0.52094 0.51844 0.31559
 C1245 C 0.01077 -0.05678 0.92729
 C1246 C -0.01334 -0.04289 0.92759
 C1247 C -0.01919 -0.02555 0.90771
 C1248 C -0.00136 -0.02239 0.88773
 C1249 C 0.02278 -0.03647 0.88772
 C1250 C 0.02868 -0.05351 0.90763
 C1251 C 0.04060 -0.03336 0.86777
 C1252 C 0.03458 -0.01652 0.84758
 C1253 C 0.01042 -0.00271 0.84778
 C1254 C -0.00732 -0.00555 0.86767
 H1255 H -0.03773 -0.01479 0.90756
 H1256 H 0.04710 -0.06446 0.90794
 H1257 H 0.05927 -0.04386 0.86813
 H1258 H -0.02580 0.00530 0.86727
 H1259 H 0.01591 -0.07019 0.94234
 H1260 H 0.00501 0.01006 0.83236
 C1261 C 0.01458 0.05242 0.59198
 C1262 C -0.00869 0.03722 0.59164
 C1263 C -0.01378 0.01869 0.61096
 C1264 C 0.00380 0.01572 0.63050
 C1265 C 0.02707 0.03115 0.63068
 C1266 C 0.03236 0.04932 0.61125
 C1267 C 0.04454 0.02830 0.65038
 C1268 C 0.03894 0.01040 0.67011
 C1269 C 0.01564 -0.00477 0.66966
 C1270 C -0.00168 -0.00222 0.65003
 H1271 H -0.03169 0.00692 0.61110
 H1272 H 0.05011 0.06133 0.61106
 H1273 H 0.06255 0.03991 0.65025
 H1274 H -0.01952 -0.01410 0.65026
 H1275 H 0.01908 0.06678 0.57734
 H1276 H 0.01051 -0.01834 0.68475
 C1277 C 0.49236 0.49825 0.09320
 C1278 C 0.48837 0.52467 0.08479
 C1279 C 0.50185 0.54566 0.09609
 C1280 C 0.51894 0.54031 0.11568
 C1281 C 0.52309 0.51362 0.12369
 C1282 C 0.50972 0.49275 0.11232
 C1283 C 0.54043 0.50819 0.14299
 C1284 C 0.55331 0.52912 0.15504
 C1285 C 0.54870 0.55566 0.14709
 C1286 C 0.53187 0.56117 0.12750
 H1287 H 0.49877 0.56613 0.08988
 H1288 H 0.51261 0.47217 0.11827
 H1289 H 0.54403 0.48758 0.14843
 H1290 H 0.52876 0.58178 0.12177
 H1291 H 0.48233 0.48172 0.08473
 H1292 H 0.55780 0.57230 0.15622
 C1293 C 0.47934 -0.05422 0.08648
 C1294 C 0.50311 -0.03989 0.08456
 C1295 C 0.51005 -0.02268 0.10369
 C1296 C 0.49342 -0.01980 0.12445
 C1297 C 0.46937 -0.03395 0.12592
 C1298 C 0.46255 -0.05114 0.10688
 C1299 C 0.45242 -0.03059 0.14631
 C1300 C 0.45928 -0.01359 0.16564
 C1301 C 0.48354 -0.00002 0.16420
 C1302 C 0.50038 -0.00299 0.14375
 H1303 H 0.52843 -0.01169 0.10251
 H1304 H 0.44421 -0.06219 0.10775
 H1305 H 0.43364 -0.04087 0.14685
 H1306 H 0.51885 0.00784 0.14305
 H1307 H 0.47348 -0.06753 0.07197
 H1308 H 0.48963 0.01281 0.17897
 C1309 C 0.98129 0.45018 0.58744
 C1310 C 1.00634 0.46204 0.58544
 C1311 C 1.01446 0.47944 0.60404
 C1312 C 0.99783 0.48484 0.62433
 C1313 C 0.97264 0.47295 0.62597
 C1314 C 0.96456 0.45567 0.60744
 C1315 C 0.95591 0.47848 0.64610
 C1316 C 0.96406 0.49551 0.66496
 C1317 C 0.98925 0.50712 0.66321
 C1318 C 1.00594 0.50191 0.64305
 H1319 H 1.03376 0.48865 0.60284
 H1320 H 0.94531 0.44636 0.60843
 H1321 H 0.93640 0.46974 0.64689
 H1322 H 1.02524 0.51111 0.64217
 H1323 H 0.97444 0.43679 0.57339
 H1324 H 0.99623 0.51999 0.67760
 C1325 C 1.01253 0.50112 0.90648
 C1326 C 1.01798 0.52713 0.91445
 C1327 C 1.00677 0.54913 0.90206
 C1328 C 0.99037 0.54524 0.88185
 C1329 C 0.98447 0.51901 0.87434
 C1330 C 0.99567 0.49707 0.88677
 C1331 C 0.96758 0.51512 0.85448
 C1332 C 0.95707 0.53714 0.84136
 C1333 C 0.96368 0.56316 0.84877
 C1334 C 0.97989 0.56716 0.86894
 H1335 H 1.01111 0.56928 0.90791
 H1336 H 0.99148 0.47681 0.88119
 H1337 H 0.96249 0.49490 0.84948
 H1338 H 0.98447 0.58742 0.87427
 H1339 H 1.02091 0.48389 0.91583
 H1340 H 0.95665 0.58060 0.83880
 C1341 C 0.48945 0.06873 0.40774
 C1342 C 0.49965 0.04509 0.41820
 C1343 C 0.49350 0.02037 0.40776
 C1344 C 0.47749 0.01926 0.38698
 C1345 C 0.46798 0.04319 0.37611
 C1346 C 0.47396 0.06782 0.38672
 C1347 C 0.45281 0.04211 0.35474
 C1348 C 0.44644 0.01734 0.34433
 C1349 C 0.45531 -0.00634 0.35593
 C1350 C 0.47088 -0.00538 0.37686
 H1351 H 0.50107 0.00201 0.41589
 H1352 H 0.46673 0.08637 0.37873
 H1353 H 0.44645 0.06062 0.34603
 H1354 H 0.47768 -0.02394 0.38517
 H1355 H 0.49402 0.08802 0.41546
 H1356 H 0.45012 -0.02578 0.34895
   
