data_POSCAR
  _audit_creation_date              2014-09-24
  _audit_creation_method            'ToBaCCo'
  _symmetry_space_group_name_H-M    'P1'
  _symmetry_Int_Tables_number       1
  _symmetry_cell_setting            triclinic
  loop_
  _symmetry_equiv_pos_as_xyz
 x,y,z
_cell_length_a 50.2364
_cell_length_b 50.2257
_cell_length_c 50.2259
_cell_angle_alpha 90.030600
_cell_angle_beta 90.030400
_cell_angle_gamma 90.000000
loop_
  _atom_site_label
  _atom_site_type_symbol
  _atom_site_fract_x
  _atom_site_fract_y
  _atom_site_fract_z
O1 O 0.22932 1.02552 0.02543
 O2 O 0.22929 0.97372 -0.02656
 O3 O 0.22906 0.97368 0.02528
 O4 O 0.22901 1.02557 -0.02640
 O5 O 0.27303 1.02562 -0.02645
 O6 O 0.27309 0.97366 0.02530
 O7 O 0.27331 0.97376 -0.02654
 O8 O 0.27334 1.02550 0.02540
 Cu9 Cu 0.22472 0.99962 -0.00057
 Cu10 Cu 0.27764 0.99964 -0.00058
 C11 C 0.25135 1.03424 0.03418
 C12 C 0.25132 0.96499 -0.03532
 C13 C 0.25106 0.96491 0.03402
 C14 C 0.25099 1.03437 -0.03514
 O15 O 0.77367 0.52587 0.52590
 O16 O 0.77367 0.47412 0.47398
 O17 O 0.77339 0.52600 0.47402
 O18 O 0.77341 0.47400 0.52584
 O19 O 0.72939 0.47403 0.52579
 O20 O 0.72937 0.52596 0.47404
 O21 O 0.72965 0.47409 0.47393
 O22 O 0.72965 0.52590 0.52591
 Cu23 Cu 0.77798 0.50000 0.49994
 Cu24 Cu 0.72508 0.49999 0.49992
 C25 C 0.75168 0.53462 0.53467
 C26 C 0.75168 0.46537 0.46519
 C27 C 0.75136 0.53475 0.46529
 C28 C 0.75138 0.46524 0.53456
 O29 O 0.72654 0.97410 1.02690
 O30 O 0.72660 1.02584 0.97497
 O31 O 0.72691 0.97397 0.97504
 O32 O 0.72675 1.02598 1.02684
 O33 O 0.77077 1.02599 1.02693
 O34 O 0.77093 0.97405 0.97519
 O35 O 0.77062 1.02591 0.97506
 O36 O 0.77056 0.97412 1.02705
 Cu37 Cu 0.72226 0.99997 1.00093
 Cu38 Cu 0.77516 1.00002 1.00107
 C39 C 0.74852 0.96536 1.03574
 C40 C 0.74860 1.03461 0.96624
 C41 C 0.74897 0.96524 0.96637
 C42 C 0.74875 1.03477 1.03562
 O43 O 0.22650 0.47434 0.52592
 O44 O 0.22647 0.52599 0.47401
 O45 O 0.22675 0.47414 0.47408
 O46 O 0.22676 0.52618 0.52585
 O47 O 0.27079 0.52616 0.52582
 O48 O 0.27077 0.47418 0.47411
 O49 O 0.27050 0.52602 0.47398
 O50 O 0.27053 0.47432 0.52595
 Cu51 Cu 0.22218 0.50016 0.49996
 Cu52 Cu 0.27509 0.50017 0.49997
 C53 C 0.24850 0.46561 0.53470
 C54 C 0.24846 0.53472 0.46523
 C55 C 0.24878 0.46538 0.46536
 C56 C 0.24880 0.53495 0.53457
 O57 O 1.02550 0.27308 0.02550
 O58 O 0.97358 0.27316 -0.02624
 O59 O 0.97367 0.27279 0.02560
 O60 O 1.02542 0.27297 -0.02634
 O61 O 1.02543 0.22894 -0.02645
 O62 O 0.97374 0.22875 0.02543
 O63 O 0.97359 0.22914 -0.02640
 O64 O 1.02557 0.22904 0.02538
 Cu65 Cu 0.99954 0.27745 -0.00036
 Cu66 Cu 0.99959 0.22452 -0.00053
 C67 C 1.03430 0.25106 0.03418
 C68 C 0.96481 0.25118 -0.03506
 C69 C 0.96498 0.25072 0.03427
 C70 C 1.03415 0.25097 -0.03515
 O71 O 0.52602 0.72934 0.52599
 O72 O 0.47405 0.72940 0.47420
 O73 O 0.52591 0.72915 0.47412
 O74 O 0.47416 0.72913 0.52606
 O75 O 0.47415 0.77316 0.52615
 O76 O 0.52596 0.77318 0.47415
 O77 O 0.47409 0.77343 0.47428
 O78 O 0.52601 0.77338 0.52602
 Cu79 Cu 0.50004 0.72482 0.50009
 Cu80 Cu 0.50005 0.77773 0.50015
 C81 C 0.53478 0.75136 0.53475
 C82 C 0.46530 0.75144 0.46550
 C83 C 0.53468 0.75115 0.46537
 C84 C 0.46542 0.75112 0.53488
 O85 O 0.02599 0.72684 -0.02683
 O86 O -0.02594 0.72693 0.02491
 O87 O -0.02589 0.72713 -0.02696
 O88 O 0.02591 0.72708 0.02504
 O89 O 0.02594 0.77111 0.02502
 O90 O -0.02580 0.77115 -0.02693
 O91 O -0.02591 0.77096 0.02494
 O92 O 0.02607 0.77086 -0.02684
 Cu93 Cu 0.00001 0.72255 -0.00096
 Cu94 Cu 0.00008 0.77546 -0.00096
 C95 C 0.03481 0.74882 -0.03557
 C96 C -0.03469 0.74894 0.03367
 C97 C -0.03460 0.74916 -0.03571
 C98 C 0.03466 0.74910 0.03381
 O99 O 0.52604 0.22667 0.47428
 O100 O 0.47413 0.22679 0.52593
 O101 O 0.47420 0.22698 0.47409
 O102 O 0.52596 0.22697 0.52613
 O103 O 0.52599 0.27100 0.52607
 O104 O 0.47428 0.27101 0.47409
 O105 O 0.47416 0.27083 0.52593
 O106 O 0.52612 0.27071 0.47423
 Cu107 Cu 0.50008 0.22241 0.50011
 Cu108 Cu 0.50014 0.27534 0.50008
 C109 C 0.53484 0.24866 0.46554
 C110 C 0.46538 0.24881 0.53465
 C111 C 0.46551 0.24901 0.46531
 C112 C 0.53471 0.24900 0.53487
 O113 O 1.02547 0.02544 0.22967
 O114 O 0.97371 -0.02661 0.22965
 O115 O 0.97364 0.02524 0.22935
 O116 O 1.02555 -0.02641 0.22935
 O117 O 1.02561 -0.02644 0.27338
 O118 O 0.97362 0.02529 0.27339
 O119 O 0.97376 -0.02657 0.27368
 O120 O 1.02546 0.02542 0.27370
 Cu121 Cu 0.99959 -0.00059 0.22506
 Cu122 Cu 0.99962 -0.00057 0.27798
 C123 C 1.03420 0.03421 0.25170
 C124 C 0.96500 -0.03537 0.25168
 C125 C 0.96486 0.03399 0.25135
 C126 C 1.03435 -0.03515 0.25134
 O127 O 0.52588 0.52605 0.77446
 O128 O 0.47425 0.47411 0.77441
 O129 O 0.52610 0.47419 0.77410
 O130 O 0.47403 0.52597 0.77416
 O131 O 0.47404 0.52595 0.73013
 O132 O 0.52603 0.47426 0.73007
 O133 O 0.47420 0.47410 0.73038
 O134 O 0.52589 0.52611 0.73043
 Cu135 Cu 0.50007 0.50008 0.77873
 Cu136 Cu 0.50004 0.50011 0.72581
 C137 C 0.53460 0.53485 0.75247
 C138 C 0.46551 0.46533 0.75241
 C139 C 0.53484 0.46549 0.75205
 C140 C 0.46525 0.53470 0.75213
 O141 O 0.97362 1.02655 0.72602
 O142 O 1.02535 0.97460 0.72609
 O143 O 0.97351 0.97468 0.72642
 O144 O 1.02547 1.02645 0.72627
 O145 O 1.02548 1.02653 0.77031
 O146 O 0.97360 0.97484 0.77045
 O147 O 1.02543 0.97469 0.77012
 O148 O 0.97364 1.02670 0.77004
 Cu149 Cu 0.99948 1.00056 0.72175
 Cu150 Cu 0.99954 1.00071 0.77467
 C151 C 0.96489 1.03541 0.74800
 C152 C 1.03413 0.96587 0.74810
 C153 C 0.96481 0.96602 0.74848
 C154 C 1.03425 1.03521 0.74829
 O155 O 0.47431 0.52589 0.22572
 O156 O 0.52596 0.47395 0.22581
 O157 O 0.47411 0.47403 0.22610
 O158 O 0.52616 0.52581 0.22605
 O159 O 0.52613 0.52586 0.27008
 O160 O 0.47415 0.47415 0.27013
 O161 O 0.52599 0.47400 0.26984
 O162 O 0.47429 0.52600 0.26976
 Cu163 Cu 0.50013 0.49991 0.22148
 Cu164 Cu 0.50014 0.50001 0.27440
 C165 C 0.46559 0.53472 0.24770
 C166 C 0.53469 0.46521 0.24782
 C167 C 0.46535 0.46535 0.24815
 C168 C 0.53492 0.53457 0.24808
 O169 O 0.25036 0.18076 0.21298
 O170 O 0.27918 0.17304 0.25005
 O171 O 0.18076 0.21310 0.25110
 O172 O 0.17096 0.24765 0.27712
 O173 O 0.21315 0.25038 0.18063
 O174 O 0.25012 0.27935 0.17318
 O175 O 0.25082 0.28637 0.31896
 O176 O 0.21984 0.25157 0.32607
 O177 O 0.31871 0.25057 0.28665
 O178 O 0.32711 0.22075 0.24872
 O179 O 0.28654 0.31869 0.25077
 O180 O 0.24858 0.32703 0.22097
 O181 O 0.25081 0.31845 0.28696
 O182 O 0.22017 0.32649 0.24894
 O183 O 0.31861 0.28671 0.25073
 O184 O 0.32652 0.24849 0.22019
 O185 O 0.28678 0.25083 0.31878
 O186 O 0.25021 0.22013 0.32688
 O187 O 0.25053 0.21280 0.18088
 O188 O 0.27983 0.25000 0.17349
 O189 O 0.18104 0.25009 0.21263
 O190 O 0.17503 0.28130 0.24980
 O191 O 0.21272 0.18093 0.25041
 O192 O 0.24986 0.17341 0.27969
 Zr193 Zr 0.24884 0.20218 0.24900
 O194 O 0.27387 0.22494 0.27374
 Zr195 Zr 0.20216 0.24904 0.24887
 O196 O 0.22502 0.27366 0.27408
 Zr197 Zr 0.24906 0.24889 0.20218
 O198 O 0.27380 0.27386 0.22506
 Zr199 Zr 0.25073 0.25046 0.29749
 O200 O 0.22537 0.22550 0.27481
 Zr201 Zr 0.29739 0.25058 0.25057
 O202 O 0.27472 0.22533 0.22550
 Zr203 Zr 0.25052 0.29730 0.25077
 O204 O 0.22553 0.27467 0.22537
 O205 O 0.22419 0.22424 0.22417
 O206 O 0.27561 0.27551 0.27564
 C207 C 0.25108 0.18844 0.18861
 C208 C 0.18839 0.18871 0.25142
 C209 C 0.18879 0.25083 0.18829
 C210 C 0.25086 0.31074 0.31131
 C211 C 0.31110 0.25071 0.31103
 C212 C 0.31091 0.31105 0.25075
 H213 H 0.28496 0.21283 0.28455
 H214 H 0.28473 0.28488 0.21298
 H215 H 0.21281 0.21280 0.21285
 H216 H 0.21308 0.28450 0.28535
 H217 H 0.20623 0.23854 0.32026
 H218 H 0.17681 0.25791 0.29288
 H219 H 0.32308 0.26313 0.20749
 H220 H 0.29374 0.23749 0.17969
 H221 H 0.26400 0.20684 0.32236
 H222 H 0.23746 0.17967 0.29367
 H223 H 0.26238 0.32298 0.20754
 H224 H 0.23808 0.29359 0.17957
 H225 H 0.29350 0.17946 0.23815
 H226 H 0.32303 0.20729 0.26250
 H227 H 0.18045 0.29382 0.23558
 H228 H 0.20749 0.32294 0.26357
 O229 O 0.74964 0.81942 0.21302
 O230 O 0.72089 0.82711 0.25014
 O231 O 0.81931 0.78702 0.25100
 O232 O 0.82917 0.75246 0.27694
 O233 O 0.78676 0.74981 0.18050
 O234 O 0.74975 0.72086 0.17304
 O235 O 0.74935 0.71371 0.31885
 O236 O 0.78037 0.74850 0.32597
 O237 O 0.68141 0.74958 0.28667
 O238 O 0.67295 0.77942 0.24879
 O239 O 0.71350 0.68146 0.25062
 O240 O 0.75138 0.67310 0.22080
 O241 O 0.74931 0.68166 0.28679
 O242 O 0.77990 0.67368 0.24869
 O243 O 0.68144 0.71345 0.25067
 O244 O 0.67346 0.75168 0.22022
 O245 O 0.71340 0.74929 0.31877
 O246 O 0.75003 0.77997 0.32686
 O247 O 0.74940 0.78742 0.18085
 O248 O 0.72005 0.75023 0.17346
 O249 O 0.81894 0.75005 0.21246
 O250 O 0.82500 0.71881 0.24958
 O251 O 0.78735 0.81921 0.25041
 O252 O 0.75028 0.82672 0.27975
 Zr253 Zr 0.75123 0.79797 0.24900
 O254 O 0.72625 0.77519 0.27374
 Zr255 Zr 0.79789 0.75110 0.24874
 O256 O 0.77508 0.72647 0.27394
 Zr257 Zr 0.75089 0.75131 0.20210
 O258 O 0.72620 0.72632 0.22497
 Zr259 Zr 0.74942 0.74965 0.29743
 O260 O 0.77474 0.77462 0.27475
 Zr261 Zr 0.70267 0.74958 0.25056
 O262 O 0.72528 0.77484 0.22549
 Zr263 Zr 0.74952 0.70285 0.25062
 O264 O 0.77446 0.72549 0.22522
 O265 O 0.77582 0.77592 0.22411
 O266 O 0.72449 0.72462 0.27556
 C267 C 0.74888 0.81178 0.18863
 C268 C 0.81168 0.81142 0.25137
 C269 C 0.81115 0.74933 0.18812
 C270 C 0.74930 0.68935 0.31116
 C271 C 0.68906 0.74942 0.31105
 C272 C 0.68914 0.68910 0.25064
 H273 H 0.71518 0.78730 0.28459
 H274 H 0.71525 0.71530 0.21289
 H275 H 0.78718 0.78736 0.21279
 H276 H 0.78704 0.71561 0.28518
 H277 H 0.79398 0.76152 0.32016
 H278 H 0.82335 0.74220 0.29270
 H279 H 0.67690 0.73707 0.20747
 H280 H 0.70617 0.76276 0.17969
 H281 H 0.73623 0.79326 0.32238
 H282 H 0.76271 0.82043 0.29370
 H283 H 0.73760 0.67721 0.20734
 H284 H 0.76180 0.70661 0.17939
 H285 H 0.70654 0.82070 0.23823
 H286 H 0.67707 0.79286 0.26258
 H287 H 0.81956 0.70632 0.23533
 H288 H 0.79257 0.67717 0.26336
 O289 O 0.74985 0.18093 0.78726
 O290 O 0.72099 0.17318 0.75021
 O291 O 0.81943 0.21322 0.74907
 O292 O 0.82926 0.24774 0.72311
 O293 O 0.78704 0.25060 0.81957
 O294 O 0.75008 0.27957 0.82703
 O295 O 0.74939 0.28643 0.68121
 O296 O 0.78038 0.25159 0.67414
 O297 O 0.68149 0.25066 0.71355
 O298 O 0.67307 0.22092 0.75147
 O299 O 0.71368 0.31884 0.74940
 O300 O 0.75163 0.32723 0.77918
 O301 O 0.74942 0.31854 0.71320
 O302 O 0.78007 0.32660 0.75125
 O303 O 0.68160 0.28686 0.74946
 O304 O 0.67369 0.24868 0.78002
 O305 O 0.71342 0.25088 0.68142
 O306 O 0.74998 0.22017 0.67332
 O307 O 0.74967 0.21301 0.81935
 O308 O 0.72036 0.25024 0.82670
 O309 O 0.81915 0.25026 0.78758
 O310 O 0.82517 0.28142 0.75041
 O311 O 0.78746 0.18105 0.74978
 O312 O 0.75029 0.17349 0.72055
 Zr313 Zr 0.75135 0.20231 0.75123
 O314 O 0.72634 0.22505 0.72647
 Zr315 Zr 0.79803 0.24916 0.75133
 O316 O 0.77519 0.27376 0.72612
 Zr317 Zr 0.75113 0.24907 0.79803
 O318 O 0.72641 0.27403 0.77514
 Zr319 Zr 0.74947 0.25053 0.70271
 O320 O 0.77482 0.22559 0.72540
 Zr321 Zr 0.70282 0.25073 0.74963
 O322 O 0.72547 0.22550 0.77472
 Zr323 Zr 0.74969 0.29743 0.74941
 O324 O 0.77467 0.27483 0.77483
 O325 O 0.77601 0.22439 0.77604
 O326 O 0.72460 0.27562 0.72455
 C327 C 0.74913 0.18864 0.81163
 C328 C 0.81178 0.18882 0.74873
 C329 C 0.81141 0.25104 0.81192
 C330 C 0.74936 0.31081 0.68885
 C331 C 0.68910 0.25077 0.68917
 C332 C 0.68931 0.31121 0.74943
 H333 H 0.71524 0.21293 0.71566
 H334 H 0.71549 0.28508 0.78721
 H335 H 0.78739 0.21297 0.78736
 H336 H 0.78713 0.28458 0.71484
 H337 H 0.79398 0.23855 0.67996
 H338 H 0.82340 0.25796 0.70733
 H339 H 0.67714 0.26334 0.79271
 H340 H 0.70646 0.23769 0.82052
 H341 H 0.73620 0.20688 0.67786
 H342 H 0.76268 0.17974 0.70656
 H343 H 0.73785 0.32318 0.79264
 H344 H 0.76209 0.29381 0.82062
 H345 H 0.70668 0.17962 0.76213
 H346 H 0.67719 0.20742 0.73774
 H347 H 0.81976 0.29395 0.76463
 H348 H 0.79273 0.32306 0.73660
 O349 O 0.25028 0.81929 0.78725
 O350 O 0.27913 0.82703 0.75026
 O351 O 0.18069 0.78702 0.74899
 O352 O 0.17089 0.75249 0.72292
 O353 O 0.21299 0.74965 0.81950
 O354 O 0.24997 0.72067 0.82699
 O355 O 0.25080 0.71376 0.68119
 O356 O 0.21983 0.74856 0.67405
 O357 O 0.31868 0.74951 0.71364
 O358 O 0.32701 0.77933 0.75166
 O359 O 0.28643 0.68137 0.74944
 O360 O 0.24844 0.67302 0.77915
 O361 O 0.25073 0.68167 0.71317
 O362 O 0.22006 0.67361 0.75113
 O363 O 0.31852 0.71334 0.74956
 O364 O 0.32646 0.75150 0.78010
 O365 O 0.28677 0.74929 0.68146
 O366 O 0.25019 0.78002 0.67334
 O367 O 0.25040 0.78724 0.81934
 O368 O 0.27966 0.75001 0.82677
 O369 O 0.18091 0.74998 0.78744
 O370 O 0.17493 0.71881 0.75022
 O371 O 0.21268 0.81917 0.74975
 O372 O 0.24985 0.82669 0.72055
 Zr373 Zr 0.24878 0.79789 0.75122
 O374 O 0.27382 0.77514 0.72651
 Zr375 Zr 0.20207 0.75107 0.75123
 O376 O 0.22495 0.72645 0.72605
 Zr377 Zr 0.24893 0.75116 0.79801
 O378 O 0.27369 0.72620 0.77516
 Zr379 Zr 0.25069 0.74966 0.70270
 O380 O 0.22532 0.77461 0.72535
 Zr381 Zr 0.29731 0.74948 0.74970
 O382 O 0.27463 0.77471 0.77476
 Zr383 Zr 0.25042 0.70279 0.74939
 O384 O 0.22541 0.72540 0.77476
 O385 O 0.22409 0.77583 0.77599
 O386 O 0.27554 0.72458 0.72457
 C387 C 0.25097 0.81160 0.81162
 C388 C 0.18835 0.81141 0.74870
 C389 C 0.18862 0.74920 0.81180
 C390 C 0.25081 0.68939 0.68883
 C391 C 0.31109 0.74939 0.68925
 C392 C 0.31080 0.68900 0.74951
 H393 H 0.28493 0.78726 0.71573
 H394 H 0.28460 0.71516 0.78724
 H395 H 0.21270 0.78727 0.78730
 H396 H 0.21302 0.71562 0.71474
 H397 H 0.20621 0.76159 0.67985
 H398 H 0.17676 0.74225 0.70716
 H399 H 0.32294 0.73691 0.79284
 H400 H 0.29359 0.76250 0.82060
 H401 H 0.26401 0.79328 0.67788
 H402 H 0.23746 0.82044 0.70655
 H403 H 0.26222 0.67707 0.79263
 H404 H 0.23793 0.70644 0.82057
 H405 H 0.29345 0.82057 0.76216
 H406 H 0.32300 0.79274 0.73782
 H407 H 0.18033 0.70628 0.76444
 H408 H 0.20738 0.67717 0.73648
 O409 O 0.24954 0.31918 0.71325
 O410 O 0.22073 0.32693 0.75029
 O411 O 0.31906 0.28666 0.75143
 O412 O 0.32885 0.25207 0.77731
 O413 O 0.28663 0.24954 0.68081
 O414 O 0.24962 0.22064 0.67324
 O415 O 0.24889 0.21351 0.81901
 O416 O 0.27993 0.24825 0.82624
 O417 O 0.18108 0.24947 0.78667
 O418 O 0.17276 0.27936 0.74876
 O419 O 0.21315 0.18134 0.75075
 O420 O 0.25105 0.17290 0.72098
 O421 O 0.24887 0.18147 0.78694
 O422 O 0.27951 0.17342 0.74892
 O423 O 0.18114 0.21338 0.75073
 O424 O 0.17325 0.25158 0.72024
 O425 O 0.21300 0.24911 0.81885
 O426 O 0.24964 0.27975 0.82706
 O427 O 0.24931 0.28717 0.68108
 O428 O 0.21997 0.25002 0.67358
 O429 O 0.31873 0.24974 0.71285
 O430 O 0.32468 0.21846 0.74997
 O431 O 0.28716 0.31890 0.75074
 O432 O 0.25004 0.32650 0.77995
 Zr433 Zr 0.25102 0.29773 0.74922
 O434 O 0.22596 0.27501 0.77389
 Zr435 Zr 0.29761 0.25079 0.74906
 O436 O 0.27472 0.22620 0.77420
 Zr437 Zr 0.25073 0.25107 0.70231
 O438 O 0.22595 0.22613 0.72510
 Zr439 Zr 0.24906 0.24944 0.79761
 O440 O 0.27446 0.27436 0.77501
 Zr441 Zr 0.20241 0.24945 0.75063
 O442 O 0.22511 0.27466 0.72563
 Zr443 Zr 0.24919 0.20264 0.75080
 O444 O 0.27422 0.22523 0.72546
 O445 O 0.27564 0.27565 0.72439
 O446 O 0.22415 0.22447 0.77568
 C447 C 0.24880 0.31151 0.68887
 C448 C 0.31146 0.31106 0.75179
 C449 C 0.31099 0.24903 0.68850
 C450 C 0.24882 0.18916 0.81130
 C451 C 0.18869 0.24928 0.81105
 C452 C 0.18881 0.18903 0.75073
 H453 H 0.21489 0.28714 0.78471
 H454 H 0.21500 0.21514 0.71300
 H455 H 0.28704 0.28708 0.71310
 H456 H 0.28664 0.21533 0.78546
 H457 H 0.29358 0.26125 0.82046
 H458 H 0.32297 0.24188 0.79308
 H459 H 0.17670 0.23696 0.70750
 H460 H 0.20608 0.26254 0.67977
 H461 H 0.23583 0.29304 0.82258
 H462 H 0.26240 0.32019 0.79395
 H463 H 0.23729 0.17701 0.70751
 H464 H 0.26163 0.20637 0.67962
 H465 H 0.20640 0.32055 0.73835
 H466 H 0.17682 0.29275 0.76262
 H467 H 0.31928 0.20599 0.73569
 H468 H 0.29217 0.17689 0.76361
 O469 O 0.75072 0.68103 0.71355
 O470 O 0.77962 0.67328 0.75056
 O471 O 0.68119 0.71332 0.75186
 O472 O 0.67131 0.74784 0.77779
 O473 O 0.71346 0.75065 0.68132
 O474 O 0.75041 0.77966 0.67386
 O475 O 0.75127 0.78648 0.81969
 O476 O 0.72032 0.75164 0.82679
 O477 O 0.81913 0.75076 0.78723
 O478 O 0.82747 0.72098 0.74923
 O479 O 0.78683 0.81889 0.75149
 O480 O 0.74892 0.82734 0.72181
 O481 O 0.75117 0.81859 0.78773
 O482 O 0.72042 0.82661 0.74969
 O483 O 0.81893 0.78694 0.75137
 O484 O 0.82689 0.74881 0.72079
 O485 O 0.78725 0.75097 0.81941
 O486 O 0.75067 0.72021 0.82749
 O487 O 0.75085 0.71310 0.68148
 O488 O 0.78013 0.75034 0.67412
 O489 O 0.68139 0.75031 0.71336
 O490 O 0.67544 0.78153 0.75060
 O491 O 0.71317 0.68115 0.75106
 O492 O 0.75034 0.67357 0.78023
 Zr493 Zr 0.74925 0.70240 0.74959
 O494 O 0.77429 0.72513 0.77435
 Zr495 Zr 0.70255 0.74924 0.74958
 O496 O 0.72541 0.77382 0.77482
 Zr497 Zr 0.74939 0.74916 0.70283
 O498 O 0.77412 0.77411 0.72573
 Zr499 Zr 0.75116 0.75059 0.79816
 O500 O 0.72579 0.72567 0.77546
 Zr501 Zr 0.79775 0.75080 0.75118
 O502 O 0.77509 0.72559 0.72608
 Zr503 Zr 0.75085 0.79749 0.75150
 O504 O 0.72587 0.77491 0.72607
 O505 O 0.72456 0.72448 0.72483
 O506 O 0.77599 0.77569 0.77631
 C507 C 0.75142 0.68873 0.68919
 C508 C 0.68885 0.68894 0.75214
 C509 C 0.68910 0.75108 0.68901
 C510 C 0.75127 0.81085 0.81207
 C511 C 0.81156 0.75087 0.81162
 C512 C 0.81119 0.81127 0.75143
 H513 H 0.78540 0.71301 0.78513
 H514 H 0.78502 0.78516 0.71366
 H515 H 0.71317 0.71304 0.71351
 H516 H 0.71347 0.78464 0.78612
 H517 H 0.70669 0.73864 0.82095
 H518 H 0.67721 0.75796 0.79362
 H519 H 0.82337 0.76342 0.70807
 H520 H 0.79404 0.73781 0.68027
 H521 H 0.76453 0.70698 0.82299
 H522 H 0.73799 0.67983 0.79425
 H523 H 0.76259 0.82322 0.70826
 H524 H 0.73836 0.79388 0.68028
 H525 H 0.79391 0.67972 0.73864
 H526 H 0.82345 0.70753 0.76303
 H527 H 0.68077 0.79401 0.73631
 H528 H 0.70784 0.82313 0.76443
 O529 O 0.24953 0.68090 0.28648
 O530 O 0.22079 0.67306 0.24939
 O531 O 0.31911 0.71336 0.24842
 O532 O 0.32897 0.74792 0.22256
 O533 O 0.28655 0.75061 0.31891
 O534 O 0.24950 0.77953 0.32629
 O535 O 0.24904 0.78634 0.18050
 O536 O 0.28008 0.75160 0.17342
 O537 O 0.18117 0.75047 0.21270
 O538 O 0.17281 0.72062 0.25066
 O539 O 0.21318 0.81866 0.24863
 O540 O 0.25102 0.82717 0.27845
 O541 O 0.24894 0.81845 0.21250
 O542 O 0.27953 0.82658 0.25059
 O543 O 0.18116 0.78661 0.24862
 O544 O 0.17321 0.74847 0.27911
 O545 O 0.21315 0.75076 0.18062
 O546 O 0.24984 0.72006 0.17263
 O547 O 0.24924 0.71297 0.31859
 O548 O 0.21987 0.75012 0.32594
 O549 O 0.31871 0.75035 0.28697
 O550 O 0.32469 0.78158 0.24979
 O551 O 0.28720 0.68112 0.24908
 O552 O 0.25013 0.67345 0.21980
 Zr553 Zr 0.25106 0.70228 0.25047
 O554 O 0.22604 0.72493 0.22568
 Zr555 Zr 0.29765 0.74923 0.25069
 O556 O 0.27480 0.77375 0.22542
 Zr557 Zr 0.25068 0.74903 0.29729
 O558 O 0.22593 0.77391 0.27437
 Zr559 Zr 0.24917 0.75046 0.20198
 O560 O 0.27455 0.72560 0.22471
 Zr561 Zr 0.20244 0.75054 0.24882
 O562 O 0.22511 0.72539 0.27394
 Zr563 Zr 0.24922 0.79735 0.24870
 O564 O 0.27421 0.77484 0.27416
 O565 O 0.27563 0.72441 0.27534
 O566 O 0.22422 0.77548 0.22379
 C567 C 0.24875 0.68862 0.31084
 C568 C 0.31150 0.68896 0.24807
 C569 C 0.31092 0.75110 0.31130
 C570 C 0.24894 0.81070 0.18816
 C571 C 0.18882 0.75062 0.18833
 C572 C 0.18884 0.81096 0.24862
 H573 H 0.21499 0.71279 0.21485
 H574 H 0.21497 0.78492 0.28642
 H575 H 0.28702 0.71300 0.28668
 H576 H 0.28674 0.78460 0.21417
 H577 H 0.29375 0.73865 0.17928
 H578 H 0.32309 0.75803 0.20673
 H579 H 0.17667 0.76307 0.29187
 H580 H 0.20599 0.73758 0.31972
 H581 H 0.23595 0.70684 0.17703
 H582 H 0.26250 0.67974 0.20581
 H583 H 0.23727 0.82306 0.29192
 H584 H 0.26154 0.79377 0.31993
 H585 H 0.20642 0.67948 0.26125
 H586 H 0.17687 0.70722 0.23680
 H587 H 0.31928 0.79406 0.26406
 H588 H 0.29221 0.82309 0.23594
 O589 O 0.75054 0.31862 0.28659
 O590 O 0.77931 0.32625 0.24947
 O591 O 0.68083 0.28633 0.24860
 O592 O 0.67084 0.25179 0.22270
 O593 O 0.71337 0.24905 0.31906
 O594 O 0.75034 0.22009 0.32650
 O595 O 0.75056 0.21292 0.18069
 O596 O 0.71957 0.24777 0.17362
 O597 O 0.81856 0.24868 0.21285
 O598 O 0.82711 0.27852 0.25075
 O599 O 0.78638 0.18064 0.24883
 O600 O 0.74853 0.17233 0.27869
 O601 O 0.75058 0.18088 0.21272
 O602 O 0.72000 0.17295 0.25083
 O603 O 0.81850 0.21258 0.24878
 O604 O 0.82662 0.25075 0.27926
 O605 O 0.78654 0.24842 0.18078
 O606 O 0.74998 0.27916 0.17271
 O607 O 0.75075 0.28662 0.31873
 O608 O 0.78007 0.24939 0.32606
 O609 O 0.68117 0.24937 0.28712
 O610 O 0.67498 0.21815 0.24998
 O611 O 0.71285 0.31846 0.24920
 O612 O 0.74991 0.32594 0.21990
 Zr613 Zr 0.74892 0.29717 0.25059
 O614 O 0.77381 0.27436 0.22581
 Zr615 Zr 0.70217 0.25038 0.25084
 O616 O 0.72489 0.22571 0.22560
 Zr617 Zr 0.74921 0.25052 0.29745
 O618 O 0.77382 0.22548 0.27454
 Zr619 Zr 0.75055 0.24886 0.20213
 O620 O 0.72532 0.27387 0.22485
 Zr621 Zr 0.79735 0.24872 0.24897
 O622 O 0.77483 0.27402 0.27408
 Zr623 Zr 0.75041 0.20207 0.24890
 O624 O 0.72556 0.22475 0.27434
 O625 O 0.72430 0.27517 0.27548
 O626 O 0.77546 0.22380 0.22396
 C627 C 0.75130 0.31097 0.31096
 C628 C 0.68852 0.31070 0.24823
 C629 C 0.68899 0.24861 0.31145
 C630 C 0.75059 0.18857 0.18836
 C631 C 0.81088 0.24852 0.18850
 C632 C 0.81074 0.18825 0.24879
 H633 H 0.78489 0.28645 0.21497
 H634 H 0.78476 0.21445 0.28660
 H635 H 0.71297 0.28663 0.28681
 H636 H 0.71289 0.21487 0.21436
 H637 H 0.70600 0.26083 0.17945
 H638 H 0.67663 0.24156 0.20690
 H639 H 0.82314 0.23617 0.29202
 H640 H 0.79395 0.26192 0.31985
 H641 H 0.76381 0.29243 0.17719
 H642 H 0.73749 0.31967 0.20593
 H643 H 0.76235 0.17639 0.29212
 H644 H 0.73829 0.20584 0.32014
 H645 H 0.79363 0.31984 0.26140
 H646 H 0.82302 0.29195 0.23696
 H647 H 0.68041 0.20564 0.26421
 H648 H 0.70733 0.17644 0.23616
 C649 C 0.25143 0.05440 0.05441
 C650 C 0.25160 0.07136 0.07141
 C651 C 0.25186 0.09160 0.09168
 C652 C 0.24957 0.11849 0.08462
 C653 C 0.24977 0.13817 0.10433
 C654 C 0.25228 0.13105 0.13118
 C655 C 0.25460 0.10416 0.13824
 C656 C 0.25440 0.08448 0.11853
 C657 C 0.25215 0.15128 0.15147
 C658 C 0.25183 0.16825 0.16845
 H659 H 0.24760 0.12422 0.06392
 H660 H 0.24792 0.15890 0.09865
 H661 H 0.25651 0.09843 0.15895
 H662 H 0.25619 0.06375 0.12421
 C663 C 0.75175 0.55478 0.55490
 C664 C 0.75192 0.57173 0.57190
 C665 C 0.75217 0.59197 0.59218
 C666 C 0.74925 0.61882 0.58519
 C667 C 0.74944 0.63848 0.60491
 C668 C 0.75258 0.63139 0.63170
 C669 C 0.75554 0.60455 0.63870
 C670 C 0.75534 0.58488 0.61898
 C671 C 0.75246 0.65161 0.65201
 C672 C 0.75214 0.66856 0.66900
 H673 H 0.74678 0.62452 0.56453
 H674 H 0.74710 0.65918 0.59929
 H675 H 0.75793 0.59885 0.65936
 H676 H 0.75762 0.56419 0.62460
 C677 C 0.74844 0.94624 0.05485
 C678 C 0.74828 0.92925 0.07180
 C679 C 0.74803 0.90894 0.09202
 C680 C 0.74873 0.91604 0.11899
 C681 C 0.74855 0.89630 0.13863
 C682 C 0.74765 0.86936 0.13139
 C683 C 0.74691 0.86226 0.10441
 C684 C 0.74710 0.88201 0.08477
 C685 C 0.74778 0.84904 0.15159
 C686 C 0.74812 0.83202 0.16851
 H687 H 0.74946 0.93680 0.12483
 H688 H 0.74917 0.90201 0.15943
 H689 H 0.74626 0.84150 0.09858
 H690 H 0.74655 0.87629 0.06398
 C691 C 0.24844 0.44548 0.55491
 C692 C 0.24829 0.42855 0.57189
 C693 C 0.24804 0.40833 0.59214
 C694 C 0.24765 0.38138 0.58495
 C695 C 0.24745 0.36171 0.60464
 C696 C 0.24763 0.36892 0.63159
 C697 C 0.24799 0.39588 0.63878
 C698 C 0.24819 0.41555 0.61909
 C699 C 0.24775 0.34869 0.65183
 C700 C 0.24808 0.33172 0.66876
 H701 H 0.24753 0.37559 0.56417
 H702 H 0.24722 0.34092 0.59887
 H703 H 0.24818 0.40166 0.65956
 H704 H 0.24849 0.43633 0.62485
 C705 C 0.74855 0.05476 0.94600
 C706 C 0.74842 0.07169 0.92899
 C707 C 0.74821 0.09191 0.90868
 C708 C 0.74895 0.11888 0.91579
 C709 C 0.74880 0.13853 0.89605
 C710 C 0.74789 0.13129 0.86912
 C711 C 0.74711 0.10432 0.86201
 C712 C 0.74726 0.08467 0.88174
 C713 C 0.74804 0.15151 0.84881
 C714 C 0.74838 0.16846 0.83182
 H715 H 0.74968 0.12471 0.93655
 H716 H 0.74944 0.15932 0.90178
 H717 H 0.74644 0.09850 0.84125
 H718 H 0.74668 0.06388 0.87602
 C719 C 0.24838 0.55484 0.44501
 C720 C 0.24821 0.57176 0.42802
 C721 C 0.24795 0.59196 0.40774
 C722 C 0.24888 0.61892 0.41487
 C723 C 0.24868 0.63856 0.39516
 C724 C 0.24754 0.63132 0.36824
 C725 C 0.24657 0.60436 0.36111
 C726 C 0.24677 0.58472 0.38082
 C727 C 0.24767 0.65151 0.34796
 C728 C 0.24800 0.66845 0.33099
 H729 H 0.24979 0.62472 0.43563
 H730 H 0.24948 0.65935 0.40088
 H731 H 0.24573 0.59856 0.34034
 H732 H 0.24605 0.56393 0.37510
 C733 C 0.25137 0.94589 0.94557
 C734 C 0.25152 0.92891 0.92860
 C735 C 0.25175 0.90862 0.90837
 C736 C 0.25227 0.88168 0.91559
 C737 C 0.25246 0.86195 0.89592
 C738 C 0.25215 0.86909 0.86896
 C739 C 0.25167 0.89603 0.86174
 C740 C 0.25148 0.91575 0.88140
 C741 C 0.25203 0.84879 0.84873
 C742 C 0.25171 0.83180 0.83178
 H743 H 0.25249 0.87594 0.93638
 H744 H 0.25279 0.84118 0.90172
 H745 H 0.25139 0.90176 0.84095
 H746 H 0.25109 0.93652 0.87561
 C747 C 0.75175 0.44519 0.44498
 C748 C 0.75191 0.42822 0.42800
 C749 C 0.75217 0.40795 0.40775
 C750 C 0.75282 0.41511 0.38080
 C751 C 0.75301 0.39540 0.36112
 C752 C 0.75257 0.36845 0.36830
 C753 C 0.75196 0.36129 0.39526
 C754 C 0.75176 0.38100 0.41494
 C755 C 0.75243 0.34818 0.34805
 C756 C 0.75208 0.33119 0.33111
 H757 H 0.75314 0.43589 0.37502
 H758 H 0.75344 0.40116 0.34033
 H759 H 0.75156 0.34051 0.40103
 H760 H 0.75126 0.37524 0.43572
 C761 C 0.05453 0.25109 0.05433
 C762 C 0.07153 0.25118 0.07127
 C763 C 0.09182 0.25132 0.09150
 C764 C 0.09632 0.22852 0.10693
 C765 C 0.11604 0.22865 0.12659
 C766 C 0.13134 0.25157 0.13091
 C767 C 0.12685 0.27437 0.11550
 C768 C 0.10713 0.27424 0.09583
 C769 C 0.15165 0.25162 0.15112
 C770 C 0.16863 0.25143 0.16808
 H771 H 0.08460 0.21069 0.10375
 H772 H 0.11935 0.21091 0.13840
 H773 H 0.13858 0.29220 0.11867
 H774 H 0.10381 0.29198 0.08401
 C775 C 0.55499 0.75140 0.55492
 C776 C 0.57197 0.75149 0.57188
 C777 C 0.59223 0.75161 0.59214
 C778 C 0.59983 0.72776 0.60443
 C779 C 0.61951 0.72788 0.62412
 C780 C 0.63169 0.75184 0.63160
 C781 C 0.62410 0.77570 0.61931
 C782 C 0.60440 0.77558 0.59961
 C783 C 0.65196 0.75189 0.65185
 C784 C 0.66893 0.75169 0.66881
 H785 H 0.59054 0.70912 0.59880
 H786 H 0.62524 0.70931 0.63350
 H787 H 0.63339 0.79434 0.62494
 H788 H 0.59868 0.79414 0.59023
 C789 C 0.05400 0.74874 0.94540
 C790 C 0.07105 0.74860 0.92851
 C791 C 0.09142 0.74839 0.90836
 C792 C 0.08457 0.74465 0.88157
 C793 C 0.10436 0.74450 0.86198
 C794 C 0.13110 0.74807 0.86910
 C795 C 0.13796 0.75178 0.89589
 C796 C 0.11817 0.75193 0.91548
 C797 C 0.15143 0.74821 0.84891
 C798 C 0.16844 0.74852 0.83198
 H799 H 0.06396 0.74189 0.87584
 H800 H 0.09882 0.74165 0.84133
 H801 H 0.15856 0.75460 0.90162
 H802 H 0.12370 0.75484 0.93613
 C803 C 0.55506 0.24855 0.44543
 C804 C 0.57206 0.24836 0.42852
 C805 C 0.59235 0.24810 0.40834
 C806 C 0.58702 0.23698 0.38331
 C807 C 0.60672 0.23677 0.36366
 C808 C 0.63184 0.24767 0.36898
 C809 C 0.63719 0.25875 0.39402
 C810 C 0.61748 0.25896 0.41367
 C811 C 0.65202 0.24772 0.34870
 C812 C 0.66892 0.24798 0.33169
 H813 H 0.56765 0.22852 0.37899
 H814 H 0.60238 0.22818 0.34435
 H815 H 0.65654 0.26727 0.39832
 H816 H 0.62181 0.26761 0.43296
 C817 C 0.94510 0.74892 0.05385
 C818 C 0.92814 0.74884 0.07082
 C819 C 0.90790 0.74870 0.09112
 C820 C 0.88563 0.73209 0.08855
 C821 C 0.86597 0.73196 0.10827
 C822 C 0.86851 0.74844 0.13065
 C823 C 0.89079 0.76504 0.13322
 C824 C 0.91044 0.76516 0.11351
 C825 C 0.84822 0.74847 0.15089
 C826 C 0.83127 0.74871 0.16787
 H827 H 0.88347 0.71928 0.07132
 H828 H 0.84882 0.71907 0.10606
 H829 H 0.89294 0.77788 0.15043
 H830 H 0.92757 0.77808 0.11570
 C831 C 0.44517 0.24879 0.55477
 C832 C 0.42818 0.24869 0.57169
 C833 C 0.40792 0.24851 0.59190
 C834 C 0.41042 0.26492 0.61433
 C835 C 0.39072 0.26475 0.63398
 C836 C 0.36845 0.24818 0.63128
 C837 C 0.36595 0.23176 0.60886
 C838 C 0.38565 0.23192 0.58920
 C839 C 0.34813 0.24818 0.65142
 C840 C 0.33114 0.24840 0.66834
 H841 H 0.42756 0.27781 0.61660
 H842 H 0.39283 0.27754 0.65123
 H843 H 0.34879 0.21889 0.60657
 H844 H 0.38353 0.21916 0.57193
 C845 C 0.94565 0.25127 0.94589
 C846 C 0.92862 0.25142 0.92897
 C847 C 0.90829 0.25164 0.90879
 C848 C 0.91193 0.26644 0.88543
 C849 C 0.89218 0.26662 0.86579
 C850 C 0.86871 0.25200 0.86944
 C851 C 0.86506 0.23722 0.89281
 C852 C 0.88481 0.23705 0.91244
 C853 C 0.84849 0.25196 0.84914
 C854 C 0.83155 0.25170 0.83214
 H855 H 0.93002 0.27779 0.88240
 H856 H 0.89522 0.27808 0.84778
 H857 H 0.84700 0.22583 0.89581
 H858 H 0.88179 0.22554 0.93043
 C859 C 0.44506 0.75152 0.44537
 C860 C 0.42804 0.75166 0.42845
 C861 C 0.40771 0.75186 0.40825
 C862 C 0.38445 0.73685 0.41168
 C863 C 0.36472 0.73699 0.39203
 C864 C 0.36815 0.75215 0.36888
 C865 C 0.39139 0.76719 0.36546
 C866 C 0.41113 0.76705 0.38512
 C867 C 0.34795 0.75208 0.34857
 C868 C 0.33103 0.75179 0.33155
 H869 H 0.38161 0.72503 0.42950
 H870 H 0.34684 0.72526 0.39486
 H871 H 0.39426 0.77896 0.34762
 H872 H 0.42904 0.77872 0.38227
 C873 C 0.05433 0.05448 0.25179
 C874 C 0.07124 0.07152 0.25194
 C875 C 0.09143 0.09187 0.25217
 C876 C 0.11198 0.09099 0.27103
 C877 C 0.13163 0.11074 0.27121
 C878 C 0.13080 0.13145 0.25255
 C879 C 0.11022 0.13234 0.23372
 C880 C 0.09058 0.11260 0.23354
 C881 C 0.15113 0.15165 0.25252
 C882 C 0.16815 0.16857 0.25222
 H883 H 0.11284 0.07506 0.28553
 H884 H 0.14746 0.10984 0.28584
 H885 H 0.10939 0.14824 0.21917
 H886 H 0.07478 0.11348 0.21887
 C887 C 0.55473 0.55507 0.75257
 C888 C 0.57165 0.57207 0.75276
 C889 C 0.59185 0.59236 0.75302
 C890 C 0.61479 0.58904 0.76855
 C891 C 0.63447 0.60873 0.76875
 C892 C 0.63126 0.63181 0.75343
 C893 C 0.60830 0.63514 0.73793
 C894 C 0.58863 0.61545 0.73774
 C895 C 0.65161 0.65195 0.75335
 C896 C 0.66864 0.66883 0.75300
 H897 H 0.61747 0.57125 0.78044
 H898 H 0.65217 0.60595 0.78077
 H899 H 0.60565 0.65290 0.72598
 H900 H 0.57096 0.61821 0.72566
 C901 C 0.94583 0.05458 0.74790
 C902 C 0.92891 0.07161 0.74774
 C903 C 0.90870 0.09194 0.74751
 C904 C 0.91472 0.11774 0.75628
 C905 C 0.89507 0.13748 0.75614
 C906 C 0.86932 0.13151 0.74721
 C907 C 0.86331 0.10573 0.73840
 C908 C 0.88296 0.08599 0.73854
 C909 C 0.84902 0.15175 0.74742
 C910 C 0.83201 0.16868 0.74784
 H911 H 0.93455 0.12257 0.76326
 H912 H 0.89992 0.15733 0.76305
 H913 H 0.84346 0.10088 0.73149
 H914 H 0.87809 0.06611 0.73171
 C915 C 0.44549 0.55496 0.24759
 C916 C 0.42860 0.57199 0.24740
 C917 C 0.40844 0.59232 0.24713
 C918 C 0.41186 0.61557 0.26217
 C919 C 0.39222 0.63530 0.26198
 C920 C 0.36911 0.63185 0.24674
 C921 C 0.36571 0.60862 0.23167
 C922 C 0.38535 0.58889 0.23186
 C923 C 0.34878 0.65200 0.24685
 C924 C 0.33175 0.66889 0.24721
 H925 H 0.42964 0.61841 0.27405
 H926 H 0.39502 0.65317 0.27374
 H927 H 0.34789 0.60575 0.21985
 H928 H 0.38252 0.57098 0.22016
 C929 C 0.05429 0.94564 0.74807
 C930 C 0.07124 0.92864 0.74797
 C931 C 0.09149 0.90835 0.74784
 C932 C 0.10559 0.90254 0.77120
 C933 C 0.12527 0.88284 0.77109
 C934 C 0.13094 0.86885 0.74762
 C935 C 0.11685 0.87466 0.72425
 C936 C 0.09716 0.89437 0.72436
 C937 C 0.15117 0.84855 0.74760
 C938 C 0.16814 0.83157 0.74789
 H939 H 0.10137 0.91323 0.78946
 H940 H 0.13604 0.87851 0.78928
 H941 H 0.12107 0.86397 0.70600
 H942 H 0.08639 0.89870 0.70618
 C943 C 0.55480 0.44498 0.24778
 C944 C 0.57171 0.42797 0.24766
 C945 C 0.59190 0.40767 0.24750
 C946 C 0.60550 0.40134 0.27102
 C947 C 0.62513 0.38161 0.27088
 C948 C 0.63124 0.36814 0.24722
 C949 C 0.61765 0.37447 0.22370
 C950 C 0.59801 0.39421 0.22384
 C951 C 0.65142 0.34784 0.24717
 C952 C 0.66835 0.33085 0.24744
 H953 H 0.60092 0.41163 0.28942
 H954 H 0.63552 0.37686 0.28918
 H955 H 0.62223 0.36417 0.20531
 H956 H 0.58761 0.39896 0.20555
 C957 C 0.94593 0.94548 0.25174
 C958 C 0.92898 0.92847 0.25186
 C959 C 0.90875 0.90817 0.25204
 C960 C 0.89604 0.90129 0.27590
 C961 C 0.87634 0.88160 0.27605
 C962 C 0.86928 0.86868 0.25234
 C963 C 0.88200 0.87555 0.22849
 C964 C 0.90169 0.89524 0.22834
 C965 C 0.84895 0.84847 0.25240
 C966 C 0.83193 0.83155 0.25215
 H967 H 0.90134 0.91116 0.29434
 H968 H 0.86663 0.87646 0.29461
 H969 H 0.87669 0.86570 0.21004
 H970 H 0.91138 0.90039 0.20978
 C971 C 0.44542 0.44508 0.75246
 C972 C 0.42853 0.42805 0.75260
 C973 C 0.40839 0.40771 0.75281
 C974 C 0.40878 0.38745 0.73363
 C975 C 0.38915 0.36772 0.73378
 C976 C 0.36906 0.36817 0.75311
 C977 C 0.36868 0.38840 0.77232
 C978 C 0.38832 0.40814 0.77217
 C979 C 0.34873 0.34801 0.75304
 C980 C 0.33170 0.33113 0.75267
 H981 H 0.42421 0.38694 0.71858
 H982 H 0.38960 0.35218 0.71882
 H983 H 0.35321 0.38894 0.78733
 H984 H 0.38784 0.42372 0.78709
 C985 C 0.05432 0.25096 0.94467
 C986 C 0.07129 0.25081 0.92772
 C987 C 0.09156 0.25053 0.90751
 C988 C 0.08728 0.23680 0.88360
 C989 C 0.10703 0.23645 0.86399
 C990 C 0.13114 0.24982 0.86823
 C991 C 0.13542 0.26355 0.89214
 C992 C 0.11567 0.26390 0.91175
 C993 C 0.15144 0.24952 0.84805
 C994 C 0.16845 0.24936 0.83115
 H995 H 0.06871 0.22638 0.88014
 H996 H 0.10352 0.22578 0.84557
 H997 H 0.15400 0.27396 0.89561
 H998 H 0.11919 0.27457 0.93018
 C999 C 0.55486 0.75108 0.44515
 C1000 C 0.57182 0.75090 0.42817
 C1001 C 0.59209 0.75060 0.40790
 C1002 C 0.58495 0.74879 0.38098
 C1003 C 0.60465 0.74843 0.36130
 C1004 C 0.63158 0.74987 0.36844
 C1005 C 0.63872 0.75166 0.39536
 C1006 C 0.61903 0.75202 0.41504
 C1007 C 0.65185 0.74961 0.34818
 C1008 C 0.66884 0.74947 0.33122
 H1009 H 0.56419 0.74766 0.37523
 H1010 H 0.59889 0.74705 0.34055
 H1011 H 0.65948 0.75279 0.40111
 H1012 H 0.62478 0.75341 0.43579
 C1013 C 0.94628 0.74924 0.94519
 C1014 C 0.92927 0.74941 0.92825
 C1015 C 0.90893 0.74970 0.90805
 C1016 C 0.88685 0.73279 0.91019
 C1017 C 0.86705 0.73312 0.89061
 C1018 C 0.86924 0.75037 0.86880
 C1019 C 0.89132 0.76729 0.86666
 C1020 C 0.91112 0.76695 0.88625
 C1021 C 0.84889 0.75066 0.84862
 C1022 C 0.83184 0.75081 0.83172
 H1023 H 0.88495 0.71938 0.92698
 H1024 H 0.85007 0.71995 0.89245
 H1025 H 0.89321 0.78070 0.84988
 H1026 H 0.92810 0.78012 0.88440
 C1027 C 0.44535 0.24909 0.44507
 C1028 C 0.42840 0.24927 0.42807
 C1029 C 0.40815 0.24956 0.40780
 C1030 C 0.40975 0.26772 0.38669
 C1031 C 0.39003 0.26805 0.36701
 C1032 C 0.36862 0.25022 0.36837
 C1033 C 0.36702 0.23206 0.38948
 C1034 C 0.38674 0.23174 0.40915
 C1035 C 0.34835 0.25051 0.34812
 C1036 C 0.33135 0.25066 0.33117
 H1037 H 0.42621 0.28160 0.38545
 H1038 H 0.39147 0.28217 0.35078
 H1039 H 0.35055 0.21819 0.39072
 H1040 H 0.38529 0.21762 0.42539
 C1041 C 0.05481 0.74916 0.05405
 C1042 C 0.07174 0.74931 0.07107
 C1043 C 0.09196 0.74958 0.09139
 C1044 C 0.10272 0.72560 0.10073
 C1045 C 0.12238 0.72588 0.12045
 C1046 C 0.13137 0.75013 0.13092
 C1047 C 0.12060 0.77411 0.12159
 C1048 C 0.10094 0.77384 0.10186
 C1049 C 0.15163 0.75040 0.15120
 C1050 C 0.16861 0.75055 0.16816
 H1051 H 0.09592 0.70674 0.09276
 H1052 H 0.13057 0.70722 0.12752
 H1053 H 0.12741 0.79298 0.12955
 H1054 H 0.09276 0.79250 0.09479
 C1055 C 0.55486 0.24908 0.55511
 C1056 C 0.57181 0.24927 0.57212
 C1057 C 0.59206 0.24958 0.59240
 C1058 C 0.60102 0.22565 0.60359
 C1059 C 0.62072 0.22597 0.62328
 C1060 C 0.63154 0.25021 0.63187
 C1061 C 0.62257 0.27414 0.62069
 C1062 C 0.60287 0.27383 0.60100
 C1063 C 0.65184 0.25052 0.65210
 C1064 C 0.66885 0.25069 0.66903
 H1065 H 0.59280 0.20679 0.59709
 H1066 H 0.62751 0.20735 0.63179
 H1067 H 0.63081 0.29300 0.62718
 H1068 H 0.59609 0.29245 0.59248
 C1069 C 0.94484 0.25057 0.05448
 C1070 C 0.92790 0.25032 0.07145
 C1071 C 0.90767 0.24993 0.09170
 C1072 C 0.88277 0.26151 0.08680
 C1073 C 0.86309 0.26109 0.10647
 C1074 C 0.86822 0.24906 0.13111
 C1075 C 0.89310 0.23746 0.13601
 C1076 C 0.91279 0.23789 0.11634
 C1077 C 0.84800 0.24874 0.15137
 C1078 C 0.83105 0.24857 0.16834
 H1079 H 0.87860 0.27086 0.06782
 H1080 H 0.84391 0.27012 0.10249
 H1081 H 0.89728 0.22812 0.15500
 H1082 H 0.93197 0.22886 0.12032
 C1083 C 0.44526 0.75104 0.55511
 C1084 C 0.42831 0.75084 0.57211
 C1085 C 0.40807 0.75052 0.59241
 C1086 C 0.41099 0.76614 0.61535
 C1087 C 0.39133 0.76580 0.63507
 C1088 C 0.36866 0.74984 0.63194
 C1089 C 0.36574 0.73421 0.60900
 C1090 C 0.38540 0.73455 0.58929
 C1091 C 0.34837 0.74958 0.65219
 C1092 C 0.33136 0.74944 0.66913
 H1093 H 0.42843 0.77855 0.61799
 H1094 H 0.39378 0.77797 0.65272
 H1095 H 0.34830 0.72180 0.60637
 H1096 H 0.38294 0.72238 0.57163
 C1097 C 0.25088 0.05462 0.94476
 C1098 C 0.25064 0.07165 0.92788
 C1099 C 0.25024 0.09200 0.90774
 C1100 C 0.24869 0.08495 0.88079
 C1101 C 0.24823 0.10473 0.86121
 C1102 C 0.24931 0.13163 0.86851
 C1103 C 0.25083 0.13869 0.89546
 C1104 C 0.25129 0.11891 0.91504
 C1105 C 0.24899 0.15197 0.84836
 C1106 C 0.24884 0.16898 0.83145
 H1107 H 0.24785 0.06420 0.87493
 H1108 H 0.24706 0.09906 0.84042
 H1109 H 0.25168 0.15943 0.90131
 H1110 H 0.25247 0.12457 0.93582
 C1111 C 0.75127 0.55499 0.44513
 C1112 C 0.75105 0.57200 0.42818
 C1113 C 0.75069 0.59230 0.40795
 C1114 C 0.75015 0.61925 0.41518
 C1115 C 0.74973 0.63898 0.39552
 C1116 C 0.74984 0.63185 0.36854
 C1117 C 0.75036 0.60490 0.36131
 C1118 C 0.75079 0.58518 0.38097
 C1119 C 0.74953 0.65215 0.34831
 C1120 C 0.74936 0.66914 0.33135
 H1121 H 0.75005 0.62500 0.43597
 H1122 H 0.74933 0.65975 0.40134
 H1123 H 0.75047 0.59916 0.34052
 H1124 H 0.75119 0.56441 0.37515
 C1125 C 0.74877 0.05395 0.05467
 C1126 C 0.74893 0.07099 0.07158
 C1127 C 0.74923 0.09135 0.09176
 C1128 C 0.74651 0.11817 0.08461
 C1129 C 0.74690 0.13796 0.10422
 C1130 C 0.75003 0.13100 0.13105
 C1131 C 0.75276 0.10418 0.13820
 C1132 C 0.75237 0.08439 0.11859
 C1133 C 0.75033 0.15135 0.15124
 C1134 C 0.75050 0.16836 0.16818
 H1135 H 0.74409 0.12378 0.06393
 H1136 H 0.74476 0.15864 0.09848
 H1137 H 0.75518 0.09858 0.15889
 H1138 H 0.75451 0.06371 0.12434
 C1139 C 0.24889 0.55519 0.55473
 C1140 C 0.24911 0.57219 0.57168
 C1141 C 0.24948 0.59248 0.59193
 C1142 C 0.24854 0.61942 0.58476
 C1143 C 0.24897 0.63913 0.60443
 C1144 C 0.25033 0.63199 0.63136
 C1145 C 0.25128 0.60504 0.63853
 C1146 C 0.25086 0.58533 0.61886
 C1147 C 0.25063 0.65226 0.65162
 C1148 C 0.25078 0.66923 0.66860
 H1149 H 0.24749 0.62516 0.56399
 H1150 H 0.24821 0.65990 0.59867
 H1151 H 0.25232 0.59930 0.65930
 H1152 H 0.25160 0.56456 0.62462
 C1153 C 0.74912 0.94501 0.94620
 C1154 C 0.74938 0.92802 0.92925
 C1155 C 0.74980 0.90774 0.90900
 C1156 C 0.75241 0.91484 0.88215
 C1157 C 0.75287 0.89513 0.86247
 C1158 C 0.75074 0.86823 0.86956
 C1159 C 0.74814 0.86113 0.89640
 C1160 C 0.74768 0.88084 0.91608
 C1161 C 0.75106 0.84796 0.84929
 C1162 C 0.75123 0.83100 0.83230
 H1163 H 0.75408 0.93557 0.87645
 H1164 H 0.75487 0.90084 0.84177
 H1165 H 0.74646 0.84039 0.90210
 H1166 H 0.74567 0.87513 0.93678
 C1167 C 0.24886 0.44513 0.44522
 C1168 C 0.24907 0.42810 0.42829
 C1169 C 0.24944 0.40779 0.40808
 C1170 C 0.24908 0.38085 0.41531
 C1171 C 0.24952 0.36110 0.39566
 C1172 C 0.25032 0.36821 0.36870
 C1173 C 0.25069 0.39515 0.36147
 C1174 C 0.25025 0.41490 0.38112
 C1175 C 0.25063 0.34791 0.34848
 C1176 C 0.25080 0.33092 0.33152
 H1177 H 0.24847 0.37512 0.43610
 H1178 H 0.24921 0.34033 0.40148
 H1179 H 0.25129 0.40087 0.34069
 H1180 H 0.25055 0.43566 0.37531
 C1181 C 0.25098 0.94471 0.05416
 C1182 C 0.25077 0.92773 0.07110
 C1183 C 0.25039 0.90748 0.09134
 C1184 C 0.24994 0.88053 0.08412
 C1185 C 0.24949 0.86084 0.10380
 C1186 C 0.24948 0.86803 0.13075
 C1187 C 0.24991 0.89498 0.13796
 C1188 C 0.25036 0.91467 0.11829
 C1189 C 0.24916 0.84779 0.15099
 C1190 C 0.24899 0.83084 0.16796
 H1191 H 0.24994 0.87476 0.06333
 H1192 H 0.24917 0.84006 0.09801
 H1193 H 0.24992 0.90075 0.15875
 H1194 H 0.25069 0.93545 0.12408
 C1195 C 0.75130 0.44501 0.55473
 C1196 C 0.75109 0.42801 0.57168
 C1197 C 0.75073 0.40772 0.59193
 C1198 C 0.75169 0.41485 0.61890
 C1199 C 0.75127 0.39514 0.63857
 C1200 C 0.74988 0.36822 0.63138
 C1201 C 0.74890 0.36109 0.60442
 C1202 C 0.74932 0.38080 0.58474
 C1203 C 0.74957 0.34794 0.65163
 C1204 C 0.74941 0.33097 0.66862
 H1205 H 0.75276 0.43560 0.62469
 H1206 H 0.75205 0.40089 0.65935
 H1207 H 0.74784 0.34033 0.59862
 H1208 H 0.74855 0.37505 0.56396
 C1209 C 0.05449 0.05532 0.74834
 C1210 C 0.07151 0.07223 0.74855
 C1211 C 0.09183 0.09240 0.74895
 C1212 C 0.11440 0.08917 0.76502
 C1213 C 0.13413 0.10881 0.76548
 C1214 C 0.13134 0.13176 0.74988
 C1215 C 0.10877 0.13499 0.73381
 C1216 C 0.08904 0.11534 0.73335
 C1217 C 0.15164 0.15195 0.75030
 C1218 C 0.16863 0.16887 0.75056
 H1219 H 0.11674 0.07150 0.77717
 H1220 H 0.15151 0.10612 0.77797
 H1221 H 0.10643 0.15265 0.72166
 H1222 H 0.07166 0.11804 0.72086
 C1223 C 0.55515 0.55475 0.24817
 C1224 C 0.57214 0.57172 0.24840
 C1225 C 0.59241 0.59199 0.24882
 C1226 C 0.61271 0.59110 0.26795
 C1227 C 0.63235 0.61084 0.26842
 C1228 C 0.63178 0.63157 0.24977
 C1229 C 0.61149 0.63246 0.23064
 C1230 C 0.59184 0.61272 0.23017
 C1231 C 0.65202 0.65187 0.25020
 C1232 C 0.66898 0.66887 0.25047
 H1233 H 0.61334 0.57518 0.28248
 H1234 H 0.64795 0.60995 0.28329
 H1235 H 0.61085 0.64839 0.21611
 H1236 H 0.57624 0.61362 0.21530
 C1237 C 0.05458 0.94473 0.25122
 C1238 C 0.07159 0.92781 0.25095
 C1239 C 0.09188 0.90762 0.25048
 C1240 C 0.10026 0.89682 0.22616
 C1241 C 0.11999 0.87718 0.22568
 C1242 C 0.13141 0.86828 0.24952
 C1243 C 0.12303 0.87908 0.27384
 C1244 C 0.10330 0.89872 0.27432
 C1245 C 0.15168 0.84806 0.24905
 C1246 C 0.16866 0.83112 0.24877
 H1247 H 0.09156 0.90357 0.20761
 H1248 H 0.12633 0.86895 0.20677
 H1249 H 0.13174 0.87233 0.29238
 H1250 H 0.09697 0.90694 0.29323
 C1251 C 0.55509 0.44533 0.75192
 C1252 C 0.57210 0.42838 0.75166
 C1253 C 0.59239 0.40813 0.75121
 C1254 C 0.60803 0.40347 0.77384
 C1255 C 0.62775 0.38380 0.77338
 C1256 C 0.63193 0.36871 0.75029
 C1257 C 0.61631 0.37338 0.72764
 C1258 C 0.59659 0.39304 0.72810
 C1259 C 0.65219 0.34843 0.74985
 C1260 C 0.66915 0.33144 0.74959
 H1261 H 0.60497 0.41501 0.79181
 H1262 H 0.63970 0.38036 0.79101
 H1263 H 0.61936 0.36183 0.70968
 H1264 H 0.58463 0.39648 0.71048
 C1265 C 0.94465 0.05414 0.25124
 C1266 C 0.92767 0.07108 0.25098
 C1267 C 0.90742 0.09131 0.25053
 C1268 C 0.89393 0.09812 0.27398
 C1269 C 0.87425 0.11780 0.27352
 C1270 C 0.86798 0.13075 0.24962
 C1271 C 0.88147 0.12394 0.22618
 C1272 C 0.90115 0.10426 0.22663
 C1273 C 0.84778 0.15102 0.24919
 C1274 C 0.83086 0.16802 0.24893
 H1275 H 0.89863 0.08823 0.29256
 H1276 H 0.86394 0.12292 0.29176
 H1277 H 0.87677 0.13384 0.20760
 H1278 H 0.91146 0.09914 0.20839
 C1279 C 0.44500 0.55485 0.75204
 C1280 C 0.42799 0.57179 0.75181
 C1281 C 0.40769 0.59203 0.75140
 C1282 C 0.41366 0.61802 0.75962
 C1283 C 0.39397 0.63771 0.75912
 C1284 C 0.36821 0.63151 0.75038
 C1285 C 0.36223 0.60553 0.74215
 C1286 C 0.38192 0.58584 0.74265
 C1287 C 0.34793 0.65177 0.74995
 C1288 C 0.33096 0.66876 0.74968
 H1289 H 0.43352 0.62305 0.76640
 H1290 H 0.39882 0.65773 0.76554
 H1291 H 0.34238 0.60051 0.73536
 H1292 H 0.37708 0.56582 0.73623
 C1293 C 0.94465 0.94582 0.74864
 C1294 C 0.92773 0.92882 0.74894
 C1295 C 0.90755 0.90851 0.74943
 C1296 C 0.90413 0.89165 0.72747
 C1297 C 0.88457 0.87186 0.72798
 C1298 C 0.86835 0.86884 0.75047
 C1299 C 0.87178 0.88570 0.77244
 C1300 C 0.89134 0.90550 0.77192
 C1301 C 0.84820 0.84852 0.75096
 C1302 C 0.83130 0.83149 0.75125
 H1303 H 0.91657 0.89381 0.70998
 H1304 H 0.88208 0.85893 0.71089
 H1305 H 0.85934 0.88354 0.78992
 H1306 H 0.89384 0.91842 0.78902
 C1307 C 0.44511 0.44518 0.24827
 C1308 C 0.42811 0.42823 0.24854
 C1309 C 0.40781 0.40798 0.24899
 C1310 C 0.40150 0.39506 0.27289
 C1311 C 0.38179 0.37539 0.27334
 C1312 C 0.36830 0.36855 0.24989
 C1313 C 0.37460 0.38147 0.22599
 C1314 C 0.39431 0.40114 0.22554
 C1315 C 0.34804 0.34827 0.25033
 C1316 C 0.33107 0.33128 0.25059
 H1317 H 0.41181 0.40019 0.29114
 H1318 H 0.37709 0.36552 0.29193
 H1319 H 0.36430 0.37634 0.20774
 H1320 H 0.39902 0.41100 0.20695
   
