data_POSCAR
  _audit_creation_date              2014-09-24
  _audit_creation_method            'ToBaCCo'
  _symmetry_space_group_name_H-M    'P1'
  _symmetry_Int_Tables_number       1
  _symmetry_cell_setting            triclinic
  loop_
  _symmetry_equiv_pos_as_xyz
 x,y,z
_cell_length_a 56.1057
_cell_length_b 37.7886
_cell_length_c 39.4037
_cell_angle_alpha 89.927600
_cell_angle_beta 89.950500
_cell_angle_gamma 89.983600
loop_
  _atom_site_label
  _atom_site_type_symbol
  _atom_site_fract_x
  _atom_site_fract_y
  _atom_site_fract_z
C1 C 0.00138 -0.00024 0.10924
 C2 C 0.00082 0.00012 -0.11286
 C3 C -0.05417 -0.05804 0.05037
 C4 C -0.05403 0.05790 0.05050
 C5 C -0.05433 -0.05804 -0.05296
 C6 C 0.05553 -0.05513 -0.05678
 C7 C 0.05563 0.05475 -0.05672
 C8 C 0.05562 -0.05500 0.05272
 C9 C -0.05417 0.05835 -0.05279
 C10 C 0.05575 0.05440 0.05276
 O11 O -0.03255 -0.06575 -0.06073
 O12 O -0.06089 -0.03389 -0.03180
 O13 O -0.03239 0.06597 -0.06056
 O14 O -0.06080 0.03414 -0.03170
 O15 O 0.03400 0.06219 0.06051
 O16 O 0.06225 0.03214 0.02975
 O17 O 0.00065 0.03026 -0.09772
 O18 O 0.00060 -0.03010 -0.09778
 O19 O 0.00114 0.02999 0.09419
 O20 O 0.00105 -0.03044 0.09420
 O21 O 0.03370 -0.06278 -0.06421
 O22 O 0.06210 -0.03275 -0.03393
 O23 O -0.03236 -0.06566 0.05799
 O24 O -0.06080 -0.03401 0.02907
 O25 O 0.03386 -0.06273 0.06047
 O26 O 0.06217 -0.03274 0.02971
 O27 O 0.03383 0.06257 -0.06414
 O28 O 0.06217 0.03226 -0.03390
 O29 O 0.00207 0.09908 0.04914
 O30 O 0.00161 0.09909 -0.05362
 O31 O 0.00140 -0.09914 -0.05369
 O32 O 0.00187 -0.09944 0.04924
 O33 O -0.01994 -0.04662 -0.00167
 O34 O -0.01984 0.04650 -0.00163
 O35 O 0.02093 -0.04644 -0.00189
 O36 O -0.02097 -0.00012 0.04358
 O37 O -0.06072 0.03399 0.02917
 O38 O -0.03220 0.06539 0.05809
 O39 O 0.02263 -0.00024 0.04353
 O40 O 0.02249 -0.00009 -0.04745
 O41 O 0.02104 0.04612 -0.00186
 O42 O -0.02117 0.00003 -0.04685
 Zr43 Zr 0.00081 0.04374 0.04238
 Zr44 Zr 0.00056 -0.04393 -0.04594
 Zr45 Zr -0.04023 -0.00000 -0.00147
 Zr46 Zr 0.00071 -0.04409 0.04236
 Zr47 Zr 0.00066 0.04385 -0.04588
 Zr48 Zr 0.04156 -0.00022 -0.00203
 H49 H 0.03053 -0.06842 -0.00191
 H50 H -0.03157 -0.00014 0.06366
 H51 H 0.03069 0.06805 -0.00187
 H52 H -0.03189 0.00011 -0.06678
 H53 H -0.00333 0.10935 0.02736
 H54 H 0.00227 0.10959 -0.03067
 H55 H -0.00335 -0.10967 0.02738
 H56 H 0.00166 -0.10972 -0.03073
 C57 C 0.25070 0.25012 0.13836
 C58 C 0.25022 0.24990 0.36047
 C59 C 0.19508 0.30804 0.19768
 C60 C 0.19526 0.19182 0.19733
 C61 C 0.19482 0.30770 0.30111
 C62 C 0.30462 0.30539 0.30411
 C63 C 0.30486 0.19503 0.30395
 C64 C 0.30484 0.30560 0.19542
 C65 C 0.19512 0.19153 0.30057
 C66 C 0.30519 0.19514 0.19521
 O67 O 0.21659 0.31532 0.30892
 O68 O 0.18830 0.28374 0.27973
 O69 O 0.21690 0.18396 0.30832
 O70 O 0.18847 0.21570 0.27947
 O71 O 0.28343 0.18742 0.18742
 O72 O 0.31162 0.21773 0.21796
 O73 O 0.25002 0.21973 0.34538
 O74 O 0.24994 0.28014 0.34545
 O75 O 0.25051 0.21992 0.15346
 O76 O 0.25033 0.28029 0.15346
 O77 O 0.28280 0.31294 0.31174
 O78 O 0.31128 0.28290 0.28140
 O79 O 0.21689 0.31580 0.19015
 O80 O 0.18845 0.28384 0.21879
 O81 O 0.28308 0.31321 0.18764
 O82 O 0.31142 0.28299 0.21807
 O83 O 0.28308 0.18720 0.31152
 O84 O 0.31143 0.21769 0.28132
 O85 O 0.25135 0.15096 0.19809
 O86 O 0.25090 0.15088 0.30131
 O87 O 0.25067 0.34919 0.30068
 O88 O 0.25069 0.34922 0.19749
 O89 O 0.22927 0.29655 0.24938
 O90 O 0.22949 0.20343 0.24932
 O91 O 0.27009 0.29638 0.24954
 O92 O 0.22830 0.25003 0.20411
 O93 O 0.18866 0.21586 0.21868
 O94 O 0.21720 0.18450 0.18992
 O95 O 0.27198 0.25023 0.20397
 O96 O 0.27174 0.25008 0.29505
 O97 O 0.27033 0.20388 0.24949
 O98 O 0.22808 0.24988 0.29458
 Zr99 Zr 0.25019 0.20625 0.20528
 Zr100 Zr 0.24974 0.29388 0.29362
 Zr101 Zr 0.20904 0.24990 0.24927
 Zr102 Zr 0.24994 0.29399 0.20530
 Zr103 Zr 0.24994 0.20610 0.29354
 Zr104 Zr 0.29082 0.25023 0.24959
 H105 H 0.27960 0.31843 0.24962
 H106 H 0.21770 0.25004 0.18405
 H107 H 0.27994 0.18191 0.24949
 H108 H 0.21738 0.24973 0.31456
 H109 H 0.24662 0.14053 0.22011
 H110 H 0.25067 0.14034 0.27836
 H111 H 0.25037 0.35978 0.22043
 H112 H 0.24596 0.35953 0.27862
 C113 C 0.50032 -0.00137 0.11102
 C114 C 0.49990 -0.00134 -0.11046
 C115 C 0.55599 0.05616 0.05197
 C116 C 0.55589 -0.05939 0.05225
 C117 C 0.55593 0.05605 -0.05243
 C118 C 0.44598 0.05400 -0.05388
 C119 C 0.44586 -0.05636 -0.05385
 C120 C 0.44604 0.05416 0.05500
 C121 C 0.55574 -0.05919 -0.05231
 C122 C 0.44587 -0.05662 0.05516
 O123 O 0.53408 0.06366 -0.05995
 O124 O 0.56251 0.03228 -0.03078
 O125 O 0.53388 -0.06668 -0.05980
 O126 O 0.56239 -0.03553 -0.03069
 O127 O 0.46771 -0.06440 0.06257
 O128 O 0.43937 -0.03389 0.03249
 O129 O 0.50023 -0.03158 -0.09546
 O130 O 0.50031 0.02886 -0.09550
 O131 O 0.50058 -0.03160 0.09613
 O132 O 0.50070 0.02881 0.09598
 O133 O 0.46777 0.06158 -0.06169
 O134 O 0.43943 0.03143 -0.03110
 O135 O 0.53420 0.06396 0.05955
 O136 O 0.56258 0.03223 0.03057
 O137 O 0.46796 0.06164 0.06228
 O138 O 0.43954 0.03141 0.03237
 O139 O 0.46763 -0.06412 -0.06162
 O140 O 0.43936 -0.03383 -0.03109
 O141 O 0.50026 -0.10066 0.05208
 O142 O 0.49976 -0.10072 -0.05038
 O143 O 0.50003 0.09793 -0.05045
 O144 O 0.50053 0.09771 0.05185
 O145 O 0.52169 0.04510 0.00013
 O146 O 0.52154 -0.04812 0.00026
 O147 O 0.48069 0.04489 0.00034
 O148 O 0.52274 -0.00154 0.04531
 O149 O 0.56248 -0.03555 0.03070
 O150 O 0.53405 -0.06702 0.05983
 O151 O 0.47913 -0.00138 0.04593
 O152 O 0.47900 -0.00134 -0.04495
 O153 O 0.48056 -0.04767 0.00046
 O154 O 0.52258 -0.00149 -0.04493
 Zr155 Zr 0.50093 -0.04541 0.04445
 Zr156 Zr 0.50095 0.04253 -0.04380
 Zr157 Zr 0.54195 -0.00158 0.00006
 Zr158 Zr 0.50108 0.04246 0.04427
 Zr159 Zr 0.50082 -0.04535 -0.04371
 Zr160 Zr 0.46002 -0.00132 0.00058
 H161 H 0.47114 0.06691 0.00035
 H162 H 0.53335 -0.00155 0.06535
 H163 H 0.47095 -0.06962 0.00050
 H164 H 0.53310 -0.00151 -0.06509
 H165 H 0.49920 -0.11112 0.02915
 H166 H 0.50554 -0.11090 -0.02876
 H167 H 0.49899 0.10822 0.02897
 H168 H 0.50593 0.10800 -0.02887
 C169 C 0.75138 0.24960 0.13983
 C170 C 0.75115 0.24888 0.36130
 C171 C 0.69567 0.30705 0.19850
 C172 C 0.69582 0.19131 0.19828
 C173 C 0.69558 0.30655 0.30275
 C174 C 0.80538 0.30407 0.30548
 C175 C 0.80570 0.19435 0.30527
 C176 C 0.80549 0.30442 0.19596
 C177 C 0.69585 0.19125 0.30235
 C178 C 0.80584 0.19464 0.19559
 O179 O 0.71736 0.31418 0.31049
 O180 O 0.68903 0.28286 0.28111
 O181 O 0.71765 0.18367 0.31009
 O182 O 0.68920 0.21506 0.28087
 O183 O 0.78396 0.18695 0.18829
 O184 O 0.81223 0.21706 0.21859
 O185 O 0.75095 0.21871 0.34626
 O186 O 0.75081 0.27915 0.34637
 O187 O 0.75112 0.21935 0.15477
 O188 O 0.75101 0.27977 0.15484
 O189 O 0.78357 0.31172 0.31306
 O190 O 0.81203 0.28183 0.28253
 O191 O 0.71748 0.31490 0.19106
 O192 O 0.68907 0.28302 0.21985
 O193 O 0.78371 0.31222 0.18846
 O194 O 0.81211 0.28197 0.21876
 O195 O 0.78389 0.18657 0.31281
 O196 O 0.81220 0.21680 0.28236
 O197 O 0.75161 0.15030 0.19863
 O198 O 0.75192 0.14978 0.30114
 O199 O 0.75155 0.34840 0.30141
 O200 O 0.75124 0.34864 0.19916
 O201 O 0.72989 0.29585 0.25060
 O202 O 0.73008 0.20260 0.25044
 O203 O 0.77089 0.29560 0.25063
 O204 O 0.72895 0.24934 0.20533
 O205 O 0.68926 0.21528 0.21974
 O206 O 0.71776 0.18377 0.19106
 O207 O 0.77253 0.24950 0.20513
 O208 O 0.77246 0.24918 0.29594
 O209 O 0.77110 0.20298 0.25047
 O210 O 0.72890 0.24902 0.29557
 Zr211 Zr 0.75076 0.20550 0.20645
 Zr212 Zr 0.75051 0.29304 0.29466
 Zr213 Zr 0.70969 0.24915 0.25044
 Zr214 Zr 0.75058 0.29335 0.20656
 Zr215 Zr 0.75072 0.20517 0.29450
 Zr216 Zr 0.79155 0.24936 0.25056
 H217 H 0.78047 0.31758 0.25073
 H218 H 0.71836 0.24934 0.18527
 H219 H 0.78075 0.18106 0.25045
 H220 H 0.71829 0.24891 0.31563
 H221 H 0.75260 0.13970 0.22154
 H222 H 0.74632 0.13965 0.27943
 H223 H 0.75237 0.35900 0.22212
 H224 H 0.74561 0.35861 0.27989
 C225 C 0.00034 0.50073 0.11046
 C226 C 0.00019 0.50043 -0.11163
 C227 C -0.05509 0.44248 0.05141
 C228 C -0.05494 0.55892 0.05106
 C229 C -0.05516 0.44257 -0.05190
 C230 C 0.05464 0.44563 -0.05511
 C231 C 0.05469 0.55517 -0.05549
 C232 C 0.05486 0.44567 0.05430
 C233 C -0.05504 0.55869 -0.05216
 C234 C 0.05488 0.55553 0.05394
 O235 O -0.03337 0.43500 -0.05972
 O236 O -0.06175 0.46663 -0.03065
 O237 O -0.03325 0.56619 -0.05999
 O238 O -0.06167 0.53469 -0.03082
 O239 O 0.03310 0.56337 0.06152
 O240 O 0.06139 0.53306 0.03112
 O241 O -0.00004 0.53064 -0.09659
 O242 O -0.00007 0.47026 -0.09644
 O243 O 0.00011 0.53093 0.09538
 O244 O 0.00003 0.47054 0.09546
 O245 O 0.03286 0.43793 -0.06274
 O246 O 0.06123 0.46798 -0.03227
 O247 O -0.03318 0.43495 0.05871
 O248 O -0.06162 0.46674 0.03021
 O249 O 0.03298 0.43808 0.06170
 O250 O 0.06128 0.46812 0.03129
 O251 O 0.03293 0.56295 -0.06311
 O252 O 0.06127 0.53291 -0.03251
 O253 O 0.00087 0.59985 0.05106
 O254 O 0.00102 0.59972 -0.05206
 O255 O 0.00087 0.40133 -0.05144
 O256 O 0.00077 0.40166 0.05168
 O257 O -0.02080 0.45409 -0.00035
 O258 O -0.02072 0.54721 -0.00056
 O259 O 0.02008 0.45432 -0.00047
 O260 O -0.02191 0.50075 0.04479
 O261 O -0.06161 0.53475 0.03002
 O262 O -0.03313 0.56658 0.05859
 O263 O 0.02174 0.50068 0.04499
 O264 O 0.02164 0.50051 -0.04600
 O265 O 0.02014 0.54690 -0.00067
 O266 O -0.02199 0.50058 -0.04567
 Zr267 Zr -0.00010 0.54462 0.04354
 Zr268 Zr -0.00026 0.45666 -0.04455
 Zr269 Zr -0.04110 0.50068 -0.00039
 Zr270 Zr -0.00017 0.45685 0.04368
 Zr271 Zr -0.00020 0.54443 -0.04476
 Zr272 Zr 0.04067 0.50058 -0.00055
 H273 H 0.02967 0.43234 -0.00042
 H274 H -0.03256 0.50075 0.06481
 H275 H 0.02976 0.56884 -0.00078
 H276 H -0.03265 0.50057 -0.06565
 H277 H 0.00030 0.61036 0.02809
 H278 H -0.00368 0.61015 -0.03004
 H279 H 0.00045 0.39100 0.02879
 H280 H -0.00392 0.39104 -0.02938
 C281 C 0.25106 0.75053 0.13904
 C282 C 0.25060 0.75156 0.36055
 C283 C 0.19549 0.80914 0.19769
 C284 C 0.19525 0.69305 0.19772
 C285 C 0.19524 0.80927 0.30103
 C286 C 0.30502 0.80638 0.30403
 C287 C 0.30504 0.69593 0.30444
 C288 C 0.30560 0.80617 0.19509
 C289 C 0.19522 0.69305 0.30142
 C290 C 0.30516 0.69563 0.19570
 O291 O 0.21703 0.81685 0.30878
 O292 O 0.18866 0.78518 0.27983
 O293 O 0.21702 0.68546 0.30915
 O294 O 0.18864 0.71711 0.28012
 O295 O 0.28339 0.68792 0.18805
 O296 O 0.31173 0.71828 0.21828
 O297 O 0.25032 0.72130 0.34570
 O298 O 0.25035 0.78171 0.34542
 O299 O 0.25070 0.72037 0.15414
 O300 O 0.25079 0.78079 0.15388
 O301 O 0.28323 0.81409 0.31162
 O302 O 0.31165 0.78374 0.28146
 O303 O 0.21742 0.81666 0.19039
 O304 O 0.18892 0.78498 0.21896
 O305 O 0.28371 0.81372 0.18758
 O306 O 0.31191 0.78351 0.21800
 O307 O 0.28324 0.68829 0.31206
 O308 O 0.31166 0.71848 0.28172
 O309 O 0.25126 0.65160 0.19922
 O310 O 0.25090 0.65211 0.30206
 O311 O 0.25116 0.85048 0.30039
 O312 O 0.25130 0.84993 0.19724
 O313 O 0.22967 0.79762 0.24945
 O314 O 0.22957 0.70443 0.24992
 O315 O 0.27059 0.79734 0.24961
 O316 O 0.22861 0.75095 0.20452
 O317 O 0.18876 0.71715 0.21909
 O318 O 0.21717 0.68553 0.19036
 O319 O 0.27224 0.75082 0.20432
 O320 O 0.27202 0.75120 0.29526
 O321 O 0.27050 0.70479 0.25002
 O322 O 0.22838 0.75122 0.29488
 Zr323 Zr 0.25026 0.70697 0.20592
 Zr324 Zr 0.25014 0.79513 0.29361
 Zr325 Zr 0.20931 0.75105 0.24963
 Zr326 Zr 0.25044 0.79478 0.20550
 Zr327 Zr 0.25011 0.70730 0.29404
 Zr328 Zr 0.29114 0.75104 0.24983
 H329 H 0.28017 0.81933 0.24952
 H330 H 0.21801 0.75095 0.18447
 H331 H 0.28004 0.68277 0.25010
 H332 H 0.21768 0.75126 0.31486
 H333 H 0.24590 0.64142 0.22106
 H334 H 0.25128 0.64146 0.27916
 H335 H 0.25131 0.86070 0.22009
 H336 H 0.24650 0.86070 0.27826
 C337 C 0.49952 0.50010 0.11095
 C338 C 0.49946 0.50031 -0.11053
 C339 C 0.55521 0.55790 0.05196
 C340 C 0.55526 0.44240 0.05260
 C341 C 0.55513 0.55765 -0.05201
 C342 C 0.44535 0.55567 -0.05413
 C343 C 0.44518 0.44506 -0.05377
 C344 C 0.44533 0.55559 0.05476
 C345 C 0.55495 0.44213 -0.05149
 C346 C 0.44527 0.44537 0.05503
 O347 O 0.53335 0.56536 -0.05967
 O348 O 0.56175 0.53385 -0.03048
 O349 O 0.53314 0.43449 -0.05902
 O350 O 0.56165 0.46608 -0.03024
 O351 O 0.46714 0.43769 0.06244
 O352 O 0.43886 0.46800 0.03221
 O353 O 0.49975 0.47010 -0.09550
 O354 O 0.49981 0.53053 -0.09561
 O355 O 0.49983 0.46990 0.09602
 O356 O 0.49988 0.53032 0.09594
 O357 O 0.46715 0.56327 -0.06187
 O358 O 0.43879 0.53309 -0.03139
 O359 O 0.53341 0.56573 0.05949
 O360 O 0.56181 0.53391 0.03065
 O361 O 0.46721 0.56315 0.06211
 O362 O 0.43887 0.53293 0.03205
 O363 O 0.46695 0.43729 -0.06146
 O364 O 0.43867 0.46778 -0.03119
 O365 O 0.49919 0.40099 0.05126
 O366 O 0.49936 0.40109 -0.05143
 O367 O 0.49936 0.59952 -0.05080
 O368 O 0.49969 0.59937 0.05196
 O369 O 0.52094 0.54677 0.00012
 O370 O 0.52084 0.45353 0.00024
 O371 O 0.48001 0.54662 0.00021
 O372 O 0.52201 0.50019 0.04538
 O373 O 0.56173 0.46621 0.03088
 O374 O 0.53334 0.43496 0.06007
 O375 O 0.47843 0.50031 0.04569
 O376 O 0.47833 0.50031 -0.04523
 O377 O 0.47990 0.45402 0.00036
 O378 O 0.52192 0.50014 -0.04493
 Zr379 Zr 0.50027 0.45634 0.04431
 Zr380 Zr 0.50026 0.54416 -0.04389
 Zr381 Zr 0.54118 0.50009 0.00020
 Zr382 Zr 0.50034 0.54415 0.04422
 Zr383 Zr 0.50014 0.45631 -0.04376
 Zr384 Zr 0.45941 0.50039 0.00029
 H385 H 0.47045 0.56863 0.00019
 H386 H 0.53261 0.50020 0.06543
 H387 H 0.47030 0.43206 0.00048
 H388 H 0.53251 0.50003 -0.06502
 H389 H 0.50471 0.39074 0.02955
 H390 H 0.49872 0.39055 -0.02848
 H391 H 0.49865 0.60994 0.02904
 H392 H 0.50469 0.60971 -0.02897
 C393 C 0.75065 0.75046 0.13904
 C394 C 0.75056 0.75145 0.36051
 C395 C 0.69489 0.80842 0.19720
 C396 C 0.69504 0.69282 0.19795
 C397 C 0.69503 0.80875 0.30148
 C398 C 0.80480 0.80603 0.30415
 C399 C 0.80492 0.69630 0.30468
 C400 C 0.80500 0.80563 0.19454
 C401 C 0.69509 0.69338 0.30208
 C402 C 0.80503 0.69599 0.19507
 O403 O 0.71681 0.81642 0.30916
 O404 O 0.68843 0.78490 0.28006
 O405 O 0.71690 0.68585 0.30984
 O406 O 0.68847 0.71707 0.28043
 O407 O 0.78315 0.68818 0.18790
 O408 O 0.81144 0.71856 0.21790
 O409 O 0.75030 0.72115 0.34569
 O410 O 0.75023 0.78160 0.34536
 O411 O 0.75034 0.72032 0.15418
 O412 O 0.75033 0.78074 0.15384
 O413 O 0.78301 0.81381 0.31173
 O414 O 0.81139 0.78361 0.28134
 O415 O 0.71681 0.81612 0.18993
 O416 O 0.68845 0.78451 0.21885
 O417 O 0.78311 0.81332 0.18724
 O418 O 0.81141 0.78324 0.21761
 O419 O 0.78314 0.68859 0.31237
 O420 O 0.81147 0.71858 0.28165
 O421 O 0.75082 0.65160 0.19850
 O422 O 0.75112 0.65185 0.30110
 O423 O 0.75099 0.85046 0.29999
 O424 O 0.75062 0.84990 0.19750
 O425 O 0.72926 0.79757 0.24950
 O426 O 0.72934 0.70429 0.25001
 O427 O 0.77026 0.79729 0.24948
 O428 O 0.72825 0.75074 0.20457
 O429 O 0.68853 0.71694 0.21927
 O430 O 0.71696 0.68512 0.19077
 O431 O 0.77180 0.75079 0.20430
 O432 O 0.77179 0.75116 0.29512
 O433 O 0.77033 0.70463 0.24998
 O434 O 0.72824 0.75110 0.29483
 Zr435 Zr 0.74999 0.70686 0.20597
 Zr436 Zr 0.74991 0.79507 0.29354
 Zr437 Zr 0.70903 0.75090 0.24971
 Zr438 Zr 0.74992 0.79469 0.20547
 Zr439 Zr 0.74998 0.70718 0.29403
 Zr440 Zr 0.79082 0.75098 0.24970
 H441 H 0.77988 0.81924 0.24937
 H442 H 0.71765 0.75062 0.18452
 H443 H 0.77997 0.68269 0.25007
 H444 H 0.71763 0.75117 0.31489
 H445 H 0.75160 0.64116 0.22148
 H446 H 0.74558 0.64154 0.27943
 H447 H 0.75165 0.86051 0.22037
 H448 H 0.74532 0.86055 0.27827
 C449 C 0.00036 0.00092 0.38856
 C450 C 0.00004 0.00106 0.61098
 C451 C -0.05528 0.05896 0.44746
 C452 C -0.05521 -0.05694 0.44786
 C453 C -0.05514 0.05925 0.55114
 C454 C 0.05464 0.05577 0.55437
 C455 C 0.05459 -0.05383 0.55450
 C456 C 0.05472 0.05551 0.44455
 C457 C -0.05519 -0.05705 0.55124
 C458 C 0.05476 -0.05371 0.44475
 O459 O -0.03334 0.06688 0.55879
 O460 O -0.06177 0.03515 0.53000
 O461 O -0.03340 -0.06472 0.55892
 O462 O -0.06180 -0.03289 0.53008
 O463 O 0.03288 -0.06136 0.43742
 O464 O 0.06117 -0.03141 0.46784
 O465 O -0.00022 -0.02907 0.59571
 O466 O -0.00019 0.03120 0.59564
 O467 O 0.00005 -0.02919 0.40394
 O468 O 0.00005 0.03109 0.40377
 O469 O 0.03286 0.06359 0.56194
 O470 O 0.06120 0.03344 0.53147
 O471 O -0.03336 0.06637 0.43995
 O472 O -0.06175 0.03500 0.46903
 O473 O 0.03285 0.06321 0.43717
 O474 O 0.06113 0.03327 0.46773
 O475 O 0.03280 -0.06157 0.56211
 O476 O 0.06117 -0.03151 0.53156
 O477 O 0.00093 -0.09817 0.44872
 O478 O 0.00057 -0.09804 0.55173
 O479 O 0.00066 0.10017 0.55136
 O480 O 0.00092 0.10018 0.44844
 O481 O -0.02088 0.04765 0.49966
 O482 O -0.02089 -0.04550 0.49981
 O483 O 0.02002 0.04729 0.49965
 O484 O -0.02201 0.00101 0.45451
 O485 O -0.06171 -0.03286 0.46924
 O486 O -0.03331 -0.06440 0.44040
 O487 O 0.02158 0.00099 0.45432
 O488 O 0.02155 0.00103 0.54526
 O489 O 0.02002 -0.04530 0.49983
 O490 O -0.02209 0.00108 0.54494
 Zr491 Zr -0.00026 -0.04285 0.45575
 Zr492 Zr -0.00030 0.04493 0.54380
 Zr493 Zr -0.04120 0.00110 0.49968
 Zr494 Zr -0.00029 0.04486 0.45556
 Zr495 Zr -0.00034 -0.04282 0.54393
 Zr496 Zr 0.04055 0.00098 0.49975
 H497 H 0.02966 0.06922 0.49955
 H498 H -0.03261 0.00099 0.43445
 H499 H 0.02964 -0.06726 0.49979
 H500 H -0.03277 0.00109 0.56494
 H501 H -0.00417 -0.10852 0.47061
 H502 H 0.00054 -0.10860 0.52879
 H503 H -0.00441 0.11052 0.47021
 H504 H 0.00074 0.11067 0.52837
 C505 C 0.25032 0.24940 0.86232
 C506 C 0.25048 0.24921 0.63987
 C507 C 0.19491 0.19102 0.80276
 C508 C 0.19487 0.30731 0.80271
 C509 C 0.19501 0.19122 0.69921
 C510 C 0.30488 0.19432 0.69680
 C511 C 0.30486 0.30462 0.69676
 C512 C 0.30497 0.19419 0.80581
 C513 C 0.19505 0.30735 0.69940
 C514 C 0.30484 0.30453 0.80576
 O515 O 0.21692 0.18385 0.69170
 O516 O 0.18850 0.21523 0.72065
 O517 O 0.21686 0.31502 0.69177
 O518 O 0.18843 0.28321 0.72060
 O519 O 0.28294 0.31204 0.81316
 O520 O 0.31130 0.28194 0.78295
 O521 O 0.25023 0.27935 0.65513
 O522 O 0.25024 0.21908 0.65521
 O523 O 0.25004 0.27951 0.84696
 O524 O 0.25009 0.21925 0.84709
 O525 O 0.28312 0.18662 0.68909
 O526 O 0.31142 0.21682 0.71954
 O527 O 0.21681 0.18357 0.81028
 O528 O 0.18845 0.21520 0.78144
 O529 O 0.28308 0.18659 0.81325
 O530 O 0.31137 0.21685 0.78298
 O531 O 0.28308 0.31224 0.68903
 O532 O 0.31142 0.28207 0.71951
 O533 O 0.25086 0.34838 0.80264
 O534 O 0.25082 0.34841 0.69910
 O535 O 0.25106 0.15015 0.69995
 O536 O 0.25082 0.15027 0.80330
 O537 O 0.22937 0.20269 0.75116
 O538 O 0.22931 0.29584 0.75101
 O539 O 0.27021 0.20310 0.75120
 O540 O 0.22810 0.24927 0.79633
 O541 O 0.18843 0.28314 0.78144
 O542 O 0.21675 0.31481 0.81019
 O543 O 0.27177 0.24933 0.79669
 O544 O 0.27186 0.24935 0.70562
 O545 O 0.27015 0.29562 0.75106
 O546 O 0.22820 0.24930 0.70583
 Zr547 Zr 0.24984 0.29313 0.79514
 Zr548 Zr 0.24997 0.20546 0.70705
 Zr549 Zr 0.20903 0.24924 0.75105
 Zr550 Zr 0.24990 0.20546 0.79530
 Zr551 Zr 0.24993 0.29319 0.70690
 Zr552 Zr 0.29076 0.24939 0.75118
 H553 H 0.27980 0.18112 0.75124
 H554 H 0.21743 0.24923 0.81634
 H555 H 0.27970 0.31764 0.75111
 H556 H 0.21757 0.24931 0.68581
 H557 H 0.24703 0.35892 0.78032
 H558 H 0.24915 0.35898 0.72191
 H559 H 0.25034 0.13963 0.78040
 H560 H 0.24639 0.13979 0.72204
 C561 C 0.49944 0.00041 0.38920
 C562 C 0.49914 0.00042 0.61110
 C563 C 0.55495 -0.05723 0.44786
 C564 C 0.55514 0.05806 0.44811
 C565 C 0.55463 -0.05764 0.55195
 C566 C 0.44493 -0.05437 0.55430
 C567 C 0.44506 0.05583 0.55459
 C568 C 0.44504 -0.05419 0.44532
 C569 C 0.55488 0.05780 0.55223
 C570 C 0.44517 0.05599 0.44552
 O571 O 0.53281 -0.06531 0.55949
 O572 O 0.56134 -0.03371 0.53064
 O573 O 0.53310 0.06556 0.55986
 O574 O 0.56149 0.03402 0.53073
 O575 O 0.46707 0.06348 0.43810
 O576 O 0.43869 0.03338 0.46833
 O577 O 0.49951 0.03060 0.59588
 O578 O 0.49943 -0.02968 0.59583
 O579 O 0.49979 0.03057 0.40439
 O580 O 0.49968 -0.02971 0.40448
 O581 O 0.46666 -0.06225 0.56199
 O582 O 0.43843 -0.03173 0.53162
 O583 O 0.53306 -0.06471 0.44045
 O584 O 0.56143 -0.03347 0.46954
 O585 O 0.46691 -0.06189 0.43796
 O586 O 0.43861 -0.03161 0.46816
 O587 O 0.46694 0.06321 0.56215
 O588 O 0.43863 0.03337 0.53168
 O589 O 0.49950 0.09962 0.44809
 O590 O 0.49907 0.09964 0.55126
 O591 O 0.49899 -0.09867 0.55194
 O592 O 0.49888 -0.09866 0.44921
 O593 O 0.52057 -0.04623 0.50018
 O594 O 0.52073 0.04705 0.50013
 O595 O 0.47961 -0.04569 0.50009
 O596 O 0.52178 0.00046 0.45499
 O597 O 0.56154 0.03404 0.46962
 O598 O 0.53327 0.06585 0.44078
 O599 O 0.47822 0.00065 0.45461
 O600 O 0.47808 0.00056 0.54554
 O601 O 0.47981 0.04693 0.50008
 O602 O 0.52165 0.00033 0.54531
 Zr603 Zr 0.50015 0.04442 0.45607
 Zr604 Zr 0.49985 -0.04344 0.54416
 Zr605 Zr 0.54089 0.00032 0.50016
 Zr606 Zr 0.50001 -0.04334 0.45615
 Zr607 Zr 0.50004 0.04433 0.54415
 Zr608 Zr 0.45920 0.00073 0.50003
 H609 H 0.46999 -0.06763 0.50000
 H610 H 0.53239 0.00048 0.43492
 H611 H 0.47028 0.06897 0.50008
 H612 H 0.53222 0.00021 0.56540
 H613 H 0.49977 0.11025 0.47100
 H614 H 0.50396 0.10999 0.52926
 H615 H 0.50434 -0.10898 0.47094
 H616 H 0.49844 -0.10919 0.52899
 C617 C 0.75034 0.24944 0.86166
 C618 C 0.75009 0.24905 0.63979
 C619 C 0.69462 0.19121 0.80337
 C620 C 0.69453 0.30693 0.80279
 C621 C 0.69466 0.19120 0.69892
 C622 C 0.80457 0.19479 0.69575
 C623 C 0.80426 0.30432 0.69566
 C624 C 0.80469 0.19487 0.80550
 C625 C 0.69445 0.30650 0.69870
 C626 C 0.80449 0.30443 0.80538
 O627 O 0.71657 0.18387 0.69137
 O628 O 0.68813 0.21497 0.72058
 O629 O 0.71621 0.31424 0.69092
 O630 O 0.68790 0.28274 0.72034
 O631 O 0.78259 0.31205 0.81269
 O632 O 0.81094 0.28200 0.78242
 O633 O 0.74973 0.27925 0.65493
 O634 O 0.74984 0.21895 0.65515
 O635 O 0.74991 0.27954 0.84634
 O636 O 0.75005 0.21928 0.84653
 O637 O 0.78270 0.18705 0.68846
 O638 O 0.81097 0.21715 0.71878
 O639 O 0.71658 0.18374 0.81060
 O640 O 0.68809 0.21513 0.78178
 O641 O 0.78285 0.18705 0.81295
 O642 O 0.81103 0.21728 0.78243
 O643 O 0.78245 0.31195 0.68810
 O644 O 0.81088 0.28206 0.71864
 O645 O 0.75014 0.34843 0.80232
 O646 O 0.75028 0.34851 0.69963
 O647 O 0.75088 0.15003 0.70009
 O648 O 0.75054 0.15022 0.80272
 O649 O 0.72895 0.20249 0.75097
 O650 O 0.72876 0.29575 0.75070
 O651 O 0.76995 0.20310 0.75083
 O652 O 0.72782 0.24923 0.79603
 O653 O 0.68804 0.28282 0.78150
 O654 O 0.71642 0.31472 0.80993
 O655 O 0.77139 0.24943 0.79610
 O656 O 0.77131 0.24937 0.70529
 O657 O 0.76975 0.29576 0.75055
 O658 O 0.72776 0.24913 0.70576
 Zr659 Zr 0.74947 0.29321 0.79463
 Zr660 Zr 0.74957 0.20537 0.70691
 Zr661 Zr 0.70859 0.24902 0.75095
 Zr662 Zr 0.74961 0.20543 0.79490
 Zr663 Zr 0.74937 0.29316 0.70659
 Zr664 Zr 0.79035 0.24954 0.75062
 H665 H 0.77963 0.18120 0.75079
 H666 H 0.71724 0.24922 0.81614
 H667 H 0.77933 0.31775 0.75047
 H668 H 0.71716 0.24900 0.68571
 H669 H 0.75080 0.35899 0.77937
 H670 H 0.74478 0.35872 0.72138
 H671 H 0.75108 0.13967 0.77979
 H672 H 0.74531 0.13974 0.72178
 C673 C 0.00050 0.50039 0.38966
 C674 C 0.00036 0.50018 0.61207
 C675 C -0.05495 0.55832 0.44867
 C676 C -0.05497 0.44209 0.44926
 C677 C -0.05484 0.55861 0.55219
 C678 C 0.05496 0.55498 0.55531
 C679 C 0.05496 0.44533 0.55575
 C680 C 0.05506 0.55493 0.44557
 C681 C -0.05507 0.44226 0.55270
 C682 C 0.05502 0.44530 0.44590
 O683 O -0.03303 0.56620 0.55983
 O684 O -0.06149 0.53445 0.53112
 O685 O -0.03318 0.43488 0.56029
 O686 O -0.06152 0.46635 0.53126
 O687 O 0.03312 0.43773 0.43862
 O688 O 0.06147 0.46768 0.46889
 O689 O 0.00010 0.47005 0.59679
 O690 O 0.00014 0.53032 0.59672
 O691 O 0.00020 0.47025 0.40499
 O692 O 0.00026 0.53052 0.40491
 O693 O 0.03319 0.56278 0.56293
 O694 O 0.06152 0.53262 0.53244
 O695 O -0.03303 0.56572 0.44119
 O696 O -0.06145 0.53430 0.47017
 O697 O 0.03317 0.56259 0.43826
 O698 O 0.06148 0.53256 0.46867
 O699 O 0.03306 0.43788 0.56324
 O700 O 0.06141 0.46761 0.53260
 O701 O 0.00092 0.40125 0.44899
 O702 O 0.00108 0.40115 0.55219
 O703 O 0.00098 0.59937 0.55257
 O704 O 0.00125 0.59947 0.44965
 O705 O -0.02057 0.54688 0.50077
 O706 O -0.02063 0.45376 0.50088
 O707 O 0.02034 0.54651 0.50073
 O708 O -0.02175 0.50031 0.45560
 O709 O -0.06148 0.46633 0.47046
 O710 O -0.03306 0.43459 0.44186
 O711 O 0.02188 0.50025 0.45530
 O712 O 0.02186 0.50025 0.54625
 O713 O 0.02027 0.45395 0.50087
 O714 O -0.02180 0.50035 0.54604
 Zr715 Zr -0.00001 0.45645 0.45679
 Zr716 Zr 0.00001 0.54415 0.54488
 Zr717 Zr -0.04092 0.50036 0.50080
 Zr718 Zr 0.00002 0.54414 0.45668
 Zr719 Zr -0.00007 0.45646 0.54497
 Zr720 Zr 0.04087 0.50018 0.50073
 H721 H 0.02998 0.56844 0.50061
 H722 H -0.03239 0.50026 0.43558
 H723 H 0.02987 0.43197 0.50090
 H724 H -0.03247 0.50039 0.56605
 H725 H 0.00043 0.39063 0.47192
 H726 H -0.00372 0.39078 0.53020
 H727 H -0.00404 0.60978 0.47145
 H728 H 0.00128 0.60992 0.52960
 C729 C 0.25039 0.75082 0.86095
 C730 C 0.25039 0.75116 0.63903
 C731 C 0.19490 0.69256 0.80149
 C732 C 0.19470 0.80881 0.80202
 C733 C 0.19490 0.69292 0.69829
 C734 C 0.30479 0.69592 0.69561
 C735 C 0.30476 0.80633 0.69565
 C736 C 0.30487 0.69576 0.80462
 C737 C 0.19481 0.80918 0.69841
 C738 C 0.30476 0.80599 0.80469
 O739 O 0.21680 0.68553 0.69075
 O740 O 0.18839 0.71700 0.71963
 O741 O 0.21672 0.81673 0.69102
 O742 O 0.18833 0.78494 0.71966
 O743 O 0.28287 0.81352 0.81218
 O744 O 0.31119 0.78348 0.78180
 O745 O 0.25009 0.78125 0.65433
 O746 O 0.25014 0.72099 0.65424
 O747 O 0.25006 0.78100 0.84576
 O748 O 0.25008 0.72073 0.84568
 O749 O 0.28302 0.68825 0.68792
 O750 O 0.31133 0.71846 0.71833
 O751 O 0.21680 0.68508 0.80892
 O752 O 0.18839 0.71685 0.78034
 O753 O 0.28298 0.68813 0.81198
 O754 O 0.31128 0.71845 0.78182
 O755 O 0.28289 0.81382 0.68817
 O756 O 0.31121 0.78368 0.71843
 O757 O 0.25077 0.85005 0.80138
 O758 O 0.25062 0.85008 0.69811
 O759 O 0.25089 0.65190 0.69851
 O760 O 0.25076 0.65184 0.80199
 O761 O 0.22925 0.70438 0.74999
 O762 O 0.22914 0.79758 0.75008
 O763 O 0.27015 0.70466 0.74999
 O764 O 0.22803 0.75085 0.79524
 O765 O 0.18828 0.78480 0.78054
 O766 O 0.21660 0.81623 0.80955
 O767 O 0.27165 0.75092 0.79551
 O768 O 0.27171 0.75106 0.70455
 O769 O 0.27006 0.79724 0.75008
 O770 O 0.22807 0.75101 0.70482
 Zr771 Zr 0.24973 0.79477 0.79410
 Zr772 Zr 0.24986 0.70716 0.70594
 Zr773 Zr 0.20893 0.75095 0.75004
 Zr774 Zr 0.24983 0.70703 0.79401
 Zr775 Zr 0.24977 0.79487 0.70604
 Zr776 Zr 0.29064 0.75097 0.75005
 H777 H 0.27973 0.68267 0.75000
 H778 H 0.21737 0.75074 0.81526
 H779 H 0.27961 0.81926 0.75013
 H780 H 0.21742 0.75108 0.68482
 H781 H 0.24604 0.86049 0.77936
 H782 H 0.25019 0.86069 0.72102
 H783 H 0.24999 0.64120 0.77912
 H784 H 0.24665 0.64140 0.72071
 C785 C 0.49933 0.49969 0.38922
 C786 C 0.49924 0.50002 0.61109
 C787 C 0.55504 0.44200 0.44793
 C788 C 0.55509 0.55753 0.44790
 C789 C 0.55489 0.44178 0.55219
 C790 C 0.44492 0.44482 0.55479
 C791 C 0.44505 0.55522 0.55468
 C792 C 0.44499 0.44484 0.44561
 C793 C 0.55496 0.55741 0.55213
 C794 C 0.44508 0.55521 0.44561
 O795 O 0.53296 0.43430 0.55952
 O796 O 0.56145 0.46576 0.53070
 O797 O 0.53315 0.56509 0.55978
 O798 O 0.56157 0.53359 0.53064
 O799 O 0.46697 0.56269 0.43816
 O800 O 0.43862 0.53258 0.46843
 O801 O 0.49958 0.53015 0.59582
 O802 O 0.49958 0.46988 0.59589
 O803 O 0.49968 0.52982 0.40442
 O804 O 0.49963 0.46955 0.40449
 O805 O 0.46680 0.43724 0.56219
 O806 O 0.43851 0.46747 0.53195
 O807 O 0.53312 0.43458 0.44049
 O808 O 0.56151 0.46582 0.46957
 O809 O 0.46687 0.43725 0.43814
 O810 O 0.43858 0.46744 0.46845
 O811 O 0.46694 0.56267 0.56214
 O812 O 0.43861 0.53263 0.53187
 O813 O 0.49943 0.59888 0.44803
 O814 O 0.49906 0.59913 0.55098
 O815 O 0.49916 0.40086 0.55220
 O816 O 0.49896 0.40060 0.44933
 O817 O 0.52065 0.45319 0.50021
 O818 O 0.52074 0.54643 0.50006
 O819 O 0.47968 0.45362 0.50022
 O820 O 0.52179 0.49977 0.45498
 O821 O 0.56156 0.53351 0.46940
 O822 O 0.53318 0.56521 0.44066
 O823 O 0.47818 0.49987 0.45471
 O824 O 0.47814 0.49998 0.54562
 O825 O 0.47977 0.54621 0.50009
 O826 O 0.52175 0.49984 0.54528
 Zr827 Zr 0.50010 0.54368 0.45606
 Zr828 Zr 0.49997 0.45606 0.54422
 Zr829 Zr 0.54097 0.49975 0.50011
 Zr830 Zr 0.50003 0.45594 0.45620
 Zr831 Zr 0.50007 0.54380 0.54410
 Zr832 Zr 0.45918 0.49997 0.50017
 H833 H 0.47007 0.43166 0.50023
 H834 H 0.53238 0.49978 0.43489
 H835 H 0.47022 0.56823 0.50008
 H836 H 0.53233 0.49975 0.56536
 H837 H 0.49912 0.60953 0.47093
 H838 H 0.50423 0.60939 0.52907
 H839 H 0.50431 0.39034 0.47114
 H840 H 0.49876 0.39024 0.52930
 C841 C 0.75036 0.75057 0.86085
 C842 C 0.75022 0.75133 0.63899
 C843 C 0.69481 0.69272 0.80188
 C844 C 0.69453 0.80840 0.80241
 C845 C 0.69468 0.69329 0.69775
 C846 C 0.80468 0.69649 0.69479
 C847 C 0.80453 0.80593 0.69495
 C848 C 0.80475 0.69612 0.80455
 C849 C 0.69458 0.80866 0.69807
 C850 C 0.80461 0.80569 0.80474
 O851 O 0.71659 0.68588 0.69023
 O852 O 0.68819 0.71706 0.71945
 O853 O 0.71646 0.81625 0.69056
 O854 O 0.68814 0.78475 0.71968
 O855 O 0.78273 0.81332 0.81216
 O856 O 0.81103 0.78337 0.78167
 O857 O 0.74987 0.78142 0.65430
 O858 O 0.74997 0.72113 0.65417
 O859 O 0.74999 0.78076 0.84569
 O860 O 0.75005 0.72049 0.84555
 O861 O 0.78280 0.68884 0.68742
 O862 O 0.81107 0.71877 0.71789
 O863 O 0.71672 0.68514 0.80912
 O864 O 0.68826 0.71681 0.78053
 O865 O 0.78289 0.68835 0.81190
 O866 O 0.81113 0.71862 0.78158
 O867 O 0.78265 0.81357 0.68765
 O868 O 0.81099 0.78355 0.71799
 O869 O 0.75031 0.84991 0.80187
 O870 O 0.75063 0.85031 0.69904
 O871 O 0.75084 0.65191 0.69870
 O872 O 0.75064 0.65170 0.80155
 O873 O 0.72905 0.70427 0.74990
 O874 O 0.72891 0.79755 0.75009
 O875 O 0.77003 0.70465 0.74979
 O876 O 0.72793 0.75074 0.79519
 O877 O 0.68811 0.78449 0.78084
 O878 O 0.71645 0.81608 0.80965
 O879 O 0.77148 0.75087 0.79532
 O880 O 0.77144 0.75114 0.70449
 O881 O 0.76990 0.79733 0.75000
 O882 O 0.72790 0.75104 0.70489
 Zr883 Zr 0.74956 0.79471 0.79406
 Zr884 Zr 0.74966 0.70721 0.70585
 Zr885 Zr 0.70874 0.75085 0.75007
 Zr886 Zr 0.74971 0.70694 0.79385
 Zr887 Zr 0.74955 0.79497 0.70604
 Zr888 Zr 0.79044 0.75104 0.74985
 H889 H 0.77968 0.68273 0.74970
 H890 H 0.71732 0.75061 0.81526
 H891 H 0.77950 0.81930 0.74997
 H892 H 0.71729 0.75109 0.68484
 H893 H 0.75029 0.86052 0.77893
 H894 H 0.74525 0.86058 0.72081
 H895 H 0.75087 0.64120 0.77858
 H896 H 0.74548 0.64151 0.72046
 C897 C 0.00137 0.03260 0.29701
 C898 C 0.00155 0.00049 0.27934
 C899 C 0.00143 -0.03145 0.29734
 C900 C 0.00108 -0.03135 0.33283
 C901 C 0.00164 -0.00023 0.14568
 C902 C 0.00102 0.03280 0.33251
 C903 C 0.00172 0.00030 0.24277
 C904 C 0.00179 0.00011 0.21215
 C905 C 0.00176 -0.00011 0.17629
 C906 C 0.00083 0.00080 0.35089
 H907 H 0.00146 0.05750 0.28334
 H908 H 0.00156 -0.05647 0.28394
 H909 H 0.00097 -0.05647 0.34607
 H910 H 0.00087 0.05803 0.34551
 C911 C 0.25102 0.21761 0.95386
 C912 C 0.25114 0.24969 0.97157
 C913 C 0.25108 0.28166 0.95361
 C914 C 0.25085 0.28160 0.91812
 C915 C 0.25096 0.25014 1.10527
 C916 C 0.25079 0.21746 0.91835
 C917 C 0.25122 0.24981 1.00816
 C918 C 0.25121 0.24994 1.03878
 C919 C 0.25112 0.25007 1.07465
 C920 C 0.25067 0.24948 0.90001
 H921 H 0.25106 0.19269 0.96749
 H922 H 0.25117 0.30665 0.96705
 H923 H 0.25079 0.30674 0.90490
 H924 H 0.25068 0.19225 0.90532
 C925 C 0.16473 0.12828 0.13681
 C926 C 0.14069 0.13597 0.14267
 C927 C 0.13442 0.16120 0.16706
 C928 C 0.15212 0.17901 0.18526
 C929 C 0.07418 0.07194 0.07150
 C930 C 0.18246 0.14602 0.15495
 C931 C 0.12251 0.11835 0.12325
 C932 C 0.10732 0.10370 0.10685
 C933 C 0.08950 0.08659 0.08766
 C934 C 0.17639 0.17181 0.17926
 H935 H 0.16978 0.10878 0.11800
 H936 H 0.11585 0.16734 0.17180
 H937 H 0.14677 0.19866 0.20374
 H938 H 0.20092 0.13977 0.14963
 C939 C 0.41417 0.38354 0.11663
 C940 C 0.39022 0.39127 0.11025
 C941 C 0.38419 0.41667 0.08587
 C942 C 0.40207 0.43430 0.06786
 C943 C 0.32320 0.32403 0.17743
 C944 C 0.43209 0.40112 0.09868
 C945 C 0.37185 0.37303 0.12868
 C946 C 0.35651 0.35764 0.14413
 C947 C 0.33857 0.33953 0.16214
 C948 C 0.42626 0.42670 0.07403
 H949 H 0.41901 0.36391 0.13547
 H950 H 0.36567 0.42283 0.08078
 H951 H 0.39693 0.45387 0.04915
 H952 H 0.45049 0.39460 0.10413
 C953 C 0.41506 0.11613 0.11686
 C954 C 0.39103 0.10939 0.10991
 C955 C 0.38495 0.08463 0.08498
 C956 C 0.40279 0.06668 0.06709
 C957 C 0.32372 0.17687 0.17714
 C958 C 0.43293 0.09824 0.09902
 C959 C 0.37264 0.12786 0.12835
 C960 C 0.35725 0.14334 0.14378
 C961 C 0.33919 0.16145 0.16183
 C962 C 0.42704 0.07325 0.07387
 H963 H 0.41999 0.13523 0.13610
 H964 H 0.36642 0.07918 0.07936
 H965 H 0.39756 0.04766 0.04796
 H966 H 0.45136 0.10399 0.10499
 C967 C 0.08583 0.38599 0.11807
 C968 C 0.10982 0.39330 0.11146
 C969 C 0.11591 0.41750 0.08597
 C970 C 0.09808 0.43442 0.06722
 C971 C 0.17673 0.32725 0.18029
 C972 C 0.06796 0.40285 0.09937
 C973 C 0.12816 0.37576 0.13068
 C974 C 0.14347 0.36081 0.14666
 C975 C 0.16138 0.34292 0.16504
 C976 C 0.07386 0.42733 0.07371
 H977 H 0.08092 0.36726 0.13771
 H978 H 0.13445 0.42331 0.08061
 H979 H 0.10329 0.45311 0.04772
 H980 H 0.04954 0.39675 0.10513
 C981 C 0.41423 0.11659 0.38262
 C982 C 0.39025 0.11027 0.39014
 C983 C 0.38416 0.08630 0.41581
 C984 C 0.40199 0.06866 0.43391
 C985 C 0.32324 0.17682 0.32216
 C986 C 0.43211 0.09902 0.40066
 C987 C 0.37190 0.12840 0.37151
 C988 C 0.35657 0.14364 0.35589
 C989 C 0.33862 0.16153 0.33764
 C990 C 0.42621 0.07482 0.42655
 H991 H 0.41913 0.13510 0.36278
 H992 H 0.36562 0.08122 0.42182
 H993 H 0.39679 0.05022 0.45362
 H994 H 0.45053 0.10436 0.39424
 C995 C 0.11600 0.41685 0.41384
 C996 C 0.10980 0.39301 0.38815
 C997 C 0.08577 0.38609 0.38152
 C998 C 0.06798 0.40293 0.40040
 C999 C 0.17639 0.32678 0.31857
 C1000 C 0.09823 0.43376 0.43279
 C1001 C 0.12806 0.37541 0.36872
 C1002 C 0.14327 0.36039 0.35256
 C1003 C 0.16108 0.34244 0.33395
 C1004 C 0.07397 0.42701 0.42630
 H1005 H 0.13456 0.42238 0.41922
 H1006 H 0.08076 0.36766 0.36172
 H1007 H 0.04953 0.39712 0.39459
 H1008 H 0.10352 0.45215 0.45243
 C1009 C 0.11578 0.08225 0.41191
 C1010 C 0.10974 0.10649 0.38647
 C1011 C 0.08578 0.11426 0.38013
 C1012 C 0.06788 0.09783 0.39912
 C1013 C 0.17677 0.17215 0.31774
 C1014 C 0.09792 0.06576 0.43096
 C1015 C 0.12811 0.12376 0.36713
 C1016 C 0.14345 0.13858 0.35114
 C1017 C 0.16140 0.15642 0.33284
 C1018 C 0.07373 0.07338 0.42481
 H1019 H 0.13429 0.07610 0.41704
 H1020 H 0.08093 0.13303 0.36052
 H1021 H 0.04948 0.10427 0.39360
 H1022 H 0.10308 0.04701 0.45042
 C1023 C 0.41390 0.38442 0.38272
 C1024 C 0.38990 0.39069 0.39031
 C1025 C 0.38387 0.41463 0.41599
 C1026 C 0.40174 0.43225 0.43403
 C1027 C 0.32296 0.32373 0.32238
 C1028 C 0.43180 0.40197 0.40071
 C1029 C 0.37152 0.37250 0.37173
 C1030 C 0.35620 0.35716 0.35613
 C1031 C 0.33829 0.33914 0.33788
 C1032 C 0.42596 0.42612 0.42663
 H1033 H 0.41878 0.36596 0.36288
 H1034 H 0.36534 0.41969 0.42208
 H1035 H 0.39656 0.45064 0.45377
 H1036 H 0.45021 0.39663 0.39423
 C1037 C 0.49893 0.03210 0.29792
 C1038 C 0.49877 -0.00004 0.28038
 C1039 C 0.49866 -0.03200 0.29828
 C1040 C 0.49879 -0.03187 0.33370
 C1041 C 0.49985 -0.00124 0.14728
 C1042 C 0.49907 0.03232 0.33336
 C1043 C 0.49891 -0.00029 0.24398
 C1044 C 0.49914 -0.00059 0.21347
 C1045 C 0.49949 -0.00098 0.17778
 C1046 C 0.49906 0.00031 0.35167
 H1047 H 0.49903 0.05697 0.28421
 H1048 H 0.49853 -0.05701 0.28487
 H1049 H 0.49875 -0.05700 0.34695
 H1050 H 0.49925 0.05756 0.34635
 C1051 C 0.75171 0.21756 0.95283
 C1052 C 0.75182 0.24964 0.97047
 C1053 C 0.75155 0.28166 0.95266
 C1054 C 0.75112 0.28165 0.91723
 C1055 C 0.75174 0.24967 1.10358
 C1056 C 0.75128 0.21744 0.91741
 C1057 C 0.75200 0.24969 1.00687
 C1058 C 0.75203 0.24971 1.03738
 C1059 C 0.75194 0.24970 1.07307
 C1060 C 0.75093 0.24951 0.89919
 H1061 H 0.75191 0.19264 0.96646
 H1062 H 0.75162 0.30663 0.96615
 H1063 H 0.75089 0.30680 0.90404
 H1064 H 0.75118 0.19224 0.90436
 C1065 C 0.66512 0.12955 0.13618
 C1066 C 0.64111 0.13776 0.14168
 C1067 C 0.63491 0.16263 0.16646
 C1068 C 0.65265 0.17957 0.18536
 C1069 C 0.57440 0.07473 0.06990
 C1070 C 0.68289 0.14643 0.15503
 C1071 C 0.62288 0.12088 0.12171
 C1072 C 0.60763 0.10665 0.10502
 C1073 C 0.58975 0.08968 0.08578
 C1074 C 0.67689 0.17188 0.17971
 H1075 H 0.67013 0.11029 0.11711
 H1076 H 0.61637 0.16914 0.17099
 H1077 H 0.64734 0.19900 0.20408
 H1078 H 0.70133 0.13984 0.14992
 C1079 C -0.08575 0.37856 0.11158
 C1080 C -0.10976 0.38649 0.10589
 C1081 C -0.11599 0.41201 0.08171
 C1082 C -0.09825 0.42987 0.06355
 C1083 C -0.17617 0.32215 0.17715
 C1084 C -0.06799 0.39635 0.09348
 C1085 C -0.12796 0.36884 0.12528
 C1086 C -0.14314 0.35412 0.14171
 C1087 C -0.16091 0.33691 0.16094
 C1088 C -0.07400 0.42243 0.06939
 H1089 H -0.08074 0.35883 0.13023
 H1090 H -0.13455 0.41834 0.07710
 H1091 H -0.10356 0.44975 0.04523
 H1092 H -0.04954 0.38990 0.09868
 C1093 C 0.86694 0.16683 0.16339
 C1094 C 0.86086 0.14266 0.13794
 C1095 C 0.83685 0.13525 0.13155
 C1096 C 0.81898 0.15197 0.15041
 C1097 C 0.92764 0.07702 0.06816
 C1098 C 0.84910 0.18362 0.18231
 C1099 C 0.87920 0.12525 0.11850
 C1100 C 0.89447 0.11039 0.10231
 C1101 C 0.91234 0.09260 0.08364
 C1102 C 0.82487 0.17643 0.17603
 H1103 H 0.88547 0.17274 0.16860
 H1104 H 0.83192 0.11655 0.11195
 H1105 H 0.80056 0.14578 0.14479
 H1106 H 0.85432 0.20229 0.20175
 C1107 C 0.58625 0.38082 0.11485
 C1108 C 0.61025 0.38891 0.10905
 C1109 C 0.61633 0.41368 0.08406
 C1110 C 0.59851 0.43063 0.06525
 C1111 C 0.67725 0.32567 0.18051
 C1112 C 0.56839 0.39771 0.09610
 C1113 C 0.62859 0.37197 0.12890
 C1114 C 0.64391 0.35769 0.14549
 C1115 C 0.66187 0.34066 0.16465
 C1116 C 0.57428 0.42304 0.07119
 H1117 H 0.58132 0.36164 0.13407
 H1118 H 0.63485 0.42012 0.07929
 H1119 H 0.60374 0.44996 0.04636
 H1120 H 0.54998 0.39119 0.10143
 C1121 C -0.08633 0.12194 0.38657
 C1122 C -0.11034 0.11416 0.39268
 C1123 C -0.11639 0.08895 0.41727
 C1124 C -0.09854 0.07134 0.43545
 C1125 C -0.17754 0.17828 0.32227
 C1126 C -0.06844 0.10439 0.40469
 C1127 C -0.12872 0.13174 0.37343
 C1128 C -0.14409 0.14638 0.35722
 C1129 C -0.16211 0.16354 0.33827
 C1130 C -0.07430 0.07870 0.42927
 H1131 H -0.08142 0.14141 0.36761
 H1132 H -0.13491 0.08270 0.42224
 H1133 H -0.10374 0.05173 0.45410
 H1134 H -0.05002 0.11074 0.39918
 C1135 C 0.61612 0.41263 0.41722
 C1136 C 0.61006 0.38840 0.39182
 C1137 C 0.58606 0.38090 0.38546
 C1138 C 0.56817 0.39783 0.40411
 C1139 C 0.67713 0.32508 0.32071
 C1140 C 0.59828 0.42962 0.43592
 C1141 C 0.62842 0.37141 0.37210
 C1142 C 0.64376 0.35710 0.35560
 C1143 C 0.66173 0.34006 0.33652
 C1144 C 0.57404 0.42261 0.42944
 H1145 H 0.63465 0.41859 0.42241
 H1146 H 0.58115 0.36215 0.36590
 H1147 H 0.54975 0.39179 0.39834
 H1148 H 0.60348 0.44851 0.45517
 C1149 C 0.61626 0.08560 0.41644
 C1150 C 0.61029 0.11054 0.39160
 C1151 C 0.58638 0.11923 0.38600
 C1152 C 0.56844 0.10270 0.40484
 C1153 C 0.67749 0.17262 0.32022
 C1154 C 0.59837 0.06901 0.43533
 C1155 C 0.62867 0.12705 0.37171
 C1156 C 0.64406 0.14101 0.35511
 C1157 C 0.66207 0.15775 0.33600
 C1158 C 0.57421 0.07718 0.42959
 H1159 H 0.63473 0.07874 0.42100
 H1160 H 0.58158 0.13857 0.36687
 H1161 H 0.55007 0.10961 0.39968
 H1162 H 0.60347 0.04947 0.45410
 C1163 C -0.08576 0.37896 0.38865
 C1164 C -0.10978 0.38614 0.39521
 C1165 C -0.11595 0.41090 0.42009
 C1166 C -0.09816 0.42875 0.43810
 C1167 C -0.17630 0.32176 0.32433
 C1168 C -0.06794 0.39673 0.40659
 C1169 C -0.12804 0.36848 0.37598
 C1170 C -0.14325 0.35375 0.35966
 C1171 C -0.16105 0.33652 0.34051
 C1172 C -0.07391 0.42205 0.43140
 H1173 H -0.08078 0.35983 0.36944
 H1174 H -0.13450 0.41664 0.42539
 H1175 H -0.10343 0.44801 0.45700
 H1176 H -0.04950 0.39090 0.40070
 C1177 C 0.00115 0.53248 0.29828
 C1178 C 0.00116 0.50047 0.28047
 C1179 C 0.00107 0.46842 0.29831
 C1180 C 0.00092 0.46834 0.33380
 C1181 C 0.00064 0.50071 0.14688
 C1182 C 0.00099 0.53250 0.33377
 C1183 C 0.00113 0.50051 0.24392
 C1184 C 0.00103 0.50057 0.21332
 C1185 C 0.00085 0.50066 0.17748
 C1186 C 0.00083 0.50040 0.35200
 H1187 H 0.00121 0.55745 0.28473
 H1188 H 0.00108 0.44347 0.28478
 H1189 H 0.00082 0.44316 0.34694
 H1190 H 0.00095 0.55766 0.34687
 C1191 C 0.25142 0.71853 0.95198
 C1192 C 0.25159 0.75054 0.96973
 C1193 C 0.25146 0.78263 0.95206
 C1194 C 0.25110 0.78278 0.91664
 C1195 C 0.25141 0.75042 1.10280
 C1196 C 0.25107 0.71857 0.91656
 C1197 C 0.25172 0.75045 1.00612
 C1198 C 0.25173 0.75040 1.03663
 C1199 C 0.25161 0.75039 1.07230
 C1200 C 0.25087 0.75073 0.89847
 H1201 H 0.25152 0.69355 0.96551
 H1202 H 0.25158 0.80754 0.96565
 H1203 H 0.25098 0.80799 0.90354
 H1204 H 0.25093 0.69343 0.90341
 C1205 C 0.16430 0.62931 0.13762
 C1206 C 0.14030 0.63761 0.14309
 C1207 C 0.13420 0.66342 0.16703
 C1208 C 0.15201 0.68112 0.18517
 C1209 C 0.07334 0.57326 0.07260
 C1210 C 0.18215 0.64695 0.15570
 C1211 C 0.12198 0.61995 0.12384
 C1212 C 0.10668 0.60524 0.10761
 C1213 C 0.08873 0.58801 0.08862
 C1214 C 0.17625 0.67325 0.17960
 H1215 H 0.16925 0.60937 0.11918
 H1216 H 0.11568 0.67008 0.17150
 H1217 H 0.14677 0.70120 0.20328
 H1218 H 0.20057 0.64017 0.15069
 C1219 C 0.36702 0.83583 0.16510
 C1220 C 0.36119 0.86045 0.13984
 C1221 C 0.33718 0.86738 0.13272
 C1222 C 0.31914 0.84985 0.15068
 C1223 C 0.42906 0.92683 0.07184
 C1224 C 0.34901 0.81824 0.18310
 C1225 C 0.37979 0.87856 0.12121
 C1226 C 0.39532 0.89374 0.10562
 C1227 C 0.41352 0.91157 0.08736
 C1228 C 0.32479 0.82500 0.17614
 H1229 H 0.38551 0.83019 0.17089
 H1230 H 0.33239 0.88635 0.11325
 H1231 H 0.30076 0.85576 0.14453
 H1232 H 0.35409 0.79933 0.20245
 C1233 C 0.41439 0.61776 0.11616
 C1234 C 0.39041 0.61008 0.10997
 C1235 C 0.38431 0.58464 0.08573
 C1236 C 0.40214 0.56691 0.06769
 C1237 C 0.32354 0.67730 0.17760
 C1238 C 0.43225 0.60009 0.09820
 C1239 C 0.37209 0.62837 0.12851
 C1240 C 0.35679 0.64377 0.14406
 C1241 C 0.33889 0.66185 0.16221
 C1242 C 0.42635 0.57444 0.07370
 H1243 H 0.41929 0.63742 0.13489
 H1244 H 0.36578 0.57850 0.08076
 H1245 H 0.39693 0.54729 0.04912
 H1246 H 0.45067 0.60656 0.10353
 C1247 C 0.16475 0.87278 0.13742
 C1248 C 0.14077 0.86439 0.14285
 C1249 C 0.13460 0.83871 0.16690
 C1250 C 0.15236 0.82113 0.18519
 C1251 C 0.07402 0.92748 0.07150
 C1252 C 0.18255 0.85525 0.15565
 C1253 C 0.12254 0.88173 0.12335
 C1254 C 0.10728 0.89613 0.10690
 C1255 C 0.08938 0.91298 0.08768
 C1256 C 0.17658 0.82900 0.17961
 H1257 H 0.16971 0.89264 0.11886
 H1258 H 0.11607 0.83204 0.17129
 H1259 H 0.14709 0.80108 0.20337
 H1260 H 0.20098 0.86201 0.15067
 C1261 C 0.41417 0.61612 0.38286
 C1262 C 0.39016 0.61000 0.39047
 C1263 C 0.38405 0.58599 0.41610
 C1264 C 0.40187 0.56815 0.43410
 C1265 C 0.32338 0.67757 0.32267
 C1266 C 0.43202 0.59835 0.40080
 C1267 C 0.37184 0.62840 0.37194
 C1268 C 0.35657 0.64389 0.35637
 C1269 C 0.33870 0.66207 0.33815
 C1270 C 0.42610 0.57414 0.42667
 H1271 H 0.41910 0.63464 0.36305
 H1272 H 0.36551 0.58105 0.42219
 H1273 H 0.39665 0.54972 0.45380
 H1274 H 0.45045 0.60358 0.39431
 C1275 C 0.11585 -0.08106 0.41234
 C1276 C 0.10980 -0.10540 0.38704
 C1277 C 0.08581 -0.11299 0.38072
 C1278 C 0.06792 -0.09633 0.39957
 C1279 C 0.17683 -0.17146 0.31830
 C1280 C 0.09800 -0.06433 0.43125
 C1281 C 0.12817 -0.12288 0.36777
 C1282 C 0.14350 -0.13783 0.35181
 C1283 C 0.16145 -0.15575 0.33347
 C1284 C 0.07379 -0.07178 0.42512
 H1285 H 0.13437 -0.07500 0.41747
 H1286 H 0.08091 -0.13182 0.36122
 H1287 H 0.04951 -0.10266 0.39404
 H1288 H 0.10319 -0.04553 0.45060
 C1289 C 0.11613 0.58274 0.41317
 C1290 C 0.11001 0.60709 0.38782
 C1291 C 0.08599 0.61448 0.38146
 C1292 C 0.06815 0.59764 0.40029
 C1293 C 0.17682 0.67376 0.31880
 C1294 C 0.09831 0.56584 0.43208
 C1295 C 0.12834 0.62477 0.36853
 C1296 C 0.14361 0.63988 0.35250
 C1297 C 0.16149 0.65796 0.33407
 C1298 C 0.07407 0.57310 0.42589
 H1299 H 0.13467 0.57683 0.41835
 H1300 H 0.08104 0.63329 0.36192
 H1301 H 0.04972 0.60385 0.39472
 H1302 H 0.10355 0.54706 0.45147
 C1303 C 0.41409 -0.11502 0.38283
 C1304 C 0.39010 -0.10808 0.38980
 C1305 C 0.38400 -0.08351 0.41487
 C1306 C 0.40183 -0.06593 0.43299
 C1307 C 0.32334 -0.17526 0.32214
 C1308 C 0.43196 -0.09752 0.40088
 C1309 C 0.37179 -0.12629 0.37126
 C1310 C 0.35651 -0.14168 0.35570
 C1311 C 0.33865 -0.15978 0.33754
 C1312 C 0.42605 -0.07277 0.42624
 H1313 H 0.41900 -0.13400 0.36345
 H1314 H 0.36546 -0.07794 0.42044
 H1315 H 0.39662 -0.04703 0.45225
 H1316 H 0.45038 -0.10340 0.39492
 C1317 C 0.49840 0.53182 0.29810
 C1318 C 0.49832 0.49979 0.28037
 C1319 C 0.49842 0.46772 0.29811
 C1320 C 0.49868 0.46763 0.33354
 C1321 C 0.49905 0.50008 0.14722
 C1322 C 0.49865 0.53183 0.33353
 C1323 C 0.49833 0.49985 0.24395
 C1324 C 0.49846 0.49993 0.21343
 C1325 C 0.49873 0.50002 0.17773
 C1326 C 0.49886 0.49971 0.35168
 H1327 H 0.49832 0.55678 0.28453
 H1328 H 0.49837 0.44279 0.28455
 H1329 H 0.49880 0.44244 0.34667
 H1330 H 0.49875 0.55700 0.34664
 C1331 C 0.75142 0.71823 0.95190
 C1332 C 0.75151 0.75023 0.96967
 C1333 C 0.75135 0.78233 0.95200
 C1334 C 0.75104 0.78249 0.91657
 C1335 C 0.75105 0.75029 1.10278
 C1336 C 0.75111 0.71829 0.91647
 C1337 C 0.75157 0.75015 1.00607
 C1338 C 0.75151 0.75014 1.03659
 C1339 C 0.75131 0.75019 1.07228
 C1340 C 0.75086 0.75044 0.89838
 H1341 H 0.75154 0.69325 0.96542
 H1342 H 0.75142 0.80724 0.96559
 H1343 H 0.75088 0.80771 0.90349
 H1344 H 0.75100 0.69315 0.90330
 C1345 C 0.66421 0.63038 0.13671
 C1346 C 0.64027 0.63942 0.14153
 C1347 C 0.63413 0.66505 0.16559
 C1348 C 0.65188 0.68195 0.18447
 C1349 C 0.57359 0.57648 0.06985
 C1350 C 0.68200 0.64722 0.15552
 C1351 C 0.62205 0.62258 0.12158
 C1352 C 0.60680 0.60838 0.10491
 C1353 C 0.58893 0.59143 0.08570
 C1354 C 0.67608 0.67343 0.17949
 H1355 H 0.66916 0.61051 0.11819
 H1356 H 0.61564 0.67221 0.16956
 H1357 H 0.64665 0.70202 0.20260
 H1358 H 0.70040 0.63998 0.15097
 C1359 C 0.86614 0.83224 0.16165
 C1360 C 0.86017 0.85735 0.13693
 C1361 C 0.83622 0.86572 0.13119
 C1362 C 0.81829 0.84907 0.15001
 C1363 C 0.92743 0.92283 0.06789
 C1364 C 0.84824 0.81553 0.18053
 C1365 C 0.87860 0.87473 0.11763
 C1366 C 0.89400 0.88954 0.10162
 C1367 C 0.91202 0.90727 0.08319
 C1368 C 0.82406 0.82374 0.17494
 H1369 H 0.88462 0.82556 0.16633
 H1370 H 0.83138 0.88515 0.11215
 H1371 H 0.79991 0.85604 0.14495
 H1372 H 0.85338 0.79611 0.19938
 C1373 C 0.86603 0.66946 0.16190
 C1374 C 0.85997 0.64416 0.13749
 C1375 C 0.83602 0.63557 0.13210
 C1376 C 0.81817 0.65226 0.15094
 C1377 C 0.92674 0.57820 0.06842
 C1378 C 0.84820 0.68621 0.18081
 C1379 C 0.87829 0.62673 0.11817
 C1380 C 0.89356 0.61181 0.10212
 C1381 C 0.91143 0.59391 0.08368
 C1382 C 0.82403 0.67782 0.17555
 H1383 H 0.88452 0.67627 0.16630
 H1384 H 0.83115 0.61597 0.11330
 H1385 H 0.79979 0.64515 0.14615
 H1386 H 0.85338 0.70582 0.19942
 C1387 C 0.66373 0.86997 0.13508
 C1388 C 0.63979 0.86108 0.14025
 C1389 C 0.63379 0.83577 0.16478
 C1390 C 0.65164 0.81911 0.18376
 C1391 C 0.57261 0.92374 0.06861
 C1392 C 0.68162 0.85336 0.15401
 C1393 C 0.62142 0.87778 0.12027
 C1394 C 0.60605 0.89188 0.10362
 C1395 C 0.58803 0.90878 0.08445
 C1396 C 0.67583 0.82752 0.17847
 H1397 H 0.66860 0.88957 0.11621
 H1398 H 0.61532 0.82870 0.16906
 H1399 H 0.64648 0.79933 0.20226
 H1400 H 0.70000 0.86051 0.14917
 C1401 C -0.08580 0.62171 0.38803
 C1402 C -0.10983 0.61398 0.39403
 C1403 C -0.11597 0.58865 0.41848
 C1404 C -0.09817 0.57088 0.43662
 C1405 C -0.17665 0.67858 0.32343
 C1406 C -0.06798 0.60400 0.40612
 C1407 C -0.12812 0.63171 0.37478
 C1408 C -0.14340 0.64649 0.35853
 C1409 C -0.16130 0.66378 0.33951
 C1410 C -0.07392 0.57819 0.43053
 H1411 H -0.08083 0.64126 0.36918
 H1412 H -0.13451 0.58245 0.42334
 H1413 H -0.10344 0.55119 0.45515
 H1414 H -0.04954 0.61032 0.40069
 C1415 C 0.61592 -0.08515 0.41582
 C1416 C 0.60981 -0.11001 0.39103
 C1417 C 0.58585 -0.11847 0.38556
 C1418 C 0.56802 -0.10182 0.40448
 C1419 C 0.67664 -0.17265 0.31935
 C1420 C 0.59813 -0.06845 0.43480
 C1421 C 0.62808 -0.12670 0.37104
 C1422 C 0.64337 -0.14082 0.35437
 C1423 C 0.66128 -0.15771 0.33518
 C1424 C 0.57393 -0.07640 0.42920
 H1425 H 0.63443 -0.07847 0.42028
 H1426 H 0.58094 -0.13773 0.36646
 H1427 H 0.54961 -0.10858 0.39942
 H1428 H 0.60335 -0.04899 0.45353
 C1429 C 0.61608 0.58586 0.41598
 C1430 C 0.60996 0.61107 0.39144
 C1431 C 0.58599 0.61954 0.38606
 C1432 C 0.56816 0.60261 0.40484
 C1433 C 0.67672 0.67472 0.32004
 C1434 C 0.59829 0.56887 0.43481
 C1435 C 0.62824 0.62809 0.37160
 C1436 C 0.64350 0.64248 0.35502
 C1437 C 0.66138 0.65963 0.33588
 C1438 C 0.57408 0.57688 0.42932
 H1439 H 0.63460 0.57913 0.42038
 H1440 H 0.58105 0.63906 0.36717
 H1441 H 0.54975 0.60944 0.39985
 H1442 H 0.60352 0.54918 0.45335
 C1443 C -0.08607 -0.12022 0.38749
 C1444 C -0.11006 -0.11228 0.39340
 C1445 C -0.11620 -0.08691 0.41773
 C1446 C -0.09840 -0.06926 0.43585
 C1447 C -0.17684 -0.17626 0.32282
 C1448 C -0.06823 -0.10263 0.40556
 C1449 C -0.12834 -0.12980 0.37415
 C1450 C -0.14362 -0.14442 0.35788
 C1451 C -0.16150 -0.16154 0.33887
 C1452 C -0.07417 -0.07675 0.42984
 H1453 H -0.08113 -0.13983 0.36872
 H1454 H -0.13473 -0.08057 0.42250
 H1455 H -0.10364 -0.04950 0.45429
 H1456 H -0.04981 -0.10908 0.40021
 C1457 C 0.00068 -0.03114 0.70241
 C1458 C 0.00078 0.00083 0.72029
 C1459 C 0.00068 0.03290 0.70247
 C1460 C 0.00046 0.03303 0.66696
 C1461 C 0.00092 0.00022 0.85404
 C1462 C 0.00046 -0.03110 0.66691
 C1463 C 0.00090 0.00071 0.75689
 C1464 C 0.00096 0.00055 0.78752
 C1465 C 0.00097 0.00036 0.82340
 C1466 C 0.00033 0.00100 0.64869
 H1467 H 0.00075 -0.05614 0.71591
 H1468 H 0.00075 0.05782 0.71603
 H1469 H 0.00038 0.05823 0.65386
 H1470 H 0.00038 -0.05625 0.65377
 C1471 C 0.25131 0.28130 0.54844
 C1472 C 0.25091 0.24931 0.53060
 C1473 C 0.25048 0.21727 0.54845
 C1474 C 0.25039 0.21718 0.58395
 C1475 C 0.25046 0.24979 0.39691
 C1476 C 0.25122 0.28131 0.58394
 C1477 C 0.25087 0.24939 0.49402
 C1478 C 0.25078 0.24950 0.46340
 C1479 C 0.25063 0.24966 0.42753
 C1480 C 0.25074 0.24923 0.60218
 H1481 H 0.25165 0.30628 0.53491
 H1482 H 0.25016 0.19233 0.53491
 H1483 H 0.25000 0.19200 0.59708
 H1484 H 0.25151 0.30647 0.59705
 C1485 C 0.16404 0.12959 0.63732
 C1486 C 0.14003 0.13619 0.64455
 C1487 C 0.13396 0.15999 0.67033
 C1488 C 0.15181 0.17748 0.68854
 C1489 C 0.07305 0.07329 0.57322
 C1490 C 0.18192 0.14701 0.65548
 C1491 C 0.12167 0.11895 0.62512
 C1492 C 0.10635 0.10460 0.60869
 C1493 C 0.08842 0.08778 0.58945
 C1494 C 0.17603 0.17140 0.68116
 H1495 H 0.16895 0.11120 0.61743
 H1496 H 0.11542 0.16527 0.67617
 H1497 H 0.14660 0.19600 0.70814
 H1498 H 0.20034 0.14168 0.64904
 C1499 C 0.41398 0.38412 0.61775
 C1500 C 0.38997 0.39038 0.61031
 C1501 C 0.38386 0.41441 0.58469
 C1502 C 0.40169 0.43214 0.56656
 C1503 C 0.32325 0.32298 0.67855
 C1504 C 0.43183 0.40178 0.59968
 C1505 C 0.37166 0.37207 0.62898
 C1506 C 0.35640 0.35662 0.64468
 C1507 C 0.33856 0.33847 0.66302
 C1508 C 0.42592 0.42601 0.57383
 H1509 H 0.41891 0.36559 0.63754
 H1510 H 0.36532 0.41945 0.57873
 H1511 H 0.39647 0.45059 0.54688
 H1512 H 0.45025 0.39643 0.60605
 C1513 C 0.41410 0.11526 0.61838
 C1514 C 0.39014 0.10993 0.61010
 C1515 C 0.38407 0.08704 0.58360
 C1516 C 0.40190 0.06946 0.56544
 C1517 C 0.32327 0.17620 0.67856
 C1518 C 0.43196 0.09776 0.60027
 C1519 C 0.37181 0.12797 0.62884
 C1520 C 0.35652 0.14314 0.64459
 C1521 C 0.33862 0.16096 0.66298
 C1522 C 0.42609 0.07460 0.57358
 H1523 H 0.41898 0.13293 0.63886
 H1524 H 0.36555 0.08275 0.57700
 H1525 H 0.39672 0.05188 0.54506
 H1526 H 0.45036 0.10230 0.60731
 C1527 C 0.08585 0.38702 0.62080
 C1528 C 0.10986 0.39291 0.61309
 C1529 C 0.11598 0.41575 0.58648
 C1530 C 0.09817 0.43270 0.56769
 C1531 C 0.17668 0.32658 0.68201
 C1532 C 0.06800 0.40391 0.60207
 C1533 C 0.12818 0.37529 0.63234
 C1534 C 0.14346 0.36026 0.64834
 C1535 C 0.16135 0.34230 0.66675
 C1536 C 0.07393 0.42700 0.57526
 H1537 H 0.08090 0.36937 0.64132
 H1538 H 0.13453 0.42045 0.58025
 H1539 H 0.10341 0.45027 0.54727
 H1540 H 0.04957 0.39895 0.60872
 C1541 C 0.33618 0.13271 0.86790
 C1542 C 0.36017 0.13974 0.86093
 C1543 C 0.36616 0.16458 0.83596
 C1544 C 0.34825 0.18230 0.81801
 C1545 C 0.42753 0.07241 0.92805
 C1546 C 0.31823 0.15037 0.85000
 C1547 C 0.37862 0.12141 0.87935
 C1548 C 0.39403 0.10599 0.89476
 C1549 C 0.41209 0.08788 0.91276
 C1550 C 0.32403 0.17539 0.82477
 H1551 H 0.33132 0.11355 0.88718
 H1552 H 0.38468 0.17026 0.83036
 H1553 H 0.35341 0.20140 0.79886
 H1554 H 0.29983 0.14440 0.85598
 C1555 C 0.16387 0.37103 0.86254
 C1556 C 0.13990 0.36321 0.85643
 C1557 C 0.13382 0.33776 0.83219
 C1558 C 0.15167 0.31989 0.81432
 C1559 C 0.07301 0.42784 0.92628
 C1560 C 0.18175 0.35322 0.84473
 C1561 C 0.12157 0.38094 0.87543
 C1562 C 0.10627 0.39573 0.89151
 C1563 C 0.08836 0.41301 0.91034
 C1564 C 0.17588 0.32726 0.82052
 H1565 H 0.16876 0.39070 0.88127
 H1566 H 0.11529 0.33152 0.82728
 H1567 H 0.14648 0.30008 0.79592
 H1568 H 0.20017 0.35958 0.85020
 C1569 C 0.16369 0.12822 0.86357
 C1570 C 0.13971 0.13512 0.85644
 C1571 C 0.13374 0.15960 0.83116
 C1572 C 0.15167 0.17742 0.81332
 C1573 C 0.07236 0.07086 0.92628
 C1574 C 0.18165 0.14598 0.84578
 C1575 C 0.12126 0.11746 0.87543
 C1576 C 0.10584 0.10278 0.89149
 C1577 C 0.08779 0.08561 0.91032
 C1578 C 0.17587 0.17100 0.82056
 H1579 H 0.16852 0.10931 0.88309
 H1580 H 0.11523 0.16513 0.82541
 H1581 H 0.14653 0.19644 0.79409
 H1582 H 0.20005 0.14037 0.85210
 C1583 C 0.33574 0.36591 0.86797
 C1584 C 0.35976 0.35908 0.86101
 C1585 C 0.36587 0.33439 0.83603
 C1586 C 0.34806 0.31662 0.81802
 C1587 C 0.42674 0.42667 0.92825
 C1588 C 0.31789 0.34820 0.85002
 C1589 C 0.37810 0.37748 0.87948
 C1590 C 0.39341 0.39297 0.89493
 C1591 C 0.41135 0.41116 0.91297
 C1592 C 0.32382 0.32335 0.82476
 H1593 H 0.33081 0.38495 0.88727
 H1594 H 0.38442 0.32888 0.83045
 H1595 H 0.35329 0.29765 0.79884
 H1596 H 0.29946 0.35402 0.85598
 C1597 C 0.49882 -0.03204 0.70216
 C1598 C 0.49822 -0.00010 0.72003
 C1599 C 0.49772 0.03203 0.70239
 C1600 C 0.49793 0.03227 0.66693
 C1601 C 0.49933 -0.00124 0.85325
 C1602 C 0.49903 -0.03190 0.66673
 C1603 C 0.49833 -0.00035 0.75646
 C1604 C 0.49855 -0.00065 0.78700
 C1605 C 0.49892 -0.00101 0.82272
 C1606 C 0.49865 0.00028 0.64867
 H1607 H 0.49922 -0.05705 0.71563
 H1608 H 0.49725 0.05690 0.71603
 H1609 H 0.49757 0.05750 0.65388
 H1610 H 0.49958 -0.05700 0.65353
 C1611 C 0.75081 0.28081 0.54848
 C1612 C 0.75130 0.24872 0.53086
 C1613 C 0.75148 0.21673 0.54875
 C1614 C 0.75111 0.21679 0.58420
 C1615 C 0.75140 0.24876 0.39761
 C1616 C 0.75045 0.28096 0.58393
 C1617 C 0.75149 0.24863 0.49442
 C1618 C 0.75155 0.24863 0.46388
 C1619 C 0.75152 0.24868 0.42815
 C1620 C 0.75056 0.24893 0.60222
 H1621 H 0.75067 0.30571 0.53483
 H1622 H 0.75185 0.19174 0.53530
 H1623 H 0.75125 0.19165 0.59742
 H1624 H 0.75004 0.30618 0.59694
 C1625 C 0.66390 0.13099 0.63575
 C1626 C 0.63990 0.13814 0.64245
 C1627 C 0.63373 0.16163 0.66842
 C1628 C 0.65151 0.17838 0.68733
 C1629 C 0.57323 0.07619 0.57025
 C1630 C 0.68172 0.14767 0.65460
 C1631 C 0.62164 0.12160 0.62242
 C1632 C 0.60640 0.10764 0.60562
 C1633 C 0.58855 0.09096 0.58625
 C1634 C 0.67575 0.17182 0.68044
 H1635 H 0.66885 0.11278 0.61573
 H1636 H 0.61518 0.16726 0.67385
 H1637 H 0.64626 0.19676 0.70702
 H1638 H 0.70016 0.14201 0.64854
 C1639 C -0.08623 0.37991 0.61401
 C1640 C -0.11022 0.38636 0.60656
 C1641 C -0.11621 0.41041 0.58090
 C1642 C -0.09831 0.42824 0.56301
 C1643 C -0.17737 0.32205 0.67682
 C1644 C -0.06829 0.39768 0.59618
 C1645 C -0.12865 0.36870 0.62562
 C1646 C -0.14401 0.35400 0.64177
 C1647 C -0.16199 0.33680 0.66074
 C1648 C -0.07410 0.42227 0.57058
 H1649 H -0.08138 0.36135 0.63382
 H1650 H -0.13472 0.41559 0.57489
 H1651 H -0.10346 0.44690 0.54347
 H1652 H -0.04989 0.39242 0.60276
 C1653 C 0.86564 0.16625 0.66453
 C1654 C 0.85957 0.14358 0.63786
 C1655 C 0.83559 0.13738 0.63029
 C1656 C 0.81770 0.15384 0.64925
 C1657 C 0.92651 0.07843 0.56849
 C1658 C 0.84778 0.18279 0.68354
 C1659 C 0.87792 0.12639 0.61842
 C1660 C 0.89324 0.11168 0.60229
 C1661 C 0.91116 0.09401 0.58378
 C1662 C 0.82357 0.17680 0.67611
 H1663 H 0.88417 0.17116 0.67063
 H1664 H 0.83071 0.11983 0.60972
 H1665 H 0.79928 0.14869 0.64271
 H1666 H 0.85297 0.20027 0.70400
 C1667 C 0.58550 0.38075 0.61505
 C1668 C 0.60953 0.38796 0.60861
 C1669 C 0.61577 0.41185 0.58294
 C1670 C 0.59804 0.42888 0.56408
 C1671 C 0.67604 0.32493 0.68069
 C1672 C 0.56774 0.39771 0.59624
 C1673 C 0.62773 0.37106 0.62860
 C1674 C 0.64292 0.35682 0.64536
 C1675 C 0.66073 0.33985 0.66471
 C1676 C 0.57378 0.42222 0.57069
 H1677 H 0.58047 0.36224 0.63483
 H1678 H 0.63434 0.41756 0.57770
 H1679 H 0.60336 0.44755 0.54462
 H1680 H 0.54928 0.39195 0.60211
 C1681 C 0.83608 0.13635 0.86972
 C1682 C 0.86001 0.14352 0.86254
 C1683 C 0.86592 0.16728 0.83662
 C1684 C 0.84795 0.18389 0.81792
 C1685 C 0.92746 0.07773 0.93016
 C1686 C 0.81807 0.15291 0.85108
 C1687 C 0.87849 0.12616 0.88153
 C1688 C 0.89395 0.11131 0.89724
 C1689 C 0.91202 0.09346 0.91524
 C1690 C 0.82379 0.17689 0.82492
 H1691 H 0.83133 0.11795 0.88972
 H1692 H 0.88441 0.17295 0.83084
 H1693 H 0.85302 0.20223 0.79805
 H1694 H 0.79969 0.14696 0.85725
 C1695 C 0.66371 0.36881 0.86447
 C1696 C 0.63977 0.36009 0.85928
 C1697 C 0.63362 0.33487 0.83487
 C1698 C 0.65138 0.31802 0.81597
 C1699 C 0.57323 0.42333 0.93073
 C1700 C 0.68151 0.35202 0.84563
 C1701 C 0.62156 0.37690 0.87919
 C1702 C 0.60633 0.39115 0.89582
 C1703 C 0.58851 0.40822 0.91495
 C1704 C 0.67557 0.32623 0.82130
 H1705 H 0.66863 0.38837 0.88329
 H1706 H 0.61511 0.32800 0.83063
 H1707 H 0.64616 0.29828 0.79753
 H1708 H 0.69992 0.35898 0.85047
 C1709 C 0.66372 0.12967 0.86597
 C1710 C 0.63967 0.13716 0.85983
 C1711 C 0.63355 0.16161 0.83456
 C1712 C 0.65135 0.17876 0.81580
 C1713 C 0.57266 0.07295 0.93110
 C1714 C 0.68156 0.14676 0.84726
 C1715 C 0.62133 0.11991 0.87960
 C1716 C 0.60601 0.10539 0.89613
 C1717 C 0.58805 0.08810 0.91525
 C1718 C 0.67563 0.17172 0.82203
 H1719 H 0.66872 0.11078 0.88541
 H1720 H 0.61501 0.16762 0.82950
 H1721 H 0.64608 0.19779 0.79665
 H1722 H 0.70000 0.14068 0.85287
 C1723 C 0.83542 0.36423 0.86900
 C1724 C 0.85943 0.35676 0.86261
 C1725 C 0.86553 0.33232 0.83738
 C1726 C 0.84771 0.31539 0.81864
 C1727 C 0.92642 0.42330 0.93088
 C1728 C 0.81757 0.34735 0.85032
 C1729 C 0.87778 0.37444 0.88172
 C1730 C 0.89310 0.38951 0.89757
 C1731 C 0.91105 0.40754 0.91579
 C1732 C 0.82348 0.32271 0.82486
 H1733 H 0.83049 0.38312 0.88844
 H1734 H 0.88407 0.32636 0.83219
 H1735 H 0.85294 0.29652 0.79936
 H1736 H 0.79914 0.35360 0.85591
 C1737 C 0.00101 0.46813 0.70360
 C1738 C 0.00086 0.50015 0.72143
 C1739 C 0.00064 0.53217 0.70353
 C1740 C 0.00053 0.53222 0.66801
 C1741 C 0.00042 0.50038 0.85525
 C1742 C 0.00090 0.46809 0.66808
 C1743 C 0.00083 0.50017 0.75805
 C1744 C 0.00075 0.50022 0.78869
 C1745 C 0.00060 0.50031 0.82460
 C1746 C 0.00062 0.50016 0.64980
 H1747 H 0.00119 0.44317 0.71715
 H1748 H 0.00052 0.55713 0.71703
 H1749 H 0.00033 0.55740 0.65487
 H1750 H 0.00100 0.44292 0.65498
 C1751 C 0.25175 0.78352 0.54793
 C1752 C 0.25117 0.75155 0.53010
 C1753 C 0.25043 0.71946 0.54778
 C1754 C 0.25023 0.71928 0.58323
 C1755 C 0.25087 0.75168 0.39685
 C1756 C 0.25154 0.78344 0.58338
 C1757 C 0.25121 0.75167 0.49366
 C1758 C 0.25117 0.75173 0.46312
 C1759 C 0.25105 0.75173 0.42739
 C1760 C 0.25075 0.75129 0.60146
 H1761 H 0.25233 0.80850 0.53443
 H1762 H 0.24997 0.69457 0.53417
 H1763 H 0.24960 0.69407 0.59629
 H1764 H 0.25199 0.80856 0.59656
 C1765 C 0.16406 0.63008 0.63750
 C1766 C 0.14005 0.63700 0.64438
 C1767 C 0.13391 0.66152 0.66950
 C1768 C 0.15172 0.67937 0.68743
 C1769 C 0.07334 0.57264 0.57399
 C1770 C 0.18190 0.64787 0.65537
 C1771 C 0.12176 0.61933 0.62526
 C1772 C 0.10651 0.60460 0.60905
 C1773 C 0.08865 0.58739 0.59005
 C1774 C 0.17595 0.67293 0.68042
 H1775 H 0.16900 0.61115 0.61810
 H1776 H 0.11536 0.66705 0.67504
 H1777 H 0.14648 0.69843 0.70654
 H1778 H 0.20033 0.64224 0.64924
 C1779 C 0.36572 0.83775 0.66684
 C1780 C 0.35963 0.86087 0.64049
 C1781 C 0.33567 0.86628 0.63222
 C1782 C 0.31782 0.84861 0.65020
 C1783 C 0.42650 0.92751 0.57246
 C1784 C 0.34790 0.82001 0.68488
 C1785 C 0.37793 0.87906 0.62187
 C1786 C 0.39323 0.89434 0.60622
 C1787 C 0.41113 0.91224 0.58795
 C1788 C 0.32371 0.82523 0.67676
 H1789 H 0.38424 0.83341 0.67342
 H1790 H 0.33079 0.88413 0.61183
 H1791 H 0.29942 0.85321 0.64318
 H1792 H 0.35308 0.80225 0.70517
 C1793 C 0.41409 0.61600 0.61745
 C1794 C 0.39009 0.61003 0.60978
 C1795 C 0.38400 0.58614 0.58410
 C1796 C 0.40183 0.56828 0.56613
 C1797 C 0.32321 0.67762 0.67744
 C1798 C 0.43195 0.59821 0.59954
 C1799 C 0.37175 0.62846 0.62827
 C1800 C 0.35646 0.64397 0.64381
 C1801 C 0.33856 0.66214 0.66200
 C1802 C 0.42605 0.57413 0.57362
 H1803 H 0.41900 0.63442 0.63730
 H1804 H 0.36546 0.58131 0.57795
 H1805 H 0.39662 0.54995 0.54638
 H1806 H 0.45037 0.60334 0.60609
 C1807 C 0.16384 0.87197 0.63748
 C1808 C 0.13984 0.86476 0.64418
 C1809 C 0.13376 0.84012 0.66928
 C1810 C 0.15160 0.82242 0.68734
 C1811 C 0.07296 0.92852 0.57331
 C1812 C 0.18172 0.85433 0.65549
 C1813 C 0.12150 0.88225 0.62491
 C1814 C 0.10621 0.89681 0.60859
 C1815 C 0.08830 0.91386 0.58946
 C1816 C 0.17583 0.82913 0.68050
 H1817 H 0.16875 0.89100 0.61812
 H1818 H 0.11522 0.83436 0.67468
 H1819 H 0.14639 0.80325 0.70640
 H1820 H 0.20014 0.86017 0.64949
 C1821 C 0.33590 0.63439 0.86691
 C1822 C 0.35991 0.64140 0.86004
 C1823 C 0.36597 0.66618 0.83506
 C1824 C 0.34812 0.68387 0.81698
 C1825 C 0.42695 0.57406 0.92773
 C1826 C 0.31802 0.65202 0.84890
 C1827 C 0.37829 0.62309 0.87860
 C1828 C 0.39362 0.60767 0.89416
 C1829 C 0.41157 0.58955 0.91233
 C1830 C 0.32389 0.67698 0.82365
 H1831 H 0.33100 0.61528 0.88621
 H1832 H 0.38451 0.67183 0.82953
 H1833 H 0.35332 0.70293 0.79782
 H1834 H 0.29959 0.64607 0.85480
 C1835 C 0.16347 0.87124 0.86311
 C1836 C 0.13947 0.86430 0.85613
 C1837 C 0.13350 0.83984 0.83088
 C1838 C 0.15142 0.82213 0.81292
 C1839 C 0.07223 0.92869 0.92620
 C1840 C 0.18142 0.85360 0.84521
 C1841 C 0.12102 0.88193 0.87520
 C1842 C 0.10563 0.89663 0.89131
 C1843 C 0.08763 0.91388 0.91020
 C1844 C 0.17564 0.82864 0.82000
 H1845 H 0.16831 0.89012 0.88259
 H1846 H 0.11499 0.83425 0.82523
 H1847 H 0.14628 0.80315 0.79371
 H1848 H 0.19982 0.85928 0.85141
 C1849 C 0.16396 0.62950 0.86209
 C1850 C 0.13998 0.63650 0.85516
 C1851 C 0.13389 0.66107 0.83003
 C1852 C 0.15174 0.67894 0.81214
 C1853 C 0.07307 0.57272 0.92571
 C1854 C 0.18184 0.64730 0.84426
 C1855 C 0.12165 0.61894 0.87430
 C1856 C 0.10633 0.60435 0.89053
 C1857 C 0.08842 0.58733 0.90958
 C1858 C 0.17595 0.67245 0.81923
 H1859 H 0.16884 0.61052 0.88151
 H1860 H 0.11536 0.66665 0.82448
 H1861 H 0.14654 0.69806 0.79304
 H1862 H 0.20026 0.64165 0.85042
 C1863 C 0.33597 0.86605 0.86777
 C1864 C 0.35995 0.85968 0.86014
 C1865 C 0.36592 0.83585 0.83434
 C1866 C 0.34801 0.81842 0.81624
 C1867 C 0.42739 0.92555 0.92797
 C1868 C 0.31802 0.84867 0.84972
 C1869 C 0.37840 0.87762 0.87876
 C1870 C 0.39384 0.89269 0.89435
 C1871 C 0.41192 0.91039 0.91254
 C1872 C 0.32381 0.82462 0.82370
 H1873 H 0.33115 0.88444 0.88770
 H1874 H 0.38444 0.83072 0.82822
 H1875 H 0.35315 0.80010 0.79643
 H1876 H 0.29962 0.85406 0.85624
 C1877 C 0.49881 0.46801 0.70230
 C1878 C 0.49822 0.50006 0.71998
 C1879 C 0.49779 0.53208 0.70218
 C1880 C 0.49804 0.53211 0.66674
 C1881 C 0.49901 0.50028 0.85318
 C1882 C 0.49906 0.46794 0.66686
 C1883 C 0.49826 0.50010 0.75641
 C1884 C 0.49841 0.50015 0.78694
 C1885 C 0.49869 0.50022 0.82266
 C1886 C 0.49875 0.50002 0.64865
 H1887 H 0.49915 0.44308 0.71591
 H1888 H 0.49733 0.55703 0.71569
 H1889 H 0.49774 0.55728 0.65357
 H1890 H 0.49958 0.44276 0.65378
 C1891 C 0.75107 0.78366 0.54786
 C1892 C 0.75124 0.75166 0.53006
 C1893 C 0.75119 0.71957 0.54777
 C1894 C 0.75092 0.71942 0.58321
 C1895 C 0.75089 0.75161 0.39681
 C1896 C 0.75079 0.78360 0.58331
 C1897 C 0.75130 0.75174 0.49362
 C1898 C 0.75126 0.75175 0.46308
 C1899 C 0.75110 0.75170 0.42734
 C1900 C 0.75067 0.75146 0.60142
 H1901 H 0.75110 0.80864 0.53434
 H1902 H 0.75132 0.69466 0.53418
 H1903 H 0.75085 0.69420 0.59630
 H1904 H 0.75063 0.80874 0.59647
 C1905 C 0.66388 0.63204 0.63537
 C1906 C 0.63987 0.63969 0.64150
 C1907 C 0.63370 0.66408 0.66673
 C1908 C 0.65148 0.68109 0.68550
 C1909 C 0.57331 0.57603 0.57006
 C1910 C 0.68169 0.64898 0.65407
 C1911 C 0.62162 0.62268 0.62170
 C1912 C 0.60641 0.60828 0.60510
 C1913 C 0.58860 0.59111 0.58592
 C1914 C 0.67572 0.67392 0.67923
 H1915 H 0.66886 0.61317 0.61594
 H1916 H 0.61515 0.67015 0.67173
 H1917 H 0.64621 0.70011 0.70462
 H1918 H 0.70013 0.64282 0.64848
 C1919 C 0.86557 0.83402 0.66320
 C1920 C 0.85948 0.85772 0.63730
 C1921 C 0.83549 0.86468 0.63039
 C1922 C 0.81762 0.84800 0.64924
 C1923 C 0.92644 0.92368 0.56852
 C1924 C 0.84774 0.81728 0.68210
 C1925 C 0.87782 0.87517 0.61802
 C1926 C 0.89314 0.89009 0.60204
 C1927 C 0.91108 0.90798 0.58370
 C1928 C 0.82352 0.82407 0.67535
 H1929 H 0.88411 0.82849 0.66878
 H1930 H 0.83058 0.88302 0.61042
 H1931 H 0.79919 0.85380 0.64324
 H1932 H 0.85295 0.79899 0.70194
 C1933 C 0.86581 0.66826 0.66339
 C1934 C 0.85977 0.64456 0.63752
 C1935 C 0.83579 0.63773 0.63046
 C1936 C 0.81787 0.65449 0.64914
 C1937 C 0.92681 0.57801 0.56939
 C1938 C 0.84792 0.68509 0.68214
 C1939 C 0.87816 0.62695 0.61845
 C1940 C 0.89350 0.61189 0.60263
 C1941 C 0.91145 0.59383 0.58446
 C1942 C 0.82371 0.67839 0.67525
 H1943 H 0.88433 0.67371 0.66910
 H1944 H 0.83092 0.61940 0.61051
 H1945 H 0.79946 0.64875 0.64304
 H1946 H 0.85309 0.70335 0.70197
 C1947 C 0.66356 0.86929 0.63544
 C1948 C 0.63962 0.86134 0.64165
 C1949 C 0.63354 0.83713 0.66710
 C1950 C 0.65139 0.82049 0.68600
 C1951 C 0.57289 0.92366 0.56985
 C1952 C 0.68145 0.85271 0.65427
 C1953 C 0.62132 0.87787 0.62170
 C1954 C 0.60604 0.89188 0.60498
 C1955 C 0.58819 0.90870 0.58574
 C1956 C 0.67558 0.82787 0.67961
 H1957 H 0.66843 0.88807 0.61582
 H1958 H 0.61503 0.83089 0.67214
 H1959 H 0.64622 0.80153 0.70527
 H1960 H 0.69985 0.85901 0.64861
 C1961 C 0.83579 0.63707 0.86871
 C1962 C 0.85977 0.64417 0.86184
 C1963 C 0.86584 0.66807 0.83609
 C1964 C 0.84798 0.68489 0.81730
 C1965 C 0.92662 0.57795 0.93053
 C1966 C 0.81790 0.65381 0.84998
 C1967 C 0.87812 0.62665 0.88103
 C1968 C 0.89341 0.61166 0.89698
 C1969 C 0.91130 0.59369 0.91532
 C1970 C 0.82377 0.67795 0.82402
 H1971 H 0.83090 0.61857 0.88857
 H1972 H 0.88437 0.67372 0.83054
 H1973 H 0.85317 0.70334 0.79758
 H1974 H 0.79949 0.64788 0.85595
 C1975 C 0.66341 0.86908 0.86526
 C1976 C 0.63942 0.86121 0.85922
 C1977 C 0.63339 0.83689 0.83387
 C1978 C 0.65125 0.82018 0.81494
 C1979 C 0.57240 0.92398 0.93115
 C1980 C 0.68131 0.85243 0.84638
 C1981 C 0.62104 0.87794 0.87919
 C1982 C 0.60571 0.89208 0.89589
 C1983 C 0.58776 0.90901 0.91518
 C1984 C 0.67548 0.82757 0.82110
 H1985 H 0.66831 0.88790 0.88477
 H1986 H 0.61487 0.83063 0.82891
 H1987 H 0.64606 0.80121 0.79575
 H1988 H 0.69972 0.85875 0.85193
 C1989 C 0.66408 0.63124 0.86416
 C1990 C 0.64009 0.63905 0.85815
 C1991 C 0.63390 0.66348 0.83295
 C1992 C 0.65166 0.68046 0.81411
 C1993 C 0.57348 0.57616 0.92999
 C1994 C 0.68187 0.64815 0.84539
 C1995 C 0.62186 0.62222 0.87808
 C1996 C 0.60663 0.60803 0.89479
 C1997 C 0.58879 0.59109 0.91406
 C1998 C 0.67589 0.67320 0.82030
 H1999 H 0.66904 0.61231 0.88359
 H2000 H 0.61535 0.66964 0.82806
 H2001 H 0.64639 0.69957 0.79503
 H2002 H 0.70031 0.64193 0.85090
 C2003 C 0.83583 0.86431 0.86898
 C2004 C 0.85980 0.85728 0.86187
 C2005 C 0.86578 0.83359 0.83597
 C2006 C 0.84786 0.81692 0.81724
 C2007 C 0.92723 0.92278 0.92988
 C2008 C 0.81788 0.84770 0.85031
 C2009 C 0.87825 0.87465 0.88095
 C2010 C 0.89369 0.88946 0.89674
 C2011 C 0.91177 0.90719 0.91486
 C2012 C 0.82366 0.82377 0.82418
 H2013 H 0.83102 0.88265 0.88896
 H2014 H 0.88429 0.82800 0.83023
 H2015 H 0.85299 0.79863 0.79740
 H2016 H 0.79948 0.85354 0.85644
   
