data_POSCAR
  _audit_creation_date              2014-09-24
  _audit_creation_method            'ToBaCCo'
  _symmetry_space_group_name_H-M    'P1'
  _symmetry_Int_Tables_number       1
  _symmetry_cell_setting            triclinic
  loop_
  _symmetry_equiv_pos_as_xyz
 x,y,z
_cell_length_a 71.4097
_cell_length_b 71.4044
_cell_length_c 71.4637
_cell_angle_alpha 89.970600
_cell_angle_beta 89.971000
_cell_angle_gamma 90.031200
loop_
  _atom_site_label
  _atom_site_type_symbol
  _atom_site_fract_x
  _atom_site_fract_y
  _atom_site_fract_z
C1 C 0.36055 0.33646 0.33666
 C2 C 0.35254 0.35249 0.32867
 C3 C 0.33653 0.36051 0.33668
 C4 C 0.32855 0.35251 0.35272
 C5 C 0.33654 0.33648 0.36072
 C6 C 0.35255 0.32848 0.35270
 H7 H 0.35858 0.35853 0.31611
 H8 H 0.31601 0.35857 0.35878
 H9 H 0.35860 0.31592 0.35874
 C10 C 0.36075 0.83661 -0.16411
 C11 C 0.35276 0.82861 -0.14806
 C12 C 0.33673 0.83657 -0.14005
 C13 C 0.32870 0.85258 -0.14805
 C14 C 0.33666 0.86061 -0.16410
 C15 C 0.35271 0.85263 -0.17211
 H16 H 0.35881 0.81607 -0.14197
 H17 H 0.31614 0.85857 -0.14195
 H18 H 0.35874 0.85870 -0.18467
 C19 C 0.86011 0.33689 -0.16392
 C20 C 0.85212 0.32893 -0.14787
 C21 C 0.83613 0.33696 -0.13984
 C22 C 0.82815 0.35299 -0.14783
 C23 C 0.83613 0.36099 -0.16389
 C24 C 0.85213 0.35293 -0.17191
 H25 H 0.85816 0.31637 -0.14183
 H26 H 0.81562 0.35904 -0.14172
 H27 H 0.85821 0.35893 -0.18448
 C28 C 0.86018 0.83677 0.33623
 C29 C 0.85215 0.85276 0.32820
 C30 C 0.83613 0.86080 0.33622
 C31 C 0.82820 0.85283 0.35231
 C32 C 0.83623 0.83683 0.36034
 C33 C 0.85223 0.82882 0.35231
 H34 H 0.85820 0.85874 0.31561
 H35 H 0.81566 0.85885 0.35842
 H36 H 0.85830 0.81630 0.35838
 C37 C 0.63958 0.66359 0.33677
 C38 C 0.64758 0.64756 0.32880
 C39 C 0.66357 0.63953 0.33683
 C40 C 0.67153 0.64752 0.35286
 C41 C 0.66354 0.66355 0.36085
 C42 C 0.64755 0.67157 0.35281
 H43 H 0.64156 0.64153 0.31624
 H44 H 0.68406 0.64145 0.35893
 H45 H 0.64151 0.68413 0.35884
 C46 C 0.63972 0.16320 -0.16375
 C47 C 0.64778 0.14723 -0.17178
 C48 C 0.66384 0.13925 -0.16380
 C49 C 0.67179 0.14725 -0.14775
 C50 C 0.66373 0.16323 -0.13972
 C51 C 0.64769 0.17118 -0.14771
 H52 H 0.64172 0.14122 -0.18434
 H53 H 0.68436 0.14127 -0.14167
 H54 H 0.64159 0.18369 -0.14164
 C55 C 0.13963 0.66309 -0.16375
 C56 C 0.14760 0.64705 -0.17174
 C57 C 0.16363 0.63901 -0.16375
 C58 C 0.17163 0.64702 -0.14772
 C59 C 0.16365 0.66306 -0.13974
 C60 C 0.14764 0.67107 -0.14774
 H61 H 0.14151 0.64105 -0.18428
 H62 H 0.18417 0.64099 -0.14164
 H63 H 0.14161 0.68363 -0.14170
 C64 C 0.13950 0.16336 0.33666
 C65 C 0.14752 0.14735 0.32866
 C66 C 0.16353 0.13933 0.33668
 C67 C 0.17148 0.14731 0.35272
 C68 C 0.16347 0.16332 0.36072
 C69 C 0.14747 0.17133 0.35270
 H70 H 0.14151 0.14132 0.31610
 H71 H 0.18402 0.14126 0.35878
 H72 H 0.14141 0.18387 0.35875
 C73 C 0.63967 0.33648 0.66332
 C74 C 0.64769 0.32849 0.64732
 C75 C 0.66374 0.33648 0.63933
 C76 C 0.67174 0.35251 0.64734
 C77 C 0.66372 0.36051 0.66335
 C78 C 0.64768 0.35250 0.67132
 H79 H 0.64164 0.31594 0.64127
 H80 H 0.68430 0.35855 0.64130
 H81 H 0.64162 0.35855 0.68385
 C82 C 0.63942 0.83665 1.16400
 C83 C 0.64742 0.82871 1.14794
 C84 C 0.66345 0.83672 1.13995
 C85 C 0.67147 0.85272 1.14798
 C86 C 0.66351 0.86069 1.16404
 C87 C 0.64746 0.85266 1.17203
 H88 H 0.64139 0.81617 1.14182
 H89 H 0.68403 0.85875 1.14189
 H90 H 0.64142 0.85868 1.18460
 C91 C 0.13905 0.33627 1.16374
 C92 C 0.14706 0.32829 1.14770
 C93 C 0.16308 0.33632 1.13969
 C94 C 0.17106 0.35236 1.14768
 C95 C 0.16308 0.36034 1.16370
 C96 C 0.14706 0.35232 1.17172
 H97 H 0.14105 0.31573 1.14162
 H98 H 0.18360 0.35842 1.14162
 H99 H 0.14105 0.35839 1.18428
 C100 C 0.13918 0.83601 0.66361
 C101 C 0.14716 0.82806 0.64754
 C102 C 0.16318 0.83606 0.63953
 C103 C 0.17121 0.85206 0.64755
 C104 C 0.16326 0.86003 0.66360
 C105 C 0.14724 0.85202 0.67161
 H106 H 0.14111 0.81552 0.64144
 H107 H 0.18377 0.85811 0.64149
 H108 H 0.14125 0.85809 0.68419
 C109 C 0.36048 0.66366 0.66357
 C110 C 0.35246 0.64764 0.67159
 C111 C 0.33645 0.63960 0.66359
 C112 C 0.32850 0.64756 0.64753
 C113 C 0.33650 0.66358 0.63951
 C114 C 0.35251 0.67161 0.64752
 H115 H 0.35848 0.64162 0.68416
 H116 H 0.31596 0.64149 0.64148
 H117 H 0.35856 0.68416 0.64146
 C118 C 0.36099 0.16392 1.16367
 C119 C 0.35297 0.17191 1.14764
 C120 C 0.33696 0.16389 1.13964
 C121 C 0.32898 0.14784 1.14764
 C122 C 0.33697 0.13983 1.16365
 C123 C 0.35298 0.14785 1.17165
 H124 H 0.35898 0.18448 1.14156
 H125 H 0.31644 0.14177 1.14159
 H126 H 0.35900 0.14176 1.18419
 C127 C 0.86075 0.66391 1.16361
 C128 C 0.85274 0.64785 1.17160
 C129 C 0.83671 0.63984 1.16362
 C130 C 0.82871 0.64784 1.14761
 C131 C 0.83669 0.66388 1.13960
 C132 C 0.85272 0.67190 1.14758
 H133 H 0.85876 0.64176 1.18414
 H134 H 0.81616 0.64178 1.14158
 H135 H 0.85872 0.68447 1.14149
 C136 C 0.86073 0.16349 0.66382
 C137 C 0.85276 0.17143 0.64774
 C138 C 0.83675 0.16340 0.63974
 C139 C 0.82871 0.14741 0.64778
 C140 C 0.83665 0.13944 0.66386
 C141 C 0.85268 0.14747 0.67186
 H142 H 0.85880 0.18396 0.64162
 H143 H 0.81617 0.14137 0.64169
 H144 H 0.85870 0.14145 0.68445
 C145 C 0.33635 0.36064 0.66378
 C146 C 0.32836 0.35263 0.64777
 C147 C 0.33636 0.33662 0.63976
 C148 C 0.35240 0.32864 0.64775
 C149 C 0.36040 0.33664 0.66376
 C150 C 0.35238 0.35265 0.67175
 H151 H 0.31580 0.35867 0.64173
 H152 H 0.35846 0.31610 0.64170
 H153 H 0.35843 0.35871 0.68429
 C154 C 0.33683 0.86069 0.16295
 C155 C 0.32883 0.85267 0.14694
 C156 C 0.33685 0.83666 0.13893
 C157 C 0.35289 0.82869 0.14691
 C158 C 0.36090 0.83669 0.16292
 C159 C 0.35287 0.85270 0.17092
 H160 H 0.31627 0.85870 0.14091
 H161 H 0.35895 0.81615 0.14086
 H162 H 0.35892 0.85876 0.18345
 C163 C 0.83669 0.36070 0.16322
 C164 C 0.82868 0.35271 0.14721
 C165 C 0.83666 0.33669 0.13918
 C166 C 0.85270 0.32869 0.14716
 C167 C 0.86072 0.33667 0.16317
 C168 C 0.85272 0.35269 0.17118
 H169 H 0.81612 0.35876 0.14118
 H170 H 0.85873 0.31615 0.14110
 H171 H 0.85878 0.35872 0.18372
 C172 C 0.83680 0.86114 0.66353
 C173 C 0.82878 0.85314 0.64753
 C174 C 0.83674 0.83710 0.63953
 C175 C 0.85276 0.82908 0.64752
 C176 C 0.86079 0.83707 0.66352
 C177 C 0.85281 0.85311 0.67150
 H178 H 0.81623 0.85920 0.64149
 H179 H 0.85878 0.81652 0.64148
 H180 H 0.85888 0.85916 0.68404
 C181 C 0.66352 0.63974 0.66402
 C182 C 0.67151 0.64774 0.64799
 C183 C 0.66352 0.66377 0.63999
 C184 C 0.64751 0.67177 0.64800
 C185 C 0.63950 0.66378 0.66403
 C186 C 0.64750 0.64775 0.67202
 H187 H 0.68405 0.64169 0.64193
 H188 H 0.64146 0.68432 0.64196
 H189 H 0.64145 0.64170 0.68457
 C190 C 0.66343 0.13899 0.16333
 C191 C 0.64740 0.14700 0.17131
 C192 C 0.63941 0.16303 0.16332
 C193 C 0.64744 0.17103 0.14730
 C194 C 0.66347 0.16304 0.13931
 C195 C 0.67145 0.14700 0.14732
 H196 H 0.64133 0.14095 0.18385
 H197 H 0.64141 0.18359 0.14125
 H198 H 0.68400 0.14096 0.14128
 C199 C 0.16332 0.63943 0.16320
 C200 C 0.17133 0.64743 0.14718
 C201 C 0.16335 0.66344 0.13915
 C202 C 0.14730 0.67143 0.14712
 C203 C 0.13927 0.66345 0.16314
 C204 C 0.14727 0.64743 0.17116
 H205 H 0.18390 0.64139 0.14116
 H206 H 0.14126 0.68397 0.14105
 H207 H 0.14121 0.64139 0.18370
 C208 C 0.16331 0.13890 0.66378
 C209 C 0.17132 0.14692 0.64778
 C210 C 0.16332 0.16294 0.63976
 C211 C 0.14726 0.17090 0.64774
 C212 C 0.13924 0.16288 0.66374
 C213 C 0.14725 0.14687 0.67175
 H214 H 0.18390 0.14090 0.64175
 H215 H 0.14121 0.18344 0.64168
 H216 H 0.14119 0.14080 0.68428
 C217 C 0.33670 0.63959 0.33628
 C218 C 0.35273 0.64762 0.32828
 C219 C 0.36073 0.66365 0.33627
 C220 C 0.35273 0.67163 0.35229
 C221 C 0.33670 0.66361 0.36030
 C222 C 0.32871 0.64759 0.35230
 H223 H 0.35877 0.64158 0.31574
 H224 H 0.35877 0.68418 0.35834
 H225 H 0.31616 0.64152 0.35835
 C226 C 0.33653 0.13908 0.83685
 C227 C 0.32851 0.14710 0.85285
 C228 C 0.33648 0.16316 0.86082
 C229 C 0.35250 0.17117 0.85280
 C230 C 0.36053 0.16316 0.83680
 C231 C 0.35255 0.14710 0.82885
 H232 H 0.31596 0.14105 0.85890
 H233 H 0.35853 0.18374 0.85882
 H234 H 0.35861 0.14105 0.81632
 C235 C 0.83658 0.63966 0.83682
 C236 C 0.85261 0.64767 0.82881
 C237 C 0.86061 0.66372 0.83676
 C238 C 0.85259 0.67174 0.85276
 C239 C 0.83656 0.66375 0.86078
 C240 C 0.82857 0.64770 0.85282
 H241 H 0.85866 0.64160 0.81628
 H242 H 0.85864 0.68431 0.85877
 H243 H 0.81602 0.64165 0.85888
 C244 C 0.83665 0.13899 0.33635
 C245 C 0.85266 0.14702 0.32833
 C246 C 0.86067 0.16305 0.33630
 C247 C 0.85269 0.17102 0.35234
 C248 C 0.83668 0.16301 0.36038
 C249 C 0.82868 0.14698 0.35239
 H250 H 0.85869 0.14099 0.31577
 H251 H 0.85875 0.18357 0.35838
 H252 H 0.81614 0.14091 0.35846
 C253 C 0.66351 0.36024 0.33653
 C254 C 0.64749 0.35223 0.32854
 C255 C 0.63949 0.33618 0.33651
 C256 C 0.64750 0.32817 0.35252
 C257 C 0.66353 0.33617 0.36052
 C258 C 0.67151 0.35222 0.35253
 H259 H 0.64144 0.35829 0.31600
 H260 H 0.64146 0.31560 0.35855
 H261 H 0.68406 0.35828 0.35858
 C262 C 0.66344 0.86124 0.83673
 C263 C 0.64740 0.85325 0.82875
 C264 C 0.63937 0.83722 0.83675
 C265 C 0.64736 0.82922 0.85277
 C266 C 0.66340 0.83720 0.86076
 C267 C 0.67142 0.85323 0.85275
 H268 H 0.64136 0.85930 0.81621
 H269 H 0.64130 0.81667 0.85882
 H270 H 0.68398 0.85926 0.85878
 C271 C 0.16291 0.36037 0.83671
 C272 C 0.17089 0.35234 0.85272
 C273 C 0.16291 0.33627 0.86069
 C274 C 0.14690 0.32827 0.85266
 C275 C 0.13890 0.33628 0.83665
 C276 C 0.14690 0.35235 0.82870
 H277 H 0.18342 0.35840 0.85879
 H278 H 0.14086 0.31569 0.85868
 H279 H 0.14086 0.35841 0.81616
 C280 C 0.16328 0.86038 0.33630
 C281 C 0.14725 0.85239 0.32830
 C282 C 0.13921 0.83636 0.33629
 C283 C 0.14719 0.82836 0.35231
 C284 C 0.16323 0.83634 0.36032
 C285 C 0.17125 0.85236 0.35232
 H286 H 0.14123 0.85845 0.31576
 H287 H 0.14112 0.81581 0.35836
 H288 H 0.18380 0.85840 0.35837
 O289 O 0.27400 0.98172 0.24789
 O290 O 0.24828 1.01819 0.27371
 O291 O 0.24824 0.98166 0.27362
 O292 O 0.27404 1.01825 0.24799
 O293 O 0.25216 1.01833 0.22610
 O294 O 0.22636 0.98173 0.25173
 O295 O 0.22639 1.01826 0.25182
 O296 O 0.25212 0.98180 0.22601
 Cu297 Cu 0.26335 0.99995 0.26301
 Cu298 Cu 0.23705 1.00004 0.23671
 C299 C 0.26736 0.97555 0.23263
 C300 C 0.23304 1.02444 0.26708
 C301 C 0.23299 0.97546 0.26696
 C302 C 0.26741 1.02453 0.23277
 O303 O 0.27342 0.48185 0.74841
 O304 O 0.24768 0.51839 0.77411
 O305 O 0.24765 0.48185 0.77412
 O306 O 0.27344 0.51838 0.74839
 O307 O 0.25156 0.51839 0.72650
 O308 O 0.22577 0.48186 0.75223
 O309 O 0.22580 0.51840 0.75222
 O310 O 0.25154 0.48186 0.72651
 Cu311 Cu 0.26275 0.50012 0.76347
 Cu312 Cu 0.23646 0.50013 0.73716
 C313 C 0.26678 0.47563 0.73316
 C314 C 0.23244 0.52462 0.76746
 C315 C 0.23240 0.47563 0.76747
 C316 C 0.26681 0.52461 0.73314
 O317 O 0.72608 0.01766 0.24806
 O318 O 0.75180 -0.01887 0.27382
 O319 O 0.75183 0.01767 0.27376
 O320 O 0.72604 -0.01888 0.24812
 O321 O 0.74793 -0.01891 0.22621
 O322 O 0.77372 0.01764 0.25186
 O323 O 0.77369 -0.01889 0.25191
 O324 O 0.74796 0.01763 0.22616
 Cu325 Cu 0.73673 -0.00060 0.26315
 Cu326 Cu 0.76303 -0.00064 0.23682
 C327 C 0.73272 0.02387 0.23281
 C328 C 0.76705 -0.02510 0.26717
 C329 C 0.76709 0.02388 0.26710
 C330 C 0.73267 -0.02512 0.23288
 O331 O 0.77395 0.51827 0.75225
 O332 O 0.74827 0.48178 0.72641
 O333 O 0.74823 0.51831 0.72651
 O334 O 0.77398 0.48173 0.75216
 O335 O 0.75205 0.48164 0.77403
 O336 O 0.72631 0.51822 0.74838
 O337 O 0.72634 0.48168 0.74828
 O338 O 0.75203 0.51818 0.77412
 Cu339 Cu 0.76332 0.50003 0.73713
 Cu340 Cu 0.73697 0.49992 0.76341
 C341 C 0.76728 0.52445 0.76749
 C342 C 0.73302 0.47551 0.73303
 C343 C 0.73297 0.52450 0.73316
 C344 C 0.76732 0.47545 0.76738
 O345 O 0.25183 0.48174 0.27381
 O346 O 0.22609 0.51825 0.24805
 O347 O 0.22606 0.48171 0.24813
 O348 O 0.25186 0.51828 0.27374
 O349 O 0.27374 0.51823 0.25183
 O350 O 0.24793 0.48167 0.22621
 O351 O 0.24797 0.51821 0.22614
 O352 O 0.27371 0.48170 0.25190
 Cu353 Cu 0.23675 0.50000 0.26314
 Cu354 Cu 0.26305 0.49995 0.23681
 C355 C 0.26707 0.47550 0.26716
 C356 C 0.23273 0.52445 0.23279
 C357 C 0.23268 0.47546 0.23289
 C358 C 0.26711 0.52449 0.26706
 O359 O 0.77407 0.98249 0.74813
 O360 O 0.74832 1.01902 0.77383
 O361 O 0.74831 0.98249 0.77385
 O362 O 0.77409 1.01903 0.74811
 O363 O 0.75221 1.01902 0.72622
 O364 O 0.72642 0.98249 0.75196
 O365 O 0.72644 1.01902 0.75194
 O366 O 0.75219 0.98249 0.72624
 Cu367 Cu 0.76340 1.00076 0.76319
 Cu368 Cu 0.73711 1.00075 0.73688
 C369 C 0.76743 0.97626 0.73289
 C370 C 0.73307 1.02524 0.76718
 C371 C 0.73306 0.97626 0.76720
 C372 C 0.76746 1.02525 0.73287
 O373 O 0.75202 0.51838 0.22631
 O374 O 0.72627 0.48178 0.25200
 O375 O 0.72628 0.51831 0.25206
 O376 O 0.75201 0.48184 0.22625
 O377 O 0.77392 0.48180 0.24811
 O378 O 0.74819 0.51827 0.27392
 O379 O 0.74818 0.48174 0.27386
 O380 O 0.77393 0.51833 0.24817
 Cu381 Cu 0.73693 0.50008 0.23695
 Cu382 Cu 0.76327 0.50003 0.26322
 C383 C 0.76727 0.52459 0.23295
 C384 C 0.73293 0.47552 0.26722
 C385 C 0.73294 0.52451 0.26731
 C386 C 0.76726 0.47561 0.23287
 O387 O 0.25211 -0.01893 0.77402
 O388 O 0.22629 0.01762 0.74841
 O389 O 0.22633 -0.01891 0.74835
 O390 O 0.25206 0.01761 0.77410
 O391 O 0.27393 0.01770 0.75218
 O392 O 0.24820 -0.01882 0.72643
 O393 O 0.24816 0.01771 0.72649
 O394 O 0.27399 -0.01884 0.75210
 Cu395 Cu 0.23699 -0.00066 0.76343
 Cu396 Cu 0.26328 -0.00055 0.73709
 C397 C 0.26736 -0.02511 0.76734
 C398 C 0.23291 0.02389 0.73317
 C399 C 0.23296 -0.02508 0.73308
 C400 C 0.26729 0.02388 0.76744
 O401 O 0.25178 0.22608 0.98196
 O402 O 0.22601 0.25180 1.01846
 O403 O 0.22595 0.25173 0.98195
 O404 O 0.25185 0.22616 1.01847
 O405 O 0.27368 0.24815 1.01835
 O406 O 0.24778 0.27372 0.98184
 O407 O 0.24784 0.27379 1.01835
 O408 O 0.27360 0.24806 0.98185
 Cu409 Cu 0.23669 0.23673 1.00022
 Cu410 Cu 0.26293 0.26315 1.00009
 C411 C 0.26699 0.23277 0.97569
 C412 C 0.23262 0.26709 1.02462
 C413 C 0.23254 0.26700 0.97568
 C414 C 0.26709 0.23289 1.02463
 O415 O 0.25188 0.72607 0.48160
 O416 O 0.22604 0.75171 0.51811
 O417 O 0.22606 0.75173 0.48161
 O418 O 0.25186 0.72605 0.51811
 O419 O 0.27370 0.74802 0.51811
 O420 O 0.24789 0.77370 0.48161
 O421 O 0.24788 0.77368 0.51811
 O422 O 0.27372 0.74805 0.48160
 Cu423 Cu 0.23676 0.73667 0.49986
 Cu424 Cu 0.26300 0.76308 0.49986
 C425 C 0.26712 0.73278 0.47538
 C426 C 0.23265 0.76698 0.52434
 C427 C 0.23266 0.76701 0.47539
 C428 C 0.26709 0.73275 0.52433
 O429 O 0.27402 0.75184 -0.01867
 O430 O 0.24825 0.72613 0.01788
 O431 O 0.24828 0.72607 -0.01862
 O432 O 0.27401 0.75188 0.01784
 O433 O 0.25211 0.77377 0.01780
 O434 O 0.22638 0.74797 -0.01866
 O435 O 0.22635 0.74802 0.01784
 O436 O 0.25213 0.77373 -0.01870
 Cu437 Cu 0.26335 0.73677 -0.00039
 Cu438 Cu 0.23704 0.76308 -0.00043
 C439 C 0.26738 0.76708 -0.02491
 C440 C 0.23300 0.73278 0.02409
 C441 C 0.23303 0.73271 -0.02485
 C442 C 0.26736 0.76713 0.02403
 O443 O 0.27376 0.25180 0.48206
 O444 O 0.24802 0.22600 0.51857
 O445 O 0.24804 0.22602 0.48206
 O446 O 0.27373 0.25180 0.51857
 O447 O 0.25181 0.27366 0.51856
 O448 O 0.22611 0.24789 0.48206
 O449 O 0.22610 0.24787 0.51857
 O450 O 0.25184 0.27367 0.48206
 Cu451 Cu 0.26310 0.23670 0.50032
 Cu452 Cu 0.23675 0.26298 0.50031
 C453 C 0.26710 0.26705 0.47584
 C454 C 0.23276 0.23262 0.52479
 C455 C 0.23278 0.23265 0.47584
 C456 C 0.26707 0.26704 0.52478
 O457 O 0.75188 0.72667 0.98193
 O458 O 0.72615 0.75237 1.01847
 O459 O 0.72614 0.75241 0.98196
 O460 O 0.75189 0.72664 1.01844
 O461 O 0.77379 0.74855 1.01842
 O462 O 0.74804 0.77432 0.98195
 O463 O 0.74805 0.77428 1.01845
 O464 O 0.77378 0.74858 0.98192
 Cu465 Cu 0.73680 0.73731 1.00020
 Cu466 Cu 0.76312 0.76365 1.00018
 C467 C 0.76713 0.73332 0.97570
 C468 C 0.73280 0.76762 1.02469
 C469 C 0.73278 0.76767 0.97574
 C470 C 0.76715 0.73329 1.02464
 O471 O 0.74837 0.27345 0.48165
 O472 O 0.77414 0.24778 0.51818
 O473 O 0.77411 0.24771 0.48167
 O474 O 0.74841 0.27352 0.51815
 O475 O 0.72650 0.25162 0.51824
 O476 O 0.75220 0.22581 0.48176
 O477 O 0.75223 0.22587 0.51826
 O478 O 0.72646 0.25155 0.48174
 Cu479 Cu 0.76347 0.26282 0.49991
 Cu480 Cu 0.73714 0.23650 0.50001
 C481 C 0.73311 0.26679 0.47547
 C482 C 0.76749 0.23254 0.52445
 C483 C 0.76744 0.23245 0.47550
 C484 C 0.73316 0.26689 0.52441
 O485 O 0.74813 0.22616 0.01808
 O486 O 0.77376 0.25205 -0.01845
 O487 O 0.77380 0.25200 0.01806
 O488 O 0.74810 0.22620 -0.01843
 O489 O 0.72613 0.24802 -0.01838
 O490 O 0.75183 0.27382 0.01810
 O491 O 0.75179 0.27387 -0.01840
 O492 O 0.72616 0.24798 0.01812
 Cu493 Cu 0.76316 0.23690 -0.00019
 Cu494 Cu 0.73676 0.26312 -0.00013
 C495 C 0.73286 0.23275 0.02432
 C496 C 0.76705 0.26728 -0.02465
 C497 C 0.76711 0.26722 0.02430
 C498 C 0.73283 0.23280 -0.02462
 O499 O 0.72617 0.74835 0.48204
 O500 O 0.75192 0.77418 0.51847
 O501 O 0.75188 0.77415 0.48197
 O502 O 0.72620 0.74839 0.51855
 O503 O 0.74812 0.72653 0.51855
 O504 O 0.77381 0.75228 0.48197
 O505 O 0.77384 0.75232 0.51847
 O506 O 0.74809 0.72649 0.48205
 Cu507 Cu 0.73683 0.76348 0.50026
 Cu508 Cu 0.76318 0.73720 0.50026
 C509 C 0.73283 0.73311 0.47583
 C510 C 0.76718 0.76756 0.52468
 C511 C 0.76713 0.76751 0.47573
 C512 C 0.73287 0.73316 0.52478
 O513 O 1.01846 0.27384 0.24786
 O514 O 0.98189 0.24804 0.27353
 O515 O 1.01841 0.24808 0.27359
 O516 O 0.98193 0.27381 0.24781
 O517 O 0.98197 0.25192 0.22592
 O518 O 1.01846 0.22619 0.25170
 O519 O 0.98194 0.22616 0.25165
 O520 O 1.01851 0.25195 0.22597
 Cu521 Cu 1.00017 0.26315 0.26290
 Cu522 Cu 1.00023 0.23685 0.23660
 C523 C 1.02472 0.26721 0.23263
 C524 C 0.97568 0.23279 0.26688
 C525 C 1.02466 0.23284 0.26695
 C526 C 0.97573 0.26717 0.23256
 O527 O 0.51832 0.27369 0.74806
 O528 O 0.48181 0.24793 0.77385
 O529 O 0.51834 0.24791 0.77377
 O530 O 0.48179 0.27372 0.74815
 O531 O 0.48173 0.25184 0.72625
 O532 O 0.51828 0.22604 0.75187
 O533 O 0.48174 0.22606 0.75195
 O534 O 0.51826 0.25182 0.72616
 Cu535 Cu 0.50007 0.26302 0.76317
 Cu536 Cu 0.49999 0.23673 0.73685
 C537 C 0.52451 0.26706 0.73280
 C538 C 0.47556 0.23269 0.76721
 C539 C 0.52454 0.23266 0.76709
 C540 C 0.47553 0.26709 0.73292
 O541 O 0.01782 0.24764 0.72608
 O542 O -0.01871 0.27353 0.75165
 O543 O 0.01782 0.27345 0.75174
 O544 O -0.01871 0.24772 0.72599
 O545 O -0.01883 0.22587 0.74794
 O546 O 0.01769 0.25159 0.77368
 O547 O -0.01884 0.25168 0.77359
 O548 O 0.01770 0.22579 0.74802
 Cu549 Cu -0.00043 0.26279 0.73665
 Cu550 Cu -0.00058 0.23653 0.76302
 C551 C 0.02399 0.23239 0.73278
 C552 C -0.02500 0.26693 0.76689
 C553 C 0.02398 0.26682 0.76701
 C554 C -0.02500 0.23249 0.73267
 O555 O 0.48167 0.27360 0.25179
 O556 O 0.51816 0.24783 0.22603
 O557 O 0.48162 0.24790 0.22602
 O558 O 0.51820 0.27353 0.25179
 O559 O 0.51813 0.25159 0.27364
 O560 O 0.48156 0.22596 0.24787
 O561 O 0.51809 0.22589 0.24788
 O562 O 0.48161 0.25165 0.27364
 Cu563 Cu 0.49992 0.26293 0.23670
 Cu564 Cu 0.49984 0.23656 0.26296
 C565 C 0.47542 0.26693 0.26702
 C566 C 0.52434 0.23255 0.23265
 C567 C 0.47536 0.23265 0.23264
 C568 C 0.52440 0.26685 0.26702
 O569 O 0.98195 0.75211 0.72609
 O570 O 1.01843 0.72624 0.75174
 O571 O 0.98190 0.72635 0.75182
 O572 O 1.01848 0.75200 0.72602
 O573 O 1.01859 0.77389 0.74790
 O574 O 0.98201 0.74824 0.77370
 O575 O 1.01854 0.74813 0.77363
 O576 O 0.98206 0.77400 0.74797
 Cu577 Cu 1.00018 0.73697 0.73671
 Cu578 Cu 1.00031 0.76328 0.76301
 C579 C 0.97579 0.76737 0.73274
 C580 C 1.02470 0.73287 0.76697
 C581 C 0.97572 0.73300 0.76707
 C582 C 1.02477 0.76724 0.73265
 O583 O 0.48208 0.74844 0.27351
 O584 O 0.51869 0.77420 0.24786
 O585 O 0.48216 0.77417 0.24775
 O586 O 0.51861 0.74846 0.27361
 O587 O 0.51868 0.72655 0.25174
 O588 O 0.48223 0.75226 0.22589
 O589 O 0.51877 0.75229 0.22600
 O590 O 0.48215 0.72652 0.25165
 Cu591 Cu 0.50038 0.76353 0.26289
 Cu592 Cu 0.50047 0.73719 0.23661
 C593 C 0.47588 0.73317 0.26687
 C594 C 0.52497 0.76755 0.23264
 C595 C 0.47598 0.76750 0.23251
 C596 C 0.52485 0.73320 0.26700
 O597 O -0.01871 0.72615 0.24767
 O598 O 0.01784 0.75184 0.27342
 O599 O -0.01869 0.75188 0.27341
 O600 O 0.01783 0.72613 0.24767
 O601 O 0.01787 0.74805 0.22580
 O602 O -0.01864 0.77380 0.25153
 O603 O 0.01789 0.77376 0.25154
 O604 O -0.01866 0.74808 0.22580
 Cu605 Cu -0.00044 0.73679 0.26275
 Cu606 Cu -0.00038 0.76314 0.23646
 C607 C -0.02492 0.73282 0.23243
 C608 C 0.02410 0.76709 0.26678
 C609 C -0.02488 0.76715 0.26677
 C610 C 0.02407 0.73279 0.23243
 O611 O 0.48154 0.77438 0.75206
 O612 O 0.51814 0.74859 0.72648
 O613 O 0.48161 0.74858 0.72640
 O614 O 0.51808 0.77439 0.75214
 O615 O 0.51801 0.75252 0.77408
 O616 O 0.48154 0.72672 0.74833
 O617 O 0.51807 0.72673 0.74842
 O618 O 0.48148 0.75252 0.77400
 Cu619 Cu 0.49985 0.76369 0.73706
 Cu620 Cu 0.49977 0.73742 0.76342
 C621 C 0.47527 0.76775 0.76730
 C622 C 0.52434 0.73335 0.73317
 C623 C 0.47536 0.73334 0.73306
 C624 C 0.52426 0.76776 0.76741
 C625 C 0.40532 0.31092 0.31108
 C626 C 0.40702 0.31589 0.29025
 C627 C 0.42151 0.30713 0.28146
 C628 C 0.43287 0.29424 0.29436
 C629 C 0.41847 0.28070 0.30282
 C630 C 0.40399 0.28947 0.31161
 C631 C 0.42455 0.31553 0.31949
 C632 C 0.43905 0.30676 0.31070
 C633 C 0.38961 0.32026 0.32044
 C634 C 0.37648 0.32775 0.32794
 C635 C 0.44836 0.28471 0.28481
 C636 C 0.46085 0.27669 0.27678
 H637 H 0.39769 0.32548 0.28303
 H638 H 0.42458 0.30920 0.26672
 H639 H 0.41955 0.26556 0.30200
 H640 H 0.39267 0.28183 0.31831
 H641 H 0.42660 0.32487 0.33130
 H642 H 0.45352 0.30858 0.31498
 C643 C 0.40484 0.81164 0.81094
 C644 C 0.41635 0.79903 0.82399
 C645 C 0.43091 0.79029 0.81529
 C646 C 0.43253 0.79502 0.79439
 C647 C 0.43366 0.81648 0.79358
 C648 C 0.41910 0.82522 0.80228
 C649 C 0.39878 0.79885 0.79478
 C650 C 0.41333 0.79012 0.78609
 C651 C 0.38906 0.82095 0.82021
 C652 C 0.37587 0.82840 0.82766
 C653 C 0.44809 0.78552 0.78494
 C654 C 0.46064 0.77751 0.77698
 H655 H 0.41333 0.79715 0.83876
 H656 H 0.44038 0.78092 0.82261
 H657 H 0.44491 0.82413 0.78678
 H658 H 0.41787 0.84036 0.80294
 H659 H 0.38432 0.79683 0.79053
 H660 H 0.41133 0.78062 0.77440
 C661 C -0.09514 0.31121 0.81060
 C662 C -0.08367 0.29855 0.82364
 C663 C -0.06917 0.28972 0.81492
 C664 C -0.06757 0.29441 0.79402
 C665 C -0.06632 0.31586 0.79317
 C666 C -0.08082 0.32470 0.80190
 C667 C -0.10130 0.29843 0.79447
 C668 C -0.08682 0.28961 0.78576
 C669 C -0.11084 0.32062 0.81990
 C670 C -0.12397 0.32815 0.82737
 C671 C -0.05208 0.28482 0.78454
 C672 C -0.03958 0.27675 0.77658
 H673 H -0.08666 0.29670 0.83843
 H674 H -0.05975 0.28030 0.82224
 H675 H -0.05505 0.32344 0.78634
 H676 H -0.08197 0.33984 0.80254
 H677 H -0.11578 0.29649 0.79025
 H678 H -0.08889 0.28011 0.77408
 C679 C -0.09504 0.81118 0.31070
 C680 C -0.08360 0.79843 0.32368
 C681 C -0.06910 0.78964 0.31492
 C682 C -0.06746 0.79448 0.29405
 C683 C -0.06620 0.81593 0.29335
 C684 C -0.08070 0.82472 0.30211
 C685 C -0.10119 0.79852 0.29448
 C686 C -0.08670 0.78974 0.28573
 C687 C -0.11075 0.82054 0.32004
 C688 C -0.12388 0.82804 0.32752
 C689 C -0.05196 0.78493 0.28453
 C690 C -0.03947 0.77691 0.27652
 H691 H -0.08661 0.79648 0.33844
 H692 H -0.05969 0.78017 0.32218
 H693 H -0.05490 0.82355 0.28659
 H694 H -0.08183 0.83986 0.30285
 H695 H -0.11566 0.79662 0.29023
 H696 H -0.08877 0.78032 0.27399
 C697 C 0.59487 0.68919 0.31114
 C698 C 0.58488 0.70373 0.32341
 C699 C 0.57040 0.71251 0.31461
 C700 C 0.56735 0.70589 0.29441
 C701 C 0.56489 0.68458 0.29582
 C702 C 0.57937 0.67579 0.30463
 C703 C 0.60078 0.69993 0.29349
 C704 C 0.58632 0.70871 0.28470
 C705 C 0.61055 0.67983 0.32052
 C706 C 0.62367 0.67233 0.32803
 C707 C 0.55188 0.71543 0.28484
 C708 C 0.53941 0.72345 0.27679
 H709 H 0.58881 0.70684 0.33775
 H710 H 0.56194 0.72314 0.32142
 H711 H 0.55285 0.67705 0.29041
 H712 H 0.57973 0.66074 0.30675
 H713 H 0.61507 0.70058 0.28834
 H714 H 0.58823 0.71687 0.27202
 C715 C 0.59483 0.18868 0.81083
 C716 C 0.59391 0.18486 0.78972
 C717 C 0.57939 0.19362 0.78100
 C718 C 0.56719 0.20534 0.79424
 C719 C 0.58085 0.21885 0.80388
 C720 C 0.59537 0.21009 0.81260
 C721 C 0.57553 0.18293 0.81839
 C722 C 0.56099 0.19169 0.80966
 C723 C 0.61057 0.17934 0.82013
 C724 C 0.62374 0.17188 0.82758
 C725 C 0.55166 0.21487 0.78477
 C726 C 0.53914 0.22289 0.77680
 H727 H 0.60379 0.17604 0.78227
 H728 H 0.57683 0.19230 0.76608
 H729 H 0.57924 0.23397 0.80387
 H730 H 0.60620 0.21771 0.82006
 H731 H 0.57347 0.17286 0.82960
 H732 H 0.54647 0.18914 0.81339
 C733 C 1.09484 0.68872 0.81078
 C734 C 1.10071 0.70640 0.80005
 C735 C 1.08622 0.71519 0.79132
 C736 C 1.06727 0.70545 0.79416
 C737 C 1.06486 0.70401 0.81547
 C738 C 1.07937 0.69521 0.82421
 C739 C 1.08483 0.67644 0.79627
 C740 C 1.07033 0.68524 0.78753
 C741 C 1.11056 0.67934 0.82009
 C742 C 1.12369 0.67182 0.82756
 C743 C 1.05177 0.71502 0.78467
 C744 C 1.03928 0.72307 0.77669
 H745 H 1.11500 0.71157 0.79938
 H746 H 1.08811 0.72789 0.78317
 H747 H 1.05283 0.70942 0.82302
 H748 H 1.07976 0.69307 0.83924
 H749 H 1.08877 0.66209 0.79314
 H750 H 1.06185 0.67843 0.77692
 C751 C 1.09474 0.18890 0.31106
 C752 C 1.09645 0.21032 0.31090
 C753 C 1.08198 0.21908 0.30211
 C754 C 1.06719 0.20556 0.29432
 C755 C 1.06109 0.19364 0.31115
 C756 C 1.07558 0.18487 0.31995
 C757 C 1.09259 0.18334 0.29042
 C758 C 1.07811 0.19209 0.28163
 C759 C 1.11044 0.17956 0.32043
 C760 C 1.12357 0.17207 0.32793
 C761 C 1.05171 0.21508 0.28477
 C762 C 1.03923 0.22309 0.27673
 H763 H 1.10801 0.21795 0.31717
 H764 H 1.08114 0.23421 0.30084
 H765 H 1.04666 0.19221 0.31573
 H766 H 1.07357 0.17593 0.33208
 H767 H 1.10164 0.17338 0.28335
 H768 H 1.07475 0.18964 0.26702
 C769 C 0.59479 0.31097 0.68882
 C770 C 0.58456 0.32342 0.70303
 C771 C 0.57003 0.31467 0.71180
 C772 C 0.56715 0.29432 0.70549
 C773 C 0.58614 0.28477 0.70866
 C774 C 0.60066 0.29352 0.69990
 C775 C 0.57948 0.30413 0.67538
 C776 C 0.56494 0.29538 0.68414
 C777 C 0.61053 0.32030 0.67948
 C778 C 0.62370 0.32778 0.67201
 C779 C 0.55163 0.28481 0.71501
 C780 C 0.53911 0.27681 0.72304
 H781 H 0.58838 0.33785 0.70594
 H782 H 0.56140 0.32160 0.72222
 H783 H 0.58802 0.27223 0.71704
 H784 H 0.61497 0.28846 0.70079
 H785 H 0.58000 0.30601 0.66031
 H786 H 0.55301 0.28976 0.67659
 C787 C 0.59536 0.81155 0.18893
 C788 C 0.59356 0.79074 0.18387
 C789 C 0.57902 0.78197 0.19258
 C790 C 0.56769 0.79486 0.20550
 C791 C 0.56161 0.81131 0.19305
 C792 C 0.57617 0.82009 0.18433
 C793 C 0.59664 0.81197 0.21037
 C794 C 0.58210 0.80320 0.21907
 C795 C 0.61112 0.82090 0.17965
 C796 C 0.62431 0.82839 0.17221
 C797 C 0.55214 0.78533 0.21496
 C798 C 0.53960 0.77731 0.22293
 H799 H 0.60289 0.78353 0.17428
 H800 H 0.57589 0.76724 0.19044
 H801 H 0.54716 0.81566 0.19124
 H802 H 0.57419 0.83197 0.17506
 H803 H 0.60797 0.81859 0.21804
 H804 H 0.58098 0.80231 0.23420
 C805 C 1.09504 0.31118 0.18878
 C806 C 1.08479 0.32363 0.20299
 C807 C 1.07025 0.31487 0.21173
 C808 C 1.06739 0.29452 0.20541
 C809 C 1.08638 0.28498 0.20860
 C810 C 1.10090 0.29373 0.19986
 C811 C 1.07975 0.30435 0.17532
 C812 C 1.06521 0.29558 0.18406
 C813 C 1.11079 0.32052 0.17946
 C814 C 1.12395 0.32801 0.17199
 C815 C 1.05186 0.28499 0.21491
 C816 C 1.03933 0.27697 0.22290
 H817 H 1.08860 0.33806 0.20591
 H818 H 1.06161 0.32179 0.22214
 H819 H 1.08825 0.27243 0.21698
 H820 H 1.11521 0.28869 0.20076
 H821 H 1.08029 0.30623 0.16025
 H822 H 1.05329 0.28996 0.17649
 C823 C 1.09513 0.81101 0.68867
 C824 C 1.08484 0.82352 0.70278
 C825 C 1.07030 0.81480 0.71155
 C826 C 1.06747 0.79441 0.70533
 C827 C 1.08646 0.78490 0.70861
 C828 C 1.10099 0.79362 0.69986
 C829 C 1.07988 0.80408 0.67521
 C830 C 1.06533 0.79535 0.68398
 C831 C 1.11089 0.82031 0.67933
 C832 C 1.12407 0.82777 0.67185
 C833 C 1.05193 0.78493 0.71486
 C834 C 1.03939 0.77695 0.72288
 H835 H 1.08864 0.83797 0.70563
 H836 H 1.06163 0.82177 0.72190
 H837 H 1.08833 0.77241 0.71707
 H838 H 1.11531 0.78859 0.70082
 H839 H 1.08045 0.80588 0.66014
 H840 H 1.05343 0.78967 0.67641
 C841 C 0.40524 0.68927 0.68911
 C842 C 0.39923 0.70083 0.70618
 C843 C 0.41371 0.70961 0.71494
 C844 C 0.43281 0.70599 0.70577
 C845 C 0.43035 0.71187 0.68526
 C846 C 0.41585 0.70308 0.67649
 C847 C 0.42026 0.67579 0.69650
 C848 C 0.43476 0.68458 0.70526
 C849 C 0.38953 0.67991 0.67977
 C850 C 0.37640 0.67240 0.67228
 C851 C 0.44830 0.71553 0.71530
 C852 C 0.46079 0.72357 0.72331
 H853 H 0.38485 0.70202 0.71098
 H854 H 0.41173 0.71831 0.72724
 H855 H 0.43922 0.72203 0.67823
 H856 H 0.41231 0.70571 0.66195
 H857 H 0.41957 0.66068 0.69497
 H858 H 0.44649 0.67700 0.71124
 C859 C 0.40501 0.18892 0.18870
 C860 C 0.41625 0.20198 0.17583
 C861 C 0.43079 0.21070 0.18459
 C862 C 0.43267 0.20550 0.20535
 C863 C 0.43405 0.18405 0.20565
 C864 C 0.41951 0.17532 0.19689
 C865 C 0.39896 0.20124 0.20522
 C866 C 0.41349 0.20995 0.21397
 C867 C 0.38926 0.17962 0.17937
 C868 C 0.37608 0.17216 0.17190
 C869 C 0.44821 0.21497 0.21487
 C870 C 0.46074 0.22295 0.22289
 H871 H 0.41307 0.20418 0.16114
 H872 H 0.44007 0.22037 0.17740
 H873 H 0.44546 0.17638 0.21214
 H874 H 0.41845 0.16019 0.19588
 H875 H 0.38452 0.20297 0.20966
 H876 H 0.41149 0.21914 0.22591
 C877 C -0.09522 0.68895 0.18858
 C878 C -0.07621 0.68562 0.17911
 C879 C -0.06167 0.69437 0.18785
 C880 C -0.06758 0.70559 0.20519
 C881 C -0.07794 0.69149 0.21769
 C882 C -0.09247 0.68275 0.20896
 C883 C -0.09731 0.71033 0.18948
 C884 C -0.08279 0.71907 0.19821
 C885 C -0.11098 0.67963 0.17927
 C886 C -0.12415 0.67216 0.17182
 C887 C -0.05205 0.71510 0.21469
 C888 C -0.03952 0.72309 0.22269
 H889 H -0.07434 0.67713 0.16665
 H890 H -0.04733 0.69338 0.18288
 H891 H -0.07419 0.68862 0.23213
 H892 H -0.10116 0.67238 0.21591
 H893 H -0.10916 0.71793 0.18374
 H894 H -0.08220 0.73416 0.19995
 C895 C -0.09527 0.18857 0.68881
 C896 C -0.10123 0.20013 0.70591
 C897 C -0.08671 0.20888 0.71464
 C898 C -0.06764 0.20523 0.70543
 C899 C -0.07014 0.21113 0.68492
 C900 C -0.08467 0.20237 0.67618
 C901 C -0.08026 0.17506 0.69616
 C902 C -0.06573 0.18382 0.70490
 C903 C -0.11102 0.17924 0.67950
 C904 C -0.12418 0.17175 0.67205
 C905 C -0.05212 0.21475 0.71492
 C906 C -0.03960 0.22275 0.72292
 H907 H -0.11560 0.20133 0.71074
 H908 H -0.08865 0.21758 0.72694
 H909 H -0.06127 0.22128 0.67787
 H910 H -0.08825 0.20502 0.66165
 H911 H -0.08098 0.15995 0.69462
 H912 H -0.05399 0.17622 0.71084
 C913 C 0.31101 0.40533 0.31116
 C914 C 0.31431 0.42436 0.32060
 C915 C 0.30555 0.43887 0.31182
 C916 C 0.29435 0.43292 0.29448
 C917 C 0.28089 0.41768 0.30147
 C918 C 0.28965 0.40318 0.31024
 C919 C 0.31723 0.40808 0.29078
 C920 C 0.30847 0.42258 0.28201
 C921 C 0.32035 0.38961 0.32050
 C922 C 0.32783 0.37646 0.32798
 C923 C 0.28483 0.44842 0.28494
 C924 C 0.27682 0.46092 0.27692
 H925 H 0.32279 0.42626 0.33306
 H926 H 0.30651 0.45321 0.31677
 H927 H 0.26580 0.41823 0.29971
 H928 H 0.28205 0.39132 0.31599
 H929 H 0.32762 0.39941 0.28385
 H930 H 0.31136 0.42634 0.26757
 C931 C 0.31150 -0.09539 0.81098
 C932 C 0.29232 -0.09065 0.81944
 C933 C 0.28352 -0.07612 0.81075
 C934 C 0.29476 -0.06776 0.79445
 C935 C 0.29888 -0.08437 0.78145
 C936 C 0.30768 -0.09888 0.79014
 C937 C 0.32260 -0.07698 0.81160
 C938 C 0.31379 -0.06244 0.80291
 C939 C 0.32088 -0.11113 0.82025
 C940 C 0.32838 -0.12430 0.82769
 C941 C 0.28519 -0.05224 0.78500
 C942 C 0.27715 -0.03972 0.77704
 H943 H 0.28619 -0.09804 0.83124
 H944 H 0.26985 -0.07107 0.81510
 H945 H 0.29522 -0.08469 0.76671
 H946 H 0.31156 -0.11164 0.78284
 H947 H 0.33617 -0.07549 0.81829
 H948 H 0.31981 -0.04850 0.80214
 C949 C 0.81116 0.40506 0.81114
 C950 C 0.79199 0.40989 0.81957
 C951 C 0.78326 0.42444 0.81085
 C952 C 0.79455 0.43274 0.79455
 C953 C 0.79862 0.41610 0.78158
 C954 C 0.80735 0.40156 0.79029
 C955 C 0.82233 0.42343 0.81175
 C956 C 0.81360 0.43799 0.80302
 C957 C 0.82046 0.38929 0.82043
 C958 C 0.82791 0.37610 0.82788
 C959 C 0.78505 0.44829 0.78507
 C960 C 0.77706 0.46083 0.77709
 H961 H 0.78582 0.40255 0.83137
 H962 H 0.76961 0.42956 0.81518
 H963 H 0.79498 0.41578 0.76683
 H964 H 0.81118 0.38878 0.78301
 H965 H 0.83590 0.42487 0.81845
 H966 H 0.81967 0.45191 0.80224
 C967 C 0.81103 -0.09527 0.31113
 C968 C 0.82168 -0.07664 0.31256
 C969 C 0.81290 -0.06213 0.30379
 C970 C 0.79434 -0.06769 0.29447
 C971 C 0.78265 -0.07662 0.31014
 C972 C 0.79142 -0.09112 0.31890
 C973 C 0.80813 -0.09842 0.29009
 C974 C 0.79936 -0.08393 0.28133
 C975 C 0.82038 -0.11099 0.32047
 C976 C 0.82787 -0.12413 0.32796
 C977 C 0.78481 -0.05219 0.28494
 C978 C 0.77679 -0.03969 0.27693
 H979 H 0.83493 -0.07499 0.31981
 H980 H 0.81863 -0.04804 0.30353
 H981 H 0.76871 -0.07195 0.31403
 H982 H 0.78500 -0.09887 0.33030
 H983 H 0.81258 -0.11094 0.28271
 H984 H 0.79631 -0.08404 0.26645
 C985 C 0.31088 0.59479 0.68915
 C986 C 0.30780 0.59803 0.71016
 C987 C 0.29902 0.58353 0.71893
 C988 C 0.29417 0.56720 0.70584
 C989 C 0.31282 0.56169 0.69667
 C990 C 0.32161 0.57620 0.68789
 C991 C 0.29135 0.59050 0.68127
 C992 C 0.28257 0.57600 0.69004
 C993 C 0.32024 0.61051 0.67980
 C994 C 0.32774 0.62365 0.67231
 C995 C 0.28462 0.55170 0.71537
 C996 C 0.27659 0.53920 0.72339
 H997 H 0.31215 0.61060 0.71751
 H998 H 0.29585 0.58370 0.73379
 H999 H 0.31860 0.54764 0.69703
 H1000 H 0.33492 0.57459 0.68074
 H1001 H 0.28499 0.59817 0.66980
 H1002 H 0.26868 0.57125 0.68608
 C1003 C 0.31144 1.09491 0.18907
 C1004 C 0.29939 1.10090 0.20581
 C1005 C 0.29062 1.08637 0.21452
 C1006 C 0.29475 1.06724 0.20563
 C1007 C 0.31619 1.06561 0.20562
 C1008 C 0.32497 1.08016 0.19691
 C1009 C 0.29809 1.08398 0.17625
 C1010 C 0.28932 1.06943 0.18496
 C1011 C 0.32079 1.11068 0.17978
 C1012 C 0.32827 1.12385 0.17233
 C1013 C 0.28521 1.05170 0.21510
 C1014 C 0.27718 1.03916 0.22307
 H1015 H 0.29788 1.11530 0.21044
 H1016 H 0.28161 1.08832 0.22660
 H1017 H 0.32380 1.05404 0.21189
 H1018 H 0.34010 1.08107 0.19571
 H1019 H 0.29575 1.08736 0.16162
 H1020 H 0.27946 1.06034 0.17780
 C1021 C 0.81121 0.59494 0.18910
 C1022 C 0.80049 0.60072 0.20680
 C1023 C 0.79174 0.58619 0.21553
 C1024 C 0.79455 0.56728 0.20573
 C1025 C 0.81587 0.56488 0.20427
 C1026 C 0.82463 0.57943 0.19552
 C1027 C 0.79667 0.58499 0.17680
 C1028 C 0.78791 0.57045 0.18554
 C1029 C 0.82054 0.61069 0.17978
 C1030 C 0.82802 0.62386 0.17231
 C1031 C 0.78503 0.55175 0.21522
 C1032 C 0.77702 0.53921 0.22322
 H1033 H 0.79984 0.61499 0.21202
 H1034 H 0.78359 0.58802 0.22823
 H1035 H 0.82341 0.55281 0.20962
 H1036 H 0.83968 0.57982 0.19338
 H1037 H 0.79354 0.58900 0.16248
 H1038 H 0.77727 0.56200 0.17871
 C1039 C 0.81151 1.09548 0.68894
 C1040 C 0.80114 1.10123 0.70685
 C1041 C 0.79236 1.08673 0.71560
 C1042 C 0.79480 1.06787 0.70560
 C1043 C 0.81607 1.06524 0.70378
 C1044 C 0.82485 1.07976 0.69502
 C1045 C 0.79666 1.08580 0.67679
 C1046 C 0.78788 1.07128 0.68555
 C1047 C 0.82087 1.11121 0.67961
 C1048 C 0.82837 1.12436 0.67212
 C1049 C 0.78526 1.05236 0.71511
 C1050 C 0.77723 1.03985 0.72312
 H1051 H 0.80073 1.11545 0.71220
 H1052 H 0.78444 1.08853 0.72844
 H1053 H 0.82355 1.05304 0.70891
 H1054 H 0.83987 1.08001 0.69265
 H1055 H 0.79335 1.08997 0.66256
 H1056 H 0.77704 1.06301 0.67882
 C1057 C 0.68907 0.59470 0.31132
 C1058 C 0.69199 0.57752 0.32392
 C1059 C 0.70074 0.56301 0.31515
 C1060 C 0.70570 0.56710 0.29464
 C1061 C 0.71739 0.58513 0.29520
 C1062 C 0.70866 0.59963 0.30396
 C1063 C 0.67838 0.58729 0.29422
 C1064 C 0.68713 0.57278 0.28545
 C1065 C 0.67975 0.61042 0.32066
 C1066 C 0.67227 0.62357 0.32814
 C1067 C 0.71521 0.55159 0.28511
 C1068 C 0.72321 0.53909 0.27708
 H1069 H 0.68758 0.57683 0.33845
 H1070 H 0.70382 0.54987 0.32215
 H1071 H 0.73133 0.58640 0.28924
 H1072 H 0.71510 0.61332 0.30551
 H1073 H 0.66511 0.59294 0.28943
 H1074 H 0.68134 0.56600 0.27315
 C1075 C 0.68901 1.09536 0.81112
 C1076 C 0.68748 1.07670 0.82170
 C1077 C 0.69628 1.06220 0.81293
 C1078 C 0.70573 1.06780 0.79445
 C1079 C 0.71888 1.08402 0.79957
 C1080 C 0.71009 1.09850 0.80833
 C1081 C 0.68134 1.09127 0.79148
 C1082 C 0.69013 1.07678 0.78272
 C1083 C 0.67964 1.11106 0.82046
 C1084 C 0.67213 1.12419 0.82794
 C1085 C 0.71528 1.05232 0.78493
 C1086 C 0.72331 1.03982 0.77692
 H1087 H 0.68014 1.07503 0.83490
 H1088 H 0.69647 1.04810 0.81862
 H1089 H 0.73379 1.08411 0.79659
 H1090 H 0.71748 1.11100 0.81285
 H1091 H 0.66999 1.09905 0.78503
 H1092 H 0.68631 1.07216 0.76876
 C1093 C 0.18860 0.59496 0.81127
 C1094 C 0.19398 0.59914 0.79089
 C1095 C 0.20271 0.58461 0.78217
 C1096 C 0.20521 0.56730 0.79466
 C1097 C 0.18543 0.56252 0.80162
 C1098 C 0.17669 0.57707 0.81036
 C1099 C 0.20693 0.58898 0.82075
 C1100 C 0.21566 0.57444 0.81202
 C1101 C 0.17929 0.61072 0.82057
 C1102 C 0.17184 0.62390 0.82803
 C1103 C 0.21470 0.55176 0.78517
 C1104 C 0.22270 0.53923 0.77718
 H1105 H 0.19117 0.61236 0.78392
 H1106 H 0.20737 0.58538 0.76773
 H1107 H 0.17887 0.54891 0.79985
 H1108 H 0.16264 0.57593 0.81607
 H1109 H 0.21255 0.59557 0.83323
 H1110 H 0.22876 0.56857 0.81702
 C1111 C 0.18909 1.09456 0.31113
 C1112 C 0.19205 1.07739 0.32372
 C1113 C 0.20082 1.06288 0.31494
 C1114 C 0.20576 1.06699 0.29443
 C1115 C 0.21742 1.08504 0.29499
 C1116 C 0.20866 1.09952 0.30376
 C1117 C 0.17841 1.08714 0.29403
 C1118 C 0.18717 1.07265 0.28525
 C1119 C 0.17974 1.11026 0.32048
 C1120 C 0.17225 1.12340 0.32797
 C1121 C 0.21528 1.05150 0.28489
 C1122 C 0.22329 1.03901 0.27686
 H1123 H 0.18764 1.07668 0.33825
 H1124 H 0.20392 1.04975 0.32194
 H1125 H 0.23135 1.08633 0.28902
 H1126 H 0.21509 1.11322 0.30531
 H1127 H 0.16512 1.09277 0.28925
 H1128 H 0.18139 1.06586 0.27295
 C1129 C 0.68920 0.40532 0.68892
 C1130 C 0.67567 0.42029 0.69633
 C1131 C 0.68440 0.43480 0.70512
 C1132 C 0.70581 0.43292 0.70564
 C1133 C 0.71172 0.43052 0.68513
 C1134 C 0.70299 0.41600 0.67633
 C1135 C 0.70077 0.39932 0.70600
 C1136 C 0.70950 0.41382 0.71478
 C1137 C 0.67989 0.38960 0.67955
 C1138 C 0.67243 0.37645 0.67205
 C1139 C 0.71530 0.44843 0.71520
 C1140 C 0.72329 0.46093 0.72324
 H1141 H 0.66056 0.41955 0.69478
 H1142 H 0.67678 0.44651 0.71111
 H1143 H 0.72185 0.43943 0.67812
 H1144 H 0.70564 0.41249 0.66179
 H1145 H 0.70200 0.38494 0.71077
 H1146 H 0.71819 0.41185 0.72708
 C1147 C 0.68862 -0.09535 0.18906
 C1148 C 0.71000 -0.09741 0.18982
 C1149 C 0.71878 -0.08290 0.19855
 C1150 C 0.70532 -0.06774 0.20568
 C1151 C 0.69132 -0.07818 0.21823
 C1152 C 0.68254 -0.09269 0.20950
 C1153 C 0.68519 -0.07630 0.17969
 C1154 C 0.69398 -0.06178 0.18844
 C1155 C 0.67926 -0.11108 0.17975
 C1156 C 0.67177 -0.12423 0.17228
 C1157 C 0.71487 -0.05223 0.21518
 C1158 C 0.72290 -0.03972 0.22316
 H1159 H 0.71759 -0.10922 0.18399
 H1160 H 0.73388 -0.08229 0.20020
 H1161 H 0.68854 -0.07448 0.23270
 H1162 H 0.67224 -0.10142 0.21649
 H1163 H 0.67662 -0.07439 0.16730
 H1164 H 0.69293 -0.04742 0.18353
 C1165 C 0.18863 0.40520 0.18913
 C1166 C 0.21001 0.40317 0.18985
 C1167 C 0.21879 0.41768 0.19857
 C1168 C 0.20533 0.43282 0.20573
 C1169 C 0.19136 0.42237 0.21830
 C1170 C 0.18258 0.40786 0.20958
 C1171 C 0.18516 0.42425 0.17977
 C1172 C 0.19395 0.43878 0.18850
 C1173 C 0.17927 0.38947 0.17983
 C1174 C 0.17178 0.37631 0.17238
 C1175 C 0.21487 0.44834 0.21521
 C1176 C 0.22291 0.46086 0.22319
 H1177 H 0.21760 0.39136 0.18401
 H1178 H 0.23389 0.41831 0.20020
 H1179 H 0.18859 0.42606 0.23277
 H1180 H 0.17230 0.39911 0.21658
 H1181 H 0.17657 0.42615 0.16739
 H1182 H 0.19288 0.45313 0.18360
 C1183 C 0.18890 -0.09521 0.68913
 C1184 C 0.17542 -0.08019 0.69652
 C1185 C 0.18422 -0.06569 0.70528
 C1186 C 0.20563 -0.06765 0.70579
 C1187 C 0.21150 -0.07011 0.68527
 C1188 C 0.20271 -0.08460 0.67651
 C1189 C 0.20046 -0.10123 0.70620
 C1190 C 0.20925 -0.08675 0.71495
 C1191 C 0.17953 -0.11092 0.67979
 C1192 C 0.17201 -0.12404 0.67231
 C1193 C 0.21518 -0.05216 0.71531
 C1194 C 0.22321 -0.03966 0.72332
 H1195 H 0.16031 -0.08087 0.69500
 H1196 H 0.17665 -0.05395 0.71127
 H1197 H 0.22166 -0.06124 0.67824
 H1198 H 0.20533 -0.08815 0.66197
 H1199 H 0.20164 -0.11561 0.71100
 H1200 H 0.21795 -0.08873 0.72725
 C1201 C 0.31104 0.31099 0.40559
 C1202 C 0.29482 0.32235 0.41396
 C1203 C 0.28606 0.31359 0.42848
 C1204 C 0.29437 0.29434 0.43321
 C1205 C 0.31527 0.29800 0.43669
 C1206 C 0.32404 0.30675 0.42216
 C1207 C 0.30240 0.29203 0.40030
 C1208 C 0.29365 0.28328 0.41481
 C1209 C 0.32037 0.32031 0.38985
 C1210 C 0.32785 0.32779 0.37668
 C1211 C 0.28485 0.28483 0.44873
 C1212 C 0.27684 0.27681 0.46124
 H1213 H 0.29061 0.33606 0.40893
 H1214 H 0.27434 0.31981 0.43590
 H1215 H 0.32254 0.29407 0.44944
 H1216 H 0.33882 0.31032 0.42246
 H1217 H 0.30311 0.28599 0.38638
 H1218 H 0.28685 0.26976 0.41332
 C1219 C 0.31128 0.81103 -0.09518
 C1220 C 0.31386 0.78969 -0.09518
 C1221 C 0.30512 0.78093 -0.08066
 C1222 C 0.29465 0.79436 -0.06756
 C1223 C 0.28127 0.80530 -0.08031
 C1224 C 0.29001 0.81406 -0.09483
 C1225 C 0.31816 0.81748 -0.07588
 C1226 C 0.30941 0.80871 -0.06134
 C1227 C 0.32060 0.82037 -0.11092
 C1228 C 0.32806 0.82786 -0.12408
 C1229 C 0.28515 0.78483 -0.05203
 C1230 C 0.27714 0.77682 -0.03952
 H1231 H 0.32187 0.78212 -0.10565
 H1232 H 0.30564 0.76586 -0.07870
 H1233 H 0.26624 0.80611 -0.07812
 H1234 H 0.28247 0.82238 -0.10507
 H1235 H 0.32894 0.82800 -0.07381
 H1236 H 0.31269 0.81171 -0.04682
 C1237 C 0.81073 0.31142 -0.09494
 C1238 C 0.81334 0.29008 -0.09496
 C1239 C 0.80464 0.28129 -0.08044
 C1240 C 0.79418 0.29469 -0.06730
 C1241 C 0.78075 0.30564 -0.08002
 C1242 C 0.78946 0.31443 -0.09454
 C1243 C 0.81764 0.31786 -0.07564
 C1244 C 0.80893 0.30906 -0.06110
 C1245 C 0.82002 0.32078 -0.11069
 C1246 C 0.82746 0.32827 -0.12386
 C1247 C 0.78471 0.28513 -0.05177
 C1248 C 0.77675 0.27708 -0.03925
 H1249 H 0.82133 0.28254 -0.10546
 H1250 H 0.80517 0.26622 -0.07849
 H1251 H 0.76573 0.30643 -0.07780
 H1252 H 0.78189 0.32275 -0.10476
 H1253 H 0.82841 0.32839 -0.07358
 H1254 H 0.81223 0.31205 -0.04658
 C1255 C 0.81087 0.81140 0.40532
 C1256 C 0.81344 0.79006 0.40535
 C1257 C 0.80474 0.78132 0.41990
 C1258 C 0.79430 0.79477 0.43301
 C1259 C 0.78089 0.80570 0.42027
 C1260 C 0.78960 0.81444 0.40572
 C1261 C 0.81779 0.81788 0.42460
 C1262 C 0.80907 0.80913 0.43917
 C1263 C 0.82015 0.82071 0.38954
 C1264 C 0.82758 0.82817 0.37634
 C1265 C 0.78483 0.78526 0.44856
 C1266 C 0.77685 0.77726 0.46111
 H1267 H 0.82142 0.78248 0.39487
 H1268 H 0.80525 0.76625 0.42188
 H1269 H 0.76587 0.80651 0.42249
 H1270 H 0.78204 0.82274 0.39548
 H1271 H 0.82858 0.82840 0.42663
 H1272 H 0.81239 0.81216 0.45368
 C1273 C 0.68927 0.31094 0.59455
 C1274 C 0.69982 0.29314 0.60036
 C1275 C 0.70857 0.28437 0.58587
 C1276 C 0.70592 0.29424 0.56698
 C1277 C 0.71271 0.31439 0.57019
 C1278 C 0.70396 0.32317 0.58469
 C1279 C 0.67587 0.30463 0.57898
 C1280 C 0.68463 0.29585 0.56448
 C1281 C 0.67994 0.32029 0.61026
 C1282 C 0.67245 0.32778 0.62340
 C1283 C 0.71543 0.28470 0.55148
 C1284 C 0.72343 0.27666 0.53899
 H1285 H 0.70037 0.28788 0.61461
 H1286 H 0.71661 0.27160 0.58772
 H1287 H 0.72343 0.32117 0.56180
 H1288 H 0.70718 0.33746 0.58872
 H1289 H 0.66084 0.30688 0.57932
 H1290 H 0.67710 0.29057 0.55239
 C1291 C 0.68892 0.81135 1.09503
 C1292 C 0.69528 0.79133 1.09955
 C1293 C 0.70402 0.78263 1.08502
 C1294 C 0.70555 0.79479 1.06737
 C1295 C 0.71542 0.81277 1.07380
 C1296 C 0.70667 0.82148 1.08835
 C1297 C 0.67663 0.80947 1.07751
 C1298 C 0.68538 0.80076 1.06295
 C1299 C 0.67959 0.82063 1.11079
 C1300 C 0.67213 0.82807 1.12397
 C1301 C 0.71506 0.78532 1.05183
 C1302 C 0.72306 0.77734 1.03930
 H1303 H 0.69310 0.78457 1.11299
 H1304 H 0.70933 0.76842 1.08601
 H1305 H 0.72814 0.81820 1.06748
 H1306 H 0.71190 0.83437 1.09448
 H1307 H 0.66232 0.81454 1.07660
 H1308 H 0.67858 0.79836 1.04958
 C1309 C 0.18862 0.31090 1.09484
 C1310 C 0.19548 0.29109 1.09958
 C1311 C 0.20425 0.28237 1.08507
 C1312 C 0.20531 0.29430 1.06723
 C1313 C 0.21483 0.31260 1.07329
 C1314 C 0.20606 0.32132 1.08781
 C1315 C 0.17617 0.30848 1.07750
 C1316 C 0.18495 0.29975 1.06297
 C1317 C 0.17927 0.32020 1.11058
 C1318 C 0.17178 0.32765 1.12373
 C1319 C 0.21484 0.28482 1.05172
 C1320 C 0.22286 0.27683 1.03921
 H1321 H 0.19361 0.28448 1.11314
 H1322 H 0.20989 0.26830 1.08621
 H1323 H 0.22736 0.31822 1.06674
 H1324 H 0.21106 0.33442 1.09369
 H1325 H 0.16175 0.31321 1.07669
 H1326 H 0.17805 0.29701 1.04972
 C1327 C 0.18865 0.81068 0.59462
 C1328 C 0.17834 0.81277 0.57589
 C1329 C 0.18711 0.80405 0.56135
 C1330 C 0.20532 0.79411 0.56698
 C1331 C 0.19970 0.78079 0.58288
 C1332 C 0.19094 0.78949 0.59741
 C1333 C 0.20852 0.81801 0.59090
 C1334 C 0.21728 0.80930 0.57637
 C1335 C 0.17932 0.81996 0.61038
 C1336 C 0.17185 0.82741 0.62355
 C1337 C 0.21484 0.78465 0.55145
 C1338 C 0.22287 0.77668 0.53893
 H1339 H 0.16531 0.82041 0.57420
 H1340 H 0.18159 0.80423 0.54720
 H1341 H 0.20236 0.76582 0.58274
 H1342 H 0.18610 0.78198 0.60970
 H1343 H 0.21512 0.82908 0.59896
 H1344 H 0.23139 0.81291 0.57198
 C1345 C 0.31104 0.68898 0.59461
 C1346 C 0.29150 0.68110 0.59037
 C1347 C 0.28274 0.68981 0.57584
 C1348 C 0.29439 0.70557 0.56697
 C1349 C 0.31302 0.69634 0.56150
 C1350 C 0.32178 0.68762 0.57604
 C1351 C 0.30801 0.71003 0.59774
 C1352 C 0.29926 0.71874 0.58322
 C1353 C 0.32037 0.67969 0.61036
 C1354 C 0.32783 0.67224 0.62353
 C1355 C 0.28487 0.71505 0.55144
 C1356 C 0.27685 0.72303 0.53892
 H1357 H 0.28511 0.66966 0.59809
 H1358 H 0.26885 0.68584 0.57111
 H1359 H 0.31882 0.69663 0.54745
 H1360 H 0.33508 0.68043 0.57445
 H1361 H 0.31236 0.71744 0.61027
 H1362 H 0.29612 0.73362 0.58331
 C1363 C 0.31134 0.18928 1.09483
 C1364 C 0.32222 0.18829 1.07632
 C1365 C 0.31340 0.19698 1.06180
 C1366 C 0.29456 0.20581 1.06723
 C1367 C 0.29908 0.21892 1.08364
 C1368 C 0.30790 0.21024 1.09813
 C1369 C 0.29197 0.18108 1.09039
 C1370 C 0.28315 0.18977 1.07588
 C1371 C 0.32073 0.18001 1.11055
 C1372 C 0.32824 0.17257 1.12370
 C1373 C 0.28497 0.21526 1.05173
 C1374 C 0.27691 0.22321 1.03922
 H1375 H 0.33566 0.18136 1.07475
 H1376 H 0.31927 0.19751 1.04780
 H1377 H 0.29567 0.23374 1.08384
 H1378 H 0.31204 0.21761 1.11076
 H1379 H 0.28574 0.16945 1.09796
 H1380 H 0.26937 0.18559 1.07103
 C1381 C 0.81113 0.68938 1.09481
 C1382 C 0.82439 0.70098 1.08247
 C1383 C 0.81562 0.70973 1.06796
 C1384 C 0.79445 0.70602 1.06722
 C1385 C 0.78707 0.71188 1.08653
 C1386 C 0.79584 0.70313 1.10102
 C1387 C 0.80131 0.67585 1.08130
 C1388 C 0.79253 0.68461 1.06679
 C1389 C 0.82048 0.68005 1.11053
 C1390 C 0.82797 0.67258 1.12367
 C1391 C 0.78492 0.71553 1.05172
 C1392 C 0.77690 0.72354 1.03922
 H1393 H 0.83935 0.70220 1.08491
 H1394 H 0.82306 0.71845 1.05797
 H1395 H 0.77594 0.72201 1.08863
 H1396 H 0.79221 0.70578 1.11553
 H1397 H 0.80126 0.66074 1.08298
 H1398 H 0.78497 0.67699 1.05604
 C1399 C 0.81134 0.18878 0.59480
 C1400 C 0.81837 0.20880 0.59128
 C1401 C 0.80964 0.21752 0.57673
 C1402 C 0.79473 0.20537 0.56713
 C1403 C 0.78137 0.19941 0.58288
 C1404 C 0.79010 0.19070 0.59741
 C1405 C 0.81376 0.17864 0.57601
 C1406 C 0.80502 0.18737 0.56146
 C1407 C 0.82065 0.17949 0.61056
 C1408 C 0.82809 0.17205 0.62375
 C1409 C 0.78524 0.21484 0.55159
 C1410 C 0.77724 0.22282 0.53906
 H1411 H 0.82925 0.21553 0.59947
 H1412 H 0.81305 0.23171 0.57248
 H1413 H 0.76636 0.20182 0.58263
 H1414 H 0.78256 0.18564 0.60961
 H1415 H 0.82164 0.16576 0.57429
 H1416 H 0.80541 0.18196 0.54727
 C1417 C 0.68898 0.68907 0.40568
 C1418 C 0.67967 0.70758 0.41140
 C1419 C 0.68841 0.71635 0.42590
 C1420 C 0.70559 0.70576 0.43327
 C1421 C 0.71819 0.70293 0.41610
 C1422 C 0.70946 0.69417 0.40160
 C1423 C 0.68961 0.67733 0.42368
 C1424 C 0.69835 0.68611 0.43819
 C1425 C 0.67967 0.67972 0.38995
 C1426 C 0.67221 0.67224 0.37680
 C1427 C 0.71509 0.71530 0.44877
 C1428 C 0.72309 0.72333 0.46127
 H1429 H 0.66730 0.71328 0.40466
 H1430 H 0.68352 0.72957 0.43159
 H1431 H 0.73271 0.70742 0.41539
 H1432 H 0.71650 0.69114 0.38848
 H1433 H 0.68372 0.66337 0.42491
 H1434 H 0.69994 0.67967 0.45186
 C1435 C 0.68910 0.18877 -0.09486
 C1436 C 0.67772 0.20499 -0.08655
 C1437 C 0.68642 0.21377 -0.07203
 C1438 C 0.70566 0.20546 -0.06724
 C1439 C 0.71678 0.20617 -0.08562
 C1440 C 0.70808 0.19740 -0.10013
 C1441 C 0.69328 0.17578 -0.07825
 C1442 C 0.70199 0.18457 -0.06372
 C1443 C 0.67982 0.17942 -0.11060
 C1444 C 0.67238 0.17193 -0.12376
 C1445 C 0.71513 0.21500 -0.05172
 C1446 C 0.72310 0.22303 -0.03921
 H1447 H 0.66402 0.20920 -0.09161
 H1448 H 0.68018 0.22550 -0.06465
 H1449 H 0.73030 0.21296 -0.08710
 H1450 H 0.71415 0.19668 -0.11404
 H1451 H 0.68971 0.16101 -0.07793
 H1452 H 0.70588 0.17731 -0.05095
 C1453 C 0.18915 0.68862 -0.09496
 C1454 C 0.18085 0.70789 -0.09031
 C1455 C 0.18959 0.71668 -0.07582
 C1456 C 0.20578 0.70534 -0.06739
 C1457 C 0.21879 0.70104 -0.08395
 C1458 C 0.21005 0.69226 -0.09843
 C1459 C 0.18837 0.67760 -0.07652
 C1460 C 0.19712 0.68640 -0.06202
 C1461 C 0.17983 0.67926 -0.11067
 C1462 C 0.17235 0.67177 -0.12380
 C1463 C 0.21528 0.71489 -0.05191
 C1464 C 0.22329 0.72293 -0.03942
 H1465 H 0.16912 0.71408 -0.09773
 H1466 H 0.18535 0.73040 -0.07083
 H1467 H 0.23358 0.70458 -0.08426
 H1468 H 0.21735 0.68827 -0.11115
 H1469 H 0.18155 0.66410 -0.07499
 H1470 H 0.19780 0.68043 -0.04806
 C1471 C 0.18892 0.18877 0.40559
 C1472 C 0.20797 0.18018 0.41059
 C1473 C 0.21671 0.18892 0.42511
 C1474 C 0.20555 0.20539 0.43322
 C1475 C 0.18639 0.19713 0.43842
 C1476 C 0.17764 0.18838 0.42389
 C1477 C 0.19296 0.20957 0.40197
 C1478 C 0.20170 0.21831 0.41648
 C1479 C 0.17960 0.17946 0.38985
 C1480 C 0.17214 0.17200 0.37669
 C1481 C 0.21505 0.21489 0.44874
 C1482 C 0.22305 0.22290 0.46125
 H1483 H 0.21405 0.16827 0.40337
 H1484 H 0.23029 0.18449 0.43033
 H1485 H 0.18024 0.19805 0.45229
 H1486 H 0.16399 0.18182 0.42530
 H1487 H 0.18928 0.21682 0.38912
 H1488 H 0.20550 0.23303 0.41606
 C1489 C 0.31079 0.40545 0.68927
 C1490 C 0.30722 0.40199 0.71017
 C1491 C 0.29845 0.41649 0.71892
 C1492 C 0.29409 0.43303 0.70591
 C1493 C 0.28272 0.42457 0.68978
 C1494 C 0.29149 0.41007 0.68103
 C1495 C 0.32179 0.42391 0.68845
 C1496 C 0.31301 0.43843 0.69720
 C1497 C 0.32014 0.38973 0.67995
 C1498 C 0.32763 0.37658 0.67247
 C1499 C 0.28456 0.44854 0.71542
 C1500 C 0.27654 0.46104 0.72343
 H1501 H 0.31124 0.38927 0.71747
 H1502 H 0.29496 0.41618 0.73370
 H1503 H 0.26898 0.42955 0.68558
 H1504 H 0.28527 0.40262 0.66934
 H1505 H 0.33527 0.42545 0.68160
 H1506 H 0.31897 0.45240 0.69785
 C1507 C 0.31128 0.90545 0.18853
 C1508 C 0.30663 0.92189 0.17548
 C1509 C 0.29787 0.93639 0.18428
 C1510 C 0.29463 0.93301 0.20525
 C1511 C 0.31408 0.92857 0.21325
 C1512 C 0.32283 0.91408 0.20445
 C1513 C 0.29254 0.89999 0.19753
 C1514 C 0.28379 0.91447 0.20632
 C1515 C 0.32062 0.88975 0.17916
 C1516 C 0.32811 0.87661 0.17166
 C1517 C 0.28511 0.94849 0.21481
 C1518 C 0.27711 0.96098 0.22285
 H1519 H 0.30994 0.92213 0.16065
 H1520 H 0.29367 0.94905 0.17699
 H1521 H 0.32042 0.93615 0.22479
 H1522 H 0.33668 0.90924 0.20846
 H1523 H 0.28665 0.88598 0.19705
 H1524 H 0.27041 0.91285 0.21336
 C1525 C 0.81118 0.40548 0.18880
 C1526 C 0.80756 0.40196 0.20968
 C1527 C 0.79881 0.41645 0.21846
 C1528 C 0.79453 0.43305 0.20551
 C1529 C 0.78316 0.42468 0.18931
 C1530 C 0.79192 0.41019 0.18053
 C1531 C 0.82223 0.42392 0.18806
 C1532 C 0.81347 0.43843 0.19685
 C1533 C 0.82052 0.38977 0.17944
 C1534 C 0.82799 0.37664 0.17194
 C1535 C 0.78501 0.44854 0.21505
 C1536 C 0.77700 0.46104 0.22309
 H1537 H 0.81154 0.38921 0.21694
 H1538 H 0.79529 0.41610 0.23323
 H1539 H 0.76945 0.42971 0.18510
 H1540 H 0.78570 0.40280 0.16880
 H1541 H 0.83574 0.42545 0.18124
 H1542 H 0.81947 0.45239 0.19756
 C1543 C 0.81134 0.90601 0.68902
 C1544 C 0.80771 0.90253 0.70990
 C1545 C 0.79896 0.91705 0.71864
 C1546 C 0.79470 0.93363 0.70565
 C1547 C 0.78334 0.92523 0.68947
 C1548 C 0.79208 0.91071 0.68073
 C1549 C 0.82241 0.92443 0.68825
 C1550 C 0.81366 0.93897 0.69700
 C1551 C 0.82066 0.89027 0.67970
 C1552 C 0.82813 0.87710 0.67222
 C1553 C 0.78519 0.94915 0.71516
 C1554 C 0.77719 0.96167 0.72316
 H1555 H 0.81167 0.88979 0.71719
 H1556 H 0.79543 0.91674 0.73342
 H1557 H 0.76963 0.93026 0.68524
 H1558 H 0.78587 0.90330 0.66901
 H1559 H 0.83592 0.92594 0.68143
 H1560 H 0.81966 0.95292 0.69768
 C1561 C 0.68902 0.59485 0.68944
 C1562 C 0.70030 0.58234 0.67609
 C1563 C 0.70906 0.56780 0.68480
 C1564 C 0.70568 0.56719 0.70601
 C1565 C 0.68430 0.56694 0.70827
 C1566 C 0.67554 0.58149 0.69956
 C1567 C 0.70308 0.60103 0.70446
 C1568 C 0.71183 0.58650 0.71317
 C1569 C 0.67969 0.61060 0.68015
 C1570 C 0.67221 0.62377 0.67270
 C1571 C 0.71521 0.55165 0.71548
 C1572 C 0.72322 0.53912 0.72345
 H1573 H 0.70129 0.58469 0.66111
 H1574 H 0.71756 0.55769 0.67729
 H1575 H 0.67672 0.55628 0.71602
 H1576 H 0.66045 0.58328 0.69984
 H1577 H 0.70591 0.61555 0.70796
 H1578 H 0.72216 0.58858 0.72412
 C1579 C 0.68888 0.09413 0.18886
 C1580 C 0.70047 0.08180 0.17561
 C1581 C 0.70921 0.06727 0.18437
 C1582 C 0.70549 0.06650 0.20552
 C1583 C 0.68408 0.06607 0.20743
 C1584 C 0.67534 0.08060 0.19867
 C1585 C 0.70264 0.10033 0.20414
 C1586 C 0.71137 0.08582 0.21290
 C1587 C 0.67957 0.10987 0.17952
 C1588 C 0.67211 0.12303 0.17203
 C1589 C 0.71499 0.05098 0.21504
 C1590 C 0.72299 0.03846 0.22306
 H1591 H 0.70169 0.08426 0.16066
 H1592 H 0.71791 0.05728 0.17693
 H1593 H 0.67646 0.05529 0.21499
 H1594 H 0.66023 0.08227 0.19871
 H1595 H 0.70529 0.11485 0.20777
 H1596 H 0.72150 0.08791 0.22403
 C1597 C 0.18881 0.59463 0.18878
 C1598 C 0.20039 0.58228 0.17554
 C1599 C 0.20914 0.56777 0.18432
 C1600 C 0.20546 0.56704 0.20547
 C1601 C 0.18405 0.56660 0.20741
 C1602 C 0.17530 0.58111 0.19864
 C1603 C 0.20259 0.60086 0.20404
 C1604 C 0.21134 0.58637 0.21281
 C1605 C 0.17948 0.61035 0.17943
 C1606 C 0.17201 0.62349 0.17193
 C1607 C 0.21498 0.55154 0.21501
 C1608 C 0.22298 0.53903 0.22303
 H1609 H 0.20159 0.58472 0.16059
 H1610 H 0.21785 0.55777 0.17688
 H1611 H 0.17644 0.55583 0.21500
 H1612 H 0.16019 0.58278 0.19870
 H1613 H 0.20525 0.61539 0.20764
 H1614 H 0.22148 0.58848 0.22392
 C1615 C 0.18886 0.09409 0.68931
 C1616 C 0.18516 0.09330 0.71045
 C1617 C 0.19394 0.07880 0.71920
 C1618 C 0.20555 0.06650 0.70596
 C1619 C 0.21904 0.08007 0.69614
 C1620 C 0.21027 0.09457 0.68739
 C1621 C 0.18302 0.07476 0.68191
 C1622 C 0.19180 0.06025 0.69067
 C1623 C 0.17951 0.10981 0.67997
 C1624 C 0.17202 0.12295 0.67249
 C1625 C 0.21509 0.05100 0.71547
 C1626 C 0.22313 0.03849 0.72346
 H1627 H 0.17641 0.10324 0.71790
 H1628 H 0.19269 0.07632 0.73414
 H1629 H 0.23415 0.07843 0.69606
 H1630 H 0.21787 0.10535 0.67981
 H1631 H 0.17289 0.07267 0.67079
 H1632 H 0.18919 0.04572 0.68705
 C1633 C 0.31116 0.59474 0.31083
 C1634 C 0.31633 0.59282 0.29007
 C1635 C 0.30756 0.57830 0.28134
 C1636 C 0.29446 0.56713 0.29423
 C1637 C 0.28094 0.58169 0.30241
 C1638 C 0.28972 0.59620 0.31113
 C1639 C 0.31556 0.57556 0.31948
 C1640 C 0.30678 0.56103 0.31075
 C1641 C 0.32051 0.61048 0.32013
 C1642 C 0.32800 0.62364 0.32759
 C1643 C 0.28492 0.55161 0.28474
 C1644 C 0.27689 0.53909 0.27677
 H1645 H 0.32605 0.60203 0.28286
 H1646 H 0.30976 0.57508 0.26666
 H1647 H 0.26580 0.58068 0.30145
 H1648 H 0.28209 0.60762 0.31764
 H1649 H 0.32476 0.57356 0.33141
 H1650 H 0.30845 0.54658 0.31519
 C1651 C 0.31110 0.09417 0.81139
 C1652 C 0.31665 0.09201 0.79075
 C1653 C 0.30793 0.07748 0.78200
 C1654 C 0.29450 0.06653 0.79473
 C1655 C 0.28095 0.08128 0.80251
 C1656 C 0.28967 0.09580 0.81126
 C1657 C 0.31518 0.07504 0.82031
 C1658 C 0.30645 0.06049 0.81154
 C1659 C 0.32040 0.10993 0.82072
 C1660 C 0.32785 0.12310 0.82819
 C1661 C 0.28502 0.05100 0.78521
 C1662 C 0.27703 0.03848 0.77719
 H1663 H 0.32658 0.10108 0.78365
 H1664 H 0.31039 0.07410 0.76739
 H1665 H 0.26582 0.08038 0.80126
 H1666 H 0.28201 0.10734 0.81752
 H1667 H 0.32413 0.07308 0.83243
 H1668 H 0.30792 0.04608 0.81615
 C1669 C 0.81110 0.59476 0.81140
 C1670 C 0.79462 0.58663 0.82257
 C1671 C 0.78588 0.57209 0.81383
 C1672 C 0.79448 0.56710 0.79478
 C1673 C 0.81528 0.56347 0.79881
 C1674 C 0.82403 0.57802 0.80755
 C1675 C 0.80284 0.59995 0.79227
 C1676 C 0.79411 0.58542 0.78354
 C1677 C 0.82042 0.61051 0.82071
 C1678 C 0.82788 0.62369 0.82816
 C1679 C 0.78499 0.55157 0.78528
 C1680 C 0.77700 0.53905 0.77726
 H1681 H 0.79022 0.59182 0.83615
 H1682 H 0.77399 0.56482 0.81993
 H1683 H 0.82250 0.55061 0.79513
 H1684 H 0.83873 0.57762 0.81136
 H1685 H 0.80377 0.61382 0.78611
 H1686 H 0.78756 0.58685 0.76990
 C1687 C 0.81110 0.09414 0.31090
 C1688 C 0.81666 0.09191 0.29027
 C1689 C 0.80789 0.07740 0.28154
 C1690 C 0.79442 0.06652 0.29429
 C1691 C 0.78091 0.08133 0.30204
 C1692 C 0.78967 0.09584 0.31077
 C1693 C 0.81511 0.07501 0.31986
 C1694 C 0.80633 0.06048 0.31112
 C1695 C 0.82045 0.10988 0.32021
 C1696 C 0.82794 0.12303 0.32767
 C1697 C 0.78488 0.05100 0.28480
 C1698 C 0.77686 0.03849 0.27681
 H1699 H 0.82662 0.10094 0.28315
 H1700 H 0.81034 0.07399 0.26694
 H1701 H 0.76578 0.08048 0.30079
 H1702 H 0.78206 0.10742 0.31700
 H1703 H 0.82405 0.07305 0.33198
 H1704 H 0.80775 0.04607 0.31575
 C1705 C 0.68901 0.40516 0.31107
 C1706 C 0.68745 0.42378 0.32169
 C1707 C 0.69620 0.43834 0.31294
 C1708 C 0.70565 0.43282 0.29445
 C1709 C 0.69007 0.42383 0.28270
 C1710 C 0.68131 0.40929 0.29144
 C1711 C 0.71009 0.40210 0.30826
 C1712 C 0.71884 0.41663 0.29952
 C1713 C 0.67968 0.38940 0.32038
 C1714 C 0.67220 0.37623 0.32784
 C1715 C 0.71517 0.44837 0.28495
 C1716 C 0.72318 0.46090 0.27695
 H1717 H 0.68011 0.42540 0.33490
 H1718 H 0.69637 0.45242 0.31866
 H1719 H 0.68623 0.42848 0.26876
 H1720 H 0.66998 0.40149 0.28498
 H1721 H 0.71751 0.38961 0.31275
 H1722 H 0.73375 0.41659 0.29653
 C1723 C 0.68902 0.90606 0.81119
 C1724 C 0.68750 0.92471 0.82177
 C1725 C 0.69629 0.93922 0.81299
 C1726 C 0.70572 0.93366 0.79450
 C1727 C 0.69011 0.92467 0.78279
 C1728 C 0.68133 0.91016 0.79156
 C1729 C 0.71010 0.90295 0.80838
 C1730 C 0.71887 0.91745 0.79961
 C1731 C 0.67966 0.89034 0.82054
 C1732 C 0.67216 0.87719 0.82802
 C1733 C 0.71526 0.94916 0.78497
 C1734 C 0.72329 0.96167 0.77695
 H1735 H 0.68017 0.92636 0.83498
 H1736 H 0.69648 0.95332 0.81868
 H1737 H 0.68627 0.92930 0.76883
 H1738 H 0.66998 0.90237 0.78512
 H1739 H 0.71749 0.89046 0.81289
 H1740 H 0.73378 0.91737 0.79662
 C1741 C 0.18842 0.40530 0.81130
 C1742 C 0.18529 0.40573 0.79006
 C1743 C 0.19405 0.42026 0.78133
 C1744 C 0.20509 0.43296 0.79469
 C1745 C 0.21853 0.41977 0.80505
 C1746 C 0.20977 0.40524 0.81378
 C1747 C 0.18205 0.42461 0.81826
 C1748 C 0.19082 0.43917 0.80952
 C1749 C 0.17908 0.38954 0.82060
 C1750 C 0.17160 0.37636 0.82805
 C1751 C 0.21461 0.44849 0.78520
 C1752 C 0.22264 0.46102 0.77721
 H1753 H 0.17691 0.39552 0.78253
 H1754 H 0.19317 0.42250 0.76633
 H1755 H 0.23360 0.42169 0.80551
 H1756 H 0.21734 0.39471 0.82171
 H1757 H 0.17158 0.42668 0.82909
 H1758 H 0.18787 0.45370 0.81286
 C1759 C 0.18889 0.90521 0.31081
 C1760 C 0.18594 0.92417 0.32051
 C1761 C 0.19474 0.93869 0.31175
 C1762 C 0.20561 0.93282 0.29417
 C1763 C 0.19119 0.92277 0.28181
 C1764 C 0.18240 0.90826 0.29056
 C1765 C 0.21022 0.90286 0.30953
 C1766 C 0.21901 0.91737 0.30078
 C1767 C 0.17952 0.88948 0.32013
 C1768 C 0.17202 0.87633 0.32760
 C1769 C 0.21517 0.94833 0.28466
 C1770 C 0.22321 0.96085 0.27667
 H1771 H 0.17768 0.92601 0.33313
 H1772 H 0.19401 0.95298 0.31687
 H1773 H 0.18814 0.92671 0.26746
 H1774 H 0.17182 0.89977 0.28370
 H1775 H 0.21776 0.89086 0.31502
 H1776 H 0.23407 0.91779 0.29879
 C1777 C 0.40527 0.31113 0.68919
 C1778 C 0.40454 0.31252 0.71061
 C1779 C 0.41906 0.30375 0.71932
 C1780 C 0.43289 0.29443 0.70577
 C1781 C 0.43909 0.31014 0.69245
 C1782 C 0.42456 0.31892 0.68373
 C1783 C 0.40637 0.29007 0.68501
 C1784 C 0.42088 0.28130 0.69373
 C1785 C 0.38953 0.32047 0.67989
 C1786 C 0.37637 0.32795 0.67244
 C1787 C 0.44841 0.28490 0.71524
 C1788 C 0.46093 0.27686 0.72322
 H1789 H 0.39360 0.31977 0.71826
 H1790 H 0.42054 0.30349 0.73444
 H1791 H 0.45360 0.31402 0.69008
 H1792 H 0.42662 0.33033 0.67388
 H1793 H 0.39661 0.28270 0.67599
 H1794 H 0.42356 0.26641 0.69217
 C1795 C 0.40576 0.81127 0.18844
 C1796 C 0.41959 0.80187 0.17494
 C1797 C 0.43411 0.79314 0.18373
 C1798 C 0.43338 0.79469 0.20514
 C1799 C 0.41409 0.78695 0.21064
 C1800 C 0.39958 0.79566 0.20187
 C1801 C 0.41777 0.82450 0.20039
 C1802 C 0.43229 0.81578 0.20917
 C1803 C 0.39002 0.82056 0.17909
 C1804 C 0.37686 0.82802 0.17161
 C1805 C 0.44889 0.78521 0.21468
 C1806 C 0.46140 0.77723 0.22272
 H1807 H 0.41810 0.80205 0.15982
 H1808 H 0.44508 0.78586 0.17613
 H1809 H 0.41201 0.77561 0.22056
 H1810 H 0.38507 0.79178 0.20427
 H1811 H 0.41511 0.83940 0.20182
 H1812 H 0.44208 0.82321 0.21812
 C1813 C 0.90555 0.31113 0.18863
 C1814 C 0.90482 0.31259 0.21004
 C1815 C 0.91932 0.30382 0.21879
 C1816 C 0.93314 0.29445 0.20527
 C1817 C 0.93937 0.31011 0.19191
 C1818 C 0.92485 0.31888 0.18315
 C1819 C 0.90662 0.29006 0.18452
 C1820 C 0.92112 0.28129 0.19327
 C1821 C 0.88982 0.32047 0.17930
 C1822 C 0.87667 0.32796 0.17184
 C1823 C 0.94865 0.28493 0.21479
 C1824 C 0.96115 0.27691 0.22280
 H1825 H 0.89388 0.31988 0.21767
 H1826 H 0.92080 0.30361 0.23391
 H1827 H 0.95388 0.31396 0.18953
 H1828 H 0.92693 0.33025 0.17327
 H1829 H 0.89685 0.28267 0.17552
 H1830 H 0.92378 0.26640 0.19176
 C1831 C 0.90560 0.81148 0.68896
 C1832 C 0.91935 0.80204 0.67541
 C1833 C 0.93387 0.79324 0.68415
 C1834 C 0.93320 0.79476 0.70556
 C1835 C 0.91389 0.78709 0.71110
 C1836 C 0.89939 0.79588 0.70238
 C1837 C 0.91769 0.82464 0.70090
 C1838 C 0.93221 0.81585 0.70963
 C1839 C 0.88988 0.82085 0.67966
 C1840 C 0.87673 0.82835 0.67220
 C1841 C 0.94870 0.78521 0.71505
 C1842 C 0.96120 0.77716 0.72303
 H1843 H 0.91783 0.80225 0.66030
 H1844 H 0.94478 0.78592 0.67651
 H1845 H 0.91179 0.77575 0.72101
 H1846 H 0.88488 0.79206 0.70482
 H1847 H 0.91510 0.83955 0.70235
 H1848 H 0.94204 0.82323 0.71856
 C1849 C 0.59465 0.31068 0.31100
 C1850 C 0.59319 0.31534 0.29008
 C1851 C 0.57868 0.30660 0.28132
 C1852 C 0.56704 0.29405 0.29433
 C1853 C 0.56087 0.30689 0.31041
 C1854 C 0.57540 0.31564 0.31919
 C1855 C 0.59571 0.28923 0.31188
 C1856 C 0.58120 0.28049 0.30312
 C1857 C 0.61039 0.32000 0.32034
 C1858 C 0.62354 0.32748 0.32782
 C1859 C 0.55152 0.28455 0.28480
 C1860 C 0.53901 0.27656 0.27678
 H1861 H 0.60271 0.32470 0.28280
 H1862 H 0.57577 0.30848 0.26653
 H1863 H 0.54639 0.30894 0.31455
 H1864 H 0.57336 0.32518 0.33083
 H1865 H 0.60687 0.28157 0.31880
 H1866 H 0.57994 0.26535 0.30253
 C1867 C 0.59451 0.81172 0.81128
 C1868 C 0.60056 0.79957 0.79464
 C1869 C 0.58604 0.79082 0.78590
 C1870 C 0.56688 0.79507 0.79465
 C1871 C 0.56534 0.81651 0.79453
 C1872 C 0.57987 0.82527 0.80327
 C1873 C 0.58343 0.79849 0.82411
 C1874 C 0.56890 0.78973 0.81537
 C1875 C 0.61025 0.82106 0.82060
 C1876 C 0.62341 0.82853 0.82806
 C1877 C 0.55136 0.78555 0.78515
 C1878 C 0.53885 0.77753 0.77715
 H1879 H 0.61498 0.79797 0.79011
 H1880 H 0.58804 0.78173 0.77389
 H1881 H 0.55385 0.82414 0.78814
 H1882 H 0.58083 0.84041 0.80438
 H1883 H 0.58670 0.79621 0.83877
 H1884 H 0.55973 0.77995 0.82254
 C1885 C 0.09413 0.31075 0.81106
 C1886 C 0.09705 0.30843 0.78991
 C1887 C 0.08256 0.29968 0.78113
 C1888 C 0.06655 0.29409 0.79435
 C1889 C 0.06087 0.31233 0.80421
 C1890 C 0.07538 0.32109 0.81301
 C1891 C 0.09033 0.29090 0.81839
 C1892 C 0.07584 0.28214 0.80960
 C1893 C 0.10984 0.32009 0.82042
 C1894 C 0.12297 0.32757 0.82793
 C1895 C 0.05106 0.28457 0.78480
 C1896 C 0.03856 0.27657 0.77678
 H1897 H 0.10941 0.31325 0.78247
 H1898 H 0.08251 0.29700 0.76617
 H1899 H 0.04671 0.31786 0.80429
 H1900 H 0.07365 0.33413 0.82062
 H1901 H 0.09831 0.28430 0.82951
 H1902 H 0.07141 0.26804 0.81320
 C1903 C 0.09436 0.81092 0.31076
 C1904 C 0.09730 0.80847 0.28962
 C1905 C 0.08279 0.79974 0.28086
 C1906 C 0.06674 0.79430 0.29408
 C1907 C 0.06112 0.81261 0.30385
 C1908 C 0.07565 0.82135 0.31262
 C1909 C 0.09046 0.79111 0.31818
 C1910 C 0.07594 0.78238 0.30941
 C1911 C 0.11010 0.82022 0.32010
 C1912 C 0.12325 0.82768 0.32759
 C1913 C 0.05122 0.78481 0.28455
 C1914 C 0.03870 0.77682 0.27653
 H1915 H 0.10970 0.81320 0.28219
 H1916 H 0.08276 0.79699 0.26592
 H1917 H 0.04699 0.81821 0.30387
 H1918 H 0.07397 0.83444 0.32016
 H1919 H 0.09839 0.78454 0.32934
 H1920 H 0.07143 0.76832 0.31307
 C1921 C 0.59465 0.68932 0.68948
 C1922 C 0.58037 0.67578 0.69816
 C1923 C 0.56584 0.68456 0.70688
 C1924 C 0.56702 0.70601 0.70605
 C1925 C 0.56862 0.71073 0.68515
 C1926 C 0.58315 0.70195 0.67644
 C1927 C 0.60076 0.70210 0.70563
 C1928 C 0.58624 0.71087 0.71433
 C1929 C 0.61039 0.67997 0.68019
 C1930 C 0.62355 0.67248 0.67273
 C1931 C 0.55149 0.71555 0.71552
 C1932 C 0.53896 0.72358 0.72348
 H1933 H 0.58157 0.66064 0.69751
 H1934 H 0.55458 0.67694 0.71370
 H1935 H 0.55917 0.72012 0.67784
 H1936 H 0.58615 0.70382 0.66166
 H1937 H 0.61523 0.70409 0.70985
 H1938 H 0.58828 0.72037 0.72602
 C1939 C 0.59457 0.18857 0.18878
 C1940 C 0.58024 0.17502 0.19738
 C1941 C 0.56572 0.18379 0.20612
 C1942 C 0.56695 0.20525 0.20540
 C1943 C 0.56860 0.21007 0.18453
 C1944 C 0.58312 0.20130 0.17578
 C1945 C 0.60069 0.20126 0.20500
 C1946 C 0.58618 0.21002 0.21373
 C1947 C 0.61030 0.17923 0.17947
 C1948 C 0.62345 0.17174 0.17200
 C1949 C 0.55144 0.21478 0.21490
 C1950 C 0.53893 0.22280 0.22290
 H1951 H 0.58140 0.15988 0.19665
 H1952 H 0.55443 0.17617 0.21288
 H1953 H 0.55918 0.21952 0.17725
 H1954 H 0.58614 0.20323 0.16102
 H1955 H 0.61515 0.20319 0.20925
 H1956 H 0.58822 0.21945 0.22546
 C1957 C 0.09438 0.68892 0.18857
 C1958 C 0.08012 0.67534 0.19723
 C1959 C 0.06557 0.68409 0.20597
 C1960 C 0.06673 0.70555 0.20520
 C1961 C 0.06832 0.71031 0.18430
 C1962 C 0.08286 0.70157 0.17556
 C1963 C 0.10048 0.70167 0.20475
 C1964 C 0.08595 0.71040 0.21348
 C1965 C 0.11013 0.67961 0.17926
 C1966 C 0.12330 0.67214 0.17180
 C1967 C 0.05120 0.71505 0.21470
 C1968 C 0.03867 0.72305 0.22270
 H1969 H 0.08132 0.66021 0.19654
 H1970 H 0.05432 0.67644 0.21277
 H1971 H 0.05886 0.71971 0.17702
 H1972 H 0.08586 0.70348 0.16079
 H1973 H 0.11494 0.70366 0.20898
 H1974 H 0.08798 0.71987 0.22519
 C1975 C 0.09432 0.18836 0.68913
 C1976 C 0.09208 0.18286 0.70978
 C1977 C 0.07754 0.19162 0.71848
 C1978 C 0.06666 0.20503 0.70569
 C1979 C 0.06065 0.19305 0.68889
 C1980 C 0.07520 0.18428 0.68018
 C1981 C 0.09599 0.20979 0.68920
 C1982 C 0.08146 0.21855 0.69790
 C1983 C 0.11008 0.17902 0.67985
 C1984 C 0.12325 0.17155 0.67241
 C1985 C 0.05113 0.21456 0.71515
 C1986 C 0.03860 0.22260 0.72310
 H1987 H 0.10110 0.17294 0.71693
 H1988 H 0.07412 0.18921 0.73309
 H1989 H 0.04625 0.19158 0.68426
 H1990 H 0.07326 0.17529 0.66808
 H1991 H 0.10757 0.21741 0.68295
 H1992 H 0.08059 0.23368 0.69910
 C1993 C 0.40559 0.68920 0.31076
 C1994 C 0.42455 0.68616 0.32041
 C1995 C 0.43908 0.69494 0.31165
 C1996 C 0.43321 0.70587 0.29410
 C1997 C 0.41782 0.71929 0.30078
 C1998 C 0.40330 0.71053 0.30953
 C1999 C 0.40857 0.68274 0.29049
 C2000 C 0.42309 0.69151 0.28173
 C2001 C 0.38985 0.67985 0.32009
 C2002 C 0.37669 0.67236 0.32757
 C2003 C 0.44874 0.71540 0.28459
 C2004 C 0.46126 0.72341 0.27659
 H2005 H 0.42640 0.67786 0.33301
 H2006 H 0.45338 0.69415 0.31674
 H2007 H 0.41829 0.73437 0.29882
 H2008 H 0.39134 0.71810 0.31507
 H2009 H 0.40004 0.67220 0.28362
 H2010 H 0.42699 0.68847 0.26737
 C2011 C 0.40535 0.18872 0.81124
 C2012 C 0.41812 0.19971 0.82459
 C2013 C 0.43263 0.20848 0.81581
 C2014 C 0.43295 0.20539 0.79455
 C2015 C 0.41362 0.21179 0.78771
 C2016 C 0.39912 0.20302 0.79648
 C2017 C 0.41847 0.17527 0.80080
 C2018 C 0.43298 0.18404 0.79202
 C2019 C 0.38963 0.17937 0.82060
 C2020 C 0.37648 0.17188 0.82809
 C2021 C 0.44846 0.21492 0.78501
 C2022 C 0.46097 0.22294 0.77698
 H2023 H 0.41595 0.20052 0.83960
 H2024 H 0.44291 0.21680 0.82330
 H2025 H 0.41150 0.22228 0.77692
 H2026 H 0.38458 0.20602 0.79319
 H2027 H 0.41653 0.16020 0.80035
 H2028 H 0.44349 0.17648 0.78405
 C2029 C 0.90546 0.68919 0.81117
 C2030 C 0.92443 0.68615 0.82080
 C2031 C 0.93897 0.69489 0.81200
 C2032 C 0.93308 0.70581 0.79444
 C2033 C 0.91772 0.71926 0.80113
 C2034 C 0.90320 0.71053 0.80992
 C2035 C 0.90840 0.68271 0.79090
 C2036 C 0.92291 0.69144 0.78211
 C2037 C 0.88972 0.67988 0.82054
 C2038 C 0.87657 0.67241 0.82804
 C2039 C 0.94860 0.71530 0.78489
 C2040 C 0.96112 0.72329 0.77685
 H2041 H 0.92629 0.67786 0.83340
 H2042 H 0.95327 0.69409 0.81706
 H2043 H 0.91820 0.73433 0.79915
 H2044 H 0.89126 0.71812 0.81547
 H2045 H 0.89984 0.67217 0.78406
 H2046 H 0.92679 0.68838 0.76774
 C2047 C 0.90548 0.18866 0.31076
 C2048 C 0.90168 0.19303 0.29008
 C2049 C 0.91617 0.20183 0.28133
 C2050 C 0.93307 0.20540 0.29412
 C2051 C 0.93823 0.18609 0.30204
 C2052 C 0.92372 0.17729 0.31080
 C2053 C 0.91067 0.20756 0.31957
 C2054 C 0.92517 0.21636 0.31082
 C2055 C 0.88975 0.17928 0.32009
 C2056 C 0.87661 0.17177 0.32758
 C2057 C 0.94857 0.21496 0.28461
 C2058 C 0.96108 0.22301 0.27661
 H2059 H 0.88874 0.18952 0.28292
 H2060 H 0.91565 0.20585 0.26669
 H2061 H 0.95206 0.17989 0.30089
 H2062 H 0.92511 0.16354 0.31715
 H2063 H 0.90359 0.21351 0.33163
 H2064 H 0.93052 0.22985 0.31539
 C2065 C 0.31089 0.31106 0.59496
 C2066 C 0.29686 0.29600 0.60118
 C2067 C 0.28813 0.28723 0.58669
 C2068 C 0.29428 0.29437 0.56737
 C2069 C 0.31566 0.29217 0.56715
 C2070 C 0.32440 0.30095 0.58166
 C2071 C 0.29960 0.32437 0.58242
 C2072 C 0.29086 0.31559 0.56791
 C2073 C 0.32020 0.32042 0.61068
 C2074 C 0.32767 0.32791 0.62382
 C2075 C 0.28479 0.28483 0.55187
 C2076 C 0.27680 0.27680 0.53937
 H2077 H 0.29403 0.29253 0.61570
 H2078 H 0.27783 0.27624 0.58880
 H2079 H 0.32327 0.28441 0.55652
 H2080 H 0.33949 0.30071 0.58346
 H2081 H 0.29857 0.33936 0.58472
 H2082 H 0.28235 0.32306 0.55778
 C2083 C 0.31132 0.81112 0.09416
 C2084 C 0.29738 0.79598 0.10039
 C2085 C 0.28862 0.78722 0.08590
 C2086 C 0.29465 0.79445 0.06659
 C2087 C 0.31604 0.79234 0.06625
 C2088 C 0.32481 0.80111 0.08075
 C2089 C 0.29991 0.82442 0.08171
 C2090 C 0.29114 0.81565 0.06721
 C2091 C 0.32066 0.82046 0.10987
 C2092 C 0.32814 0.82795 0.12300
 C2093 C 0.28512 0.78492 0.05110
 C2094 C 0.27711 0.77690 0.03860
 H2095 H 0.29463 0.79244 0.11491
 H2096 H 0.27837 0.77618 0.08802
 H2097 H 0.32363 0.78466 0.05556
 H2098 H 0.33991 0.80094 0.08248
 H2099 H 0.29883 0.83940 0.08407
 H2100 H 0.28255 0.82312 0.05715
 C2101 C 0.81109 0.31119 0.09441
 C2102 C 0.82239 0.31144 0.07613
 C2103 C 0.81361 0.30268 0.06163
 C2104 C 0.79440 0.29453 0.06685
 C2105 C 0.78331 0.31111 0.07487
 C2106 C 0.79209 0.31986 0.08936
 C2107 C 0.80693 0.29043 0.09813
 C2108 C 0.79816 0.28168 0.08365
 C2109 C 0.82045 0.32052 0.11012
 C2110 C 0.82794 0.32800 0.12325
 C2111 C 0.78486 0.28501 0.05136
 C2112 C 0.77685 0.27699 0.03887
 H2113 H 0.83607 0.31793 0.07470
 H2114 H 0.81976 0.30166 0.04777
 H2115 H 0.76977 0.31558 0.06962
 H2116 H 0.78606 0.33184 0.09652
 H2117 H 0.81056 0.28323 0.11101
 H2118 H 0.79428 0.26698 0.08413
 C2119 C 0.81116 0.81157 0.59477
 C2120 C 0.79712 0.79653 0.60102
 C2121 C 0.78836 0.78777 0.58654
 C2122 C 0.79448 0.79490 0.56721
 C2123 C 0.81586 0.79267 0.56695
 C2124 C 0.82464 0.80144 0.58145
 C2125 C 0.79987 0.82489 0.58225
 C2126 C 0.79110 0.81612 0.56775
 C2127 C 0.82051 0.82092 0.61048
 C2128 C 0.82801 0.82840 0.62361
 C2129 C 0.78495 0.78537 0.55173
 C2130 C 0.77693 0.77734 0.53924
 H2131 H 0.79431 0.79307 0.61554
 H2132 H 0.77804 0.77680 0.58866
 H2133 H 0.82344 0.78490 0.55631
 H2134 H 0.83973 0.80119 0.58323
 H2135 H 0.79887 0.83989 0.58455
 H2136 H 0.78258 0.82361 0.55763
 C2137 C 0.31116 0.68904 0.40514
 C2138 C 0.30991 0.67700 0.42291
 C2139 C 0.30113 0.68573 0.43744
 C2140 C 0.29447 0.70563 0.43276
 C2141 C 0.28212 0.70341 0.41533
 C2142 C 0.29089 0.69470 0.40082
 C2143 C 0.32082 0.70721 0.41136
 C2144 C 0.31204 0.71593 0.42587
 C2145 C 0.32051 0.67975 0.38941
 C2146 C 0.32800 0.67229 0.37626
 C2147 C 0.28493 0.71510 0.44827
 C2148 C 0.27690 0.72308 0.46079
 H2149 H 0.31544 0.66288 0.42398
 H2150 H 0.29913 0.67908 0.45096
 H2151 H 0.26774 0.70826 0.41446
 H2152 H 0.28401 0.69208 0.38753
 H2153 H 0.33345 0.71274 0.40493
 H2154 H 0.31716 0.72893 0.43188
 C2155 C 0.31094 0.18874 0.90557
 C2156 C 0.32358 0.20252 0.91616
 C2157 C 0.31482 0.21131 0.93065
 C2158 C 0.29428 0.20545 0.93313
 C2159 C 0.29476 0.18404 0.93508
 C2160 C 0.30352 0.17525 0.92058
 C2161 C 0.29386 0.20033 0.89958
 C2162 C 0.28511 0.20911 0.91406
 C2163 C 0.32027 0.17938 0.88986
 C2164 C 0.32776 0.17188 0.87674
 C2165 C 0.28476 0.21499 0.94862
 C2166 C 0.27675 0.22302 0.96111
 H2167 H 0.33813 0.20514 0.91260
 H2168 H 0.32187 0.22145 0.93951
 H2169 H 0.28877 0.17646 0.94682
 H2170 H 0.30503 0.16014 0.91989
 H2171 H 0.28906 0.20153 0.88521
 H2172 H 0.27282 0.21783 0.91209
 C2173 C 0.81105 0.68933 0.90555
 C2174 C 0.80978 0.67734 0.92335
 C2175 C 0.80102 0.68613 0.93785
 C2176 C 0.79440 0.70603 0.93312
 C2177 C 0.78203 0.70378 0.91570
 C2178 C 0.79078 0.69501 0.90121
 C2179 C 0.82074 0.70750 0.91170
 C2180 C 0.81199 0.71628 0.92620
 C2181 C 0.82038 0.67997 0.88984
 C2182 C 0.82786 0.67247 0.87671
 C2183 C 0.78488 0.71556 0.94861
 C2184 C 0.77688 0.72358 0.96111
 H2185 H 0.81528 0.66321 0.92446
 H2186 H 0.79902 0.67952 0.95139
 H2187 H 0.76766 0.70865 0.91482
 H2188 H 0.78390 0.69236 0.88793
 H2189 H 0.83338 0.71298 0.90525
 H2190 H 0.81713 0.72928 0.93217
 C2191 C 0.81125 0.18849 0.40525
 C2192 C 0.80417 0.20820 0.40042
 C2193 C 0.79545 0.21695 0.41494
 C2194 C 0.79464 0.20514 0.43287
 C2195 C 0.81508 0.19990 0.43700
 C2196 C 0.82381 0.19114 0.42247
 C2197 C 0.79396 0.17796 0.41250
 C2198 C 0.78523 0.18672 0.42703
 C2199 C 0.82055 0.17916 0.38950
 C2200 C 0.82801 0.17169 0.37634
 C2201 C 0.78515 0.21466 0.44839
 C2202 C 0.77717 0.22268 0.46091
 H2203 H 0.80587 0.21472 0.38680
 H2204 H 0.78967 0.23096 0.41374
 H2205 H 0.82206 0.20280 0.45018
 H2206 H 0.83828 0.18654 0.42319
 H2207 H 0.78901 0.16479 0.40676
 H2208 H 0.77281 0.18104 0.43372
 C2209 C 0.68908 0.31066 0.40531
 C2210 C 0.68098 0.31572 0.42456
 C2211 C 0.68977 0.30697 0.43907
 C2212 C 0.70578 0.29402 0.43289
 C2213 C 0.71882 0.30648 0.42117
 C2214 C 0.71004 0.31522 0.40668
 C2215 C 0.68808 0.28921 0.40431
 C2216 C 0.69686 0.28047 0.41881
 C2217 C 0.67972 0.31999 0.38959
 C2218 C 0.67223 0.32746 0.37645
 C2219 C 0.71532 0.28452 0.44838
 C2220 C 0.72334 0.27652 0.46089
 H2221 H 0.66938 0.32533 0.42661
 H2222 H 0.68569 0.30907 0.45355
 H2223 H 0.73364 0.30829 0.42402
 H2224 H 0.71734 0.32452 0.39712
 H2225 H 0.68108 0.28156 0.39321
 H2226 H 0.69738 0.26533 0.42011
 C2227 C 0.68888 0.81165 0.90556
 C2228 C 0.70256 0.79628 0.89936
 C2229 C 0.71130 0.78752 0.91386
 C2230 C 0.70552 0.79497 0.93315
 C2231 C 0.68410 0.79315 0.93366
 C2232 C 0.67535 0.80192 0.91915
 C2233 C 0.70057 0.82489 0.91781
 C2234 C 0.70931 0.81612 0.93232
 C2235 C 0.67956 0.82100 0.88984
 C2236 C 0.67209 0.82849 0.87670
 C2237 C 0.71503 0.78544 0.94866
 C2238 C 0.72303 0.77742 0.96116
 H2239 H 0.70515 0.79260 0.88485
 H2240 H 0.72137 0.77633 0.91176
 H2241 H 0.67648 0.78564 0.94447
 H2242 H 0.66023 0.80193 0.91753
 H2243 H 0.70184 0.83984 0.91532
 H2244 H 0.71808 0.82355 0.94226
 C2245 C 0.18844 0.31076 0.90548
 C2246 C 0.20214 0.29541 0.89929
 C2247 C 0.21091 0.28668 0.91378
 C2248 C 0.20514 0.29414 0.93308
 C2249 C 0.18373 0.29227 0.93361
 C2250 C 0.17494 0.30101 0.91910
 C2251 C 0.20011 0.32404 0.91771
 C2252 C 0.20889 0.31530 0.93222
 C2253 C 0.17909 0.32008 0.88976
 C2254 C 0.17160 0.32756 0.87662
 C2255 C 0.21469 0.28466 0.94858
 C2256 C 0.22273 0.27668 0.96109
 H2257 H 0.20473 0.29172 0.88478
 H2258 H 0.22101 0.27551 0.91169
 H2259 H 0.17613 0.28477 0.94443
 H2260 H 0.15983 0.30099 0.91749
 H2261 H 0.20135 0.33898 0.91519
 H2262 H 0.21765 0.32276 0.94214
 C2263 C 0.18870 0.81083 0.40515
 C2264 C 0.20238 0.79546 0.39898
 C2265 C 0.21114 0.78673 0.41348
 C2266 C 0.20536 0.79421 0.43277
 C2267 C 0.18394 0.79237 0.43329
 C2268 C 0.17518 0.80111 0.41876
 C2269 C 0.20038 0.82410 0.41738
 C2270 C 0.20914 0.81536 0.43190
 C2271 C 0.17937 0.82015 0.38942
 C2272 C 0.17190 0.82763 0.37627
 C2273 C 0.21488 0.78472 0.44828
 C2274 C 0.22290 0.77673 0.46080
 H2275 H 0.20498 0.79176 0.38447
 H2276 H 0.22122 0.77555 0.41140
 H2277 H 0.17633 0.78488 0.44411
 H2278 H 0.16006 0.80111 0.41714
 H2279 H 0.20164 0.83905 0.41486
 H2280 H 0.21790 0.82282 0.44182
 C2281 C 0.68901 0.68926 0.59511
 C2282 C 0.67579 0.69439 0.57897
 C2283 C 0.68454 0.70314 0.56442
 C2284 C 0.70564 0.70590 0.56746
 C2285 C 0.71330 0.68623 0.57154
 C2286 C 0.70455 0.67748 0.58608
 C2287 C 0.69851 0.70774 0.60061
 C2288 C 0.70725 0.71648 0.58608
 C2289 C 0.67969 0.67994 0.61086
 C2290 C 0.67222 0.67247 0.62402
 C2291 C 0.71515 0.71540 0.55193
 C2292 C 0.72314 0.72341 0.53940
 H2293 H 0.66088 0.69140 0.57895
 H2294 H 0.67713 0.70765 0.55195
 H2295 H 0.72459 0.67974 0.56370
 H2296 H 0.70835 0.66350 0.59069
 H2297 H 0.69838 0.71347 0.61468
 H2298 H 0.71461 0.72969 0.58772
 C2299 C 0.68901 0.18861 0.09451
 C2300 C 0.67700 0.20376 0.08512
 C2301 C 0.68574 0.21255 0.07062
 C2302 C 0.70565 0.20533 0.06692
 C2303 C 0.70346 0.18413 0.06409
 C2304 C 0.69471 0.17533 0.07860
 C2305 C 0.70717 0.19863 0.10017
 C2306 C 0.71591 0.20741 0.08567
 C2307 C 0.67968 0.17925 0.11023
 C2308 C 0.67219 0.17175 0.12337
 C2309 C 0.71516 0.21489 0.05142
 C2310 C 0.72315 0.22294 0.03891
 H2311 H 0.66286 0.20725 0.08948
 H2312 H 0.67910 0.22358 0.06254
 H2313 H 0.70834 0.17669 0.05178
 H2314 H 0.69209 0.16036 0.07873
 H2315 H 0.71268 0.19880 0.11433
 H2316 H 0.72891 0.21511 0.08742
 C2317 C 0.18894 0.68892 0.09432
 C2318 C 0.17865 0.70645 0.08734
 C2319 C 0.18744 0.71519 0.07282
 C2320 C 0.20565 0.70554 0.06672
 C2321 C 0.20003 0.68524 0.06242
 C2322 C 0.19124 0.67649 0.07695
 C2323 C 0.20880 0.69563 0.09904
 C2324 C 0.21758 0.70437 0.08453
 C2325 C 0.17957 0.67960 0.11005
 C2326 C 0.17207 0.67214 0.12320
 C2327 C 0.21520 0.71504 0.05120
 C2328 C 0.22323 0.72304 0.03869
 H2329 H 0.16561 0.71154 0.09325
 H2330 H 0.18192 0.72777 0.06631
 H2331 H 0.20271 0.67834 0.04915
 H2332 H 0.18639 0.66210 0.07612
 H2333 H 0.21540 0.69369 0.11258
 H2334 H 0.23170 0.70991 0.08566
 C2335 C 0.18885 0.18854 0.59497
 C2336 C 0.20405 0.17659 0.58559
 C2337 C 0.21281 0.18538 0.57108
 C2338 C 0.20550 0.20526 0.56738
 C2339 C 0.20753 0.21552 0.58613
 C2340 C 0.19878 0.20674 0.60063
 C2341 C 0.17555 0.19417 0.57906
 C2342 C 0.18431 0.20297 0.56455
 C2343 C 0.17952 0.17917 0.61069
 C2344 C 0.17203 0.17166 0.62383
 C2345 C 0.21501 0.21481 0.55188
 C2346 C 0.22302 0.22285 0.53937
 H2347 H 0.20761 0.16247 0.58994
 H2348 H 0.22387 0.17879 0.56301
 H2349 H 0.21517 0.22856 0.58788
 H2350 H 0.19893 0.21225 0.61478
 H2351 H 0.16059 0.19148 0.57918
 H2352 H 0.17685 0.20781 0.55223
   
