data_POSCAR
  _audit_creation_date              2014-09-24
  _audit_creation_method            'ToBaCCo'
  _symmetry_space_group_name_H-M    'P1'
  _symmetry_Int_Tables_number       1
  _symmetry_cell_setting            triclinic
  loop_
  _symmetry_equiv_pos_as_xyz
 x,y,z
_cell_length_a 68.8134
_cell_length_b 68.9150
_cell_length_c 68.3972
_cell_angle_alpha 90.039400
_cell_angle_beta 89.980000
_cell_angle_gamma 89.836400
loop_
  _atom_site_label
  _atom_site_type_symbol
  _atom_site_fract_x
  _atom_site_fract_y
  _atom_site_fract_z
C1 C 0.35885 0.33130 0.34601
 C2 C 0.34448 0.33145 0.36056
 C3 C 0.33031 0.34569 0.36052
 C4 C 0.33033 0.36003 0.34598
 C5 C 0.34451 0.35992 0.33167
 C6 C 0.35889 0.34544 0.33168
 C7 C 0.37386 0.31872 0.34193
 N8 N 0.38305 0.32484 0.32545
 C9 C 0.37396 0.34123 0.31912
 C10 C 0.34042 0.37496 0.31908
 N11 N 0.32407 0.38417 0.32537
 C12 C 0.31784 0.37509 0.34186
 C13 C 0.31778 0.34171 0.37566
 N14 N 0.32399 0.32536 0.38491
 C15 C 0.34036 0.31903 0.37574
 H16 H 0.37774 0.30600 0.35036
 H17 H 0.37761 0.34919 0.30600
 H18 H 0.34844 0.37851 0.30595
 H19 H 0.30510 0.37905 0.35026
 H20 H 0.30502 0.35007 0.37955
 H21 H 0.34834 0.30597 0.37937
 C22 C 0.36065 0.83136 -0.15486
 C23 C 0.34616 0.83116 -0.14042
 C24 C 0.33193 0.84536 -0.14029
 C25 C 0.33195 0.85990 -0.15463
 C26 C 0.34615 0.86003 -0.16883
 C27 C 0.36063 0.84564 -0.16894
 C28 C 0.37577 0.81897 -0.15908
 N29 N 0.38511 0.82525 -0.17553
 C30 C 0.37572 0.84172 -0.18151
 C31 C 0.34207 0.87518 -0.18124
 N32 N 0.32559 0.88445 -0.17504
 C33 C 0.31946 0.87498 -0.15861
 C34 C 0.31940 0.84113 -0.12522
 N35 N 0.32565 0.82468 -0.11619
 C36 C 0.34205 0.81852 -0.12544
 H37 H 0.37908 0.80603 -0.15081
 H38 H 0.37924 0.85043 -0.19413
 H39 H 0.35069 0.87882 -0.19390
 H40 H 0.30656 0.87819 -0.15020
 H41 H 0.30635 0.84912 -0.12153
 H42 H 0.35039 0.80573 -0.12163
 C43 C 0.86017 0.33167 -0.15440
 C44 C 0.84562 0.33163 -0.14002
 C45 C 0.83143 0.34586 -0.14008
 C46 C 0.83162 0.36035 -0.15447
 C47 C 0.84590 0.36035 -0.16859
 C48 C 0.86030 0.34589 -0.16855
 C49 C 0.87528 0.31921 -0.15844
 N50 N 0.88475 0.32537 -0.17486
 C51 C 0.87546 0.34184 -0.18099
 C52 C 0.84194 0.37545 -0.18110
 N53 N 0.82546 0.38481 -0.17504
 C54 C 0.81920 0.37546 -0.15860
 C55 C 0.81877 0.34175 -0.12509
 N56 N 0.82492 0.32535 -0.11590
 C57 C 0.84138 0.31910 -0.12497
 H58 H 0.87850 0.30632 -0.15006
 H59 H 0.87910 0.35047 -0.19363
 H60 H 0.85065 0.37900 -0.19373
 H61 H 0.80625 0.37873 -0.15029
 H62 H 0.80598 0.35009 -0.12124
 H63 H 0.84937 0.30605 -0.12133
 C64 C 0.85917 0.83123 0.34458
 C65 C 0.84474 0.83130 0.35907
 C66 C 0.83055 0.84553 0.35903
 C67 C 0.83063 0.85991 0.34453
 C68 C 0.84479 0.85980 0.33028
 C69 C 0.85919 0.84533 0.33031
 C70 C 0.87427 0.81876 0.34057
 N71 N 0.88365 0.82479 0.32405
 C72 C 0.87430 0.84119 0.31782
 C73 C 0.84077 0.87487 0.31774
 N74 N 0.82437 0.88432 0.32391
 C75 C 0.81823 0.87504 0.34045
 C76 C 0.81805 0.84156 0.37419
 N77 N 0.82428 0.82524 0.38347
 C78 C 0.84065 0.81891 0.37428
 H79 H 0.87756 0.80594 0.34904
 H80 H 0.87789 0.84974 0.30510
 H81 H 0.84938 0.87836 0.30503
 H82 H 0.80538 0.87841 0.34887
 H83 H 0.80530 0.84994 0.37811
 H84 H 0.84869 0.80589 0.37797
 C85 C 0.64032 0.66871 0.34548
 C86 C 0.65464 0.66871 0.36006
 C87 C 0.66882 0.65448 0.36020
 C88 C 0.66892 0.64006 0.34572
 C89 C 0.65479 0.64004 0.33134
 C90 C 0.64038 0.65448 0.33122
 C91 C 0.62534 0.68126 0.34126
 N92 N 0.61625 0.67503 0.32477
 C93 C 0.62537 0.65861 0.31857
 C94 C 0.65897 0.62491 0.31886
 N95 N 0.67531 0.61577 0.32528
 C96 C 0.68145 0.62499 0.34174
 C97 C 0.68126 0.65861 0.37538
 N98 N 0.67499 0.67505 0.38445
 C99 C 0.65867 0.68128 0.37513
 H100 H 0.62143 0.69404 0.34959
 H101 H 0.62180 0.65057 0.30546
 H102 H 0.65101 0.62125 0.30573
 H103 H 0.69415 0.62109 0.35021
 H104 H 0.69429 0.65059 0.37909
 H105 H 0.65037 0.69410 0.37892
 C106 C 0.63957 0.16832 -0.15461
 C107 C 0.65399 0.16853 -0.14012
 C108 C 0.66828 0.15441 -0.13999
 C109 C 0.66838 0.13990 -0.15440
 C110 C 0.65424 0.13975 -0.16865
 C111 C 0.63971 0.15408 -0.16875
 C112 C 0.62444 0.18068 -0.15883
 N113 N 0.61521 0.17444 -0.17535
 C114 C 0.62467 0.15802 -0.18137
 C115 C 0.65844 0.12466 -0.18111
 N116 N 0.67494 0.11544 -0.17489
 C117 C 0.68096 0.12489 -0.15840
 C118 C 0.68074 0.15868 -0.12487
 N119 N 0.67438 0.17509 -0.11582
 C120 C 0.65798 0.18118 -0.12509
 H121 H 0.62107 0.19360 -0.15053
 H122 H 0.62123 0.14934 -0.19405
 H123 H 0.64990 0.12104 -0.19383
 H124 H 0.69383 0.12171 -0.14994
 H125 H 0.69383 0.15075 -0.12117
 H126 H 0.64958 0.19393 -0.12128
 C127 C 0.13962 0.66861 -0.15522
 C128 C 0.15408 0.66862 -0.14077
 C129 C 0.16825 0.65436 -0.14078
 C130 C 0.16812 0.63989 -0.15520
 C131 C 0.15394 0.63992 -0.16940
 C132 C 0.13956 0.65441 -0.16941
 C133 C 0.12457 0.68111 -0.15931
 N134 N 0.11518 0.67499 -0.17581
 C135 C 0.12448 0.65851 -0.18193
 C136 C 0.15796 0.62483 -0.18193
 N137 N 0.17439 0.61544 -0.17579
 C138 C 0.18054 0.62477 -0.15928
 C139 C 0.18083 0.65844 -0.12572
 N140 N 0.17467 0.67486 -0.11654
 C141 C 0.15827 0.68114 -0.12568
 H142 H 0.12133 0.69400 -0.15093
 H143 H 0.12089 0.64989 -0.19461
 H144 H 0.14934 0.62129 -0.19462
 H145 H 0.19344 0.62148 -0.15092
 H146 H 0.19359 0.65008 -0.12183
 H147 H 0.15029 0.69421 -0.12206
 C148 C 0.14045 0.16856 0.34526
 C149 C 0.15485 0.16866 0.35976
 C150 C 0.16911 0.15450 0.35981
 C151 C 0.16920 0.14009 0.34531
 C152 C 0.15503 0.14002 0.33108
 C153 C 0.14055 0.15441 0.33102
 C154 C 0.12530 0.18095 0.34116
 N155 N 0.11602 0.17480 0.32462
 C156 C 0.12546 0.15842 0.31847
 C157 C 0.15915 0.12491 0.31860
 N158 N 0.17561 0.11562 0.32478
 C159 C 0.18171 0.12503 0.34127
 C160 C 0.18154 0.15864 0.37501
 N161 N 0.17518 0.17500 0.38416
 C162 C 0.15882 0.18118 0.37489
 H163 H 0.12195 0.19380 0.34956
 H164 H 0.12196 0.14979 0.30577
 H165 H 0.15078 0.12155 0.30569
 H166 H 0.19435 0.12153 0.34994
 H167 H 0.19460 0.15065 0.37869
 H168 H 0.15041 0.19390 0.37878
 C169 C 0.64051 0.33121 0.65523
 C170 C 0.65496 0.33127 0.64076
 C171 C 0.66910 0.34548 0.64084
 C172 C 0.66896 0.35988 0.65535
 C173 C 0.65474 0.35980 0.66962
 C174 C 0.64041 0.34536 0.66956
 C175 C 0.62547 0.31872 0.65927
 N176 N 0.61626 0.32491 0.67574
 C177 C 0.62535 0.34124 0.68209
 C178 C 0.65870 0.37482 0.68224
 N179 N 0.67501 0.38405 0.67599
 C180 C 0.68134 0.37497 0.65951
 C181 C 0.68163 0.34148 0.62569
 N182 N 0.67548 0.32517 0.61638
 C183 C 0.65912 0.31887 0.62554
 H184 H 0.62192 0.30573 0.65113
 H185 H 0.62137 0.34952 0.69494
 H186 H 0.65034 0.37866 0.69508
 H187 H 0.69436 0.37863 0.65145
 H188 H 0.69435 0.34985 0.62179
 H189 H 0.65115 0.30586 0.62184
 C190 C 0.63974 0.83140 1.15500
 C191 C 0.65424 0.83134 1.14057
 C192 C 0.66839 0.84553 1.14057
 C193 C 0.66828 0.85996 1.15504
 C194 C 0.65401 0.85996 1.16927
 C195 C 0.63965 0.84555 1.16923
 C196 C 0.62469 0.81896 1.15905
 N197 N 0.61528 0.82508 1.17555
 C198 C 0.62455 0.84150 1.18172
 C199 C 0.65796 0.87504 1.18184
 N200 N 0.67428 0.88423 1.17559
 C201 C 0.68065 0.87507 1.15917
 C202 C 0.68093 0.84143 1.12543
 N203 N 0.67475 0.82506 1.11624
 C204 C 0.65840 0.81883 1.12545
 H205 H 0.62148 0.80610 1.15063
 H206 H 0.62094 0.85010 1.19442
 H207 H 0.64955 0.87895 1.19463
 H208 H 0.69369 0.87870 1.15112
 H209 H 0.69392 0.84946 1.12179
 H210 H 0.65011 0.80609 1.12151
 C211 C 0.13987 0.33093 1.15559
 C212 C 0.15434 0.33082 1.14114
 C213 C 0.16850 0.34501 1.14106
 C214 C 0.16840 0.35950 1.15548
 C215 C 0.15415 0.35955 1.16973
 C216 C 0.13979 0.34514 1.16976
 C217 C 0.12482 0.31851 1.15971
 N218 N 0.11543 0.32470 1.17620
 C219 C 0.12471 0.34114 1.18230
 C220 C 0.15811 0.37467 1.18223
 N221 N 0.17443 0.38384 1.17594
 C222 C 0.18078 0.37462 1.15954
 C223 C 0.18100 0.34085 1.12591
 N224 N 0.17481 0.32444 1.11679
 C225 C 0.15847 0.31825 1.12605
 H226 H 0.12160 0.30562 1.15135
 H227 H 0.12112 0.34979 1.19497
 H228 H 0.14971 0.37863 1.19502
 H229 H 0.19381 0.37823 1.15146
 H230 H 0.19399 0.34887 1.12221
 H231 H 0.15017 0.30551 1.12218
 C232 C 0.14099 0.83125 0.65536
 C233 C 0.15542 0.83122 0.64088
 C234 C 0.16964 0.84536 0.64096
 C235 C 0.16960 0.85974 0.65549
 C236 C 0.15543 0.85975 0.66973
 C237 C 0.14101 0.84541 0.66969
 C238 C 0.12585 0.81888 0.65941
 N239 N 0.11670 0.82515 0.67588
 C240 C 0.12591 0.84140 0.68223
 C241 C 0.15948 0.87476 0.68231
 N242 N 0.17591 0.88407 0.67619
 C243 C 0.18204 0.87476 0.65963
 C244 C 0.18214 0.84131 0.62579
 N245 N 0.17588 0.82504 0.61647
 C246 C 0.15950 0.81882 0.62564
 H247 H 0.12219 0.80592 0.65128
 H248 H 0.12201 0.84973 0.69507
 H249 H 0.15087 0.87828 0.69503
 H250 H 0.19490 0.87805 0.65122
 H251 H 0.19489 0.84961 0.62189
 H252 H 0.15144 0.80587 0.62192
 C253 C 0.35966 0.66920 0.65501
 C254 C 0.34517 0.66913 0.64058
 C255 C 0.33108 0.65487 0.64065
 C256 C 0.33128 0.64046 0.65511
 C257 C 0.34552 0.64054 0.66935
 C258 C 0.35981 0.65501 0.66930
 C259 C 0.37470 0.68170 0.65905
 N260 N 0.38396 0.67548 0.67547
 C261 C 0.37491 0.65913 0.68179
 C262 C 0.34161 0.62548 0.68193
 N263 N 0.32532 0.61623 0.67569
 C264 C 0.31894 0.62533 0.65925
 C265 C 0.31850 0.65885 0.62554
 N266 N 0.32460 0.67519 0.61626
 C267 C 0.34095 0.68153 0.62540
 H268 H 0.37822 0.69470 0.65094
 H269 H 0.37893 0.65081 0.69459
 H270 H 0.35001 0.62164 0.69473
 H271 H 0.30591 0.62166 0.65122
 H272 H 0.30582 0.65044 0.62166
 H273 H 0.34888 0.69456 0.62169
 C274 C 0.35916 0.16818 1.15559
 C275 C 0.34472 0.16820 1.14112
 C276 C 0.33059 0.15398 1.14111
 C277 C 0.33073 0.13951 1.15553
 C278 C 0.34489 0.13951 1.16975
 C279 C 0.35923 0.15394 1.16981
 C280 C 0.37422 0.18063 1.15972
 N281 N 0.38341 0.17432 1.17614
 C282 C 0.37430 0.15797 1.18237
 C283 C 0.34093 0.12440 1.18223
 N284 N 0.32456 0.11504 1.17606
 C285 C 0.31837 0.12440 1.15957
 C286 C 0.31807 0.15805 1.12597
 N287 N 0.32423 0.17441 1.11677
 C288 C 0.34057 0.18068 1.12597
 H289 H 0.37779 0.19366 1.15168
 H290 H 0.37825 0.14959 1.19515
 H291 H 0.34956 0.12087 1.19493
 H292 H 0.30553 0.12109 1.15115
 H293 H 0.30537 0.14969 1.12202
 H294 H 0.34855 0.19370 1.12234
 C295 C 0.85901 0.66858 1.15532
 C296 C 0.84462 0.66872 1.14080
 C297 C 0.83043 0.65457 1.14066
 C298 C 0.83043 0.64005 1.15502
 C299 C 0.84462 0.63989 1.16932
 C300 C 0.85899 0.65428 1.16949
 C301 C 0.87411 0.68094 1.15952
 N302 N 0.88326 0.67453 1.17593
 C303 C 0.87406 0.65820 1.18208
 C304 C 0.84055 0.62470 1.18171
 N305 N 0.82420 0.61565 1.17531
 C306 C 0.81796 0.62498 1.15895
 C307 C 0.81796 0.65876 1.12552
 N308 N 0.82422 0.67514 1.11641
 C309 C 0.84056 0.68129 1.12570
 H310 H 0.87776 0.69398 1.15153
 H311 H 0.87798 0.64975 1.19483
 H312 H 0.84858 0.62095 1.19478
 H313 H 0.80522 0.62119 1.15052
 H314 H 0.80524 0.65048 1.12150
 H315 H 0.84860 0.69429 1.12215
 C316 C 0.85994 0.17007 0.65576
 C317 C 0.84550 0.17007 0.64129
 C318 C 0.83131 0.15591 0.64131
 C319 C 0.83135 0.14156 0.65584
 C320 C 0.84558 0.14161 0.67011
 C321 C 0.85999 0.15596 0.67002
 C322 C 0.87502 0.18248 0.65978
 N323 N 0.88442 0.17638 0.67629
 C324 C 0.87510 0.16001 0.68249
 C325 C 0.84160 0.12657 0.68269
 N326 N 0.82528 0.11736 0.67643
 C327 C 0.81895 0.12647 0.65997
 C328 C 0.81885 0.15995 0.62610
 N329 N 0.82510 0.17625 0.61686
 C330 C 0.84143 0.18250 0.62609
 H331 H 0.87846 0.19511 0.65114
 H332 H 0.87848 0.15161 0.69538
 H333 H 0.84999 0.12268 0.69548
 H334 H 0.80595 0.12280 0.65190
 H335 H 0.80585 0.15192 0.62245
 H336 H 0.84977 0.19519 0.62212
 C337 C 0.33187 0.36051 0.65474
 C338 C 0.33157 0.34592 0.64044
 C339 C 0.34570 0.33163 0.64038
 C340 C 0.36032 0.33168 0.65467
 C341 C 0.36058 0.34603 0.66880
 C342 C 0.34626 0.36054 0.66883
 C343 C 0.31950 0.37568 0.65890
 N344 N 0.32599 0.38491 0.67521
 C345 C 0.34240 0.37571 0.68134
 C346 C 0.37574 0.34195 0.68124
 N347 N 0.38472 0.32546 0.67504
 C348 C 0.37536 0.31912 0.65874
 C349 C 0.34134 0.31902 0.62542
 N350 N 0.32486 0.32528 0.61640
 C351 C 0.31883 0.34176 0.62553
 H352 H 0.30635 0.37928 0.65099
 H353 H 0.35089 0.37964 0.69405
 H354 H 0.37983 0.35037 0.69395
 H355 H 0.37878 0.30597 0.65078
 H356 H 0.34926 0.30591 0.62181
 H357 H 0.30606 0.35013 0.62170
 C358 C 0.33094 0.85949 0.15447
 C359 C 0.33107 0.84514 0.13992
 C360 C 0.34532 0.83098 0.13995
 C361 C 0.35967 0.83097 0.15448
 C362 C 0.35960 0.84514 0.16881
 C363 C 0.34511 0.85951 0.16880
 C364 C 0.31837 0.87450 0.15855
 N365 N 0.32453 0.88367 0.17503
 C366 C 0.34092 0.87457 0.18136
 C367 C 0.37466 0.84102 0.18139
 N368 N 0.38385 0.82467 0.17508
 C369 C 0.37474 0.81848 0.15859
 C370 C 0.34130 0.81847 0.12482
 N371 N 0.32493 0.82467 0.11557
 C372 C 0.31861 0.84103 0.12474
 H373 H 0.30563 0.87839 0.15012
 H374 H 0.34891 0.87821 0.19448
 H375 H 0.37824 0.84901 0.19452
 H376 H 0.37868 0.80575 0.15018
 H377 H 0.34967 0.80571 0.12093
 H378 H 0.30554 0.84901 0.12111
 C379 C 0.83155 0.35948 0.15467
 C380 C 0.83171 0.34509 0.14016
 C381 C 0.84595 0.33091 0.14028
 C382 C 0.86026 0.33095 0.15486
 C383 C 0.86015 0.34515 0.16914
 C384 C 0.84567 0.35953 0.16904
 C385 C 0.81896 0.37450 0.15868
 N386 N 0.82506 0.38371 0.17515
 C387 C 0.84144 0.37462 0.18155
 C388 C 0.87516 0.34105 0.18180
 N389 N 0.88435 0.32467 0.17557
 C390 C 0.87529 0.31844 0.15907
 C391 C 0.84198 0.31835 0.12518
 N392 N 0.82563 0.32452 0.11587
 C393 C 0.81930 0.34092 0.12497
 H394 H 0.80625 0.37836 0.15021
 H395 H 0.84938 0.37828 0.19470
 H396 H 0.87869 0.34907 0.19493
 H397 H 0.87924 0.30569 0.15071
 H398 H 0.85034 0.30557 0.12138
 H399 H 0.80623 0.34889 0.12127
 C400 C 0.83222 0.86142 0.65375
 C401 C 0.83217 0.84683 0.63946
 C402 C 0.84636 0.83259 0.63959
 C403 C 0.86080 0.83273 0.65406
 C404 C 0.86083 0.84711 0.66818
 C405 C 0.84646 0.86158 0.66800
 C406 C 0.81968 0.87648 0.65774
 N407 N 0.82593 0.88581 0.67410
 C408 C 0.84235 0.87676 0.68042
 C409 C 0.87588 0.84311 0.68080
 N410 N 0.88500 0.82665 0.67471
 C411 C 0.87584 0.82024 0.65832
 C412 C 0.84217 0.81990 0.62464
 N413 N 0.82575 0.82606 0.61546
 C414 C 0.81958 0.84256 0.62446
 H415 H 0.80686 0.88025 0.64939
 H416 H 0.85037 0.88048 0.69350
 H417 H 0.87979 0.85156 0.69353
 H418 H 0.87942 0.80710 0.65041
 H419 H 0.85015 0.80679 0.62117
 H420 H 0.80679 0.85085 0.62051
 C421 C 0.66883 0.63938 0.65456
 C422 C 0.66915 0.65389 0.64019
 C423 C 0.65502 0.66819 0.64007
 C424 C 0.64039 0.66822 0.65436
 C425 C 0.64012 0.65395 0.66855
 C426 C 0.65443 0.63943 0.66865
 C427 C 0.68120 0.62423 0.65877
 N428 N 0.67469 0.61509 0.67512
 C429 C 0.65828 0.62433 0.68122
 C430 C 0.62495 0.65810 0.68098
 N431 N 0.61597 0.67456 0.67470
 C432 C 0.62535 0.68081 0.65838
 C433 C 0.65940 0.68070 0.62505
 N434 N 0.67587 0.67438 0.61605
 C435 C 0.68190 0.65794 0.62526
 H436 H 0.69435 0.62058 0.65088
 H437 H 0.64978 0.62048 0.69395
 H438 H 0.62085 0.64975 0.69371
 H439 H 0.62193 0.69391 0.65036
 H440 H 0.65149 0.69379 0.62136
 H441 H 0.69466 0.64954 0.62146
 C442 C 0.66844 0.14049 0.15477
 C443 C 0.66837 0.15487 0.14027
 C444 C 0.65413 0.16904 0.14031
 C445 C 0.63973 0.16902 0.15482
 C446 C 0.63975 0.15483 0.16909
 C447 C 0.65423 0.14045 0.16907
 C448 C 0.68099 0.12546 0.15883
 N449 N 0.67478 0.11626 0.17526
 C450 C 0.65837 0.12536 0.18158
 C451 C 0.62465 0.15893 0.18165
 N452 N 0.61548 0.17530 0.17537
 C453 C 0.62465 0.18152 0.15892
 C454 C 0.65818 0.18157 0.12522
 N455 N 0.67458 0.17538 0.11599
 C456 C 0.68086 0.15900 0.12513
 H457 H 0.69375 0.12158 0.15041
 H458 H 0.65035 0.12169 0.19467
 H459 H 0.62102 0.15091 0.19475
 H460 H 0.62074 0.19426 0.15055
 H461 H 0.64983 0.19434 0.12136
 H462 H 0.69394 0.15101 0.12149
 C463 C 0.16836 0.64005 0.15417
 C464 C 0.16835 0.65445 0.13970
 C465 C 0.15414 0.66866 0.13971
 C466 C 0.13975 0.66869 0.15424
 C467 C 0.13974 0.65448 0.16850
 C468 C 0.15416 0.64005 0.16847
 C469 C 0.18090 0.62502 0.15823
 N470 N 0.17469 0.61584 0.17468
 C471 C 0.15829 0.62496 0.18099
 C472 C 0.12465 0.65859 0.18106
 N473 N 0.11551 0.67498 0.17480
 C474 C 0.12470 0.68121 0.15837
 C475 C 0.15826 0.68116 0.12460
 N476 N 0.17466 0.67492 0.11542
 C477 C 0.18089 0.65854 0.12460
 H478 H 0.19366 0.62114 0.14984
 H479 H 0.15028 0.62133 0.19410
 H480 H 0.12100 0.65056 0.19414
 H481 H 0.12080 0.69396 0.15000
 H482 H 0.15024 0.69421 0.12100
 H483 H 0.19368 0.65023 0.12070
 C484 C 0.16806 0.13881 0.65513
 C485 C 0.16831 0.15330 0.64075
 C486 C 0.15421 0.16764 0.64072
 C487 C 0.13968 0.16771 0.65512
 C488 C 0.13947 0.15345 0.66931
 C489 C 0.15375 0.13890 0.66932
 C490 C 0.18044 0.12365 0.65929
 N491 N 0.17403 0.11455 0.67570
 C492 C 0.15767 0.12382 0.68189
 C493 C 0.12442 0.15764 0.68186
 N494 N 0.11544 0.17412 0.67565
 C495 C 0.12470 0.18034 0.65925
 C496 C 0.15853 0.18015 0.62568
 N497 N 0.17494 0.17379 0.61658
 C498 C 0.18098 0.15734 0.62575
 H499 H 0.19353 0.11998 0.65133
 H500 H 0.14926 0.12001 0.69469
 H501 H 0.12040 0.14931 0.69464
 H502 H 0.12126 0.19346 0.65126
 H503 H 0.15063 0.19327 0.62206
 H504 H 0.19370 0.14891 0.62188
 C505 C 0.33142 0.63996 0.34440
 C506 C 0.33140 0.65445 0.35882
 C507 C 0.34566 0.66854 0.35881
 C508 C 0.36018 0.66832 0.34441
 C509 C 0.36018 0.65407 0.33019
 C510 C 0.34570 0.63979 0.33018
 C511 C 0.31891 0.62495 0.34031
 N512 N 0.32522 0.61569 0.32391
 C513 C 0.34163 0.62471 0.31766
 C514 C 0.37532 0.65797 0.31767
 N515 N 0.38454 0.67426 0.32392
 C516 C 0.37534 0.68065 0.34032
 C517 C 0.34157 0.68112 0.37389
 N518 N 0.32515 0.67503 0.38309
 C519 C 0.31887 0.65869 0.37393
 H520 H 0.30583 0.62146 0.34835
 H521 H 0.35002 0.62069 0.30489
 H522 H 0.37924 0.64957 0.30488
 H523 H 0.37896 0.69369 0.34835
 H524 H 0.34995 0.69380 0.37780
 H525 H 0.30581 0.65076 0.37758
 C526 C 0.33131 0.14020 0.84493
 C527 C 0.33137 0.15473 0.85931
 C528 C 0.34564 0.16882 0.85917
 C529 C 0.36007 0.16856 0.84468
 C530 C 0.35999 0.15426 0.83051
 C531 C 0.34551 0.13999 0.83063
 C532 C 0.31879 0.12516 0.84095
 N533 N 0.32501 0.11586 0.82455
 C534 C 0.34139 0.12487 0.81818
 C535 C 0.37505 0.15812 0.81788
 N536 N 0.38431 0.17443 0.82403
 C537 C 0.37521 0.18087 0.84046
 C538 C 0.34165 0.18144 0.87424
 N539 N 0.32530 0.17538 0.88357
 C540 C 0.31895 0.15900 0.87450
 H541 H 0.30576 0.12168 0.84908
 H542 H 0.34971 0.12082 0.80538
 H543 H 0.37889 0.14967 0.80510
 H544 H 0.37889 0.19393 0.84843
 H545 H 0.35006 0.19413 0.87807
 H546 H 0.30592 0.15108 0.87825
 C547 C 0.83150 0.64036 0.84451
 C548 C 0.83132 0.65485 0.85892
 C549 C 0.84541 0.66911 0.85889
 C550 C 0.85986 0.66911 0.84442
 C551 C 0.86000 0.65486 0.83020
 C552 C 0.84573 0.64038 0.83024
 C553 C 0.81917 0.62520 0.84045
 N554 N 0.82553 0.61602 0.82403
 C555 C 0.84181 0.62526 0.81773
 C556 C 0.87505 0.65893 0.81763
 N557 N 0.88410 0.67533 0.82387
 C558 C 0.87487 0.68162 0.84029
 C559 C 0.84121 0.68160 0.87403
 N560 N 0.82489 0.67530 0.88324
 C561 C 0.81877 0.65891 0.87405
 H562 H 0.80615 0.62154 0.84852
 H563 H 0.85019 0.62136 0.80492
 H564 H 0.87905 0.65056 0.80485
 H565 H 0.87839 0.69468 0.84833
 H566 H 0.84915 0.69465 0.87766
 H567 H 0.80610 0.65053 0.87801
 C568 C 0.83150 0.13965 0.34491
 C569 C 0.83146 0.15412 0.35935
 C570 C 0.84574 0.16819 0.35938
 C571 C 0.86029 0.16798 0.34502
 C572 C 0.86031 0.15374 0.33078
 C573 C 0.84581 0.13948 0.33072
 C574 C 0.81897 0.12467 0.34076
 N575 N 0.82530 0.11542 0.32436
 C576 C 0.84175 0.12443 0.31816
 C577 C 0.87546 0.15766 0.31828
 N578 N 0.88467 0.17395 0.32457
 C579 C 0.87545 0.18031 0.34097
 C580 C 0.84162 0.18077 0.37445
 N581 N 0.82517 0.17471 0.38360
 C582 C 0.81889 0.15837 0.37442
 H583 H 0.80587 0.12119 0.34876
 H584 H 0.85016 0.12042 0.30540
 H585 H 0.87939 0.14929 0.30548
 H586 H 0.87905 0.19334 0.34902
 H587 H 0.85000 0.19345 0.37839
 H588 H 0.80581 0.15046 0.37802
 C589 C 0.66841 0.35944 0.34473
 C590 C 0.66839 0.34493 0.35911
 C591 C 0.65407 0.33089 0.35907
 C592 C 0.63955 0.33118 0.34469
 C593 C 0.63959 0.34546 0.33051
 C594 C 0.65412 0.35968 0.33053
 C595 C 0.68096 0.37442 0.34068
 N596 N 0.67467 0.38375 0.32433
 C597 C 0.65822 0.37478 0.31806
 C598 C 0.62441 0.34164 0.31801
 N599 N 0.61513 0.32537 0.32424
 C600 C 0.62433 0.31892 0.34060
 C601 C 0.65811 0.31828 0.37412
 N602 N 0.67454 0.32430 0.38333
 C603 C 0.68089 0.34063 0.37421
 H604 H 0.69404 0.37787 0.34872
 H605 H 0.64983 0.37886 0.30533
 H606 H 0.62051 0.35007 0.30525
 H607 H 0.62066 0.30590 0.34861
 H608 H 0.64968 0.30563 0.37801
 H609 H 0.69398 0.34851 0.37787
 C610 C 0.66955 0.85995 0.84400
 C611 C 0.66951 0.84548 0.85842
 C612 C 0.65528 0.83136 0.85832
 C613 C 0.64084 0.83153 0.84385
 C614 C 0.64090 0.84577 0.82963
 C615 C 0.65535 0.86007 0.82970
 C616 C 0.68202 0.87501 0.84000
 N617 N 0.67577 0.88426 0.82359
 C618 C 0.65943 0.87518 0.81724
 C619 C 0.62581 0.84186 0.81705
 N620 N 0.61657 0.82557 0.82327
 C621 C 0.62570 0.81919 0.83970
 C622 C 0.65928 0.81883 0.87345
 N623 N 0.67561 0.82498 0.88276
 C624 C 0.68193 0.84131 0.87362
 H625 H 0.69502 0.87856 0.84813
 H626 H 0.65109 0.87918 0.80444
 H627 H 0.62194 0.85026 0.80427
 H628 H 0.62203 0.80618 0.84772
 H629 H 0.65090 0.80614 0.87734
 H630 H 0.69493 0.84929 0.87735
 C631 C 0.16927 0.36026 0.84487
 C632 C 0.16950 0.34583 0.85932
 C633 C 0.15538 0.33159 0.85942
 C634 C 0.14086 0.33155 0.84503
 C635 C 0.14068 0.34574 0.83076
 C636 C 0.15497 0.36020 0.83068
 C637 C 0.18160 0.37539 0.84069
 N638 N 0.17517 0.38450 0.82428
 C639 C 0.15885 0.37526 0.81810
 C640 C 0.12556 0.34165 0.81829
 N641 N 0.11652 0.32529 0.82462
 C642 C 0.12581 0.31905 0.84101
 C643 C 0.15962 0.31917 0.87458
 N644 N 0.17600 0.32549 0.88369
 C645 C 0.18210 0.34182 0.87441
 H646 H 0.19466 0.37906 0.84868
 H647 H 0.15040 0.37911 0.80533
 H648 H 0.12152 0.34998 0.80551
 H649 H 0.12230 0.30603 0.84910
 H650 H 0.15168 0.30616 0.87830
 H651 H 0.19481 0.35021 0.87827
 C652 C 0.16814 0.85984 0.34461
 C653 C 0.16838 0.84531 0.35896
 C654 C 0.15428 0.83105 0.35896
 C655 C 0.13977 0.83109 0.34456
 C656 C 0.13958 0.84538 0.33038
 C657 C 0.15386 0.85985 0.33041
 C658 C 0.18047 0.87499 0.34056
 N659 N 0.17406 0.88420 0.32420
 C660 C 0.15775 0.87500 0.31793
 C661 C 0.12446 0.84134 0.31788
 N662 N 0.11543 0.82493 0.32410
 C663 C 0.12473 0.81860 0.34046
 C664 C 0.15856 0.81853 0.37404
 N665 N 0.17493 0.82482 0.38318
 C666 C 0.18099 0.84123 0.37401
 H667 H 0.19353 0.87860 0.34858
 H668 H 0.14934 0.87893 0.30516
 H669 H 0.12041 0.84974 0.30515
 H670 H 0.12124 0.80553 0.34847
 H671 H 0.15063 0.80548 0.37767
 H672 H 0.19368 0.84961 0.37793
 O673 O 0.25216 1.01874 0.22541
 O674 O 0.22501 0.98107 0.25197
 O675 O 0.22526 1.01890 0.25213
 O676 O 0.25201 0.98090 0.22534
 O677 O 0.27455 0.98065 0.24838
 O678 O 0.24779 1.01865 0.27518
 O679 O 0.24754 0.98081 0.27501
 O680 O 0.27471 1.01850 0.24845
 Cu681 Cu 0.23634 0.99993 0.23639
 Cu682 Cu 0.26342 0.99963 0.26408
 C683 C 0.26798 1.02502 0.23248
 C684 C 0.23172 0.97453 0.26793
 C685 C 0.23204 1.02523 0.26815
 C686 C 0.26775 0.97431 0.23237
 O687 O 0.25227 0.51941 0.72506
 O688 O 0.22539 0.48142 0.75148
 O689 O 0.22510 0.51925 0.75152
 O690 O 0.25246 0.48157 0.72492
 O691 O 0.27485 0.48160 0.74811
 O692 O 0.24749 0.51929 0.77471
 O693 O 0.24778 0.48146 0.77467
 O694 O 0.27465 0.51943 0.74825
 Cu695 Cu 0.23654 0.50041 0.73590
 Cu696 Cu 0.26345 0.50045 0.76378
 C697 C 0.26797 0.52587 0.73223
 C698 C 0.23208 0.47499 0.76750
 C699 C 0.23170 0.52567 0.76758
 C700 C 0.26824 0.47518 0.73206
 O701 O 0.75186 -0.01892 0.27474
 O702 O 0.72480 0.01903 0.24823
 O703 O 0.72480 -0.01883 0.24818
 O704 O 0.75184 0.01892 0.27481
 O705 O 0.77430 0.01885 0.25167
 O706 O 0.74726 -0.01889 0.22504
 O707 O 0.74727 0.01896 0.22510
 O708 O 0.77431 -0.01898 0.25160
 Cu709 Cu 0.73606 0.00005 0.26382
 Cu710 Cu 0.76305 -0.00002 0.23602
 C711 C 0.76762 -0.02540 0.26762
 C712 C 0.73152 0.02545 0.23223
 C713 C 0.73150 -0.02529 0.23216
 C714 C 0.76760 0.02530 0.26770
 O715 O 0.74818 0.48074 0.72546
 O716 O 0.77511 0.51876 0.75180
 O717 O 0.77525 0.48093 0.75202
 O718 O 0.74807 0.51857 0.72523
 O719 O 0.72563 0.51871 0.74838
 O720 O 0.75280 0.48108 0.77516
 O721 O 0.75266 0.51891 0.77495
 O722 O 0.72573 0.48089 0.74861
 Cu723 Cu 0.76392 0.49973 0.73629
 Cu724 Cu 0.73694 0.49991 0.76411
 C725 C 0.73244 0.47436 0.73262
 C726 C 0.76839 0.52530 0.76779
 C727 C 0.76858 0.47461 0.76808
 C728 C 0.73229 0.52504 0.73232
 O729 O 0.25171 0.48118 0.27479
 O730 O 0.22477 0.51901 0.24803
 O731 O 0.22477 0.48116 0.24813
 O732 O 0.25175 0.51902 0.27466
 O733 O 0.27428 0.51882 0.25160
 O734 O 0.24730 0.48097 0.22507
 O735 O 0.24730 0.51881 0.22496
 O736 O 0.27424 0.48097 0.25173
 Cu737 Cu 0.23597 0.50011 0.26373
 Cu738 Cu 0.26305 0.49988 0.23601
 C739 C 0.26748 0.47464 0.26775
 C740 C 0.23153 0.52535 0.23201
 C741 C 0.23152 0.47462 0.23216
 C742 C 0.26754 0.52535 0.26757
 O743 O 0.74846 1.01948 0.77538
 O744 O 0.77560 0.98203 0.74820
 O745 O 0.77535 1.01987 0.74863
 O746 O 0.74871 0.98164 0.77493
 O747 O 0.72613 0.98182 0.75193
 O748 O 0.75277 1.02005 0.72563
 O749 O 0.75302 0.98222 0.72521
 O750 O 0.72588 1.01965 0.75237
 Cu751 Cu 0.76431 1.00074 0.76411
 Cu752 Cu 0.73717 1.00095 0.73646
 C753 C 0.73262 1.02593 0.76842
 C754 C 0.76885 0.97576 0.73215
 C755 C 0.76853 1.02646 0.73273
 C756 C 0.73295 0.97523 0.76783
 O757 O 0.75213 0.51854 0.22546
 O758 O 0.72537 0.48071 0.25220
 O759 O 0.72528 0.51856 0.25223
 O760 O 0.75222 0.48070 0.22543
 O761 O 0.77485 0.48066 0.24837
 O762 O 0.74791 0.51852 0.27518
 O763 O 0.74799 0.48066 0.27516
 O764 O 0.77477 0.51852 0.24840
 Cu765 Cu 0.73647 0.49962 0.23652
 Cu766 Cu 0.76366 0.49959 0.26410
 C767 C 0.76792 0.52497 0.23245
 C768 C 0.73220 0.47425 0.26815
 C769 C 0.73210 0.52498 0.26820
 C770 C 0.76804 0.47424 0.23241
 O771 O 0.22519 0.01825 0.74888
 O772 O 0.25243 -0.01933 0.77567
 O773 O 0.25207 0.01851 0.77560
 O774 O 0.22552 -0.01957 0.74895
 O775 O 0.24809 -0.01949 0.72593
 O776 O 0.27464 0.01857 0.75257
 O777 O 0.27500 -0.01926 0.75264
 O778 O 0.24776 0.01832 0.72585
 Cu779 Cu 0.23652 -0.00055 0.76460
 Cu780 Cu 0.26366 -0.00046 0.73693
 C781 C 0.23191 0.02467 0.73287
 C782 C 0.26828 -0.02569 0.76864
 C783 C 0.26780 0.02502 0.76854
 C784 C 0.23234 -0.02599 0.73297
 O785 O 0.24846 0.27489 0.98129
 O786 O 0.27489 0.24782 1.01941
 O787 O 0.27510 0.24803 0.98128
 O788 O 0.24824 0.27469 1.01943
 O789 O 0.22545 0.25213 1.01915
 O790 O 0.25231 0.22548 0.98100
 O791 O 0.25209 0.22527 1.01913
 O792 O 0.22566 0.25233 0.98102
 Cu793 Cu 0.26397 0.26363 1.00038
 Cu794 Cu 0.23658 0.23653 1.00005
 C795 C 0.23263 0.26814 0.97467
 C796 C 0.26791 0.23201 1.02575
 C797 C 0.26821 0.23229 0.97465
 C798 C 0.23234 0.26787 1.02577
 O799 O 0.24782 0.77445 0.48044
 O800 O 0.27463 0.74777 0.51856
 O801 O 0.27457 0.74770 0.48043
 O802 O 0.24789 0.77452 0.51857
 O803 O 0.22516 0.75190 0.51864
 O804 O 0.25186 0.72506 0.48048
 O805 O 0.25190 0.72514 0.51862
 O806 O 0.22509 0.75182 0.48050
 Cu807 Cu 0.26352 0.76339 0.49949
 Cu808 Cu 0.23621 0.73620 0.49957
 C809 C 0.23197 0.76761 0.47399
 C810 C 0.26775 0.73199 0.52507
 C811 C 0.26769 0.73189 0.47397
 C812 C 0.23207 0.76770 0.52510
 O813 O 0.27426 0.75203 -0.01955
 O814 O 0.24735 0.72558 0.01851
 O815 O 0.24742 0.72553 -0.01959
 O816 O 0.27413 0.75213 0.01854
 O817 O 0.25148 0.77496 0.01848
 O818 O 0.22475 0.74835 -0.01967
 O819 O 0.22468 0.74839 0.01845
 O820 O 0.25161 0.77487 -0.01964
 Cu821 Cu 0.26307 0.73652 -0.00051
 Cu822 Cu 0.23584 0.76395 -0.00061
 C823 C 0.26746 0.76789 -0.02606
 C824 C 0.23150 0.73254 0.02495
 C825 C 0.23161 0.73247 -0.02610
 C826 C 0.26729 0.76801 0.02498
 O827 O 0.27447 0.25171 0.48179
 O828 O 0.24802 0.22470 0.51982
 O829 O 0.24802 0.22481 0.48169
 O830 O 0.27453 0.25156 0.51990
 O831 O 0.25158 0.27409 0.52002
 O832 O 0.22508 0.24735 0.48183
 O833 O 0.22508 0.24723 0.51995
 O834 O 0.25152 0.27424 0.48192
 Cu835 Cu 0.26358 0.23592 0.50079
 Cu836 Cu 0.23599 0.26300 0.50095
 C837 C 0.26743 0.26751 0.47540
 C838 C 0.23211 0.23143 0.52634
 C839 C 0.23211 0.23160 0.47527
 C840 C 0.26751 0.26732 0.52643
 O841 O 0.74842 0.77541 0.98063
 O842 O 0.77506 0.74867 1.01886
 O843 O 0.77514 0.74862 0.98071
 O844 O 0.74833 0.77547 1.01879
 O845 O 0.72560 0.75284 1.01874
 O846 O 0.75239 0.72602 0.98069
 O847 O 0.75231 0.72607 1.01881
 O848 O 0.72569 0.75279 0.98061
 Cu849 Cu 0.76403 0.76433 0.99975
 Cu850 Cu 0.73671 0.73715 0.99971
 C851 C 0.73260 0.76857 0.97412
 C852 C 0.76814 0.73289 1.02533
 C853 C 0.76825 0.73282 0.97423
 C854 C 0.73247 0.76864 1.02524
 O855 O 0.74770 0.27434 0.48058
 O856 O 0.77457 0.24787 0.51879
 O857 O 0.77448 0.24761 0.48066
 O858 O 0.74780 0.27457 0.51870
 O859 O 0.72512 0.25190 0.51892
 O860 O 0.75181 0.22493 0.48086
 O861 O 0.75191 0.22518 0.51900
 O862 O 0.72502 0.25166 0.48078
 Cu863 Cu 0.76342 0.26338 0.49966
 Cu864 Cu 0.73618 0.23613 0.49991
 C865 C 0.73185 0.26743 0.47419
 C866 C 0.76774 0.23210 0.52540
 C867 C 0.76762 0.23176 0.47429
 C868 C 0.73199 0.26775 0.52528
 O869 O 0.74807 0.22517 0.01895
 O870 O 0.77473 0.25181 -0.01921
 O871 O 0.77484 0.25177 0.01890
 O872 O 0.74793 0.22524 -0.01916
 O873 O 0.72525 0.24804 -0.01902
 O874 O 0.75215 0.27457 0.01904
 O875 O 0.75204 0.27460 -0.01906
 O876 O 0.72539 0.24798 0.01908
 Cu877 Cu 0.76368 0.23619 -0.00014
 Cu878 Cu 0.73642 0.26360 0.00002
 C879 C 0.73226 0.23211 0.02549
 C880 C 0.76785 0.26768 -0.02561
 C881 C 0.76801 0.26762 0.02543
 C882 C 0.73207 0.23219 -0.02555
 O883 O 0.72587 0.74775 0.48133
 O884 O 0.75270 0.77450 0.51927
 O885 O 0.75238 0.77458 0.48116
 O886 O 0.72613 0.74772 0.51943
 O887 O 0.74902 0.72513 0.51920
 O888 O 0.77527 0.75200 0.48092
 O889 O 0.77560 0.75192 0.51904
 O890 O 0.74876 0.72516 0.48108
 Cu891 Cu 0.73696 0.76342 0.50033
 Cu892 Cu 0.76448 0.73627 0.50004
 C893 C 0.73281 0.73197 0.47476
 C894 C 0.76866 0.76770 0.52559
 C895 C 0.76822 0.76780 0.47454
 C896 C 0.73316 0.73191 0.52580
 O897 O 1.01921 0.27449 0.24895
 O898 O 0.98143 0.24734 0.27545
 O899 O 1.01932 0.24737 0.27542
 O900 O 0.98131 0.27449 0.24904
 O901 O 0.98138 0.25215 0.22581
 O902 O 1.01938 0.22504 0.25217
 O903 O 0.98150 0.22502 0.25221
 O904 O 1.01926 0.25215 0.22572
 Cu905 Cu 1.00032 0.26318 0.26456
 Cu906 Cu 1.00039 0.23634 0.23663
 C907 C 1.02565 0.26787 0.23288
 C908 C 0.97505 0.23163 0.26827
 C909 C 1.02580 0.23166 0.26822
 C910 C 0.97488 0.26786 0.23300
 O911 O 0.51922 0.27392 0.74782
 O912 O 0.48118 0.24708 0.77421
 O913 O 0.51905 0.24693 0.77439
 O914 O 0.48133 0.27403 0.74762
 O915 O 0.48144 0.25160 0.72448
 O916 O 0.51917 0.22449 0.75126
 O917 O 0.48129 0.22464 0.75108
 O918 O 0.51934 0.25149 0.72468
 Cu919 Cu 0.50019 0.26276 0.76334
 Cu920 Cu 0.50032 0.23579 0.73554
 C921 C 0.52574 0.26721 0.73184
 C922 C 0.47477 0.23135 0.76707
 C923 C 0.52551 0.23116 0.76732
 C924 C 0.47497 0.26736 0.73157
 O925 O -0.01867 0.27520 0.75260
 O926 O 0.01906 0.24817 0.72568
 O927 O -0.01883 0.24835 0.72584
 O928 O 0.01922 0.27495 0.75249
 O929 O 0.01923 0.25238 0.77546
 O930 O -0.01883 0.22578 0.74880
 O931 O 0.01905 0.22559 0.74865
 O932 O -0.01867 0.25262 0.77556
 Cu933 Cu 0.00019 0.26395 0.73684
 Cu934 Cu 0.00019 0.23682 0.76444
 C935 C -0.02509 0.26844 0.76859
 C936 C 0.02546 0.23235 0.73266
 C937 C -0.02529 0.23260 0.73285
 C938 C 0.02570 0.26812 0.76844
 O939 O 0.48003 0.27460 0.25208
 O940 O 0.51804 0.24766 0.22545
 O941 O 0.48014 0.24759 0.22549
 O942 O 0.51793 0.27475 0.25194
 O943 O 0.51813 0.25237 0.27510
 O944 O 0.48034 0.22520 0.24864
 O945 O 0.51824 0.22527 0.24860
 O946 O 0.48024 0.25221 0.27522
 Cu947 Cu 0.49902 0.26341 0.23640
 Cu948 Cu 0.49925 0.23650 0.26423
 C949 C 0.47367 0.26791 0.26812
 C950 C 0.52461 0.23196 0.23257
 C951 C 0.47381 0.23184 0.23264
 C952 C 0.52446 0.26811 0.26795
 O953 O 0.98133 0.75288 0.72478
 O954 O 1.01898 0.72560 0.75151
 O955 O 0.98109 0.72590 0.75137
 O956 O 1.01923 0.75257 0.72492
 O957 O 1.01924 0.77501 0.74806
 O958 O 0.98110 0.74834 0.77450
 O959 O 1.01898 0.74804 0.77464
 O960 O 0.98135 0.77531 0.74791
 Cu961 Cu 1.00015 0.73697 0.73581
 Cu962 Cu 1.00017 0.76394 0.76361
 C963 C 0.97495 0.76867 0.73187
 C964 C 1.02538 0.73224 0.76755
 C965 C 0.97462 0.73264 0.76737
 C966 C 1.02572 0.76826 0.73207
 O967 O 0.51900 0.77469 0.24805
 O968 O 0.48130 0.74750 0.27461
 O969 O 0.51920 0.74760 0.27453
 O970 O 0.48110 0.77460 0.24816
 O971 O 0.48120 0.75223 0.22495
 O972 O 0.51930 0.72523 0.25132
 O973 O 0.48140 0.72514 0.25141
 O974 O 0.51909 0.75232 0.22485
 Cu975 Cu 0.50015 0.76335 0.26368
 Cu976 Cu 0.50026 0.73648 0.23579
 C977 C 0.52545 0.76806 0.23199
 C978 C 0.47494 0.73177 0.26746
 C979 C 0.52572 0.73190 0.26735
 C980 C 0.47468 0.76793 0.23213
 O981 O -0.01962 0.77433 0.25190
 O982 O 0.01825 0.74727 0.22523
 O983 O -0.01965 0.74729 0.22535
 O984 O 0.01828 0.77425 0.25184
 O985 O 0.01838 0.75184 0.27496
 O986 O -0.01954 0.72487 0.24847
 O987 O 0.01838 0.72485 0.24834
 O988 O -0.01952 0.75192 0.27503
 Cu989 Cu -0.00069 0.76304 0.23625
 Cu990 Cu -0.00057 0.73611 0.26403
 C991 C -0.02601 0.76766 0.26794
 C992 C 0.02477 0.73154 0.23231
 C993 C -0.02604 0.73156 0.23248
 C994 C 0.02478 0.76756 0.26783
 O995 O 0.48137 0.77549 0.75108
 O996 O 0.51908 0.74847 0.72409
 O997 O 0.48117 0.74859 0.72436
 O998 O 0.51927 0.77539 0.75078
 O999 O 0.51943 0.75289 0.77382
 O1000 O 0.48133 0.72610 0.74741
 O1001 O 0.51923 0.72598 0.74715
 O1002 O 0.48154 0.75299 0.77412
 Cu1003 Cu 0.50021 0.76425 0.73525
 Cu1004 Cu 0.50040 0.73722 0.76294
 C1005 C 0.47505 0.76877 0.76712
 C1006 C 0.52557 0.73269 0.73111
 C1007 C 0.47478 0.73286 0.73147
 C1008 C 0.52582 0.76863 0.76673
 C1009 C 0.43014 0.29635 0.29685
 C1010 C 0.41708 0.28569 0.30822
 C1011 C 0.40169 0.29504 0.31771
 C1012 C 0.39913 0.31524 0.31594
 C1013 C 0.41241 0.32585 0.30453
 C1014 C 0.42781 0.31645 0.29506
 C1015 C 0.44571 0.28657 0.28679
 C1016 C 0.45858 0.27816 0.27831
 H1017 H 0.41869 0.27011 0.30963
 H1018 H 0.39160 0.28640 0.32611
 H1019 H 0.41100 0.34142 0.30307
 H1020 H 0.43785 0.32485 0.28631
 C1021 C 0.43192 0.79754 0.79611
 C1022 C 0.42331 0.81394 0.78782
 C1023 C 0.40791 0.82329 0.79728
 C1024 C 0.40064 0.81638 0.81536
 C1025 C 0.40980 0.79987 0.82360
 C1026 C 0.42521 0.79060 0.81405
 C1027 C 0.44736 0.78758 0.78602
 C1028 C 0.46011 0.77908 0.77745
 H1029 H 0.42840 0.81943 0.77389
 H1030 H 0.40171 0.83573 0.79000
 H1031 H 0.40535 0.79390 0.83746
 H1032 H 0.43183 0.77790 0.82064
 C1033 C -0.06832 0.29736 0.79727
 C1034 C -0.07522 0.29050 0.81516
 C1035 C -0.09066 0.29987 0.82455
 C1036 C -0.09968 0.31640 0.81619
 C1037 C -0.09223 0.32323 0.79815
 C1038 C -0.07678 0.31378 0.78885
 C1039 C -0.05284 0.28731 0.78733
 C1040 C -0.04006 0.27877 0.77885
 H1041 H -0.06871 0.27780 0.82185
 H1042 H -0.09527 0.29395 0.83838
 H1043 H -0.09831 0.33567 0.79078
 H1044 H -0.07155 0.31920 0.77495
 C1045 C -0.06939 0.79667 0.29634
 C1046 C -0.07614 0.79004 0.31437
 C1047 C -0.09160 0.79945 0.32370
 C1048 C -0.10079 0.81578 0.31513
 C1049 C -0.09349 0.82238 0.29694
 C1050 C -0.07802 0.81289 0.28771
 C1051 C -0.05387 0.78658 0.28649
 C1052 C -0.04105 0.77800 0.27811
 H1053 H -0.06951 0.77750 0.32123
 H1054 H -0.09607 0.79372 0.33766
 H1055 H -0.09971 0.83465 0.28941
 H1056 H -0.07291 0.81813 0.27369
 C1057 C 0.56929 0.70345 0.29594
 C1058 C 0.57162 0.68334 0.29420
 C1059 C 0.58699 0.67397 0.30372
 C1060 C 0.60024 0.68461 0.31513
 C1061 C 0.59770 0.70482 0.31682
 C1062 C 0.58235 0.71415 0.30728
 C1063 C 0.55371 0.71320 0.28590
 C1064 C 0.54083 0.72162 0.27746
 H1065 H 0.56157 0.67491 0.28547
 H1066 H 0.58839 0.65839 0.30231
 H1067 H 0.60778 0.71349 0.32521
 H1068 H 0.58074 0.72973 0.30865
 C1069 C 0.56854 0.20223 0.79622
 C1070 C 0.57502 0.20898 0.81432
 C1071 C 0.59037 0.19967 0.82389
 C1072 C 0.59972 0.18332 0.81551
 C1073 C 0.59268 0.17659 0.79726
 C1074 C 0.57733 0.18598 0.78778
 C1075 C 0.55316 0.21224 0.78613
 C1076 C 0.54044 0.22079 0.77758
 H1077 H 0.56826 0.22155 0.82103
 H1078 H 0.59463 0.20548 0.83789
 H1079 H 0.59905 0.16430 0.78987
 H1080 H 0.57242 0.18065 0.77372
 C1081 C 1.06846 0.70312 0.79619
 C1082 C 1.07702 0.68678 0.78770
 C1083 C 1.09240 0.67728 0.79704
 C1084 C 1.09969 0.68399 0.81519
 C1085 C 1.09058 0.70046 0.82362
 C1086 C 1.07520 0.70987 0.81419
 C1087 C 1.05304 0.71322 0.78623
 C1088 C 1.04031 0.72183 0.77777
 H1089 H 1.07191 0.68144 0.77371
 H1090 H 1.09857 0.66491 0.78961
 H1091 H 1.09504 0.70627 0.83755
 H1092 H 1.06862 0.72251 0.82094
 C1093 C 1.06914 0.20270 0.29664
 C1094 C 1.07568 0.20931 0.31477
 C1095 C 1.09111 0.19997 0.32418
 C1096 C 1.10047 0.18372 0.31562
 C1097 C 1.09339 0.17713 0.29734
 C1098 C 1.07795 0.18656 0.28801
 C1099 C 1.05366 0.21273 0.28672
 C1100 C 1.04085 0.22130 0.27833
 H1101 H 1.06890 0.22178 0.32163
 H1102 H 1.09540 0.20566 0.33822
 H1103 H 1.09978 0.16493 0.28981
 H1104 H 1.07301 0.18133 0.27392
 C1105 C 0.56921 0.29619 0.70386
 C1106 C 0.57165 0.29458 0.68361
 C1107 C 0.58702 0.30410 0.67434
 C1108 C 0.60017 0.31539 0.68522
 C1109 C 0.59750 0.31700 0.70556
 C1110 C 0.58214 0.30746 0.71479
 C1111 C 0.55367 0.28606 0.71351
 C1112 C 0.54082 0.27750 0.72178
 H1113 H 0.56170 0.28591 0.67500
 H1114 H 0.58851 0.30276 0.65865
 H1115 H 0.60750 0.32532 0.71441
 H1116 H 0.58044 0.30874 0.73049
 C1117 C 0.56856 0.79707 0.20347
 C1118 C 0.57705 0.81339 0.21198
 C1119 C 0.59243 0.82284 0.20267
 C1120 C 0.59978 0.81612 0.18453
 C1121 C 0.59073 0.79969 0.17607
 C1122 C 0.57535 0.79032 0.18548
 C1123 C 0.55314 0.78702 0.21340
 C1124 C 0.54040 0.77845 0.22183
 H1125 H 0.57190 0.81874 0.22596
 H1126 H 0.59855 0.83520 0.21011
 H1127 H 0.59525 0.79386 0.16215
 H1128 H 0.56882 0.77770 0.17871
 C1129 C 1.06876 0.29680 0.20430
 C1130 C 1.07730 0.31311 0.21276
 C1131 C 1.09266 0.32253 0.20339
 C1132 C 1.09995 0.31577 0.18524
 C1133 C 1.09086 0.29934 0.17684
 C1134 C 1.07550 0.29000 0.18629
 C1135 C 1.05334 0.28678 0.21427
 C1136 C 1.04060 0.27823 0.22273
 H1137 H 1.07219 0.31849 0.22675
 H1138 H 1.09882 0.33488 0.21080
 H1139 H 1.09533 0.29348 0.16291
 H1140 H 1.06893 0.27738 0.17957
 C1141 C 1.06940 0.79688 0.70405
 C1142 C 1.08243 0.80804 0.71496
 C1143 C 1.09788 0.81743 0.70572
 C1144 C 1.10053 0.81577 0.68537
 C1145 C 1.08728 0.80458 0.67451
 C1146 C 1.07182 0.79522 0.68380
 C1147 C 1.05377 0.78690 0.71371
 C1148 C 1.04086 0.77844 0.72200
 H1149 H 1.08075 0.80935 0.73066
 H1150 H 1.10796 0.82566 0.71455
 H1151 H 1.08876 0.80321 0.65882
 H1152 H 1.06179 0.78663 0.67520
 C1153 C 0.43115 0.70405 0.70352
 C1154 C 0.42863 0.70576 0.68329
 C1155 C 0.41320 0.69630 0.67404
 C1156 C 0.40008 0.68498 0.68492
 C1157 C 0.40283 0.68329 0.70524
 C1158 C 0.41825 0.69277 0.71445
 C1159 C 0.44676 0.71411 0.71315
 C1160 C 0.45965 0.72262 0.72141
 H1161 H 0.43855 0.71444 0.67468
 H1162 H 0.41165 0.69770 0.65837
 H1163 H 0.39286 0.67495 0.71410
 H1164 H 0.42001 0.69142 0.73014
 C1165 C 0.43047 0.20280 0.20450
 C1166 C 0.42805 0.20455 0.18427
 C1167 C 0.41268 0.19511 0.17491
 C1168 C 0.39950 0.18376 0.18570
 C1169 C 0.40216 0.18200 0.20603
 C1170 C 0.41753 0.19147 0.21534
 C1171 C 0.44598 0.21290 0.21423
 C1172 C 0.45880 0.22148 0.22255
 H1173 H 0.43800 0.21328 0.17573
 H1174 H 0.41119 0.19656 0.15924
 H1175 H 0.39215 0.17364 0.21481
 H1176 H 0.41921 0.19009 0.23103
 C1177 C -0.06952 0.70272 0.20433
 C1178 C -0.08250 0.69140 0.21515
 C1179 C -0.09791 0.68202 0.20582
 C1180 C -0.10058 0.68385 0.18550
 C1181 C -0.08737 0.69517 0.17474
 C1182 C -0.07195 0.70453 0.18410
 C1183 C -0.05396 0.71275 0.21408
 C1184 C -0.04111 0.72127 0.22239
 H1185 H -0.08081 0.68997 0.23083
 H1186 H -0.10795 0.67367 0.21458
 H1187 H -0.08885 0.69668 0.15907
 H1188 H -0.06197 0.71324 0.17558
 C1189 C -0.06869 0.20414 0.70420
 C1190 C -0.07692 0.21221 0.68742
 C1191 C -0.09235 0.20296 0.67801
 C1192 C -0.10004 0.18530 0.68524
 C1193 C -0.09125 0.17729 0.70215
 C1194 C -0.07582 0.18664 0.71148
 C1195 C -0.05318 0.21402 0.71418
 C1196 C -0.04035 0.22243 0.72264
 H1197 H -0.07149 0.22580 0.68165
 H1198 H -0.09818 0.21001 0.66522
 H1199 H -0.09607 0.16380 0.70846
 H1200 H -0.06951 0.18022 0.72448
 C1201 C 0.29580 0.43121 0.29661
 C1202 C 0.31592 0.42877 0.29484
 C1203 C 0.32525 0.41339 0.30436
 C1204 C 0.31454 0.40023 0.31580
 C1205 C 0.29433 0.40289 0.31755
 C1206 C 0.28505 0.41826 0.30801
 C1207 C 0.28609 0.44676 0.28650
 C1208 C 0.27771 0.45960 0.27798
 H1209 H 0.32440 0.43873 0.28606
 H1210 H 0.34084 0.41190 0.30290
 H1211 H 0.28561 0.39289 0.32598
 H1212 H 0.26945 0.41995 0.30941
 C1213 C 0.29742 -0.06875 0.79722
 C1214 C 0.29063 -0.07560 0.81515
 C1215 C 0.30006 -0.09100 0.82450
 C1216 C 0.31658 -0.10002 0.81605
 C1217 C 0.32334 -0.09261 0.79798
 C1218 C 0.31383 -0.07721 0.78872
 C1219 C 0.28730 -0.05333 0.78731
 C1220 C 0.27868 -0.04060 0.77886
 H1221 H 0.27794 -0.06910 0.82190
 H1222 H 0.29420 -0.09557 0.83838
 H1223 H 0.33577 -0.09869 0.79055
 H1224 H 0.31920 -0.07201 0.77478
 C1225 C 0.79757 0.43156 0.79684
 C1226 C 0.81390 0.42291 0.78838
 C1227 C 0.82333 0.40753 0.79777
 C1228 C 0.81655 0.40033 0.81592
 C1229 C 0.80011 0.40953 0.82432
 C1230 C 0.79077 0.42491 0.81485
 C1231 C 0.78753 0.44696 0.78683
 C1232 C 0.77896 0.45969 0.77833
 H1233 H 0.81928 0.42794 0.77439
 H1234 H 0.83569 0.40128 0.79037
 H1235 H 0.79426 0.40514 0.83826
 H1236 H 0.77814 0.43157 0.82157
 C1237 C 0.79651 -0.06877 0.29603
 C1238 C 0.78984 -0.07536 0.31411
 C1239 C 0.79916 -0.09081 0.32349
 C1240 C 0.81546 -0.10013 0.31494
 C1241 C 0.82209 -0.09300 0.29670
 C1242 C 0.81268 -0.07755 0.28741
 C1243 C 0.78649 -0.05326 0.28614
 C1244 C 0.77795 -0.04044 0.27775
 H1245 H 0.77733 -0.06861 0.32096
 H1246 H 0.79342 -0.09514 0.33749
 H1247 H 0.83433 -0.09935 0.28918
 H1248 H 0.81796 -0.07256 0.27336
 C1249 C 0.29693 0.56920 0.70409
 C1250 C 0.29525 0.57153 0.68384
 C1251 C 0.30468 0.58688 0.67447
 C1252 C 0.31595 0.60012 0.68526
 C1253 C 0.31766 0.59755 0.70560
 C1254 C 0.30820 0.58220 0.71493
 C1255 C 0.28683 0.55371 0.71383
 C1256 C 0.27827 0.54091 0.72214
 H1257 H 0.28658 0.56153 0.67530
 H1258 H 0.30328 0.58830 0.65879
 H1259 H 0.32597 0.60761 0.71438
 H1260 H 0.30953 0.58059 0.73063
 C1261 C 0.29683 1.06819 0.20395
 C1262 C 0.31311 1.07678 0.21245
 C1263 C 0.32247 1.09220 0.20315
 C1264 C 0.31568 1.09950 0.18502
 C1265 C 0.29929 1.09036 0.17658
 C1266 C 0.29001 1.07494 0.18598
 C1267 C 0.28685 1.05274 0.21389
 C1268 C 0.27833 1.03998 0.22232
 H1269 H 0.31850 1.07167 0.22642
 H1270 H 0.33481 1.09839 0.21058
 H1271 H 0.29341 1.09484 0.16268
 H1272 H 0.27741 1.06834 0.17922
 C1273 C 0.79607 0.56844 0.20368
 C1274 C 0.81619 0.57077 0.20540
 C1275 C 0.82547 0.58619 0.19599
 C1276 C 0.81473 0.59950 0.18470
 C1277 C 0.79451 0.59693 0.18296
 C1278 C 0.78527 0.58152 0.19240
 C1279 C 0.78640 0.55287 0.21374
 C1280 C 0.77809 0.54002 0.22224
 H1281 H 0.82470 0.56071 0.21408
 H1282 H 0.84106 0.58760 0.19742
 H1283 H 0.78576 0.60705 0.17465
 H1284 H 0.76967 0.57991 0.19104
 C1285 C 0.79710 1.07014 0.70471
 C1286 C 0.79535 1.07254 0.68448
 C1287 C 0.80469 1.08798 0.67515
 C1288 C 0.81592 1.10123 0.68597
 C1289 C 0.81767 1.09859 0.70630
 C1290 C 0.80831 1.08316 0.71559
 C1291 C 0.78715 1.05452 0.71441
 C1292 C 0.77870 1.04161 0.72269
 H1293 H 0.78673 1.06252 0.67591
 H1294 H 0.80326 1.08945 0.65947
 H1295 H 0.82594 1.10866 0.71510
 H1296 H 0.80969 1.08149 0.73128
 C1297 C 0.70371 0.56853 0.29691
 C1298 C 0.68360 0.57094 0.29506
 C1299 C 0.67423 0.58639 0.30445
 C1300 C 0.68488 0.59963 0.31585
 C1301 C 0.70509 0.59699 0.31770
 C1302 C 0.71441 0.58156 0.30829
 C1303 C 0.71347 0.55293 0.28689
 C1304 C 0.72187 0.54005 0.27841
 H1305 H 0.67516 0.56092 0.28630
 H1306 H 0.65865 0.58786 0.30293
 H1307 H 0.71376 0.60706 0.32610
 H1308 H 0.73001 0.57988 0.30975
 C1309 C 0.70340 1.06883 0.79725
 C1310 C 0.71016 1.07573 0.81518
 C1311 C 0.70064 1.09107 0.82457
 C1312 C 0.68405 1.09997 0.81616
 C1313 C 0.67732 1.09251 0.79809
 C1314 C 0.68693 1.07718 0.78879
 C1315 C 0.71360 1.05347 0.78730
 C1316 C 0.72223 1.04079 0.77878
 H1317 H 0.72291 1.06931 0.82190
 H1318 H 0.70650 1.09568 0.83843
 H1319 H 0.66484 1.09850 0.79069
 H1320 H 0.68157 1.07194 0.77486
 C1321 C 0.20247 0.56871 0.79617
 C1322 C 0.20907 0.57527 0.81429
 C1323 C 0.19967 0.59064 0.82374
 C1324 C 0.18335 0.59993 0.81520
 C1325 C 0.17676 0.59281 0.79694
 C1326 C 0.18626 0.57743 0.78758
 C1327 C 0.21259 0.55331 0.78621
 C1328 C 0.22124 0.54059 0.77776
 H1329 H 0.22161 0.56856 0.82112
 H1330 H 0.20536 0.59496 0.83776
 H1331 H 0.16451 0.59913 0.78943
 H1332 H 0.18103 0.57247 0.77350
 C1333 C 0.20350 1.06868 0.29687
 C1334 C 0.21196 1.07737 0.31322
 C1335 C 0.20266 1.09283 0.32263
 C1336 C 0.18459 1.10007 0.31584
 C1337 C 0.17621 1.09084 0.29937
 C1338 C 0.18560 1.07538 0.29004
 C1339 C 0.21341 1.05314 0.28688
 C1340 C 0.22184 1.04030 0.27840
 H1341 H 0.22587 1.07230 0.31862
 H1342 H 0.21005 1.09909 0.33501
 H1343 H 0.16236 1.09527 0.29348
 H1344 H 0.17888 1.06870 0.27740
 C1345 C 0.70346 0.43102 0.70447
 C1346 C 0.70512 0.42871 0.68422
 C1347 C 0.69567 0.41338 0.67482
 C1348 C 0.68441 0.40012 0.68559
 C1349 C 0.68273 0.40267 0.70595
 C1350 C 0.69220 0.41800 0.71530
 C1351 C 0.71356 0.44650 0.71423
 C1352 C 0.72212 0.45931 0.72255
 H1353 H 0.71378 0.43872 0.67569
 H1354 H 0.69706 0.41198 0.65913
 H1355 H 0.67443 0.39260 0.71471
 H1356 H 0.69088 0.41960 0.73101
 C1357 C 0.70259 -0.06864 0.20395
 C1358 C 0.70435 -0.07105 0.18371
 C1359 C 0.69496 -0.08645 0.17436
 C1360 C 0.68365 -0.09965 0.18515
 C1361 C 0.68188 -0.09700 0.20548
 C1362 C 0.69130 -0.08161 0.21480
 C1363 C 0.71266 -0.05312 0.21369
 C1364 C 0.72120 -0.04030 0.22203
 H1365 H 0.71305 -0.06108 0.17517
 H1366 H 0.69642 -0.08793 0.15868
 H1367 H 0.67355 -0.10703 0.21427
 H1368 H 0.68991 -0.07993 0.23049
 C1369 C 0.20270 0.43111 0.20410
 C1370 C 0.19143 0.41816 0.21500
 C1371 C 0.18204 0.40273 0.20575
 C1372 C 0.18380 0.40000 0.18543
 C1373 C 0.19508 0.41317 0.17458
 C1374 C 0.20446 0.42862 0.18387
 C1375 C 0.21273 0.44669 0.21378
 C1376 C 0.22124 0.45956 0.22208
 H1377 H 0.19005 0.41990 0.23069
 H1378 H 0.17373 0.39272 0.21458
 H1379 H 0.19654 0.41163 0.15891
 H1380 H 0.21313 0.43857 0.17529
 C1381 C 0.20378 -0.06928 0.70431
 C1382 C 0.21058 -0.07599 0.68630
 C1383 C 0.20127 -0.09135 0.67684
 C1384 C 0.18485 -0.10048 0.68524
 C1385 C 0.17809 -0.09324 0.70342
 C1386 C 0.18749 -0.07788 0.71279
 C1387 C 0.21372 -0.05382 0.71428
 C1388 C 0.22216 -0.04103 0.72275
 H1389 H 0.22319 -0.06938 0.67956
 H1390 H 0.20713 -0.09579 0.66290
 H1391 H 0.16575 -0.09943 0.71083
 H1392 H 0.18210 -0.07280 0.72678
 C1393 C 0.29559 0.29668 0.43201
 C1394 C 0.28486 0.30805 0.41894
 C1395 C 0.29419 0.31760 0.40358
 C1396 C 0.31442 0.31589 0.40104
 C1397 C 0.32510 0.30451 0.41436
 C1398 C 0.31574 0.29498 0.42973
 C1399 C 0.28586 0.28649 0.44752
 C1400 C 0.27753 0.27787 0.46035
 H1401 H 0.26925 0.30939 0.42053
 H1402 H 0.28549 0.32599 0.39346
 H1403 H 0.34070 0.30310 0.41297
 H1404 H 0.32419 0.28623 0.43979
 C1405 C 0.29670 0.79613 -0.06935
 C1406 C 0.29508 0.81626 -0.07149
 C1407 C 0.30470 0.82567 -0.08678
 C1408 C 0.31609 0.81505 -0.10015
 C1409 C 0.31773 0.79482 -0.09777
 C1410 C 0.30808 0.78545 -0.08248
 C1411 C 0.28646 0.78636 -0.05389
 C1412 C 0.27781 0.77801 -0.04110
 H1413 H 0.28633 0.82467 -0.06137
 H1414 H 0.30334 0.84126 -0.08804
 H1415 H 0.32612 0.78618 -0.10794
 H1416 H 0.30938 0.76984 -0.08101
 C1417 C 0.79626 0.29657 -0.06902
 C1418 C 0.81641 0.29486 -0.07120
 C1419 C 0.82586 0.30441 -0.08652
 C1420 C 0.81526 0.31580 -0.09987
 C1421 C 0.79501 0.31751 -0.09746
 C1422 C 0.78560 0.30795 -0.08215
 C1423 C 0.78644 0.28645 -0.05352
 C1424 C 0.77805 0.27791 -0.04069
 H1425 H 0.82481 0.28612 -0.06110
 H1426 H 0.84147 0.30300 -0.08781
 H1427 H 0.78637 0.32591 -0.10761
 H1428 H 0.76997 0.30930 -0.08064
 C1429 C 0.79613 0.79676 0.43084
 C1430 C 0.81626 0.79507 0.42848
 C1431 C 0.82555 0.80453 0.41301
 C1432 C 0.81480 0.81583 0.39969
 C1433 C 0.79457 0.81754 0.40230
 C1434 C 0.78532 0.80806 0.41776
 C1435 C 0.78648 0.78665 0.44646
 C1436 C 0.77823 0.77809 0.45938
 H1437 H 0.82477 0.78639 0.43854
 H1438 H 0.84114 0.80312 0.41156
 H1439 H 0.78583 0.82587 0.39218
 H1440 H 0.76972 0.80939 0.41941
 C1441 C 0.70379 0.29671 0.56895
 C1442 C 0.68367 0.29502 0.57131
 C1443 C 0.67433 0.30447 0.58680
 C1444 C 0.68502 0.31576 0.60015
 C1445 C 0.70523 0.31746 0.59754
 C1446 C 0.71453 0.30799 0.58206
 C1447 C 0.71351 0.28661 0.55332
 C1448 C 0.72184 0.27805 0.54041
 H1449 H 0.67521 0.28634 0.56123
 H1450 H 0.65874 0.30307 0.58825
 H1451 H 0.71393 0.32578 0.60768
 H1452 H 0.73013 0.30932 0.58041
 C1453 C 0.70353 0.79686 1.06892
 C1454 C 0.69224 0.78610 1.08200
 C1455 C 0.68269 0.79536 1.09745
 C1456 C 0.68431 0.81555 1.10007
 C1457 C 0.69562 0.82626 1.08676
 C1458 C 0.70516 0.81696 1.07130
 C1459 C 0.71367 0.78717 1.05328
 C1460 C 0.72222 0.77884 1.04037
 H1461 H 0.69095 0.77052 1.08034
 H1462 H 0.67436 0.78664 1.10756
 H1463 H 0.69697 0.84183 1.08821
 H1464 H 0.71385 0.82543 1.06124
 C1465 C 0.20344 0.29609 1.06948
 C1466 C 0.19219 0.28537 1.08263
 C1467 C 0.18268 0.29469 1.09808
 C1468 C 0.18432 0.31489 1.10063
 C1469 C 0.19560 0.32554 1.08726
 C1470 C 0.20509 0.31619 1.07179
 C1471 C 0.21353 0.28636 1.05384
 C1472 C 0.22207 0.27802 1.04092
 H1473 H 0.19089 0.26979 1.08103
 H1474 H 0.17438 0.28601 1.10825
 H1475 H 0.19696 0.34112 1.08865
 H1476 H 0.21374 0.32464 1.06168
 C1477 C 0.20398 0.79656 0.56892
 C1478 C 0.18386 0.79495 0.57131
 C1479 C 0.17459 0.80440 0.58685
 C1480 C 0.18535 0.81561 0.60021
 C1481 C 0.20557 0.81722 0.59757
 C1482 C 0.21480 0.80775 0.58204
 C1483 C 0.21364 0.78648 0.55323
 C1484 C 0.22194 0.77795 0.54027
 H1485 H 0.17534 0.78634 0.56122
 H1486 H 0.15899 0.80306 0.58831
 H1487 H 0.21432 0.82547 0.60772
 H1488 H 0.23040 0.80902 0.58037
 C1489 C 0.29611 0.70339 0.56883
 C1490 C 0.31622 0.70521 0.57118
 C1491 C 0.32562 0.69586 0.58668
 C1492 C 0.31500 0.68455 0.60006
 C1493 C 0.29479 0.68275 0.59747
 C1494 C 0.28543 0.69211 0.58198
 C1495 C 0.28633 0.71337 0.55316
 C1496 C 0.27794 0.72181 0.54023
 H1497 H 0.32464 0.71390 0.56107
 H1498 H 0.34120 0.69735 0.58810
 H1499 H 0.28613 0.67441 0.60763
 H1500 H 0.26984 0.69068 0.58035
 C1501 C 0.29596 0.20297 1.06941
 C1502 C 0.31608 0.20469 1.07182
 C1503 C 0.32540 0.19521 1.08729
 C1504 C 0.31470 0.18387 1.10057
 C1505 C 0.29449 0.18215 1.09792
 C1506 C 0.28521 0.19165 1.08246
 C1507 C 0.28627 0.21310 1.05379
 C1508 C 0.27798 0.22168 1.04089
 H1509 H 0.32455 0.21341 1.06179
 H1510 H 0.34098 0.19664 1.08876
 H1511 H 0.28578 0.17379 1.10802
 H1512 H 0.26962 0.19029 1.08079
 C1513 C 0.79618 0.70398 1.06909
 C1514 C 0.81629 0.70564 1.07157
 C1515 C 0.82554 0.69609 1.08704
 C1516 C 0.81477 0.68472 1.10025
 C1517 C 0.79456 0.68308 1.09753
 C1518 C 0.78536 0.69265 1.08207
 C1519 C 0.78655 0.71411 1.05343
 C1520 C 0.77826 0.72265 1.04050
 H1521 H 0.82482 0.71435 1.06158
 H1522 H 0.84112 0.69746 1.08856
 H1523 H 0.78580 0.67471 1.10757
 H1524 H 0.76977 0.69133 1.08034
 C1525 C 0.79660 0.20420 0.56928
 C1526 C 0.80785 0.21502 0.58234
 C1527 C 0.81732 0.20584 0.59788
 C1528 C 0.81564 0.18567 0.60060
 C1529 C 0.80436 0.17490 0.58730
 C1530 C 0.79491 0.18412 0.57175
 C1531 C 0.78652 0.21380 0.55357
 C1532 C 0.77800 0.22205 0.54060
 H1533 H 0.80918 0.23059 0.58062
 H1534 H 0.82563 0.21460 0.60798
 H1535 H 0.80297 0.15934 0.58883
 H1536 H 0.78625 0.17560 0.56171
 C1537 C 0.70376 0.70357 0.43144
 C1538 C 0.70537 0.68344 0.42929
 C1539 C 0.69582 0.67403 0.41394
 C1540 C 0.68451 0.68466 0.40053
 C1541 C 0.68289 0.70489 0.40293
 C1542 C 0.69246 0.71426 0.41827
 C1543 C 0.71393 0.71336 0.44693
 C1544 C 0.72252 0.72176 0.45974
 H1545 H 0.71407 0.67502 0.43942
 H1546 H 0.69717 0.65844 0.41265
 H1547 H 0.67456 0.71355 0.39273
 H1548 H 0.69118 0.72987 0.41975
 C1549 C 0.70301 0.20381 -0.06888
 C1550 C 0.69162 0.21442 -0.08203
 C1551 C 0.68209 0.20499 -0.09736
 C1552 C 0.68385 0.18477 -0.09975
 C1553 C 0.69525 0.17422 -0.08636
 C1554 C 0.70476 0.18369 -0.07103
 C1555 C 0.71316 0.21365 -0.05340
 C1556 C 0.72174 0.22204 -0.04059
 H1557 H 0.69024 0.23002 -0.08055
 H1558 H 0.67369 0.21358 -0.10755
 H1559 H 0.69669 0.15863 -0.08764
 H1560 H 0.71351 0.17533 -0.06090
 C1561 C 0.20321 0.70361 -0.06956
 C1562 C 0.18307 0.70536 -0.07180
 C1563 C 0.17366 0.69583 -0.08715
 C1564 C 0.18429 0.68440 -0.10048
 C1565 C 0.20453 0.68265 -0.09800
 C1566 C 0.21390 0.69220 -0.08266
 C1567 C 0.21300 0.71373 -0.05403
 C1568 C 0.22140 0.72226 -0.04119
 H1569 H 0.17465 0.71414 -0.06172
 H1570 H 0.15806 0.69727 -0.08850
 H1571 H 0.21319 0.67423 -0.10814
 H1572 H 0.22952 0.69082 -0.08111
 C1573 C 0.20354 0.20333 0.43152
 C1574 C 0.20534 0.18323 0.42919
 C1575 C 0.19594 0.17389 0.41371
 C1576 C 0.18460 0.18454 0.40035
 C1577 C 0.18281 0.20474 0.40292
 C1578 C 0.19222 0.21405 0.41839
 C1579 C 0.21354 0.21306 0.44717
 C1580 C 0.22198 0.22142 0.46010
 H1581 H 0.21405 0.17480 0.43930
 H1582 H 0.19741 0.15832 0.41230
 H1583 H 0.17445 0.21342 0.39276
 H1584 H 0.19081 0.22963 0.42001
 C1585 C 0.29751 0.43200 0.70373
 C1586 C 0.29565 0.42958 0.68350
 C1587 C 0.30513 0.41421 0.67409
 C1588 C 0.31661 0.40105 0.68481
 C1589 C 0.31850 0.40372 0.70512
 C1590 C 0.30900 0.41908 0.71450
 C1591 C 0.28733 0.44746 0.71353
 C1592 C 0.27868 0.46022 0.72191
 H1593 H 0.28681 0.43951 0.67502
 H1594 H 0.30357 0.41271 0.65842
 H1595 H 0.32697 0.39372 0.71385
 H1596 H 0.31047 0.42077 0.73018
 C1597 C 0.29608 0.93077 0.20359
 C1598 C 0.28538 0.91773 0.19223
 C1599 C 0.29472 0.90234 0.18276
 C1600 C 0.31494 0.89975 0.18453
 C1601 C 0.32559 0.91301 0.19593
 C1602 C 0.31621 0.92841 0.20538
 C1603 C 0.28632 0.94635 0.21364
 C1604 C 0.27794 0.95922 0.22214
 H1605 H 0.26977 0.91937 0.19082
 H1606 H 0.28604 0.89227 0.17436
 H1607 H 0.34118 0.91157 0.19739
 H1608 H 0.32464 0.93844 0.21413
 C1609 C 0.79651 0.43080 0.20362
 C1610 C 0.78584 0.41775 0.19223
 C1611 C 0.79522 0.40237 0.18278
 C1612 C 0.81544 0.39979 0.18461
 C1613 C 0.82605 0.41306 0.19602
 C1614 C 0.81663 0.42845 0.20546
 C1615 C 0.78670 0.44635 0.21367
 C1616 C 0.77828 0.45919 0.22217
 H1617 H 0.77024 0.41937 0.19078
 H1618 H 0.78658 0.39228 0.17436
 H1619 H 0.84164 0.41164 0.19753
 H1620 H 0.82503 0.43849 0.21422
 C1621 C 0.79741 0.93271 0.70288
 C1622 C 0.81757 0.93050 0.70449
 C1623 C 0.82698 0.91519 0.69492
 C1624 C 0.81633 0.90187 0.68360
 C1625 C 0.79608 0.90433 0.68199
 C1626 C 0.78671 0.91963 0.69157
 C1627 C 0.78761 0.94814 0.71311
 C1628 C 0.77917 0.96087 0.72176
 H1629 H 0.82600 0.94057 0.71319
 H1630 H 0.84259 0.91385 0.69626
 H1631 H 0.78740 0.89420 0.67366
 H1632 H 0.77108 0.92115 0.69031
 C1633 C 0.70313 0.56814 0.70381
 C1634 C 0.69165 0.58112 0.71454
 C1635 C 0.68217 0.59643 0.70511
 C1636 C 0.68406 0.59900 0.68478
 C1637 C 0.69554 0.58577 0.67411
 C1638 C 0.70500 0.57045 0.68358
 C1639 C 0.71329 0.55271 0.71367
 C1640 C 0.72191 0.53997 0.72209
 H1641 H 0.69018 0.57951 0.73023
 H1642 H 0.67370 0.60649 0.71380
 H1643 H 0.69709 0.58719 0.65844
 H1644 H 0.71384 0.56046 0.67513
 C1645 C 0.70312 0.06907 0.20369
 C1646 C 0.68300 0.07144 0.20547
 C1647 C 0.67365 0.08688 0.19606
 C1648 C 0.68433 0.10015 0.18473
 C1649 C 0.70456 0.09755 0.18297
 C1650 C 0.71386 0.08212 0.19240
 C1651 C 0.71286 0.05345 0.21368
 C1652 C 0.72126 0.04055 0.22211
 H1653 H 0.67453 0.06140 0.21416
 H1654 H 0.65806 0.08833 0.19751
 H1655 H 0.71326 0.10763 0.17463
 H1656 H 0.72946 0.08047 0.19100
 C1657 C 0.20311 0.56878 0.20324
 C1658 C 0.21383 0.58182 0.19191
 C1659 C 0.20449 0.59720 0.18244
 C1660 C 0.18426 0.59977 0.18419
 C1661 C 0.17360 0.58652 0.19556
 C1662 C 0.18298 0.57113 0.20502
 C1663 C 0.21288 0.55323 0.21330
 C1664 C 0.22129 0.54039 0.22179
 H1665 H 0.22943 0.58020 0.19052
 H1666 H 0.21318 0.60727 0.17407
 H1667 H 0.15801 0.58795 0.19701
 H1668 H 0.17454 0.56111 0.21374
 C1669 C 0.20264 0.06769 0.70437
 C1670 C 0.19123 0.08071 0.71512
 C1671 C 0.18170 0.09600 0.70570
 C1672 C 0.18346 0.09849 0.68536
 C1673 C 0.19487 0.08523 0.67466
 C1674 C 0.20438 0.06993 0.68411
 C1675 C 0.21284 0.05229 0.71422
 C1676 C 0.22149 0.03957 0.72264
 H1677 H 0.18986 0.07916 0.73083
 H1678 H 0.17329 0.10608 0.71442
 H1679 H 0.19633 0.08660 0.65897
 H1680 H 0.21316 0.05992 0.67564
 C1681 C 0.29657 0.56869 0.29568
 C1682 C 0.29479 0.57119 0.31590
 C1683 C 0.30429 0.58655 0.32522
 C1684 C 0.31572 0.59962 0.31440
 C1685 C 0.31749 0.59688 0.29408
 C1686 C 0.30797 0.58154 0.28480
 C1687 C 0.28643 0.55319 0.28598
 C1688 C 0.27786 0.54037 0.27767
 H1689 H 0.28601 0.56132 0.32447
 H1690 H 0.30282 0.58809 0.34089
 H1691 H 0.32592 0.60682 0.28527
 H1692 H 0.30938 0.57979 0.26912
 C1693 C 0.29643 0.06867 0.79657
 C1694 C 0.29469 0.07124 0.81680
 C1695 C 0.30415 0.08667 0.82603
 C1696 C 0.31549 0.09975 0.81512
 C1697 C 0.31720 0.09696 0.79480
 C1698 C 0.30773 0.08154 0.78562
 C1699 C 0.28640 0.05305 0.78696
 C1700 C 0.27795 0.04015 0.77867
 H1701 H 0.28600 0.06134 0.82543
 H1702 H 0.30273 0.08826 0.84170
 H1703 H 0.32555 0.10690 0.78593
 H1704 H 0.30909 0.07974 0.76994
 C1705 C 0.79725 0.56880 0.79580
 C1706 C 0.79555 0.57123 0.81604
 C1707 C 0.80494 0.58665 0.82535
 C1708 C 0.81618 0.59987 0.81452
 C1709 C 0.81789 0.59720 0.79418
 C1710 C 0.80848 0.58179 0.78491
 C1711 C 0.78720 0.55324 0.78611
 C1712 C 0.77868 0.54038 0.77783
 H1713 H 0.78691 0.56124 0.82462
 H1714 H 0.80353 0.58814 0.84104
 H1715 H 0.82617 0.60725 0.78536
 H1716 H 0.80983 0.58010 0.76921
 C1717 C 0.79665 0.06853 0.29595
 C1718 C 0.79483 0.07099 0.31618
 C1719 C 0.80433 0.08631 0.32555
 C1720 C 0.81580 0.09939 0.31479
 C1721 C 0.81762 0.09670 0.29447
 C1722 C 0.80810 0.08139 0.28514
 C1723 C 0.78652 0.05306 0.28620
 C1724 C 0.77794 0.04028 0.27784
 H1725 H 0.78601 0.06111 0.32470
 H1726 H 0.80282 0.08783 0.34122
 H1727 H 0.82608 0.10664 0.28570
 H1728 H 0.80954 0.07967 0.26945
 C1729 C 0.70334 0.43081 0.29627
 C1730 C 0.69191 0.41802 0.28536
 C1731 C 0.68239 0.40265 0.29457
 C1732 C 0.68419 0.39983 0.31488
 C1733 C 0.69565 0.41285 0.32573
 C1734 C 0.70516 0.42823 0.31648
 C1735 C 0.71345 0.44636 0.28662
 C1736 C 0.72197 0.45920 0.27831
 H1737 H 0.69047 0.41983 0.26969
 H1738 H 0.67394 0.39276 0.28574
 H1739 H 0.69715 0.41124 0.34139
 H1740 H 0.71396 0.43807 0.32507
 C1741 C 0.70426 0.93151 0.79566
 C1742 C 0.70596 0.92897 0.81588
 C1743 C 0.69652 0.91353 0.82510
 C1744 C 0.68524 0.90040 0.81418
 C1745 C 0.68355 0.90317 0.79386
 C1746 C 0.69300 0.91861 0.78469
 C1747 C 0.71429 0.94714 0.78607
 C1748 C 0.72276 0.96007 0.77784
 H1749 H 0.71461 0.93890 0.82453
 H1750 H 0.69792 0.91196 0.84077
 H1751 H 0.67524 0.89320 0.78498
 H1752 H 0.69166 0.92039 0.76901
 C1753 C 0.20333 0.43158 0.79574
 C1754 C 0.19204 0.41856 0.78496
 C1755 C 0.18267 0.40318 0.79433
 C1756 C 0.18449 0.40060 0.81466
 C1757 C 0.19580 0.41385 0.82539
 C1758 C 0.20515 0.42923 0.81598
 C1759 C 0.21333 0.44710 0.78595
 C1760 C 0.22182 0.45993 0.77760
 H1761 H 0.19061 0.42018 0.76927
 H1762 H 0.17434 0.39311 0.78559
 H1763 H 0.19730 0.41243 0.84107
 H1764 H 0.21384 0.43925 0.82448
 C1765 C 0.20254 0.93131 0.29601
 C1766 C 0.19120 0.91841 0.28512
 C1767 C 0.18170 0.90305 0.29438
 C1768 C 0.18344 0.90035 0.31470
 C1769 C 0.19477 0.91350 0.32554
 C1770 C 0.20424 0.92887 0.31624
 C1771 C 0.21271 0.94678 0.28633
 C1772 C 0.22134 0.95956 0.27803
 H1773 H 0.18985 0.92011 0.26943
 H1774 H 0.17335 0.89306 0.28556
 H1775 H 0.19620 0.91199 0.34122
 H1776 H 0.21296 0.93879 0.32482
 C1777 C 0.43172 0.29657 0.70330
 C1778 C 0.41892 0.30815 0.71414
 C1779 C 0.40358 0.31775 0.70486
 C1780 C 0.40081 0.31589 0.68456
 C1781 C 0.41384 0.30430 0.67376
 C1782 C 0.42919 0.29471 0.68309
 C1783 C 0.44721 0.28636 0.71302
 C1784 C 0.45999 0.27772 0.72138
 H1785 H 0.42069 0.30961 0.72982
 H1786 H 0.39367 0.32630 0.71365
 H1787 H 0.41225 0.30276 0.65810
 H1788 H 0.43903 0.28580 0.67455
 C1789 C 0.43100 0.79634 0.20366
 C1790 C 0.41797 0.78563 0.19229
 C1791 C 0.40256 0.79493 0.18283
 C1792 C 0.39993 0.81512 0.18462
 C1793 C 0.41316 0.82577 0.19605
 C1794 C 0.42860 0.81643 0.20549
 C1795 C 0.44664 0.78660 0.21364
 C1796 C 0.45955 0.77819 0.22205
 H1797 H 0.41964 0.77006 0.19085
 H1798 H 0.39249 0.78626 0.17442
 H1799 H 0.41169 0.84134 0.19753
 H1800 H 0.43862 0.82486 0.21425
 C1801 C 0.93133 0.29633 0.20442
 C1802 C 0.92895 0.31643 0.20619
 C1803 C 0.91357 0.32578 0.19666
 C1804 C 0.90037 0.31512 0.18522
 C1805 C 0.90295 0.29492 0.18350
 C1806 C 0.91832 0.28562 0.19304
 C1807 C 0.94691 0.28659 0.21447
 C1808 C 0.95979 0.27816 0.22291
 H1809 H 0.93896 0.32487 0.21495
 H1810 H 0.91213 0.34135 0.19809
 H1811 H 0.89291 0.28624 0.17508
 H1812 H 0.91996 0.27004 0.19165
 C1813 C 0.93186 0.79796 0.70341
 C1814 C 0.92953 0.79611 0.68317
 C1815 C 0.91423 0.80564 0.67371
 C1816 C 0.90105 0.81717 0.68438
 C1817 C 0.90363 0.81905 0.70471
 C1818 C 0.91892 0.80949 0.71414
 C1819 C 0.94728 0.78776 0.71326
 C1820 C 0.96001 0.77910 0.72167
 H1821 H 0.93948 0.78724 0.67472
 H1822 H 0.91281 0.80410 0.65803
 H1823 H 0.89361 0.82756 0.71340
 H1824 H 0.92054 0.81095 0.72983
 C1825 C 0.56784 0.29717 0.29600
 C1826 C 0.58080 0.30846 0.28513
 C1827 C 0.59623 0.31787 0.29441
 C1828 C 0.59893 0.31609 0.31473
 C1829 C 0.58571 0.30482 0.32555
 C1830 C 0.57028 0.29543 0.31623
 C1831 C 0.55231 0.28707 0.28630
 C1832 C 0.53948 0.27848 0.27801
 H1833 H 0.57910 0.30983 0.26944
 H1834 H 0.60626 0.32618 0.28561
 H1835 H 0.58722 0.30336 0.34122
 H1836 H 0.56031 0.28675 0.32479
 C1837 C 0.56936 0.79737 0.79486
 C1838 C 0.57175 0.79562 0.81510
 C1839 C 0.58717 0.80498 0.82447
 C1840 C 0.60042 0.81624 0.81370
 C1841 C 0.59780 0.81801 0.79336
 C1842 C 0.58238 0.80863 0.78403
 C1843 C 0.55379 0.78737 0.78512
 C1844 C 0.54092 0.77887 0.77680
 H1845 H 0.56173 0.78696 0.82364
 H1846 H 0.58862 0.80352 0.84015
 H1847 H 0.60787 0.82631 0.78459
 H1848 H 0.58073 0.81001 0.76834
 C1849 C 0.06932 0.29676 0.79654
 C1850 C 0.08222 0.30806 0.78562
 C1851 C 0.09765 0.31752 0.79484
 C1852 C 0.10040 0.31579 0.81516
 C1853 C 0.08729 0.30446 0.82602
 C1854 C 0.07185 0.29501 0.81676
 C1855 C 0.05371 0.28674 0.78689
 C1856 C 0.04081 0.27828 0.77858
 H1857 H 0.08046 0.30944 0.76994
 H1858 H 0.10761 0.32587 0.78599
 H1859 H 0.08885 0.30302 0.84169
 H1860 H 0.06193 0.28631 0.82536
 C1861 C 0.06827 0.79645 0.29590
 C1862 C 0.07082 0.79461 0.31611
 C1863 C 0.08623 0.80405 0.32541
 C1864 C 0.09932 0.81548 0.31460
 C1865 C 0.09653 0.81731 0.29429
 C1866 C 0.08113 0.80785 0.28503
 C1867 C 0.05271 0.78638 0.28621
 C1868 C 0.03985 0.77785 0.27791
 H1869 H 0.06094 0.78583 0.32467
 H1870 H 0.08781 0.80253 0.34107
 H1871 H 0.10647 0.82574 0.28549
 H1872 H 0.07935 0.80930 0.26936
 C1873 C 0.56890 0.70353 0.70283
 C1874 C 0.57146 0.70531 0.68261
 C1875 C 0.58684 0.69570 0.67333
 C1876 C 0.59987 0.68417 0.68417
 C1877 C 0.59707 0.68240 0.70448
 C1878 C 0.58170 0.69202 0.71372
 C1879 C 0.55337 0.71375 0.71251
 C1880 C 0.54056 0.72237 0.72087
 H1881 H 0.56162 0.71417 0.67404
 H1882 H 0.58845 0.69717 0.65767
 H1883 H 0.60697 0.67390 0.71330
 H1884 H 0.57990 0.69062 0.72939
 C1885 C 0.56826 0.20360 0.20394
 C1886 C 0.58132 0.21432 0.19263
 C1887 C 0.59676 0.20502 0.18317
 C1888 C 0.59937 0.18483 0.18491
 C1889 C 0.58611 0.17417 0.19627
 C1890 C 0.57066 0.18350 0.20572
 C1891 C 0.55263 0.21333 0.21396
 C1892 C 0.53972 0.22172 0.22241
 H1893 H 0.57966 0.22989 0.19124
 H1894 H 0.60684 0.21371 0.17481
 H1895 H 0.58757 0.15860 0.19771
 H1896 H 0.56061 0.17506 0.21443
 C1897 C 0.06833 0.70321 0.20351
 C1898 C 0.08136 0.71395 0.19220
 C1899 C 0.09678 0.70469 0.18267
 C1900 C 0.09939 0.68449 0.18435
 C1901 C 0.08614 0.67379 0.19570
 C1902 C 0.07071 0.68310 0.20521
 C1903 C 0.05272 0.71291 0.21361
 C1904 C 0.03984 0.72128 0.22212
 H1905 H 0.07970 0.72954 0.19086
 H1906 H 0.10685 0.71339 0.17431
 H1907 H 0.08759 0.65822 0.19709
 H1908 H 0.06069 0.67464 0.21392
 C1909 C 0.06865 0.20316 0.70417
 C1910 C 0.08152 0.19165 0.71496
 C1911 C 0.09681 0.18201 0.70559
 C1912 C 0.09945 0.18378 0.68526
 C1913 C 0.08635 0.19533 0.67453
 C1914 C 0.07106 0.20495 0.68393
 C1915 C 0.05319 0.21338 0.71397
 C1916 C 0.04043 0.22200 0.72240
 H1917 H 0.07985 0.19024 0.73064
 H1918 H 0.10677 0.17350 0.71433
 H1919 H 0.08783 0.19680 0.65885
 H1920 H 0.06115 0.21381 0.67544
 C1921 C 0.43167 0.70265 0.29561
 C1922 C 0.41872 0.69133 0.28475
 C1923 C 0.40335 0.68187 0.29405
 C1924 C 0.40068 0.68363 0.31439
 C1925 C 0.41388 0.69494 0.32519
 C1926 C 0.42926 0.70438 0.31585
 C1927 C 0.44717 0.71279 0.28589
 C1928 C 0.45996 0.72139 0.27757
 H1929 H 0.42040 0.68997 0.26906
 H1930 H 0.39332 0.67353 0.28526
 H1931 H 0.41239 0.69638 0.34087
 H1932 H 0.43922 0.71309 0.32441
 C1933 C 0.43137 0.20257 0.79537
 C1934 C 0.42907 0.20439 0.81561
 C1935 C 0.41370 0.19504 0.82506
 C1936 C 0.40041 0.18373 0.81437
 C1937 C 0.40296 0.18190 0.79403
 C1938 C 0.41833 0.19127 0.78461
 C1939 C 0.44689 0.21258 0.78554
 C1940 C 0.45971 0.22108 0.77717
 H1941 H 0.43910 0.21309 0.82408
 H1942 H 0.41229 0.19654 0.84075
 H1943 H 0.39287 0.17356 0.78532
 H1944 H 0.41993 0.18984 0.76892
 C1945 C 0.93111 0.70388 0.79551
 C1946 C 0.91819 0.69252 0.78467
 C1947 C 0.90283 0.68304 0.79398
 C1948 C 0.90016 0.68482 0.81431
 C1949 C 0.91329 0.69621 0.82510
 C1950 C 0.92866 0.70567 0.81575
 C1951 C 0.94666 0.71393 0.78579
 C1952 C 0.95952 0.72243 0.77747
 H1953 H 0.91990 0.69111 0.76898
 H1954 H 0.89285 0.67465 0.78520
 H1955 H 0.91179 0.69768 0.84077
 H1956 H 0.93860 0.71441 0.82429
 C1957 C 0.93178 0.20245 0.29635
 C1958 C 0.91885 0.19114 0.28546
 C1959 C 0.90349 0.18164 0.29473
 C1960 C 0.90081 0.18334 0.31507
 C1961 C 0.91399 0.19464 0.32590
 C1962 C 0.92936 0.20413 0.31659
 C1963 C 0.94726 0.21262 0.28666
 C1964 C 0.96005 0.22125 0.27836
 H1965 H 0.92054 0.18982 0.26976
 H1966 H 0.89348 0.17330 0.28591
 H1967 H 0.91249 0.19605 0.34159
 H1968 H 0.93930 0.21283 0.32517
 C1969 C 0.29597 0.29637 0.56973
 C1970 C 0.28538 0.30784 0.58285
 C1971 C 0.29487 0.31745 0.59809
 C1972 C 0.31512 0.31568 0.60044
 C1973 C 0.32565 0.30418 0.58710
 C1974 C 0.31613 0.29459 0.57185
 C1975 C 0.28609 0.28620 0.55429
 C1976 C 0.27768 0.27761 0.54149
 H1977 H 0.26977 0.30925 0.58138
 H1978 H 0.28629 0.32594 0.60824
 H1979 H 0.34126 0.30272 0.58835
 H1980 H 0.32447 0.28577 0.56175
 C1981 C 0.29623 0.79628 0.06847
 C1982 C 0.29452 0.81639 0.07074
 C1983 C 0.30405 0.82575 0.08613
 C1984 C 0.31543 0.81510 0.09945
 C1985 C 0.31715 0.79490 0.09694
 C1986 C 0.30760 0.78557 0.08156
 C1987 C 0.28609 0.78653 0.05292
 C1988 C 0.27754 0.77817 0.04007
 H1989 H 0.28577 0.82482 0.06066
 H1990 H 0.30263 0.84133 0.08750
 H1991 H 0.32554 0.78622 0.10707
 H1992 H 0.30896 0.76998 0.07999
 C1993 C 0.79703 0.29594 0.06882
 C1994 C 0.79532 0.31607 0.07100
 C1995 C 0.80482 0.32549 0.08637
 C1996 C 0.81617 0.31489 0.09977
 C1997 C 0.81788 0.29467 0.09735
 C1998 C 0.80837 0.28529 0.08199
 C1999 C 0.78690 0.28614 0.05331
 C2000 C 0.77833 0.27776 0.04049
 H2001 H 0.78660 0.32446 0.06087
 H2002 H 0.80340 0.34108 0.08768
 H2003 H 0.82624 0.28604 0.10754
 H2004 H 0.80972 0.26969 0.08048
 C2005 C 0.79715 0.79682 0.56881
 C2006 C 0.78648 0.80835 0.58181
 C2007 C 0.79587 0.81804 0.59705
 C2008 C 0.81611 0.81633 0.59952
 C2009 C 0.82673 0.80477 0.58630
 C2010 C 0.81730 0.79509 0.57105
 C2011 C 0.78734 0.78659 0.55337
 C2012 C 0.77892 0.77799 0.54060
 H2013 H 0.77087 0.80972 0.58026
 H2014 H 0.78722 0.82657 0.60711
 H2015 H 0.84233 0.80334 0.58764
 H2016 H 0.82571 0.78622 0.56104
 C2017 C 0.29652 0.70351 0.43032
 C2018 C 0.29476 0.68342 0.42798
 C2019 C 0.30425 0.67403 0.41254
 C2020 C 0.31565 0.68463 0.39923
 C2021 C 0.31741 0.70482 0.40181
 C2022 C 0.30789 0.71417 0.41724
 C2023 C 0.28642 0.71329 0.44593
 C2024 C 0.27790 0.72167 0.45884
 H2025 H 0.28601 0.67502 0.43805
 H2026 H 0.30280 0.65847 0.41113
 H2027 H 0.32581 0.71346 0.39169
 H2028 H 0.30929 0.72975 0.41886
 C2029 C 0.29699 0.20396 0.93094
 C2030 C 0.29522 0.18386 0.92866
 C2031 C 0.30461 0.17444 0.91318
 C2032 C 0.31591 0.18501 0.89976
 C2033 C 0.31769 0.20520 0.90228
 C2034 C 0.30828 0.21459 0.91776
 C2035 C 0.28697 0.21376 0.94658
 C2036 C 0.27846 0.22214 0.95950
 H2037 H 0.28653 0.17549 0.93880
 H2038 H 0.30314 0.15887 0.91180
 H2039 H 0.32602 0.21382 0.89209
 H2040 H 0.30968 0.23017 0.91933
 C2041 C 0.79653 0.70390 0.93058
 C2042 C 0.78582 0.69252 0.91754
 C2043 C 0.79513 0.68301 0.90208
 C2044 C 0.81533 0.68478 0.89943
 C2045 C 0.82599 0.69618 0.91270
 C2046 C 0.81664 0.70566 0.92817
 C2047 C 0.78680 0.71401 0.94620
 C2048 C 0.77844 0.72256 0.95910
 H2049 H 0.77022 0.69113 0.91922
 H2050 H 0.78644 0.67461 0.89200
 H2051 H 0.84157 0.69763 0.91123
 H2052 H 0.82509 0.71442 0.93820
 C2053 C 0.79646 0.20327 0.43073
 C2054 C 0.79466 0.18318 0.42840
 C2055 C 0.80417 0.17376 0.41299
 C2056 C 0.81563 0.18433 0.39970
 C2057 C 0.81741 0.20452 0.40227
 C2058 C 0.80788 0.21390 0.41767
 C2059 C 0.78635 0.21307 0.44632
 C2060 C 0.77783 0.22149 0.45919
 H2061 H 0.78587 0.17480 0.43845
 H2062 H 0.80270 0.15820 0.41158
 H2063 H 0.82585 0.21314 0.39217
 H2064 H 0.80930 0.22947 0.41929
 C2065 C 0.70299 0.29570 0.43055
 C2066 C 0.70484 0.31579 0.42823
 C2067 C 0.69541 0.32521 0.41280
 C2068 C 0.68399 0.31466 0.39946
 C2069 C 0.68215 0.29448 0.40201
 C2070 C 0.69160 0.28509 0.41744
 C2071 C 0.71305 0.28590 0.44615
 C2072 C 0.72157 0.27755 0.45905
 H2073 H 0.71361 0.32415 0.43832
 H2074 H 0.69692 0.34077 0.41141
 H2075 H 0.67373 0.28587 0.39188
 H2076 H 0.69015 0.26952 0.41904
 C2077 C 0.70394 0.79674 0.93027
 C2078 C 0.70567 0.81683 0.92789
 C2079 C 0.69628 0.82614 0.91237
 C2080 C 0.68501 0.81546 0.89900
 C2081 C 0.68327 0.79528 0.90162
 C2082 C 0.69269 0.78601 0.91714
 C2083 C 0.71396 0.78705 0.94597
 C2084 C 0.72243 0.77873 0.95893
 H2085 H 0.71433 0.82529 0.93800
 H2086 H 0.69771 0.84170 0.91093
 H2087 H 0.67496 0.78659 0.89146
 H2088 H 0.69132 0.77044 0.91879
 C2089 C 0.20447 0.29711 0.93103
 C2090 C 0.18435 0.29537 0.92871
 C2091 C 0.17496 0.30479 0.91325
 C2092 C 0.18560 0.31609 0.89988
 C2093 C 0.20582 0.31783 0.90244
 C2094 C 0.21517 0.30840 0.91790
 C2095 C 0.21423 0.28703 0.94664
 C2096 C 0.22256 0.27847 0.95954
 H2097 H 0.17592 0.28669 0.93881
 H2098 H 0.15937 0.30335 0.91185
 H2099 H 0.21448 0.32616 0.89228
 H2100 H 0.23077 0.30976 0.91950
 C2101 C 0.20353 0.79632 0.43037
 C2102 C 0.21417 0.80769 0.41727
 C2103 C 0.20478 0.81714 0.40185
 C2104 C 0.18457 0.81534 0.39929
 C2105 C 0.17398 0.80393 0.41261
 C2106 C 0.18341 0.79449 0.42804
 C2107 C 0.21334 0.78629 0.44597
 C2108 C 0.22175 0.77781 0.45887
 H2109 H 0.22977 0.80912 0.41888
 H2110 H 0.21341 0.82555 0.39172
 H2111 H 0.15840 0.80244 0.41121
 H2112 H 0.17502 0.78574 0.43811
 C2113 C 0.70480 0.70295 0.56921
 C2114 C 0.71538 0.69155 0.58238
 C2115 C 0.70588 0.68205 0.59768
 C2116 C 0.68563 0.68386 0.60003
 C2117 C 0.67512 0.69528 0.58664
 C2118 C 0.68465 0.70476 0.57133
 C2119 C 0.71469 0.71304 0.55372
 C2120 C 0.72307 0.72160 0.54090
 H2121 H 0.73100 0.69013 0.58092
 H2122 H 0.71445 0.67362 0.60787
 H2123 H 0.65951 0.69677 0.58788
 H2124 H 0.67631 0.71353 0.56119
 C2125 C 0.70335 0.20381 0.06897
 C2126 C 0.70507 0.18370 0.07121
 C2127 C 0.69552 0.17432 0.08657
 C2128 C 0.68411 0.18496 0.09991
 C2129 C 0.68240 0.20517 0.09743
 C2130 C 0.69196 0.21451 0.08208
 C2131 C 0.71348 0.21357 0.05343
 C2132 C 0.72203 0.22193 0.04058
 H2133 H 0.71382 0.17527 0.06112
 H2134 H 0.69694 0.15874 0.08791
 H2135 H 0.67399 0.21383 0.10758
 H2136 H 0.69060 0.23010 0.08053
 C2137 C 0.20308 0.70373 0.06841
 C2138 C 0.18294 0.70543 0.07069
 C2139 C 0.17357 0.69588 0.08605
 C2140 C 0.18424 0.68447 0.09934
 C2141 C 0.20448 0.68278 0.09683
 C2142 C 0.21381 0.69236 0.08148
 C2143 C 0.21284 0.71386 0.05288
 C2144 C 0.22124 0.72237 0.04003
 H2145 H 0.17449 0.71418 0.06063
 H2146 H 0.15796 0.69728 0.08742
 H2147 H 0.21317 0.67438 0.10694
 H2148 H 0.22943 0.69101 0.07991
 C2149 C 0.20373 0.20239 0.56967
 C2150 C 0.21433 0.19093 0.58277
 C2151 C 0.20488 0.18142 0.59809
 C2152 C 0.18465 0.18327 0.60054
 C2153 C 0.17410 0.19475 0.58721
 C2154 C 0.18359 0.20424 0.57188
 C2155 C 0.21359 0.21251 0.55419
 C2156 C 0.22198 0.22109 0.54138
 H2157 H 0.22994 0.18948 0.58124
 H2158 H 0.21347 0.17295 0.60823
 H2159 H 0.15850 0.19627 0.58853
 H2160 H 0.17524 0.21305 0.56181
   
