data_POSCAR
  _audit_creation_date              2014-09-24
  _audit_creation_method            'ToBaCCo'
  _symmetry_space_group_name_H-M    'P1'
  _symmetry_Int_Tables_number       1
  _symmetry_cell_setting            triclinic
  loop_
  _symmetry_equiv_pos_as_xyz
 x,y,z
_cell_length_a 48.2668
_cell_length_b 48.3450
_cell_length_c 48.6025
_cell_angle_alpha 90.468800
_cell_angle_beta 90.688500
_cell_angle_gamma 89.605800
loop_
  _atom_site_label
  _atom_site_type_symbol
  _atom_site_fract_x
  _atom_site_fract_y
  _atom_site_fract_z
N1 N 0.17313 0.24079 0.23209
 N2 N 0.17405 0.21606 0.24308
 C3 C 0.15506 0.21456 0.26296
 C4 C 0.14157 0.23976 0.26474
 C5 C 0.15341 0.25595 0.24474
 H6 H 0.15034 0.19610 0.27438
 H7 H 0.14688 0.27649 0.23869
 Cu8 Cu 0.19758 0.18702 0.22863
 Cu9 Cu 0.19525 0.24977 0.20006
 Cu10 Cu 0.24486 0.20106 0.18043
 N11 N 0.22828 0.16227 0.22157
 N12 N 0.24687 0.16779 0.20290
 C13 C 0.26534 0.14681 0.20189
 C14 C 0.25760 0.12704 0.22068
 C15 C 0.23426 0.13772 0.23311
 H16 H 0.28301 0.14586 0.18844
 H17 H 0.22234 0.12811 0.24908
 N18 N 0.23902 0.23692 0.15994
 N19 N 0.21935 0.25540 0.16812
 C20 C 0.21882 0.27615 0.14999
 C21 C 0.23864 0.27085 0.13022
 C22 C 0.25159 0.24566 0.13601
 H23 H 0.20460 0.29353 0.15051
 H24 H 0.24991 0.23099 0.15186
 H25 H 0.20355 0.21043 0.18470
 H26 H 0.22749 0.22356 0.21208
 N27 N 0.66880 0.72875 0.72921
 N28 N 0.67317 0.70578 0.74291
 C29 C 0.65363 0.70339 0.76229
 C30 C 0.63649 0.72641 0.76092
 C31 C 0.64658 0.74194 0.73954
 H32 H 0.65194 0.68620 0.77627
 H33 H 0.63797 0.76104 0.73161
 Cu34 Cu 0.70409 0.68140 0.73412
 Cu35 Cu 0.69175 0.73935 0.69856
 Cu36 Cu 0.73008 0.68547 0.67027
 N37 N 0.72777 0.65255 0.71916
 N38 N 0.73716 0.65382 0.69392
 C39 C 0.75281 0.63126 0.68880
 C40 C 0.75299 0.61488 0.71198
 C41 C 0.73718 0.62917 0.73099
 H42 H 0.76388 0.62738 0.66993
 H43 H 0.73292 0.62298 0.75184
 N44 N 0.72098 0.71969 0.65024
 N45 N 0.70740 0.74060 0.66151
 C46 C 0.70511 0.76119 0.64315
 C47 C 0.71752 0.75268 0.61902
 C48 C 0.72773 0.72647 0.62437
 H49 H 0.69512 0.78091 0.64703
 H50 H 0.73926 0.71340 0.61037
 H51 H 0.69332 0.69816 0.68832
 H52 H 0.72642 0.71301 0.70181
 N53 N 0.35565 0.79086 0.71510
 N54 N 0.34383 0.80124 0.73717
 C55 C 0.36237 0.80147 0.75807
 C56 C 0.38728 0.79108 0.74843
 C57 C 0.38213 0.78428 0.72115
 H58 H 0.35801 0.80835 0.77881
 H59 H 0.39650 0.77491 0.70687
 Cu60 Cu 0.30565 0.81429 0.73647
 Cu61 Cu 0.33578 0.78585 0.68034
 Cu62 Cu 0.26545 0.79790 0.68235
 N63 N 0.27138 0.83442 0.72856
 N64 N 0.25670 0.82912 0.70630
 C65 C 0.23601 0.84773 0.70414
 C66 C 0.23682 0.86541 0.72699
 C67 C 0.26004 0.85616 0.74181
 H68 H 0.22284 0.84906 0.68610
 H69 H 0.26864 0.86474 0.76062
 N70 N 0.28263 0.77523 0.65368
 N71 N 0.30969 0.77203 0.65187
 C72 C 0.31524 0.75603 0.62978
 C73 C 0.29036 0.74803 0.61764
 C74 C 0.27017 0.76104 0.63318
 H75 H 0.33587 0.75047 0.62318
 H76 H 0.24799 0.76009 0.62992
 H77 H 0.30374 0.81402 0.68632
 H78 H 0.30037 0.77860 0.70125
 N79 N 0.85542 0.26976 0.22255
 N80 N 0.85135 0.29200 0.23761
 C81 C 0.87245 0.29463 0.25575
 C82 C 0.89115 0.27289 0.25175
 C83 C 0.87893 0.25718 0.23082
 H84 H 0.87422 0.31154 0.27034
 H85 H 0.88566 0.23738 0.22277
 Cu86 Cu 0.81868 0.31515 0.23203
 Cu87 Cu 0.83102 0.26030 0.19189
 Cu88 Cu 0.76393 0.28347 0.20163
 N89 N 0.78213 0.33206 0.23099
 N90 N 0.76058 0.31939 0.22002
 C91 C 0.73792 0.33550 0.22315
 C92 C 0.74590 0.35950 0.23666
 C93 C 0.77405 0.35675 0.24112
 H94 H 0.71738 0.33048 0.21558
 H95 H 0.78757 0.37163 0.25105
 N96 N 0.77370 0.25380 0.17503
 N97 N 0.79955 0.24619 0.17055
 C98 C 0.80024 0.22842 0.14921
 C99 C 0.77341 0.22386 0.13998
 C100 C 0.75712 0.24064 0.15669
 H101 H 0.81909 0.22043 0.14024
 H102 H 0.73500 0.24397 0.15482
 H103 H 0.80255 0.29373 0.18928
 H104 H 0.80107 0.26961 0.21913
 N105 N 0.84366 0.71339 0.27931
 N106 N 0.83641 0.69296 0.26277
 C107 C 0.85576 0.68979 0.24322
 C108 C 0.87644 0.70902 0.24806
 C109 C 0.86785 0.72384 0.27090
 H110 H 0.85468 0.67494 0.22649
 H111 H 0.87840 0.74113 0.28052
 Cu112 Cu 0.80239 0.67247 0.26817
 Cu113 Cu 0.82067 0.72571 0.30973
 Cu114 Cu 0.76445 0.68500 0.32480
 N115 N 0.77450 0.64666 0.28055
 N116 N 0.75988 0.65162 0.30272
 C117 C 0.74287 0.63022 0.30703
 C118 C 0.74725 0.61067 0.28664
 C119 C 0.76718 0.62190 0.26992
 H120 H 0.72844 0.62884 0.32382
 H121 H 0.77601 0.61250 0.25173
 N122 N 0.77282 0.71955 0.34475
 N123 N 0.79472 0.73474 0.33951
 C124 C 0.79554 0.75619 0.35737
 C125 C 0.77282 0.75460 0.37427
 C126 C 0.75900 0.73103 0.36590
 H127 H 0.81148 0.77179 0.35819
 H128 H 0.74065 0.72256 0.37509
 H129 H 0.80632 0.68613 0.31621
 H130 H 0.78319 0.71000 0.29602
 N131 N 0.32787 0.23075 -0.22451
 N132 N 0.32878 0.20615 -0.23610
 C133 C 0.34952 0.20540 -0.25433
 C134 C 0.36215 0.23119 -0.25469
 C135 C 0.34787 0.24658 -0.23507
 H136 H 0.35480 0.18747 -0.26668
 H137 H 0.35262 0.26716 -0.22761
 Cu138 Cu 0.30304 0.17745 -0.22568
 Cu139 Cu 0.30091 0.24016 -0.19634
 Cu140 Cu 0.26999 0.18357 -0.16589
 N141 N 0.27470 0.15118 -0.21548
 N142 N 0.26222 0.15330 -0.19164
 C143 C 0.24503 0.13173 -0.18879
 C144 C 0.24693 0.11522 -0.21210
 C145 C 0.26566 0.12836 -0.22877
 H146 H 0.23214 0.12830 -0.17110
 H147 H 0.27258 0.12143 -0.24877
 N148 N 0.27040 0.22080 -0.14901
 N149 N 0.28125 0.24247 -0.16112
 C150 C 0.27806 0.26482 -0.14476
 C151 C 0.26423 0.25697 -0.12136
 C152 C 0.26000 0.22882 -0.12460
 H153 H 0.28578 0.28523 -0.14921
 H154 H 0.25054 0.21511 -0.11001
 H155 H 0.30613 0.20146 -0.18134
 H156 H 0.27237 0.20765 -0.19941
 N157 N 0.64440 0.28679 -0.20949
 N158 N 0.64754 0.31101 -0.22097
 C159 C 0.62821 0.31426 -0.24085
 C160 C 0.61245 0.29028 -0.24285
 C161 C 0.62325 0.27357 -0.22202
 H162 H 0.62531 0.33331 -0.25201
 H163 H 0.61659 0.25307 -0.21651
 Cu164 Cu 0.67748 0.33567 -0.21017
 Cu165 Cu 0.66689 0.27521 -0.17804
 Cu166 Cu 0.72836 0.30970 -0.16927
 N167 N 0.71401 0.35228 -0.20776
 N168 N 0.73402 0.34202 -0.19223
 C169 C 0.75720 0.35686 -0.19592
 C170 C 0.75147 0.37715 -0.21514
 C171 C 0.72374 0.37392 -0.22182
 H172 H 0.77691 0.35289 -0.18583
 H173 H 0.71165 0.38616 -0.23618
 N174 N 0.71672 0.28005 -0.14438
 N175 N 0.69293 0.26707 -0.14770
 C176 C 0.68968 0.24929 -0.12686
 C177 C 0.71243 0.25133 -0.10948
 C178 C 0.72937 0.27073 -0.12133
 H179 H 0.67188 0.23615 -0.12419
 H180 H 0.74897 0.27811 -0.11327
 H181 H 0.68561 0.31272 -0.16700
 H182 H 0.69994 0.29305 -0.19757
 N183 N 0.15537 0.77535 0.26828
 N184 N 0.15870 0.79883 0.25527
 C185 C 0.13726 0.80274 0.23773
 C186 C 0.11948 0.78057 0.24005
 C187 C 0.13183 0.76336 0.25927
 H188 H 0.13466 0.82044 0.22444
 H189 H 0.12387 0.74398 0.26671
 Cu190 Cu 0.19072 0.82210 0.26273
 Cu191 Cu 0.18123 0.76321 0.29704
 Cu192 Cu 0.21295 0.81962 0.32802
 N193 N 0.21944 0.84689 0.27637
 N194 N 0.22715 0.84656 0.30235
 C195 C 0.24601 0.86641 0.30694
 C196 C 0.25158 0.87937 0.28219
 C197 C 0.23362 0.86666 0.26336
 H198 H 0.25413 0.87146 0.32717
 H199 H 0.23128 0.87105 0.24168
 N200 N 0.20915 0.78359 0.34617
 N201 N 0.19873 0.76154 0.33373
 C202 C 0.20235 0.73943 0.35009
 C203 C 0.21586 0.74811 0.37385
 C204 C 0.21958 0.77618 0.37084
 H205 H 0.19604 0.71858 0.34495
 H206 H 0.23039 0.78988 0.38495
 H207 H 0.17861 0.80323 0.30756
 H208 H 0.21379 0.79218 0.29616
 N209 N 0.47882 0.41122 0.48340
 N210 N 0.45578 0.41617 0.49679
 C211 C 0.45336 0.39756 0.51707
 C212 C 0.47642 0.38043 0.51662
 C213 C 0.49210 0.38959 0.49494
 H214 H 0.43600 0.39633 0.53086
 H215 H 0.51115 0.38052 0.48744
 Cu216 Cu 0.43128 0.44649 0.48623
 Cu217 Cu 0.48854 0.43209 0.45080
 Cu218 Cu 0.43050 0.46084 0.41896
 N219 N 0.40482 0.47274 0.47079
 N220 N 0.40371 0.47731 0.44419
 C221 C 0.38245 0.49462 0.43867
 C222 C 0.37020 0.50229 0.46331
 C223 C 0.38476 0.48755 0.48320
 H224 H 0.37627 0.50089 0.41818
 H225 H 0.38090 0.48750 0.50507
 N226 N 0.46570 0.45350 0.39969
 N227 N 0.48804 0.44357 0.41217
 C228 C 0.50901 0.44246 0.39420
 C229 C 0.49937 0.45191 0.36906
 C230 C 0.47194 0.45911 0.37339
 H231 H 0.52987 0.43571 0.39917
 H232 H 0.45779 0.46833 0.35861
 H233 H 0.45939 0.46495 0.44926
 H234 H 0.44780 0.42883 0.44213
 N235 N -0.03325 -0.09130 0.97510
 N236 N -0.05783 -0.09011 0.98639
 C237 C -0.05943 -0.10960 1.00592
 C238 C -0.03437 -0.12359 1.00716
 C239 C -0.01833 -0.11164 0.98710
 H240 H -0.07761 -0.11369 1.01798
 H241 H 0.00217 -0.11813 0.98089
 Cu242 Cu -0.08573 -0.06395 0.97389
 Cu243 Cu -0.02363 -0.06842 0.94375
 Cu244 Cu -0.07567 -0.02469 0.91859
 N245 N -0.10786 -0.03095 0.96731
 N246 N -0.10423 -0.01600 0.94522
 C247 C -0.12308 0.00462 0.94471
 C248 C -0.13899 0.00283 0.96805
 C249 C -0.12896 -0.02015 0.98185
 H250 H -0.12514 0.01975 0.92852
 H251 H -0.13693 -0.02875 1.00062
 N252 N -0.03836 -0.02814 0.90053
 N253 N -0.01801 -0.04411 0.91184
 C254 C 0.00469 -0.04135 0.89645
 C255 C -0.00136 -0.02317 0.87525
 C256 C -0.02900 -0.01488 0.87722
 H257 H 0.02414 -0.05204 0.89999
 H258 H -0.04508 -0.01875 0.89114
 H259 H -0.05119 -0.03591 0.95109
 H260 H -0.06295 -0.06472 0.92855
 N261 N 1.01068 0.58577 0.97804
 N262 N 1.03311 0.58254 0.99334
 C263 C 1.03557 0.60415 1.01074
 C264 C 1.01363 0.62203 1.00592
 C265 C 0.99792 0.60956 0.98537
 H266 H 1.05259 0.60714 1.02512
 H267 H 0.97945 0.61782 0.97555
 Cu268 Cu 1.05843 0.55170 0.98768
 Cu269 Cu 1.00207 0.55988 0.94805
 Cu270 Cu 1.06297 0.53282 0.92143
 N271 N 1.08885 0.52906 0.97468
 N272 N 1.09158 0.52314 0.94843
 C273 C 1.11587 0.50985 0.94474
 C274 C 1.12907 0.50729 0.97012
 C275 C 1.11085 0.51916 0.98872
 H276 H 1.12335 0.50257 0.92506
 H277 H 1.11336 0.52061 1.01082
 N278 N 1.02745 0.53366 0.90072
 N279 N 1.00397 0.54264 0.91140
 C280 C 0.98313 0.53801 0.89334
 C281 C 0.99411 0.52547 0.87024
 C282 C 1.02221 0.52321 0.87544
 H283 H 0.96161 0.54319 0.89680
 H284 H 1.03747 0.51369 0.86221
 H285 H 1.03318 0.52857 0.95055
 H286 H 1.04270 0.56474 0.94163
 N287 N 0.51882 0.09618 0.48510
 N288 N 0.54087 0.08995 0.50001
 C289 C 0.54455 0.10955 0.51953
 C290 C 0.52376 0.12918 0.51645
 C291 C 0.50754 0.11982 0.49473
 H292 H 0.56133 0.10979 0.53448
 H293 H 0.48951 0.12999 0.48593
 Cu294 Cu 0.56311 0.05722 0.49185
 Cu295 Cu 0.50789 0.07408 0.45306
 Cu296 Cu 0.56499 0.04135 0.42472
 N297 N 0.58898 0.02972 0.47775
 N298 N 0.59046 0.02462 0.45121
 C299 C 0.61122 0.00658 0.44658
 C300 C 0.62277 -0.00100 0.47168
 C301 C 0.60838 0.01455 0.49100
 H302 H 0.61758 -0.00022 0.42635
 H303 H 0.61198 0.01502 0.51301
 N304 N 0.53049 0.04899 0.40384
 N305 N 0.50832 0.06039 0.41495
 C306 C 0.48751 0.06050 0.39628
 C307 C 0.49713 0.04875 0.37214
 C308 C 0.52434 0.04141 0.37778
 H309 H 0.46669 0.06782 0.40023
 H310 H 0.53830 0.03043 0.36421
 H311 H 0.53504 0.03943 0.45361
 H312 H 0.54887 0.07463 0.44674
 N313 N -0.02228 0.08705 0.52636
 N314 N -0.03879 0.07864 0.50633
 C315 C -0.03640 0.09575 0.48479
 C316 C -0.01712 0.11576 0.49160
 C317 C -0.00890 0.10986 0.51832
 H318 H -0.04803 0.09406 0.46570
 H319 H 0.00531 0.12161 0.53114
 Cu320 Cu -0.06285 0.04710 0.51095
 Cu321 Cu -0.02042 0.06843 0.56174
 Cu322 Cu -0.04985 0.00310 0.56243
 N323 N -0.08841 0.01767 0.51949
 N324 N -0.08320 0.00023 0.53954
 C325 C -0.10362 -0.01856 0.54032
 C326 C -0.12248 -0.01265 0.51948
 C327 C -0.11238 0.01072 0.50693
 H328 H -0.10462 -0.03534 0.55486
 H329 H -0.12185 0.02183 0.49000
 N330 N -0.02292 0.01588 0.59043
 N331 N -0.01235 0.04100 0.59058
 C332 C 0.00506 0.04356 0.61229
 C333 C 0.00570 0.01880 0.62630
 C334 C -0.01261 0.00184 0.61212
 H335 H 0.01681 0.06193 0.61731
 H336 H -0.01822 -0.01907 0.61739
 H337 H -0.02531 0.03183 0.54154
 H338 H -0.05631 0.04424 0.56075
 N339 N 0.49288 0.58616 0.01841
 N340 N 0.47263 0.57930 0.00140
 C341 C 0.47113 0.59787 -0.01905
 C342 C 0.49183 0.61713 -0.01485
 C343 C 0.50508 0.60921 0.00924
 H344 H 0.45561 0.59792 -0.03529
 H345 H 0.52140 0.62026 0.01999
 Cu346 Cu 0.44897 0.54791 0.00842
 Cu347 Cu 0.49985 0.56665 0.05276
 Cu348 Cu 0.45180 0.51704 0.06999
 N349 N 0.41998 0.52308 0.02004
 N350 N 0.42139 0.51094 0.04412
 C351 C 0.39867 0.49546 0.04742
 C352 C 0.38185 0.49846 0.02442
 C353 C 0.39619 0.51580 0.00721
 H354 H 0.39445 0.48318 0.06538
 H355 H 0.38950 0.52302 -0.01281
 N356 N 0.48402 0.52612 0.09339
 N357 N 0.50267 0.54465 0.08667
 C358 C 0.52185 0.54632 0.10699
 C359 C 0.51454 0.52837 0.12766
 C360 C 0.49073 0.51565 0.11816
 H361 H 0.53976 0.55962 0.10685
 H362 H 0.47904 0.50011 0.12879
 H363 H 0.48167 0.52941 0.04244
 H364 H 0.45859 0.55707 0.05676
 N365 N 0.50434 -0.09069 0.01994
 N366 N 0.52585 -0.08550 0.00452
 C367 C 0.52835 -0.10561 -0.01461
 C368 C 0.50693 -0.12406 -0.01128
 C369 C 0.49213 -0.11407 0.01091
 H370 H 0.54475 -0.10698 -0.02954
 H371 H 0.47450 -0.12365 0.02042
 Cu372 Cu 0.54897 -0.05336 0.01115
 Cu373 Cu 0.49510 -0.06760 0.05156
 Cu374 Cu 0.54929 -0.02654 0.07505
 N375 N 0.57820 -0.02889 0.02377
 N376 N 0.57857 -0.01911 0.04908
 C377 C 0.60116 -0.00333 0.05275
 C378 C 0.61593 -0.00356 0.02858
 C379 C 0.60058 -0.01967 0.01044
 H380 H 0.60632 0.00784 0.07148
 H381 H 0.60550 -0.02452 -0.01072
 N382 N 0.51742 -0.03614 0.09784
 N383 N 0.49625 -0.05080 0.08857
 C384 C 0.47724 -0.05256 0.10854
 C385 C 0.48715 -0.03861 0.13156
 C386 C 0.51246 -0.02821 0.12391
 H387 H 0.45752 -0.06288 0.10637
 H388 H 0.52599 -0.01540 0.13640
 H389 H 0.51888 -0.03200 0.04608
 H390 H 0.53681 -0.06406 0.05809
 N391 N 1.04998 0.39392 0.53440
 N392 N 1.06166 0.40399 0.51239
 C393 C 1.06279 0.38425 0.49280
 C394 C 1.05163 0.36031 0.50326
 C395 C 1.04343 0.36727 0.52964
 H396 H 1.07060 0.38721 0.47227
 H397 H 1.03303 0.35411 0.54409
 Cu398 Cu 1.07452 0.44175 0.51145
 Cu399 Cu 1.04362 0.41662 0.56706
 Cu400 Cu 1.05174 0.48732 0.55831
 N401 N 1.09259 0.47700 0.51709
 N402 N 1.08375 0.49518 0.53528
 C403 C 1.10022 0.51759 0.53467
 C404 C 1.12022 0.51313 0.51482
 C405 C 1.11493 0.48700 0.50442
 H406 H 1.09806 0.53557 0.54788
 H407 H 1.12686 0.47582 0.48921
 N408 N 1.02915 0.47156 0.58782
 N409 N 1.02752 0.44467 0.59196
 C410 C 1.01094 0.44016 0.61348
 C411 C 1.00091 0.46534 0.62293
 C412 C 1.01338 0.48487 0.60649
 H413 H 1.00612 0.41993 0.62137
 H414 H 1.01084 0.50709 0.60781
 H415 H 1.03576 0.44985 0.54230
 H416 H 1.06987 0.45011 0.56080
 C417 C 0.34357 -0.02261 0.26245
 C418 C 0.35807 0.00165 0.25688
 C419 C 0.34354 0.02612 0.25128
 C420 C 0.31456 0.02639 0.25129
 C421 C 0.30008 0.00242 0.25807
 C422 C 0.31449 -0.02223 0.26399
 C423 C 0.38844 0.00136 0.25620
 C424 C 0.40207 -0.00904 0.23303
 C425 C 0.43106 -0.00857 0.23191
 C426 C 0.44634 0.00249 0.25407
 C427 C 0.43281 0.01299 0.27734
 C428 C 0.40378 0.01223 0.27837
 H429 H 0.35497 -0.04171 0.26584
 H430 H 0.35473 0.04471 0.24613
 H431 H 0.39015 -0.01707 0.21572
 H432 H 0.39318 0.02013 0.29636
 H433 H 0.27763 0.00285 0.25824
 H434 H 0.46876 0.00308 0.25312
 C435 C 0.15154 -0.02916 0.74852
 C436 C 0.13851 -0.00402 0.75486
 C437 C 0.15445 0.01945 0.76060
 C438 C 0.18341 0.01787 0.75951
 C439 C 0.19630 -0.00697 0.75142
 C440 C 0.18049 -0.03077 0.74580
 C441 C 0.10812 -0.00234 0.75478
 C442 C 0.09351 -0.00445 0.77938
 C443 C 0.06446 -0.00367 0.77901
 C444 C 0.05007 -0.00090 0.75391
 C445 C 0.06460 0.00080 0.72917
 C446 C 0.09366 0.00030 0.72976
 H447 H 0.13896 -0.04746 0.74561
 H448 H 0.14437 0.03876 0.76621
 H449 H 0.10467 -0.00685 0.79871
 H450 H 0.10502 0.00178 0.71072
 H451 H 0.21868 -0.00780 0.75005
 H452 H 0.02761 -0.00051 0.75362
 C453 C 0.65573 0.46198 0.25545
 C454 C 0.64189 0.48735 0.25857
 C455 C 0.65698 0.51139 0.26437
 C456 C 0.68582 0.50996 0.26782
 C457 C 0.69952 0.48443 0.26512
 C458 C 0.68459 0.46025 0.25903
 C459 C 0.61156 0.48853 0.25607
 C460 C 0.59517 0.47926 0.27771
 C461 C 0.56617 0.47913 0.27506
 C462 C 0.55374 0.48869 0.25066
 C463 C 0.57007 0.49821 0.22909
 C464 C 0.59899 0.49816 0.23185
 H465 H 0.64400 0.44360 0.25017
 H466 H 0.64628 0.53105 0.26660
 H467 H 0.60498 0.47213 0.29657
 H468 H 0.61164 0.50522 0.21505
 H469 H 0.72184 0.48342 0.26772
 H470 H 0.53137 0.48869 0.24842
 C471 C 0.84744 0.46945 0.75175
 C472 C 0.86164 0.49338 0.74410
 C473 C 0.84673 0.51698 0.73596
 C474 C 0.81767 0.51665 0.73527
 C475 C 0.80363 0.49265 0.74285
 C476 C 0.81841 0.46894 0.75085
 C477 C 0.89209 0.49341 0.74441
 C478 C 0.90668 0.48816 0.72016
 C479 C 0.93569 0.48534 0.72082
 C480 C 0.94999 0.48923 0.74589
 C481 C 0.93557 0.49530 0.77016
 C482 C 0.90656 0.49745 0.76922
 H483 H 0.85895 0.45115 0.75790
 H484 H 0.85769 0.53549 0.73013
 H485 H 0.89538 0.48563 0.70090
 H486 H 0.89521 0.50219 0.78780
 H487 H 0.78117 0.49238 0.74241
 H488 H 0.97238 0.48734 0.74658
 C489 C 0.25143 0.35303 -0.02466
 C490 C 0.25112 0.36907 -0.00051
 C491 C 0.24982 0.35614 0.02512
 C492 C 0.24870 0.32726 0.02665
 C493 C 0.24899 0.31126 0.00248
 C494 C 0.25033 0.32408 -0.02327
 C495 C 0.25251 0.39936 -0.00199
 C496 C 0.22830 0.41496 -0.00648
 C497 C 0.22937 0.44400 -0.00723
 C498 C 0.25518 0.45706 -0.00437
 C499 C 0.27921 0.44161 0.00125
 C500 C 0.27789 0.41272 0.00219
 H501 H 0.25267 0.36305 -0.04448
 H502 H 0.24971 0.36852 0.04382
 H503 H 0.20861 0.40451 -0.00887
 H504 H 0.29644 0.40073 0.00666
 H505 H 0.24847 0.28889 0.00371
 H506 H 0.25648 0.47939 -0.00550
 C507 C 0.73077 0.15415 -0.01853
 C508 C 0.73444 0.13622 0.00370
 C509 C 0.74019 0.14694 0.02995
 C510 C 0.74444 0.17542 0.03391
 C511 C 0.74031 0.19333 0.01155
 C512 C 0.73294 0.18280 -0.01451
 C513 C 0.73455 0.10613 -0.00057
 C514 C 0.75936 0.09275 -0.00757
 C515 C 0.76066 0.06383 -0.00897
 C516 C 0.73694 0.04831 -0.00385
 C517 C 0.71216 0.06153 0.00357
 C518 C 0.71093 0.09051 0.00499
 H519 H 0.72603 0.14585 -0.03882
 H520 H 0.74246 0.13291 0.04713
 H521 H 0.77788 0.10477 -0.01097
 H522 H 0.69198 0.10080 0.01126
 H523 H 0.74286 0.21544 0.01434
 H524 H 0.73804 0.02591 -0.00456
 C525 C 0.24606 0.65744 0.47091
 C526 C 0.25218 0.64297 0.49506
 C527 C 0.26158 0.65725 0.51850
 C528 C 0.26605 0.68594 0.51759
 C529 C 0.26037 0.70016 0.49302
 C530 C 0.25037 0.68603 0.46963
 C531 C 0.25006 0.61270 0.49503
 C532 C 0.27351 0.59663 0.48909
 C533 C 0.27124 0.56796 0.48470
 C534 C 0.24540 0.55532 0.48829
 C535 C 0.22204 0.57126 0.49532
 C536 C 0.22439 0.59998 0.49837
 H537 H 0.23825 0.64636 0.45297
 H538 H 0.26539 0.64600 0.53738
 H539 H 0.29337 0.60666 0.48689
 H540 H 0.20621 0.61244 0.50283
 H541 H 0.26362 0.72229 0.49210
 H542 H 0.24333 0.53319 0.48529
 C543 C 0.75165 0.84623 0.47428
 C544 C 0.74605 0.86027 0.49894
 C545 C 0.73962 0.84534 0.52257
 C546 C 0.73891 0.81634 0.52157
 C547 C 0.74479 0.80239 0.49691
 C548 C 0.75088 0.81730 0.47318
 C549 C 0.74655 0.89060 0.49959
 C550 C 0.72209 0.90568 0.49507
 C551 C 0.72288 0.93452 0.49167
 C552 C 0.74830 0.94827 0.49499
 C553 C 0.77264 0.93326 0.50070
 C554 C 0.77176 0.90442 0.50256
 H555 H 0.75626 0.85779 0.45589
 H556 H 0.73512 0.85621 0.54161
 H557 H 0.70258 0.89481 0.49317
 H558 H 0.79073 0.89273 0.50600
 H559 H 0.74405 0.77999 0.49603
 H560 H 0.74927 0.97053 0.49275
 C561 C -0.01321 0.24863 0.34753
 C562 C 0.01135 0.24787 0.36330
 C563 C 0.03702 0.25018 0.35038
 C564 C 0.03829 0.25390 0.32192
 C565 C 0.01373 0.25596 0.30650
 C566 C -0.01216 0.25256 0.31891
 C567 C 0.01063 0.24513 0.39338
 C568 C 0.00386 0.21984 0.40545
 C569 C 0.00628 0.21666 0.43406
 C570 C 0.01450 0.23912 0.45059
 C571 C 0.02126 0.26438 0.43862
 C572 C 0.01925 0.26732 0.41002
 H573 H -0.03301 0.24649 0.35755
 H574 H 0.05602 0.24853 0.36242
 H575 H -0.00202 0.20238 0.39258
 H576 H 0.02485 0.28676 0.40068
 H577 H 0.01490 0.25966 0.28458
 H578 H 0.01648 0.23664 0.47268
 C579 C -0.03057 0.73864 0.15356
 C580 C -0.00783 0.74773 0.13849
 C581 C 0.01642 0.75611 0.15229
 C582 C 0.01791 0.75557 0.18110
 C583 C -0.00499 0.74676 0.19608
 C584 C -0.02923 0.73828 0.18238
 C585 C -0.00929 0.74844 0.10827
 C586 C -0.01290 0.77372 0.09472
 C587 C -0.01346 0.77460 0.06587
 C588 C -0.01031 0.75005 0.05064
 C589 C -0.00616 0.72477 0.06412
 C590 C -0.00611 0.72398 0.09294
 H591 H -0.04931 0.73210 0.14293
 H592 H 0.03408 0.76297 0.14066
 H593 H -0.01525 0.79266 0.10658
 H594 H -0.00275 0.70451 0.10341
 H595 H -0.00390 0.74636 0.21837
 H596 H -0.01037 0.75068 0.02835
 C597 C 0.46609 0.25145 0.66378
 C598 C 0.49133 0.25514 0.65054
 C599 C 0.51498 0.26212 0.66589
 C600 C 0.51334 0.26725 0.69434
 C601 C 0.48786 0.26342 0.70752
 C602 C 0.46436 0.25525 0.69231
 C603 C 0.49263 0.25435 0.62041
 C604 C 0.48946 0.27903 0.60581
 C605 C 0.49203 0.27915 0.57716
 C606 C 0.49770 0.25440 0.56307
 C607 C 0.50122 0.22963 0.57763
 C608 C 0.49840 0.22961 0.60633
 H609 H 0.44775 0.24603 0.65188
 H610 H 0.53456 0.26426 0.65545
 H611 H 0.48536 0.29823 0.61677
 H612 H 0.50134 0.21059 0.61768
 H613 H 0.48625 0.26685 0.72951
 H614 H 0.49997 0.25449 0.54091
 C615 C 0.48204 0.75786 0.84078
 C616 C 0.50464 0.74868 0.85667
 C617 C 0.52977 0.74219 0.84397
 C618 C 0.53244 0.74520 0.81549
 C619 C 0.50970 0.75409 0.79960
 C620 C 0.48448 0.76064 0.81222
 C621 C 0.50252 0.74764 0.88676
 C622 C 0.50310 0.72223 0.90040
 C623 C 0.50121 0.72145 0.92915
 C624 C 0.49937 0.74621 0.94428
 C625 C 0.49905 0.77168 0.93068
 C626 C 0.50035 0.77229 0.90192
 H627 H 0.46264 0.76305 0.85066
 H628 H 0.54751 0.73581 0.85633
 H629 H 0.50464 0.70312 0.88868
 H630 H 0.50031 0.79198 0.89139
 H631 H 0.51186 0.75667 0.77759
 H632 H 0.49827 0.74566 0.96653
 C633 C 0.11215 0.26839 0.29771
 C634 C 0.11576 0.24530 0.27989
 C635 C 0.09418 0.22637 0.27628
 C636 C 0.06926 0.22995 0.28979
 C637 C 0.06511 0.25241 0.30762
 C638 C 0.08652 0.27201 0.31168
 C639 C 0.13357 0.28761 0.30247
 C640 C 0.12962 0.31021 0.32005
 C641 C 0.10440 0.31406 0.33321
 C642 C 0.08296 0.29522 0.32910
 H643 H 0.15355 0.28529 0.29285
 H644 H 0.14622 0.32483 0.32349
 H645 H 0.10144 0.33172 0.34672
 H646 H 0.06365 0.29904 0.33958
 H647 H 0.09658 0.20866 0.26268
 H648 H 0.05308 0.21478 0.28656
 C649 C 0.60548 0.75807 0.78926
 C650 C 0.61112 0.73195 0.77689
 C651 C 0.59150 0.71081 0.77855
 C652 C 0.56612 0.71542 0.79119
 C653 C 0.55973 0.74126 0.80265
 C654 C 0.57942 0.76282 0.80198
 C655 C 0.62535 0.77939 0.78992
 C656 C 0.61929 0.80501 0.80187
 C657 C 0.59353 0.80986 0.81359
 C658 C 0.57374 0.78901 0.81378
 H659 H 0.64587 0.77640 0.78170
 H660 H 0.63472 0.82117 0.80214
 H661 H 0.58895 0.82981 0.82280
 H662 H 0.55407 0.79355 0.82335
 H663 H 0.59554 0.69074 0.76929
 H664 H 0.55122 0.69879 0.79180
 C665 C 0.42517 0.80501 0.78281
 C666 C 0.41307 0.78549 0.76433
 C667 C 0.42564 0.75948 0.76096
 C668 C 0.44900 0.75209 0.77629
 C669 C 0.46057 0.77043 0.79555
 C670 C 0.44901 0.79731 0.79870
 C671 C 0.41479 0.83230 0.78521
 C672 C 0.42698 0.85120 0.80342
 C673 C 0.44997 0.84353 0.81919
 C674 C 0.46111 0.81697 0.81674
 H675 H 0.39764 0.83959 0.77271
 H676 H 0.41872 0.87201 0.80505
 H677 H 0.45947 0.85838 0.83310
 H678 H 0.47948 0.81219 0.82880
 H679 H 0.41686 0.74440 0.74680
 H680 H 0.45779 0.73158 0.77355
 C681 C -0.06233 0.24966 0.25734
 C682 C -0.08402 0.26752 0.26687
 C683 C -0.08108 0.27944 0.29331
 C684 C -0.05834 0.27355 0.31015
 C685 C -0.03792 0.25474 0.30186
 C686 C -0.04073 0.24138 0.27588
 C687 C -0.06010 0.24129 0.22948
 C688 C -0.04051 0.22159 0.22141
 C689 C -0.02220 0.21042 0.24066
 C690 C -0.02204 0.22036 0.26762
 H691 H -0.07237 0.25072 0.21338
 H692 H -0.03949 0.21506 0.20008
 H693 H -0.00739 0.19472 0.23445
 H694 H -0.00701 0.21165 0.28186
 H695 H -0.09667 0.29323 0.30159
 H696 H -0.05653 0.28417 0.32980
 C697 C -0.08064 0.69375 0.22145
 C698 C -0.09894 0.71476 0.23111
 C699 C -0.09368 0.74244 0.22466
 C700 C -0.07119 0.74956 0.20862
 C701 C -0.05327 0.72923 0.19841
 C702 C -0.05784 0.70109 0.20463
 C703 C -0.08375 0.66576 0.22887
 C704 C -0.06564 0.64547 0.21904
 C705 C -0.04390 0.65260 0.20199
 C706 C -0.03984 0.68014 0.19494
 H707 H -0.09973 0.65926 0.24271
 H708 H -0.06837 0.62410 0.22484
 H709 H -0.02991 0.63674 0.19447
 H710 H -0.02244 0.68490 0.18199
 H711 H -0.10729 0.75878 0.23193
 H712 H -0.06770 0.77117 0.20413
 C713 C 0.39245 0.26649 0.72312
 C714 C 0.38598 0.23867 0.73040
 C715 C 0.40489 0.21754 0.72326
 C716 C 0.43016 0.22347 0.71134
 C717 C 0.43768 0.25068 0.70604
 C718 C 0.41890 0.27249 0.71177
 C719 C 0.37271 0.28821 0.72461
 C720 C 0.37971 0.31527 0.71798
 C721 C 0.40616 0.32126 0.70885
 C722 C 0.42554 0.30009 0.70537
 H723 H 0.35134 0.28453 0.72958
 H724 H 0.36435 0.33162 0.71951
 H725 H 0.41144 0.34230 0.70368
 H726 H 0.44555 0.30545 0.69723
 H727 H 0.40091 0.19612 0.72804
 H728 H 0.44421 0.20659 0.70648
 C729 C 0.58360 0.29890 0.71454
 C730 C 0.58930 0.28461 0.73967
 C731 C 0.57003 0.26478 0.74825
 C732 C 0.54554 0.26000 0.73369
 C733 C 0.53860 0.27534 0.71032
 C734 C 0.55719 0.29593 0.70129
 C735 C 0.60387 0.31460 0.70098
 C736 C 0.59702 0.33051 0.67805
 C737 C 0.57005 0.33067 0.66772
 C738 C 0.55028 0.31346 0.67907
 H739 H 0.62544 0.31381 0.70700
 H740 H 0.61273 0.34274 0.66824
 H741 H 0.56465 0.34352 0.65029
 H742 H 0.52965 0.31389 0.67015
 H743 H 0.57326 0.25308 0.76689
 H744 H 0.53186 0.24395 0.74080
 C745 C 0.07085 0.79527 0.22510
 C746 C 0.09304 0.77581 0.22510
 C747 C 0.09002 0.75077 0.21071
 C748 C 0.06575 0.74489 0.19610
 C749 C 0.04364 0.76374 0.19570
 C750 C 0.04603 0.78922 0.21007
 C751 C 0.07233 0.82024 0.24034
 C752 C 0.05037 0.83914 0.23995
 C753 C 0.02648 0.83352 0.22465
 C754 C 0.02420 0.80880 0.20988
 H755 H 0.09019 0.82530 0.25296
 H756 H 0.05187 0.85822 0.25166
 H757 H 0.00955 0.84832 0.22439
 H758 H 0.00523 0.80516 0.19835
 H759 H 0.10671 0.73567 0.21064
 H760 H 0.06405 0.72527 0.18529
 C761 C 0.27933 0.08106 0.20640
 C762 C 0.27153 0.10047 0.22704
 C763 C 0.27698 0.09453 0.25477
 C764 C 0.29076 0.07033 0.26229
 C765 C 0.29943 0.05136 0.24230
 C766 C 0.29374 0.05646 0.21414
 C767 C 0.27244 0.08501 0.17836
 C768 C 0.28054 0.06578 0.15842
 C769 C 0.29530 0.04216 0.16595
 C770 C 0.30176 0.03736 0.19353
 H771 H 0.26034 0.10258 0.17154
 H772 H 0.27517 0.06916 0.13701
 H773 H 0.30149 0.02731 0.15037
 H774 H 0.31287 0.01851 0.19855
 H775 H 0.27093 0.10902 0.27077
 H776 H 0.29496 0.06648 0.28388
 C777 C 0.76774 0.56610 0.69817
 C778 C 0.76894 0.58906 0.71655
 C779 C 0.78623 0.58778 0.73987
 C780 C 0.80243 0.56446 0.74511
 C781 C 0.80171 0.54159 0.72731
 C782 C 0.78457 0.54233 0.70343
 C783 C 0.74966 0.56584 0.67510
 C784 C 0.74906 0.54325 0.65707
 C785 C 0.76626 0.52050 0.66168
 C786 C 0.78386 0.51993 0.68461
 H787 H 0.73558 0.58279 0.67091
 H788 H 0.73517 0.54340 0.63942
 H789 H 0.76583 0.50311 0.64750
 H790 H 0.79695 0.50189 0.68736
 H791 H 0.78737 0.60513 0.75408
 H792 H 0.81533 0.56405 0.76351
 C793 C 0.77226 0.40501 0.74602
 C794 C 0.77055 0.39842 0.77439
 C795 C 0.78656 0.41329 0.79360
 C796 C 0.80267 0.43551 0.78547
 C797 C 0.80322 0.44355 0.75790
 C798 C 0.78848 0.42797 0.73779
 C799 C 0.75888 0.38889 0.72551
 C800 C 0.76058 0.39584 0.69779
 C801 C 0.77592 0.41863 0.68987
 C802 C 0.78995 0.43447 0.70956
 H803 H 0.74755 0.37044 0.73049
 H804 H 0.75014 0.38331 0.68234
 H805 H 0.77729 0.42382 0.66830
 H806 H 0.80227 0.45153 0.70243
 H807 H 0.78577 0.40833 0.81527
 H808 H 0.81408 0.44715 0.80096
 C809 C 0.29255 -0.09138 0.29520
 C810 C 0.26968 -0.09819 0.27748
 C811 C 0.26386 -0.08067 0.25512
 C812 C 0.27843 -0.05631 0.25137
 C813 C 0.29908 -0.04797 0.27004
 C814 C 0.30576 -0.06520 0.29269
 C815 C 0.30396 -0.11043 0.31423
 C816 C 0.32447 -0.10245 0.33305
 C817 C 0.33454 -0.07560 0.33295
 C818 C 0.32548 -0.05712 0.31287
 H819 H 0.29810 -0.13193 0.31411
 H820 H 0.33260 -0.11720 0.34777
 H821 H 0.35003 -0.06929 0.34797
 H822 H 0.33416 -0.03657 0.31330
 H823 H 0.24714 -0.08503 0.24076
 H824 H 0.27333 -0.04368 0.23368
 C825 C 0.19502 -0.10423 0.71811
 C826 C 0.22023 -0.11070 0.73254
 C827 C 0.23010 -0.09115 0.75191
 C828 C 0.21708 -0.06569 0.75565
 C829 C 0.19435 -0.05775 0.73933
 C830 C 0.18397 -0.07676 0.71934
 C831 C 0.17941 -0.12442 0.70370
 C832 C 0.15714 -0.11689 0.68675
 C833 C 0.14954 -0.08922 0.68435
 C834 C 0.16262 -0.06927 0.70064
 H835 H 0.18335 -0.14625 0.70632
 H836 H 0.14581 -0.13258 0.67537
 H837 H 0.13282 -0.08331 0.67053
 H838 H 0.15577 -0.04805 0.69853
 H839 H 0.24849 -0.09492 0.76422
 H840 H 0.22509 -0.05196 0.77153
 C841 C 0.70709 0.38379 0.26232
 C842 C 0.72885 0.38412 0.24301
 C843 C 0.73577 0.40890 0.23027
 C844 C 0.72117 0.43314 0.23581
 C845 C 0.69949 0.43359 0.25475
 C846 C 0.69258 0.40884 0.26864
 C847 C 0.70006 0.35933 0.27621
 C848 C 0.67934 0.35951 0.29594
 C849 C 0.66561 0.38403 0.30258
 C850 C 0.67227 0.40853 0.28934
 H851 H 0.71065 0.33996 0.27217
 H852 H 0.67417 0.34060 0.30643
 H853 H 0.64986 0.38411 0.31826
 H854 H 0.66168 0.42717 0.29587
 H855 H 0.75252 0.40942 0.21564
 H856 H 0.72677 0.45177 0.22500
 C857 C 0.73086 0.56425 0.30428
 C858 C 0.73283 0.58398 0.28291
 C859 C 0.71989 0.57873 0.25748
 C860 C 0.70450 0.55481 0.25314
 C861 C 0.70181 0.53528 0.27400
 C862 C 0.71491 0.53986 0.29987
 C863 C 0.74486 0.56784 0.32974
 C864 C 0.74228 0.54849 0.35066
 C865 C 0.72592 0.52518 0.34665
 C866 C 0.71236 0.52079 0.32153
 H867 H 0.75821 0.58532 0.33365
 H868 H 0.75307 0.55158 0.37009
 H869 H 0.72388 0.51033 0.36303
 H870 H 0.69987 0.50239 0.31929
 H871 H 0.72127 0.59357 0.24097
 H872 H 0.69466 0.55143 0.23325
 C873 C 0.23168 0.06650 0.79973
 C874 C 0.23174 0.08939 0.78162
 C875 C 0.21669 0.08794 0.75683
 C876 C 0.20108 0.06468 0.75007
 C877 C 0.20030 0.04203 0.76776
 C878 C 0.21556 0.04276 0.79286
 C879 C 0.24777 0.06631 0.82421
 C880 C 0.24711 0.04381 0.84196
 C881 C 0.23065 0.02106 0.83568
 C882 C 0.21502 0.02041 0.81138
 H883 H 0.26126 0.08325 0.82974
 H884 H 0.25948 0.04403 0.86068
 H885 H 0.23013 0.00373 0.84962
 H886 H 0.20256 0.00229 0.80730
 H887 H 0.21665 0.10520 0.74275
 H888 H 0.18950 0.06431 0.73083
 C889 C 0.26927 0.29453 0.09536
 C890 C 0.24267 0.28702 0.10487
 C891 C 0.21912 0.29377 0.08908
 C892 C 0.22152 0.30685 0.06384
 C893 C 0.24752 0.31372 0.05369
 C894 C 0.27168 0.30783 0.06943
 C895 C 0.29350 0.28973 0.11123
 C896 C 0.31946 0.29706 0.10143
 C897 C 0.32181 0.30946 0.07583
 C898 C 0.29820 0.31491 0.05993
 H899 H 0.29266 0.28071 0.13148
 H900 H 0.33784 0.29320 0.11382
 H901 H 0.34203 0.31508 0.06834
 H902 H 0.30089 0.32478 0.04023
 H903 H 0.19866 0.28817 0.09600
 H904 H 0.20293 0.31143 0.05196
 C905 C 0.69914 0.78367 0.58060
 C906 C 0.72112 0.76878 0.59355
 C907 C 0.74761 0.76925 0.58211
 C908 C 0.75290 0.78477 0.55883
 C909 C 0.73189 0.80042 0.54629
 C910 C 0.70470 0.79988 0.55693
 C911 C 0.67158 0.78204 0.58988
 C912 C 0.65031 0.79679 0.57686
 C913 C 0.65588 0.81304 0.55413
 C914 C 0.68273 0.81447 0.54404
 H915 H 0.66598 0.76897 0.60681
 H916 H 0.62931 0.79537 0.58429
 H917 H 0.63924 0.82429 0.54401
 H918 H 0.68600 0.82681 0.52591
 H919 H 0.76456 0.75785 0.59158
 H920 H 0.77369 0.78483 0.55065
 C921 C 0.73985 0.78470 0.40202
 C922 C 0.76635 0.77245 0.39820
 C923 C 0.78709 0.77625 0.41826
 C924 C 0.78172 0.79096 0.44236
 C925 C 0.75556 0.80257 0.44695
 C926 C 0.73439 0.79978 0.42670
 C927 C 0.71881 0.78283 0.38166
 C928 C 0.69285 0.79488 0.38586
 C929 C 0.68736 0.80909 0.41024
 C930 C 0.70787 0.81160 0.43052
 H931 H 0.72228 0.77244 0.36222
 H932 H 0.67692 0.79326 0.37007
 H933 H 0.66715 0.81837 0.41337
 H934 H 0.70280 0.82292 0.44911
 H935 H 0.80744 0.76707 0.41558
 H936 H 0.79805 0.79312 0.45772
 C937 C 0.23291 0.27411 -0.08267
 C938 C 0.25850 0.27445 -0.09682
 C939 C 0.27971 0.29187 -0.08729
 C940 C 0.27644 0.30796 -0.06370
 C941 C 0.25190 0.30716 -0.04874
 C942 C 0.22972 0.29041 -0.05826
 C943 C 0.21004 0.25879 -0.09267
 C944 C 0.18507 0.25875 -0.07853
 C945 C 0.18217 0.27426 -0.05449
 C946 C 0.20413 0.29014 -0.04449
 H947 H 0.21090 0.24721 -0.11173
 H948 H 0.16777 0.24685 -0.08644
 H949 H 0.16266 0.27428 -0.04373
 H950 H 0.20072 0.30246 -0.02614
 H951 H 0.29931 0.29258 -0.09787
 H952 H 0.29348 0.32081 -0.05672
 C953 C 0.69796 0.23559 -0.06208
 C954 C 0.71742 0.23589 -0.08374
 C955 C 0.74171 0.22002 -0.08152
 C956 C 0.74646 0.20308 -0.05888
 C957 C 0.72720 0.20177 -0.03763
 C958 C 0.70276 0.21815 -0.03897
 C959 C 0.67402 0.25256 -0.06260
 C960 C 0.65483 0.25162 -0.04141
 C961 C 0.65911 0.23393 -0.01930
 C962 C 0.68281 0.21733 -0.01798
 H963 H 0.67004 0.26696 -0.07909
 H964 H 0.63655 0.26469 -0.04214
 H965 H 0.64405 0.23318 -0.00299
 H966 H 0.68530 0.20392 -0.00040
 H967 H 0.75678 0.22014 -0.09787
 H968 H 0.76522 0.19067 -0.05800
 C969 C 0.24558 0.70979 0.39446
 C970 C 0.22554 0.73120 0.39726
 C971 C 0.21528 0.73781 0.42329
 C972 C 0.22377 0.72306 0.44637
 C973 C 0.24315 0.70146 0.44425
 C974 C 0.25468 0.69496 0.41821
 C975 C 0.25757 0.70346 0.36878
 C976 C 0.27789 0.68297 0.36650
 C977 C 0.28699 0.66873 0.38970
 C978 C 0.27573 0.67472 0.41536
 H979 H 0.25172 0.71447 0.35032
 H980 H 0.28690 0.67838 0.34668
 H981 H 0.30309 0.65317 0.38784
 H982 H 0.28407 0.66368 0.43289
 H983 H 0.20024 0.75437 0.42572
 H984 H 0.21488 0.72838 0.46610
 C985 C 0.30194 0.70717 0.58561
 C986 C 0.28567 0.73083 0.59252
 C987 C 0.26414 0.73895 0.57467
 C988 C 0.25852 0.72439 0.55053
 C989 C 0.27467 0.70152 0.54277
 C990 C 0.29730 0.69335 0.55988
 C991 C 0.32216 0.69628 0.60386
 C992 C 0.33918 0.67427 0.59593
 C993 C 0.33630 0.66251 0.56986
 C994 C 0.31557 0.67185 0.55196
 H995 H 0.32469 0.70404 0.62460
 H996 H 0.35477 0.66637 0.61007
 H997 H 0.34993 0.64579 0.56362
 H998 H 0.31417 0.66217 0.53186
 H999 H 0.25140 0.75686 0.57941
 H1000 H 0.24108 0.73094 0.53788
 C1001 C 0.77947 0.18474 0.10489
 C1002 C 0.76495 0.20852 0.11458
 C1003 C 0.74363 0.21974 0.09822
 C1004 C 0.73732 0.20865 0.07239
 C1005 C 0.75266 0.18650 0.06149
 C1006 C 0.77459 0.17485 0.07754
 C1007 C 0.79853 0.17026 0.12183
 C1008 C 0.81450 0.14860 0.11127
 C1009 C 0.81183 0.14093 0.08375
 C1010 C 0.79218 0.15391 0.06695
 H1011 H 0.80092 0.17511 0.14346
 H1012 H 0.82924 0.13793 0.12445
 H1013 H 0.82481 0.12461 0.07544
 H1014 H 0.79117 0.14747 0.04563
 H1015 H 0.73211 0.23776 0.10509
 H1016 H 0.72038 0.21771 0.06065
 C1017 C 0.50639 0.35102 0.54843
 C1018 C 0.48144 0.35543 0.53330
 C1019 C 0.46088 0.33514 0.53323
 C1020 C 0.46486 0.31041 0.54725
 C1021 C 0.48938 0.30542 0.56205
 C1022 C 0.51041 0.32573 0.56286
 C1023 C 0.52717 0.37139 0.55011
 C1024 C 0.55156 0.36669 0.56509
 C1025 C 0.55571 0.34175 0.57871
 C1026 C 0.53541 0.32139 0.57765
 H1027 H 0.52468 0.39122 0.54021
 H1028 H 0.56731 0.38250 0.56619
 H1029 H 0.57471 0.33822 0.59025
 H1030 H 0.53947 0.30231 0.58851
 H1031 H 0.44173 0.33824 0.52176
 H1032 H 0.44861 0.29506 0.54667
 C1033 C -0.00267 0.84787 0.03845
 C1034 C -0.02788 0.85137 0.02346
 C1035 C -0.04744 0.83008 0.02325
 C1036 C -0.04225 0.80539 0.03695
 C1037 C -0.01742 0.80123 0.05150
 C1038 C 0.00274 0.82243 0.05227
 C1039 C 0.01706 0.86924 0.04059
 C1040 C 0.04194 0.86524 0.05493
 C1041 C 0.04764 0.84005 0.06751
 C1042 C 0.02829 0.81879 0.06628
 H1043 H 0.01337 0.88932 0.03160
 H1044 H 0.05690 0.88179 0.05629
 H1045 H 0.06708 0.83702 0.07844
 H1046 H 0.03357 0.79955 0.07633
 H1047 H -0.06678 0.83236 0.01192
 H1048 H -0.05782 0.78934 0.03624
 C1049 C 0.02966 0.67029 0.01914
 C1050 C 0.00908 0.64943 0.01887
 C1051 C -0.01601 0.65422 0.03232
 C1052 C -0.02060 0.67877 0.04683
 C1053 C -0.00034 0.69932 0.04808
 C1054 C 0.02507 0.69525 0.03424
 C1055 C 0.05454 0.66714 0.00437
 C1056 C 0.07483 0.68752 0.00543
 C1057 C 0.07076 0.71142 0.02103
 C1058 C 0.04616 0.71537 0.03531
 H1059 H 0.05845 0.64918 -0.00842
 H1060 H 0.09382 0.68474 -0.00592
 H1061 H 0.08668 0.72707 0.02193
 H1062 H 0.04391 0.73426 0.04717
 H1063 H -0.03192 0.63851 0.03216
 H1064 H -0.04010 0.68172 0.05732
 C1065 C 0.54065 0.17542 0.53538
 C1066 C 0.51971 0.15507 0.53236
 C1067 C 0.49381 0.15959 0.54437
 C1068 C 0.48842 0.18358 0.55946
 C1069 C 0.50868 0.20391 0.56277
 C1070 C 0.53514 0.19989 0.55101
 C1071 C 0.56663 0.17250 0.52256
 C1072 C 0.58702 0.19257 0.52603
 C1073 C 0.58193 0.21598 0.54208
 C1074 C 0.55626 0.21974 0.55444
 H1075 H 0.57142 0.15499 0.50948
 H1076 H 0.60687 0.18997 0.51617
 H1077 H 0.59790 0.23142 0.54479
 H1078 H 0.55316 0.23827 0.56669
 H1079 H 0.47760 0.14431 0.54210
 H1080 H 0.46810 0.18652 0.56832
 C1081 C 0.01847 0.14871 0.47221
 C1082 C -0.00938 0.13998 0.47500
 C1083 C -0.03075 0.15521 0.46233
 C1084 C -0.02521 0.17957 0.44843
 C1085 C 0.00186 0.18945 0.44681
 C1086 C 0.02408 0.17380 0.45819
 C1087 C 0.04095 0.13275 0.48230
 C1088 C 0.06815 0.14173 0.47946
 C1089 C 0.07357 0.16647 0.46621
 C1090 C 0.05184 0.18234 0.45548
 H1091 H 0.03789 0.11296 0.49193
 H1092 H 0.08515 0.12927 0.48735
 H1093 H 0.09475 0.17324 0.46392
 H1094 H 0.05705 0.20109 0.44475
 H1095 H -0.05209 0.14869 0.46402
 H1096 H -0.04229 0.19130 0.43960
 C1097 C 0.52199 0.65185 0.96051
 C1098 C 0.49574 0.64313 0.96990
 C1099 C 0.47241 0.65997 0.96541
 C1100 C 0.47474 0.68538 0.95246
 C1101 C 0.50040 0.69461 0.94334
 C1102 C 0.52433 0.67792 0.94724
 C1103 C 0.54587 0.63504 0.96337
 C1104 C 0.57151 0.64405 0.95417
 C1105 C 0.57387 0.66979 0.94182
 C1106 C 0.55055 0.68663 0.93829
 H1107 H 0.54496 0.61470 0.97237
 H1108 H 0.58964 0.63096 0.95657
 H1109 H 0.59384 0.67668 0.93479
 H1110 H 0.55323 0.70645 0.92852
 H1111 H 0.45223 0.65363 0.97246
 H1112 H 0.45630 0.69796 0.94943
 C1113 C 0.47803 0.84232 0.96017
 C1114 C 0.50308 0.84939 0.97400
 C1115 C 0.52540 0.83074 0.97386
 C1116 C 0.52330 0.80531 0.96046
 C1117 C 0.49894 0.79790 0.94647
 C1118 C 0.47595 0.81628 0.94633
 C1119 C 0.45527 0.86079 0.95907
 C1120 C 0.43085 0.85349 0.94527
 C1121 C 0.42865 0.82784 0.93224
 C1122 C 0.45094 0.80934 0.93269
 H1123 H 0.45616 0.88106 0.96857
 H1124 H 0.41355 0.86785 0.94465
 H1125 H 0.40961 0.82228 0.92164
 H1126 H 0.44839 0.78960 0.92234
 H1127 H 0.54464 0.83588 0.98435
 H1128 H 0.54106 0.79148 0.96051
 C1129 C 0.06617 0.32126 0.47092
 C1130 C 0.04624 0.33415 0.48816
 C1131 C 0.01978 0.32263 0.49014
 C1132 C 0.01232 0.29970 0.47435
 C1133 C 0.03103 0.28762 0.45601
 C1134 C 0.05839 0.29793 0.45452
 C1135 C 0.09388 0.33043 0.47019
 C1136 C 0.11312 0.31759 0.45304
 C1137 C 0.10537 0.29513 0.43669
 C1138 C 0.07837 0.28515 0.43753
 H1139 H 0.10117 0.34712 0.48323
 H1140 H 0.13425 0.32492 0.45267
 H1141 H 0.12046 0.28512 0.42358
 H1142 H 0.07349 0.26716 0.42507
 H1143 H 0.00437 0.33206 0.50334
 H1144 H -0.00855 0.29176 0.47586
 C1145 C 0.33969 0.54444 0.45184
 C1146 C 0.34550 0.52041 0.46769
 C1147 C 0.32672 0.51270 0.48801
 C1148 C 0.30271 0.52801 0.49281
 C1149 C 0.29605 0.55123 0.47696
 C1150 C 0.31406 0.55891 0.45542
 C1151 C 0.35896 0.55505 0.43305
 C1152 C 0.35204 0.57729 0.41617
 C1153 C 0.32598 0.58956 0.41777
 C1154 C 0.30713 0.58058 0.43720
 H1155 H 0.37975 0.54688 0.43158
 H1156 H 0.36694 0.58494 0.40166
 H1157 H 0.32049 0.60641 0.40419
 H1158 H 0.28707 0.59067 0.43761
 H1159 H 0.33057 0.49452 0.50039
 H1160 H 0.28931 0.52178 0.50934
 C1161 C 0.83302 0.03257 0.00116
 C1162 C 0.83653 0.01992 -0.02504
 C1163 C 0.81585 0.02300 -0.04528
 C1164 C 0.79151 0.03746 -0.03975
 C1165 C 0.78727 0.04957 -0.01392
 C1166 C 0.80804 0.04734 0.00682
 C1167 C 0.85394 0.03141 0.02168
 C1168 C 0.84998 0.04372 0.04740
 C1169 C 0.82528 0.05748 0.05316
 C1170 C 0.80444 0.05934 0.03314
 H1171 H 0.87364 0.02135 0.01801
 H1172 H 0.86620 0.04262 0.06294
 H1173 H 0.82230 0.06690 0.07320
 H1174 H 0.78560 0.07027 0.03848
 H1175 H 0.81828 0.01353 -0.06540
 H1176 H 0.77571 0.03907 -0.05570
 C1177 C 0.66513 0.01097 0.04069
 C1178 C 0.64161 0.01174 0.02286
 C1179 C 0.64198 0.02846 -0.00054
 C1180 C 0.66482 0.04480 -0.00619
 C1181 C 0.68802 0.04480 0.01131
 C1182 C 0.68829 0.02807 0.03514
 C1183 C 0.66650 -0.00688 0.06356
 C1184 C 0.68946 -0.00681 0.08125
 C1185 C 0.71152 0.01081 0.07649
 C1186 C 0.71107 0.02809 0.05368
 H1187 H 0.65017 -0.02134 0.06781
 H1188 H 0.69013 -0.02052 0.09875
 H1189 H 0.72918 0.01093 0.09043
 H1190 H 0.72867 0.04146 0.05081
 H1191 H 0.62420 0.02924 -0.01434
 H1192 H 0.66448 0.05744 -0.02450
 C1193 C 0.15317 0.53491 0.48084
 C1194 C 0.14429 0.53066 0.50826
 C1195 C 0.15995 0.54158 0.53019
 C1196 C 0.18484 0.55507 0.52553
 C1197 C 0.19487 0.55794 0.49882
 C1198 C 0.17886 0.54834 0.47615
 C1199 C 0.13679 0.52679 0.45792
 C1200 C 0.14596 0.53086 0.43117
 C1201 C 0.17136 0.54338 0.42665
 C1202 C 0.18766 0.55222 0.44885
 H1203 H 0.11653 0.51782 0.46035
 H1204 H 0.13318 0.52447 0.41383
 H1205 H 0.17831 0.54656 0.40583
 H1206 H 0.20699 0.56238 0.44443
 H1207 H 0.15342 0.53871 0.55122
 H1208 H 0.19679 0.56269 0.54298
 C1209 C 0.17411 0.50142 -0.00219
 C1210 C 0.15587 0.49306 -0.02385
 C1211 C 0.16244 0.46937 -0.03935
 C1212 C 0.18609 0.45378 -0.03352
 C1213 C 0.20361 0.46068 -0.01136
 C1214 C 0.19698 0.48410 0.00526
 C1215 C 0.17067 0.52686 0.01194
 C1216 C 0.18715 0.53348 0.03477
 C1217 C 0.20743 0.51505 0.04389
 C1218 C 0.21235 0.49059 0.02935
 H1219 H 0.15577 0.54220 0.00521
 H1220 H 0.18401 0.55289 0.04557
 H1221 H 0.21971 0.51992 0.06205
 H1222 H 0.22809 0.47679 0.03732
 H1223 H 0.14899 0.46259 -0.05604
 H1224 H 0.19077 0.43608 -0.04652
 C1225 C 0.65263 0.95654 0.46039
 C1226 C 0.64708 0.98051 0.47664
 C1227 C 0.66611 0.98820 0.49729
 C1228 C 0.69043 0.97317 0.50166
 C1229 C 0.69710 0.95032 0.48505
 C1230 C 0.67853 0.94242 0.46350
 C1231 C 0.63289 0.94579 0.44152
 C1232 C 0.63952 0.92368 0.42417
 C1233 C 0.66580 0.91176 0.42530
 C1234 C 0.68518 0.92097 0.44471
 H1235 H 0.61199 0.95381 0.44036
 H1236 H 0.62424 0.91590 0.40962
 H1237 H 0.67106 0.89503 0.41134
 H1238 H 0.70540 0.91123 0.44463
 H1239 H 0.66237 1.00629 0.51003
 H1240 H 0.70423 0.97949 0.51826
 C1241 C 0.84332 0.96473 0.48605
 C1242 C 0.85128 0.97285 0.51317
 C1243 C 0.83353 0.96754 0.53508
 C1244 C 0.80796 0.95508 0.53055
 C1245 C 0.79939 0.94753 0.50398
 C1246 C 0.81698 0.95225 0.48144
 C1247 C 0.86123 0.96779 0.46351
 C1248 C 0.85294 0.95980 0.43704
 C1249 C 0.82691 0.94832 0.43250
 C1250 C 0.80907 0.94440 0.45444
 H1251 H 0.88192 0.97584 0.46607
 H1252 H 0.86688 0.96237 0.41998
 H1253 H 0.82063 0.94214 0.41191
 H1254 H 0.78915 0.93507 0.45011
 H1255 H 0.83934 0.97347 0.55589
 H1256 H 0.79473 0.95123 0.54794
 C1257 C 0.33336 0.48533 0.03915
 C1258 C 0.35464 0.48538 0.01921
 C1259 C 0.35048 0.47152 -0.00593
 C1260 C 0.32610 0.45709 -0.01130
 C1261 C 0.30523 0.45603 0.00836
 C1262 C 0.30884 0.46984 0.03396
 C1263 C 0.33549 0.50085 0.06385
 C1264 C 0.31478 0.49978 0.08356
 C1265 C 0.29155 0.48340 0.07909
 C1266 C 0.28852 0.46854 0.05457
 H1267 H 0.35281 0.51434 0.06803
 H1268 H 0.31679 0.51168 0.10243
 H1269 H 0.27569 0.48238 0.09460
 H1270 H 0.27026 0.45592 0.05199
 H1271 H 0.36647 0.47147 -0.02139
 H1272 H 0.32344 0.44669 -0.03098
 C1273 C 0.53398 0.43638 0.33268
 C1274 C 0.51576 0.45660 0.34394
 C1275 C 0.51348 0.48251 0.33143
 C1276 C 0.52969 0.48915 0.30899
 C1277 C 0.54870 0.47006 0.29818
 C1278 C 0.55062 0.44319 0.30964
 C1279 C 0.53539 0.40922 0.34316
 C1280 C 0.55322 0.38954 0.33175
 C1281 C 0.56954 0.39625 0.30942
 C1282 C 0.56812 0.42267 0.29821
 H1283 H 0.52241 0.40269 0.35981
 H1284 H 0.55409 0.36885 0.34007
 H1285 H 0.58311 0.38078 0.30047
 H1286 H 0.58050 0.42662 0.28030
 H1287 H 0.49957 0.49814 0.33962
 H1288 H 0.52783 0.50967 0.30034
 C1289 C 0.01888 0.01113 0.84140
 C1290 C 0.01733 -0.01599 0.85241
 C1291 C 0.03284 -0.03740 0.84033
 C1292 C 0.04848 -0.03280 0.81698
 C1293 C 0.04899 -0.00670 0.80483
 C1294 C 0.03452 0.01566 0.81715
 C1295 C 0.00592 0.03403 0.85426
 C1296 C 0.00741 0.06039 0.84295
 C1297 C 0.02209 0.06460 0.81890
 C1298 C 0.03571 0.04255 0.80614
 H1299 H -0.00491 0.03206 0.87345
 H1300 H -0.00269 0.07770 0.85304
 H1301 H 0.02325 0.08513 0.81029
 H1302 H 0.04740 0.04683 0.78782
 H1303 H 0.03207 -0.05819 0.84843
 H1304 H 0.05967 -0.04998 0.80779
 C1305 C 0.03759 -0.01172 0.65557
 C1306 C 0.02143 0.01270 0.65196
 C1307 C 0.01987 0.03205 0.67351
 C1308 C 0.03356 0.02754 0.69845
 C1309 C 0.04941 0.00357 0.70265
 C1310 C 0.05123 -0.01654 0.68133
 C1311 C 0.04118 -0.03115 0.63402
 C1312 C 0.05646 -0.05537 0.63818
 C1313 C 0.06862 -0.06066 0.66370
 C1314 C 0.06617 -0.04148 0.68510
 H1315 H 0.03262 -0.02777 0.61368
 H1316 H 0.05885 -0.07014 0.62150
 H1317 H 0.08017 -0.07966 0.66688
 H1318 H 0.07595 -0.04646 0.70460
 H1319 H 0.00770 0.05081 0.67111
 H1320 H 0.03205 0.04309 0.71456
 C1321 C 0.53912 0.54349 0.17212
 C1322 C 0.52932 0.52249 0.15387
 C1323 C 0.53299 0.49465 0.16097
 C1324 C 0.54639 0.48728 0.18531
 C1325 C 0.55674 0.50750 0.20328
 C1326 C 0.55333 0.53584 0.19685
 C1327 C 0.53421 0.57185 0.16707
 C1328 C 0.54409 0.59208 0.18524
 C1329 C 0.55862 0.58457 0.20895
 C1330 C 0.56307 0.55673 0.21490
 H1331 H 0.52226 0.57878 0.14950
 H1332 H 0.54024 0.61373 0.18100
 H1333 H 0.56614 0.60038 0.22299
 H1334 H 0.57396 0.55175 0.23383
 H1335 H 0.52550 0.47835 0.14743
 H1336 H 0.54878 0.46555 0.19017
 C1337 C 0.45929 -0.05360 0.17314
 C1338 C 0.47278 -0.03290 0.15774
 C1339 C 0.47299 -0.00558 0.16758
 C1340 C 0.45958 0.00170 0.19172
 C1341 C 0.44541 -0.01807 0.20683
 C1342 C 0.44527 -0.04603 0.19780
 C1343 C 0.46023 -0.08177 0.16527
 C1344 C 0.44697 -0.10180 0.18074
 C1345 C 0.43294 -0.09431 0.20454
 C1346 C 0.43223 -0.06677 0.21320
 H1347 H 0.47163 -0.08878 0.14752
 H1348 H 0.44783 -0.12330 0.17439
 H1349 H 0.42287 -0.11000 0.21657
 H1350 H 0.42172 -0.06199 0.23220
 H1351 H 0.48329 0.01048 0.15621
 H1352 H 0.45990 0.02311 0.19849
 C1353 C 0.95930 0.45287 0.65236
 C1354 C 0.98201 0.47037 0.64643
 C1355 C 0.98805 0.49244 0.66432
 C1356 C 0.97280 0.49686 0.68811
 C1357 C 0.95129 0.47906 0.69525
 C1358 C 0.94482 0.45637 0.67761
 C1359 C 0.95018 0.43229 0.63359
 C1360 C 0.92926 0.41399 0.64056
 C1361 C 0.91692 0.41584 0.66621
 C1362 C 0.92453 0.43677 0.68461
 H1363 H 0.95859 0.43045 0.61317
 H1364 H 0.92272 0.39817 0.62604
 H1365 H 0.90109 0.40121 0.67174
 H1366 H 0.91449 0.43723 0.70437
 H1367 H 1.00511 0.50616 0.66016
 H1368 H 0.97799 0.51437 0.70121
 C1369 C 0.95941 0.49440 0.84584
 C1370 C 0.97909 0.51601 0.84535
 C1371 C 0.98509 0.52882 0.82046
 C1372 C 0.97109 0.52145 0.79635
 C1373 C 0.95095 0.50069 0.79626
 C1374 C 0.94550 0.48638 0.82101
 C1375 C 0.95386 0.48001 0.87031
 C1376 C 0.93513 0.45818 0.87032
 C1377 C 0.92192 0.45002 0.84601
 C1378 C 0.92714 0.46376 0.82152
 H1379 H 0.96416 0.48518 0.88953
 H1380 H 0.93111 0.44731 0.88922
 H1381 H 0.90773 0.43278 0.84608
 H1382 H 0.91702 0.45615 0.80302
 H1383 H 1.00032 0.54516 0.81982
 H1384 H 0.97563 0.53248 0.77763
 C1385 C 0.46319 0.06076 0.33336
 C1386 C 0.48085 0.04159 0.34709
 C1387 C 0.48305 0.01447 0.33696
 C1388 C 0.46748 0.00580 0.31429
 C1389 C 0.44920 0.02396 0.30090
 C1390 C 0.44718 0.05183 0.31008
 C1391 C 0.46178 0.08883 0.34154
 C1392 C 0.44460 0.10746 0.32760
 C1393 C 0.42888 0.09870 0.30503
 C1394 C 0.43026 0.07125 0.29613
 H1395 H 0.47428 0.09684 0.35834
 H1396 H 0.44374 0.12890 0.33414
 H1397 H 0.41581 0.11335 0.29413
 H1398 H 0.41828 0.06558 0.27804
 H1399 H 0.49653 -0.00040 0.34708
 H1400 H 0.46938 -0.01548 0.30736
   
