data_POSCAR
  _audit_creation_date              2014-09-24
  _audit_creation_method            'ToBaCCo'
  _symmetry_space_group_name_H-M    'P1'
  _symmetry_Int_Tables_number       1
  _symmetry_cell_setting            triclinic
  loop_
  _symmetry_equiv_pos_as_xyz
 x,y,z
_cell_length_a 35.0012
_cell_length_b 34.8608
_cell_length_c 38.0432
_cell_angle_alpha 90.156300
_cell_angle_beta 90.191700
_cell_angle_gamma 89.540300
loop_
  _atom_site_label
  _atom_site_type_symbol
  _atom_site_fract_x
  _atom_site_fract_y
  _atom_site_fract_z
C1 C 0.40340 0.00191 0.24809
 C2 C 0.09637 -0.00279 0.74891
 C3 C 0.59655 0.50114 0.24924
 C4 C 0.90607 0.50525 0.74890
 C5 C 0.25018 0.34667 0.99924
 C6 C 0.75220 0.15354 0.99738
 C7 C 0.25562 0.65101 0.49917
 C8 C 0.74910 0.84780 0.50036
 C9 C -0.00086 0.25047 0.37109
 C10 C 0.00015 0.74949 0.13152
 C11 C 0.49968 0.24809 0.62672
 C12 C 0.49809 0.74996 0.87268
 C13 C -0.25396 0.65361 1.00159
 C14 C -0.24311 0.34823 0.49942
 C15 C 0.25375 -0.15363 -0.00060
 C16 C 0.24494 1.15071 0.50067
 C17 C 0.09604 0.50389 0.24987
 C18 C -0.09835 0.99729 0.25079
 C19 C 0.40235 0.49299 -0.24881
 C20 C 0.59706 0.00808 -0.25117
 C21 C 0.00011 0.24750 0.87465
 C22 C 0.49638 0.25089 0.12721
 C23 C -0.00328 0.75093 0.62214
 C24 C 0.50078 0.74597 0.37777
 Zr25 Zr 0.03173 -0.03257 1.04977
 O26 O 0.07054 -0.01533 1.08940
 O27 O 0.02268 -0.08944 1.06275
 O28 O 0.00517 -0.02998 1.10092
 O29 O 0.09974 -0.05249 0.98501
 O30 O -0.05037 0.00249 1.08980
 O31 O 0.08700 -0.06021 1.04336
 O32 O -0.02107 -0.11081 1.02261
 O33 O -0.02695 -0.03953 1.03910
 O34 O 0.02655 -0.05953 1.00064
 O35 O 0.00730 0.02286 1.05012
 O36 O 0.06032 0.00304 1.01378
 Zr37 Zr -0.02977 0.02478 0.95190
 Zr38 Zr -0.05040 0.01578 1.03672
 Zr39 Zr 0.05208 -0.02347 0.96481
 Zr40 Zr -0.03136 -0.06454 0.98926
 O41 O 0.10237 0.00631 0.95122
 O42 O -0.08475 -0.08118 1.01027
 O43 O -0.00548 -0.03082 0.95078
 O44 O -0.05776 -0.01076 0.98785
 O45 O -0.02517 0.05261 1.00069
 O46 O 0.02866 0.03136 0.96299
 C47 C 0.00140 -0.11521 1.04895
 C48 C 0.10823 -0.06544 1.01559
 C49 C -0.02735 -0.01501 1.11062
 O50 O -0.10165 -0.01303 1.04900
 O51 O -0.09752 0.04658 1.01708
 O52 O -0.08321 0.05527 0.95915
 C53 C -0.10515 0.05998 0.98647
 O54 O 0.07386 0.06377 1.05333
 Zr55 Zr 0.03311 0.05693 1.01227
 O56 O -0.02015 0.08112 0.93844
 O57 O -0.05784 0.06691 1.06616
 O58 O 0.01286 0.10182 1.04522
 O59 O 0.08540 0.07642 0.99098
 O60 O 0.02058 0.10408 0.98039
 C61 C 0.00012 0.10744 0.95255
 O62 O -0.07031 0.00838 0.91346
 O63 O 0.06109 -0.07514 0.93646
 O64 O -0.00465 0.02018 0.90030
 O65 O 0.04978 -0.01424 0.91101
 O66 O -0.01189 -0.11121 0.95804
 O67 O -0.06835 -0.07302 0.94554
 C68 C 0.02698 0.00365 0.89026
 H69 H 0.03917 -0.08500 0.99942
 H70 H -0.08510 -0.01365 0.98173
 H71 H 0.04218 0.04675 0.94516
 H72 H 0.01035 0.03530 1.07337
 H73 H -0.08759 -0.10907 1.00600
 H74 H -0.11622 0.00370 1.06536
 H75 H -0.08253 0.06481 1.07869
 H76 H 0.02845 0.12482 1.04043
 H77 H -0.02838 -0.13350 0.96314
 H78 H 0.08609 -0.07309 0.92444
 H79 H 0.11679 -0.01039 0.93475
 H80 H 0.08734 0.10421 0.99623
 H81 H -0.08120 -0.09808 0.94782
 H82 H -0.07470 0.03111 0.89830
 H83 H 0.07539 -0.03816 1.10432
 H84 H 0.08163 0.09098 1.05472
 Zr85 Zr 0.53457 0.46674 0.55044
 O86 O 0.57262 0.48188 0.59141
 O87 O 0.52549 0.40928 0.56092
 O88 O 0.50709 0.46746 0.60137
 O89 O 0.60448 0.45143 0.48639
 O90 O 0.45105 0.49897 0.59025
 O91 O 0.58999 0.43974 0.54386
 O92 O 0.48336 0.38927 0.51874
 O93 O 0.47634 0.45933 0.53823
 O94 O 0.53104 0.44241 0.50002
 O95 O 0.50947 0.52174 0.55259
 O96 O 0.56366 0.50446 0.51660
 Zr97 Zr 0.47476 0.52817 0.45387
 Zr98 Zr 0.45223 0.51435 0.53773
 Zr99 Zr 0.55694 0.48069 0.46628
 Zr100 Zr 0.47356 0.43702 0.48719
 O101 O 0.60680 0.51216 0.45477
 O102 O 0.41976 0.41858 0.50592
 O103 O 0.49987 0.47309 0.45088
 O104 O 0.44640 0.49038 0.48760
 O105 O 0.47792 0.55316 0.50398
 O106 O 0.53280 0.53536 0.46616
 C107 C 0.50487 0.38398 0.54558
 C108 C 0.61200 0.43645 0.51641
 C109 C 0.47413 0.48156 0.61103
 O110 O 0.40128 0.48405 0.54789
 O111 O 0.40529 0.54523 0.51819
 O112 O 0.42087 0.55707 0.46103
 C113 C 0.39833 0.55997 0.48800
 O114 O 0.57672 0.56206 0.55806
 Zr115 Zr 0.53583 0.55794 0.51681
 O116 O 0.48249 0.58597 0.44415
 O117 O 0.44325 0.56410 0.56875
 O118 O 0.51600 0.60042 0.55255
 O119 O 0.58728 0.58008 0.49601
 O120 O 0.52104 0.60708 0.48869
 C121 C 0.50023 0.61204 0.46133
 O122 O 0.43524 0.51356 0.41390
 O123 O 0.56798 0.43061 0.43615
 O124 O 0.50016 0.52540 0.40244
 O125 O 0.55522 0.49192 0.41274
 O126 O 0.49467 0.39219 0.45461
 O127 O 0.43811 0.43043 0.44212
 C128 C 0.53191 0.50942 0.39216
 H129 H 0.54395 0.41714 0.49802
 H130 H 0.41927 0.48733 0.48076
 H131 H 0.54599 0.55208 0.44914
 H132 H 0.51186 0.53310 0.57636
 H133 H 0.41742 0.39093 0.50027
 H134 H 0.38590 0.49991 0.56435
 H135 H 0.41827 0.56115 0.58061
 H136 H 0.53193 0.62354 0.54939
 H137 H 0.47825 0.36951 0.45821
 H138 H 0.59317 0.43387 0.42470
 H139 H 0.62170 0.49667 0.43768
 H140 H 0.58854 0.60753 0.50273
 H141 H 0.42557 0.40509 0.44289
 H142 H 0.43081 0.53704 0.39973
 H143 H 0.57709 0.45834 0.60547
 H144 H 0.58541 0.58893 0.56023
 Zr145 Zr 0.46648 1.02908 0.54643
 O146 O 0.42733 1.01290 0.58584
 O147 O 0.47610 1.08589 0.55906
 O148 O 0.49303 1.02779 0.59782
 O149 O 0.39954 1.04920 0.48078
 O150 O 0.54783 0.99367 0.58807
 O151 O 0.41180 1.05708 0.53936
 O152 O 0.52141 1.10564 0.52008
 O153 O 0.52537 1.03447 0.53692
 O154 O 0.47294 1.05520 0.49718
 O155 O 0.48916 0.97312 0.54773
 O156 O 0.43733 0.99407 0.50992
 Zr157 Zr 0.52816 0.96899 0.45016
 Zr158 Zr 0.54715 0.97852 0.53541
 Zr159 Zr 0.44707 1.01938 0.46085
 Zr160 Zr 0.53119 1.05873 0.48712
 O161 O 0.39698 0.99017 0.44533
 O162 O 0.58459 1.07427 0.50924
 O163 O 0.50519 1.02512 0.44839
 O164 O 0.55629 1.00428 0.48663
 O165 O 0.52151 0.94231 0.49909
 O166 O 0.46926 0.96382 0.45963
 C167 C 0.49838 1.11091 0.54577
 C168 C 0.39089 1.06230 0.51138
 C169 C 0.52531 1.01267 0.60815
 O170 O 0.60004 1.00462 0.54742
 O171 O 0.59159 0.94361 0.51694
 O172 O 0.58187 0.93924 0.45780
 C173 C 0.60120 0.93171 0.48627
 O174 O 0.41968 0.93596 0.54820
 Zr175 Zr 0.46294 0.93962 0.50931
 O176 O 0.51900 0.91168 0.43837
 O177 O 0.55166 0.92839 0.56653
 O178 O 0.47886 0.89520 0.54459
 O179 O 0.41199 0.92010 0.48505
 O180 O 0.47769 0.89099 0.48058
 C181 C 0.49968 0.88586 0.45417
 O182 O 0.56937 0.98341 0.41191
 O183 O 0.43881 1.07132 0.43292
 O184 O 0.50492 0.97506 0.39797
 O185 O 0.45122 1.01130 0.40678
 O186 O 0.51345 1.10548 0.45526
 O187 O 0.56916 1.06567 0.44415
 C188 C 0.47527 0.99414 0.38671
 H189 H 0.46086 1.08090 0.49565
 H190 H 0.58385 1.00638 0.48123
 H191 H 0.45634 0.94829 0.44135
 H192 H 0.48539 0.96136 0.57110
 H193 H 0.58820 1.10202 0.50488
 H194 H 0.61373 0.98737 0.56397
 H195 H 0.57653 0.92946 0.57904
 H196 H 0.46215 0.87294 0.53982
 H197 H 0.53041 1.12739 0.46062
 H198 H 0.41387 1.06962 0.42058
 H199 H 0.38345 1.00706 0.42840
 H200 H 0.40941 0.89252 0.49074
 H201 H 0.58262 1.09041 0.44659
 H202 H 0.57338 0.96031 0.39703
 H203 H 0.42280 1.03596 0.60064
 H204 H 0.40961 0.90951 0.54886
 Zr205 Zr -0.03283 0.52987 1.04654
 O206 O -0.07349 0.51169 1.08384
 O207 O -0.02299 0.58564 1.06263
 O208 O -0.00776 0.52577 1.09849
 O209 O -0.09630 0.55595 0.97961
 O210 O 0.04560 0.48923 1.08909
 O211 O -0.08713 0.55874 1.03903
 O212 O 0.02510 0.60616 1.02700
 O213 O 0.02660 0.53379 1.03952
 O214 O -0.02339 0.55921 0.99924
 O215 O -0.01185 0.47320 1.04547
 O216 O -0.06106 0.49845 1.00681
 Zr217 Zr 0.03150 0.47436 0.94938
 Zr218 Zr 0.04683 0.47733 1.03561
 Zr219 Zr -0.04833 0.52689 0.95974
 Zr220 Zr 0.03541 0.56138 0.99167
 O221 O -0.09850 0.50080 0.94013
 O222 O 0.08801 0.57371 1.01696
 O223 O 0.01050 0.53135 0.94989
 O224 O 0.05883 0.50622 0.98890
 O225 O 0.02191 0.44428 0.99621
 O226 O -0.02792 0.47087 0.95648
 C227 C 0.00071 0.61073 1.05176
 C228 C -0.10667 0.56634 1.01061
 C229 C 0.02354 0.50888 1.10915
 O230 O 0.09989 0.50079 1.05116
 O231 O 0.09157 0.44280 1.01675
 O232 O 0.08428 0.44262 0.95720
 C233 C 0.10248 0.43292 0.98581
 O234 O -0.08129 0.43736 1.04200
 Zr235 Zr -0.03721 0.44327 1.00415
 O236 O 0.01983 0.41896 0.93288
 O237 O 0.04835 0.42509 1.06386
 O238 O -0.02249 0.39550 1.03601
 O239 O -0.08885 0.42814 0.97847
 O240 O -0.02511 0.39719 0.97111
 C241 C -0.00260 0.39324 0.94488
 O242 O 0.07465 0.49035 0.91358
 O243 O -0.05328 0.58110 0.93501
 O244 O 0.01000 0.48339 0.89701
 O245 O -0.04200 0.52228 0.90534
 O246 O 0.02062 0.61067 0.96185
 O247 O 0.07600 0.57029 0.95112
 C248 C -0.01847 0.50403 0.88549
 H249 H -0.03483 0.58525 0.99877
 H250 H 0.08666 0.50786 0.98467
 H251 H -0.04088 0.45729 0.93696
 H252 H -0.01696 0.46006 1.06800
 H253 H 0.09251 0.60161 1.01461
 H254 H 0.11228 0.48204 1.06718
 H255 H 0.07268 0.42452 1.07728
 H256 H -0.03929 0.37397 1.02913
 H257 H 0.03760 0.63177 0.96945
 H258 H -0.07761 0.58122 0.92157
 H259 H -0.11060 0.51941 0.92380
 H260 H -0.09284 0.40034 0.98225
 H261 H 0.08969 0.59458 0.95553
 H262 H 0.07859 0.46829 0.89743
 H263 H -0.07830 0.53386 1.09965
 H264 H -0.09096 0.41075 1.04152
 Zr265 Zr -0.02589 0.47085 0.45364
 O266 O -0.06713 0.48908 0.41635
 O267 O -0.01710 0.41432 0.43863
 O268 O -0.00279 0.47570 0.40129
 O269 O -0.09314 0.45315 0.51943
 O270 O 0.05355 0.50670 0.41046
 O271 O -0.07992 0.44326 0.46131
 O272 O 0.02755 0.39121 0.47727
 O273 O 0.03311 0.46263 0.46165
 O274 O -0.01895 0.44282 0.50199
 O275 O -0.00204 0.52598 0.45371
 O276 O -0.05319 0.50592 0.49151
 Zr277 Zr 0.03945 0.52498 0.55056
 Zr278 Zr 0.05617 0.51769 0.46433
 Zr279 Zr -0.04327 0.47833 0.53967
 Zr280 Zr 0.03949 0.43676 0.51094
 O281 O -0.09185 0.50928 0.55735
 O282 O 0.09188 0.41970 0.48756
 O283 O 0.01505 0.46981 0.55115
 O284 O 0.06589 0.49014 0.51241
 O285 O 0.03253 0.55359 0.50244
 O286 O -0.01950 0.53279 0.54204
 C287 C 0.00422 0.38777 0.45148
 C288 C -0.10161 0.44006 0.48882
 C289 C 0.02829 0.49188 0.39015
 O290 O 0.10731 0.48905 0.44994
 O291 O 0.10205 0.54991 0.48320
 O292 O 0.09254 0.55504 0.54237
 C293 C 0.11164 0.56221 0.51379
 O294 O -0.07042 0.56667 0.45568
 Zr295 Zr -0.02606 0.55930 0.49343
 O296 O 0.03060 0.58107 0.56642
 O297 O 0.06186 0.56921 0.43550
 O298 O -0.00998 0.60421 0.45911
 O299 O -0.07550 0.58062 0.51927
 O300 O -0.00803 0.60594 0.52333
 C301 C 0.01219 0.60825 0.55133
 O302 O 0.08167 0.50644 0.58674
 O303 O -0.05236 0.42540 0.56545
 O304 O 0.01623 0.51902 0.60279
 O305 O -0.03800 0.48423 0.59399
 O306 O 0.02178 0.38959 0.54183
 O307 O 0.07843 0.42717 0.55308
 C308 C -0.01389 0.50113 0.61405
 H309 H -0.03159 0.41756 0.50294
 H310 H 0.09353 0.48693 0.51730
 H311 H -0.03180 0.54813 0.56087
 H312 H -0.00651 0.53917 0.43104
 H313 H 0.09486 0.39168 0.49112
 H314 H 0.12086 0.50618 0.43348
 H315 H 0.08644 0.56766 0.42267
 H316 H -0.02552 0.62716 0.46521
 H317 H 0.03836 0.36736 0.53581
 H318 H -0.07695 0.42764 0.57818
 H319 H -0.10556 0.49233 0.57386
 H320 H -0.07677 0.60863 0.51498
 H321 H 0.09147 0.40213 0.54975
 H322 H 0.08662 0.52845 0.60264
 H323 H -0.07241 0.46675 0.40090
 H324 H -0.07967 0.59358 0.45617
 Zr325 Zr 0.46923 -0.02585 -0.05154
 O326 O 0.42728 -0.01036 -0.08919
 O327 O 0.48311 -0.08073 -0.06776
 O328 O 0.49251 -0.01959 -0.10359
 O329 O 0.40322 -0.04816 0.01435
 O330 O 0.54709 0.01425 -0.09377
 O331 O 0.41630 -0.05630 -0.04396
 O332 O 0.52936 -0.10153 -0.02976
 O333 O 0.52850 -0.03057 -0.04297
 O334 O 0.47756 -0.05409 -0.00353
 O335 O 0.49018 0.03052 -0.05133
 O336 O 0.43990 0.00744 -0.01383
 Zr337 Zr 0.53120 0.03190 0.04580
 Zr338 Zr 0.54867 0.02551 -0.04008
 Zr339 Zr 0.45143 -0.01977 0.03414
 Zr340 Zr 0.53613 -0.05662 0.00603
 O341 O 0.40065 0.00799 0.05098
 O342 O 0.59054 -0.07031 -0.01520
 O343 O 0.50995 -0.02476 0.04618
 O344 O 0.55947 -0.00181 0.00789
 O345 O 0.52281 0.06019 -0.00230
 O346 O 0.47198 0.03613 0.03667
 C347 C 0.50724 -0.10558 -0.05639
 C348 C 0.39488 -0.06097 -0.01634
 C349 C 0.52301 -0.00206 -0.11426
 O350 O 0.60099 -0.00073 -0.05479
 O351 O 0.59382 0.05871 -0.02121
 O352 O 0.58484 0.06181 0.03809
 C353 C 0.60398 0.06974 0.00960
 O354 O 0.42013 0.06687 -0.05051
 Zr355 Zr 0.46389 0.06227 -0.01184
 O356 O 0.52102 0.08893 0.05870
 O357 O 0.55184 0.07770 -0.06823
 O358 O 0.47852 0.10836 -0.04540
 O359 O 0.41232 0.07969 0.01287
 O360 O 0.47647 0.10987 0.01892
 C361 C 0.49940 0.11464 0.04478
 O362 O 0.57238 0.01613 0.08402
 O363 O 0.44608 -0.07298 0.06034
 O364 O 0.50654 0.02661 0.09772
 O365 O 0.45527 -0.01217 0.08811
 O366 O 0.51958 -0.10549 0.03520
 O367 O 0.57384 -0.06464 0.04936
 C368 C 0.47654 0.00797 0.10831
 H369 H 0.46652 -0.08014 -0.00320
 H370 H 0.58717 -0.00390 0.01294
 H371 H 0.45860 0.05106 0.05513
 H372 H 0.48526 0.04352 -0.07401
 H373 H 0.59518 -0.09809 -0.01144
 H374 H 0.61378 0.01703 -0.07122
 H375 H 0.57626 0.07731 -0.08137
 H376 H 0.46122 0.13020 -0.03991
 H377 H 0.53723 -0.12678 0.02890
 H378 H 0.42146 -0.07227 0.07317
 H379 H 0.38721 -0.01012 0.06661
 H380 H 0.40848 0.10735 0.00791
 H381 H 0.58732 -0.08957 0.04690
 H382 H 0.57622 0.03898 0.09918
 H383 H 0.42359 -0.03304 -0.10461
 H384 H 0.40983 0.09340 -0.05077
 Zr385 Zr 0.52957 0.52803 -0.04727
 O386 O 0.57095 0.51146 -0.08489
 O387 O 0.51733 0.58349 -0.06295
 O388 O 0.50605 0.52254 -0.09958
 O389 O 0.59781 0.54564 0.01845
 O390 O 0.44997 0.49127 -0.09019
 O391 O 0.58320 0.55694 -0.03920
 O392 O 0.47285 0.60590 -0.02408
 O393 O 0.47068 0.53550 -0.03841
 O394 O 0.52321 0.55584 0.00130
 O395 O 0.50605 0.47272 -0.04772
 O396 O 0.55794 0.49294 -0.01020
 Zr397 Zr 0.46648 0.47201 0.04920
 Zr398 Zr 0.44786 0.48048 -0.03643
 Zr399 Zr 0.54841 0.51988 0.03836
 Zr400 Zr 0.46496 0.56106 0.01115
 O401 O 0.59756 0.48947 0.05563
 O402 O 0.41069 0.57753 -0.00901
 O403 O 0.49028 0.52750 0.05044
 O404 O 0.43909 0.50745 0.01214
 O405 O 0.47278 0.44415 0.00064
 O406 O 0.52535 0.46499 0.04027
 C407 C 0.49423 0.60907 -0.05114
 C408 C 0.60548 0.55977 -0.01182
 C409 C 0.47486 0.50622 -0.11054
 O410 O 0.39753 0.51033 -0.05144
 O411 O 0.40007 0.45129 -0.01767
 O412 O 0.41318 0.44258 0.04064
 C413 C 0.39185 0.43820 0.01280
 O414 O 0.57473 0.43337 -0.04761
 Zr415 Zr 0.53145 0.43932 -0.00886
 O416 O 0.47469 0.41481 0.06231
 O417 O 0.44126 0.42822 -0.06417
 O418 O 0.51539 0.39428 -0.04337
 O419 O 0.58199 0.41904 0.01606
 O420 O 0.51573 0.39191 0.02052
 C421 C 0.49379 0.38805 0.04708
 O422 O 0.42493 0.48869 0.08661
 O423 O 0.55726 0.57273 0.06465
 O424 O 0.48979 0.47798 0.10150
 O425 O 0.54355 0.51323 0.09251
 O426 O 0.48418 0.60894 0.04065
 O427 O 0.42882 0.56999 0.05526
 C428 C 0.51962 0.49653 0.11269
 H429 H 0.53526 0.58143 0.00191
 H430 H 0.41161 0.51075 0.01757
 H431 H 0.53789 0.44946 0.05883
 H432 H 0.51021 0.45961 -0.07051
 H433 H 0.40740 0.60541 -0.00467
 H434 H 0.38348 0.49349 -0.06798
 H435 H 0.41694 0.43013 -0.07752
 H436 H 0.53195 0.37179 -0.03815
 H437 H 0.46714 0.63092 0.03498
 H438 H 0.58186 0.57053 0.07751
 H439 H 0.61106 0.50637 0.07250
 H440 H 0.58421 0.39122 0.01095
 H441 H 0.41618 0.59542 0.05337
 H442 H 0.42029 0.46597 0.10161
 H443 H 0.57533 0.53410 -0.10006
 H444 H 0.58491 0.40679 -0.04740
 Zr445 Zr 0.02780 1.02921 0.45295
 O446 O 0.06773 1.00952 0.41523
 O447 O 0.02087 1.08615 0.43846
 O448 O 0.00373 1.02580 0.40085
 O449 O 0.09754 1.04248 0.51788
 O450 O -0.05417 0.99801 0.41031
 O451 O 0.08270 1.05518 0.46053
 O452 O -0.02133 1.11065 0.47851
 O453 O -0.03051 1.04043 0.46214
 O454 O 0.02362 1.05662 0.50190
 O455 O 0.00086 0.97545 0.45241
 O456 O 0.05427 0.99182 0.48941
 Zr457 Zr -0.03748 0.97687 0.54965
 Zr458 Zr -0.05663 0.98680 0.46410
 Zr459 Zr 0.04723 1.01901 0.53822
 Zr460 Zr -0.03410 1.06559 0.51207
 O461 O 0.09478 0.98528 0.55403
 O462 O -0.08657 1.08578 0.49076
 O463 O -0.01016 1.03052 0.55100
 O464 O -0.06335 1.01379 0.51294
 O465 O -0.03372 0.94885 0.50094
 O466 O 0.02068 0.96592 0.54007
 C467 C 0.00077 1.11331 0.45190
 C468 C 0.10525 1.05682 0.48772
 C469 C -0.02832 1.01131 0.38994
 O470 O -0.10570 1.01933 0.45037
 O471 O -0.10503 0.95875 0.48325
 O472 O -0.09077 0.94772 0.54103
 C473 C -0.11254 0.94429 0.51339
 O474 O 0.06681 0.93069 0.45201
 Zr475 Zr 0.02420 0.93996 0.49088
 O476 O -0.03074 0.92059 0.56490
 O477 O -0.06666 0.93578 0.43529
 O478 O 0.00467 0.89662 0.45608
 O479 O 0.07317 0.91553 0.51535
 O480 O 0.00434 0.89382 0.52041
 C481 C -0.01473 0.89242 0.54905
 O482 O -0.07872 0.99644 0.58616
 O483 O 0.05981 1.07066 0.56521
 O484 O -0.01359 0.98157 0.60182
 O485 O 0.04300 1.01189 0.59235
 O486 O -0.01295 1.11162 0.54289
 O487 O -0.07042 1.07627 0.55575
 C488 C 0.01793 0.99729 0.61272
 H489 H 0.03731 1.08132 0.50307
 H490 H -0.09061 1.01837 0.51859
 H491 H 0.03265 0.94970 0.55844
 H492 H 0.00404 0.96231 0.42951
 H493 H -0.08791 1.11382 0.49497
 H494 H -0.12072 1.00348 0.43373
 H495 H -0.09114 0.93932 0.42246
 H496 H 0.01901 0.87273 0.46156
 H497 H -0.02881 1.13459 0.53762
 H498 H 0.08450 1.06673 0.57760
 H499 H 0.10965 1.00097 0.57091
 H500 H 0.07266 0.88756 0.51066
 H501 H -0.08264 1.10183 0.55321
 H502 H -0.08446 0.97436 0.60159
 H503 H 0.07377 1.03174 0.40003
 H504 H 0.07478 0.90337 0.45205
 Zr505 Zr 0.71882 0.28030 0.19939
 O506 O 0.73364 0.32048 0.16023
 O507 O 0.66236 0.26961 0.18666
 O508 O 0.72301 0.25527 0.14762
 O509 O 0.69778 0.34737 0.26478
 O510 O 0.75650 0.19984 0.15731
 O511 O 0.69012 0.33476 0.20626
 O512 O 0.64273 0.22550 0.22699
 O513 O 0.71352 0.22111 0.20912
 O514 O 0.69309 0.27401 0.24876
 O515 O 0.77465 0.25764 0.19828
 O516 O 0.75379 0.30998 0.23549
 Zr517 Zr 0.77922 0.21954 0.29609
 Zr518 Zr 0.76936 0.19939 0.21076
 Zr519 Zr 0.72875 0.30052 0.28467
 Zr520 Zr 0.68987 0.21565 0.25932
 O521 O 0.75708 0.35191 0.29823
 O522 O 0.67438 0.16196 0.23739
 O523 O 0.72324 0.24235 0.29796
 O524 O 0.74411 0.19073 0.25984
 O525 O 0.80548 0.22563 0.24690
 O526 O 0.78414 0.27849 0.28571
 C527 C 0.63731 0.24815 0.20098
 C528 C 0.68455 0.35569 0.23418
 C529 C 0.74012 0.22414 0.13686
 O530 O 0.74240 0.14703 0.19801
 O531 O 0.80324 0.15426 0.23007
 O532 O 0.80873 0.16542 0.28901
 C533 C 0.81560 0.14527 0.26081
 O534 O 0.81153 0.32718 0.19662
 Zr535 Zr 0.80812 0.28434 0.23612
 O536 O 0.83642 0.22836 0.30714
 O537 O 0.82015 0.19373 0.18103
 O538 O 0.85241 0.26764 0.20120
 O539 O 0.82745 0.33607 0.25941
 O540 O 0.85657 0.27046 0.26524
 C541 C 0.86185 0.24833 0.29160
 O542 O 0.76398 0.17944 0.33515
 O543 O 0.67771 0.30768 0.31383
 O544 O 0.77611 0.24530 0.34776
 O545 O 0.73951 0.29877 0.33836
 O546 O 0.64343 0.23321 0.29142
 O547 O 0.68337 0.17761 0.30244
 C548 C 0.75908 0.27658 0.35841
 H549 H 0.66742 0.28595 0.25041
 H550 H 0.74201 0.16313 0.26548
 H551 H 0.79994 0.29199 0.30340
 H552 H 0.78683 0.26158 0.17515
 H553 H 0.64675 0.15835 0.24177
 H554 H 0.75957 0.13319 0.18155
 H555 H 0.81915 0.16859 0.16882
 H556 H 0.87454 0.28456 0.20566
 H557 H 0.62174 0.21590 0.28643
 H558 H 0.67904 0.33301 0.32569
 H559 H 0.74010 0.36608 0.31462
 H560 H 0.85487 0.33870 0.25353
 H561 H 0.65894 0.16371 0.30000
 H562 H 0.78699 0.17528 0.35000
 H563 H 0.71059 0.32454 0.14541
 H564 H 0.83799 0.33692 0.19540
 Zr565 Zr 0.77745 0.72367 0.70459
 O566 O 0.75980 0.68321 0.66644
 O567 O 0.83281 0.73414 0.68926
 O568 O 0.77404 0.74857 0.65279
 O569 O 0.79700 0.65658 0.77029
 O570 O 0.74378 0.80556 0.66330
 O571 O 0.80531 0.66853 0.71201
 O572 O 0.85484 0.77972 0.72735
 O573 O 0.78468 0.78271 0.71398
 O574 O 0.80550 0.73003 0.75302
 O575 O 0.72240 0.74836 0.70406
 O576 O 0.74249 0.69617 0.74164
 Zr577 Zr 0.72216 0.78838 0.80182
 Zr578 Zr 0.72993 0.80644 0.71622
 Zr579 Zr 0.76981 0.70565 0.78997
 Zr580 Zr 0.81060 0.78847 0.76322
 O581 O 0.74007 0.65580 0.80532
 O582 O 0.82664 0.84260 0.74292
 O583 O 0.77751 0.76372 0.80282
 O584 O 0.75707 0.81527 0.76461
 O585 O 0.69398 0.78241 0.75331
 O586 O 0.71519 0.72949 0.79182
 C587 C 0.85802 0.75757 0.70056
 C588 C 0.80948 0.64704 0.73983
 C589 C 0.76010 0.78146 0.64266
 O590 O 0.75766 0.85838 0.70376
 O591 O 0.69681 0.85212 0.73491
 O592 O 0.69227 0.84242 0.79404
 C593 C 0.68480 0.86182 0.76550
 O594 O 0.68242 0.68017 0.70439
 Zr595 Zr 0.68904 0.72384 0.74297
 O596 O 0.66601 0.78013 0.81614
 O597 O 0.67962 0.81275 0.68563
 O598 O 0.64474 0.74171 0.70836
 O599 O 0.66784 0.67369 0.76734
 O600 O 0.64217 0.74113 0.77291
 C601 C 0.63935 0.76157 0.80080
 O602 O 0.74036 0.82922 0.83936
 O603 O 0.82195 0.69707 0.81739
 O604 O 0.72571 0.76302 0.85355
 O605 O 0.76124 0.70886 0.84380
 O606 O 0.85849 0.76846 0.79238
 O607 O 0.82013 0.82511 0.80708
 C608 C 0.74215 0.73133 0.86394
 H609 H 0.83095 0.71744 0.75358
 H610 H 0.75992 0.84291 0.77001
 H611 H 0.69965 0.71659 0.80991
 H612 H 0.70980 0.74468 0.68097
 H613 H 0.85446 0.84551 0.74691
 H614 H 0.74069 0.87249 0.68727
 H615 H 0.68155 0.83741 0.67285
 H616 H 0.62179 0.72640 0.71383
 H617 H 0.88047 0.78488 0.78626
 H618 H 0.82008 0.67223 0.82988
 H619 H 0.75720 0.64121 0.82131
 H620 H 0.64007 0.67258 0.76231
 H621 H 0.84564 0.83696 0.80509
 H622 H 0.71814 0.83434 0.85484
 H623 H 0.78219 0.67812 0.65116
 H624 H 0.65544 0.67188 0.70368
 Zr625 Zr 0.22412 0.21112 0.80017
 O626 O 0.24311 0.17074 0.83790
 O627 O 0.16829 0.21983 0.81540
 O628 O 0.22734 0.23604 0.85220
 O629 O 0.20958 0.14138 0.73510
 O630 O 0.25589 0.29363 0.84226
 O631 O 0.19659 0.15672 0.79233
 O632 O 0.14344 0.26048 0.77392
 O633 O 0.21407 0.26979 0.79067
 O634 O 0.19698 0.21569 0.75108
 O635 O 0.27805 0.23712 0.80090
 O636 O 0.26049 0.18349 0.76370
 Zr637 Zr 0.27818 0.27543 0.70352
 Zr638 Zr 0.26797 0.29500 0.78874
 Zr639 Zr 0.23401 0.19139 0.71465
 Zr640 Zr 0.18900 0.27367 0.74081
 O641 O 0.26671 0.14325 0.69835
 O642 O 0.16952 0.32625 0.76273
 O643 O 0.22399 0.24929 0.70211
 O644 O 0.24133 0.30199 0.73985
 O645 O 0.30555 0.27086 0.75241
 O646 O 0.28759 0.21676 0.71306
 C647 C 0.14132 0.23951 0.80146
 C648 C 0.19460 0.13410 0.76510
 C649 C 0.24177 0.26841 0.86284
 O650 O 0.23666 0.34513 0.80204
 O651 O 0.29656 0.34325 0.76968
 O652 O 0.30681 0.32920 0.71181
 C653 C 0.31041 0.35104 0.73940
 O654 O 0.32008 0.16993 0.80218
 Zr655 Zr 0.31269 0.21235 0.76264
 O656 O 0.33530 0.26845 0.69032
 O657 O 0.31894 0.30379 0.81768
 O658 O 0.35657 0.23099 0.79715
 O659 O 0.33514 0.16198 0.73876
 O660 O 0.35939 0.22939 0.73328
 C661 C 0.36251 0.25056 0.70606
 O662 O 0.26041 0.31691 0.66627
 O663 O 0.18230 0.17947 0.68779
 O664 O 0.27247 0.25219 0.65124
 O665 O 0.24036 0.19638 0.66036
 O666 O 0.14366 0.25307 0.70898
 O667 O 0.17857 0.31114 0.69777
 C668 C 0.25521 0.22154 0.64010
 H669 H 0.17212 0.20244 0.74985
 H670 H 0.23718 0.32941 0.73413
 H671 H 0.30361 0.20457 0.69469
 H672 H 0.29088 0.23391 0.82393
 H673 H 0.14154 0.32778 0.75886
 H674 H 0.25261 0.35996 0.81873
 H675 H 0.31599 0.32849 0.83041
 H676 H 0.37968 0.21523 0.79235
 H677 H 0.12055 0.26850 0.71457
 H678 H 0.18585 0.15470 0.67530
 H679 H 0.25068 0.12877 0.68149
 H680 H 0.36283 0.16091 0.74421
 H681 H 0.15303 0.32321 0.70036
 H682 H 0.28282 0.32214 0.65116
 H683 H 0.22089 0.16523 0.85313
 H684 H 0.34696 0.16087 0.80239
 Zr685 Zr 0.28331 0.78109 0.29776
 O686 O 0.26844 0.82072 0.33772
 O687 O 0.33994 0.76979 0.30977
 O688 O 0.28133 0.75459 0.34912
 O689 O 0.30210 0.84867 0.23243
 O690 O 0.24724 0.70025 0.33877
 O691 O 0.31148 0.83557 0.29064
 O692 O 0.35935 0.72473 0.26970
 O693 O 0.28869 0.72191 0.28732
 O694 O 0.30857 0.77472 0.24811
 O695 O 0.22768 0.75884 0.29923
 O696 O 0.24784 0.81125 0.26213
 Zr697 Zr 0.22182 0.72117 0.20131
 Zr698 Zr 0.23305 0.70058 0.28597
 Zr699 Zr 0.27222 0.80154 0.21258
 Zr700 Zr 0.31207 0.71633 0.23708
 O701 O 0.24279 0.85241 0.19817
 O702 O 0.32788 0.66207 0.25787
 O703 O 0.27775 0.74327 0.19922
 O704 O 0.25785 0.69194 0.23666
 O705 O 0.19622 0.72748 0.25073
 O706 O 0.21683 0.78023 0.21173
 C707 C 0.36479 0.74733 0.29582
 C708 C 0.31604 0.85677 0.26279
 C709 C 0.26579 0.72262 0.35919
 O710 O 0.26094 0.64816 0.29825
 O711 O 0.20101 0.65422 0.26728
 O712 O 0.19157 0.66809 0.20929
 C713 C 0.18717 0.64650 0.23686
 O714 O 0.19115 0.82925 0.30157
 Zr715 Zr 0.19367 0.78628 0.26188
 O716 O 0.16451 0.73173 0.19064
 O717 O 0.18237 0.69558 0.31579
 O718 O 0.14999 0.77113 0.29769
 O719 O 0.17379 0.83789 0.23844
 O720 O 0.14453 0.77245 0.23418
 C721 C 0.13898 0.75086 0.20749
 O722 O 0.23469 0.67974 0.16227
 O723 O 0.32357 0.80918 0.18415
 O724 O 0.22757 0.74491 0.14928
 O725 O 0.26355 0.79826 0.15859
 O726 O 0.35801 0.73420 0.20496
 O727 O 0.31857 0.67882 0.19331
 C728 C 0.24645 0.77456 0.13827
 H729 H 0.33416 0.78643 0.24649
 H730 H 0.26006 0.66437 0.23065
 H731 H 0.20107 0.79362 0.19384
 H732 H 0.21604 0.76259 0.32268
 H733 H 0.35546 0.65810 0.25315
 H734 H 0.24429 0.63419 0.31481
 H735 H 0.18407 0.67096 0.32870
 H736 H 0.12802 0.78873 0.29374
 H737 H 0.38005 0.71693 0.20976
 H738 H 0.32179 0.83438 0.17218
 H739 H 0.25925 0.86590 0.18112
 H740 H 0.14648 0.84098 0.24471
 H741 H 0.34339 0.66512 0.19513
 H742 H 0.21120 0.67650 0.14791
 H743 H 0.29176 0.82463 0.35214
 H744 H 0.16512 0.84053 0.30235
 Zr745 Zr 0.22031 0.77619 0.70037
 O746 O 0.23817 0.81795 0.66378
 O747 O 0.16587 0.76411 0.68267
 O748 O 0.22706 0.75294 0.64840
 O749 O 0.19392 0.84074 0.76609
 O750 O 0.25985 0.69710 0.65826
 O751 O 0.19044 0.83020 0.70697
 O752 O 0.14405 0.71765 0.71950
 O753 O 0.21470 0.71674 0.70825
 O754 O 0.19076 0.76812 0.74758
 O755 O 0.27616 0.75348 0.70159
 O756 O 0.25278 0.80448 0.73917
 Zr757 Zr 0.27401 0.71228 0.79859
 Zr758 Zr 0.27016 0.69490 0.71221
 Zr759 Zr 0.22398 0.79344 0.78626
 Zr760 Zr 0.18738 0.70941 0.75652
 O761 O 0.25084 0.84482 0.80226
 O762 O 0.17401 0.65522 0.73439
 O763 O 0.21785 0.73492 0.79787
 O764 O 0.24164 0.68461 0.75951
 O765 O 0.30371 0.71972 0.75120
 O766 O 0.27933 0.77149 0.78972
 C767 C 0.14069 0.74035 0.69321
 C768 C 0.18287 0.85023 0.73507
 C769 C 0.24425 0.72190 0.63775
 O770 O 0.24430 0.64279 0.69688
 O771 O 0.30313 0.64949 0.73196
 O772 O 0.30510 0.65884 0.79137
 C773 C 0.31394 0.63969 0.76296
 O774 O 0.31339 0.82323 0.70464
 Zr775 Zr 0.30709 0.77861 0.74210
 O776 O 0.32947 0.72139 0.81483
 O777 O 0.32248 0.69034 0.68467
 O778 O 0.35327 0.76304 0.70885
 O779 O 0.32595 0.82896 0.76814
 O780 O 0.35342 0.76208 0.77338
 C781 C 0.35609 0.74082 0.80069
 O782 O 0.25516 0.67109 0.83519
 O783 O 0.17113 0.79894 0.81283
 O784 O 0.26901 0.73769 0.85040
 O785 O 0.23199 0.79075 0.84031
 O786 O 0.13777 0.72690 0.78436
 O787 O 0.17764 0.67151 0.79918
 C788 C 0.25168 0.76900 0.86068
 H789 H 0.16481 0.77962 0.74744
 H790 H 0.23938 0.65683 0.76435
 H791 H 0.29400 0.78472 0.80837
 H792 H 0.28970 0.75815 0.67923
 H793 H 0.14616 0.65134 0.73712
 H794 H 0.26240 0.62963 0.68079
 H795 H 0.32206 0.66574 0.67153
 H796 H 0.37540 0.77910 0.71550
 H797 H 0.11670 0.70969 0.77721
 H798 H 0.17140 0.82387 0.82546
 H799 H 0.23255 0.85871 0.81763
 H800 H 0.35382 0.83094 0.76412
 H801 H 0.15283 0.65852 0.79583
 H802 H 0.27692 0.66626 0.85138
 H803 H 0.21640 0.82255 0.64752
 H804 H 0.34007 0.83246 0.70499
 Zr805 Zr 0.27905 0.22132 0.20258
 O806 O 0.26501 0.18252 0.16176
 O807 O 0.33610 0.23116 0.19236
 O808 O 0.27775 0.24799 0.15144
 O809 O 0.29246 0.14957 0.26573
 O810 O 0.24689 0.30453 0.16242
 O811 O 0.30706 0.16663 0.20945
 O812 O 0.35577 0.27286 0.23511
 O813 O 0.28567 0.27986 0.21464
 O814 O 0.30290 0.22492 0.25311
 O815 O 0.22400 0.24563 0.19991
 O816 O 0.24169 0.19139 0.23598
 Zr817 Zr 0.21636 0.28062 0.29867
 Zr818 Zr 0.23045 0.30314 0.21473
 Zr819 Zr 0.26483 0.19827 0.28645
 Zr820 Zr 0.30745 0.28279 0.26586
 O821 O 0.23338 0.14850 0.29882
 O822 O 0.32546 0.33675 0.24669
 O823 O 0.27150 0.25582 0.30187
 O824 O 0.25390 0.30947 0.26503
 O825 O 0.19207 0.27682 0.24830
 O826 O 0.21012 0.22214 0.28626
 C827 C 0.36129 0.25130 0.20826
 C828 C 0.30836 0.14309 0.23592
 C829 C 0.26364 0.28092 0.14161
 O830 O 0.25898 0.35550 0.20583
 O831 O 0.19608 0.34810 0.23338
 O832 O 0.18794 0.33549 0.29168
 C833 C 0.18240 0.35640 0.26373
 O834 O 0.18537 0.17721 0.19438
 Zr835 Zr 0.18819 0.21863 0.23540
 O836 O 0.15849 0.27241 0.30706
 O837 O 0.18191 0.31104 0.18205
 O838 O 0.14601 0.23749 0.19901
 O839 O 0.16649 0.16694 0.25648
 O840 O 0.13875 0.23322 0.26236
 C841 C 0.13307 0.25422 0.28945
 O842 O 0.22994 0.31977 0.33935
 O843 O 0.31518 0.18702 0.31587
 O844 O 0.21876 0.25419 0.35001
 O845 O 0.25403 0.19998 0.33997
 O846 O 0.35182 0.26246 0.29924
 O847 O 0.31306 0.31889 0.31067
 C848 C 0.23535 0.22257 0.36034
 H849 H 0.32809 0.21204 0.25529
 H850 H 0.25638 0.33681 0.27170
 H851 H 0.19338 0.20878 0.30313
 H852 H 0.21287 0.24298 0.17609
 H853 H 0.35293 0.33941 0.25253
 H854 H 0.24322 0.37029 0.18884
 H855 H 0.18454 0.33628 0.17037
 H856 H 0.12336 0.22088 0.20174
 H857 H 0.37424 0.27923 0.29586
 H858 H 0.31209 0.16161 0.32711
 H859 H 0.24928 0.13320 0.31530
 H860 H 0.13930 0.16519 0.24934
 H861 H 0.33801 0.33202 0.30989
 H862 H 0.20628 0.32374 0.35324
 H863 H 0.28863 0.17825 0.14789
 H864 H 0.15888 0.16772 0.19217
 Zr865 Zr 0.72055 0.71680 0.29995
 O866 O 0.73715 0.67664 0.33880
 O867 O 0.66366 0.72546 0.31249
 O868 O 0.72341 0.74162 0.35196
 O869 O 0.70788 0.64651 0.23512
 O870 O 0.75350 0.79852 0.34256
 O871 O 0.69338 0.66235 0.29188
 O872 O 0.64156 0.76785 0.27132
 O873 O 0.71163 0.77558 0.29000
 O874 O 0.69510 0.72139 0.25014
 O875 O 0.77489 0.74194 0.30173
 O876 O 0.75772 0.68837 0.26466
 Zr877 Zr 0.77848 0.77947 0.20425
 Zr878 Zr 0.76605 0.79989 0.28913
 Zr879 Zr 0.73289 0.69623 0.21494
 Zr880 Zr 0.68832 0.77947 0.23938
 O881 O 0.76553 0.64770 0.19949
 O882 O 0.66927 0.83271 0.26029
 O883 O 0.72399 0.75413 0.20175
 O884 O 0.74102 0.80690 0.23953
 O885 O 0.80432 0.77494 0.25385
 O886 O 0.78687 0.72079 0.21437
 C887 C 0.63746 0.74574 0.29786
 C888 C 0.69224 0.63947 0.26483
 C889 C 0.73877 0.77340 0.36289
 O890 O 0.73475 0.85013 0.30206
 O891 O 0.79510 0.84796 0.27023
 O892 O 0.80704 0.83316 0.21277
 C893 C 0.80979 0.85536 0.24019
 O894 O 0.81582 0.67408 0.30448
 Zr895 Zr 0.81036 0.71640 0.26461
 O896 O 0.83599 0.77168 0.19286
 O897 O 0.81671 0.80855 0.31854
 O898 O 0.85344 0.73441 0.30026
 O899 O 0.83274 0.66565 0.24138
 O900 O 0.85830 0.73276 0.23671
 C901 C 0.86252 0.75374 0.20952
 O902 O 0.76282 0.82067 0.16599
 O903 O 0.68167 0.68459 0.18716
 O904 O 0.77357 0.75577 0.15203
 O905 O 0.74047 0.70051 0.16088
 O906 O 0.64340 0.75940 0.20677
 O907 O 0.68002 0.81645 0.19562
 C908 C 0.75607 0.72528 0.14079
 H909 H 0.67017 0.70834 0.24830
 H910 H 0.73734 0.83430 0.23352
 H911 H 0.80326 0.70828 0.19646
 H912 H 0.78719 0.73858 0.32498
 H913 H 0.64149 0.83488 0.25551
 H914 H 0.75057 0.86492 0.31889
 H915 H 0.81375 0.83334 0.33114
 H916 H 0.87637 0.71813 0.29624
 H917 H 0.62058 0.77565 0.21138
 H918 H 0.68519 0.65960 0.17502
 H919 H 0.74974 0.63318 0.18245
 H920 H 0.86026 0.66420 0.24749
 H921 H 0.65476 0.82928 0.19750
 H922 H 0.78583 0.82525 0.15148
 H923 H 0.71418 0.67158 0.35323
 H924 H 0.84245 0.66433 0.30521
 Zr925 Zr 0.77807 0.28969 0.79749
 O926 O 0.76017 0.32950 0.83619
 O927 O 0.83433 0.28074 0.81194
 O928 O 0.77666 0.26311 0.84916
 O929 O 0.79277 0.35781 0.73140
 O930 O 0.74556 0.20701 0.83856
 O931 O 0.80488 0.34491 0.78915
 O932 O 0.85688 0.23736 0.77154
 O933 O 0.78638 0.23071 0.78763
 O934 O 0.80445 0.28400 0.74824
 O935 O 0.72360 0.26462 0.79840
 O936 O 0.74170 0.31742 0.76093
 Zr937 Zr 0.72121 0.22534 0.70090
 Zr938 Zr 0.73197 0.20651 0.78577
 Zr939 Zr 0.76726 0.30825 0.71178
 Zr940 Zr 0.81105 0.22577 0.73791
 O941 O 0.73528 0.35679 0.69529
 O942 O 0.82946 0.17268 0.75945
 O943 O 0.77598 0.25021 0.69929
 O944 O 0.75810 0.19847 0.73700
 O945 O 0.69447 0.23106 0.74982
 O946 O 0.71306 0.28423 0.71041
 C947 C 0.86009 0.25905 0.79862
 C948 C 0.80728 0.36669 0.76130
 C949 C 0.76283 0.23018 0.85913
 O950 O 0.76208 0.15546 0.79848
 O951 O 0.70184 0.15879 0.76718
 O952 O 0.69224 0.17182 0.70909
 C953 C 0.68821 0.15050 0.73681
 O954 O 0.68320 0.33313 0.79930
 Zr955 Zr 0.68886 0.28978 0.76022
 O956 O 0.66384 0.23319 0.68867
 O957 O 0.68141 0.19957 0.81542
 O958 O 0.64541 0.27302 0.79565
 O959 O 0.66687 0.33995 0.73577
 O960 O 0.64109 0.27267 0.73200
 C961 C 0.63709 0.25100 0.70510
 O962 O 0.73713 0.18336 0.66330
 O963 O 0.81895 0.31896 0.68477
 O964 O 0.72719 0.24778 0.64862
 O965 O 0.76074 0.30279 0.65760
 O966 O 0.85642 0.24586 0.70623
 O967 O 0.82068 0.18796 0.69485
 C968 C 0.74536 0.27771 0.63745
 H969 H 0.82948 0.29691 0.74700
 H970 H 0.76163 0.17093 0.73133
 H971 H 0.69704 0.29650 0.69205
 H972 H 0.71145 0.26802 0.82168
 H973 H 0.85735 0.17039 0.75549
 H974 H 0.74576 0.14064 0.81471
 H975 H 0.68394 0.17499 0.82831
 H976 H 0.62257 0.28925 0.79098
 H977 H 0.87947 0.23039 0.71203
 H978 H 0.81575 0.34358 0.67203
 H979 H 0.75127 0.37064 0.67811
 H980 H 0.63926 0.34154 0.74132
 H981 H 0.84640 0.17614 0.69708
 H982 H 0.71432 0.17868 0.64836
 H983 H 0.78290 0.33469 0.85104
 H984 H 0.65668 0.34321 0.79932
 C985 C 0.42812 1.03411 0.30544
 C986 C 0.43017 1.00372 0.28097
 C987 C 0.45370 0.97181 0.29018
 C988 C 0.47121 0.96900 0.32363
 C989 C 0.46626 0.99843 0.34848
 C990 C 0.44627 1.03170 0.33801
 H991 H 0.41077 1.05932 0.30098
 H992 H 0.45636 0.94778 0.27225
 H993 H 0.48639 0.94296 0.33073
 H994 H 0.44242 1.05540 0.35618
 C995 C -0.06430 0.54190 0.80239
 C996 C -0.06645 0.50874 0.78123
 C997 C -0.04280 0.47719 0.79109
 C998 C -0.02413 0.47617 0.82398
 C999 C -0.02723 0.50738 0.84715
 C1000 C -0.04553 0.54098 0.83493
 H1001 H -0.07825 0.56837 0.79487
 H1002 H -0.04179 0.45178 0.77468
 H1003 H -0.00983 0.45003 0.83225
 H1004 H -0.04715 0.56621 0.85156
 C1005 C 0.09698 -0.00390 0.81539
 C1006 C 0.07455 -0.00221 0.78468
 C1007 C 0.03466 0.00429 0.78898
 C1008 C 0.01825 0.00754 0.82296
 C1009 C 0.04140 0.00496 0.85321
 C1010 C 0.08102 0.00003 0.84847
 H1011 H 0.12765 -0.00791 0.81366
 H1012 H 0.01607 0.00722 0.76641
 H1013 H -0.01233 0.01143 0.82553
 H1014 H 0.10036 -0.00130 0.87071
 C1015 C 0.53622 0.50825 0.29082
 C1016 C 0.57589 0.50165 0.28552
 C1017 C 0.59937 0.50034 0.31562
 C1018 C 0.58463 0.50504 0.34908
 C1019 C 0.54525 0.51034 0.35482
 C1020 C 0.52104 0.51226 0.32520
 H1021 H 0.51694 0.51075 0.26868
 H1022 H 0.62995 0.49622 0.31306
 H1023 H 0.60467 0.50397 0.37082
 H1024 H 0.49057 0.51620 0.32860
 C1025 C 0.56975 0.53451 0.19316
 C1026 C 0.56843 0.50392 0.21729
 C1027 C 0.54416 0.47278 0.20845
 C1028 C 0.52529 0.47079 0.17552
 C1029 C 0.52941 0.50042 0.15090
 C1030 C 0.55011 0.53305 0.16125
 H1031 H 0.58765 0.55915 0.19729
 H1032 H 0.54197 0.44862 0.22612
 H1033 H 0.50971 0.44515 0.16853
 H1034 H 0.55351 0.55685 0.14330
 C1035 C 0.07094 1.03185 0.69288
 C1036 C 0.06891 1.00089 0.71656
 C1037 C 0.04375 0.97059 0.70740
 C1038 C 0.02410 0.97000 0.67482
 C1039 C 0.02851 1.00013 0.65079
 C1040 C 0.05067 1.03171 0.66125
 H1041 H 0.08968 1.05580 0.69723
 H1042 H 0.04109 0.94614 0.72468
 H1043 H 0.00763 0.94501 0.66759
 H1044 H 0.05458 1.05569 0.64358
 C1045 C -0.04236 0.53172 0.70670
 C1046 C -0.06656 0.50099 0.71655
 C1047 C -0.06404 0.46732 0.69608
 C1048 C -0.04366 0.46673 0.66443
 C1049 C -0.02418 0.49934 0.65221
 C1050 C -0.02217 0.53130 0.67461
 H1051 H -0.04159 0.55750 0.72264
 H1052 H -0.07858 0.44143 0.70361
 H1053 H -0.04485 0.44105 0.64837
 H1054 H -0.00732 0.55683 0.66629
 C1055 C 0.40450 0.00298 0.18151
 C1056 C 0.42612 0.00223 0.21274
 C1057 C 0.46635 0.00662 0.20944
 C1058 C 0.48383 0.01012 0.17592
 C1059 C 0.46141 0.01004 0.14513
 C1060 C 0.42152 0.00736 0.14892
 H1061 H 0.37367 0.00067 0.18245
 H1062 H 0.48447 0.00763 0.23247
 H1063 H 0.51461 0.01206 0.17411
 H1064 H 0.40287 0.00801 0.12619
 C1065 C 0.32294 0.35485 0.00909
 C1066 C 0.28709 0.37254 0.00127
 C1067 C 0.28653 0.41314 0.00084
 C1068 C 0.32022 0.43445 0.00635
 C1069 C 0.35535 0.41630 0.01420
 C1070 C 0.35616 0.37619 0.01556
 H1071 H 0.32514 0.32388 0.01037
 H1072 H 0.26029 0.42892 -0.00339
 H1073 H 0.31892 0.46541 0.00421
 H1074 H 0.38291 0.36120 0.02030
 C1075 C -0.17847 0.85843 0.51023
 C1076 C -0.21482 0.87480 0.50216
 C1077 C -0.21674 0.91539 0.50120
 C1078 C -0.18387 0.93795 0.50641
 C1079 C -0.14824 0.92113 0.51456
 C1080 C -0.14605 0.88106 0.51651
 H1081 H -0.17527 0.82757 0.51195
 H1082 H -0.24344 0.93030 0.49684
 H1083 H -0.18625 0.96882 0.50392
 H1084 H -0.11883 0.86710 0.52159
 C1085 C -0.21097 0.08664 0.99577
 C1086 C -0.21066 0.12725 0.99517
 C1087 C -0.17473 0.14449 0.98813
 C1088 C -0.14120 0.12267 0.98263
 C1089 C -0.14176 0.08254 0.98422
 C1090 C -0.17704 0.06489 0.99121
 H1091 H -0.23719 0.07118 0.99969
 H1092 H -0.17265 0.17543 0.98693
 H1093 H -0.11443 0.13735 0.97851
 H1094 H -0.17828 0.03396 0.99350
 C1095 C 0.29280 0.58475 0.49697
 C1096 C 0.29279 0.62533 0.49666
 C1097 C 0.32833 0.64320 0.48957
 C1098 C 0.36202 0.62194 0.48412
 C1099 C 0.36178 0.58188 0.48570
 C1100 C 0.32688 0.56356 0.49239
 H1101 H 0.26679 0.56888 0.50058
 H1102 H 0.32998 0.67418 0.48847
 H1103 H 0.38864 0.63695 0.48023
 H1104 H 0.32608 0.53259 0.49445
 C1105 C 0.21129 0.60393 0.53344
 C1106 C 0.21774 0.62711 0.50331
 C1107 C 0.18652 0.63130 0.47991
 C1108 C 0.15231 0.61141 0.48477
 C1109 C 0.14672 0.58698 0.51368
 C1110 C 0.17651 0.58403 0.53846
 H1111 H 0.23356 0.60099 0.55309
 H1112 H 0.18770 0.65036 0.45763
 H1113 H 0.12987 0.61506 0.46535
 H1114 H 0.17345 0.56550 0.56104
 C1115 C 0.68333 0.13471 -0.02398
 C1116 C 0.71372 0.13005 0.00030
 C1117 C 0.70550 0.10738 0.03043
 C1118 C 0.66964 0.08915 0.03506
 C1119 C 0.64036 0.09307 0.00981
 C1120 C 0.64803 0.11648 -0.01948
 H1121 H 0.68596 0.15305 -0.04665
 H1122 H 0.72709 0.10387 0.05064
 H1123 H 0.66528 0.07118 0.05784
 H1124 H 0.62633 0.12068 -0.03951
 C1125 C 0.70209 0.89298 0.46589
 C1126 C 0.71005 0.87030 0.49611
 C1127 C 0.67920 0.86482 0.51950
 C1128 C 0.64399 0.88338 0.51473
 C1129 C 0.63699 0.90764 0.48593
 C1130 C 0.66630 0.91162 0.46101
 H1131 H 0.72396 0.89659 0.44614
 H1132 H 0.68144 0.84575 0.54172
 H1133 H 0.62194 0.87896 0.53420
 H1134 H 0.66206 0.93010 0.43848
 C1135 C 0.20382 0.39360 0.96535
 C1136 C 0.21138 0.36997 0.99505
 C1137 C 0.18023 0.36440 1.01812
 C1138 C 0.14522 0.38360 1.01363
 C1139 C 0.13851 0.40871 0.98534
 C1140 C 0.16818 0.41290 0.96071
 H1141 H 0.22585 0.39743 0.94578
 H1142 H 0.18207 0.34469 1.03991
 H1143 H 0.12303 0.37885 1.03290
 H1144 H 0.16432 0.43193 0.93853
 C1145 C -0.03581 0.30584 0.40205
 C1146 C -0.00240 0.28400 0.39647
 C1147 C 0.03068 0.29240 0.41616
 C1148 C 0.03255 0.32586 0.43540
 C1149 C 0.00095 0.35045 0.43595
 C1150 C -0.03383 0.33951 0.42101
 H1151 H -0.06313 0.29790 0.39103
 H1152 H 0.05600 0.27443 0.41434
 H1153 H 0.05920 0.33347 0.44810
 H1154 H -0.05917 0.35739 0.42337
 C1155 C 0.52074 -0.20964 -0.07547
 C1156 C 0.49977 -0.21277 -0.10697
 C1157 C 0.48655 -0.17917 -0.12364
 C1158 C 0.49048 -0.14416 -0.10765
 C1159 C 0.50820 -0.14174 -0.07481
 C1160 C 0.52430 -0.17434 -0.05911
 H1161 H 0.53437 -0.23430 -0.06347
 H1162 H 0.47318 -0.17986 -0.14932
 H1163 H 0.47912 -0.11904 -0.12090
 H1164 H 0.53897 -0.17272 -0.03404
 C1165 C 0.03740 -0.19727 1.10092
 C1166 C 0.00325 -0.21760 1.10575
 C1167 C -0.02850 -0.20892 1.08422
 C1168 C -0.02866 -0.17612 1.06406
 C1169 C 0.00343 -0.15266 1.06436
 C1170 C 0.03717 -0.16437 1.08097
 H1171 H 0.06403 -0.20579 1.11316
 H1172 H -0.05417 -0.22603 1.08522
 H1173 H -0.05449 -0.16797 1.05008
 H1174 H 0.06298 -0.14750 1.07933
 C1175 C 0.53827 0.30098 0.59727
 C1176 C 0.50353 0.28147 0.60161
 C1177 C 0.47235 0.29091 0.57967
 C1178 C 0.47338 0.32360 0.55942
 C1179 C 0.50608 0.34619 0.56014
 C1180 C 0.53923 0.33374 0.57723
 H1181 H 0.56450 0.29190 0.60992
 H1182 H 0.44627 0.27441 0.58025
 H1183 H 0.44797 0.33245 0.54516
 H1184 H 0.56542 0.35007 0.57604
 C1185 C 0.46289 1.19395 0.59675
 C1186 C 0.49721 1.21391 0.60217
 C1187 C 0.52943 1.20412 0.58177
 C1188 C 0.52947 1.17110 0.56178
 C1189 C 0.49684 1.14845 0.56112
 C1190 C 0.46298 1.16091 0.57690
 H1191 H 0.43611 1.20305 0.60825
 H1192 H 0.55536 1.22081 0.58323
 H1193 H 0.55547 1.16227 0.54855
 H1194 H 0.43687 1.14454 0.57464
 C1195 C -0.03586 0.69349 1.10333
 C1196 C -0.00216 0.71473 1.10759
 C1197 C 0.03014 0.70502 1.08728
 C1198 C 0.03092 0.67135 1.06826
 C1199 C -0.00108 0.64777 1.06834
 C1200 C -0.03502 0.65972 1.08443
 H1201 H -0.06271 0.70224 1.11491
 H1202 H 0.05565 0.72239 1.08808
 H1203 H 0.05696 0.66307 1.05481
 H1204 H -0.06077 0.64273 1.08274
 C1205 C 0.50710 0.67909 -0.12257
 C1206 C 0.49688 0.71367 -0.10576
 C1207 C 0.48070 0.71259 -0.07199
 C1208 C 0.47918 0.67820 -0.05401
 C1209 C 0.49260 0.64461 -0.07016
 C1210 C 0.50544 0.64502 -0.10482
 H1211 H 0.51690 0.67851 -0.14953
 H1212 H 0.46926 0.73806 -0.05946
 H1213 H 0.46811 0.67797 -0.02745
 H1214 H 0.51443 0.61902 -0.11824
 C1215 C -0.02863 1.20784 0.41709
 C1216 C 0.00269 1.21623 0.39536
 C1217 C 0.03639 1.19418 0.39846
 C1218 C 0.03616 1.16074 0.41781
 C1219 C 0.00299 1.15026 0.43556
 C1220 C -0.02867 1.17478 0.43673
 H1221 H -0.05405 1.22578 0.41701
 H1222 H 0.06266 1.20197 0.38557
 H1223 H 0.06159 1.14279 0.41848
 H1224 H -0.05415 1.16747 0.45128
 C1225 C 0.74113 0.65693 0.93514
 C1226 C 0.74454 0.67755 0.96684
 C1227 C 0.74315 0.71829 0.96457
 C1228 C 0.74054 0.73708 0.93155
 C1229 C 0.73825 0.71554 0.90029
 C1230 C 0.73724 0.67533 0.90308
 H1231 H 0.74142 0.62585 0.93522
 H1232 H 0.74436 0.73587 0.98796
 H1233 H 0.74141 0.76808 0.93043
 H1234 H 0.73462 0.65748 0.87990
 C1235 C 0.24142 0.15114 0.43415
 C1236 C 0.24328 0.17324 0.46515
 C1237 C 0.23895 0.21362 0.46151
 C1238 C 0.23452 0.23076 0.42784
 C1239 C 0.23341 0.20782 0.39729
 C1240 C 0.23591 0.16780 0.40148
 H1241 H 0.24383 0.12016 0.43534
 H1242 H 0.23892 0.23208 0.48437
 H1243 H 0.23290 0.26168 0.42567
 H1244 H 0.23459 0.14877 0.37896
 C1245 C 0.76093 0.28569 0.45953
 C1246 C 0.75691 0.32609 0.46362
 C1247 C 0.75700 0.34829 0.43278
 C1248 C 0.75995 0.33159 0.39974
 C1249 C 0.76222 0.29153 0.39528
 C1250 C 0.76327 0.26860 0.42567
 H1251 H 0.76244 0.26715 0.48221
 H1252 H 0.75491 0.37928 0.43437
 H1253 H 0.75980 0.35056 0.37725
 H1254 H 0.76501 0.23769 0.42328
 C1255 C 0.25701 0.78213 0.96155
 C1256 C 0.25307 0.82270 0.96439
 C1257 C 0.25200 0.84357 0.93283
 C1258 C 0.25348 0.82547 0.90034
 C1259 C 0.25544 0.78523 0.89713
 C1260 C 0.25790 0.76360 0.92824
 H1261 H 0.25955 0.76452 0.98478
 H1262 H 0.24998 0.87460 0.93338
 H1263 H 0.25261 0.84358 0.87730
 H1264 H 0.25974 0.73262 0.92688
 C1265 C 0.22427 0.79647 0.04166
 C1266 C 0.25569 0.82012 0.03259
 C1267 C 0.28557 0.82272 0.05735
 C1268 C 0.28329 0.80459 0.08991
 C1269 C 0.25061 0.78408 0.10010
 C1270 C 0.22160 0.77892 0.07503
 H1271 H 0.20055 0.79351 0.02355
 H1272 H 0.31022 0.84043 0.05301
 H1273 H 0.30667 0.80873 0.10822
 H1274 H 0.19599 0.76345 0.08185
 C1275 C 0.78794 0.32258 0.55695
 C1276 C 0.75830 0.32088 0.53183
 C1277 C 0.72632 0.29775 0.54026
 C1278 C 0.72249 0.28068 0.57370
 C1279 C 0.75100 0.28564 0.59928
 C1280 C 0.78453 0.30486 0.58955
 H1281 H 0.81316 0.33959 0.55303
 H1282 H 0.70286 0.29534 0.52179
 H1283 H 0.69631 0.26604 0.58025
 H1284 H 0.80752 0.30861 0.60836
 C1285 C 0.27516 0.20106 0.54272
 C1286 C 0.24360 0.17742 0.53381
 C1287 C 0.21422 0.17480 0.55898
 C1288 C 0.21726 0.19248 0.59179
 C1289 C 0.25014 0.21277 0.60180
 C1290 C 0.27856 0.21825 0.57635
 H1291 H 0.29851 0.20405 0.52437
 H1292 H 0.18937 0.15726 0.55489
 H1293 H 0.19438 0.18810 0.61044
 H1294 H 0.30435 0.23360 0.58309
 C1295 C 0.77757 0.70232 0.04437
 C1296 C 0.74536 0.67971 0.03511
 C1297 C 0.71535 0.67842 0.05970
 C1298 C 0.71820 0.69670 0.09224
 C1299 C 0.75150 0.71617 0.10256
 C1300 C 0.78076 0.72007 0.07773
 H1301 H 0.80139 0.70436 0.02641
 H1302 H 0.68998 0.66175 0.05524
 H1303 H 0.69475 0.69348 0.11050
 H1304 H 0.80690 0.73464 0.08476
 C1305 C 0.10377 0.57712 0.24047
 C1306 C 0.12164 0.54102 0.24708
 C1307 C 0.16209 0.54049 0.24653
 C1308 C 0.18317 0.57444 0.24141
 C1309 C 0.16492 0.60996 0.23507
 C1310 C 0.12489 0.61074 0.23460
 H1311 H 0.07289 0.57926 0.23998
 H1312 H 0.17793 0.51406 0.24983
 H1313 H 0.21406 0.57302 0.24279
 H1314 H 0.10982 0.63770 0.23107
 C1315 C 0.66305 0.04479 0.74757
 C1316 C 0.62260 0.04522 0.74648
 C1317 C 0.60496 0.08111 0.73856
 C1318 C 0.62627 0.11462 0.73300
 C1319 C 0.66622 0.11392 0.73520
 C1320 C 0.68427 0.07866 0.74285
 H1321 H 0.67885 0.01852 0.75182
 H1322 H 0.57413 0.08319 0.73677
 H1323 H 0.61134 0.14146 0.72832
 H1324 H 0.71508 0.07737 0.74544
 C1325 C 0.88281 0.06630 0.22918
 C1326 C 0.87823 0.03613 0.25363
 C1327 C 0.85533 0.04474 0.28351
 C1328 C 0.83621 0.08056 0.28740
 C1329 C 0.83959 0.10923 0.26164
 C1330 C 0.86359 0.10147 0.23288
 H1331 H 0.90172 0.06362 0.20695
 H1332 H 0.85212 0.02343 0.30392
 H1333 H 0.81793 0.08533 0.30991
 H1334 H 0.86750 0.12297 0.21272
 C1335 C 0.35554 0.53941 0.78466
 C1336 C 0.37852 0.53156 0.75463
 C1337 C 0.38264 0.56213 0.73060
 C1338 C 0.36294 0.59700 0.73481
 C1339 C 0.33862 0.60398 0.76360
 C1340 C 0.33572 0.57484 0.78897
 H1341 H 0.35267 0.51774 0.80479
 H1342 H 0.40154 0.55996 0.70831
 H1343 H 0.36665 0.61884 0.71494
 H1344 H 0.31732 0.57892 0.81151
 C1345 C 0.39401 0.41978 0.74210
 C1346 C 0.37656 0.45596 0.74933
 C1347 C 0.33609 0.45670 0.74982
 C1348 C 0.31467 0.42293 0.74502
 C1349 C 0.33255 0.38747 0.73782
 C1350 C 0.37252 0.38641 0.73630
 H1351 H 0.42484 0.41744 0.74081
 H1352 H 0.32043 0.48315 0.75360
 H1353 H 0.28385 0.42447 0.74714
 H1354 H 0.38727 0.35939 0.73194
 C1355 C 0.89322 0.92415 0.24221
 C1356 C 0.87575 0.96038 0.24918
 C1357 C 0.83532 0.96115 0.24999
 C1358 C 0.81393 0.92729 0.24563
 C1359 C 0.83184 0.89179 0.23860
 C1360 C 0.87176 0.89073 0.23680
 H1361 H 0.92405 0.92180 0.24085
 H1362 H 0.81972 0.98764 0.25373
 H1363 H 0.78311 0.92880 0.24791
 H1364 H 0.88652 0.86370 0.23255
 C1365 C 0.61648 0.93808 0.73057
 C1366 C 0.62094 0.96974 0.75353
 C1367 C 0.64389 0.96310 0.78393
 C1368 C 0.66340 0.92773 0.78956
 C1369 C 0.66009 0.89745 0.76523
 C1370 C 0.63579 0.90327 0.73612
 H1371 H 0.59754 0.93934 0.70815
 H1372 H 0.64692 0.98565 0.80335
 H1373 H 0.68190 0.92457 0.81224
 H1374 H 0.63190 0.88053 0.71700
 C1375 C 0.11392 0.43359 0.23088
 C1376 C 0.11969 0.46523 0.25371
 C1377 C 0.14373 0.45823 0.28329
 C1378 C 0.16278 0.42250 0.28831
 C1379 C 0.15809 0.39226 0.26411
 C1380 C 0.13303 0.39850 0.23570
 H1381 H 0.09411 0.43509 0.20911
 H1382 H 0.14790 0.48072 0.30258
 H1383 H 0.18206 0.41901 0.31040
 H1384 H 0.12832 0.37586 0.21664
 C1385 C 0.07128 0.24664 0.87252
 C1386 C 0.03666 0.24234 0.85391
 C1387 C 0.03758 0.23147 0.81826
 C1388 C 0.07208 0.23083 0.80060
 C1389 C 0.10564 0.23847 0.81913
 C1390 C 0.10550 0.24490 0.85518
 H1391 H 0.07161 0.25296 0.90040
 H1392 H 0.01207 0.22380 0.80389
 H1393 H 0.07276 0.22409 0.77278
 H1394 H 0.13176 0.24993 0.86963
 C1395 C 0.54293 0.77488 0.33176
 C1396 C 0.53446 0.74298 0.35299
 C1397 C 0.55584 0.70895 0.34881
 C1398 C 0.58903 0.70940 0.32940
 C1399 C 0.59999 0.74322 0.31272
 C1400 C 0.57586 0.77519 0.31207
 H1401 H 0.52537 0.80059 0.33246
 H1402 H 0.54787 0.68233 0.36119
 H1403 H 0.60668 0.68374 0.32823
 H1404 H 0.58355 0.80111 0.29822
 C1405 C 0.55214 0.28693 0.15532
 C1406 C 0.53081 0.25320 0.15128
 C1407 C 0.54079 0.22057 0.17122
 C1408 C 0.57530 0.21917 0.18867
 C1409 C 0.59925 0.25087 0.18729
 C1410 C 0.58678 0.28545 0.17254
 H1411 H 0.54309 0.31405 0.14425
 H1412 H 0.52328 0.19509 0.17075
 H1413 H 0.58411 0.19277 0.20142
 H1414 H 0.60420 0.31099 0.17363
 C1415 C 0.06698 0.76489 0.62687
 C1416 C 0.03397 0.74959 0.64236
 C1417 C 0.03775 0.72664 0.67257
 C1418 C 0.07285 0.72270 0.68888
 C1419 C 0.10482 0.74055 0.67450
 C1420 C 0.10192 0.76074 0.64294
 H1421 H 0.06600 0.77985 0.60199
 H1422 H 0.01360 0.71176 0.68359
 H1423 H 0.07476 0.70621 0.71293
 H1424 H 0.12657 0.77365 0.63070
 C1425 C 0.96082 0.76826 0.67854
 C1426 C 0.96104 0.75270 0.64435
 C1427 C 0.92623 0.74367 0.62788
 C1428 C 0.89265 0.74617 0.64617
 C1429 C 0.89306 0.75854 0.68108
 C1430 C 0.92693 0.77061 0.69705
 H1431 H 0.98653 0.77873 0.69099
 H1432 H 0.92514 0.73425 0.60074
 H1433 H 0.86638 0.73817 0.63298
 H1434 H 0.92730 0.78123 0.72383
 C1435 C 0.44375 0.21410 0.15861
 C1436 C 0.46359 0.24842 0.15291
 C1437 C 0.45487 0.28077 0.17385
 C1438 C 0.42230 0.28120 0.19419
 C1439 C 0.39923 0.24883 0.19451
 C1440 C 0.41116 0.21458 0.17873
 H1441 H 0.45234 0.18717 0.14679
 H1442 H 0.47173 0.30662 0.17225
 H1443 H 0.41383 0.30743 0.20747
 H1444 H 0.39438 0.18869 0.18073
 C1445 C 0.44764 0.78272 0.34595
 C1446 C 0.46704 0.74800 0.35272
 C1447 C 0.45727 0.71505 0.33318
 C1448 C 0.42453 0.71504 0.31279
 C1449 C 0.40233 0.74837 0.31092
 C1450 C 0.41501 0.78268 0.32571
 H1451 H 0.45685 0.80983 0.35676
 H1452 H 0.47370 0.68873 0.33561
 H1453 H 0.41547 0.68865 0.30030
 H1454 H 0.39901 0.80921 0.32251
 C1455 C 0.92948 0.23486 0.86720
 C1456 C 0.96349 0.25015 0.85332
 C1457 C 0.96136 0.27304 0.82288
 C1458 C 0.92748 0.27553 0.80410
 C1459 C 0.89523 0.25736 0.81712
 C1460 C 0.89575 0.23805 0.84892
 H1461 H 0.92867 0.22045 0.89233
 H1462 H 0.98595 0.28849 0.81340
 H1463 H 0.92619 0.29189 0.77994
 H1464 H 0.87006 0.22529 0.85945
 C1465 C 0.53468 1.01265 0.70912
 C1466 C 0.57493 1.00847 0.71307
 C1467 C 0.59697 1.00940 0.68221
 C1468 C 0.58028 1.01374 0.64931
 C1469 C 0.54035 1.01606 0.64494
 C1470 C 0.51758 1.01597 0.67536
 H1471 H 0.51624 1.01350 0.73183
 H1472 H 0.62782 1.00718 0.68370
 H1473 H 0.59914 1.01428 0.62681
 H1474 H 0.48677 1.01748 0.67305
 C1475 C 0.09518 0.50511 1.18330
 C1476 C 0.07337 0.50459 1.21433
 C1477 C 0.03314 0.50891 1.21055
 C1478 C 0.01585 0.51204 1.17675
 C1479 C 0.03847 0.51165 1.14615
 C1480 C 0.07836 0.50911 1.15043
 H1481 H 0.12603 0.50268 1.18460
 H1482 H 0.01494 0.50998 1.23343
 H1483 H -0.01495 0.51385 1.17456
 H1484 H 0.09716 0.50940 1.12789
 C1485 C -0.09828 -0.00757 1.18441
 C1486 C -0.07611 -0.00497 1.21527
 C1487 C -0.03590 -0.00929 1.21161
 C1488 C -0.01900 -0.01452 1.17800
 C1489 C -0.04199 -0.01651 1.14757
 C1490 C -0.08185 -0.01401 1.15183
 H1491 H -0.12913 -0.00516 1.18569
 H1492 H -0.01743 -0.00872 1.23441
 H1493 H 0.01180 -0.01602 1.17576
 H1494 H -0.10090 -0.01594 1.12941
 C1495 C 0.46487 0.48672 0.71203
 C1496 C 0.42464 0.49119 0.71560
 C1497 C 0.40264 0.48876 0.68463
 C1498 C 0.41926 0.48228 0.65207
 C1499 C 0.45917 0.47962 0.64794
 C1500 C 0.48195 0.48153 0.67848
 H1501 H 0.48329 0.48712 0.73488
 H1502 H 0.37179 0.49122 0.68581
 H1503 H 0.40031 0.48051 0.62957
 H1504 H 0.51277 0.47999 0.67639
 C1505 C 0.45229 0.52512 -0.20770
 C1506 C 0.42941 0.49271 -0.21599
 C1507 C 0.42813 0.46335 -0.19064
 C1508 C 0.44640 0.46712 -0.15823
 C1509 C 0.46574 0.50085 -0.14870
 C1510 C 0.46988 0.52937 -0.17435
 H1511 H 0.45435 0.54846 -0.22630
 H1512 H 0.41128 0.43789 -0.19428
 H1513 H 0.44321 0.44408 -0.13944
 H1514 H 0.48451 0.55576 -0.16799
 C1515 C -0.04846 1.02914 0.29213
 C1516 C -0.07165 0.99698 0.28385
 C1517 C -0.07408 0.96810 0.30963
 C1518 C -0.05673 0.97220 0.34239
 C1519 C -0.03707 1.00573 0.35179
 C1520 C -0.03165 1.03366 0.32580
 H1521 H -0.04559 1.05212 0.27327
 H1522 H -0.09124 0.94285 0.30607
 H1523 H -0.06080 0.94961 0.36147
 H1524 H -0.01663 1.05984 0.33207
 C1525 C 0.07354 0.53382 0.30903
 C1526 C 0.06984 0.50500 0.28317
 C1527 C 0.04630 0.47329 0.29184
 C1528 C 0.03020 0.46921 0.32577
 C1529 C 0.03677 0.49706 0.35181
 C1530 C 0.05696 0.53012 0.34211
 H1531 H 0.09121 0.55864 0.30522
 H1532 H 0.04259 0.45027 0.27302
 H1533 H 0.01477 0.44337 0.33215
 H1534 H 0.06199 0.55274 0.36111
 C1535 C 0.57048 0.03922 -0.19404
 C1536 C 0.56968 0.00915 -0.21884
 C1537 C 0.54679 -0.02312 -0.21050
 C1538 C 0.52875 -0.02658 -0.17746
 C1539 C 0.53243 0.00261 -0.15227
 C1540 C 0.55168 0.03624 -0.16198
 H1541 H 0.58733 0.06461 -0.19780
 H1542 H 0.54504 -0.04693 -0.22874
 H1543 H 0.51416 -0.05288 -0.17093
 H1544 H 0.55447 0.05978 -0.14353
 C1545 C 0.71048 0.58665 -0.00025
 C1546 C 0.70941 0.62730 -0.00105
 C1547 C 0.67332 0.64437 -0.00890
 C1548 C 0.64039 0.62237 -0.01510
 C1549 C 0.64173 0.58224 -0.01328
 C1550 C 0.67712 0.56474 -0.00538
 H1551 H 0.73685 0.57120 0.00420
 H1552 H 0.67068 0.67530 -0.01034
 H1553 H 0.61342 0.63691 -0.01993
 H1554 H 0.67892 0.53383 -0.00291
 C1555 C 0.21001 1.08355 0.49918
 C1556 C 0.20866 1.12417 0.49830
 C1557 C 0.17256 1.14115 0.49047
 C1558 C 0.13985 1.11906 0.48424
 C1559 C 0.14143 1.07899 0.48625
 C1560 C 0.17677 1.06153 0.49419
 H1561 H 0.23647 1.06821 0.50350
 H1562 H 0.16978 1.17207 0.48900
 H1563 H 0.11281 1.13347 0.47932
 H1564 H 0.17863 1.03063 0.49672
 C1565 C 0.20975 -0.10503 1.03361
 C1566 C 0.21549 -0.12975 1.00419
 C1567 C 0.18317 -0.13582 0.98248
 C1568 C 0.14862 -0.11620 0.98798
 C1569 C 0.14373 -0.09011 1.01590
 C1570 C 0.17463 -0.08522 1.03919
 H1571 H 0.23283 -0.10074 1.05219
 H1572 H 0.18368 -0.15623 0.96111
 H1573 H 0.12535 -0.12126 0.96974
 H1574 H 0.17212 -0.06529 1.06094
 C1575 C 0.71242 0.39506 0.53485
 C1576 C 0.71874 0.37206 0.50440
 C1577 C 0.68705 0.36754 0.48162
 C1578 C 0.65259 0.38715 0.48724
 C1579 C 0.64723 0.41163 0.51626
 C1580 C 0.67739 0.41486 0.54054
 H1581 H 0.73499 0.39801 0.55418
 H1582 H 0.68801 0.34839 0.45931
 H1583 H 0.62977 0.38337 0.46825
 H1584 H 0.67439 0.43349 0.56319
 C1585 C -0.20691 0.41471 0.49871
 C1586 C -0.20636 0.37409 0.49694
 C1587 C -0.17062 0.35663 0.48876
 C1588 C -0.13736 0.37823 0.48359
 C1589 C -0.13811 0.41827 0.48678
 C1590 C -0.17322 0.43619 0.49464
 H1591 H -0.23310 0.43046 0.50311
 H1592 H -0.16848 0.32571 0.48649
 H1593 H -0.11060 0.36343 0.47852
 H1594 H -0.17454 0.46705 0.49785
 C1595 C 0.32638 -0.14530 -0.01221
 C1596 C 0.29050 -0.12772 -0.00469
 C1597 C 0.28966 -0.08706 -0.00539
 C1598 C 0.32313 -0.06554 -0.01110
 C1599 C 0.35852 -0.08348 -0.01810
 C1600 C 0.35954 -0.12372 -0.01875
 H1601 H 0.32877 -0.17628 -0.01278
 H1602 H 0.26334 -0.07130 -0.00167
 H1603 H 0.32147 -0.03454 -0.00959
 H1604 H 0.38644 -0.13861 -0.02291
 C1605 C 0.31376 1.13133 0.47973
 C1606 C 0.28362 1.12735 0.50412
 C1607 C 0.29168 1.10431 0.53411
 C1608 C 0.32682 1.08415 0.53796
 C1609 C 0.35525 1.08664 0.51204
 C1610 C 0.34820 1.11105 0.48335
 H1611 H 0.31157 1.15042 0.45752
 H1612 H 0.27036 1.10156 0.55448
 H1613 H 0.33122 1.06579 0.56054
 H1614 H 0.36974 1.11451 0.46323
 C1615 C -0.20665 0.60675 1.03402
 C1616 C -0.21536 0.62983 1.00419
 C1617 C -0.18569 0.63379 0.97930
 C1618 C -0.15091 0.61401 0.98263
 C1619 C -0.14300 0.58987 1.01138
 C1620 C -0.17117 0.58702 1.03753
 H1621 H -0.22761 0.60387 1.05470
 H1622 H -0.18839 0.65264 0.95698
 H1623 H -0.12975 0.61780 0.96223
 H1624 H -0.16625 0.56884 1.06015
 C1625 C 0.02040 0.71171 0.57009
 C1626 C -0.00139 0.71408 0.60115
 C1627 C -0.01434 0.68000 0.61693
 C1628 C -0.00818 0.64521 0.60095
 C1629 C 0.01100 0.64391 0.56912
 C1630 C 0.02540 0.67674 0.55343
 H1631 H 0.03372 0.73671 0.55885
 H1632 H -0.02865 0.67999 0.64209
 H1633 H -0.01912 0.61937 0.61298
 H1634 H 0.04072 0.67514 0.52876
 C1635 C 0.46644 0.20689 0.08246
 C1636 C 0.49895 0.21696 0.10222
 C1637 C 0.53381 0.19774 0.09562
 C1638 C 0.53426 0.16490 0.07546
 C1639 C 0.50040 0.15212 0.06024
 C1640 C 0.46699 0.17419 0.06195
 H1641 H 0.44004 0.22314 0.08469
 H1642 H 0.56069 0.20726 0.10650
 H1643 H 0.56078 0.14895 0.07249
 H1644 H 0.44087 0.16503 0.04919
 C1645 C -0.00749 0.17694 0.87996
 C1646 C 0.00029 0.21178 0.89716
 C1647 C 0.01171 0.21139 0.93268
 C1648 C 0.01153 0.17725 0.95124
 C1649 C 0.00096 0.14337 0.93414
 C1650 C -0.00772 0.14327 0.89831
 H1651 H -0.01400 0.17603 0.85210
 H1652 H 0.02126 0.23698 0.94607
 H1653 H 0.01954 0.17732 0.97877
 H1654 H -0.01437 0.11707 0.88424
 C1655 C 0.46387 0.69358 0.40969
 C1656 C 0.49833 0.71297 0.40348
 C1657 C 0.53043 0.70435 0.42460
 C1658 C 0.53020 0.67266 0.44623
 C1659 C 0.49758 0.65004 0.44740
 C1660 C 0.46381 0.66161 0.43085
 H1661 H 0.43715 0.70210 0.39760
 H1662 H 0.55643 0.72084 0.42257
 H1663 H 0.55623 0.66426 0.45977
 H1664 H 0.43796 0.64490 0.43303
 C1665 C 0.53720 0.80114 0.40681
 C1666 C 0.50313 0.78053 0.40191
 C1667 C 0.47073 0.79060 0.42188
 C1668 C 0.47019 0.82436 0.44075
 C1669 C 0.50238 0.84767 0.44051
 C1670 C 0.53649 0.83520 0.42528
 H1671 H 0.56410 0.79193 0.39562
 H1672 H 0.44498 0.77362 0.42075
 H1673 H 0.44399 0.83334 0.45355
 H1674 H 0.56218 0.85230 0.42685
 C1675 C 0.02023 0.31675 0.88026
 C1676 C 0.00055 0.28523 0.89441
 C1677 C -0.02376 0.29119 0.92326
 C1678 C -0.02475 0.32640 0.93997
 C1679 C -0.00264 0.35659 0.92712
 C1680 C 0.01922 0.35177 0.89681
 H1681 H 0.03630 0.31468 0.85608
 H1682 H -0.04182 0.26854 0.93299
 H1683 H -0.04284 0.32991 0.96282
 H1684 H 0.03540 0.37507 0.88558
 C1685 C 0.45844 0.30575 0.09837
 C1686 C 0.49274 0.28475 0.10245
 C1687 C 0.52407 0.29355 0.08087
 C1688 C 0.52361 0.32647 0.06099
 C1689 C 0.49146 0.35036 0.06183
 C1690 C 0.45819 0.33910 0.07891
 H1691 H 0.43211 0.29738 0.11084
 H1692 H 0.54991 0.27626 0.08137
 H1693 H 0.54918 0.33441 0.04688
 H1694 H 0.43246 0.35659 0.07796
 C1695 C 0.00078 0.82212 0.61874
 C1696 C -0.00682 0.78744 0.60107
 C1697 C -0.02213 0.78842 0.56678
 C1698 C -0.02515 0.82306 0.54925
 C1699 C -0.01538 0.85670 0.56686
 C1700 C -0.00346 0.85645 0.60173
 H1701 H 0.01054 0.82254 0.64577
 H1702 H -0.03173 0.76277 0.55350
 H1703 H -0.03530 0.82376 0.52231
 H1704 H 0.00390 0.88274 0.61539
 C1705 C 0.25221 0.34915 0.06565
 C1706 C 0.25167 0.32570 0.03545
 C1707 C 0.25820 0.28581 0.04041
 C1708 C 0.26399 0.27041 0.07457
 C1709 C 0.26427 0.29463 0.10429
 C1710 C 0.25910 0.33425 0.09881
 H1711 H 0.24817 0.37989 0.06333
 H1712 H 0.25926 0.26649 0.01816
 H1713 H 0.26746 0.23973 0.07775
 H1714 H 0.25945 0.35430 0.12062
 C1715 C 0.75648 0.78665 0.54136
 C1716 C 0.75090 0.82670 0.53648
 C1717 C 0.75154 0.85003 0.56672
 C1718 C 0.75733 0.83483 0.59990
 C1719 C 0.76125 0.79506 0.60534
 C1720 C 0.76117 0.77096 0.57554
 H1721 H 0.75739 0.76740 0.51906
 H1722 H 0.74808 0.88084 0.56449
 H1723 H 0.75783 0.85482 0.62174
 H1724 H 0.76394 0.74021 0.57867
 C1725 C 0.28598 0.67518 0.55738
 C1726 C 0.25658 0.67782 0.53204
 C1727 C 0.22460 0.70143 0.54057
 C1728 C 0.22079 0.71851 0.57414
 C1729 C 0.24927 0.71291 0.59971
 C1730 C 0.28260 0.69286 0.59002
 H1731 H 0.31107 0.65754 0.55364
 H1732 H 0.20125 0.70440 0.52201
 H1733 H 0.19475 0.73385 0.58071
 H1734 H 0.30558 0.68864 0.60880
 C1735 C 0.78188 0.17726 0.05616
 C1736 C 0.75254 0.17973 0.03080
 C1737 C 0.72024 0.20290 0.03954
 C1738 C 0.71622 0.21987 0.07318
 C1739 C 0.74475 0.21458 0.09875
 C1740 C 0.77825 0.19478 0.08892
 H1741 H 0.80728 0.16013 0.05219
 H1742 H 0.69691 0.20582 0.02096
 H1743 H 0.69008 0.23504 0.07973
 H1744 H 0.80139 0.19086 0.10757
 C1745 C 0.75751 0.15633 0.93097
 C1746 C 0.75380 0.17726 0.96244
 C1747 C 0.75694 0.21789 0.95998
 C1748 C 0.76194 0.23632 0.92697
 C1749 C 0.76539 0.21450 0.89590
 C1750 C 0.76441 0.17422 0.89911
 H1751 H 0.75602 0.12530 0.93121
 H1752 H 0.75550 0.23565 0.98325
 H1753 H 0.76214 0.26733 0.92570
 H1754 H 0.76758 0.15590 0.87625
 C1755 C 0.25790 0.65129 0.43273
 C1756 C 0.25625 0.67344 0.46368
 C1757 C 0.26120 0.71370 0.46012
 C1758 C 0.26629 0.73070 0.42657
 C1759 C 0.26764 0.70773 0.39609
 C1760 C 0.26438 0.66776 0.40022
 H1761 H 0.25516 0.62038 0.43395
 H1762 H 0.26148 0.73215 0.48299
 H1763 H 0.26831 0.76158 0.42445
 H1764 H 0.26578 0.64867 0.37774
 C1765 C 0.77994 0.82153 0.44303
 C1766 C 0.75052 0.81986 0.46816
 C1767 C 0.71888 0.79599 0.45990
 C1768 C 0.71518 0.77812 0.42659
 C1769 C 0.74357 0.78290 0.40104
 C1770 C 0.77676 0.80294 0.41072
 H1771 H 0.80491 0.83900 0.44674
 H1772 H 0.69559 0.79349 0.47838
 H1773 H 0.68928 0.76280 0.42018
 H1774 H 0.79979 0.80646 0.39209
 C1775 C 0.28113 0.31951 0.94216
 C1776 C 0.25138 0.31855 0.96704
 C1777 C 0.21980 0.29457 0.95887
 C1778 C 0.21682 0.27538 0.92606
 C1779 C 0.24588 0.27890 0.90090
 C1780 C 0.27872 0.29953 0.91047
 H1781 H 0.30592 0.33729 0.94554
 H1782 H 0.19618 0.29271 0.97706
 H1783 H 0.19101 0.25992 0.91965
 H1784 H 0.30206 0.30248 0.89207
 C1785 C 0.85382 0.45863 0.72695
 C1786 C 0.87859 0.46989 0.75426
 C1787 C 0.87483 0.44945 0.78656
 C1788 C 0.85147 0.41668 0.78963
 C1789 C 0.82939 0.40392 0.76112
 C1790 C 0.83024 0.42637 0.73011
 H1791 H 0.85357 0.47432 0.70241
 H1792 H 0.88971 0.45842 0.81003
 H1793 H 0.85103 0.40117 0.81424
 H1794 H 0.81311 0.41862 0.70748
 C1795 C 0.38450 0.93215 0.22913
 C1796 C 0.38028 0.96346 0.25257
 C1797 C 0.35755 0.95670 0.28289
 C1798 C 0.33784 0.92170 0.28788
 C1799 C 0.34064 0.89198 0.26293
 C1800 C 0.36482 0.89775 0.23397
 H1801 H 0.40334 0.93340 0.20677
 H1802 H 0.35466 0.97896 0.30262
 H1803 H 0.31954 0.91843 0.31054
 H1804 H 0.36838 0.87529 0.21448
 C1805 C 0.14206 0.95080 0.71401
 C1806 C 0.11830 0.95781 0.74366
 C1807 C 0.11244 0.92617 0.76620
 C1808 C 0.13226 0.89150 0.76182
 C1809 C 0.15814 0.88572 0.73410
 C1810 C 0.16203 0.91550 0.70949
 H1811 H 0.14594 0.97322 0.69474
 H1812 H 0.09235 0.92748 0.78765
 H1813 H 0.12754 0.86890 0.78078
 H1814 H 0.18146 0.91210 0.68760
 C1815 C 0.61388 0.43046 0.26639
 C1816 C 0.61906 0.46219 0.24382
 C1817 C 0.64241 0.45559 0.21384
 C1818 C 0.66266 0.42056 0.20898
 C1819 C 0.65945 0.39074 0.23359
 C1820 C 0.63402 0.39607 0.26169
 H1821 H 0.59408 0.43149 0.28808
 H1822 H 0.64570 0.47810 0.19455
 H1823 H 0.68177 0.41740 0.18683
 H1824 H 0.62995 0.37335 0.28067
 C1825 C 0.66385 0.53526 0.25112
 C1826 C 0.62342 0.53719 0.25209
 C1827 C 0.60710 0.57337 0.26114
 C1828 C 0.62962 0.60570 0.26811
 C1829 C 0.66948 0.60358 0.26581
 C1830 C 0.68628 0.56809 0.25691
 H1831 H 0.67878 0.50862 0.24631
 H1832 H 0.57636 0.57653 0.26299
 H1833 H 0.61571 0.63288 0.27378
 H1834 H 0.71702 0.56582 0.25425
 C1835 C 0.10832 0.06918 0.76165
 C1836 C 0.12397 0.03275 0.75247
 C1837 C 0.16440 0.03017 0.75151
 C1838 C 0.18743 0.06264 0.75726
 C1839 C 0.17129 0.09844 0.76618
 C1840 C 0.13143 0.10115 0.76859
 H1841 H 0.07764 0.07289 0.76347
 H1842 H 0.17888 0.00331 0.74658
 H1843 H 0.21812 0.05985 0.75450
 H1844 H 0.11798 0.12855 0.77430
 C1845 C 0.39327 0.07461 0.23672
 C1846 C 0.37676 0.03863 0.24511
 C1847 C 0.33634 0.03774 0.24655
 C1848 C 0.31413 0.07131 0.24197
 C1849 C 0.33108 0.10668 0.23393
 C1850 C 0.37094 0.10776 0.23105
 H1851 H 0.42401 0.07705 0.23473
 H1852 H 0.32126 0.01138 0.25114
 H1853 H 0.28342 0.06972 0.24499
 H1854 H 0.38504 0.13472 0.22600
 C1855 C 0.85417 0.55238 0.77147
 C1856 C 0.87885 0.54130 0.74401
 C1857 C 0.87562 0.56301 0.71236
 C1858 C 0.85278 0.59665 0.71018
 C1859 C 0.83098 0.60916 0.73899
 C1860 C 0.83129 0.58556 0.76923
 H1861 H 0.85362 0.53587 0.79554
 H1862 H 0.89058 0.55446 0.68882
 H1863 H 0.85266 0.61309 0.68607
 H1864 H 0.81422 0.59309 0.79195
 C1865 C 0.95712 0.72267 0.17782
 C1866 C 0.96617 0.75369 0.15584
 C1867 C 0.94533 0.78829 0.15919
 C1868 C 0.91186 0.78899 0.17819
 C1869 C 0.90038 0.75594 0.19563
 C1870 C 0.92410 0.72363 0.19734
 H1871 H 0.97433 0.69671 0.17790
 H1872 H 0.95389 0.81452 0.14649
 H1873 H 0.89441 0.81481 0.17844
 H1874 H 0.91590 0.69823 0.21174
 C1875 C 0.44402 0.28603 0.65420
 C1876 C 0.46537 0.25177 0.65073
 C1877 C 0.45652 0.22031 0.67225
 C1878 C 0.42371 0.22079 0.69203
 C1879 C 0.39982 0.25299 0.69099
 C1880 C 0.41070 0.28622 0.67349
 H1881 H 0.45222 0.31245 0.64162
 H1882 H 0.47395 0.19449 0.67198
 H1883 H 0.41592 0.19518 0.70632
 H1884 H 0.39306 0.31191 0.67415
 C1885 C 0.42711 0.75716 0.86958
 C1886 C 0.46126 0.74740 0.85203
 C1887 C 0.45945 0.73066 0.81833
 C1888 C 0.42473 0.72849 0.80103
 C1889 C 0.39174 0.74052 0.81837
 C1890 C 0.39259 0.75382 0.85277
 H1891 H 0.42722 0.76777 0.89635
 H1892 H 0.48455 0.71932 0.80534
 H1893 H 0.42342 0.71712 0.77452
 H1894 H 0.36665 0.76257 0.86621
 C1895 C 0.94512 0.21314 0.34169
 C1896 C 0.96456 0.24791 0.34720
 C1897 C 0.95434 0.28019 0.32694
 C1898 C 0.92165 0.27969 0.30673
 C1899 C 0.89957 0.24658 0.30595
 C1900 C 0.91221 0.21278 0.32182
 H1901 H 0.95455 0.18633 0.35313
 H1902 H 0.97058 0.30646 0.32841
 H1903 H 0.91244 0.30573 0.29361
 H1904 H 0.89602 0.18649 0.31966
 C1905 C 0.05038 0.28906 0.33948
 C1906 C 0.03171 0.25394 0.34523
 C1907 C 0.04075 0.22232 0.32359
 C1908 C 0.07268 0.22335 0.30255
 C1909 C 0.09489 0.25638 0.30237
 C1910 C 0.08250 0.28996 0.31879
 H1911 H 0.04132 0.31559 0.35177
 H1912 H 0.02466 0.19596 0.32504
 H1913 H 0.08163 0.19753 0.28884
 H1914 H 0.09872 0.31625 0.31700
 C1915 C 0.53619 0.77107 0.81915
 C1916 C 0.53450 0.75150 0.85148
 C1917 C 0.56876 0.73958 0.86790
 C1918 C 0.60310 0.74412 0.85132
 C1919 C 0.60378 0.76080 0.81828
 C1920 C 0.57075 0.77447 0.80196
 H1921 H 0.51108 0.78388 0.80726
 H1922 H 0.56913 0.72699 0.89388
 H1923 H 0.62909 0.73394 0.86394
 H1924 H 0.57193 0.78818 0.77646
 C1925 C 0.54103 0.27755 0.67336
 C1926 C 0.53283 0.24529 0.65236
 C1927 C 0.55456 0.21147 0.65693
 C1928 C 0.58835 0.21280 0.67560
 C1929 C 0.59913 0.24709 0.69161
 C1930 C 0.57434 0.27860 0.69264
 H1931 H 0.52317 0.30305 0.67239
 H1932 H 0.54669 0.18446 0.64506
 H1933 H 0.60665 0.18760 0.67652
 H1934 H 0.58199 0.30490 0.70608
 C1935 C 0.04307 0.77974 0.17677
 C1936 C 0.03362 0.74706 0.15681
 C1937 C 0.05418 0.71269 0.16240
 C1938 C 0.08825 0.71355 0.18051
 C1939 C 0.10058 0.74808 0.19498
 C1940 C 0.07689 0.78045 0.19542
 H1941 H 0.02587 0.80567 0.17537
 H1942 H 0.04519 0.68548 0.15162
 H1943 H 0.10563 0.68774 0.18210
 H1944 H 0.08575 0.80692 0.20789
   
