data_POSCAR
  _audit_creation_date              2014-09-24
  _audit_creation_method            'ToBaCCo'
  _symmetry_space_group_name_H-M    'P1'
  _symmetry_Int_Tables_number       1
  _symmetry_cell_setting            triclinic
  loop_
  _symmetry_equiv_pos_as_xyz
 x,y,z
_cell_length_a 61.4936
_cell_length_b 60.9665
_cell_length_c 63.4947
_cell_angle_alpha 90.009900
_cell_angle_beta 89.864700
_cell_angle_gamma 90.436600
loop_
  _atom_site_label
  _atom_site_type_symbol
  _atom_site_fract_x
  _atom_site_fract_y
  _atom_site_fract_z
C1 C 0.39147 0.30066 0.01326
 C2 C 0.39209 0.30171 -0.00829
 C3 C 0.37193 0.30928 -0.01472
 N4 N 0.35924 0.31341 0.00221
 C5 C 0.37116 0.30805 0.01929
 C6 C 0.36491 0.31109 -0.03589
 C7 C 0.34641 0.32370 -0.04113
 C8 C 0.33393 0.32084 -0.05911
 C9 C 0.31818 0.33666 -0.05870
 C10 C 0.32143 0.34883 -0.04049
 N11 N 0.33849 0.34060 -0.02967
 C12 C 0.30906 0.36736 -0.03447
 C13 C 0.30799 0.37414 -0.01315
 C14 C 0.30082 0.39442 -0.00618
 C15 C 0.30046 0.39352 0.01539
 C16 C 0.30778 0.37288 0.02087
 N17 N 0.31249 0.36106 0.00344
 C18 C 0.30840 0.36461 0.04161
 C19 C 0.32037 0.34580 0.04701
 C20 C 0.31844 0.33429 0.06577
 C21 C 0.33405 0.31821 0.06535
 C22 C 0.34502 0.32041 0.04635
 N23 N 0.33660 0.33725 0.03530
 C24 C 0.36329 0.30813 0.04017
 H25 H 0.40449 0.29513 0.02335
 H26 H 0.40580 0.29729 -0.01808
 H27 H 0.34314 0.34406 0.02163
 H28 H 0.33578 0.30843 -0.07116
 H29 H 0.30558 0.33876 -0.07038
 H30 H 0.29621 0.40839 -0.01563
 H31 H 0.29540 0.40655 0.02584
 H32 H 0.33712 0.30642 0.07771
 H33 H 0.34558 0.34743 -0.01626
 H34 H 0.30713 0.33731 0.07851
 C35 C 0.62723 0.71688 0.00701
 C36 C 0.62673 0.71500 -0.01448
 C37 C 0.64522 0.70359 -0.02032
 N38 N 0.65715 0.69875 -0.00309
 C39 C 0.64615 0.70682 0.01364
 C40 C 0.65178 0.69962 -0.04134
 C41 C 0.66999 0.68668 -0.04669
 C42 C 0.68016 0.68669 -0.06620
 C43 C 0.69650 0.67151 -0.06524
 C44 C 0.69553 0.66204 -0.04537
 N45 N 0.67935 0.67148 -0.03413
 C46 C 0.70910 0.64479 -0.03822
 C47 C 0.71060 0.63921 -0.01658
 C48 C 0.71866 0.61957 -0.00892
 C49 C 0.71868 0.62117 0.01258
 C50 C 0.71039 0.64161 0.01741
 N51 N 0.70537 0.65264 -0.00041
 C52 C 0.70897 0.65030 0.03798
 C53 C 0.69646 0.66893 0.04291
 C54 C 0.69762 0.68055 0.06164
 C55 C 0.68189 0.69645 0.06071
 C56 C 0.67156 0.69407 0.04143
 N57 N 0.68050 0.67720 0.03072
 C58 C 0.65359 0.70655 0.03470
 H59 H 0.61517 0.72504 0.01659
 H60 H 0.61429 0.72171 -0.02457
 H61 H 0.67449 0.67016 0.01699
 H62 H 0.67640 0.69664 -0.07979
 H63 H 0.70781 0.66795 -0.07783
 H64 H 0.72395 0.60548 -0.01790
 H65 H 0.72412 0.60867 0.02342
 H66 H 0.67836 0.70832 0.07290
 H67 H 0.67358 0.66633 -0.01952
 H68 H 0.70855 0.67776 0.07469
 C69 C 0.73851 0.35814 1.00909
 C70 C 0.73935 0.35667 0.98757
 C71 C 0.71885 0.35009 0.98108
 N72 N 0.70545 0.34753 0.99784
 C73 C 0.71739 0.35273 1.01501
 C74 C 0.71217 0.34847 0.95988
 C75 C 0.69340 0.33650 0.95395
 C76 C 0.68357 0.33730 0.93434
 C77 C 0.66712 0.32189 0.93453
 C78 C 0.66708 0.31239 0.95439
 N79 N 0.68324 0.32130 0.96607
 C80 C 0.65331 0.29497 0.96084
 C81 C 0.65012 0.28909 0.98216
 C82 C 0.63756 0.27151 0.98902
 C83 C 0.63684 0.27278 1.01057
 C84 C 0.64898 0.29112 1.01620
 N85 N 0.65695 0.30114 0.99880
 C86 C 0.65054 0.29964 1.03683
 C87 C 0.66366 0.31800 1.04203
 C88 C 0.66117 0.33071 1.05996
 C89 C 0.67734 0.34636 1.05949
 C90 C 0.68984 0.34236 1.04166
 N91 N 0.68121 0.32513 1.03100
 C92 C 0.70896 0.35413 1.03577
 H93 H 0.75187 0.36287 1.01923
 H94 H 0.75341 0.36013 0.97780
 H95 H 0.68814 0.31731 1.01807
 H96 H 0.68793 0.34766 0.92114
 H97 H 0.65653 0.31810 0.92143
 H98 H 0.62922 0.25936 0.97952
 H99 H 0.62782 0.26183 1.02083
 H100 H 0.67948 0.35926 1.07101
 H101 H 0.68862 0.31562 0.98058
 H102 H 0.64886 0.32915 1.07206
 C103 C 0.37771 0.70945 1.00593
 C104 C 0.37611 0.70991 0.98442
 C105 C 0.35488 0.70407 0.97962
 N106 N 0.34340 0.70019 0.99745
 C107 C 0.35730 0.70370 1.01361
 C108 C 0.34606 0.70372 0.95911
 C109 C 0.32619 0.69313 0.95438
 C110 C 0.31457 0.69565 0.93585
 C111 C 0.29746 0.68097 0.93671
 C112 C 0.29918 0.66992 0.95571
 N113 N 0.31668 0.67749 0.96639
 C114 C 0.28600 0.65207 0.96208
 C115 C 0.28589 0.64418 0.98296
 C116 C 0.27769 0.62398 0.98915
 C117 C 0.27945 0.62323 1.01064
 C118 C 0.28830 0.64319 1.01691
 N119 N 0.29247 0.65591 0.99992
 C120 C 0.29141 0.64998 1.03805
 C121 C 0.30545 0.66780 1.04300
 C122 C 0.30442 0.68015 1.06133
 C123 C 0.32128 0.69502 1.06050
 C124 C 0.33224 0.69137 1.04170
 N125 N 0.32226 0.67497 1.03095
 C126 C 0.35137 0.70266 1.03518
 H127 H 0.39230 0.71290 1.01488
 H128 H 0.38911 0.71393 0.97354
 H129 H 0.32789 0.66763 1.01716
 H130 H 0.31826 0.70665 0.92293
 H131 H 0.28538 0.67844 0.92456
 H132 H 0.27127 0.61106 0.97919
 H133 H 0.27475 0.60950 1.02050
 H134 H 0.32492 0.70727 1.07234
 H135 H 0.32328 0.67052 0.97987
 H136 H 0.29260 0.67875 1.07392
 C137 C -0.00811 0.38650 0.29457
 C138 C 0.01411 0.38529 0.29510
 C139 C 0.01903 0.36507 0.30370
 N140 N 0.00061 0.35379 0.30837
 C141 C -0.01604 0.36680 0.30255
 C142 C 0.04020 0.35659 0.30561
 C143 C 0.04493 0.33851 0.31857
 C144 C 0.06409 0.32669 0.31813
 C145 C 0.06284 0.31176 0.33437
 C146 C 0.04297 0.31498 0.34424
 N147 N 0.03216 0.33126 0.33448
 C148 C 0.03590 0.30432 0.36276
 C149 C 0.01404 0.30485 0.36956
 C150 C 0.00695 0.29903 0.38950
 C151 C -0.01528 0.30042 0.38923
 C152 C -0.02108 0.30669 0.36899
 N153 N -0.00307 0.30964 0.35704
 C154 C -0.04269 0.30832 0.36141
 C155 C -0.04744 0.31991 0.34260
 C156 C -0.06593 0.31676 0.33044
 C157 C -0.06468 0.33140 0.31404
 C158 C -0.04548 0.34320 0.31657
 N159 N -0.03492 0.33590 0.33390
 C160 C -0.03824 0.36044 0.30318
 H161 H -0.01737 0.40029 0.28885
 H162 H 0.02538 0.39785 0.28977
 H163 H -0.02090 0.34274 0.34046
 H164 H 0.07767 0.32880 0.30742
 H165 H 0.07528 0.30011 0.33861
 H166 H 0.01677 0.29434 0.40286
 H167 H -0.02596 0.29712 0.40245
 H168 H -0.07644 0.33290 0.30148
 H169 H 0.01806 0.33876 0.33990
 H170 H -0.07884 0.30487 0.33290
 C171 C -0.00374 0.71957 0.62196
 C172 C 0.01849 0.71871 0.62264
 C173 C 0.02366 0.69876 0.63169
 N174 N 0.00535 0.68718 0.63609
 C175 C -0.01148 0.69978 0.62994
 C176 C 0.04496 0.69075 0.63423
 C177 C 0.04974 0.67263 0.64716
 C178 C 0.06930 0.66148 0.64731
 C179 C 0.06799 0.64640 0.66340
 C180 C 0.04777 0.64897 0.67278
 N181 N 0.03675 0.66497 0.66276
 C182 C 0.04052 0.63777 0.69102
 C183 C 0.01848 0.63749 0.69745
 C184 C 0.01092 0.62922 0.71644
 C185 C -0.01133 0.62962 0.71551
 C186 C -0.01676 0.63860 0.69612
 N187 N 0.00156 0.64323 0.68510
 C188 C -0.03803 0.63967 0.68758
 C189 C -0.04244 0.65077 0.66840
 C190 C -0.06148 0.64882 0.65680
 C191 C -0.06012 0.66377 0.64069
 C192 C -0.04063 0.67508 0.64315
 N193 N -0.02985 0.66689 0.65994
 C194 C -0.03366 0.69314 0.63060
 H195 H -0.01308 0.73326 0.61616
 H196 H 0.02950 0.73140 0.61716
 H197 H -0.01598 0.67374 0.66672
 H198 H 0.08322 0.66412 0.63716
 H199 H 0.08065 0.63510 0.66786
 H200 H 0.02041 0.62299 0.72943
 H201 H -0.02207 0.62332 0.72760
 H202 H -0.07233 0.66620 0.62869
 H203 H 0.02235 0.67209 0.66785
 H204 H -0.07524 0.63811 0.65966
 C205 C 0.98300 0.61301 0.30194
 C206 C 1.00524 0.61207 0.30126
 C207 C 1.01297 0.63211 0.30859
 N208 N 0.99615 0.64510 0.31411
 C209 C 0.97784 0.63344 0.30997
 C210 C 1.03519 0.63856 0.30928
 C211 C 1.04220 0.65650 0.32190
 C212 C 1.06179 0.66775 0.31951
 C213 C 1.06278 0.68312 0.33532
 C214 C 1.04364 0.68115 0.34673
 N215 N 1.03114 0.66495 0.33845
 C216 C 1.03862 0.69348 0.36490
 C217 C 1.01719 0.69578 0.37252
 C218 C 1.01158 0.70514 0.39166
 C219 C 0.98932 0.70638 0.39199
 C220 C 0.98210 0.69768 0.37307
 N221 N 0.99915 0.69119 0.36120
 C222 C 0.96026 0.69734 0.36630
 C223 C 0.95327 0.68521 0.34858
 C224 C 0.93336 0.68761 0.33865
 C225 C 0.93229 0.67179 0.32322
 C226 C 0.95161 0.66025 0.32415
 N227 N 0.96429 0.66851 0.33962
 C228 C 0.95652 0.64159 0.31198
 H229 H 0.97188 0.60011 0.29715
 H230 H 1.01464 0.59816 0.29600
 H231 H 0.97848 0.66147 0.34529
 H232 H 1.07410 0.66527 0.30756
 H233 H 1.07602 0.69459 0.33800
 H234 H 1.02241 0.71078 0.40397
 H235 H 0.97958 0.71310 0.40462
 H236 H 0.91876 0.66897 0.31267
 H237 H 1.01691 0.65858 0.34503
 H238 H 0.92081 0.69937 0.34227
 C239 C 1.01143 0.26020 0.63931
 C240 C 0.98947 0.26302 0.63711
 C241 C 0.98446 0.28257 0.64709
 N242 N 1.00259 0.29166 0.65547
 C243 C 1.01911 0.27798 0.65080
 C244 C 0.96389 0.29273 0.64663
 C245 C 0.95862 0.31083 0.65957
 C246 C 0.94066 0.32415 0.65685
 C247 C 0.94083 0.33903 0.67313
 C248 C 0.95893 0.33445 0.68531
 N249 N 0.96964 0.31718 0.67699
 C250 C 0.96459 0.34554 0.70409
 C251 C 0.98562 0.34458 0.71305
 C252 C 0.99132 0.35358 0.73230
 C253 C 1.01344 0.35199 0.73389
 C254 C 1.02068 0.34139 0.71582
 N255 N 1.00354 0.33707 0.70307
 C256 C 1.04281 0.33838 0.70995
 C257 C 1.04911 0.32486 0.69272
 C258 C 1.07027 0.32258 0.68529
 C259 C 1.06983 0.30673 0.66993
 C260 C 1.04847 0.29958 0.66830
 N261 N 1.03604 0.31041 0.68247
 C262 C 1.04127 0.28246 0.65491
 H263 H 1.02067 0.24678 0.63279
 H264 H 0.97853 0.25211 0.62876
 H265 H 1.02012 0.30640 0.68644
 H266 H 0.92867 0.32327 0.64443
 H267 H 0.92900 0.35182 0.67565
 H268 H 0.98075 0.36118 0.74378
 H269 H 1.02285 0.35853 0.74680
 H270 H 1.08381 0.30084 0.66130
 H271 H 0.98238 0.30884 0.68406
 H272 H 1.08482 0.33083 0.69079
 C273 C 0.29402 0.01146 0.37666
 C274 C 0.29591 -0.01088 0.37732
 C275 C 0.30325 -0.01746 0.35762
 N276 N 0.30622 0.00021 0.34505
 C277 C 0.30050 0.01787 0.35669
 C278 C 0.30618 -0.03957 0.35131
 C279 C 0.31946 -0.04520 0.33377
 C280 C 0.31989 -0.06563 0.32417
 C281 C 0.33584 -0.06482 0.30902
 C282 C 0.34433 -0.04362 0.30907
 N283 N 0.33430 -0.03186 0.32436
 C284 C 0.36226 -0.03614 0.29672
 C285 C 0.36692 -0.01347 0.29367
 C286 C 0.38431 -0.00507 0.28209
 C287 C 0.38159 0.01714 0.28098
 C288 C 0.36246 0.02174 0.29156
 N289 N 0.35346 0.00304 0.29920
 C290 C 0.35293 0.04275 0.29262
 C291 C 0.33478 0.04762 0.30538
 C292 C 0.32267 0.06667 0.30406
 C293 C 0.30754 0.06579 0.32005
 C294 C 0.31087 0.04622 0.33064
 N295 N 0.32750 0.03528 0.32163
 C296 C 0.29985 0.03961 0.34910
 H297 H 0.28864 0.02180 0.38947
 H298 H 0.29236 -0.02113 0.39084
 H299 H 0.33506 0.02151 0.32779
 H300 H 0.30996 -0.07986 0.32781
 H301 H 0.34063 -0.07857 0.29939
 H302 H 0.39732 -0.01388 0.27446
 H303 H 0.39227 0.02852 0.27284
 H304 H 0.29563 0.07823 0.32362
 H305 H 0.33904 -0.01644 0.32973
 H306 H 0.32469 0.07995 0.29290
 C307 C 0.72109 0.01339 0.63384
 C308 C 0.72364 -0.00873 0.63662
 C309 C 0.70508 -0.01627 0.64682
 N310 N 0.69118 0.00047 0.65012
 C311 C 0.70091 0.01861 0.64213
 C312 C 0.70008 -0.03856 0.65063
 C313 C 0.68212 -0.04555 0.66294
 C314 C 0.67387 -0.06678 0.66330
 C315 C 0.65689 -0.06695 0.67737
 C316 C 0.65545 -0.04593 0.68563
 N317 N 0.67098 -0.03300 0.67679
 C318 C 0.64010 -0.03919 0.70102
 C319 C 0.63619 -0.01678 0.70541
 C320 C 0.62600 -0.00909 0.72344
 C321 C 0.62423 0.01315 0.72116
 C322 C 0.63334 0.01835 0.70180
 N323 N 0.64079 0.00005 0.69221
 C324 C 0.63304 0.03942 0.69253
 C325 C 0.64572 0.04488 0.67471
 C326 C 0.64255 0.06306 0.66201
 C327 C 0.65894 0.06300 0.64722
 C328 C 0.67171 0.04485 0.65139
 N329 N 0.66354 0.03393 0.66821
 C330 C 0.69093 0.03936 0.64039
 H331 H 0.73260 0.02427 0.62614
 H332 H 0.73742 -0.01819 0.63131
 H333 H 0.67096 0.02112 0.67620
 H334 H 0.67934 -0.08075 0.65426
 H335 H 0.64667 -0.08100 0.68092
 H336 H 0.62046 -0.01855 0.73687
 H337 H 0.61695 0.02420 0.73245
 H338 H 0.66121 0.07503 0.63485
 H339 H 0.67495 -0.01705 0.68126
 H340 H 0.62977 0.07510 0.66327
 C341 C 0.30966 1.00915 0.60625
 C342 C 0.31096 0.98674 0.60673
 C343 C 0.31813 0.98123 0.62668
 N344 N 0.32104 0.99946 0.63852
 C345 C 0.31560 1.01657 0.62611
 C346 C 0.32024 0.95956 0.63413
 C347 C 0.33250 0.95424 0.65216
 C348 C 0.33283 0.93381 0.66173
 C349 C 0.34817 0.93496 0.67745
 C350 C 0.35653 0.95617 0.67724
 N351 N 0.34700 0.96772 0.66167
 C352 C 0.37380 0.96391 0.68992
 C353 C 0.37883 0.98647 0.69213
 C354 C 0.39728 0.99474 0.70190
 C355 C 0.39533 1.01709 0.70195
 C356 C 0.37545 1.02182 0.69279
 N357 N 0.36546 1.00305 0.68663
 C358 C 0.36631 1.04306 0.69118
 C359 C 0.34850 1.04739 0.67767
 C360 C 0.33462 1.06511 0.67971
 C361 C 0.32016 1.06394 0.66332
 C362 C 0.32552 1.04552 0.65163
 N363 N 0.34269 1.03535 0.66063
 C364 C 0.31470 1.03866 0.63302
 H365 H 0.30476 1.01884 0.59283
 H366 H 0.30714 0.97574 0.59386
 H367 H 0.35119 1.02212 0.65439
 H368 H 0.32338 0.91942 0.65755
 H369 H 0.35280 0.92155 0.68760
 H370 H 0.41077 0.98575 0.70842
 H371 H 0.40724 1.02851 0.70818
 H372 H 0.30695 1.07520 0.66056
 H373 H 0.35191 0.98309 0.65627
 H374 H 0.33469 1.07748 0.69194
 C375 C 0.62965 0.98703 0.28014
 C376 C 0.62968 1.00949 0.28046
 C377 C 0.63689 1.01586 0.30027
 N378 N 0.64204 0.99794 0.31175
 C379 C 0.63767 0.98033 0.29943
 C380 C 0.63772 1.03778 0.30793
 C381 C 0.64940 1.04313 0.32655
 C382 C 0.64573 1.06145 0.33903
 C383 C 0.66090 1.06112 0.35488
 C384 C 0.67331 1.04251 0.35183
 N385 N 0.66615 1.03155 0.33459
 C386 C 0.69141 1.03668 0.36427
 C387 C 0.70015 1.01532 0.36430
 C388 C 0.71953 1.00943 0.37377
 C389 C 0.72073 0.98702 0.37252
 C390 C 0.70217 0.97998 0.36208
 N391 N 0.68959 0.99732 0.35716
 C392 C 0.69605 0.95782 0.35907
 C393 C 0.67800 0.95136 0.34674
 C394 C 0.66905 0.93041 0.34626
 C395 C 0.65285 0.93061 0.33137
 C396 C 0.65240 0.95165 0.32308
 N397 N 0.66788 0.96411 0.33241
 C398 C 0.63946 0.95827 0.30591
 H399 H 0.62454 0.97687 0.26707
 H400 H 0.62487 1.01988 0.26749
 H401 H 0.67292 0.97960 0.32751
 H402 H 0.63329 1.07373 0.33704
 H403 H 0.66251 1.07316 0.36731
 H404 H 0.73138 1.02010 0.38120
 H405 H 0.73362 0.97710 0.37896
 H406 H 0.64298 0.91665 0.32679
 H407 H 0.67366 1.01820 0.32746
 H408 H 0.67392 0.91627 0.35534
 O409 O 0.83793 0.81267 0.48310
 O410 O 0.80933 0.84264 0.52499
 O411 O 0.83970 0.81290 0.52362
 O412 O 0.80762 0.84207 0.48388
 O413 O 0.78264 0.81590 0.48505
 O414 O 0.81432 0.78718 0.52567
 O415 O 0.78392 0.81690 0.52580
 O416 O 0.81328 0.78625 0.48476
 Cu417 Cu 0.82609 0.83026 0.50382
 Cu418 Cu 0.79601 0.79894 0.50545
 C419 C 0.83073 0.79415 0.47702
 C420 C 0.79159 0.83504 0.53237
 C421 C 0.83266 0.79493 0.53124
 C422 C 0.78965 0.83398 0.47765
 O423 O 0.17563 0.13975 0.51844
 O424 O 0.14275 0.17043 0.48054
 O425 O 0.17230 0.14022 0.47769
 O426 O 0.14670 0.17046 0.52135
 O427 O 0.17220 0.19601 0.51894
 O428 O 0.19816 0.16543 0.47583
 O429 O 0.16841 0.19580 0.47823
 O430 O 0.20138 0.16507 0.51671
 Cu431 Cu 0.15677 0.15270 0.49970
 Cu432 Cu 0.18763 0.18311 0.49722
 C433 C 0.19413 0.14702 0.52405
 C434 C 0.14983 0.18838 0.47293
 C435 C 0.18973 0.14755 0.46941
 C436 C 0.15499 0.18852 0.52748
 O437 O 0.15518 0.82296 0.52038
 O438 O 0.18276 0.85399 0.47840
 O439 O 0.15263 0.82398 0.47953
 O440 O 0.18504 0.85309 0.51922
 O441 O 0.21031 0.82767 0.51734
 O442 O 0.17766 0.79835 0.47729
 O443 O 0.20807 0.82863 0.47634
 O444 O 0.18000 0.79710 0.51809
 Cu445 Cu 0.16640 0.84105 0.49957
 Cu446 Cu 0.19657 0.81037 0.49708
 C447 C 0.16274 0.80465 0.52630
 C448 C 0.20016 0.84674 0.47024
 C449 C 0.15947 0.80616 0.47166
 C450 C 0.20320 0.84547 0.52508
 O451 O 0.80888 0.15701 0.48165
 O452 O 0.84066 0.18668 0.52162
 O453 O 0.80876 0.15803 0.52205
 O454 O 0.84101 0.18505 0.48085
 O455 O 0.81811 0.21271 0.48037
 O456 O 0.78485 0.18484 0.52113
 O457 O 0.81662 0.21339 0.52155
 O458 O 0.78577 0.18449 0.48002
 Cu459 Cu 0.82723 0.16905 0.50165
 Cu460 Cu 0.79899 0.20163 0.50066
 C461 C 0.79182 0.16557 0.47411
 C462 C 0.83407 0.20505 0.52847
 C463 C 0.79110 0.16649 0.52834
 C464 C 0.83529 0.20355 0.47365
 O465 O 0.48428 0.85036 0.81975
 O466 O 0.51993 0.81759 0.85377
 O467 O 0.52607 0.84552 0.82322
 O468 O 0.47842 0.82292 0.85092
 O469 O 0.47822 0.79439 0.82955
 O470 O 0.52255 0.82003 0.79871
 O471 O 0.52062 0.79153 0.82960
 O472 O 0.48036 0.82199 0.79840
 Cu473 Cu 0.50233 0.83686 0.83918
 Cu474 Cu 0.50034 0.80419 0.81178
 C475 C 0.47594 0.84161 0.80346
 C476 C 0.52657 0.79909 0.84733
 C477 C 0.53199 0.83707 0.80588
 C478 C 0.47052 0.80450 0.84538
 O479 O 0.47943 0.15750 0.18166
 O480 O 0.52546 0.18102 0.15210
 O481 O 0.52093 0.15155 0.18176
 O482 O 0.48355 0.18701 0.15262
 O483 O 0.48675 0.21245 0.17715
 O484 O 0.52578 0.17754 0.20550
 O485 O 0.52858 0.20746 0.17568
 O486 O 0.48379 0.18254 0.20641
 Cu487 Cu 0.50207 0.16674 0.16457
 Cu488 Cu 0.50671 0.19758 0.19363
 C489 C 0.47389 0.16578 0.19921
 C490 C 0.53455 0.19853 0.15855
 C491 C 0.52953 0.15830 0.19875
 C492 C 0.47855 0.20570 0.15996
 O493 O 0.52106 0.15630 0.81537
 O494 O 0.48223 0.18382 0.85031
 O495 O 0.47946 0.15507 0.82030
 O496 O 0.52423 0.18498 0.84586
 O497 O 0.52030 0.21233 0.82346
 O498 O 0.47683 0.18127 0.79649
 O499 O 0.47833 0.21024 0.82692
 O500 O 0.51898 0.18368 0.79273
 Cu501 Cu 0.50213 0.16740 0.83530
 Cu502 Cu 0.49831 0.19958 0.80755
 C503 C 0.52653 0.16514 0.79802
 C504 C 0.47356 0.20170 0.84461
 C505 C 0.47073 0.16281 0.80382
 C506 C 0.52962 0.20396 0.83936
 O507 O 0.48190 0.82456 0.14301
 O508 O 0.52485 0.85015 0.17480
 O509 O 0.52403 0.82127 0.14501
 O510 O 0.48280 0.85276 0.17422
 O511 O 0.47856 0.82509 0.19634
 O512 O 0.52167 0.79492 0.16873
 O513 O 0.52089 0.82431 0.19889
 O514 O 0.47957 0.79705 0.16546
 Cu515 Cu 0.50359 0.83985 0.15691
 Cu516 Cu 0.49990 0.80765 0.18469
 C517 C 0.47362 0.80628 0.14849
 C518 C 0.53005 0.84183 0.19237
 C519 C 0.53005 0.80275 0.15202
 C520 C 0.47361 0.84422 0.19023
 O521 O 0.83279 0.48172 0.85190
 O522 O 0.85699 0.52519 0.81930
 O523 O 0.82797 0.52362 0.84876
 O524 O 0.86172 0.48302 0.82140
 O525 O 0.83558 0.47748 0.79819
 O526 O 0.80218 0.51904 0.82504
 O527 O 0.83176 0.51985 0.79512
 O528 O 0.80678 0.47671 0.82845
 Cu529 Cu 0.84748 0.50376 0.83768
 Cu530 Cu 0.81647 0.49779 0.80932
 C531 C 0.81546 0.47209 0.84604
 C532 C 0.84867 0.52989 0.80161
 C533 C 0.80928 0.52828 0.84163
 C534 C 0.85452 0.47343 0.80504
 O535 O 0.13829 0.52053 0.17483
 O536 O 0.17023 0.48082 0.14444
 O537 O 0.14132 0.47811 0.17412
 O538 O 0.16712 0.52324 0.14492
 O539 O 0.19337 0.52501 0.16849
 O540 O 0.16712 0.47992 0.19816
 O541 O 0.19631 0.48243 0.16819
 O542 O 0.16430 0.52246 0.19863
 Cu543 Cu 0.15165 0.50053 0.15720
 Cu544 Cu 0.18291 0.50265 0.18576
 C545 C 0.14571 0.52820 0.19199
 C546 C 0.18874 0.47484 0.15104
 C547 C 0.14966 0.47135 0.19117
 C548 C 0.18473 0.53176 0.15154
 O549 O 0.81580 0.52272 0.15644
 O550 O 0.84495 0.48026 0.18624
 O551 O 0.81604 0.48025 0.15616
 O552 O 0.84538 0.52282 0.18539
 O553 O 0.81969 0.52300 0.20970
 O554 O 0.79020 0.47960 0.18032
 O555 O 0.81912 0.48038 0.21040
 O556 O 0.78974 0.52244 0.18037
 Cu557 Cu 0.83312 0.50145 0.16866
 Cu558 Cu 0.80206 0.50136 0.19760
 C559 C 0.79772 0.52979 0.16326
 C560 C 0.83715 0.47323 0.20356
 C561 C 0.79809 0.47272 0.16303
 C562 C 0.83770 0.53021 0.20251
 O563 O 0.17062 0.52148 0.85272
 O564 O 0.14345 0.47353 0.82878
 O565 O 0.17274 0.47931 0.85755
 O566 O 0.14058 0.51558 0.82394
 O567 O 0.16658 0.51545 0.79990
 O568 O 0.19811 0.47744 0.83301
 O569 O 0.16845 0.47297 0.80380
 O570 O 0.19655 0.51973 0.82874
 Cu571 Cu 0.15429 0.49770 0.84318
 Cu572 Cu 0.18498 0.49628 0.81389
 C573 C 0.18849 0.52852 0.84509
 C574 C 0.15119 0.46520 0.81205
 C575 C 0.19087 0.47208 0.85109
 C576 C 0.14796 0.52162 0.80616
 C577 C 0.30540 0.38520 0.07577
 C578 C 0.29311 0.39695 0.09046
 C579 C 0.27069 0.39951 0.08763
 C580 C 0.26054 0.38966 0.07016
 C581 C 0.27278 0.37788 0.05554
 C582 C 0.29533 0.37582 0.05807
 N583 N 0.25872 0.41282 0.10213
 N584 N 0.23863 0.41678 0.09938
 C585 C 0.22634 0.43053 0.11318
 C586 C 0.20470 0.43493 0.10811
 C587 C 0.19242 0.44911 0.12055
 C588 C 0.20159 0.45911 0.13844
 C589 C 0.22324 0.45433 0.14377
 C590 C 0.23556 0.44019 0.13120
 H591 H 0.32280 0.38381 0.07794
 H592 H 0.30113 0.40446 0.10384
 H593 H 0.24323 0.39132 0.06762
 H594 H 0.26473 0.37066 0.04203
 H595 H 0.19744 0.42758 0.09425
 H596 H 0.17578 0.45237 0.11603
 H597 H 0.23077 0.46178 0.15744
 H598 H 0.25228 0.43702 0.13544
 C599 C 0.74437 0.63817 0.05330
 C600 C 0.75620 0.62614 0.06799
 C601 C 0.74559 0.61534 0.08456
 C602 C 0.72290 0.61724 0.08667
 C603 C 0.71101 0.62926 0.07192
 C604 C 0.72164 0.63949 0.05493
 N605 N 0.75809 0.60164 0.09821
 N606 N 0.74979 0.59142 0.11378
 C607 C 0.76240 0.57694 0.12659
 C608 C 0.75274 0.56712 0.14424
 C609 C 0.76431 0.55209 0.15642
 C610 C 0.78576 0.54647 0.15101
 C611 C 0.79550 0.55657 0.13342
 C612 C 0.78397 0.57170 0.12135
 H613 H 0.75284 0.64598 0.04030
 H614 H 0.77366 0.62478 0.06619
 H615 H 0.71433 0.60900 0.09935
 H616 H 0.69348 0.63004 0.07337
 H617 H 0.73611 0.57096 0.14841
 H618 H 0.75632 0.54458 0.16985
 H619 H 0.81200 0.55266 0.12886
 H620 H 0.79181 0.57901 0.10775
 C621 C 0.73265 0.35050 0.92540
 C622 C 0.74441 0.36246 0.91031
 C623 C 0.74895 0.38476 0.91349
 C624 C 0.74108 0.39516 0.93169
 C625 C 0.72890 0.38339 0.94648
 C626 C 0.72474 0.36089 0.94361
 N627 N 0.76138 0.39670 0.89813
 N628 N 0.77138 0.41429 0.90312
 C629 C 0.78319 0.42742 0.88826
 C630 C 0.79803 0.44297 0.89586
 C631 C 0.80904 0.45695 0.88201
 C632 C 0.80496 0.45598 0.86026
 C633 C 0.79011 0.44027 0.85258
 C634 C 0.77945 0.42591 0.86648
 H635 H 0.72974 0.33315 0.92291
 H636 H 0.75034 0.35427 0.89632
 H637 H 0.74413 0.41245 0.93436
 H638 H 0.72277 0.39182 0.96026
 H639 H 0.80094 0.44435 0.91263
 H640 H 0.82024 0.46901 0.88841
 H641 H 0.78667 0.43919 0.83589
 H642 H 0.76787 0.41410 0.86030
 C643 C 0.24922 0.63954 0.94989
 C644 C 0.23600 0.62747 0.93621
 C645 C 0.24501 0.61679 0.91878
 C646 C 0.26746 0.61880 0.91483
 C647 C 0.28073 0.63082 0.92858
 C648 C 0.27174 0.64101 0.94638
 N649 N 0.23126 0.60305 0.90613
 N650 N 0.23822 0.59315 0.88984
 C651 C 0.22476 0.57844 0.87792
 C652 C 0.23335 0.56859 0.85986
 C653 C 0.22130 0.55286 0.84879
 C654 C 0.20041 0.54660 0.85571
 C655 C 0.19158 0.55695 0.87355
 C656 C 0.20362 0.57276 0.88455
 H657 H 0.24200 0.64733 0.96352
 H658 H 0.21875 0.62601 0.93944
 H659 H 0.27482 0.61063 0.90149
 H660 H 0.29808 0.63167 0.92567
 H661 H 0.24963 0.57279 0.85462
 H662 H 0.22860 0.54521 0.83513
 H663 H 0.17553 0.55252 0.87927
 H664 H 0.19663 0.58012 0.89850
 C665 C 0.07035 0.30225 0.38384
 C666 C 0.08517 0.29044 0.39598
 C667 C 0.08175 0.26808 0.39993
 C668 C 0.06336 0.25754 0.39137
 C669 C 0.04860 0.26931 0.37917
 C670 C 0.05191 0.29178 0.37540
 N671 N 0.09691 0.25653 0.41290
 N672 N 0.09395 0.23650 0.41786
 C673 C 0.10866 0.22468 0.43103
 C674 C 0.10324 0.20322 0.43686
 C675 C 0.11673 0.19136 0.45027
 C676 C 0.13608 0.20077 0.45803
 C677 C 0.14172 0.22223 0.45184
 C678 C 0.12809 0.23414 0.43850
 H679 H 0.07314 0.31959 0.38115
 H680 H 0.09925 0.29876 0.40250
 H681 H 0.06035 0.24027 0.39415
 H682 H 0.03453 0.26093 0.37271
 H683 H 0.08833 0.19575 0.43118
 H684 H 0.11193 0.17486 0.45466
 H685 H 0.15649 0.22994 0.45758
 H686 H 0.13264 0.25072 0.43416
 C687 C 0.07065 0.69198 0.60366
 C688 C 0.08637 0.70287 0.59155
 C689 C 0.09412 0.72356 0.59764
 C690 C 0.08667 0.73288 0.61657
 C691 C 0.07127 0.72179 0.62891
 C692 C 0.06284 0.70149 0.62229
 N693 N 0.10867 0.73518 0.58390
 N694 N 0.11215 0.75568 0.58586
 C695 C 0.12614 0.76760 0.57182
 C696 C 0.12489 0.79049 0.57140
 C697 C 0.13702 0.80258 0.55677
 C698 C 0.15102 0.79194 0.54261
 C699 C 0.15291 0.76900 0.54359
 C700 C 0.14040 0.75688 0.55796
 H701 H 0.06427 0.67632 0.59836
 H702 H 0.09198 0.69553 0.57701
 H703 H 0.09253 0.74880 0.62167
 H704 H 0.06541 0.72931 0.64328
 H705 H 0.11399 0.79892 0.58203
 H706 H 0.13535 0.82025 0.55643
 H707 H 0.16353 0.76040 0.53281
 H708 H 0.14170 0.73918 0.55809
 C709 C 0.94702 0.73374 0.37911
 C710 C 0.93220 0.74650 0.39033
 C711 C 0.91425 0.73670 0.40025
 C712 C 0.91115 0.71388 0.39871
 C713 C 0.92605 0.70108 0.38757
 C714 C 0.94416 0.71092 0.37780
 N715 N 0.89993 0.75021 0.41232
 N716 N 0.88282 0.74270 0.42114
 C717 C 0.86914 0.75628 0.43385
 C718 C 0.85037 0.74719 0.44293
 C719 C 0.83745 0.75966 0.45650
 C720 C 0.84322 0.78147 0.46129
 C721 C 0.86180 0.79070 0.45173
 C722 C 0.87463 0.77825 0.43812
 H723 H 0.96083 0.74162 0.37156
 H724 H 0.93477 0.76405 0.39143
 H725 H 0.89744 0.70593 0.40632
 H726 H 0.92361 0.68349 0.38673
 H727 H 0.84598 0.73028 0.43978
 H728 H 0.82327 0.75206 0.46364
 H729 H 0.86667 0.80746 0.45504
 H730 H 0.88905 0.78568 0.43129
 C731 C 0.95313 0.28404 0.60948
 C732 C 0.93883 0.27473 0.59491
 C733 C 0.91860 0.26655 0.60141
 C734 C 0.91263 0.26800 0.62275
 C735 C 0.92716 0.27690 0.63746
 C736 C 0.94766 0.28473 0.63097
 N737 N 0.90509 0.25574 0.58624
 N738 N 0.88493 0.25202 0.58925
 C739 C 0.87231 0.24013 0.57405
 C740 C 0.84971 0.24265 0.57360
 C741 C 0.83718 0.23141 0.55864
 C742 C 0.84708 0.21694 0.54436
 C743 C 0.86970 0.21409 0.54517
 C744 C 0.88225 0.22576 0.55972
 H745 H 0.96877 0.29017 0.60411
 H746 H 0.94360 0.27369 0.57852
 H747 H 0.89710 0.26161 0.62812
 H748 H 0.92264 0.27725 0.65396
 H749 H 0.84185 0.25360 0.58463
 H750 H 0.81974 0.23380 0.55839
 H751 H 0.87774 0.20310 0.53429
 H752 H 0.89967 0.22338 0.55993
 C753 C 0.36165 0.05917 0.25745
 C754 C 0.37287 0.07447 0.24508
 C755 C 0.38499 0.09131 0.25453
 C756 C 0.38508 0.09323 0.27660
 C757 C 0.37387 0.07790 0.28900
 C758 C 0.36250 0.06052 0.27949
 N759 N 0.39832 0.10504 0.24146
 N760 N 0.41003 0.12052 0.24884
 C761 C 0.42447 0.13302 0.23569
 C762 C 0.43662 0.15018 0.24455
 C763 C 0.45227 0.16137 0.23254
 C764 C 0.45611 0.15538 0.21147
 C765 C 0.44344 0.13854 0.20247
 C766 C 0.42774 0.12750 0.21443
 H767 H 0.35292 0.04584 0.24989
 H768 H 0.37273 0.07280 0.22810
 H769 H 0.39437 0.10609 0.28426
 H770 H 0.37470 0.07911 0.30600
 H771 H 0.43431 0.15454 0.26093
 H772 H 0.46178 0.17425 0.23993
 H773 H 0.44592 0.13361 0.18626
 H774 H 0.41859 0.11427 0.20721
 C775 C 0.59595 0.05149 0.70387
 C776 C 0.58246 0.06592 0.71473
 C777 C 0.59084 0.08547 0.72303
 C778 C 0.61288 0.09081 0.71986
 C779 C 0.62653 0.07616 0.70930
 C780 C 0.61824 0.05617 0.70162
 N781 N 0.57705 0.09857 0.73604
 N782 N 0.58162 0.11824 0.74120
 C783 C 0.56794 0.12998 0.75551
 C784 C 0.56805 0.15295 0.75541
 C785 C 0.55451 0.16457 0.76918
 C786 C 0.54123 0.15329 0.78367
 C787 C 0.54157 0.13026 0.78405
 C788 C 0.55462 0.11871 0.76997
 H789 H 0.58921 0.03626 0.69790
 H790 H 0.56551 0.06165 0.71712
 H791 H 0.61971 0.10579 0.72628
 H792 H 0.64367 0.08004 0.70774
 H793 H 0.57834 0.16183 0.74444
 H794 H 0.55456 0.18233 0.76864
 H795 H 0.53140 0.12116 0.79498
 H796 H 0.55447 0.10096 0.77050
 C797 C 0.40851 0.94359 0.69573
 C798 C 0.42153 0.92985 0.70789
 C799 C 0.41301 0.91952 0.72582
 C800 C 0.39125 0.92314 0.73156
 C801 C 0.37841 0.93744 0.71977
 C802 C 0.38698 0.94780 0.70181
 N803 N 0.42700 0.90635 0.73850
 N804 N 0.41972 0.89105 0.75024
 C805 C 0.43387 0.87886 0.76366
 C806 C 0.42883 0.85698 0.76842
 C807 C 0.44266 0.84471 0.78123
 C808 C 0.46125 0.85448 0.79010
 C809 C 0.46597 0.87658 0.78578
 C810 C 0.45255 0.88861 0.77239
 H811 H 0.41537 0.95148 0.68192
 H812 H 0.43830 0.92724 0.70337
 H813 H 0.38445 0.91549 0.74551
 H814 H 0.36188 0.94063 0.72476
 H815 H 0.41441 0.84934 0.76187
 H816 H 0.43871 0.82769 0.78445
 H817 H 0.48029 0.88439 0.79240
 H818 H 0.45657 0.90559 0.76907
 C819 C 0.60716 0.93337 0.30312
 C820 C 0.59469 0.91789 0.29217
 C821 C 0.60137 0.91045 0.27235
 C822 C 0.62113 0.91819 0.26381
 C823 C 0.63379 0.93341 0.27492
 C824 C 0.62669 0.94134 0.29448
 N825 N 0.58745 0.89578 0.26090
 N826 N 0.59041 0.89184 0.24143
 C827 C 0.57623 0.87776 0.22963
 C828 C 0.57719 0.87854 0.20765
 C829 C 0.56240 0.86650 0.19555
 C830 C 0.54668 0.85305 0.20529
 C831 C 0.54632 0.85150 0.22736
 C832 C 0.56086 0.86396 0.23949
 H833 H 0.60153 0.93929 0.31825
 H834 H 0.57951 0.91206 0.29891
 H835 H 0.62668 0.91260 0.24855
 H836 H 0.64891 0.93933 0.26813
 H837 H 0.58898 0.88907 0.19988
 H838 H 0.56312 0.86788 0.17855
 H839 H 0.53431 0.84131 0.23523
 H840 H 0.55992 0.86303 0.25649
 C841 C 0.38061 0.30925 0.92842
 C842 C 0.39192 0.29784 0.91280
 C843 C 0.39870 0.27631 0.91631
 C844 C 0.39373 0.26612 0.93558
 C845 C 0.38246 0.27747 0.95120
 C846 C 0.37594 0.29935 0.94802
 N847 N 0.41104 0.26534 0.90037
 N848 N 0.41796 0.24591 0.90300
 C849 C 0.43085 0.23482 0.88758
 C850 C 0.43847 0.21383 0.89221
 C851 C 0.45203 0.20291 0.87808
 C852 C 0.45818 0.21283 0.85896
 C853 C 0.45011 0.23375 0.85412
 C854 C 0.43657 0.24470 0.86833
 H855 H 0.37613 0.32612 0.92541
 H856 H 0.39569 0.30590 0.89803
 H857 H 0.39862 0.24940 0.93862
 H858 H 0.37851 0.26894 0.96570
 H859 H 0.43415 0.20607 0.90700
 H860 H 0.45792 0.18679 0.88228
 H861 H 0.45455 0.24184 0.83953
 H862 H 0.43085 0.26094 0.86441
 C863 C 0.64832 0.72877 0.93097
 C864 C 0.63607 0.73990 0.91589
 C865 C 0.61457 0.73351 0.91184
 C866 C 0.60575 0.71513 0.92222
 C867 C 0.61826 0.70351 0.93672
 C868 C 0.63947 0.71052 0.94153
 N869 N 0.60167 0.74630 0.89778
 N870 N 0.58143 0.74885 0.90109
 C871 C 0.56803 0.76134 0.88725
 C872 C 0.54983 0.77195 0.89554
 C873 C 0.53659 0.78461 0.88255
 C874 C 0.54094 0.78611 0.86090
 C875 C 0.55888 0.77502 0.85244
 C876 C 0.57259 0.76299 0.86561
 H877 H 0.66458 0.73453 0.93463
 H878 H 0.64300 0.75406 0.90799
 H879 H 0.58921 0.70987 0.91914
 H880 H 0.61118 0.68950 0.94475
 H881 H 0.54612 0.77071 0.91218
 H882 H 0.52272 0.79289 0.88934
 H883 H 0.56247 0.77599 0.83575
 H884 H 0.58650 0.75471 0.85891
 C885 C 0.36940 0.70352 0.06982
 C886 C 0.38259 0.71416 0.08461
 C887 C 0.39097 0.73511 0.08052
 C888 C 0.38581 0.74550 0.06145
 C889 C 0.37269 0.73490 0.04663
 C890 C 0.36440 0.71362 0.05044
 N891 N 0.40497 0.74534 0.09571
 N892 N 0.41302 0.76438 0.09273
 C893 C 0.42743 0.77476 0.10743
 C894 C 0.43569 0.79560 0.10263
 C895 C 0.45044 0.80596 0.11612
 C896 C 0.45722 0.79560 0.13476
 C897 C 0.44865 0.77477 0.13972
 C898 C 0.43387 0.76441 0.12616
 H899 H 0.36367 0.68706 0.07327
 H900 H 0.38650 0.70594 0.09923
 H901 H 0.39195 0.76178 0.05795
 H902 H 0.36867 0.74358 0.03229
 H903 H 0.43085 0.80373 0.08825
 H904 H 0.45669 0.82200 0.11182
 H905 H 0.45355 0.76635 0.15394
 H906 H 0.42770 0.74827 0.13019
 C907 C 0.61748 0.29980 0.05998
 C908 C 0.60424 0.28999 0.07529
 C909 C 0.60976 0.26963 0.08388
 C910 C 0.62903 0.25936 0.07735
 C911 C 0.64251 0.26940 0.06237
 C912 C 0.63675 0.28961 0.05351
 N913 N 0.59536 0.25959 0.09886
 N914 N 0.59646 0.23931 0.10347
 C915 C 0.58194 0.22931 0.11835
 C916 C 0.57921 0.20650 0.11810
 C917 C 0.56403 0.19639 0.13142
 C918 C 0.55174 0.20894 0.14561
 C919 C 0.55513 0.23174 0.14645
 C920 C 0.56995 0.24189 0.13277
 H921 H 0.61271 0.31531 0.05314
 H922 H 0.58941 0.29803 0.08016
 H923 H 0.63365 0.24366 0.08384
 H924 H 0.65729 0.26129 0.05743
 H925 H 0.58841 0.19663 0.10711
 H926 H 0.56177 0.17877 0.13052
 H927 H 0.54579 0.24180 0.15717
 H928 H 0.57193 0.25954 0.13334
 C929 C 0.30958 0.07523 0.61728
 C930 C 0.29704 0.08992 0.60560
 C931 C 0.27640 0.08377 0.59836
 C932 C 0.26828 0.06277 0.60318
 C933 C 0.28078 0.04806 0.61473
 C934 C 0.30178 0.05390 0.62174
 N935 N 0.26417 0.09880 0.58578
 N936 N 0.24516 0.09395 0.57931
 C937 C 0.23258 0.10812 0.56623
 C938 C 0.21174 0.10124 0.56032
 C939 C 0.19918 0.11404 0.54688
 C940 C 0.20729 0.13407 0.53902
 C941 C 0.22816 0.14114 0.54521
 C942 C 0.24073 0.12826 0.55872
 H943 H 0.32570 0.08031 0.62220
 H944 H 0.30351 0.10606 0.60198
 H945 H 0.25230 0.05763 0.59794
 H946 H 0.27383 0.03214 0.61847
 H947 H 0.20531 0.08574 0.56599
 H948 H 0.18319 0.10809 0.54247
 H949 H 0.23486 0.15648 0.53942
 H950 H 0.25684 0.13389 0.56308
 C951 C 0.70219 0.04865 0.40057
 C952 C 0.71282 0.06317 0.41414
 C953 C 0.72182 0.08274 0.40648
 C954 C 0.71978 0.08789 0.38500
 C955 C 0.70948 0.07314 0.37128
 C956 C 0.70091 0.05323 0.37893
 N957 N 0.73408 0.09626 0.42061
 N958 N 0.73937 0.11603 0.41652
 C959 C 0.75270 0.12839 0.43078
 C960 C 0.75247 0.15135 0.43015
 C961 C 0.76512 0.16362 0.44429
 C962 C 0.77867 0.15299 0.45881
 C963 C 0.77923 0.12997 0.45905
 C964 C 0.76622 0.11778 0.44531
 H965 H 0.69549 0.03351 0.40682
 H966 H 0.71431 0.05903 0.43066
 H967 H 0.72675 0.10290 0.37874
 H968 H 0.70864 0.07698 0.35465
 H969 H 0.74220 0.15973 0.41895
 H970 H 0.76445 0.18135 0.44376
 H971 H 0.78943 0.12136 0.47015
 H972 H 0.76685 0.10005 0.44594
 C973 C 0.73387 0.93912 0.64584
 C974 C 0.74625 0.92424 0.63418
 C975 C 0.73763 0.91443 0.61604
 C976 C 0.71646 0.91976 0.60959
 C977 C 0.70428 0.93494 0.62098
 C978 C 0.71288 0.94468 0.63918
 N979 N 0.75085 0.89985 0.60391
 N980 N 0.74258 0.88717 0.59012
 C981 C 0.75550 0.87338 0.57691
 C982 C 0.74520 0.85684 0.56529
 C983 C 0.75707 0.84392 0.55128
 C984 C 0.77945 0.84768 0.54834
 C985 C 0.78983 0.86420 0.56016
 C986 C 0.77799 0.87685 0.57448
 H987 H 0.74076 0.94663 0.65980
 H988 H 0.76258 0.92038 0.63923
 H989 H 0.70954 0.91258 0.59550
 H990 H 0.68818 0.93923 0.61555
 H991 H 0.72786 0.85411 0.56696
 H992 H 0.74861 0.83141 0.54230
 H993 H 0.80707 0.86743 0.55822
 H994 H 0.78625 0.88969 0.58319
 C995 C 0.30589 0.92475 0.36975
 C996 C 0.29506 0.90922 0.38230
 C997 C 0.27330 0.91225 0.38805
 C998 C 0.26223 0.93073 0.38056
 C999 C 0.27296 0.94621 0.36807
 C1000 C 0.29507 0.94372 0.36275
 N1001 N 0.26299 0.89699 0.40214
 N1002 N 0.24370 0.90008 0.40874
 C1003 C 0.23293 0.88577 0.42335
 C1004 C 0.21216 0.89141 0.43040
 C1005 C 0.20144 0.87859 0.44543
 C1006 C 0.21131 0.85972 0.45367
 C1007 C 0.23205 0.85381 0.44626
 C1008 C 0.24283 0.86678 0.43124
 H1009 H 0.32298 0.92240 0.36633
 H1010 H 0.30382 0.89508 0.38801
 H1011 H 0.24534 0.93340 0.38459
 H1012 H 0.26391 0.96025 0.36254
 H1013 H 0.20439 0.90602 0.42442
 H1014 H 0.18547 0.88357 0.45073
 H1015 H 0.24008 0.83939 0.45230
 H1016 H 0.25890 0.86211 0.42600
 C1017 C 0.07058 0.36722 0.70922
 C1018 C 0.08536 0.38091 0.71960
 C1019 C 0.08856 0.37893 0.74130
 C1020 C 0.07750 0.36233 0.75246
 C1021 C 0.06298 0.34832 0.74201
 C1022 C 0.05894 0.35096 0.72035
 N1023 N 0.10237 0.39454 0.75167
 N1024 N 0.10265 0.39669 0.77161
 C1025 C 0.11600 0.41286 0.78177
 C1026 C 0.11232 0.41761 0.80303
 C1027 C 0.12393 0.43445 0.81300
 C1028 C 0.13974 0.44659 0.80188
 C1029 C 0.14393 0.44130 0.78071
 C1030 C 0.13206 0.42469 0.77069
 H1031 H 0.06771 0.36976 0.69256
 H1032 H 0.09380 0.39364 0.71084
 H1033 H 0.07993 0.36033 0.76923
 H1034 H 0.05464 0.33561 0.75088
 H1035 H 0.10000 0.40861 0.81174
 H1036 H 0.12043 0.43807 0.82935
 H1037 H 0.15598 0.45039 0.77174
 H1038 H 0.13527 0.42126 0.75425
 C1039 C 0.07086 0.62089 0.30484
 C1040 C 0.08561 0.60914 0.29249
 C1041 C 0.08048 0.60349 0.27173
 C1042 C 0.06047 0.61003 0.26328
 C1043 C 0.04572 0.62175 0.27557
 C1044 C 0.05054 0.62719 0.29665
 N1045 N 0.09552 0.59068 0.25971
 N1046 N 0.09127 0.58461 0.24097
 C1047 C 0.10571 0.57136 0.22876
 C1048 C 0.09921 0.56476 0.20864
 C1049 C 0.11235 0.55101 0.19657
 C1050 C 0.13236 0.54364 0.20444
 C1051 C 0.13908 0.55063 0.22454
 C1052 C 0.12584 0.56435 0.23664
 H1053 H 0.07507 0.62440 0.32106
 H1054 H 0.10096 0.60413 0.29922
 H1055 H 0.05615 0.60602 0.24721
 H1056 H 0.03059 0.62685 0.26843
 H1057 H 0.08373 0.57006 0.20241
 H1058 H 0.10671 0.54599 0.18115
 H1059 H 0.15439 0.54523 0.23106
 H1060 H 0.13121 0.56927 0.25218
 C1061 C 0.95243 0.37548 0.26840
 C1062 C 0.93831 0.38689 0.25526
 C1063 C 0.91820 0.39400 0.26274
 C1064 C 0.91202 0.38905 0.28354
 C1065 C 0.92613 0.37756 0.29676
 C1066 C 0.94679 0.37096 0.28953
 N1067 N 0.90488 0.40692 0.24914
 N1068 N 0.88647 0.41434 0.25477
 C1069 C 0.87381 0.42798 0.24117
 C1070 C 0.85374 0.43570 0.24829
 C1071 C 0.84158 0.45005 0.23590
 C1072 C 0.84937 0.45697 0.21611
 C1073 C 0.86935 0.44883 0.20882
 C1074 C 0.88147 0.43446 0.22122
 H1075 H 0.96780 0.37003 0.26195
 H1076 H 0.94319 0.39045 0.23921
 H1077 H 0.89652 0.39443 0.28970
 H1078 H 0.92124 0.37468 0.31294
 H1079 H 0.84767 0.43086 0.26364
 H1080 H 0.82626 0.45600 0.24199
 H1081 H 0.87581 0.45381 0.19366
 H1082 H 0.89696 0.42873 0.21534
 C1083 C 0.93555 0.60944 0.68875
 C1084 C 0.91993 0.59717 0.69973
 C1085 C 0.91375 0.60319 0.72014
 C1086 C 0.92279 0.62222 0.72921
 C1087 C 0.93818 0.63467 0.71814
 C1088 C 0.94500 0.62823 0.69793
 N1089 N 0.89931 0.58912 0.73174
 N1090 N 0.89637 0.59152 0.75145
 C1091 C 0.88274 0.57712 0.76355
 C1092 C 0.88410 0.57796 0.78551
 C1093 C 0.87263 0.56287 0.79789
 C1094 C 0.85921 0.54691 0.78847
 C1095 C 0.85709 0.54667 0.76643
 C1096 C 0.86894 0.56155 0.75402
 H1097 H 0.94079 0.60387 0.67336
 H1098 H 0.91318 0.58248 0.69262
 H1099 H 0.91819 0.62728 0.74493
 H1100 H 0.94510 0.64916 0.72551
 H1101 H 0.89466 0.58989 0.79302
 H1102 H 0.87447 0.56352 0.81484
 H1103 H 0.84691 0.53449 0.75879
 H1104 H 0.86758 0.56067 0.73705
 C1105 C 0.74433 0.62949 0.95137
 C1106 C 0.75714 0.61744 0.93747
 C1107 C 0.74824 0.60878 0.91902
 C1108 C 0.72628 0.61263 0.91433
 C1109 C 0.71338 0.62478 0.92822
 C1110 C 0.72216 0.63320 0.94710
 N1111 N 0.76179 0.59564 0.90580
 N1112 N 0.75512 0.58656 0.88894
 C1113 C 0.76917 0.57297 0.87658
 C1114 C 0.76108 0.56276 0.85844
 C1115 C 0.77418 0.54853 0.84675
 C1116 C 0.79565 0.54427 0.85310
 C1117 C 0.80383 0.55490 0.87110
 C1118 C 0.79075 0.56910 0.88272
 H1119 H 0.75184 0.63612 0.96544
 H1120 H 0.77407 0.61465 0.94119
 H1121 H 0.71903 0.60599 0.90015
 H1122 H 0.69633 0.62694 0.92455
 H1123 H 0.74448 0.56559 0.85354
 H1124 H 0.76740 0.54059 0.83297
 H1125 H 0.82029 0.55205 0.87641
 H1126 H 0.79745 0.57679 0.89666
 C1127 C 0.30565 0.38371 0.93019
 C1128 C 0.29348 0.39498 0.91515
 C1129 C 0.27213 0.40127 0.91955
 C1130 C 0.26295 0.39600 0.93921
 C1131 C 0.27507 0.38481 0.95426
 C1132 C 0.29670 0.37861 0.95010
 N1133 N 0.26018 0.41327 0.90407
 N1134 N 0.24073 0.41932 0.90748
 C1135 C 0.22843 0.43171 0.89262
 C1136 C 0.20738 0.43802 0.89813
 C1137 C 0.19509 0.45086 0.88449
 C1138 C 0.20368 0.45762 0.86498
 C1139 C 0.22474 0.45094 0.85928
 C1140 C 0.23706 0.43810 0.87302
 H1141 H 0.32231 0.37953 0.92646
 H1142 H 0.30077 0.39900 0.90008
 H1143 H 0.24641 0.40053 0.94297
 H1144 H 0.26728 0.38056 0.96904
 H1145 H 0.20058 0.43317 0.91319
 H1146 H 0.17892 0.45566 0.88935
 H1147 H 0.23181 0.45590 0.84438
 H1148 H 0.25334 0.43338 0.86844
 C1149 C 0.29019 0.63333 0.07341
 C1150 C 0.27903 0.62143 0.08893
 C1151 C 0.25729 0.61529 0.08598
 C1152 C 0.24655 0.62178 0.06753
 C1153 C 0.25764 0.63361 0.05201
 C1154 C 0.27979 0.63917 0.05445
 N1155 N 0.24675 0.60162 0.10132
 N1156 N 0.22724 0.59503 0.09883
 C1157 C 0.21650 0.58050 0.11325
 C1158 C 0.19540 0.57344 0.10854
 C1159 C 0.18490 0.55797 0.12126
 C1160 C 0.19538 0.54930 0.13904
 C1161 C 0.21638 0.55691 0.14412
 C1162 C 0.22691 0.57236 0.13128
 H1163 H 0.30724 0.63708 0.07584
 H1164 H 0.28751 0.61650 0.10307
 H1165 H 0.22967 0.61746 0.06494
 H1166 H 0.24880 0.63851 0.03806
 H1167 H 0.18724 0.57960 0.09468
 H1168 H 0.16871 0.55254 0.11695
 H1169 H 0.22487 0.55054 0.15770
 H1170 H 0.24326 0.57760 0.13521
 C1171 C 0.72664 0.38941 0.04396
 C1172 C 0.73709 0.40349 0.05803
 C1173 C 0.74009 0.39735 0.07898
 C1174 C 0.73266 0.37672 0.08582
 C1175 C 0.72252 0.36235 0.07163
 C1176 C 0.71929 0.36847 0.05042
 N1177 N 0.75130 0.41222 0.09265
 N1178 N 0.75129 0.41043 0.11262
 C1179 C 0.76337 0.42563 0.12533
 C1180 C 0.75870 0.42752 0.14686
 C1181 C 0.76989 0.44287 0.15929
 C1182 C 0.78626 0.45619 0.15037
 C1183 C 0.79118 0.45387 0.12887
 C1184 C 0.77977 0.43887 0.11645
 H1185 H 0.72395 0.39513 0.02804
 H1186 H 0.74271 0.41940 0.05262
 H1187 H 0.73511 0.37155 0.10194
 H1188 H 0.71772 0.34621 0.07715
 H1189 H 0.74613 0.41736 0.15391
 H1190 H 0.76583 0.44427 0.17584
 H1191 H 0.80365 0.46393 0.12152
 H1192 H 0.78382 0.43761 0.09989
 C1193 C 0.95579 0.71022 0.59701
 C1194 C 0.94110 0.72218 0.58497
 C1195 C 0.92098 0.72816 0.59333
 C1196 C 0.91557 0.72199 0.61399
 C1197 C 0.93042 0.71034 0.62624
 C1198 C 0.95091 0.70442 0.61802
 N1199 N 0.90672 0.74106 0.58069
 N1200 N 0.88672 0.74368 0.58511
 C1201 C 0.87323 0.75726 0.57229
 C1202 C 0.85061 0.75450 0.57296
 C1203 C 0.83725 0.76687 0.55976
 C1204 C 0.84637 0.78261 0.54610
 C1205 C 0.86901 0.78585 0.54602
 C1206 C 0.88234 0.77316 0.55884
 H1207 H 0.97097 0.70532 0.58977
 H1208 H 0.94537 0.72673 0.56899
 H1209 H 0.90013 0.72663 0.62082
 H1210 H 0.92615 0.70660 0.64242
 H1211 H 0.84339 0.74236 0.58334
 H1212 H 0.81984 0.76411 0.56017
 H1213 H 0.87649 0.79779 0.53559
 H1214 H 0.89977 0.77574 0.55822
 C1215 C 0.92020 0.30766 0.37625
 C1216 C 0.90386 0.29704 0.38787
 C1217 C 0.90707 0.27584 0.39564
 C1218 C 0.92674 0.26516 0.39131
 C1219 C 0.94309 0.27574 0.37983
 C1220 C 0.94026 0.29731 0.37237
 N1221 N 0.89058 0.26571 0.40844
 N1222 N 0.89288 0.24632 0.41547
 C1223 C 0.87737 0.23574 0.42897
 C1224 C 0.88165 0.21439 0.43570
 C1225 C 0.86773 0.20383 0.44987
 C1226 C 0.84916 0.21449 0.45763
 C1227 C 0.84459 0.23582 0.45050
 C1228 C 0.85862 0.24640 0.43627
 H1229 H 0.91744 0.32431 0.37098
 H1230 H 0.88879 0.30548 0.39113
 H1231 H 0.92961 0.24869 0.39697
 H1232 H 0.95793 0.26688 0.37656
 H1233 H 0.89606 0.20604 0.43018
 H1234 H 0.87172 0.18741 0.45496
 H1235 H 0.83043 0.24447 0.45620
 H1236 H 0.85502 0.26296 0.43128
 C1237 C 0.06238 0.24805 0.64843
 C1238 C 0.07627 0.23557 0.63581
 C1239 C 0.08593 0.24478 0.61784
 C1240 C 0.08176 0.26679 0.61274
 C1241 C 0.06761 0.27914 0.62513
 C1242 C 0.05771 0.26981 0.64295
 N1243 N 0.09886 0.23123 0.60437
 N1244 N 0.11055 0.23934 0.58971
 C1245 C 0.12247 0.22598 0.57526
 C1246 C 0.13789 0.23594 0.56208
 C1247 C 0.14890 0.22364 0.54692
 C1248 C 0.14431 0.20116 0.54441
 C1249 C 0.12892 0.19113 0.55778
 C1250 C 0.11819 0.20340 0.57319
 H1251 H 0.05474 0.24060 0.66208
 H1252 H 0.07927 0.21861 0.63984
 H1253 H 0.08889 0.27423 0.59884
 H1254 H 0.06402 0.29587 0.62063
 H1255 H 0.14123 0.25335 0.56345
 H1256 H 0.16058 0.23184 0.53678
 H1257 H 0.12510 0.17384 0.55624
 H1258 H 0.10619 0.19539 0.58311
 C1259 C 0.07385 0.69430 0.38477
 C1260 C 0.08994 0.70572 0.39592
 C1261 C 0.08877 0.72853 0.39823
 C1262 C 0.07160 0.73993 0.38871
 C1263 C 0.05561 0.72856 0.37748
 C1264 C 0.05640 0.70563 0.37574
 N1265 N 0.10462 0.73964 0.41095
 N1266 N 0.10309 0.76000 0.41505
 C1267 C 0.11822 0.77143 0.42826
 C1268 C 0.11397 0.79325 0.43350
 C1269 C 0.12756 0.80462 0.44736
 C1270 C 0.14585 0.79437 0.45610
 C1271 C 0.15045 0.77260 0.45037
 C1272 C 0.13668 0.76116 0.43662
 H1273 H 0.07474 0.67661 0.38353
 H1274 H 0.10308 0.69675 0.40317
 H1275 H 0.07038 0.75757 0.39016
 H1276 H 0.04238 0.73758 0.37043
 H1277 H 0.09980 0.80132 0.42714
 H1278 H 0.12362 0.82140 0.45136
 H1279 H 0.16439 0.76426 0.45687
 H1280 H 0.14030 0.74428 0.43275
 C1281 C 0.60450 0.94661 0.71193
 C1282 C 0.59171 0.93094 0.72223
 C1283 C 0.60138 0.91362 0.73302
 C1284 C 0.62412 0.91165 0.73289
 C1285 C 0.63698 0.92694 0.72198
 C1286 C 0.62733 0.94481 0.71159
 N1287 N 0.58768 0.89849 0.74414
 N1288 N 0.59432 0.88749 0.75985
 C1289 C 0.57997 0.87279 0.77077
 C1290 C 0.58256 0.86975 0.79246
 C1291 C 0.56717 0.85766 0.80393
 C1292 C 0.54943 0.84777 0.79365
 C1293 C 0.54756 0.84974 0.77171
 C1294 C 0.56255 0.86245 0.76037
 H1295 H 0.59652 0.95994 0.70381
 H1296 H 0.57418 0.93255 0.72217
 H1297 H 0.63187 0.89825 0.74109
 H1298 H 0.65450 0.92520 0.72219
 H1299 H 0.59593 0.87765 0.80063
 H1300 H 0.56891 0.85629 0.82085
 H1301 H 0.53392 0.84235 0.76351
 H1302 H 0.56037 0.86449 0.74357
 C1303 C 0.39791 0.94729 0.29128
 C1304 C 0.41175 0.93389 0.27960
 C1305 C 0.40356 0.92087 0.26328
 C1306 C 0.38121 0.92127 0.25877
 C1307 C 0.36740 0.93512 0.27009
 C1308 C 0.37562 0.94838 0.28644
 N1309 N 0.41842 0.90835 0.25084
 N1310 N 0.41239 0.89188 0.23995
 C1311 C 0.42749 0.88028 0.22694
 C1312 C 0.42416 0.85791 0.22308
 C1313 C 0.43919 0.84611 0.21110
 C1314 C 0.45732 0.85676 0.20216
 C1315 C 0.46023 0.87937 0.20542
 C1316 C 0.44559 0.89100 0.21798
 H1317 H 0.40468 0.95729 0.30380
 H1318 H 0.42896 0.93375 0.28318
 H1319 H 0.37462 0.91155 0.24599
 H1320 H 0.35046 0.93609 0.26555
 H1321 H 0.41021 0.84951 0.22982
 H1322 H 0.43662 0.82869 0.20871
 H1323 H 0.47415 0.88788 0.19875
 H1324 H 0.44829 0.90835 0.22060
 C1325 C 0.63563 0.07546 0.29390
 C1326 C 0.62465 0.09159 0.28250
 C1327 C 0.60417 0.08714 0.27391
 C1328 C 0.59430 0.06667 0.27764
 C1329 C 0.60503 0.05071 0.28935
 C1330 C 0.62617 0.05455 0.29720
 N1331 N 0.59377 0.10340 0.26120
 N1332 N 0.57853 0.09814 0.24860
 C1333 C 0.56735 0.11376 0.23585
 C1334 C 0.55394 0.10598 0.21971
 C1335 C 0.54219 0.12055 0.20728
 C1336 C 0.54333 0.14325 0.21105
 C1337 C 0.55690 0.15110 0.22724
 C1338 C 0.56898 0.13646 0.23947
 H1339 H 0.65190 0.07911 0.29944
 H1340 H 0.63240 0.10735 0.27981
 H1341 H 0.57823 0.06304 0.27158
 H1342 H 0.59666 0.03534 0.29239
 H1343 H 0.55253 0.08852 0.21683
 H1344 H 0.53176 0.11396 0.19506
 H1345 H 0.55807 0.16850 0.23051
 H1346 H 0.57919 0.14281 0.25196
 C1347 C 0.37941 0.08111 0.69510
 C1348 C 0.38920 0.09757 0.70725
 C1349 C 0.39442 0.09371 0.72834
 C1350 C 0.38907 0.07336 0.73743
 C1351 C 0.37935 0.05690 0.72534
 C1352 C 0.37483 0.06030 0.70383
 N1353 N 0.40624 0.11009 0.73988
 N1354 N 0.41197 0.10695 0.75888
 C1355 C 0.42490 0.12237 0.77045
 C1356 C 0.43137 0.11682 0.79084
 C1357 C 0.44574 0.13033 0.80194
 C1358 C 0.45386 0.14975 0.79281
 C1359 C 0.44668 0.15574 0.77261
 C1360 C 0.43234 0.14211 0.76146
 H1361 H 0.37633 0.08435 0.67860
 H1362 H 0.39328 0.11317 0.70005
 H1363 H 0.39274 0.07000 0.75377
 H1364 H 0.37535 0.04142 0.73284
 H1365 H 0.42574 0.10164 0.79791
 H1366 H 0.45087 0.12529 0.81749
 H1367 H 0.45265 0.17059 0.76515
 H1368 H 0.42754 0.14673 0.74569
 C1369 C 0.64190 0.74327 0.04820
 C1370 C 0.62946 0.75610 0.06183
 C1371 C 0.61719 0.74629 0.07792
 C1372 C 0.61796 0.72340 0.08060
 C1373 C 0.63033 0.71054 0.06690
 C1374 C 0.64210 0.72036 0.05041
 N1375 N 0.60331 0.75976 0.09054
 N1376 N 0.59204 0.75204 0.10569
 C1377 C 0.57742 0.76537 0.11764
 C1378 C 0.56653 0.75613 0.13489
 C1379 C 0.55139 0.76836 0.14630
 C1380 C 0.54674 0.79009 0.14048
 C1381 C 0.55787 0.79942 0.12326
 C1382 C 0.57312 0.78720 0.11197
 H1383 H 0.65093 0.75111 0.03558
 H1384 H 0.62899 0.77370 0.05960
 H1385 H 0.60860 0.71543 0.09290
 H1386 H 0.63030 0.69288 0.06880
 H1387 H 0.56965 0.73931 0.13938
 H1388 H 0.54308 0.76068 0.15945
 H1389 H 0.55470 0.81612 0.11842
 H1390 H 0.58127 0.79470 0.09864
 C1391 C 0.37552 0.27139 0.05267
 C1392 C 0.38723 0.25825 0.06652
 C1393 C 0.39793 0.26756 0.08379
 C1394 C 0.39638 0.29026 0.08741
 C1395 C 0.38464 0.30346 0.07352
 C1396 C 0.37437 0.29412 0.05591
 N1397 N 0.41096 0.25369 0.09676
 N1398 N 0.42131 0.26071 0.11276
 C1399 C 0.43488 0.24651 0.12489
 C1400 C 0.44537 0.25476 0.14279
 C1401 C 0.45937 0.24146 0.15443
 C1402 C 0.46320 0.21968 0.14820
 C1403 C 0.45247 0.21141 0.13033
 C1404 C 0.43842 0.22466 0.11881
 H1405 H 0.36765 0.26392 0.03918
 H1406 H 0.38834 0.24079 0.06358
 H1407 H 0.40456 0.29781 0.10067
 H1408 H 0.38397 0.32099 0.07619
 H1409 H 0.44282 0.27158 0.14762
 H1410 H 0.46741 0.24832 0.16811
 H1411 H 0.45501 0.19469 0.12514
 H1412 H 0.43056 0.21788 0.10500
 C1413 C 0.64727 0.26164 0.93861
 C1414 C 0.63505 0.24975 0.92394
 C1415 C 0.61659 0.25898 0.91475
 C1416 C 0.61037 0.28033 0.92047
 C1417 C 0.62236 0.29208 0.93542
 C1418 C 0.64091 0.28281 0.94453
 N1419 N 0.60392 0.24607 0.90042
 N1420 N 0.58924 0.25446 0.88892
 C1421 C 0.57573 0.24137 0.87547
 C1422 C 0.56222 0.25180 0.86095
 C1423 C 0.54777 0.23956 0.84859
 C1424 C 0.54636 0.21666 0.85087
 C1425 C 0.56022 0.20618 0.86521
 C1426 C 0.57489 0.21841 0.87732
 H1427 H 0.66149 0.25425 0.94562
 H1428 H 0.63992 0.23327 0.91976
 H1429 H 0.59602 0.28771 0.91374
 H1430 H 0.61718 0.30834 0.93998
 H1431 H 0.56267 0.26949 0.85944
 H1432 H 0.53720 0.24810 0.83776
 H1433 H 0.55952 0.18856 0.86728
 H1434 H 0.58511 0.20998 0.88853
 C1435 C 0.36610 0.70302 0.92466
 C1436 C 0.37898 0.71334 0.90935
 C1437 C 0.38420 0.73566 0.91114
 C1438 C 0.37585 0.74776 0.92815
 C1439 C 0.36295 0.73747 0.94341
 C1440 C 0.35826 0.71496 0.94195
 N1441 N 0.39880 0.74540 0.89613
 N1442 N 0.40497 0.76530 0.89769
 C1443 C 0.42027 0.77512 0.88344
 C1444 C 0.42701 0.79674 0.88707
 C1445 C 0.44301 0.80644 0.87444
 C1446 C 0.45255 0.79464 0.85782
 C1447 C 0.44533 0.77308 0.85383
 C1448 C 0.42935 0.76337 0.86657
 H1449 H 0.36270 0.68562 0.92332
 H1450 H 0.38534 0.70383 0.89635
 H1451 H 0.37961 0.76504 0.92988
 H1452 H 0.35697 0.74694 0.95662
 H1453 H 0.42013 0.80595 0.90003
 H1454 H 0.44814 0.82308 0.87790
 H1455 H 0.45235 0.76356 0.84116
 H1456 H 0.42438 0.74661 0.86345
 C1457 C 0.72923 0.93477 0.36375
 C1458 C 0.74139 0.91981 0.37543
 C1459 C 0.73269 0.91030 0.39370
 C1460 C 0.71157 0.91588 0.40019
 C1461 C 0.69957 0.93115 0.38875
 C1462 C 0.70836 0.94073 0.37050
 N1463 N 0.74596 0.89599 0.40599
 N1464 N 0.73801 0.88393 0.42049
 C1465 C 0.75142 0.87064 0.43367
 C1466 C 0.74162 0.85463 0.44641
 C1467 C 0.75414 0.84222 0.46029
 C1468 C 0.77665 0.84599 0.46195
 C1469 C 0.78648 0.86197 0.44903
 C1470 C 0.77400 0.87407 0.43487
 H1471 H 0.73625 0.94212 0.34975
 H1472 H 0.75769 0.91573 0.37035
 H1473 H 0.70459 0.90891 0.41438
 H1474 H 0.68353 0.93571 0.39421
 H1475 H 0.72422 0.85192 0.44569
 H1476 H 0.74613 0.83011 0.47015
 H1477 H 0.80380 0.86518 0.44995
 H1478 H 0.78190 0.88648 0.42529
 C1479 C 0.31917 0.92499 0.61249
 C1480 C 0.30753 0.90941 0.60075
 C1481 C 0.28484 0.91065 0.59922
 C1482 C 0.27382 0.92735 0.61007
 C1483 C 0.28540 0.94283 0.62180
 C1484 C 0.30815 0.94195 0.62289
 N1485 N 0.27337 0.89551 0.58591
 N1486 N 0.25299 0.89725 0.58298
 C1487 C 0.24083 0.88312 0.56932
 C1488 C 0.21887 0.88770 0.56605
 C1489 C 0.20661 0.87523 0.55192
 C1490 C 0.21611 0.85776 0.54085
 C1491 C 0.23808 0.85279 0.54456
 C1492 C 0.25041 0.86545 0.55863
 H1493 H 0.33674 0.92413 0.61312
 H1494 H 0.31622 0.89666 0.59246
 H1495 H 0.25631 0.92868 0.60921
 H1496 H 0.27666 0.95579 0.62977
 H1497 H 0.21133 0.90127 0.57421
 H1498 H 0.18972 0.87943 0.54953
 H1499 H 0.24584 0.83944 0.53624
 H1500 H 0.26740 0.86162 0.56096
 C1501 C 0.29729 0.07468 0.36962
 C1502 C 0.28557 0.08925 0.38222
 C1503 C 0.26354 0.08536 0.38657
 C1504 C 0.25312 0.06701 0.37759
 C1505 C 0.26478 0.05253 0.36489
 C1506 C 0.28705 0.05605 0.36109
 N1507 N 0.25242 0.09968 0.40081
 N1508 N 0.23298 0.09592 0.40683
 C1509 C 0.22202 0.10976 0.42161
 C1510 C 0.20132 0.10359 0.42874
 C1511 C 0.19065 0.11602 0.44406
 C1512 C 0.20052 0.13498 0.45243
 C1513 C 0.22113 0.14142 0.44488
 C1514 C 0.23182 0.12890 0.42964
 H1515 H 0.31446 0.07763 0.36692
 H1516 H 0.29378 0.10331 0.38905
 H1517 H 0.23608 0.06368 0.38065
 H1518 H 0.25659 0.03829 0.35836
 H1519 H 0.19360 0.08888 0.42268
 H1520 H 0.17478 0.11064 0.44949
 H1521 H 0.22918 0.15593 0.45100
 H1522 H 0.24782 0.13402 0.42436
 C1523 C 0.70291 0.04996 0.60405
 C1524 C 0.71345 0.06428 0.59019
 C1525 C 0.72116 0.08463 0.59722
 C1526 C 0.71796 0.09073 0.61834
 C1527 C 0.70776 0.07619 0.63237
 C1528 C 0.70044 0.05556 0.62537
 N1529 N 0.73343 0.09799 0.58291
 N1530 N 0.73763 0.11817 0.58619
 C1531 C 0.75112 0.13030 0.57184
 C1532 C 0.74995 0.15323 0.57121
 C1533 C 0.76285 0.16520 0.55698
 C1534 C 0.77754 0.15433 0.54366
 C1535 C 0.77898 0.13138 0.54469
 C1536 C 0.76577 0.11946 0.55848
 H1537 H 0.69720 0.03421 0.59830
 H1538 H 0.71587 0.05941 0.57395
 H1539 H 0.72397 0.10634 0.62412
 H1540 H 0.70600 0.08079 0.64876
 H1541 H 0.73880 0.16178 0.58151
 H1542 H 0.76149 0.18289 0.55652
 H1543 H 0.79007 0.12258 0.53452
 H1544 H 0.76714 0.10177 0.55884
 C1545 C 0.92117 0.62074 0.31129
 C1546 C 0.90505 0.60917 0.30033
 C1547 C 0.90626 0.60703 0.27840
 C1548 C 0.92356 0.61709 0.26744
 C1549 C 0.93963 0.62867 0.27836
 C1550 C 0.93871 0.63034 0.30038
 N1551 N 0.89040 0.59382 0.26768
 N1552 N 0.89166 0.59047 0.24794
 C1553 C 0.87677 0.57664 0.23674
 C1554 C 0.88078 0.57260 0.21544
 C1555 C 0.86775 0.55788 0.20424
 C1556 C 0.85026 0.54703 0.21417
 C1557 C 0.84575 0.55167 0.23543
 C1558 C 0.85899 0.56631 0.24670
 H1559 H 0.92024 0.62187 0.32829
 H1560 H 0.89184 0.60148 0.30896
 H1561 H 0.92488 0.61573 0.25049
 H1562 H 0.95298 0.63608 0.26970
 H1563 H 0.89442 0.58048 0.20762
 H1564 H 0.87157 0.55478 0.18786
 H1565 H 0.83242 0.54352 0.24348
 H1566 H 0.85558 0.56924 0.26319
 C1567 C 0.92821 0.35104 0.72136
 C1568 C 0.91334 0.36426 0.73210
 C1569 C 0.91833 0.38627 0.73628
 C1570 C 0.93793 0.39528 0.72867
 C1571 C 0.95254 0.38224 0.71751
 C1572 C 0.94809 0.35986 0.71427
 N1573 N 0.90357 0.39911 0.74856
 N1574 N 0.90998 0.41634 0.75811
 C1575 C 0.89566 0.42981 0.77021
 C1576 C 0.90466 0.44531 0.78397
 C1577 C 0.89125 0.45908 0.79573
 C1578 C 0.86854 0.45788 0.79355
 C1579 C 0.85950 0.44230 0.77970
 C1580 C 0.87295 0.42821 0.76825
 H1581 H 0.92442 0.33385 0.71891
 H1582 H 0.89822 0.35717 0.73776
 H1583 H 0.94196 0.41235 0.73142
 H1584 H 0.96761 0.38945 0.71186
 H1585 H 0.92215 0.44671 0.78555
 H1586 H 0.89867 0.47103 0.80614
 H1587 H 0.84204 0.44103 0.77773
 H1588 H 0.86566 0.41641 0.75760
 C1589 C 0.07502 0.63550 0.71208
 C1590 C 0.08968 0.62365 0.72439
 C1591 C 0.08581 0.60146 0.72877
 C1592 C 0.06756 0.59094 0.71997
 C1593 C 0.05323 0.60261 0.70724
 C1594 C 0.05657 0.62510 0.70354
 N1595 N 0.10027 0.58997 0.74244
 N1596 N 0.09394 0.57296 0.75239
 C1597 C 0.10794 0.56076 0.76591
 C1598 C 0.09856 0.54665 0.78077
 C1599 C 0.11163 0.53432 0.79416
 C1600 C 0.13440 0.53547 0.79249
 C1601 C 0.14385 0.54947 0.77739
 C1602 C 0.13071 0.56226 0.76434
 H1603 H 0.07792 0.65282 0.70939
 H1604 H 0.10373 0.63191 0.73102
 H1605 H 0.06442 0.57372 0.72292
 H1606 H 0.03929 0.59419 0.70054
 H1607 H 0.08103 0.54531 0.78204
 H1608 H 0.10393 0.52350 0.80552
 H1609 H 0.16137 0.55063 0.77581
 H1610 H 0.13827 0.57297 0.75281
 C1611 C 0.07561 0.37719 0.30314
 C1612 C 0.09110 0.38879 0.29131
 C1613 C 0.08908 0.39032 0.26940
 C1614 C 0.07181 0.37936 0.25929
 C1615 C 0.05640 0.36774 0.27107
 C1616 C 0.05793 0.36695 0.29310
 N1617 N 0.10381 0.40418 0.25789
 N1618 N 0.10136 0.40755 0.23826
 C1619 C 0.11496 0.42221 0.22646
 C1620 C 0.10970 0.42628 0.20543
 C1621 C 0.12130 0.44190 0.19383
 C1622 C 0.13856 0.45367 0.20308
 C1623 C 0.14434 0.44901 0.22403
 C1624 C 0.13256 0.43346 0.23568
 H1625 H 0.07700 0.37677 0.32013
 H1626 H 0.10431 0.39718 0.29928
 H1627 H 0.06991 0.38022 0.24237
 H1628 H 0.04290 0.35985 0.26308
 H1629 H 0.09616 0.41771 0.19818
 H1630 H 0.11652 0.44501 0.17771
 H1631 H 0.15754 0.45782 0.23157
 H1632 H 0.13691 0.43055 0.25195
   
