data_POSCAR
  _audit_creation_date              2014-09-24
  _audit_creation_method            'ToBaCCo'
  _symmetry_space_group_name_H-M    'P1'
  _symmetry_Int_Tables_number       1
  _symmetry_cell_setting            triclinic
  loop_
  _symmetry_equiv_pos_as_xyz
 x,y,z
_cell_length_a 64.6514
_cell_length_b 64.6556
_cell_length_c 64.4816
_cell_angle_alpha 87.691800
_cell_angle_beta 88.977400
_cell_angle_gamma 87.543600
loop_
  _atom_site_label
  _atom_site_type_symbol
  _atom_site_fract_x
  _atom_site_fract_y
  _atom_site_fract_z
C1 C 0.77797 0.63751 1.00597
 C2 C 0.78507 0.61925 0.99281
 C3 C 0.76935 0.60770 0.98654
 C4 C 0.74790 0.61499 0.99480
 C5 C 0.76151 0.64958 0.99292
 C6 C 0.74568 0.63783 0.98716
 C7 C 0.76577 0.62771 1.02413
 C8 C 0.75008 0.61600 1.01842
 H9 H 0.80082 0.61719 0.98700
 H10 H 0.73513 0.60527 0.99019
 H11 H 0.76219 0.66599 0.98904
 H12 H 0.76876 0.63037 1.04025
 C13 C 0.79230 0.37011 0.47202
 C14 C 0.79725 0.38538 0.48859
 C15 C 0.78073 0.39763 0.49461
 C16 C 0.76060 0.39354 0.48333
 C17 C 0.77425 0.35802 0.48128
 C18 C 0.75756 0.37018 0.48706
 C19 C 0.78290 0.38363 0.45433
 C20 C 0.76633 0.39591 0.46009
 H21 H 0.81241 0.38615 0.49531
 H22 H 0.74716 0.40359 0.48816
 H23 H 0.77454 0.34126 0.48257
 H24 H 0.78884 0.38327 0.43852
 C25 C 0.28637 -0.15342 -0.01039
 C26 C 0.29092 -0.13905 0.00561
 C27 C 0.27379 -0.12527 0.01081
 C28 C 0.25521 -0.12851 -0.00121
 C29 C 0.26829 -0.16411 -0.00261
 C30 C 0.25095 -0.15050 0.00237
 C31 C 0.27915 -0.14032 -0.02786
 C32 C 0.26195 -0.12657 -0.02303
 H33 H 0.30570 -0.13887 0.01324
 H34 H 0.24192 -0.11782 0.00268
 H35 H 0.26791 -0.18084 -0.00088
 H36 H 0.28628 -0.14081 -0.04321
 C37 C 0.28546 0.14574 0.51547
 C38 C 0.29248 0.13315 0.49684
 C39 C 0.27808 0.12022 0.49024
 C40 C 0.25801 0.12057 0.50350
 C41 C 0.26496 0.15669 0.50881
 C42 C 0.25058 0.14353 0.50246
 C43 C 0.27934 0.12946 0.53211
 C44 C 0.26489 0.11642 0.52606
 H45 H 0.30690 0.13570 0.48852
 H46 H 0.24642 0.10972 0.49847
 H47 H 0.26248 0.17337 0.50835
 H48 H 0.28500 0.12910 0.54783
 C49 C 0.14325 0.49475 0.28257
 C50 C 0.13149 0.47503 0.28729
 C51 C 0.11925 0.46961 0.27160
 C52 C 0.11961 0.48478 0.25255
 C53 C 0.15505 0.49062 0.26221
 C54 C 0.14273 0.48527 0.24648
 C55 C 0.12651 0.51126 0.27684
 C56 C 0.11431 0.50636 0.26096
 H57 H 0.13387 0.46531 0.30118
 H58 H 0.10944 0.48050 0.23985
 H59 H 0.17175 0.49089 0.26078
 H60 H 0.12562 0.52631 0.28370
 C61 C -0.14381 -0.03522 0.29447
 C62 C -0.12792 -0.01930 0.29962
 C63 C -0.11535 -0.01377 0.28336
 C64 C -0.11974 -0.02489 0.26332
 C65 C -0.15551 -0.02532 0.27583
 C66 C -0.14294 -0.01991 0.25943
 C67 C -0.13168 -0.05247 0.28629
 C68 C -0.11842 -0.04699 0.26914
 H69 H -0.12717 -0.01240 0.31460
 H70 H -0.10943 -0.02032 0.25011
 H71 H -0.17218 -0.02288 0.27571
 H72 H -0.13271 -0.06820 0.29259
 C73 C 0.36422 0.48020 0.78427
 C74 C 0.37871 0.49743 0.78914
 C75 C 0.39113 0.50339 0.77289
 C76 C 0.38795 0.49147 0.75308
 C77 C 0.35232 0.48844 0.76518
 C78 C 0.36461 0.49431 0.74880
 C79 C 0.37860 0.46275 0.77639
 C80 C 0.39101 0.46847 0.76004
 H81 H 0.37903 0.50440 0.80411
 H82 H 0.39809 0.49626 0.73983
 H83 H 0.33556 0.48941 0.76475
 H84 H 0.37868 0.44713 0.78312
 C85 C 0.64182 1.00824 0.78787
 C86 C 0.62346 0.99433 0.79221
 C87 C 0.61193 0.99140 0.77515
 C88 C 0.61959 1.00316 0.75538
 C89 C 0.65391 0.99795 0.77004
 C90 C 0.64229 0.99531 0.75297
 C91 C 0.63274 1.02733 0.77890
 C92 C 0.62062 1.02475 0.76098
 H93 H 0.62100 0.98596 0.80688
 H94 H 0.61002 1.00077 0.74161
 H95 H 0.67007 0.99288 0.77106
 H96 H 0.63524 1.04234 0.78512
 C97 C -0.01632 0.28650 -0.14195
 C98 C -0.00044 0.29108 -0.12559
 C99 C 0.00504 0.27447 -0.11293
 C100 C -0.00597 0.25461 -0.11775
 C101 C -0.00666 0.26815 -0.15348
 C102 C -0.00128 0.25141 -0.14092
 C103 C -0.03446 0.27768 -0.12944
 C104 C -0.02918 0.26098 -0.11680
 H105 H 0.00609 0.30610 -0.12427
 H106 H -0.00153 0.24110 -0.10735
 H107 H -0.00452 0.26842 -0.17019
 H108 H -0.05016 0.28412 -0.13065
 C109 C 0.50886 0.28990 0.13934
 C110 C 0.49504 0.29398 0.12038
 C111 C 0.49241 0.27698 0.10911
 C112 C 0.50430 0.25744 0.11749
 C113 C 0.49906 0.27185 0.15155
 C114 C 0.49658 0.25487 0.14011
 C115 C 0.52915 0.28071 0.13053
 C116 C 0.52694 0.26371 0.11912
 H117 H 0.48632 0.30844 0.11738
 H118 H 0.50238 0.24368 0.10806
 H119 H 0.49379 0.27283 0.16753
 H120 H 0.54402 0.28709 0.13336
 C121 C 1.00686 0.78871 0.64629
 C122 C 0.99269 0.79454 0.62948
 C123 C 0.98834 0.77785 0.61648
 C124 C 0.99972 0.75849 0.62240
 C125 C 0.99768 0.77107 0.65728
 C126 C 0.99376 0.75428 0.64415
 C127 C 1.02534 0.78029 0.63600
 C128 C 1.02162 0.76355 0.62286
 H129 H 0.98426 0.80938 0.62820
 H130 H 0.99675 0.74569 0.61200
 H131 H 0.99387 0.77077 0.67372
 H132 H 1.04064 0.78597 0.63830
 C133 C 0.47326 0.80083 0.36359
 C134 C 0.48898 0.80382 0.38060
 C135 C 0.49393 0.78620 0.39204
 C136 C 0.48242 0.76718 0.38565
 C137 C 0.48278 0.78315 0.35088
 C138 C 0.48737 0.76546 0.36238
 C139 C 0.45468 0.79162 0.37505
 C140 C 0.45936 0.77404 0.38661
 H141 H 0.49628 0.81833 0.38278
 H142 H 0.48637 0.75290 0.39515
 H143 H 0.48506 0.78438 0.33420
 H144 H 0.43911 0.79840 0.37386
 C145 C 0.36657 0.01031 0.26148
 H146 H 0.36381 0.02450 0.26957
 C147 C 0.37862 -0.00587 0.27075
 H148 H 0.38542 -0.00371 0.28570
 C149 C 0.35988 -0.01027 0.23302
 H150 H 0.35221 -0.01232 0.21860
 C151 C 0.37172 -0.02682 0.24173
 H152 H 0.37315 -0.04115 0.23360
 N153 N 0.35774 0.00801 0.24274
 C154 C 0.35435 0.06245 0.20348
 H155 H 0.34248 0.05743 0.19349
 C156 C 0.36632 0.07895 0.19678
 H157 H 0.36372 0.08613 0.18154
 C158 C 0.37144 0.05996 0.23570
 H159 H 0.37328 0.05274 0.25094
 C160 C 0.38357 0.07662 0.22973
 H161 H 0.39479 0.08181 0.24043
 Zn162 Zn 0.34084 0.03014 0.23078
 N163 N 0.35736 0.05295 0.22248
 C164 C 0.31920 0.05957 0.25441
 N165 N 0.32155 0.03893 0.25133
 C166 C 0.31335 0.02473 0.26492
 C167 C 0.30352 0.03113 0.28325
 C168 C 0.30954 0.06661 0.27246
 C169 C 0.34118 0.01634 0.19088
 C170 C 0.33408 0.00810 0.17290
 C171 C 0.29957 0.00857 0.18792
 C172 C 0.30739 0.01708 0.20574
 N173 N 0.32796 0.02050 0.20694
 H174 H 0.32585 0.07058 0.24343
 H175 H 0.31568 0.00839 0.26222
 H176 H 0.29817 0.01955 0.29446
 H177 H 0.30873 0.08308 0.27500
 H178 H 0.35748 0.01908 0.19227
 H179 H 0.34516 0.00471 0.16059
 H180 H 0.28327 0.00548 0.18732
 H181 H 0.29717 0.02046 0.21874
 C182 C 0.38125 0.08618 0.20993
 C183 C 0.38133 -0.02476 0.26083
 C184 C 0.31309 0.00376 0.17128
 C185 C 0.30231 0.05229 0.28757
 C186 C 0.11301 1.05265 0.75658
 H187 H 0.12458 1.05407 0.74437
 C188 C 0.10194 1.07030 0.76306
 H189 H 0.10509 1.08517 0.75561
 C190 C 0.09536 1.03165 0.78150
 H191 H 0.09305 1.01649 0.78868
 C192 C 0.08412 1.04896 0.78865
 H193 H 0.07307 1.04696 0.80131
 N194 N 0.10976 1.03385 0.76602
 C195 C 0.11296 0.96908 0.76242
 H196 H 0.12581 0.96644 0.77272
 C197 C 0.10106 0.95242 0.75780
 H198 H 0.10517 0.93721 0.76451
 C199 C 0.09189 0.99191 0.74142
 H200 H 0.08808 1.00743 0.73545
 C201 C 0.07957 0.97567 0.73635
 H202 H 0.06666 0.97885 0.72608
 Zn203 Zn 0.12629 1.01046 0.75832
 N204 N 0.10866 0.98827 0.75370
 C205 C 0.15923 0.98690 0.77727
 N206 N 0.14481 1.00251 0.78023
 C207 C 0.14269 1.01154 0.79891
 C208 C 0.15442 1.00408 0.81581
 C209 C 0.17144 0.97911 0.79369
 C210 C 0.13071 1.02089 0.71550
 C211 C 0.14106 1.02590 0.69690
 C212 C 0.17332 1.02351 0.71526
 C213 C 0.16233 1.01853 0.73354
 N214 N 0.14139 1.01714 0.73336
 H215 H 0.16073 0.98000 0.76228
 H216 H 0.13149 1.02417 0.80098
 H217 H 0.15202 1.01109 0.83068
 H218 H 0.18233 0.96625 0.79109
 H219 H 0.11409 1.02024 0.71564
 H220 H 0.13214 1.02883 0.68296
 H221 H 0.18996 1.02456 0.71583
 H222 H 0.17059 1.01608 0.74790
 C223 C 0.08438 0.95549 0.74421
 C224 C 0.08752 1.06865 0.77954
 C225 C 0.16267 1.02726 0.69658
 C226 C 0.16873 0.98738 0.81342
 C227 C 0.56835 0.54714 0.26727
 H228 H 0.55962 0.53376 0.26411
 C229 C 0.55824 0.56477 0.27524
 H230 H 0.54166 0.56495 0.27800
 C231 C 0.60061 0.56319 0.26796
 H232 H 0.61719 0.56230 0.26529
 C233 C 0.59112 0.58120 0.27541
 H234 H 0.60052 0.59416 0.27849
 N235 N 0.58915 0.54682 0.26359
 C236 C 0.59088 0.48284 0.25822
 H237 H 0.60282 0.48099 0.26971
 C238 C 0.58017 0.46561 0.25290
 H239 H 0.58392 0.45079 0.26065
 C240 C 0.57244 0.50406 0.23340
 H241 H 0.56992 0.51904 0.22556
 C242 C 0.56138 0.48718 0.22754
 H243 H 0.55024 0.48938 0.21523
 Zn244 Zn 0.60426 0.52371 0.25316
 N245 N 0.58704 0.50155 0.24832
 C246 C 0.64433 0.51241 0.26984
 N247 N 0.62368 0.51528 0.27373
 C248 C 0.61559 0.51228 0.29316
 C249 C 0.62825 0.50555 0.30955
 C250 C 0.65760 0.50552 0.28582
 C251 C 0.61363 0.55076 0.21916
 C252 C 0.62262 0.55677 0.20021
 C253 C 0.63823 0.52232 0.19786
 C254 C 0.62903 0.51700 0.21707
 N255 N 0.61726 0.53130 0.22746
 H256 H 0.65051 0.51523 0.25436
 H257 H 0.59913 0.51487 0.29583
 H258 H 0.62132 0.50297 0.32479
 H259 H 0.67395 0.50300 0.28239
 H260 H 0.60353 0.56170 0.22705
 H261 H 0.61955 0.57241 0.19408
 H262 H 0.64774 0.51083 0.18992
 H263 H 0.63125 0.50144 0.22370
 C264 C 0.56551 0.46752 0.23706
 C265 C 0.56967 0.58217 0.27909
 C266 C 0.63521 0.54254 0.18931
 C267 C 0.64954 0.50183 0.30597
 C268 C 0.89392 0.49712 0.74218
 H269 H 0.90110 0.51182 0.73959
 C270 C 0.90592 0.47957 0.74864
 H271 H 0.92237 0.48087 0.75081
 C272 C 0.86364 0.47764 0.74324
 H273 H 0.84708 0.47715 0.74134
 C274 C 0.87503 0.45975 0.74935
 H275 H 0.86703 0.44551 0.75220
 N276 N 0.87318 0.49579 0.73968
 C277 C 0.86793 0.56011 0.73503
 H278 H 0.85675 0.56106 0.74764
 C279 C 0.87907 0.57748 0.72916
 H280 H 0.87640 0.59158 0.73751
 C281 C 0.88445 0.54087 0.70847
 H282 H 0.88644 0.52653 0.70047
 C283 C 0.89577 0.55795 0.70195
 H284 H 0.90646 0.55654 0.68892
 Zn285 Zn 0.85538 0.51875 0.73234
 N286 N 0.87089 0.54221 0.72478
 C287 C 0.81865 0.52353 0.75964
 N288 N 0.83958 0.52374 0.75687
 C289 C 0.85222 0.52639 0.77307
 C290 C 0.84413 0.52918 0.79289
 C291 C 0.80977 0.52656 0.77940
 C292 C 0.85141 0.49867 0.69619
 C293 C 0.84364 0.49330 0.67731
 C294 C 0.81283 0.51453 0.68412
 C295 C 0.82147 0.51991 0.70292
 N296 N 0.84037 0.51167 0.70870
 H297 H 0.80883 0.52074 0.74678
 H298 H 0.86881 0.52621 0.77052
 H299 H 0.85471 0.53132 0.80538
 H300 H 0.79312 0.52638 0.78146
 H301 H 0.86667 0.49283 0.70059
 H302 H 0.85291 0.48303 0.66767
 H303 H 0.79788 0.52123 0.67955
 H304 H 0.81333 0.53101 0.71251
 C305 C 0.89316 0.57658 0.71236
 C306 C 0.89642 0.46058 0.75230
 C307 C 0.82418 0.50126 0.67098
 C308 C 0.82265 0.52930 0.79636
 C309 C 0.24656 0.38871 -0.01058
 H310 H 0.24306 0.39606 0.00391
 C311 C 0.25295 0.40063 -0.02793
 H312 H 0.25414 0.41719 -0.02671
 C313 C 0.25004 0.35811 -0.02962
 H314 H 0.24915 0.34146 -0.02999
 C315 C 0.25617 0.36940 -0.04734
 H316 H 0.26001 0.36125 -0.06133
 N317 N 0.24530 0.36785 -0.01177
 C318 C 0.24110 0.36480 0.05218
 H319 H 0.25455 0.35437 0.05358
 C320 C 0.23474 0.37657 0.06901
 H321 H 0.24351 0.37510 0.08318
 C322 C 0.21306 0.37893 0.03227
 H323 H 0.20472 0.37974 0.01785
 C324 C 0.20604 0.39082 0.04878
 H325 H 0.19225 0.40078 0.04690
 Zn326 Zn 0.23851 0.35032 0.01128
 N327 N 0.23034 0.36630 0.03421
 C328 C 0.27944 0.34720 0.01921
 N329 N 0.26333 0.33468 0.01710
 C330 C 0.26626 0.31367 0.01779
 C331 C 0.28613 0.30460 0.02106
 C332 C 0.29938 0.33890 0.02212
 C333 C 0.20347 0.34411 -0.01081
 C334 C 0.18484 0.33587 -0.01591
 C335 C 0.19135 0.30786 0.00935
 C336 C 0.20985 0.31700 0.01438
 N337 N 0.21563 0.33471 0.00409
 H338 H 0.27674 0.36384 0.01838
 H339 H 0.25340 0.30393 0.01550
 H340 H 0.28835 0.28789 0.02156
 H341 H 0.31184 0.34936 0.02373
 H342 H 0.20776 0.35860 -0.01823
 H343 H 0.17530 0.34389 -0.02758
 H344 H 0.18670 0.29393 0.01775
 H345 H 0.21919 0.31028 0.02686
 C346 C 0.21696 0.38976 0.06746
 C347 C 0.25789 0.39093 -0.04660
 C348 C 0.17848 0.31765 -0.00572
 C349 C 0.30301 0.31736 0.02304
 C350 C 0.75602 0.08779 1.05102
 H351 H 0.74014 0.08724 1.04614
 C352 C 0.76263 0.07631 1.06874
 H353 H 0.75174 0.06682 1.07729
 C354 C 0.78930 0.10132 1.04616
 H355 H 0.79958 0.11149 1.03776
 C356 C 0.79658 0.09003 1.06359
 H357 H 0.81247 0.09155 1.06811
 N358 N 0.76940 0.09987 1.04005
 C359 C 0.74955 0.11002 0.97633
 H360 H 0.75213 0.12644 0.97498
 C361 C 0.74369 0.09965 0.95901
 H362 H 0.74174 0.10828 0.94439
 C363 C 0.74881 0.07904 0.99723
 H364 H 0.75097 0.07108 1.01213
 C365 C 0.74253 0.06808 0.98030
 H366 H 0.73985 0.05170 0.98234
 Zn367 Zn 0.75978 0.11621 1.01679
 N368 N 0.75194 0.09969 0.99496
 C369 C 0.79796 0.12227 0.99757
 N370 N 0.78132 0.13267 1.00596
 C371 C 0.78005 0.15373 1.00568
 C372 C 0.79623 0.16514 0.99710
 C373 C 0.81452 0.13301 0.98905
 C374 C 0.71794 0.13061 1.01642
 C375 C 0.70036 0.14178 1.02331
 C376 C 0.72133 0.15729 1.04862
 C377 C 0.73851 0.14571 1.04132
 N378 N 0.73656 0.13276 1.02543
 H379 H 0.79837 0.10552 0.99763
 H380 H 0.76648 0.16173 1.01197
 H381 H 0.79498 0.18190 0.99706
 H382 H 0.82763 0.12435 0.98257
 H383 H 0.71658 0.11998 1.00407
 H384 H 0.68571 0.13971 1.01595
 H385 H 0.72321 0.16743 1.06134
 H386 H 0.75342 0.14687 1.04845
 C387 C 0.73992 0.07845 0.96089
 C388 C 0.78320 0.07735 1.07519
 C389 C 0.70188 0.15531 1.03965
 C390 C 0.81382 0.15475 0.98874
 C391 C 0.24970 0.58936 0.54278
 H392 H 0.23384 0.58734 0.53847
 C393 C 0.25809 0.57804 0.55982
 H394 H 0.24860 0.56721 0.56848
 C395 C 0.28114 0.60637 0.53709
 H396 H 0.28999 0.61782 0.52868
 C397 C 0.29017 0.59531 0.55380
 H398 H 0.30594 0.59831 0.55775
 N399 N 0.26132 0.60312 0.53173
 C400 C 0.23640 0.61342 0.46980
 H401 H 0.23634 0.63017 0.46923
 C402 C 0.23118 0.60300 0.45230
 H403 H 0.22695 0.61193 0.43833
 C404 C 0.24221 0.58164 0.48885
 H405 H 0.24683 0.57343 0.50306
 C406 C 0.23682 0.57054 0.47170
 H407 H 0.23721 0.55377 0.47291
 Zn408 Zn 0.24947 0.61926 0.50939
 N409 N 0.24174 0.60271 0.48760
 C410 C 0.28609 0.62755 0.48853
 N411 N 0.26947 0.63710 0.49787
 C412 C 0.26755 0.65811 0.49841
 C413 C 0.28318 0.67032 0.48993
 C414 C 0.30210 0.63910 0.48007
 C415 C 0.20692 0.63130 0.51176
 C416 C 0.18936 0.64186 0.51958
 C417 C 0.21113 0.65834 0.54350
 C418 C 0.22827 0.64736 0.53531
 N419 N 0.22592 0.63432 0.51958
 H420 H 0.28703 0.61083 0.48801
 H421 H 0.25399 0.66543 0.50546
 H422 H 0.28154 0.68701 0.49072
 H423 H 0.31530 0.63108 0.47300
 H424 H 0.20527 0.62054 0.49957
 H425 H 0.17441 0.63922 0.51309
 H426 H 0.21337 0.66868 0.55599
 H427 H 0.24349 0.64919 0.54151
 C428 C 0.23130 0.58127 0.45309
 C429 C 0.27863 0.58097 0.56550
 C430 C 0.19132 0.65565 0.53564
 C431 C 0.30086 0.66077 0.48084
 C432 C 0.75402 0.86958 0.50439
 H433 H 0.76155 0.86993 0.51921
 C434 C 0.76160 0.88103 0.48732
 H435 H 0.77501 0.89021 0.48919
 C436 C 0.72769 0.85666 0.48397
 H437 H 0.71466 0.84689 0.48268
 C438 C 0.73487 0.86774 0.46645
 H439 H 0.72710 0.86650 0.45184
 N440 N 0.73732 0.85777 0.50245
 C441 C 0.71453 0.84951 0.56603
 H442 H 0.71475 0.83277 0.56747
 C443 C 0.70849 0.86127 0.58293
 H444 H 0.70404 0.85347 0.59741
 C445 C 0.71996 0.87995 0.54528
 H446 H 0.72424 0.88716 0.53051
 C447 C 0.71354 0.89233 0.56166
 H448 H 0.71324 0.90903 0.55945
 Zn449 Zn 0.72890 0.84158 0.52587
 N450 N 0.72061 0.85894 0.54783
 C451 C 0.76155 0.82915 0.55185
 N452 N 0.75229 0.82450 0.53395
 C453 C 0.76167 0.81109 0.52060
 C454 C 0.78158 0.80253 0.52470
 C455 C 0.78131 0.82116 0.55640
 C456 C 0.68809 0.83995 0.51790
 C457 C 0.66923 0.83244 0.51249
 C458 C 0.68585 0.79848 0.50937
 C459 C 0.70456 0.80667 0.51529
 N460 N 0.70528 0.82717 0.51914
 H461 H 0.75442 0.84033 0.56198
 H462 H 0.75433 0.80812 0.50614
 H463 H 0.78938 0.79279 0.51345
 H464 H 0.78872 0.82594 0.57026
 H465 H 0.68914 0.85621 0.52087
 H466 H 0.65593 0.84316 0.51138
 H467 H 0.68546 0.78225 0.50595
 H468 H 0.71844 0.79679 0.51640
 C469 C 0.70800 0.88296 0.58086
 C470 C 0.75210 0.88007 0.46797
 C471 C 0.66790 0.81152 0.50788
 C472 C 0.79187 0.80827 0.54243
 C473 C -0.00384 0.25435 0.37404
 H474 H 0.01112 0.26108 0.37300
 C475 C -0.02000 0.26465 0.38461
 H476 H -0.01704 0.27897 0.39196
 C477 C -0.02624 0.22844 0.36458
 H478 H -0.02894 0.21469 0.35628
 C479 C -0.04285 0.23829 0.37485
 H480 H -0.05793 0.23165 0.37460
 N481 N -0.00706 0.23635 0.36456
 C482 C 0.04510 0.19550 0.36912
 H483 H 0.03820 0.18383 0.36035
 C484 C 0.06180 0.18970 0.38180
 H485 H 0.06707 0.17357 0.38281
 C486 C 0.04755 0.23058 0.37750
 H487 H 0.04252 0.24660 0.37527
 C488 C 0.06440 0.22547 0.39030
 H489 H 0.07173 0.23765 0.39812
 Zn490 Zn 0.01517 0.22299 0.34960
 N491 N 0.03797 0.21561 0.36746
 C492 C 0.04491 0.24227 0.32414
 N493 N 0.02431 0.24180 0.32859
 C494 C 0.01070 0.25644 0.32045
 C495 C 0.01785 0.27310 0.30825
 C496 C 0.05272 0.25862 0.31205
 C497 C -0.00113 0.18395 0.35227
 C498 C -0.00811 0.16529 0.34572
 C499 C -0.00189 0.17701 0.31019
 C500 C 0.00523 0.19553 0.31751
 N501 N 0.00552 0.19857 0.33827
 H502 H 0.05542 0.23047 0.33084
 H503 H -0.00561 0.25577 0.32436
 H504 H 0.00687 0.28511 0.30275
 H505 H 0.06929 0.25911 0.30947
 H506 H -0.00085 0.18680 0.36868
 H507 H -0.01324 0.15396 0.35730
 H508 H -0.00200 0.17476 0.29365
 H509 H 0.01054 0.20742 0.30665
 C510 C 0.07167 0.20474 0.39267
 C511 C -0.03984 0.25662 0.38512
 C512 C -0.00854 0.16154 0.32444
 C513 C 0.03922 0.27472 0.30453
 C514 C 1.03104 0.77006 0.08940
 H515 H 1.01608 0.77819 0.08875
 C516 C 1.04784 0.77800 0.07819
 H517 H 1.04560 0.79212 0.06876
 C518 C 1.05232 0.74229 0.10319
 H519 H 1.05421 0.72866 0.11333
 C520 C 1.06942 0.74949 0.09204
 H521 H 1.08422 0.74116 0.09370
 N522 N 1.03363 0.75272 0.10194
 C523 C 0.97364 0.72631 0.11497
 H524 H 0.97597 0.72194 0.13111
 C525 C 0.95572 0.72070 0.10541
 H526 H 0.94428 0.71246 0.11458
 C527 C 0.98635 0.74115 0.08334
 H528 H 0.99841 0.74893 0.07474
 C529 C 0.96861 0.73561 0.07303
 H530 H 0.96714 0.73939 0.05660
 Zn531 Zn 1.01161 0.74366 0.11960
 N532 N 0.98835 0.73674 0.10406
 C533 C 0.98791 0.76118 0.15230
 N534 N 1.00329 0.76496 0.13814
 C535 C 1.01202 0.78378 0.13672
 C536 C 1.00456 0.79993 0.14897
 C537 C 0.98016 0.77677 0.16500
 C538 C 1.02268 0.70153 0.12418
 C539 C 1.02823 0.68277 0.13450
 C540 C 1.02915 0.70082 0.16654
 C541 C 1.02360 0.71926 0.15558
 N542 N 1.02041 0.71926 0.13479
 H543 H 0.98151 0.74607 0.15378
 H544 H 1.02464 0.78651 0.12593
 H545 H 1.01145 0.81488 0.14724
 H546 H 0.96766 0.77340 0.17585
 H547 H 1.01997 0.70197 0.10766
 H548 H 1.02984 0.66886 0.12572
 H549 H 1.03155 0.70117 0.18309
 H550 H 1.02181 0.73355 0.16369
 C551 C 0.95290 0.72545 0.08421
 C552 C 1.06742 0.76781 0.07966
 C553 C 1.03144 0.68221 0.15601
 C554 C 0.98819 0.79660 0.16313
 C555 C 0.54026 0.28588 0.57865
 H556 H 0.52532 0.29408 0.57871
 C557 C 0.55650 0.29367 0.56645
 H558 H 0.55381 0.30771 0.55699
 C559 C 0.56220 0.25829 0.59170
 H560 H 0.56462 0.24480 0.60194
 C561 C 0.57872 0.26532 0.57956
 H562 H 0.59358 0.25700 0.58061
 N563 N 0.54352 0.26879 0.59140
 C564 C 0.48510 0.24189 0.61048
 H565 H 0.48922 0.23761 0.62627
 C566 C 0.46634 0.23586 0.60298
 H567 H 0.45616 0.22731 0.61335
 C568 C 0.49395 0.25725 0.57775
 H569 H 0.50481 0.26548 0.56794
 C570 C 0.47524 0.25138 0.56950
 H571 H 0.47188 0.25527 0.55339
 Zn572 Zn 0.52292 0.26025 0.61104
 N573 N 0.49836 0.25267 0.59803
 C574 C 0.50214 0.27810 0.64510
 N575 N 0.51595 0.28200 0.62942
 C576 C 0.52389 0.30111 0.62654
 C577 C 0.51708 0.31739 0.63893
 C578 C 0.49512 0.29381 0.65799
 C579 C 0.53357 0.21805 0.61709
 C580 C 0.54023 0.19990 0.62790
 C581 C 0.54639 0.22020 0.65766
 C582 C 0.53952 0.23795 0.64630
 N583 N 0.53319 0.23654 0.62644
 H584 H 0.49640 0.26278 0.64762
 H585 H 0.53530 0.30394 0.61448
 H586 H 0.52323 0.33257 0.63606
 H587 H 0.48381 0.29033 0.67008
 H588 H 0.52848 0.21739 0.60125
 H589 H 0.54027 0.18534 0.62017
 H590 H 0.55128 0.22166 0.67349
 H591 H 0.53924 0.25285 0.65336
 C592 C 0.46108 0.24068 0.58228
 C593 C 0.57616 0.28354 0.56713
 C594 C 0.54669 0.20080 0.64852
 C595 C 0.50226 0.31390 0.65471
 C596 C 0.49215 0.74634 0.88500
 H597 H 0.50704 0.74166 0.89140
 C598 C 0.47549 0.75134 0.89829
 H599 H 0.47766 0.75034 0.91492
 C600 C 0.47121 0.75371 0.85558
 H601 H 0.46975 0.75467 0.83888
 C602 C 0.45414 0.75849 0.86824
 H603 H 0.43958 0.76327 0.86110
 N604 N 0.48961 0.74741 0.86408
 C605 C 0.55305 0.74173 0.85699
 H606 H 0.55354 0.75566 0.84721
 C607 C 0.57085 0.73444 0.86738
 H608 H 0.58484 0.74300 0.86554
 C609 C 0.53441 0.71345 0.87087
 H610 H 0.52011 0.70535 0.87208
 C611 C 0.55187 0.70553 0.88142
 H612 H 0.55081 0.69133 0.89078
 Zn613 Zn 0.51108 0.74065 0.84488
 N614 N 0.53526 0.73129 0.85905
 C615 C 0.51832 0.78153 0.84251
 N616 N 0.51596 0.76568 0.82968
 C617 C 0.51642 0.76881 0.80867
 C618 C 0.51975 0.78867 0.79990
 C619 C 0.52128 0.80145 0.83451
 C620 C 0.48693 0.70754 0.83796
 C621 C 0.48130 0.68906 0.82990
 C622 C 0.50719 0.69327 0.80279
 C623 C 0.51264 0.71175 0.81167
 N624 N 0.50244 0.71849 0.82898
 H625 H 0.51783 0.77862 0.85915
 H626 H 0.51419 0.75607 0.79873
 H627 H 0.52021 0.79106 0.78318
 H628 H 0.52318 0.81369 0.84521
 H629 H 0.47955 0.71242 0.85218
 H630 H 0.46927 0.68042 0.83774
 H631 H 0.51569 0.68770 0.78936
 H632 H 0.52548 0.72020 0.80522
 C633 C 0.57041 0.71610 0.87979
 C634 C 0.45613 0.75727 0.88989
 C635 C 0.49166 0.68150 0.81236
 C636 C 0.52206 0.80531 0.81297
 C637 C 0.45279 -0.14568 0.32901
 N638 N 0.46476 -0.14398 0.34589
 N639 N 0.47178 -0.16086 0.35653
 C640 C 0.46707 -0.18005 0.35070
 N641 N 0.45513 -0.18168 0.33378
 N642 N 0.44820 -0.16483 0.32309
 C643 C 0.44398 -0.12718 0.31793
 N644 N 0.43281 -0.12909 0.30054
 N645 N 0.42384 -0.11249 0.29101
 C646 C 0.42563 -0.09336 0.29856
 N647 N 0.43691 -0.09141 0.31588
 N648 N 0.44595 -0.10802 0.32539
 C649 C 0.41485 -0.07531 0.28850
 N650 N 0.41467 -0.05644 0.29702
 N651 N 0.40417 -0.04032 0.28819
 C652 C 0.39347 -0.04245 0.27050
 N653 N 0.39380 -0.06134 0.26197
 N654 N 0.40424 -0.07745 0.27081
 C655 C 0.96398 0.33739 0.81920
 N656 N 0.97911 0.33949 0.83319
 N657 N 0.98559 0.32340 0.84528
 C658 C 0.97719 0.30461 0.84385
 N659 N 0.96223 0.30249 0.82966
 N660 N 0.95571 0.31858 0.81761
 C661 C 0.95585 0.35537 0.80682
 N662 N 0.93908 0.35369 0.79475
 N663 N 0.93081 0.37025 0.78454
 C664 C 0.93905 0.38909 0.78595
 N665 N 0.95600 0.39074 0.79781
 N666 N 0.96424 0.37418 0.80809
 C667 C 0.92889 0.40750 0.77593
 N668 N 0.93722 0.42638 0.77662
 N669 N 0.92718 0.44323 0.76866
 C670 C 0.90838 0.44183 0.75985
 N671 N 0.90021 0.42289 0.75902
 N672 N 0.91027 0.40606 0.76686
 C673 C 0.02405 1.19617 0.83570
 N674 N 0.02173 1.21348 0.82322
 N675 N 0.01373 1.23103 0.83070
 C676 C 0.00782 1.23198 0.85096
 N677 N 0.01021 1.21468 0.86348
 N678 N 0.01815 1.19707 0.85598
 C679 C 0.03281 1.17686 0.82728
 N680 N 0.03345 1.15892 0.83900
 N681 N 0.04145 1.14147 0.83124
 C682 C 0.04916 1.14136 0.81150
 N683 N 0.04852 1.15930 0.79982
 N684 N 0.04044 1.17671 0.80754
 C685 C 0.05846 1.12231 0.80300
 N686 N 0.06828 1.12292 0.78423
 N687 N 0.07728 1.10584 0.77669
 C688 C 0.07673 1.08743 0.78757
 N689 N 0.06673 1.08682 0.80630
 N690 N 0.05780 1.10394 0.81389
 C691 C 0.50979 0.71051 0.33624
 N692 N 0.51186 0.72902 0.32587
 N693 N 0.50471 0.74652 0.33416
 C694 C 0.49546 0.74618 0.35323
 N695 N 0.49350 0.72768 0.36364
 N696 N 0.50046 0.71015 0.35527
 C697 C 0.51775 0.69127 0.32711
 N698 N 0.51199 0.67255 0.33501
 N699 N 0.51945 0.65510 0.32681
 C700 C 0.53307 0.65576 0.31054
 N701 N 0.53883 0.67448 0.30269
 N702 N 0.53122 0.69192 0.31074
 C703 C 0.54203 0.63664 0.30197
 N704 N 0.55933 0.63724 0.28979
 N705 N 0.56798 0.61991 0.28246
 C706 C 0.55957 0.60132 0.28686
 N707 N 0.54210 0.60073 0.29887
 N708 N 0.53355 0.61807 0.30639
 C709 C 0.51880 0.34241 0.17414
 N710 N 0.50695 0.34408 0.15696
 N711 N 0.50355 0.32749 0.14615
 C712 C 0.51188 0.30856 0.15206
 N713 N 0.52364 0.30688 0.16935
 N714 N 0.52704 0.32350 0.18018
 C715 C 0.52341 0.36095 0.18534
 N716 N 0.53569 0.35951 0.20224
 N717 N 0.54078 0.37649 0.21166
 C718 C 0.53379 0.39553 0.20453
 N719 N 0.52136 0.39695 0.18775
 N720 N 0.51625 0.37997 0.17834
 C721 C 0.54064 0.41429 0.21398
 N722 N 0.53510 0.43336 0.20580
 N723 N 0.54254 0.45032 0.21347
 C724 C 0.55580 0.44888 0.22962
 N725 N 0.56108 0.42978 0.23795
 N726 N 0.55366 0.41282 0.23028
 C727 C 0.02224 0.83675 0.68335
 N728 N 0.03007 0.81718 0.68722
 N729 N 0.02472 0.80171 0.67562
 C730 C 0.01137 0.80520 0.65965
 N731 N 0.00339 0.82481 0.65606
 N732 N 0.00870 0.84024 0.66765
 C733 C 0.02928 0.85416 0.69493
 N734 N 0.02212 0.87378 0.69008
 N735 N 0.02951 0.88983 0.69945
 C736 C 0.04434 0.88686 0.71402
 N737 N 0.05135 0.86723 0.71905
 N738 N 0.04396 0.85116 0.70967
 C739 C 0.05360 0.90468 0.72312
 N740 N 0.06917 0.90183 0.73691
 N741 N 0.07857 0.91799 0.74400
 C742 C 0.07281 0.93765 0.73758
 N743 N 0.05704 0.94046 0.72397
 N744 N 0.04762 0.92430 0.71688
 C745 C 0.96626 0.70096 0.66528
 N746 N 0.96934 0.71642 0.67837
 N747 N 0.97838 0.73361 0.67157
 C748 C 0.98460 0.73606 0.65140
 N749 N 0.98152 0.72052 0.63837
 N750 N 0.97257 0.70330 0.64517
 C751 C 0.95601 0.68213 0.67263
 N752 N 0.95446 0.66601 0.65997
 N753 N 0.94490 0.64904 0.66649
 C754 C 0.93644 0.64760 0.68588
 N755 N 0.93798 0.66372 0.69856
 N756 N 0.94763 0.68065 0.69207
 C757 C 0.92553 0.62905 0.69291
 N758 N 0.91508 0.62852 0.71135
 N759 N 0.90487 0.61184 0.71754
 C760 C 0.90477 0.59500 0.70559
 N761 N 0.91533 0.59555 0.68718
 N762 N 0.92547 0.61226 0.68094
 C763 C 0.46505 0.20298 0.16219
 N764 N 0.46985 0.20566 0.14171
 N765 N 0.48015 0.22202 0.13481
 C766 C 0.48596 0.23638 0.14809
 N767 N 0.48121 0.23367 0.16860
 N768 N 0.47099 0.21723 0.17554
 C769 C 0.45316 0.18522 0.16958
 N770 N 0.45003 0.18115 0.19020
 N771 N 0.43890 0.16521 0.19677
 C772 C 0.43042 0.15285 0.18296
 N773 N 0.43356 0.15694 0.16237
 N774 N 0.44477 0.17280 0.15580
 C775 C 0.41782 0.13551 0.19006
 N776 N 0.40706 0.12512 0.17623
 N777 N 0.39544 0.10951 0.18257
 C778 C 0.39418 0.10358 0.20299
 N779 N 0.40503 0.11395 0.21682
 N780 N 0.41658 0.12966 0.21049
 C781 C 0.32574 0.45911 -0.16647
 N782 N 0.32558 0.45035 -0.18524
 N783 N 0.33757 0.45726 -0.20079
 C784 C 0.35026 0.47311 -0.19815
 N785 N 0.35029 0.48197 -0.17939
 N786 N 0.33825 0.47509 -0.16383
 C787 C 0.31332 0.45069 -0.14909
 N788 N 0.31309 0.45949 -0.13031
 N789 N 0.30269 0.45108 -0.11427
 C790 C 0.29222 0.43356 -0.11646
 N791 N 0.29233 0.42489 -0.13528
 N792 N 0.30265 0.43332 -0.15131
 C793 C 0.28204 0.42332 -0.09857
 N794 N 0.27433 0.40431 -0.10037
 N795 N 0.26630 0.39425 -0.08393
 C796 C 0.26559 0.40282 -0.06503
 N797 N 0.27304 0.42200 -0.06329
 N798 N 0.28117 0.43205 -0.07975
 C799 C 0.81881 0.94496 0.34522
 N800 N 0.81561 0.93823 0.32590
 N801 N 0.82715 0.94480 0.30981
 C802 C 0.84229 0.95837 0.31245
 N803 N 0.84529 0.96520 0.33176
 N804 N 0.83379 0.95863 0.34782
 C805 C 0.80708 0.93687 0.36325
 N806 N 0.81178 0.94239 0.38264
 N807 N 0.80202 0.93429 0.39920
 C808 C 0.78715 0.92039 0.39698
 N809 N 0.78229 0.91500 0.37757
 N810 N 0.79210 0.92308 0.36099
 C811 C 0.77729 0.91067 0.41536
 N812 N 0.76209 0.89708 0.41339
 N813 N 0.75385 0.88760 0.43011
 C814 C 0.76056 0.89128 0.44943
 N815 N 0.77569 0.90499 0.45133
 N816 N 0.78387 0.91451 0.43464
 C817 C 0.83455 0.00708 1.20366
 N818 N 0.82127 0.00060 1.21887
 N819 N 0.82842 -0.00796 1.23661
 C820 C 0.84911 -0.01038 1.23982
 N821 N 0.86237 -0.00393 1.22458
 N822 N 0.85523 0.00468 1.20685
 C823 C 0.82672 0.01675 1.18418
 N824 N 0.84004 0.02449 1.16963
 N825 N 0.83298 0.03354 1.15208
 C826 C 0.81235 0.03513 1.14839
 N827 N 0.79902 0.02731 1.16290
 N828 N 0.80608 0.01830 1.18049
 C829 C 0.80469 0.04555 1.12920
 N830 N 0.78419 0.04647 1.12482
 N831 N 0.77733 0.05636 1.10756
 C832 C 0.79070 0.06575 1.09408
 N833 N 0.81120 0.06471 1.09850
 N834 N 0.81806 0.05479 1.11569
 C835 C 0.33992 0.51677 0.69223
 N836 N 0.36065 0.51671 0.69538
 N837 N 0.36856 0.50952 0.71335
 C838 C 0.35603 0.50222 0.72884
 N839 N 0.33532 0.50228 0.72563
 N840 N 0.32742 0.50940 0.70768
 C841 C 0.33102 0.52500 0.67265
 N842 N 0.31039 0.52417 0.66937
 N843 N 0.30213 0.53210 0.65186
 C844 C 0.31422 0.54121 0.63700
 N845 N 0.33486 0.54197 0.64024
 N846 N 0.34313 0.53399 0.65773
 C847 C 0.30504 0.55072 0.61807
 N848 N 0.31689 0.56144 0.60420
 N849 N 0.30850 0.57079 0.58742
 C850 C 0.28794 0.56977 0.58377
 N851 N 0.27612 0.55886 0.59759
 N852 N 0.28450 0.54954 0.61443
 C853 C 0.17884 0.51505 0.33143
 N854 N 0.16857 0.49722 0.33378
 N855 N 0.15774 0.49046 0.31823
 C856 C 0.15678 0.50127 0.29973
 N857 N 0.16733 0.51894 0.29731
 N858 N 0.17813 0.52571 0.31287
 C859 C 0.18928 0.52347 0.34906
 N860 N 0.19733 0.54251 0.34727
 N861 N 0.20546 0.55090 0.36362
 C862 C 0.20588 0.54056 0.38236
 N863 N 0.19807 0.52140 0.38411
 N864 N 0.18988 0.51302 0.36776
 C865 C 0.21354 0.55056 0.40058
 N866 N 0.21470 0.54030 0.41935
 N867 N 0.22067 0.54990 0.43602
 C868 C 0.22555 0.57015 0.43455
 N869 N 0.22451 0.58029 0.41572
 N870 N 0.21865 0.57069 0.39907
 C871 C 0.67795 0.02072 0.83944
 N872 N 0.66175 0.00811 0.84179
 N873 N 0.65053 0.00377 0.82550
 C874 C 0.65510 0.01186 0.80627
 N875 N 0.67150 0.02424 0.80393
 N876 N 0.68267 0.02862 0.82021
 C877 C 0.68938 0.02690 0.85750
 N878 N 0.70351 0.04177 0.85524
 N879 N 0.71291 0.04856 0.87170
 C880 C 0.70860 0.04066 0.89104
 N881 N 0.69466 0.02557 0.89331
 N882 N 0.68518 0.01884 0.87683
 C883 C 0.71786 0.04943 0.90917
 N884 N 0.71490 0.04100 0.92858
 N885 N 0.72234 0.04989 0.94504
 C886 C 0.73286 0.06762 0.94270
 N887 N 0.73593 0.07587 0.92325
 N888 N 0.72864 0.06693 0.90682
 C889 C 0.66437 0.96460 0.70061
 N890 N 0.67444 0.96215 0.71889
 N891 N 0.66762 0.97219 0.73548
 C892 C 0.65035 0.98488 0.73445
 N893 N 0.64028 0.98731 0.71616
 N894 N 0.64721 0.97743 0.69952
 C895 C 0.67156 0.95308 0.68253
 N896 N 0.66452 0.95851 0.66327
 N897 N 0.67075 0.94774 0.64694
 C898 C 0.68406 0.93103 0.64933
 N899 N 0.69107 0.92560 0.66859
 N900 N 0.68501 0.93649 0.68488
 C901 C 0.69045 0.91873 0.63151
 N902 N 0.69913 0.89939 0.63451
 N903 N 0.70463 0.88803 0.61839
 C904 C 0.70184 0.89563 0.59866
 N905 N 0.69327 0.91506 0.59567
 N906 N 0.68757 0.92636 0.61180
 C907 C 0.16598 0.46324 0.19013
 N908 N 0.14533 0.46687 0.19310
 N909 N 0.13798 0.47427 0.21088
 C910 C 0.15101 0.47841 0.22632
 N911 N 0.17169 0.47501 0.22324
 N912 N 0.17904 0.46752 0.20549
 C913 C 0.17399 0.45390 0.17106
 N914 N 0.19419 0.44747 0.16938
 N915 N 0.20126 0.43807 0.15250
 C916 C 0.18841 0.43483 0.13664
 N917 N 0.16824 0.44143 0.13823
 N918 N 0.16114 0.45074 0.15516
 C919 C 0.19603 0.42375 0.11841
 N920 N 0.18369 0.42188 0.10184
 N921 N 0.19041 0.41128 0.08557
 C922 C 0.20968 0.40202 0.08529
 N923 N 0.22201 0.40397 0.10188
 N924 N 0.21533 0.41465 0.11811
 C925 C -0.15729 0.33309 0.44993
 N926 N -0.17690 0.32993 0.44396
 N927 N -0.19279 0.34145 0.45122
 C928 C -0.18970 0.35649 0.46480
 N929 N -0.17007 0.35957 0.47083
 N930 N -0.15417 0.34810 0.46352
 C931 C -0.13971 0.32093 0.44131
 N932 N -0.11996 0.32554 0.44551
 N933 N -0.10401 0.31492 0.43714
 C934 C -0.10723 0.29926 0.42432
 N935 N -0.12698 0.29457 0.42023
 N936 N -0.14292 0.30523 0.42854
 C937 C -0.08969 0.28791 0.41462
 N938 N -0.09293 0.27158 0.40270
 N939 N -0.07709 0.26156 0.39349
 C940 C -0.05738 0.26752 0.39576
 N941 N -0.05418 0.28386 0.40775
 N942 N -0.07002 0.29385 0.41702
 C943 C 0.33554 0.80888 0.96910
 N944 N 0.31634 0.80757 0.96124
 N945 N 0.30050 0.81918 0.96840
 C946 C 0.30321 0.83269 0.98366
 N947 N 0.32242 0.83366 0.99177
 N948 N 0.33826 0.82198 0.98465
 C949 C 0.35333 0.79784 0.95954
 N950 N 0.37266 0.79908 0.96720
 N951 N 0.38902 0.79069 0.95729
 C952 C 0.38664 0.78088 0.93931
 N953 N 0.36729 0.77943 0.93182
 N954 N 0.35094 0.78772 0.94177
 C955 C 0.40468 0.77341 0.92721
 N956 N 0.40224 0.76744 0.90752
 N957 N 0.41860 0.76206 0.89582
 C958 C 0.43806 0.76236 0.90337
 N959 N 0.44048 0.76806 0.92321
 N960 N 0.42409 0.77359 0.93489
 C961 C 1.19526 0.82686 0.02280
 N962 N 1.21183 0.81389 0.01908
 N963 N 1.22977 0.82131 0.01251
 C964 C 1.23197 0.84201 0.00947
 N965 N 1.21537 0.85503 0.01325
 N966 N 1.19734 0.84759 0.01977
 C967 C 1.17561 0.81835 0.03016
 N968 N 1.15830 0.83072 0.03263
 N969 N 1.14064 0.82273 0.03950
 C970 C 1.13971 0.80210 0.04417
 N971 N 1.15702 0.78979 0.04166
 N972 N 1.17461 0.79774 0.03473
 C973 C 1.12059 0.79316 0.05245
 N974 N 1.12077 0.77306 0.05935
 N975 N 1.10379 0.76496 0.06764
 C976 C 1.08588 0.77660 0.06926
 N977 N 1.08565 0.79669 0.06213
 N978 N 1.10270 0.80483 0.05391
 C979 C 0.70216 0.34506 0.50884
 N980 N 0.71940 0.33273 0.50595
 N981 N 0.73701 0.34077 0.49918
 C982 C 0.73812 0.36147 0.49512
 N983 N 0.72089 0.37383 0.49810
 N984 N 0.70322 0.36578 0.50483
 C985 C 0.68280 0.33595 0.51624
 N986 N 0.66505 0.34779 0.51818
 N987 N 0.64762 0.33936 0.52507
 C988 C 0.64733 0.31880 0.53028
 N989 N 0.66507 0.30700 0.52829
 N990 N 0.68245 0.31540 0.52135
 C991 C 0.62845 0.30948 0.53868
 N992 N 0.62908 0.28946 0.54584
 N993 N 0.61234 0.28113 0.55442
 C994 C 0.59424 0.29244 0.55610
 N995 N 0.59355 0.31244 0.54866
 N996 N 0.61034 0.32081 0.54013
 C997 C 0.33271 0.18376 0.53420
 N998 N 0.32722 0.18378 0.51397
 N999 N 0.31188 0.17226 0.50812
 C1000 C 0.30158 0.16018 0.52226
 N1001 N 0.30690 0.16053 0.54251
 N1002 N 0.32212 0.17209 0.54836
 C1003 C 0.35059 0.19498 0.54080
 N1004 N 0.35531 0.19482 0.56121
 N1005 N 0.37227 0.20357 0.56741
 C1006 C 0.38523 0.21278 0.55344
 N1007 N 0.38044 0.21317 0.53299
 N1008 N 0.36340 0.20442 0.52677
 C1009 C 0.40455 0.22107 0.56059
 N1010 N 0.41849 0.22957 0.54710
 N1011 N 0.43640 0.23607 0.55390
 C1012 C 0.44102 0.23422 0.57441
 N1013 N 0.42694 0.22586 0.58779
 N1014 N 0.40910 0.21942 0.58104
 C1015 C 0.82775 0.67215 0.02505
 N1016 N 0.82560 0.66820 0.00468
 N1017 N 0.80967 0.65760 -0.00147
 C1018 C 0.79544 0.65046 0.01255
 N1019 N 0.79756 0.65471 0.03282
 N1020 N 0.81336 0.66532 0.03894
 C1021 C 0.84575 0.68261 0.03253
 N1022 N 0.84721 0.68587 0.05308
 N1023 N 0.86390 0.69411 0.06052
 C1024 C 0.87983 0.69944 0.04771
 N1025 N 0.87835 0.69642 0.02706
 N1026 N 0.86159 0.68813 0.01958
 C1027 C 0.89861 0.70722 0.05663
 N1028 N 0.91498 0.71301 0.04456
 N1029 N 0.93220 0.71913 0.05319
 C1030 C 0.93369 0.71955 0.07419
 N1031 N 0.91722 0.71389 0.08612
 N1032 N 0.90005 0.70788 0.07753
 C1033 C 0.69428 0.66148 0.95387
 N1034 N 0.71042 0.67364 0.95716
 N1035 N 0.72684 0.66615 0.96768
 C1036 C 0.72775 0.64622 0.97524
 N1037 N 0.71163 0.63408 0.97184
 N1038 N 0.69520 0.64157 0.96139
 C1039 C 0.67599 0.66971 0.94258
 N1040 N 0.65933 0.65788 0.94071
 N1041 N 0.64261 0.66532 0.93067
 C1042 C 0.64196 0.68484 0.92208
 N1043 N 0.65864 0.69667 0.92391
 N1044 N 0.67534 0.68925 0.93401
 C1045 C 0.62346 0.69299 0.91109
 N1046 N 0.62314 0.71200 0.90135
 N1047 N 0.60632 0.71933 0.89139
 C1048 C 0.58914 0.70797 0.89084
 N1049 N 0.58952 0.68896 0.90064
 N1050 N 0.60634 0.68160 0.91054
 C1051 C 0.19451 0.16308 0.47489
 N1052 N 0.19991 0.14264 0.47740
 N1053 N 0.21756 0.13651 0.48652
 C1054 C 0.23052 0.15056 0.49351
 N1055 N 0.22504 0.17104 0.49116
 N1056 N 0.20735 0.17719 0.48202
 C1057 C 0.17549 0.16965 0.46389
 N1058 N 0.16998 0.19005 0.46083
 N1059 N 0.15308 0.19584 0.45015
 C1060 C 0.14113 0.18145 0.44212
 N1061 N 0.14661 0.16108 0.44528
 N1062 N 0.16346 0.15530 0.45597
 C1063 C 0.12287 0.18765 0.42974
 N1064 N 0.11181 0.17307 0.42090
 N1065 N 0.09554 0.17853 0.40925
 C1066 C 0.08962 0.19880 0.40596
 N1067 N 0.10066 0.21339 0.41491
 N1068 N 0.11699 0.20792 0.42656
 C1069 C 0.59535 0.07521 0.72788
 N1070 N 0.60550 0.07758 0.74578
 N1071 N 0.61347 0.06120 0.75646
 C1072 C 0.61158 0.04173 0.74977
 N1073 N 0.60125 0.03933 0.73189
 N1074 N 0.59332 0.05577 0.72112
 C1075 C 0.58720 0.09357 0.71603
 N1076 N 0.57847 0.09195 0.69719
 N1077 N 0.57166 0.10885 0.68642
 C1078 C 0.57331 0.12796 0.69412
 N1079 N 0.58195 0.12954 0.71298
 N1080 N 0.58878 0.11267 0.72371
 C1081 C 0.56619 0.14674 0.68227
 N1082 N 0.56743 0.16563 0.69050
 N1083 N 0.56123 0.18275 0.67980
 C1084 C 0.55359 0.18170 0.66040
 N1085 N 0.55236 0.16275 0.65219
 N1086 N 0.55853 0.14560 0.66291
 C1087 C 1.07865 0.55376 0.23104
 N1088 N 1.08399 0.53614 0.22106
 N1089 N 1.09452 0.52055 0.23083
 C1090 C 1.10014 0.52206 0.25090
 N1091 N 1.09442 0.53953 0.26091
 N1092 N 1.08385 0.55503 0.25121
 C1093 C 1.06905 0.57193 0.21996
 N1094 N 1.06469 0.58958 0.23020
 N1095 N 1.05758 0.60670 0.22008
 C1096 C 1.05460 0.60688 0.19930
 N1097 N 1.05874 0.58918 0.18905
 N1098 N 1.06586 0.57201 0.19919
 C1099 C 1.04793 0.62620 0.18808
 N1100 N 1.04543 0.62679 0.16721
 N1101 N 1.04011 0.64453 0.15706
 C1102 C 1.03713 0.66240 0.16734
 N1103 N 1.03958 0.66173 0.18824
 N1104 N 1.04488 0.64400 0.19840
 C1105 C 0.91731 0.90871 0.23925
 N1106 N 0.91785 0.92896 0.23282
 N1107 N 0.90641 0.94342 0.24251
 C1108 C 0.89402 0.93815 0.25898
 N1109 N 0.89365 0.91790 0.26538
 N1110 N 0.90502 0.90349 0.25571
 C1111 C 0.92926 0.89244 0.22844
 N1112 N 0.92714 0.87227 0.23442
 N1113 N 0.93739 0.85726 0.22449
 C1114 C 0.95022 0.86183 0.20823
 N1115 N 0.95247 0.88203 0.20229
 N1116 N 0.94216 0.89708 0.21221
 C1117 C 0.96083 0.84503 0.19697
 N1118 N 0.97447 0.84913 0.18124
 N1119 N 0.98346 0.83374 0.17071
 C1120 C 0.97911 0.81369 0.17546
 N1121 N 0.96553 0.80968 0.19128
 N1122 N 0.95661 0.82502 0.20184
 C1123 C 0.43051 0.42509 0.73089
 N1124 N 0.42905 0.44505 0.72342
 N1125 N 0.41668 0.45901 0.73277
 C1126 C 0.40535 0.45348 0.74990
 N1127 N 0.40698 0.43356 0.75737
 N1128 N 0.41929 0.41965 0.74806
 C1129 C 0.44324 0.40922 0.72034
 N1130 N 0.44325 0.38923 0.72760
 N1131 N 0.45393 0.37445 0.71776
 C1132 C 0.46508 0.37908 0.70030
 N1133 N 0.46526 0.39911 0.69309
 N1134 N 0.45451 0.41394 0.70294
 C1135 C 0.47581 0.36239 0.68901
 N1136 N 0.48758 0.36655 0.67182
 N1137 N 0.49639 0.35117 0.66115
 C1138 C 0.49369 0.33107 0.66722
 N1139 N 0.48204 0.32700 0.68452
 N1140 N 0.47332 0.34234 0.69521
 C1141 C 0.43227 0.55100 0.77903
 N1142 N 0.42666 0.54554 0.75985
 N1143 N 0.41389 0.53008 0.75774
 C1144 C 0.40616 0.51972 0.77473
 N1145 N 0.41194 0.52514 0.79381
 N1146 N 0.42476 0.54041 0.79591
 C1147 C 0.44517 0.56876 0.78209
 N1148 N 0.45097 0.57273 0.80158
 N1149 N 0.46097 0.58969 0.80524
 C1150 C 0.46560 0.60344 0.78959
 N1151 N 0.46014 0.59938 0.76994
 N1152 N 0.45010 0.58229 0.76625
 C1153 C 0.47443 0.62314 0.79471
 N1154 N 0.47960 0.63771 0.77991
 N1155 N 0.48585 0.65616 0.78531
 C1156 C 0.48690 0.66070 0.80568
 N1157 N 0.48202 0.64598 0.82032
 N1158 N 0.47599 0.62760 0.81496
 C1159 C -0.07401 0.03355 0.28980
 N1160 N -0.08031 0.02185 0.30646
 N1161 N -0.09304 0.00653 0.30422
 C1162 C -0.09990 0.00214 0.28519
 N1163 N -0.09331 0.01357 0.26838
 N1164 N -0.08064 0.02908 0.27065
 C1165 C -0.06137 0.05144 0.29309
 N1166 N -0.05786 0.06595 0.27772
 N1167 N -0.04786 0.08299 0.28165
 C1168 C -0.04103 0.08605 0.30106
 N1169 N -0.04432 0.07139 0.31626
 N1170 N -0.05431 0.05446 0.31236
 C1171 C -0.03143 0.10531 0.30632
 N1172 N -0.02632 0.10808 0.32628
 N1173 N -0.01880 0.12582 0.33181
 C1174 C -0.01605 0.14160 0.31764
 N1175 N -0.02092 0.13876 0.29753
 N1176 N -0.02853 0.12095 0.29198
 C1177 C 0.09454 0.41074 0.27222
 N1178 N 0.08623 0.42632 0.25979
 N1179 N 0.09398 0.44516 0.25948
 C1180 C 0.11006 0.44911 0.27183
 N1181 N 0.11820 0.43351 0.28425
 N1182 N 0.11066 0.41471 0.28438
 C1183 C 0.08648 0.38982 0.27301
 N1184 N 0.09828 0.37382 0.28129
 N1185 N 0.09093 0.35495 0.28348
 C1186 C 0.07141 0.35134 0.27764
 N1187 N 0.05957 0.36731 0.26920
 N1188 N 0.06702 0.38622 0.26682
 C1189 C 0.06304 0.33083 0.28209
 N1190 N 0.04241 0.32785 0.28132
 N1191 N 0.03485 0.30975 0.28768
 C1192 C 0.04762 0.29392 0.29496
 N1193 N 0.06828 0.29686 0.29525
 N1194 N 0.07582 0.31494 0.28899
 C1195 C 0.57129 0.94279 0.77736
 N1196 N 0.57385 0.95427 0.79421
 N1197 N 0.58615 0.97026 0.79323
 C1198 C 0.59622 0.97557 0.77529
 N1199 N 0.59329 0.96442 0.75824
 N1200 N 0.58111 0.94824 0.75928
 C1201 C 0.55976 0.92370 0.77958
 N1202 N 0.56137 0.90899 0.76509
 N1203 N 0.55291 0.89066 0.76858
 C1204 C 0.54250 0.88647 0.78666
 N1205 N 0.54056 0.90137 0.80088
 N1206 N 0.54906 0.91958 0.79744
 C1207 C 0.53520 0.86568 0.79205
 N1208 N 0.52664 0.86191 0.81108
 N1209 N 0.52194 0.84282 0.81731
 C1210 C 0.52558 0.82663 0.80479
 N1211 N 0.53373 0.83043 0.78549
 N1212 N 0.53853 0.84961 0.77925
 C1213 C 0.70992 0.59223 0.06418
 N1214 N 0.71897 0.61052 0.06632
 N1215 N 0.73153 0.61800 0.05160
 C1216 C 0.73539 0.60763 0.03398
 N1217 N 0.72609 0.58943 0.03158
 N1218 N 0.71366 0.58178 0.04651
 C1219 C 0.69683 0.58411 0.08122
 N1220 N 0.69261 0.56371 0.08327
 N1221 N 0.68197 0.55654 0.09980
 C1222 C 0.67512 0.56956 0.11472
 N1223 N 0.67915 0.58994 0.11245
 N1224 N 0.68988 0.59704 0.09610
 C1225 C 0.66409 0.56207 0.13349
 N1226 N 0.65532 0.57596 0.14655
 N1227 N 0.64603 0.56964 0.16409
 C1228 C 0.64524 0.54917 0.16944
 N1229 N 0.65402 0.53520 0.15634
 N1230 N 0.66326 0.54154 0.13865
 C1231 C 0.23625 1.07873 0.57138
 N1232 N 0.22644 1.08402 0.55333
 N1233 N 0.23583 1.09528 0.53841
 C1234 C 0.25531 1.10171 0.54107
 N1235 N 0.26515 1.09607 0.55897
 N1236 N 0.25585 1.08477 0.57378
 C1237 C 0.22551 1.06819 0.58884
 N1238 N 0.23581 1.06320 0.60663
 N1239 N 0.22595 1.05529 0.62322
 C1240 C 0.20536 1.05212 0.62270
 N1241 N 0.19505 1.05688 0.60483
 N1242 N 0.20495 1.06478 0.58819
 C1243 C 0.19434 1.04473 0.64155
 N1244 N 0.17353 1.04273 0.64166
 N1245 N 0.16352 1.03698 0.65906
 C1246 C 0.17390 1.03303 0.67705
 N1247 N 0.19475 1.03492 0.67683
 N1248 N 0.20476 1.04067 0.65945
 C1249 C 0.23560 0.91196 0.93138
 N1250 N 0.22789 0.91217 0.95114
 N1251 N 0.23639 0.89983 0.96607
 C1252 C 0.25288 0.88684 0.96176
 N1253 N 0.26053 0.88683 0.94202
 N1254 N 0.25208 0.89909 0.92716
 C1255 C 0.22624 0.92483 0.91444
 N1256 N 0.23372 0.92296 0.89478
 N1257 N 0.22518 0.93396 0.87904
 C1258 C 0.20884 0.94734 0.88234
 N1259 N 0.20138 0.94937 0.90204
 N1260 N 0.20992 0.93829 0.91783
 C1261 C 0.19904 0.95865 0.86464
 N1262 N 0.18324 0.97281 0.86748
 N1263 N 0.17392 0.98229 0.85122
 C1264 C 0.17998 0.97794 0.83150
 N1265 N 0.19590 0.96388 0.82875
 N1266 N 0.20527 0.95447 0.84498
 C1267 C 0.73358 0.43367 0.41654
 N1268 N 0.72615 0.43114 0.43629
 N1269 N 0.73667 0.41937 0.45030
 C1270 C 0.75493 0.40963 0.44502
 N1271 N 0.76234 0.41229 0.42530
 N1272 N 0.75189 0.42408 0.41135
 C1273 C 0.72175 0.44583 0.40072
 N1274 N 0.72964 0.44842 0.38118
 N1275 N 0.71866 0.45860 0.36644
 C1276 C 0.69935 0.46652 0.37070
 N1277 N 0.69149 0.46406 0.39028
 N1278 N 0.70250 0.45391 0.40504
 C1279 C 0.68683 0.47670 0.35415
 N1280 N 0.66692 0.48308 0.35797
 N1281 N 0.65522 0.49135 0.34273
 C1282 C 0.66295 0.49359 0.32306
 N1283 N 0.68297 0.48737 0.31932
 N1284 N 0.69467 0.47906 0.33456
 C1285 C 0.78719 0.43955 0.54171
 N1286 N 0.76811 0.43317 0.53704
 N1287 N 0.76584 0.42021 0.52169
 C1288 C 0.78259 0.41305 0.51065
 N1289 N 0.80155 0.41962 0.51527
 N1290 N 0.80379 0.43263 0.53043
 C1291 C 0.79054 0.45261 0.55939
 N1292 N 0.80983 0.45912 0.56263
 N1293 N 0.81389 0.46931 0.57948
 C1294 C 0.79884 0.47342 0.59383
 N1295 N 0.77938 0.46722 0.59050
 N1296 N 0.77529 0.45700 0.57354
 C1297 C 0.80451 0.48263 0.61331
 N1298 N 0.79031 0.48699 0.62851
 N1299 N 0.79632 0.49365 0.64673
 C1300 C 0.81674 0.49597 0.65040
 N1301 N 0.83075 0.49189 0.63504
 N1302 N 0.82477 0.48543 0.61689
 C1303 C 0.27970 -0.08209 0.05536
 N1304 N 0.26088 -0.08480 0.04704
 N1305 N 0.25881 -0.09866 0.03246
 C1306 C 0.27544 -0.11044 0.02589
 N1307 N 0.29412 -0.10767 0.03438
 N1308 N 0.29623 -0.09374 0.04870
 C1309 C 0.28278 -0.06699 0.07133
 N1310 N 0.30230 -0.06154 0.07523
 N1311 N 0.30588 -0.04879 0.09028
 C1312 C 0.29013 -0.04109 0.10222
 N1313 N 0.27048 -0.04642 0.09833
 N1314 N 0.26686 -0.05911 0.08306
 C1315 C 0.29499 -0.02804 0.11948
 N1316 N 0.28081 -0.02306 0.13449
 N1317 N 0.28629 -0.01255 0.15081
 C1318 C 0.30610 -0.00662 0.15267
 N1319 N 0.32004 -0.01140 0.13744
 N1320 N 0.31463 -0.02190 0.12125
 C1321 C 0.28254 0.09588 0.43099
 N1322 N 0.26729 0.08992 0.44444
 N1323 N 0.26607 0.09720 0.46354
 C1324 C 0.28018 0.11050 0.46991
 N1325 N 0.29554 0.11613 0.45650
 N1326 N 0.29666 0.10903 0.43743
 C1327 C 0.28352 0.08925 0.40945
 N1328 N 0.29523 0.09972 0.39525
 N1329 N 0.29641 0.09412 0.37564
 C1330 C 0.28605 0.07771 0.36944
 N1331 N 0.27433 0.06712 0.38362
 N1332 N 0.27297 0.07288 0.40328
 C1333 C 0.28831 0.07143 0.34783
 N1334 N 0.28317 0.05234 0.34211
 N1335 N 0.28698 0.04637 0.32278
 C1336 C 0.29588 0.05934 0.30842
 N1337 N 0.30063 0.07853 0.31415
 N1338 N 0.29697 0.08442 0.33345
 C1339 C 0.77915 0.57058 0.93537
 N1340 N 0.79483 0.57382 0.94841
 N1341 N 0.79152 0.58489 0.96521
 C1342 C 0.77234 0.59301 0.96973
 N1343 N 0.75652 0.58934 0.95696
 N1344 N 0.75987 0.57838 0.94005
 C1345 C 0.78365 0.56060 0.91561
 N1346 N 0.76935 0.56084 0.90039
 N1347 N 0.77438 0.55375 0.88173
 C1348 C 0.79389 0.54615 0.87766
 N1349 N 0.80802 0.54560 0.89301
 N1350 N 0.80302 0.55271 0.91159
 C1351 C 0.80044 0.54018 0.85671
 N1352 N 0.82051 0.53430 0.85310
 N1353 N 0.82728 0.53047 0.83400
 C1354 C 0.81431 0.53234 0.81764
 N1355 N 0.79407 0.53790 0.82126
 N1356 N 0.78727 0.54181 0.84045
 C1357 C 0.07006 0.73179 0.59423
 N1358 N 0.05028 0.72614 0.59166
 N1359 N 0.03447 0.73647 0.60073
 C1360 C 0.03787 0.75283 0.61266
 N1361 N 0.05767 0.75845 0.61501
 N1362 N 0.07342 0.74816 0.60603
 C1363 C 0.08779 0.72034 0.58492
 N1364 N 0.10734 0.72553 0.58917
 N1365 N 0.12363 0.71519 0.58115
 C1366 C 0.12100 0.69928 0.56851
 N1367 N 0.10143 0.69408 0.56418
 N1368 N 0.08510 0.70441 0.57227
 C1369 C 0.13913 0.68790 0.55988
 N1370 N 0.13690 0.67275 0.54623
 N1371 N 0.15346 0.66254 0.53850
 C1372 C 0.17288 0.66702 0.54417
 N1373 N 0.17503 0.68217 0.55787
 N1374 N 0.15849 0.69242 0.56554
 C1375 C 0.57831 0.23125 1.09381
 N1376 N 0.55881 0.22559 1.08986
 N1377 N 0.54240 0.23590 1.09782
 C1378 C 0.54491 0.25227 1.10997
 N1379 N 0.56443 0.25789 1.11382
 N1380 N 0.58079 0.24759 1.10593
 C1381 C 0.59657 0.21992 1.08537
 N1382 N 0.61587 0.22498 1.09075
 N1383 N 0.63254 0.21478 1.08332
 C1384 C 0.63056 0.19915 1.07017
 N1385 N 0.61126 0.19409 1.06472
 N1386 N 0.59456 0.20427 1.07221
 C1387 C 0.64903 0.18789 1.06211
 N1388 N 0.64730 0.17312 1.04795
 N1389 N 0.66408 0.16287 1.04076
 C1390 C 0.68325 0.16694 1.04747
 N1391 N 0.68492 0.18173 1.06165
 N1392 N 0.66816 0.19203 1.06880
 C1393 C 0.92629 0.23014 0.91926
 N1394 N 0.94564 0.22145 0.91674
 N1395 N 0.95995 0.23134 0.90549
 C1396 C 0.95537 0.25019 0.89626
 N1397 N 0.93604 0.25885 0.89888
 N1398 N 0.92180 0.24905 0.91019
 C1399 C 0.91018 0.21917 0.93104
 N1400 N 0.89149 0.22879 0.93479
 N1401 N 0.87652 0.21875 0.94482
 C1402 C 0.87965 0.19868 0.95138
 N1403 N 0.89838 0.18906 0.94770
 N1404 N 0.91339 0.19913 0.93775
 C1405 C 0.86283 0.18743 0.96169
 N1406 N 0.86500 0.16673 0.96593
 N1407 N 0.84948 0.15642 0.97463
 C1408 C 0.83120 0.16638 0.97949
 N1409 N 0.82912 0.18713 0.97537
 N1410 N 0.84462 0.19744 0.96659
 C1411 C 0.41371 0.74125 0.41899
 N1412 N 0.43310 0.73268 0.41652
 N1413 N 0.44775 0.74319 0.40646
 C1414 C 0.44349 0.76259 0.39840
 N1415 N 0.42411 0.77115 0.40096
 N1416 N 0.40951 0.76070 0.41109
 C1417 C 0.39731 0.72955 0.42942
 N1418 N 0.37841 0.73877 0.43311
 N1419 N 0.36325 0.72804 0.44194
 C1420 C 0.36641 0.70766 0.44732
 N1421 N 0.38533 0.69844 0.44370
 N1422 N 0.40052 0.70920 0.43494
 C1423 C 0.34951 0.69564 0.45639
 N1424 N 0.35198 0.67482 0.45947
 N1425 N 0.33652 0.66380 0.46724
 C1426 C 0.31800 0.67316 0.47229
 N1427 N 0.31560 0.69405 0.46931
 N1428 N 0.33104 0.70507 0.46144
 C1429 C 0.54074 0.78536 0.43607
 N1430 N 0.52918 0.80293 0.43162
 N1431 N 0.51407 0.80305 0.41788
 C1432 C 0.50978 0.78554 0.40818
 N1433 N 0.52111 0.76782 0.41285
 N1434 N 0.53642 0.76776 0.42647
 C1435 C 0.55831 0.78608 0.45010
 N1436 N 0.57373 0.77110 0.45043
 N1437 N 0.59057 0.77309 0.46176
 C1438 C 0.59246 0.79007 0.47323
 N1439 N 0.57685 0.80477 0.47315
 N1440 N 0.56015 0.80285 0.46177
 C1441 C 0.61163 0.79380 0.48414
 N1442 N 0.61266 0.81116 0.49510
 N1443 N 0.63040 0.81622 0.50322
 C1444 C 0.64792 0.80420 0.50073
 N1445 N 0.64683 0.78650 0.49015
 N1446 N 0.62899 0.78140 0.48197
 C1447 C 0.05005 0.28020 -0.06789
 N1448 N 0.03837 0.29686 -0.07491
 N1449 N 0.02382 0.29482 -0.08888
 C1450 C 0.02022 0.27602 -0.09634
 N1451 N 0.03160 0.25919 -0.08905
 N1452 N 0.04637 0.26127 -0.07513
 C1453 C 0.06733 0.28343 -0.05405
 N1454 N 0.08209 0.26830 -0.04980
 N1455 N 0.09888 0.27242 -0.03917
 C1456 C 0.10143 0.29179 -0.03243
 N1457 N 0.08646 0.30669 -0.03635
 N1458 N 0.06977 0.30260 -0.04693
 C1459 C 0.12086 0.29763 -0.02321
 N1460 N 0.12404 0.31798 -0.02086
 N1461 N 0.14220 0.32409 -0.01467
 C1462 C 0.15794 0.31011 -0.01042
 N1463 N 0.15469 0.28963 -0.01225
 N1464 N 0.13647 0.28349 -0.01866
 C1465 C 0.44281 0.27911 0.06838
 N1466 N 0.44824 0.26120 0.07903
 N1467 N 0.46480 0.26012 0.09115
 C1468 C 0.47637 0.27695 0.09319
 N1469 N 0.47112 0.29470 0.08224
 N1470 N 0.45474 0.29571 0.06999
 C1471 C 0.42319 0.28158 0.05721
 N1472 N 0.41882 0.29939 0.04602
 N1473 N 0.40015 0.30320 0.03806
 C1474 C 0.38503 0.28941 0.04105
 N1475 N 0.38946 0.27136 0.05191
 N1476 N 0.40823 0.26751 0.05984
 C1477 C 0.36386 0.29528 0.03446
 N1478 N 0.34777 0.28280 0.03860
 N1479 N 0.32838 0.28944 0.03440
 C1480 C 0.32441 0.30884 0.02608
 N1481 N 0.34060 0.32105 0.02165
 N1482 N 0.35989 0.31442 0.02573
 C1483 C 0.93727 0.78379 0.57919
 N1484 N 0.94680 0.76484 0.58273
 N1485 N 0.96396 0.76286 0.59403
 C1486 C 0.97204 0.77971 0.60236
 N1487 N 0.96273 0.79860 0.59825
 N1488 N 0.94578 0.80060 0.58690
 C1489 C 0.91694 0.78644 0.56934
 N1490 N 0.90781 0.80570 0.56784
 N1491 N 0.88844 0.80854 0.56148
 C1492 C 0.87735 0.79227 0.55627
 N1493 N 0.88655 0.77294 0.55727
 N1494 N 0.90603 0.77006 0.56377
 C1495 C 0.85527 0.79590 0.55174
 N1496 N 0.84382 0.78152 0.54294
 N1497 N 0.82361 0.78532 0.53968
 C1498 C 0.81417 0.80346 0.54546
 N1499 N 0.82572 0.81770 0.55419
 N1500 N 0.84583 0.81403 0.55719
   
