data_POSCAR
  _audit_creation_date              2014-09-24
  _audit_creation_method            'ToBaCCo'
  _symmetry_space_group_name_H-M    'P1'
  _symmetry_Int_Tables_number       1
  _symmetry_cell_setting            triclinic
  loop_
  _symmetry_equiv_pos_as_xyz
 x,y,z
_cell_length_a 53.3757
_cell_length_b 53.3712
_cell_length_c 53.2501
_cell_angle_alpha 89.451400
_cell_angle_beta 89.868300
_cell_angle_gamma 89.156400
loop_
  _atom_site_label
  _atom_site_type_symbol
  _atom_site_fract_x
  _atom_site_fract_y
  _atom_site_fract_z
C1 C 0.08808 0.02449 0.21912
 H2 H 0.08637 0.03884 0.23326
 C3 C 0.07422 0.02661 0.19682
 H4 H 0.06190 0.04267 0.19432
 C5 C 0.10720 -0.01315 0.20508
 H6 H 0.12062 -0.02823 0.20778
 C7 C 0.09374 -0.01185 0.18273
 H8 H 0.09674 -0.02629 0.16884
 N9 N 0.10409 0.00473 0.22288
 C10 C 0.11981 -0.00355 0.30300
 H11 H 0.13989 -0.00613 0.30130
 C12 C 0.10844 -0.00550 0.32649
 H13 H 0.12006 -0.01005 0.34255
 C14 C 0.08057 0.00410 0.28347
 H15 H 0.06981 0.00751 0.26658
 C16 C 0.06837 0.00241 0.30673
 H17 H 0.04819 0.00475 0.30761
 Zn18 Zn 0.12470 0.00288 0.25199
 N19 N 0.10592 0.00146 0.28215
 C20 C 0.14314 0.04793 0.27159
 N21 N 0.14518 0.03165 0.25218
 C22 C 0.15997 0.03679 0.23200
 C23 C 0.17332 0.05917 0.23074
 C24 C 0.15619 0.07037 0.27117
 C25 C 0.12985 -0.04839 0.25300
 C26 C 0.14129 -0.07198 0.25260
 C27 C 0.18153 -0.05188 0.25049
 C28 C 0.16915 -0.02855 0.25055
 N29 N 0.14371 -0.02731 0.25141
 H30 H 0.13084 0.04395 0.28719
 H31 H 0.16087 0.02377 0.21656
 H32 H 0.18430 0.06295 0.21410
 H33 H 0.15398 0.08318 0.28671
 H34 H 0.10966 -0.04678 0.25442
 H35 H 0.12920 -0.08794 0.25437
 H36 H 0.20182 -0.05240 0.24962
 H37 H 0.17983 -0.01150 0.24994
 C38 C 0.08238 -0.00206 0.32868
 C39 C 0.07704 0.00818 0.17820
 C40 C 0.16764 -0.07419 0.25090
 C41 C 0.17140 0.07642 0.25055
 C42 C 0.41080 0.01652 0.77801
 H43 H 0.41101 0.03165 0.76435
 C44 C 0.42492 0.01816 0.80004
 H45 H 0.43592 0.03471 0.80285
 C46 C 0.39502 -0.02277 0.79103
 H47 H 0.38288 -0.03842 0.78792
 C48 C 0.40887 -0.02198 0.81312
 H49 H 0.40736 -0.03727 0.82655
 N50 N 0.39617 -0.00371 0.77397
 C51 C 0.37969 -0.01031 0.69442
 H52 H 0.35956 -0.01193 0.69589
 C53 C 0.39135 -0.01257 0.67114
 H54 H 0.38000 -0.01582 0.65468
 C55 C 0.41878 -0.00421 0.71430
 H56 H 0.42933 -0.00109 0.73125
 C57 C 0.43128 -0.00627 0.69126
 H58 H 0.45137 -0.00413 0.69092
 Zn59 Zn 0.37493 -0.00424 0.74555
 N60 N 0.39342 -0.00604 0.71536
 C61 C 0.35682 0.04176 0.72583
 N62 N 0.35513 0.02558 0.74563
 C63 C 0.34167 0.03170 0.76647
 C64 C 0.32941 0.05502 0.76802
 C65 C 0.34482 0.06512 0.72654
 C66 C 0.36867 -0.05510 0.74235
 C67 C 0.35685 -0.07816 0.74307
 C68 C 0.31781 -0.05665 0.75232
 C69 C 0.33045 -0.03383 0.75135
 N70 N 0.35553 -0.03358 0.74681
 H71 H 0.36812 0.03698 0.70970
 H72 H 0.34115 0.01877 0.78223
 H73 H 0.31958 0.05959 0.78517
 H74 H 0.34677 0.07782 0.71068
 H75 H 0.38852 -0.05427 0.73834
 H76 H 0.36781 -0.09484 0.73900
 H77 H 0.29789 -0.05671 0.75623
 H78 H 0.32030 -0.01645 0.75440
 C79 C 0.41744 -0.01061 0.66925
 C80 C 0.42389 -0.00129 0.81807
 C81 C 0.33115 -0.07922 0.74863
 C82 C 0.33106 0.07220 0.74783
 C83 C 0.90995 0.51592 0.28603
 H84 H 0.91290 0.53045 0.27206
 C85 C 0.92243 0.51685 0.30913
 H86 H 0.93484 0.53229 0.31226
 C87 C 0.88873 0.47935 0.29888
 H88 H 0.87508 0.46512 0.29522
 C89 C 0.90053 0.47966 0.32220
 H90 H 0.89601 0.46526 0.33591
 N91 N 0.89356 0.49729 0.28130
 C92 C 0.88042 0.49354 0.20041
 H93 H 0.86036 0.49122 0.20167
 C94 C 0.89218 0.49283 0.17706
 H95 H 0.88087 0.48940 0.16066
 C96 C 0.91922 0.49954 0.22085
 H97 H 0.92966 0.50187 0.23801
 C98 C 0.93180 0.49909 0.19771
 H99 H 0.95194 0.50129 0.19723
 Zn100 Zn 0.87420 0.49778 0.25135
 N101 N 0.89388 0.49721 0.22167
 C102 C 0.85660 0.54429 0.23236
 N103 N 0.85400 0.52734 0.25138
 C104 C 0.83865 0.53215 0.27124
 C105 C 0.82517 0.55482 0.27249
 C106 C 0.84345 0.56703 0.23279
 C107 C 0.86818 0.44693 0.24729
 C108 C 0.85610 0.42413 0.24509
 C109 C 0.81633 0.44603 0.24878
 C110 C 0.82927 0.46857 0.25084
 N111 N 0.85474 0.46852 0.25017
 H112 H 0.86934 0.54055 0.21705
 H113 H 0.83730 0.51858 0.28639
 H114 H 0.81362 0.55826 0.28881
 H115 H 0.84605 0.58032 0.21753
 H116 H 0.88842 0.44752 0.24658
 H117 H 0.86725 0.40718 0.24281
 H118 H 0.79612 0.44661 0.24978
 H119 H 0.81897 0.48602 0.25287
 C120 C 0.91819 0.49618 0.17538
 C121 C 0.91766 0.49853 0.32779
 C122 C 0.82986 0.42337 0.24568
 C123 C 0.82757 0.57271 0.25303
 C124 C 0.58358 0.51181 0.72378
 H125 H 0.57459 0.51736 0.74111
 C126 C 0.56991 0.51212 0.70129
 H127 H 0.55035 0.51770 0.70170
 C128 C 0.61967 0.49682 0.70238
 H129 H 0.63901 0.49054 0.70289
 C130 C 0.60675 0.49659 0.67974
 H131 H 0.61638 0.49031 0.66295
 N132 N 0.60807 0.50431 0.72386
 C133 C 0.61048 0.47843 0.79717
 H134 H 0.62130 0.46263 0.79047
 C135 C 0.59897 0.47676 0.82063
 H136 H 0.60083 0.45958 0.83152
 C137 C 0.59537 0.52008 0.79170
 H138 H 0.59434 0.53703 0.78042
 C139 C 0.58406 0.51941 0.81547
 H140 H 0.57387 0.53573 0.82212
 Zn141 Zn 0.62821 0.50213 0.75320
 N142 N 0.60879 0.49994 0.78327
 C143 C 0.65181 0.54345 0.77601
 N144 N 0.64924 0.53053 0.75429
 C145 C 0.66032 0.53852 0.73267
 C146 C 0.67360 0.56086 0.73205
 C147 C 0.66493 0.56589 0.77625
 C148 C 0.63544 0.45170 0.74295
 C149 C 0.64821 0.42891 0.74077
 C150 C 0.68610 0.44917 0.75406
 C151 C 0.67259 0.47176 0.75573
 N152 N 0.64769 0.47249 0.75040
 H153 H 0.64336 0.53660 0.79315
 H154 H 0.65821 0.52802 0.71562
 H155 H 0.68113 0.56722 0.71428
 H156 H 0.66626 0.57622 0.79359
 H157 H 0.61561 0.45285 0.73887
 H158 H 0.63811 0.41251 0.73489
 H159 H 0.70594 0.44899 0.75815
 H160 H 0.68189 0.48863 0.76148
 C161 C 0.58621 0.49759 0.83035
 C162 C 0.58163 0.50440 0.67887
 C163 C 0.67373 0.42733 0.74669
 C164 C 0.67580 0.57504 0.75404
 C165 C 0.27980 0.08944 0.98017
 H166 H 0.26570 0.08839 0.96568
 C167 C 0.30192 0.07515 0.97827
 H168 H 0.30425 0.06303 0.96230
 C169 C 0.29384 0.10742 1.01801
 H170 H 0.29117 0.12060 1.03305
 C171 C 0.31606 0.09349 1.01693
 H172 H 0.32995 0.09587 1.03149
 N173 N 0.27619 0.10517 0.99984
 C174 C 0.19648 0.12323 1.00468
 H175 H 0.19806 0.14340 1.00530
 C176 C 0.17310 0.11228 1.00718
 H177 H 0.15667 0.12420 1.00955
 C178 C 0.21622 0.08335 1.00118
 H179 H 0.23316 0.07222 0.99911
 C180 C 0.19307 0.07153 1.00359
 H181 H 0.19260 0.05133 1.00265
 Zn182 Zn 0.24763 0.12666 1.00044
 N183 N 0.21741 0.10878 1.00165
 C184 C 0.23035 0.14464 0.95353
 N185 N 0.24869 0.14680 0.97102
 C186 C 0.26915 0.16109 0.96656
 C187 C 0.27195 0.17352 0.94349
 C188 C 0.23240 0.15670 0.93028
 C189 C 0.24569 0.13167 1.05146
 C190 C 0.24588 0.14292 1.07490
 C191 C 0.24923 0.18320 1.05412
 C192 C 0.24932 0.17099 1.03095
 N193 N 0.24796 0.14562 1.03016
 H194 H 0.21442 0.13291 0.95720
 H195 H 0.28366 0.16219 0.98064
 H196 H 0.28857 0.18444 0.94000
 H197 H 0.21743 0.15474 0.91680
 H198 H 0.24389 0.11155 1.05015
 H199 H 0.24354 0.13080 1.09104
 H200 H 0.25053 0.20345 1.05431
 H201 H 0.25046 0.18176 1.01369
 C202 C 0.17111 0.08613 1.00687
 C203 C 0.32056 0.07729 0.99681
 C204 C 0.24812 0.16917 1.07669
 C205 C 0.25377 0.17083 0.92476
 C206 C 0.72216 0.40927 0.97621
 H207 H 0.73597 0.41288 0.96177
 C208 C 0.69912 0.42222 0.97584
 H209 H 0.69571 0.43572 0.96095
 C210 C 0.70978 0.38622 1.01223
 H211 H 0.71352 0.37166 1.02596
 C212 C 0.68667 0.39872 1.01263
 H213 H 0.67317 0.39385 1.02703
 N214 N 0.72709 0.39171 0.99429
 C215 C 0.80810 0.37927 0.99804
 H216 H 0.80798 0.35904 0.99704
 C217 C 0.83060 0.39158 1.00171
 H218 H 0.84777 0.38060 1.00330
 C219 C 0.78563 0.41787 0.99756
 H220 H 0.76797 0.42795 0.99627
 C221 C 0.80786 0.43104 1.00116
 H222 H 0.80680 0.45123 1.00211
 Zn223 Zn 0.75735 0.37242 0.99302
 N224 N 0.78622 0.39244 0.99594
 C225 C 0.77658 0.35931 0.94516
 N226 N 0.75793 0.35511 0.96206
 C227 C 0.73849 0.33998 0.95648
 C228 C 0.73734 0.32823 0.93314
 C229 C 0.77623 0.34790 0.92168
 C230 C 0.75984 0.36133 1.04350
 C231 C 0.76099 0.34716 1.06556
 C232 C 0.76109 0.30962 1.04056
 C233 C 0.75962 0.32467 1.01889
 N234 N 0.75864 0.35005 1.02082
 H235 H 0.79154 0.37191 0.94960
 H236 H 0.72359 0.33742 0.97003
 H237 H 0.72127 0.31687 0.92912
 H238 H 0.79120 0.35162 0.90845
 H239 H 0.75978 0.38158 1.04441
 H240 H 0.76228 0.35741 1.08285
 H241 H 0.76163 0.28943 1.03853
 H242 H 0.75935 0.31608 1.00059
 C243 C 0.83082 0.41778 1.00343
 C244 C 0.68093 0.41695 0.99431
 C245 C 0.76124 0.32069 1.06452
 C246 C 0.75650 0.33209 0.91533
 C247 C 0.21742 0.90415 0.48425
 H248 H 0.23003 0.90442 0.46837
 C249 C 0.19423 0.91648 0.48253
 H250 H 0.18918 0.92623 0.46530
 C251 C 0.20835 0.89078 0.52579
 H252 H 0.21397 0.88097 0.54272
 C253 C 0.18492 0.90272 0.52482
 H254 H 0.17294 0.90213 0.54123
 N255 N 0.22369 0.89094 0.50535
 C256 C 0.30361 0.87770 0.49735
 H257 H 0.30334 0.85782 0.49357
 C258 C 0.32597 0.89066 0.49550
 H259 H 0.34297 0.88064 0.49029
 C260 C 0.28157 0.91489 0.50847
 H261 H 0.26408 0.92416 0.51327
 C262 C 0.30370 0.92860 0.50711
 H263 H 0.30294 0.94853 0.51058
 Zn264 Zn 0.25290 0.87031 0.50460
 N265 N 0.28202 0.88990 0.50369
 C266 C 0.26090 0.86396 0.45364
 N267 N 0.25241 0.85174 0.47443
 C268 C 0.24393 0.82787 0.47309
 C269 C 0.24333 0.81560 0.44998
 C270 C 0.26090 0.85237 0.43035
 C271 C 0.27415 0.85022 0.54906
 C272 C 0.27470 0.83664 0.57157
 C273 C 0.23365 0.82092 0.56199
 C274 C 0.23407 0.83449 0.53941
 N275 N 0.25399 0.84907 0.53352
 H276 H 0.26773 0.88286 0.45513
 H277 H 0.23756 0.81830 0.48982
 H278 H 0.23677 0.79654 0.44936
 H279 H 0.26771 0.86249 0.41403
 H280 H 0.28961 0.86224 0.54446
 H281 H 0.29059 0.83853 0.58396
 H282 H 0.21736 0.80998 0.56678
 H283 H 0.21800 0.83424 0.52709
 C284 C 0.32628 0.91634 0.50059
 C285 C 0.17729 0.91503 0.50261
 C286 C 0.25414 0.82191 0.57835
 C287 C 0.25172 0.82807 0.42820
 C288 C 0.77759 0.59044 0.48199
 H289 H 0.76409 0.58989 0.46688
 C290 C 0.80044 0.57740 0.47987
 H291 H 0.80411 0.56693 0.46297
 C292 C 0.78949 0.60631 0.52152
 H293 H 0.78561 0.61815 0.53742
 C294 C 0.81240 0.59356 0.52025
 H295 H 0.82567 0.59549 0.53545
 N296 N 0.77261 0.60462 0.50255
 C297 C 0.69244 0.61979 0.50878
 H298 H 0.69339 0.63995 0.51042
 C299 C 0.66950 0.60796 0.51125
 H300 H 0.65279 0.61921 0.51462
 C301 C 0.71333 0.58083 0.50272
 H302 H 0.73055 0.57041 0.49962
 C303 C 0.69063 0.56814 0.50503
 H304 H 0.69080 0.54801 0.50306
 Zn305 Zn 0.74335 0.62512 0.50344
 N306 N 0.71373 0.60622 0.50451
 C307 C 0.72410 0.64504 0.45799
 N308 N 0.74349 0.64592 0.47444
 C309 C 0.76402 0.65994 0.46944
 C310 C 0.76562 0.67377 0.44706
 C311 C 0.72486 0.65862 0.43552
 C312 C 0.73910 0.63048 0.55456
 C313 C 0.73866 0.64216 0.57781
 C314 C 0.74618 0.68168 0.55679
 C315 C 0.74636 0.66919 0.53380
 N316 N 0.74325 0.64396 0.53322
 H317 H 0.70823 0.63331 0.46189
 H318 H 0.77945 0.65983 0.48258
 H319 H 0.78251 0.68410 0.44335
 H320 H 0.70932 0.65739 0.42255
 H321 H 0.73617 0.61051 0.55344
 H322 H 0.73484 0.63093 0.59435
 H323 H 0.74898 0.70173 0.55710
 H324 H 0.74910 0.67961 0.51654
 C325 C 0.66830 0.58182 0.50955
 C326 C 0.81830 0.57902 0.49921
 C327 C 0.74276 0.66806 0.57920
 C328 C 0.74580 0.67314 0.42967
 C329 C 0.01384 0.22114 0.08901
 H330 H 0.02939 0.23382 0.08803
 C331 C 0.01530 0.19837 0.07635
 H332 H 0.03201 0.19372 0.06569
 C333 C -0.02659 0.21145 0.10436
 H334 H -0.04301 0.21665 0.11508
 C335 C -0.02586 0.18844 0.09211
 H336 H -0.04194 0.17639 0.09341
 N337 N -0.00654 0.22688 0.10336
 C338 C 0.00027 0.30623 0.11801
 H339 H 0.00496 0.30486 0.13773
 C340 C -0.00015 0.32948 0.10604
 H341 H 0.00441 0.34589 0.11685
 C342 C -0.01153 0.28618 0.08043
 H343 H -0.01604 0.26913 0.07070
 C344 C -0.01225 0.30921 0.06759
 H345 H -0.01711 0.30919 0.04792
 Zn346 Zn -0.00538 0.25537 0.12437
 N347 N -0.00557 0.28524 0.10522
 C348 C 0.04564 0.26229 0.12905
 N349 N 0.02537 0.25427 0.14219
 C350 C 0.02757 0.24633 0.16645
 C351 C 0.05108 0.24568 0.17810
 C352 C 0.06933 0.26211 0.13995
 C353 C -0.04969 0.27618 0.14479
 C354 C -0.07194 0.27664 0.15854
 C355 C -0.06141 0.23556 0.17506
 C356 C -0.03902 0.23608 0.16134
 N357 N -0.03375 0.25606 0.14624
 H358 H 0.04338 0.26919 0.11003
 H359 H 0.01123 0.24039 0.17677
 H360 H 0.05261 0.23913 0.19736
 H361 H 0.08476 0.26931 0.12902
 H362 H -0.04572 0.29166 0.13233
 H363 H -0.08464 0.29251 0.15637
 H364 H -0.06577 0.21921 0.18637
 H365 H -0.02639 0.22005 0.16185
 C366 C -0.00669 0.33142 0.08054
 C367 C -0.00428 0.18130 0.07862
 C368 C -0.07814 0.25603 0.17373
 C369 C 0.07242 0.25328 0.16471
 C370 C 0.02244 0.77962 0.40578
 H371 H 0.03690 0.76523 0.40689
 C372 C 0.02520 0.80207 0.41881
 H373 H 0.04171 0.80478 0.43019
 C374 C -0.01620 0.79408 0.38883
 H375 H -0.03203 0.79130 0.37667
 C376 C -0.01420 0.81670 0.40145
 H377 H -0.02914 0.83049 0.39951
 N378 N 0.00199 0.77609 0.39109
 C379 C -0.00438 0.69643 0.37574
 H380 H -0.00759 0.69835 0.35575
 C381 C -0.00526 0.67287 0.38707
 H382 H -0.00967 0.65695 0.37557
 C383 C 0.00382 0.71554 0.41481
 H384 H 0.00699 0.73229 0.42550
 C385 C 0.00319 0.69219 0.42698
 H386 H 0.00608 0.69109 0.44709
 Zn387 Zn 0.00017 0.74722 0.37077
 N388 N 0.00036 0.71710 0.38955
 C389 C 0.04514 0.72820 0.35025
 N390 N 0.02818 0.74742 0.34899
 C391 C 0.03232 0.76792 0.33429
 C392 C 0.05452 0.76985 0.32041
 C393 C 0.06740 0.72926 0.33663
 C394 C -0.05117 0.74580 0.36785
 C395 C -0.07480 0.74419 0.35709
 C396 C -0.05534 0.74522 0.31604
 C397 C -0.03199 0.74716 0.32772
 N398 N -0.03042 0.74740 0.35317
 H399 H 0.04192 0.71235 0.36249
 H400 H 0.01872 0.78316 0.33401
 H401 H 0.05751 0.78672 0.30952
 H402 H 0.08084 0.71393 0.33834
 H403 H -0.04925 0.74563 0.38807
 H404 H -0.09095 0.74298 0.36942
 H405 H -0.05567 0.74540 0.29577
 H406 H -0.01514 0.74809 0.31648
 C407 C -0.00106 0.67045 0.41302
 C408 C 0.00701 0.82116 0.41624
 C409 C -0.07735 0.74348 0.33082
 C410 C 0.07259 0.75037 0.32175
 C411 C 0.52696 0.28533 0.90601
 H412 H 0.54231 0.27190 0.90708
 C413 C 0.52818 0.30783 0.91915
 H414 H 0.54469 0.31124 0.93020
 C415 C 0.48766 0.29736 0.88878
 H416 H 0.47224 0.29364 0.87635
 C417 C 0.48802 0.31994 0.90165
 H418 H 0.47257 0.33314 0.89927
 N419 N 0.50692 0.28056 0.89120
 C420 C 0.50407 0.20083 0.87701
 H421 H 0.50246 0.20219 0.85679
 C422 C 0.50242 0.17760 0.88886
 H423 H 0.49908 0.16134 0.87746
 C424 C 0.50867 0.22109 0.91612
 H425 H 0.51066 0.23820 0.92658
 C426 C 0.50724 0.19806 0.92883
 H427 H 0.50841 0.19752 0.94914
 Zn428 Zn 0.50750 0.25155 0.87119
 N429 N 0.50733 0.22191 0.89063
 C430 C 0.55474 0.23400 0.85502
 N431 N 0.53707 0.25233 0.85156
 C432 C 0.54149 0.27245 0.83642
 C433 C 0.56465 0.27486 0.82436
 C434 C 0.57807 0.23566 0.84336
 C435 C 0.45703 0.24655 0.86569
 C436 C 0.43389 0.24433 0.85409
 C437 C 0.45419 0.25024 0.81388
 C438 C 0.47714 0.25228 0.82637
 N439 N 0.47801 0.25056 0.85185
 H440 H 0.55112 0.21835 0.86742
 H441 H 0.52728 0.28698 0.83432
 H442 H 0.56807 0.29117 0.81265
 H443 H 0.59161 0.22065 0.84629
 H444 H 0.45837 0.24500 0.88592
 H445 H 0.41744 0.24119 0.86558
 H446 H 0.45393 0.25211 0.79366
 H447 H 0.49416 0.25517 0.81576
 C448 C 0.50440 0.17593 0.91514
 C449 C 0.50845 0.32556 0.91700
 C450 C 0.43215 0.24605 0.82789
 C451 C 0.58350 0.25663 0.82827
 C452 C 0.51855 0.71371 0.59265
 H453 H 0.53426 0.72628 0.59175
 C454 C 0.51967 0.69082 0.58007
 H455 H 0.53646 0.68615 0.56965
 C456 C 0.47841 0.70421 0.60888
 H457 H 0.46262 0.70905 0.62065
 C458 C 0.47869 0.68129 0.59659
 H459 H 0.46287 0.66897 0.59882
 N460 N 0.49814 0.71992 0.60674
 C461 C 0.49452 0.80041 0.61866
 H462 H 0.49146 0.79986 0.63875
 C463 C 0.49451 0.82331 0.60595
 H464 H 0.49086 0.84020 0.61649
 C465 C 0.50179 0.77856 0.58073
 H466 H 0.50443 0.76102 0.57104
 C467 C 0.50198 0.80118 0.56721
 H468 H 0.50491 0.80092 0.54707
 Zn469 Zn 0.49841 0.74938 0.62623
 N470 N 0.49850 0.77868 0.60606
 C471 C 0.54461 0.76700 0.64357
 N472 N 0.52774 0.74831 0.64624
 C473 C 0.53269 0.72802 0.66117
 C474 C 0.55558 0.72584 0.67385
 C475 C 0.56760 0.76560 0.65585
 C476 C 0.44762 0.75636 0.63249
 C477 C 0.42445 0.75738 0.64450
 C478 C 0.44530 0.74816 0.68383
 C479 C 0.46821 0.74744 0.67100
 N480 N 0.46882 0.75105 0.64569
 H481 H 0.54062 0.78284 0.63141
 H482 H 0.51913 0.71321 0.66269
 H483 H 0.55948 0.70941 0.68536
 H484 H 0.58048 0.78093 0.65356
 H485 H 0.44875 0.75961 0.61243
 H486 H 0.40801 0.76201 0.63347
 H487 H 0.44494 0.74483 0.70392
 H488 H 0.48537 0.74369 0.68118
 C489 C 0.49881 0.82395 0.57991
 C490 C 0.49948 0.67419 0.58206
 C491 C 0.42299 0.75263 0.67047
 C492 C 0.57362 0.74450 0.67074
 C493 C 0.87729 0.99660 0.70170
 H494 H 0.85755 1.00106 0.70321
 C495 C 0.88789 0.99519 0.67901
 H496 H 0.87602 0.99844 0.66288
 C497 C 0.91628 0.99037 0.72271
 H498 H 0.92741 0.98933 0.73957
 C499 C 0.92887 0.98860 0.69802
 H500 H 0.94900 0.98564 0.69759
 N501 N 0.89208 0.99362 0.72406
 C502 C 0.89491 1.02022 0.79928
 H503 H 0.88211 1.03551 0.79494
 C504 C 0.90808 1.02063 0.82057
 H505 H 0.90584 1.03645 0.83303
 C506 C 0.91261 0.98077 0.78746
 H507 H 0.91343 0.96481 0.77510
 C508 C 0.92759 0.98043 0.81076
 H509 H 0.93938 0.96417 0.81420
 Zn510 Zn 0.87462 0.99769 0.75496
 N511 N 0.89712 0.99928 0.78261
 C512 C 0.85554 0.95531 0.78071
 N513 N 0.85232 0.97033 0.76011
 C514 C 0.83466 0.96501 0.74261
 C515 C 0.82055 0.94319 0.74470
 C516 C 0.84213 0.93320 0.78335
 C517 C 0.87121 1.04826 0.74452
 C518 C 0.86049 1.07208 0.74182
 C519 C 0.82076 1.05512 0.75489
 C520 C 0.83229 1.03147 0.75727
 N521 N 0.85715 1.02861 0.75228
 H522 H 0.86895 0.96000 0.79494
 H523 H 0.83185 0.97731 0.72666
 H524 H 0.80743 0.93881 0.72997
 H525 H 0.84568 0.92103 0.79940
 H526 H 0.89088 1.04532 0.74036
 H527 H 0.87212 1.08714 0.73506
 H528 H 0.80098 1.05725 0.75911
 H529 H 0.82147 1.01552 0.76328
 C530 C 0.92515 0.99940 0.82726
 C531 C 0.91543 0.99062 0.67668
 C532 C 0.83497 1.07587 0.74743
 C533 C 0.82466 0.92671 0.76507
 C534 C 0.40910 0.47544 0.22124
 H535 H 0.40796 0.46020 0.23473
 C536 C 0.42392 0.47277 0.19966
 H537 H 0.43426 0.45545 0.19661
 C538 C 0.39633 0.51620 0.20820
 H539 H 0.38498 0.53282 0.21098
 C540 C 0.41125 0.51453 0.18673
 H541 H 0.41113 0.52996 0.17338
 N542 N 0.39574 0.49697 0.22517
 C543 C 0.37985 0.50696 0.30474
 H544 H 0.36003 0.51115 0.30300
 C545 C 0.39120 0.50755 0.32824
 H546 H 0.38002 0.51232 0.34457
 C547 C 0.41835 0.49548 0.28545
 H548 H 0.42880 0.49090 0.26866
 C549 C 0.43047 0.49558 0.30876
 H550 H 0.45035 0.49144 0.30953
 Zn551 Zn 0.37463 0.49958 0.25396
 N552 N 0.39339 0.50078 0.28400
 C553 C 0.35854 0.45415 0.27473
 N554 N 0.35396 0.47080 0.25570
 C555 C 0.33679 0.46584 0.23761
 C556 C 0.32325 0.44351 0.23849
 C557 C 0.34577 0.43160 0.27611
 C558 C 0.37024 0.55109 0.25468
 C559 C 0.35912 0.57486 0.25391
 C560 C 0.31881 0.55544 0.24950
 C561 C 0.33080 0.53190 0.25018
 N562 N 0.35614 0.53022 0.25249
 H563 H 0.37272 0.45787 0.28856
 H564 H 0.33398 0.47896 0.22223
 H565 H 0.31008 0.43964 0.22365
 H566 H 0.35007 0.41845 0.29117
 H567 H 0.39035 0.54920 0.25667
 H568 H 0.37116 0.59092 0.25473
 H569 H 0.29863 0.55653 0.24757
 H570 H 0.31985 0.51510 0.24892
 C571 C 0.41667 0.50138 0.33058
 C572 C 0.42536 0.49263 0.18229
 C573 C 0.33297 0.57733 0.25153
 C574 C 0.32785 0.42602 0.25795
 C575 C 0.60429 0.97965 0.29092
 H576 H 0.61664 0.96403 0.28674
 C577 C 0.59176 0.97990 0.31269
 H578 H 0.59438 0.96450 0.32587
 C579 C 0.58552 1.01822 0.27737
 H580 H 0.58317 1.03314 0.26376
 C581 C 0.57125 1.01931 0.30113
 H582 H 0.55915 1.03542 0.30388
 N583 N 0.60133 0.99992 0.27315
 C584 C 0.61303 1.00677 0.19288
 H585 H 0.63251 1.01209 0.19307
 C586 C 0.59994 1.00655 0.17031
 H587 H 0.60944 1.01185 0.15311
 C588 C 0.57709 0.99330 0.21520
 H589 H 0.56840 0.98814 0.23283
 C590 C 0.56331 0.99250 0.19288
 H591 H 0.54385 0.98718 0.19365
 Zn592 Zn 0.62169 1.00067 0.24376
 N593 N 0.60151 1.00025 0.21470
 C594 C 0.63814 0.95386 0.22592
 N595 N 0.64299 0.97159 0.24341
 C596 C 0.66067 0.96742 0.26144
 C597 C 0.67388 0.94456 0.26255
 C598 C 0.65061 0.93071 0.22658
 C599 C 0.62570 1.05210 0.23695
 C600 C 0.63643 1.07575 0.23623
 C601 C 0.67624 1.05644 0.24673
 C602 C 0.66464 1.03305 0.24724
 N603 N 0.63964 1.03135 0.24282
 H604 H 0.62391 0.95722 0.21186
 H605 H 0.66380 0.98140 0.27562
 H606 H 0.68752 0.94130 0.27730
 H607 H 0.64621 0.91685 0.21261
 H608 H 0.60609 1.05030 0.23247
 H609 H 0.62420 1.09138 0.23166
 H610 H 0.69614 1.05730 0.25059
 H611 H 0.67568 1.01640 0.25124
 C612 C 0.57489 0.99909 0.17004
 C613 C 0.57443 1.00106 0.31864
 C614 C 0.66218 1.07839 0.24136
 C615 C 0.66835 0.92565 0.24541
 C616 C 0.09052 0.48308 0.78557
 H617 H 0.08665 0.46847 0.77224
 C618 C 0.07815 0.48342 0.80879
 H619 H 0.06457 0.46913 0.81319
 C620 C 0.11335 0.51911 0.79648
 H621 H 0.12728 0.53287 0.79189
 C622 C 0.10173 0.51993 0.81992
 H623 H 0.10648 0.53472 0.83276
 N624 N 0.10763 0.50090 0.77980
 C625 C 0.11634 0.50562 0.69842
 H626 H 0.13651 0.50733 0.69811
 C627 C 0.10290 0.50715 0.67606
 H628 H 0.11285 0.51007 0.65855
 C629 C 0.07896 0.49986 0.72173
 H630 H 0.06970 0.49741 0.73962
 C631 C 0.06474 0.50093 0.69965
 H632 H 0.04458 0.49949 0.70089
 Zn633 Zn 0.12569 0.49987 0.74904
 N634 N 0.10434 0.50183 0.72064
 C635 C 0.13965 0.45287 0.72929
 N636 N 0.14448 0.46941 0.74790
 C637 C 0.16154 0.46385 0.76615
 C638 C 0.17486 0.44107 0.76581
 C639 C 0.15226 0.42982 0.72843
 C640 C 0.13401 0.55039 0.74324
 C641 C 0.14683 0.57291 0.74306
 C642 C 0.18530 0.54982 0.75111
 C643 C 0.17173 0.52756 0.75073
 N644 N 0.14646 0.52833 0.74733
 H645 H 0.12574 0.45731 0.71519
 H646 H 0.16466 0.47704 0.78108
 H647 H 0.18839 0.43687 0.78043
 H648 H 0.14825 0.41710 0.71329
 H649 H 0.11393 0.55045 0.74053
 H650 H 0.13652 0.59031 0.74004
 H651 H 0.20536 0.54890 0.75391
 H652 H 0.18137 0.50984 0.75351
 C653 C 0.07685 0.50442 0.67641
 C654 C 0.08406 0.50176 0.82642
 C655 C 0.17266 0.57289 0.74757
 C656 C 0.16997 0.42360 0.74699
 C657 C 0.78299 0.91624 0.02118
 H658 H 0.76991 0.91666 0.03672
 C659 C 0.80454 0.93082 0.02194
 H660 H 0.80783 0.94264 0.03799
 C661 C 0.79555 0.89928 -0.01791
 H662 H 0.79263 0.88633 -0.03302
 C663 C 0.81701 0.91384 -0.01813
 H664 H 0.83021 0.91182 -0.03346
 N665 N 0.77904 0.90059 0.00158
 C666 C 0.70002 0.88140 -0.00283
 H667 H 0.70245 0.86195 -0.00779
 C668 C 0.67602 0.89197 -0.00259
 H669 H 0.66042 0.87990 -0.00631
 C670 C 0.71783 0.92022 0.00785
 H671 H 0.73415 0.93122 0.01173
 C672 C 0.69407 0.93167 0.00811
 H673 H 0.69237 0.95144 0.01233
 Zn674 Zn 0.75160 0.87811 0.00200
 N675 N 0.72031 0.89539 0.00271
 C676 C 0.73513 0.84006 0.03531
 N677 N 0.75380 0.85659 0.03066
 C678 C 0.77306 0.85909 0.04712
 C679 C 0.77298 0.84620 0.07004
 C680 C 0.73442 0.82665 0.05793
 C681 C 0.74680 0.87279 -0.04919
 C682 C 0.74706 0.86106 -0.07242
 C683 C 0.75794 0.82204 -0.05144
 C684 C 0.75762 0.83462 -0.02852
 N685 N 0.75216 0.85956 -0.02791
 H686 H 0.72041 0.83761 0.02178
 H687 H 0.78832 0.87143 0.04280
 H688 H 0.78837 0.84873 0.08292
 H689 H 0.71901 0.81415 0.06166
 H690 H 0.74271 0.89266 -0.04807
 H691 H 0.74364 0.87241 -0.08900
 H692 H 0.76241 0.80218 -0.05175
 H693 H 0.76192 0.82456 -0.01131
 C694 C 0.67276 0.91755 0.00275
 C695 C 0.82180 0.92972 0.00209
 C696 C 0.75243 0.83522 -0.07376
 C697 C 0.75297 0.83040 0.07600
 C698 C 0.28025 0.41272 0.51562
 H699 H 0.26665 0.41580 0.53040
 C700 C 0.30303 0.42548 0.51591
 H701 H 0.30670 0.43840 0.53095
 C702 C 0.29283 0.39080 0.47914
 H703 H 0.28936 0.37672 0.46523
 C704 C 0.31582 0.40276 0.47894
 H705 H 0.32948 0.39807 0.46459
 N706 N 0.27543 0.39600 0.49715
 C707 C 0.19473 0.38332 0.49228
 H708 H 0.19613 0.36357 0.48801
 C709 C 0.17133 0.39519 0.49274
 H710 H 0.15476 0.38446 0.48872
 C711 C 0.21474 0.42115 0.50268
 H712 H 0.23173 0.43127 0.50618
 C713 C 0.19156 0.43378 0.50360
 H714 H 0.19113 0.45362 0.50757
 Zn715 Zn 0.24575 0.37660 0.49709
 N716 N 0.21582 0.39623 0.49756
 C717 C 0.22645 0.35460 0.54156
 N718 N 0.24645 0.35510 0.52567
 C719 C 0.26783 0.34190 0.53093
 C720 C 0.26975 0.32775 0.55312
 C721 C 0.22742 0.34038 0.56366
 C722 C 0.24279 0.37263 0.44571
 C723 C 0.24353 0.36163 0.42212
 C724 C 0.24821 0.32114 0.44240
 C725 C 0.24759 0.33302 0.46572
 N726 N 0.24516 0.35837 0.46686
 H727 H 0.20986 0.36568 0.53750
 H728 H 0.28362 0.34294 0.51821
 H729 H 0.28707 0.31776 0.55736
 H730 H 0.21151 0.34085 0.57630
 H731 H 0.24104 0.39279 0.44724
 H732 H 0.24270 0.37380 0.40581
 H733 H 0.25040 0.30095 0.44170
 H734 H 0.24939 0.32207 0.48283
 C735 C 0.16943 0.42059 0.49889
 C736 C 0.32113 0.42044 0.49731
 C737 C 0.24617 0.33545 0.42017
 C738 C 0.24935 0.32682 0.56973
 C739 C 0.22113 0.57835 -0.00261
 H740 H 0.23785 0.56793 -0.00763
 C741 C 0.19770 0.56701 -0.00467
 H742 H 0.19729 0.54791 -0.01113
 C743 C 0.20196 0.61567 0.01208
 H744 H 0.20363 0.63466 0.01867
 C745 C 0.17833 0.60513 0.01048
 H746 H 0.16213 0.61636 0.01585
 N747 N 0.22280 0.60241 0.00537
 C748 C 0.29764 0.60382 0.03025
 H749 H 0.29280 0.61816 0.04360
 C750 C 0.32025 0.59078 0.03320
 H751 H 0.33225 0.59514 0.04891
 C752 C 0.28889 0.58171 -0.00697
 H753 H 0.27710 0.57896 -0.02316
 C754 C 0.31140 0.56799 -0.00459
 H755 H 0.31655 0.55472 -0.01901
 Zn756 Zn 0.25329 0.62043 0.00692
 N757 N 0.28241 0.59927 0.01037
 C758 C 0.25843 0.66516 0.03551
 N759 N 0.25141 0.64077 0.03570
 C760 C 0.24411 0.62912 0.05724
 C761 C 0.24425 0.64181 0.07994
 C762 C 0.25898 0.67860 0.05794
 C763 C 0.27556 0.63869 -0.03822
 C764 C 0.27580 0.65189 -0.06102
 C765 C 0.23522 0.66958 -0.05073
 C766 C 0.23580 0.65611 -0.02813
 N767 N 0.25554 0.64068 -0.02249
 H768 H 0.26427 0.67396 0.01812
 H769 H 0.23858 0.60971 0.05678
 H770 H 0.23792 0.63207 0.09662
 H771 H 0.26505 0.69788 0.05769
 H772 H 0.29120 0.62652 -0.03337
 H773 H 0.29168 0.64967 -0.07354
 H774 H 0.21872 0.68079 -0.05498
 H775 H 0.22013 0.65755 -0.01536
 C776 C 0.32745 0.57266 0.01572
 C777 C 0.17571 0.58059 0.00170
 C778 C 0.25537 0.66741 -0.06767
 C779 C 0.25244 0.66672 0.08062
 C780 C 0.71801 0.07508 0.49444
 H781 H 0.73473 0.06380 0.49749
 C782 C 0.69477 0.06354 0.49204
 H783 H 0.69396 0.04339 0.49396
 C784 C 0.69898 0.11511 0.48858
 H785 H 0.70088 0.13522 0.48705
 C786 C 0.67552 0.10442 0.48604
 H787 H 0.65934 0.11649 0.48272
 N788 N 0.71959 0.10045 0.49278
 C789 C 0.79519 0.09662 0.47595
 H790 H 0.79214 0.10889 0.46000
 C791 C 0.81722 0.08238 0.47725
 H792 H 0.83066 0.08371 0.46203
 C793 C 0.78212 0.08099 0.51557
 H794 H 0.76851 0.08104 0.53065
 C795 C 0.80410 0.06649 0.51773
 H796 H 0.80695 0.05550 0.53465
 Zn797 Zn 0.75008 0.11781 0.49388
 N798 N 0.77817 0.09576 0.49495
 C799 C 0.77170 0.15174 0.52760
 N800 N 0.75094 0.13810 0.52286
 C801 C 0.73158 0.13732 0.53948
 C802 C 0.73268 0.15043 0.56197
 C803 C 0.77359 0.16517 0.54994
 C804 C 0.74660 0.12381 0.44272
 C805 C 0.74613 0.13578 0.41939
 C806 C 0.75430 0.17492 0.44009
 C807 C 0.75453 0.16213 0.46315
 N808 N 0.75100 0.13696 0.46394
 H809 H 0.78700 0.15178 0.51424
 H810 H 0.71538 0.12612 0.53563
 H811 H 0.71682 0.14970 0.57462
 H812 H 0.79037 0.17570 0.55361
 H813 H 0.74329 0.10388 0.44401
 H814 H 0.74195 0.12482 0.40300
 H815 H 0.75721 0.19496 0.43964
 H816 H 0.75741 0.17231 0.48032
 C817 C 0.82213 0.06726 0.49839
 C818 C 0.67312 0.07835 0.48755
 C819 C 0.75038 0.16167 0.41781
 C820 C 0.75416 0.16418 0.56769
 C821 C 0.97865 0.71772 0.91172
 H822 H 0.96174 0.72915 0.91210
 C823 C 0.97888 0.69488 0.92238
 H824 H 0.96214 0.68858 0.93185
 C825 C 1.02150 0.71408 0.89938
 H826 H 1.03777 0.72091 0.88957
 C827 C 1.02297 0.68935 0.91183
 H828 H 1.04059 0.67900 0.91111
 N829 N 1.00050 0.72680 0.89887
 C830 C 1.00046 0.80876 0.88580
 H831 H 1.00660 0.80877 0.86644
 C832 C 0.99822 0.83039 0.89797
 H833 H 1.00222 0.84770 0.88804
 C834 C 0.98938 0.78480 0.92209
 H835 H 0.98594 0.76707 0.93131
 C836 C 0.98698 0.80835 0.93650
 H837 H 0.98179 0.80688 0.95605
 Zn838 Zn 0.99852 0.75627 0.87850
 N839 N 0.99538 0.78546 0.89837
 C840 C 0.96310 0.77575 0.84376
 N841 N 0.97046 0.75471 0.85654
 C842 C 0.95711 0.73325 0.85502
 C843 C 0.93445 0.73301 0.84198
 C844 C 0.94062 0.77631 0.83040
 C845 C 1.04862 0.76856 0.87135
 C846 C 1.07207 0.76795 0.85981
 C847 C 1.05361 0.74713 0.82440
 C848 C 1.03042 0.74818 0.83664
 N849 N 1.02848 0.75851 0.85981
 H850 H 0.97418 0.79243 0.84449
 H851 H 0.96376 0.71633 0.86421
 H852 H 0.92405 0.71578 0.84130
 H853 H 0.93462 0.79349 0.82107
 H854 H 1.04658 0.77645 0.88988
 H855 H 1.08767 0.77632 0.86938
 H856 H 1.05506 0.73839 0.80617
 H857 H 1.01414 0.74006 0.82802
 C858 C 0.99101 0.83058 0.92489
 C859 C 1.00226 0.67920 0.92182
 C860 C 1.07493 0.75647 0.83629
 C861 C 0.92553 0.75507 0.83023
 C862 C 0.47700 0.21554 0.41159
 H863 H 0.46081 0.22790 0.41275
 C864 C 0.47712 0.19262 0.42456
 H865 H 0.46108 0.18752 0.43591
 C866 C 0.51703 0.20633 0.39441
 H867 H 0.53226 0.21115 0.38203
 C868 C 0.51812 0.18355 0.40737
 H869 H 0.53420 0.17126 0.40471
 N870 N 0.49675 0.22193 0.39674
 C871 C 0.50284 0.30246 0.38678
 H872 H 0.50892 0.30239 0.36740
 C873 C 0.50340 0.32466 0.40028
 H874 H 0.50971 0.34162 0.39106
 C875 C 0.48793 0.28033 0.42243
 H876 H 0.48229 0.26295 0.43112
 C877 C 0.48795 0.30229 0.43664
 H878 H 0.48250 0.30134 0.45620
 Zn879 Zn 0.49572 0.25207 0.37720
 N880 N 0.49507 0.28087 0.39787
 C881 C 0.46047 0.27428 0.34395
 N882 N 0.46682 0.25271 0.35638
 C883 C 0.45205 0.23220 0.35521
 C884 C 0.42925 0.23335 0.34241
 C885 C 0.43787 0.27621 0.33082
 C886 C 0.54684 0.25739 0.37038
 C887 C 0.56982 0.25682 0.35796
 C888 C 0.54800 0.24899 0.31917
 C889 C 0.52533 0.24953 0.33245
 N890 N 0.52526 0.25345 0.35764
 H891 H 0.47262 0.29024 0.34472
 H892 H 0.45773 0.21495 0.36443
 H893 H 0.41785 0.21677 0.34181
 H894 H 0.43279 0.29372 0.32157
 H895 H 0.54619 0.26016 0.39048
 H896 H 0.58660 0.25885 0.36903
 H897 H 0.54787 0.24551 0.29917
 H898 H 0.50791 0.24629 0.32277
 C899 C 0.49565 0.32488 0.42543
 C900 C 0.49796 0.17644 0.42265
 C901 C 0.57066 0.25264 0.33191
 C902 C 0.42157 0.25586 0.33063
 C903 C 1.01825 0.27214 0.57453
 H904 H 1.02768 0.25546 0.56772
 C905 C 1.01812 0.29407 0.55996
 H906 H 1.02727 0.29388 0.54177
 C907 C 0.99596 0.29275 0.60701
 H908 H 0.98774 0.29218 0.62558
 C909 C 0.99545 0.31507 0.59318
 H910 H 0.98605 0.33094 0.60157
 N911 N 1.00744 0.27197 0.59768
 C912 C 0.99550 0.21222 0.58042
 H913 H 0.98457 0.22841 0.57442
 C914 C 0.99321 0.18961 0.56771
 H915 H 0.98079 0.18901 0.55175
 C916 C 1.02520 0.19393 0.60830
 H917 H 1.03745 0.19552 0.62426
 C918 C 1.02352 0.17099 0.59613
 H919 H 1.03464 0.15518 0.60288
 Zn920 Zn 1.01095 0.24389 0.61939
 N921 N 1.01100 0.21389 0.60057
 C922 C 0.96088 0.23671 0.63153
 N923 N 0.98315 0.24319 0.64171
 C924 C 0.98506 0.24852 0.66659
 C925 C 0.96401 0.24707 0.68225
 C926 C 0.93951 0.23490 0.64644
 C927 C 1.05873 0.26324 0.62810
 C928 C 1.08220 0.26504 0.63930
 C929 C 1.06985 0.23360 0.66962
 C930 C 1.04673 0.23210 0.65750
 N931 N 1.04166 0.24671 0.63702
 H932 H 0.95968 0.23268 0.61176
 H933 H 1.00279 0.25412 0.67430
 H934 H 0.96576 0.25141 0.70199
 H935 H 0.92236 0.22884 0.63778
 H936 H 1.05437 0.27489 0.61197
 H937 H 1.09498 0.27865 0.63165
 H938 H 1.07351 0.22162 0.68578
 H939 H 1.03289 0.21906 0.66430
 C940 C 1.00699 0.16841 0.57592
 C941 C 1.00715 0.31621 0.56938
 C942 C 1.08829 0.24976 0.66021
 C943 C 0.94080 0.24041 0.67217
 C944 C 0.48344 0.78876 0.09213
 H945 H 0.46687 0.77740 0.09111
 C946 C 0.48394 0.81200 0.07981
 H947 H 0.46783 0.81818 0.06897
 C948 C 0.52446 0.79470 0.10772
 H949 H 0.54013 0.78819 0.11890
 C950 C 0.52593 0.81775 0.09531
 H951 H 0.54276 0.82872 0.09699
 N952 N 0.50331 0.78083 0.10625
 C953 C 0.50243 0.69959 0.11580
 H954 H 0.50773 0.69843 0.13533
 C955 C 0.49962 0.67763 0.10224
 H956 H 0.50192 0.66008 0.11225
 C957 C 0.49312 0.72427 0.07978
 H958 H 0.49062 0.74247 0.07105
 C959 C 0.49034 0.70269 0.06537
 H960 H 0.48570 0.70456 0.04564
 Zn961 Zn 0.50152 0.75077 0.12568
 N962 N 0.49874 0.72235 0.10465
 C963 C 0.46764 0.73145 0.16176
 N964 N 0.47313 0.75199 0.14754
 C965 C 0.45772 0.77253 0.14754
 C966 C 0.43489 0.77210 0.16037
 C967 C 0.44504 0.73026 0.17499
 C968 C 0.55198 0.73817 0.13239
 C969 C 0.57532 0.73807 0.14409
 C970 C 0.55591 0.75662 0.18063
 C971 C 0.53285 0.75632 0.16821
 N972 N 0.53142 0.74746 0.14441
 H973 H 0.48041 0.71563 0.16240
 H974 H 0.46279 0.78920 0.13723
 H975 H 0.42284 0.78858 0.15978
 H976 H 0.44059 0.71342 0.18550
 H977 H 0.55032 0.73139 0.11339
 H978 H 0.59122 0.73028 0.13409
 H979 H 0.55689 0.76418 0.19940
 H980 H 0.51624 0.76387 0.17724
 C981 C 0.49356 0.67892 0.07652
 C982 C 0.50529 0.82694 0.08175
 C983 C 0.57764 0.74802 0.16833
 C984 C 0.42790 0.75034 0.17353
 O985 O -0.01436 0.98606 0.93346
 O986 O 0.02829 0.99784 0.93262
 O987 O -0.01537 0.93213 0.99432
 O988 O -0.00614 0.93136 1.03488
 O989 O -0.07264 0.98998 0.98874
 O990 O -0.07394 1.03323 0.99895
 O991 O 0.04647 1.00305 1.05896
 O992 O 0.05092 0.96226 1.04260
 O993 O 0.05223 1.05208 0.99774
 O994 O 0.03113 1.05680 0.95738
 O995 O -0.00755 1.06084 1.04929
 O996 O -0.04694 1.03918 1.05664
 O997 O 0.01134 1.02273 1.07348
 O998 O -0.03291 1.00934 1.07480
 O999 O 0.01222 1.07482 1.01414
 O1000 O -0.00021 1.07343 0.96934
 O1001 O 0.06824 1.01825 1.01880
 O1002 O 0.07005 0.97436 1.00823
 O1003 O -0.04937 1.00645 0.94736
 O1004 O -0.05564 1.04653 0.96691
 O1005 O -0.05729 0.95638 1.01070
 O1006 O -0.03588 0.95433 1.05130
 O1007 O 0.00418 0.94623 0.95900
 O1008 O 0.04300 0.96738 0.95252
 Zr1009 Zr 0.00936 0.98466 0.96495
 O1010 O 0.03261 1.00842 0.98542
 Zr1011 Zr -0.01919 0.96439 1.01658
 O1012 O 0.00338 0.98693 1.03943
 Zr1013 Zr -0.04189 1.01390 0.98537
 O1014 O -0.02090 1.03863 1.00722
 Zr1015 Zr 0.03785 0.99375 1.02179
 O1016 O 0.01670 0.96837 1.00040
 Zr1017 Zr 0.01463 1.04319 0.99093
 O1018 O -0.00741 1.02051 0.96749
 Zr1019 Zr -0.01349 1.02260 1.04272
 O1020 O -0.03740 0.99917 1.02194
 O1021 O -0.02573 0.97860 0.98067
 O1022 O 0.02168 1.02918 1.02699
 C1023 C -0.03631 0.99574 0.93013
 C1024 C -0.00542 0.92880 0.97255
 C1025 C -0.07512 0.96861 0.99970
 C1026 C 0.03380 1.01410 1.07623
 C1027 C 0.07027 1.03998 1.00846
 C1028 C 0.00251 1.07817 1.03594
 H1029 H 0.04859 1.01026 0.97625
 H1030 H -0.03024 1.05469 1.00850
 H1031 H -0.03610 0.96741 0.97038
 H1032 H 0.00590 0.97866 1.05594
 H1033 H 0.04468 0.94722 1.03399
 H1034 H 0.00662 0.93636 1.04721
 H1035 H -0.01593 1.07917 0.97746
 H1036 H -0.04247 1.05174 0.95491
 H1037 H 0.07439 0.98133 0.99154
 H1038 H 0.04879 0.95619 0.96632
 H1039 H -0.05286 1.05165 1.04405
 H1040 H -0.07654 1.02734 1.01644
 H1041 H 0.02180 1.01501 0.92929
 H1042 H 0.04427 1.04463 0.95224
 H1043 H -0.04896 0.96714 1.05491
 H1044 H -0.02402 0.99416 1.08109
 O1045 O 0.48071 0.48457 0.43593
 O1046 O 0.52370 0.49533 0.43432
 O1047 O 0.48205 0.42732 0.49456
 O1048 O 0.49244 0.42494 0.53484
 O1049 O 0.42412 0.48610 0.49524
 O1050 O 0.42398 0.52911 0.50544
 O1051 O 0.54604 0.49532 0.55999
 O1052 O 0.54941 0.45482 0.54156
 O1053 O 0.55016 0.54644 0.50024
 O1054 O 0.52671 0.55232 0.46030
 O1055 O 0.49342 0.55346 0.55467
 O1056 O 0.45272 0.53201 0.56168
 O1057 O 0.51137 0.51418 0.57650
 O1058 O 0.46750 0.50187 0.57896
 O1059 O 0.51159 0.56870 0.51916
 O1060 O 0.49737 0.57007 0.47553
 O1061 O 0.56666 0.51181 0.51953
 O1062 O 0.56810 0.46882 0.50757
 O1063 O 0.44589 0.50340 0.45226
 O1064 O 0.44092 0.54280 0.47316
 O1065 O 0.44070 0.45065 0.51298
 O1066 O 0.46307 0.44716 0.55295
 O1067 O 0.49882 0.44316 0.45855
 O1068 O 0.53810 0.46343 0.45214
 Zr1069 Zr 0.50537 0.48097 0.46649
 O1070 O 0.52968 0.50355 0.48709
 Zr1071 Zr 0.47884 0.45864 0.51823
 O1072 O 0.50226 0.48016 0.54123
 Zr1073 Zr 0.45511 0.50958 0.49016
 O1074 O 0.47725 0.53333 0.51202
 Zr1075 Zr 0.53616 0.48744 0.52269
 O1076 O 0.51409 0.46314 0.50091
 Zr1077 Zr 0.51220 0.53817 0.49456
 O1078 O 0.48894 0.51672 0.47120
 Zr1079 Zr 0.48582 0.51579 0.54651
 O1080 O 0.46105 0.49324 0.52582
 O1081 O 0.47083 0.47445 0.48328
 O1082 O 0.52044 0.52268 0.52977
 C1083 C 0.45853 0.49406 0.43393
 C1084 C 0.49024 0.42508 0.47194
 C1085 C 0.42221 0.46393 0.50464
 C1086 C 0.53390 0.50556 0.57815
 C1087 C 0.56847 0.53389 0.50993
 C1088 C 0.50343 0.57110 0.54172
 H1089 H 0.54533 0.50564 0.47740
 H1090 H 0.46824 0.54945 0.51436
 H1091 H 0.45987 0.46385 0.47297
 H1092 H 0.50526 0.47122 0.55731
 H1093 H 0.54308 0.44030 0.53216
 H1094 H 0.50548 0.42946 0.54708
 H1095 H 0.48141 0.57484 0.48380
 H1096 H 0.45391 0.54856 0.46122
 H1097 H 0.57080 0.47525 0.49032
 H1098 H 0.54407 0.45150 0.46524
 H1099 H 0.44794 0.54659 0.55103
 H1100 H 0.42250 0.52344 0.52313
 H1101 H 0.51724 0.51265 0.43179
 H1102 H 0.54091 0.54136 0.45523
 H1103 H 0.45016 0.45985 0.55746
 H1104 H 0.47555 0.48566 0.58356
 O1105 O 0.44442 -0.04981 0.49054
 O1106 O 0.46501 -0.05494 0.45102
 O1107 O 0.50580 -0.05769 0.54220
 O1108 O 0.54149 -0.03877 0.55020
 O1109 O 0.45137 0.00317 0.55036
 O1110 O 0.44491 0.04196 0.52902
 O1111 O 0.56958 0.01154 0.47823
 O1112 O 0.57113 -0.03041 0.49183
 O1113 O 0.51216 0.01491 0.42370
 O1114 O 0.46881 0.00322 0.42243
 O1115 O 0.51428 0.06871 0.48044
 O1116 O 0.50239 0.06956 0.52465
 O1117 O 0.55385 0.04617 0.49757
 O1118 O 0.53222 0.05147 0.53860
 O1119 O 0.49383 0.05416 0.44628
 O1120 O 0.45340 0.03157 0.44123
 O1121 O 0.54740 -0.00437 0.43871
 O1122 O 0.55310 -0.04517 0.45846
 O1123 O 0.42848 -0.01517 0.50977
 O1124 O 0.42753 0.02818 0.49713
 O1125 O 0.48619 -0.01682 0.56550
 O1126 O 0.52968 -0.00275 0.56449
 O1127 O 0.48564 -0.07273 0.50804
 O1128 O 0.49759 -0.07257 0.46459
 Zr1129 Zr 0.48223 -0.04146 0.48385
 O1130 O 0.50420 -0.01951 0.45957
 Zr1131 Zr 0.51042 -0.01938 0.53432
 O1132 O 0.53406 0.00310 0.51216
 Zr1133 Zr 0.45917 0.00903 0.51209
 O1134 O 0.48051 0.03318 0.48937
 Zr1135 Zr 0.53892 -0.01259 0.47645
 O1136 O 0.51796 -0.03695 0.49975
 Zr1137 Zr 0.48764 0.01613 0.45467
 O1138 O 0.46386 -0.00701 0.47640
 Zr1139 Zr 0.51618 0.03782 0.50517
 O1140 O 0.49357 0.01625 0.52965
 O1141 O 0.47544 -0.02598 0.51893
 O1142 O 0.52298 0.02281 0.46974
 C1143 C 0.42636 -0.03719 0.50049
 C1144 C 0.49580 -0.07547 0.52974
 C1145 C 0.46429 -0.00686 0.56822
 C1146 C 0.57179 0.03357 0.48741
 C1147 C 0.53453 0.00608 0.42106
 C1148 C 0.50446 0.07160 0.45859
 H1149 H 0.50612 -0.02822 0.44338
 H1150 H 0.47133 0.04929 0.48743
 H1151 H 0.46505 -0.03680 0.52984
 H1152 H 0.55028 0.00488 0.52084
 H1153 H 0.56521 -0.04470 0.50215
 H1154 H 0.55666 -0.03283 0.54142
 H1155 H 0.44880 0.04590 0.45203
 H1156 H 0.42446 0.02099 0.48036
 H1157 H 0.54105 -0.05013 0.44541
 H1158 H 0.51473 -0.07528 0.47127
 H1159 H 0.48596 0.07430 0.51733
 H1160 H 0.45843 0.04830 0.53984
 H1161 H 0.45346 -0.04148 0.44507
 H1162 H 0.47537 -0.01377 0.41872
 H1163 H 0.52074 0.01313 0.56839
 H1164 H 0.54659 0.04039 0.54304
 O1165 O 0.01520 0.52187 0.93010
 O1166 O -0.02745 0.51039 0.92918
 O1167 O 0.01527 0.57587 0.99036
 O1168 O 0.00597 0.57661 1.03072
 O1169 O 0.07310 0.51782 0.98678
 O1170 O 0.07399 0.47465 0.99671
 O1171 O -0.04687 0.50557 1.05588
 O1172 O -0.05189 0.54576 1.03805
 O1173 O -0.05198 0.45580 0.99509
 O1174 O -0.03018 0.45138 0.95489
 O1175 O 0.00618 0.44764 1.04766
 O1176 O 0.04609 0.46853 1.05456
 O1177 O -0.01186 0.48584 1.07080
 O1178 O 0.03246 0.49888 1.07176
 O1179 O -0.01238 0.43328 1.01238
 O1180 O 0.00081 0.43458 0.96774
 O1181 O -0.06845 0.48933 1.01571
 O1182 O -0.07032 0.53339 1.00398
 O1183 O 0.05027 0.50206 0.94492
 O1184 O 0.05590 0.46171 0.96482
 O1185 O 0.05705 0.55186 1.00684
 O1186 O 0.03529 0.55357 1.04760
 O1187 O -0.00456 0.56231 0.95534
 O1188 O -0.04245 0.54051 0.94813
 Zr1189 Zr -0.00893 0.52352 0.96144
 O1190 O -0.03239 0.49962 0.98218
 Zr1191 Zr 0.01899 0.54361 1.01293
 O1192 O -0.00391 0.52115 1.03598
 Zr1193 Zr 0.04216 0.49428 0.98285
 O1194 O 0.02093 0.46949 1.00499
 Zr1195 Zr -0.03822 0.51420 1.01827
 O1196 O -0.01674 0.53961 0.99661
 Zr1197 Zr -0.01436 0.46489 0.98848
 O1198 O 0.00788 0.48769 0.96483
 Zr1199 Zr 0.01303 0.48557 1.04007
 O1200 O 0.03723 0.50894 1.01909
 O1201 O 0.02601 0.52960 0.97727
 O1202 O -0.02194 0.47887 1.02423
 C1203 C 0.03728 0.51239 0.92723
 C1204 C 0.00488 0.57958 0.96892
 C1205 C 0.07533 0.53938 0.99702
 C1206 C -0.03418 0.49471 1.07347
 C1207 C -0.07021 0.46764 1.00560
 C1208 C -0.00362 0.43021 1.03468
 H1209 H -0.04825 0.49770 0.97293
 H1210 H 0.03020 0.45341 1.00672
 H1211 H 0.03646 0.54089 0.96690
 H1212 H -0.00655 0.52949 1.05228
 H1213 H -0.04528 0.56076 1.02934
 H1214 H -0.00738 0.57168 1.04261
 H1215 H 0.01644 0.42889 0.97612
 H1216 H 0.04287 0.45670 0.95275
 H1217 H -0.07474 0.52597 0.98767
 H1218 H -0.04901 0.55106 0.96192
 H1219 H 0.05176 0.45564 1.04252
 H1220 H 0.07595 0.47971 1.01442
 H1221 H -0.02112 0.49311 0.92639
 H1222 H -0.04361 0.46326 0.94966
 H1223 H 0.04880 0.54115 1.05119
 H1224 H 0.02362 0.51414 1.07769
 O1225 O 0.00627 0.42960 0.52203
 O1226 O -0.00493 0.42659 0.47866
 O1227 O 0.06456 0.48625 0.51658
 O1228 O 0.06730 0.52607 0.50566
 O1229 O 0.00618 0.49034 0.57485
 O1230 O -0.03686 0.50399 0.57357
 O1231 O -0.00077 0.55158 0.45003
 O1232 O 0.03865 0.52983 0.44785
 O1233 O -0.05425 0.49370 0.44715
 O1234 O -0.06052 0.45460 0.47267
 O1235 O -0.06085 0.54994 0.50162
 O1236 O -0.03929 0.55777 0.54219
 O1237 O -0.02110 0.56955 0.48298
 O1238 O -0.00915 0.57354 0.52674
 O1239 O -0.07654 0.51444 0.48491
 O1240 O -0.07855 0.47168 0.50061
 O1241 O -0.01975 0.51223 0.43081
 O1242 O 0.02251 0.49724 0.42976
 O1243 O -0.01251 0.44859 0.55533
 O1244 O -0.05114 0.47102 0.55882
 O1245 O 0.04172 0.50610 0.55762
 O1246 O 0.04547 0.54541 0.53368
 O1247 O 0.04834 0.45000 0.50202
 O1248 O 0.02741 0.44190 0.46368
 Zr1249 Zr 0.01035 0.45877 0.49527
 O1250 O -0.01164 0.47939 0.46929
 Zr1251 Zr 0.03348 0.51074 0.51924
 O1252 O 0.01237 0.53358 0.49444
 Zr1253 Zr -0.01777 0.48595 0.54380
 O1254 O -0.04124 0.50744 0.51997
 Zr1255 Zr 0.00501 0.51405 0.46133
 O1256 O 0.02869 0.49206 0.48492
 Zr1257 Zr -0.04621 0.48890 0.48570
 O1258 O -0.02530 0.46585 0.51086
 Zr1259 Zr -0.02325 0.54081 0.51003
 O1260 O -0.00088 0.52052 0.53626
 O1261 O 0.01722 0.47683 0.52890
 O1262 O -0.03019 0.52312 0.47604
 C1263 C -0.00341 0.42927 0.54421
 C1264 C 0.06668 0.46337 0.50943
 C1265 C 0.02866 0.49855 0.57642
 C1266 C -0.01123 0.57037 0.46102
 C1267 C -0.04185 0.50328 0.42879
 C1268 C -0.07871 0.53726 0.49213
 H1269 H -0.01389 0.46934 0.45401
 H1270 H -0.05735 0.51065 0.52862
 H1271 H 0.02779 0.46649 0.54035
 H1272 H 0.02165 0.54912 0.49092
 H1273 H 0.05263 0.51944 0.45469
 H1274 H 0.06301 0.53721 0.49131
 H1275 H -0.08285 0.48015 0.51653
 H1276 H -0.05744 0.45910 0.54627
 H1277 H 0.01575 0.48023 0.42784
 H1278 H 0.03849 0.45466 0.45614
 H1279 H -0.05374 0.54761 0.54754
 H1280 H -0.02956 0.52087 0.57499
 H1281 H -0.02216 0.42505 0.48535
 H1282 H -0.04984 0.44890 0.45858
 H1283 H 0.03300 0.55068 0.54644
 H1284 H 0.00753 0.57672 0.51934
 O1285 O 0.50325 1.05637 -0.05166
 O1286 O 0.54179 1.03461 -0.05746
 O1287 O 0.45068 0.99589 -0.06150
 O1288 O 0.44234 0.95956 -0.04295
 O1289 O 0.44097 1.04865 -0.00089
 O1290 O 0.46067 1.05317 0.03884
 O1291 O 0.51353 0.92928 0.00887
 O1292 O 0.50006 0.92872 -0.03333
 O1293 O 0.56699 0.98577 0.01296
 O1294 O 0.56767 1.03027 0.00110
 O1295 O 0.50872 0.98283 0.06629
 O1296 O 0.46492 0.99476 0.06657
 O1297 O 0.49198 0.94375 0.04278
 O1298 O 0.45101 0.96623 0.04755
 O1299 O 0.54377 1.00180 0.05164
 O1300 O 0.54922 1.04338 0.03095
 O1301 O 0.55278 0.95157 -0.00740
 O1302 O 0.53364 0.94678 -0.04803
 O1303 O 0.48255 1.07149 -0.01751
 O1304 O 0.49312 1.07060 0.02617
 O1305 O 0.42643 1.01455 -0.02123
 O1306 O 0.42689 0.97068 -0.00696
 O1307 O 0.48506 1.01635 -0.07580
 O1308 O 0.52818 1.00323 -0.07534
 Zr1309 Zr 0.50854 1.01798 -0.04415
 O1310 O 0.53216 0.99504 -0.02197
 Zr1311 Zr 0.45753 0.98990 -0.02307
 O1312 O 0.47902 0.96525 -0.00032
 Zr1313 Zr 0.47887 1.03992 0.00615
 O1314 O 0.50089 1.01752 0.03053
 Zr1315 Zr 0.51510 0.96038 -0.01550
 O1316 O 0.49251 0.98235 -0.04015
 Zr1317 Zr 0.53596 1.01044 0.01391
 O1318 O 0.51492 1.03518 -0.00936
 Zr1319 Zr 0.48498 0.98192 0.03475
 O1320 O 0.46116 1.00553 0.01286
 O1321 O 0.47314 1.02488 -0.02920
 O1322 O 0.52073 0.97512 0.02016
 C1323 C 0.49322 1.07427 -0.03898
 C1324 C 0.46349 1.00645 -0.07897
 C1325 C 0.42348 1.03632 -0.01145
 C1326 C 0.50319 0.92628 0.03043
 C1327 C 0.57005 0.96389 0.00360
 C1328 C 0.53089 0.99143 0.06913
 H1329 H 0.54853 0.99322 -0.03051
 H1330 H 0.50245 1.02611 0.04679
 H1331 H 0.46277 1.03594 -0.04017
 H1332 H 0.47036 0.94906 0.00122
 H1333 H 0.49009 0.93507 -0.04778
 H1334 H 0.45062 0.94406 -0.03662
 H1335 H 0.53800 1.04746 0.04519
 H1336 H 0.51041 1.07314 0.02000
 H1337 H 0.54625 0.95917 -0.05328
 H1338 H 0.52123 0.98644 -0.07845
 H1339 H 0.47130 1.01149 0.07081
 H1340 H 0.44936 1.03970 0.04452
 H1341 H 0.54803 1.04513 -0.04367
 H1342 H 0.57328 1.02268 -0.01486
 H1343 H 0.42241 0.97941 0.00878
 H1344 H 0.44693 0.95217 0.03637
 O1345 O 0.48996 0.56482 0.02554
 O1346 O 0.50045 0.56905 -0.01797
 O1347 O 0.43308 0.50632 0.01994
 O1348 O 0.43146 0.46644 0.01063
 O1349 O 0.49210 0.50377 0.07805
 O1350 O 0.53547 0.49022 0.07617
 O1351 O 0.50062 0.44481 -0.04725
 O1352 O 0.45990 0.46448 -0.04814
 O1353 O 0.55099 0.50489 -0.05077
 O1354 O 0.55703 0.54284 -0.02469
 O1355 O 0.56021 0.44678 0.00383
 O1356 O 0.53933 0.43766 0.04478
 O1357 O 0.52107 0.42659 -0.01429
 O1358 O 0.50962 0.42118 0.02959
 O1359 O 0.57465 0.48287 -0.01353
 O1360 O 0.57589 0.52536 0.00260
 O1361 O 0.51682 0.48546 -0.06636
 O1362 O 0.47401 0.49865 -0.06620
 O1363 O 0.51011 0.54573 0.05827
 O1364 O 0.54894 0.52400 0.06152
 O1365 O 0.45718 0.48631 0.06169
 O1366 O 0.45448 0.44738 0.03746
 O1367 O 0.44834 0.54364 0.00626
 O1368 O 0.46848 0.55301 -0.03249
 Zr1369 Zr 0.48640 0.53604 -0.00118
 O1370 O 0.50864 0.51663 -0.02754
 Zr1371 Zr 0.46503 0.48284 0.02306
 O1372 O 0.48652 0.46116 -0.00218
 Zr1373 Zr 0.51585 0.50869 0.04675
 O1374 O 0.53967 0.48842 0.02248
 Zr1375 Zr 0.49292 0.48163 -0.03531
 O1376 O 0.46892 0.50239 -0.01130
 Zr1377 Zr 0.54374 0.50779 -0.01185
 O1378 O 0.52245 0.52968 0.01374
 Zr1379 Zr 0.52251 0.45474 0.01283
 O1380 O 0.49988 0.47378 0.03947
 O1381 O 0.48040 0.51706 0.03249
 O1382 O 0.52856 0.47333 -0.02125
 C1383 C 0.50020 0.56497 0.04740
 C1384 C 0.43035 0.52939 0.01313
 C1385 C 0.47004 0.49456 0.08014
 C1386 C 0.51169 0.42610 -0.03644
 C1387 C 0.53831 0.49559 -0.06888
 C1388 C 0.57753 0.45998 -0.00623
 H1389 H 0.51028 0.52717 -0.04279
 H1390 H 0.55597 0.48547 0.03085
 H1391 H 0.46964 0.52692 0.04406
 H1392 H 0.47775 0.44540 -0.00570
 H1393 H 0.44557 0.47413 -0.04110
 H1394 H 0.43568 0.45627 -0.00425
 H1395 H 0.58079 0.51641 0.01822
 H1396 H 0.55521 0.53591 0.04868
 H1397 H 0.48025 0.51589 -0.06827
 H1398 H 0.45738 0.54021 -0.03963
 H1399 H 0.55348 0.44818 0.04996
 H1400 H 0.52809 0.47338 0.07799
 H1401 H 0.51764 0.57109 -0.01145
 H1402 H 0.54568 0.54895 -0.03815
 H1403 H 0.46719 0.44231 0.05011
 H1404 H 0.49304 0.41756 0.02232
 O1405 O -0.07194 0.00448 0.51819
 O1406 O -0.07070 -0.03839 0.50577
 O1407 O -0.01435 0.00542 0.57491
 O1408 O 0.02633 -0.00364 0.57732
 O1409 O -0.01692 0.06339 0.51705
 O1410 O -0.00572 0.06452 0.47393
 O1411 O 0.05638 -0.05444 0.50755
 O1412 O 0.03648 -0.05964 0.54718
 O1413 O -0.00179 -0.06139 0.45457
 O1414 O -0.04301 -0.04075 0.44868
 O1415 O 0.04789 -0.00143 0.44846
 O1416 O 0.05238 0.03864 0.47075
 O1417 O 0.07043 -0.01935 0.48789
 O1418 O 0.06980 0.02459 0.50078
 O1419 O 0.01407 -0.02125 0.43273
 O1420 O -0.03071 -0.00965 0.43215
 O1421 O 0.01817 -0.07714 0.48904
 O1422 O 0.00510 -0.08019 0.53158
 O1423 O -0.05753 0.03992 0.49938
 O1424 O -0.03674 0.04618 0.45989
 O1425 O 0.00224 0.04760 0.55200
 O1426 O 0.04291 0.02683 0.55584
 O1427 O -0.04858 -0.01369 0.55901
 O1428 O -0.05253 -0.05270 0.53762
 Zr1429 Zr -0.04001 -0.01904 0.52087
 O1430 O -0.01746 -0.04207 0.49794
 Zr1431 Zr 0.00954 0.00972 0.54372
 O1432 O 0.03428 -0.01224 0.52190
 Zr1433 Zr -0.01925 0.03251 0.49298
 O1434 O 0.00432 0.01177 0.46891
 Zr1435 Zr 0.01817 -0.04694 0.51413
 O1436 O -0.00541 -0.02625 0.53868
 Zr1437 Zr -0.01058 -0.02397 0.46349
 O1438 O -0.03579 -0.00212 0.48526
 Zr1439 Zr 0.03897 0.00478 0.48643
 O1440 O 0.01641 0.02824 0.50935
 O1441 O -0.02555 0.01616 0.52795
 O1442 O 0.02482 -0.03061 0.47900
 C1443 C -0.07507 0.02665 0.50896
 C1444 C -0.03617 -0.00422 0.57718
 C1445 C -0.00748 0.06568 0.53907
 C1446 C 0.07374 -0.04135 0.49732
 C1447 C 0.00921 -0.07924 0.46683
 C1448 C 0.03582 -0.01158 0.43044
 H1449 H -0.02592 -0.05820 0.49552
 H1450 H 0.00619 0.02112 0.45293
 H1451 H -0.03659 0.02651 0.53879
 H1452 H 0.05031 -0.01441 0.53097
 H1453 H 0.02602 -0.05413 0.56156
 H1454 H 0.03936 -0.01611 0.57263
 H1455 H -0.02338 0.00664 0.42740
 H1456 H -0.04792 0.03280 0.45408
 H1457 H -0.01196 -0.08338 0.52532
 H1458 H -0.03918 -0.05838 0.54934
 H1459 H 0.04112 0.04362 0.45679
 H1460 H 0.01151 0.06712 0.48011
 H1461 H -0.07329 -0.03164 0.48857
 H1462 H -0.04769 -0.05471 0.46001
 H1463 H 0.04712 0.03980 0.54316
 H1464 H 0.07489 0.01645 0.51677
 O1465 O 0.73117 0.17976 0.25718
 O1466 O 0.77374 0.17931 0.24411
 O1467 O 0.73100 0.23355 0.31673
 O1468 O 0.74002 0.27323 0.32189
 O1469 O 0.67344 0.23721 0.25897
 O1470 O 0.67298 0.25172 0.21689
 O1471 O 0.79357 0.30498 0.25352
 O1472 O 0.79803 0.28265 0.29163
 O1473 O 0.79939 0.25003 0.19711
 O1474 O 0.77787 0.21188 0.18772
 O1475 O 0.74187 0.30464 0.19551
 O1476 O 0.70117 0.30944 0.21659
 O1477 O 0.75866 0.32265 0.23608
 O1478 O 0.71387 0.32261 0.24910
 O1479 O 0.75928 0.27066 0.17647
 O1480 O 0.74627 0.22601 0.17347
 O1481 O 0.81488 0.26738 0.23258
 O1482 O 0.81679 0.25014 0.27491
 O1483 O 0.69653 0.19688 0.23859
 O1484 O 0.69115 0.22117 0.20042
 O1485 O 0.68929 0.25366 0.29471
 O1486 O 0.71126 0.29305 0.30110
 O1487 O 0.75033 0.19980 0.29899
 O1488 O 0.78892 0.19486 0.27625
 Zr1489 Zr 0.75541 0.21019 0.26110
 O1490 O 0.77904 0.23301 0.23935
 Zr1491 Zr 0.72744 0.25950 0.28705
 O1492 O 0.75044 0.28446 0.26708
 Zr1493 Zr 0.70462 0.23532 0.23472
 O1494 O 0.72608 0.25977 0.21229
 Zr1495 Zr 0.78470 0.26699 0.25794
 O1496 O 0.76311 0.24307 0.28105
 Zr1497 Zr 0.76144 0.24342 0.20548
 O1498 O 0.73901 0.21773 0.22582
 Zr1499 Zr 0.73385 0.29262 0.23218
 O1500 O 0.70946 0.26958 0.25329
 O1501 O 0.72046 0.22586 0.26922
 O1502 O 0.76884 0.27710 0.22346
 C1503 C 0.70923 0.17815 0.24754
 C1504 C 0.74087 0.21150 0.31785
 C1505 C 0.67111 0.24554 0.28142
 C1506 C 0.78099 0.32383 0.24492
 C1507 C 0.81720 0.25947 0.20998
 C1508 C 0.75124 0.29351 0.17635
 H1509 H 0.79493 0.22381 0.23628
 H1510 H 0.71698 0.26345 0.19652
 H1511 H 0.70984 0.21464 0.27949
 H1512 H 0.75299 0.29963 0.27722
 H1513 H 0.79163 0.27213 0.30559
 H1514 H 0.75372 0.28501 0.31825
 H1515 H 0.73086 0.23538 0.16863
 H1516 H 0.70415 0.20939 0.19411
 H1517 H 0.82133 0.23485 0.26549
 H1518 H 0.79509 0.20713 0.28852
 H1519 H 0.69593 0.29919 0.20220
 H1520 H 0.67130 0.26892 0.22355
 H1521 H 0.76695 0.17820 0.22687
 H1522 H 0.78977 0.20401 0.19973
 H1523 H 0.69791 0.29836 0.28924
 H1524 H 0.72273 0.32701 0.26471
 O1525 O 0.76005 0.82289 0.76566
 O1526 O 0.71675 0.82252 0.75581
 O1527 O 0.76473 0.76457 0.82292
 O1528 O 0.75666 0.72415 0.82597
 O1529 O 0.81980 0.76692 0.76267
 O1530 O 0.81883 0.75594 0.71962
 O1531 O 0.70179 0.69591 0.75802
 O1532 O 0.69866 0.71490 0.79794
 O1533 O 0.69214 0.75430 0.70562
 O1534 O 0.71238 0.79555 0.69895
 O1535 O 0.75201 0.70347 0.69750
 O1536 O 0.79306 0.69783 0.71759
 O1537 O 0.73631 0.68115 0.73754
 O1538 O 0.78124 0.68107 0.74893
 O1539 O 0.73116 0.73781 0.68237
 O1540 O 0.74224 0.78208 0.68064
 O1541 O 0.67824 0.73453 0.74086
 O1542 O 0.67772 0.74781 0.78405
 O1543 O 0.79516 0.80795 0.74625
 O1544 O 0.79922 0.78752 0.70626
 O1545 O 0.80601 0.74751 0.79818
 O1546 O 0.78574 0.70706 0.80298
 O1547 O 0.74410 0.79913 0.80783
 O1548 O 0.70426 0.80429 0.78788
 Zr1549 Zr 0.73724 0.79125 0.76988
 O1550 O 0.71332 0.76936 0.74803
 Zr1551 Zr 0.76779 0.74097 0.79166
 O1552 O 0.74485 0.71685 0.77105
 Zr1553 Zr 0.78767 0.76989 0.73999
 O1554 O 0.76600 0.74679 0.71701
 Zr1555 Zr 0.70964 0.73373 0.76465
 O1556 O 0.73142 0.75662 0.78813
 Zr1557 Zr 0.72986 0.76241 0.71296
 O1558 O 0.75248 0.78706 0.73365
 Zr1559 Zr 0.76019 0.71211 0.73498
 O1560 O 0.78465 0.73412 0.75660
 O1561 O 0.77295 0.77616 0.77558
 O1562 O 0.72437 0.72706 0.72896
 C1563 C 0.78188 0.82572 0.75586
 C1564 C 0.75453 0.78632 0.82562
 C1565 C 0.82334 0.75715 0.78452
 C1566 C 0.71449 0.67838 0.74734
 C1567 C 0.67500 0.74355 0.71866
 C1568 C 0.74075 0.71579 0.67991
 H1569 H 0.69701 0.77818 0.74624
 H1570 H 0.77454 0.74480 0.70065
 H1571 H 0.78366 0.78694 0.78597
 H1572 H 0.74321 0.70077 0.78024
 H1573 H 0.70511 0.72471 0.81218
 H1574 H 0.74386 0.71159 0.82201
 H1575 H 0.75869 0.77489 0.67570
 H1576 H 0.78550 0.79919 0.70125
 H1577 H 0.67287 0.76415 0.77649
 H1578 H 0.69908 0.79083 0.79962
 H1579 H 0.79756 0.70943 0.70377
 H1580 H 0.82182 0.73855 0.72565
 H1581 H 0.72210 0.82488 0.73815
 H1582 H 0.69828 0.79987 0.71027
 H1583 H 0.79834 0.70291 0.78994
 H1584 H 0.77337 0.67547 0.76482
 O1585 O 0.30539 0.19468 0.74419
 O1586 O 0.31085 0.21517 0.70437
 O1587 O 0.31287 0.25699 0.79486
 O1588 O 0.29338 0.29278 0.80288
 O1589 O 0.25201 0.20374 0.80414
 O1590 O 0.21322 0.19841 0.78275
 O1591 O 0.24382 0.32180 0.73045
 O1592 O 0.28592 0.32214 0.74464
 O1593 O 0.24178 0.26441 0.67657
 O1594 O 0.25431 0.21971 0.67674
 O1595 O 0.18681 0.26727 0.73349
 O1596 O 0.18610 0.25599 0.77817
 O1597 O 0.20874 0.30671 0.74918
 O1598 O 0.20331 0.28630 0.79083
 O1599 O 0.20271 0.24852 0.69867
 O1600 O 0.22366 0.20699 0.69410
 O1601 O 0.26102 0.29906 0.69119
 O1602 O 0.30094 0.30421 0.71103
 O1603 O 0.27053 0.18003 0.76373
 O1604 O 0.22761 0.18020 0.75128
 O1605 O 0.27187 0.23804 0.81876
 O1606 O 0.25735 0.28173 0.81724
 O1607 O 0.32830 0.23620 0.76094
 O1608 O 0.32870 0.24674 0.71760
 Zr1609 Zr 0.29720 0.23288 0.73712
 O1610 O 0.27566 0.25561 0.71261
 Zr1611 Zr 0.27450 0.26205 0.78726
 O1612 O 0.25214 0.28619 0.76484
 Zr1613 Zr 0.24644 0.21149 0.76572
 O1614 O 0.22261 0.23332 0.74253
 Zr1615 Zr 0.26835 0.29057 0.72915
 O1616 O 0.29242 0.26887 0.75256
 Zr1617 Zr 0.24016 0.24000 0.70780
 O1618 O 0.26282 0.21555 0.72995
 Zr1619 Zr 0.21758 0.26912 0.75798
 O1620 O 0.23895 0.24616 0.78281
 O1621 O 0.28141 0.22676 0.77234
 O1622 O 0.23315 0.27549 0.72257
 C1623 C 0.29256 0.17705 0.75432
 C1624 C 0.33086 0.24686 0.78230
 C1625 C 0.26186 0.21649 0.82185
 C1626 C 0.22137 0.32437 0.73887
 C1627 C 0.25065 0.28651 0.67370
 C1628 C 0.18477 0.25885 0.71111
 H1629 H 0.28462 0.25727 0.69645
 H1630 H 0.20654 0.22461 0.74059
 H1631 H 0.29223 0.21616 0.78333
 H1632 H 0.25010 0.30252 0.77327
 H1633 H 0.30026 0.31575 0.75473
 H1634 H 0.28736 0.30807 0.79401
 H1635 H 0.20954 0.20271 0.70533
 H1636 H 0.23416 0.17761 0.73408
 H1637 H 0.30666 0.29162 0.69870
 H1638 H 0.33105 0.26412 0.72340
 H1639 H 0.18134 0.23975 0.77092
 H1640 H 0.20717 0.21188 0.79399
 H1641 H 0.29748 0.20391 0.69866
 H1642 H 0.27026 0.22741 0.67151
 H1643 H 0.24129 0.27340 0.82092
 H1644 H 0.21438 0.30036 0.79503
 O1645 O 0.19370 0.75026 0.29806
 O1646 O 0.21435 0.71075 0.30458
 O1647 O 0.25471 0.80142 0.30724
 O1648 O 0.29132 0.80901 0.28918
 O1649 O 0.20283 0.81020 0.24529
 O1650 O 0.19895 0.78963 0.20584
 O1651 O 0.32181 0.73682 0.24056
 O1652 O 0.32148 0.75068 0.28245
 O1653 O 0.26454 0.68314 0.23683
 O1654 O 0.21998 0.68323 0.24760
 O1655 O 0.26893 0.74012 0.18163
 O1656 O 0.25730 0.78419 0.17985
 O1657 O 0.30773 0.75680 0.20533
 O1658 O 0.28616 0.79788 0.19870
 O1659 O 0.24924 0.70573 0.19692
 O1660 O 0.20743 0.70107 0.21695
 O1661 O 0.29876 0.69765 0.25708
 O1662 O 0.30302 0.71753 0.29737
 O1663 O 0.17942 0.76965 0.26253
 O1664 O 0.18071 0.75778 0.21932
 O1665 O 0.23695 0.82508 0.26539
 O1666 O 0.28106 0.82362 0.25252
 O1667 O 0.23427 0.76726 0.32221
 O1668 O 0.24567 0.72400 0.32317
 Zr1669 Zr 0.23202 0.74344 0.29111
 O1670 O 0.25515 0.71906 0.27030
 Zr1671 Zr 0.26112 0.79365 0.26910
 O1672 O 0.28584 0.77131 0.24761
 Zr1673 Zr 0.21134 0.77212 0.23945
 O1674 O 0.23381 0.74918 0.21634
 Zr1675 Zr 0.29013 0.73557 0.26404
 O1676 O 0.26793 0.75896 0.28740
 Zr1677 Zr 0.24026 0.71446 0.23424
 O1678 O 0.21532 0.73639 0.25617
 Zr1679 Zr 0.26963 0.76461 0.21240
 O1680 O 0.24601 0.78928 0.23296
 O1681 O 0.22590 0.77859 0.27494
 O1682 O 0.27584 0.72915 0.22826
 C1683 C 0.17621 0.76022 0.28458
 C1684 C 0.24428 0.78881 0.32497
 C1685 C 0.21522 0.82798 0.25535
 C1686 C 0.32510 0.74625 0.21855
 C1687 C 0.28636 0.68014 0.24657
 C1688 C 0.26014 0.71802 0.17927
 H1689 H 0.25668 0.70289 0.27939
 H1690 H 0.22544 0.74730 0.19995
 H1691 H 0.21495 0.78943 0.28539
 H1692 H 0.30213 0.77979 0.24615
 H1693 H 0.31489 0.76101 0.29641
 H1694 H 0.30679 0.80028 0.28360
 H1695 H 0.20353 0.71211 0.20241
 H1696 H 0.17783 0.74070 0.22601
 H1697 H 0.29063 0.70486 0.30247
 H1698 H 0.26282 0.73012 0.32614
 H1699 H 0.24068 0.77769 0.17532
 H1700 H 0.21248 0.80095 0.20038
 H1701 H 0.20343 0.70495 0.29087
 H1702 H 0.22689 0.67835 0.26418
 H1703 H 0.27285 0.82762 0.23629
 H1704 H 0.29999 0.80215 0.21015
 O1705 O 0.23618 0.73236 0.82694
 O1706 O 0.24695 0.77564 0.82728
 O1707 O 0.17882 0.73320 0.76883
 O1708 O 0.17635 0.74204 0.72831
 O1709 O 0.23802 0.67525 0.76945
 O1710 O 0.28118 0.67557 0.75790
 O1711 O 0.24455 0.79578 0.70055
 O1712 O 0.20470 0.79921 0.72065
 O1713 O 0.29689 0.80212 0.75942
 O1714 O 0.30304 0.77938 0.80030
 O1715 O 0.30474 0.74391 0.70713
 O1716 O 0.28364 0.70336 0.70117
 O1717 O 0.26556 0.76175 0.68541
 O1718 O 0.25330 0.71757 0.68405
 O1719 O 0.31980 0.76329 0.74164
 O1720 O 0.32153 0.75033 0.78548
 O1721 O 0.26227 0.81745 0.73941
 O1722 O 0.21962 0.81911 0.75299
 O1723 O 0.25551 0.69765 0.81111
 O1724 O 0.29467 0.69281 0.78992
 O1725 O 0.20247 0.69136 0.75173
 O1726 O 0.19879 0.71274 0.71109
 O1727 O 0.19442 0.75078 0.80414
 O1728 O 0.21481 0.78954 0.81009
 Zr1729 Zr 0.23237 0.75685 0.79586
 O1730 O 0.25441 0.78121 0.77409
 Zr1731 Zr 0.21017 0.72935 0.74510
 O1732 O 0.23129 0.75252 0.72109
 Zr1733 Zr 0.26135 0.70654 0.77300
 O1734 O 0.28479 0.72871 0.75031
 Zr1735 Zr 0.23805 0.78682 0.73855
 O1736 O 0.21431 0.76484 0.76149
 Zr1737 Zr 0.28923 0.76410 0.76658
 O1738 O 0.26825 0.74077 0.79090
 Zr1739 Zr 0.26711 0.73643 0.71584
 O1740 O 0.24487 0.71173 0.73747
 O1741 O 0.22608 0.72204 0.78007
 O1742 O 0.27351 0.77147 0.73139
 C1743 C 0.24601 0.71031 0.82927
 C1744 C 0.17636 0.74211 0.79104
 C1745 C 0.21581 0.67309 0.76048
 C1746 C 0.25572 0.78374 0.68290
 C1747 C 0.28425 0.81989 0.74869
 C1748 C 0.32231 0.75443 0.71946
 H1749 H 0.25636 0.79709 0.78321
 H1750 H 0.30101 0.71985 0.74804
 H1751 H 0.21551 0.71125 0.79085
 H1752 H 0.22224 0.75505 0.70507
 H1753 H 0.19055 0.79300 0.73092
 H1754 H 0.18067 0.75524 0.71594
 H1755 H 0.32605 0.73390 0.77818
 H1756 H 0.30050 0.70612 0.80123
 H1757 H 0.22637 0.82237 0.76989
 H1758 H 0.20354 0.79598 0.79670
 H1759 H 0.29784 0.69846 0.71215
 H1760 H 0.27476 0.67331 0.74065
 H1761 H 0.26424 0.76912 0.82973
 H1762 H 0.29215 0.79381 0.80482
 H1763 H 0.21169 0.69999 0.70671
 H1764 H 0.23718 0.72562 0.67925
 O1765 O 0.25242 0.20381 0.19176
 O1766 O 0.29164 0.19816 0.21276
 O1767 O 0.20024 0.19715 0.25319
 O1768 O 0.19255 0.21659 0.28924
 O1769 O 0.19187 0.25658 0.19813
 O1770 O 0.21232 0.29585 0.19196
 O1771 O 0.26361 0.26694 0.31657
 O1772 O 0.24948 0.22512 0.31864
 O1773 O 0.31809 0.26766 0.25919
 O1774 O 0.31875 0.25547 0.21513
 O1775 O 0.26024 0.32343 0.25964
 O1776 O 0.21613 0.32403 0.24863
 O1777 O 0.24361 0.30140 0.30053
 O1778 O 0.20288 0.30706 0.27905
 O1779 O 0.29556 0.30726 0.24175
 O1780 O 0.30092 0.28541 0.20094
 O1781 O 0.30297 0.24909 0.29457
 O1782 O 0.28346 0.20960 0.30130
 O1783 O 0.23341 0.23865 0.17537
 O1784 O 0.24433 0.28172 0.17427
 O1785 O 0.17680 0.23780 0.23347
 O1786 O 0.17729 0.25270 0.27663
 O1787 O 0.23468 0.18145 0.23320
 O1788 O 0.27785 0.18102 0.24526
 Zr1789 Zr 0.25856 0.21236 0.22969
 O1790 O 0.28240 0.23424 0.25163
 Zr1791 Zr 0.20783 0.23542 0.25772
 O1792 O 0.22953 0.25815 0.28113
 Zr1793 Zr 0.22988 0.26290 0.20614
 O1794 O 0.25233 0.28699 0.22725
 Zr1795 Zr 0.26527 0.24201 0.28629
 O1796 O 0.24250 0.21755 0.26547
 Zr1797 Zr 0.28711 0.26958 0.23477
 O1798 O 0.26569 0.24652 0.21108
 Zr1799 Zr 0.23626 0.29253 0.26286
 O1800 O 0.21213 0.27081 0.24053
 O1801 O 0.22345 0.22817 0.22271
 O1802 O 0.27173 0.27710 0.27003
 C1803 C 0.24287 0.21649 0.17338
 C1804 C 0.21291 0.17910 0.24329
 C1805 C 0.17410 0.24694 0.21123
 C1806 C 0.25406 0.28904 0.31861
 C1807 C 0.32072 0.25880 0.28155
 C1808 C 0.28259 0.32546 0.25090
 H1809 H 0.29858 0.22523 0.25365
 H1810 H 0.25419 0.30293 0.21789
 H1811 H 0.21289 0.21730 0.21227
 H1812 H 0.22081 0.26036 0.29737
 H1813 H 0.23970 0.21065 0.31284
 H1814 H 0.20044 0.22351 0.30441
 H1815 H 0.28994 0.29981 0.19634
 H1816 H 0.26173 0.27546 0.17204
 H1817 H 0.29550 0.20326 0.28865
 H1818 H 0.27097 0.17847 0.26236
 H1819 H 0.22293 0.32797 0.23178
 H1820 H 0.20049 0.30167 0.20509
 H1821 H 0.29747 0.21129 0.20096
 H1822 H 0.32338 0.23906 0.22269
 H1823 H 0.17354 0.26867 0.26770
 H1824 H 0.19826 0.29598 0.29327
 O1825 O 0.74534 0.70261 0.30897
 O1826 O 0.70645 0.69769 0.28779
 O1827 O 0.79851 0.69366 0.24891
 O1828 O 0.80648 0.71166 0.21210
 O1829 O 0.80580 0.75440 0.30120
 O1830 O 0.78475 0.79380 0.30594
 O1831 O 0.73574 0.76335 0.18148
 O1832 O 0.74965 0.72107 0.18139
 O1833 O 0.68033 0.76696 0.23813
 O1834 O 0.67889 0.75626 0.28237
 O1835 O 0.73815 0.82091 0.23537
 O1836 O 0.78194 0.82086 0.24756
 O1837 O 0.75543 0.79763 0.19633
 O1838 O 0.79603 0.80247 0.21836
 O1839 O 0.70277 0.80655 0.25406
 O1840 O 0.69704 0.78551 0.29598
 O1841 O 0.69608 0.74749 0.20363
 O1842 O 0.71549 0.70701 0.19907
 O1843 O 0.76450 0.73712 0.32411
 O1844 O 0.75247 0.78053 0.32347
 O1845 O 0.82143 0.73494 0.26665
 O1846 O 0.82124 0.74767 0.22272
 O1847 O 0.76367 0.67909 0.26857
 O1848 O 0.72051 0.67970 0.25597
 Zr1849 Zr 0.73964 0.71070 0.27066
 O1850 O 0.71603 0.73281 0.24757
 Zr1851 Zr 0.79065 0.73187 0.24238
 O1852 O 0.76923 0.75451 0.21768
 Zr1853 Zr 0.76779 0.76097 0.29256
 O1854 O 0.74570 0.78526 0.27005
 Zr1855 Zr 0.73357 0.73924 0.21281
 O1856 O 0.75616 0.71469 0.23491
 Zr1857 Zr 0.71103 0.76870 0.26282
 O1858 O 0.73211 0.74546 0.28775
 Zr1859 Zr 0.76226 0.78944 0.23444
 O1860 O 0.78602 0.76767 0.25811
 O1861 O 0.77464 0.72576 0.27747
 O1862 O 0.72690 0.77487 0.22748
 C1863 C 0.75493 0.71528 0.32683
 C1864 C 0.78568 0.67607 0.25909
 C1865 C 0.82390 0.74470 0.28845
 C1866 C 0.74526 0.78513 0.17865
 C1867 C 0.67812 0.75791 0.21600
 C1868 C 0.71576 0.82395 0.24370
 H1869 H 0.69987 0.72423 0.24573
 H1870 H 0.74370 0.80150 0.27865
 H1871 H 0.78526 0.71495 0.28844
 H1872 H 0.77817 0.75607 0.20148
 H1873 H 0.75929 0.70642 0.18791
 H1874 H 0.79840 0.71796 0.19654
 H1875 H 0.70775 0.79992 0.29989
 H1876 H 0.73528 0.77421 0.32593
 H1877 H 0.70298 0.70161 0.21164
 H1878 H 0.72766 0.67660 0.23909
 H1879 H 0.77467 0.82557 0.26399
 H1880 H 0.79629 0.79952 0.29257
 H1881 H 0.70037 0.71127 0.29888
 H1882 H 0.67489 0.73941 0.27610
 H1883 H 0.82486 0.76387 0.23074
 H1884 H 0.80045 0.79141 0.20417
 O1885 O 0.76838 0.18124 0.72609
 O1886 O 0.72583 0.18147 0.73982
 O1887 O 0.76545 0.23897 0.66790
 O1888 O 0.75536 0.27948 0.66556
 O1889 O 0.82581 0.23771 0.72256
 O1890 O 0.82805 0.25002 0.76565
 O1891 O 0.70604 0.30768 0.73810
 O1892 O 0.70090 0.28836 0.69797
 O1893 O 0.70243 0.24942 0.79081
 O1894 O 0.72535 0.20856 0.79612
 O1895 O 0.76095 0.30138 0.79379
 O1896 O 0.80064 0.30644 0.76989
 O1897 O 0.74166 0.32305 0.75502
 O1898 O 0.78510 0.32368 0.74018
 O1899 O 0.74262 0.26696 0.81072
 O1900 O 0.75552 0.22292 0.81211
 O1901 O 0.68533 0.26885 0.75662
 O1902 O 0.68148 0.25605 0.71450
 O1903 O 0.80390 0.19662 0.74328
 O1904 O 0.81179 0.21829 0.78114
 O1905 O 0.80771 0.25592 0.68817
 O1906 O 0.78659 0.29656 0.68540
 O1907 O 0.74862 0.20392 0.68525
 O1908 O 0.71044 0.19885 0.70821
 Zr1909 Zr 0.74405 0.21255 0.72348
 O1910 O 0.72109 0.23450 0.74703
 Zr1911 Zr 0.77039 0.26290 0.69861
 O1912 O 0.74863 0.28714 0.72113
 Zr1913 Zr 0.79596 0.23496 0.74857
 O1914 O 0.77517 0.25782 0.77336
 Zr1915 Zr 0.71477 0.26997 0.73057
 O1916 O 0.73518 0.24685 0.70546
 Zr1917 Zr 0.74002 0.24195 0.78059
 O1918 O 0.76207 0.21747 0.75820
 Zr1919 Zr 0.76667 0.29228 0.75576
 O1920 O 0.78995 0.27043 0.73194
 O1921 O 0.77849 0.22799 0.71456
 O1922 O 0.73199 0.27708 0.76486
 C1923 C 0.79068 0.17861 0.73482
 C1924 C 0.75669 0.21674 0.66641
 C1925 C 0.82660 0.24666 0.70004
 C1926 C 0.71893 0.32544 0.74744
 C1927 C 0.68397 0.25980 0.77895
 C1928 C 0.75144 0.28915 0.81229
 H1929 H 0.70532 0.22554 0.75020
 H1930 H 0.78488 0.26002 0.78895
 H1931 H 0.78867 0.21702 0.70351
 H1932 H 0.74564 0.30314 0.71206
 H1933 H 0.70602 0.27800 0.68344
 H1934 H 0.74328 0.29268 0.67073
 H1935 H 0.77195 0.23042 0.81570
 H1936 H 0.79866 0.20762 0.78861
 H1937 H 0.67920 0.23872 0.72070
 H1938 H 0.70404 0.21193 0.69646
 H1939 H 0.80612 0.29545 0.78395
 H1940 H 0.83005 0.26707 0.75850
 H1941 H 0.73311 0.17908 0.75677
 H1942 H 0.71044 0.20407 0.78622
 H1943 H 0.80002 0.30086 0.69734
 H1944 H 0.77650 0.32832 0.72433
 C1945 C 0.06402 1.00903 1.15354
 C1946 C 0.04708 1.02645 1.14620
 C1947 C 0.03500 1.02607 1.12114
 C1948 C 0.04620 1.01628 1.10080
 H1949 H 0.04067 1.04076 1.15900
 H1950 H 0.01651 1.03455 1.11949
 H1951 H 0.06856 0.99392 1.14081
 H1952 H 0.06524 1.00912 1.10205
 C1953 C 0.56852 0.50306 0.65443
 C1954 C 0.54827 0.51694 0.64822
 C1955 C 0.53586 0.51584 0.62336
 C1956 C 0.54697 0.50712 0.60244
 H1957 H 0.53995 0.52949 0.66182
 H1958 H 0.51685 0.52315 0.62235
 H1959 H 0.57657 0.49031 0.64086
 H1960 H 0.56630 0.50079 0.60279
 C1961 C 0.42890 -0.01238 0.64391
 C1962 C 0.45356 -0.01483 0.63943
 C1963 C 0.46445 -0.01582 0.61385
 C1964 C 0.45275 -0.00676 0.59333
 H1965 H 0.46659 -0.01708 0.65480
 H1966 H 0.48336 -0.02328 0.61225
 H1967 H 0.41602 -0.01229 0.62827
 H1968 H 0.43443 0.00202 0.59480
 C1969 C -0.06850 0.49629 1.15083
 C1970 C -0.08003 0.50230 1.12912
 C1971 C -0.06775 0.50324 1.10420
 C1972 C -0.04557 0.49251 1.09868
 H1973 H -0.09946 0.50829 1.12932
 H1974 H -0.07814 0.51301 1.08954
 H1975 H -0.04854 0.49251 1.15102
 H1976 H -0.03519 0.48211 1.11285
 C1977 C -0.07151 0.49858 0.35195
 C1978 C -0.05224 0.51441 0.35957
 C1979 C -0.04238 0.51491 0.38397
 C1980 C -0.05330 0.50360 0.40518
 H1981 H -0.04302 0.52616 0.34588
 H1982 H -0.02547 0.52560 0.38640
 H1983 H -0.07808 0.48463 0.36517
 H1984 H -0.07152 0.49512 0.40381
 C1985 C 0.43686 0.99931 -0.15730
 C1986 C 0.45198 1.01758 -0.14959
 C1987 C 0.46325 1.01760 -0.12422
 C1988 C 0.45220 1.00707 -0.10415
 H1989 H 0.45720 1.03263 -0.16214
 H1990 H 0.48069 1.02744 -0.12199
 H1991 H 0.43361 0.98358 -0.14478
 H1992 H 0.43399 0.99862 -0.10600
 C1993 C 0.57545 0.49576 -0.14408
 C1994 C 0.57522 0.51494 -0.12799
 C1995 C 0.56616 0.51274 -0.10176
 C1996 C 0.54853 0.49653 -0.09458
 H1997 H 0.58346 0.53257 -0.13355
 H1998 H 0.57321 0.52604 -0.08836
 H1999 H 0.56970 0.47740 -0.13768
 H2000 H 0.53985 0.48468 -0.10837
 C2001 C 0.06937 -0.00362 0.35332
 C2002 C 0.08100 0.00061 0.37520
 C2003 C 0.06884 -0.00027 0.40016
 C2004 C 0.04728 -0.01190 0.40520
 H2005 H 0.10029 0.00649 0.37518
 H2006 H 0.07878 0.00875 0.41522
 H2007 H 0.04947 -0.00719 0.35314
 H2008 H 0.03746 -0.02168 0.39059
 C2009 C 0.14575 1.07534 1.00932
 C2010 C 0.14126 1.05120 1.01471
 C2011 C 0.11583 1.04054 1.01668
 C2012 C 0.09493 1.05197 1.00807
 H2013 H 0.15666 1.03839 1.01857
 H2014 H 0.11468 1.02180 1.02456
 H2015 H 0.13021 1.08842 1.00738
 H2016 H 0.09573 1.07018 0.99910
 C2017 C 0.64332 0.57016 0.51199
 C2018 C 0.63948 0.54553 0.51514
 C2019 C 0.61426 0.53436 0.51710
 C2020 C 0.59312 0.54590 0.50928
 H2021 H 0.65520 0.53270 0.51720
 H2022 H 0.61346 0.51531 0.52421
 H2023 H 0.62743 0.58295 0.51196
 H2024 H 0.59368 0.56440 0.50089
 C2025 C 0.65560 0.42897 -0.00494
 C2026 C 0.64784 0.44801 -0.01983
 C2027 C 0.62248 0.45964 -0.01810
 C2028 C 0.60235 0.44774 -0.00901
 H2029 H 0.66063 0.45662 -0.03294
 H2030 H 0.62042 0.47866 -0.02517
 H2031 H 0.64291 0.42197 0.00928
 H2032 H 0.60389 0.42833 -0.00311
 C2033 C 0.15196 -0.07366 0.49974
 C2034 C 0.13183 -0.08281 0.51168
 C2035 C 0.10595 -0.07275 0.50926
 C2036 C 0.09951 -0.05162 0.49690
 H2037 H 0.13399 -0.09912 0.52375
 H2038 H 0.09165 -0.08310 0.51921
 H2039 H 0.14992 -0.05854 0.48624
 H2040 H 0.11345 -0.04052 0.48739
 C2041 C 0.35037 -0.07053 0.49812
 C2042 C 0.35616 -0.04999 0.51108
 C2043 C 0.38095 -0.03789 0.50979
 C2044 C 0.40186 -0.04941 0.50150
 H2045 H 0.34238 -0.04143 0.52335
 H2046 H 0.38196 -0.01896 0.51683
 H2047 H 0.36403 -0.07900 0.48569
 H2048 H 0.40149 -0.06865 0.49540
 C2049 C -0.14454 0.42990 1.00707
 C2050 C -0.14113 0.45451 1.01069
 C2051 C -0.11609 0.46605 1.01312
 C2052 C -0.09468 0.45518 1.00520
 H2053 H -0.15705 0.46708 1.01241
 H2054 H -0.11567 0.48492 1.02041
 H2055 H -0.12839 0.41744 1.00710
 H2056 H -0.09491 0.43694 0.99656
 C2057 C -0.15640 0.56713 0.49809
 C2058 C -0.14904 0.55012 0.48109
 C2059 C -0.12371 0.53846 0.48121
 C2060 C -0.10337 0.54986 0.49016
 H2061 H -0.16218 0.54300 0.46761
 H2062 H -0.12190 0.51991 0.47328
 H2063 H -0.14340 0.57225 0.51268
 H2064 H -0.10476 0.56895 0.49678
 C2065 C 0.34520 1.06404 -0.00409
 C2066 C 0.35333 1.04950 -0.02294
 C2067 C 0.37863 1.03781 -0.02308
 C2068 C 0.39849 1.04833 -0.01220
 H2069 H 0.34123 1.04508 -0.03843
 H2070 H 0.38097 1.02046 -0.03327
 H2071 H 0.35744 1.06673 0.01182
 H2072 H 0.39656 1.06647 -0.00342
 C2073 C -0.00151 1.15628 1.06706
 C2074 C -0.01239 1.13584 1.07681
 C2075 C -0.00986 1.11016 1.06679
 C2076 C 0.00247 1.10392 1.04571
 H2077 H -0.02362 1.13756 1.09366
 H2078 H -0.01947 1.09573 1.07735
 H2079 H 0.01106 1.15473 1.05121
 H2080 H 0.01184 1.11793 1.03451
 C2081 C 0.49949 0.64896 0.57056
 C2082 C 0.51605 0.64093 0.55332
 C2083 C 0.51518 0.61570 0.54211
 C2084 C 0.50517 0.59576 0.55373
 H2085 H 0.52993 0.65347 0.54577
 H2086 H 0.52370 0.61355 0.52377
 H2087 H 0.48446 0.63671 0.57618
 H2088 H 0.49790 0.59735 0.57264
 C2089 C -0.00193 0.64582 0.42607
 C2090 C 0.00186 0.62394 0.41426
 C2091 C 0.00097 0.59921 0.42687
 C2092 C -0.01166 0.59490 0.44820
 H2093 H 0.00728 0.62379 0.39469
 H2094 H 0.01072 0.58388 0.41768
 H2095 H -0.00480 0.64597 0.44619
 H2096 H -0.02224 0.60985 0.45706
 C2097 C 0.50276 1.15156 -0.07145
 C2098 C 0.50889 1.12980 -0.08248
 C2099 C 0.50724 1.10489 -0.07045
 C2100 C 0.49392 1.09979 -0.04969
 H2101 H 0.51666 1.12987 -0.10125
 H2102 H 0.51710 1.08985 -0.07998
 H2103 H 0.49725 1.15183 -0.05189
 H2104 H 0.48348 1.11439 -0.04015
 C2105 C 0.50848 0.35034 -0.07058
 C2106 C 0.52514 0.35719 -0.05321
 C2107 C 0.52424 0.38173 -0.04062
 C2108 C 0.51327 0.40243 -0.05037
 H2109 H 0.53920 0.34406 -0.04645
 H2110 H 0.53354 0.38264 -0.02260
 H2111 H 0.49341 0.36322 -0.07557
 H2112 H 0.50505 0.40219 -0.06892
 C2113 C 0.01040 -0.15462 0.42914
 C2114 C 0.00091 -0.13301 0.41984
 C2115 C 0.00216 -0.10828 0.43202
 C2116 C 0.01123 -0.10411 0.45505
 H2117 H -0.00861 -0.13302 0.40193
 H2118 H -0.00606 -0.09280 0.42144
 H2119 H 0.02155 -0.15478 0.44606
 H2120 H 0.01936 -0.11920 0.46614
 C2121 C 0.49945 -0.15209 0.56561
 C2122 C 0.50583 -0.13040 0.57628
 C2123 C 0.50638 -0.10585 0.56326
 C2124 C 0.49545 -0.10075 0.54111
 H2125 H 0.51190 -0.13033 0.59564
 H2126 H 0.51557 -0.09099 0.57325
 H2127 H 0.49557 -0.15276 0.54571
 H2128 H 0.48558 -0.11511 0.53110
 C2129 C -0.00720 0.35547 1.06948
 C2130 C -0.01415 0.36118 1.04463
 C2131 C -0.01361 0.38533 1.03394
 C2132 C -0.00437 0.40657 1.04594
 H2133 H -0.02073 0.34658 1.03252
 H2134 H -0.02039 0.38723 1.01484
 H2135 H -0.00218 0.37058 1.08170
 H2136 H 0.00336 0.40524 1.06461
 C2137 C 0.76166 0.30576 0.08531
 C2138 C 0.75850 0.31439 0.10994
 C2139 C 0.75888 0.29831 0.13078
 C2140 C 0.75236 0.30775 0.15433
 H2141 H 0.75429 0.33390 0.11341
 H2142 H 0.76336 0.27858 0.12854
 H2143 H 0.76346 0.28564 0.08288
 H2144 H 0.74670 0.32733 0.15559
 C2145 C 0.25291 0.80902 0.60302
 C2146 C 0.27329 0.79997 0.61486
 C2147 C 0.27209 0.78780 0.63979
 C2148 C 0.25678 0.79597 0.65803
 H2149 H 0.29133 0.80012 0.60552
 H2150 H 0.28534 0.77267 0.64358
 H2151 H 0.23458 0.80633 0.61134
 H2152 H 0.24501 0.81241 0.65485
 C2153 C 0.74308 0.68131 0.60352
 C2154 C 0.74875 0.66966 0.62529
 C2155 C 0.74973 0.68208 0.64990
 C2156 C 0.73881 0.70423 0.65501
 H2157 H 0.75437 0.65011 0.62532
 H2158 H 0.75952 0.67186 0.66466
 H2159 H 0.73980 0.70135 0.60309
 H2160 H 0.72823 0.71434 0.64078
 C2161 C 0.24887 0.18122 0.09896
 C2162 C 0.25169 0.16911 0.12240
 C2163 C 0.25085 0.18099 0.14566
 C2164 C 0.24250 0.20563 0.14964
 H2165 H 0.25643 0.14939 0.12333
 H2166 H 0.25626 0.16956 0.16175
 H2167 H 0.24854 0.20150 0.09852
 H2168 H 0.23495 0.21674 0.13425
 C2169 C 0.25760 0.18277 0.89978
 C2170 C 0.24799 0.17330 0.87865
 C2171 C 0.25071 0.18417 0.85312
 C2172 C 0.26170 0.20599 0.84760
 H2173 H 0.23753 0.15611 0.87964
 H2174 H 0.24228 0.17360 0.83815
 H2175 H 0.26952 0.19894 0.89897
 H2176 H 0.26998 0.21712 0.86215
 C2177 C 0.74651 0.68587 0.40476
 C2178 C 0.76350 0.70289 0.39775
 C2179 C 0.76391 0.71459 0.37242
 C2180 C 0.75488 0.70345 0.35192
 H2181 H 0.77703 0.70961 0.41106
 H2182 H 0.77282 0.73262 0.37065
 H2183 H 0.73182 0.68115 0.39173
 H2184 H 0.74723 0.68482 0.35329
 C2185 C 0.25181 0.81653 0.40306
 C2186 C 0.23590 0.79868 0.39609
 C2187 C 0.23545 0.78809 0.37052
 C2188 C 0.24400 0.80014 0.35005
 H2189 H 0.22277 0.79105 0.40952
 H2190 H 0.22711 0.76983 0.36862
 H2191 H 0.26512 0.82386 0.38963
 H2192 H 0.25128 0.81888 0.35146
 C2193 C 0.75637 0.32097 0.88981
 C2194 C 0.74178 0.30190 0.88303
 C2195 C 0.74214 0.29044 0.85778
 C2196 C 0.75099 0.30162 0.83693
 H2197 H 0.72982 0.29299 0.89674
 H2198 H 0.73408 0.27199 0.85646
 H2199 H 0.76970 0.32837 0.87644
 H2200 H 0.75814 0.32046 0.83765
 C2201 C 0.81796 0.39850 0.24348
 C2202 C 0.79333 0.39488 0.24033
 C2203 C 0.78192 0.36979 0.23846
 C2204 C 0.79325 0.34835 0.24586
 H2205 H 0.78065 0.41070 0.23820
 H2206 H 0.76286 0.36933 0.23156
 H2207 H 0.83058 0.38248 0.24378
 H2208 H 0.81182 0.34847 0.25391
 C2209 C 0.31785 0.89658 0.75009
 C2210 C 0.32961 0.87486 0.75589
 C2211 C 0.31742 0.85021 0.75742
 C2212 C 0.29536 0.84497 0.74686
 H2213 H 0.34922 0.87487 0.76097
 H2214 H 0.32785 0.83547 0.76706
 H2215 H 0.29777 0.89705 0.74737
 H2216 H 0.28504 0.85923 0.73646
 C2217 C 0.17990 0.90339 0.25002
 C2218 C 0.16810 0.88027 0.24646
 C2219 C 0.18008 0.85680 0.24703
 C2220 C 0.20446 0.85201 0.25573
 H2221 H 0.14856 0.87984 0.24131
 H2222 H 0.16887 0.84115 0.24113
 H2223 H 0.20017 0.90344 0.25084
 H2224 H 0.21532 0.86692 0.26368
 C2225 C 0.68653 0.40270 0.74451
 C2226 C 0.70664 0.39583 0.75812
 C2227 C 0.71850 0.37066 0.75683
 C2228 C 0.70654 0.35016 0.74914
 H2229 H 0.71515 0.40904 0.77067
 H2230 H 0.73770 0.36902 0.76327
 H2231 H 0.67825 0.38953 0.73177
 H2232 H 0.68701 0.35124 0.74383
 C2233 C 0.68768 0.59999 0.75430
 C2234 C 0.70355 0.60817 0.73653
 C2235 C 0.71454 0.63344 0.73665
 C2236 C 0.70309 0.65342 0.74691
 H2237 H 0.70997 0.59572 0.72190
 H2238 H 0.73226 0.63566 0.72698
 H2239 H 0.68344 0.61188 0.77017
 H2240 H 0.68473 0.65159 0.75536
 C2241 C 0.18358 0.10132 0.25026
 C2242 C 0.20078 0.10870 0.23341
 C2243 C 0.21221 0.13386 0.23344
 C2244 C 0.20122 0.15422 0.24351
 H2245 H 0.20790 0.09577 0.21954
 H2246 H 0.23002 0.13565 0.22384
 H2247 H 0.17827 0.11398 0.26517
 H2248 H 0.18281 0.15298 0.25193
 C2249 C 0.32006 0.09795 0.74837
 C2250 C 0.30353 0.10618 0.76555
 C2251 C 0.29275 0.13192 0.76534
 C2252 C 0.30419 0.15180 0.75506
 H2253 H 0.29620 0.09349 0.77958
 H2254 H 0.27489 0.13449 0.77472
 H2255 H 0.32549 0.11047 0.73327
 H2256 H 0.32266 0.14973 0.74685
 C2257 C 0.81513 0.59782 0.25323
 C2258 C 0.79780 0.60533 0.26998
 C2259 C 0.78623 0.63075 0.26962
 C2260 C 0.79750 0.65095 0.25982
 H2261 H 0.79070 0.59239 0.28389
 H2262 H 0.76809 0.63285 0.27856
 H2263 H 0.82039 0.61061 0.23830
 H2264 H 0.81622 0.64930 0.25211
 C2265 C 0.89733 0.25482 0.18661
 C2266 C 0.88562 0.27521 0.19568
 C2267 C 0.86067 0.27421 0.20749
 C2268 C 0.84207 0.26063 0.19803
 H2269 H 0.89506 0.29303 0.19575
 H2270 H 0.85719 0.28625 0.22342
 H2271 H 0.88891 0.23660 0.18909
 H2272 H 0.84508 0.25022 0.18088
 C2273 C 0.39868 0.75249 0.68401
 C2274 C 0.37694 0.74749 0.67255
 C2275 C 0.35233 0.74645 0.68521
 C2276 C 0.34723 0.75638 0.70771
 H2277 H 0.37693 0.74246 0.65293
 H2278 H 0.33755 0.73744 0.67489
 H2279 H 0.39911 0.75522 0.70410
 H2280 H 0.36148 0.76618 0.71797
 C2281 C 0.40690 0.24392 0.81660
 C2282 C 0.40231 0.24160 0.79198
 C2283 C 0.37672 0.23976 0.78152
 C2284 C 0.35599 0.24782 0.79349
 H2285 H 0.41760 0.24001 0.77875
 H2286 H 0.37524 0.23245 0.76269
 H2287 H 0.39138 0.24346 0.82967
 H2288 H 0.35726 0.25658 0.81165
 C2289 C 0.89935 0.74133 0.32120
 C2290 C 0.89369 0.73789 0.29574
 C2291 C 0.86931 0.73742 0.28610
 C2292 C 0.84768 0.74492 0.29924
 H2293 H 0.90848 0.73415 0.28236
 H2294 H 0.86758 0.73200 0.26662
 H2295 H 0.88394 0.74129 0.33442
 H2296 H 0.84906 0.75262 0.31787
 C2297 C 0.09756 0.75150 0.30947
 C2298 C 0.10528 0.77001 0.29422
 C2299 C 0.13089 0.77055 0.28360
 C2300 C 0.15086 0.76059 0.29552
 H2301 H 0.09254 0.78479 0.28826
 H2302 H 0.13333 0.78024 0.26582
 H2303 H 0.11033 0.73600 0.31339
 H2304 H 0.14874 0.75230 0.31402
 C2305 C 0.60833 0.25979 0.81617
 C2306 C 0.62951 0.24948 0.82554
 C2307 C 0.65462 0.25101 0.81374
 C2308 C 0.65915 0.26109 0.79107
 H2309 H 0.62886 0.23917 0.84311
 H2310 H 0.66991 0.24225 0.82407
 H2311 H 0.60889 0.27162 0.79962
 H2312 H 0.64420 0.26960 0.78017
 C2313 C 0.59838 0.74165 0.68311
 C2314 C 0.61918 0.75176 0.67332
 C2315 C 0.64439 0.75069 0.68476
 C2316 C 0.64968 0.74179 0.70782
 H2317 H 0.61812 0.76147 0.65541
 H2318 H 0.65922 0.75882 0.67356
 H2319 H 0.59937 0.73025 0.69997
 H2320 H 0.63522 0.73385 0.71954
 C2321 C 0.09724 0.25255 0.17730
 C2322 C 0.11910 0.25277 0.16469
 C2323 C 0.14407 0.25326 0.17659
 C2324 C 0.14882 0.24589 0.20025
 H2325 H 0.11923 0.25334 0.14441
 H2326 H 0.15937 0.25934 0.16473
 H2327 H 0.09725 0.25185 0.19760
 H2328 H 0.13403 0.23850 0.21196
 C2329 C -0.06297 0.99996 0.85088
 C2330 C -0.04697 0.98242 0.86001
 C2331 C -0.03602 0.98361 0.88546
 C2332 C -0.04761 0.99458 0.90495
 H2333 H -0.04051 0.96699 0.84864
 H2334 H -0.01820 0.97403 0.88830
 H2335 H -0.06724 1.01599 0.86253
 H2336 H -0.06610 1.00288 0.90263
 C2337 C 0.42794 0.50161 0.35597
 C2338 C 0.44782 0.48742 0.36263
 C2339 C 0.45869 0.48682 0.38820
 C2340 C 0.44656 0.49438 0.40900
 H2341 H 0.45704 0.47573 0.34883
 H2342 H 0.47751 0.47913 0.38977
 H2343 H 0.41871 0.51333 0.36973
 H2344 H 0.42742 0.50122 0.40802
 C2345 C 0.56275 0.00107 0.34243
 C2346 C 0.54612 0.01838 0.35064
 C2347 C 0.53483 0.01756 0.37602
 C2348 C 0.54643 0.00747 0.39611
 H2349 H 0.53917 0.03317 0.33846
 H2350 H 0.51660 0.02647 0.37820
 H2351 H 0.56752 -0.01440 0.35491
 H2352 H 0.56525 -0.00017 0.39437
 C2353 C 0.07170 0.50175 0.85134
 C2354 C 0.08378 0.50859 0.87220
 C2355 C 0.07239 0.50792 0.89745
 C2356 C 0.04820 0.51343 0.90180
 H2357 H 0.10347 0.51310 0.87121
 H2358 H 0.08486 0.50405 0.91307
 H2359 H 0.05288 0.49452 0.85274
 H2360 H 0.03611 0.51911 0.88638
 C2361 C 0.06330 0.50587 0.65219
 C2362 C 0.04171 0.49411 0.64771
 C2363 C 0.02928 0.49386 0.62280
 C2364 C 0.04102 0.49913 0.60110
 H2365 H 0.03257 0.48392 0.66271
 H2366 H 0.00990 0.48814 0.62245
 H2367 H 0.07238 0.51623 0.63730
 H2368 H 0.06062 0.50388 0.60095
 C2369 C 0.56172 0.99911 0.14563
 C2370 C 0.54230 0.98439 0.14027
 C2371 C 0.53051 0.98388 0.11511
 C2372 C 0.54280 0.98998 0.09398
 H2373 H 0.53435 0.97246 0.15467
 H2374 H 0.51124 0.97788 0.11411
 H2375 H 0.56917 1.01139 0.13125
 H2376 H 0.56239 0.99485 0.09468
 C2377 C 0.44036 0.48979 0.15903
 C2378 C 0.45255 0.50905 0.14852
 C2379 C 0.46619 0.50739 0.12441
 C2380 C 0.45807 0.49378 0.10513
 H2381 H 0.45327 0.52676 0.15824
 H2382 H 0.48187 0.51980 0.12173
 H2383 H 0.44180 0.47137 0.15072
 H2384 H 0.44112 0.48301 0.10716
 C2385 C -0.07214 -0.01089 0.65330
 C2386 C -0.08392 -0.01134 0.63101
 C2387 C -0.07092 -0.01235 0.60651
 C2388 C -0.04772 -0.00390 0.60236
 H2389 H -0.10405 -0.01230 0.62994
 H2390 H -0.08181 -0.01913 0.59090
 H2391 H -0.05187 -0.01235 0.65344
 H2392 H -0.03710 0.00416 0.61749
 C2393 C -0.15452 0.94363 1.00363
 C2394 C -0.14286 0.95264 0.98322
 C2395 C -0.11839 0.96500 0.98432
 C2396 C -0.09997 0.95701 0.99962
 H2397 H -0.15189 0.95189 0.96506
 H2398 H -0.11488 0.97972 0.97068
 H2399 H -0.14669 0.94682 1.02207
 H2400 H -0.10286 0.94091 1.01178
 C2401 C 0.34623 0.43185 0.49714
 C2402 C 0.35087 0.45472 0.50599
 C2403 C 0.37597 0.46604 0.50448
 C2404 C 0.39730 0.45247 0.50573
 H2405 H 0.33563 0.46632 0.51295
 H2406 H 0.37676 0.48630 0.50354
 H2407 H 0.36114 0.42149 0.48785
 H2408 H 0.39662 0.43242 0.50891
 C2409 C 0.35254 0.56068 0.01844
 C2410 C 0.35876 0.53818 0.00914
 C2411 C 0.38416 0.52694 0.01178
 C2412 C 0.40499 0.54067 0.01288
 H2413 H 0.34465 0.52697 0.00022
 H2414 H 0.38577 0.50671 0.01085
 H2415 H 0.36617 0.57057 0.02950
 H2416 H 0.40365 0.56091 0.01152
 C2417 C -0.15320 0.05410 0.49966
 C2418 C -0.14590 0.03813 0.51794
 C2419 C -0.12049 0.02666 0.51863
 C2420 C -0.10030 0.03814 0.50920
 H2421 H -0.15885 0.03227 0.53238
 H2422 H -0.11838 0.00865 0.52799
 H2423 H -0.14030 0.05789 0.48441
 H2424 H -0.10211 0.05684 0.50128
 C2425 C 0.64767 0.06788 0.48511
 C2426 C 0.64294 0.04364 0.48096
 C2427 C 0.61738 0.03331 0.47927
 C2428 C 0.59656 0.04529 0.48717
 H2429 H 0.65821 0.03048 0.47806
 H2430 H 0.61606 0.01434 0.47237
 H2431 H 0.63230 0.08123 0.48603
 H2432 H 0.59752 0.06376 0.49520
 C2433 C 0.15128 0.57105 0.99983
 C2434 C 0.14512 0.54756 0.99012
 C2435 C 0.12071 0.53815 0.98878
 C2436 C 0.09896 0.55027 0.99774
 H2437 H 0.15968 0.53543 0.98280
 H2438 H 0.11899 0.51978 0.98051
 H2439 H 0.13630 0.58330 1.00607
 H2440 H 0.09994 0.56844 1.00637
 C2441 C 0.14414 0.43241 0.49959
 C2442 C 0.13826 0.45265 0.51328
 C2443 C 0.11273 0.46389 0.51445
 C2444 C 0.09173 0.45135 0.50938
 H2445 H 0.15263 0.46194 0.52384
 H2446 H 0.11139 0.48325 0.52029
 H2447 H 0.12973 0.42337 0.48884
 H2448 H 0.09265 0.43171 0.50463
 C2449 C 0.64766 0.92997 0.00335
 C2450 C 0.62718 0.92022 -0.00724
 C2451 C 0.60190 0.93197 -0.00724
 C2452 C 0.59534 0.95263 0.00546
 H2453 H 0.62863 0.90292 -0.01751
 H2454 H 0.58800 0.92281 -0.01860
 H2455 H 0.64654 0.94806 0.01222
 H2456 H 0.60873 0.96219 0.01698
 C2457 C -0.01074 0.85412 0.93658
 C2458 C -0.01566 0.85830 0.96103
 C2459 C -0.01623 0.88373 0.97213
 C2460 C -0.00481 0.90354 0.96171
 H2461 H -0.01994 0.84306 0.97372
 H2462 H -0.02581 0.88584 0.98995
 H2463 H -0.00783 0.87013 0.92440
 H2464 H 0.00586 0.90152 0.94457
 C2465 C 0.49669 0.34890 0.43909
 C2466 C 0.48268 0.35447 0.45932
 C2467 C 0.48291 0.37928 0.47165
 C2468 C 0.48977 0.40041 0.45981
 H2469 H 0.47053 0.34055 0.46748
 H2470 H 0.47630 0.38012 0.49087
 H2471 H 0.50917 0.36279 0.43138
 H2472 H 0.49516 0.40002 0.44024
 C2473 C 0.00876 0.33846 0.55496
 C2474 C 0.00103 0.36215 0.56325
 C2475 C 0.00359 0.38363 0.54838
 C2476 C -0.00435 0.40680 0.55769
 H2477 H -0.00684 0.36447 0.58178
 H2478 H 0.01150 0.38227 0.52966
 H2479 H 0.01731 0.33736 0.53648
 H2480 H -0.01232 0.40747 0.57645
 C2481 C 0.50656 0.85211 0.07007
 C2482 C 0.48665 0.86766 0.06901
 C2483 C 0.48772 0.89352 0.05902
 C2484 C 0.50398 0.90083 0.04129
 H2485 H 0.46906 0.86196 0.07730
 H2486 H 0.47338 0.90653 0.06548
 H2487 H 0.52480 0.85869 0.06427
 H2488 H 0.51700 0.88742 0.03316
 C2489 C 0.49019 0.65617 0.06096
 C2490 C 0.49736 0.63313 0.06839
 C2491 C 0.49391 0.61084 0.05269
 C2492 C 0.50107 0.58838 0.06166
 H2493 H 0.50655 0.63027 0.08625
 H2494 H 0.48610 0.61278 0.03399
 H2495 H 0.48185 0.65854 0.04252
 H2496 H 0.50893 0.58708 0.08041
 C2497 C 0.00479 0.14338 0.56432
 C2498 C -0.01411 0.13665 0.54934
 C2499 C -0.01596 0.11129 0.53871
 C2500 C -0.00726 0.09066 0.55053
 H2501 H -0.02849 0.15002 0.54383
 H2502 H -0.02542 0.10969 0.52083
 H2503 H 0.01931 0.12971 0.56891
 H2504 H 0.00087 0.09203 0.56907
 C2505 C 0.49769 0.15166 0.43528
 C2506 C 0.51857 0.14044 0.44408
 C2507 C 0.51855 0.11531 0.45576
 C2508 C 0.50467 0.09668 0.44688
 H2509 H 0.53610 0.15039 0.44397
 H2510 H 0.53149 0.11176 0.47107
 H2511 H 0.47976 0.14274 0.43795
 H2512 H 0.49324 0.09981 0.43031
 C2513 C 0.00353 0.65438 0.93095
 C2514 C -0.01656 0.64038 0.93610
 C2515 C -0.01435 0.61395 0.94436
 C2516 C 0.00397 0.60556 0.95953
 H2517 H -0.03529 0.64733 0.93221
 H2518 H -0.02929 0.60151 0.93913
 H2519 H 0.02188 0.64546 0.93235
 H2520 H 0.01752 0.61850 0.96688
 C2521 C 0.25524 0.67968 0.90716
 C2522 C 0.23964 0.69859 0.90055
 C2523 C 0.23899 0.71013 0.87516
 C2524 C 0.24658 0.69830 0.85431
 H2525 H 0.22740 0.70706 0.91435
 H2526 H 0.23099 0.72885 0.87371
 H2527 H 0.26900 0.67299 0.89374
 H2528 H 0.25359 0.67919 0.85539
 C2529 C 0.74983 0.17540 0.39349
 C2530 C 0.75400 0.16419 0.37135
 C2531 C 0.75314 0.17722 0.34677
 C2532 C 0.74111 0.19908 0.34264
 H2533 H 0.75948 0.14462 0.37087
 H2534 H 0.76226 0.16772 0.33128
 H2535 H 0.74678 0.19547 0.39413
 H2536 H 0.73120 0.20840 0.35771
 C2537 C 0.24774 0.32265 0.39552
 C2538 C 0.24023 0.33340 0.37382
 C2539 C 0.24146 0.32136 0.34895
 C2540 C 0.25474 0.30053 0.34366
 H2541 H 0.23147 0.35176 0.37388
 H2542 H 0.23083 0.33063 0.33415
 H2543 H 0.25464 0.30350 0.39564
 H2544 H 0.26580 0.29110 0.35797
 C2545 C 0.75329 0.82178 0.90200
 C2546 C 0.74144 0.83027 0.88130
 C2547 C 0.74217 0.81816 0.85647
 C2548 C 0.75510 0.79720 0.85092
 H2549 H 0.72998 0.84709 0.88218
 H2550 H 0.73117 0.82742 0.84193
 H2551 H 0.76361 0.80423 0.90168
 H2552 H 0.76601 0.78731 0.86501
 C2553 C 0.75081 0.81781 0.10077
 C2554 C 0.75942 0.82811 0.12191
 C2555 C 0.75743 0.81692 0.14734
 C2556 C 0.74494 0.79600 0.15312
 H2557 H 0.76856 0.84606 0.12092
 H2558 H 0.76719 0.82669 0.16204
 H2559 H 0.74075 0.80040 0.10141
 H2560 H 0.73495 0.78586 0.13893
 C2561 C 0.25192 0.31319 0.59396
 C2562 C 0.23250 0.30235 0.60557
 C2563 C 0.23467 0.28982 0.63032
 C2564 C 0.24924 0.29847 0.64868
 H2565 H 0.21453 0.30155 0.59626
 H2566 H 0.22246 0.27417 0.63401
 H2567 H 0.27045 0.31158 0.60214
 H2568 H 0.25988 0.31536 0.64560
 C2569 C 0.75676 0.17754 0.59184
 C2570 C 0.74508 0.17009 0.61293
 C2571 C 0.74717 0.18231 0.63763
 C2572 C 0.75615 0.20533 0.64129
 H2573 H 0.73398 0.15330 0.61276
 H2574 H 0.73991 0.17181 0.65349
 H2575 H 0.76968 0.19295 0.59233
 H2576 H 0.76272 0.21651 0.62563
 C2577 C 0.25398 0.68072 0.10448
 C2578 C 0.25683 0.66920 0.12683
 C2579 C 0.25643 0.68210 0.15117
 C2580 C 0.26231 0.70618 0.15445
 H2581 H 0.25832 0.64900 0.12792
 H2582 H 0.25149 0.67066 0.16730
 H2583 H 0.25274 0.70096 0.10342
 H2584 H 0.26885 0.71747 0.13884
 C2585 C 0.18544 0.59727 0.74814
 C2586 C 0.20576 0.60172 0.76213
 C2587 C 0.21712 0.62679 0.76410
 C2588 C 0.20429 0.64824 0.75994
 H2589 H 0.21470 0.58657 0.77256
 H2590 H 0.23658 0.62744 0.76973
 H2591 H 0.17677 0.61236 0.73742
 H2592 H 0.18458 0.64787 0.75534
 C2593 C 0.67437 0.10178 0.24147
 C2594 C 0.66318 0.12410 0.23641
 C2595 C 0.67574 0.14869 0.23678
 C2596 C 0.69805 0.15299 0.24731
 H2597 H 0.64376 0.12525 0.23099
 H2598 H 0.66533 0.16424 0.22849
 H2599 H 0.69417 0.10146 0.24578
 H2600 H 0.70854 0.13797 0.25634
 C2601 C 0.82269 0.10095 0.74524
 C2602 C 0.83542 0.12241 0.74684
 C2603 C 0.82391 0.14775 0.74540
 C2604 C 0.80154 0.15302 0.73507
 H2605 H 0.85525 0.12183 0.75094
 H2606 H 0.83499 0.16283 0.75280
 H2607 H 0.80250 0.10154 0.74356
 H2608 H 0.79060 0.13833 0.72681
 C2609 C 0.32005 0.60222 0.25049
 C2610 C 0.33040 0.62332 0.25902
 C2611 C 0.31843 0.64852 0.25842
 C2612 C 0.29751 0.65469 0.24574
 H2613 H 0.34850 0.62246 0.26804
 H2614 H 0.32786 0.66282 0.26900
 H2615 H 0.30116 0.60273 0.24322
 H2616 H 0.28785 0.64089 0.23480
 C2617 C 0.31584 0.40118 0.25913
 C2618 C 0.29288 0.39671 0.25025
 C2619 C 0.28120 0.37174 0.25194
 C2620 C 0.29446 0.35021 0.25095
 H2621 H 0.28156 0.41200 0.24274
 H2622 H 0.26092 0.37122 0.25227
 H2623 H 0.32595 0.38630 0.26892
 H2624 H 0.31458 0.35066 0.24831
 C2625 C 0.81271 0.90190 0.76682
 C2626 C 0.79013 0.89705 0.75725
 C2627 C 0.77911 0.87182 0.75842
 C2628 C 0.79295 0.85082 0.75589
 H2629 H 0.77873 0.91209 0.74937
 H2630 H 0.75889 0.87072 0.75959
 H2631 H 0.82275 0.88722 0.77698
 H2632 H 0.81290 0.85207 0.75243
 C2633 C 0.68093 0.90078 0.24761
 C2634 C 0.66890 0.87945 0.24273
 C2635 C 0.68038 0.85423 0.24559
 C2636 C 0.70470 0.84936 0.24132
 H2637 H 0.64918 0.88021 0.23801
 H2638 H 0.66788 0.83895 0.24988
 H2639 H 0.69980 0.89998 0.25503
 H2640 H 0.71687 0.86433 0.23526
 C2641 C 0.18347 0.39915 0.74707
 C2642 C 0.17263 0.37805 0.73939
 C2643 C 0.18500 0.35318 0.74070
 C2644 C 0.20961 0.34948 0.73694
 H2645 H 0.15311 0.37846 0.73388
 H2646 H 0.17298 0.33725 0.74371
 H2647 H 0.20204 0.39824 0.75523
 H2648 H 0.22139 0.36515 0.73202
 C2649 C 0.09968 0.75395 0.82381
 C2650 C 0.12132 0.75318 0.83665
 C2651 C 0.14640 0.75133 0.82501
 C2652 C 0.15096 0.74248 0.80195
 H2653 H 0.12114 0.75468 0.85688
 H2654 H 0.16189 0.75716 0.83657
 H2655 H 0.09982 0.75220 0.80359
 H2656 H 0.13588 0.73545 0.79058
 C2657 C 0.59469 0.25081 0.31783
 C2658 C 0.61619 0.26026 0.32641
 C2659 C 0.64086 0.25828 0.31385
 C2660 C 0.64578 0.24582 0.29258
 H2661 H 0.61620 0.27071 0.34368
 H2662 H 0.65592 0.26793 0.32312
 H2663 H 0.59427 0.24167 0.29982
 H2664 H 0.63117 0.23627 0.28264
 C2665 C 0.60218 0.74958 0.18128
 C2666 C 0.62413 0.75019 0.16891
 C2667 C 0.64892 0.75069 0.18116
 C2668 C 0.65304 0.75914 0.20441
 H2669 H 0.62448 0.74935 0.14864
 H2670 H 0.66460 0.74419 0.16991
 H2671 H 0.60192 0.75056 0.20156
 H2672 H 0.63779 0.76693 0.21541
 C2673 C 0.11190 0.24995 0.67198
 C2674 C 0.13246 0.26042 0.66200
 C2675 C 0.15710 0.25896 0.67435
 C2676 C 0.15998 0.26090 0.69922
 H2677 H 0.13235 0.26816 0.64319
 H2678 H 0.17343 0.25745 0.66230
 H2679 H 0.11394 0.23972 0.68958
 H2680 H 0.14387 0.26460 0.71110
 C2681 C 0.91841 0.23915 0.68872
 C2682 C 0.89513 0.24236 0.67986
 C2683 C 0.87273 0.24121 0.69603
 C2684 C 0.85030 0.24623 0.68594
 H2685 H 0.89232 0.24667 0.66015
 H2686 H 0.87454 0.23672 0.71585
 H2687 H 0.92117 0.23642 0.70873
 H2688 H 0.84919 0.25120 0.66616
 C2689 C 0.40301 0.74796 0.18565
 C2690 C 0.38248 0.75966 0.17653
 C2691 C 0.35689 0.75769 0.18705
 C2692 C 0.35081 0.74547 0.20830
 H2693 H 0.38404 0.77120 0.15980
 H2694 H 0.34238 0.76776 0.17675
 H2695 H 0.40159 0.73503 0.20130
 H2696 H 0.36493 0.73571 0.21930
 C2697 C 0.39686 0.25866 0.31814
 C2698 C 0.37673 0.24580 0.32571
 C2699 C 0.35144 0.24800 0.31452
 C2700 C 0.34606 0.25936 0.29255
 H2701 H 0.37831 0.23328 0.34175
 H2702 H 0.33669 0.23854 0.32471
 H2703 H 0.39509 0.27277 0.30352
 H2704 H 0.36061 0.26813 0.28155
 C2705 C 0.90062 0.75671 0.81805
 C2706 C 0.88121 0.74290 0.82579
 C2707 C 0.85551 0.74484 0.81552
 C2708 C 0.84916 0.75708 0.79429
 H2709 H 0.88363 0.73005 0.84147
 H2710 H 0.84128 0.73480 0.82589
 H2711 H 0.89797 0.77106 0.80380
 H2712 H 0.86315 0.76639 0.78303
   
