data_POSCAR
  _audit_creation_date              2014-09-24
  _audit_creation_method            'ToBaCCo'
  _symmetry_space_group_name_H-M    'P1'
  _symmetry_Int_Tables_number       1
  _symmetry_cell_setting            triclinic
  loop_
  _symmetry_equiv_pos_as_xyz
 x,y,z
_cell_length_a 46.7913
_cell_length_b 46.7685
_cell_length_c 46.8140
_cell_angle_alpha 89.971800
_cell_angle_beta 90.000200
_cell_angle_gamma 89.943700
loop_
  _atom_site_label
  _atom_site_type_symbol
  _atom_site_fract_x
  _atom_site_fract_y
  _atom_site_fract_z
O1 O 0.27374 1.02808 0.47255
 O2 O 0.27365 0.97240 0.52815
 O3 O 0.27367 0.97239 0.47250
 O4 O 0.27369 1.02810 0.52819
 O5 O 0.22661 1.02820 0.52817
 O6 O 0.22654 0.97250 0.47248
 O7 O 0.22652 0.97251 0.52812
 O8 O 0.22661 1.02819 0.47253
 Cu9 Cu 0.27840 1.00023 0.50035
 Cu10 Cu 0.22186 1.00036 0.50033
 C11 C 0.25019 1.03768 0.46301
 C12 C 0.25007 0.96291 0.53766
 C13 C 0.25009 0.96289 0.46294
 C14 C 0.25016 1.03775 0.53779
 O15 O 0.72621 -0.02817 0.47271
 O16 O 0.72627 0.02747 0.52825
 O17 O 0.72626 0.02750 0.47263
 O18 O 0.72625 -0.02820 0.52833
 O19 O 0.77333 -0.02829 0.52832
 O20 O 0.77339 0.02741 0.47262
 O21 O 0.77340 0.02738 0.52823
 O22 O 0.77334 -0.02825 0.47270
 Cu23 Cu 0.72153 -0.00034 0.50048
 Cu24 Cu 0.77808 -0.00045 0.50047
 C25 C 0.74976 -0.03774 0.46318
 C26 C 0.74985 0.03697 0.53775
 C27 C 0.74983 0.03700 0.46307
 C28 C 0.74978 -0.03785 0.53793
 O29 O 0.27368 0.47146 0.97254
 O30 O 0.27369 0.52712 1.02811
 O31 O 0.27369 0.47145 1.02816
 O32 O 0.27369 0.52713 0.97250
 O33 O 0.22656 0.52717 0.97251
 O34 O 0.22660 0.47149 1.02818
 O35 O 0.22656 0.52715 1.02812
 O36 O 0.22655 0.47150 0.97256
 Cu37 Cu 0.27841 0.49928 1.00033
 Cu38 Cu 0.22185 0.49933 1.00035
 C39 C 0.25011 0.46195 0.96302
 C40 C 0.25013 0.53668 1.03764
 C41 C 0.25015 0.46187 1.03777
 C42 C 0.25012 0.53670 0.96296
 O43 O 0.47279 0.27346 1.02804
 O44 O 0.52841 0.27343 0.97250
 O45 O 0.47275 0.27340 0.97242
 O46 O 0.52844 0.27343 1.02813
 O47 O 0.52849 0.22632 1.02818
 O48 O 0.47281 0.22624 0.97248
 O49 O 0.52846 0.22627 0.97255
 O50 O 0.47284 0.22630 1.02810
 Cu51 Cu 0.50059 0.27815 1.00027
 Cu52 Cu 0.50066 0.22157 1.00034
 C53 C 0.46328 0.24989 1.03759
 C54 C 0.53796 0.24985 0.96299
 C55 C 0.46323 0.24981 0.96290
 C56 C 0.53807 0.24988 1.03777
 O57 O 0.47270 0.72651 -0.02821
 O58 O 0.52832 0.72664 0.02733
 O59 O 0.47267 0.72653 0.02741
 O60 O 0.52835 0.72662 -0.02830
 O61 O 0.52823 0.77373 -0.02835
 O62 O 0.47254 0.77368 0.02737
 O63 O 0.52819 0.77379 0.02729
 O64 O 0.47257 0.77367 -0.02826
 Cu65 Cu 0.50053 0.72186 -0.00044
 Cu66 Cu 0.50037 0.77844 -0.00050
 C67 C 0.46309 0.75007 -0.03775
 C68 C 0.53778 0.75024 0.03684
 C69 C 0.46306 0.75009 0.03694
 C70 C 0.53789 0.75019 -0.03793
 O71 O 1.02816 0.47260 0.27346
 O72 O 0.97253 0.52825 0.27349
 O73 O 0.97250 0.47257 0.27346
 O74 O 1.02819 0.52829 0.27347
 O75 O 1.02818 0.52833 0.22641
 O76 O 0.97250 0.47262 0.22635
 O77 O 0.97252 0.52829 0.22638
 O78 O 1.02816 0.47265 0.22635
 Cu79 Cu 1.00035 0.50042 0.27818
 Cu80 Cu 1.00034 0.50048 0.22166
 C81 C 1.03769 0.46308 0.24990
 C82 C 0.96298 0.53780 0.24994
 C83 C 0.96296 0.46304 0.24990
 C84 C 1.03779 0.53791 0.24994
 O85 O -0.02826 0.47265 0.72636
 O86 O 0.02732 0.52825 0.72643
 O87 O 0.02739 0.47257 0.72637
 O88 O -0.02834 0.52834 0.72642
 O89 O -0.02837 0.52828 0.77349
 O90 O 0.02737 0.47250 0.77348
 O91 O 0.02730 0.52818 0.77354
 O92 O -0.02828 0.47259 0.77347
 Cu93 Cu -0.00048 0.50046 0.72169
 Cu94 Cu -0.00050 0.50038 0.77821
 C95 C -0.03778 0.46308 0.74990
 C96 C 0.03685 0.53773 0.75000
 C97 C 0.03694 0.46298 0.74992
 C98 C -0.03797 0.53793 0.74996
 O99 O 0.47157 0.97262 0.27352
 O100 O 0.52718 1.02823 0.27353
 O101 O 0.47155 1.02829 0.27351
 O102 O 0.52720 0.97259 0.27352
 O103 O 0.52720 0.97263 0.22640
 O104 O 0.47155 1.02833 0.22645
 O105 O 0.52717 1.02827 0.22642
 O106 O 0.47157 0.97266 0.22641
 Cu107 Cu 0.49937 1.00043 0.27824
 Cu108 Cu 0.49936 1.00048 0.22170
 C109 C 0.46205 0.96309 0.24996
 C110 C 0.53672 1.03777 0.24998
 C111 C 0.46196 1.03792 0.24998
 C112 C 0.53674 0.96307 0.24996
 O113 O 1.02793 0.27343 0.52758
 O114 O 0.97227 0.27341 0.47201
 O115 O 0.97230 0.27340 0.52761
 O116 O 1.02790 0.27345 0.47198
 O117 O 1.02797 0.22629 0.47199
 O118 O 0.97237 0.22625 0.52763
 O119 O 0.97234 0.22625 0.47202
 O120 O 1.02800 0.22627 0.52759
 Cu121 Cu 1.00009 0.27815 0.49980
 Cu122 Cu 1.00018 0.22154 0.49981
 C123 C 1.03750 0.24985 0.53711
 C124 C 0.96277 0.24983 0.46249
 C125 C 0.96280 0.24982 0.53716
 C126 C 1.03747 0.24988 0.46245
 O127 O -0.02786 0.72656 0.52783
 O128 O 0.02778 0.72652 0.47225
 O129 O 0.02776 0.72653 0.52786
 O130 O -0.02784 0.72656 0.47223
 O131 O -0.02786 0.77371 0.47220
 O132 O 0.02775 0.77368 0.52783
 O133 O 0.02777 0.77368 0.47222
 O134 O -0.02788 0.77372 0.52780
 Cu135 Cu -0.00004 0.72181 0.50004
 Cu136 Cu -0.00005 0.77843 0.50001
 C137 C -0.03741 0.75015 0.53734
 C138 C 0.03731 0.75009 0.46271
 C139 C 0.03729 0.75010 0.53738
 C140 C -0.03738 0.75014 0.46268
 O141 O 0.72627 0.47228 1.02775
 O142 O 0.72626 0.52794 0.97219
 O143 O 0.72630 0.47230 0.97216
 O144 O 0.72625 0.52792 1.02778
 O145 O 0.77339 0.52790 1.02780
 O146 O 0.77344 0.47228 0.97218
 O147 O 0.77340 0.52792 0.97221
 O148 O 0.77341 0.47226 1.02777
 Cu149 Cu 0.72154 0.50011 0.99997
 Cu150 Cu 0.77814 0.50009 0.99999
 C151 C 0.74984 0.46272 1.03728
 C152 C 0.74983 0.53747 0.96268
 C153 C 0.74988 0.46276 0.96264
 C154 C 0.74981 0.53745 1.03732
 O155 O 0.47168 1.02825 0.72643
 O156 O 0.52733 0.97259 0.72643
 O157 O 0.47171 0.97260 0.72646
 O158 O 0.52731 1.02823 0.72641
 O159 O 0.52732 1.02824 0.77352
 O160 O 0.47172 0.97261 0.77357
 O161 O 0.52735 0.97259 0.77354
 O162 O 0.47169 1.02827 0.77349
 Cu163 Cu 0.49950 1.00042 0.72171
 Cu164 Cu 0.49952 1.00043 0.77825
 C165 C 0.46209 1.03786 0.74996
 C166 C 0.53688 0.96304 0.74998
 C167 C 0.46219 0.96306 0.75002
 C168 C 0.53686 1.03777 0.74996
 C169 C 0.25037 0.22879 0.27124
 C170 C 0.22900 0.25016 0.27121
 C171 C 0.22900 0.27152 0.24984
 C172 C 0.25036 0.27151 0.22849
 C173 C 0.27172 0.25013 0.22854
 C174 C 0.27173 0.22877 0.24991
 C175 C 0.74981 0.77160 0.27134
 C176 C 0.77119 0.75025 0.27133
 C177 C 0.77122 0.72892 0.24996
 C178 C 0.74988 0.72894 0.22860
 C179 C 0.72853 0.75034 0.22859
 C180 C 0.72848 0.77166 0.24997
 C181 C 0.75012 0.22860 0.72863
 C182 C 0.77147 0.24994 0.72860
 C183 C 0.77146 0.27132 0.74992
 C184 C 0.75013 0.27133 0.77129
 C185 C 0.72880 0.24997 0.77132
 C186 C 0.72877 0.22862 0.74998
 C187 C 0.24991 0.77123 0.72887
 C188 C 0.27128 0.77120 0.75020
 C189 C 0.27131 0.74980 0.77152
 C190 C 0.24997 0.72844 0.77156
 C191 C 0.22859 0.72850 0.75023
 C192 C 0.22856 0.74988 0.72888
 C193 C 0.22884 0.24974 0.72847
 C194 C 0.22879 0.27110 0.74985
 C195 C 0.25015 0.27104 0.77122
 C196 C 0.27156 0.24967 0.77122
 C197 C 0.27157 0.22833 0.74983
 C198 C 0.25021 0.22834 0.72845
 C199 C 0.77121 0.75018 0.72864
 C200 C 0.74983 0.77157 0.72862
 C201 C 0.72847 0.77157 0.74999
 C202 C 0.72847 0.75020 0.77137
 C203 C 0.74986 0.72882 0.77135
 C204 C 0.77124 0.72879 0.75000
 C205 C 0.22860 0.74978 0.27131
 C206 C 0.24994 0.77117 0.27131
 C207 C 0.27129 0.77116 0.24993
 C208 C 0.27133 0.74978 0.22857
 C209 C 0.24998 0.72840 0.22861
 C210 C 0.22859 0.72839 0.24997
 C211 C 0.77133 0.24990 0.27123
 C212 C 0.77135 0.27129 0.24987
 C213 C 0.74997 0.27128 0.22852
 C214 C 0.72858 0.24994 0.22851
 C215 C 0.72858 0.22859 0.24991
 C216 C 0.74995 0.22855 0.27127
 C217 C 0.25029 0.10254 0.39804
 C218 C 0.27615 0.09190 0.40866
 C219 C 0.27615 0.07079 0.42981
 C220 C 0.25023 0.06005 0.44063
 C221 C 0.22433 0.07091 0.42980
 C222 C 0.22440 0.09201 0.40865
 C223 C 0.25032 0.12423 0.37625
 C224 C 0.25034 0.14240 0.35799
 C225 C 0.25037 0.16407 0.33619
 C226 C 0.27208 0.18465 0.33554
 C227 C 0.27209 0.20574 0.31439
 C228 C 0.25038 0.20638 0.29370
 C229 C 0.22868 0.18570 0.29441
 C230 C 0.22866 0.16464 0.31560
 H231 H 0.29631 0.09991 0.40058
 H232 H 0.29644 0.06290 0.43768
 H233 H 0.20402 0.06311 0.43766
 H234 H 0.20426 0.10011 0.40056
 H235 H 0.28896 0.18440 0.35138
 H236 H 0.28891 0.22162 0.31414
 H237 H 0.21186 0.18588 0.27852
 H238 H 0.21178 0.14882 0.31591
 C239 C 0.74969 0.89755 0.39819
 C240 C 0.72382 0.90816 0.40880
 C241 C 0.72382 0.92922 0.42997
 C242 C 0.74974 0.93993 0.44080
 C243 C 0.77564 0.92909 0.43000
 C244 C 0.77558 0.90803 0.40882
 C245 C 0.74967 0.87591 0.37639
 C246 C 0.74966 0.85779 0.35811
 C247 C 0.74967 0.83615 0.33632
 C248 C 0.74356 0.80772 0.34342
 C249 C 0.74356 0.78669 0.32224
 C250 C 0.74973 0.79395 0.29382
 C251 C 0.75587 0.82246 0.28679
 C252 C 0.75581 0.84349 0.30797
 H253 H 0.70366 0.90017 0.40069
 H254 H 0.70352 0.93711 0.43783
 H255 H 0.79595 0.93687 0.43788
 H256 H 0.79572 0.89994 0.40074
 H257 H 0.73878 0.80184 0.36529
 H258 H 0.73871 0.76478 0.32793
 H259 H 0.76075 0.82833 0.26495
 H260 H 0.76058 0.86543 0.30227
 C261 C 0.74992 0.10196 0.60247
 C262 C 0.77579 0.09134 0.59186
 C263 C 0.77579 0.07018 0.57079
 C264 C 0.74987 0.05936 0.56007
 C265 C 0.72397 0.07019 0.57089
 C266 C 0.72403 0.09135 0.59196
 C267 C 0.74995 0.12373 0.62413
 C268 C 0.74998 0.14198 0.64229
 C269 C 0.75004 0.16373 0.66396
 C270 C 0.74395 0.19214 0.65671
 C271 C 0.74396 0.21329 0.67778
 C272 C 0.75011 0.20616 0.70625
 C273 C 0.75623 0.17767 0.71342
 C274 C 0.75617 0.15653 0.69234
 H275 H 0.79595 0.09943 0.59986
 H276 H 0.79609 0.06231 0.56292
 H277 H 0.70366 0.06232 0.56310
 H278 H 0.70389 0.09944 0.60005
 H279 H 0.73917 0.19792 0.63481
 H280 H 0.73911 0.23518 0.67198
 H281 H 0.76110 0.17189 0.73529
 H282 H 0.76092 0.13461 0.69816
 C283 C 0.24995 0.89792 0.60251
 C284 C 0.22409 0.90856 0.59187
 C285 C 0.22410 0.92971 0.57076
 C286 C 0.25003 0.94051 0.56002
 C287 C 0.27591 0.92967 0.57087
 C288 C 0.27584 0.90852 0.59198
 C289 C 0.24990 0.87615 0.62422
 C290 C 0.24988 0.85791 0.64241
 C291 C 0.24988 0.83615 0.66411
 C292 C 0.24378 0.84333 0.69250
 C293 C 0.24375 0.82219 0.71360
 C294 C 0.24988 0.79369 0.70646
 C295 C 0.25600 0.78658 0.67798
 C296 C 0.25597 0.80773 0.65689
 H297 H 0.20392 0.90049 0.59988
 H298 H 0.20381 0.93759 0.56287
 H299 H 0.29623 0.93752 0.56307
 H300 H 0.29598 0.90043 0.60008
 H301 H 0.23902 0.86525 0.69831
 H302 H 0.23890 0.82796 0.73547
 H303 H 0.26086 0.76469 0.67219
 H304 H 0.26073 0.80195 0.63499
 C305 C 0.39831 0.24994 0.10233
 C306 C 0.40895 0.22404 0.09180
 C307 C 0.43010 0.22399 0.07073
 C308 C 0.44089 0.24991 0.05992
 C309 C 0.43005 0.27584 0.07066
 C310 C 0.40889 0.27582 0.09174
 C311 C 0.37655 0.24996 0.12400
 C312 C 0.35831 0.24998 0.14217
 C313 C 0.33656 0.25003 0.16384
 C314 C 0.31599 0.22832 0.16445
 C315 C 0.29483 0.22836 0.18550
 C316 C 0.29415 0.25010 0.20614
 C317 C 0.31482 0.27182 0.20547
 C318 C 0.33593 0.27179 0.18437
 H319 H 0.40088 0.20389 0.09988
 H320 H 0.43799 0.20367 0.06291
 H321 H 0.43789 0.29614 0.06279
 H322 H 0.40079 0.29599 0.09976
 H323 H 0.31629 0.21140 0.14865
 H324 H 0.27895 0.21153 0.18573
 H325 H 0.31458 0.28867 0.22132
 H326 H 0.35176 0.28867 0.18408
 C327 C 0.39806 0.74992 0.89757
 C328 C 0.40872 0.72405 0.90819
 C329 C 0.42990 0.72407 0.92924
 C330 C 0.44069 0.75002 0.93994
 C331 C 0.42983 0.77592 0.92910
 C332 C 0.40865 0.77583 0.90805
 C333 C 0.37626 0.74986 0.87593
 C334 C 0.35800 0.74983 0.85779
 C335 C 0.33623 0.74979 0.83614
 C336 C 0.34339 0.74369 0.80775
 C337 C 0.32223 0.74365 0.78669
 C338 C 0.29377 0.74977 0.79389
 C339 C 0.28668 0.75589 0.82237
 C340 C 0.30784 0.75587 0.84342
 H341 H 0.40065 0.70387 0.90020
 H342 H 0.43780 0.70378 0.93712
 H343 H 0.43768 0.79625 0.93688
 H344 H 0.40053 0.79597 0.89996
 H345 H 0.36529 0.73895 0.80191
 H346 H 0.32797 0.73881 0.76481
 H347 H 0.26480 0.76074 0.82819
 H348 H 0.30209 0.76063 0.86532
 C349 C 0.60252 0.75037 0.10181
 C350 C 0.59206 0.72445 0.09119
 C351 C 0.57099 0.72438 0.07003
 C352 C 0.56012 0.75028 0.05921
 C353 C 0.57081 0.77623 0.07003
 C354 C 0.59188 0.77624 0.09119
 C355 C 0.62417 0.75040 0.12359
 C356 C 0.64231 0.75043 0.14186
 C357 C 0.66395 0.75045 0.16364
 C358 C 0.69236 0.75656 0.15652
 C359 C 0.71340 0.75657 0.17769
 C360 C 0.70617 0.75041 0.20613
 C361 C 0.67768 0.74428 0.21317
 C362 C 0.65664 0.74433 0.19200
 H363 H 0.60017 0.70431 0.09927
 H364 H 0.56322 0.70405 0.06216
 H365 H 0.56290 0.79652 0.06216
 H366 H 0.59985 0.79641 0.09928
 H367 H 0.69822 0.76133 0.13465
 H368 H 0.73530 0.76142 0.17199
 H369 H 0.67184 0.73940 0.23502
 H370 H 0.63472 0.73956 0.19771
 C371 C 0.60272 0.24983 0.89804
 C372 C 0.59215 0.22394 0.90863
 C373 C 0.57107 0.22391 0.92979
 C374 C 0.56030 0.24984 0.94062
 C375 C 0.57109 0.27576 0.92983
 C376 C 0.59217 0.27573 0.90867
 C377 C 0.62438 0.24983 0.87627
 C378 C 0.64253 0.24985 0.85802
 C379 C 0.66419 0.24988 0.83625
 C380 C 0.69260 0.24375 0.84337
 C381 C 0.71366 0.24375 0.82222
 C382 C 0.70644 0.24995 0.79378
 C383 C 0.67794 0.25612 0.78674
 C384 C 0.65689 0.25606 0.80790
 H385 H 0.60018 0.20378 0.90053
 H386 H 0.56322 0.20360 0.93764
 H387 H 0.56326 0.29608 0.93771
 H388 H 0.60022 0.29589 0.90061
 H389 H 0.69845 0.23894 0.86525
 H390 H 0.73556 0.23887 0.82793
 H391 H 0.67210 0.26103 0.76489
 H392 H 0.63496 0.26085 0.80218
 C393 C 0.10254 0.39810 0.24984
 C394 C 0.09195 0.40867 0.27571
 C395 C 0.07084 0.42983 0.27577
 C396 C 0.06005 0.44069 0.24988
 C397 C 0.07084 0.42990 0.22397
 C398 C 0.09195 0.40874 0.22398
 C399 C 0.12425 0.37633 0.24981
 C400 C 0.14246 0.35810 0.24981
 C401 C 0.16418 0.33636 0.24981
 C402 C 0.16478 0.31577 0.22812
 C403 C 0.18589 0.29462 0.22813
 C404 C 0.20658 0.29396 0.24982
 C405 C 0.20592 0.31465 0.27151
 C406 C 0.18477 0.33576 0.27151
 H407 H 0.10001 0.40055 0.29585
 H408 H 0.06299 0.43767 0.29607
 H409 H 0.06299 0.43780 0.20368
 H410 H 0.10002 0.40069 0.20383
 H411 H 0.14894 0.31605 0.21124
 H412 H 0.18610 0.27872 0.21132
 H413 H 0.22181 0.31444 0.28833
 H414 H 0.18449 0.35161 0.28838
 C415 C 0.89755 0.39804 0.74984
 C416 C 0.90806 0.40866 0.77571
 C417 C 0.92910 0.42984 0.77577
 C418 C 0.93990 0.44068 0.74988
 C419 C 0.92918 0.42985 0.72397
 C420 C 0.90813 0.40866 0.72398
 C421 C 0.87590 0.37624 0.74982
 C422 C 0.85776 0.35799 0.74981
 C423 C 0.83610 0.33622 0.74981
 C424 C 0.80769 0.34339 0.74370
 C425 C 0.78663 0.32225 0.74370
 C426 C 0.79383 0.29377 0.74987
 C427 C 0.82233 0.28667 0.75599
 C428 C 0.84339 0.30782 0.75594
 H429 H 0.89999 0.40057 0.79585
 H430 H 0.93690 0.43772 0.79607
 H431 H 0.93704 0.43772 0.70369
 H432 H 0.90013 0.40057 0.70383
 H433 H 0.80184 0.36530 0.73893
 H434 H 0.76473 0.32800 0.73885
 H435 H 0.82816 0.26479 0.76088
 H436 H 0.86531 0.30206 0.76071
 C437 C 0.10189 0.60240 0.75010
 C438 C 0.09126 0.59191 0.72422
 C439 C 0.07007 0.57087 0.72415
 C440 C 0.05925 0.56004 0.75003
 C441 C 0.07009 0.57074 0.77595
 C442 C 0.09127 0.59179 0.77595
 C443 C 0.12369 0.62404 0.75014
 C444 C 0.14194 0.64218 0.75018
 C445 C 0.16371 0.66384 0.75022
 C446 C 0.15654 0.69226 0.75635
 C447 C 0.17768 0.71333 0.75640
 C448 C 0.20615 0.70612 0.75026
 C449 C 0.21324 0.67762 0.74411
 C450 C 0.19209 0.65655 0.74412
 H451 H 0.09934 0.60000 0.70409
 H452 H 0.06219 0.56309 0.70385
 H453 H 0.06222 0.56286 0.79623
 H454 H 0.09938 0.59977 0.79610
 H455 H 0.13464 0.69811 0.76111
 H456 H 0.17194 0.73523 0.76126
 H457 H 0.23511 0.67178 0.73925
 H458 H 0.19784 0.63463 0.73934
 C459 C 0.89793 0.60259 0.24996
 C460 C 0.90858 0.59203 0.27582
 C461 C 0.92977 0.57094 0.27585
 C462 C 0.94057 0.56015 0.24995
 C463 C 0.92972 0.57093 0.22405
 C464 C 0.90853 0.59201 0.22409
 C465 C 0.87614 0.62427 0.24996
 C466 C 0.85789 0.64245 0.24996
 C467 C 0.83612 0.66416 0.24995
 C468 C 0.84328 0.69257 0.24383
 C469 C 0.82213 0.71367 0.24380
 C470 C 0.79367 0.70650 0.24994
 C471 C 0.78659 0.67801 0.25608
 C472 C 0.80774 0.65691 0.25606
 H473 H 0.90051 0.60009 0.29597
 H474 H 0.93767 0.56310 0.29614
 H475 H 0.93757 0.56308 0.20376
 H476 H 0.90041 0.60006 0.20395
 H477 H 0.86518 0.69839 0.23907
 H478 H 0.82787 0.73557 0.23894
 H479 H 0.76472 0.67221 0.26094
 H480 H 0.80199 0.63499 0.26083
 C481 C 0.10243 0.24985 0.60195
 C482 C 0.09190 0.22396 0.59133
 C483 C 0.07077 0.22393 0.57022
 C484 C 0.05989 0.24985 0.55946
 C485 C 0.07063 0.27577 0.57029
 C486 C 0.09176 0.27574 0.59139
 C487 C 0.12417 0.24984 0.62367
 C488 C 0.14237 0.24984 0.64188
 C489 C 0.16408 0.24983 0.66363
 C490 C 0.19250 0.25585 0.65644
 C491 C 0.21360 0.25586 0.67756
 C492 C 0.20643 0.24978 0.70604
 C493 C 0.17793 0.24374 0.71315
 C494 C 0.15684 0.24379 0.69202
 H495 H 0.10002 0.20380 0.59936
 H496 H 0.06297 0.20362 0.56235
 H497 H 0.06272 0.29608 0.56246
 H498 H 0.09978 0.29590 0.59948
 H499 H 0.19832 0.26056 0.63454
 H500 H 0.23549 0.26065 0.67179
 H501 H 0.17212 0.23893 0.73502
 H502 H 0.13492 0.23909 0.69780
 C503 C 0.89768 0.75017 0.60219
 C504 C 0.90830 0.72428 0.59162
 C505 C 0.92943 0.72424 0.57051
 C506 C 0.94022 0.75016 0.55969
 C507 C 0.92939 0.77608 0.57047
 C508 C 0.90826 0.77605 0.59159
 C509 C 0.87594 0.75017 0.62391
 C510 C 0.85774 0.75016 0.64212
 C511 C 0.83601 0.75017 0.66384
 C512 C 0.81549 0.72841 0.66451
 C513 C 0.79436 0.72841 0.68560
 C514 C 0.79364 0.75017 0.70622
 C515 C 0.81426 0.77193 0.70550
 C516 C 0.83535 0.77193 0.68437
 H517 H 0.90025 0.70412 0.59969
 H518 H 0.93730 0.70392 0.56267
 H519 H 0.93722 0.79639 0.56261
 H520 H 0.90017 0.79622 0.59963
 H521 H 0.81581 0.71148 0.64872
 H522 H 0.77851 0.71155 0.68585
 H523 H 0.81401 0.78880 0.72134
 H524 H 0.85114 0.78886 0.68404
 C525 C 0.10219 0.75000 0.39782
 C526 C 0.09157 0.72413 0.40841
 C527 C 0.07045 0.72412 0.42953
 C528 C 0.05969 0.75006 0.44035
 C529 C 0.07052 0.77597 0.42956
 C530 C 0.09164 0.77590 0.40843
 C531 C 0.12391 0.74996 0.37608
 C532 C 0.14210 0.74991 0.35786
 C533 C 0.16382 0.74987 0.33613
 C534 C 0.19223 0.74380 0.34334
 C535 C 0.21334 0.74373 0.32222
 C536 C 0.20618 0.74979 0.29374
 C537 C 0.17768 0.75587 0.28661
 C538 C 0.15658 0.75589 0.30773
 H539 H 0.09960 0.70395 0.40033
 H540 H 0.06257 0.70382 0.43738
 H541 H 0.06270 0.79629 0.43742
 H542 H 0.09973 0.79605 0.40038
 H543 H 0.19805 0.73911 0.36524
 H544 H 0.23523 0.73891 0.32800
 H545 H 0.17188 0.76067 0.26472
 H546 H 0.13467 0.76062 0.30194
 C547 C 0.89786 0.24981 0.39763
 C548 C 0.90847 0.22392 0.40825
 C549 C 0.92960 0.22390 0.42937
 C550 C 0.94039 0.24982 0.44013
 C551 C 0.92957 0.27574 0.42930
 C552 C 0.90845 0.27570 0.40818
 C553 C 0.87613 0.24980 0.37590
 C554 C 0.85791 0.24980 0.35771
 C555 C 0.83617 0.24983 0.33599
 C556 C 0.84338 0.24379 0.30759
 C557 C 0.82226 0.24379 0.28649
 C558 C 0.79377 0.24987 0.29364
 C559 C 0.78664 0.25594 0.32212
 C560 C 0.80776 0.25589 0.34322
 H561 H 0.90042 0.20376 0.40022
 H562 H 0.93747 0.20359 0.43724
 H563 H 0.93742 0.29606 0.43712
 H564 H 0.90037 0.29586 0.40009
 H565 H 0.86529 0.23906 0.30179
 H566 H 0.82804 0.23898 0.26461
 H567 H 0.76475 0.26076 0.32792
 H568 H 0.80197 0.26059 0.36512
 C569 C 0.25006 0.39716 0.89803
 C570 C 0.22419 0.40780 0.90863
 C571 C 0.22418 0.42887 0.92979
 C572 C 0.25009 0.43959 0.94064
 C573 C 0.27599 0.42874 0.92984
 C574 C 0.27595 0.40766 0.90867
 C575 C 0.25004 0.37549 0.87624
 C576 C 0.25004 0.35734 0.85797
 C577 C 0.25005 0.33568 0.83618
 C578 C 0.24405 0.30723 0.84332
 C579 C 0.24404 0.28617 0.82215
 C580 C 0.25010 0.29342 0.79369
 C581 C 0.25612 0.32195 0.78663
 C582 C 0.25607 0.34300 0.80781
 H583 H 0.20404 0.39980 0.90053
 H584 H 0.20388 0.43676 0.93764
 H585 H 0.29630 0.43653 0.93772
 H586 H 0.29609 0.39957 0.90061
 H587 H 0.23935 0.30135 0.86520
 H588 H 0.23927 0.26425 0.82788
 H589 H 0.26093 0.32782 0.76477
 H590 H 0.26076 0.36495 0.80207
 C591 C 0.74985 0.39777 0.10210
 C592 C 0.72397 0.40835 0.09147
 C593 C 0.72393 0.42950 0.07037
 C594 C 0.74984 0.44033 0.05962
 C595 C 0.77575 0.42954 0.07046
 C596 C 0.77573 0.40840 0.09156
 C597 C 0.74985 0.37603 0.12381
 C598 C 0.74987 0.35781 0.14201
 C599 C 0.74990 0.33609 0.16373
 C600 C 0.74384 0.34332 0.19212
 C601 C 0.74385 0.32220 0.21323
 C602 C 0.74996 0.29370 0.20611
 C603 C 0.75605 0.28655 0.17764
 C604 C 0.75600 0.30767 0.15653
 H605 H 0.70382 0.40025 0.09950
 H606 H 0.70363 0.43734 0.06249
 H607 H 0.79606 0.43743 0.06265
 H608 H 0.79588 0.40034 0.09966
 H609 H 0.73909 0.36524 0.19790
 H610 H 0.73902 0.32799 0.23511
 H611 H 0.76089 0.26465 0.17187
 H612 H 0.76072 0.30187 0.13463
 C613 C 0.74981 0.60237 0.89781
 C614 C 0.77570 0.59176 0.90840
 C615 C 0.77573 0.57063 0.92952
 C616 C 0.74982 0.55984 0.94032
 C617 C 0.72391 0.57067 0.92952
 C618 C 0.72394 0.59180 0.90840
 C619 C 0.74981 0.62409 0.87608
 C620 C 0.74981 0.64229 0.85786
 C621 C 0.74984 0.66401 0.83613
 C622 C 0.77159 0.68455 0.83550
 C623 C 0.77159 0.70568 0.81441
 C624 C 0.74986 0.70639 0.79375
 C625 C 0.72813 0.68574 0.79444
 C626 C 0.72811 0.66465 0.81557
 H627 H 0.79584 0.59981 0.90032
 H628 H 0.79604 0.56275 0.93737
 H629 H 0.70361 0.56283 0.93738
 H630 H 0.70379 0.59988 0.90033
 H631 H 0.78848 0.68423 0.85132
 H632 H 0.78844 0.72155 0.81417
 H633 H 0.71129 0.68599 0.77857
 H634 H 0.71120 0.64884 0.81588
 C635 C 0.25011 0.60169 0.10240
 C636 C 0.27599 0.59108 0.09180
 C637 C 0.27603 0.56991 0.07072
 C638 C 0.25013 0.55908 0.05997
 C639 C 0.22421 0.56989 0.07078
 C640 C 0.22424 0.59106 0.09186
 C641 C 0.25010 0.62347 0.12408
 C642 C 0.25008 0.64172 0.14224
 C643 C 0.25007 0.66349 0.16393
 C644 C 0.24403 0.69191 0.15666
 C645 C 0.24398 0.71306 0.17773
 C646 C 0.25001 0.70594 0.20623
 C647 C 0.25607 0.67744 0.21342
 C648 C 0.25607 0.65629 0.19234
 H649 H 0.29614 0.59917 0.09983
 H650 H 0.29633 0.56205 0.06287
 H651 H 0.20391 0.56202 0.06296
 H652 H 0.20408 0.59913 0.09992
 H653 H 0.23935 0.69769 0.13474
 H654 H 0.23917 0.73496 0.17190
 H655 H 0.26086 0.67166 0.23531
 H656 H 0.26078 0.63437 0.19818
 C657 C 0.39818 0.10176 0.74991
 C658 C 0.40879 0.09118 0.77576
 C659 C 0.42993 0.07005 0.77584
 C660 C 0.44083 0.05912 0.74994
 C661 C 0.42991 0.07001 0.72403
 C662 C 0.40877 0.09114 0.72407
 C663 C 0.37643 0.12351 0.74988
 C664 C 0.35820 0.14173 0.74986
 C665 C 0.33644 0.16347 0.74985
 C666 C 0.34364 0.19190 0.74383
 C667 C 0.32251 0.21303 0.74379
 C668 C 0.29402 0.20589 0.74982
 C669 C 0.28690 0.17737 0.75586
 C670 C 0.30803 0.15625 0.75585
 H671 H 0.40072 0.09928 0.79589
 H672 H 0.43769 0.06232 0.79623
 H673 H 0.43765 0.06225 0.70364
 H674 H 0.40068 0.09920 0.70392
 H675 H 0.36556 0.19771 0.73915
 H676 H 0.32829 0.23494 0.73901
 H677 H 0.26501 0.17158 0.76064
 H678 H 0.30225 0.13432 0.76054
 C679 C 0.39736 0.89801 0.24992
 C680 C 0.40788 0.90865 0.27579
 C681 C 0.42893 0.92985 0.27584
 C682 C 0.43973 0.94068 0.24995
 C683 C 0.42899 0.92984 0.22404
 C684 C 0.40795 0.90865 0.22406
 C685 C 0.37572 0.87619 0.24990
 C686 C 0.35758 0.85792 0.24989
 C687 C 0.33592 0.83613 0.24988
 C688 C 0.30749 0.84330 0.24386
 C689 C 0.28643 0.82213 0.24383
 C690 C 0.29366 0.79363 0.24989
 C691 C 0.32218 0.78654 0.25593
 C692 C 0.34323 0.80771 0.25590
 H693 H 0.39982 0.90056 0.29593
 H694 H 0.43673 0.93773 0.29613
 H695 H 0.43684 0.93772 0.20376
 H696 H 0.39994 0.90055 0.20391
 H697 H 0.30162 0.86522 0.23916
 H698 H 0.26452 0.82789 0.23905
 H699 H 0.32804 0.76465 0.26073
 H700 H 0.36516 0.80195 0.26060
 C701 C 0.60177 0.10248 0.24998
 C702 C 0.59111 0.09197 0.22412
 C703 C 0.56992 0.07092 0.22408
 C704 C 0.55912 0.06010 0.24998
 C705 C 0.56999 0.07083 0.27588
 C706 C 0.59118 0.09188 0.27584
 C707 C 0.62358 0.12413 0.24997
 C708 C 0.64185 0.14227 0.24998
 C709 C 0.66364 0.16394 0.24999
 C710 C 0.65648 0.19239 0.25600
 C711 C 0.67764 0.21345 0.25601
 C712 C 0.70612 0.20621 0.24995
 C713 C 0.71320 0.17768 0.24392
 C714 C 0.69203 0.15662 0.24397
 H715 H 0.59917 0.10005 0.20397
 H716 H 0.56202 0.06313 0.20379
 H717 H 0.56214 0.06296 0.29617
 H718 H 0.59929 0.09988 0.29598
 H719 H 0.63458 0.19826 0.26070
 H720 H 0.67190 0.23537 0.26079
 H721 H 0.73507 0.17181 0.23912
 H722 H 0.69779 0.13468 0.23927
 C723 C 0.60185 0.89812 0.74998
 C724 C 0.59125 0.90874 0.72412
 C725 C 0.57010 0.92987 0.72409
 C726 C 0.55927 0.94066 0.74998
 C727 C 0.57009 0.92983 0.77588
 C728 C 0.59124 0.90870 0.77584
 C729 C 0.62362 0.87638 0.74997
 C730 C 0.64185 0.85817 0.74996
 C731 C 0.66360 0.83643 0.74997
 C732 C 0.66426 0.81587 0.72823
 C733 C 0.68538 0.79472 0.72825
 C734 C 0.70603 0.79402 0.74998
 C735 C 0.70531 0.81467 0.77171
 C736 C 0.68415 0.83578 0.77171
 H737 H 0.59932 0.90069 0.70397
 H738 H 0.56224 0.93774 0.70379
 H739 H 0.56222 0.93767 0.79617
 H740 H 0.59931 0.90062 0.79599
 H741 H 0.64845 0.81618 0.71133
 H742 H 0.68563 0.77886 0.71140
 H743 H 0.72117 0.81443 0.78856
 H744 H 0.68383 0.85159 0.78861
 C745 C 0.74975 0.89823 0.60189
 C746 C 0.72390 0.90889 0.59129
 C747 C 0.72385 0.93003 0.57014
 C748 C 0.74977 0.94088 0.55921
 C749 C 0.77568 0.92992 0.57011
 C750 C 0.77561 0.90878 0.59126
 C751 C 0.74973 0.87646 0.62368
 C752 C 0.74974 0.85824 0.64192
 C753 C 0.74976 0.83647 0.66369
 C754 C 0.75573 0.84369 0.69211
 C755 C 0.75578 0.82257 0.71325
 C756 C 0.74981 0.79403 0.70615
 C757 C 0.74381 0.78689 0.67765
 C758 C 0.74382 0.80802 0.65652
 H759 H 0.70374 0.90087 0.59938
 H760 H 0.70346 0.93781 0.56241
 H761 H 0.79608 0.93761 0.56236
 H762 H 0.79575 0.90067 0.59932
 H763 H 0.76037 0.86563 0.69790
 H764 H 0.76053 0.82839 0.73513
 H765 H 0.73907 0.76498 0.67187
 H766 H 0.73916 0.80219 0.63461
 C767 C 0.25018 0.39802 0.10175
 C768 C 0.22432 0.40864 0.09115
 C769 C 0.22425 0.42976 0.06999
 C770 C 0.25016 0.44062 0.05905
 C771 C 0.27608 0.42969 0.06995
 C772 C 0.27603 0.40858 0.09111
 C773 C 0.25019 0.37629 0.12353
 C774 C 0.25022 0.35808 0.14178
 C775 C 0.25026 0.33634 0.16355
 C776 C 0.25629 0.34358 0.19195
 C777 C 0.25636 0.32248 0.21309
 C778 C 0.25034 0.29395 0.20601
 C779 C 0.24429 0.28678 0.17754
 C780 C 0.24428 0.30790 0.15640
 H781 H 0.20418 0.40061 0.09925
 H782 H 0.20385 0.43752 0.06226
 H783 H 0.29648 0.43740 0.06219
 H784 H 0.29619 0.40049 0.09918
 H785 H 0.26096 0.36552 0.19772
 H786 H 0.26115 0.32830 0.23496
 H787 H 0.23951 0.26488 0.17178
 H788 H 0.23957 0.30206 0.13450
 C789 C 0.25020 0.10167 0.60174
 C790 C 0.27604 0.09101 0.59113
 C791 C 0.27609 0.06988 0.56999
 C792 C 0.25017 0.05902 0.55906
 C793 C 0.22427 0.06999 0.56996
 C794 C 0.22434 0.09112 0.59111
 C795 C 0.25021 0.12344 0.62352
 C796 C 0.25021 0.14167 0.64176
 C797 C 0.25022 0.16343 0.66354
 C798 C 0.27203 0.18391 0.66429
 C799 C 0.27202 0.20506 0.68540
 C800 C 0.25022 0.20587 0.70599
 C801 C 0.22843 0.18528 0.70518
 C802 C 0.22842 0.16417 0.68403
 H803 H 0.29620 0.09903 0.59921
 H804 H 0.29648 0.06210 0.56226
 H805 H 0.20387 0.06229 0.56221
 H806 H 0.20419 0.09922 0.59916
 H807 H 0.28900 0.18356 0.64854
 H808 H 0.28893 0.22085 0.68568
 H809 H 0.21151 0.18556 0.72097
 H810 H 0.21144 0.14844 0.68367
 C811 C 0.25001 0.89790 0.39796
 C812 C 0.22416 0.90856 0.40860
 C813 C 0.22416 0.92969 0.42974
 C814 C 0.25007 0.94049 0.44054
 C815 C 0.27595 0.92963 0.42969
 C816 C 0.27589 0.90849 0.40855
 C817 C 0.24998 0.87613 0.37618
 C818 C 0.24996 0.85789 0.35796
 C819 C 0.24996 0.83611 0.33620
 C820 C 0.22814 0.83539 0.31572
 C821 C 0.22814 0.81427 0.29459
 C822 C 0.24994 0.79364 0.29378
 C823 C 0.27176 0.79443 0.31435
 C824 C 0.27177 0.81559 0.33545
 H825 H 0.20399 0.90052 0.40057
 H826 H 0.20386 0.93757 0.43762
 H827 H 0.29627 0.93746 0.43751
 H828 H 0.29604 0.90041 0.40047
 H829 H 0.21116 0.85115 0.31608
 H830 H 0.21122 0.81400 0.27880
 H831 H 0.28867 0.77861 0.31406
 H832 H 0.28875 0.81592 0.35118
 C833 C 0.74986 0.10193 0.39802
 C834 C 0.77573 0.09130 0.40866
 C835 C 0.77575 0.07018 0.42983
 C836 C 0.74984 0.05939 0.44065
 C837 C 0.72395 0.07023 0.42980
 C838 C 0.72399 0.09135 0.40864
 C839 C 0.74987 0.12367 0.37622
 C840 C 0.74989 0.14189 0.35797
 C841 C 0.74991 0.16366 0.33620
 C842 C 0.77169 0.16431 0.31568
 C843 C 0.77170 0.18542 0.29452
 C844 C 0.74994 0.20609 0.29374
 C845 C 0.72817 0.20538 0.31436
 C846 C 0.72815 0.18423 0.33548
 H847 H 0.79589 0.09933 0.40060
 H848 H 0.79605 0.06231 0.43770
 H849 H 0.70364 0.06240 0.43765
 H850 H 0.70384 0.09942 0.40055
 H851 H 0.78862 0.14850 0.31603
 H852 H 0.78858 0.18564 0.27870
 H853 H 0.71130 0.22125 0.31409
 H854 H 0.71120 0.18394 0.35125
 C855 C 0.60180 0.75023 0.89810
 C856 C 0.59126 0.72436 0.90876
 C857 C 0.57014 0.72429 0.92990
 C858 C 0.55916 0.75020 0.94079
 C859 C 0.57000 0.77613 0.92983
 C860 C 0.59113 0.77609 0.90868
 C861 C 0.62357 0.75024 0.87631
 C862 C 0.64179 0.75023 0.85807
 C863 C 0.66356 0.75023 0.83630
 C864 C 0.65635 0.74431 0.80787
 C865 C 0.67747 0.74427 0.78673
 C866 C 0.70600 0.75021 0.79384
 C867 C 0.71314 0.75617 0.82235
 C868 C 0.69201 0.75615 0.84348
 H869 H 0.59937 0.70420 0.90072
 H870 H 0.56246 0.70387 0.93768
 H871 H 0.56221 0.79654 0.93754
 H872 H 0.59913 0.79625 0.90058
 H873 H 0.63442 0.73968 0.80205
 H874 H 0.67165 0.73954 0.76485
 H875 H 0.73503 0.76089 0.82816
 H876 H 0.69784 0.76078 0.86539
 C877 C 0.10236 0.24996 0.39755
 C878 C 0.09183 0.22406 0.40816
 C879 C 0.07070 0.22400 0.42928
 C880 C 0.05983 0.24991 0.44007
 C881 C 0.07057 0.27584 0.42924
 C882 C 0.09170 0.27584 0.40812
 C883 C 0.12411 0.24999 0.37583
 C884 C 0.14233 0.25003 0.35763
 C885 C 0.16409 0.25009 0.33593
 C886 C 0.15693 0.24401 0.30753
 C887 C 0.17807 0.24402 0.28644
 C888 C 0.20653 0.25016 0.29360
 C889 C 0.21362 0.25627 0.32208
 C890 C 0.19247 0.25621 0.34316
 H891 H 0.09994 0.20391 0.40012
 H892 H 0.06290 0.20368 0.43715
 H893 H 0.06267 0.29614 0.43708
 H894 H 0.09971 0.29601 0.40005
 H895 H 0.13504 0.23923 0.30171
 H896 H 0.17232 0.23918 0.26456
 H897 H 0.23548 0.26114 0.32789
 H898 H 0.19823 0.26095 0.36507
 C899 C 0.60194 0.24992 0.10176
 C900 C 0.59136 0.22405 0.09117
 C901 C 0.57025 0.22398 0.07001
 C902 C 0.55932 0.24990 0.05905
 C903 C 0.57021 0.27582 0.06994
 C904 C 0.59132 0.27578 0.09110
 C905 C 0.62369 0.24992 0.12356
 C906 C 0.64191 0.24992 0.14181
 C907 C 0.66368 0.24994 0.16358
 C908 C 0.68420 0.22811 0.16435
 C909 C 0.70534 0.22812 0.18546
 C910 C 0.70612 0.24994 0.20604
 C911 C 0.68550 0.27176 0.20520
 C912 C 0.66440 0.27176 0.18405
 H913 H 0.59943 0.20389 0.09927
 H914 H 0.56253 0.20357 0.06229
 H915 H 0.56246 0.29623 0.06217
 H916 H 0.59937 0.29594 0.09915
 H917 H 0.68386 0.21113 0.14863
 H918 H 0.72115 0.21120 0.18577
 H919 H 0.68576 0.28868 0.22098
 H920 H 0.64864 0.28874 0.18367
 C921 C 0.39825 0.24971 0.89791
 C922 C 0.40891 0.22385 0.90856
 C923 C 0.43005 0.22385 0.92970
 C924 C 0.44083 0.24978 0.94049
 C925 C 0.42996 0.27567 0.92963
 C926 C 0.40882 0.27561 0.90850
 C927 C 0.37647 0.24967 0.87614
 C928 C 0.35825 0.24966 0.85790
 C929 C 0.33648 0.24966 0.83613
 C930 C 0.33571 0.27149 0.81564
 C931 C 0.31460 0.27148 0.79449
 C932 C 0.29404 0.24966 0.79368
 C933 C 0.29487 0.22783 0.81426
 C934 C 0.31602 0.22782 0.83537
 H935 H 0.40089 0.20367 0.90053
 H936 H 0.43793 0.20355 0.93758
 H937 H 0.43778 0.29600 0.93746
 H938 H 0.40073 0.29576 0.90041
 H939 H 0.35143 0.28848 0.81600
 H940 H 0.31430 0.28841 0.77870
 H941 H 0.27910 0.21090 0.81397
 H942 H 0.31639 0.21084 0.85111
 C943 C 0.39807 0.74996 0.10192
 C944 C 0.40874 0.72411 0.09129
 C945 C 0.42988 0.72412 0.07015
 C946 C 0.44065 0.75005 0.05934
 C947 C 0.42978 0.77594 0.07018
 C948 C 0.40864 0.77587 0.09132
 C949 C 0.37629 0.74991 0.12369
 C950 C 0.35804 0.74987 0.14191
 C951 C 0.33626 0.74985 0.16367
 C952 C 0.33555 0.72802 0.18417
 C953 C 0.31444 0.72801 0.20531
 C954 C 0.29379 0.74980 0.20610
 C955 C 0.29455 0.77161 0.18550
 C956 C 0.31571 0.77164 0.16440
 H957 H 0.40072 0.70392 0.09933
 H958 H 0.43776 0.70382 0.06229
 H959 H 0.43759 0.79627 0.06235
 H960 H 0.40054 0.79602 0.09939
 H961 H 0.35134 0.71106 0.18382
 H962 H 0.31419 0.71109 0.22111
 H963 H 0.27872 0.78851 0.18577
 H964 H 0.31603 0.78862 0.14865
 C965 C 0.89805 0.60194 0.74998
 C966 C 0.90865 0.59127 0.77581
 C967 C 0.92980 0.57011 0.77587
 C968 C 0.94075 0.55922 0.74997
 C969 C 0.92984 0.57019 0.72407
 C970 C 0.90869 0.59135 0.72414
 C971 C 0.87625 0.62374 0.74998
 C972 C 0.85800 0.64199 0.74998
 C973 C 0.83621 0.66379 0.75000
 C974 C 0.84340 0.69225 0.75592
 C975 C 0.82226 0.71340 0.75595
 C976 C 0.79373 0.70629 0.75001
 C977 C 0.78662 0.67775 0.74406
 C978 C 0.80776 0.65660 0.74408
 H979 H 0.90056 0.59931 0.79596
 H980 H 0.93753 0.56233 0.79625
 H981 H 0.93760 0.56248 0.70368
 H982 H 0.90064 0.59946 0.70400
 H983 H 0.86532 0.69806 0.76054
 H984 H 0.82806 0.73531 0.76067
 H985 H 0.76472 0.67194 0.73934
 H986 H 0.80195 0.63467 0.73946
 C987 C 0.39818 0.10198 0.25000
 C988 C 0.40875 0.09132 0.27584
 C989 C 0.42984 0.07013 0.27590
 C990 C 0.44073 0.05922 0.24999
 C991 C 0.42986 0.07018 0.22409
 C992 C 0.40877 0.09137 0.22415
 C993 C 0.37647 0.12378 0.25000
 C994 C 0.35828 0.14204 0.24999
 C995 C 0.33655 0.16383 0.24998
 C996 C 0.34377 0.19224 0.25601
 C997 C 0.32266 0.21340 0.25601
 C998 C 0.29417 0.20630 0.24993
 C999 C 0.28703 0.17780 0.24387
 C1000 C 0.30814 0.15665 0.24392
 H1001 H 0.40068 0.09940 0.29598
 H1002 H 0.43756 0.06235 0.29629
 H1003 H 0.43759 0.06244 0.20370
 H1004 H 0.40072 0.09949 0.20401
 H1005 H 0.36568 0.19802 0.26073
 H1006 H 0.32846 0.23529 0.26082
 H1007 H 0.26514 0.17203 0.23905
 H1008 H 0.30233 0.13473 0.23921
 C1009 C 0.10177 0.60182 0.24996
 C1010 C 0.09114 0.59123 0.22411
 C1011 C 0.06999 0.57011 0.22405
 C1012 C 0.05907 0.55918 0.24995
 C1013 C 0.06999 0.57007 0.27585
 C1014 C 0.09114 0.59119 0.27579
 C1015 C 0.12357 0.62357 0.24995
 C1016 C 0.14183 0.64177 0.24996
 C1017 C 0.16362 0.66352 0.24996
 C1018 C 0.16440 0.68402 0.22815
 C1019 C 0.18553 0.70515 0.22816
 C1020 C 0.20611 0.70593 0.24996
 C1021 C 0.20528 0.68532 0.27176
 C1022 C 0.18411 0.66423 0.27177
 H1023 H 0.09921 0.59930 0.20397
 H1024 H 0.06225 0.56239 0.20366
 H1025 H 0.06225 0.56232 0.29623
 H1026 H 0.09921 0.59924 0.29594
 H1027 H 0.14866 0.68369 0.21118
 H1028 H 0.18583 0.72096 0.21125
 H1029 H 0.22107 0.68558 0.28868
 H1030 H 0.18373 0.64848 0.28874
 C1031 C 0.89798 0.39804 0.24985
 C1032 C 0.90860 0.40863 0.27572
 C1033 C 0.92974 0.42977 0.27576
 C1034 C 0.94056 0.44063 0.24989
 C1035 C 0.92973 0.42984 0.22399
 C1036 C 0.90860 0.40870 0.22401
 C1037 C 0.87622 0.37626 0.24983
 C1038 C 0.85799 0.35802 0.24983
 C1039 C 0.83624 0.33623 0.24984
 C1040 C 0.81574 0.33549 0.27164
 C1041 C 0.79460 0.31437 0.27164
 C1042 C 0.79381 0.29376 0.24986
 C1043 C 0.81442 0.29456 0.22807
 C1044 C 0.83551 0.31572 0.22806
 H1045 H 0.90055 0.40054 0.29586
 H1046 H 0.93759 0.43759 0.29606
 H1047 H 0.93757 0.43773 0.20370
 H1048 H 0.90054 0.40067 0.20385
 H1049 H 0.81607 0.35125 0.28859
 H1050 H 0.77880 0.31410 0.28854
 H1051 H 0.81415 0.27875 0.21118
 H1052 H 0.85126 0.31607 0.21110
 C1053 C 0.10198 0.39792 0.74987
 C1054 C 0.09137 0.40853 0.77573
 C1055 C 0.07021 0.42969 0.77578
 C1056 C 0.05936 0.44054 0.74990
 C1057 C 0.07017 0.42973 0.72401
 C1058 C 0.09133 0.40856 0.72402
 C1059 C 0.12377 0.37612 0.74984
 C1060 C 0.14202 0.35787 0.74984
 C1061 C 0.16382 0.33608 0.74985
 C1062 C 0.16455 0.31554 0.77162
 C1063 C 0.18567 0.29437 0.77162
 C1064 C 0.20630 0.29360 0.74985
 C1065 C 0.20552 0.31424 0.72809
 C1066 C 0.18435 0.33537 0.72808
 H1067 H 0.09945 0.40045 0.79587
 H1068 H 0.06237 0.43754 0.79608
 H1069 H 0.06230 0.43760 0.70372
 H1070 H 0.09938 0.40051 0.70387
 H1071 H 0.14877 0.31586 0.78856
 H1072 H 0.18594 0.27853 0.78850
 H1073 H 0.22134 0.31399 0.71121
 H1074 H 0.18401 0.35116 0.71114
 C1075 C 0.89772 0.75014 0.39778
 C1076 C 0.90835 0.72426 0.40838
 C1077 C 0.92947 0.72422 0.42951
 C1078 C 0.94025 0.75014 0.44030
 C1079 C 0.92941 0.77606 0.42949
 C1080 C 0.90829 0.77603 0.40837
 C1081 C 0.87598 0.75014 0.37605
 C1082 C 0.85776 0.75015 0.35785
 C1083 C 0.83602 0.75018 0.33613
 C1084 C 0.83537 0.77195 0.31559
 C1085 C 0.81427 0.77196 0.29446
 C1086 C 0.79362 0.75022 0.29376
 C1087 C 0.79434 0.72846 0.31440
 C1088 C 0.81548 0.72843 0.33549
 H1089 H 0.90031 0.70409 0.40033
 H1090 H 0.93735 0.70391 0.43736
 H1091 H 0.93724 0.79638 0.43734
 H1092 H 0.90020 0.79620 0.40030
 H1093 H 0.85117 0.78886 0.31589
 H1094 H 0.81403 0.78883 0.27861
 H1095 H 0.77848 0.71161 0.31417
 H1096 H 0.81579 0.71150 0.35129
 C1097 C 0.89793 0.24979 0.60207
 C1098 C 0.90853 0.22391 0.59147
 C1099 C 0.92965 0.22388 0.57033
 C1100 C 0.94044 0.24981 0.55953
 C1101 C 0.92962 0.27572 0.57035
 C1102 C 0.90851 0.27568 0.59148
 C1103 C 0.87620 0.24979 0.62382
 C1104 C 0.85800 0.24981 0.64203
 C1105 C 0.83627 0.24984 0.66377
 C1106 C 0.83566 0.22812 0.68436
 C1107 C 0.81458 0.22816 0.70550
 C1108 C 0.79390 0.24991 0.70617
 C1109 C 0.79457 0.27163 0.68547
 C1110 C 0.81570 0.27160 0.66438
 H1111 H 0.90048 0.20374 0.59952
 H1112 H 0.93751 0.20357 0.56247
 H1113 H 0.93746 0.29604 0.56251
 H1114 H 0.90044 0.29584 0.59955
 H1115 H 0.85149 0.21120 0.68409
 H1116 H 0.81437 0.21133 0.72139
 H1117 H 0.77869 0.28849 0.68568
 H1118 H 0.81597 0.28849 0.64854
 C1119 C 0.10212 0.75003 0.60234
 C1120 C 0.09152 0.72416 0.59175
 C1121 C 0.07043 0.72415 0.57061
 C1122 C 0.05964 0.75008 0.55977
 C1123 C 0.07045 0.77599 0.57056
 C1124 C 0.09155 0.77593 0.59171
 C1125 C 0.12382 0.75000 0.62411
 C1126 C 0.14202 0.74998 0.64233
 C1127 C 0.16374 0.74995 0.66407
 C1128 C 0.18432 0.72820 0.66470
 C1129 C 0.20545 0.72818 0.68579
 C1130 C 0.20612 0.74990 0.70646
 C1131 C 0.18544 0.77165 0.70577
 C1132 C 0.16435 0.77168 0.68463
 H1133 H 0.09957 0.70399 0.59984
 H1134 H 0.06257 0.70384 0.56276
 H1135 H 0.06261 0.79631 0.56269
 H1136 H 0.09961 0.79609 0.59977
 H1137 H 0.18404 0.71130 0.64888
 H1138 H 0.22133 0.71132 0.68602
 H1139 H 0.18565 0.78849 0.72164
 H1140 H 0.14852 0.78860 0.68434
 C1141 C 0.74978 0.60236 0.10220
 C1142 C 0.77566 0.59173 0.09162
 C1143 C 0.77570 0.57060 0.07051
 C1144 C 0.74980 0.55982 0.05969
 C1145 C 0.72389 0.57066 0.07048
 C1146 C 0.72391 0.59180 0.09159
 C1147 C 0.74978 0.62411 0.12392
 C1148 C 0.74979 0.64233 0.14212
 C1149 C 0.74982 0.66408 0.16383
 C1150 C 0.77157 0.68462 0.16444
 C1151 C 0.77159 0.70577 0.18552
 C1152 C 0.74987 0.70649 0.20619
 C1153 C 0.72813 0.68585 0.20552
 C1154 C 0.72810 0.66474 0.18440
 H1155 H 0.79581 0.59977 0.09969
 H1156 H 0.79601 0.56272 0.06267
 H1157 H 0.70359 0.56283 0.06261
 H1158 H 0.70376 0.59989 0.09964
 H1159 H 0.78847 0.68430 0.14862
 H1160 H 0.78845 0.72162 0.18573
 H1161 H 0.71129 0.68610 0.22139
 H1162 H 0.71118 0.64895 0.18413
 C1163 C 0.25009 0.60168 0.89803
 C1164 C 0.27597 0.59106 0.90865
 C1165 C 0.27601 0.56992 0.92977
 C1166 C 0.25011 0.55910 0.94058
 C1167 C 0.22420 0.56992 0.92976
 C1168 C 0.22422 0.59107 0.90863
 C1169 C 0.25007 0.62345 0.87629
 C1170 C 0.25006 0.64170 0.85808
 C1171 C 0.25005 0.66349 0.83636
 C1172 C 0.27178 0.66415 0.81580
 C1173 C 0.27175 0.68529 0.79467
 C1174 C 0.25000 0.70597 0.79399
 C1175 C 0.22827 0.70524 0.81465
 C1176 C 0.22829 0.68407 0.83573
 H1177 H 0.29612 0.59913 0.90059
 H1178 H 0.29632 0.56205 0.93763
 H1179 H 0.20390 0.56207 0.93760
 H1180 H 0.20407 0.59914 0.90056
 H1181 H 0.28870 0.64833 0.81608
 H1182 H 0.28859 0.68553 0.77881
 H1183 H 0.21141 0.72112 0.81444
 H1184 H 0.21138 0.68376 0.85154
 C1185 C 0.74995 0.39788 0.89773
 C1186 C 0.72406 0.40846 0.90833
 C1187 C 0.72401 0.42958 0.92946
 C1188 C 0.74990 0.44039 0.94026
 C1189 C 0.77582 0.42959 0.92946
 C1190 C 0.77581 0.40847 0.90833
 C1191 C 0.74998 0.37615 0.87599
 C1192 C 0.75001 0.35794 0.85777
 C1193 C 0.75006 0.33621 0.83605
 C1194 C 0.72832 0.33557 0.81549
 C1195 C 0.72836 0.31446 0.79437
 C1196 C 0.75012 0.29379 0.79369
 C1197 C 0.77185 0.29450 0.81434
 C1198 C 0.77183 0.31565 0.83542
 H1199 H 0.70392 0.40040 0.90026
 H1200 H 0.70369 0.43743 0.93731
 H1201 H 0.79612 0.43744 0.93731
 H1202 H 0.79598 0.40042 0.90026
 H1203 H 0.71139 0.35138 0.81578
 H1204 H 0.71151 0.31423 0.77851
 H1205 H 0.78872 0.27863 0.81412
 H1206 H 0.78873 0.31595 0.85123
 C1207 C 0.60178 0.89819 0.24993
 C1208 C 0.59118 0.90878 0.27580
 C1209 C 0.57001 0.92989 0.27584
 C1210 C 0.55915 0.94069 0.24995
 C1211 C 0.56996 0.92989 0.22405
 C1212 C 0.59113 0.90878 0.22407
 C1213 C 0.62357 0.87646 0.24992
 C1214 C 0.64182 0.85826 0.24992
 C1215 C 0.66359 0.83653 0.24994
 C1216 C 0.66419 0.81590 0.27163
 C1217 C 0.68531 0.79475 0.27163
 C1218 C 0.70603 0.79412 0.24997
 C1219 C 0.70538 0.81485 0.22829
 C1220 C 0.68421 0.83596 0.22827
 H1221 H 0.59928 0.90072 0.29594
 H1222 H 0.56216 0.93774 0.29613
 H1223 H 0.56207 0.93774 0.20376
 H1224 H 0.59919 0.90072 0.20392
 H1225 H 0.64833 0.81614 0.28849
 H1226 H 0.68551 0.77883 0.28844
 H1227 H 0.72129 0.81467 0.21149
 H1228 H 0.68394 0.85182 0.21141
 C1229 C 0.60189 0.10252 0.74991
 C1230 C 0.59127 0.09194 0.72406
 C1231 C 0.57010 0.07087 0.72404
 C1232 C 0.55925 0.06011 0.74994
 C1233 C 0.57007 0.07091 0.77583
 C1234 C 0.59125 0.09197 0.77578
 C1235 C 0.62370 0.12418 0.74990
 C1236 C 0.64197 0.14232 0.74990
 C1237 C 0.66378 0.16398 0.74992
 C1238 C 0.66445 0.18459 0.72823
 C1239 C 0.68561 0.20566 0.72825
 C1240 C 0.70629 0.20623 0.74996
 C1241 C 0.70556 0.18551 0.77164
 C1242 C 0.68436 0.16449 0.77163
 H1243 H 0.59937 0.09997 0.70391
 H1244 H 0.56224 0.06303 0.70375
 H1245 H 0.56219 0.06309 0.79613
 H1246 H 0.59932 0.10003 0.79592
 H1247 H 0.64862 0.18440 0.71134
 H1248 H 0.68586 0.22158 0.71144
 H1249 H 0.72144 0.18565 0.78847
 H1250 H 0.68404 0.14863 0.78850
 C1251 C 0.39742 0.89804 0.75009
 C1252 C 0.40801 0.90866 0.77594
 C1253 C 0.42908 0.92983 0.77595
 C1254 C 0.43985 0.94066 0.75004
 C1255 C 0.42904 0.92984 0.72416
 C1256 C 0.40797 0.90866 0.72421
 C1257 C 0.37576 0.87623 0.75011
 C1258 C 0.35761 0.85796 0.75014
 C1259 C 0.33595 0.83616 0.75017
 C1260 C 0.31541 0.83548 0.77191
 C1261 C 0.29433 0.81433 0.77192
 C1262 C 0.29368 0.79366 0.75020
 C1263 C 0.31433 0.79440 0.72848
 C1264 C 0.33537 0.81558 0.72845
 H1265 H 0.39998 0.90057 0.79609
 H1266 H 0.43693 0.93770 0.79623
 H1267 H 0.43687 0.93771 0.70386
 H1268 H 0.39992 0.90058 0.70408
 H1269 H 0.31566 0.85130 0.78880
 H1270 H 0.27847 0.81407 0.78877
 H1271 H 0.31414 0.77853 0.71164
 H1272 H 0.35117 0.81592 0.71154
   
