data_POSCAR
  _audit_creation_date              2014-09-24
  _audit_creation_method            'ToBaCCo'
  _symmetry_space_group_name_H-M    'P1'
  _symmetry_Int_Tables_number       1
  _symmetry_cell_setting            triclinic
  loop_
  _symmetry_equiv_pos_as_xyz
 x,y,z
_cell_length_a 67.4156
_cell_length_b 67.1030
_cell_length_c 66.1938
_cell_angle_alpha 90.074900
_cell_angle_beta 90.445800
_cell_angle_gamma 89.557400
loop_
  _atom_site_label
  _atom_site_type_symbol
  _atom_site_fract_x
  _atom_site_fract_y
  _atom_site_fract_z
C1 C 0.19375 0.21533 0.21489
 C2 C 0.20567 0.22133 0.19875
 C3 C 0.22194 0.20994 0.19331
 C4 C 0.22660 0.19244 0.20394
 C5 C 0.21480 0.18645 0.21976
 C6 C 0.19824 0.19796 0.22525
 C7 C 0.17695 0.22336 0.22348
 N8 N 0.17110 0.21122 0.23870
 C9 C 0.18404 0.19563 0.23986
 C10 C 0.22271 0.16891 0.22710
 N11 N 0.23906 0.16413 0.21615
 C12 C 0.24149 0.17848 0.20192
 C13 C 0.23049 0.21901 0.17697
 N14 N 0.21979 0.23565 0.17226
 C15 C 0.20459 0.23719 0.18559
 H16 H 0.16937 0.23689 0.21879
 H17 H 0.18331 0.18358 0.25067
 H18 H 0.21710 0.16041 0.23968
 H19 H 0.25309 0.17865 0.19071
 H20 H 0.24359 0.21385 0.16913
 H21 H 0.19325 0.24869 0.18544
 C22 C 0.69371 0.71912 0.71774
 C23 C 0.70460 0.72453 0.70070
 C24 C 0.72109 0.71351 0.69515
 C25 C 0.72679 0.69675 0.70652
 C26 C 0.71599 0.69138 0.72335
 C27 C 0.69927 0.70261 0.72896
 C28 C 0.67726 0.72735 0.72670
 N29 N 0.67259 0.71620 0.74307
 C30 C 0.68593 0.70097 0.74454
 C31 C 0.72500 0.67474 0.73151
 N32 N 0.74089 0.66979 0.71998
 C33 C 0.74207 0.68317 0.70464
 C34 C 0.72877 0.72235 0.67816
 N35 N 0.71718 0.73831 0.67325
 C36 C 0.70237 0.73973 0.68697
 H37 H 0.66916 0.74043 0.72159
 H38 H 0.68610 0.68973 0.75626
 H39 H 0.72019 0.66668 0.74473
 H40 H 0.75338 0.68318 0.69312
 H41 H 0.74165 0.71739 0.66982
 H42 H 0.69092 0.75113 0.68707
 C43 C 0.31056 0.78462 0.71197
 C44 C 0.29933 0.77787 0.69543
 C45 C 0.28258 0.78832 0.68933
 C46 C 0.27679 0.80562 0.69970
 C47 C 0.28792 0.81236 0.71585
 C48 C 0.30488 0.80173 0.72212
 C49 C 0.32730 0.77730 0.72150
 N50 N 0.33189 0.78951 0.73725
 C51 C 0.31823 0.80452 0.73767
 C52 C 0.27885 0.82940 0.72291
 N53 N 0.26227 0.83324 0.71154
 C54 C 0.26105 0.81856 0.69729
 C55 C 0.27466 0.77842 0.67299
 N56 N 0.28619 0.76220 0.66897
 C57 C 0.30130 0.76175 0.68271
 H58 H 0.33524 0.76379 0.71753
 H59 H 0.31801 0.81666 0.74845
 H60 H 0.28384 0.83783 0.73589
 H61 H 0.24988 0.81739 0.68555
 H62 H 0.26133 0.78264 0.66479
 H63 H 0.31308 0.75072 0.68323
 C64 C 0.80672 0.28208 0.21353
 C65 C 0.79639 0.27706 0.19577
 C66 C 0.77939 0.28749 0.19039
 C67 C 0.77240 0.30296 0.20273
 C68 C 0.78247 0.30776 0.22030
 C69 C 0.79973 0.29720 0.22574
 C70 C 0.82387 0.27485 0.22230
 N71 N 0.82761 0.28518 0.23970
 C72 C 0.81267 0.29887 0.24178
 C73 C 0.77246 0.32340 0.22913
 N74 N 0.75657 0.32832 0.21730
 C75 C 0.75647 0.31580 0.20111
 C76 C 0.77248 0.27946 0.17258
 N77 N 0.78481 0.26432 0.16703
 C78 C 0.79952 0.26280 0.18114
 H79 H 0.83261 0.26264 0.21637
 H80 H 0.81139 0.30988 0.25364
 H81 H 0.77648 0.33053 0.24323
 H82 H 0.74589 0.31623 0.18874
 H83 H 0.75918 0.28402 0.16452
 H84 H 0.81166 0.25217 0.18078
 C85 C 0.80404 0.72296 0.28754
 C86 C 0.79315 0.72788 0.30483
 C87 C 0.77690 0.71664 0.31014
 C88 C 0.77128 0.70034 0.29816
 C89 C 0.78199 0.69557 0.28107
 C90 C 0.79844 0.70703 0.27570
 C91 C 0.82066 0.73102 0.27901
 N92 N 0.82544 0.72045 0.26206
 C93 C 0.81169 0.70571 0.26006
 C94 C 0.77345 0.67897 0.27260
 N95 N 0.75781 0.67348 0.28413
 C96 C 0.75638 0.68654 0.29979
 C97 C 0.76935 0.72474 0.32760
 N98 N 0.78058 0.74067 0.33298
 C99 C 0.79520 0.74264 0.31911
 H100 H 0.82830 0.74398 0.28475
 H101 H 0.81146 0.69428 0.24855
 H102 H 0.77826 0.67154 0.25895
 H103 H 0.74559 0.68583 0.31179
 H104 H 0.75644 0.71957 0.33562
 H105 H 0.80668 0.75382 0.31947
 C106 C 0.30905 0.21979 -0.21142
 C107 C 0.29712 0.22571 -0.19517
 C108 C 0.28012 0.21521 -0.19074
 C109 C 0.27495 0.19850 -0.20235
 C110 C 0.28679 0.19263 -0.21820
 C111 C 0.30383 0.20348 -0.22292
 C112 C 0.32619 0.22733 -0.21945
 N113 N 0.33152 0.21613 -0.23582
 C114 C 0.31775 0.20143 -0.23784
 C115 C 0.27851 0.17583 -0.22649
 N116 N 0.26174 0.17117 -0.21612
 C117 C 0.25952 0.18523 -0.20134
 C118 C 0.27141 0.22438 -0.17441
 N119 N 0.28275 0.24013 -0.16878
 C120 C 0.29853 0.24102 -0.18140
 H121 H 0.33364 0.24052 -0.21401
 H122 H 0.31782 0.18968 -0.24903
 H123 H 0.28432 0.16797 -0.23945
 H124 H 0.24803 0.18560 -0.19005
 H125 H 0.25793 0.21978 -0.16702
 H126 H 0.31005 0.25216 -0.18078
 C127 C 0.69290 0.28109 -0.21979
 C128 C 0.70488 0.27485 -0.20353
 C129 C 0.72210 0.28506 -0.19888
 C130 C 0.72743 0.30177 -0.21029
 C131 C 0.71553 0.30793 -0.22614
 C132 C 0.69829 0.29740 -0.23107
 C133 C 0.67558 0.27388 -0.22807
 N134 N 0.67034 0.28530 -0.24436
 C135 C 0.68433 0.29979 -0.24609
 C136 C 0.72401 0.32462 -0.23427
 N137 N 0.74096 0.32894 -0.22378
 C138 C 0.74309 0.31477 -0.20910
 C139 C 0.73085 0.27559 -0.18265
 N140 N 0.71934 0.25995 -0.17727
 C141 C 0.70341 0.25941 -0.18997
 H142 H 0.66796 0.26075 -0.22288
 H143 H 0.68440 0.31162 -0.25716
 H144 H 0.71820 0.33262 -0.24721
 H145 H 0.75470 0.31414 -0.19776
 H146 H 0.74448 0.27992 -0.17515
 H147 H 0.69175 0.24842 -0.18957
 C148 C 0.18900 0.77895 0.28059
 C149 C 0.20152 0.77237 0.29628
 C150 C 0.21891 0.78242 0.30047
 C151 C 0.22393 0.79928 0.28916
 C152 C 0.21147 0.80594 0.27397
 C153 C 0.19390 0.79570 0.26959
 C154 C 0.17138 0.77192 0.27283
 N155 N 0.16546 0.78405 0.25747
 C156 C 0.17912 0.79868 0.25545
 C157 C 0.21989 0.82268 0.26583
 N158 N 0.23737 0.82646 0.27563
 C159 C 0.23981 0.81201 0.28997
 C160 C 0.22799 0.77291 0.31649
 N161 N 0.21645 0.75744 0.32224
 C162 C 0.20024 0.75698 0.30992
 H163 H 0.16342 0.75897 0.27803
 H164 H 0.17857 0.81039 0.24422
 H165 H 0.21371 0.83103 0.25330
 H166 H 0.25185 0.81091 0.30079
 H167 H 0.24172 0.77727 0.32377
 H168 H 0.18836 0.74626 0.31083
 C169 C 0.46983 0.44255 0.46527
 C170 C 0.47651 0.45421 0.44912
 C171 C 0.46606 0.47119 0.44357
 C172 C 0.44883 0.47670 0.45392
 C173 C 0.44223 0.46522 0.46977
 C174 C 0.45284 0.44807 0.47553
 C175 C 0.47711 0.42550 0.47434
 N176 N 0.46499 0.42060 0.48987
 C177 C 0.45009 0.43436 0.49063
 C178 C 0.42537 0.47428 0.47712
 N179 N 0.42159 0.49099 0.46609
 C180 C 0.43592 0.49253 0.45186
 C181 C 0.47598 0.47979 0.42782
 N182 N 0.49223 0.46848 0.42358
 C183 C 0.49264 0.45275 0.43653
 H184 H 0.49050 0.41754 0.47019
 H185 H 0.43803 0.43437 0.50133
 H186 H 0.41672 0.46923 0.48981
 H187 H 0.43684 0.50420 0.44064
 H188 H 0.47155 0.49322 0.41990
 H189 H 0.50401 0.44128 0.43700
 C190 C -0.03111 -0.06034 0.96000
 C191 C -0.02433 -0.04863 0.94399
 C192 C -0.03345 -0.03057 0.93973
 C193 C -0.04963 -0.02412 0.95130
 C194 C -0.05637 -0.03574 0.96695
 C195 C -0.04688 -0.05390 0.97149
 C196 C -0.02491 -0.07837 0.96770
 N197 N -0.03639 -0.08312 0.98388
 C198 C -0.04993 -0.06805 0.98613
 C199 C -0.07250 -0.02609 0.97510
 N200 N -0.07586 -0.00874 0.96482
 C201 C -0.06167 -0.00753 0.95027
 C202 C -0.02377 -0.02242 0.92352
 N203 N -0.00908 -0.03516 0.91779
 C204 C -0.00934 -0.05123 0.93024
 H205 H -0.01238 -0.08685 0.96217
 H206 H -0.06155 -0.06736 0.99728
 H207 H -0.08084 -0.03144 0.98785
 H208 H -0.06044 0.00406 0.93904
 H209 H -0.02737 -0.00841 0.91622
 H210 H 0.00076 -0.06383 0.92948
 C211 C 1.02566 0.55230 0.96856
 C212 C 1.02059 0.54030 0.95198
 C213 C 1.03189 0.52362 0.94750
 C214 C 1.04838 0.51869 0.95959
 C215 C 1.05339 0.53055 0.97586
 C216 C 1.04183 0.54741 0.98049
 C217 C 1.01751 0.56950 0.97629
 N218 N 1.02821 0.57527 0.99287
 C219 C 1.04316 0.56163 0.99541
 C220 C 1.07032 0.52259 0.98440
 N221 N 1.07583 0.50599 0.97382
 C222 C 1.06225 0.50359 0.95861
 C223 C 1.02379 0.51509 0.93044
 N224 N 1.00781 0.52617 0.92449
 C225 C 1.00578 0.54163 0.93763
 H226 H 1.00435 0.57678 0.97036
 H227 H 1.05470 0.56210 1.00683
 H228 H 1.07770 0.52849 0.99765
 H229 H 1.06263 0.49224 0.94702
 H230 H 1.02909 0.50173 0.92301
 H231 H 0.99461 0.55327 0.93661
 C232 C 0.52533 0.05197 0.46673
 C233 C 0.51923 0.04001 0.45049
 C234 C 0.53065 0.02384 0.44471
 C235 C 0.54830 0.01935 0.45515
 C236 C 0.55447 0.03124 0.47097
 C237 C 0.54290 0.04771 0.47685
 C238 C 0.51699 0.06840 0.47583
 N239 N 0.52906 0.07429 0.49119
 C240 C 0.54500 0.06177 0.49188
 C241 C 0.57201 0.02326 0.47821
 N242 N 0.57666 0.00660 0.46728
 C243 C 0.56205 0.00429 0.45309
 C244 C 0.52129 0.01512 0.42844
 N245 N 0.50446 0.02565 0.42418
 C246 C 0.50308 0.04087 0.43769
 H247 H 0.50317 0.07560 0.47151
 H248 H 0.55703 0.06259 0.50278
 H249 H 0.58021 0.02898 0.49103
 H250 H 0.56140 -0.00720 0.44165
 H251 H 0.52637 0.00203 0.42037
 H252 H 0.49145 0.05208 0.43790
 C253 C -0.03293 0.06240 0.53554
 C254 C -0.02697 0.05147 0.55260
 C255 C -0.03744 0.03477 0.55832
 C256 C -0.05419 0.02891 0.54715
 C257 C -0.06012 0.03978 0.53040
 C258 C -0.04937 0.05656 0.52450
 C259 C -0.02543 0.07907 0.52634
 N260 N -0.03689 0.08349 0.50993
 C261 C -0.05161 0.06977 0.50876
 C262 C -0.07690 0.03095 0.52272
 N263 N -0.08139 0.01498 0.53441
 C264 C -0.06750 0.01361 0.54937
 C265 C -0.02824 0.02714 0.57530
 N266 N -0.01256 0.03891 0.58007
 C267 C -0.01170 0.05383 0.56627
 H268 H -0.01233 0.08712 0.53105
 H269 H -0.06322 0.06946 0.49738
 H270 H -0.08516 0.03578 0.50950
 H271 H -0.06731 0.00258 0.56129
 H272 H -0.03279 0.01417 0.58375
 H273 H -0.00065 0.06545 0.56607
 C274 C 0.46575 0.56138 0.03621
 C275 C 0.47191 0.55010 0.05298
 C276 C 0.46130 0.53351 0.05869
 C277 C 0.44436 0.52794 0.04765
 C278 C 0.43837 0.53905 0.03108
 C279 C 0.44923 0.55581 0.02526
 C280 C 0.47324 0.57815 0.02722
 N281 N 0.46175 0.58297 0.01083
 C282 C 0.44700 0.56917 0.00967
 C283 C 0.42153 0.53036 0.02337
 N284 N 0.41709 0.51423 0.03485
 C285 C 0.43105 0.51263 0.04971
 C286 C 0.47080 0.52544 0.07529
 N287 N 0.48696 0.53669 0.07974
 C288 C 0.48767 0.55184 0.06614
 H289 H 0.48654 0.58572 0.03208
 H290 H 0.43506 0.56891 -0.00133
 H291 H 0.41323 0.53536 0.01024
 H292 H 0.43133 0.50138 0.06142
 H293 H 0.46647 0.51210 0.08325
 H294 H 0.49876 0.56341 0.06589
 C295 C 0.53707 -0.05545 0.03555
 C296 C 0.53144 -0.04454 0.05268
 C297 C 0.54206 -0.02788 0.05840
 C298 C 0.55858 -0.02202 0.04718
 C299 C 0.56408 -0.03274 0.03023
 C300 C 0.55324 -0.04957 0.02437
 C301 C 0.52942 -0.07216 0.02640
 N302 N 0.54054 -0.07660 0.00992
 C303 C 0.55516 -0.06281 0.00861
 C304 C 0.58054 -0.02365 0.02235
 N305 N 0.58524 -0.00780 0.03421
 C306 C 0.57186 -0.00670 0.04942
 C307 C 0.53308 -0.02010 0.07530
 N308 N 0.51733 -0.03169 0.08001
 C309 C 0.51627 -0.04671 0.06627
 H310 H 0.51648 -0.08027 0.03124
 H311 H 0.56654 -0.06253 -0.00283
 H312 H 0.58873 -0.02847 0.00919
 H313 H 0.57171 0.00451 0.06120
 H314 H 0.53773 -0.00702 0.08363
 H315 H 0.50504 -0.05816 0.06595
 C316 C 1.03426 0.44342 0.53375
 C317 C 1.02830 0.45444 0.55072
 C318 C 1.03886 0.47110 0.55651
 C319 C 1.05543 0.47703 0.54543
 C320 C 1.06140 0.46612 0.52887
 C321 C 1.05068 0.44924 0.52290
 C322 C 1.02678 0.42669 0.52445
 N323 N 1.03822 0.42225 0.50818
 C324 C 1.05290 0.43600 0.50719
 C325 C 1.07795 0.47523 0.52125
 N326 N 1.08221 0.49162 0.53270
 C327 C 1.06830 0.49267 0.54755
 C328 C 1.02999 0.47874 0.57347
 N329 N 1.01426 0.46715 0.57821
 C330 C 1.01308 0.45226 0.56429
 H331 H 1.01372 0.41861 0.52899
 H332 H 1.06447 0.43630 0.49596
 H333 H 1.08580 0.47040 0.50791
 H334 H 1.06766 0.50361 0.55954
 H335 H 1.03459 0.49191 0.58167
 H336 H 1.00222 0.44046 0.56425
 C337 C 0.40672 0.00397 0.22258
 H338 H 0.40719 0.01652 0.23284
 C339 C 0.42057 0.00239 0.20709
 H340 H 0.43180 0.01374 0.20570
 C341 C 0.39193 -0.02643 0.21261
 H342 H 0.38094 -0.03779 0.21494
 C343 C 0.40536 -0.02850 0.19677
 H344 H 0.40414 -0.04125 0.18682
 N345 N 0.39268 -0.01025 0.22497
 C346 C 0.34334 0.01851 0.25588
 H347 H 0.34222 0.00890 0.26893
 C348 C 0.32994 0.03425 0.25328
 H349 H 0.31869 0.03685 0.26459
 C350 C 0.35955 0.02677 0.22541
 H351 H 0.37092 0.02359 0.21444
 C352 C 0.34643 0.04269 0.22220
 H353 H 0.34784 0.05162 0.20868
 Zn354 Zn 0.37486 -0.00694 0.24673
 N355 N 0.35788 0.01517 0.24214
 C356 C 0.38822 0.01402 0.28151
 N357 N 0.39024 -0.00295 0.27042
 C358 C 0.40383 -0.01718 0.27554
 C359 C 0.41579 -0.01484 0.29269
 C360 C 0.39986 0.01696 0.29877
 C361 C 0.34575 -0.03389 0.23418
 C362 C 0.33258 -0.04975 0.23586
 C363 C 0.34529 -0.05594 0.26950
 C364 C 0.35832 -0.04007 0.26712
 N365 N 0.35842 -0.02949 0.24960
 H366 H 0.37775 0.02541 0.27691
 H367 H 0.40530 -0.03041 0.26630
 H368 H 0.42629 -0.02649 0.29671
 H369 H 0.39818 0.03065 0.30728
 H370 H 0.34583 -0.02498 0.22058
 H371 H 0.32286 -0.05318 0.22325
 H372 H 0.34516 -0.06385 0.28375
 H373 H 0.36803 -0.03596 0.27947
 C374 C 0.33137 0.04660 0.23625
 C375 C 0.41997 -0.01397 0.19382
 C376 C 0.33216 -0.06099 0.25375
 C377 C 0.41384 0.00240 0.30460
 C378 C 0.09569 -0.00547 0.72283
 H379 H 0.09473 -0.01884 0.73188
 C380 C 0.08201 -0.00206 0.70724
 H381 H 0.07043 -0.01285 0.70457
 C382 C 0.11148 0.02521 0.71613
 H383 H 0.12274 0.03598 0.71981
 C384 C 0.09827 0.02910 0.70025
 H385 H 0.09994 0.04266 0.69161
 N386 N 0.11010 0.00805 0.72692
 C387 C 0.15755 -0.02518 0.75716
 H388 H 0.15850 -0.01711 0.77130
 C389 C 0.17023 -0.04132 0.75361
 H390 H 0.18062 -0.04579 0.76533
 C391 C 0.14249 -0.02919 0.72498
 H392 H 0.13185 -0.02423 0.71374
 C393 C 0.15505 -0.04528 0.72069
 H394 H 0.15394 -0.05246 0.70607
 Zn395 Zn 0.12737 0.00255 0.74895
 N396 N 0.14382 -0.01965 0.74306
 C397 C 0.11280 -0.02022 0.78184
 N398 N 0.11126 -0.00271 0.77162
 C399 C 0.09731 0.01116 0.77657
 C400 C 0.08424 0.00771 0.79244
 C401 C 0.10018 -0.02420 0.79793
 C402 C 0.15735 0.02933 0.73947
 C403 C 0.17048 0.04506 0.74238
 C404 C 0.15694 0.04997 0.77572
 C405 C 0.14392 0.03424 0.77208
 N406 N 0.14424 0.02441 0.75410
 H407 H 0.12365 -0.03128 0.77745
 H408 H 0.09616 0.02481 0.76794
 H409 H 0.07296 0.01877 0.79579
 H410 H 0.10189 -0.03812 0.80603
 H411 H 0.15750 0.02105 0.72544
 H412 H 0.18043 0.04899 0.73029
 H413 H 0.15667 0.05737 0.79026
 H414 H 0.13375 0.02976 0.78373
 C415 C 0.16911 -0.05164 0.73515
 C416 C 0.08320 0.01542 0.69564
 C417 C 0.17045 0.05562 0.76073
 C418 C 0.08554 -0.01021 0.80335
 C419 C 0.59423 0.49217 0.22345
 H420 H 0.59355 0.47856 0.23204
 C421 C 0.58130 0.49492 0.20706
 H422 H 0.57119 0.48312 0.20292
 C423 C 0.60775 0.52424 0.21862
 H424 H 0.61759 0.53594 0.22343
 C425 C 0.59514 0.52760 0.20214
 H426 H 0.59563 0.54180 0.19441
 N427 N 0.60741 0.50657 0.22871
 C428 C 0.66111 0.48105 0.24574
 H429 H 0.66795 0.49541 0.24738
 C430 C 0.67315 0.46435 0.24261
 H431 H 0.68901 0.46634 0.24129
 C432 C 0.63240 0.46098 0.24555
 H433 H 0.61658 0.45960 0.24734
 C434 C 0.64392 0.44384 0.24260
 H435 H 0.63671 0.42949 0.24196
 Zn436 Zn 0.62483 0.50228 0.25116
 N437 N 0.64105 0.47921 0.24685
 C438 C 0.61419 0.48418 0.28815
 N439 N 0.60925 0.49845 0.27438
 C440 C 0.59301 0.51031 0.27685
 C441 C 0.58083 0.50789 0.29361
 C442 C 0.60242 0.48126 0.30514
 C443 C 0.65319 0.53083 0.23970
 C444 C 0.66592 0.54694 0.24226
 C445 C 0.65368 0.55098 0.27623
 C446 C 0.64120 0.53473 0.27304
 N447 N 0.64124 0.52494 0.25502
 H448 H 0.62736 0.47515 0.28603
 H449 H 0.58946 0.52156 0.26568
 H450 H 0.56775 0.51723 0.29509
 H451 H 0.60670 0.46998 0.31604
 H452 H 0.65296 0.52282 0.22550
 H453 H 0.67526 0.55140 0.22986
 H454 H 0.65374 0.55833 0.29081
 H455 H 0.63169 0.52977 0.28507
 C456 C 0.66461 0.44539 0.24099
 C457 C 0.58179 0.51278 0.19606
 C458 C 0.66637 0.55717 0.26077
 C459 C 0.58544 0.49317 0.30801
 C460 C 0.90689 0.50791 0.72173
 H461 H 0.90731 0.52116 0.73104
 C462 C 0.92034 0.50558 0.70596
 H463 H 0.93088 0.51730 0.70303
 C464 C 0.89263 0.47654 0.71439
 H465 H 0.88216 0.46502 0.71800
 C466 C 0.90583 0.47358 0.69849
 H467 H 0.90529 0.45978 0.69001
 N468 N 0.89324 0.49360 0.72550
 C469 C 0.84530 0.52357 0.75775
 H470 H 0.84388 0.51347 0.77038
 C471 C 0.83237 0.53981 0.75584
 H472 H 0.82089 0.54193 0.76699
 C473 C 0.86158 0.53244 0.72753
 H474 H 0.87282 0.52941 0.71638
 C475 C 0.84909 0.54899 0.72512
 H476 H 0.85122 0.55875 0.71232
 Zn477 Zn 0.87614 0.49761 0.74775
 N478 N 0.85964 0.52027 0.74380
 C479 C 0.89145 0.51803 0.78212
 N480 N 0.89243 0.50109 0.77086
 C481 C 0.90576 0.48640 0.77527
 C482 C 0.91861 0.48827 0.79179
 C483 C 0.90404 0.52054 0.79876
 C484 C 0.84655 0.47085 0.73594
 C485 C 0.83349 0.45494 0.73786
 C486 C 0.84635 0.44921 0.77153
 C487 C 0.85931 0.46511 0.76889
 N488 N 0.85931 0.47545 0.75123
 H489 H 0.88108 0.52974 0.77808
 H490 H 0.90637 0.47318 0.76591
 H491 H 0.92890 0.47626 0.79523
 H492 H 0.90323 0.53425 0.80737
 H493 H 0.84662 0.47954 0.72219
 H494 H 0.82380 0.45128 0.72530
 H495 H 0.84635 0.44146 0.78586
 H496 H 0.86911 0.46937 0.78111
 C497 C 0.83421 0.55289 0.73941
 C498 C 0.91993 0.48822 0.69409
 C499 C 0.83323 0.44387 0.75587
 C500 C 0.91786 0.50554 0.80380
 C501 C 0.22253 0.40487 0.01516
 H502 H 0.23123 0.40505 0.02896
 C503 C 0.20612 0.41752 0.01307
 H504 H 0.20211 0.42714 0.02555
 C505 C 0.21721 0.39181 -0.01769
 H506 H 0.22178 0.38200 -0.02977
 C507 C 0.20082 0.40439 -0.02052
 H508 H 0.19303 0.40413 -0.03488
 N509 N 0.22758 0.39215 0.00001
 C510 C 0.26172 0.34532 0.03036
 H511 H 0.27506 0.34532 0.02137
 C512 C 0.25981 0.33176 0.04619
 H513 H 0.27190 0.32153 0.04949
 C514 C 0.22976 0.35867 0.03684
 H515 H 0.21786 0.36882 0.03286
 C516 C 0.22723 0.34538 0.05280
 H517 H 0.21337 0.34552 0.06097
 Zn518 Zn 0.25031 0.37584 0.00382
 N519 N 0.24690 0.35856 0.02612
 C520 C 0.28318 0.39207 0.02545
 N521 N 0.27206 0.39304 0.00823
 C522 C 0.27554 0.40708 -0.00607
 C523 C 0.29098 0.42063 -0.00357
 C524 C 0.29878 0.40535 0.02858
 C525 C 0.24082 0.34530 -0.02305
 C526 C 0.24310 0.33242 -0.03946
 C527 C 0.27358 0.34915 -0.04767
 C528 C 0.27080 0.36161 -0.03098
 N529 N 0.25451 0.35960 -0.01919
 H530 H 0.27985 0.38120 0.03692
 H531 H 0.26627 0.40773 -0.01947
 H532 H 0.29368 0.43147 -0.01531
 H533 H 0.30730 0.40451 0.04248
 H534 H 0.22816 0.34383 -0.01324
 H535 H 0.23218 0.32092 -0.04200
 H536 H 0.28645 0.35130 -0.05708
 H537 H 0.28170 0.37283 -0.02750
 C538 C 0.24237 0.33168 0.05766
 C539 C 0.19500 0.41744 -0.00499
 C540 C 0.25964 0.33426 -0.05209
 C541 C 0.30285 0.41988 0.01395
 C542 C 0.72811 0.09422 -0.01123
 H543 H 0.73734 0.09216 -0.02438
 C544 C 0.71247 0.08117 -0.00764
 H545 H 0.70993 0.06899 -0.01805
 C546 C 0.72091 0.11212 0.01871
 H547 H 0.72438 0.12399 0.02914
 C548 C 0.70503 0.09956 0.02279
 H549 H 0.69622 0.10231 0.03612
 N550 N 0.73195 0.10940 0.00181
 C551 C 0.76244 0.15607 -0.03106
 H552 H 0.77517 0.15795 -0.02120
 C553 C 0.75984 0.16853 -0.04773
 H554 H 0.77057 0.18012 -0.05044
 C555 C 0.73266 0.13908 -0.03887
 H556 H 0.72204 0.12769 -0.03525
 C557 C 0.72954 0.15114 -0.05582
 H558 H 0.71665 0.14861 -0.06530
 Zn559 Zn 0.75387 0.12600 -0.00372
 N560 N 0.74901 0.14164 -0.02701
 C561 C 0.78611 0.10976 -0.02566
 N562 N 0.77627 0.10934 -0.00781
 C563 C 0.78184 0.09662 0.00721
 C564 C 0.79833 0.08413 0.00484
 C565 C 0.80257 0.09742 -0.02873
 C566 C 0.74436 0.15786 0.02188
 C567 C 0.74705 0.17164 0.03747
 C568 C 0.77918 0.15687 0.04432
 C569 C 0.77586 0.14335 0.02863
 N570 N 0.75853 0.14389 0.01797
 H571 H 0.78115 0.11957 -0.03763
 H572 H 0.77357 0.09638 0.02115
 H573 H 0.80282 0.07453 0.01721
 H574 H 0.81002 0.09784 -0.04315
 H575 H 0.73087 0.15821 0.01291
 H576 H 0.73538 0.18235 0.04062
 H577 H 0.79314 0.15631 0.05251
 H578 H 0.78725 0.13261 0.02489
 C579 C 0.74325 0.16612 -0.06046
 C580 C 0.70063 0.08377 0.00957
 C581 C 0.76463 0.17120 0.04899
 C582 C 0.80900 0.08446 -0.01331
 C583 C 0.22287 0.59575 0.48820
 H584 H 0.23084 0.59524 0.47409
 C585 C 0.20677 0.58315 0.49120
 H586 H 0.20222 0.57330 0.47909
 C587 C 0.21909 0.60949 0.52093
 H588 H 0.22414 0.61950 0.53263
 C589 C 0.20307 0.59700 0.52467
 H590 H 0.19603 0.59759 0.53930
 N591 N 0.22844 0.60886 0.50281
 C592 C 0.25922 0.65646 0.47124
 H593 H 0.27229 0.65763 0.48074
 C594 C 0.25668 0.66928 0.45481
 H595 H 0.26782 0.68043 0.45193
 C596 C 0.22858 0.64085 0.46399
 H597 H 0.21752 0.62995 0.46771
 C598 C 0.22553 0.65325 0.44730
 H599 H 0.21232 0.65131 0.43813
 Zn600 Zn 0.25041 0.62552 0.49778
 N601 N 0.24540 0.64242 0.47535
 C602 C 0.28291 0.61029 0.47524
 N603 N 0.27249 0.60875 0.49266
 C604 C 0.27727 0.59480 0.50681
 C605 C 0.29346 0.58204 0.50396
 C606 C 0.29924 0.59786 0.47178
 C607 C 0.24148 0.65568 0.52562
 C608 C 0.24457 0.66843 0.54202
 C609 C 0.27682 0.65324 0.54711
 C610 C 0.27312 0.64079 0.53062
 N611 N 0.25557 0.64206 0.52039
 H612 H 0.27860 0.62111 0.46394
 H613 H 0.26857 0.59375 0.52042
 H614 H 0.29730 0.57133 0.51559
 H615 H 0.30733 0.59925 0.45780
 H616 H 0.22776 0.65654 0.51706
 H617 H 0.23301 0.67891 0.54617
 H618 H 0.29095 0.65212 0.55494
 H619 H 0.28437 0.63026 0.52592
 C620 C 0.23974 0.66765 0.44243
 C621 C 0.19655 0.58371 0.50963
 C622 C 0.26242 0.66726 0.55305
 C623 C 0.30477 0.58357 0.48631
 C624 C 0.72289 0.90786 0.51359
 H625 H 0.73110 0.90890 0.52765
 C626 C 0.70638 0.92018 0.51024
 H627 H 0.70180 0.93037 0.52203
 C628 C 0.71882 0.89300 0.48137
 H629 H 0.72389 0.88265 0.46999
 C630 C 0.70239 0.90515 0.47730
 H631 H 0.69506 0.90397 0.46275
 N632 N 0.72849 0.89429 0.49942
 C633 C 0.76016 0.84704 0.53185
 H634 H 0.77327 0.84581 0.52260
 C635 C 0.75721 0.83356 0.54759
 H636 H 0.76810 0.82190 0.55019
 C637 C 0.72953 0.86308 0.53875
 H638 H 0.71853 0.87427 0.53503
 C639 C 0.72610 0.85008 0.55477
 H640 H 0.71269 0.85190 0.56349
 Zn641 Zn 0.75081 0.87772 0.50487
 N642 N 0.74640 0.86142 0.52772
 C643 C 0.78363 0.89380 0.52659
 N644 N 0.77282 0.89450 0.50916
 C645 C 0.77688 0.90795 0.49446
 C646 C 0.79248 0.92130 0.49685
 C647 C 0.79941 0.90689 0.52962
 C648 C 0.74119 0.84659 0.47877
 C649 C 0.74364 0.83302 0.46298
 C650 C 0.77550 0.84768 0.45607
 C651 C 0.77243 0.86099 0.47201
 N652 N 0.75538 0.86034 0.48284
 H653 H 0.77991 0.88326 0.53826
 H654 H 0.76790 0.90830 0.48084
 H655 H 0.79561 0.93173 0.48485
 H656 H 0.80767 0.90633 0.54370
 H657 H 0.72788 0.84626 0.48779
 H658 H 0.73198 0.82244 0.45976
 H659 H 0.78923 0.84828 0.44774
 H660 H 0.78376 0.87168 0.47580
 C661 C 0.73992 0.83491 0.55927
 C662 C 0.69577 0.91882 0.49193
 C663 C 0.76096 0.83347 0.45136
 C664 C 0.80396 0.92093 0.51465
 C665 C 0.00911 0.22487 0.40379
 H666 H 0.02295 0.23290 0.40468
 C667 C 0.00568 0.20899 0.41690
 H668 H 0.01709 0.20469 0.42767
 C669 C -0.02249 0.22070 0.38853
 H670 H -0.03362 0.22551 0.37777
 C671 C -0.02653 0.20475 0.40132
 H672 H -0.04076 0.19744 0.40016
 N673 N -0.00474 0.23017 0.38971
 C674 C 0.02725 0.25866 0.34061
 H675 H 0.01852 0.27216 0.33894
 C676 C 0.04292 0.25479 0.32745
 H677 H 0.04597 0.26535 0.31554
 C678 C 0.03321 0.22819 0.35771
 H679 H 0.02925 0.21771 0.36932
 C680 C 0.04910 0.22381 0.34501
 H681 H 0.05744 0.21015 0.34739
 Zn682 Zn 0.00098 0.25174 0.37227
 N683 N 0.02280 0.24549 0.35546
 C684 C 0.02429 0.28381 0.38717
 N685 N 0.00676 0.27407 0.38872
 C686 C -0.00699 0.27960 0.40262
 C687 C -0.00352 0.29580 0.41539
 C688 C 0.02837 0.30010 0.39964
 C689 C -0.02683 0.24293 0.34194
 C690 C -0.04323 0.24603 0.32929
 C691 C -0.04685 0.27908 0.34338
 C692 C -0.03047 0.27528 0.35586
 N693 N -0.02104 0.25730 0.35518
 H694 H 0.03521 0.27892 0.37635
 H695 H -0.02072 0.27144 0.40367
 H696 H -0.01482 0.30019 0.42609
 H697 H 0.04247 0.30757 0.39830
 H698 H -0.01887 0.22888 0.34149
 H699 H -0.04796 0.23412 0.31937
 H700 H -0.05407 0.29352 0.34409
 H701 H -0.02531 0.28674 0.36603
 C702 C 0.05416 0.23718 0.32959
 C703 C -0.01229 0.19858 0.41563
 C704 C -0.05360 0.26427 0.33001
 C705 C 0.01434 0.30632 0.41397
 C706 C -0.01723 0.71990 0.09564
 H707 H -0.03122 0.72791 0.09542
 C708 C -0.01445 0.70349 0.08298
 H709 H -0.02658 0.69876 0.07334
 C710 C 0.01544 0.71642 0.10869
 H711 H 0.02717 0.72177 0.11845
 C712 C 0.01894 0.70004 0.09611
 H713 H 0.03344 0.69300 0.09633
 N714 N -0.00245 0.72592 0.10826
 C715 C -0.03453 0.76084 0.15319
 H716 H -0.02670 0.77481 0.15219
 C717 C -0.05026 0.75891 0.16661
 H718 H -0.05466 0.77163 0.17565
 C719 C -0.03829 0.72739 0.14241
 H720 H -0.03330 0.71501 0.13329
 C721 C -0.05400 0.72476 0.15574
 H722 H -0.06092 0.71029 0.15668
 Zn723 Zn -0.00719 0.74903 0.12391
 N724 N -0.02905 0.74530 0.14123
 C725 C -0.03004 0.77984 0.10509
 N726 N -0.01227 0.77009 0.10552
 C727 C 0.00220 0.77449 0.09209
 C728 C -0.00057 0.78975 0.07804
 C729 C -0.03353 0.79510 0.09115
 C730 C 0.01954 0.74131 0.15533
 C731 C 0.03539 0.74468 0.16856
 C732 C 0.04173 0.77558 0.15118
 C733 C 0.02562 0.77172 0.13843
 N734 N 0.01504 0.75468 0.14055
 H735 H -0.04164 0.77566 0.11537
 H736 H 0.01604 0.76621 0.09247
 H737 H 0.01142 0.79337 0.06793
 H738 H -0.04785 0.80249 0.09091
 H739 H 0.01065 0.72805 0.15691
 H740 H 0.03844 0.73398 0.18042
 H741 H 0.05020 0.78902 0.14890
 H742 H 0.02158 0.78242 0.12693
 C743 C -0.06025 0.74067 0.16803
 C744 C 0.00388 0.69338 0.08298
 C745 C 0.04682 0.76198 0.16654
 C746 C -0.01862 0.80036 0.07745
 C747 C 0.48731 0.22048 0.59464
 H748 H 0.47391 0.22943 0.59381
 C749 C 0.48965 0.20408 0.58187
 H750 H 0.47801 0.20068 0.57107
 C751 C 0.51899 0.21466 0.60927
 H752 H 0.53056 0.21898 0.61971
 C753 C 0.52187 0.19800 0.59693
 H754 H 0.53546 0.18944 0.59850
 N755 N 0.50178 0.22533 0.60814
 C756 C 0.47067 0.25833 0.65519
 H757 H 0.47853 0.27232 0.65470
 C758 C 0.45532 0.25576 0.66894
 H759 H 0.45122 0.26804 0.67870
 C760 C 0.46648 0.22550 0.64277
 H761 H 0.47112 0.21363 0.63279
 C762 C 0.45117 0.22220 0.65644
 H763 H 0.44424 0.20771 0.65682
 Zn764 Zn 0.49718 0.24797 0.62463
 N765 N 0.47576 0.24341 0.64228
 C766 C 0.47389 0.27966 0.60805
 N767 N 0.49153 0.26973 0.60722
 C768 C 0.50560 0.27482 0.59358
 C769 C 0.50253 0.29098 0.58064
 C770 C 0.47019 0.29590 0.59537
 C771 C 0.52583 0.23940 0.65436
 C772 C 0.54228 0.24276 0.66681
 C773 C 0.54495 0.27569 0.65244
 C774 C 0.52860 0.27160 0.64010
 N775 N 0.51960 0.25356 0.64103
 H776 H 0.46262 0.27502 0.61851
 H777 H 0.51938 0.26648 0.59303
 H778 H 0.51416 0.29515 0.57032
 H779 H 0.45605 0.30360 0.59626
 H780 H 0.51811 0.22534 0.65513
 H781 H 0.54735 0.23100 0.67680
 H782 H 0.55171 0.29024 0.65161
 H783 H 0.52300 0.28296 0.62999
 C784 C 0.44533 0.23747 0.66974
 C785 C 0.50707 0.19246 0.58299
 C786 C 0.55216 0.26111 0.66590
 C787 C 0.48469 0.30189 0.58157
 C788 C 0.50917 0.72413 0.90628
 H789 H 0.52333 0.73159 0.90687
 C790 C 0.50558 0.70804 0.91907
 H791 H 0.51729 0.70298 0.92915
 C792 C 0.47692 0.72162 0.89211
 H793 H 0.46564 0.72715 0.88185
 C794 C 0.47261 0.70564 0.90479
 H795 H 0.45798 0.69914 0.90409
 N796 N 0.49507 0.73030 0.89283
 C797 C 0.52674 0.75969 0.84411
 H798 H 0.51751 0.77287 0.84253
 C799 C 0.54281 0.75676 0.83127
 H800 H 0.54565 0.76768 0.81965
 C801 C 0.53370 0.72924 0.86086
 H802 H 0.53002 0.71842 0.87225
 C803 C 0.55008 0.72582 0.84849
 H804 H 0.55905 0.71257 0.85093
 Zn805 Zn 0.50086 0.75209 0.87572
 N806 N 0.52266 0.74617 0.85875
 C807 C 0.52445 0.78382 0.89071
 N808 N 0.50685 0.77422 0.89240
 C809 C 0.49326 0.77988 0.90640
 C810 C 0.49692 0.79613 0.91906
 C811 C 0.52872 0.80015 0.90305
 C812 C 0.47328 0.74392 0.84504
 C813 C 0.45728 0.74745 0.83197
 C814 C 0.45329 0.78007 0.84694
 C815 C 0.46937 0.77592 0.85972
 N816 N 0.47884 0.75798 0.85873
 H817 H 0.53528 0.77882 0.87985
 H818 H 0.47947 0.77183 0.90758
 H819 H 0.48574 0.80066 0.92982
 H820 H 0.54285 0.80752 0.90154
 H821 H 0.48125 0.72988 0.84440
 H822 H 0.45284 0.73590 0.82148
 H823 H 0.44603 0.79449 0.84786
 H824 H 0.47432 0.78712 0.87030
 C825 C 0.55494 0.73976 0.83353
 C826 C 0.48711 0.69847 0.91838
 C827 C 0.44700 0.76571 0.83287
 C828 C 0.51481 0.80656 0.91739
 C829 C 0.12081 0.22011 0.27663
 C830 C 0.13197 0.23658 0.26990
 C831 C 0.14833 0.23356 0.25721
 C832 C 0.15410 0.21427 0.25140
 C833 C 0.14322 0.19797 0.25834
 C834 C 0.12676 0.20079 0.27071
 C835 C 0.10333 0.22399 0.29003
 C836 C 0.09073 0.20877 0.29678
 C837 C 0.07480 0.21312 0.30944
 C838 C 0.07099 0.23273 0.31582
 C839 C 0.08334 0.24803 0.30895
 C840 C 0.09928 0.24385 0.29603
 C841 C 0.12695 0.25591 0.27612
 C842 C 0.11109 0.25945 0.28906
 H843 H 0.13555 0.26851 0.27106
 H844 H 0.10794 0.27467 0.29357
 H845 H 0.15689 0.24621 0.25220
 H846 H 0.14734 0.18296 0.25396
 H847 H 0.06528 0.20105 0.31404
 H848 H 0.08073 0.26323 0.31386
 H849 H 0.11904 0.18765 0.27556
 H850 H 0.09278 0.19343 0.29237
 C851 C 0.62385 0.72809 0.78217
 C852 C 0.62904 0.70822 0.77711
 C853 C 0.64538 0.70437 0.76461
 C854 C 0.65636 0.72009 0.75653
 C855 C 0.65102 0.73975 0.76131
 C856 C 0.63506 0.74375 0.77401
 C857 C 0.60637 0.73158 0.79564
 C858 C 0.60065 0.75067 0.80240
 C859 C 0.58410 0.75319 0.81470
 C860 C 0.57267 0.73681 0.82054
 C861 C 0.57843 0.71767 0.81409
 C862 C 0.59524 0.71494 0.80193
 C863 C 0.61766 0.69236 0.78423
 C864 C 0.60100 0.69566 0.79616
 H865 H 0.62155 0.67715 0.78028
 H866 H 0.59256 0.68289 0.80107
 H867 H 0.64924 0.68915 0.76066
 H868 H 0.65935 0.75209 0.75530
 H869 H 0.58042 0.76807 0.81987
 H870 H 0.56973 0.70485 0.81835
 H871 H 0.63165 0.75918 0.77703
 H872 H 0.60883 0.76386 0.79857
 C873 C 0.37971 0.78091 0.77927
 C874 C 0.38136 0.77409 0.75910
 C875 C 0.36563 0.77703 0.74536
 C876 C 0.34810 0.78674 0.75134
 C877 C 0.34656 0.79357 0.77131
 C878 C 0.36209 0.79072 0.78510
 C879 C 0.39681 0.77733 0.79351
 C880 C 0.39663 0.78340 0.81390
 C881 C 0.41290 0.77965 0.82655
 C882 C 0.42980 0.76975 0.81927
 C883 C 0.43015 0.76367 0.79897
 C884 C 0.41386 0.76735 0.78611
 C885 C 0.39868 0.76437 0.75274
 C886 C 0.41458 0.76109 0.76594
 H887 H 0.39997 0.75917 0.73729
 H888 H 0.42763 0.75347 0.76026
 H889 H 0.36713 0.77194 0.72991
 H890 H 0.33314 0.80087 0.77642
 H891 H 0.41212 0.78426 0.84221
 H892 H 0.44323 0.75625 0.79309
 H893 H 0.35993 0.79624 0.80023
 H894 H 0.38408 0.79098 0.82045
 C895 C -0.12347 0.27736 0.27930
 C896 C -0.12333 0.26874 0.25981
 C897 C -0.13973 0.27119 0.24678
 C898 C -0.15648 0.28251 0.25259
 C899 C -0.15629 0.29118 0.27202
 C900 C -0.14016 0.28862 0.28512
 C901 C -0.10572 0.27425 0.29280
 C902 C -0.10467 0.28164 0.31271
 C903 C -0.08780 0.27839 0.32465
 C904 C -0.07145 0.26775 0.31710
 C905 C -0.07239 0.26027 0.29728
 C906 C -0.08936 0.26331 0.28520
 C907 C -0.10672 0.25790 0.25328
 C908 C -0.09006 0.25536 0.26564
 H909 H -0.10654 0.25135 0.23830
 H910 H -0.07757 0.24693 0.25982
 H911 H -0.13892 0.26469 0.23186
 H912 H -0.16878 0.29967 0.27758
 H913 H -0.08771 0.28398 0.34000
 H914 H -0.05981 0.25221 0.29115
 H915 H -0.14111 0.29565 0.29973
 H916 H -0.11675 0.28982 0.31947
 C917 C -0.12574 0.73058 0.22386
 C918 C -0.14141 0.71810 0.21755
 C919 C -0.15757 0.71473 0.23033
 C920 C -0.15877 0.72386 0.24952
 C921 C -0.14321 0.73660 0.25541
 C922 C -0.12700 0.73985 0.24288
 C923 C -0.10858 0.73350 0.20988
 C924 C -0.09185 0.74494 0.21508
 C925 C -0.07626 0.74719 0.20153
 C926 C -0.07691 0.73819 0.18239
 C927 C -0.09348 0.72669 0.17711
 C928 C -0.10916 0.72416 0.19070
 C929 C -0.14099 0.70916 0.19841
 C930 C -0.12530 0.71225 0.18523
 H931 H -0.15304 0.69967 0.19349
 H932 H -0.12573 0.70506 0.17056
 H933 H -0.16942 0.70535 0.22486
 H934 H -0.14303 0.74381 0.27000
 H935 H -0.06351 0.75579 0.20621
 H936 H -0.09430 0.71980 0.16231
 H937 H -0.11564 0.74970 0.24844
 H938 H -0.09037 0.75212 0.22958
 C939 C 0.38065 0.22589 0.72631
 C940 C 0.36497 0.21345 0.71996
 C941 C 0.34881 0.21004 0.73273
 C942 C 0.34753 0.21924 0.75187
 C943 C 0.36311 0.23192 0.75785
 C944 C 0.37938 0.23511 0.74537
 C945 C 0.39773 0.22896 0.71226
 C946 C 0.41455 0.24023 0.71752
 C947 C 0.42994 0.24282 0.70380
 C948 C 0.42901 0.23436 0.68441
 C949 C 0.41240 0.22290 0.67913
 C950 C 0.39695 0.21999 0.69290
 C951 C 0.36528 0.20471 0.70072
 C952 C 0.38081 0.20809 0.68741
 H953 H 0.35321 0.19526 0.69577
 H954 H 0.38024 0.20113 0.67264
 H955 H 0.33693 0.20073 0.72720
 H956 H 0.36319 0.23914 0.77244
 H957 H 0.44276 0.25131 0.70854
 H958 H 0.41133 0.21640 0.66417
 H959 H 0.39075 0.24496 0.75094
 H960 H 0.41623 0.24703 0.73219
 C961 C 0.62133 0.27652 0.71662
 C962 C 0.62197 0.26737 0.73584
 C963 C 0.63838 0.27021 0.74872
 C964 C 0.65426 0.28256 0.74308
 C965 C 0.65311 0.29201 0.72408
 C966 C 0.63704 0.28901 0.71109
 C967 C 0.60380 0.27273 0.70311
 C968 C 0.60239 0.28008 0.68322
 C969 C 0.58572 0.27621 0.67127
 C970 C 0.56991 0.26501 0.67878
 C971 C 0.57128 0.25745 0.69853
 C972 C 0.58813 0.26101 0.71059
 C973 C 0.60610 0.25565 0.74223
 C974 C 0.58944 0.25274 0.72998
 H975 H 0.60647 0.24874 0.75702
 H976 H 0.57749 0.24368 0.73571
 H977 H 0.63830 0.26320 0.76342
 H978 H 0.66489 0.30139 0.71871
 H979 H 0.58538 0.28181 0.65593
 H980 H 0.55916 0.24889 0.70465
 H981 H 0.63722 0.29669 0.69680
 H982 H 0.61406 0.28864 0.67647
 C983 C 0.11425 0.77686 0.21989
 C984 C 0.12510 0.76001 0.22680
 C985 C 0.14168 0.76248 0.23950
 C986 C 0.14804 0.78158 0.24506
 C987 C 0.13748 0.79825 0.23797
 C988 C 0.12075 0.79598 0.22563
 C989 C 0.09656 0.77356 0.20643
 C990 C 0.08419 0.78920 0.19956
 C991 C 0.06807 0.78538 0.18681
 C992 C 0.06385 0.76590 0.18042
 C993 C 0.07596 0.75018 0.18741
 C994 C 0.09206 0.75383 0.20046
 C995 C 0.11959 0.74083 0.22068
 C996 C 0.10357 0.73783 0.20762
 H997 H 0.12795 0.72794 0.22588
 H998 H 0.10006 0.72271 0.20316
 H999 H 0.15002 0.74954 0.24462
 H1000 H 0.14210 0.81312 0.24214
 H1001 H 0.05874 0.79776 0.18213
 H1002 H 0.07304 0.73507 0.18251
 H1003 H 0.11331 0.80938 0.22060
 H1004 H 0.08657 0.80447 0.20398
 C1005 C 0.27633 0.11298 0.22498
 C1006 C 0.28426 0.13094 0.21741
 C1007 C 0.27191 0.14766 0.21450
 C1008 C 0.25164 0.14690 0.21911
 C1009 C 0.24384 0.12913 0.22669
 C1010 C 0.25596 0.11238 0.22957
 C1011 C 0.29005 0.09548 0.22786
 C1012 C 0.28363 0.07689 0.23512
 C1013 C 0.29702 0.06112 0.23772
 C1014 C 0.31717 0.06339 0.23317
 C1015 C 0.32369 0.08179 0.22578
 C1016 C 0.31034 0.09776 0.22309
 C1017 C 0.30447 0.13218 0.21289
 C1018 C 0.31723 0.11597 0.21571
 H1019 H 0.31055 0.14594 0.20713
 H1020 H 0.33276 0.11773 0.21204
 H1021 H 0.27818 0.16140 0.20895
 H1022 H 0.22822 0.12806 0.23016
 H1023 H 0.29152 0.04699 0.24312
 H1024 H 0.33926 0.08381 0.22242
 H1025 H 0.24904 0.09917 0.23541
 H1026 H 0.26836 0.07416 0.23885
 C1027 C 0.78050 0.62081 0.73042
 C1028 C 0.77530 0.62652 0.71047
 C1029 C 0.76243 0.64277 0.70716
 C1030 C 0.75422 0.65326 0.72346
 C1031 C 0.75907 0.64735 0.74320
 C1032 C 0.77208 0.63140 0.74668
 C1033 C 0.79453 0.60355 0.73328
 C1034 C 0.80144 0.59732 0.75242
 C1035 C 0.81435 0.58105 0.75430
 C1036 C 0.82068 0.57042 0.73721
 C1037 C 0.81403 0.57667 0.71805
 C1038 C 0.80124 0.59318 0.71596
 C1039 C 0.78274 0.61583 0.69396
 C1040 C 0.79525 0.59940 0.69665
 H1041 H 0.77867 0.62012 0.67869
 H1042 H 0.80045 0.59153 0.68338
 H1043 H 0.75845 0.64703 0.69186
 H1044 H 0.75298 0.65528 0.75601
 H1045 H 0.81957 0.57693 0.76924
 H1046 H 0.81862 0.56855 0.70470
 H1047 H 0.77522 0.62757 0.76220
 H1048 H 0.79723 0.60489 0.76612
 C1049 C 0.77848 0.37801 0.76612
 C1050 C 0.78505 0.36177 0.77807
 C1051 C 0.77248 0.34552 0.78149
 C1052 C 0.75330 0.34479 0.77282
 C1053 C 0.74717 0.36089 0.76053
 C1054 C 0.75946 0.37719 0.75730
 C1055 C 0.79218 0.39527 0.76322
 C1056 C 0.78662 0.41262 0.75254
 C1057 C 0.79991 0.42827 0.75025
 C1058 C 0.81916 0.42709 0.75841
 C1059 C 0.82479 0.40990 0.76918
 C1060 C 0.81144 0.39416 0.77181
 C1061 C 0.80424 0.36170 0.78637
 C1062 C 0.81721 0.37744 0.78313
 H1063 H 0.80938 0.34921 0.79542
 H1064 H 0.83193 0.37660 0.78979
 H1065 H 0.77808 0.33323 0.79047
 H1066 H 0.73258 0.36145 0.75372
 H1067 H 0.79495 0.44151 0.74229
 H1068 H 0.83965 0.40866 0.77544
 H1069 H 0.75372 0.38896 0.74780
 H1070 H 0.77202 0.41454 0.74604
 C1071 C 0.27599 -0.12555 0.26448
 C1072 C 0.28243 -0.14203 0.27614
 C1073 C 0.26951 -0.15792 0.27986
 C1074 C 0.25003 -0.15802 0.27187
 C1075 C 0.24398 -0.14167 0.25989
 C1076 C 0.25666 -0.12574 0.25631
 C1077 C 0.29011 -0.10869 0.26126
 C1078 C 0.28484 -0.09119 0.25068
 C1079 C 0.29849 -0.07586 0.24824
 C1080 C 0.31780 -0.07753 0.25616
 C1081 C 0.32319 -0.09492 0.26670
 C1082 C 0.30951 -0.11034 0.26945
 C1083 C 0.30181 -0.14269 0.28393
 C1084 C 0.31510 -0.12727 0.28052
 H1085 H 0.30683 -0.15537 0.29277
 H1086 H 0.32993 -0.12854 0.28684
 H1087 H 0.27506 -0.17040 0.28857
 H1088 H 0.22920 -0.14065 0.25357
 H1089 H 0.29374 -0.06247 0.24041
 H1090 H 0.33811 -0.09653 0.27273
 H1091 H 0.25097 -0.11372 0.24710
 H1092 H 0.27021 -0.08890 0.24439
 C1093 C 0.22179 -0.11911 0.71970
 C1094 C 0.24090 -0.11849 0.72860
 C1095 C 0.25425 -0.13444 0.72595
 C1096 C 0.24919 -0.15115 0.71407
 C1097 C 0.23027 -0.15129 0.70483
 C1098 C 0.21681 -0.13564 0.70765
 C1099 C 0.20780 -0.10199 0.72333
 C1100 C 0.18805 -0.10170 0.71619
 C1101 C 0.17561 -0.08542 0.72005
 C1102 C 0.18249 -0.06891 0.73102
 C1103 C 0.20215 -0.06911 0.73823
 C1104 C 0.21469 -0.08553 0.73471
 C1105 C 0.24672 -0.10184 0.73991
 C1106 C 0.23399 -0.08563 0.74270
 H1107 H 0.26142 -0.10126 0.74662
 H1108 H 0.23926 -0.07306 0.75148
 H1109 H 0.26884 -0.13334 0.73274
 H1110 H 0.22536 -0.16375 0.69578
 H1111 H 0.16042 -0.08595 0.71467
 H1112 H 0.20780 -0.05640 0.74653
 H1113 H 0.20258 -0.13681 0.70019
 H1114 H 0.18181 -0.11397 0.70784
 C1115 C 0.71537 0.37615 0.22730
 C1116 C 0.73444 0.37643 0.23637
 C1117 C 0.74786 0.36069 0.23305
 C1118 C 0.74257 0.34431 0.22097
 C1119 C 0.72347 0.34387 0.21239
 C1120 C 0.71006 0.35953 0.21545
 C1121 C 0.70171 0.39357 0.23074
 C1122 C 0.68280 0.39523 0.22164
 C1123 C 0.67080 0.41193 0.22507
 C1124 C 0.67724 0.42741 0.23774
 C1125 C 0.69600 0.42580 0.24700
 C1126 C 0.70829 0.40921 0.24345
 C1127 C 0.74005 0.39242 0.24872
 C1128 C 0.72720 0.40836 0.25233
 H1129 H 0.75462 0.39259 0.25577
 H1130 H 0.73225 0.42035 0.26203
 H1131 H 0.76258 0.36143 0.23965
 H1132 H 0.71873 0.33130 0.20338
 H1133 H 0.65656 0.41289 0.21744
 H1134 H 0.70108 0.43747 0.25707
 H1135 H 0.69562 0.35826 0.20848
 H1136 H 0.67708 0.38396 0.21159
 C1137 C 0.72068 0.62307 0.27342
 C1138 C 0.71322 0.64002 0.28371
 C1139 C 0.72549 0.65654 0.28717
 C1140 C 0.74523 0.65651 0.28056
 C1141 C 0.75257 0.63965 0.27044
 C1142 C 0.74053 0.62317 0.26691
 C1143 C 0.70708 0.60579 0.26994
 C1144 C 0.71301 0.58832 0.25973
 C1145 C 0.69978 0.57267 0.25681
 C1146 C 0.68029 0.57394 0.26399
 C1147 C 0.67423 0.59125 0.27424
 C1148 C 0.68741 0.60713 0.27721
 C1149 C 0.69358 0.64042 0.29046
 C1150 C 0.68097 0.62433 0.28731
 H1151 H 0.68786 0.65339 0.29834
 H1152 H 0.66591 0.62538 0.29285
 H1153 H 0.71954 0.66955 0.29478
 H1154 H 0.76782 0.63904 0.26547
 H1155 H 0.70492 0.55937 0.24911
 H1156 H 0.65913 0.59248 0.27964
 H1157 H 0.74712 0.61069 0.25912
 H1158 H 0.72776 0.58637 0.25386
 C1159 C 0.22486 0.12158 0.77322
 C1160 C 0.21813 0.13771 0.78517
 C1161 C 0.23051 0.15411 0.78881
 C1162 C 0.24962 0.15514 0.78031
 C1163 C 0.25590 0.13915 0.76801
 C1164 C 0.24381 0.12268 0.76459
 C1165 C 0.21134 0.10418 0.77001
 C1166 C 0.21708 0.08692 0.75935
 C1167 C 0.20388 0.07123 0.75655
 C1168 C 0.18454 0.07228 0.76420
 C1169 C 0.17878 0.08930 0.77514
 C1170 C 0.19204 0.10509 0.77825
 C1171 C 0.19896 0.13752 0.79321
 C1172 C 0.18613 0.12168 0.78963
 H1173 H 0.19371 0.14992 0.80227
 H1174 H 0.17139 0.12236 0.79603
 H1175 H 0.22479 0.16630 0.79779
 H1176 H 0.27045 0.13883 0.76132
 H1177 H 0.20897 0.05810 0.74854
 H1178 H 0.16387 0.09042 0.78105
 H1179 H 0.24964 0.11102 0.75507
 H1180 H 0.23174 0.08511 0.75319
 C1181 C 0.23087 0.27486 0.12279
 C1182 C 0.22155 0.28206 0.14049
 C1183 C 0.21800 0.26912 0.15671
 C1184 C 0.22358 0.24894 0.15566
 C1185 C 0.23282 0.24188 0.13810
 C1186 C 0.23643 0.25460 0.12190
 C1187 C 0.23430 0.28915 0.10577
 C1188 C 0.24345 0.28350 0.08754
 C1189 C 0.24614 0.29733 0.07208
 C1190 C 0.23980 0.31716 0.07433
 C1191 C 0.23079 0.32298 0.09248
 C1192 C 0.22801 0.30919 0.10814
 C1193 C 0.21581 0.30211 0.14190
 C1194 C 0.21895 0.31538 0.12608
 H1195 H 0.20869 0.30764 0.15545
 H1196 H 0.21416 0.33072 0.12791
 H1197 H 0.21109 0.27483 0.17027
 H1198 H 0.23701 0.22634 0.13671
 H1199 H 0.25290 0.29237 0.05815
 H1200 H 0.22608 0.33833 0.09450
 H1201 H 0.24349 0.24820 0.10883
 H1202 H 0.24856 0.26848 0.08482
 C1203 C 0.72491 0.77831 0.62390
 C1204 C 0.74158 0.77079 0.63467
 C1205 C 0.73898 0.75724 0.65059
 C1206 C 0.71990 0.75149 0.65640
 C1207 C 0.70341 0.75918 0.64592
 C1208 C 0.70582 0.77233 0.62984
 C1209 C 0.72830 0.79266 0.60695
 C1210 C 0.71283 0.80013 0.59464
 C1211 C 0.71669 0.81368 0.57922
 C1212 C 0.73605 0.82031 0.57567
 C1213 C 0.75163 0.81271 0.58770
 C1214 C 0.74793 0.79884 0.60308
 C1215 C 0.76069 0.77715 0.62977
 C1216 C 0.76377 0.79105 0.61448
 H1217 H 0.77346 0.77149 0.63807
 H1218 H 0.77883 0.79566 0.61145
 H1219 H 0.75176 0.75161 0.65889
 H1220 H 0.68857 0.75486 0.65012
 H1221 H 0.70443 0.81876 0.56986
 H1222 H 0.76666 0.81773 0.58525
 H1223 H 0.69255 0.77778 0.62247
 H1224 H 0.69765 0.79558 0.59648
 C1225 C 0.77163 0.77816 0.38445
 C1226 C 0.78018 0.78585 0.36665
 C1227 C 0.78308 0.77344 0.34983
 C1228 C 0.77753 0.75333 0.35031
 C1229 C 0.76897 0.74577 0.36793
 C1230 C 0.76606 0.75795 0.38478
 C1231 C 0.76881 0.79195 0.40210
 C1232 C 0.76056 0.78578 0.42054
 C1233 C 0.75812 0.79923 0.43645
 C1234 C 0.76384 0.81918 0.43446
 C1235 C 0.77219 0.82545 0.41620
 C1236 C 0.77471 0.81205 0.40009
 C1237 C 0.78574 0.80589 0.36569
 C1238 C 0.78304 0.81871 0.38203
 H1239 H 0.79227 0.81179 0.35205
 H1240 H 0.78756 0.83410 0.38049
 H1241 H 0.78940 0.77956 0.33620
 H1242 H 0.76476 0.73026 0.36881
 H1243 H 0.75191 0.79392 0.45047
 H1244 H 0.77644 0.84089 0.41439
 H1245 H 0.75947 0.75122 0.39787
 H1246 H 0.75591 0.77065 0.42305
 C1247 C 0.27078 0.28010 -0.12000
 C1248 C 0.29054 0.27465 -0.12473
 C1249 C 0.29436 0.26165 -0.14090
 C1250 C 0.27875 0.25356 -0.15230
 C1251 C 0.25917 0.25867 -0.14736
 C1252 C 0.25519 0.27180 -0.13149
 C1253 C 0.26737 0.29425 -0.10277
 C1254 C 0.24839 0.30133 -0.09741
 C1255 C 0.24598 0.31435 -0.08112
 C1256 C 0.26237 0.32064 -0.06965
 C1257 C 0.28137 0.31382 -0.07502
 C1258 C 0.28399 0.30089 -0.09151
 C1259 C 0.30636 0.28201 -0.11317
 C1260 C 0.30314 0.29469 -0.09680
 H1261 H 0.32148 0.27777 -0.11672
 H1262 H 0.31588 0.29983 -0.08824
 H1263 H 0.30952 0.25748 -0.14439
 H1264 H 0.24689 0.25269 -0.15601
 H1265 H 0.23119 0.31969 -0.07767
 H1266 H 0.29418 0.31836 -0.06621
 H1267 H 0.23984 0.27514 -0.12844
 H1268 H 0.23521 0.29715 -0.10566
 C1269 C 0.73150 0.21948 -0.12889
 C1270 C 0.71172 0.22505 -0.13371
 C1271 C 0.70782 0.23818 -0.14979
 C1272 C 0.72339 0.24627 -0.16099
 C1273 C 0.74297 0.24097 -0.15601
 C1274 C 0.74702 0.22772 -0.14024
 C1275 C 0.73501 0.20533 -0.11167
 C1276 C 0.75402 0.19823 -0.10619
 C1277 C 0.75657 0.18539 -0.08979
 C1278 C 0.74028 0.17928 -0.07832
 C1279 C 0.72122 0.18598 -0.08391
 C1280 C 0.71847 0.19878 -0.10050
 C1281 C 0.69598 0.21772 -0.12228
 C1282 C 0.69929 0.20503 -0.10593
 H1283 H 0.68084 0.22204 -0.12591
 H1284 H 0.68661 0.19995 -0.09745
 H1285 H 0.69266 0.24248 -0.15331
 H1286 H 0.75522 0.24692 -0.16453
 H1287 H 0.77138 0.18010 -0.08617
 H1288 H 0.70850 0.18152 -0.07514
 H1289 H 0.76239 0.22427 -0.13714
 H1290 H 0.76713 0.20231 -0.11438
 C1291 C 0.22845 0.71901 0.37233
 C1292 C 0.20873 0.72479 0.36752
 C1293 C 0.20487 0.73715 0.35082
 C1294 C 0.22044 0.74427 0.33896
 C1295 C 0.23997 0.73876 0.34389
 C1296 C 0.24397 0.72624 0.36028
 C1297 C 0.23191 0.70568 0.39022
 C1298 C 0.25083 0.69841 0.39580
 C1299 C 0.25328 0.68612 0.41266
 C1300 C 0.23698 0.68079 0.42451
 C1301 C 0.21805 0.68789 0.41899
 C1302 C 0.21538 0.70007 0.40193
 C1303 C 0.19300 0.71846 0.37956
 C1304 C 0.19627 0.70652 0.39649
 H1305 H 0.17791 0.72296 0.37595
 H1306 H 0.18360 0.70216 0.40540
 H1307 H 0.18976 0.74166 0.34733
 H1308 H 0.25220 0.74401 0.33489
 H1309 H 0.26800 0.68054 0.41623
 H1310 H 0.20533 0.68409 0.42809
 H1311 H 0.25930 0.72257 0.36331
 H1312 H 0.26393 0.70185 0.38728
 C1313 C 0.27688 0.72022 0.62122
 C1314 C 0.27056 0.74027 0.61906
 C1315 C 0.27364 0.75396 0.63481
 C1316 C 0.28302 0.74805 0.65287
 C1317 C 0.28931 0.72818 0.65496
 C1318 C 0.28629 0.71443 0.63940
 C1319 C 0.27332 0.70609 0.60398
 C1320 C 0.27900 0.68584 0.60458
 C1321 C 0.27542 0.67334 0.58810
 C1322 C 0.26608 0.68063 0.57057
 C1323 C 0.26031 0.70076 0.56984
 C1324 C 0.26384 0.71348 0.58632
 C1325 C 0.26125 0.74661 0.60117
 C1326 C 0.25798 0.73351 0.58516
 H1327 H 0.25642 0.76197 0.59951
 H1328 H 0.25073 0.73917 0.57164
 H1329 H 0.26899 0.76933 0.63288
 H1330 H 0.29636 0.72316 0.66880
 H1331 H 0.27979 0.65781 0.58918
 H1332 H 0.25332 0.70664 0.55627
 H1333 H 0.29141 0.69939 0.64198
 H1334 H 0.28618 0.67931 0.61762
 C1335 C 0.77646 0.22693 0.11538
 C1336 C 0.78567 0.21935 0.13310
 C1337 C 0.78861 0.23179 0.14992
 C1338 C 0.78235 0.25178 0.14952
 C1339 C 0.77329 0.25927 0.13193
 C1340 C 0.77040 0.24708 0.11507
 C1341 C 0.77339 0.21306 0.09784
 C1342 C 0.76444 0.21911 0.07951
 C1343 C 0.76169 0.20555 0.06374
 C1344 C 0.76778 0.18561 0.06575
 C1345 C 0.77684 0.17948 0.08390
 C1346 C 0.77970 0.19298 0.09986
 C1347 C 0.79170 0.19935 0.13405
 C1348 C 0.78874 0.18645 0.11781
 H1349 H 0.79874 0.19354 0.14761
 H1350 H 0.79360 0.17109 0.11934
 H1351 H 0.79536 0.22576 0.16352
 H1352 H 0.76855 0.27469 0.13113
 H1353 H 0.75496 0.21078 0.04979
 H1354 H 0.78139 0.16405 0.08575
 H1355 H 0.76334 0.25373 0.10204
 H1356 H 0.75947 0.23421 0.07699
 C1357 C 0.47242 0.37139 0.53030
 C1358 C 0.47925 0.37007 0.51016
 C1359 C 0.47684 0.38632 0.49697
 C1360 C 0.46760 0.40400 0.50346
 C1361 C 0.46087 0.40524 0.52342
 C1362 C 0.46323 0.38923 0.53667
 C1363 C 0.47526 0.35371 0.54390
 C1364 C 0.46906 0.35354 0.56419
 C1365 C 0.47208 0.33673 0.57625
 C1366 C 0.48134 0.31960 0.56848
 C1367 C 0.48756 0.31960 0.54828
 C1368 C 0.48462 0.33645 0.53600
 C1369 C 0.48838 0.35254 0.50328
 C1370 C 0.49099 0.33610 0.51591
 H1371 H 0.49360 0.35150 0.48787
 H1372 H 0.49815 0.32289 0.50985
 H1373 H 0.48189 0.38508 0.48151
 H1374 H 0.45397 0.41878 0.52894
 H1375 H 0.46741 0.33727 0.59186
 H1376 H 0.49453 0.30638 0.54202
 H1377 H 0.45776 0.39119 0.55181
 H1378 H 0.46192 0.36622 0.57111
 C1379 C -0.02930 0.86611 0.02098
 C1380 C -0.04073 0.88259 0.02757
 C1381 C -0.04339 0.89927 0.01500
 C1382 C -0.03436 0.90026 -0.00414
 C1383 C -0.02286 0.88377 -0.01042
 C1384 C -0.02044 0.86700 0.00183
 C1385 C -0.02676 0.84863 0.03490
 C1386 C -0.01635 0.83117 0.02946
 C1387 C -0.01397 0.81552 0.04316
 C1388 C -0.02181 0.81682 0.06270
 C1389 C -0.03255 0.83401 0.06812
 C1390 C -0.03520 0.84976 0.05438
 C1391 C -0.04910 0.88256 0.04688
 C1392 C -0.04623 0.86660 0.06007
 H1393 H -0.05780 0.89522 0.05201
 H1394 H -0.05281 0.86744 0.07493
 H1395 H -0.05189 0.91176 0.02070
 H1396 H -0.01594 0.88339 -0.02508
 H1397 H -0.00606 0.80226 0.03833
 H1398 H -0.03858 0.83534 0.08319
 H1399 H -0.01142 0.85499 -0.00397
 H1400 H -0.01000 0.82921 0.01468
 C1401 C 0.01703 0.62592 0.02913
 C1402 C 0.02962 0.61046 0.03621
 C1403 C 0.03348 0.59375 0.02399
 C1404 C 0.02460 0.59173 0.00472
 C1405 C 0.01175 0.60710 -0.00194
 C1406 C 0.00810 0.62388 0.00997
 C1407 C 0.01353 0.64364 0.04252
 C1408 C 0.00210 0.66028 0.03645
 C1409 C -0.00087 0.67633 0.04954
 C1410 C 0.00734 0.67626 0.06909
 C1411 C 0.01896 0.65983 0.07519
 C1412 C 0.02225 0.64370 0.06204
 C1413 C 0.03808 0.61158 0.05558
 C1414 C 0.03430 0.62773 0.06829
 H1415 H 0.04764 0.59969 0.06109
 H1416 H 0.04107 0.62779 0.08320
 H1417 H 0.04293 0.58206 0.03001
 H1418 H 0.00476 0.60665 -0.01666
 H1419 H -0.00945 0.68898 0.04417
 H1420 H 0.02531 0.65946 0.09028
 H1421 H -0.00185 0.63503 0.00386
 H1422 H -0.00451 0.66134 0.02161
 C1423 C 0.51778 0.12347 0.53057
 C1424 C 0.53735 0.11908 0.52423
 C1425 C 0.54101 0.10267 0.51155
 C1426 C 0.52536 0.09079 0.50458
 C1427 C 0.50596 0.09537 0.51059
 C1428 C 0.50218 0.11141 0.52346
 C1429 C 0.51452 0.14098 0.54430
 C1430 C 0.49583 0.14597 0.55231
 C1431 C 0.49353 0.16254 0.56487
 C1432 C 0.50973 0.17471 0.56973
 C1433 C 0.52847 0.16971 0.56197
 C1434 C 0.53101 0.15291 0.54955
 C1435 C 0.55309 0.13126 0.53030
 C1436 C 0.54995 0.14794 0.54249
 H1437 H 0.56805 0.12798 0.52537
 H1438 H 0.56260 0.15700 0.54659
 H1439 H 0.55600 0.09941 0.50666
 H1440 H 0.49367 0.08633 0.50546
 H1441 H 0.47899 0.16566 0.57101
 H1442 H 0.54112 0.17902 0.56541
 H1443 H 0.48694 0.11418 0.52748
 H1444 H 0.48282 0.13719 0.54927
 C1445 C -0.02744 0.13116 0.46835
 C1446 C -0.02137 0.13296 0.48879
 C1447 C -0.02457 0.11727 0.50238
 C1448 C -0.03377 0.09963 0.49598
 C1449 C -0.03979 0.09791 0.47572
 C1450 C -0.03669 0.11340 0.46208
 C1451 C -0.02373 0.14826 0.45432
 C1452 C -0.02919 0.14795 0.43373
 C1453 C -0.02544 0.16426 0.42131
 C1454 C -0.01615 0.18132 0.42901
 C1455 C -0.01060 0.18177 0.44949
 C1456 C -0.01432 0.16545 0.46214
 C1457 C -0.01217 0.15041 0.49558
 C1458 C -0.00872 0.16629 0.48255
 H1459 H -0.00754 0.15181 0.51123
 H1460 H -0.00154 0.17945 0.48855
 H1461 H -0.02009 0.11891 0.51804
 H1462 H -0.04665 0.08439 0.47027
 H1463 H -0.02963 0.16340 0.40550
 H1464 H -0.00363 0.19497 0.45566
 H1465 H -0.04159 0.11109 0.44673
 H1466 H -0.03632 0.13530 0.42686
 C1467 C 0.47088 0.63080 0.97061
 C1468 C 0.48023 0.63056 0.98979
 C1469 C 0.47726 0.61454 1.00305
 C1470 C 0.46460 0.59865 0.99784
 C1471 C 0.45494 0.59939 0.97888
 C1472 C 0.45807 0.61509 0.96550
 C1473 C 0.47484 0.64794 0.95671
 C1474 C 0.46727 0.64895 0.93684
 C1475 C 0.47134 0.66526 0.92451
 C1476 C 0.48296 0.68110 0.93163
 C1477 C 0.49070 0.68012 0.95138
 C1478 C 0.48694 0.66364 0.96381
 C1479 C 0.49231 0.64644 0.99579
 C1480 C 0.49539 0.66273 0.98318
 H1481 H 0.49938 0.64637 1.01055
 H1482 H 0.50474 0.67470 0.98861
 H1483 H 0.48443 0.61498 1.01771
 H1484 H 0.44529 0.58758 0.97387
 H1485 H 0.46557 0.66528 0.90920
 H1486 H 0.49956 0.69228 0.95721
 H1487 H 0.45024 0.61462 0.95125
 H1488 H 0.45838 0.63723 0.93039
 C1489 C 0.53074 0.87497 0.96903
 C1490 C 0.52509 0.87345 0.98952
 C1491 C 0.52841 0.88939 1.00287
 C1492 C 0.53731 0.90702 0.99618
 C1493 C 0.54292 0.90846 0.97587
 C1494 C 0.53971 0.89271 0.96247
 C1495 C 0.52688 0.85760 0.95527
 C1496 C 0.53193 0.85758 0.93464
 C1497 C 0.52802 0.84104 0.92247
 C1498 C 0.51896 0.82407 0.93047
 C1499 C 0.51387 0.82393 0.95100
 C1500 C 0.51776 0.84048 0.96339
 C1501 C 0.51617 0.85605 0.99661
 C1502 C 0.51258 0.83993 0.98383
 H1503 H 0.51186 0.85487 1.01230
 H1504 H 0.50562 0.82682 0.99006
 H1505 H 0.52426 0.88795 1.01857
 H1506 H 0.54957 0.92195 0.97022
 H1507 H 0.53186 0.84165 0.90663
 H1508 H 0.50711 0.81080 0.95742
 H1509 H 0.54429 0.89480 0.94706
 H1510 H 0.53886 0.87017 0.92756
 C1511 C 0.02919 0.37423 0.46663
 C1512 C 0.02320 0.37248 0.48700
 C1513 C 0.02621 0.38831 0.50057
 C1514 C 0.03518 0.40602 0.49422
 C1515 C 0.04111 0.40769 0.47403
 C1516 C 0.03817 0.39207 0.46041
 C1517 C 0.02567 0.35698 0.45262
 C1518 C 0.03106 0.35720 0.43208
 C1519 C 0.02741 0.34078 0.41966
 C1520 C 0.01830 0.32368 0.42732
 C1521 C 0.01292 0.32329 0.44776
 C1522 C 0.01651 0.33972 0.46040
 C1523 C 0.01426 0.35495 0.49374
 C1524 C 0.01099 0.33894 0.48074
 H1525 H 0.00969 0.35359 0.50934
 H1526 H 0.00400 0.32573 0.48671
 H1527 H 0.02181 0.38671 0.51618
 H1528 H 0.04779 0.42127 0.46862
 H1529 H 0.03149 0.34158 0.40389
 H1530 H 0.00612 0.31006 0.45393
 H1531 H 0.04300 0.39434 0.44510
 H1532 H 0.03803 0.36990 0.42525
 C1533 C 0.37337 0.53193 0.47421
 C1534 C 0.37136 0.51165 0.47963
 C1535 C 0.38728 0.49829 0.47700
 C1536 C 0.40534 0.50477 0.46900
 C1537 C 0.40731 0.52491 0.46376
 C1538 C 0.39160 0.53832 0.46631
 C1539 C 0.35597 0.54568 0.47711
 C1540 C 0.35636 0.56606 0.47199
 C1541 C 0.33976 0.57823 0.47495
 C1542 C 0.32231 0.57047 0.48311
 C1543 C 0.32174 0.55020 0.48825
 C1544 C 0.33834 0.53780 0.48529
 C1545 C 0.35349 0.50479 0.48761
 C1546 C 0.33735 0.51758 0.49040
 H1547 H 0.35194 0.48927 0.49177
 H1548 H 0.32386 0.51154 0.49664
 H1549 H 0.38548 0.48274 0.48088
 H1550 H 0.42115 0.53042 0.45788
 H1551 H 0.34068 0.59387 0.47109
 H1552 H 0.30824 0.54399 0.49432
 H1553 H 0.39411 0.55358 0.46204
 H1554 H 0.36932 0.57295 0.46571
 C1555 C 0.87737 0.03247 -0.02590
 C1556 C 0.87673 0.01327 -0.01718
 C1557 C 0.89250 -0.00025 -0.02000
 C1558 C 0.90903 0.00474 -0.03189
 C1559 C 0.90937 0.02391 -0.04059
 C1560 C 0.89391 0.03752 -0.03761
 C1561 C 0.86019 0.04642 -0.02258
 C1562 C 0.85967 0.06608 -0.03004
 C1563 C 0.84317 0.07834 -0.02687
 C1564 C 0.82668 0.07140 -0.01623
 C1565 C 0.82719 0.05192 -0.00848
 C1566 C 0.84378 0.03951 -0.01144
 C1567 C 0.86019 0.00748 -0.00599
 C1568 C 0.84401 0.02025 -0.00332
 H1569 H 0.85964 -0.00726 0.00065
 H1570 H 0.83150 0.01496 0.00529
 H1571 H 0.89129 -0.01493 -0.01345
 H1572 H 0.92178 0.02883 -0.04946
 H1573 H 0.84344 0.09344 -0.03262
 H1574 H 0.81451 0.04627 -0.00038
 H1575 H 0.89521 0.05188 -0.04474
 H1576 H 0.87186 0.07234 -0.03828
 C1577 C 0.63451 0.03094 0.02594
 C1578 C 0.62404 0.02328 0.00904
 C1579 C 0.60796 0.01041 0.01187
 C1580 C 0.60177 0.00534 0.03137
 C1581 C 0.61188 0.01327 0.04808
 C1582 C 0.62806 0.02584 0.04546
 C1583 C 0.65180 0.04437 0.02226
 C1584 C 0.66382 0.05191 0.03796
 C1585 C 0.67964 0.06451 0.03377
 C1586 C 0.68392 0.07005 0.01384
 C1587 C 0.67217 0.06239 -0.00194
 C1588 C 0.65635 0.04951 0.00209
 C1589 C 0.62952 0.02869 -0.01056
 C1590 C 0.64518 0.04168 -0.01395
 H1591 H 0.62145 0.02292 -0.02350
 H1592 H 0.64870 0.04553 -0.02940
 H1593 H 0.59998 0.00463 -0.00112
 H1594 H 0.60743 0.00949 0.06327
 H1595 H 0.68872 0.06972 0.04623
 H1596 H 0.67516 0.06663 -0.01740
 H1597 H 0.63521 0.03146 0.05891
 H1598 H 0.66140 0.04815 0.05357
 C1599 C 0.12922 0.53187 0.52396
 C1600 C 0.12953 0.51292 0.51462
 C1601 C 0.11374 0.49967 0.51736
 C1602 C 0.09755 0.50467 0.52984
 C1603 C 0.09769 0.52346 0.53941
 C1604 C 0.11315 0.53682 0.53647
 C1605 C 0.14621 0.54570 0.52037
 C1606 C 0.14674 0.56530 0.52800
 C1607 C 0.16297 0.57753 0.52439
 C1608 C 0.17922 0.57059 0.51318
 C1609 C 0.17871 0.55114 0.50532
 C1610 C 0.16232 0.53880 0.50862
 C1611 C 0.14578 0.50712 0.50283
 C1612 C 0.16191 0.51969 0.50010
 H1613 H 0.14612 0.49255 0.49577
 H1614 H 0.17418 0.51441 0.49101
 H1615 H 0.11459 0.48519 0.51024
 H1616 H 0.08559 0.52834 0.54886
 H1617 H 0.16265 0.59262 0.53021
 H1618 H 0.19118 0.54546 0.49676
 H1619 H 0.11222 0.55091 0.54426
 H1620 H 0.13470 0.57159 0.53660
 C1621 C 0.12655 0.47005 -0.01549
 C1622 C 0.11081 0.46301 -0.02772
 C1623 C 0.09402 0.47506 -0.03129
 C1624 C 0.09219 0.49415 -0.02248
 C1625 C 0.10774 0.50069 -0.00979
 C1626 C 0.12461 0.48894 -0.00643
 C1627 C 0.14447 0.45694 -0.01253
 C1628 C 0.16146 0.46307 -0.00174
 C1629 C 0.17776 0.45030 0.00059
 C1630 C 0.17759 0.43101 -0.00764
 C1631 C 0.16076 0.42484 -0.01855
 C1632 C 0.14440 0.43767 -0.02125
 C1633 C 0.11179 0.44387 -0.03616
 C1634 C 0.12810 0.43139 -0.03279
 H1635 H 0.09967 0.43837 -0.04541
 H1636 H 0.12806 0.41667 -0.03955
 H1637 H 0.08215 0.46910 -0.04051
 H1638 H 0.10738 0.51523 -0.00279
 H1639 H 0.19068 0.45572 0.00864
 H1640 H 0.16028 0.40994 -0.02487
 H1641 H 0.13593 0.49495 0.00337
 H1642 H 0.16261 0.47774 0.00481
 C1643 C 0.62592 0.96829 0.47650
 C1644 C 0.62566 0.98760 0.48507
 C1645 C 0.60918 1.00025 0.48210
 C1646 C 0.59280 0.99425 0.47020
 C1647 C 0.59353 0.97512 0.46135
 C1648 C 0.60970 0.96239 0.46449
 C1649 C 0.64361 0.95510 0.48038
 C1650 C 0.64476 0.93524 0.47352
 C1651 C 0.66159 0.92360 0.47739
 C1652 C 0.67784 0.93138 0.48810
 C1653 C 0.67672 0.95110 0.49521
 C1654 C 0.65973 0.96288 0.49162
 C1655 C 0.64199 0.99430 0.49635
 C1656 C 0.65873 0.98230 0.49935
 H1657 H 0.64190 1.00915 0.50282
 H1658 H 0.67102 0.98826 0.50805
 H1659 H 0.60958 1.01501 0.48864
 H1660 H 0.58138 0.96947 0.45236
 H1661 H 0.66174 0.90830 0.47218
 H1662 H 0.68917 0.95741 0.50339
 H1663 H 0.60917 0.94798 0.45728
 H1664 H 0.63277 0.92830 0.46534
 C1665 C 0.86869 0.97687 0.52579
 C1666 C 0.88638 0.96943 0.53475
 C1667 C 0.90271 0.98204 0.53763
 C1668 C 0.90180 1.00209 0.53161
 C1669 C 0.88422 1.00940 0.52278
 C1670 C 0.86790 0.99704 0.51990
 C1671 C 0.85163 0.96289 0.52288
 C1672 C 0.83340 0.96883 0.51413
 C1673 C 0.81804 0.95522 0.51157
 C1674 C 0.82036 0.93532 0.51766
 C1675 C 0.83841 0.92927 0.52653
 C1676 C 0.85399 0.94285 0.52916
 C1677 C 0.88773 0.94943 0.54070
 C1678 C 0.87189 0.93643 0.53795
 H1679 H 0.90126 0.94372 0.54756
 H1680 H 0.87371 0.92109 0.54277
 H1681 H 0.91628 0.97615 0.54424
 H1682 H 0.88297 1.02486 0.51828
 H1683 H 0.80417 0.96038 0.50499
 H1684 H 0.84045 0.91388 0.53111
 H1685 H 0.85486 1.00361 0.51306
 H1686 H 0.83064 0.98389 0.50915
 C1687 C 0.36734 0.47601 0.02567
 C1688 C 0.38515 0.46848 0.03431
 C1689 C 0.40141 0.48114 0.03739
 C1690 C 0.40033 0.50131 0.03187
 C1691 C 0.38266 0.50871 0.02331
 C1692 C 0.36639 0.49630 0.02026
 C1693 C 0.35035 0.46199 0.02258
 C1694 C 0.33198 0.46801 0.01419
 C1695 C 0.31667 0.45436 0.01148
 C1696 C 0.31920 0.43432 0.01703
 C1697 C 0.33740 0.42819 0.02550
 C1698 C 0.35291 0.44181 0.02831
 C1699 C 0.38669 0.44835 0.03973
 C1700 C 0.37093 0.43530 0.03676
 H1701 H 0.40032 0.44257 0.04633
 H1702 H 0.37291 0.41986 0.04117
 H1703 H 0.41506 0.47518 0.04377
 H1704 H 0.38130 0.52426 0.01918
 H1705 H 0.30268 0.45958 0.00523
 H1706 H 0.33962 0.41270 0.02964
 H1707 H 0.35326 0.50294 0.01364
 H1708 H 0.32905 0.48318 0.00966
 C1709 C 0.53318 0.48107 0.37639
 C1710 C 0.52936 0.46112 0.38204
 C1711 C 0.51617 0.45707 0.39783
 C1712 C 0.50645 0.47263 0.40802
 C1713 C 0.51042 0.49237 0.40251
 C1714 C 0.52360 0.49657 0.38698
 C1715 C 0.54701 0.48476 0.35917
 C1716 C 0.55173 0.50403 0.35234
 C1717 C 0.56428 0.50666 0.33592
 C1718 C 0.57253 0.49022 0.32583
 C1719 C 0.56817 0.47096 0.33270
 C1720 C 0.55553 0.46812 0.34921
 C1721 C 0.53849 0.44533 0.37173
 C1722 C 0.55125 0.44876 0.35565
 H1723 H 0.53559 0.43006 0.37604
 H1724 H 0.55781 0.43602 0.34806
 H1725 H 0.51305 0.44176 0.40183
 H1726 H 0.50337 0.50466 0.41034
 H1727 H 0.56767 0.52169 0.33117
 H1728 H 0.57428 0.45811 0.32491
 H1729 H 0.52593 0.51205 0.38346
 H1730 H 0.54588 0.51728 0.35940
 C1731 C 0.03080 -0.02667 0.86878
 C1732 C 0.02443 -0.01025 0.88058
 C1733 C 0.01114 -0.01311 0.89654
 C1734 C 0.00435 -0.03224 0.90128
 C1735 C 0.01095 -0.04853 0.88981
 C1736 C 0.02394 -0.04583 0.87375
 C1737 C 0.04478 -0.02293 0.85170
 C1738 C 0.05123 -0.03807 0.83847
 C1739 C 0.06433 -0.03386 0.82285
 C1740 C 0.07149 -0.01449 0.82000
 C1741 C 0.06500 0.00074 0.83301
 C1742 C 0.05163 -0.00329 0.84863
 C1743 C 0.03154 0.00889 0.87657
 C1744 C 0.04500 0.01226 0.86107
 H1745 H 0.02676 0.02145 0.88566
 H1746 H 0.05016 0.02732 0.85869
 H1747 H 0.00638 -0.00050 0.90557
 H1748 H 0.00582 -0.06341 0.89313
 H1749 H 0.06864 -0.04584 0.81278
 H1750 H 0.07050 0.01575 0.83113
 H1751 H 0.02847 -0.05895 0.86553
 H1752 H 0.04620 -0.05323 0.83974
 C1753 C 0.02742 0.03103 0.62980
 C1754 C 0.02015 0.01432 0.61904
 C1755 C 0.00672 0.01700 0.60292
 C1756 C 0.00079 0.03619 0.59691
 C1757 C 0.00831 0.05273 0.60731
 C1758 C 0.02137 0.05024 0.62359
 C1759 C 0.04154 0.02751 0.64707
 C1760 C 0.04872 0.04300 0.65946
 C1761 C 0.06204 0.03899 0.67520
 C1762 C 0.06873 0.01948 0.67901
 C1763 C 0.06144 0.00391 0.66690
 C1764 C 0.04779 0.00774 0.65120
 C1765 C 0.02659 -0.00492 0.62419
 C1766 C 0.04030 -0.00812 0.63975
 H1767 H 0.02112 -0.01771 0.61589
 H1768 H 0.04497 -0.02328 0.64298
 H1769 H 0.00125 0.00418 0.59468
 H1770 H 0.00387 0.06766 0.60295
 H1771 H 0.06693 0.05126 0.68458
 H1772 H 0.06653 -0.01123 0.66951
 H1773 H 0.02666 0.06354 0.63093
 H1774 H 0.04409 0.05828 0.65741
 C1775 C 0.52891 0.52656 0.12751
 C1776 C 0.50900 0.52034 0.12951
 C1777 C 0.49530 0.52362 0.11372
 C1778 C 0.50108 0.53310 0.09583
 C1779 C 0.52085 0.53913 0.09387
 C1780 C 0.53459 0.53592 0.10943
 C1781 C 0.54302 0.52298 0.14480
 C1782 C 0.56307 0.52877 0.14438
 C1783 C 0.57554 0.52534 0.16096
 C1784 C 0.56843 0.51604 0.17840
 C1785 C 0.54853 0.51008 0.17893
 C1786 C 0.53582 0.51351 0.16235
 C1787 C 0.50284 0.51099 0.14727
 C1788 C 0.51595 0.50764 0.16332
 H1789 H 0.48761 0.50621 0.14881
 H1790 H 0.51043 0.50038 0.17674
 H1791 H 0.48003 0.51910 0.11553
 H1792 H 0.52582 0.54616 0.08013
 H1793 H 0.59090 0.52984 0.16005
 H1794 H 0.54281 0.50309 0.19242
 H1795 H 0.54953 0.54089 0.10693
 H1796 H 0.56946 0.53597 0.13146
 C1797 C 0.47674 -0.02192 0.12831
 C1798 C 0.48245 -0.04152 0.12277
 C1799 C 0.49573 -0.04461 0.10681
 C1800 C 0.50385 -0.02842 0.09646
 C1801 C 0.49860 -0.00901 0.10230
 C1802 C 0.48519 -0.00575 0.11795
 C1803 C 0.46210 -0.01930 0.14509
 C1804 C 0.45454 -0.00055 0.15095
 C1805 C 0.44091 0.00110 0.16664
 C1806 C 0.43448 -0.01586 0.17705
 C1807 C 0.44188 -0.03463 0.17124
 C1808 C 0.45537 -0.03648 0.15527
 C1809 C 0.47503 -0.05791 0.13330
 C1810 C 0.46197 -0.05543 0.14934
 H1811 H 0.47950 -0.07291 0.12916
 H1812 H 0.45676 -0.06860 0.15708
 H1813 H 0.50003 -0.05964 0.10263
 H1814 H 0.50464 0.00370 0.09448
 H1815 H 0.43515 0.01573 0.17042
 H1816 H 0.43726 -0.04786 0.17923
 H1817 H 0.48171 0.00951 0.12172
 H1818 H 0.45875 0.01302 0.14347
 C1819 C 0.97602 0.47640 0.62866
 C1820 C 0.96870 0.46750 0.61071
 C1821 C 0.98137 0.46434 0.59423
 C1822 C 1.00134 0.47006 0.59524
 C1823 C 1.00854 0.47883 0.61306
 C1824 C 0.99612 0.48196 0.62954
 C1825 C 0.96199 0.47961 0.64587
 C1826 C 0.96781 0.48827 0.66438
 C1827 C 0.95417 0.49102 0.67990
 C1828 C 0.93434 0.48525 0.67745
 C1829 C 0.92839 0.47655 0.65909
 C1830 C 0.94200 0.47369 0.64337
 C1831 C 0.94876 0.46192 0.60925
 C1832 C 0.93570 0.46497 0.62521
 H1833 H 0.94314 0.45512 0.59551
 H1834 H 0.92041 0.46042 0.62329
 H1835 H 0.97558 0.45777 0.58046
 H1836 H 1.02394 0.48311 0.61437
 H1837 H 0.95925 0.49746 0.69401
 H1838 H 0.91306 0.47224 0.65692
 H1839 H 1.00260 0.48875 0.64277
 H1840 H 0.98282 0.49297 0.66726
 C1841 C 0.97127 0.51579 0.87249
 C1842 C 0.96329 0.52498 0.88993
 C1843 C 0.97536 0.52826 0.90697
 C1844 C 0.99542 0.52247 0.90706
 C1845 C 1.00324 0.51318 0.88985
 C1846 C 0.99139 0.50988 0.87279
 C1847 C 0.95791 0.51281 0.85451
 C1848 C 0.96445 0.50411 0.83632
 C1849 C 0.95144 0.50176 0.81999
 C1850 C 0.93158 0.50798 0.82129
 C1851 C 0.92492 0.51664 0.83935
 C1852 C 0.93788 0.51913 0.85586
 C1853 C 0.94332 0.53086 0.89028
 C1854 C 0.93088 0.52795 0.87365
 H1855 H 0.93719 0.53785 0.90365
 H1856 H 0.91554 0.53279 0.87469
 H1857 H 0.96907 0.53515 0.92030
 H1858 H 1.01869 0.50875 0.88941
 H1859 H 0.95707 0.49531 0.80614
 H1860 H 0.90954 0.52128 0.84065
 H1861 H 0.99831 0.50277 0.86002
 H1862 H 0.97954 0.49912 0.83430
 C1863 C 0.46401 0.01520 0.37529
 C1864 C 0.48426 0.00975 0.37359
 C1865 C 0.49741 0.01302 0.38979
 C1866 C 0.49078 0.02178 0.40781
 C1867 C 0.47069 0.02705 0.40950
 C1868 C 0.45746 0.02380 0.39352
 C1869 C 0.45054 0.01176 0.35749
 C1870 C 0.43020 0.01678 0.35755
 C1871 C 0.41837 0.01361 0.34046
 C1872 C 0.42644 0.00533 0.32285
 C1873 C 0.44663 0.00009 0.32269
 C1874 C 0.45868 0.00325 0.33978
 C1875 C 0.49134 0.00125 0.35568
 C1876 C 0.47884 -0.00192 0.33914
 H1877 H 0.50684 -0.00294 0.35438
 H1878 H 0.48507 -0.00846 0.32560
 H1879 H 0.51294 0.00914 0.38818
 H1880 H 0.46512 0.03358 0.42331
 H1881 H 0.40277 0.01752 0.34110
 H1882 H 0.45309 -0.00610 0.30909
 H1883 H 0.44223 0.02819 0.39578
 H1884 H 0.42310 0.02320 0.37059
   
