data_POSCAR
  _audit_creation_date              2014-09-24
  _audit_creation_method            'ToBaCCo'
  _symmetry_space_group_name_H-M    'P1'
  _symmetry_Int_Tables_number       1
  _symmetry_cell_setting            triclinic
  loop_
  _symmetry_equiv_pos_as_xyz
 x,y,z
_cell_length_a 70.4407
_cell_length_b 70.2627
_cell_length_c 71.5206
_cell_angle_alpha 89.996200
_cell_angle_beta 90.092600
_cell_angle_gamma 89.753700
loop_
  _atom_site_label
  _atom_site_type_symbol
  _atom_site_fract_x
  _atom_site_fract_y
  _atom_site_fract_z
C1 C 0.40948 0.01314 0.27455
 H2 H 0.41044 0.02460 0.26449
 C3 C 0.42064 0.01353 0.29077
 H4 H 0.43003 0.02544 0.29316
 C5 C 0.39572 -0.01604 0.28386
 H6 H 0.38592 -0.02750 0.28130
 C7 C 0.40655 -0.01621 0.30021
 H8 H 0.40513 -0.02804 0.30980
 N9 N 0.39753 -0.00166 0.27125
 C10 C 0.39089 -0.00655 0.21061
 H11 H 0.37562 -0.00786 0.20972
 C12 C 0.40179 -0.00669 0.19431
 H13 H 0.39473 -0.00800 0.18092
 C14 C 0.41845 -0.00254 0.22917
 H15 H 0.42495 -0.00103 0.24277
 C16 C 0.42990 -0.00255 0.21321
 H17 H 0.44512 -0.00112 0.21475
 Zn18 Zn 0.38298 -0.00220 0.24875
 N19 N 0.39926 -0.00408 0.22758
 C20 C 0.37159 0.03274 0.23232
 N21 N 0.36859 0.02090 0.24709
 C22 C 0.35639 0.02588 0.26101
 C23 C 0.34651 0.04323 0.26027
 C24 C 0.36206 0.05015 0.23104
 C25 C 0.37614 -0.04123 0.24744
 C26 C 0.36605 -0.05824 0.24877
 C27 C 0.33723 -0.03995 0.25220
 C28 C 0.34799 -0.02327 0.25082
 N29 N 0.36714 -0.02419 0.24889
 H30 H 0.38162 0.02891 0.22157
 H31 H 0.35452 0.01647 0.27284
 H32 H 0.33710 0.04704 0.27163
 H33 H 0.36460 0.05917 0.21903
 H34 H 0.39137 -0.04161 0.24550
 H35 H 0.37414 -0.07116 0.24684
 H36 H 0.32225 -0.03811 0.25480
 H37 H 0.34100 -0.00959 0.25179
 C38 C 0.42157 -0.00440 0.19545
 C39 C 0.41930 -0.00134 0.30385
 C40 C 0.34611 -0.05816 0.25160
 C41 C 0.34938 0.05571 0.24516
 C42 C 0.09058 0.01417 0.72572
 H43 H 0.08973 0.02576 0.73564
 C44 C 0.07937 0.01453 0.70953
 H45 H 0.07007 0.02657 0.70701
 C46 C 0.10397 -0.01543 0.71680
 H47 H 0.11363 -0.02706 0.71950
 C48 C 0.09310 -0.01562 0.70048
 H49 H 0.09435 -0.02763 0.69107
 N50 N 0.10230 -0.00087 0.72924
 C51 C 0.10786 -0.00521 0.78999
 H52 H 0.12308 -0.00697 0.79117
 C53 C 0.09667 -0.00471 0.80609
 H54 H 0.10345 -0.00598 0.81963
 C55 C 0.08072 -0.00073 0.77087
 H56 H 0.07449 0.00069 0.75715
 C57 C 0.06900 -0.00008 0.78662
 H58 H 0.05384 0.00177 0.78478
 Zn59 Zn 0.11650 -0.00171 0.75193
 N60 N 0.09985 -0.00279 0.77284
 C61 C 0.12888 0.03283 0.76832
 N62 N 0.13159 0.02079 0.75364
 C63 C 0.14422 0.02506 0.73990
 C64 C 0.15501 0.04176 0.74086
 C65 C 0.13934 0.04959 0.76984
 C66 C 0.12216 -0.04101 0.75353
 C67 C 0.13185 -0.05834 0.75220
 C68 C 0.16119 -0.04103 0.74904
 C69 C 0.15091 -0.02397 0.75041
 N70 N 0.13168 -0.02426 0.75219
 H71 H 0.11838 0.02967 0.77882
 H72 H 0.14590 0.01551 0.72815
 H73 H 0.16515 0.04476 0.72991
 H74 H 0.13667 0.05901 0.78154
 H75 H 0.10689 -0.04087 0.75513
 H76 H 0.12390 -0.07146 0.75314
 H77 H 0.17641 -0.04049 0.74701
 H78 H 0.15829 -0.01056 0.74961
 C79 C 0.07698 -0.00182 0.80455
 C80 C 0.08047 -0.00059 0.69670
 C81 C 0.15161 -0.05855 0.74960
 C82 C 0.15268 0.05427 0.75605
 C83 C 0.59118 0.51398 0.22511
 H84 H 0.59014 0.52548 0.23512
 C85 C 0.58020 0.51442 0.20878
 H86 H 0.57087 0.52644 0.20623
 C87 C 0.60484 0.48452 0.21613
 H88 H 0.61452 0.47292 0.21887
 C89 C 0.59420 0.48442 0.19967
 H90 H 0.59564 0.47250 0.19017
 N91 N 0.60293 0.49897 0.22866
 C92 C 0.60796 0.49416 0.28941
 H93 H 0.62318 0.49247 0.29069
 C94 C 0.59664 0.49437 0.30542
 H95 H 0.60333 0.49296 0.31899
 C96 C 0.58095 0.49871 0.27013
 H97 H 0.57482 0.50027 0.25638
 C98 C 0.56909 0.49907 0.28579
 H99 H 0.55394 0.50086 0.28387
 Zn100 Zn 0.61691 0.49806 0.25149
 N101 N 0.60007 0.49674 0.27223
 C102 C 0.62884 0.53259 0.26818
 N103 N 0.63184 0.52064 0.25348
 C104 C 0.64457 0.52510 0.23989
 C105 C 0.65509 0.54195 0.24098
 C106 C 0.63904 0.54950 0.26983
 C107 C 0.62263 0.45880 0.25298
 C108 C 0.63232 0.44148 0.25174
 C109 C 0.66170 0.45878 0.24886
 C110 C 0.65140 0.47585 0.25014
 N111 N 0.63216 0.47555 0.25176
 H112 H 0.61827 0.52927 0.27856
 H113 H 0.64648 0.51560 0.22813
 H114 H 0.66529 0.54513 0.23012
 H115 H 0.63612 0.55886 0.28151
 H116 H 0.60734 0.45894 0.25446
 H117 H 0.62437 0.42836 0.25261
 H118 H 0.67693 0.45932 0.24698
 H119 H 0.65879 0.48927 0.24942
 C120 C 0.57694 0.49713 0.30376
 C121 C 0.58156 0.49942 0.19584
 C122 C 0.65211 0.44127 0.24933
 C123 C 0.65242 0.55442 0.25615
 C124 C 0.91102 0.51274 0.77406
 H125 H 0.91165 0.52441 0.76421
 C126 C 0.92242 0.51298 0.79011
 H127 H 0.93121 0.52534 0.79238
 C128 C 0.89775 0.48331 0.78304
 H129 H 0.88813 0.47172 0.78034
 C130 C 0.90881 0.48295 0.79923
 H131 H 0.90771 0.47051 0.80804
 N132 N 0.89921 0.49789 0.77065
 C133 C 0.89213 0.49339 0.71008
 H134 H 0.87686 0.49199 0.70929
 C135 C 0.90291 0.49332 0.69371
 H136 H 0.89577 0.49199 0.68037
 C137 C 0.91980 0.49751 0.72847
 H138 H 0.92638 0.49903 0.74202
 C139 C 0.93114 0.49758 0.71243
 H140 H 0.94636 0.49907 0.71387
 Zn141 Zn 0.88447 0.49750 0.74828
 N142 N 0.90060 0.49586 0.72700
 C143 C 0.87282 0.53248 0.73215
 N144 N 0.86998 0.52056 0.74688
 C145 C 0.85784 0.52542 0.76090
 C146 C 0.84787 0.54273 0.76029
 C147 C 0.86319 0.54985 0.73099
 C148 C 0.87785 0.45844 0.74639
 C149 C 0.86779 0.44139 0.74734
 C150 C 0.83893 0.45949 0.75166
 C151 C 0.84958 0.47627 0.75058
 N152 N 0.86875 0.47544 0.74831
 H153 H 0.88279 0.52875 0.72131
 H154 H 0.85609 0.51595 0.77270
 H155 H 0.83850 0.54644 0.77172
 H156 H 0.86560 0.55893 0.71901
 H157 H 0.89309 0.45815 0.74455
 H158 H 0.87549 0.42806 0.74633
 H159 H 0.82371 0.46043 0.75356
 H160 H 0.84252 0.48989 0.75182
 C161 C 0.92269 0.49569 0.69473
 C162 C 0.92161 0.49787 0.80316
 C163 C 0.84806 0.44171 0.75018
 C164 C 0.85056 0.55528 0.74521
 C165 C 0.22645 0.39410 0.98470
 H166 H 0.23694 0.39422 0.97368
 C167 C 0.20967 0.40465 0.98270
 H168 H 0.20741 0.41282 0.97005
 C169 C 0.21629 0.38242 1.01407
 H170 H 0.21871 0.37344 1.02610
 C171 C 0.19931 0.39272 1.01263
 H172 H 0.18906 0.39186 1.02385
 N173 N 0.22946 0.38325 1.00019
 C174 C 0.29080 0.37235 1.00214
 H175 H 0.29059 0.35696 1.00274
 C176 C 0.30806 0.38198 1.00333
 H177 H 0.32105 0.37384 1.00491
 C178 C 0.27393 0.40151 1.00026
 H179 H 0.26057 0.40907 0.99938
 C180 C 0.29092 0.41175 1.00145
 H181 H 0.29043 0.42714 1.00106
 Zn182 Zn 0.25153 0.36747 1.00077
 N183 N 0.27418 0.38214 1.00056
 C184 C 0.26413 0.35126 0.96627
 N185 N 0.25022 0.35138 0.97945
 C186 C 0.23434 0.34063 0.97737
 C187 C 0.23205 0.32902 0.96167
 C188 C 0.26242 0.33983 0.95035
 C189 C 0.25417 0.36217 1.03947
 C190 C 0.25616 0.35219 1.05626
 C191 C 0.25464 0.32275 1.03892
 C192 C 0.25263 0.33331 1.02244
 N193 N 0.25236 0.35267 1.02300
 H194 H 0.27643 0.36023 0.96791
 H195 H 0.22338 0.34115 0.98795
 H196 H 0.21937 0.32046 0.96041
 H197 H 0.27350 0.34020 0.93988
 H198 H 0.25433 0.37757 1.03950
 H199 H 0.25789 0.36008 1.06915
 H200 H 0.25469 0.30736 1.03818
 H201 H 0.25163 0.32598 1.00920
 C202 C 0.30832 0.40198 1.00306
 C203 C 0.19570 0.40391 0.99670
 C204 C 0.25648 0.33219 1.05614
 C205 C 0.24619 0.32854 0.94785
 C206 C 0.77288 0.10721 0.98465
 H207 H 0.76247 0.10659 0.97354
 C208 C 0.78993 0.09704 0.98303
 H209 H 0.79175 0.08815 0.97083
 C210 C 0.78237 0.11947 1.01395
 H211 H 0.77975 0.12878 1.02569
 C212 C 0.79957 0.10952 1.01297
 H213 H 0.80968 0.11184 1.02410
 N214 N 0.76944 0.11822 0.99990
 C215 C 0.70809 0.12959 1.00103
 H216 H 0.70851 0.14497 1.00163
 C217 C 0.69068 0.12021 1.00205
 H218 H 0.67780 0.12855 1.00349
 C219 C 0.72455 0.10019 0.99932
 H220 H 0.73782 0.09245 0.99854
 C221 C 0.70740 0.09020 1.00034
 H222 H 0.70766 0.07480 0.99994
 Zn223 Zn 0.74737 0.13402 0.99998
 N224 N 0.72458 0.11956 0.99963
 C225 C 0.73524 0.14983 0.96516
 N226 N 0.74899 0.14988 0.97853
 C227 C 0.76499 0.16045 0.97646
 C228 C 0.76760 0.17162 0.96050
 C229 C 0.73725 0.16083 0.94900
 C230 C 0.74446 0.13937 1.03852
 C231 C 0.74321 0.14926 1.05540
 C232 C 0.74590 0.17876 1.03830
 C233 C 0.74714 0.16828 1.02171
 N234 N 0.74659 0.14892 1.02213
 H235 H 0.72284 0.14100 0.96681
 H236 H 0.77584 0.16004 0.98718
 H237 H 0.78039 0.18000 0.95920
 H238 H 0.72630 0.16028 0.93837
 H239 H 0.74367 0.12399 1.03843
 H240 H 0.74136 0.14134 1.06825
 H241 H 0.74663 0.19413 1.03772
 H242 H 0.74843 0.17565 1.00852
 C243 C 0.69012 0.10023 1.00176
 C244 C 0.80391 0.09815 0.99721
 C245 C 0.74398 0.16923 1.05547
 C246 C 0.75364 0.17186 0.94645
 C247 C 0.27249 0.60761 0.48381
 H248 H 0.26202 0.60705 0.47275
 C249 C 0.28963 0.59761 0.48196
 H250 H 0.29217 0.58938 0.46941
 C251 C 0.28232 0.62000 0.51303
 H252 H 0.27970 0.62911 0.52491
 C253 C 0.29963 0.61027 0.51174
 H254 H 0.30986 0.61166 0.52296
 N255 N 0.26918 0.61860 0.49913
 C256 C 0.20776 0.62960 0.50089
 H257 H 0.20813 0.64497 0.50169
 C258 C 0.19039 0.62014 0.50181
 H259 H 0.17749 0.62840 0.50340
 C260 C 0.22434 0.60030 0.49869
 H261 H 0.23763 0.59262 0.49773
 C262 C 0.20723 0.59022 0.49959
 H263 H 0.20755 0.57483 0.49895
 Zn264 Zn 0.24701 0.63426 0.49952
 N265 N 0.22429 0.61966 0.49926
 C266 C 0.23438 0.65025 0.46494
 N267 N 0.24831 0.65026 0.47814
 C268 C 0.26421 0.66094 0.47596
 C269 C 0.26652 0.67231 0.46010
 C270 C 0.23610 0.66144 0.44887
 C271 C 0.24449 0.63948 0.53815
 C272 C 0.24336 0.64935 0.55506
 C273 C 0.24562 0.67888 0.53795
 C274 C 0.24675 0.66843 0.52134
 N275 N 0.24635 0.64907 0.52175
 H276 H 0.22206 0.64132 0.46666
 H277 H 0.27520 0.66051 0.48655
 H278 H 0.27924 0.68080 0.45873
 H279 H 0.22501 0.66095 0.43838
 H280 H 0.24382 0.62410 0.53806
 H281 H 0.24172 0.64141 0.56792
 H282 H 0.24624 0.69427 0.53737
 H283 H 0.24782 0.67583 0.50815
 C284 C 0.18991 0.60016 0.50119
 C285 C 0.30362 0.59908 0.49593
 C286 C 0.24398 0.66933 0.55514
 C287 C 0.25237 0.67263 0.44624
 C288 C 0.72401 0.89393 0.48576
 H289 H 0.73451 0.89425 0.47473
 C290 C 0.70715 0.90435 0.48386
 H291 H 0.70482 0.91263 0.47129
 C292 C 0.71396 0.88185 0.51500
 H293 H 0.71644 0.87275 0.52693
 C294 C 0.69689 0.89202 0.51366
 H295 H 0.68664 0.89095 0.52487
 N296 N 0.72711 0.88293 0.50113
 C297 C 0.78851 0.87241 0.50285
 H298 H 0.78839 0.85702 0.50328
 C299 C 0.80572 0.88213 0.50411
 H300 H 0.81876 0.87404 0.50557
 C301 C 0.77148 0.90150 0.50135
 H302 H 0.75807 0.90899 0.50058
 C303 C 0.78840 0.91181 0.50261
 H304 H 0.78783 0.92721 0.50240
 Zn305 Zn 0.74928 0.86731 0.50150
 N306 N 0.77184 0.88213 0.50143
 C307 C 0.76191 0.85165 0.46678
 N308 N 0.74805 0.85147 0.48000
 C309 C 0.73224 0.84063 0.47783
 C310 C 0.72997 0.82926 0.46196
 C311 C 0.76023 0.84046 0.45070
 C312 C 0.75202 0.86158 0.54013
 C313 C 0.75417 0.85143 0.55680
 C314 C 0.75291 0.82217 0.53914
 C315 C 0.75074 0.83290 0.52278
 N316 N 0.75026 0.85225 0.52357
 H317 H 0.77415 0.86070 0.46850
 H318 H 0.72132 0.84092 0.48844
 H319 H 0.71735 0.82062 0.46061
 H320 H 0.77127 0.84107 0.44020
 H321 H 0.75203 0.87697 0.54033
 H322 H 0.75586 0.85919 0.56977
 H323 H 0.75314 0.80679 0.53824
 H324 H 0.74978 0.82572 0.50947
 C325 C 0.80587 0.90212 0.50406
 C326 C 0.69319 0.90334 0.49784
 C327 C 0.75471 0.83143 0.55646
 C328 C 0.74406 0.82909 0.44808
 C329 C 0.01919 0.27452 0.38913
 H330 H 0.03212 0.26630 0.38760
 C331 C 0.01924 0.29134 0.39945
 H332 H 0.03233 0.29613 0.40583
 C333 C -0.01346 0.27863 0.38197
 H334 H -0.02611 0.27380 0.37490
 C335 C -0.01405 0.29551 0.39212
 H336 H -0.02729 0.30333 0.39308
 N337 N 0.00296 0.26848 0.38077
 C338 C 0.00751 0.20773 0.37268
 H339 H 0.00408 0.20702 0.35795
 C340 C 0.01007 0.19107 0.38287
 H341 H 0.00799 0.17774 0.37562
 C342 C 0.01258 0.22643 0.39975
 H343 H 0.01335 0.24026 0.40628
 C344 C 0.01514 0.21012 0.41057
 H345 H 0.01857 0.21194 0.42519
 Zn346 Zn 0.00392 0.24628 0.36624
 N347 N 0.00892 0.22492 0.38117
 C348 C 0.03696 0.23608 0.34664
 N349 N 0.02303 0.24941 0.34831
 C350 C 0.02325 0.26575 0.33812
 C351 C 0.03811 0.26930 0.32575
 C352 C 0.05188 0.23892 0.33429
 C353 C -0.03402 0.23703 0.36634
 C354 C -0.05212 0.23408 0.35915
 C355 C -0.04002 0.24110 0.32827
 C356 C -0.02210 0.24388 0.33608
 N357 N -0.01960 0.24216 0.35485
 H358 H 0.03684 0.22345 0.35520
 H359 H 0.01209 0.27621 0.33998
 H360 H 0.03839 0.28251 0.31795
 H361 H 0.06313 0.22839 0.33350
 H362 H -0.03145 0.23549 0.38119
 H363 H -0.06349 0.23012 0.36852
 H364 H -0.04199 0.24311 0.31338
 H365 H -0.01031 0.24767 0.32721
 C366 C 0.01382 0.19194 0.40225
 C367 C 0.00246 0.30207 0.40096
 C368 C -0.05532 0.23638 0.33992
 C369 C 0.05266 0.25577 0.32384
 C370 C 0.00978 0.72754 0.10250
 H371 H 0.02272 0.73577 0.10258
 C372 C 0.00843 0.71131 0.09142
 H373 H 0.02050 0.70698 0.08305
 C374 C -0.02132 0.72265 0.11420
 H375 H -0.03272 0.72690 0.12339
 C376 C -0.02328 0.70633 0.10335
 H377 H -0.03636 0.69831 0.10403
 N378 N -0.00498 0.73284 0.11356
 C379 C 0.00290 0.79254 0.12515
 H380 H 0.00275 0.79213 0.14027
 C381 C 0.00435 0.80986 0.11588
 H382 H 0.00556 0.82284 0.12395
 C383 C 0.00146 0.77596 0.09627
 H384 H -0.00007 0.76274 0.08874
 C385 C 0.00289 0.79300 0.08641
 H386 H 0.00244 0.79277 0.07128
 Zn387 Zn -0.00132 0.75381 0.12927
 N388 N 0.00160 0.77608 0.11528
 C389 C 0.03597 0.76039 0.14093
 N390 N 0.02064 0.74897 0.14332
 C391 C 0.02151 0.73312 0.15422
 C392 C 0.03835 0.72833 0.16344
 C393 C 0.05304 0.75606 0.14972
 C394 C -0.03846 0.76335 0.13516
 C395 C -0.05547 0.76575 0.14467
 C396 C -0.03943 0.75687 0.17327
 C397 C -0.02266 0.75475 0.16311
 N398 N -0.02267 0.75747 0.14435
 H399 H 0.03518 0.77258 0.13179
 H400 H 0.00923 0.72401 0.15541
 H401 H 0.03900 0.71558 0.17192
 H402 H 0.06514 0.76529 0.14765
 H403 H -0.03782 0.76601 0.12028
 H404 H -0.06728 0.77118 0.13662
 H405 H -0.03877 0.75325 0.18793
 H406 H -0.00978 0.75047 0.17019
 C407 C 0.00427 0.81020 0.09627
 C408 C -0.00821 0.70040 0.09192
 C409 C -0.05660 0.76195 0.16409
 C410 C 0.05439 0.73979 0.16097
 C411 C 0.51082 0.22621 0.60549
 H412 H 0.52327 0.23515 0.60482
 C413 C 0.51013 0.20942 0.59522
 H414 H 0.52202 0.20558 0.58639
 C415 C 0.48026 0.22033 0.61807
 H416 H 0.46888 0.22442 0.62736
 C417 C 0.47896 0.20338 0.60803
 H418 H 0.46652 0.19453 0.60966
 N419 N 0.49601 0.23132 0.61656
 C420 C 0.50268 0.29180 0.62449
 H421 H 0.50264 0.29232 0.63961
 C422 C 0.50426 0.30850 0.61419
 H423 H 0.50524 0.32198 0.62147
 C424 C 0.50082 0.27350 0.59666
 H425 H 0.49923 0.25985 0.58993
 C426 C 0.50232 0.28989 0.58580
 H427 H 0.50218 0.28871 0.57070
 Zn428 Zn 0.49918 0.25332 0.63095
 N429 N 0.50127 0.27477 0.61562
 C430 C 0.53656 0.26147 0.64171
 N431 N 0.52150 0.24987 0.64481
 C432 C 0.52280 0.23459 0.65642
 C433 C 0.53983 0.23054 0.66560
 C434 C 0.55382 0.25790 0.65049
 C435 C 0.46160 0.26134 0.63752
 C436 C 0.44514 0.26452 0.64775
 C437 C 0.46325 0.26007 0.67620
 C438 C 0.47944 0.25703 0.66538
 N439 N 0.47819 0.25736 0.64641
 H440 H 0.53542 0.27318 0.63202
 H441 H 0.51070 0.22534 0.65821
 H442 H 0.54082 0.21818 0.67460
 H443 H 0.56570 0.26725 0.64786
 H444 H 0.46118 0.26177 0.62240
 H445 H 0.43191 0.26705 0.64040
 H446 H 0.46433 0.25960 0.69130
 H447 H 0.49291 0.25437 0.67213
 C448 C 0.50416 0.30763 0.59460
 C449 C 0.49410 0.19771 0.59655
 C450 C 0.44582 0.26372 0.66733
 C451 C 0.55563 0.24217 0.66243
 C452 C 0.52095 0.77525 0.88843
 H453 H 0.53371 0.76691 0.88631
 C454 C 0.52150 0.79161 0.89943
 H455 H 0.53473 0.79576 0.90596
 C456 C 0.48813 0.77994 0.88243
 H457 H 0.47525 0.77556 0.87551
 C458 C 0.48803 0.79635 0.89332
 H459 H 0.47501 0.80450 0.89463
 N460 N 0.50439 0.76966 0.88040
 C461 C 0.50736 0.70893 0.87171
 H462 H 0.50363 0.70829 0.85705
 C463 C 0.50976 0.69221 0.88187
 H464 H 0.50772 0.67865 0.87498
 C465 C 0.51357 0.72751 0.89872
 H466 H 0.51469 0.74129 0.90528
 C467 C 0.51606 0.71113 0.90944
 H468 H 0.51940 0.71243 0.92416
 Zn469 Zn 0.50464 0.74770 0.86553
 N470 N 0.50942 0.72609 0.88020
 C471 C 0.53713 0.73700 0.84533
 N472 N 0.52358 0.75065 0.84742
 C473 C 0.52421 0.76726 0.83766
 C474 C 0.53920 0.77079 0.82543
 C475 C 0.55216 0.73982 0.83310
 C476 C 0.46649 0.73922 0.86597
 C477 C 0.44830 0.73653 0.85889
 C478 C 0.46024 0.74362 0.82797
 C479 C 0.47825 0.74616 0.83566
 N480 N 0.48089 0.74422 0.85439
 H481 H 0.53666 0.72413 0.85353
 H482 H 0.51334 0.77795 0.83983
 H483 H 0.53985 0.78423 0.81805
 H484 H 0.56315 0.72905 0.83205
 H485 H 0.46917 0.73750 0.88077
 H486 H 0.43696 0.73260 0.86832
 H487 H 0.45818 0.74573 0.81310
 H488 H 0.49002 0.74986 0.82673
 C489 C 0.51409 0.69322 0.90100
 C490 C 0.50484 0.80232 0.90201
 C491 C 0.44499 0.73894 0.83970
 C492 C 0.55344 0.75698 0.82320
 C493 C -0.23562 0.66126 0.97637
 H494 H -0.22412 0.66218 0.98637
 C495 C -0.23566 0.67296 0.96051
 H496 H -0.22421 0.68297 0.95852
 C497 C -0.26457 0.64719 0.96692
 H498 H -0.27568 0.63693 0.96919
 C499 C -0.26518 0.65858 0.95095
 H500 H -0.27678 0.65684 0.94115
 N501 N -0.25012 0.64892 0.97946
 C502 C -0.25362 0.64024 1.03991
 H503 H -0.25505 0.62492 1.04022
 C504 C -0.25313 0.65048 1.05663
 H505 H -0.25500 0.64260 1.06947
 C506 C -0.25045 0.66855 1.02238
 H507 H -0.24930 0.67557 1.00901
 C508 C -0.24995 0.67941 1.03877
 H509 H -0.24783 0.69456 1.03732
 Zn510 Zn -0.25016 0.63366 1.00152
 N511 N -0.25173 0.64927 1.02324
 C512 C -0.21491 0.62219 1.01701
 N513 N -0.22701 0.61932 1.00243
 C514 C -0.22229 0.60725 0.98827
 C515 C -0.20498 0.59732 0.98862
 C516 C -0.19753 0.61261 1.01791
 C517 C -0.28904 0.62673 1.00303
 C518 C -0.30599 0.61660 1.00151
 C519 C -0.28772 0.58781 0.99714
 C520 C -0.27106 0.59853 0.99872
 N521 N -0.27202 0.61772 1.00122
 H522 H -0.21850 0.63214 1.02793
 H523 H -0.23190 0.60548 0.97658
 H524 H -0.20140 0.58797 0.97711
 H525 H -0.18832 0.61503 1.02980
 H526 H -0.28944 0.64197 1.00521
 H527 H -0.31934 0.62416 1.00287
 H528 H -0.28667 0.57265 0.99458
 H529 H -0.25742 0.59155 0.99755
 C530 C -0.25081 0.67046 1.05646
 C531 C -0.25072 0.67184 0.94763
 C532 C -0.30552 0.59690 0.99821
 C533 C -0.19227 0.60002 1.00358
 C534 C -0.23742 0.33992 0.52680
 H535 H -0.22578 0.33866 0.51701
 C536 C -0.23760 0.32924 0.54235
 H537 H -0.22565 0.31990 0.54491
 C538 C -0.26619 0.35566 0.53501
 H539 H -0.27730 0.36590 0.53230
 C540 C -0.26701 0.34428 0.55229
 H541 H -0.27943 0.34621 0.56094
 N542 N -0.25256 0.35314 0.52301
 C543 C -0.25644 0.35840 0.46223
 H544 H -0.25758 0.37371 0.46099
 C545 C -0.25611 0.34711 0.44618
 H546 H -0.25729 0.35385 0.43261
 C547 C -0.25348 0.33111 0.48149
 H548 H -0.25243 0.32490 0.49525
 C549 C -0.25314 0.31926 0.46577
 H550 H -0.25156 0.30405 0.46766
 Zn551 Zn -0.25279 0.36719 0.50019
 N552 N -0.25458 0.35035 0.47943
 C553 C -0.21758 0.37711 0.48397
 N554 N -0.22961 0.38124 0.49830
 C555 C -0.22475 0.39425 0.51157
 C556 C -0.20735 0.40385 0.51051
 C557 C -0.20014 0.38631 0.48240
 C558 C -0.29162 0.37397 0.49818
 C559 C -0.30875 0.38393 0.49934
 C560 C -0.29105 0.41304 0.50274
 C561 C -0.27419 0.40241 0.50154
 N562 N -0.27478 0.38317 0.49972
 H563 H -0.22126 0.36642 0.47380
 H564 H -0.23428 0.39701 0.52311
 H565 H -0.20365 0.41395 0.52133
 H566 H -0.19099 0.38286 0.47072
 H567 H -0.29173 0.35867 0.49642
 H568 H -0.32167 0.37588 0.49761
 H569 H -0.28981 0.42816 0.50516
 H570 H -0.26067 0.40955 0.50260
 C571 C -0.25406 0.32728 0.44780
 C572 C -0.25346 0.33114 0.55613
 C573 C -0.30890 0.40386 0.50208
 C574 C -0.19471 0.39983 0.49580
 C575 C 0.26258 -0.15919 0.02678
 H576 H 0.27435 -0.16049 0.01716
 C577 C 0.26219 -0.16975 0.04239
 H578 H 0.27412 -0.17905 0.04519
 C579 C 0.23365 -0.14345 0.03448
 H580 H 0.22254 -0.13328 0.03152
 C581 C 0.23261 -0.15471 0.05182
 H582 H 0.22006 -0.15275 0.06028
 N583 N 0.24746 -0.14603 0.02268
 C584 C 0.24346 -0.14131 -0.03813
 H585 H 0.24249 -0.12600 -0.03953
 C586 C 0.24304 -0.15282 -0.05403
 H587 H 0.24189 -0.14620 -0.06766
 C588 C 0.24673 -0.16837 -0.01862
 H589 H 0.24801 -0.17443 -0.00481
 C590 C 0.24644 -0.18042 -0.03417
 H591 H 0.24745 -0.19566 -0.03212
 Zn592 Zn 0.24747 -0.13216 -0.00024
 N593 N 0.24565 -0.14916 -0.02087
 C594 C 0.28259 -0.12189 -0.01659
 N595 N 0.27066 -0.11819 -0.00206
 C596 C 0.27554 -0.10547 0.01146
 C597 C 0.29282 -0.09569 0.01047
 C598 C 0.29991 -0.11245 -0.01814
 C599 C 0.20869 -0.12495 -0.00279
 C600 C 0.19169 -0.11471 -0.00204
 C601 C 0.20977 -0.08591 0.00189
 C602 C 0.22648 -0.09677 0.00099
 N603 N 0.22564 -0.11599 -0.00095
 H604 H 0.27890 -0.13244 -0.02691
 H605 H 0.26605 -0.10299 0.02309
 H606 H 0.29633 -0.08549 0.02126
 H607 H 0.30922 -0.11592 -0.02968
 H608 H 0.20838 -0.14027 -0.00423
 H609 H 0.17868 -0.12279 -0.00250
 H610 H 0.21117 -0.07065 0.00311
 H611 H 0.24008 -0.08982 0.00207
 C612 C 0.24477 -0.17266 -0.05220
 C613 C 0.24613 -0.16779 0.05593
 C614 C 0.19179 -0.09477 0.00061
 C615 C 0.30528 -0.09910 -0.00454
 C616 C 0.26174 1.16032 0.47550
 H617 H 0.27332 1.16171 0.48536
 C618 C 0.26153 1.17132 0.45916
 H619 H 0.27310 1.18104 0.45649
 C620 C 0.23289 1.14560 0.46676
 H621 H 0.22181 1.13545 0.46955
 C622 C 0.23213 1.15625 0.45031
 H623 H 0.22022 1.15436 0.44092
 N624 N 0.24739 1.14795 0.47913
 C625 C 0.24448 1.14090 0.53987
 H626 H 0.24313 1.12558 0.54054
 C627 C 0.24519 1.15153 0.55634
 H628 H 0.24407 1.14427 0.56965
 C629 C 0.24761 1.16884 0.52163
 H630 H 0.24862 1.17556 0.50810
 C631 C 0.24834 1.18005 0.53779
 H632 H 0.25014 1.19529 0.53647
 Zn633 Zn 0.24760 1.13338 0.50165
 N634 N 0.24623 1.14957 0.52297
 C635 C 0.28297 1.12232 0.51718
 N636 N 0.27075 1.11904 0.50277
 C637 C 0.27531 1.10650 0.48897
 C638 C 0.29254 1.09643 0.48955
 C639 C 0.30027 1.11262 0.51830
 C640 C 0.20875 1.12649 0.50377
 C641 C 0.19179 1.11634 0.50254
 C642 C 0.21002 1.08745 0.49862
 C643 C 0.22669 1.09819 0.49990
 N644 N 0.22575 1.11743 0.50201
 H645 H 0.27951 1.13265 0.52780
 H646 H 0.26562 1.10442 0.47740
 H647 H 0.29598 1.08667 0.47834
 H648 H 0.30955 1.11535 0.53007
 H649 H 0.20837 1.14176 0.50563
 H650 H 0.17845 1.12393 0.50382
 H651 H 0.21105 1.07225 0.49632
 H652 H 0.24031 1.09118 0.49876
 C653 C 0.24754 1.17135 0.55547
 C654 C 0.24653 1.16938 0.44631
 C655 C 0.19223 1.09658 0.49959
 C656 C 0.30534 1.09950 0.50437
 C657 C 0.14194 0.47433 0.26391
 H658 H 0.14233 0.48482 0.27498
 C659 C 0.15215 0.45731 0.26579
 H660 H 0.16034 0.45486 0.27839
 C661 C 0.12986 0.46444 0.23458
 H662 H 0.12083 0.46706 0.22262
 C663 C 0.13981 0.44722 0.23590
 H664 H 0.13866 0.43698 0.22465
 N665 N 0.13103 0.47757 0.24851
 C666 C 0.12069 0.53911 0.24700
 H667 H 0.10533 0.53899 0.24667
 C668 C 0.13038 0.55635 0.24564
 H669 H 0.12230 0.56946 0.24464
 C670 C 0.14971 0.52203 0.24860
 H671 H 0.15718 0.50859 0.24933
 C672 C 0.15999 0.53900 0.24729
 H673 H 0.17535 0.53840 0.24706
 Zn674 Zn 0.11555 0.49984 0.24823
 N675 N 0.13039 0.52240 0.24846
 C676 C 0.10055 0.51225 0.28318
 N677 N 0.09983 0.49857 0.26974
 C678 C 0.08884 0.48285 0.27189
 C679 C 0.07801 0.48040 0.28807
 C680 C 0.08996 0.51036 0.29958
 C681 C 0.11018 0.50318 0.20978
 C682 C 0.10036 0.50579 0.19301
 C683 C 0.07093 0.50374 0.21006
 C684 C 0.08141 0.50122 0.22653
 N685 N 0.10067 0.50099 0.22610
 H686 H 0.10962 0.52446 0.28140
 H687 H 0.08879 0.47202 0.26114
 H688 H 0.06971 0.46757 0.28967
 H689 H 0.09072 0.52142 0.31008
 H690 H 0.12554 0.50302 0.20983
 H691 H 0.10889 0.50656 0.18051
 H692 H 0.05572 0.50474 0.21157
 H693 H 0.07407 0.50004 0.23973
 C694 C 0.15032 0.55648 0.24562
 C695 C 0.15100 0.44336 0.25176
 C696 C 0.08022 0.50637 0.19264
 C697 C 0.07861 0.49418 0.30228
 C698 C -0.14199 1.02238 0.26687
 H699 H -0.14242 1.01169 0.27774
 C700 C -0.15229 1.03933 0.26894
 H701 H -0.16061 1.04151 0.28148
 C702 C -0.12970 1.03291 0.23788
 H703 H -0.12054 1.03059 0.22599
 C704 C -0.13973 1.05005 0.23939
 H705 H -0.13851 1.06051 0.22835
 N706 N -0.13093 1.01949 0.25154
 C707 C -0.11990 0.95806 0.24870
 H708 H -0.10455 0.95837 0.24823
 C709 C -0.12939 0.94071 0.24728
 H710 H -0.12118 0.92771 0.24607
 C711 C -0.14909 0.97475 0.25089
 H712 H -0.15671 0.98808 0.25193
 C713 C -0.15919 0.95766 0.24952
 H714 H -0.17455 0.95808 0.24955
 Zn715 Zn -0.11521 0.99738 0.25089
 N716 N -0.12977 0.97463 0.25053
 C717 C -0.10005 0.98420 0.28554
 N718 N -0.09958 0.99830 0.27252
 C719 C -0.08890 1.01416 0.27521
 C720 C -0.07812 1.01630 0.29149
 C721 C -0.08949 0.98576 0.30202
 C722 C -0.10962 0.99538 0.21236
 C723 C -0.09967 0.99422 0.19554
 C724 C -0.07036 0.99624 0.21292
 C725 C -0.08094 0.99740 0.22943
 N726 N -0.10022 0.99709 0.22885
 H727 H -0.10887 0.97186 0.28335
 H728 H -0.08905 1.02533 0.26479
 H729 H -0.07007 1.02923 0.29352
 H730 H -0.09003 0.97434 0.31217
 H731 H -0.12496 0.99466 0.21233
 H732 H -0.10788 0.99213 0.18294
 H733 H -0.05510 0.99723 0.21408
 H734 H -0.07368 0.99846 0.24270
 C735 C -0.14933 0.94032 0.24759
 C736 C -0.15106 1.05357 0.25519
 C737 C -0.07960 0.99465 0.19541
 C738 C -0.07845 1.00205 0.30527
 C739 C 0.35765 0.52286 -0.23318
 H740 H 0.35724 0.51220 -0.22227
 C741 C 0.34750 0.53989 -0.23107
 H742 H 0.33931 0.54217 -0.21847
 C743 C 0.36976 0.53319 -0.26231
 H744 H 0.37880 0.53077 -0.27427
 C745 C 0.35987 0.55041 -0.26076
 H746 H 0.36107 0.56083 -0.27185
 N747 N 0.36855 0.51983 -0.24860
 C748 C 0.37969 0.45737 -0.25129
 H749 H 0.39505 0.45762 -0.25148
 C750 C 0.37053 0.44079 -0.25260
 H751 H 0.37898 0.42793 -0.25318
 C752 C 0.35091 0.47509 -0.24891
 H753 H 0.34333 0.48845 -0.24799
 C754 C 0.34014 0.45708 -0.25019
 H755 H 0.32484 0.45821 -0.25048
 Zn756 Zn 0.38408 0.49758 -0.24930
 N757 N 0.36937 0.47493 -0.24942
 C758 C 0.39954 0.48439 -0.21477
 N759 N 0.39991 0.49848 -0.22780
 C760 C 0.41070 0.51429 -0.22528
 C761 C 0.42175 0.51637 -0.20917
 C762 C 0.41036 0.48590 -0.19845
 C763 C 0.38948 0.49553 -0.28792
 C764 C 0.39943 0.49431 -0.30474
 C765 C 0.42880 0.49592 -0.28736
 C766 C 0.41826 0.49716 -0.27083
 N767 N 0.39895 0.49709 -0.27141
 H768 H 0.39062 0.47211 -0.21683
 H769 H 0.41047 0.52544 -0.23571
 H770 H 0.42992 0.52925 -0.20727
 H771 H 0.40992 0.47449 -0.18828
 H772 H 0.37413 0.49511 -0.28796
 H773 H 0.39158 0.49287 -0.31769
 H774 H 0.44415 0.49623 -0.28663
 H775 H 0.42556 0.49798 -0.25756
 C776 C 0.34932 0.44022 -0.25222
 C777 C 0.34870 0.55407 -0.24488
 C778 C 0.41937 0.49452 -0.30463
 C779 C 0.42156 0.50212 -0.19539
 C780 C 0.64369 -0.02644 -0.23448
 H781 H 0.64430 -0.01591 -0.22345
 C782 C 0.65339 -0.04280 -0.23279
 H783 H 0.66135 -0.04510 -0.22006
 C784 C 0.63052 -0.03554 -0.26380
 H785 H 0.62109 -0.03307 -0.27547
 C786 C 0.64107 -0.05372 -0.26265
 H787 H 0.63985 -0.06324 -0.27444
 N788 N 0.63188 -0.02296 -0.25052
 C789 C 0.62100 0.03852 -0.25156
 H790 H 0.60564 0.03831 -0.25158
 C791 C 0.63055 0.05583 -0.25298
 H792 H 0.62201 0.06864 -0.25328
 C793 C 0.65007 0.02166 -0.25039
 H794 H 0.65762 0.00824 -0.24989
 C795 C 0.66026 0.03868 -0.25176
 H796 H 0.67555 0.03765 -0.25256
 Zn797 Zn 0.61617 -0.00083 -0.25046
 N798 N 0.63079 0.02188 -0.25030
 C799 C 0.60086 0.01131 -0.21544
 N800 N 0.60066 -0.00243 -0.22883
 C801 C 0.59007 -0.01843 -0.22674
 C802 C 0.57898 -0.02104 -0.21078
 C803 C 0.58995 0.00930 -0.19925
 C804 C 0.61006 0.00221 -0.28897
 C805 C 0.59979 0.00409 -0.30558
 C806 C 0.57075 0.00218 -0.28778
 C807 C 0.58160 0.00029 -0.27148
 N808 N 0.60090 0.00021 -0.27236
 H809 H 0.60971 0.02371 -0.21712
 H810 H 0.59034 -0.02925 -0.23750
 H811 H 0.57054 -0.03381 -0.20949
 H812 H 0.59057 0.02024 -0.18861
 H813 H 0.62541 0.00252 -0.28924
 H814 H 0.60739 0.00591 -0.31859
 H815 H 0.55542 0.00203 -0.28681
 H816 H 0.57456 -0.00087 -0.25812
 C817 C 0.65061 0.05633 -0.25330
 C818 C 0.65207 -0.05777 -0.24760
 C819 C 0.57984 0.00411 -0.30515
 C820 C 0.57885 -0.00708 -0.19671
 C821 C 0.02689 0.26404 0.85468
 H822 H 0.01829 0.27679 0.85361
 C823 C 0.04383 0.26265 0.84483
 H824 H 0.04814 0.27431 0.83591
 C825 C 0.03175 0.23343 0.86791
 H826 H 0.02720 0.22233 0.87731
 C827 C 0.04885 0.23144 0.85830
 H828 H 0.05735 0.21873 0.86035
 N829 N 0.02121 0.24956 0.86590
 C830 C -0.03889 0.25899 0.87265
 H831 H -0.03960 0.25945 0.88775
 C832 C -0.05539 0.26073 0.86208
 H833 H -0.06889 0.26234 0.86914
 C834 C -0.02037 0.25551 0.84516
 H835 H -0.00673 0.25317 0.83868
 C836 C -0.03655 0.25713 0.83402
 H837 H -0.03523 0.25631 0.81896
 Zn838 Zn -0.00082 0.25385 0.87981
 N839 N -0.02186 0.25663 0.86407
 C840 C -0.00765 0.29186 0.88965
 N841 N 0.00316 0.27625 0.89338
 C842 C 0.01812 0.27699 0.90540
 C843 C 0.02261 0.29400 0.91440
 C844 C -0.00360 0.30912 0.89821
 C845 C -0.01019 0.21666 0.88673
 C846 C -0.01432 0.20048 0.89709
 C847 C -0.01014 0.21885 0.92540
 C848 C -0.00613 0.23475 0.91444
 N849 N -0.00590 0.23323 0.89550
 H850 H -0.01909 0.29113 0.87963
 H851 H 0.02676 0.26443 0.90768
 H852 H 0.03469 0.29453 0.92377
 H853 H -0.01233 0.32144 0.89509
 H854 H -0.01016 0.21603 0.87161
 H855 H -0.01711 0.18724 0.88986
 H856 H -0.01012 0.22014 0.94049
 H857 H -0.00321 0.24824 0.92108
 C858 C -0.05430 0.25979 0.84252
 C859 C 0.05512 0.24627 0.84674
 C860 C -0.01418 0.20143 0.91668
 C861 C 0.01179 0.31034 0.91060
 C862 C 0.47546 0.26208 0.14546
 H863 H 0.48497 0.27413 0.14540
 C864 C 0.45952 0.26219 0.15692
 H865 H 0.45690 0.27433 0.16590
 C866 C 0.46735 0.23163 0.13362
 H867 H 0.47025 0.21996 0.12421
 C868 C 0.45122 0.23115 0.14486
 H869 H 0.44177 0.21907 0.14398
 N870 N 0.47909 0.24691 0.13422
 C871 C 0.53923 0.24971 0.12320
 H872 H 0.53903 0.24955 0.10808
 C873 C 0.55644 0.25029 0.13275
 H874 H 0.56957 0.25042 0.12490
 C875 C 0.52223 0.24917 0.15181
 H876 H 0.50888 0.24849 0.15916
 C877 C 0.53913 0.24972 0.16193
 H878 H 0.53863 0.24982 0.17706
 Zn879 Zn 0.50029 0.24870 0.11861
 N880 N 0.52262 0.24946 0.13281
 C881 C 0.51020 0.28552 0.10732
 N882 N 0.49750 0.27123 0.10487
 C883 C 0.48167 0.27360 0.09420
 C884 C 0.47813 0.29099 0.08543
 C885 C 0.50718 0.30310 0.09891
 C886 C 0.50605 0.21071 0.11196
 C887 C 0.50827 0.19403 0.10176
 C888 C 0.50274 0.21198 0.07338
 C889 C 0.50071 0.22841 0.08417
 N890 N 0.50217 0.22737 0.10311
 H891 H 0.52239 0.28356 0.11628
 H892 H 0.47159 0.26210 0.09291
 H893 H 0.46530 0.29287 0.07725
 H894 H 0.51739 0.31437 0.10107
 H895 H 0.50736 0.21045 0.12704
 H896 H 0.51097 0.18081 0.10909
 H897 H 0.50155 0.21290 0.05831
 H898 H 0.49809 0.24192 0.07743
 C899 C 0.55648 0.25041 0.15236
 C900 C 0.44713 0.24662 0.15662
 C901 C 0.50658 0.19455 0.08223
 C902 C 0.49086 0.30605 0.08803
 C903 C -0.02432 0.76106 0.64578
 H904 H -0.01487 0.77316 0.64604
 C905 C -0.03949 0.76068 0.65688
 H906 H -0.04160 0.77242 0.66643
 C907 C -0.03101 0.73038 0.63315
 H908 H -0.02796 0.71892 0.62355
 C909 C -0.04792 0.72929 0.64515
 H910 H -0.05696 0.71702 0.64342
 N911 N -0.02022 0.74533 0.63366
 C912 C 0.03969 0.75016 0.62219
 H913 H 0.03941 0.75039 0.60707
 C914 C 0.05694 0.75091 0.63168
 H915 H 0.07002 0.75157 0.62377
 C916 C 0.02288 0.74840 0.65086
 H917 H 0.00959 0.74715 0.65824
 C918 C 0.03981 0.74909 0.66091
 H919 H 0.03939 0.74874 0.67604
 Zn920 Zn 0.00073 0.74803 0.61784
 N921 N 0.02315 0.74920 0.63187
 C922 C 0.00937 0.78538 0.60723
 N923 N -0.00289 0.77074 0.60456
 C924 C -0.01885 0.77283 0.59403
 C925 C -0.02298 0.79028 0.58561
 C926 C 0.00575 0.80302 0.59918
 C927 C 0.00766 0.71038 0.61049
 C928 C 0.01014 0.69391 0.60001
 C929 C 0.00351 0.71208 0.57199
 C930 C 0.00125 0.72830 0.58305
 N931 N 0.00310 0.72704 0.60194
 H932 H 0.02167 0.78361 0.61608
 H933 H -0.02859 0.76105 0.59258
 H934 H -0.03590 0.79191 0.57752
 H935 H 0.01563 0.81456 0.60149
 H936 H 0.00926 0.70994 0.62553
 H937 H 0.01333 0.68066 0.60711
 H938 H 0.00194 0.71316 0.55697
 H939 H -0.00192 0.74182 0.57655
 C940 C 0.05708 0.75044 0.65128
 C941 C -0.05250 0.74397 0.65655
 C942 C 0.00799 0.69464 0.58053
 C943 C -0.01070 0.80567 0.58842
 C944 C 0.52464 0.76686 0.35281
 H945 H 0.51598 0.77961 0.35283
 C946 C 0.54131 0.76621 0.34239
 H947 H 0.54534 0.77847 0.33415
 C948 C 0.52999 0.73543 0.36383
 H949 H 0.52579 0.72368 0.37259
 C950 C 0.54677 0.73417 0.35363
 H951 H 0.55536 0.72139 0.35464
 N952 N 0.51933 0.75159 0.36318
 C953 C 0.45919 0.75859 0.37216
 H954 H 0.45888 0.75762 0.38725
 C955 C 0.44237 0.76075 0.36217
 H956 H 0.42902 0.76122 0.36965
 C957 C 0.47707 0.75840 0.34406
 H958 H 0.49060 0.75718 0.33710
 C959 C 0.46056 0.76051 0.33349
 H960 H 0.46152 0.76120 0.31840
 Zn961 Zn 0.49761 0.75431 0.37796
 N962 N 0.47605 0.75766 0.36303
 C963 C 0.48993 0.79120 0.39051
 N964 N 0.50137 0.77579 0.39300
 C965 C 0.51674 0.77638 0.40452
 C966 C 0.52112 0.79308 0.41413
 C967 C 0.49385 0.80815 0.39969
 C968 C 0.48902 0.71661 0.38200
 C969 C 0.48646 0.69923 0.39088
 C970 C 0.49274 0.71462 0.42051
 C971 C 0.49514 0.73179 0.41101
 N972 N 0.49368 0.73229 0.39206
 H973 H 0.47814 0.79065 0.38089
 H974 H 0.52588 0.76403 0.40579
 H975 H 0.53359 0.79358 0.42299
 H976 H 0.48470 0.82037 0.39744
 H977 H 0.48763 0.71760 0.36696
 H978 H 0.48293 0.68683 0.38261
 H979 H 0.49458 0.71421 0.43553
 H980 H 0.49844 0.74457 0.41872
 C981 C 0.44297 0.76174 0.34260
 C982 C 0.55264 0.74976 0.34286
 C983 C 0.48868 0.69803 0.41033
 C984 C 0.50975 0.80928 0.41143
 Zr985 Zr 0.01534 -0.01018 1.02512
 O986 O 0.03361 0.00037 1.04621
 O987 O 0.01359 -0.03904 1.03215
 O988 O 0.00277 -0.01203 1.05193
 O989 O 0.05051 -0.01454 0.99147
 O990 O -0.02649 0.00157 1.04792
 O991 O 0.04344 -0.02061 1.02206
 O992 O -0.00733 -0.05100 1.01075
 O993 O -0.01324 -0.01632 1.01972
 O994 O 0.01441 -0.02291 0.99870
 O995 O 0.00096 0.01608 1.02655
 O996 O 0.02788 0.00957 1.00667
 Zr997 Zr -0.01730 0.01720 0.97475
 Zr998 Zr -0.02731 0.00998 1.01973
 Zr999 Zr 0.02539 -0.00294 0.98015
 Zr1000 Zr -0.01403 -0.02803 0.99294
 O1001 O 0.04864 0.01447 0.97278
 O1002 O -0.03998 -0.03911 1.00316
 O1003 O -0.00287 -0.00915 0.97306
 O1004 O -0.02948 -0.00254 0.99325
 O1005 O -0.01649 0.03013 1.00112
 O1006 O 0.01124 0.02320 0.98028
 C1007 C 0.00369 -0.05251 1.02501
 C1008 C 0.05470 -0.02081 1.00786
 C1009 C -0.01364 -0.00659 1.05790
 O1010 O -0.05180 -0.00638 1.02531
 O1011 O -0.05134 0.02430 1.00910
 O1012 O -0.04476 0.02906 0.97819
 C1013 C -0.05553 0.03047 0.99268
 O1014 O 0.03255 0.03928 1.02838
 Zr1015 Zr 0.01210 0.03504 1.00691
 O1016 O -0.01615 0.04624 0.96818
 O1017 O -0.03304 0.03383 1.03692
 O1018 O 0.00070 0.05535 1.02579
 O1019 O 0.03656 0.04803 0.99540
 O1020 O 0.00255 0.05860 0.99127
 C1021 C -0.00817 0.06010 0.97680
 O1022 O -0.03656 0.00698 0.95435
 O1023 O 0.03260 -0.02760 0.96466
 O1024 O -0.00557 0.01711 0.94749
 O1025 O 0.02317 0.00238 0.95133
 O1026 O -0.00205 -0.04982 0.97610
 O1027 O -0.03157 -0.03308 0.96926
 C1028 C 0.01022 0.01024 0.94128
 H1029 H 0.02180 -0.03490 0.99801
 H1030 H -0.04286 -0.00514 0.98988
 H1031 H 0.01683 0.03198 0.97098
 H1032 H 0.00205 0.02173 1.03918
 H1033 H -0.04001 -0.05296 1.00054
 H1034 H -0.05947 0.00091 1.03448
 H1035 H -0.04546 0.03150 1.04298
 H1036 H 0.00729 0.06757 1.02354
 H1037 H -0.00918 -0.06167 0.97863
 H1038 H 0.04495 -0.02505 0.95855
 H1039 H 0.05635 0.00713 0.96370
 H1040 H 0.03600 0.06174 0.99862
 H1041 H -0.03651 -0.04624 0.96976
 H1042 H -0.04013 0.01793 0.94629
 H1043 H 0.03732 -0.01058 1.05420
 H1044 H 0.03538 0.05302 1.02950
 Zr1045 Zr 0.51371 0.48732 0.52420
 O1046 O 0.53193 0.49773 0.54540
 O1047 O 0.51165 0.45848 0.53126
 O1048 O 0.50095 0.48575 0.55094
 O1049 O 0.54905 0.48245 0.49076
 O1050 O 0.47191 0.49974 0.54673
 O1051 O 0.54176 0.47670 0.52137
 O1052 O 0.49071 0.44668 0.50979
 O1053 O 0.48507 0.48153 0.51869
 O1054 O 0.51277 0.47448 0.49784
 O1055 O 0.49966 0.51378 0.52542
 O1056 O 0.52658 0.50683 0.50572
 Zr1057 Zr 0.48168 0.51486 0.47353
 Zr1058 Zr 0.47135 0.50802 0.51849
 Zr1059 Zr 0.52409 0.49419 0.47924
 Zr1060 Zr 0.48429 0.46969 0.49195
 O1061 O 0.54760 0.51125 0.47185
 O1062 O 0.45820 0.45898 0.50220
 O1063 O 0.49579 0.48832 0.47204
 O1064 O 0.46915 0.49538 0.49207
 O1065 O 0.48251 0.52794 0.49982
 O1066 O 0.51027 0.52050 0.47919
 C1067 C 0.50171 0.44507 0.52406
 C1068 C 0.55311 0.47632 0.50724
 C1069 C 0.48460 0.49146 0.55681
 O1070 O 0.44661 0.49200 0.52401
 O1071 O 0.44757 0.52262 0.50768
 O1072 O 0.45441 0.52720 0.47680
 C1073 C 0.44357 0.52882 0.49122
 O1074 O 0.53135 0.53670 0.52744
 Zr1075 Zr 0.51113 0.53250 0.50575
 O1076 O 0.48345 0.54378 0.46666
 O1077 O 0.46583 0.53200 0.53557
 O1078 O 0.49965 0.55311 0.52426
 O1079 O 0.53599 0.54498 0.49451
 O1080 O 0.50232 0.55606 0.48966
 C1081 C 0.49179 0.55757 0.47505
 O1082 O 0.46234 0.50479 0.45315
 O1083 O 0.53105 0.46934 0.46395
 O1084 O 0.49354 0.51445 0.44633
 O1085 O 0.52209 0.49942 0.45039
 O1086 O 0.49603 0.44772 0.47518
 O1087 O 0.46671 0.46476 0.46827
 C1088 C 0.50928 0.50740 0.44023
 H1089 H 0.52004 0.46241 0.49723
 H1090 H 0.45575 0.49295 0.48865
 H1091 H 0.51607 0.52912 0.46988
 H1092 H 0.50075 0.51949 0.53803
 H1093 H 0.45800 0.44512 0.49964
 H1094 H 0.43899 0.49943 0.53311
 H1095 H 0.45334 0.52986 0.54155
 H1096 H 0.50637 0.56525 0.52197
 H1097 H 0.48873 0.43597 0.47771
 H1098 H 0.54346 0.47169 0.45788
 H1099 H 0.55525 0.50375 0.46284
 H1100 H 0.53564 0.55872 0.49763
 H1101 H 0.46158 0.45167 0.46885
 H1102 H 0.45897 0.51572 0.44499
 H1103 H 0.53547 0.48675 0.55343
 H1104 H 0.53419 0.55044 0.52858
 Zr1105 Zr 0.48456 1.01786 0.52425
 O1106 O 0.46625 1.00669 0.54494
 O1107 O 0.48617 1.04652 0.53206
 O1108 O 0.49703 1.01894 0.55121
 O1109 O 0.44950 1.02302 0.49046
 O1110 O 0.52640 1.00569 0.54698
 O1111 O 0.45642 1.02821 0.52126
 O1112 O 0.50708 1.05914 0.51109
 O1113 O 0.51314 1.02426 0.51920
 O1114 O 0.48552 1.03128 0.49817
 O1115 O 0.49906 0.99162 0.52510
 O1116 O 0.47218 0.99853 0.50522
 Zr1117 Zr 0.51745 0.99197 0.47339
 Zr1118 Zr 0.52731 0.99803 0.51861
 Zr1119 Zr 0.47469 1.01176 0.47903
 Zr1120 Zr 0.51395 1.03668 0.49272
 O1121 O 0.45143 0.99453 0.47121
 O1122 O 0.53982 1.04758 0.50339
 O1123 O 0.50292 1.01829 0.47226
 O1124 O 0.52953 1.01125 0.49247
 O1125 O 0.51662 0.97836 0.49942
 O1126 O 0.48894 0.98568 0.47863
 C1127 C 0.49601 1.06023 0.52532
 C1128 C 0.44521 1.02877 0.50699
 C1129 C 0.51345 1.01341 0.55713
 O1130 O 0.55177 1.01431 0.52462
 O1131 O 0.55129 0.98381 0.50782
 O1132 O 0.54485 0.97989 0.47674
 C1133 C 0.55549 0.97795 0.49130
 O1134 O 0.46753 0.96824 0.52612
 Zr1135 Zr 0.48806 0.97313 0.50493
 O1136 O 0.51654 0.96313 0.46611
 O1137 O 0.53309 0.97384 0.53535
 O1138 O 0.49950 0.95241 0.52340
 O1139 O 0.46374 0.96026 0.49292
 O1140 O 0.49788 0.95002 0.48877
 C1141 C 0.50867 0.94899 0.47433
 O1142 O 0.53667 1.00295 0.45342
 O1143 O 0.46757 1.03677 0.46403
 O1144 O 0.50565 0.99236 0.44612
 O1145 O 0.47685 1.00690 0.45013
 O1146 O 0.50194 1.05888 0.47638
 O1147 O 0.53156 1.04246 0.46930
 C1148 C 0.48976 0.99912 0.43999
 H1149 H 0.47808 1.04325 0.49774
 H1150 H 0.54292 1.01394 0.48925
 H1151 H 0.48340 0.97709 0.46913
 H1152 H 0.49795 0.98563 0.53757
 H1153 H 0.53979 1.06150 0.50116
 H1154 H 0.55945 1.00682 0.53365
 H1155 H 0.54551 0.97606 0.54150
 H1156 H 0.49300 0.94021 0.52079
 H1157 H 0.50901 1.07068 0.47928
 H1158 H 0.45523 1.03437 0.45780
 H1159 H 0.44372 1.00207 0.46225
 H1160 H 0.46440 0.94648 0.49580
 H1161 H 0.53643 1.05562 0.47019
 H1162 H 0.54036 0.99226 0.44510
 H1163 H 0.46248 1.01742 0.55318
 H1164 H 0.46480 0.95446 0.52691
 Zr1165 Zr -0.01229 0.51992 1.02207
 O1166 O -0.03059 0.50902 1.04292
 O1167 O -0.01077 0.54871 1.02946
 O1168 O 0.00015 0.52127 1.04902
 O1169 O -0.04738 0.52469 0.98824
 O1170 O 0.02949 0.50790 1.04498
 O1171 O -0.04046 0.53016 1.01900
 O1172 O 0.01008 0.56112 1.00831
 O1173 O 0.01628 0.52626 1.01697
 O1174 O -0.01133 0.53304 0.99584
 O1175 O 0.00217 0.49368 1.02319
 O1176 O -0.02468 0.50039 1.00325
 Zr1177 Zr 0.02059 0.49348 0.97150
 Zr1178 Zr 0.03044 0.50000 1.01666
 Zr1179 Zr -0.02217 0.51334 0.97692
 Zr1180 Zr 0.01711 0.53838 0.99035
 O1181 O -0.04543 0.49603 0.96926
 O1182 O 0.04291 0.54941 1.00107
 O1183 O 0.00607 0.51979 0.97008
 O1184 O 0.03268 0.51294 0.99038
 O1185 O 0.01975 0.48014 0.99766
 O1186 O -0.00793 0.48726 0.97680
 C1187 C -0.00106 0.56239 1.02247
 C1188 C -0.05167 0.53057 1.00472
 C1189 C 0.01654 0.51574 1.05503
 O1190 O 0.05489 0.51634 1.02252
 O1191 O 0.05440 0.48564 1.00602
 O1192 O 0.04795 0.48136 0.97499
 C1193 C 0.05859 0.47957 0.98957
 O1194 O -0.02930 0.47028 1.02449
 Zr1195 Zr -0.00881 0.47497 1.00321
 O1196 O 0.01960 0.46460 0.96443
 O1197 O 0.03621 0.47598 1.03364
 O1198 O 0.00270 0.45443 1.02182
 O1199 O -0.03320 0.46204 0.99140
 O1200 O 0.00089 0.45172 0.98718
 C1201 C 0.01165 0.45055 0.97273
 O1202 O 0.03985 0.50425 0.95145
 O1203 O -0.02929 0.53820 0.96167
 O1204 O 0.00880 0.49359 0.94422
 O1205 O -0.02001 0.50816 0.94808
 O1206 O 0.00519 0.56034 0.97364
 O1207 O 0.03485 0.54387 0.96696
 C1208 C -0.00709 0.50027 0.93802
 H1209 H -0.01879 0.54500 0.99526
 H1210 H 0.04607 0.51558 0.98715
 H1211 H -0.01349 0.47858 0.96738
 H1212 H 0.00105 0.48781 1.03572
 H1213 H 0.04289 0.56330 0.99868
 H1214 H 0.06256 0.50894 1.03163
 H1215 H 0.04863 0.47826 1.03976
 H1216 H -0.00379 0.44220 1.01932
 H1217 H 0.01228 0.57217 0.97637
 H1218 H -0.04162 0.53573 0.95547
 H1219 H -0.05314 0.50348 0.96022
 H1220 H -0.03255 0.44828 0.99440
 H1221 H 0.03978 0.55701 0.96776
 H1222 H 0.04352 0.49348 0.94323
 H1223 H -0.03437 0.51985 1.05102
 H1224 H -0.03197 0.45649 1.02545
 Zr1225 Zr -0.01544 0.48031 0.47317
 O1226 O -0.03434 0.48928 0.45183
 O1227 O -0.01156 0.45151 0.46653
 O1228 O -0.00276 0.47897 0.44635
 O1229 O -0.05036 0.47471 0.50691
 O1230 O 0.02551 0.49432 0.45020
 O1231 O -0.04294 0.46860 0.47639
 O1232 O 0.01025 0.44124 0.48800
 O1233 O 0.01350 0.47602 0.47868
 O1234 O -0.01369 0.46805 0.49977
 O1235 O -0.00287 0.50737 0.47136
 O1236 O -0.02926 0.49957 0.49135
 Zr1237 Zr 0.01524 0.51043 0.52313
 Zr1238 Zr 0.02575 0.50310 0.47827
 Zr1239 Zr -0.02595 0.48764 0.51807
 Zr1240 Zr 0.01505 0.46477 0.50563
 O1241 O -0.05033 0.50369 0.52535
 O1242 O 0.04182 0.45515 0.49581
 O1243 O 0.00266 0.48327 0.52524
 O1244 O 0.02874 0.49114 0.50493
 O1245 O 0.01357 0.52287 0.49657
 O1246 O -0.01364 0.51458 0.51750
 C1247 C -0.00059 0.43884 0.47373
 C1248 C -0.05423 0.46815 0.49057
 C1249 C 0.01324 0.48533 0.44030
 O1250 O 0.05126 0.48808 0.47290
 O1251 O 0.04880 0.51891 0.48867
 O1252 O 0.04187 0.52381 0.51949
 C1253 C 0.05257 0.52558 0.50499
 O1254 O -0.03592 0.52859 0.46912
 Zr1255 Zr -0.01530 0.52593 0.49070
 O1256 O 0.01205 0.53945 0.52922
 O1257 O 0.02990 0.52701 0.46077
 O1258 O -0.00522 0.54661 0.47157
 O1259 O -0.04069 0.53751 0.50194
 O1260 O -0.00757 0.55027 0.50604
 C1261 C 0.00304 0.55265 0.52047
 O1262 O 0.03511 0.50172 0.54371
 O1263 O -0.03142 0.46275 0.53380
 O1264 O 0.00346 0.51018 0.55036
 O1265 O -0.02414 0.49357 0.54680
 O1266 O 0.00442 0.44251 0.52263
 O1267 O 0.03275 0.46113 0.52948
 C1268 C -0.01182 0.50249 0.55670
 H1269 H -0.02028 0.45566 0.50057
 H1270 H 0.04226 0.48939 0.50834
 H1271 H -0.01985 0.52314 0.52665
 H1272 H -0.00434 0.51277 0.45865
 H1273 H 0.04281 0.44138 0.49869
 H1274 H 0.05845 0.49566 0.46364
 H1275 H 0.04245 0.52532 0.45474
 H1276 H -0.01265 0.55844 0.47360
 H1277 H 0.01235 0.43108 0.52028
 H1278 H -0.04390 0.46462 0.53991
 H1279 H -0.05751 0.49601 0.53454
 H1280 H -0.04111 0.55117 0.49850
 H1281 H 0.03843 0.44822 0.52930
 H1282 H 0.03791 0.51300 0.55160
 H1283 H -0.03726 0.47796 0.44406
 H1284 H -0.03964 0.54213 0.46774
 Zr1285 Zr 0.48535 -0.01995 -0.02564
 O1286 O 0.46653 -0.01118 -0.04713
 O1287 O 0.48951 -0.04873 -0.03222
 O1288 O 0.49822 -0.02121 -0.05236
 O1289 O 0.45021 -0.02576 0.00784
 O1290 O 0.52633 -0.00561 -0.04837
 O1291 O 0.45790 -0.03185 -0.02261
 O1292 O 0.51125 -0.05878 -0.01059
 O1293 O 0.51428 -0.02401 -0.01993
 O1294 O 0.48700 -0.03217 0.00099
 O1295 O 0.49769 0.00721 -0.02739
 O1296 O 0.47125 -0.00078 -0.00758
 Zr1297 Zr 0.51543 0.01047 0.02450
 Zr1298 Zr 0.52630 0.00318 -0.02029
 Zr1299 Zr 0.47446 -0.01267 0.01917
 Zr1300 Zr 0.51573 -0.03521 0.00705
 O1301 O 0.44990 0.00319 0.02629
 O1302 O 0.54264 -0.04463 -0.00255
 O1303 O 0.50304 -0.01678 0.02656
 O1304 O 0.52920 -0.00873 0.00641
 O1305 O 0.51385 0.02287 -0.00209
 O1306 O 0.48655 0.01437 0.01866
 C1307 C 0.50054 -0.06130 -0.02492
 C1308 C 0.44650 -0.03234 -0.00852
 C1309 C 0.51419 -0.01471 -0.05833
 O1310 O 0.55195 -0.01166 -0.02548
 O1311 O 0.54915 0.01916 -0.00976
 O1312 O 0.54198 0.02405 0.02101
 C1313 C 0.55277 0.02588 0.00658
 O1314 O 0.46452 0.02818 -0.02990
 Zr1315 Zr 0.48499 0.02569 -0.00816
 O1316 O 0.51193 0.03946 0.03056
 O1317 O 0.53038 0.02711 -0.03778
 O1318 O 0.49508 0.04645 -0.02721
 O1319 O 0.45941 0.03705 0.00287
 O1320 O 0.49236 0.05010 0.00726
 C1321 C 0.50283 0.05257 0.02177
 O1322 O 0.53523 0.00196 0.04522
 O1323 O 0.46907 -0.03759 0.03488
 O1324 O 0.50345 0.01014 0.05165
 O1325 O 0.47601 -0.00669 0.04792
 O1326 O 0.50515 -0.05753 0.02400
 O1327 O 0.53328 -0.03866 0.03103
 C1328 C 0.48818 0.00234 0.05790
 H1329 H 0.48050 -0.04461 0.00175
 H1330 H 0.54271 -0.01036 0.00991
 H1331 H 0.48020 0.02289 0.02776
 H1332 H 0.49627 0.01259 -0.04011
 H1333 H 0.54372 -0.05838 0.00035
 H1334 H 0.55915 -0.00403 -0.03469
 H1335 H 0.54299 0.02552 -0.04372
 H1336 H 0.48754 0.05821 -0.02523
 H1337 H 0.51319 -0.06890 0.02172
 H1338 H 0.45652 -0.03582 0.04089
 H1339 H 0.44272 -0.00455 0.03543
 H1340 H 0.45889 0.05070 -0.00058
 H1341 H 0.53905 -0.05153 0.03092
 H1342 H 0.53787 0.01327 0.05311
 H1343 H 0.46377 -0.02253 -0.05491
 H1344 H 0.46073 0.04169 -0.03133
 Zr1345 Zr 0.51671 0.51477 -0.02469
 O1346 O 0.53490 0.50300 -0.04525
 O1347 O 0.51548 0.54339 -0.03274
 O1348 O 0.50424 0.51582 -0.05164
 O1349 O 0.55178 0.51989 0.00905
 O1350 O 0.47482 0.50299 -0.04730
 O1351 O 0.54493 0.52470 -0.02185
 O1352 O 0.49470 0.55666 -0.01193
 O1353 O 0.48818 0.52168 -0.01977
 O1354 O 0.51581 0.52855 0.00121
 O1355 O 0.50207 0.48873 -0.02520
 O1356 O 0.52896 0.49553 -0.00539
 Zr1357 Zr 0.48361 0.49008 0.02647
 Zr1358 Zr 0.47385 0.49565 -0.01884
 Zr1359 Zr 0.52651 0.50917 0.02061
 Zr1360 Zr 0.48740 0.53447 0.00653
 O1361 O 0.54963 0.49169 0.02873
 O1362 O 0.46173 0.54562 -0.00456
 O1363 O 0.49830 0.51621 0.02725
 O1364 O 0.47167 0.50927 0.00711
 O1365 O 0.48439 0.47608 0.00063
 O1366 O 0.51210 0.48332 0.02136
 C1367 C 0.50590 0.55740 -0.02608
 C1368 C 0.55611 0.52533 -0.00757
 C1369 C 0.48778 0.51047 -0.05750
 O1370 O 0.44946 0.51215 -0.02507
 O1371 O 0.44980 0.48190 -0.00791
 O1372 O 0.45619 0.47827 0.02322
 C1373 C 0.44555 0.47630 0.00867
 O1374 O 0.53333 0.46479 -0.02594
 Zr1375 Zr 0.51292 0.47037 -0.00475
 O1376 O 0.48449 0.46138 0.03430
 O1377 O 0.46799 0.47134 -0.03531
 O1378 O 0.50123 0.44953 -0.02281
 O1379 O 0.53727 0.45740 0.00733
 O1380 O 0.50317 0.44768 0.01190
 C1381 C 0.49242 0.44702 0.02639
 O1382 O 0.46435 0.50160 0.04619
 O1383 O 0.53381 0.53428 0.03526
 O1384 O 0.49531 0.49084 0.05376
 O1385 O 0.52423 0.50482 0.04957
 O1386 O 0.49942 0.55662 0.02278
 O1387 O 0.46963 0.54083 0.02972
 C1388 C 0.51122 0.49747 0.05981
 H1389 H 0.52334 0.54040 0.00154
 H1390 H 0.45829 0.51219 0.01026
 H1391 H 0.51760 0.47482 0.03100
 H1392 H 0.50315 0.48257 -0.03760
 H1393 H 0.46184 0.55957 -0.00253
 H1394 H 0.44177 0.50466 -0.03403
 H1395 H 0.45558 0.47365 -0.04150
 H1396 H 0.50762 0.43726 -0.02001
 H1397 H 0.49244 0.56851 0.01974
 H1398 H 0.54612 0.53177 0.04154
 H1399 H 0.55737 0.49924 0.03759
 H1400 H 0.53655 0.44358 0.00468
 H1401 H 0.46476 0.55402 0.02856
 H1402 H 0.46061 0.49109 0.05467
 H1403 H 0.53877 0.51355 -0.05362
 H1404 H 0.53589 0.45094 -0.02657
 Zr1405 Zr 0.01443 1.01470 0.47712
 O1406 O 0.03257 1.00288 0.45655
 O1407 O 0.01344 1.04337 0.46920
 O1408 O 0.00203 1.01590 0.45015
 O1409 O 0.04948 1.01948 0.51092
 O1410 O -0.02749 1.00327 0.45438
 O1411 O 0.04270 1.02443 0.48004
 O1412 O -0.00723 1.05675 0.49004
 O1413 O -0.01406 1.02181 0.48200
 O1414 O 0.01358 1.02840 0.50307
 O1415 O -0.00039 0.98878 0.47651
 O1416 O 0.02651 0.99531 0.49637
 Zr1417 Zr -0.01893 0.99010 0.52815
 Zr1418 Zr -0.02857 0.99588 0.48283
 Zr1419 Zr 0.02412 1.00888 0.52241
 Zr1420 Zr -0.01479 1.03452 0.50835
 O1421 O 0.04710 0.99120 0.53049
 O1422 O -0.04033 1.04589 0.49719
 O1423 O -0.00405 1.01611 0.52903
 O1424 O -0.03070 1.00943 0.50883
 O1425 O -0.01821 0.97618 0.50227
 O1426 O 0.00952 0.98314 0.52306
 C1427 C 0.00401 1.05745 0.47592
 C1428 C 0.05387 1.02495 0.49433
 C1429 C -0.01444 1.01067 0.44423
 O1430 O -0.05283 1.01258 0.47662
 O1431 O -0.05273 0.98225 0.49368
 O1432 O -0.04642 0.97847 0.52481
 C1433 C -0.05704 0.97661 0.51023
 O1434 O 0.03069 0.96459 0.47575
 Zr1435 Zr 0.01029 0.97026 0.49691
 O1436 O -0.01827 0.96137 0.53592
 O1437 O -0.03460 0.97167 0.46628
 O1438 O -0.00154 0.94957 0.47878
 O1439 O 0.03452 0.95708 0.50900
 O1440 O 0.00033 0.94760 0.51349
 C1441 C -0.01043 0.94697 0.52796
 O1442 O -0.03815 1.00170 0.54787
 O1443 O 0.03158 1.03388 0.53716
 O1444 O -0.00726 0.99069 0.55547
 O1445 O 0.02177 1.00447 0.55134
 O1446 O -0.00267 1.05650 0.52475
 O1447 O -0.03260 1.04093 0.53149
 C1448 C 0.00869 0.99719 0.56155
 H1449 H 0.02121 1.04020 0.50346
 H1450 H -0.04406 1.01243 0.51197
 H1451 H 0.01494 0.97457 0.53269
 H1452 H 0.00067 0.98264 0.46409
 H1453 H -0.04012 1.05983 0.49927
 H1454 H -0.06056 1.00518 0.46762
 H1455 H -0.04697 0.97409 0.46009
 H1456 H 0.00476 0.93725 0.48156
 H1457 H -0.00956 1.06845 0.52175
 H1458 H 0.04387 1.03126 0.54344
 H1459 H 0.05489 0.99866 0.53939
 H1460 H 0.03370 0.94327 0.50631
 H1461 H -0.03740 1.05414 0.53034
 H1462 H -0.04198 0.99119 0.55631
 H1463 H 0.03654 1.01343 0.44823
 H1464 H 0.03314 0.95072 0.47508
 Zr1465 Zr 0.73445 0.26211 0.22758
 O1466 O 0.74551 0.28074 0.20708
 O1467 O 0.70605 0.25976 0.21923
 O1468 O 0.73401 0.24963 0.20064
 O1469 O 0.72784 0.29703 0.26127
 O1470 O 0.74804 0.22058 0.20500
 O1471 O 0.72347 0.29008 0.23035
 O1472 O 0.69372 0.23825 0.23982
 O1473 O 0.72878 0.23328 0.23247
 O1474 O 0.72057 0.26070 0.25337
 O1475 O 0.76102 0.24831 0.22721
 O1476 O 0.75300 0.27496 0.24702
 Zr1477 Zr 0.76019 0.22965 0.27886
 Zr1478 Zr 0.75530 0.21979 0.23352
 Zr1479 Zr 0.73936 0.27199 0.27292
 Zr1480 Zr 0.71590 0.23202 0.25868
 O1481 O 0.75571 0.29573 0.28126
 O1482 O 0.70594 0.20580 0.24783
 O1483 O 0.73353 0.24349 0.27952
 O1484 O 0.74167 0.21711 0.25938
 O1485 O 0.77428 0.23095 0.25313
 O1486 O 0.76573 0.25843 0.27380
 C1487 C 0.69258 0.24940 0.22562
 C1488 C 0.72241 0.30127 0.24460
 C1489 C 0.74001 0.23334 0.19479
 O1490 O 0.73988 0.19485 0.22711
 O1491 O 0.76980 0.19605 0.24457
 O1492 O 0.77300 0.20252 0.27572
 C1493 C 0.77539 0.19191 0.26121
 O1494 O 0.78362 0.28033 0.22656
 Zr1495 Zr 0.77876 0.25975 0.24779
 O1496 O 0.78870 0.23156 0.28695
 O1497 O 0.77988 0.21476 0.21725
 O1498 O 0.80016 0.24863 0.22999
 O1499 O 0.79051 0.28466 0.25981
 O1500 O 0.80166 0.25094 0.26476
 C1501 C 0.80268 0.24018 0.27926
 O1502 O 0.74941 0.20996 0.29854
 O1503 O 0.71390 0.27839 0.28733
 O1504 O 0.75889 0.24130 0.30614
 O1505 O 0.74369 0.26979 0.30191
 O1506 O 0.69311 0.24342 0.27453
 O1507 O 0.71021 0.21416 0.28198
 C1508 C 0.75160 0.25700 0.31217
 H1509 H 0.70843 0.26784 0.25355
 H1510 H 0.73928 0.20361 0.26252
 H1511 H 0.77391 0.26424 0.28349
 H1512 H 0.76718 0.24963 0.21485
 H1513 H 0.69203 0.20543 0.24982
 H1514 H 0.74772 0.18741 0.21821
 H1515 H 0.77813 0.20228 0.21104
 H1516 H 0.81210 0.25543 0.23289
 H1517 H 0.68160 0.23600 0.27139
 H1518 H 0.71583 0.29078 0.29365
 H1519 H 0.74778 0.30320 0.29006
 H1520 H 0.80434 0.28445 0.25725
 H1521 H 0.69721 0.20896 0.28088
 H1522 H 0.76000 0.20655 0.30710
 H1523 H 0.73487 0.28428 0.19863
 H1524 H 0.79734 0.28325 0.22595
 Zr1525 Zr 0.76935 0.73524 0.72650
 O1526 O 0.75984 0.71693 0.70494
 O1527 O 0.79824 0.73776 0.72019
 O1528 O 0.77121 0.74818 0.69979
 O1529 O 0.77363 0.69960 0.75990
 O1530 O 0.75697 0.77717 0.70387
 O1531 O 0.78016 0.70722 0.72952
 O1532 O 0.80924 0.75863 0.74214
 O1533 O 0.77470 0.76396 0.73234
 O1534 O 0.78140 0.73609 0.75324
 O1535 O 0.74286 0.74907 0.72465
 O1536 O 0.74954 0.72198 0.74437
 Zr1537 Zr 0.74014 0.76665 0.77659
 Zr1538 Zr 0.74815 0.77745 0.73190
 Zr1539 Zr 0.76134 0.72442 0.77123
 Zr1540 Zr 0.78575 0.76464 0.75942
 O1541 O 0.74434 0.70063 0.77797
 O1542 O 0.79642 0.79102 0.74970
 O1543 O 0.76671 0.75278 0.77874
 O1544 O 0.75997 0.77956 0.75870
 O1545 O 0.72792 0.76587 0.74990
 O1546 O 0.73493 0.73799 0.77062
 C1547 C 0.81132 0.74781 0.72780
 C1548 C 0.78024 0.69572 0.74358
 C1549 C 0.76542 0.76455 0.69387
 O1550 O 0.76407 0.80241 0.72698
 O1551 O 0.73299 0.80101 0.74242
 O1552 O 0.72770 0.79392 0.77314
 C1553 C 0.72630 0.80483 0.75871
 O1554 O 0.72066 0.71671 0.72204
 Zr1555 Zr 0.72380 0.73719 0.74369
 O1556 O 0.71100 0.76496 0.78230
 O1557 O 0.72460 0.78292 0.71426
 O1558 O 0.70375 0.74816 0.72429
 O1559 O 0.71103 0.71236 0.75481
 O1560 O 0.69971 0.74633 0.75862
 C1561 C 0.69757 0.75694 0.77308
 O1562 O 0.74948 0.78588 0.79744
 O1563 O 0.78576 0.71756 0.78718
 O1564 O 0.73975 0.75446 0.80368
 O1565 O 0.75531 0.72611 0.79995
 O1566 O 0.80731 0.75289 0.77669
 O1567 O 0.78988 0.78209 0.78335
 C1568 C 0.74683 0.73873 0.80992
 H1569 H 0.79350 0.72893 0.75412
 H1570 H 0.76216 0.79299 0.76226
 H1571 H 0.72607 0.73210 0.77963
 H1572 H 0.73750 0.74799 0.71189
 H1573 H 0.81018 0.79133 0.75263
 H1574 H 0.75682 0.81008 0.71776
 H1575 H 0.72677 0.79551 0.70839
 H1576 H 0.69169 0.74119 0.72616
 H1577 H 0.81903 0.76031 0.77453
 H1578 H 0.78337 0.70504 0.79310
 H1579 H 0.75164 0.69294 0.78713
 H1580 H 0.69743 0.71270 0.75125
 H1581 H 0.80292 0.78730 0.78321
 H1582 H 0.73830 0.78913 0.80526
 H1583 H 0.77106 0.71359 0.69721
 H1584 H 0.70708 0.71343 0.72063
 Zr1585 Zr 0.23560 0.23236 0.77764
 O1586 O 0.24632 0.21382 0.79851
 O1587 O 0.20697 0.23458 0.78514
 O1588 O 0.23441 0.24499 0.80452
 O1589 O 0.23021 0.19729 0.74389
 O1590 O 0.24821 0.27405 0.80037
 O1591 O 0.22492 0.20438 0.77464
 O1592 O 0.19488 0.25584 0.76403
 O1593 O 0.22971 0.26115 0.77245
 O1594 O 0.22243 0.23360 0.75143
 O1595 O 0.26199 0.24624 0.77868
 O1596 O 0.25479 0.21944 0.75879
 Zr1597 Zr 0.26234 0.26463 0.72693
 Zr1598 Zr 0.25611 0.27472 0.77206
 Zr1599 Zr 0.24185 0.22226 0.73247
 Zr1600 Zr 0.21753 0.26223 0.74587
 O1601 O 0.25874 0.19857 0.72476
 O1602 O 0.20698 0.28841 0.75644
 O1603 O 0.23585 0.25073 0.72560
 O1604 O 0.24314 0.27721 0.74580
 O1605 O 0.27571 0.26349 0.75308
 O1606 O 0.26809 0.23589 0.73227
 C1607 C 0.19350 0.24475 0.77825
 C1608 C 0.22430 0.19314 0.76039
 C1609 C 0.24013 0.26133 0.81045
 O1610 O 0.24022 0.29962 0.77792
 O1611 O 0.27059 0.29847 0.76129
 O1612 O 0.27466 0.29184 0.73028
 C1613 C 0.27654 0.30255 0.74479
 O1614 O 0.28474 0.21408 0.78002
 Zr1615 Zr 0.28039 0.23472 0.75870
 O1616 O 0.29116 0.26291 0.71989
 O1617 O 0.28025 0.27991 0.78893
 O1618 O 0.30113 0.24571 0.77727
 O1619 O 0.29285 0.20995 0.74691
 O1620 O 0.30370 0.24383 0.74268
 C1621 C 0.30505 0.25461 0.72824
 O1622 O 0.25192 0.28416 0.70680
 O1623 O 0.21688 0.21567 0.71734
 O1624 O 0.26180 0.25288 0.69967
 O1625 O 0.24680 0.22438 0.70358
 O1626 O 0.19536 0.25072 0.72932
 O1627 O 0.21220 0.28004 0.72240
 C1628 C 0.25475 0.23719 0.69348
 H1629 H 0.21038 0.22643 0.75090
 H1630 H 0.24067 0.29068 0.74252
 H1631 H 0.27662 0.23012 0.72283
 H1632 H 0.26784 0.24500 0.79122
 H1633 H 0.19311 0.28871 0.75410
 H1634 H 0.24774 0.30714 0.78698
 H1635 H 0.27820 0.29241 0.79504
 H1636 H 0.31319 0.23885 0.77480
 H1637 H 0.18366 0.25808 0.73210
 H1638 H 0.21914 0.20325 0.71115
 H1639 H 0.25116 0.19102 0.71577
 H1640 H 0.30658 0.21023 0.74993
 H1641 H 0.19914 0.28525 0.72318
 H1642 H 0.26271 0.28757 0.69856
 H1643 H 0.23549 0.21031 0.80666
 H1644 H 0.29844 0.21099 0.78096
 Zr1645 Zr 0.26204 0.76607 0.27469
 O1646 O 0.25078 0.78427 0.29554
 O1647 O 0.29077 0.76478 0.28214
 O1648 O 0.26364 0.75349 0.30157
 O1649 O 0.26642 0.80135 0.24104
 O1650 O 0.25075 0.72400 0.29739
 O1651 O 0.27199 0.79432 0.27177
 O1652 O 0.30351 0.74409 0.26089
 O1653 O 0.26884 0.73748 0.26949
 O1654 O 0.27516 0.76527 0.24849
 O1655 O 0.23610 0.75136 0.27566
 O1656 O 0.24238 0.77841 0.25587
 Zr1657 Zr 0.23629 0.73305 0.22389
 Zr1658 Zr 0.24288 0.72309 0.26904
 Zr1659 Zr 0.25537 0.77608 0.22958
 Zr1660 Zr 0.28097 0.73682 0.24290
 O1661 O 0.23769 0.79925 0.22202
 O1662 O 0.29238 0.71105 0.25361
 O1663 O 0.26228 0.74783 0.22264
 O1664 O 0.25586 0.72103 0.24279
 O1665 O 0.22292 0.73371 0.25002
 O1666 O 0.22960 0.76158 0.22927
 C1667 C 0.30459 0.75524 0.27508
 C1668 C 0.27233 0.80559 0.25753
 C1669 C 0.25841 0.73700 0.30749
 O1670 O 0.25955 0.69869 0.27488
 O1671 O 0.22905 0.69896 0.25823
 O1672 O 0.22474 0.70549 0.22721
 C1673 C 0.22315 0.69474 0.24173
 O1674 O 0.21222 0.78274 0.27699
 Zr1675 Zr 0.21729 0.76228 0.25566
 O1676 O 0.20748 0.73382 0.21673
 O1677 O 0.21897 0.71710 0.28589
 O1678 O 0.19696 0.75057 0.27419
 O1679 O 0.20398 0.78663 0.24386
 O1680 O 0.19426 0.75235 0.23956
 C1681 C 0.19330 0.74160 0.22505
 O1682 O 0.24733 0.71387 0.20379
 O1683 O 0.28003 0.78353 0.21441
 O1684 O 0.23645 0.74489 0.19663
 O1685 O 0.25042 0.77390 0.20071
 O1686 O 0.30269 0.74893 0.22626
 O1687 O 0.28674 0.71912 0.21947
 C1688 C 0.24293 0.76086 0.19054
 H1689 H 0.28698 0.77281 0.24794
 H1690 H 0.25874 0.70763 0.23951
 H1691 H 0.22088 0.76709 0.21983
 H1692 H 0.23022 0.75240 0.28819
 H1693 H 0.30624 0.71118 0.25126
 H1694 H 0.25228 0.69092 0.28392
 H1695 H 0.22143 0.70465 0.29198
 H1696 H 0.18466 0.75698 0.27167
 H1697 H 0.31460 0.74189 0.22898
 H1698 H 0.27735 0.79589 0.20826
 H1699 H 0.24498 0.80707 0.21304
 H1700 H 0.19027 0.78585 0.24680
 H1701 H 0.29990 0.71419 0.22033
 H1702 H 0.23665 0.71013 0.19552
 H1703 H 0.26149 0.78812 0.30372
 H1704 H 0.19843 0.78536 0.27787
 Zr1705 Zr 0.23484 0.76271 0.72706
 O1706 O 0.24595 0.78136 0.70660
 O1707 O 0.20652 0.76021 0.71853
 O1708 O 0.23460 0.75016 0.70015
 O1709 O 0.22781 0.79764 0.76066
 O1710 O 0.24876 0.72120 0.70465
 O1711 O 0.22368 0.79063 0.72971
 O1712 O 0.19416 0.73866 0.73905
 O1713 O 0.22929 0.73386 0.73196
 O1714 O 0.22080 0.76126 0.75276
 O1715 O 0.26149 0.74906 0.72688
 O1716 O 0.25319 0.77569 0.74660
 Zr1717 Zr 0.26042 0.73047 0.77857
 Zr1718 Zr 0.25588 0.72052 0.73320
 Zr1719 Zr 0.23939 0.77269 0.77241
 Zr1720 Zr 0.21624 0.73257 0.75808
 O1721 O 0.25555 0.79653 0.78083
 O1722 O 0.20650 0.70628 0.74720
 O1723 O 0.23367 0.74416 0.77902
 O1724 O 0.24209 0.71781 0.75898
 O1725 O 0.27467 0.73180 0.75292
 O1726 O 0.26582 0.75928 0.77349
 C1727 C 0.19305 0.74979 0.72484
 C1728 C 0.22246 0.80182 0.74396
 C1729 C 0.24071 0.73388 0.69436
 O1730 O 0.24064 0.69547 0.72674
 O1731 O 0.27040 0.69686 0.74439
 O1732 O 0.27336 0.70339 0.77554
 C1733 C 0.27588 0.69276 0.76106
 O1734 O 0.28394 0.78117 0.72631
 Zr1735 Zr 0.27903 0.76062 0.74756
 O1736 O 0.28885 0.73258 0.78686
 O1737 O 0.28059 0.71561 0.71710
 O1738 O 0.30061 0.74955 0.72996
 O1739 O 0.29054 0.78564 0.75959
 O1740 O 0.30184 0.75202 0.76474
 C1741 C 0.30283 0.74130 0.77927
 O1742 O 0.24962 0.71075 0.79821
 O1743 O 0.21380 0.77896 0.78665
 O1744 O 0.25882 0.74214 0.80582
 O1745 O 0.24352 0.77056 0.80144
 O1746 O 0.19328 0.74388 0.77376
 O1747 O 0.21047 0.71471 0.78136
 C1748 C 0.25139 0.75781 0.81178
 H1749 H 0.20862 0.76834 0.75285
 H1750 H 0.23974 0.70430 0.76212
 H1751 H 0.27390 0.76515 0.78323
 H1752 H 0.26771 0.75038 0.71455
 H1753 H 0.19258 0.70584 0.74909
 H1754 H 0.24858 0.68807 0.71789
 H1755 H 0.27895 0.70311 0.71089
 H1756 H 0.31250 0.75642 0.73293
 H1757 H 0.18183 0.73640 0.77055
 H1758 H 0.21561 0.79138 0.79296
 H1759 H 0.24752 0.80397 0.78956
 H1760 H 0.30438 0.78551 0.75713
 H1761 H 0.19751 0.70945 0.78018
 H1762 H 0.26017 0.70742 0.80683
 H1763 H 0.23536 0.78483 0.69808
 H1764 H 0.29765 0.78414 0.72578
 Zr1765 Zr 0.26870 0.23599 0.22635
 O1766 O 0.25965 0.21780 0.20450
 O1767 O 0.29766 0.23879 0.22046
 O1768 O 0.27087 0.24916 0.19977
 O1769 O 0.27269 0.20009 0.25950
 O1770 O 0.25638 0.27802 0.20388
 O1771 O 0.27963 0.20800 0.22928
 O1772 O 0.30819 0.25959 0.24271
 O1773 O 0.27378 0.26470 0.23250
 O1774 O 0.28037 0.23670 0.25325
 O1775 O 0.24215 0.24966 0.22423
 O1776 O 0.24872 0.22247 0.24382
 Zr1777 Zr 0.23856 0.26680 0.27627
 Zr1778 Zr 0.24715 0.27801 0.23178
 Zr1779 Zr 0.26011 0.22474 0.27086
 Zr1780 Zr 0.28442 0.26522 0.25974
 O1781 O 0.24318 0.20079 0.27718
 O1782 O 0.29506 0.29178 0.25045
 O1783 O 0.26519 0.25308 0.27869
 O1784 O 0.25857 0.27998 0.25876
 O1785 O 0.22674 0.26616 0.24940
 O1786 O 0.23363 0.23815 0.26999
 C1787 C 0.31054 0.24891 0.22831
 C1788 C 0.27955 0.19639 0.24325
 C1789 C 0.26506 0.26554 0.19390
 O1790 O 0.26299 0.30311 0.22729
 O1791 O 0.23170 0.30140 0.24227
 O1792 O 0.22600 0.29402 0.27286
 C1793 C 0.22475 0.30504 0.25849
 O1794 O 0.22019 0.21720 0.22104
 Zr1795 Zr 0.22289 0.23751 0.24290
 O1796 O 0.20935 0.26485 0.28156
 O1797 O 0.22383 0.28349 0.21385
 O1798 O 0.20305 0.24854 0.22332
 O1799 O 0.21013 0.21250 0.25362
 O1800 O 0.19852 0.24634 0.25757
 C1801 C 0.19611 0.25681 0.27210
 O1802 O 0.24745 0.28590 0.29741
 O1803 O 0.28436 0.21791 0.28709
 O1804 O 0.23785 0.25436 0.30326
 O1805 O 0.25366 0.22615 0.29949
 O1806 O 0.30583 0.25344 0.27718
 O1807 O 0.28808 0.28245 0.28390
 C1808 C 0.24493 0.23862 0.30946
 H1809 H 0.29250 0.22960 0.25424
 H1810 H 0.26062 0.29339 0.26247
 H1811 H 0.22467 0.23212 0.27882
 H1812 H 0.23698 0.24866 0.21139
 H1813 H 0.30876 0.29215 0.25359
 H1814 H 0.25583 0.31081 0.21803
 H1815 H 0.22600 0.29613 0.20812
 H1816 H 0.19102 0.24149 0.22496
 H1817 H 0.31753 0.26096 0.27525
 H1818 H 0.28197 0.20533 0.29287
 H1819 H 0.25040 0.19307 0.28638
 H1820 H 0.19659 0.21277 0.24987
 H1821 H 0.30109 0.28773 0.28401
 H1822 H 0.23614 0.28901 0.30510
 H1823 H 0.27100 0.21461 0.19691
 H1824 H 0.20664 0.21387 0.21939
 Zr1825 Zr 0.73416 0.73334 0.27765
 O1826 O 0.74382 0.71486 0.29907
 O1827 O 0.70537 0.73641 0.28438
 O1828 O 0.73263 0.74634 0.30434
 O1829 O 0.72898 0.69787 0.24427
 O1830 O 0.74724 0.77500 0.30017
 O1831 O 0.72301 0.70552 0.27477
 O1832 O 0.69439 0.75766 0.26268
 O1833 O 0.72909 0.76218 0.27193
 O1834 O 0.72170 0.73450 0.25110
 O1835 O 0.76084 0.74661 0.27917
 O1836 O 0.75355 0.71974 0.25948
 Zr1837 Zr 0.76295 0.76425 0.22722
 Zr1838 Zr 0.75580 0.77512 0.27204
 Zr1839 Zr 0.74135 0.72246 0.23281
 Zr1840 Zr 0.71763 0.76315 0.24503
 O1841 O 0.75790 0.69830 0.22575
 O1842 O 0.70742 0.78974 0.25489
 O1843 O 0.73620 0.75094 0.22540
 O1844 O 0.74358 0.77753 0.24543
 O1845 O 0.77564 0.76319 0.25370
 O1846 O 0.76790 0.73548 0.23308
 C1847 C 0.69235 0.74683 0.27700
 C1848 C 0.72260 0.69407 0.26068
 C1849 C 0.73863 0.76260 0.31021
 O1850 O 0.74028 0.80041 0.27724
 O1851 O 0.77100 0.79843 0.26132
 O1852 O 0.77576 0.79125 0.23052
 C1853 C 0.77744 0.80215 0.24492
 O1854 O 0.78287 0.71406 0.28158
 Zr1855 Zr 0.77950 0.73441 0.25982
 O1856 O 0.79187 0.76167 0.22090
 O1857 O 0.77965 0.78004 0.28939
 O1858 O 0.80002 0.74529 0.27867
 O1859 O 0.79159 0.70911 0.24876
 O1860 O 0.80344 0.74257 0.24417
 C1861 C 0.80535 0.75306 0.22959
 O1862 O 0.75358 0.78375 0.20656
 O1863 O 0.71659 0.71618 0.21721
 O1864 O 0.76277 0.75215 0.20009
 O1865 O 0.74703 0.72406 0.20402
 O1866 O 0.69562 0.75189 0.22811
 O1867 O 0.71339 0.78069 0.22115
 C1868 C 0.75550 0.73654 0.19394
 H1869 H 0.70951 0.72758 0.25039
 H1870 H 0.74149 0.79101 0.24192
 H1871 H 0.77650 0.72936 0.22393
 H1872 H 0.76635 0.74542 0.29186
 H1873 H 0.69363 0.79035 0.25214
 H1874 H 0.74775 0.80790 0.28638
 H1875 H 0.77772 0.79266 0.29529
 H1876 H 0.81199 0.73813 0.27662
 H1877 H 0.68405 0.75958 0.23046
 H1878 H 0.71872 0.70363 0.21123
 H1879 H 0.75036 0.69081 0.21668
 H1880 H 0.80525 0.70907 0.25211
 H1881 H 0.70042 0.78618 0.22147
 H1882 H 0.76467 0.78675 0.19856
 H1883 H 0.73269 0.71173 0.30697
 H1884 H 0.79648 0.71074 0.28292
 Zr1885 Zr 0.76546 0.26374 0.77429
 O1886 O 0.75488 0.28212 0.79533
 O1887 O 0.79428 0.26186 0.78135
 O1888 O 0.76708 0.25112 0.80115
 O1889 O 0.76999 0.29897 0.74062
 O1890 O 0.75353 0.22191 0.79711
 O1891 O 0.77580 0.29185 0.77128
 O1892 O 0.80633 0.24093 0.75994
 O1893 O 0.77162 0.23502 0.76899
 O1894 O 0.77825 0.26270 0.74794
 O1895 O 0.73924 0.24956 0.77556
 O1896 O 0.74583 0.27647 0.75571
 Zr1897 Zr 0.73841 0.23129 0.72378
 Zr1898 Zr 0.74536 0.22117 0.76884
 Zr1899 Zr 0.75845 0.27390 0.72926
 Zr1900 Zr 0.78340 0.23414 0.74225
 O1901 O 0.74115 0.29742 0.72184
 O1902 O 0.79443 0.20815 0.75282
 O1903 O 0.76469 0.24553 0.72222
 O1904 O 0.75797 0.21886 0.74244
 O1905 O 0.72537 0.23220 0.75006
 O1906 O 0.73238 0.25994 0.72926
 C1907 C 0.80781 0.25206 0.77411
 C1908 C 0.77610 0.30313 0.75706
 C1909 C 0.76154 0.23475 0.80714
 O1910 O 0.76164 0.19645 0.77449
 O1911 O 0.73094 0.19731 0.75818
 O1912 O 0.72633 0.20397 0.72724
 C1913 C 0.72473 0.19323 0.74176
 O1914 O 0.71599 0.28133 0.77726
 Zr1915 Zr 0.72041 0.26088 0.75579
 O1916 O 0.70954 0.23275 0.71691
 O1917 O 0.72153 0.21561 0.78595
 O1918 O 0.70005 0.24946 0.77446
 O1919 O 0.70754 0.28559 0.74427
 O1920 O 0.69701 0.25162 0.73984
 C1921 C 0.69565 0.24093 0.72532
 O1922 O 0.74879 0.21189 0.70354
 O1923 O 0.78310 0.28085 0.71386
 O1924 O 0.73846 0.24315 0.69653
 O1925 O 0.75310 0.27185 0.70044
 O1926 O 0.80512 0.24583 0.72533
 O1927 O 0.78853 0.21632 0.71876
 C1928 C 0.74519 0.25900 0.69036
 H1929 H 0.79019 0.27003 0.74726
 H1930 H 0.76054 0.20542 0.73911
 H1931 H 0.72367 0.26566 0.71993
 H1932 H 0.73353 0.25071 0.78815
 H1933 H 0.80826 0.20799 0.75029
 H1934 H 0.75433 0.18882 0.78361
 H1935 H 0.72381 0.20312 0.79200
 H1936 H 0.68785 0.25612 0.77210
 H1937 H 0.81694 0.23857 0.72789
 H1938 H 0.78060 0.29328 0.70774
 H1939 H 0.74851 0.30510 0.71279
 H1940 H 0.69384 0.28512 0.74736
 H1941 H 0.80161 0.21116 0.71945
 H1942 H 0.73794 0.20839 0.69539
 H1943 H 0.76579 0.28574 0.80337
 H1944 H 0.70225 0.28417 0.77835
 C1945 C 0.43399 0.99182 0.35454
 C1946 C 0.45298 0.99756 0.35422
 C1947 C 0.46099 1.00393 0.33744
 C1948 C 0.45004 1.00445 0.32105
 C1949 C 0.43094 0.99858 0.32125
 C1950 C 0.42305 0.99233 0.33823
 C1951 C 0.46385 0.99731 0.37135
 C1952 C 0.47194 0.99716 0.38625
 C1953 C 0.48002 0.99725 0.40437
 C1954 C 0.48545 0.99777 0.42038
 H1955 H 0.42757 0.98704 0.36746
 H1956 H 0.47565 1.00847 0.33702
 H1957 H 0.45659 1.00915 0.30819
 H1958 H 0.40834 0.98802 0.33897
 C1959 C -0.03848 0.50770 0.83689
 C1960 C -0.04404 0.49695 0.85238
 C1961 C -0.06087 0.48657 0.85160
 C1962 C -0.07213 0.48686 0.83550
 C1963 C -0.06686 0.49762 0.81960
 C1964 C -0.04971 0.50806 0.82070
 C1965 C -0.03315 0.49718 0.86948
 C1966 C -0.02503 0.49738 0.88436
 C1967 C -0.01690 0.49784 0.90246
 C1968 C -0.01143 0.49863 0.91844
 H1969 H -0.02546 0.51583 0.83732
 H1970 H -0.06551 0.47844 0.86362
 H1971 H -0.08539 0.47922 0.83611
 H1972 H -0.04442 0.51608 0.80893
 C1973 C 0.05781 -0.00961 0.85353
 C1974 C 0.04371 0.00445 0.85463
 C1975 C 0.03999 0.01603 0.83911
 C1976 C 0.05052 0.01373 0.82266
 C1977 C 0.06499 -0.00013 0.82157
 C1978 C 0.06838 -0.01189 0.83715
 C1979 C 0.03380 0.00734 0.87203
 C1980 C 0.02642 0.00927 0.88713
 C1981 C 0.01906 0.01075 0.90545
 C1982 C 0.01413 0.01113 0.92160
 H1983 H 0.06083 -0.01866 0.86544
 H1984 H 0.02918 0.02702 0.83982
 H1985 H 0.04773 0.02316 0.81100
 H1986 H 0.07923 -0.02284 0.83668
 C1987 C 0.53960 0.51419 0.33833
 C1988 C 0.54329 0.50240 0.35369
 C1989 C 0.55748 0.48844 0.35247
 C1990 C 0.56816 0.48648 0.33613
 C1991 C 0.56482 0.49847 0.32071
 C1992 C 0.55025 0.51222 0.32192
 C1993 C 0.53329 0.50500 0.37108
 C1994 C 0.52583 0.50672 0.38617
 C1995 C 0.51838 0.50801 0.40447
 C1996 C 0.51335 0.50829 0.42058
 H1997 H 0.52873 0.52512 0.33913
 H1998 H 0.56048 0.47922 0.36427
 H1999 H 0.57908 0.47560 0.33556
 H2000 H 0.54748 0.52182 0.31038
 C2001 C 0.53983 0.50439 0.16224
 C2002 C 0.54785 0.49775 0.14555
 C2003 C 0.56690 0.49202 0.14526
 C2004 C 0.57786 0.49278 0.16154
 C2005 C 0.56995 0.49927 0.17844
 C2006 C 0.55081 0.50517 0.17859
 C2007 C 0.53694 0.49714 0.12849
 C2008 C 0.52884 0.49666 0.11361
 C2009 C 0.52079 0.49634 0.09548
 C2010 C 0.51543 0.49651 0.07945
 H2011 H 0.52512 0.50893 0.16263
 H2012 H 0.57333 0.48702 0.13240
 H2013 H 0.59261 0.48843 0.16084
 H2014 H 0.54424 0.51005 0.19141
 C2015 C 0.03825 1.00429 0.66369
 C2016 C 0.04598 0.99744 0.64694
 C2017 C 0.06499 0.99160 0.64643
 C2018 C 0.07620 0.99245 0.66252
 C2019 C 0.06859 0.99915 0.67948
 C2020 C 0.04948 1.00515 0.67987
 C2021 C 0.03483 0.99679 0.63003
 C2022 C 0.02655 0.99629 0.61525
 C2023 C 0.01834 0.99597 0.59720
 C2024 C 0.01289 0.99616 0.58119
 H2025 H 0.02358 1.00893 0.66425
 H2026 H 0.07119 0.98646 0.63352
 H2027 H 0.09092 0.98801 0.66165
 H2028 H 0.04314 1.01019 0.69274
 C2029 C -0.05952 0.48619 0.64549
 C2030 C -0.04510 0.49972 0.64376
 C2031 C -0.04074 0.51153 0.65892
 C2032 C -0.05095 0.50998 0.67564
 C2033 C -0.06572 0.49664 0.67738
 C2034 C -0.06975 0.48464 0.66215
 C2035 C -0.03543 0.50180 0.62611
 C2036 C -0.02820 0.50310 0.61087
 C2037 C -0.02092 0.50391 0.59248
 C2038 C -0.01594 0.50381 0.57633
 H2039 H -0.06302 0.47695 0.63386
 H2040 H -0.02968 0.52212 0.65773
 H2041 H -0.04765 0.51957 0.68703
 H2042 H -0.08084 0.47407 0.66311
 C2043 C 0.43964 -0.01389 0.14630
 C2044 C 0.45414 -0.00042 0.14468
 C2045 C 0.45845 0.01133 0.15990
 C2046 C 0.44812 0.00980 0.17656
 C2047 C 0.43328 -0.00348 0.17818
 C2048 C 0.42929 -0.01542 0.16289
 C2049 C 0.46395 0.00165 0.12711
 C2050 C 0.47131 0.00294 0.11193
 C2051 C 0.47877 0.00376 0.09359
 C2052 C 0.48389 0.00366 0.07749
 H2053 H 0.43618 -0.02308 0.13463
 H2054 H 0.46957 0.02188 0.15881
 H2055 H 0.45139 0.01936 0.18798
 H2056 H 0.41815 -0.02595 0.16376
 C2057 C 0.36038 0.41518 -0.00232
 C2058 C 0.36154 0.43175 0.00849
 C2059 C 0.34523 0.43875 0.01736
 C2060 C 0.32790 0.42920 0.01550
 C2061 C 0.32662 0.41246 0.00473
 C2062 C 0.34309 0.40561 -0.00419
 C2063 C 0.37943 0.44161 0.01017
 C2064 C 0.39452 0.44971 0.01107
 C2065 C 0.41231 0.45906 0.01137
 C2066 C 0.42751 0.46697 0.01075
 H2067 H 0.37285 0.40967 -0.00937
 H2068 H 0.34591 0.45156 0.02576
 H2069 H 0.31557 0.43473 0.02275
 H2070 H 0.34259 0.39295 -0.01280
 C2071 C -0.14216 0.91565 0.49869
 C2072 C -0.14105 0.93208 0.50970
 C2073 C -0.15737 0.93891 0.51869
 C2074 C -0.17466 0.92930 0.51676
 C2075 C -0.17589 0.91269 0.50580
 C2076 C -0.15941 0.90602 0.49675
 C2077 C -0.12319 0.94199 0.51146
 C2078 C -0.10812 0.95010 0.51244
 C2079 C -0.09033 0.95945 0.51281
 C2080 C -0.07512 0.96733 0.51224
 H2081 H -0.12969 0.91027 0.49156
 H2082 H -0.15672 0.95162 0.52724
 H2083 H -0.18699 0.93469 0.52410
 H2084 H -0.15988 0.89346 0.48800
 C2085 C -0.14916 0.07570 1.00978
 C2086 C -0.14188 0.07110 0.99219
 C2087 C -0.15272 0.07498 0.97624
 C2088 C -0.17063 0.08360 0.97784
 C2089 C -0.17817 0.08868 0.99553
 C2090 C -0.16701 0.08434 1.01148
 C2091 C -0.12327 0.06251 0.99065
 C2092 C -0.10764 0.05534 0.98993
 C2093 C -0.08934 0.04687 0.98985
 C2094 C -0.07382 0.03950 0.99060
 H2095 H -0.14102 0.07257 1.02229
 H2096 H -0.14723 0.07157 0.96250
 H2097 H -0.17798 0.08698 0.96499
 H2098 H -0.17211 0.08697 1.02549
 C2099 C 0.35691 0.59005 0.49760
 C2100 C 0.35830 0.57176 0.48997
 C2101 C 0.34180 0.56239 0.48414
 C2102 C 0.32402 0.57124 0.48599
 C2103 C 0.32248 0.58959 0.49379
 C2104 C 0.33918 0.59890 0.49948
 C2105 C 0.37662 0.56249 0.48868
 C2106 C 0.39203 0.55484 0.48812
 C2107 C 0.41011 0.54589 0.48819
 C2108 C 0.42547 0.53818 0.48904
 H2109 H 0.36954 0.59748 0.50216
 H2110 H 0.34265 0.54818 0.47830
 H2111 H 0.31146 0.56359 0.48162
 H2112 H 0.33858 0.61315 0.50523
 C2113 C 0.15238 0.56360 0.51436
 C2114 C 0.13623 0.57101 0.50546
 C2115 C 0.13770 0.58776 0.49498
 C2116 C 0.15514 0.59712 0.49348
 C2117 C 0.17146 0.58987 0.50245
 C2118 C 0.16986 0.57294 0.51287
 C2119 C 0.11819 0.56133 0.50677
 C2120 C 0.10305 0.55330 0.50744
 C2121 C 0.08530 0.54384 0.50757
 C2122 C 0.07026 0.53563 0.50692
 H2123 H 0.15146 0.55064 0.52250
 H2124 H 0.12537 0.59359 0.48790
 H2125 H 0.15588 0.60994 0.48512
 H2126 H 0.18205 0.56709 0.52014
 C2127 C 0.65250 0.06406 0.01567
 C2128 C 0.63635 0.07135 0.00668
 C2129 C 0.63786 0.08790 -0.00411
 C2130 C 0.65532 0.09717 -0.00582
 C2131 C 0.67164 0.09003 0.00323
 C2132 C 0.67001 0.07331 0.01397
 C2133 C 0.61830 0.06174 0.00817
 C2134 C 0.60315 0.05374 0.00897
 C2135 C 0.58541 0.04427 0.00920
 C2136 C 0.57039 0.03602 0.00858
 H2137 H 0.65156 0.05125 0.02404
 H2138 H 0.62553 0.09364 -0.01126
 H2139 H 0.65609 0.10983 -0.01441
 H2140 H 0.68219 0.06755 0.02132
 C2141 C 0.65643 0.94140 0.48574
 C2142 C 0.63957 0.93270 0.49150
 C2143 C 0.64025 0.91443 0.49931
 C2144 C 0.65764 0.90494 0.50139
 C2145 C 0.67469 0.91356 0.49570
 C2146 C 0.67386 0.93191 0.48779
 C2147 C 0.62160 0.94261 0.48987
 C2148 C 0.60648 0.95079 0.48899
 C2149 C 0.58869 0.96030 0.48870
 C2150 C 0.57351 0.96838 0.48930
 H2151 H 0.65614 0.95557 0.47977
 H2152 H 0.62733 0.90752 0.50384
 H2153 H 0.65769 0.89072 0.50724
 H2154 H 0.68670 0.93905 0.48344
 C2155 C 0.14287 0.41552 0.99813
 C2156 C 0.14235 0.43371 0.99014
 C2157 C 0.15929 0.44219 0.98427
 C2158 C 0.17663 0.43255 0.98638
 C2159 C 0.17730 0.41428 0.99447
 C2160 C 0.16017 0.40588 1.00027
 C2161 C 0.12447 0.44377 0.98845
 C2162 C 0.10942 0.45208 0.98751
 C2163 C 0.09170 0.46172 0.98715
 C2164 C 0.07657 0.46989 0.98767
 H2165 H 0.12989 0.40878 1.00274
 H2166 H 0.15912 0.45630 0.97817
 H2167 H 0.18953 0.43952 0.98194
 H2168 H 0.16010 0.39173 1.00626
 C2169 C -0.00796 0.35321 0.41379
 C2170 C 0.00140 0.35472 0.43096
 C2171 C 0.01122 0.33910 0.43836
 C2172 C 0.01164 0.32191 0.42858
 C2173 C 0.00220 0.32024 0.41133
 C2174 C -0.00757 0.33606 0.40401
 C2175 C 0.00099 0.37243 0.44083
 C2176 C 0.00055 0.38746 0.44879
 C2177 C 0.00002 0.40522 0.45773
 C2178 C -0.00035 0.42054 0.46515
 H2179 H -0.01551 0.36529 0.40794
 H2180 H 0.01850 0.34020 0.45167
 H2181 H 0.01911 0.30988 0.43460
 H2182 H -0.01471 0.33524 0.39061
 C2183 C 0.51957 -0.15003 -0.07836
 C2184 C 0.50430 -0.14595 -0.06654
 C2185 C 0.48954 -0.15900 -0.06448
 C2186 C 0.48988 -0.17603 -0.07447
 C2187 C 0.50500 -0.18014 -0.08665
 C2188 C 0.51995 -0.16707 -0.08836
 C2189 C 0.50343 -0.12804 -0.05706
 C2190 C 0.50261 -0.11287 -0.04940
 C2191 C 0.50168 -0.09499 -0.04071
 C2192 C 0.50103 -0.07962 -0.03344
 H2193 H 0.53101 -0.13992 -0.08007
 H2194 H 0.47767 -0.15591 -0.05532
 H2195 H 0.47831 -0.18598 -0.07273
 H2196 H 0.53165 -0.16979 -0.09781
 C2197 C 0.01705 -0.15217 1.06072
 C2198 C 0.00635 -0.13673 1.06721
 C2199 C -0.00498 -0.13859 1.08312
 C2200 C -0.00563 -0.15589 1.09258
 C2201 C 0.00507 -0.17151 1.08621
 C2202 C 0.01642 -0.16952 1.07018
 C2203 C 0.00672 -0.11895 1.05754
 C2204 C 0.00659 -0.10384 1.04974
 C2205 C 0.00595 -0.08605 1.04094
 C2206 C 0.00506 -0.07073 1.03360
 H2207 H 0.02586 -0.15078 1.04840
 H2208 H -0.01338 -0.12669 1.08814
 H2209 H -0.01471 -0.15713 1.10472
 H2210 H 0.02492 -0.18131 1.06511
 C2211 C 0.51880 0.35676 0.57907
 C2212 C 0.50657 0.35971 0.56394
 C2213 C 0.49412 0.34537 0.55828
 C2214 C 0.49363 0.32817 0.56800
 C2215 C 0.50556 0.32525 0.58351
 C2216 C 0.51833 0.33959 0.58882
 C2217 C 0.50609 0.37783 0.55488
 C2218 C 0.50538 0.39319 0.54762
 C2219 C 0.50427 0.41126 0.53940
 C2220 C 0.50315 0.42674 0.53243
 H2221 H 0.52847 0.36783 0.58352
 H2222 H 0.48453 0.34763 0.54662
 H2223 H 0.48353 0.31742 0.56377
 H2224 H 0.52783 0.33757 0.60058
 C2225 C 0.50926 1.15017 0.57688
 C2226 C 0.49261 1.14427 0.56801
 C2227 C 0.47639 1.15581 0.56836
 C2228 C 0.47683 1.17329 0.57762
 C2229 C 0.49354 1.17934 0.58657
 C2230 C 0.50974 1.16761 0.58612
 C2231 C 0.49231 1.12631 0.55862
 C2232 C 0.49258 1.11117 0.55086
 C2233 C 0.49341 1.09344 0.54192
 C2234 C 0.49447 1.07825 0.53432
 H2235 H 0.52185 1.14125 0.57671
 H2236 H 0.46345 1.15131 0.56148
 H2237 H 0.46422 1.18215 0.57764
 H2238 H 0.52269 1.17179 0.59316
 C2239 C -0.00195 0.66365 1.05380
 C2240 C -0.00926 0.64747 1.06254
 C2241 C -0.01697 0.64872 1.08049
 C2242 C -0.01705 0.66610 1.08988
 C2243 C -0.00937 0.68238 1.08140
 C2244 C -0.00201 0.68106 1.06318
 C2245 C -0.00799 0.62935 1.05352
 C2246 C -0.00661 0.61403 1.04624
 C2247 C -0.00474 0.59604 1.03796
 C2248 C -0.00305 0.58063 1.03093
 H2249 H 0.00405 0.66275 1.03989
 H2250 H -0.02254 0.63620 1.08736
 H2251 H -0.02254 0.66665 1.10401
 H2252 H 0.00381 0.69345 1.05627
 C2253 C 0.52482 0.64242 -0.08517
 C2254 C 0.51557 0.64133 -0.06793
 C2255 C 0.50677 0.65743 -0.06034
 C2256 C 0.50678 0.67453 -0.07022
 C2257 C 0.51557 0.67564 -0.08781
 C2258 C 0.52484 0.65951 -0.09508
 C2259 C 0.51412 0.62342 -0.05857
 C2260 C 0.51246 0.60831 -0.05097
 C2261 C 0.51019 0.59058 -0.04229
 C2262 C 0.50817 0.57540 -0.03491
 H2263 H 0.53166 0.62998 -0.09112
 H2264 H 0.49949 0.65662 -0.04703
 H2265 H 0.49933 0.68668 -0.06442
 H2266 H 0.53189 0.66007 -0.10851
 C2267 C 0.01054 1.15794 0.44231
 C2268 C 0.01541 1.14087 0.43354
 C2269 C 0.02096 1.14080 0.41484
 C2270 C 0.02102 1.15770 0.40466
 C2271 C 0.01541 1.17508 0.41300
 C2272 C 0.01063 1.17493 0.43221
 C2273 C 0.01356 1.12324 0.44331
 C2274 C 0.01155 1.10827 0.45111
 C2275 C 0.00888 1.09064 0.45988
 C2276 C 0.00656 1.07548 0.46722
 H2277 H 0.00610 1.15804 0.45681
 H2278 H 0.02494 1.12761 0.40801
 H2279 H 0.02579 1.15701 0.39031
 H2280 H 0.00572 1.18758 0.43934
 C2281 C 0.76440 0.69841 0.90381
 C2282 C 0.74699 0.70554 0.89733
 C2283 C 0.73048 0.70233 0.90770
 C2284 C 0.73130 0.69174 0.92425
 C2285 C 0.74867 0.68413 0.93067
 C2286 C 0.76526 0.68782 0.92038
 C2287 C 0.74592 0.71501 0.87945
 C2288 C 0.74523 0.72216 0.86410
 C2289 C 0.74491 0.72944 0.84566
 C2290 C 0.74530 0.73448 0.82952
 H2291 H 0.77726 0.70067 0.89584
 H2292 H 0.71692 0.70772 0.90283
 H2293 H 0.71832 0.68942 0.93199
 H2294 H 0.77880 0.68201 0.92480
 C2295 C 0.25008 0.21071 0.41201
 C2296 C 0.24368 0.20222 0.39545
 C2297 C 0.23849 0.18303 0.39550
 C2298 C 0.23956 0.17237 0.41197
 C2299 C 0.24586 0.18075 0.42874
 C2300 C 0.25117 0.20005 0.42856
 C2301 C 0.24295 0.21279 0.37815
 C2302 C 0.24252 0.22068 0.36315
 C2303 C 0.24247 0.22863 0.34497
 C2304 C 0.24310 0.23407 0.32897
 H2305 H 0.25423 0.22554 0.41214
 H2306 H 0.23370 0.17623 0.38275
 H2307 H 0.23567 0.15749 0.41151
 H2308 H 0.25589 0.20697 0.44125
 C2309 C 0.74027 0.28627 0.41347
 C2310 C 0.75096 0.29278 0.39828
 C2311 C 0.76018 0.31034 0.39942
 C2312 C 0.75860 0.32145 0.41554
 C2313 C 0.74773 0.31519 0.43082
 C2314 C 0.73871 0.29738 0.42968
 C2315 C 0.75175 0.28213 0.38106
 C2316 C 0.75230 0.27426 0.36607
 C2317 C 0.75264 0.26644 0.34787
 C2318 C 0.75249 0.26120 0.33180
 H2319 H 0.73294 0.27277 0.41270
 H2320 H 0.76845 0.31555 0.38774
 H2321 H 0.76599 0.33492 0.41608
 H2322 H 0.73013 0.29223 0.44115
 C2323 C 0.25932 0.78864 0.91344
 C2324 C 0.24759 0.79281 0.89815
 C2325 C 0.23448 0.80779 0.89936
 C2326 C 0.23330 0.81877 0.91562
 C2327 C 0.24525 0.81494 0.93095
 C2328 C 0.25813 0.79959 0.92976
 C2329 C 0.24949 0.78251 0.88081
 C2330 C 0.25076 0.77483 0.86576
 C2331 C 0.25173 0.76716 0.84751
 C2332 C 0.25198 0.76198 0.83143
 H2333 H 0.26960 0.77716 0.91263
 H2334 H 0.22533 0.81117 0.88761
 H2335 H 0.22307 0.83030 0.91617
 H2336 H 0.26767 0.79642 0.94124
 C2337 C 0.23316 0.81510 0.10406
 C2338 C 0.24279 0.79772 0.10492
 C2339 C 0.25361 0.79172 0.08964
 C2340 C 0.25477 0.80305 0.07355
 C2341 C 0.24507 0.82070 0.07235
 C2342 C 0.23426 0.82646 0.08808
 C2343 C 0.24218 0.78673 0.12194
 C2344 C 0.24171 0.77858 0.13679
 C2345 C 0.24144 0.77048 0.15489
 C2346 C 0.24172 0.76509 0.17091
 H2347 H 0.22501 0.82009 0.11595
 H2348 H 0.26119 0.77828 0.09014
 H2349 H 0.26281 0.79744 0.06192
 H2350 H 0.22717 0.84012 0.08864
 C2351 C 0.73425 0.31374 0.60433
 C2352 C 0.74387 0.29634 0.60495
 C2353 C 0.75446 0.29043 0.58948
 C2354 C 0.75539 0.30185 0.57344
 C2355 C 0.74569 0.31953 0.57248
 C2356 C 0.73512 0.32520 0.58840
 C2357 C 0.74351 0.28524 0.62192
 C2358 C 0.74324 0.27701 0.63673
 C2359 C 0.74323 0.26880 0.65479
 C2360 C 0.74372 0.26332 0.67077
 H2361 H 0.72628 0.31866 0.61636
 H2362 H 0.76202 0.27697 0.58979
 H2363 H 0.76325 0.29631 0.56166
 H2364 H 0.72806 0.33886 0.58914
 C2365 C 0.24292 0.21104 0.59147
 C2366 C 0.25361 0.20363 0.60634
 C2367 C 0.26252 0.18590 0.60442
 C2368 C 0.26062 0.17553 0.58786
 C2369 C 0.24973 0.18270 0.57290
 C2370 C 0.24104 0.20068 0.57482
 C2371 C 0.25472 0.21353 0.62397
 C2372 C 0.25546 0.22086 0.63923
 C2373 C 0.25594 0.22818 0.65765
 C2374 C 0.25580 0.23313 0.67381
 H2375 H 0.23583 0.22468 0.59283
 H2376 H 0.27080 0.17999 0.61582
 H2377 H 0.26778 0.16191 0.58672
 H2378 H 0.23245 0.20653 0.56363
 C2379 C 0.75914 0.68243 0.10671
 C2380 C 0.75470 0.70180 0.10726
 C2381 C 0.74846 0.71094 0.09100
 C2382 C 0.74665 0.70073 0.07426
 C2383 C 0.75094 0.68102 0.07342
 C2384 C 0.75731 0.67216 0.09009
 C2385 C 0.75594 0.71192 0.12478
 C2386 C 0.75672 0.71945 0.13994
 C2387 C 0.75714 0.72702 0.15826
 C2388 C 0.75685 0.73221 0.17435
 H2389 H 0.76407 0.67519 0.11920
 H2390 H 0.74475 0.72591 0.09130
 H2391 H 0.74111 0.70833 0.06229
 H2392 H 0.76167 0.65740 0.09040
 C2393 C 0.18707 0.59550 0.25240
 C2394 C 0.18017 0.60973 0.24044
 C2395 C 0.16373 0.60642 0.22993
 C2396 C 0.15415 0.58907 0.23149
 C2397 C 0.16085 0.57474 0.24363
 C2398 C 0.17752 0.57812 0.25397
 C2399 C 0.18961 0.62792 0.23937
 C2400 C 0.19736 0.64323 0.23885
 C2401 C 0.20637 0.66122 0.23887
 C2402 C 0.21403 0.67657 0.23964
 H2403 H 0.19973 0.59790 0.26068
 H2404 H 0.15823 0.61728 0.22061
 H2405 H 0.14155 0.58685 0.22310
 H2406 H 0.18296 0.56750 0.26357
 C2407 C 0.68928 0.09315 0.74909
 C2408 C 0.68026 0.10897 0.74115
 C2409 C 0.66156 0.10734 0.73487
 C2410 C 0.65185 0.09010 0.73660
 C2411 C 0.66061 0.07388 0.74474
 C2412 C 0.67966 0.07583 0.75084
 C2413 C 0.68998 0.12700 0.73992
 C2414 C 0.69799 0.14218 0.73927
 C2415 C 0.70730 0.16002 0.73913
 C2416 C 0.71524 0.17523 0.73978
 H2417 H 0.70372 0.09425 0.75419
 H2418 H 0.65442 0.11945 0.72857
 H2419 H 0.63767 0.08955 0.73086
 H2420 H 0.68710 0.06433 0.75775
 C2421 C 0.81130 0.09067 0.26733
 C2422 C 0.82024 0.10755 0.26187
 C2423 C 0.83856 0.10676 0.25434
 C2424 C 0.84786 0.08926 0.25220
 C2425 C 0.83897 0.07218 0.25755
 C2426 C 0.82059 0.07312 0.26523
 C2427 C 0.81051 0.12563 0.26341
 C2428 C 0.80246 0.14084 0.26415
 C2429 C 0.79307 0.15872 0.26424
 C2430 C 0.78503 0.17394 0.26345
 H2431 H 0.79708 0.09105 0.27308
 H2432 H 0.84566 0.11969 0.25005
 H2433 H 0.86211 0.08911 0.24655
 H2434 H 0.81327 0.06026 0.26932
 C2435 C 0.31143 0.59146 0.76747
 C2436 C 0.32043 0.60826 0.76187
 C2437 C 0.33868 0.60732 0.75419
 C2438 C 0.34784 0.58975 0.75203
 C2439 C 0.33889 0.57276 0.75750
 C2440 C 0.32058 0.57384 0.76534
 C2441 C 0.31082 0.62640 0.76342
 C2442 C 0.30285 0.64166 0.76416
 C2443 C 0.29353 0.65957 0.76422
 C2444 C 0.28553 0.67480 0.76339
 H2445 H 0.29726 0.59195 0.77333
 H2446 H 0.34582 0.62020 0.74980
 H2447 H 0.36204 0.58950 0.74625
 H2448 H 0.31321 0.56105 0.76953
 C2449 C 0.33869 0.38916 0.73608
 C2450 C 0.32025 0.38720 0.74292
 C2451 C 0.31122 0.40286 0.75112
 C2452 C 0.32059 0.42034 0.75261
 C2453 C 0.33940 0.42261 0.74596
 C2454 C 0.34816 0.40658 0.73755
 C2455 C 0.31080 0.36900 0.74201
 C2456 C 0.30298 0.35372 0.74163
 C2457 C 0.29384 0.33579 0.74181
 C2458 C 0.28599 0.32055 0.74267
 H2459 H 0.34582 0.37719 0.72957
 H2460 H 0.29698 0.40150 0.75665
 H2461 H 0.31318 0.43169 0.75976
 H2462 H 0.36214 0.40739 0.73142
 C2463 C 0.81456 0.90086 0.25508
 C2464 C 0.82137 0.88668 0.24302
 C2465 C 0.83754 0.89017 0.23222
 C2466 C 0.84694 0.90764 0.23357
 C2467 C 0.84033 0.92193 0.24579
 C2468 C 0.82393 0.91835 0.25644
 C2469 C 0.81205 0.86842 0.24211
 C2470 C 0.80427 0.85312 0.24173
 C2471 C 0.79510 0.83520 0.24190
 C2472 C 0.78714 0.82002 0.24276
 H2473 H 0.80211 0.89832 0.26358
 H2474 H 0.84295 0.87936 0.22282
 H2475 H 0.85933 0.91000 0.22495
 H2476 H 0.81858 0.92892 0.26613
 C2477 C 0.68715 0.90491 0.76812
 C2478 C 0.68083 0.88889 0.75838
 C2479 C 0.66505 0.89049 0.74662
 C2480 C 0.65563 0.90794 0.74456
 C2481 C 0.66176 0.92441 0.75427
 C2482 C 0.67776 0.92242 0.76615
 C2483 C 0.69066 0.87087 0.76008
 C2484 C 0.69881 0.85571 0.76096
 C2485 C 0.70832 0.83790 0.76124
 C2486 C 0.71648 0.82274 0.76065
 H2487 H 0.69949 0.90393 0.77714
 H2488 H 0.65992 0.87817 0.73907
 H2489 H 0.64309 0.90806 0.73585
 H2490 H 0.68369 0.93445 0.77350
 C2491 C 0.16131 0.39015 0.25027
 C2492 C 0.17949 0.38922 0.25815
 C2493 C 0.18840 0.40600 0.26396
 C2494 C 0.17919 0.42360 0.26189
 C2495 C 0.16092 0.42468 0.25391
 C2496 C 0.15209 0.40771 0.24817
 C2497 C 0.18914 0.37109 0.25978
 C2498 C 0.19719 0.35588 0.26067
 C2499 C 0.20666 0.33805 0.26098
 C2500 C 0.21484 0.32290 0.26042
 H2501 H 0.15425 0.37729 0.24571
 H2502 H 0.20252 0.40551 0.26998
 H2503 H 0.18649 0.43637 0.26628
 H2504 H 0.13793 0.40797 0.24226
 C2505 C 0.09729 0.22708 0.81990
 C2506 C 0.10909 0.24304 0.81967
 C2507 C 0.10331 0.25995 0.82825
 C2508 C 0.08572 0.26098 0.83704
 C2509 C 0.07370 0.24506 0.83732
 C2510 C 0.07965 0.22807 0.82872
 C2511 C 0.12714 0.24226 0.81060
 C2512 C 0.14236 0.24221 0.80310
 C2513 C 0.16017 0.24273 0.79441
 C2514 C 0.17542 0.24354 0.78702
 H2515 H 0.10170 0.21394 0.81323
 H2516 H 0.11243 0.27234 0.82816
 H2517 H 0.08161 0.27414 0.84384
 H2518 H 0.07057 0.21567 0.82864
 C2519 C 0.60075 0.76413 0.32461
 C2520 C 0.60642 0.74755 0.31536
 C2521 C 0.59437 0.73181 0.31463
 C2522 C 0.57669 0.73258 0.32336
 C2523 C 0.57095 0.74914 0.33288
 C2524 C 0.58310 0.76494 0.33334
 C2525 C 0.62478 0.74666 0.30693
 C2526 C 0.64029 0.74623 0.30005
 C2527 C 0.65846 0.74610 0.29211
 C2528 C 0.67400 0.74629 0.28528
 H2529 H 0.61007 0.77635 0.32527
 H2530 H 0.59869 0.71893 0.30744
 H2531 H 0.56750 0.72029 0.32266
 H2532 H 0.57914 0.77776 0.34081
 C2533 C 0.60645 0.26357 0.16635
 C2534 C 0.60919 0.25190 0.18196
 C2535 C 0.59466 0.23995 0.18810
 C2536 C 0.57740 0.23955 0.17855
 C2537 C 0.57457 0.25110 0.16274
 C2538 C 0.58921 0.26319 0.15677
 C2539 C 0.62706 0.25187 0.19144
 C2540 C 0.64210 0.25163 0.19930
 C2541 C 0.65970 0.25109 0.20843
 C2542 C 0.67475 0.25042 0.21626
 H2543 H 0.61766 0.27287 0.16155
 H2544 H 0.59675 0.23082 0.20015
 H2545 H 0.56642 0.22996 0.18329
 H2546 H 0.58728 0.27240 0.14477
 C2547 C 0.10688 0.76405 0.66551
 C2548 C 0.10987 0.75196 0.68076
 C2549 C 0.09558 0.73956 0.68657
 C2550 C 0.07831 0.73914 0.67705
 C2551 C 0.07521 0.75114 0.66160
 C2552 C 0.08962 0.76365 0.65596
 C2553 C 0.12773 0.75200 0.69025
 C2554 C 0.14275 0.75180 0.69817
 C2555 C 0.16030 0.75132 0.70742
 C2556 C 0.17529 0.75071 0.71535
 H2557 H 0.11791 0.77371 0.66097
 H2558 H 0.09786 0.73010 0.69834
 H2559 H 0.06752 0.72921 0.68153
 H2560 H 0.08748 0.77320 0.64424
 C2561 C 0.90504 0.76133 0.68283
 C2562 C 0.89640 0.74422 0.68766
 C2563 C 0.90483 0.72693 0.68277
 C2564 C 0.92180 0.72673 0.67275
 C2565 C 0.93067 0.74392 0.66737
 C2566 C 0.92200 0.76124 0.67283
 C2567 C 0.87846 0.74451 0.69699
 C2568 C 0.86322 0.74503 0.70445
 C2569 C 0.84524 0.74589 0.71280
 C2570 C 0.82977 0.74675 0.71973
 H2571 H 0.89845 0.77481 0.68643
 H2572 H 0.89823 0.71359 0.68661
 H2573 H 0.92807 0.71300 0.66974
 H2574 H 0.92759 0.77488 0.66863
 C2575 C 0.40171 0.26361 0.17923
 C2576 C 0.39565 0.24705 0.18820
 C2577 C 0.40661 0.23044 0.18730
 C2578 C 0.42355 0.23032 0.17722
 C2579 C 0.42964 0.24685 0.16795
 C2580 C 0.41862 0.26353 0.16916
 C2581 C 0.37779 0.24701 0.19767
 C2582 C 0.36258 0.24720 0.20518
 C2583 C 0.34459 0.24766 0.21353
 C2584 C 0.32907 0.24819 0.22039
 H2585 H 0.39321 0.27649 0.17978
 H2586 H 0.40196 0.21756 0.19422
 H2587 H 0.43189 0.21735 0.17667
 H2588 H 0.42284 0.27637 0.16192
 C2589 C 0.39310 0.77559 0.32865
 C2590 C 0.39023 0.76375 0.31322
 C2591 C 0.40490 0.75207 0.30670
 C2592 C 0.42235 0.75184 0.31594
 C2593 C 0.42518 0.76326 0.33181
 C2594 C 0.41052 0.77538 0.33792
 C2595 C 0.37187 0.76269 0.30479
 C2596 C 0.35637 0.76134 0.29799
 C2597 C 0.33825 0.75937 0.29017
 C2598 C 0.32279 0.75749 0.28340
 H2599 H 0.38176 0.78467 0.33376
 H2600 H 0.40270 0.74279 0.29480
 H2601 H 0.43335 0.74223 0.31110
 H2602 H 0.41246 0.78448 0.34999
 C2603 C 0.89661 0.27371 0.82619
 C2604 C 0.89363 0.26043 0.81195
 C2605 C 0.90805 0.24770 0.80691
 C2606 C 0.92531 0.24790 0.81648
 C2607 C 0.92821 0.26079 0.83122
 C2608 C 0.91384 0.27392 0.83578
 C2609 C 0.87538 0.25907 0.80335
 C2610 C 0.85990 0.25762 0.79652
 C2611 C 0.84172 0.25570 0.78880
 C2612 C 0.82617 0.25400 0.78219
 H2613 H 0.88547 0.28360 0.83014
 H2614 H 0.90577 0.23732 0.79595
 H2615 H 0.93609 0.23751 0.81284
 H2616 H 0.91585 0.28414 0.84694
 C2617 C 0.56457 0.99952 0.64411
 C2618 C 0.54831 1.01103 0.64360
 C2619 C 0.54209 1.02006 0.65995
 C2620 C 0.55220 1.01769 0.67670
 C2621 C 0.56870 1.00628 0.67727
 C2622 C 0.57468 0.99716 0.66078
 C2623 C 0.53833 1.01353 0.62614
 C2624 C 0.53083 1.01497 0.61100
 C2625 C 0.52323 1.01571 0.59270
 C2626 C 0.51796 1.01533 0.57664
 H2627 H 0.56949 0.99240 0.63158
 H2628 H 0.52955 1.02903 0.65974
 H2629 H 0.54734 1.02507 0.68909
 H2630 H 0.58713 0.98806 0.66079
 C2631 C 0.04090 0.50762 1.15769
 C2632 C 0.05014 0.51523 1.14216
 C2633 C 0.06922 0.52022 1.14357
 C2634 C 0.07915 0.51745 1.16028
 C2635 C 0.07030 0.50946 1.17629
 C2636 C 0.05073 0.50483 1.17452
 C2637 C 0.04052 0.51699 1.12441
 C2638 C 0.03332 0.51799 1.10910
 C2639 C 0.02603 0.51839 1.09067
 C2640 C 0.02095 0.51781 1.07455
 H2641 H 0.02615 0.50343 1.15669
 H2642 H 0.07652 0.52626 1.13165
 H2643 H 0.09361 0.52247 1.16047
 H2644 H 0.04291 0.49801 1.18560
 C2645 C -0.04014 -0.01450 1.16103
 C2646 C -0.04884 -0.00931 1.14421
 C2647 C -0.06756 -0.00269 1.14433
 C2648 C -0.07761 -0.00132 1.16109
 C2649 C -0.06920 -0.00658 1.17834
 C2650 C -0.05014 -0.01314 1.17791
 C2651 C -0.03876 -0.01046 1.12669
 C2652 C -0.03122 -0.01085 1.11155
 C2653 C -0.02358 -0.01048 1.09328
 C2654 C -0.01826 -0.00928 1.07728
 H2655 H -0.02565 -0.01973 1.16111
 H2656 H -0.07439 0.00161 1.13141
 H2657 H -0.09177 0.00463 1.16035
 H2658 H -0.04297 -0.01801 1.19040
 C2659 C 0.43358 0.50141 0.64463
 C2660 C 0.45001 0.49021 0.64343
 C2661 C 0.45666 0.48060 0.65931
 C2662 C 0.44683 0.48210 0.67628
 C2663 C 0.43018 0.49321 0.67754
 C2664 C 0.42374 0.50291 0.66152
 C2665 C 0.45974 0.48864 0.62576
 C2666 C 0.46708 0.48794 0.61053
 C2667 C 0.47460 0.48800 0.59221
 C2668 C 0.47989 0.48898 0.57619
 H2669 H 0.42832 0.50897 0.63246
 H2670 H 0.46934 0.47186 0.65856
 H2671 H 0.45205 0.47430 0.68830
 H2672 H 0.41116 0.51180 0.66207
 C2673 C 0.43444 0.50111 -0.14382
 C2674 C 0.45258 0.50916 -0.14388
 C2675 C 0.46070 0.51488 -0.16082
 C2676 C 0.45068 0.51258 -0.17761
 C2677 C 0.43242 0.50446 -0.17767
 C2678 C 0.42443 0.49878 -0.16054
 C2679 C 0.46267 0.51128 -0.12644
 C2680 C 0.47024 0.51244 -0.11133
 C2681 C 0.47792 0.51293 -0.09305
 C2682 C 0.48324 0.51242 -0.07701
 H2683 H 0.42798 0.49667 -0.13080
 H2684 H 0.47475 0.52107 -0.16106
 H2685 H 0.45730 0.51693 -0.19057
 H2686 H 0.41031 0.49280 -0.16002
 C2687 C -0.04007 1.01508 0.34056
 C2688 C -0.04847 1.00929 0.35734
 C2689 C -0.06656 1.00113 0.35706
 C2690 C -0.07623 0.99874 0.34016
 C2691 C -0.06795 1.00447 0.32319
 C2692 C -0.04975 1.01271 0.32358
 C2693 C -0.03872 1.01144 0.37497
 C2694 C -0.03141 1.01262 0.39021
 C2695 C -0.02400 1.01312 0.40859
 C2696 C -0.01886 1.01262 0.42469
 H2697 H -0.02605 1.02135 0.34058
 H2698 H -0.07324 0.99663 0.36996
 H2699 H -0.09032 0.99266 0.34042
 H2700 H -0.04292 1.01711 0.31075
 C2701 C 0.06669 0.49372 0.35405
 C2702 C 0.04841 0.48600 0.35401
 C2703 C 0.03992 0.48091 0.33702
 C2704 C 0.04968 0.48355 0.32017
 C2705 C 0.06806 0.49139 0.32009
 C2706 C 0.07645 0.49639 0.33726
 C2707 C 0.03850 0.48374 0.37151
 C2708 C 0.03102 0.48254 0.38664
 C2709 C 0.02337 0.48216 0.40491
 C2710 C 0.01798 0.48290 0.42091
 H2711 H 0.07344 0.49769 0.36709
 H2712 H 0.02574 0.47499 0.33680
 H2713 H 0.04276 0.47971 0.30718
 H2714 H 0.09067 0.50214 0.33775
 C2715 C 0.54808 0.00328 -0.15426
 C2716 C 0.54752 -0.01456 -0.14554
 C2717 C 0.55676 -0.03008 -0.15383
 C2718 C 0.56669 -0.02774 -0.17061
 C2719 C 0.56759 -0.00978 -0.17931
 C2720 C 0.55801 0.00566 -0.17101
 C2721 C 0.53850 -0.01655 -0.12756
 C2722 C 0.53154 -0.01759 -0.11217
 C2723 C 0.52427 -0.01788 -0.09375
 C2724 C 0.51901 -0.01711 -0.07771
 H2725 H 0.54105 0.01543 -0.14795
 H2726 H 0.55659 -0.04392 -0.14714
 H2727 H 0.57410 -0.03986 -0.17649
 H2728 H 0.55821 0.01960 -0.17746
 C2729 C 0.65707 0.55798 0.00117
 C2730 C 0.64190 0.56630 -0.00861
 C2731 C 0.64410 0.58440 -0.01646
 C2732 C 0.66122 0.59421 -0.01440
 C2733 C 0.67648 0.58610 -0.00439
 C2734 C 0.67425 0.56777 0.00323
 C2735 C 0.62383 0.55670 -0.00993
 C2736 C 0.60851 0.54903 -0.01061
 C2737 C 0.59035 0.54040 -0.01070
 C2738 C 0.57475 0.53334 -0.00990
 H2739 H 0.65554 0.54402 0.00742
 H2740 H 0.63250 0.59103 -0.02405
 H2741 H 0.66254 0.60814 -0.02072
 H2742 H 0.68562 0.56118 0.01115
 C2743 C 0.14186 1.08386 0.48509
 C2744 C 0.13966 1.06588 0.49321
 C2745 C 0.15481 1.05772 0.50315
 C2746 C 0.17198 1.06755 0.50509
 C2747 C 0.17422 1.08576 0.49719
 C2748 C 0.15897 1.09371 0.48704
 C2749 C 0.12161 1.05625 0.49197
 C2750 C 0.10630 1.04856 0.49133
 C2751 C 0.08815 1.03993 0.49126
 C2752 C 0.07253 1.03290 0.49204
 H2753 H 0.13028 1.09036 0.47738
 H2754 H 0.15327 1.04387 0.50960
 H2755 H 0.18334 1.06109 0.51312
 H2756 H 0.16030 1.10753 0.48049
 C2757 C 0.14014 -0.08130 0.99704
 C2758 C 0.13970 -0.06397 1.00659
 C2759 C 0.15658 -0.05653 1.01379
 C2760 C 0.17375 -0.06644 1.01164
 C2761 C 0.17448 -0.08421 1.00225
 C2762 C 0.15721 -0.09128 0.99486
 C2763 C 0.12190 -0.05387 1.00869
 C2764 C 0.10675 -0.04581 1.00990
 C2765 C 0.08873 -0.03675 1.01046
 C2766 C 0.07323 -0.02931 1.00996
 H2767 H 0.12723 -0.08711 0.99113
 H2768 H 0.15645 -0.04311 1.02126
 H2769 H 0.18620 -0.06039 1.01814
 H2770 H 0.15672 -0.10425 0.98676
 C2771 C 0.63978 0.41469 0.51236
 C2772 C 0.63870 0.43410 0.50833
 C2773 C 0.65502 0.44367 0.50247
 C2774 C 0.67229 0.43386 0.50052
 C2775 C 0.67365 0.41409 0.50428
 C2776 C 0.65694 0.40481 0.51041
 C2777 C 0.62067 0.44394 0.50962
 C2778 C 0.60536 0.45178 0.51029
 C2779 C 0.58722 0.46061 0.51038
 C2780 C 0.57165 0.46790 0.50958
 H2781 H 0.62729 0.40711 0.51704
 H2782 H 0.65435 0.45869 0.49912
 H2783 H 0.68424 0.44182 0.49527
 H2784 H 0.65700 0.38998 0.51441
 C2785 C -0.14208 0.40789 0.48683
 C2786 C -0.14015 0.42724 0.49099
 C2787 C -0.15603 0.43764 0.49703
 C2788 C -0.17374 0.42876 0.49877
 C2789 C -0.17584 0.40932 0.49446
 C2790 C -0.15973 0.39900 0.48854
 C2791 C -0.12179 0.43625 0.48943
 C2792 C -0.10632 0.44360 0.48845
 C2793 C -0.08810 0.45211 0.48797
 C2794 C -0.07257 0.45938 0.48846
 H2795 H -0.12991 0.39962 0.48231
 H2796 H -0.15474 0.45262 0.50036
 H2797 H -0.18584 0.43717 0.50319
 H2798 H -0.16072 0.38396 0.48543
 C2799 C 0.34897 -0.07493 -0.02483
 C2800 C 0.36005 -0.07206 -0.00882
 C2801 C 0.35300 -0.07755 0.00867
 C2802 C 0.33510 -0.08605 0.01013
 C2803 C 0.32395 -0.08924 -0.00591
 C2804 C 0.33108 -0.08344 -0.02340
 C2805 C 0.37868 -0.06362 -0.01030
 C2806 C 0.39431 -0.05659 -0.01116
 C2807 C 0.41263 -0.04830 -0.01146
 C2808 C 0.42819 -0.04111 -0.01080
 H2809 H 0.35418 -0.07068 -0.03844
 H2810 H 0.36142 -0.07543 0.02118
 H2811 H 0.33020 -0.09053 0.02377
 H2812 H 0.32278 -0.08541 -0.03601
 C2813 C 0.34312 1.06058 0.50161
 C2814 C 0.35926 1.07024 0.50796
 C2815 C 0.35780 1.08947 0.51285
 C2816 C 0.34035 1.09897 0.51153
 C2817 C 0.32399 1.08938 0.50529
 C2818 C 0.32561 1.07007 0.50026
 C2819 C 0.37743 1.06064 0.50909
 C2820 C 0.39280 1.05294 0.50975
 C2821 C 0.41099 1.04422 0.50992
 C2822 C 0.42660 1.03703 0.50922
 H2823 H 0.34405 1.04570 0.49771
 H2824 H 0.37018 1.09718 0.51762
 H2825 H 0.33971 1.11390 0.51521
 H2826 H 0.31330 1.06222 0.49559
 C2827 C -0.13971 0.59038 1.01184
 C2828 C -0.13799 0.57134 1.00631
 C2829 C -0.15399 0.56170 0.99961
 C2830 C -0.17162 0.57100 0.99855
 C2831 C -0.17350 0.59011 1.00422
 C2832 C -0.15728 0.59968 1.01081
 C2833 C -0.11971 0.56194 1.00719
 C2834 C -0.10425 0.55438 1.00768
 C2835 C -0.08599 0.54582 1.00770
 C2836 C -0.07033 0.53874 1.00693
 H2837 H -0.12743 0.59807 1.01690
 H2838 H -0.15286 0.54698 0.99523
 H2839 H -0.18382 0.56315 0.99359
 H2840 H -0.15811 0.61447 1.01498
 C2841 C 0.02443 0.64609 0.56470
 C2842 C 0.01039 0.64155 0.55164
 C2843 C -0.00354 0.65495 0.54687
 C2844 C -0.00385 0.67266 0.55570
 C2845 C 0.00973 0.67702 0.56944
 C2846 C 0.02414 0.66375 0.57355
 C2847 C 0.00941 0.62265 0.54430
 C2848 C 0.00825 0.60660 0.53870
 C2849 C 0.00659 0.58774 0.53250
 C2850 C 0.00500 0.57164 0.52717
 H2851 H 0.03526 0.63576 0.56845
 H2852 H -0.01452 0.65147 0.53682
 H2853 H -0.01519 0.68258 0.55242
 H2854 H 0.03489 0.66689 0.58393
 C2855 C 0.52277 0.14568 0.06711
 C2856 C 0.50911 0.14130 0.05361
 C2857 C 0.49546 0.15484 0.04844
 C2858 C 0.49508 0.17256 0.05725
 C2859 C 0.50830 0.17679 0.07137
 C2860 C 0.52240 0.16335 0.07594
 C2861 C 0.50827 0.12246 0.04612
 C2862 C 0.50728 0.10645 0.04037
 C2863 C 0.50586 0.08764 0.03400
 C2864 C 0.50451 0.07155 0.02855
 H2865 H 0.53338 0.13524 0.07117
 H2866 H 0.48478 0.15148 0.03805
 H2867 H 0.48398 0.18262 0.05361
 H2868 H 0.53289 0.16639 0.08661
 C2869 C -0.03188 0.15301 0.93116
 C2870 C -0.01914 0.14857 0.94552
 C2871 C -0.00599 0.16207 0.95164
 C2872 C -0.00500 0.17974 0.94284
 C2873 C -0.01713 0.18399 0.92777
 C2874 C -0.03092 0.17068 0.92234
 C2875 C -0.01822 0.12959 0.95268
 C2876 C -0.01667 0.11354 0.95822
 C2877 C -0.01413 0.09478 0.96445
 C2878 C -0.01152 0.07883 0.96989
 H2879 H -0.04207 0.14259 0.92634
 H2880 H 0.00401 0.15864 0.96268
 H2881 H 0.00588 0.18966 0.94715
 H2882 H -0.04058 0.17373 0.91092
 C2883 C 0.47746 0.65961 0.44571
 C2884 C 0.48606 0.64381 0.43730
 C2885 C 0.49537 0.64570 0.42018
 C2886 C 0.49615 0.66337 0.41144
 C2887 C 0.48757 0.67937 0.41972
 C2888 C 0.47823 0.67737 0.43696
 C2889 C 0.48587 0.62562 0.44625
 C2890 C 0.48640 0.61012 0.45325
 C2891 C 0.48774 0.59183 0.46099
 C2892 C 0.48939 0.57615 0.46742
 H2893 H 0.47026 0.65822 0.45901
 H2894 H 0.50218 0.63353 0.41367
 H2895 H 0.50374 0.66457 0.39834
 H2896 H 0.47140 0.68947 0.44354
 C2897 C 0.52087 0.84631 0.44804
 C2898 C 0.51949 0.86296 0.43738
 C2899 C 0.51646 0.86193 0.41810
 C2900 C 0.51401 0.84432 0.40956
 C2901 C 0.51455 0.82756 0.42025
 C2902 C 0.51852 0.82860 0.43948
 C2903 C 0.51910 0.88119 0.44623
 C2904 C 0.51767 0.89670 0.45309
 C2905 C 0.51500 0.91494 0.46061
 C2906 C 0.51221 0.93053 0.46686
 H2907 H 0.52307 0.84705 0.46302
 H2908 H 0.51531 0.87477 0.40977
 H2909 H 0.51124 0.84379 0.39467
 H2910 H 0.51892 0.81583 0.44795
 C2911 C 0.01890 0.36306 0.91666
 C2912 C 0.02152 0.36432 0.93599
 C2913 C 0.02240 0.34782 0.94691
 C2914 C 0.01999 0.33004 0.93854
 C2915 C 0.01650 0.32874 0.91924
 C2916 C 0.01642 0.34535 0.90831
 C2917 C 0.02128 0.38265 0.94464
 C2918 C 0.02003 0.39820 0.95145
 C2919 C 0.01759 0.41645 0.95899
 C2920 C 0.01499 0.43206 0.96527
 H2921 H 0.01814 0.37580 0.90815
 H2922 H 0.02426 0.34875 0.96192
 H2923 H 0.02000 0.31741 0.94722
 H2924 H 0.01403 0.34465 0.89336
 C2925 C 0.48794 0.35935 0.08279
 C2926 C 0.48297 0.36111 0.06396
 C2927 C 0.47942 0.34489 0.05318
 C2928 C 0.48139 0.32683 0.06115
 C2929 C 0.48709 0.32496 0.07990
 C2930 C 0.48998 0.34137 0.09075
 C2931 C 0.48317 0.37953 0.05547
 C2932 C 0.48433 0.39509 0.04866
 C2933 C 0.48662 0.41327 0.04093
 C2934 C 0.48912 0.42875 0.03435
 H2935 H 0.49075 0.37186 0.09120
 H2936 H 0.47569 0.34618 0.03853
 H2937 H 0.47918 0.31437 0.05252
 H2938 H 0.49408 0.34027 0.10531
 C2939 C -0.01496 0.85896 0.58389
 C2940 C -0.01988 0.86085 0.56505
 C2941 C -0.02306 0.84469 0.55408
 C2942 C -0.02074 0.82658 0.56184
 C2943 C -0.01503 0.82459 0.58057
 C2944 C -0.01256 0.84092 0.59163
 C2945 C -0.01982 0.87936 0.55673
 C2946 C -0.01872 0.89497 0.55003
 C2947 C -0.01642 0.91319 0.54240
 C2948 C -0.01386 0.92870 0.53587
 H2949 H -0.01241 0.87142 0.59245
 H2950 H -0.02674 0.84608 0.53942
 H2951 H -0.02263 0.81418 0.55304
 H2952 H -0.00846 0.83972 0.60619
 C2953 C 0.25243 0.31757 0.10712
 C2954 C 0.26400 0.30133 0.10775
 C2955 C 0.27297 0.29499 0.09143
 C2956 C 0.27044 0.30490 0.07459
 C2957 C 0.25891 0.32133 0.07388
 C2958 C 0.24989 0.32749 0.09036
 C2959 C 0.26649 0.29140 0.12526
 C2960 C 0.26785 0.28383 0.14037
 C2961 C 0.26837 0.27602 0.15860
 C2962 C 0.26765 0.27047 0.17456
 H2963 H 0.24533 0.32258 0.11963
 H2964 H 0.28198 0.28246 0.09172
 H2965 H 0.27777 0.29992 0.06222
 H2966 H 0.24072 0.33989 0.09026
 C2967 C 0.75114 0.81623 0.60731
 C2968 C 0.76296 0.80017 0.60773
 C2969 C 0.77191 0.79411 0.59130
 C2970 C 0.76913 0.80414 0.57456
 C2971 C 0.75737 0.82041 0.57407
 C2972 C 0.74835 0.82627 0.59065
 C2973 C 0.76577 0.79017 0.62515
 C2974 C 0.76739 0.78259 0.64023
 C2975 C 0.76821 0.77480 0.65846
 C2976 C 0.76773 0.76933 0.67446
 H2977 H 0.74406 0.82104 0.61991
 H2978 H 0.78112 0.78172 0.59143
 H2979 H 0.77645 0.79938 0.56211
 H2980 H 0.73901 0.83854 0.59072
 C2981 C 0.23088 0.70671 0.59152
 C2982 C 0.24030 0.69970 0.60737
 C2983 C 0.25111 0.68299 0.60604
 C2984 C 0.25241 0.67325 0.58905
 C2985 C 0.24288 0.68005 0.57307
 C2986 C 0.23218 0.69697 0.57447
 C2987 C 0.23886 0.70931 0.62514
 C2988 C 0.23818 0.71656 0.64044
 C2989 C 0.23810 0.72397 0.65883
 C2990 C 0.23880 0.72921 0.67489
 H2991 H 0.22243 0.71960 0.59238
 H2992 H 0.25852 0.67745 0.61817
 H2993 H 0.26099 0.66045 0.58840
 H2994 H 0.22452 0.70247 0.56248
 C2995 C 0.75064 0.18280 0.10644
 C2996 C 0.73990 0.19955 0.10769
 C2997 C 0.73070 0.20665 0.09175
 C2998 C 0.73215 0.19693 0.07469
 C2999 C 0.74278 0.17995 0.07339
 C3000 C 0.75208 0.17308 0.08946
 C3001 C 0.73831 0.20912 0.12547
 C3002 C 0.73754 0.21630 0.14078
 C3003 C 0.73739 0.22362 0.15921
 C3004 C 0.73807 0.22877 0.17530
 H3005 H 0.75789 0.17720 0.11865
 H3006 H 0.72232 0.21958 0.09254
 H3007 H 0.72466 0.20249 0.06263
 H3008 H 0.76061 0.16023 0.08888
 C3009 C 0.74339 0.20251 0.90375
 C3010 C 0.76115 0.20285 0.89499
 C3011 C 0.77661 0.19358 0.90336
 C3012 C 0.77427 0.18381 0.92026
 C3013 C 0.75638 0.18309 0.92900
 C3014 C 0.74101 0.19273 0.92062
 C3015 C 0.76311 0.21162 0.87685
 C3016 C 0.76414 0.21834 0.86134
 C3017 C 0.76447 0.22531 0.84278
 C3018 C 0.76378 0.23028 0.82664
 H3019 H 0.73129 0.20956 0.89739
 H3020 H 0.79038 0.19358 0.89664
 H3021 H 0.78633 0.17634 0.92619
 H3022 H 0.72713 0.19267 0.92710
 C3023 C 0.24127 0.70378 0.40410
 C3024 C 0.25889 0.70439 0.39510
 C3025 C 0.27455 0.69514 0.40314
 C3026 C 0.27253 0.68511 0.41993
 C3027 C 0.25477 0.68412 0.42890
 C3028 C 0.23921 0.69375 0.42087
 C3029 C 0.26053 0.71342 0.37705
 C3030 C 0.26134 0.72031 0.36160
 C3031 C 0.26145 0.72745 0.34310
 C3032 C 0.26066 0.73251 0.32699
 H3033 H 0.22902 0.71082 0.39800
 H3034 H 0.28822 0.69534 0.39623
 H3035 H 0.28473 0.67766 0.42559
 H3036 H 0.22542 0.69348 0.42753
 C3037 C 0.75535 0.79778 0.40614
 C3038 C 0.73768 0.79685 0.39720
 C3039 C 0.72196 0.80600 0.40517
 C3040 C 0.72395 0.81622 0.42186
 C3041 C 0.74174 0.81751 0.43079
 C3042 C 0.75738 0.80801 0.42281
 C3043 C 0.73604 0.78754 0.37928
 C3044 C 0.73526 0.78037 0.36395
 C3045 C 0.73522 0.77288 0.34558
 C3046 C 0.73614 0.76749 0.32958
 H3047 H 0.76764 0.79082 0.40008
 H3048 H 0.70825 0.80554 0.39830
 H3049 H 0.71168 0.82356 0.42749
 H3050 H 0.77120 0.80849 0.42944
 C3051 C 0.22407 0.30494 0.90521
 C3052 C 0.23975 0.29558 0.89740
 C3053 C 0.25740 0.29653 0.90639
 C3054 C 0.25944 0.30698 0.92292
 C3055 C 0.24384 0.31670 0.93072
 C3056 C 0.22607 0.31539 0.92176
 C3057 C 0.23810 0.28610 0.87957
 C3058 C 0.23728 0.27884 0.86429
 C3059 C 0.23713 0.27132 0.84593
 C3060 C 0.23790 0.26600 0.82990
 H3061 H 0.21037 0.30449 0.89831
 H3062 H 0.26967 0.28942 0.90045
 H3063 H 0.27324 0.30748 0.92958
 H3064 H 0.21383 0.32289 0.92725
 C3065 C 0.81305 0.40429 0.76718
 C3066 C 0.81797 0.38863 0.75604
 C3067 C 0.83237 0.39050 0.74271
 C3068 C 0.84194 0.40778 0.74063
 C3069 C 0.83727 0.42356 0.75189
 C3070 C 0.82260 0.42163 0.76512
 C3071 C 0.80833 0.37061 0.75812
 C3072 C 0.80057 0.35534 0.75928
 C3073 C 0.79176 0.33723 0.75978
 C3074 C 0.78448 0.32168 0.75922
 H3075 H 0.80193 0.40306 0.77755
 H3076 H 0.83626 0.37855 0.73391
 H3077 H 0.85294 0.40882 0.73013
 H3078 H 0.81880 0.43340 0.77415
 C3079 C 0.30592 0.90742 0.25369
 C3080 C 0.31544 0.89051 0.25802
 C3081 C 0.33509 0.89077 0.26039
 C3082 C 0.34524 0.90771 0.25833
 C3083 C 0.33604 0.92517 0.25375
 C3084 C 0.31596 0.92448 0.25163
 C3085 C 0.30526 0.87274 0.25946
 C3086 C 0.29715 0.85762 0.26024
 C3087 C 0.28805 0.83965 0.26044
 C3088 C 0.28066 0.82416 0.25974
 H3089 H 0.29068 0.90740 0.25159
 H3090 H 0.34267 0.87779 0.26390
 H3091 H 0.36025 0.90683 0.26128
 H3092 H 0.30771 0.93674 0.24744
 C3093 C 0.18946 0.90271 0.75318
 C3094 C 0.18116 0.88794 0.74289
 C3095 C 0.16337 0.89080 0.73458
 C3096 C 0.15387 0.90820 0.73666
 C3097 C 0.16199 0.92308 0.74713
 C3098 C 0.17999 0.92016 0.75526
 C3099 C 0.19050 0.86965 0.74146
 C3100 C 0.19809 0.85420 0.74071
 C3101 C 0.20677 0.83596 0.74061
 C3102 C 0.21402 0.82036 0.74146
 H3103 H 0.20317 0.90066 0.75978
 H3104 H 0.15677 0.87951 0.72659
 H3105 H 0.14020 0.91006 0.72994
 H3106 H 0.18656 0.93121 0.76355
 C3107 C 0.68982 0.40243 0.25346
 C3108 C 0.68159 0.38765 0.24313
 C3109 C 0.66393 0.39054 0.23458
 C3110 C 0.65447 0.40799 0.23647
 C3111 C 0.66250 0.42288 0.24700
 C3112 C 0.68039 0.41993 0.25535
 C3113 C 0.69087 0.36931 0.24189
 C3114 C 0.69838 0.35381 0.24127
 C3115 C 0.70694 0.33552 0.24127
 C3116 C 0.71409 0.31987 0.24215
 H3117 H 0.70344 0.40036 0.26024
 H3118 H 0.65738 0.37925 0.22655
 H3119 H 0.64088 0.40986 0.22959
 H3120 H 0.68689 0.43099 0.26369
 C3121 C 0.67858 0.59694 0.27664
 C3122 C 0.68164 0.60810 0.26072
 C3123 C 0.67566 0.60144 0.24322
 C3124 C 0.66647 0.58387 0.24165
 C3125 C 0.66307 0.57267 0.25761
 C3126 C 0.66938 0.57938 0.27511
 C3127 C 0.69065 0.62648 0.26231
 C3128 C 0.69807 0.64194 0.26324
 C3129 C 0.70667 0.66014 0.26359
 C3130 C 0.71396 0.67567 0.26295
 H3131 H 0.68319 0.60186 0.29026
 H3132 H 0.67791 0.60994 0.23078
 H3133 H 0.66160 0.57928 0.22802
 H3134 H 0.66724 0.57101 0.28764
 C3135 C 0.17982 0.09626 0.77633
 C3136 C 0.18295 0.10737 0.76040
 C3137 C 0.17669 0.10085 0.74294
 C3138 C 0.16715 0.08346 0.74144
 C3139 C 0.16368 0.07231 0.75743
 C3140 C 0.17028 0.07888 0.77487
 C3141 C 0.19225 0.12560 0.76194
 C3142 C 0.19985 0.14098 0.76285
 C3143 C 0.20857 0.15912 0.76320
 C3144 C 0.21586 0.17465 0.76259
 H3145 H 0.18464 0.10109 0.78992
 H3146 H 0.17898 0.10932 0.73050
 H3147 H 0.16208 0.07898 0.72785
 H3148 H 0.16809 0.07055 0.78742
 C3149 C 0.31132 0.09431 0.24849
 C3150 C 0.32104 0.11023 0.24170
 C3151 C 0.34002 0.10834 0.23624
 C3152 C 0.34921 0.09069 0.23745
 C3153 C 0.33956 0.07455 0.24417
 C3154 C 0.32049 0.07660 0.24973
 C3155 C 0.31175 0.12860 0.24072
 C3156 C 0.30420 0.14409 0.24019
 C3157 C 0.29551 0.16233 0.24018
 C3158 C 0.28819 0.17791 0.24097
 H3159 H 0.29663 0.09556 0.25282
 H3160 H 0.34778 0.12056 0.23111
 H3161 H 0.36397 0.08973 0.23335
 H3162 H 0.31259 0.06447 0.25478
 C3163 C 0.81229 0.59363 0.74882
 C3164 C 0.82188 0.60964 0.74202
 C3165 C 0.84085 0.60788 0.73648
 C3166 C 0.85015 0.59028 0.73762
 C3167 C 0.84064 0.57407 0.74434
 C3168 C 0.82158 0.57598 0.74999
 C3169 C 0.81247 0.62795 0.74109
 C3170 C 0.80485 0.64340 0.74058
 C3171 C 0.79612 0.66162 0.74057
 C3172 C 0.78881 0.67721 0.74135
 H3173 H 0.79761 0.59479 0.75321
 H3174 H 0.84850 0.62015 0.73134
 H3175 H 0.86490 0.58943 0.73346
 H3176 H 0.81378 0.56379 0.75505
 C3177 C 0.89165 0.76124 0.17288
 C3178 C 0.89117 0.76226 0.19229
 C3179 C 0.90800 0.76382 0.20244
 C3180 C 0.92542 0.76406 0.19314
 C3181 C 0.92641 0.76267 0.17335
 C3182 C 0.90892 0.76145 0.16350
 C3183 C 0.87330 0.76092 0.20162
 C3184 C 0.85796 0.75938 0.20871
 C3185 C 0.83977 0.75726 0.21630
 C3186 C 0.82406 0.75532 0.22245
 H3187 H 0.87861 0.75979 0.16494
 H3188 H 0.90768 0.76480 0.21755
 H3189 H 0.93787 0.76604 0.20174
 H3190 H 0.90816 0.75934 0.14857
 C3191 C 0.39668 0.27935 0.68188
 C3192 C 0.39271 0.26606 0.69585
 C3193 C 0.40664 0.25308 0.70161
 C3194 C 0.42433 0.25288 0.69288
 C3195 C 0.42817 0.26564 0.67825
 C3196 C 0.41435 0.27918 0.67312
 C3197 C 0.37389 0.26463 0.70316
 C3198 C 0.35801 0.26284 0.70888
 C3199 C 0.33943 0.26020 0.71538
 C3200 C 0.32363 0.25769 0.72106
 H3201 H 0.38594 0.28943 0.67735
 H3202 H 0.40360 0.24267 0.71236
 H3203 H 0.43464 0.24218 0.69694
 H3204 H 0.41707 0.28931 0.66204
 C3205 C 0.39187 0.74411 0.83446
 C3206 C 0.38884 0.73521 0.81725
 C3207 C 0.40405 0.72709 0.80751
 C3208 C 0.42237 0.72806 0.81490
 C3209 C 0.42558 0.73720 0.83209
 C3210 C 0.41014 0.74511 0.84186
 C3211 C 0.37024 0.73530 0.80924
 C3212 C 0.35464 0.73599 0.80252
 C3213 C 0.33647 0.73742 0.79461
 C3214 C 0.32102 0.73905 0.78770
 H3215 H 0.38016 0.75057 0.84199
 H3216 H 0.40177 0.72022 0.79413
 H3217 H 0.43399 0.72169 0.80721
 H3218 H 0.41226 0.75247 0.85499
 C3219 C 0.89163 0.24176 0.33438
 C3220 C 0.88866 0.23295 0.31712
 C3221 C 0.90388 0.22475 0.30746
 C3222 C 0.92216 0.22557 0.31498
 C3223 C 0.92531 0.23464 0.33223
 C3224 C 0.90985 0.24261 0.34191
 C3225 C 0.87012 0.23326 0.30898
 C3226 C 0.85455 0.23417 0.30223
 C3227 C 0.83639 0.23587 0.29435
 C3228 C 0.82093 0.23772 0.28753
 H3229 H 0.87991 0.24827 0.34185
 H3230 H 0.90166 0.21794 0.29405
 H3231 H 0.93380 0.21917 0.30734
 H3232 H 0.91192 0.24994 0.35507
 C3233 C 0.09741 0.27888 0.30649
 C3234 C 0.10535 0.26395 0.29616
 C3235 C 0.09499 0.24735 0.29294
 C3236 C 0.07714 0.24517 0.30098
 C3237 C 0.06952 0.25961 0.31232
 C3238 C 0.07947 0.27676 0.31449
 C3239 C 0.12487 0.26452 0.29073
 C3240 C 0.14139 0.26388 0.28669
 C3241 C 0.16066 0.26205 0.28213
 C3242 C 0.17700 0.25984 0.27791
 H3243 H 0.10543 0.29173 0.30913
 H3244 H 0.10109 0.23571 0.28499
 H3245 H 0.06963 0.23189 0.29905
 H3246 H 0.07393 0.28799 0.32334
 C3247 C 0.59892 0.77976 0.80735
 C3248 C 0.60679 0.76502 0.79671
 C3249 C 0.59617 0.74873 0.79280
 C3250 C 0.57813 0.74664 0.80044
 C3251 C 0.57056 0.76086 0.81207
 C3252 C 0.58079 0.77774 0.81495
 C3253 C 0.62640 0.76541 0.79161
 C3254 C 0.64296 0.76462 0.78775
 C3255 C 0.66224 0.76260 0.78329
 C3256 C 0.67855 0.76021 0.77905
 H3257 H 0.60713 0.79237 0.81052
 H3258 H 0.60221 0.73724 0.78459
 H3259 H 0.57041 0.73358 0.79796
 H3260 H 0.57531 0.78879 0.82404
 C3261 C 0.59307 0.23121 0.69879
 C3262 C 0.60960 0.23302 0.68813
 C3263 C 0.60844 0.23659 0.66895
 C3264 C 0.59078 0.23899 0.66049
 C3265 C 0.57410 0.23788 0.67117
 C3266 C 0.57534 0.23354 0.69032
 C3267 C 0.62783 0.23295 0.69695
 C3268 C 0.64331 0.23386 0.70388
 C3269 C 0.66152 0.23583 0.71153
 C3270 C 0.67714 0.23803 0.71787
 H3271 H 0.59391 0.22858 0.71370
 H3272 H 0.62119 0.23805 0.66063
 H3273 H 0.59015 0.24203 0.64565
 H3274 H 0.56266 0.23272 0.69882
 C3275 C 0.10701 0.73359 0.16800
 C3276 C 0.10794 0.73018 0.18722
 C3277 C 0.09127 0.72826 0.19766
 C3278 C 0.07363 0.73051 0.18895
 C3279 C 0.07266 0.73490 0.16981
 C3280 C 0.08946 0.73593 0.15932
 C3281 C 0.12602 0.73073 0.19632
 C3282 C 0.14138 0.73230 0.20340
 C3283 C 0.15944 0.73512 0.21116
 C3284 C 0.17492 0.73800 0.21755
 H3285 H 0.11987 0.73515 0.15985
 H3286 H 0.09192 0.72576 0.21260
 H3287 H 0.06084 0.72974 0.19729
 H3288 H 0.08900 0.73905 0.14449
   
