data_POSCAR
  _audit_creation_date              2014-09-24
  _audit_creation_method            'ToBaCCo'
  _symmetry_space_group_name_H-M    'P1'
  _symmetry_Int_Tables_number       1
  _symmetry_cell_setting            triclinic
  loop_
  _symmetry_equiv_pos_as_xyz
 x,y,z
_cell_length_a 33.3994
_cell_length_b 33.2681
_cell_length_c 41.5672
_cell_angle_alpha 90.075500
_cell_angle_beta 89.890200
_cell_angle_gamma 89.922300
loop_
  _atom_site_label
  _atom_site_type_symbol
  _atom_site_fract_x
  _atom_site_fract_y
  _atom_site_fract_z
B1 B 0.26605 0.23418 0.28477
 B2 B 0.21824 0.22369 0.27523
 B3 B 0.23185 0.27156 0.28289
 B4 B 0.27816 0.27874 0.26819
 B5 B 0.29317 0.23474 0.25087
 B6 B 0.25574 0.20035 0.25543
 B7 B 0.22688 0.26228 0.21858
 B8 B 0.27476 0.27259 0.22822
 B9 B 0.26109 0.22479 0.22042
 B10 B 0.21467 0.21755 0.23510
 B11 B 0.19970 0.26156 0.25254
 B12 B 0.23719 0.29593 0.24794
 B13 B 0.73613 0.77296 0.21802
 B14 B 0.72267 0.72518 0.22648
 B15 B 0.77001 0.73528 0.21495
 B16 B 0.78330 0.78007 0.23092
 B17 B 0.74349 0.79756 0.25275
 B18 B 0.70570 0.76328 0.24968
 B19 B 0.76863 0.72646 0.27950
 B20 B 0.78196 0.77421 0.27112
 B21 B 0.73459 0.76407 0.28257
 B22 B 0.72146 0.71933 0.26665
 B23 B 0.76122 0.70184 0.24482
 B24 B 0.79900 0.73612 0.24782
 B25 B 0.72945 0.23548 -0.28284
 B26 B 0.77718 0.22222 -0.27456
 B27 B 0.76630 0.27025 -0.28426
 B28 B 0.72123 0.28198 -0.26804
 B29 B 0.70442 0.24042 -0.24807
 B30 B 0.73930 0.20326 -0.25235
 B31 B 0.77442 0.26530 -0.21974
 B32 B 0.72665 0.27827 -0.22788
 B33 B 0.73761 0.23028 -0.21835
 B34 B 0.78259 0.21882 -0.23440
 B35 B 0.79945 0.26024 -0.25455
 B36 B 0.76451 0.29743 -0.25023
 B37 B 0.27333 0.76586 -0.28080
 B38 B 0.22594 0.78046 -0.27271
 B39 B 0.23534 0.73240 -0.28316
 B40 B 0.27962 0.71882 -0.26696
 B41 B 0.29755 0.75912 -0.24595
 B42 B 0.26402 0.79757 -0.24978
 B43 B 0.22629 0.73592 -0.21869
 B44 B 0.27370 0.72144 -0.22685
 B45 B 0.26420 0.76945 -0.21634
 B46 B 0.21990 0.78303 -0.23255
 B47 B 0.20200 0.74275 -0.25354
 B48 B 0.23557 0.70430 -0.24973
 B49 B 1.23585 1.27051 0.71693
 B50 B 1.22238 1.22277 0.72531
 B51 B 1.26998 1.23297 0.71466
 B52 B 1.28257 1.27784 0.73067
 B53 B 1.24203 1.29528 0.75161
 B54 B 1.20449 1.26088 0.74801
 B55 B 1.26669 1.22449 0.77920
 B56 B 1.27997 1.27222 0.77078
 B57 B 1.23238 1.26201 0.78141
 B58 B 1.21991 1.21709 0.76549
 B59 B 1.26042 1.19963 0.74447
 B60 B 1.29797 1.23408 0.74806
 B61 B 0.77224 0.73572 0.78515
 B62 B 0.72453 0.72524 0.77521
 B63 B 0.73773 0.77304 0.78348
 B64 B 0.78418 0.78075 0.76904
 B65 B 0.79956 0.73705 0.75127
 B66 B 0.76232 0.70237 0.75543
 B67 B 0.73308 0.76436 0.71909
 B68 B 0.78080 0.77505 0.72887
 B69 B 0.76759 0.72724 0.72073
 B70 B 0.72129 0.71951 0.73522
 B71 B 0.70589 0.76317 0.75285
 B72 B 0.74308 0.79789 0.74869
 B73 B 1.22664 0.73682 0.21997
 B74 B 1.27439 0.72300 0.22717
 B75 B 1.26412 0.77083 0.21690
 B76 B 1.22003 0.78384 0.23394
 B77 B 1.20324 0.74330 0.25526
 B78 B 1.23722 0.70535 0.25081
 B79 B 1.27492 0.76754 0.28121
 B80 B 1.22709 0.78129 0.27396
 B81 B 1.23740 0.73342 0.28430
 B82 B 1.28153 0.72044 0.26723
 B83 B 1.29831 0.76098 0.24587
 B84 B 1.26433 0.79896 0.25034
 B85 B 0.77673 1.26195 0.21883
 B86 B 0.72936 1.27560 0.22753
 B87 B 0.73980 1.22714 0.21894
 B88 B 0.78505 1.21609 0.23455
 B89 B 0.80244 1.25836 0.25333
 B90 B 0.76765 1.29550 0.24866
 B91 B 0.73283 1.23503 0.28324
 B92 B 0.78035 1.22143 0.27463
 B93 B 0.76981 1.26976 0.28326
 B94 B 0.72460 1.28092 0.26756
 B95 B 0.70728 1.23870 0.24884
 B96 B 0.74208 1.20154 0.25345
 O97 O 0.54982 1.07228 0.05800
 O98 O 0.59678 1.03681 0.02925
 C99 C 0.58655 1.06380 0.05063
 O100 O 0.44079 0.92483 0.05330
 O101 O 0.39437 0.96337 0.02668
 C102 C 0.40425 0.93397 0.04589
 O103 O 0.55000 0.93059 0.05812
 O104 O 0.59692 0.96561 0.02911
 C105 C 0.58666 0.93872 0.05047
 O106 O 0.44036 1.07649 0.05287
 O107 O 0.39396 1.03777 0.02656
 C108 C 0.40380 1.06713 0.04580
 Zr109 Zr 0.49521 1.05047 0.04060
 O110 O 0.49035 1.04488 0.09124
 O111 O 0.49672 1.11357 0.04654
 Zr112 Zr 0.49538 0.95140 0.04046
 O113 O 0.49293 0.95895 0.09090
 O114 O 0.49646 0.88821 0.04618
 O115 O 0.53210 1.00096 0.04697
 O116 O 0.45905 1.00083 0.04634
 O117 O 0.44089 1.07491 -0.05472
 O118 O 0.39427 1.03768 -0.02716
 C119 C 0.40433 1.06637 -0.04692
 O120 O 0.55121 0.93115 -0.05813
 O121 O 0.59748 0.96594 -0.02831
 C122 C 0.58769 0.93924 -0.04991
 O123 O 0.44163 0.92611 -0.05500
 O124 O 0.39484 0.96336 -0.02737
 C125 C 0.40503 0.93455 -0.04712
 O126 O 0.55034 1.07139 -0.05848
 O127 O 0.59698 1.03701 -0.02872
 C128 C 0.58696 1.06349 -0.05054
 Zr129 Zr 0.49584 1.05063 -0.04027
 O130 O 0.49417 1.04495 -0.09090
 O131 O 0.49898 1.11411 -0.04275
 Zr132 Zr 0.49615 0.95126 -0.04040
 O133 O 0.49230 0.95390 -0.09122
 O134 O 0.50016 0.88778 -0.04204
 Zr135 Zr 0.55728 1.00117 0.00025
 Zr136 Zr 0.43439 1.00078 -0.00019
 O137 O 0.46006 1.00089 -0.04643
 O138 O 0.53274 1.00107 -0.04651
 O139 O 0.45994 1.05882 0.00002
 O140 O 0.53090 0.94365 0.00013
 O141 O 0.53056 1.05851 0.00025
 O142 O 0.46023 0.94291 -0.00015
 H143 H 0.44020 1.00071 0.06480
 H144 H 0.54835 0.91956 0.00002
 H145 H 0.44188 1.00077 -0.06524
 H146 H 0.54776 1.08274 0.00010
 H147 H 0.50630 0.87654 0.02579
 H148 H 0.48216 0.87714 -0.02515
 H149 H 0.51488 0.97048 -0.09905
 H150 H 0.49317 1.07269 -0.09952
 H151 H 0.48079 1.12497 -0.02604
 H152 H 0.50207 1.12531 0.02516
 H153 H 0.51593 1.03382 0.09938
 H154 H 0.49197 0.93151 0.10011
 O155 O 0.94403 0.57832 0.55340
 O156 O 0.89775 0.53985 0.52674
 C157 C 0.90757 0.56916 0.54597
 O158 O 1.05497 0.57323 0.44166
 O159 O 1.10099 0.53809 0.47158
 C160 C 1.09140 0.56502 0.45006
 O161 O 0.94550 0.57740 0.44523
 O162 O 0.89832 0.54028 0.47227
 C163 C 0.90878 0.56899 0.45266
 O164 O 1.05347 0.57543 0.55753
 O165 O 1.10022 0.53925 0.52894
 C166 C 1.09008 0.56685 0.54980
 Zr167 Zr 0.99902 0.55370 0.53966
 O168 O 1.00190 0.61722 0.54165
 O169 O 0.99676 0.54895 0.59033
 Zr170 Zr 1.00001 0.55166 0.45887
 O171 O 1.00118 0.61464 0.45207
 O172 O 0.99900 0.54258 0.40857
 O173 O 0.96385 0.56107 0.49895
 O174 O 1.03448 0.56046 0.49943
 O175 O 1.05299 0.43401 0.55958
 O176 O 1.10014 0.46797 0.52998
 C177 C 1.08969 0.44155 0.55162
 O178 O 0.94532 0.42740 0.44567
 O179 O 0.89851 0.46629 0.47171
 C180 C 0.90870 0.43670 0.45271
 O181 O 1.05497 0.43209 0.44311
 O182 O 1.10119 0.46710 0.47282
 C183 C 1.09139 0.44006 0.45155
 O184 O 0.94394 0.42908 0.55511
 O185 O 0.89778 0.46601 0.52675
 C186 C 0.90750 0.43749 0.54690
 Zr187 Zr 0.99861 0.45429 0.54103
 O188 O 1.00182 0.39086 0.54357
 O189 O 0.99357 0.45832 0.59176
 Zr190 Zr 0.99974 0.45226 0.46052
 O191 O 1.00172 0.38879 0.46331
 O192 O 0.99651 0.45127 0.40963
 Zr193 Zr 0.93793 0.50319 0.49958
 Zr194 Zr 1.06086 0.50302 0.50049
 O195 O 1.03439 0.44556 0.50112
 O196 O 0.96330 0.44522 0.50057
 O197 O 1.03543 0.50407 0.54700
 O198 O 0.96396 0.50205 0.45345
 O199 O 0.96278 0.50422 0.54605
 O200 O 1.03665 0.50179 0.45359
 H201 H 1.05156 0.58476 0.49936
 H202 H 0.94591 0.50184 0.43454
 H203 H 1.05153 0.42124 0.50155
 H204 H 0.94430 0.50439 0.56474
 H205 H 0.99747 0.56970 0.39884
 H206 H 1.01800 0.46891 0.40133
 H207 H 1.00214 0.37866 0.44087
 H208 H 0.98958 0.38029 0.52363
 H209 H 1.01645 0.47440 0.59967
 H210 H 0.99588 0.57685 0.59867
 H211 H 0.98455 0.62770 0.52431
 H212 H 1.00691 0.62689 0.47321
 O213 O 0.93187 0.44337 -0.05939
 O214 O 0.96738 0.39641 -0.03064
 C215 C 0.94034 0.40660 -0.05169
 O216 O 1.07742 0.55372 -0.05274
 O217 O 1.03795 0.60008 -0.02687
 C218 C 1.06765 0.59037 -0.04581
 O219 O 1.07423 0.44417 -0.05807
 O220 O 1.03821 0.39693 -0.03002
 C221 C 1.06581 0.40731 -0.05070
 O222 O 0.92638 0.55358 -0.05408
 O223 O 0.96423 0.60004 -0.02677
 C224 C 0.93526 0.59025 -0.04633
 Zr225 Zr 0.95306 0.49857 -0.04193
 O226 O 0.96033 0.50373 -0.09242
 O227 O 0.89045 0.49668 -0.04909
 Zr228 Zr 1.05173 0.49873 -0.04042
 O229 O 1.04522 0.50115 -0.09093
 O230 O 1.11479 0.49809 -0.04529
 O231 O 1.00274 0.46173 -0.04791
 O232 O 1.00238 0.53511 -0.04660
 O233 O 0.92548 0.55196 0.05373
 O234 O 0.96334 0.59917 0.02729
 C235 C 0.93418 0.58880 0.04654
 O236 O 1.07102 0.44226 0.05796
 O237 O 1.03666 0.39605 0.02754
 C238 C 1.06306 0.40571 0.04936
 O239 O 1.07298 0.55212 0.05643
 O240 O 1.03746 0.59942 0.02822
 C241 C 1.06499 0.58898 0.04887
 O242 O 0.93048 0.44180 0.05601
 O243 O 0.96620 0.39567 0.02642
 C244 C 0.93911 0.40525 0.04774
 Zr245 Zr 0.95087 0.49719 0.03894
 O246 O 0.95510 0.49837 0.08966
 O247 O 0.88762 0.49353 0.04056
 Zr248 Zr 1.04997 0.49738 0.04042
 O249 O 1.04600 0.50013 0.09125
 O250 O 1.11324 0.49434 0.04260
 Zr251 Zr 1.00175 0.43625 -0.00134
 Zr252 Zr 1.00116 0.55962 0.00014
 O253 O 1.00007 0.53325 0.04608
 O254 O 1.00039 0.46040 0.04560
 O255 O 0.94355 0.53359 -0.00113
 O256 O 1.05881 0.46296 -0.00027
 O257 O 0.94438 0.46274 -0.00193
 O258 O 1.05901 0.53397 0.00057
 H259 H 1.00256 0.55407 -0.06498
 H260 H 1.08303 0.44575 -0.00001
 H261 H 0.99939 0.55124 0.06510
 H262 H 0.92024 0.44548 -0.00213
 H263 H 1.12596 0.49106 -0.02405
 H264 H 1.12395 0.51425 0.02716
 H265 H 1.02946 0.47718 0.09849
 H266 H 0.92722 0.49842 0.09787
 H267 H 0.87710 0.51160 0.02368
 H268 H 0.87811 0.49152 -0.02789
 H269 H 0.97040 0.47765 -0.10061
 H270 H 1.07270 0.50280 -0.09984
 O271 O 0.57373 0.94609 0.55787
 O272 O 0.53907 0.89852 0.52919
 C273 C 0.56589 0.90916 0.55039
 O274 O 0.42540 1.05421 0.55191
 O275 O 0.46391 1.10102 0.52568
 C276 C 0.43434 1.09094 0.54462
 O277 O 0.43213 0.94479 0.55709
 O278 O 0.46794 0.89775 0.52854
 C279 C 0.44064 0.90800 0.54955
 O280 O 0.57671 1.05563 0.55276
 O281 O 0.53850 1.10195 0.52579
 C282 C 0.56756 1.09226 0.54529
 Zr283 Zr 0.55125 1.00057 0.54035
 O284 O 0.54435 1.00546 0.59091
 O285 O 0.61398 0.99951 0.54695
 Zr286 Zr 0.45269 0.99968 0.53943
 O287 O 0.45952 1.00243 0.58991
 O288 O 0.38969 0.99808 0.54471
 O289 O 0.50227 0.96314 0.54648
 O290 O 0.50145 1.03661 0.54554
 O291 O 0.57635 1.05476 0.44491
 O292 O 0.53861 1.10152 0.47208
 C293 C 0.56748 1.09149 0.45248
 O294 O 0.43401 0.94299 0.44106
 O295 O 0.46891 0.89691 0.47118
 C296 C 0.44217 0.90649 0.44962
 O297 O 0.42873 1.05268 0.44323
 O298 O 0.46436 1.10023 0.47118
 C299 C 0.43630 1.08957 0.45103
 O300 O 0.57523 0.94464 0.44222
 O301 O 0.54005 0.89794 0.47156
 C302 C 0.56730 0.90797 0.45042
 Zr303 Zr 0.55280 0.99940 0.45947
 O304 O 0.54775 1.00029 0.40881
 O305 O 0.61611 0.99714 0.45725
 Zr306 Zr 0.45388 0.99838 0.45857
 O307 O 0.45770 1.00171 0.40776
 O308 O 0.39070 0.99425 0.45643
 Zr309 Zr 0.50344 0.93763 0.49986
 Zr310 Zr 0.50190 1.06113 0.49892
 O311 O 0.50303 1.03497 0.45281
 O312 O 0.50392 0.96190 0.45297
 O313 O 0.55991 1.03579 0.49967
 O314 O 0.44595 0.96376 0.49921
 O315 O 0.56027 0.96498 0.50023
 O316 O 0.44455 1.03469 0.49860
 H317 H 0.50094 1.05564 0.56392
 H318 H 0.42203 0.94620 0.49904
 H319 H 0.50304 1.05309 0.43390
 H320 H 0.58476 0.94815 0.50040
 H321 H 0.37844 0.98894 0.52400
 H322 H 0.37969 1.01257 0.47301
 H323 H 0.47375 0.97849 0.40022
 H324 H 0.57547 1.00167 0.40035
 H325 H 0.62646 1.01563 0.47393
 H326 H 0.62614 0.99582 0.52548
 H327 H 0.53438 0.97936 0.59905
 H328 H 0.43207 1.00328 0.59897
 O329 O 0.90590 1.03379 0.54361
 O330 O 0.95463 1.01600 0.57967
 C331 C 0.91953 1.03038 0.57264
 O332 O 0.96659 0.90393 0.45335
 O333 O 0.98266 0.95381 0.41757
 C334 C 0.96956 0.91808 0.42439
 O335 O 0.96031 0.90542 0.54248
 O336 O 0.97972 0.95330 0.57898
 C337 C 0.96366 0.91902 0.57157
 O338 O 0.90792 1.03832 0.45472
 O339 O 0.95506 1.01723 0.41828
 C340 C 0.92091 1.03346 0.42561
 Zr341 Zr 0.93374 1.02363 0.49903
 O342 O 0.87889 0.99204 0.49831
 O343 O 0.90264 1.07909 0.49935
 Zr344 Zr 0.97490 0.93180 0.49822
 O345 O 0.91770 0.90482 0.49491
 O346 O 1.00198 0.87431 0.50103
 O347 O 0.94701 0.97443 0.52749
 O348 O 0.94748 0.97508 0.47040
 O349 O 1.03386 1.09347 0.45442
 O350 O 1.01738 1.04449 0.41800
 C351 C 1.03031 1.08010 0.42529
 O352 O 1.09449 0.96341 0.54327
 O353 O 1.04524 0.97973 0.57948
 C354 C 1.08067 0.96629 0.57233
 O355 O 1.09322 0.96034 0.45413
 O356 O 1.04532 0.98013 0.41801
 C357 C 1.08008 0.96516 0.42509
 O358 O 1.03960 1.09092 0.54334
 O359 O 1.02037 1.04267 0.57946
 C360 C 1.03624 1.07709 0.57231
 Zr361 Zr 1.02535 1.06499 0.49893
 O362 O 1.08240 1.09227 0.49533
 O363 O 0.99843 1.12251 0.50247
 Zr364 Zr 1.06629 0.97237 0.49867
 O365 O 1.12510 0.99584 0.49604
 O366 O 1.08775 0.91257 0.49955
 Zr367 Zr 1.00011 0.99819 0.54716
 Zr368 Zr 1.00032 0.99885 0.45038
 O369 O 1.05298 1.02198 0.47089
 O370 O 1.05331 1.02181 0.52749
 O371 O 0.97628 1.05200 0.47028
 O372 O 1.02335 0.94511 0.52678
 O373 O 0.97667 1.05124 0.52719
 O374 O 1.02391 0.94516 0.46938
 H375 H 0.92569 0.96577 0.45607
 H376 H 1.03231 0.92307 0.54109
 H377 H 1.07484 1.03169 0.45675
 H378 H 0.96787 1.07309 0.54180
 H379 H 1.02301 0.87306 0.48425
 H380 H 1.11737 0.91436 0.49948
 H381 H 1.12739 1.01689 0.51275
 H382 H 1.10009 1.07897 0.51112
 H383 H 0.97913 1.12500 0.48453
 H384 H 0.92106 1.09959 0.50803
 H385 H 0.85756 1.01271 0.49724
 H386 H 0.89962 0.91972 0.50958
 O387 O 0.45154 0.41082 -0.04418
 O388 O 0.47603 0.45702 -0.07994
 C389 C 0.45728 0.42399 -0.07308
 O390 O 0.40945 0.54545 0.04531
 O391 O 0.45489 0.52130 0.08183
 C392 C 0.42170 0.53942 0.07446
 O393 O 0.40880 0.54120 -0.04377
 O394 O 0.45683 0.52125 -0.07993
 C395 C 0.42239 0.53717 -0.07282
 O396 O 0.45447 0.40751 0.04483
 O397 O 0.47574 0.45406 0.08169
 C398 C 0.45915 0.42013 0.07406
 Zr399 Zr 0.46638 0.43523 0.00054
 O400 O 0.40601 0.41606 0.00296
 O401 O 0.48545 0.37462 -0.00308
 Zr402 Zr 0.43599 0.53147 0.00098
 O403 O 0.37408 0.51812 0.00076
 O404 O 0.42286 0.59361 0.00026
 O405 O 0.44386 0.48122 -0.02801
 O406 O 0.44346 0.48069 0.02876
 O407 O 0.58420 0.44603 0.04544
 O408 O 0.53924 0.47132 0.08202
 C409 C 0.57042 0.45008 0.07437
 O410 O 0.54824 0.58726 -0.04151
 O411 O 0.52449 0.54208 -0.07853
 C412 C 0.54327 0.57479 -0.07074
 O413 O 0.54117 0.58861 0.04732
 O414 O 0.51934 0.54089 0.08304
 C415 C 0.53576 0.57530 0.07628
 O416 O 0.58954 0.45488 -0.04303
 O417 O 0.54306 0.47642 -0.07964
 C418 C 0.57704 0.45975 -0.07223
 Zr419 Zr 0.56218 0.46638 0.00137
 O420 O 0.62014 0.49151 0.00428
 O421 O 0.58731 0.40819 -0.00201
 Zr422 Zr 0.53141 0.56180 0.00244
 O423 O 0.59176 0.58053 0.00650
 O424 O 0.51254 0.62246 -0.00023
 Zr425 Zr 0.49963 0.49914 -0.04705
 Zr426 Zr 0.49811 0.49777 0.04972
 O427 O 0.55355 0.51566 0.03052
 O428 O 0.55477 0.51684 -0.02701
 O429 O 0.51623 0.44253 0.02937
 O430 O 0.48189 0.55424 -0.02661
 O431 O 0.51695 0.44376 -0.02707
 O432 O 0.48070 0.55378 0.03068
 H433 H 0.42070 0.47331 0.04287
 H434 H 0.47511 0.57695 -0.04103
 H435 H 0.57559 0.52192 0.04565
 H436 H 0.52425 0.42103 -0.04136
 H437 H 0.39335 0.59582 -0.00138
 H438 H 0.49023 0.62590 0.01523
 H439 H 0.60747 0.56534 -0.00967
 H440 H 0.63898 0.46848 0.00441
 H441 H 0.56597 0.38909 0.00400
 H442 H 0.50331 0.36906 0.01535
 H443 H 0.39132 0.42946 -0.01471
 H444 H 0.37119 0.48969 0.00712
 C445 C 0.30924 1.15768 0.13629
 C446 C 0.33271 1.18568 0.15351
 C447 C 0.31797 1.20335 0.18153
 C448 C 0.27754 1.19972 0.19016
 C449 C 0.25317 1.17368 0.17201
 C450 C 0.26912 1.15202 0.14585
 C451 C 0.32852 1.13606 0.10851
 C452 C 0.31312 1.10041 0.09468
 C453 C 0.33585 1.07842 0.07204
 C454 C 0.37335 1.09275 0.06194
 C455 C 0.38624 1.13043 0.07305
 C456 C 0.36603 1.15029 0.09768
 C457 C 0.37021 1.19749 0.14199
 C458 C 0.38555 1.18166 0.11367
 H459 H 0.38746 1.22015 0.15458
 H460 H 0.41457 1.19211 0.10551
 H461 H 0.33781 1.22228 0.19548
 H462 H 0.22191 1.16974 0.17814
 H463 H 0.32529 1.04934 0.06402
 H464 H 0.41484 1.14231 0.06510
 H465 H 0.24962 1.13199 0.13271
 H466 H 0.28512 1.08781 0.10291
 C467 C 0.81428 0.66048 0.63613
 C468 C 0.83772 0.68938 0.65242
 C469 C 0.82363 0.70711 0.68063
 C470 C 0.78369 0.70249 0.69029
 C471 C 0.75932 0.67552 0.67304
 C472 C 0.77474 0.65394 0.64671
 C473 C 0.83301 0.63863 0.60831
 C474 C 0.81777 0.60238 0.59540
 C475 C 0.84017 0.58017 0.57276
 C476 C 0.87712 0.59483 0.56181
 C477 C 0.88972 0.63304 0.57188
 C478 C 0.86989 0.65328 0.59649
 C479 C 0.87450 0.70178 0.63986
 C480 C 0.88925 0.68551 0.61149
 H481 H 0.89167 0.72512 0.65172
 H482 H 0.91774 0.69637 0.60250
 H483 H 0.84354 0.72654 0.69406
 H484 H 0.72849 0.67065 0.68005
 H485 H 0.82993 0.55066 0.56548
 H486 H 0.91796 0.64501 0.56322
 H487 H 0.75524 0.63317 0.63434
 H488 H 0.79025 0.58950 0.60436
 C489 C 0.68369 0.84417 0.13778
 C490 C 0.66091 0.81571 0.15521
 C491 C 0.67737 0.79593 0.18162
 C492 C 0.71832 0.79863 0.18858
 C493 C 0.74184 0.82524 0.17019
 C494 C 0.72456 0.84846 0.14553
 C495 C 0.66286 0.86772 0.11177
 C496 C 0.67865 0.90285 0.09728
 C497 C 0.65533 0.92586 0.07571
 C498 C 0.61653 0.91328 0.06752
 C499 C 0.60262 0.87651 0.07978
 C500 C 0.62393 0.85538 0.10297
 C501 C 0.62209 0.80585 0.14565
 C502 C 0.60470 0.82400 0.11915
 H503 H 0.60522 0.78302 0.15838
 H504 H 0.57468 0.81493 0.11243
 H505 H 0.65820 0.77665 0.19588
 H506 H 0.77347 0.82863 0.17511
 H507 H 0.66683 0.95409 0.06667
 H508 H 0.57312 0.86568 0.07321
 H509 H 0.74352 0.86888 0.13226
 H510 H 0.70792 0.91396 0.10382
 C511 C 1.18539 0.34316 0.63684
 C512 C 1.16247 0.31360 0.65292
 C513 C 1.17830 0.29302 0.67917
 C514 C 1.21890 0.29618 0.68722
 C515 C 1.24267 0.32376 0.67000
 C516 C 1.22591 0.34767 0.64555
 C517 C 1.16501 0.36781 0.61130
 C518 C 1.18086 0.40381 0.59830
 C519 C 1.15784 0.42781 0.57724
 C520 C 1.11930 0.41546 0.56817
 C521 C 1.10535 0.37800 0.57890
 C522 C 1.12639 0.35565 0.60151
 C523 C 1.12409 0.30372 0.64229
 C524 C 1.10716 0.32313 0.61618
 H525 H 1.10719 0.28003 0.65394
 H526 H 1.07743 0.31411 0.60865
 H527 H 1.15885 0.27313 0.69262
 H528 H 1.27402 0.32753 0.67578
 H529 H 1.16931 0.45659 0.56935
 H530 H 1.07600 0.36749 0.57160
 H531 H 1.24502 0.36892 0.63329
 H532 H 1.20987 0.41478 0.60564
 C533 C 0.68584 1.16043 -0.13635
 C534 C 0.66482 1.19277 -0.15069
 C535 C 0.68164 1.21428 -0.17629
 C536 C 0.72096 1.20708 -0.18685
 C537 C 0.74281 1.17633 -0.17147
 C538 C 0.72539 1.15300 -0.14684
 C539 C 0.66437 1.13567 -0.11109
 C540 C 0.67909 1.09907 -0.09816
 C541 C 0.65545 1.07568 -0.07694
 C542 C 0.61710 1.08886 -0.06773
 C543 C 0.60394 1.12650 -0.07887
 C544 C 0.62603 1.14881 -0.10110
 C545 C 0.62682 1.20369 -0.13957
 C546 C 0.60837 1.18290 -0.11474
 H547 H 0.61108 1.22891 -0.15017
 H548 H 0.57885 1.19264 -0.10711
 H549 H 0.66350 1.23679 -0.18817
 H550 H 0.77305 1.16941 -0.17909
 H551 H 0.66639 1.04673 -0.06893
 H552 H 0.57472 1.13763 -0.07167
 H553 H 0.74312 1.12928 -0.13626
 H554 H 0.70795 1.08740 -0.10534
 C555 C 1.18481 0.66815 0.36802
 C556 C 1.22066 0.65406 0.35388
 C557 C 1.23942 0.67669 0.32923
 C558 C 1.22103 0.71160 0.31656
 C559 C 1.18367 0.72296 0.32937
 C560 C 1.16655 0.70261 0.35517
 C561 C 1.16517 0.64346 0.39372
 C562 C 1.13256 0.65791 0.41166
 C563 C 1.11135 0.63240 0.43188
 C564 C 1.12183 0.59169 0.43504
 C565 C 1.15716 0.57789 0.42003
 C566 C 1.17927 0.60401 0.39960
 C567 C 1.23565 0.61620 0.36296
 C568 C 1.21471 0.59119 0.38444
 H569 H 1.26287 0.60482 0.35201
 H570 H 1.22643 0.56142 0.38924
 H571 H 1.26693 0.66561 0.31856
 H572 H 1.16634 0.74692 0.31877
 H573 H 1.08511 0.64421 0.44405
 H574 H 1.16611 0.54677 0.42278
 H575 H 1.13764 0.71291 0.36341
 H576 H 1.12245 0.68865 0.40984
 C577 C 0.31489 0.83271 -0.13125
 C578 C 0.27890 0.84655 -0.14512
 C579 C 0.26104 0.82459 -0.17045
 C580 C 0.28052 0.79084 -0.18408
 C581 C 0.31812 0.77993 -0.17170
 C582 C 0.33442 0.79954 -0.14519
 C583 C 0.33332 0.85653 -0.10458
 C584 C 0.36554 0.84181 -0.08650
 C585 C 0.38588 0.86692 -0.06543
 C586 C 0.37493 0.90746 -0.06179
 C587 C 0.33968 0.92121 -0.07672
 C588 C 0.31837 0.89547 -0.09784
 C589 C 0.26283 0.88361 -0.13507
 C590 C 0.28295 0.90822 -0.11287
 H591 H 0.23550 0.89478 -0.14586
 H592 H 0.27057 0.93756 -0.10736
 H593 H 0.23324 0.83534 -0.18073
 H594 H 0.33593 0.75669 -0.18296
 H595 H 0.41199 0.85511 -0.05319
 H596 H 0.33030 0.95215 -0.07347
 H597 H 0.36356 0.78978 -0.13714
 H598 H 0.37605 0.81125 -0.08896
 C599 C 0.82046 0.33587 0.36691
 C600 C 0.78420 0.34906 0.35313
 C601 C 0.76658 0.32662 0.32794
 C602 C 0.78671 0.29322 0.31435
 C603 C 0.82501 0.28373 0.32613
 C604 C 0.84100 0.30364 0.35256
 C605 C 0.83807 0.35941 0.39400
 C606 C 0.86973 0.34442 0.41253
 C607 C 0.88949 0.36927 0.43412
 C608 C 0.87860 0.40985 0.43771
 C609 C 0.84366 0.42377 0.42235
 C610 C 0.82277 0.39815 0.40084
 C611 C 0.76759 0.38586 0.36328
 C612 C 0.78738 0.41067 0.38559
 H613 H 0.74011 0.39668 0.35249
 H614 H 0.77466 0.43984 0.39115
 H615 H 0.73830 0.33646 0.31791
 H616 H 0.84328 0.26093 0.31474
 H617 H 0.91528 0.35728 0.44668
 H618 H 0.83424 0.45470 0.42558
 H619 H 0.87053 0.29479 0.36042
 H620 H 0.88021 0.31384 0.41001
 C621 C 1.16286 0.31405 0.13426
 C622 C 1.14879 0.27813 0.14829
 C623 C 1.17080 0.25982 0.17344
 C624 C 1.20482 0.27893 0.18669
 C625 C 1.21563 0.31672 0.17434
 C626 C 1.19606 0.33331 0.14801
 C627 C 1.13928 0.33282 0.10766
 C628 C 1.15441 0.36478 0.08938
 C629 C 1.12971 0.38551 0.06829
 C630 C 1.08920 0.37518 0.06471
 C631 C 1.07491 0.34020 0.07996
 C632 C 1.10026 0.31848 0.10115
 C633 C 1.11155 0.26263 0.13855
 C634 C 1.08715 0.28320 0.11644
 H635 H 1.10012 0.23540 0.14948
 H636 H 1.05773 0.27124 0.11116
 H637 H 1.16001 0.23202 0.18385
 H638 H 1.23883 0.33450 0.18548
 H639 H 1.14187 0.41144 0.05590
 H640 H 1.04396 0.33131 0.07682
 H641 H 1.20591 0.36252 0.13995
 H642 H 1.18503 0.37475 0.09165
 C643 C 0.66425 0.81288 0.63586
 C644 C 0.69704 0.83418 0.64907
 C645 C 0.71826 0.81857 0.67528
 C646 C 0.71034 0.77998 0.68727
 C647 C 0.67931 0.75769 0.67280
 C648 C 0.65624 0.77405 0.64774
 C649 C 0.63940 0.83335 0.61035
 C650 C 0.60221 0.81861 0.59895
 C651 C 0.57845 0.84164 0.57774
 C652 C 0.59182 0.87932 0.56708
 C653 C 0.63008 0.89231 0.57645
 C654 C 0.65289 0.87087 0.59872
 C655 C 0.70859 0.87118 0.63622
 C656 C 0.68769 0.88854 0.61095
 H657 H 0.73430 0.88700 0.64582
 H658 H 0.69783 0.91738 0.60197
 H659 H 0.74093 0.83707 0.68651
 H660 H 0.67183 0.72798 0.68149
 H661 H 0.54902 0.83095 0.57102
 H662 H 0.64120 0.92107 0.56802
 H663 H 0.63228 0.75606 0.63796
 H664 H 0.59026 0.79039 0.60744
 C665 C 1.15820 0.68640 -0.13555
 C666 C 1.18637 0.66308 -0.15285
 C667 C 1.20437 0.67829 -0.18054
 C668 C 1.20095 0.71903 -0.18870
 C669 C 1.17468 0.74324 -0.17048
 C670 C 1.15268 0.72684 -0.14470
 C671 C 1.13630 0.66659 -0.10815
 C672 C 1.10074 0.68194 -0.09416
 C673 C 1.07877 0.65887 -0.07175
 C674 C 1.09300 0.62104 -0.06201
 C675 C 1.13050 0.60813 -0.07337
 C676 C 1.15038 0.62872 -0.09774
 C677 C 1.19797 0.62521 -0.14175
 C678 C 1.18182 0.60934 -0.11378
 H679 H 1.22074 0.60806 -0.15437
 H680 H 1.19221 0.58008 -0.10590
 H681 H 1.22329 0.65850 -0.19465
 H682 H 1.17075 0.77469 -0.17631
 H683 H 1.04985 0.66951 -0.06353
 H684 H 1.14239 0.57932 -0.06572
 H685 H 1.13245 0.74623 -0.13155
 H686 H 1.08829 0.71027 -0.10200
 C687 C 0.66347 1.18731 0.36633
 C688 C 0.69326 1.16421 0.35068
 C689 C 0.71262 1.17905 0.32348
 C690 C 0.70830 1.21927 0.31403
 C691 C 0.68055 1.24341 0.33082
 C692 C 0.65765 1.22735 0.35622
 C693 C 0.63985 1.16753 0.39279
 C694 C 0.60332 1.18279 0.40515
 C695 C 0.57995 1.15974 0.42662
 C696 C 0.59354 1.12191 0.43688
 C697 C 0.63168 1.10896 0.42716
 C698 C 0.65335 1.12973 0.40391
 C699 C 0.70456 1.12666 0.36262
 C700 C 0.68625 1.11066 0.38965
 H701 H 0.72846 1.10969 0.35125
 H702 H 0.69628 1.08153 0.39814
 H703 H 0.73250 1.15915 0.31036
 H704 H 0.67584 1.27443 0.32394
 H705 H 0.55057 1.17039 0.43368
 H706 H 0.64296 1.08012 0.43532
 H707 H 0.63613 1.24662 0.36810
 H708 H 0.59134 1.21108 0.39678
 C709 C 0.83240 0.68200 0.13006
 C710 C 0.84648 0.71828 0.14356
 C711 C 0.82467 0.73712 0.16865
 C712 C 0.79066 0.71846 0.18237
 C713 C 0.77916 0.68081 0.17010
 C714 C 0.79876 0.66347 0.14392
 C715 C 0.85634 0.66231 0.10387
 C716 C 0.84184 0.62924 0.08648
 C717 C 0.86690 0.60807 0.06576
 C718 C 0.90719 0.61906 0.06161
 C719 C 0.92080 0.65486 0.07602
 C720 C 0.89518 0.67691 0.09690
 C721 C 0.88359 0.73370 0.13340
 C722 C 0.90799 0.71276 0.11145
 H723 H 0.89492 0.76128 0.14386
 H724 H 0.93729 0.72482 0.10581
 H725 H 0.83575 0.76498 0.17878
 H726 H 0.75573 0.66348 0.18140
 H727 H 0.85513 0.58148 0.05404
 H728 H 0.95157 0.66422 0.07251
 H729 H 0.78859 0.63426 0.13614
 H730 H 0.81145 0.61873 0.08915
 C731 C 0.33303 1.18171 0.62934
 C732 C 0.34677 1.21789 0.64321
 C733 C 0.32495 1.23591 0.66865
 C734 C 0.29146 1.21638 0.68240
 C735 C 0.28077 1.17851 0.67008
 C736 C 0.30020 1.16209 0.64346
 C737 C 0.35663 1.16319 0.60249
 C738 C 0.34194 1.13083 0.58438
 C739 C 0.36687 1.11038 0.56312
 C740 C 0.40723 1.12134 0.55929
 C741 C 0.42090 1.15674 0.57429
 C742 C 0.39533 1.17818 0.59558
 C743 C 0.38357 1.23400 0.63301
 C744 C 0.40801 1.21375 0.61066
 H745 H 0.39469 1.26146 0.64379
 H746 H 0.43716 1.22619 0.60505
 H747 H 0.33556 1.26388 0.67891
 H748 H 0.25781 1.16059 0.68145
 H749 H 0.35509 1.08411 0.55095
 H750 H 0.45171 1.16611 0.57101
 H751 H 0.29056 1.13279 0.63542
 H752 H 0.31154 1.12029 0.58699
 C753 C 0.84163 0.31728 -0.13763
 C754 C 0.85300 0.27925 -0.14951
 C755 C 0.83028 0.26119 -0.17437
 C756 C 0.79917 0.28284 -0.18963
 C757 C 0.79297 0.32307 -0.18040
 C758 C 0.81242 0.33941 -0.15404
 C759 C 0.86437 0.33508 -0.11045
 C760 C 0.84946 0.36787 -0.09303
 C761 C 0.87388 0.38802 -0.07154
 C762 C 0.91396 0.37647 -0.06710
 C763 C 0.92752 0.34025 -0.08109
 C764 C 0.90207 0.31878 -0.10234
 C765 C 0.88839 0.26144 -0.13789
 C766 C 0.91347 0.28179 -0.11602
 H767 H 0.89806 0.23262 -0.14729
 H768 H 0.94177 0.26816 -0.10944
 H769 H 0.83809 0.23134 -0.18276
 H770 H 0.77248 0.34235 -0.19332
 H771 H 0.86199 0.41454 -0.05970
 H772 H 0.95791 0.33011 -0.07688
 H773 H 0.80571 0.37022 -0.14775
 H774 H 0.81928 0.37883 -0.09643
 C775 C 0.34455 0.81937 0.36197
 C776 C 0.35436 0.78051 0.35105
 C777 C 0.33116 0.76270 0.32636
 C778 C 0.30135 0.78534 0.31031
 C779 C 0.29755 0.82633 0.31816
 C780 C 0.31730 0.84260 0.34441
 C781 C 0.36677 0.83648 0.38966
 C782 C 0.35195 0.86943 0.40685
 C783 C 0.37588 0.88857 0.42925
 C784 C 0.41564 0.87625 0.43443
 C785 C 0.42884 0.83976 0.42064
 C786 C 0.40352 0.81895 0.39881
 C787 C 0.38863 0.76149 0.36363
 C788 C 0.41394 0.78133 0.38569
 H789 H 0.39728 0.73204 0.35490
 H790 H 0.44142 0.76669 0.39307
 H791 H 0.33736 0.73210 0.31892
 H792 H 0.27809 0.84605 0.30462
 H793 H 0.36409 0.91522 0.44096
 H794 H 0.45882 0.82887 0.42547
 H795 H 0.31222 0.87395 0.34999
 H796 H 0.32225 0.88122 0.40257
 C797 C 1.13032 1.16446 0.33817
 C798 C 1.13309 1.15248 0.30573
 C799 C 1.16142 1.17089 0.28559
 C800 C 1.18894 1.19890 0.29820
 C801 C 1.18935 1.20556 0.33157
 C802 C 1.15990 1.18946 0.35118
 C803 C 1.09794 1.14744 0.35830
 C804 C 1.08768 1.16420 0.38812
 C805 C 1.06175 1.14403 0.40848
 C806 C 1.04602 1.10641 0.39970
 C807 C 1.05171 1.09236 0.36807
 C808 C 1.07704 1.11345 0.34696
 C809 C 1.10850 1.12137 0.29429
 C810 C 1.08238 1.10089 0.31499
 H811 H 1.11090 1.11146 0.26952
 H812 H 1.06572 1.07547 0.30575
 H813 H 1.16198 1.16318 0.26026
 H814 H 1.21149 1.22475 0.34264
 H815 H 1.05643 1.15674 0.43212
 H816 H 1.03842 1.06419 0.36051
 H817 H 1.16103 1.19629 0.37658
 H818 H 1.10031 1.19230 0.39631
 C819 C 0.63916 0.65991 -0.16317
 C820 C 0.66621 0.68802 -0.14990
 C821 C 0.69482 0.70617 -0.16931
 C822 C 0.69508 0.69997 -0.20261
 C823 C 0.66769 0.67261 -0.21597
 C824 C 0.64029 0.65251 -0.19648
 C825 C 0.61061 0.63942 -0.14104
 C826 C 0.58601 0.60715 -0.15071
 C827 C 0.56235 0.58693 -0.12824
 C828 C 0.56237 0.59903 -0.09595
 C829 C 0.58495 0.63258 -0.08669
 C830 C 0.60988 0.65183 -0.10852
 C831 C 0.66405 0.69883 -0.11746
 C832 C 0.63571 0.68178 -0.09733
 H833 H 0.68424 0.72115 -0.10760
 H834 H 0.63504 0.69109 -0.07233
 H835 H 0.71619 0.72635 -0.15831
 H836 H 0.66699 0.66673 -0.24157
 H837 H 0.54521 0.56104 -0.13592
 H838 H 0.58532 0.64238 -0.06180
 H839 H 0.61976 0.63210 -0.20802
 H840 H 0.58590 0.59601 -0.17509
 C841 C 0.83985 1.13260 0.66452
 C842 C 0.81312 1.16083 0.65089
 C843 C 0.79666 1.19132 0.66984
 C844 C 0.80262 1.19216 0.70320
 C845 C 0.82906 1.16392 0.71679
 C846 C 0.84781 1.13485 0.69769
 C847 C 0.85804 1.10148 0.64291
 C848 C 0.88924 1.07552 0.65262
 C849 C 0.90781 1.04988 0.63038
 C850 C 0.89492 1.04889 0.59829
 C851 C 0.86179 1.07232 0.58929
 C852 C 0.84459 1.09961 0.61073
 C853 C 0.80154 1.15761 0.61870
 C854 C 0.81605 1.12689 0.59929
 H855 H 0.78028 1.17870 0.60852
 H856 H 0.80598 1.12547 0.57454
 H857 H 0.77729 1.21326 0.65859
 H858 H 0.83496 1.16361 0.74236
 H859 H 0.93341 1.03227 0.63795
 H860 H 0.85139 1.07212 0.56459
 H861 H 0.86736 1.11368 0.70949
 H862 H 0.90106 1.07612 0.67675
 C863 C 0.33377 0.63543 0.16339
 C864 C 0.34659 0.63892 0.19555
 C865 C 0.32759 0.66658 0.21608
 C866 C 0.29808 0.69288 0.20405
 C867 C 0.28974 0.69226 0.17096
 C868 C 0.30646 0.66341 0.15106
 C869 C 0.35253 0.60454 0.14262
 C870 C 0.33625 0.59410 0.11274
 C871 C 0.35777 0.57002 0.09177
 C872 C 0.39602 0.55592 0.10009
 C873 C 0.41012 0.56179 0.13161
 C874 C 0.38794 0.58559 0.15324
 C875 C 0.37934 0.61610 0.20626
 C876 C 0.40075 0.59125 0.18506
 H877 H 0.38977 0.61907 0.23082
 H878 H 0.42729 0.57599 0.19375
 H879 H 0.33641 0.66798 0.24111
 H880 H 0.26966 0.71382 0.16013
 H881 H 0.34510 0.56413 0.06826
 H882 H 0.43888 0.54961 0.13876
 H883 H 0.29861 0.66422 0.12588
 H884 H 0.30735 0.60502 0.10499
 C885 C 1.16419 0.86964 0.66560
 C886 C 1.19119 0.84136 0.65230
 C887 C 1.20811 0.81169 0.67165
 C888 C 1.20186 0.81137 0.70501
 C889 C 1.17567 0.84006 0.71837
 C890 C 1.15674 0.86856 0.69893
 C891 C 1.14488 0.89931 0.64344
 C892 C 1.11331 0.92501 0.65294
 C893 C 1.09367 0.94910 0.63030
 C894 C 1.10579 0.94875 0.59797
 C895 C 1.13907 0.92547 0.58900
 C896 C 1.15748 0.89978 0.61095
 C897 C 1.20215 0.84334 0.61987
 C898 C 1.18643 0.87266 0.59982
 H899 H 1.22358 0.82217 0.60993
 H900 H 1.19586 0.87300 0.57485
 H901 H 1.22748 0.78952 0.66059
 H902 H 1.16985 0.84091 0.74398
 H903 H 1.06798 0.96667 0.63784
 H904 H 1.14878 0.92458 0.56410
 H905 H 1.13716 0.88999 0.71050
 H906 H 1.10210 0.92541 0.67729
 C907 C 0.65745 0.35026 0.16207
 C908 C 0.65713 0.35904 0.19524
 C909 C 0.67951 0.33495 0.21635
 C910 C 0.70345 0.30332 0.20435
 C911 C 0.70550 0.29726 0.17102
 C912 C 0.68298 0.32020 0.15022
 C913 C 0.63224 0.37460 0.14032
 C914 C 0.62651 0.36339 0.10821
 C915 C 0.60601 0.38833 0.08765
 C916 C 0.58994 0.42484 0.09850
 C917 C 0.59205 0.43482 0.13128
 C918 C 0.61307 0.40942 0.15248
 C919 C 0.63554 0.39244 0.20665
 C920 C 0.61489 0.41785 0.18552
 H921 H 0.63557 0.39967 0.23207
 H922 H 0.59969 0.44402 0.19520
 H923 H 0.67868 0.34140 0.24189
 H924 H 0.72508 0.27492 0.16053
 H925 H 0.60268 0.37871 0.06288
 H926 H 0.57817 0.46224 0.14000
 H927 H 0.68692 0.31447 0.12487
 H928 H 0.63736 0.33536 0.09844
 C929 C 0.87208 0.83581 0.33150
 C930 C 0.84441 0.80850 0.34504
 C931 C 0.81411 0.79217 0.32617
 C932 C 0.81286 0.79876 0.29291
 C933 C 0.84089 0.82528 0.27924
 C934 C 0.86983 0.84401 0.29833
 C935 C 0.90240 0.85455 0.35330
 C936 C 0.92731 0.88671 0.34388
 C937 C 0.95171 0.90609 0.36643
 C938 C 0.95251 0.89301 0.39850
 C939 C 0.93037 0.85889 0.40718
 C940 C 0.90423 0.84088 0.38546
 C941 C 0.84773 0.79644 0.37711
 C942 C 0.87781 0.81144 0.39666
 H943 H 0.82709 0.77464 0.38714
 H944 H 0.87922 0.80118 0.42137
 H945 H 0.79237 0.77269 0.33751
 H946 H 0.84092 0.83141 0.25368
 H947 H 0.96845 0.93240 0.35909
 H948 H 0.93048 0.84833 0.43185
 H949 H 0.89078 0.86387 0.28660
 H950 H 0.92667 0.89869 0.31978
 C951 C 0.36430 0.33835 -0.16720
 C952 C 0.33749 0.30981 -0.15419
 C953 C 0.30936 0.29140 -0.17379
 C954 C 0.30948 0.29747 -0.20709
 C955 C 0.33678 0.32508 -0.22027
 C956 C 0.36360 0.34566 -0.20053
 C957 C 0.39217 0.35922 -0.14474
 C958 C 0.41601 0.39233 -0.15387
 C959 C 0.43894 0.41279 -0.13100
 C960 C 0.43911 0.39995 -0.09891
 C961 C 0.41733 0.36560 -0.09028
 C962 C 0.39291 0.34629 -0.11238
 C963 C 0.33945 0.29875 -0.12185
 C964 C 0.36746 0.31583 -0.10152
 H965 H 0.31944 0.27609 -0.11223
 H966 H 0.36807 0.30618 -0.07661
 H967 H 0.28796 0.27116 -0.16288
 H968 H 0.33769 0.33087 -0.24588
 H969 H 0.45533 0.43938 -0.13819
 H970 H 0.41705 0.35515 -0.06558
 H971 H 0.38408 0.36636 -0.21184
 H972 H 0.41592 0.40392 -0.17810
 C973 C 1.16763 0.31539 -0.13492
 C974 C 1.15442 0.27860 -0.14806
 C975 C 1.17686 0.25982 -0.17284
 C976 C 1.21049 0.27912 -0.18664
 C977 C 1.22059 0.31754 -0.17507
 C978 C 1.20054 0.33476 -0.14912
 C979 C 1.14354 0.33468 -0.10872
 C980 C 1.15788 0.36770 -0.09125
 C981 C 1.13278 0.38850 -0.07040
 C982 C 1.09255 0.37726 -0.06628
 C983 C 1.07910 0.34141 -0.08075
 C984 C 1.10491 0.31961 -0.10168
 C985 C 1.11755 0.26262 -0.13783
 C986 C 1.09267 0.28344 -0.11610
 H987 H 1.10678 0.23470 -0.14808
 H988 H 1.06357 0.27094 -0.11040
 H989 H 1.16664 0.23143 -0.18261
 H990 H 1.24352 0.33533 -0.18660
 H991 H 1.14447 0.41501 -0.05852
 H992 H 1.04844 0.33176 -0.07714
 H993 H 1.20977 0.36445 -0.14173
 H994 H 1.18823 0.37838 -0.09389
 C995 C 0.67038 0.81621 0.36703
 C996 C 0.65683 0.77995 0.35320
 C997 C 0.67927 0.76147 0.32831
 C998 C 0.71333 0.78056 0.31501
 C999 C 0.72418 0.81830 0.32748
 C1000 C 0.70402 0.83522 0.35357
 C1001 C 0.64591 0.83537 0.39314
 C1002 C 0.66007 0.86810 0.41107
 C1003 C 0.63465 0.88882 0.43177
 C1004 C 0.59428 0.87776 0.43531
 C1005 C 0.58091 0.84224 0.42032
 C1006 C 0.60698 0.82055 0.39953
 C1007 C 0.61962 0.76419 0.36280
 C1008 C 0.59463 0.78481 0.38454
 H1009 H 0.60868 0.73664 0.35204
 H1010 H 0.56530 0.77252 0.38973
 H1011 H 0.66860 0.73357 0.31799
 H1012 H 0.74763 0.83590 0.31644
 H1013 H 0.64618 0.91519 0.44395
 H1014 H 0.55008 0.83282 0.42337
 H1015 H 0.71375 0.86447 0.36160
 H1016 H 0.69051 0.87866 0.40887
 C1017 C 0.83533 0.68289 -0.13039
 C1018 C 0.84913 0.71937 -0.14367
 C1019 C 0.82741 0.73793 -0.16889
 C1020 C 0.79405 0.71858 -0.18297
 C1021 C 0.78363 0.68029 -0.17135
 C1022 C 0.80282 0.66340 -0.14496
 C1023 C 0.85859 0.66385 -0.10371
 C1024 C 0.84355 0.63128 -0.08606
 C1025 C 0.86818 0.61030 -0.06503
 C1026 C 0.90854 0.62096 -0.06094
 C1027 C 0.92254 0.65659 -0.07543
 C1028 C 0.89726 0.67856 -0.09650
 C1029 C 0.88588 0.73520 -0.13313
 C1030 C 0.91014 0.71441 -0.11104
 H1031 H 0.89712 0.76288 -0.14345
 H1032 H 0.93927 0.72666 -0.10519
 H1033 H 0.83791 0.76618 -0.17869
 H1034 H 0.76094 0.66240 -0.18306
 H1035 H 0.85612 0.58392 -0.05320
 H1036 H 0.95335 0.66577 -0.07190
 H1037 H 0.79330 0.63385 -0.13747
 H1038 H 0.81309 0.62101 -0.08884
 C1039 C 0.33535 1.18617 0.36789
 C1040 C 0.30207 1.16506 0.35529
 C1041 C 0.28035 1.18068 0.32932
 C1042 C 0.28866 1.21892 0.31676
 C1043 C 0.32015 1.24106 0.33071
 C1044 C 0.34344 1.22481 0.35566
 C1045 C 0.36074 1.16564 0.39304
 C1046 C 0.39817 1.18037 0.40389
 C1047 C 0.42248 1.15727 0.42462
 C1048 C 0.40952 1.11946 0.43531
 C1049 C 0.37106 1.10642 0.42652
 C1050 C 0.34756 1.12805 0.40480
 C1051 C 0.29070 1.12812 0.36839
 C1052 C 0.31233 1.11056 0.39318
 H1053 H 0.26465 1.11243 0.35926
 H1054 H 0.30238 1.08172 0.40229
 H1055 H 0.25724 1.16231 0.31853
 H1056 H 0.32786 1.27053 0.32165
 H1057 H 0.45207 1.16798 0.43086
 H1058 H 0.36035 1.07748 0.43490
 H1059 H 0.36776 1.24269 0.36498
 H1060 H 0.40989 1.20864 0.39532
 C1061 C 1.15645 0.68522 0.13877
 C1062 C 1.18396 0.66194 0.15669
 C1063 C 1.20295 0.67814 0.18356
 C1064 C 1.20058 0.71931 0.19062
 C1065 C 1.17481 0.74330 0.17190
 C1066 C 1.15224 0.72627 0.14671
 C1067 C 1.13398 0.66472 0.11195
 C1068 C 1.09963 0.68092 0.09677
 C1069 C 1.07748 0.65782 0.07444
 C1070 C 1.09026 0.61890 0.06611
 C1071 C 1.12642 0.60469 0.07905
 C1072 C 1.14651 0.62567 0.10305
 C1073 C 1.19393 0.62296 0.14705
 C1074 C 1.17693 0.60593 0.11991
 H1075 H 1.21605 0.60571 0.16022
 H1076 H 1.18610 0.57580 0.11316
 H1077 H 1.22185 0.65865 0.19786
 H1078 H 1.17179 0.77511 0.17685
 H1079 H 1.04963 0.66954 0.06499
 H1080 H 1.13734 0.57504 0.07251
 H1081 H 1.13254 0.74560 0.13310
 H1082 H 1.08835 0.71025 0.10337
 C1083 C 0.66112 1.18728 0.63366
 C1084 C 0.69003 1.16387 0.64996
 C1085 C 0.70866 1.17866 0.67755
 C1086 C 0.70472 1.21908 0.68667
 C1087 C 0.67783 1.24341 0.66927
 C1088 C 0.65550 1.22744 0.64356
 C1089 C 0.63838 1.16781 0.60655
 C1090 C 0.60235 1.18331 0.59358
 C1091 C 0.57963 1.16054 0.57147
 C1092 C 0.59348 1.12281 0.56105
 C1093 C 0.63134 1.10974 0.57139
 C1094 C 0.65213 1.13010 0.59540
 C1095 C 0.70142 1.12624 0.63807
 C1096 C 0.68424 1.11065 0.61039
 H1097 H 0.72470 1.10901 0.64990
 H1098 H 0.69445 1.08155 0.60191
 H1099 H 0.72803 1.15875 0.69105
 H1100 H 0.67350 1.27463 0.67578
 H1101 H 0.55045 1.17128 0.56408
 H1102 H 0.64288 1.08097 0.56320
 H1103 H 0.63476 1.24694 0.63115
 H1104 H 0.59015 1.21153 0.60200
 C1105 C 0.84499 0.30898 0.13490
 C1106 C 0.81351 0.33116 0.14925
 C1107 C 0.79405 0.31658 0.17651
 C1108 C 0.80068 0.27739 0.18766
 C1109 C 0.83023 0.25404 0.17217
 C1110 C 0.85275 0.26993 0.14651
 C1111 C 0.86847 0.32875 0.10832
 C1112 C 0.90580 0.31446 0.09677
 C1113 C 0.92872 0.33757 0.07504
 C1114 C 0.91399 0.37451 0.06381
 C1115 C 0.87531 0.38650 0.07287
 C1116 C 0.85380 0.36559 0.09614
 C1117 C 0.80095 0.36767 0.13613
 C1118 C 0.81963 0.38366 0.10926
 H1119 H 0.77591 0.38390 0.14656
 H1120 H 0.80869 0.41203 0.09993
 H1121 H 0.77299 0.33610 0.18873
 H1122 H 0.83670 0.22385 0.18034
 H1123 H 0.95858 0.32775 0.06851
 H1124 H 0.86333 0.41471 0.06398
 H1125 H 0.87566 0.25130 0.13572
 H1126 H 0.91864 0.28692 0.10587
 C1127 C 0.34508 0.81400 0.63762
 C1128 C 0.31598 0.83761 0.65368
 C1129 C 0.29626 0.82273 0.68073
 C1130 C 0.29926 0.78215 0.68938
 C1131 C 0.32639 0.75765 0.67224
 C1132 C 0.34983 0.77364 0.64715
 C1133 C 0.36882 0.83346 0.61107
 C1134 C 0.40491 0.81757 0.59833
 C1135 C 0.42823 0.84014 0.57645
 C1136 C 0.41494 0.87804 0.56614
 C1137 C 0.37719 0.89163 0.57643
 C1138 C 0.35578 0.87144 0.60011
 C1139 C 0.30543 0.87552 0.64206
 C1140 C 0.32357 0.89120 0.61483
 H1141 H 0.28203 0.89291 0.65370
 H1142 H 0.31397 0.92052 0.60648
 H1143 H 0.27684 0.84278 0.69415
 H1144 H 0.33007 0.72629 0.67848
 H1145 H 0.45728 0.82898 0.56899
 H1146 H 0.36600 0.92047 0.56820
 H1147 H 0.37071 0.75403 0.63491
 H1148 H 0.41655 0.78911 0.60663
 C1149 C 0.31776 1.16018 -0.13708
 C1150 C 0.27917 1.14959 -0.14770
 C1151 C 0.26169 1.17102 -0.17351
 C1152 C 0.28440 1.19963 -0.19085
 C1153 C 0.32510 1.20414 -0.18296
 C1154 C 0.34103 1.18628 -0.15573
 C1155 C 0.33460 1.13969 -0.10845
 C1156 C 0.36750 1.15538 -0.09194
 C1157 C 0.38666 1.13249 -0.06881
 C1158 C 0.37427 1.09296 -0.06221
 C1159 C 0.33775 1.07928 -0.07523
 C1160 C 0.31706 1.10348 -0.09785
 C1161 C 0.26007 1.11620 -0.13365
 C1162 C 0.27965 1.09229 -0.11050
 H1163 H 0.23080 1.10699 -0.14207
 H1164 H 0.26504 1.06525 -0.10199
 H1165 H 0.23127 1.16437 -0.18074
 H1166 H 0.34477 1.22289 -0.19719
 H1167 H 0.41339 1.14471 -0.05779
 H1168 H 0.32686 1.04951 -0.06936
 H1169 H 0.37214 1.19189 -0.15021
 H1170 H 0.37935 1.18484 -0.09740
 C1171 C 0.82147 0.66232 0.36246
 C1172 C 0.78222 0.65251 0.35301
 C1173 C 0.76426 0.67382 0.32737
 C1174 C 0.78699 0.70143 0.30906
 C1175 C 0.82810 0.70502 0.31577
 C1176 C 0.84466 0.68733 0.34282
 C1177 C 0.83886 0.64219 0.39102
 C1178 C 0.87269 0.65752 0.40647
 C1179 C 0.89211 0.63481 0.42955
 C1180 C 0.87903 0.59578 0.43716
 C1181 C 0.84175 0.58264 0.42522
 C1182 C 0.82083 0.60673 0.40266
 C1183 C 0.76281 0.62002 0.36809
 C1184 C 0.78267 0.59618 0.39114
 H1185 H 0.73297 0.61144 0.36059
 H1186 H 0.76770 0.56978 0.40048
 H1187 H 0.73336 0.66790 0.32109
 H1188 H 0.84760 0.72309 0.30084
 H1189 H 0.91945 0.64676 0.43979
 H1190 H 0.83033 0.55335 0.43193
 H1191 H 0.87611 0.69230 0.34748
 H1192 H 0.88499 0.68655 0.40024
 C1193 C 0.68627 1.15791 0.13742
 C1194 C 0.66515 1.18922 0.15313
 C1195 C 0.68224 1.20968 0.17907
 C1196 C 0.72217 1.20321 0.18822
 C1197 C 0.74411 1.17350 0.17156
 C1198 C 0.72626 1.15071 0.14680
 C1199 C 0.66451 1.13410 0.11182
 C1200 C 0.67914 1.09804 0.09786
 C1201 C 0.65523 1.07534 0.07643
 C1202 C 0.61670 1.08873 0.06807
 C1203 C 0.60365 1.12598 0.08016
 C1204 C 0.62599 1.14751 0.10266
 C1205 C 0.62698 1.20052 0.14281
 C1206 C 0.60838 1.18094 0.11747
 H1207 H 0.61131 1.22519 0.15437
 H1208 H 0.57878 1.19097 0.11041
 H1209 H 0.66410 1.23146 0.19190
 H1210 H 0.77482 1.16715 0.17812
 H1211 H 0.66615 1.04673 0.06755
 H1212 H 0.57434 1.13735 0.07355
 H1213 H 0.74405 1.12782 0.13509
 H1214 H 0.70812 1.08620 0.10441
 C1215 C 1.18268 0.66862 0.63285
 C1216 C 1.21876 0.65456 0.64642
 C1217 C 1.23740 0.67674 0.67129
 C1218 C 1.21860 0.71099 0.68474
 C1219 C 1.18098 0.72224 0.67260
 C1220 C 1.16393 0.70238 0.64656
 C1221 C 1.16332 0.64450 0.60680
 C1222 C 1.13076 0.65925 0.58914
 C1223 C 1.10965 0.63406 0.56865
 C1224 C 1.12025 0.59343 0.56502
 C1225 C 1.15566 0.57949 0.57960
 C1226 C 1.17768 0.60528 0.60024
 C1227 C 1.23415 0.61713 0.63660
 C1228 C 1.21329 0.59239 0.61492
 H1229 H 1.26158 0.60580 0.64715
 H1230 H 1.22524 0.56284 0.60955
 H1231 H 1.26520 0.66578 0.68144
 H1232 H 1.16362 0.74587 0.68379
 H1233 H 1.08342 0.64603 0.55667
 H1234 H 1.16475 0.54846 0.57635
 H1235 H 1.13479 0.71244 0.63876
 H1236 H 1.12064 0.68997 0.59140
 C1237 C 0.68602 0.84369 -0.13552
 C1238 C 0.66374 0.81388 -0.15183
 C1239 C 0.67996 0.79410 -0.17837
 C1240 C 0.72048 0.79819 -0.18655
 C1241 C 0.74370 0.82602 -0.16914
 C1242 C 0.72644 0.84923 -0.14435
 C1243 C 0.66504 0.86753 -0.10969
 C1244 C 0.67998 0.90380 -0.09648
 C1245 C 0.65630 0.92708 -0.07528
 C1246 C 0.61803 0.91374 -0.06629
 C1247 C 0.60503 0.87602 -0.07716
 C1248 C 0.62669 0.85436 -0.09993
 C1249 C 0.62561 0.80294 -0.14121
 C1250 C 0.60822 0.82159 -0.11485
 H1251 H 0.60924 0.77903 -0.15308
 H1252 H 0.57868 0.81182 -0.10737
 H1253 H 0.66085 0.77401 -0.19193
 H1254 H 0.77496 0.83047 -0.17504
 H1255 H 0.66701 0.95612 -0.06728
 H1256 H 0.57586 0.86485 -0.06995
 H1257 H 0.74507 0.87074 -0.13192
 H1258 H 0.70873 0.91554 -0.10380
 C1259 C 1.18495 0.34302 0.36497
 C1260 C 1.16154 0.31323 0.34969
 C1261 C 1.17593 0.29348 0.32246
 C1262 C 1.21599 0.29727 0.31291
 C1263 C 1.24037 0.32504 0.32934
 C1264 C 1.22475 0.34842 0.35461
 C1265 C 1.16587 0.36699 0.39152
 C1266 C 1.18129 0.40385 0.40318
 C1267 C 1.15880 0.42761 0.42479
 C1268 C 1.12156 0.41393 0.43590
 C1269 C 1.10859 0.37544 0.42695
 C1270 C 1.12858 0.35353 0.40341
 C1271 C 1.12433 0.30216 0.36221
 C1272 C 1.10914 0.32057 0.38956
 H1273 H 1.10711 0.27826 0.35114
 H1274 H 1.08032 0.31067 0.39860
 H1275 H 1.15598 0.27352 0.30958
 H1276 H 1.27131 0.32929 0.32237
 H1277 H 1.16932 0.45731 0.43127
 H1278 H 1.08016 0.36422 0.43587
 H1279 H 1.24423 0.36982 0.36630
 H1280 H 1.20914 0.41584 0.39409
 C1281 C 0.31398 0.83354 0.13104
 C1282 C 0.27830 0.84775 0.14536
 C1283 C 0.26058 0.82600 0.17094
 C1284 C 0.28004 0.79220 0.18440
 C1285 C 0.31753 0.78118 0.17164
 C1286 C 0.33356 0.80048 0.14489
 C1287 C 0.33218 0.85696 0.10403
 C1288 C 0.36383 0.84170 0.08542
 C1289 C 0.38420 0.86648 0.06407
 C1290 C 0.37379 0.90717 0.06061
 C1291 C 0.33897 0.92144 0.07608
 C1292 C 0.31764 0.89604 0.09749
 C1293 C 0.26253 0.88496 0.13550
 C1294 C 0.28262 0.90927 0.11303
 H1295 H 0.23556 0.89656 0.14670
 H1296 H 0.27051 0.93873 0.10769
 H1297 H 0.23296 0.83691 0.18155
 H1298 H 0.33551 0.75805 0.18277
 H1299 H 0.41003 0.85433 0.05155
 H1300 H 0.33003 0.95253 0.07309
 H1301 H 0.36259 0.79059 0.13654
 H1302 H 0.37383 0.81096 0.08771
 C1303 C 0.81757 0.33551 0.63150
 C1304 C 0.78167 0.34928 0.64573
 C1305 C 0.76368 0.32691 0.67087
 C1306 C 0.78296 0.29275 0.68394
 C1307 C 0.82066 0.28214 0.67137
 C1308 C 0.83704 0.30215 0.64506
 C1309 C 0.83591 0.35951 0.60482
 C1310 C 0.86787 0.34478 0.58630
 C1311 C 0.88800 0.36988 0.56503
 C1312 C 0.87716 0.41048 0.56161
 C1313 C 0.84223 0.42433 0.57716
 C1314 C 0.82107 0.39855 0.59845
 C1315 C 0.76579 0.38657 0.63617
 C1316 C 0.78588 0.41133 0.61399
 H1317 H 0.73860 0.39778 0.64727
 H1318 H 0.77359 0.44077 0.60884
 H1319 H 0.73591 0.33750 0.68139
 H1320 H 0.83850 0.25878 0.68231
 H1321 H 0.91397 0.35802 0.55252
 H1322 H 0.83300 0.45535 0.57426
 H1323 H 0.86618 0.29250 0.63680
 H1324 H 0.87833 0.31418 0.58855
 C1325 C 1.13438 1.15965 0.66453
 C1326 C 1.16164 1.18745 0.65108
 C1327 C 1.19128 1.20454 0.67012
 C1328 C 1.19224 1.19792 0.70336
 C1329 C 1.16467 1.17086 0.71690
 C1330 C 1.13636 1.15159 0.69770
 C1331 C 1.10471 1.14024 0.64270
 C1332 C 1.08011 1.10791 0.65225
 C1333 C 1.05572 1.08839 0.62987
 C1334 C 1.05480 1.10140 0.59783
 C1335 C 1.07712 1.13527 0.58885
 C1336 C 1.10302 1.15361 0.61047
 C1337 C 1.15857 1.19914 0.61892
 C1338 C 1.12908 1.18334 0.59923
 H1339 H 1.17890 1.22127 0.60894
 H1340 H 1.12773 1.19336 0.57444
 H1341 H 1.21276 1.22444 0.65893
 H1342 H 1.16451 1.16465 0.74245
 H1343 H 1.03891 1.06218 0.63734
 H1344 H 1.07692 1.14570 0.56414
 H1345 H 1.11572 1.13137 0.70937
 H1346 H 1.08078 1.09604 0.67638
 C1347 C 0.63261 0.66096 0.16776
 C1348 C 0.65838 0.68982 0.15383
 C1349 C 0.68876 0.70720 0.17204
 C1350 C 0.69158 0.70021 0.20517
 C1351 C 0.66524 0.67229 0.21927
 C1352 C 0.63648 0.65248 0.20075
 C1353 C 0.60252 0.64085 0.14656
 C1354 C 0.57993 0.60704 0.15616
 C1355 C 0.55574 0.58667 0.13399
 C1356 C 0.55287 0.60036 0.10218
 C1357 C 0.57255 0.63601 0.09350
 C1358 C 0.59860 0.65501 0.11470
 C1359 C 0.65308 0.70222 0.12202
 C1360 C 0.62290 0.68607 0.10317
 H1361 H 0.67217 0.72519 0.11170
 H1362 H 0.61987 0.69671 0.07865
 H1363 H 0.70949 0.72741 0.16031
 H1364 H 0.66649 0.66569 0.24473
 H1365 H 0.54088 0.55925 0.14134
 H1366 H 0.57050 0.64731 0.06910
 H1367 H 0.61693 0.63150 0.21279
 H1368 H 0.58233 0.59463 0.18005
 C1369 C 1.16757 0.86972 0.33663
 C1370 C 1.15450 0.86553 0.30460
 C1371 C 1.17334 0.83736 0.28445
 C1372 C 1.20299 0.81140 0.29677
 C1373 C 1.21106 0.81233 0.32988
 C1374 C 1.19446 0.84165 0.34941
 C1375 C 1.14941 0.90143 0.35688
 C1376 C 1.16623 0.91269 0.38637
 C1377 C 1.14485 0.93698 0.40728
 C1378 C 1.10626 0.95031 0.39921
 C1379 C 1.09193 0.94419 0.36779
 C1380 C 1.11392 0.92017 0.34625
 C1381 C 1.12175 0.88824 0.29371
 C1382 C 1.10069 0.91373 0.31464
 H1383 H 1.11101 0.88467 0.26929
 H1384 H 1.07406 0.92882 0.30593
 H1385 H 1.16435 0.83539 0.25947
 H1386 H 1.23105 0.79083 0.34090
 H1387 H 1.15768 0.94307 0.43070
 H1388 H 1.06297 0.95599 0.36076
 H1389 H 1.20220 0.84131 0.37463
 H1390 H 1.19525 0.90193 0.39396
 C1391 C 0.66353 0.36110 -0.16182
 C1392 C 0.65407 0.36199 -0.19486
 C1393 C 0.67376 0.33547 -0.21615
 C1394 C 0.70118 0.30674 -0.20437
 C1395 C 0.70655 0.30373 -0.17096
 C1396 C 0.68846 0.33057 -0.15006
 C1397 C 0.64488 0.39123 -0.14008
 C1398 C 0.65854 0.39693 -0.10859
 C1399 C 0.63785 0.42178 -0.08769
 C1400 C 0.60269 0.44161 -0.09746
 C1401 C 0.59126 0.43957 -0.13003
 C1402 C 0.61290 0.41495 -0.15164
 C1403 C 0.62438 0.38856 -0.20588
 C1404 C 0.60316 0.41344 -0.18449
 H1405 H 0.61646 0.38909 -0.23114
 H1406 H 0.57936 0.43217 -0.19390
 H1407 H 0.66759 0.33721 -0.24169
 H1408 H 0.72604 0.28126 -0.16063
 H1409 H 0.64870 0.42362 -0.06318
 H1410 H 0.56515 0.45593 -0.13827
 H1411 H 0.69406 0.32659 -0.12470
 H1412 H 0.68489 0.38198 -0.09950
 C1413 C 0.84001 1.13502 0.33799
 C1414 C 0.85191 1.13701 0.30553
 C1415 C 0.83368 1.16520 0.28518
 C1416 C 0.80589 1.19313 0.29768
 C1417 C 0.79971 1.19453 0.33107
 C1418 C 0.81572 1.16536 0.35090
 C1419 C 0.85620 1.10250 0.35826
 C1420 C 0.83896 1.09288 0.38797
 C1421 C 0.85844 1.06684 0.40858
 C1422 C 0.89567 1.05025 0.40002
 C1423 C 0.91009 1.05517 0.36846
 C1424 C 0.88976 1.08074 0.34714
 C1425 C 0.88261 1.11171 0.29428
 C1426 C 0.90256 1.08544 0.31519
 H1427 H 0.89253 1.11360 0.26950
 H1428 H 0.92765 1.06808 0.30612
 H1429 H 0.84119 1.16516 0.25982
 H1430 H 0.78078 1.21711 0.34202
 H1431 H 0.84544 1.06189 0.43213
 H1432 H 0.93788 1.04099 0.36109
 H1433 H 0.80920 1.16718 0.37634
 H1434 H 0.81104 1.10612 0.39589
 C1435 C 0.33751 0.63332 -0.16571
 C1436 C 0.30979 0.66079 -0.15227
 C1437 C 0.29217 0.69017 -0.17146
 C1438 C 0.29826 0.69075 -0.20480
 C1439 C 0.32511 0.66277 -0.21834
 C1440 C 0.34485 0.63472 -0.19903
 C1441 C 0.35766 0.60412 -0.14369
 C1442 C 0.39008 0.57951 -0.15323
 C1443 C 0.41020 0.55565 -0.13069
 C1444 C 0.39771 0.55522 -0.09846
 C1445 C 0.36381 0.57757 -0.08947
 C1446 C 0.34491 0.60299 -0.11126
 C1447 C 0.29879 0.65826 -0.11990
 C1448 C 0.31517 0.62916 -0.10002
 H1449 H 0.27675 0.67873 -0.10989
 H1450 H 0.30560 0.62828 -0.07509
 H1451 H 0.27245 0.71190 -0.16024
 H1452 H 0.33094 0.66222 -0.24395
 H1453 H 0.43637 0.53882 -0.13824
 H1454 H 0.35369 0.57773 -0.06467
 H1455 H 0.36496 0.61385 -0.21069
 H1456 H 0.40147 0.57977 -0.17753
 C1457 C 0.86629 0.83808 0.66557
 C1458 C 0.83710 0.81192 0.65270
 C1459 C 0.80844 0.79479 0.67272
 C1460 C 0.80993 0.80012 0.70612
 C1461 C 0.83920 0.82578 0.71902
 C1462 C 0.86681 0.84487 0.69899
 C1463 C 0.89540 0.85702 0.64292
 C1464 C 0.92251 0.88732 0.65229
 C1465 C 0.94664 0.90635 0.62945
 C1466 C 0.94475 0.89490 0.59703
 C1467 C 0.91964 0.86312 0.58800
 C1468 C 0.89418 0.84518 0.61026
 C1469 C 0.83732 0.80173 0.62008
 C1470 C 0.86595 0.81730 0.59941
 H1471 H 0.81540 0.78092 0.61048
 H1472 H 0.86507 0.80843 0.57432
 H1473 H 0.78606 0.77543 0.66210
 H1474 H 0.84136 0.83083 0.74467
 H1475 H 0.96570 0.93093 0.63698
 H1476 H 0.91755 0.85406 0.56299
 H1477 H 0.88890 0.86388 0.71021
 H1478 H 0.92425 0.89793 0.67678
 C1479 C 0.36185 0.33634 0.16646
 C1480 C 0.33419 0.30888 0.15311
 C1481 C 0.30498 0.29136 0.17248
 C1482 C 0.30467 0.29748 0.20583
 C1483 C 0.33264 0.32431 0.21918
 C1484 C 0.36059 0.34381 0.19975
 C1485 C 0.39128 0.35598 0.14444
 C1486 C 0.41637 0.38788 0.15411
 C1487 C 0.44061 0.40757 0.13168
 C1488 C 0.44087 0.39526 0.09943
 C1489 C 0.41807 0.36176 0.09027
 C1490 C 0.39231 0.34323 0.11201
 C1491 C 0.33651 0.29793 0.12070
 C1492 C 0.36573 0.31394 0.10075
 H1493 H 0.31582 0.27615 0.11074
 H1494 H 0.36648 0.30442 0.07580
 H1495 H 0.28329 0.27156 0.16146
 H1496 H 0.33348 0.33014 0.24478
 H1497 H 0.45781 0.43346 0.13931
 H1498 H 0.41788 0.35181 0.06542
 H1499 H 0.38156 0.36372 0.21135
 H1500 H 0.41622 0.39931 0.17840
   
