data_POSCAR
  _audit_creation_date              2014-09-24
  _audit_creation_method            'ToBaCCo'
  _symmetry_space_group_name_H-M    'P1'
  _symmetry_Int_Tables_number       1
  _symmetry_cell_setting            triclinic
  loop_
  _symmetry_equiv_pos_as_xyz
 x,y,z
_cell_length_a 44.8722
_cell_length_b 51.2278
_cell_length_c 39.6107
_cell_angle_alpha 89.996100
_cell_angle_beta 89.963300
_cell_angle_gamma 89.935700
loop_
  _atom_site_label
  _atom_site_type_symbol
  _atom_site_fract_x
  _atom_site_fract_y
  _atom_site_fract_z
C1 C 1.21066 0.25749 0.30181
 H2 H 1.21118 0.23640 0.30304
 C3 C 1.19204 0.27158 0.32351
 H4 H 1.17810 0.26139 0.34153
 C5 C 1.22781 0.29669 0.27655
 H6 H 1.24192 0.30651 0.25852
 C7 C 1.20964 0.31147 0.29777
 H8 H 1.20960 0.33257 0.29568
 N9 N 1.22745 0.27016 0.27831
 C10 C 1.23782 0.21408 0.19612
 H11 H 1.26175 0.21408 0.19285
 C12 C 1.21998 0.19833 0.17561
 H13 H 1.23018 0.18597 0.15665
 C14 C 1.19513 0.23018 0.22471
 H15 H 1.18539 0.24293 0.24339
 C16 C 1.17653 0.21478 0.20474
 H17 H 1.15263 0.21540 0.20858
 Zn18 Zn 1.25050 0.25029 0.24752
 N19 N 1.22524 0.22924 0.22052
 C20 C 1.27690 0.20299 0.27054
 N21 N 1.27726 0.22948 0.27314
 C22 C 1.29566 0.24174 0.29537
 C23 C 1.31516 0.22729 0.31561
 C24 C 1.29601 0.18779 0.29027
 C25 C 1.25421 0.28757 0.19650
 C26 C 1.26737 0.30644 0.17592
 C27 C 1.31539 0.29442 0.19877
 C28 C 1.30132 0.27574 0.21896
 N29 N 1.27115 0.27314 0.21807
 H30 H 1.26161 0.19352 0.25347
 H31 H 1.29507 0.26279 0.29744
 H32 H 1.32975 0.23733 0.33312
 H33 H 1.29549 0.16670 0.28789
 H34 H 1.23029 0.28494 0.19614
 H35 H 1.25361 0.31840 0.15960
 H36 H 1.33932 0.29695 0.20031
 H37 H 1.31446 0.26381 0.23580
 C38 C 1.18907 0.19861 0.18014
 C39 C 1.19130 0.29881 0.32108
 C40 C 1.29818 0.31015 0.17745
 C41 C 1.31537 0.20003 0.31301
 C42 C 0.70220 -0.24396 0.29576
 H43 H 0.70248 -0.26490 0.29926
 C44 C 0.68184 -0.22861 0.31372
 H45 H 0.66629 -0.23772 0.33100
 C46 C 0.72248 -0.20633 0.26955
 H47 H 0.73868 -0.19760 0.25288
 C48 C 0.70255 -0.19030 0.28700
 H49 H 0.70328 -0.16935 0.28337
 N50 N 0.72176 -0.23268 0.27389
 C51 C 0.74740 -0.29376 0.20240
 H52 H 0.77136 -0.29156 0.20337
 C53 C 0.73476 -0.31292 0.18186
 H54 H 0.74897 -0.32548 0.16683
 C55 C 0.69956 -0.28031 0.22114
 H56 H 0.68592 -0.26754 0.23637
 C57 C 0.68601 -0.29922 0.20089
 H58 H 0.66196 -0.30102 0.20070
 Zn59 Zn 0.74941 -0.25447 0.25103
 N60 N 0.72979 -0.27831 0.22204
 C61 C 0.77091 -0.29974 0.28385
 N62 N 0.77122 -0.27318 0.28404
 C63 C 0.78744 -0.25967 0.30723
 C64 C 0.80590 -0.27294 0.32992
 C65 C 0.78890 -0.31373 0.30610
 C66 C 0.76395 -0.22028 0.19803
 C67 C 0.78237 -0.20502 0.17755
 C68 C 0.82481 -0.21982 0.20985
 C69 C 0.80562 -0.23478 0.22972
 N70 N 0.77571 -0.23437 0.22395
 H71 H 0.75720 -0.31020 0.26604
 H72 H 0.78688 -0.23855 0.30720
 H73 H 0.81971 -0.26209 0.34738
 H74 H 0.78931 -0.33486 0.30495
 H75 H 0.74017 -0.22071 0.19354
 H76 H 0.77279 -0.19351 0.15733
 H77 H 0.84854 -0.21998 0.21491
 H78 H 0.81477 -0.24672 0.24962
 C79 C 0.70381 -0.31585 0.18140
 C80 C 0.68202 -0.20153 0.30922
 C81 C 0.81305 -0.20467 0.18372
 C82 C 0.80696 -0.30021 0.32886
 C83 C 0.71246 0.27313 -0.20115
 H84 H 0.70771 0.25266 -0.19716
 C85 C 0.69845 0.29204 -0.18120
 H86 H 0.68268 0.28616 -0.16193
 C87 C 0.73911 0.30592 -0.23071
 H88 H 0.75540 0.31132 -0.24949
 C89 C 0.72564 0.32540 -0.21134
 H90 H 0.73126 0.34570 -0.21567
 N91 N 0.73207 0.28035 -0.22566
 C92 C 0.73448 0.21592 -0.29824
 H93 H 0.75834 0.21322 -0.30007
 C94 C 0.71539 0.20049 -0.31762
 H95 H 0.72454 0.18575 -0.33428
 C96 C 0.69335 0.23841 -0.27430
 H97 H 0.68485 0.25337 -0.25768
 C98 C 0.67345 0.22337 -0.29327
 H99 H 0.64968 0.22660 -0.29088
 Zn100 Zn 0.75117 0.25388 -0.25137
 N101 N 0.72325 0.23415 -0.27671
 C102 C 0.76814 0.20583 -0.22046
 N103 N 0.77234 0.23215 -0.22091
 C104 C 0.79219 0.24380 -0.19975
 C105 C 0.80983 0.22874 -0.17818
 C106 C 0.78531 0.19006 -0.19924
 C107 C 0.76640 0.28492 -0.30693
 C108 C 0.78523 0.29836 -0.32897
 C109 C 0.82752 0.27813 -0.30154
 C110 C 0.80787 0.26511 -0.28002
 N111 N 0.77798 0.26928 -0.28245
 H112 H 0.75183 0.19696 -0.23685
 H113 H 0.79482 0.26478 -0.20032
 H114 H 0.82615 0.23811 -0.16210
 H115 H 0.78235 0.16907 -0.19960
 H116 H 0.74253 0.28758 -0.30858
 H117 H 0.77578 0.31149 -0.34758
 H118 H 0.85133 0.27529 -0.29864
 H119 H 0.81664 0.25208 -0.26106
 C120 C 0.68459 0.20414 -0.31497
 C121 C 0.70507 0.31841 -0.18645
 C122 C 0.81611 0.29525 -0.32586
 C123 C 0.80660 0.20160 -0.17824
 C124 C 1.20707 -0.24068 -0.20159
 H125 H 1.20493 -0.26171 -0.20190
 C126 C 1.18792 -0.22569 -0.18167
 H127 H 1.17093 -0.23513 -0.16655
 C128 C 1.23145 -0.20256 -0.22140
 H129 H 1.24846 -0.19362 -0.23682
 C130 C 1.21278 -0.18684 -0.20181
 H131 H 1.21532 -0.16581 -0.20239
 N132 N 1.22782 -0.22893 -0.22153
 C133 C 1.23909 -0.28270 -0.30545
 H134 H 1.26302 -0.28527 -0.30530
 C135 C 1.22159 -0.29680 -0.32812
 H136 H 1.23199 -0.31044 -0.34541
 C137 C 1.19607 -0.26255 -0.28224
 H138 H 1.18618 -0.24917 -0.26443
 C139 C 1.17776 -0.27624 -0.30451
 H140 H 1.15381 -0.27369 -0.30337
 Zn141 Zn 1.25092 -0.25066 -0.24990
 N142 N 1.22606 -0.26665 -0.28238
 C143 C 1.26189 -0.30219 -0.22701
 N144 N 1.26881 -0.27657 -0.22229
 C145 C 1.28706 -0.26894 -0.19669
 C146 C 1.29981 -0.28751 -0.17520
 C147 C 1.27413 -0.32133 -0.20613
 C148 C 1.26926 -0.21339 -0.29662
 C149 C 1.28896 -0.19835 -0.31570
 C150 C 1.33008 -0.22012 -0.28809
 C151 C 1.30956 -0.23481 -0.26949
 N152 N 1.27976 -0.23097 -0.27377
 H153 H 1.24660 -0.30790 -0.24666
 H154 H 1.29166 -0.24842 -0.19299
 H155 H 1.31452 -0.28134 -0.15506
 H156 H 1.26864 -0.34168 -0.21023
 H157 H 1.24547 -0.21105 -0.29992
 H158 H 1.28037 -0.18426 -0.33364
 H159 H 1.35376 -0.22312 -0.28443
 H160 H 1.31748 -0.24928 -0.25182
 C161 C 1.19062 -0.29387 -0.32716
 C162 C 1.19059 -0.19851 -0.18214
 C163 C 1.31964 -0.20168 -0.31132
 C164 C 1.29330 -0.31395 -0.18007
 C165 C 0.26631 0.21345 0.70672
 H166 H 0.24248 0.21078 0.70462
 C167 C 0.28557 0.19865 0.68668
 H168 H 0.27657 0.18440 0.66925
 C169 C 0.30719 0.23537 0.73187
 H170 H 0.31551 0.24991 0.74919
 C171 C 0.32726 0.22094 0.71228
 H172 H 0.35100 0.22418 0.71488
 N173 N 0.27734 0.23113 0.72909
 C174 C 0.20774 0.23936 0.80554
 H175 H 0.20519 0.26036 0.80564
 C176 C 0.18973 0.22395 0.82626
 H177 H 0.17323 0.23312 0.84238
 C178 C 0.23192 0.20173 0.78381
 H179 H 0.24838 0.19314 0.76730
 C180 C 0.21439 0.18559 0.80414
 H181 H 0.21731 0.16460 0.80297
 Zn182 Zn 0.24912 0.25029 0.75475
 N183 N 0.22780 0.22805 0.78427
 C184 C 0.19257 0.26167 0.72583
 N185 N 0.22245 0.26603 0.72386
 C186 C 0.23412 0.28222 0.70005
 C187 C 0.21535 0.29614 0.67847
 C188 C 0.17301 0.27517 0.70470
 C189 C 0.28720 0.26909 0.80595
 C190 C 0.30047 0.28785 0.82672
 C191 C 0.27271 0.32128 0.79732
 C192 C 0.25998 0.30195 0.77715
 N193 N 0.26765 0.27643 0.78145
 H194 H 0.18373 0.24821 0.74423
 H195 H 0.25798 0.28503 0.69874
 H196 H 0.22471 0.30984 0.66054
 H197 H 0.14919 0.27237 0.70726
 H198 H 0.29242 0.24864 0.80937
 H199 H 0.31619 0.28190 0.84599
 H200 H 0.26658 0.34154 0.79357
 H201 H 0.24372 0.30743 0.75840
 C202 C 0.19282 0.19679 0.82518
 C203 C 0.31632 0.20234 0.68959
 C204 C 0.29317 0.31419 0.82226
 C205 C 0.18451 0.29290 0.68127
 C206 C 0.76142 0.71581 0.69151
 H207 H 0.73752 0.71308 0.69104
 C208 C 0.77948 0.70253 0.66845
 H209 H 0.76952 0.68942 0.65021
 C210 C 0.80380 0.73558 0.71651
 H211 H 0.81324 0.74851 0.73513
 C212 C 0.82263 0.72271 0.69391
 H213 H 0.84652 0.72548 0.69556
 N214 N 0.77386 0.73132 0.71556
 C215 C 0.71141 0.72668 0.79985
 H216 H 0.70689 0.74711 0.80451
 C217 C 0.69785 0.70757 0.81982
 H218 H 0.68266 0.71331 0.83978
 C219 C 0.73695 0.69418 0.76847
 H220 H 0.75262 0.68897 0.74892
 C221 C 0.72391 0.67448 0.78781
 H222 H 0.72928 0.65423 0.78264
 Zn223 Zn 0.74829 0.74642 0.74824
 N224 N 0.73018 0.71971 0.77439
 C225 C 0.68962 0.76229 0.72855
 N226 N 0.71940 0.76644 0.72468
 C227 C 0.72982 0.78483 0.70288
 C228 C 0.71004 0.80052 0.68474
 C229 C 0.66903 0.77758 0.71085
 C230 C 0.79147 0.75607 0.79776
 C231 C 0.81018 0.77102 0.81826
 C232 C 0.78471 0.80983 0.79894
 C233 C 0.76650 0.79417 0.77878
 N234 N 0.77067 0.76785 0.77790
 H235 H 0.68174 0.74719 0.74534
 H236 H 0.75360 0.78745 0.69987
 H237 H 0.71857 0.81537 0.66784
 H238 H 0.64537 0.77441 0.71437
 H239 H 0.79408 0.73509 0.79687
 H240 H 0.82728 0.76157 0.83321
 H241 H 0.78180 0.83083 0.79880
 H242 H 0.74945 0.80315 0.76345
 C243 C 0.70407 0.68121 0.81360
 C244 C 0.81038 0.70571 0.67008
 C245 C 0.80702 0.79818 0.81846
 C246 C 0.67937 0.79697 0.68890
 C247 C 0.76252 0.21996 0.19595
 H248 H 0.73863 0.22045 0.19235
 C249 C 0.78028 0.20424 0.17523
 H250 H 0.77008 0.19242 0.15575
 C251 C 0.80515 0.23470 0.22571
 H252 H 0.81491 0.24688 0.24495
 C253 C 0.82367 0.21931 0.20557
 H254 H 0.84752 0.21936 0.20983
 N255 N 0.77508 0.23436 0.22107
 C256 C 0.70404 0.24540 0.29574
 H257 H 0.70447 0.26639 0.29871
 C258 C 0.68444 0.23038 0.31515
 H259 H 0.66961 0.23979 0.33299
 C260 C 0.72329 0.20733 0.26953
 H261 H 0.73885 0.19831 0.25231
 C262 C 0.70410 0.19162 0.28840
 H263 H 0.70473 0.17061 0.28531
 Zn264 Zn 0.74984 0.25500 0.24880
 N265 N 0.72275 0.23374 0.27323
 C266 C 0.69952 0.28142 0.22060
 N267 N 0.72971 0.27879 0.22021
 C268 C 0.74701 0.29364 0.19953
 C269 C 0.73417 0.31283 0.17917
 C270 C 0.68577 0.30040 0.20058
 C271 C 0.78942 0.26024 0.30350
 C272 C 0.80863 0.27344 0.32539
 C273 C 0.79187 0.31425 0.30131
 C274 C 0.77311 0.30033 0.27986
 N275 N 0.77289 0.27377 0.28058
 H276 H 0.68612 0.26914 0.23671
 H277 H 0.77093 0.29095 0.19953
 H278 H 0.74817 0.32493 0.16332
 H279 H 0.66178 0.30274 0.20141
 H280 H 0.78846 0.23914 0.30389
 H281 H 0.82260 0.26255 0.34269
 H282 H 0.79262 0.33536 0.29979
 H283 H 0.75918 0.31082 0.26228
 C284 C 0.68450 0.20323 0.31139
 C285 C 0.81112 0.20380 0.18032
 C286 C 0.81016 0.30067 0.32380
 C287 C 0.70331 0.31642 0.18001
 C288 C 0.25328 0.71211 0.20014
 H289 H 0.22929 0.71415 0.20100
 C290 C 0.26625 0.69335 0.17916
 H291 H 0.25225 0.68090 0.16378
 C292 C 0.30083 0.72531 0.21988
 H293 H 0.31423 0.73773 0.23581
 C294 C 0.31471 0.70677 0.19925
 H295 H 0.33875 0.70485 0.19956
 N296 N 0.27058 0.72717 0.22057
 C297 C 0.21301 0.74219 0.30724
 H298 H 0.21279 0.76330 0.30813
 C299 C 0.19572 0.72783 0.33000
 H300 H 0.18205 0.73783 0.34848
 C301 C 0.23059 0.70322 0.28170
 H302 H 0.24433 0.69360 0.26310
 C303 C 0.21378 0.68817 0.30397
 H304 H 0.21435 0.66707 0.30211
 Zn305 Zn 0.25044 0.74984 0.25083
 N306 N 0.22934 0.72974 0.28310
 C307 C 0.19353 0.76880 0.23076
 N308 N 0.22341 0.77014 0.22493
 C309 C 0.23460 0.78510 0.19951
 C310 C 0.21555 0.80017 0.17952
 C311 C 0.17373 0.78354 0.21135
 C312 C 0.29722 0.75978 0.29616
 C313 C 0.31729 0.77478 0.31492
 C314 C 0.29632 0.81364 0.28965
 C315 C 0.27666 0.79790 0.27141
 N316 N 0.27765 0.77145 0.27465
 H317 H 0.18489 0.75620 0.25026
 H318 H 0.25837 0.78540 0.19494
 H319 H 0.22465 0.81228 0.15960
 H320 H 0.15002 0.78253 0.21636
 H321 H 0.29717 0.73875 0.29875
 H322 H 0.33282 0.76520 0.33184
 H323 H 0.29533 0.83467 0.28671
 H324 H 0.26049 0.80691 0.25493
 C325 C 0.19585 0.70057 0.32797
 C326 C 0.29721 0.69041 0.17910
 C327 C 0.31688 0.80200 0.31158
 C328 C 0.18486 0.79945 0.18563
 O329 O 0.94449 -0.03701 -0.06232
 O330 O 0.97116 -0.06624 -0.03029
 C331 C 0.95181 -0.06052 -0.05341
 O332 O 1.05157 0.03518 -0.05892
 O333 O 1.02342 0.06426 -0.02834
 C334 C 1.04431 0.05861 -0.04975
 O335 O 1.04833 -0.03748 -0.06256
 O336 O 1.02151 -0.06655 -0.03052
 C337 C 1.04091 -0.06092 -0.05363
 O338 O 0.94207 0.03591 -0.05866
 O339 O 0.97120 0.06461 -0.02875
 C340 C 0.95000 0.05927 -0.04982
 Zr341 Zr 0.95869 -0.00071 -0.04253
 O342 O 0.95468 -0.00042 -0.09576
 O343 O 0.91184 -0.00130 -0.03702
 Zr344 Zr 1.03384 -0.00109 -0.04349
 O345 O 1.03224 0.00163 -0.09681
 O346 O 1.08088 -0.00413 -0.04506
 O347 O 0.99613 -0.02419 -0.04987
 O348 O 0.99639 0.02197 -0.04910
 O349 O 0.94209 0.03530 0.05820
 O350 O 0.97158 0.06429 0.02914
 C351 C 0.95028 0.05874 0.05003
 O352 O 1.04931 -0.03805 0.06002
 O353 O 1.02189 -0.06676 0.02815
 C354 C 1.04161 -0.06140 0.05100
 O355 O 1.05237 0.03471 0.05726
 O356 O 1.02367 0.06403 0.02776
 C357 C 1.04483 0.05821 0.04871
 O358 O 0.94458 -0.03775 0.06086
 O359 O 0.97123 -0.06660 0.02819
 C360 C 0.95195 -0.06115 0.05150
 Zr361 Zr 0.95947 -0.00116 0.04248
 O362 O 0.96112 0.00149 0.09580
 O363 O 0.91240 -0.00339 0.04386
 Zr364 Zr 1.03450 -0.00149 0.04169
 O365 O 1.03359 0.00126 0.09504
 O366 O 1.08154 -0.00462 0.04228
 Zr367 Zr 0.99655 -0.04022 -0.00081
 Zr368 Zr 0.99684 0.03806 -0.00026
 O369 O 0.99714 0.02152 0.04841
 O370 O 0.99694 -0.02481 0.04857
 O371 O 0.95337 0.02249 0.00016
 O372 O 1.03961 -0.02397 -0.00113
 O373 O 0.95356 -0.02374 -0.00023
 O374 O 1.04014 0.02194 -0.00079
 H375 H 0.99658 0.03404 -0.06863
 H376 H 1.05728 -0.03558 -0.00137
 H377 H 0.99740 0.03330 0.06825
 H378 H 0.93589 -0.03532 -0.00028
 H379 H 1.08901 0.00918 -0.02954
 H380 H 1.08950 0.00902 0.02709
 H381 H 1.02297 -0.01426 0.10374
 H382 H 0.97164 -0.01418 0.10426
 H383 H 0.90478 0.00830 0.02594
 H384 H 0.90356 -0.00147 -0.06020
 H385 H 0.97318 0.00715 -0.10505
 H386 H 1.01999 -0.01309 -0.10509
 O387 O 0.95025 0.46331 0.43966
 O388 O 0.97652 0.43435 0.47245
 C389 C 0.95748 0.43988 0.44900
 O390 O 1.05804 0.53570 0.44579
 O391 O 1.02884 0.56484 0.47493
 C392 C 1.05042 0.55915 0.45451
 O393 O 1.05479 0.46293 0.44232
 O394 O 1.02697 0.43410 0.47357
 C395 C 1.04702 0.43955 0.45114
 O396 O 0.94728 0.53637 0.44336
 O397 O 0.97591 0.56510 0.47378
 C398 C 0.95498 0.55972 0.45244
 Zr399 Zr 0.96466 0.49985 0.45879
 O400 O 0.96562 0.50267 0.40547
 O401 O 0.91758 0.49868 0.45989
 Zr402 Zr 1.03952 0.49947 0.46026
 O403 O 1.03802 0.50263 0.40696
 O404 O 1.08653 0.49636 0.45866
 O405 O 1.00211 0.47618 0.45287
 O406 O 1.00233 0.52264 0.45345
 O407 O 0.94472 0.53616 0.55819
 O408 O 0.97476 0.56498 0.52961
 C409 C 0.95285 0.55954 0.54968
 O410 O 1.05254 0.46278 0.56440
 O411 O 1.02591 0.43407 0.53171
 C412 C 1.04508 0.43944 0.55509
 O413 O 1.05611 0.53558 0.56106
 O414 O 1.02782 0.56475 0.53088
 C415 C 1.04875 0.55904 0.55209
 O416 O 0.94756 0.46315 0.56182
 O417 O 0.97546 0.43428 0.53057
 C418 C 0.95531 0.43974 0.55287
 Zr419 Zr 0.96321 0.49972 0.54407
 O420 O 0.96422 0.50264 0.59739
 O421 O 0.91614 0.49775 0.54466
 Zr422 Zr 1.03797 0.49938 0.54586
 O423 O 1.03453 0.50251 0.59905
 O424 O 1.08487 0.49624 0.54968
 Zr425 Zr 1.00127 0.46055 0.50213
 Zr426 Zr 1.00170 0.53876 0.50229
 O427 O 1.00059 0.52258 0.55111
 O428 O 1.00037 0.47600 0.55149
 O429 O 0.95833 0.52301 0.50132
 O430 O 1.04429 0.47691 0.50314
 O431 O 0.95836 0.47713 0.50121
 O432 O 1.04490 0.52248 0.50323
 H433 H 1.00270 0.53466 0.43385
 H434 H 1.06202 0.46538 0.50353
 H435 H 1.00025 0.53467 0.57064
 H436 H 0.94058 0.46568 0.50074
 H437 H 1.09458 0.50859 0.47566
 H438 H 1.09354 0.50808 0.53260
 H439 H 1.02534 0.48624 0.60754
 H440 H 0.97346 0.48648 0.60623
 H441 H 0.90911 0.50637 0.52378
 H442 H 0.91095 0.49879 0.43602
 H443 H 0.97798 0.48808 0.39698
 H444 H 1.02942 0.48626 0.39798
 O445 O 0.55124 -0.03544 0.56081
 O446 O 0.52490 -0.06435 0.52806
 C447 C 0.54381 -0.05886 0.55175
 O448 O 0.44552 0.03745 0.55848
 O449 O 0.47359 0.06650 0.52784
 C450 C 0.45307 0.06091 0.54969
 O451 O 0.44821 -0.03551 0.56079
 O452 O 0.47488 -0.06431 0.52814
 C453 C 0.45577 -0.05890 0.55163
 O454 O 0.55440 0.03734 0.55777
 O455 O 0.52563 0.06654 0.52811
 C456 C 0.54654 0.06084 0.54946
 Zr457 Zr 0.53780 0.00099 0.54081
 O458 O 0.54238 0.00120 0.59396
 O459 O 0.58458 0.00000 0.53480
 Zr460 Zr 0.46257 0.00108 0.54192
 O461 O 0.46372 0.00327 0.59529
 O462 O 0.41548 -0.00169 0.54272
 O463 O 0.50021 -0.02226 0.54785
 O464 O 0.50020 0.02378 0.54779
 O465 O 0.55438 0.03767 0.44033
 O466 O 0.52610 0.06665 0.47096
 C467 C 0.54681 0.06110 0.44927
 O468 O 0.44700 -0.03499 0.43790
 O469 O 0.47386 -0.06415 0.46984
 C470 C 0.45446 -0.05849 0.44674
 O471 O 0.44457 0.03808 0.44133
 O472 O 0.47385 0.06688 0.47091
 C473 C 0.45263 0.06148 0.44987
 O474 O 0.55135 -0.03505 0.43644
 O475 O 0.52457 -0.06414 0.46847
 C476 C 0.54375 -0.05852 0.44511
 Zr477 Zr 0.53694 0.00129 0.45594
 O478 O 0.53581 0.00449 0.40265
 O479 O 0.58401 -0.00134 0.45524
 Zr480 Zr 0.46183 0.00147 0.45677
 O481 O 0.46213 0.00460 0.40345
 O482 O 0.41476 -0.00128 0.45690
 Zr483 Zr 0.49974 -0.03796 0.49859
 Zr484 Zr 0.49976 0.04038 0.49921
 O485 O 0.49939 0.02423 0.45035
 O486 O 0.49929 -0.02201 0.44949
 O487 O 0.54316 0.02456 0.49854
 O488 O 0.45674 -0.02143 0.49925
 O489 O 0.54282 -0.02181 0.49824
 O490 O 0.45633 0.02463 0.49958
 H491 H 0.50016 0.03554 0.56764
 H492 H 0.43907 -0.03300 0.49945
 H493 H 0.49933 0.03613 0.43063
 H494 H 0.56027 -0.03369 0.49811
 H495 H 0.40750 0.01257 0.52852
 H496 H 0.40707 0.01279 0.47161
 H497 H 0.47313 -0.01063 0.39447
 H498 H 0.52423 -0.01047 0.39390
 H499 H 0.59166 0.01113 0.47223
 H500 H 0.59302 -0.00078 0.55788
 H501 H 0.52316 0.00702 0.60351
 H502 H 0.47620 -0.01137 0.60345
 O503 O 0.54086 0.54700 0.05893
 O504 O 0.57361 0.52337 0.02636
 C505 C 0.56749 0.54065 0.04927
 O506 O 0.45815 0.45259 0.05826
 O507 O 0.42424 0.47728 0.02882
 C508 C 0.43121 0.45886 0.04984
 O509 O 0.54096 0.45560 0.06010
 O510 O 0.57364 0.47867 0.02685
 C511 C 0.56756 0.46170 0.05014
 O512 O 0.45783 0.54947 0.05751
 O513 O 0.42407 0.52422 0.02866
 C514 C 0.43091 0.54288 0.04937
 Zr515 Zr 0.49907 0.53402 0.04116
 O516 O 0.50141 0.53498 0.09461
 O517 O 0.49968 0.57520 0.03772
 Zr518 Zr 0.49915 0.46852 0.04222
 O519 O 0.49701 0.47098 0.09553
 O520 O 0.50262 0.42738 0.04510
 O521 O 0.52603 0.50131 0.04760
 O522 O 0.47285 0.50125 0.04847
 O523 O 0.45603 0.54929 -0.05770
 O524 O 0.42325 0.52416 -0.02717
 C525 C 0.42941 0.54277 -0.04824
 O526 O 0.53907 0.45420 -0.06201
 O527 O 0.57276 0.47821 -0.03134
 C528 C 0.56598 0.46065 -0.05361
 O529 O 0.45609 0.45193 -0.05703
 O530 O 0.42319 0.47789 -0.02783
 C531 C 0.42942 0.45885 -0.04821
 O532 O 0.53891 0.54659 -0.06323
 O533 O 0.57267 0.52292 -0.03210
 C534 C 0.56584 0.54018 -0.05478
 Zr535 Zr 0.49766 0.53324 -0.04398
 O536 O 0.49336 0.53097 -0.09715
 O537 O 0.50004 0.57442 -0.04641
 Zr538 Zr 0.49775 0.46788 -0.04330
 O539 O 0.49344 0.46987 -0.09650
 O540 O 0.50084 0.42671 -0.04584
 Zr541 Zr 0.54315 0.50084 -0.00194
 Zr542 Zr 0.45357 0.50072 0.00015
 O543 O 0.47126 0.50053 -0.04911
 O544 O 0.52455 0.50051 -0.05085
 O545 O 0.47183 0.53863 -0.00082
 O546 O 0.52416 0.46326 -0.00102
 O547 O 0.52429 0.53846 -0.00199
 O548 O 0.47206 0.46285 0.00011
 H549 H 0.45919 0.50113 0.06811
 H550 H 0.53714 0.44760 -0.00101
 H551 H 0.45719 0.50053 -0.06839
 H552 H 0.53734 0.55405 -0.00241
 H553 H 0.48870 0.42004 0.02827
 H554 H 0.48775 0.41959 -0.02801
 H555 H 0.51216 0.47722 -0.10565
 H556 H 0.51172 0.52281 -0.10613
 H557 H 0.49030 0.58118 -0.02576
 H558 H 0.50067 0.58181 0.06121
 H559 H 0.48348 0.52638 0.10391
 H560 H 0.51321 0.48275 0.10295
 C561 C 1.09582 0.11392 0.09430
 C562 C 1.10152 0.13873 0.07998
 C563 C 1.12092 0.15646 0.09670
 C564 C 1.13450 0.14921 0.12758
 C565 C 1.12882 0.12436 0.14185
 C566 C 1.10942 0.10667 0.12518
 C567 C 1.10413 0.08191 0.13993
 C568 C 1.11765 0.07484 0.17023
 C569 C 1.13663 0.09213 0.18653
 C570 C 1.14223 0.11663 0.17264
 C571 C 1.12629 0.18115 0.08194
 C572 C 1.11293 0.18814 0.05148
 C573 C 1.09401 0.17079 0.03513
 C574 C 1.08828 0.14633 0.04909
 C575 C 1.15410 0.16726 0.14503
 C576 C 1.17022 0.18177 0.16051
 C577 C 1.07664 0.09542 0.07708
 C578 C 1.06151 0.07903 0.06365
 H579 H 1.08953 0.06775 0.12826
 H580 H 1.11337 0.05582 0.18112
 H581 H 1.14710 0.08655 0.21006
 H582 H 1.15719 0.12937 0.18629
 H583 H 1.14087 0.19528 0.09373
 H584 H 1.11728 0.20711 0.04052
 H585 H 1.08367 0.17633 0.01153
 H586 H 1.07339 0.13350 0.03546
 C587 C 1.10017 0.61664 0.59262
 C588 C 1.09693 0.64321 0.58354
 C589 C 1.11591 0.66231 0.59815
 C590 C 1.13796 0.65466 0.62170
 C591 C 1.14149 0.62802 0.63036
 C592 C 1.12252 0.60895 0.61580
 C593 C 1.12639 0.58242 0.62494
 C594 C 1.14839 0.57498 0.64782
 C595 C 1.16698 0.59364 0.66205
 C596 C 1.16368 0.61987 0.65352
 C597 C 1.11226 0.68878 0.58880
 C598 C 1.09041 0.69617 0.56569
 C599 C 1.07179 0.67750 0.55147
 C600 C 1.07495 0.65128 0.56014
 C601 C 1.15645 0.67408 0.63806
 C602 C 1.17199 0.68927 0.65309
 C603 C 1.08085 0.59703 0.57800
 C604 C 1.06562 0.58003 0.56615
 H605 H 1.11251 0.56715 0.61455
 H606 H 1.15102 0.55462 0.65452
 H607 H 1.18405 0.58777 0.67979
 H608 H 1.17876 0.63362 0.66523
 H609 H 1.12626 0.70397 0.59918
 H610 H 1.08789 0.71651 0.55883
 H611 H 1.05475 0.68337 0.53369
 H612 H 1.06000 0.63745 0.54836
 C613 C 0.59381 0.11770 0.59818
 C614 C 0.59534 0.14386 0.58681
 C615 C 0.61321 0.16228 0.60448
 C616 C 0.62950 0.15441 0.63337
 C617 C 0.62785 0.12825 0.64480
 C618 C 0.60997 0.10986 0.62718
 C619 C 0.60881 0.08380 0.63906
 C620 C 0.62487 0.07612 0.66748
 C621 C 0.64235 0.09409 0.68469
 C622 C 0.64390 0.11987 0.67362
 C623 C 0.61443 0.18830 0.59259
 C624 C 0.59849 0.19592 0.56403
 C625 C 0.58108 0.17791 0.54674
 C626 C 0.57943 0.15215 0.55789
 C627 C 0.64842 0.17291 0.65111
 C628 C 0.66464 0.18754 0.66634
 C629 C 0.57613 0.09859 0.57993
 C630 C 0.56215 0.08185 0.56555
 H631 H 0.59554 0.06907 0.62657
 H632 H 0.62373 0.05611 0.67617
 H633 H 0.65479 0.08803 0.70675
 H634 H 0.65782 0.13310 0.68790
 H635 H 0.62766 0.20300 0.60522
 H636 H 0.59967 0.21591 0.55527
 H637 H 0.56875 0.18394 0.52459
 H638 H 0.56558 0.13884 0.54363
 C639 C 0.62967 0.58868 0.09101
 C640 C 0.62647 0.61536 0.08227
 C641 C 0.64343 0.63462 0.09945
 C642 C 0.66344 0.62712 0.12531
 C643 C 0.66756 0.60036 0.13306
 C644 C 0.65060 0.58107 0.11584
 C645 C 0.65478 0.55449 0.12427
 C646 C 0.67521 0.54713 0.14900
 C647 C 0.69180 0.56598 0.16584
 C648 C 0.68809 0.59232 0.15808
 C649 C 0.63958 0.66119 0.09057
 C650 C 0.61940 0.66853 0.06560
 C651 C 0.60268 0.64972 0.04894
 C652 C 0.60617 0.62341 0.05695
 C653 C 0.67856 0.64705 0.14493
 C654 C 0.69033 0.66392 0.16142
 C655 C 0.60973 0.56959 0.07615
 C656 C 0.59142 0.55526 0.06387
 H657 H 0.64242 0.53915 0.11176
 H658 H 0.67819 0.52670 0.15512
 H659 H 0.70764 0.56016 0.18503
 H660 H 0.70152 0.60628 0.17180
 H661 H 0.65208 0.67656 0.10281
 H662 H 0.61667 0.68894 0.05921
 H663 H 0.58686 0.65554 0.02978
 H664 H 0.59278 0.60952 0.04308
 C665 C 0.90511 -0.12025 0.09589
 C666 C 0.91563 -0.13301 0.12525
 C667 C 0.89723 -0.15148 0.14205
 C668 C 0.86843 -0.15707 0.12934
 C669 C 0.85836 -0.14501 0.09928
 C670 C 0.87673 -0.12651 0.08252
 C671 C 0.86604 -0.11446 0.05272
 C672 C 0.83803 -0.12058 0.03979
 C673 C 0.82012 -0.13875 0.05611
 C674 C 0.83002 -0.15086 0.08555
 C675 C 0.90812 -0.16382 0.17155
 C676 C 0.93637 -0.15806 0.18410
 C677 C 0.95433 -0.13996 0.16770
 C678 C 0.94422 -0.12755 0.13857
 C679 C 0.84877 -0.17440 0.14792
 C680 C 0.83241 -0.18837 0.16391
 C681 C 0.92279 -0.09987 0.08025
 C682 C 0.93665 -0.08243 0.06725
 H683 H 0.87924 -0.10034 0.03898
 H684 H 0.83027 -0.11127 0.01689
 H685 H 0.79842 -0.14350 0.04590
 H686 H 0.81530 -0.16488 0.09733
 H687 H 0.89498 -0.17806 0.18516
 H688 H 0.94435 -0.16769 0.20668
 H689 H 0.97623 -0.13552 0.17759
 H690 H 0.95905 -0.11370 0.12660
 C691 C 0.90767 0.37930 0.59277
 C692 C 0.91828 0.36475 0.62066
 C693 C 0.89985 0.34543 0.63567
 C694 C 0.87097 0.34077 0.62261
 C695 C 0.86097 0.35438 0.59366
 C696 C 0.87935 0.37378 0.57874
 C697 C 0.86872 0.38743 0.55007
 C698 C 0.84082 0.38191 0.53641
 C699 C 0.82290 0.36285 0.55093
 C700 C 0.83272 0.34922 0.57929
 C701 C 0.91078 0.33132 0.66379
 C702 C 0.93917 0.33611 0.67661
 C703 C 0.95721 0.35498 0.66188
 C704 C 0.94699 0.36923 0.63423
 C705 C 0.85093 0.32326 0.64028
 C706 C 0.83420 0.30948 0.65603
 C707 C 0.92538 0.40048 0.57915
 C708 C 0.93946 0.41835 0.56756
 H709 H 0.88193 0.40230 0.53774
 H710 H 0.83312 0.39241 0.51435
 H711 H 0.80128 0.35859 0.54018
 H712 H 0.81802 0.33453 0.58968
 H713 H 0.89761 0.31636 0.67601
 H714 H 0.94721 0.32509 0.69809
 H715 H 0.97925 0.35862 0.67191
 H716 H 0.96185 0.38367 0.62358
 C717 C 0.41142 -0.11843 0.59855
 C718 C 0.42148 -0.12864 0.62975
 C719 C 0.40375 -0.14709 0.64751
 C720 C 0.37609 -0.15523 0.63395
 C721 C 0.36665 -0.14585 0.60205
 C722 C 0.38438 -0.12740 0.58430
 C723 C 0.37436 -0.11814 0.55259
 C724 C 0.34759 -0.12686 0.53881
 C725 C 0.33030 -0.14494 0.55612
 C726 C 0.33958 -0.15437 0.58741
 C727 C 0.41414 -0.15686 0.67879
 C728 C 0.44132 -0.14869 0.69209
 C729 C 0.45867 -0.13067 0.67472
 C730 C 0.44895 -0.12067 0.64391
 C731 C 0.35676 -0.17233 0.65335
 C732 C 0.34015 -0.18598 0.66951
 C733 C 0.42808 -0.09783 0.58188
 C734 C 0.44116 -0.08026 0.56810
 H735 H 0.38714 -0.10421 0.53804
 H736 H 0.34032 -0.11964 0.51449
 H737 H 0.30957 -0.15171 0.54526
 H738 H 0.32539 -0.16845 0.59989
 H739 H 0.40147 -0.17096 0.69318
 H740 H 0.44897 -0.15640 0.71602
 H741 H 0.47977 -0.12440 0.68516
 H742 H 0.46324 -0.10675 0.63127
 C743 C 0.37051 0.41120 0.09526
 C744 C 0.37414 0.40694 0.13034
 C745 C 0.35812 0.38660 0.14660
 C746 C 0.33852 0.37063 0.12768
 C747 C 0.33387 0.37566 0.09292
 C748 C 0.34988 0.39606 0.07667
 C749 C 0.34492 0.40072 0.04192
 C750 C 0.32457 0.38575 0.02376
 C751 C 0.30910 0.36567 0.03956
 C752 C 0.31364 0.36057 0.07374
 C753 C 0.36238 0.38256 0.18164
 C754 C 0.38185 0.39820 0.20008
 C755 C 0.39751 0.41810 0.18418
 C756 C 0.39381 0.42249 0.14972
 C757 C 0.32367 0.34887 0.14408
 C758 C 0.31190 0.33100 0.15873
 C759 C 0.38996 0.42952 0.07808
 C760 C 0.40784 0.44369 0.06470
 H761 H 0.35651 0.41610 0.02855
 H762 H 0.32085 0.38969 -0.00276
 H763 H 0.29346 0.35401 0.02526
 H764 H 0.30103 0.34481 0.08499
 H765 H 0.35069 0.36735 0.19518
 H766 H 0.38479 0.39486 0.22686
 H767 H 0.41259 0.43022 0.19861
 H768 H 0.40639 0.43829 0.13854
 C769 C 0.90068 0.11830 -0.09113
 C770 C 0.91130 0.13286 -0.11900
 C771 C 0.89226 0.15113 -0.13528
 C772 C 0.86272 0.15476 -0.12353
 C773 C 0.85253 0.14100 -0.09476
 C774 C 0.87154 0.12265 -0.07857
 C775 C 0.86071 0.10885 -0.05013
 C776 C 0.83201 0.11319 -0.03790
 C777 C 0.81348 0.13122 -0.05364
 C778 C 0.82348 0.14498 -0.08180
 C779 C 0.90330 0.16529 -0.16331
 C780 C 0.93233 0.16154 -0.17487
 C781 C 0.95094 0.14368 -0.15893
 C782 C 0.94066 0.12943 -0.13132
 C783 C 0.84252 0.17178 -0.14193
 C784 C 0.82595 0.18553 -0.15804
 C785 C 0.91914 0.09802 -0.07633
 C786 C 0.93375 0.08061 -0.06425
 H787 H 0.87437 0.09477 -0.03687
 H788 H 0.82416 0.10260 -0.01599
 H789 H 0.79123 0.13457 -0.04398
 H790 H 0.80827 0.15882 -0.09319
 H791 H 0.88969 0.17945 -0.17648
 H792 H 0.94043 0.17256 -0.19630
 H793 H 0.97348 0.14085 -0.16799
 H794 H 0.95598 0.11580 -0.11970
 C795 C 0.90677 0.61894 0.41028
 C796 C 0.90441 0.61999 0.37468
 C797 C 0.88481 0.63823 0.35935
 C798 C 0.86765 0.65530 0.37973
 C799 C 0.87093 0.65499 0.41525
 C800 C 0.89066 0.63680 0.43060
 C801 C 0.89369 0.63689 0.46617
 C802 C 0.87777 0.65457 0.48596
 C803 C 0.85825 0.67218 0.47097
 C804 C 0.85475 0.67245 0.43601
 C805 C 0.88267 0.63879 0.32367
 C806 C 0.89946 0.62183 0.30377
 C807 C 0.91863 0.60397 0.31879
 C808 C 0.92116 0.60296 0.35382
 C809 C 0.84596 0.67234 0.36388
 C810 C 0.82800 0.68547 0.34895
 C811 C 0.92460 0.59862 0.42582
 C812 C 0.93882 0.58109 0.43808
 H813 H 0.90856 0.62351 0.47897
 H814 H 0.88063 0.65467 0.51308
 H815 H 0.84584 0.68576 0.48650
 H816 H 0.83943 0.68659 0.42543
 H817 H 0.86814 0.65237 0.31075
 H818 H 0.89758 0.62256 0.27654
 H819 H 0.93164 0.59084 0.30323
 H820 H 0.93647 0.58878 0.36430
 C821 C 0.40535 0.12031 0.40491
 C822 C 0.41672 0.13306 0.37593
 C823 C 0.39851 0.15097 0.35783
 C824 C 0.36905 0.15608 0.36886
 C825 C 0.35813 0.14417 0.39867
 C826 C 0.37633 0.12623 0.41673
 C827 C 0.36482 0.11438 0.44627
 C828 C 0.33618 0.12013 0.45769
 C829 C 0.31842 0.13772 0.44008
 C830 C 0.32913 0.14962 0.41086
 C831 C 0.41029 0.16327 0.32874
 C832 C 0.43925 0.15809 0.31791
 C833 C 0.45706 0.14061 0.33563
 C834 C 0.44603 0.12815 0.36430
 C835 C 0.34961 0.17271 0.34882
 C836 C 0.33327 0.18602 0.33177
 C837 C 0.42283 0.10013 0.42147
 C838 C 0.43678 0.08278 0.43469
 H839 H 0.37787 0.10072 0.46097
 H840 H 0.32778 0.11100 0.48043
 H841 H 0.29621 0.14217 0.44911
 H842 H 0.31450 0.16319 0.39805
 H843 H 0.39732 0.17707 0.31417
 H844 H 0.44793 0.16771 0.29565
 H845 H 0.47955 0.13667 0.32713
 H846 H 0.46075 0.11476 0.37729
 C847 C 0.36576 0.59053 -0.08812
 C848 C 0.35084 0.58412 -0.11844
 C849 C 0.33397 0.60347 -0.13567
 C850 C 0.33210 0.62909 -0.12237
 C851 C 0.34551 0.63503 -0.09096
 C852 C 0.36247 0.61570 -0.07382
 C853 C 0.37619 0.62223 -0.04278
 C854 C 0.37304 0.64709 -0.02895
 C855 C 0.35630 0.66595 -0.04562
 C856 C 0.34271 0.66012 -0.07634
 C857 C 0.31962 0.59671 -0.16625
 C858 C 0.32180 0.57153 -0.17936
 C859 C 0.33828 0.55261 -0.16248
 C860 C 0.35272 0.55873 -0.13238
 C861 C 0.31783 0.64957 -0.14189
 C862 C 0.30652 0.66640 -0.15889
 C863 C 0.38664 0.57218 -0.07331
 C864 C 0.40541 0.55800 -0.06161
 H865 H 0.38918 0.60814 -0.02871
 H866 H 0.38349 0.65169 -0.00505
 H867 H 0.35383 0.68520 -0.03471
 H868 H 0.32989 0.67541 -0.08838
 H869 H 0.30647 0.61075 -0.18023
 H870 H 0.31062 0.56668 -0.20274
 H871 H 0.33988 0.53307 -0.17275
 H872 H 0.36520 0.54335 -0.12006
 C873 C 1.09214 -0.11610 -0.09990
 C874 C 1.11758 -0.10624 -0.11683
 C875 C 1.13777 -0.12369 -0.13278
 C876 C 1.13240 -0.15090 -0.13176
 C877 C 1.10702 -0.16078 -0.11479
 C878 C 1.08681 -0.14331 -0.09880
 C879 C 1.06160 -0.15359 -0.08198
 C880 C 1.05649 -0.18041 -0.08097
 C881 C 1.07624 -0.19750 -0.09661
 C882 C 1.10125 -0.18791 -0.11337
 C883 C 1.16305 -0.11337 -0.14952
 C884 C 1.16823 -0.08657 -0.15046
 C885 C 1.14849 -0.06949 -0.13487
 C886 C 1.12343 -0.07908 -0.11822
 C887 C 1.15283 -0.16853 -0.14872
 C888 C 1.17003 -0.18251 -0.16354
 C889 C 1.07201 -0.09806 -0.08322
 C890 C 1.05675 -0.08182 -0.06958
 H891 H 1.04562 -0.14103 -0.06949
 H892 H 1.03709 -0.18797 -0.06800
 H893 H 1.07215 -0.21832 -0.09576
 H894 H 1.11600 -0.20195 -0.12515
 H895 H 1.17909 -0.12585 -0.16203
 H896 H 1.18767 -0.07903 -0.16337
 H897 H 1.15260 -0.04868 -0.13567
 H898 H 1.10875 -0.06496 -0.10653
 C899 C 1.09689 0.38285 0.40599
 C900 C 1.11967 0.39181 0.38410
 C901 C 1.13895 0.37359 0.36815
 C902 C 1.13530 0.34652 0.37411
 C903 C 1.11265 0.33757 0.39613
 C904 C 1.09339 0.35582 0.41217
 C905 C 1.07096 0.34648 0.43417
 C906 C 1.06765 0.31983 0.44017
 C907 C 1.08645 0.30198 0.42444
 C908 C 1.10873 0.31064 0.40261
 C909 C 1.16161 0.38303 0.34644
 C910 C 1.16512 0.40968 0.34069
 C911 C 1.14623 0.42750 0.35625
 C912 C 1.12373 0.41879 0.37771
 C913 C 1.15466 0.32812 0.35692
 C914 C 1.17121 0.31404 0.34133
 C915 C 1.07764 0.40170 0.42246
 C916 C 1.06284 0.41843 0.43573
 H917 H 1.05580 0.35964 0.44693
 H918 H 1.05038 0.31299 0.45708
 H919 H 1.08377 0.28130 0.42918
 H920 H 1.12285 0.29605 0.39096
 H921 H 1.17691 0.36998 0.33372
 H922 H 1.18260 0.41653 0.32406
 H923 H 1.14901 0.44819 0.35168
 H924 H 1.10963 0.43346 0.38919
 C925 C 0.58987 -0.11527 0.39470
 C926 C 0.61117 -0.10652 0.37084
 C927 C 0.62931 -0.12487 0.35343
 C928 C 0.62604 -0.15191 0.35991
 C929 C 0.60455 -0.16069 0.38351
 C930 C 0.58642 -0.14231 0.40097
 C931 C 0.56522 -0.15153 0.42457
 C932 C 0.56197 -0.17816 0.43074
 C933 C 0.57965 -0.19613 0.41362
 C934 C 0.60075 -0.18760 0.39026
 C935 C 0.65054 -0.11560 0.32985
 C936 C 0.65377 -0.08898 0.32365
 C937 C 0.63605 -0.07103 0.34067
 C938 C 0.61496 -0.07958 0.36400
 C939 C 0.64515 -0.17047 0.34249
 C940 C 0.66164 -0.18507 0.32756
 C941 C 0.57216 -0.09627 0.41315
 C942 C 0.55849 -0.07956 0.42802
 H943 H 0.55094 -0.13828 0.43844
 H944 H 0.54565 -0.18489 0.44888
 H945 H 0.57702 -0.21679 0.41849
 H946 H 0.61399 -0.20229 0.37757
 H947 H 0.66487 -0.12877 0.31593
 H948 H 0.67012 -0.08225 0.30555
 H949 H 0.63864 -0.05037 0.33578
 H950 H 0.60170 -0.06483 0.37654
 C951 C 0.62795 0.41270 -0.09653
 C952 C 0.64845 0.42052 -0.12171
 C953 C 0.66578 0.40144 -0.13894
 C954 C 0.66248 0.37466 -0.13084
 C955 C 0.64289 0.36696 -0.10466
 C956 C 0.62557 0.38602 -0.08745
 C957 C 0.60582 0.37777 -0.06167
 C958 C 0.60322 0.35147 -0.05323
 C959 C 0.62024 0.33286 -0.06997
 C960 C 0.63988 0.34039 -0.09541
 C961 C 0.68592 0.40970 -0.16427
 C962 C 0.68891 0.43606 -0.17230
 C963 C 0.67196 0.45470 -0.15545
 C964 C 0.65189 0.44713 -0.13044
 C965 C 0.67820 0.35492 -0.15028
 C966 C 0.69064 0.33829 -0.16663
 C967 C 0.60780 0.43158 -0.08142
 C968 C 0.58955 0.44586 -0.06882
 H969 H 0.59221 0.39150 -0.04776
 H970 H 0.58785 0.34549 -0.03367
 H971 H 0.61818 0.31245 -0.06326
 H972 H 0.65265 0.32518 -0.10769
 H973 H 0.69961 0.39591 -0.17802
 H974 H 0.70446 0.44206 -0.19170
 H975 H 0.67437 0.47514 -0.16179
 H976 H 0.63924 0.46231 -0.11794
 C977 C 1.09735 0.11399 -0.09297
 C978 C 1.09464 0.14114 -0.08713
 C979 C 1.11474 0.15877 -0.10295
 C980 C 1.13740 0.14911 -0.12451
 C981 C 1.14020 0.12193 -0.13019
 C982 C 1.12013 0.10432 -0.11439
 C983 C 1.12336 0.07722 -0.12053
 C984 C 1.14576 0.06781 -0.14167
 C985 C 1.16539 0.08504 -0.15712
 C986 C 1.16275 0.11179 -0.15154
 C987 C 1.11158 0.18583 -0.09680
 C988 C 1.08914 0.19523 -0.07568
 C989 C 1.06944 0.17800 -0.06030
 C990 C 1.07211 0.15122 -0.06579
 C991 C 1.15744 0.16699 -0.14159
 C992 C 1.17413 0.18124 -0.15673
 C993 C 1.07704 0.09576 -0.07691
 C994 C 1.06128 0.07948 -0.06417
 H995 H 1.10866 0.06300 -0.10913
 H996 H 1.14789 0.04704 -0.14608
 H997 H 1.18276 0.07765 -0.17352
 H998 H 1.17860 0.12439 -0.16412
 H999 H 1.12638 0.19998 -0.10821
 H1000 H 1.08702 0.21600 -0.07124
 H1001 H 1.05204 0.18540 -0.04396
 H1002 H 1.05634 0.13856 -0.05319
 C1003 C 1.10334 0.61563 0.41359
 C1004 C 1.10103 0.64245 0.42175
 C1005 C 1.12043 0.66079 0.40616
 C1006 C 1.14199 0.65214 0.38257
 C1007 C 1.14466 0.62523 0.37492
 C1008 C 1.12527 0.60693 0.39045
 C1009 C 1.12831 0.58013 0.38228
 C1010 C 1.14987 0.57168 0.35943
 C1011 C 1.16885 0.58959 0.34425
 C1012 C 1.16640 0.61606 0.35181
 C1013 C 1.11767 0.68752 0.41458
 C1014 C 1.09631 0.69591 0.43774
 C1015 C 1.07732 0.67799 0.45295
 C1016 C 1.07959 0.65152 0.44520
 C1017 C 1.16086 0.67075 0.36511
 C1018 C 1.17677 0.68504 0.34905
 C1019 C 1.08336 0.59677 0.42884
 C1020 C 1.06767 0.58010 0.44081
 H1021 H 1.11412 0.56541 0.39344
 H1022 H 1.15186 0.55113 0.35349
 H1023 H 1.18560 0.58294 0.32654
 H1024 H 1.18177 0.62918 0.33939
 H1025 H 1.13200 0.70215 0.40342
 H1026 H 1.09447 0.71644 0.44390
 H1027 H 1.06070 0.68463 0.47080
 H1028 H 1.06439 0.63829 0.45773
 C1029 C 0.59516 0.11770 0.40150
 C1030 C 0.59296 0.14466 0.40896
 C1031 C 0.61082 0.16294 0.39101
 C1032 C 0.63079 0.15413 0.36576
 C1033 C 0.63308 0.12714 0.35841
 C1034 C 0.61523 0.10889 0.37632
 C1035 C 0.61797 0.08200 0.36851
 C1036 C 0.63777 0.07341 0.34378
 C1037 C 0.65522 0.09125 0.32629
 C1038 C 0.65299 0.11782 0.33339
 C1039 C 0.60822 0.18978 0.39890
 C1040 C 0.58856 0.19834 0.42381
 C1041 C 0.57111 0.18047 0.44135
 C1042 C 0.57321 0.15391 0.43413
 C1043 C 0.64916 0.17261 0.34726
 C1044 C 0.66497 0.18706 0.33123
 C1045 C 0.57701 0.09884 0.41959
 C1046 C 0.56270 0.08217 0.43370
 H1047 H 0.60491 0.06733 0.38141
 H1048 H 0.63958 0.05279 0.33817
 H1049 H 0.67058 0.08449 0.30710
 H1050 H 0.66707 0.13090 0.31907
 H1051 H 0.62134 0.20439 0.38591
 H1052 H 0.58683 0.21895 0.42953
 H1053 H 0.55584 0.18723 0.46062
 H1054 H 0.55923 0.14073 0.44845
 C1055 C 0.62793 0.58760 -0.09827
 C1056 C 0.62670 0.61408 -0.08800
 C1057 C 0.64408 0.63312 -0.10510
 C1058 C 0.66257 0.62560 -0.13238
 C1059 C 0.66474 0.59898 -0.14174
 C1060 C 0.64736 0.57991 -0.12461
 C1061 C 0.64963 0.55347 -0.13461
 C1062 C 0.66862 0.54605 -0.16077
 C1063 C 0.68563 0.56467 -0.17750
 C1064 C 0.68378 0.59087 -0.16823
 C1065 C 0.64222 0.65950 -0.09464
 C1066 C 0.62362 0.66688 -0.06812
 C1067 C 0.60654 0.64829 -0.05149
 C1068 C 0.60803 0.62217 -0.06111
 C1069 C 0.67824 0.64544 -0.15166
 C1070 C 0.69058 0.66220 -0.16784
 C1071 C 0.60769 0.56886 -0.08309
 C1072 C 0.58940 0.55473 -0.07033
 H1073 H 0.63689 0.53830 -0.12224
 H1074 H 0.67013 0.52573 -0.16809
 H1075 H 0.70035 0.55879 -0.19779
 H1076 H 0.69748 0.60465 -0.18193
 H1077 H 0.65510 0.67468 -0.10678
 H1078 H 0.62243 0.68715 -0.06049
 H1079 H 0.59198 0.65415 -0.03108
 H1080 H 0.59441 0.60844 -0.04722
 C1081 C 0.90486 -0.11878 -0.09959
 C1082 C 0.88860 -0.13700 -0.08001
 C1083 C 0.86904 -0.15492 -0.09611
 C1084 C 0.86601 -0.15461 -0.13169
 C1085 C 0.88316 -0.13705 -0.15134
 C1086 C 0.90263 -0.11909 -0.13523
 C1087 C 0.91941 -0.10163 -0.15538
 C1088 C 0.91706 -0.10194 -0.19045
 C1089 C 0.89802 -0.11949 -0.20621
 C1090 C 0.88119 -0.13687 -0.18701
 C1091 C 0.85279 -0.17277 -0.07602
 C1092 C 0.85599 -0.17309 -0.04102
 C1093 C 0.87529 -0.15571 -0.02530
 C1094 C 0.89134 -0.13772 -0.04442
 C1095 C 0.84494 -0.17192 -0.14821
 C1096 C 0.82752 -0.18580 -0.16285
 C1097 C 0.92261 -0.09882 -0.08310
 C1098 C 0.93650 -0.08162 -0.06959
 H1099 H 0.93461 -0.08767 -0.14430
 H1100 H 0.93011 -0.08849 -0.20548
 H1101 H 0.89628 -0.11967 -0.23347
 H1102 H 0.86674 -0.15018 -0.20046
 H1103 H 0.83761 -0.18673 -0.08713
 H1104 H 0.84349 -0.18695 -0.02602
 H1105 H 0.87789 -0.15622 0.00184
 H1106 H 0.90605 -0.12458 -0.03106
 C1107 C 0.91103 0.38080 0.40440
 C1108 C 0.89542 0.36254 0.42459
 C1109 C 0.87566 0.34445 0.40920
 C1110 C 0.87181 0.34467 0.37374
 C1111 C 0.88851 0.36211 0.35344
 C1112 C 0.90817 0.38025 0.36884
 C1113 C 0.92441 0.39770 0.34810
 C1114 C 0.92134 0.39720 0.31311
 C1115 C 0.90211 0.37945 0.29802
 C1116 C 0.88581 0.36209 0.31781
 C1117 C 0.85996 0.32661 0.42985
 C1118 C 0.86393 0.32646 0.46475
 C1119 C 0.88346 0.34399 0.47979
 C1120 C 0.89894 0.36199 0.46010
 C1121 C 0.84992 0.32783 0.35797
 C1122 C 0.83168 0.31486 0.34333
 C1123 C 0.92859 0.40113 0.42019
 C1124 C 0.94231 0.41862 0.43317
 H1125 H 0.93972 0.41180 0.35866
 H1126 H 0.93397 0.41064 0.29762
 H1127 H 0.89981 0.37912 0.27081
 H1128 H 0.87120 0.34862 0.30485
 H1129 H 0.84465 0.31253 0.41923
 H1130 H 0.85187 0.31260 0.48020
 H1131 H 0.88664 0.34361 0.50687
 H1132 H 0.91384 0.37530 0.47294
 C1133 C 0.40931 -0.11640 0.39738
 C1134 C 0.39427 -0.13636 0.41530
 C1135 C 0.37585 -0.15436 0.39764
 C1136 C 0.37263 -0.15233 0.36216
 C1137 C 0.38847 -0.13290 0.34414
 C1138 C 0.40686 -0.11490 0.36179
 C1139 C 0.42230 -0.09556 0.34321
 C1140 C 0.41970 -0.09405 0.30821
 C1141 C 0.40173 -0.11164 0.29097
 C1142 C 0.38624 -0.13086 0.30859
 C1143 C 0.36087 -0.17401 0.41613
 C1144 C 0.36413 -0.17594 0.45104
 C1145 C 0.38224 -0.15843 0.46826
 C1146 C 0.39709 -0.13875 0.45075
 C1147 C 0.35245 -0.16965 0.34420
 C1148 C 0.33546 -0.18348 0.32875
 C1149 C 0.42618 -0.09667 0.41553
 C1150 C 0.43951 -0.07959 0.43005
 H1151 H 0.43662 -0.08146 0.35547
 H1152 H 0.43170 -0.07915 0.29441
 H1153 H 0.39979 -0.11039 0.26377
 H1154 H 0.37258 -0.14412 0.29401
 H1155 H 0.34662 -0.18812 0.40381
 H1156 H 0.35260 -0.19114 0.46478
 H1157 H 0.38484 -0.16014 0.49533
 H1158 H 0.41090 -0.12558 0.46525
 C1159 C 0.36621 0.41067 -0.08800
 C1160 C 0.36308 0.38561 -0.07334
 C1161 C 0.34622 0.36608 -0.09018
 C1162 C 0.33274 0.37170 -0.12166
 C1163 C 0.33454 0.39719 -0.13540
 C1164 C 0.35130 0.41674 -0.11848
 C1165 C 0.35309 0.44198 -0.13284
 C1166 C 0.33867 0.44778 -0.16308
 C1167 C 0.32229 0.42866 -0.17966
 C1168 C 0.32019 0.40361 -0.16611
 C1169 C 0.34356 0.34113 -0.07516
 C1170 C 0.35722 0.33560 -0.04438
 C1171 C 0.37388 0.35463 -0.02802
 C1172 C 0.37687 0.37938 -0.04222
 C1173 C 0.31831 0.35104 -0.14071
 C1174 C 0.30678 0.33405 -0.15722
 C1175 C 0.38685 0.42927 -0.07332
 C1176 C 0.40546 0.44360 -0.06164
 H1177 H 0.36548 0.45750 -0.12077
 H1178 H 0.34020 0.46721 -0.17368
 H1179 H 0.31113 0.43326 -0.20314
 H1180 H 0.30712 0.38942 -0.17987
 H1181 H 0.33081 0.32570 -0.08694
 H1182 H 0.35486 0.31644 -0.03317
 H1183 H 0.38437 0.35027 -0.00407
 H1184 H 0.38979 0.39362 -0.02837
 C1185 C 1.09090 -0.11888 0.09564
 C1186 C 1.07843 -0.13906 0.11552
 C1187 C 1.09743 -0.15674 0.13295
 C1188 C 1.12877 -0.15416 0.13031
 C1189 C 1.14121 -0.13451 0.10951
 C1190 C 1.12223 -0.11683 0.09212
 C1191 C 1.13523 -0.09725 0.07161
 C1192 C 1.16606 -0.09523 0.06836
 C1193 C 1.18461 -0.11252 0.08538
 C1194 C 1.17246 -0.13196 0.10577
 C1195 C 1.08445 -0.17665 0.15288
 C1196 C 1.05359 -0.17912 0.15534
 C1197 C 1.03504 -0.16188 0.13820
 C1198 C 1.04719 -0.14198 0.11857
 C1199 C 1.14829 -0.17114 0.14964
 C1200 C 1.16487 -0.18475 0.16591
 C1201 C 1.07180 -0.09957 0.07975
 C1202 C 1.05718 -0.08263 0.06663
 H1203 H 1.12176 -0.08337 0.05778
 H1204 H 1.17560 -0.08017 0.05253
 H1205 H 1.20855 -0.11087 0.08277
 H1206 H 1.18783 -0.14497 0.11844
 H1207 H 1.09799 -0.19056 0.16659
 H1208 H 1.04403 -0.19452 0.17058
 H1209 H 1.01110 -0.16398 0.14007
 H1210 H 1.03187 -0.12904 0.10569
 C1211 C 1.09255 0.38147 0.60078
 C1212 C 1.11526 0.38941 0.62333
 C1213 C 1.13387 0.37042 0.63875
 C1214 C 1.12960 0.34360 0.63159
 C1215 C 1.10686 0.33565 0.60908
 C1216 C 1.08827 0.35467 0.59358
 C1217 C 1.06576 0.34633 0.57105
 C1218 C 1.06171 0.31991 0.56403
 C1219 C 1.07986 0.30130 0.57922
 C1220 C 1.10221 0.30897 0.60154
 C1221 C 1.15653 0.37884 0.66112
 C1222 C 1.16065 0.40526 0.66803
 C1223 C 1.14242 0.42383 0.65298
 C1224 C 1.11996 0.41612 0.63087
 C1225 C 1.14854 0.32439 0.64781
 C1226 C 1.16476 0.30944 0.66240
 C1227 C 1.07428 0.40108 0.58443
 C1228 C 1.06022 0.41819 0.57101
 H1229 H 1.05108 0.36011 0.55867
 H1230 H 1.04438 0.31386 0.54672
 H1231 H 1.07661 0.28081 0.57369
 H1232 H 1.11580 0.29381 0.61274
 H1233 H 1.17132 0.36517 0.67348
 H1234 H 1.17810 0.41134 0.68517
 H1235 H 1.14568 0.44434 0.65844
 H1236 H 1.10636 0.43133 0.61983
 C1237 C 0.58792 -0.11608 0.60365
 C1238 C 0.60669 -0.10772 0.63028
 C1239 C 0.62429 -0.12621 0.64816
 C1240 C 0.62304 -0.15298 0.63934
 C1241 C 0.60385 -0.16141 0.61315
 C1242 C 0.58626 -0.14289 0.59523
 C1243 C 0.56742 -0.15175 0.56901
 C1244 C 0.56594 -0.17816 0.56072
 C1245 C 0.58309 -0.19625 0.57826
 C1246 C 0.60188 -0.18808 0.60419
 C1247 C 0.64301 -0.11733 0.67452
 C1248 C 0.64431 -0.09095 0.68299
 C1249 C 0.62711 -0.07288 0.66553
 C1250 C 0.60849 -0.08105 0.63946
 C1251 C 0.64219 -0.17158 0.65668
 C1252 C 0.65878 -0.18630 0.67128
 C1253 C 0.57109 -0.09686 0.58452
 C1254 C 0.55806 -0.08001 0.56917
 H1255 H 0.55364 -0.13839 0.55469
 H1256 H 0.55140 -0.18461 0.54060
 H1257 H 0.58183 -0.21674 0.57176
 H1258 H 0.61479 -0.20287 0.61713
 H1259 H 0.65681 -0.13062 0.68890
 H1260 H 0.65874 -0.08452 0.70323
 H1261 H 0.62820 -0.05241 0.67220
 H1262 H 0.59555 -0.06622 0.62667
 C1263 C 0.62968 0.41317 0.09113
 C1264 C 0.62642 0.38664 0.08175
 C1265 C 0.64317 0.36704 0.09862
 C1266 C 0.66309 0.37409 0.12475
 C1267 C 0.66739 0.40073 0.13303
 C1268 C 0.65061 0.42034 0.11614
 C1269 C 0.65500 0.44679 0.12505
 C1270 C 0.67547 0.45371 0.14993
 C1271 C 0.69189 0.43455 0.16645
 C1272 C 0.68796 0.40832 0.15822
 C1273 C 0.63923 0.34062 0.08914
 C1274 C 0.61921 0.33375 0.06378
 C1275 C 0.60275 0.35289 0.04735
 C1276 C 0.60628 0.37906 0.05603
 C1277 C 0.67801 0.35384 0.14405
 C1278 C 0.68973 0.33678 0.16030
 C1279 C 0.60980 0.43254 0.07669
 C1280 C 0.59149 0.44702 0.06465
 H1281 H 0.64279 0.46236 0.11277
 H1282 H 0.67862 0.47405 0.15640
 H1283 H 0.70776 0.44003 0.18575
 H1284 H 0.70127 0.39411 0.17170
 H1285 H 0.65155 0.32502 0.10115
 H1286 H 0.61643 0.31345 0.05689
 H1287 H 0.58710 0.34744 0.02784
 H1288 H 0.59308 0.39322 0.04233
 C1289 C 0.90306 0.11737 0.09520
 C1290 C 0.88618 0.13538 0.07595
 C1291 C 0.86746 0.15378 0.09253
 C1292 C 0.86590 0.15413 0.12824
 C1293 C 0.88350 0.13664 0.14748
 C1294 C 0.90212 0.11821 0.13091
 C1295 C 0.91940 0.10084 0.15069
 C1296 C 0.91834 0.10168 0.18582
 C1297 C 0.90015 0.11972 0.20203
 C1298 C 0.88287 0.13703 0.18323
 C1299 C 0.85061 0.17145 0.07280
 C1300 C 0.85240 0.17113 0.03767
 C1301 C 0.87087 0.15329 0.02147
 C1302 C 0.88749 0.13546 0.04025
 C1303 C 0.84607 0.17221 0.14538
 C1304 C 0.82988 0.18680 0.16070
 C1305 C 0.92046 0.09728 0.07848
 C1306 C 0.93442 0.07997 0.06525
 H1307 H 0.93398 0.08650 0.13926
 H1308 H 0.93174 0.08828 0.20054
 H1309 H 0.89941 0.12031 0.22934
 H1310 H 0.86912 0.15072 0.19704
 H1311 H 0.83602 0.18575 0.08429
 H1312 H 0.83945 0.18486 0.02294
 H1313 H 0.87237 0.15332 -0.00580
 H1314 H 0.90151 0.12192 0.02651
 C1315 C 0.90308 0.61996 0.58646
 C1316 C 0.87354 0.62322 0.57465
 C1317 C 0.85498 0.64274 0.58910
 C1318 C 0.86600 0.65865 0.61548
 C1319 C 0.89598 0.65620 0.62617
 C1320 C 0.91460 0.63679 0.61157
 C1321 C 0.94444 0.63456 0.62280
 C1322 C 0.95557 0.65107 0.64772
 C1323 C 0.93735 0.67004 0.66204
 C1324 C 0.90786 0.67264 0.65152
 C1325 C 0.82556 0.64573 0.57687
 C1326 C 0.81479 0.62990 0.55100
 C1327 C 0.83289 0.61072 0.53696
 C1328 C 0.86192 0.60727 0.54862
 C1329 C 0.84607 0.67622 0.63325
 C1330 C 0.82964 0.69008 0.64932
 C1331 C 0.92126 0.59879 0.57353
 C1332 C 0.93595 0.58093 0.56285
 H1333 H 0.95948 0.62013 0.61236
 H1334 H 0.97847 0.64914 0.65596
 H1335 H 0.94611 0.68283 0.68138
 H1336 H 0.89459 0.68776 0.66330
 H1337 H 0.81068 0.66042 0.58698
 H1338 H 0.79227 0.63253 0.54181
 H1339 H 0.82443 0.59849 0.51685
 H1340 H 0.87522 0.59221 0.53675
 C1341 C 0.40799 0.11922 0.59851
 C1342 C 0.38983 0.13727 0.58090
 C1343 C 0.37203 0.15544 0.59917
 C1344 C 0.37262 0.15551 0.63493
 C1345 C 0.39162 0.13809 0.65247
 C1346 C 0.40934 0.11989 0.63422
 C1347 C 0.42800 0.10256 0.65237
 C1348 C 0.42915 0.10321 0.68752
 C1349 C 0.41184 0.12100 0.70534
 C1350 C 0.39323 0.13826 0.68817
 C1351 C 0.35385 0.17312 0.58103
 C1352 C 0.35345 0.17304 0.54584
 C1353 C 0.37098 0.15540 0.52799
 C1354 C 0.38889 0.13758 0.54519
 C1355 C 0.35303 0.17282 0.65378
 C1356 C 0.33647 0.18659 0.66992
 C1357 C 0.42440 0.09927 0.58017
 C1358 C 0.43769 0.08207 0.56579
 H1359 H 0.44197 0.08843 0.63963
 H1360 H 0.44358 0.08984 0.70099
 H1361 H 0.41282 0.12144 0.73264
 H1362 H 0.38025 0.15178 0.70318
 H1363 H 0.33993 0.18728 0.59381
 H1364 H 0.33952 0.18678 0.53233
 H1365 H 0.37074 0.15557 0.50068
 H1366 H 0.40213 0.12423 0.53021
 C1367 C 0.36992 0.59014 0.09532
 C1368 C 0.34929 0.60548 0.07693
 C1369 C 0.33317 0.62570 0.09348
 C1370 C 0.33769 0.63035 0.12835
 C1371 C 0.35730 0.61420 0.14704
 C1372 C 0.37344 0.59404 0.13049
 C1373 C 0.39312 0.57830 0.14966
 C1374 C 0.39674 0.58236 0.18419
 C1375 C 0.38098 0.60209 0.20038
 C1376 C 0.36148 0.61789 0.18216
 C1377 C 0.31297 0.64100 0.07449
 C1378 C 0.30858 0.63630 0.04019
 C1379 C 0.32415 0.61639 0.02409
 C1380 C 0.34447 0.60120 0.04207
 C1381 C 0.32272 0.65195 0.14508
 C1382 C 0.31090 0.66970 0.16001
 C1383 C 0.38946 0.57197 0.07788
 C1384 C 0.40743 0.55792 0.06435
 H1385 H 0.40578 0.56262 0.13825
 H1386 H 0.41185 0.57012 0.19846
 H1387 H 0.38387 0.60517 0.22722
 H1388 H 0.34970 0.63295 0.19593
 H1389 H 0.30028 0.65664 0.08597
 H1390 H 0.29297 0.64813 0.02604
 H1391 H 0.32053 0.61275 -0.00251
 H1392 H 0.35613 0.58597 0.02847
   
