data_POSCAR
  _audit_creation_date              2014-09-24
  _audit_creation_method            'ToBaCCo'
  _symmetry_space_group_name_H-M    'P1'
  _symmetry_Int_Tables_number       1
  _symmetry_cell_setting            triclinic
  loop_
  _symmetry_equiv_pos_as_xyz
 x,y,z
_cell_length_a 73.4537
_cell_length_b 73.5173
_cell_length_c 75.4958
_cell_angle_alpha 89.519100
_cell_angle_beta 90.571200
_cell_angle_gamma 90.341100
loop_
  _atom_site_label
  _atom_site_type_symbol
  _atom_site_fract_x
  _atom_site_fract_y
  _atom_site_fract_z
C1 C 0.39679 0.00909 0.27326
 C2 C 0.38354 0.02509 0.27147
 C3 C 0.37303 0.02447 0.25644
 C4 C 0.37666 0.00792 0.24462
 C5 C 0.38486 -0.00798 0.27200
 C6 C 0.37433 -0.00862 0.25709
 C7 C 0.40781 0.00949 0.25614
 C8 C 0.39729 0.00895 0.24116
 H9 H 0.38299 0.03619 0.28085
 H10 H 0.36809 0.00735 0.23243
 H11 H 0.38461 -0.01856 0.28214
 H12 H 0.42252 0.01108 0.25586
 C13 C 0.10084 0.00209 0.76868
 C14 C 0.11279 -0.01491 0.76733
 C15 C 0.12339 -0.01496 0.75253
 C16 C 0.12106 0.00200 0.74054
 C17 C 0.11421 0.01815 0.76776
 C18 C 0.12481 0.01814 0.75304
 C19 C 0.09044 0.00283 0.75224
 C20 C 0.10155 0.00277 0.73680
 H21 H 0.11247 -0.02608 0.77683
 H22 H 0.12974 0.00202 0.72855
 H23 H 0.11496 0.02877 0.77767
 H24 H 0.07564 0.00259 0.75163
 C25 C 0.60227 0.50190 0.26884
 C26 C 0.61439 0.48504 0.26781
 C27 C 0.62507 0.48480 0.25310
 C28 C 0.62272 0.50147 0.24079
 C29 C 0.61534 0.51811 0.26756
 C30 C 0.62603 0.51793 0.25294
 C31 C 0.59143 0.50215 0.25140
 C32 C 0.60212 0.50189 0.23673
 H33 H 0.61412 0.47403 0.27750
 H34 H 0.63145 0.50134 0.22885
 H35 H 0.61593 0.52894 0.27727
 H36 H 0.57665 0.50202 0.25070
 C37 C 0.89717 0.50992 0.77171
 C38 C 0.88410 0.52607 0.77003
 C39 C 0.87338 0.52552 0.75513
 C40 C 0.87665 0.50889 0.74332
 C41 C 0.88503 0.49300 0.77065
 C42 C 0.87429 0.49242 0.75587
 C43 C 0.90796 0.51014 0.75444
 C44 C 0.89723 0.50968 0.73959
 H45 H 0.88389 0.53727 0.77932
 H46 H 0.86790 0.50838 0.73124
 H47 H 0.88480 0.48244 0.78081
 H48 H 0.92268 0.51163 0.75398
 C49 C 0.27143 0.37674 0.99333
 C50 C 0.26974 0.36318 1.00875
 C51 C 0.25449 0.35258 1.00789
 C52 C 0.24223 0.35642 0.99167
 C53 C 0.27021 0.36514 0.97656
 C54 C 0.25492 0.35455 0.97570
 C55 C 0.25364 0.38764 0.99347
 C56 C 0.23837 0.37694 0.99258
 H57 H 0.27945 0.36243 1.01969
 H58 H 0.22983 0.34771 0.99098
 H59 H 0.28020 0.36572 0.96605
 H60 H 0.25316 0.40238 0.99410
 C61 C 0.76818 0.12436 1.00144
 C62 C 0.76757 0.13729 0.98542
 C63 C 0.75256 0.14808 0.98490
 C64 C 0.73943 0.14491 1.00043
 C65 C 0.76659 0.13682 1.01760
 C66 C 0.75148 0.14758 1.01705
 C67 C 0.75119 0.11412 1.00076
 C68 C 0.73538 0.12546 1.00024
 H69 H 0.77825 0.13810 0.97557
 H70 H 0.72720 0.15376 0.99992
 H71 H 0.77614 0.13668 1.02869
 H72 H 0.75044 0.09938 1.00184
 C73 C 0.26845 0.62456 0.50043
 C74 C 0.26765 0.63698 0.48409
 C75 C 0.25279 0.64794 0.48349
 C76 C 0.23990 0.64550 0.49928
 C77 C 0.26714 0.63742 0.51627
 C78 C 0.25218 0.64833 0.51565
 C79 C 0.25035 0.61400 0.50024
 C80 C 0.23541 0.62501 0.49969
 H81 H 0.27819 0.63743 0.47408
 H82 H 0.22775 0.65444 0.49872
 H83 H 0.27685 0.63749 0.52723
 H84 H 0.24942 0.59927 0.50125
 C85 C 0.77139 0.87656 0.49401
 C86 C 0.76944 0.86311 0.50950
 C87 C 0.75415 0.85259 0.50853
 C88 C 0.74212 0.85636 0.49214
 C89 C 0.77034 0.86483 0.47732
 C90 C 0.75501 0.85430 0.47635
 C91 C 0.75364 0.88754 0.49386
 C92 C 0.73834 0.87690 0.49286
 H93 H 0.77901 0.86238 0.52055
 H94 H 0.72968 0.84770 0.49134
 H95 H 0.78055 0.86516 0.46701
 H96 H 0.75322 0.90229 0.49446
 C97 C -0.00817 0.27065 0.40224
 C98 C 0.00818 0.27377 0.39002
 C99 C 0.00983 0.26064 0.37750
 C100 C -0.00488 0.24573 0.37832
 C101 C -0.02392 0.26918 0.39058
 C102 C -0.02202 0.25547 0.37746
 C103 C -0.00530 0.25154 0.41011
 C104 C -0.00354 0.23853 0.39745
 H105 H 0.01797 0.28478 0.39165
 H106 H -0.00347 0.23503 0.36809
 H107 H -0.03573 0.27797 0.39130
 H108 H -0.00416 0.24868 0.42422
 C109 C 0.00430 0.75788 0.09691
 C110 C -0.01058 0.76124 0.11057
 C111 C -0.01165 0.74791 0.12314
 C112 C 0.00204 0.73248 0.12098
 C113 C 0.02183 0.75546 0.10782
 C114 C 0.02056 0.74213 0.12038
 C115 C 0.00006 0.73908 0.08925
 C116 C -0.00110 0.72585 0.10198
 H117 H -0.01952 0.77297 0.11026
 H118 H 0.00107 0.72160 0.13125
 H119 H 0.03394 0.76384 0.10612
 H120 H -0.00122 0.73637 0.07517
 C121 C 0.50564 0.25911 0.59682
 C122 C 0.49012 0.26285 0.60970
 C123 C 0.48862 0.25001 0.62270
 C124 C 0.50256 0.23464 0.62171
 C125 C 0.52270 0.25731 0.60853
 C126 C 0.52099 0.24448 0.62152
 C127 C 0.50194 0.23997 0.58973
 C128 C 0.50033 0.22724 0.60288
 H129 H 0.48118 0.27454 0.60864
 H130 H 0.50123 0.22417 0.63234
 H131 H 0.53484 0.26567 0.60695
 H132 H 0.50132 0.23669 0.57573
 C133 C 0.49138 0.77022 0.90425
 C134 C 0.50837 0.77314 0.89285
 C135 C 0.51015 0.76036 0.88001
 C136 C 0.49494 0.74595 0.87974
 C137 C 0.47541 0.76987 0.89099
 C138 C 0.47738 0.75711 0.87815
 C139 C 0.49282 0.75181 0.91121
 C140 C 0.49477 0.73853 0.89765
 H141 H 0.51837 0.78385 0.89512
 H142 H 0.49640 0.73559 0.86920
 H143 H 0.46377 0.77888 0.89161
 H144 H 0.49339 0.74849 0.92527
 C145 C -0.24036 0.64763 0.97754
 C146 C -0.22431 0.63442 0.97924
 C147 C -0.22495 0.62376 0.99415
 C148 C -0.24154 0.62722 1.00595
 C149 C -0.25741 0.63566 0.97861
 C150 C -0.25806 0.62498 0.99339
 C151 C -0.24003 0.65846 0.99479
 C152 C -0.24058 0.64779 1.00965
 H153 H -0.21321 0.63395 0.96986
 H154 H -0.24212 0.61853 1.01805
 H155 H -0.26798 0.63548 0.96843
 H156 H -0.23850 0.67316 0.99524
 C157 C -0.24883 0.34899 0.48279
 C158 C -0.26564 0.36123 0.48392
 C159 C -0.26559 0.37201 0.49860
 C160 C -0.24870 0.36955 0.51072
 C161 C -0.23255 0.36208 0.48367
 C162 C -0.23243 0.37286 0.49826
 C163 C -0.24833 0.33879 0.49934
 C164 C -0.24829 0.35009 0.51467
 H165 H -0.27680 0.36095 0.47437
 H166 H -0.24858 0.37838 0.52261
 H167 H -0.22190 0.36258 0.47377
 H168 H -0.24885 0.32402 0.50010
 C169 C 0.25174 -0.14930 -0.01854
 C170 C 0.23491 -0.13709 -0.01732
 C171 C 0.23484 -0.12660 -0.00245
 C172 C 0.25162 -0.12931 0.00977
 C173 C 0.26802 -0.13623 -0.01728
 C174 C 0.26800 -0.12575 -0.00248
 C175 C 0.25209 -0.15983 -0.00219
 C176 C 0.25201 -0.14884 0.01335
 H177 H 0.22386 -0.13714 -0.02700
 H178 H 0.25162 -0.12072 0.02183
 H179 H 0.27877 -0.13556 -0.02706
 H180 H 0.25166 -0.17462 -0.00171
 C181 C 0.25961 1.14715 0.47705
 C182 C 0.27570 1.13402 0.47892
 C183 C 0.27503 1.12347 0.49390
 C184 C 0.25835 1.12694 0.50558
 C185 C 0.24260 1.13511 0.47810
 C186 C 0.24192 1.12453 0.49296
 C187 C 0.25979 1.15810 0.49423
 C188 C 0.25920 1.14754 0.50915
 H189 H 0.28689 1.13358 0.46964
 H190 H 0.25774 1.11833 0.51773
 H191 H 0.23207 1.13484 0.46788
 H192 H 0.26128 1.17281 0.49458
 C193 C 0.12564 0.52101 0.25643
 C194 C 0.11222 0.51917 0.24087
 C195 C 0.10183 0.50379 0.24157
 C196 C 0.10570 0.49155 0.25779
 C197 C 0.11390 0.51958 0.27308
 C198 C 0.10351 0.50416 0.27378
 C199 C 0.13681 0.50339 0.25633
 C200 C 0.12630 0.48799 0.25705
 H201 H 0.11142 0.52890 0.22997
 H202 H 0.09716 0.47904 0.25836
 H203 H 0.11415 0.52961 0.28357
 H204 H 0.15158 0.50312 0.25581
 C205 C -0.12451 1.01788 0.24932
 C206 C -0.11161 1.01718 0.26539
 C207 C -0.10080 1.00219 0.26583
 C208 C -0.10391 0.98917 0.25017
 C209 C -0.11200 1.01642 0.23320
 C210 C -0.10122 1.00134 0.23367
 C211 C -0.13475 1.00089 0.24983
 C212 C -0.12338 0.98511 0.25027
 H213 H -0.11084 1.02777 0.27534
 H214 H -0.09505 0.97696 0.25062
 H215 H -0.11203 1.02610 0.22224
 H216 H -0.14950 1.00013 0.24879
 C217 C 0.37585 0.51952 -0.25173
 C218 C 0.38860 0.51862 -0.23561
 C219 C 0.39924 0.50355 -0.23509
 C220 C 0.39620 0.49056 -0.25072
 C221 C 0.38833 0.51777 -0.26780
 C222 C 0.39893 0.50259 -0.26725
 C223 C 0.36490 0.50166 -0.25121
 C224 C 0.37560 0.48651 -0.25073
 H225 H 0.38942 0.52920 -0.22566
 H226 H 0.40490 0.47825 -0.25022
 H227 H 0.38823 0.52725 -0.27893
 H228 H 0.35013 0.50103 -0.25204
 C229 C 0.62594 0.02197 -0.24158
 C230 C 0.61249 0.02034 -0.25713
 C231 C 0.60204 0.00499 -0.25656
 C232 C 0.60590 -0.00743 -0.24048
 C233 C 0.61423 0.02040 -0.22492
 C234 C 0.60378 0.00501 -0.22436
 C235 C 0.63705 0.00432 -0.24188
 C236 C 0.62649 -0.01105 -0.24129
 H237 H 0.61168 0.03020 -0.26791
 H238 H 0.59731 -0.01992 -0.24003
 H239 H 0.61455 0.03030 -0.21432
 H240 H 0.65181 0.00400 -0.24241
 C241 C 0.02048 0.24020 0.84679
 C242 C 0.02277 0.25748 0.85791
 C243 C 0.00958 0.25929 0.87035
 C244 C -0.00456 0.24383 0.87052
 C245 C 0.02006 0.22455 0.86036
 C246 C 0.00691 0.22656 0.87280
 C247 C 0.00223 0.24113 0.83929
 C248 C -0.01148 0.24312 0.85243
 H249 H 0.03350 0.26750 0.85589
 H250 H -0.01525 0.24533 0.88074
 H251 H 0.02942 0.21315 0.86031
 H252 H -0.00070 0.24142 0.82514
 C253 C 0.50891 0.25485 0.14875
 C254 C 0.51195 0.24032 0.13467
 C255 C 0.49820 0.23937 0.12248
 C256 C 0.48270 0.25282 0.12542
 C257 C 0.50592 0.27256 0.13833
 C258 C 0.49218 0.27140 0.12616
 C259 C 0.49041 0.25023 0.15689
 C260 C 0.47675 0.24918 0.14455
 H261 H 0.52372 0.23143 0.13450
 H262 H 0.47149 0.25194 0.11545
 H263 H 0.51418 0.28474 0.14011
 H264 H 0.48817 0.24871 0.17103
 C265 C 0.00797 0.75132 0.64946
 C266 C 0.01058 0.73774 0.63443
 C267 C -0.00316 0.73808 0.62220
 C268 C -0.01823 0.75177 0.62603
 C269 C 0.00558 0.76981 0.64025
 C270 C -0.00816 0.76995 0.62802
 C271 C -0.01069 0.74673 0.65727
 C272 C -0.02433 0.74698 0.64488
 H273 H 0.02197 0.72841 0.63375
 H274 H -0.02943 0.75195 0.61602
 H275 H 0.01426 0.78155 0.64279
 H276 H -0.01301 0.74430 0.67128
 C277 C 0.52133 0.74145 0.34856
 C278 C 0.52398 0.75830 0.36016
 C279 C 0.51059 0.76035 0.37231
 C280 C 0.49584 0.74553 0.37185
 C281 C 0.51976 0.72545 0.36159
 C282 C 0.50639 0.72769 0.37374
 C283 C 0.50231 0.74351 0.34028
 C284 C 0.48904 0.74567 0.35257
 H285 H 0.53503 0.76804 0.35850
 H286 H 0.48496 0.74723 0.38181
 H287 H 0.52845 0.71355 0.36132
 H288 H 0.49966 0.74374 0.32610
 Zr289 Zr 0.01991 -0.01245 1.02765
 O290 O 0.03754 -0.00462 1.04864
 O291 O 0.01749 -0.04063 1.03186
 O292 O 0.00764 -0.01634 1.05262
 O293 O 0.05379 -0.01450 0.99609
 O294 O -0.01978 -0.00205 1.04972
 O295 O 0.04650 -0.02263 1.02444
 O296 O -0.00277 -0.04953 1.01042
 O297 O -0.00767 -0.01708 1.02184
 O298 O 0.01877 -0.02221 1.00173
 O299 O 0.00712 0.01285 1.03080
 O300 O 0.03272 0.00766 1.01186
 Zr301 Zr -0.01008 0.01879 0.98187
 Zr302 Zr -0.02016 0.00836 1.02369
 Zr303 Zr 0.03014 -0.00193 0.98585
 Zr304 Zr -0.00866 -0.02586 0.99564
 O305 O 0.05301 0.01473 0.98033
 O306 O -0.03380 -0.03674 1.00450
 O307 O 0.00285 -0.00649 0.97844
 O308 O -0.02256 -0.00125 0.99774
 O309 O -0.00902 0.02890 1.00770
 O310 O 0.01748 0.02328 0.98776
 C311 C 0.00783 -0.05262 1.02372
 C312 C 0.05743 -0.02188 1.01122
 C313 C -0.00783 -0.01114 1.05857
 O314 O -0.04423 -0.00705 1.02757
 O315 O -0.04268 0.02338 1.01444
 O316 O -0.03594 0.03050 0.98572
 C317 C -0.04637 0.03074 0.99933
 O318 O 0.03788 0.03424 1.03482
 Zr319 Zr 0.01854 0.03234 1.01377
 O320 O -0.00758 0.04687 0.97751
 O321 O -0.02490 0.02974 1.04163
 O322 O 0.00781 0.05047 1.03266
 O323 O 0.04280 0.04473 1.00443
 O324 O 0.01090 0.05637 1.00017
 C325 C 0.00087 0.05919 0.98638
 O326 O -0.02894 0.01140 0.96174
 O327 O 0.03642 -0.02429 0.96955
 O328 O 0.00109 0.02040 0.95620
 O329 O 0.02818 0.00544 0.95893
 O330 O 0.00195 -0.04529 0.97795
 O331 O -0.02576 -0.02807 0.97287
 C332 C 0.01593 0.01393 0.94991
 H333 H 0.02548 -0.03372 1.00020
 H334 H -0.03545 -0.00310 0.99424
 H335 H 0.02323 0.03220 0.97963
 H336 H 0.00831 0.01711 1.04317
 H337 H -0.03431 -0.04968 1.00094
 H338 H -0.05135 -0.00070 1.03670
 H339 H -0.03696 0.02738 1.04698
 H340 H 0.01448 0.06217 1.03146
 H341 H -0.00537 -0.05658 0.97927
 H342 H 0.04836 -0.02160 0.96410
 H343 H 0.06018 0.00830 0.97130
 H344 H 0.04281 0.05755 1.00838
 H345 H -0.03114 -0.04044 0.97243
 H346 H -0.03189 0.02259 0.95486
 H347 H 0.04072 -0.01581 1.05540
 H348 H 0.04082 0.04719 1.03701
 Zr349 Zr 0.52031 0.48760 0.52695
 O350 O 0.53796 0.49540 0.54794
 O351 O 0.51811 0.45937 0.53100
 O352 O 0.50815 0.48360 0.55195
 O353 O 0.55412 0.48585 0.49530
 O354 O 0.48068 0.49779 0.54918
 O355 O 0.54695 0.47759 0.52364
 O356 O 0.49787 0.45045 0.50956
 O357 O 0.49274 0.48284 0.52120
 O358 O 0.51915 0.47794 0.50099
 O359 O 0.50742 0.51282 0.53022
 O360 O 0.53299 0.50783 0.51121
 Zr361 Zr 0.49006 0.51887 0.48134
 Zr362 Zr 0.48014 0.50823 0.52317
 Zr363 Zr 0.53038 0.49834 0.48516
 Zr364 Zr 0.49172 0.47418 0.49497
 O365 O 0.55315 0.51513 0.47965
 O366 O 0.46670 0.46313 0.50395
 O367 O 0.50310 0.49367 0.47780
 O368 O 0.47772 0.49872 0.49718
 O369 O 0.49113 0.52889 0.50721
 O370 O 0.51760 0.52348 0.48719
 C371 C 0.50855 0.44735 0.52279
 C372 C 0.55784 0.47844 0.51040
 C373 C 0.49270 0.48876 0.55799
 O374 O 0.45617 0.49266 0.52706
 O375 O 0.45752 0.52319 0.51402
 O376 O 0.46415 0.53044 0.48531
 C377 C 0.45376 0.53060 0.49896
 O378 O 0.53803 0.53438 0.53428
 Zr379 Zr 0.51869 0.53244 0.51323
 O380 O 0.49241 0.54699 0.47708
 O381 O 0.47531 0.52951 0.54119
 O382 O 0.50789 0.55046 0.53218
 O383 O 0.54291 0.54492 0.50389
 O384 O 0.51093 0.55647 0.49971
 C385 C 0.50085 0.55931 0.48596
 O386 O 0.47119 0.51144 0.46123
 O387 O 0.53674 0.47609 0.46875
 O388 O 0.50117 0.52066 0.45565
 O389 O 0.52833 0.50580 0.45828
 O390 O 0.50231 0.45489 0.47711
 O391 O 0.47448 0.47197 0.47230
 C392 C 0.51603 0.51429 0.44931
 H393 H 0.52593 0.46649 0.49937
 H394 H 0.46482 0.49682 0.49371
 H395 H 0.52330 0.53245 0.47908
 H396 H 0.50862 0.51705 0.54259
 H397 H 0.46623 0.45021 0.50033
 H398 H 0.44904 0.49894 0.53622
 H399 H 0.46330 0.52703 0.54660
 H400 H 0.51451 0.56218 0.53103
 H401 H 0.49507 0.44355 0.47843
 H402 H 0.54871 0.47883 0.46335
 H403 H 0.56034 0.50878 0.47057
 H404 H 0.54287 0.55774 0.50787
 H405 H 0.46916 0.45957 0.47183
 H406 H 0.46818 0.52263 0.45439
 H407 H 0.54120 0.48420 0.55465
 H408 H 0.54093 0.54734 0.53648
 Zr409 Zr 0.48068 0.99382 0.53514
 O410 O 0.46218 0.98150 0.55298
 O411 O 0.48375 1.01992 0.54573
 O412 O 0.49235 0.99138 0.56073
 O413 O 0.44817 1.00503 0.50339
 O414 O 0.51958 0.97744 0.55601
 O415 O 0.45456 1.00569 0.53307
 O416 O 0.50507 1.03318 0.52788
 O417 O 0.50853 0.99881 0.53164
 O418 O 0.48296 1.00970 0.51215
 O419 O 0.49280 0.96804 0.53334
 O420 O 0.46791 0.97861 0.51487
 Zr421 Zr 0.51134 0.97367 0.48510
 Zr422 Zr 0.52039 0.97323 0.52848
 Zr423 Zr 0.47166 0.99424 0.49178
 Zr424 Zr 0.51062 1.01382 0.50820
 O425 O 0.44837 0.98032 0.48207
 O426 O 0.53586 1.02127 0.52004
 O427 O 0.49925 0.99959 0.48670
 O428 O 0.52380 0.98887 0.50542
 O429 O 0.50924 0.95755 0.50800
 O430 O 0.48355 0.96879 0.48880
 C431 C 0.49417 1.03317 0.54111
 C432 C 0.44419 1.00873 0.51950
 C433 C 0.50764 0.98469 0.56605
 O434 O 0.54480 0.98635 0.53647
 O435 O 0.54280 0.96009 0.51708
 O436 O 0.53681 0.96059 0.48733
 C437 C 0.54680 0.95662 0.50092
 O438 O 0.46144 0.94733 0.53137
 Zr439 Zr 0.48144 0.95366 0.51208
 O440 O 0.50838 0.94744 0.47473
 O441 O 0.52391 0.94794 0.54160
 O442 O 0.49115 0.93103 0.52691
 O443 O 0.45717 0.94464 0.49938
 O444 O 0.48884 0.93341 0.49391
 C445 C 0.49926 0.93363 0.48033
 O446 O 0.53083 0.98536 0.46785
 O447 O 0.46682 1.02016 0.48032
 O448 O 0.50071 0.97825 0.45931
 O449 O 0.47398 0.99310 0.46407
 O450 O 0.50099 1.03757 0.49510
 O451 O 0.52834 1.02117 0.48720
 C452 C 0.48611 0.98632 0.45396
 H453 H 0.47666 1.02152 0.51293
 H454 H 0.53683 0.99111 0.50293
 H455 H 0.47778 0.96224 0.47879
 H456 H 0.49115 0.96096 0.54443
 H457 H 0.53678 1.03471 0.51957
 H458 H 0.55143 0.97769 0.54429
 H459 H 0.53581 0.94857 0.54789
 H460 H 0.48423 0.92017 0.52293
 H461 H 0.50849 1.04794 0.49932
 H462 H 0.45495 1.01940 0.47401
 H463 H 0.44166 0.98905 0.47440
 H464 H 0.45673 0.93120 0.50049
 H465 H 0.53395 1.03317 0.48968
 H466 H 0.53376 0.97609 0.45885
 H467 H 0.45907 0.99078 0.56190
 H468 H 0.45818 0.93427 0.53065
 Zr469 Zr -0.02010 0.49254 1.03342
 O470 O -0.03857 0.48015 1.05125
 O471 O -0.01727 0.51869 1.04392
 O472 O -0.00846 0.49033 1.05904
 O473 O -0.05258 0.50353 1.00156
 O474 O 0.01886 0.47652 1.05445
 O475 O -0.04627 0.50428 1.03125
 O476 O 0.00404 0.53204 1.02612
 O477 O 0.00773 0.49768 1.02999
 O478 O -0.01783 0.50837 1.01040
 O479 O -0.00785 0.46682 1.03174
 O480 O -0.03274 0.47722 1.01316
 Zr481 Zr 0.01082 0.47243 0.98354
 Zr482 Zr 0.01973 0.47215 1.02694
 Zr483 Zr -0.02900 0.49281 0.99004
 Zr484 Zr 0.00982 0.51264 1.00653
 O485 O -0.05217 0.47873 0.98030
 O486 O 0.03494 0.52027 1.01847
 O487 O -0.00142 0.49829 0.98504
 O488 O 0.02313 0.48775 1.00385
 O489 O 0.00873 0.45635 1.00647
 O490 O -0.01697 0.46742 0.98715
 C491 C -0.00694 0.53200 1.03928
 C492 C -0.05661 0.50726 1.01765
 C493 C 0.00687 0.48379 1.06442
 O494 O 0.04408 0.48540 1.03491
 O495 O 0.04224 0.45908 1.01566
 O496 O 0.03635 0.45948 0.98588
 C497 C 0.04632 0.45561 0.99952
 O498 O -0.03909 0.44596 1.02972
 Zr499 Zr -0.01907 0.45233 1.01047
 O500 O 0.00798 0.44618 0.97318
 O501 O 0.02331 0.44693 1.04019
 O502 O -0.00926 0.42979 1.02536
 O503 O -0.04326 0.44314 0.99774
 O504 O -0.01154 0.43209 0.99234
 C505 C -0.00109 0.43234 0.97878
 O506 O 0.03033 0.48415 0.96633
 O507 O -0.03399 0.51867 0.97849
 O508 O 0.00030 0.47697 0.95770
 O509 O -0.02655 0.49167 0.96235
 O510 O 0.00011 0.53627 0.99328
 O511 O 0.02762 0.52001 0.98561
 C512 C -0.01431 0.48498 0.95229
 H513 H -0.02420 0.52017 1.01112
 H514 H 0.03616 0.49004 1.00140
 H515 H -0.02267 0.46083 0.97713
 H516 H -0.00949 0.45978 1.04285
 H517 H 0.03578 0.53372 1.01796
 H518 H 0.05071 0.47683 1.04283
 H519 H 0.03518 0.44764 1.04651
 H520 H -0.01613 0.41889 1.02140
 H521 H 0.00750 0.54671 0.99752
 H522 H -0.04584 0.51781 0.97214
 H523 H -0.05888 0.48738 0.97255
 H524 H -0.04364 0.42970 0.99892
 H525 H 0.03311 0.53208 0.98806
 H526 H 0.03336 0.47484 0.95739
 H527 H -0.04176 0.48944 1.06014
 H528 H -0.04226 0.43288 1.02906
 Zr529 Zr -0.01803 0.49274 0.48099
 O530 O -0.03517 0.49827 0.45889
 O531 O -0.01400 0.46463 0.47872
 O532 O -0.00457 0.48856 0.45671
 O533 O -0.05301 0.49032 0.51145
 O534 O 0.02205 0.50452 0.45974
 O535 O -0.04429 0.48118 0.48396
 O536 O 0.00565 0.45789 0.50145
 O537 O 0.00948 0.49005 0.48811
 O538 O -0.01752 0.48435 0.50752
 O539 O -0.00629 0.51856 0.47666
 O540 O -0.03241 0.51279 0.49495
 Zr541 Zr 0.00849 0.52801 0.52575
 Zr542 Zr 0.02084 0.51608 0.48509
 Zr543 Zr -0.03043 0.50471 0.52163
 Zr544 Zr 0.00976 0.48264 0.51486
 O545 O -0.05432 0.52015 0.52515
 O546 O 0.03577 0.47293 0.50767
 O547 O -0.00332 0.50216 0.53035
 O548 O 0.02254 0.50795 0.51171
 O549 O 0.00808 0.53669 0.49926
 O550 O -0.01895 0.53052 0.51849
 C551 C -0.00417 0.45360 0.48792
 C552 C -0.05575 0.48200 0.49675
 C553 C 0.01088 0.49442 0.45099
 O554 O 0.04572 0.50191 0.48314
 O555 O 0.04224 0.53287 0.49419
 O556 O 0.03398 0.54099 0.52211
 C557 C 0.04495 0.54118 0.50890
 O558 O -0.03787 0.53771 0.47011
 Zr559 Zr -0.01934 0.53813 0.49190
 O560 O 0.00452 0.55612 0.52798
 O561 O 0.02540 0.53683 0.46602
 O562 O -0.00870 0.55589 0.47223
 O563 O -0.04453 0.54950 0.49950
 O564 O -0.01343 0.56324 0.50405
 C565 C -0.00411 0.56740 0.51795
 O566 O 0.02671 0.52284 0.54710
 O567 O -0.03621 0.48285 0.53916
 O568 O -0.00400 0.53039 0.55078
 O569 O -0.03017 0.51364 0.54798
 O570 O -0.00075 0.46355 0.53339
 O571 O 0.02601 0.48250 0.53832
 C572 C -0.01885 0.52343 0.55688
 H573 H -0.02375 0.47255 0.50955
 H574 H 0.03535 0.50706 0.51580
 H575 H -0.02548 0.53948 0.52575
 H576 H -0.00715 0.52214 0.46401
 H577 H 0.03674 0.46022 0.51204
 H578 H 0.05296 0.50825 0.47394
 H579 H 0.03775 0.53488 0.46124
 H580 H -0.01601 0.56718 0.47235
 H581 H 0.00706 0.45262 0.53307
 H582 H -0.04854 0.48498 0.54392
 H583 H -0.06159 0.51374 0.53429
 H584 H -0.04500 0.56205 0.49462
 H585 H 0.03182 0.47046 0.53979
 H586 H 0.02877 0.53453 0.55331
 H587 H -0.03748 0.48654 0.45282
 H588 H -0.04130 0.55033 0.46688
 Zr589 Zr 0.48348 -0.00789 -0.01670
 O590 O 0.46634 -0.00202 -0.03871
 O591 O 0.48717 -0.03603 -0.01917
 O592 O 0.49681 -0.01203 -0.04105
 O593 O 0.44857 -0.01018 0.01385
 O594 O 0.52359 0.00364 -0.03799
 O595 O 0.45711 -0.01918 -0.01374
 O596 O 0.50684 -0.04313 0.00345
 O597 O 0.51098 -0.01091 -0.00969
 O598 O 0.48400 -0.01648 0.00977
 O599 O 0.49546 0.01784 -0.02089
 O600 O 0.46935 0.01219 -0.00256
 Zr601 Zr 0.51049 0.02678 0.02822
 Zr602 Zr 0.52260 0.01504 -0.01256
 Zr603 Zr 0.47134 0.00389 0.02406
 Zr604 Zr 0.51128 -0.01851 0.01700
 O605 O 0.44761 0.01954 0.02776
 O606 O 0.53716 -0.02843 0.00963
 O607 O 0.49845 0.00102 0.03267
 O608 O 0.52431 0.00670 0.01399
 O609 O 0.51007 0.03565 0.00179
 O610 O 0.48306 0.02961 0.02107
 C611 C 0.49690 -0.04723 -0.01005
 C612 C 0.44570 -0.01834 -0.00092
 C613 C 0.51229 -0.00627 -0.04678
 O614 O 0.54734 0.00067 -0.01466
 O615 O 0.54415 0.03160 -0.00343
 O616 O 0.53606 0.03960 0.02458
 C617 C 0.54697 0.03982 0.01132
 O618 O 0.46407 0.03734 -0.02722
 Zr619 Zr 0.48266 0.03743 -0.00547
 O620 O 0.50683 0.05491 0.03066
 O621 O 0.52730 0.03586 -0.03152
 O622 O 0.49338 0.05524 -0.02505
 O623 O 0.45761 0.04897 0.00230
 O624 O 0.48889 0.06237 0.00683
 C625 C 0.49829 0.06635 0.02072
 O626 O 0.52874 0.02120 0.04945
 O627 O 0.46539 -0.01803 0.04146
 O628 O 0.49810 0.02914 0.05331
 O629 O 0.47178 0.01266 0.05047
 O630 O 0.50068 -0.03764 0.03545
 O631 O 0.52761 -0.01898 0.04041
 C632 C 0.48320 0.02229 0.05939
 H633 H 0.47764 -0.02822 0.01174
 H634 H 0.53713 0.00566 0.01804
 H635 H 0.47665 0.03859 0.02841
 H636 H 0.49460 0.02153 -0.03351
 H637 H 0.53801 -0.04118 0.01390
 H638 H 0.55458 0.00696 -0.02389
 H639 H 0.53961 0.03382 -0.03635
 H640 H 0.48617 0.06659 -0.02484
 H641 H 0.50840 -0.04863 0.03503
 H642 H 0.45313 -0.01578 0.04631
 H643 H 0.44033 0.01316 0.03691
 H644 H 0.45725 0.06157 -0.00247
 H645 H 0.53336 -0.03106 0.04175
 H646 H 0.53098 0.03281 0.05574
 H647 H 0.46386 -0.01367 -0.04485
 H648 H 0.46070 0.05001 -0.03031
 Zr649 Zr 0.52637 0.50785 -0.02881
 O650 O 0.54463 0.49562 -0.04661
 O651 O 0.52531 0.53464 -0.03851
 O652 O 0.51548 0.50719 -0.05484
 O653 O 0.55870 0.51497 0.00423
 O654 O 0.48705 0.49499 -0.05127
 O655 O 0.55323 0.51792 -0.02551
 O656 O 0.50457 0.54812 -0.02058
 O657 O 0.49887 0.51445 -0.02576
 O658 O 0.52464 0.52242 -0.00522
 O659 O 0.51226 0.48285 -0.02838
 O660 O 0.53733 0.49060 -0.00893
 Zr661 Zr 0.49275 0.48678 0.01955
 Zr662 Zr 0.48500 0.48956 -0.02398
 Zr663 Zr 0.53411 0.50501 0.01471
 Zr664 Zr 0.49725 0.52810 -0.00173
 O665 O 0.55608 0.48905 0.02421
 O666 O 0.47289 0.53793 -0.01357
 O667 O 0.50688 0.51188 0.01940
 O668 O 0.48208 0.50396 -0.00037
 O669 O 0.49431 0.47201 -0.00397
 O670 O 0.52019 0.48025 0.01629
 C671 C 0.51564 0.54817 -0.03366
 C672 C 0.56342 0.51940 -0.01159
 C673 C 0.49991 0.50167 -0.06077
 O674 O 0.46198 0.50484 -0.03198
 O675 O 0.46140 0.47710 -0.01377
 O676 O 0.46642 0.47545 0.01611
 C677 C 0.45667 0.47281 0.00208
 O678 O 0.54213 0.46017 -0.02635
 Zr679 Zr 0.52183 0.46647 -0.00754
 O680 O 0.49303 0.45979 0.02857
 O681 O 0.47982 0.46538 -0.03823
 O682 O 0.51114 0.44556 -0.02387
 O683 O 0.54469 0.45490 0.00562
 O684 O 0.51180 0.44561 0.00916
 C685 C 0.50087 0.44570 0.02236
 O686 O 0.47386 0.49879 0.03686
 O687 O 0.54047 0.52978 0.02752
 O688 O 0.50315 0.48863 0.04573
 O689 O 0.53107 0.50201 0.04224
 O690 O 0.50844 0.55038 0.01243
 O691 O 0.47968 0.53528 0.01925
 C692 C 0.51827 0.49521 0.05176
 H693 H 0.53182 0.53385 -0.00538
 H694 H 0.46917 0.50686 0.00190
 H695 H 0.52510 0.47264 0.02608
 H696 H 0.51372 0.47630 -0.03968
 H697 H 0.47298 0.55135 -0.01246
 H698 H 0.45490 0.49714 -0.04031
 H699 H 0.46817 0.46717 -0.04474
 H700 H 0.51707 0.43404 -0.02021
 H701 H 0.50185 0.56145 0.00850
 H702 H 0.55207 0.52787 0.03407
 H703 H 0.56319 0.49679 0.03248
 H704 H 0.54403 0.44157 0.00389
 H705 H 0.47522 0.54784 0.01732
 H706 H 0.46986 0.48918 0.04529
 H707 H 0.54865 0.50523 -0.05504
 H708 H 0.54447 0.44692 -0.02610
 Zr709 Zr 0.02642 1.00674 0.47186
 O710 O 0.04473 0.99425 0.45429
 O711 O 0.02520 1.03334 0.46169
 O712 O 0.01551 1.00555 0.44586
 O713 O 0.05871 1.01468 0.50475
 O714 O -0.01283 0.99322 0.44965
 O715 O 0.05324 1.01699 0.47496
 O716 O 0.00435 1.04703 0.47935
 O717 O -0.00112 1.01323 0.47480
 O718 O 0.02461 1.02175 0.49518
 O719 O 0.01246 0.98166 0.47276
 O720 O 0.03747 0.98993 0.49205
 Zr721 Zr -0.00707 0.98641 0.52060
 Zr722 Zr -0.01484 0.98829 0.47704
 Zr723 Zr 0.03418 1.00478 0.51543
 Zr724 Zr -0.00281 1.02734 0.49857
 O725 O 0.05626 0.98915 0.52520
 O726 O -0.02725 1.03682 0.48661
 O727 O 0.00691 1.01159 0.52000
 O728 O -0.01784 1.00314 0.50037
 O729 O -0.00543 0.97117 0.49736
 O730 O 0.02040 0.97998 0.51746
 C731 C 0.01544 1.04691 0.46629
 C732 C 0.06341 1.01880 0.48886
 C733 C -0.00002 0.99982 0.44003
 O734 O -0.03793 1.00330 0.46875
 O735 O -0.03838 0.97593 0.48748
 O736 O -0.03335 0.97487 0.51738
 C737 C -0.04309 0.97193 0.50340
 O738 O 0.04236 0.95910 0.47513
 Zr739 Zr 0.02212 0.96574 0.49390
 O740 O -0.00659 0.95962 0.53018
 O741 O -0.01989 0.96383 0.46323
 O742 O 0.01144 0.94442 0.47806
 O743 O 0.04515 0.95464 0.50718
 O744 O 0.01235 0.94518 0.51111
 C745 C 0.00144 0.94547 0.52432
 O746 O -0.02605 0.99866 0.53767
 O747 O 0.04038 1.02984 0.52777
 O748 O 0.00332 0.98880 0.54673
 O749 O 0.03117 1.00226 0.54301
 O750 O 0.00830 1.04995 0.51229
 O751 O -0.02039 1.03483 0.51944
 C752 C 0.01841 0.99556 0.55263
 H753 H 0.03173 1.03322 0.49480
 H754 H -0.03077 1.00602 0.50258
 H755 H 0.02538 0.97260 0.52738
 H756 H 0.01395 0.97490 0.46158
 H757 H -0.02722 1.05027 0.48746
 H758 H -0.04500 0.99539 0.46060
 H759 H -0.03156 0.96542 0.45670
 H760 H 0.01744 0.93300 0.48194
 H761 H 0.00166 1.06091 0.50817
 H762 H 0.05198 1.02812 0.53437
 H763 H 0.06335 0.99710 0.53329
 H764 H 0.04458 0.94126 0.50576
 H765 H -0.02488 1.04734 0.51731
 H766 H -0.02995 0.98920 0.54631
 H767 H 0.04867 1.00370 0.44566
 H768 H 0.04476 0.94586 0.47566
 Zr769 Zr 0.73851 0.26942 0.22311
 O770 O 0.74705 0.28731 0.20265
 O771 O 0.71044 0.26718 0.21801
 O772 O 0.73526 0.25756 0.19786
 O773 O 0.73564 0.30277 0.25515
 O774 O 0.74932 0.23004 0.20074
 O775 O 0.72832 0.29597 0.22646
 O776 O 0.70082 0.24662 0.23882
 O777 O 0.73359 0.24180 0.22834
 O778 O 0.72796 0.26792 0.24871
 O779 O 0.76386 0.25657 0.22049
 O780 O 0.75822 0.28188 0.23969
 Zr781 Zr 0.76829 0.23862 0.26929
 Zr782 Zr 0.75905 0.22923 0.22702
 Zr783 Zr 0.74783 0.27893 0.26536
 Zr784 Zr 0.72402 0.24044 0.25424
 O785 O 0.76442 0.30164 0.27169
 O786 O 0.71334 0.21549 0.24469
 O787 O 0.74294 0.25159 0.27219
 O788 O 0.74866 0.22648 0.25264
 O789 O 0.77918 0.24001 0.24380
 O790 O 0.77307 0.26620 0.26397
 C791 C 0.69817 0.25742 0.22560
 C792 C 0.72873 0.30668 0.23987
 C793 C 0.74052 0.24214 0.19182
 O794 O 0.74368 0.20529 0.22235
 O795 O 0.77377 0.20655 0.23635
 O796 O 0.78006 0.21281 0.26536
 C797 C 0.78069 0.20261 0.25160
 O798 O 0.78550 0.28726 0.21762
 Zr799 Zr 0.78291 0.26762 0.23827
 O800 O 0.79627 0.24090 0.27453
 O801 O 0.78092 0.22470 0.20960
 O802 O 0.80155 0.25708 0.21975
 O803 O 0.79517 0.29164 0.24834
 O804 O 0.80652 0.25965 0.25246
 C805 C 0.80889 0.24941 0.26617
 O806 O 0.76019 0.21950 0.28888
 O807 O 0.72502 0.28503 0.28111
 O808 O 0.76925 0.24939 0.29516
 O809 O 0.75448 0.27656 0.29243
 O810 O 0.70405 0.25085 0.27147
 O811 O 0.72107 0.22306 0.27668
 C812 C 0.76271 0.26417 0.30149
 H813 H 0.71643 0.27465 0.25000
 H814 H 0.74667 0.21355 0.25588
 H815 H 0.78179 0.27179 0.27244
 H816 H 0.76848 0.25792 0.20827
 H817 H 0.70028 0.21498 0.24783
 H818 H 0.75028 0.19829 0.21329
 H819 H 0.77865 0.21276 0.20398
 H820 H 0.81325 0.26367 0.22139
 H821 H 0.69278 0.24359 0.26969
 H822 H 0.72760 0.29686 0.28685
 H823 H 0.75778 0.30867 0.28069
 H824 H 0.80811 0.29164 0.24475
 H825 H 0.70867 0.21769 0.27665
 H826 H 0.77117 0.21638 0.29602
 H827 H 0.73607 0.29066 0.19562
 H828 H 0.79854 0.29014 0.21581
 Zr829 Zr 0.74296 0.73094 0.71639
 O830 O 0.73048 0.71247 0.69858
 O831 O 0.76912 0.73364 0.70588
 O832 O 0.74071 0.74249 0.69076
 O833 O 0.75396 0.69857 0.74831
 O834 O 0.72697 0.76984 0.69530
 O835 O 0.75462 0.70476 0.71860
 O836 O 0.78259 0.75495 0.72364
 O837 O 0.74818 0.75875 0.71976
 O838 O 0.75887 0.73325 0.73940
 O839 O 0.71725 0.74326 0.71807
 O840 O 0.72763 0.71842 0.73669
 Zr841 Zr 0.72304 0.76207 0.76622
 Zr842 Zr 0.72267 0.77082 0.72281
 Zr843 Zr 0.74332 0.72221 0.75978
 Zr844 Zr 0.76322 0.76088 0.74320
 O845 O 0.72920 0.69912 0.76959
 O846 O 0.77088 0.78591 0.73118
 O847 O 0.74888 0.74977 0.76473
 O848 O 0.73835 0.77426 0.74587
 O849 O 0.70688 0.75995 0.74331
 O850 O 0.71794 0.73431 0.76267
 C851 C 0.78249 0.74393 0.71049
 C852 C 0.75762 0.69447 0.73221
 C853 C 0.73419 0.75780 0.68535
 O854 O 0.73594 0.79510 0.71478
 O855 O 0.70963 0.79336 0.73406
 O856 O 0.71008 0.78758 0.76384
 C857 C 0.70617 0.79749 0.75019
 O858 O 0.69633 0.71208 0.72018
 Zr859 Zr 0.70277 0.73217 0.73937
 O860 O 0.69680 0.75934 0.77661
 O861 O 0.69741 0.77439 0.70956
 O862 O 0.68021 0.74195 0.72446
 O863 O 0.69350 0.70810 0.75217
 O864 O 0.68257 0.73984 0.75749
 C865 C 0.68290 0.75031 0.77104
 O866 O 0.73487 0.78162 0.78335
 O867 O 0.76921 0.71722 0.77131
 O868 O 0.72762 0.75165 0.79207
 O869 O 0.74223 0.72477 0.78747
 O870 O 0.78688 0.75119 0.75646
 O871 O 0.77069 0.77871 0.76409
 C872 C 0.73560 0.73705 0.79751
 H873 H 0.77065 0.72685 0.73868
 H874 H 0.74068 0.78729 0.74830
 H875 H 0.71135 0.72867 0.77270
 H876 H 0.71017 0.74159 0.70697
 H877 H 0.78435 0.78671 0.73168
 H878 H 0.72734 0.80172 0.70688
 H879 H 0.69811 0.78626 0.70327
 H880 H 0.66928 0.73515 0.72845
 H881 H 0.79733 0.75857 0.75223
 H882 H 0.76835 0.70542 0.77770
 H883 H 0.73787 0.69242 0.77734
 H884 H 0.68006 0.70774 0.75097
 H885 H 0.78273 0.78424 0.76158
 H886 H 0.72560 0.78470 0.79231
 H887 H 0.73975 0.70923 0.68970
 H888 H 0.68321 0.70898 0.72082
 Zr889 Zr 0.24411 0.23271 0.76821
 O890 O 0.25065 0.21549 0.78996
 O891 O 0.21601 0.23625 0.77138
 O892 O 0.24049 0.24587 0.79273
 O893 O 0.24113 0.19800 0.73745
 O894 O 0.25597 0.27272 0.78951
 O895 O 0.23283 0.20634 0.76531
 O896 O 0.20823 0.25598 0.74906
 O897 O 0.24079 0.26020 0.76146
 O898 O 0.23482 0.23333 0.74194
 O899 O 0.26991 0.24477 0.77189
 O900 O 0.26389 0.21877 0.75349
 Zr901 Zr 0.27749 0.26012 0.72268
 Zr902 Zr 0.26677 0.27191 0.76382
 Zr903 Zr 0.25488 0.22086 0.72709
 Zr904 Zr 0.23247 0.26062 0.73495
 O905 O 0.27048 0.19722 0.72286
 O906 O 0.22261 0.28637 0.74275
 O907 O 0.25165 0.24798 0.71873
 O908 O 0.25772 0.27373 0.73748
 O909 O 0.28708 0.25959 0.74889
 O910 O 0.28062 0.23269 0.72957
 C911 C 0.20453 0.24597 0.76260
 C912 C 0.23336 0.19502 0.75239
 C913 C 0.24630 0.26135 0.79843
 O914 O 0.25237 0.29657 0.76643
 O915 O 0.28299 0.29359 0.75446
 O916 O 0.29032 0.28569 0.72622
 C917 C 0.29081 0.29653 0.73955
 O918 O 0.28977 0.21351 0.77757
 Zr919 Zr 0.28916 0.23217 0.75591
 O920 O 0.30555 0.25653 0.71948
 O921 O 0.28807 0.27656 0.78234
 O922 O 0.30744 0.24293 0.77511
 O923 O 0.30058 0.20721 0.74776
 O924 O 0.31376 0.23848 0.74298
 C925 C 0.31730 0.24793 0.72902
 O926 O 0.27131 0.27846 0.70172
 O927 O 0.23252 0.21498 0.71014
 O928 O 0.27927 0.24789 0.69745
 O929 O 0.26301 0.22146 0.70049
 O930 O 0.21291 0.25004 0.71688
 O931 O 0.23133 0.27706 0.71168
 C932 C 0.27237 0.23297 0.69143
 H933 H 0.22304 0.22694 0.74020
 H934 H 0.25652 0.28656 0.73354
 H935 H 0.28943 0.22634 0.72198
 H936 H 0.27392 0.24386 0.78442
 H937 H 0.20973 0.28717 0.73879
 H938 H 0.25884 0.30374 0.77562
 H939 H 0.28612 0.28883 0.78730
 H940 H 0.31883 0.23580 0.77458
 H941 H 0.20189 0.25770 0.71762
 H942 H 0.23465 0.20275 0.70517
 H943 H 0.26390 0.18999 0.71379
 H944 H 0.31331 0.20687 0.75222
 H945 H 0.21919 0.28278 0.71067
 H946 H 0.28276 0.28079 0.69519
 H947 H 0.23917 0.21291 0.79635
 H948 H 0.30254 0.21025 0.78036
 Zr949 Zr 0.25686 0.77595 0.27782
 O950 O 0.24513 0.79422 0.29591
 O951 O 0.28382 0.77457 0.28713
 O952 O 0.25650 0.76495 0.30379
 O953 O 0.26384 0.80833 0.24487
 O954 O 0.24387 0.73672 0.30022
 O955 O 0.26716 0.80271 0.27454
 O956 O 0.29679 0.75376 0.26891
 O957 O 0.26310 0.74841 0.27453
 O958 O 0.27106 0.77415 0.25403
 O959 O 0.23167 0.76214 0.27762
 O960 O 0.23944 0.78718 0.25822
 Zr961 Zr 0.23467 0.74280 0.22953
 Zr962 Zr 0.23800 0.73485 0.27298
 Zr963 Zr 0.25346 0.78391 0.23437
 Zr964 Zr 0.27637 0.74674 0.25031
 O965 O 0.23759 0.80604 0.22514
 O966 O 0.28609 0.72223 0.26189
 O967 O 0.25994 0.75664 0.22944
 O968 O 0.25203 0.73186 0.24917
 O969 O 0.22025 0.74444 0.25325
 O970 O 0.22851 0.77028 0.23301
 C971 C 0.29718 0.76479 0.28203
 C972 C 0.26855 0.81293 0.26066
 C973 C 0.25087 0.74944 0.30970
 O974 O 0.25315 0.71165 0.28068
 O975 O 0.22511 0.71145 0.26279
 O976 O 0.22307 0.71661 0.23296
 C977 C 0.22052 0.70683 0.24697
 O978 O 0.20934 0.79226 0.27605
 Zr979 Zr 0.21510 0.77199 0.25703
 O980 O 0.20754 0.74348 0.22083
 O981 O 0.21398 0.72986 0.28751
 O982 O 0.19428 0.76148 0.27355
 O983 O 0.20361 0.79502 0.24415
 O984 O 0.19385 0.76231 0.24053
 C985 C 0.19363 0.75147 0.22725
 O986 O 0.24616 0.72382 0.21198
 O987 O 0.27816 0.79004 0.22133
 O988 O 0.23634 0.75326 0.20337
 O989 O 0.25010 0.78099 0.20685
 O990 O 0.29858 0.75772 0.23591
 O991 O 0.28304 0.72921 0.22912
 C992 C 0.24305 0.76830 0.19735
 H993 H 0.28258 0.78121 0.25408
 H994 H 0.25475 0.71894 0.24680
 H995 H 0.22082 0.77532 0.22333
 H996 H 0.22531 0.76362 0.28901
 H997 H 0.29951 0.72218 0.26063
 H998 H 0.24547 0.70461 0.28903
 H999 H 0.21575 0.71818 0.29394
 H1000 H 0.18277 0.76759 0.27008
 H1001 H 0.30964 0.75099 0.23964
 H1002 H 0.27630 0.80168 0.21487
 H1003 H 0.24531 0.81311 0.21685
 H1004 H 0.19029 0.79454 0.24607
 H1005 H 0.29556 0.72457 0.23089
 H1006 H 0.23638 0.72004 0.20360
 H1007 H 0.25493 0.79811 0.30422
 H1008 H 0.19610 0.79476 0.27598
 Zr1009 Zr 0.23774 0.77006 0.72146
 O1010 O 0.24510 0.78799 0.70059
 O1011 O 0.20970 0.76650 0.71687
 O1012 O 0.23449 0.75777 0.69642
 O1013 O 0.23432 0.80376 0.75308
 O1014 O 0.24968 0.73087 0.69936
 O1015 O 0.22664 0.79626 0.72464
 O1016 O 0.20135 0.74581 0.73807
 O1017 O 0.23403 0.74236 0.72715
 O1018 O 0.22774 0.76852 0.74726
 O1019 O 0.26353 0.75819 0.71850
 O1020 O 0.25726 0.78350 0.73749
 Zr1021 Zr 0.26964 0.74110 0.76744
 Zr1022 Zr 0.25993 0.73078 0.72548
 Zr1023 Zr 0.24750 0.78052 0.76339
 Zr1024 Zr 0.22503 0.74099 0.75325
 O1025 O 0.26328 0.80392 0.76923
 O1026 O 0.21526 0.71540 0.74439
 O1027 O 0.24386 0.75311 0.77068
 O1028 O 0.25016 0.72800 0.75134
 O1029 O 0.27996 0.74256 0.74172
 O1030 O 0.27320 0.76878 0.76167
 C1031 C 0.19802 0.75624 0.72471
 C1032 C 0.22699 0.80721 0.73788
 C1033 C 0.24024 0.74250 0.69047
 O1034 O 0.24538 0.70623 0.72134
 O1035 O 0.27557 0.70875 0.73483
 O1036 O 0.28221 0.71564 0.76364
 C1037 C 0.28287 0.70525 0.75001
 O1038 O 0.28386 0.78963 0.71478
 Zr1039 Zr 0.28247 0.77022 0.73576
 O1040 O 0.29761 0.74458 0.77208
 O1041 O 0.28166 0.72683 0.70776
 O1042 O 0.30117 0.76016 0.71705
 O1043 O 0.29390 0.79488 0.74526
 O1044 O 0.30665 0.76347 0.74961
 C1045 C 0.30971 0.75352 0.76340
 O1046 O 0.26271 0.72198 0.78746
 O1047 O 0.22471 0.78593 0.77941
 O1048 O 0.27067 0.75228 0.79315
 O1049 O 0.25473 0.77878 0.79037
 O1050 O 0.20493 0.75094 0.77060
 O1051 O 0.22319 0.72399 0.77607
 C1052 C 0.26363 0.76685 0.79943
 H1053 H 0.21596 0.77481 0.74864
 H1054 H 0.24872 0.71505 0.75479
 H1055 H 0.28184 0.77483 0.76990
 H1056 H 0.26785 0.75955 0.70618
 H1057 H 0.20229 0.71440 0.74779
 H1058 H 0.25206 0.69938 0.71224
 H1059 H 0.27971 0.71476 0.70229
 H1060 H 0.31262 0.76723 0.71837
 H1061 H 0.19393 0.74319 0.76914
 H1062 H 0.22691 0.79792 0.78495
 H1063 H 0.25647 0.81085 0.77818
 H1064 H 0.30676 0.79537 0.74140
 H1065 H 0.21101 0.71815 0.77639
 H1066 H 0.27395 0.71942 0.79443
 H1067 H 0.23385 0.79081 0.69376
 H1068 H 0.29674 0.79298 0.71267
 Zr1069 Zr 0.24393 0.23032 0.21566
 O1070 O 0.23170 0.21192 0.19763
 O1071 O 0.27024 0.23308 0.20550
 O1072 O 0.24200 0.24196 0.19004
 O1073 O 0.25443 0.19780 0.24757
 O1074 O 0.22818 0.26929 0.19451
 O1075 O 0.25556 0.20413 0.21791
 O1076 O 0.28346 0.25430 0.22353
 O1077 O 0.24911 0.25811 0.21920
 O1078 O 0.25951 0.23252 0.23888
 O1079 O 0.21820 0.24264 0.21705
 O1080 O 0.22831 0.21772 0.23569
 Zr1081 Zr 0.22331 0.26125 0.26535
 Zr1082 Zr 0.22355 0.27018 0.22197
 Zr1083 Zr 0.24366 0.22140 0.25901
 Zr1084 Zr 0.26381 0.26014 0.24286
 O1085 O 0.22937 0.19830 0.26855
 O1086 O 0.27166 0.28522 0.23105
 O1087 O 0.24917 0.24893 0.26414
 O1088 O 0.23891 0.27352 0.24526
 O1089 O 0.20748 0.25922 0.24222
 O1090 O 0.21825 0.23350 0.26162
 C1091 C 0.28355 0.24335 0.21034
 C1092 C 0.25833 0.19377 0.23152
 C1093 C 0.23552 0.25728 0.18461
 O1094 O 0.23697 0.29446 0.21419
 O1095 O 0.21040 0.29270 0.23313
 O1096 O 0.21040 0.28678 0.26289
 C1097 C 0.20670 0.29676 0.24923
 O1098 O 0.19722 0.21146 0.21876
 Zr1099 Zr 0.20341 0.23146 0.23811
 O1100 O 0.19690 0.25850 0.27535
 O1101 O 0.19846 0.27384 0.20845
 O1102 O 0.18106 0.24129 0.22291
 O1103 O 0.19398 0.20735 0.25072
 O1104 O 0.18294 0.23911 0.25594
 C1105 C 0.18306 0.24953 0.26953
 O1106 O 0.23486 0.28072 0.28273
 O1107 O 0.26940 0.21629 0.27084
 O1108 O 0.22757 0.25072 0.29121
 O1109 O 0.24225 0.22386 0.28669
 O1110 O 0.28729 0.25038 0.25639
 O1111 O 0.27098 0.27788 0.26392
 C1112 C 0.23550 0.23610 0.29669
 H1113 H 0.27130 0.22612 0.23830
 H1114 H 0.24121 0.28653 0.24776
 H1115 H 0.21152 0.22783 0.27155
 H1116 H 0.21127 0.24102 0.20586
 H1117 H 0.28512 0.28602 0.23175
 H1118 H 0.22850 0.30111 0.20619
 H1119 H 0.19925 0.28573 0.20220
 H1120 H 0.17009 0.23446 0.22671
 H1121 H 0.29780 0.25777 0.25232
 H1122 H 0.26843 0.20445 0.27714
 H1123 H 0.23793 0.19154 0.27636
 H1124 H 0.18055 0.20701 0.24938
 H1125 H 0.28307 0.28338 0.26162
 H1126 H 0.22546 0.28375 0.29157
 H1127 H 0.24110 0.20870 0.18886
 H1128 H 0.18412 0.20829 0.21928
 Zr1129 Zr 0.74462 0.73279 0.26876
 O1130 O 0.75133 0.71572 0.29056
 O1131 O 0.71650 0.73613 0.27189
 O1132 O 0.74085 0.74603 0.29322
 O1133 O 0.74193 0.69795 0.23814
 O1134 O 0.75610 0.77301 0.28989
 O1135 O 0.73353 0.70632 0.26596
 O1136 O 0.70858 0.75574 0.24952
 O1137 O 0.74108 0.76023 0.26190
 O1138 O 0.73534 0.73324 0.24248
 O1139 O 0.77031 0.74509 0.27241
 O1140 O 0.76453 0.71895 0.25412
 Zr1141 Zr 0.77781 0.76028 0.22314
 Zr1142 Zr 0.76696 0.77217 0.26423
 Zr1143 Zr 0.75551 0.72087 0.22770
 Zr1144 Zr 0.73279 0.76049 0.23539
 O1145 O 0.77134 0.69734 0.22360
 O1146 O 0.72274 0.78620 0.24305
 O1147 O 0.75208 0.74793 0.21923
 O1148 O 0.75792 0.77382 0.23787
 O1149 O 0.78737 0.75995 0.24937
 O1150 O 0.78117 0.73291 0.23015
 C1151 C 0.70495 0.74575 0.26309
 C1152 C 0.73416 0.69497 0.25307
 C1153 C 0.74650 0.76159 0.29885
 O1154 O 0.75236 0.79673 0.26669
 O1155 O 0.78308 0.79389 0.25481
 O1156 O 0.79049 0.78593 0.22660
 C1157 C 0.79092 0.79681 0.23989
 O1158 O 0.79040 0.71399 0.27821
 Zr1159 Zr 0.78968 0.73258 0.25650
 O1160 O 0.80591 0.75694 0.21999
 O1161 O 0.78816 0.77709 0.28279
 O1162 O 0.80784 0.74358 0.27569
 O1163 O 0.80140 0.70772 0.24846
 O1164 O 0.81424 0.73911 0.24361
 C1165 C 0.81772 0.74854 0.22962
 O1166 O 0.77145 0.77851 0.20213
 O1167 O 0.73322 0.71471 0.21076
 O1168 O 0.77969 0.74797 0.19797
 O1169 O 0.76366 0.72142 0.20110
 O1170 O 0.71330 0.74968 0.21736
 O1171 O 0.73154 0.77682 0.21204
 C1172 C 0.77291 0.73298 0.19200
 H1173 H 0.72362 0.72676 0.24076
 H1174 H 0.75663 0.78661 0.23389
 H1175 H 0.79004 0.72661 0.22260
 H1176 H 0.77431 0.74427 0.28495
 H1177 H 0.70987 0.78691 0.23905
 H1178 H 0.75879 0.80402 0.27582
 H1179 H 0.78610 0.78937 0.28768
 H1180 H 0.81929 0.73654 0.27521
 H1181 H 0.70222 0.75726 0.21807
 H1182 H 0.73549 0.70248 0.20582
 H1183 H 0.76481 0.69000 0.21458
 H1184 H 0.81412 0.70754 0.25296
 H1185 H 0.71934 0.78240 0.21097
 H1186 H 0.78288 0.78090 0.19558
 H1187 H 0.73987 0.71307 0.29697
 H1188 H 0.80320 0.71087 0.28106
 Zr1189 Zr 0.75711 0.27712 0.77995
 O1190 O 0.74572 0.29555 0.79811
 O1191 O 0.78413 0.27549 0.78906
 O1192 O 0.75683 0.26620 0.80595
 O1193 O 0.76399 0.30939 0.74687
 O1194 O 0.74392 0.23807 0.80252
 O1195 O 0.76757 0.30381 0.77652
 O1196 O 0.79673 0.25451 0.77078
 O1197 O 0.76306 0.24952 0.77665
 O1198 O 0.77108 0.27516 0.75604
 O1199 O 0.73180 0.26353 0.77998
 O1200 O 0.73961 0.28846 0.76047
 Zr1201 Zr 0.73416 0.24408 0.73190
 Zr1202 Zr 0.73784 0.23618 0.77533
 Zr1203 Zr 0.75338 0.28501 0.73650
 Zr1204 Zr 0.77610 0.24770 0.75232
 O1205 O 0.73761 0.30725 0.72736
 O1206 O 0.78574 0.22310 0.76380
 O1207 O 0.75956 0.25768 0.73157
 O1208 O 0.75162 0.23303 0.75141
 O1209 O 0.71998 0.24588 0.75574
 O1210 O 0.72829 0.27162 0.73539
 C1211 C 0.79734 0.26555 0.78389
 C1212 C 0.76886 0.31400 0.76260
 C1213 C 0.75109 0.25075 0.81194
 O1214 O 0.75286 0.21288 0.78297
 O1215 O 0.72473 0.21282 0.76529
 O1216 O 0.72242 0.21798 0.73547
 C1217 C 0.71998 0.20822 0.74951
 O1218 O 0.70968 0.29382 0.77858
 Zr1219 Zr 0.71512 0.27349 0.75952
 O1220 O 0.70695 0.24500 0.72344
 O1221 O 0.71387 0.23140 0.79002
 O1222 O 0.69438 0.26316 0.77623
 O1223 O 0.70379 0.29665 0.74672
 O1224 O 0.69364 0.26403 0.74320
 C1225 C 0.69317 0.25317 0.72995
 O1226 O 0.74533 0.22496 0.71428
 O1227 O 0.77800 0.29095 0.72328
 O1228 O 0.73569 0.25444 0.70571
 O1229 O 0.74975 0.28204 0.70901
 O1230 O 0.79827 0.25851 0.73775
 O1231 O 0.78244 0.23009 0.73109
 C1232 C 0.74250 0.26940 0.69960
 H1233 H 0.78265 0.28212 0.75600
 H1234 H 0.75421 0.22009 0.74904
 H1235 H 0.72056 0.27670 0.72577
 H1236 H 0.72555 0.26509 0.79142
 H1237 H 0.79914 0.22295 0.76242
 H1238 H 0.74522 0.20594 0.79143
 H1239 H 0.71562 0.21975 0.79650
 H1240 H 0.68289 0.26935 0.77286
 H1241 H 0.80931 0.25171 0.74142
 H1242 H 0.77615 0.30256 0.71676
 H1243 H 0.74530 0.31422 0.71896
 H1244 H 0.69048 0.29630 0.74872
 H1245 H 0.79496 0.22541 0.73271
 H1246 H 0.73543 0.22121 0.70602
 H1247 H 0.75564 0.29939 0.80631
 H1248 H 0.69647 0.29644 0.77860
 C1249 C 0.40812 1.00921 0.28941
 C1250 C 0.41733 1.00844 0.30272
 C1251 C 0.42812 1.00671 0.31869
 C1252 C 0.44051 0.99240 0.32052
 C1253 C 0.45017 0.98992 0.33641
 C1254 C 0.44755 1.00172 0.35072
 C1255 C 0.43529 1.01626 0.34864
 C1256 C 0.42563 1.01871 0.33274
 C1257 C 0.45699 0.99850 0.36798
 C1258 C 0.46363 1.01318 0.37804
 C1259 C 0.47135 1.01020 0.39482
 C1260 C 0.47259 0.99253 0.40178
 C1261 C 0.46643 0.97779 0.39170
 C1262 C 0.45872 0.98073 0.37490
 C1263 C 0.47861 0.98976 0.41982
 C1264 C 0.48267 0.98788 0.43525
 H1265 H 0.44253 0.98301 0.30974
 H1266 H 0.45965 0.97873 0.33751
 H1267 H 0.43276 1.02543 0.35948
 H1268 H 0.41598 1.02975 0.33152
 H1269 H 0.46270 1.02698 0.37301
 H1270 H 0.47597 1.02173 0.40254
 H1271 H 0.46712 0.96408 0.39702
 H1272 H 0.45353 0.96916 0.36761
 C1273 C -0.09132 0.50993 0.78773
 C1274 C -0.08203 0.50901 0.80098
 C1275 C -0.07120 0.50705 0.81689
 C1276 C -0.05920 0.49242 0.81871
 C1277 C -0.04958 0.48969 0.83458
 C1278 C -0.05185 0.50157 0.84890
 C1279 C -0.06370 0.51645 0.84682
 C1280 C -0.07332 0.51914 0.83093
 C1281 C -0.04256 0.49806 0.86617
 C1282 C -0.03552 0.51253 0.87628
 C1283 C -0.02799 0.50931 0.89309
 C1284 C -0.02732 0.49161 0.90004
 C1285 C -0.03386 0.47706 0.88991
 C1286 C -0.04138 0.48024 0.87308
 C1287 C -0.02151 0.48865 0.91811
 C1288 C -0.01761 0.48664 0.93357
 H1289 H -0.05748 0.48295 0.80794
 H1290 H -0.04042 0.47824 0.83569
 H1291 H -0.06597 0.52569 0.85766
 H1292 H -0.08269 0.53043 0.82973
 H1293 H -0.03601 0.52636 0.87125
 H1294 H -0.02307 0.52069 0.90085
 H1295 H -0.03362 0.46333 0.89522
 H1296 H -0.04689 0.46884 0.86575
 C1297 C 0.08954 0.00261 0.78460
 C1298 C 0.08052 0.00377 0.79780
 C1299 C 0.07011 0.00581 0.81371
 C1300 C 0.06410 0.02306 0.81863
 C1301 C 0.05487 0.02533 0.83457
 C1302 C 0.05154 0.01035 0.84581
 C1303 C 0.05735 -0.00700 0.84058
 C1304 C 0.06660 -0.00924 0.82464
 C1305 C 0.04278 0.01287 0.86327
 C1306 C 0.03020 -0.00000 0.86975
 C1307 C 0.02310 0.00165 0.88677
 C1308 C 0.02842 0.01620 0.89753
 C1309 C 0.04052 0.02936 0.89102
 C1310 C 0.04762 0.02775 0.87399
 C1311 C 0.02297 0.01653 0.91579
 C1312 C 0.01924 0.01592 0.93130
 H1313 H 0.06675 0.03480 0.81027
 H1314 H 0.05040 0.03881 0.83812
 H1315 H 0.05524 -0.01877 0.84905
 H1316 H 0.07129 -0.02263 0.82101
 H1317 H 0.02604 -0.01147 0.86173
 H1318 H 0.01384 -0.00869 0.89171
 H1319 H 0.04492 0.04055 0.89931
 H1320 H 0.05746 0.03775 0.86949
 C1321 C 0.59087 0.50259 0.28467
 C1322 C 0.58175 0.50388 0.29779
 C1323 C 0.57121 0.50605 0.31360
 C1324 C 0.56533 0.52337 0.31846
 C1325 C 0.55594 0.52575 0.33429
 C1326 C 0.55229 0.51081 0.34549
 C1327 C 0.55799 0.49339 0.34033
 C1328 C 0.56740 0.49105 0.32451
 C1329 C 0.54332 0.51342 0.36284
 C1330 C 0.53055 0.50065 0.36915
 C1331 C 0.52330 0.50231 0.38611
 C1332 C 0.52865 0.51676 0.39697
 C1333 C 0.54093 0.52984 0.39061
 C1334 C 0.54818 0.52822 0.37364
 C1335 C 0.52310 0.51704 0.41520
 C1336 C 0.51932 0.51637 0.43071
 H1337 H 0.56821 0.53508 0.31012
 H1338 H 0.55158 0.53928 0.33779
 H1339 H 0.55565 0.48166 0.34878
 H1340 H 0.57198 0.47760 0.32093
 H1341 H 0.52636 0.48924 0.36106
 H1342 H 0.51392 0.49202 0.39094
 H1343 H 0.54536 0.54095 0.39898
 H1344 H 0.55815 0.53815 0.36927
 C1345 C 0.59437 0.50097 0.21912
 C1346 C 0.58722 0.50009 0.20469
 C1347 C 0.57810 0.49895 0.18773
 C1348 C 0.56782 0.48347 0.18346
 C1349 C 0.55849 0.48253 0.16724
 C1350 C 0.55928 0.49710 0.15506
 C1351 C 0.56968 0.51260 0.15947
 C1352 C 0.57901 0.51350 0.17570
 C1353 C 0.54953 0.49607 0.13771
 C1354 C 0.54083 0.51148 0.13046
 C1355 C 0.53253 0.51075 0.11371
 C1356 C 0.53273 0.49462 0.10400
 C1357 C 0.54099 0.47911 0.11127
 C1358 C 0.54929 0.47980 0.12801
 C1359 C 0.52611 0.49447 0.08596
 C1360 C 0.52174 0.49463 0.07051
 H1361 H 0.56691 0.47217 0.19272
 H1362 H 0.55045 0.47051 0.16434
 H1363 H 0.57081 0.52393 0.15029
 H1364 H 0.58690 0.52556 0.17886
 H1365 H 0.54054 0.52413 0.13768
 H1366 H 0.52631 0.52289 0.10818
 H1367 H 0.54145 0.46661 0.10378
 H1368 H 0.55605 0.46777 0.13310
 C1369 C 0.09411 1.00183 0.72017
 C1370 C 0.08697 1.00093 0.70574
 C1371 C 0.07789 0.99980 0.68877
 C1372 C 0.06698 0.98467 0.68476
 C1373 C 0.05773 0.98374 0.66850
 C1374 C 0.05922 0.99798 0.65601
 C1375 C 0.07025 1.01312 0.66017
 C1376 C 0.07950 1.01401 0.67643
 C1377 C 0.04953 0.99698 0.63864
 C1378 C 0.04150 1.01258 0.63104
 C1379 C 0.03325 1.01184 0.61428
 C1380 C 0.03283 0.99550 0.60489
 C1381 C 0.04040 0.97981 0.61250
 C1382 C 0.04865 0.98052 0.62927
 C1383 C 0.02626 0.99523 0.58684
 C1384 C 0.02190 0.99524 0.57138
 H1385 H 0.06553 0.97363 0.69426
 H1386 H 0.04920 0.97200 0.66580
 H1387 H 0.07191 1.02418 0.65075
 H1388 H 0.08787 1.02580 0.67939
 H1389 H 0.04171 1.02539 0.63801
 H1390 H 0.02756 1.02410 0.60848
 H1391 H 0.04037 0.96714 0.60527
 H1392 H 0.05488 0.96832 0.63463
 C1393 C -0.09520 0.51211 0.72216
 C1394 C -0.08821 0.51443 0.70790
 C1395 C -0.07929 0.51737 0.69118
 C1396 C -0.06031 0.51916 0.69067
 C1397 C -0.05151 0.52195 0.67452
 C1398 C -0.06158 0.52302 0.65859
 C1399 C -0.08067 0.52133 0.65926
 C1400 C -0.08945 0.51852 0.67543
 C1401 C -0.05220 0.52545 0.64133
 C1402 C -0.05972 0.53662 0.62794
 C1403 C -0.05148 0.53799 0.61135
 C1404 C -0.03558 0.52827 0.60790
 C1405 C -0.02775 0.51748 0.62126
 C1406 C -0.03596 0.51610 0.63787
 C1407 C -0.02849 0.52782 0.59016
 C1408 C -0.02345 0.52645 0.57506
 H1409 H -0.05230 0.51838 0.70278
 H1410 H -0.03683 0.52340 0.67451
 H1411 H -0.08881 0.52182 0.64723
 H1412 H -0.10414 0.51715 0.67565
 H1413 H -0.07207 0.54418 0.63025
 H1414 H -0.05776 0.54627 0.60107
 H1415 H -0.01560 0.50969 0.61869
 H1416 H -0.02994 0.50721 0.64779
 C1417 C 0.40509 0.01136 0.22381
 C1418 C 0.41228 0.01364 0.20965
 C1419 C 0.42148 0.01653 0.19307
 C1420 C 0.41153 0.01824 0.17724
 C1421 C 0.42058 0.02101 0.16119
 C1422 C 0.43972 0.02211 0.16075
 C1423 C 0.44957 0.02048 0.17676
 C1424 C 0.44051 0.01772 0.19278
 C1425 C 0.44935 0.02448 0.14362
 C1426 C 0.46532 0.01467 0.14019
 C1427 C 0.47371 0.01597 0.12366
 C1428 C 0.46634 0.02717 0.11036
 C1429 C 0.45075 0.03737 0.11380
 C1430 C 0.44233 0.03607 0.13031
 C1431 C 0.47354 0.02667 0.09267
 C1432 C 0.47862 0.02529 0.07758
 H1433 H 0.39681 0.01732 0.17727
 H1434 H 0.41260 0.02194 0.14909
 H1435 H 0.46428 0.02147 0.17692
 H1436 H 0.44835 0.01651 0.20496
 H1437 H 0.47095 0.00546 0.15004
 H1438 H 0.48561 0.00781 0.12108
 H1439 H 0.44482 0.04596 0.10357
 H1440 H 0.43021 0.04400 0.13261
 C1441 C 0.28813 0.38785 -0.00548
 C1442 C 0.30217 0.39640 -0.00412
 C1443 C 0.31923 0.40606 -0.00218
 C1444 C 0.32993 0.40348 0.01309
 C1445 C 0.34679 0.41229 0.01481
 C1446 C 0.35324 0.42384 0.00126
 C1447 C 0.34230 0.42647 -0.01397
 C1448 C 0.32544 0.41763 -0.01567
 C1449 C 0.37142 0.43283 0.00285
 C1450 C 0.37404 0.45082 -0.00316
 C1451 C 0.39126 0.45904 -0.00219
 C1452 C 0.40613 0.44944 0.00481
 C1453 C 0.40362 0.43162 0.01103
 C1454 C 0.38641 0.42337 0.01009
 C1455 C 0.42406 0.45761 0.00476
 C1456 C 0.43901 0.46450 0.00402
 H1457 H 0.32528 0.39457 0.02363
 H1458 H 0.35474 0.41014 0.02679
 H1459 H 0.34695 0.43506 -0.02475
 H1460 H 0.31735 0.41967 -0.02759
 H1461 H 0.36277 0.45857 -0.00858
 H1462 H 0.39301 0.47283 -0.00709
 H1463 H 0.41504 0.42398 0.01634
 H1464 H 0.38493 0.40943 0.01462
 C1465 C -0.21187 0.88759 0.49533
 C1466 C -0.19779 0.89605 0.49679
 C1467 C -0.18068 0.90561 0.49886
 C1468 C -0.16977 0.90239 0.51387
 C1469 C -0.15287 0.91110 0.51571
 C1470 C -0.14659 0.92320 0.50253
 C1471 C -0.15774 0.92646 0.48756
 C1472 C -0.17464 0.91771 0.48574
 C1473 C -0.12839 0.93211 0.50424
 C1474 C -0.12584 0.95034 0.49892
 C1475 C -0.10860 0.95851 0.49997
 C1476 C -0.09364 0.94862 0.50636
 C1477 C -0.09607 0.93055 0.51190
 C1478 C -0.11331 0.92236 0.51088
 C1479 C -0.07569 0.95674 0.50628
 C1480 C -0.06074 0.96362 0.50548
 H1481 H -0.17428 0.89306 0.52413
 H1482 H -0.14476 0.90846 0.52749
 H1483 H -0.15323 0.93549 0.47706
 H1484 H -0.18289 0.92024 0.47402
 H1485 H -0.13718 0.95831 0.49398
 H1486 H -0.10690 0.97248 0.49559
 H1487 H -0.08459 0.92270 0.51673
 H1488 H -0.11474 0.90825 0.51488
 C1489 C -0.21528 0.11318 1.00164
 C1490 C -0.20124 0.10475 1.00125
 C1491 C -0.18408 0.09540 1.00029
 C1492 C -0.17425 0.09577 0.98450
 C1493 C -0.15719 0.08749 0.98365
 C1494 C -0.14968 0.07869 0.99862
 C1495 C -0.15975 0.07824 1.01441
 C1496 C -0.17681 0.08656 1.01523
 C1497 C -0.13135 0.07023 0.99785
 C1498 C -0.12793 0.05350 1.00641
 C1499 C -0.11061 0.04572 1.00595
 C1500 C -0.09644 0.05450 0.99695
 C1501 C -0.09971 0.07110 0.98831
 C1502 C -0.11704 0.07891 0.98873
 C1503 C -0.07852 0.04659 0.99702
 C1504 C -0.06369 0.03960 0.99768
 H1505 H -0.17971 0.10261 0.97285
 H1506 H -0.14991 0.08788 0.97125
 H1507 H -0.15426 0.07179 1.02623
 H1508 H -0.18421 0.08630 1.02757
 H1509 H -0.13868 0.04636 1.01334
 H1510 H -0.10825 0.03286 1.01270
 H1511 H -0.08884 0.07808 0.98139
 H1512 H -0.11915 0.09191 0.98221
 C1513 C 0.28488 0.61323 0.50075
 C1514 C 0.29886 0.60468 0.50048
 C1515 C 0.31597 0.59521 0.49966
 C1516 C 0.32346 0.58701 0.51484
 C1517 C 0.34052 0.57867 0.51413
 C1518 C 0.35037 0.57847 0.49822
 C1519 C 0.34263 0.58661 0.48300
 C1520 C 0.32557 0.59492 0.48374
 C1521 C 0.36873 0.57004 0.49755
 C1522 C 0.38286 0.57834 0.48786
 C1523 C 0.40019 0.57054 0.48747
 C1524 C 0.40365 0.55432 0.49672
 C1525 C 0.38966 0.54592 0.50630
 C1526 C 0.37234 0.55369 0.50673
 C1527 C 0.42157 0.54640 0.49676
 C1528 C 0.43641 0.53942 0.49737
 H1529 H 0.31623 0.58727 0.52727
 H1530 H 0.34618 0.57273 0.52613
 H1531 H 0.34973 0.58649 0.47050
 H1532 H 0.31994 0.60126 0.47191
 H1533 H 0.38061 0.59105 0.48084
 H1534 H 0.41092 0.57723 0.48008
 H1535 H 0.39217 0.53336 0.51351
 H1536 H 0.36173 0.54683 0.51411
 C1537 C 0.21706 0.61800 0.50114
 C1538 C 0.20175 0.61210 0.50256
 C1539 C 0.18352 0.60492 0.50440
 C1540 C 0.16853 0.61661 0.50398
 C1541 C 0.15085 0.60961 0.50575
 C1542 C 0.14791 0.59079 0.50801
 C1543 C 0.16309 0.57918 0.50847
 C1544 C 0.18073 0.58620 0.50667
 C1545 C 0.12911 0.58324 0.50958
 C1546 C 0.12540 0.56876 0.52136
 C1547 C 0.10793 0.56112 0.52224
 C1548 C 0.09388 0.56783 0.51141
 C1549 C 0.09735 0.58243 0.49987
 C1550 C 0.11481 0.59010 0.49897
 C1551 C 0.07627 0.55899 0.51129
 C1552 C 0.06179 0.55114 0.51060
 H1553 H 0.17050 0.63114 0.50230
 H1554 H 0.13951 0.61895 0.50555
 H1555 H 0.16131 0.56461 0.50991
 H1556 H 0.19220 0.57700 0.50700
 H1557 H 0.13602 0.56333 0.52989
 H1558 H 0.10545 0.54979 0.53119
 H1559 H 0.08664 0.58764 0.49130
 H1560 H 0.11722 0.60107 0.48961
 C1561 C 0.71815 0.11856 0.00195
 C1562 C 0.70296 0.11240 0.00361
 C1563 C 0.68488 0.10493 0.00569
 C1564 C 0.66982 0.11646 0.00668
 C1565 C 0.65229 0.10919 0.00866
 C1566 C 0.64955 0.09023 0.00970
 C1567 C 0.66479 0.07877 0.00874
 C1568 C 0.68230 0.08608 0.00675
 C1569 C 0.63089 0.08240 0.01148
 C1570 C 0.62775 0.06707 0.02237
 C1571 C 0.61038 0.05922 0.02340
 C1572 C 0.59586 0.06657 0.01362
 C1573 C 0.59876 0.08200 0.00299
 C1574 C 0.61612 0.08988 0.00195
 C1575 C 0.57830 0.05763 0.01360
 C1576 C 0.56383 0.04975 0.01297
 H1577 H 0.67163 0.13109 0.00594
 H1578 H 0.64089 0.11840 0.00956
 H1579 H 0.66316 0.06413 0.00922
 H1580 H 0.69382 0.07700 0.00596
 H1581 H 0.63875 0.06113 0.03008
 H1582 H 0.60834 0.04726 0.03164
 H1583 H 0.58767 0.08773 -0.00477
 H1584 H 0.61808 0.10152 -0.00672
 C1585 C 0.72016 0.88430 0.49256
 C1586 C 0.70490 0.89036 0.49232
 C1587 C 0.68663 0.89750 0.49211
 C1588 C 0.68376 0.91621 0.49375
 C1589 C 0.66604 0.92312 0.49375
 C1590 C 0.65089 0.91140 0.49212
 C1591 C 0.65394 0.89261 0.49040
 C1592 C 0.67167 0.88573 0.49039
 C1593 C 0.63202 0.91872 0.49251
 C1594 C 0.61820 0.90940 0.50174
 C1595 C 0.60063 0.91659 0.50261
 C1596 C 0.59657 0.93316 0.49424
 C1597 C 0.61015 0.94242 0.48484
 C1598 C 0.62774 0.93527 0.48396
 C1599 C 0.57874 0.94108 0.49600
 C1600 C 0.56402 0.94799 0.49794
 H1601 H 0.69521 0.92546 0.49515
 H1602 H 0.66419 0.93761 0.49535
 H1603 H 0.64262 0.88323 0.48890
 H1604 H 0.67371 0.87122 0.48906
 H1605 H 0.62108 0.89676 0.50866
 H1606 H 0.59029 0.90935 0.51004
 H1607 H 0.60720 0.95528 0.47833
 H1608 H 0.63797 0.94266 0.47655
 C1609 C 0.22017 0.38427 0.99235
 C1610 C 0.20490 0.39029 0.99214
 C1611 C 0.18664 0.39745 0.99193
 C1612 C 0.17223 0.38720 0.98484
 C1613 C 0.15450 0.39409 0.98474
 C1614 C 0.15091 0.41139 0.99173
 C1615 C 0.16551 0.42159 0.99881
 C1616 C 0.18322 0.41466 0.99890
 C1617 C 0.13205 0.41872 0.99180
 C1618 C 0.12883 0.43725 0.98818
 C1619 C 0.11119 0.44428 0.98884
 C1620 C 0.09647 0.43292 0.99308
 C1621 C 0.09947 0.41442 0.99647
 C1622 C 0.11712 0.40735 0.99581
 C1623 C 0.07847 0.44048 0.99474
 C1624 C 0.06364 0.44716 0.99661
 H1625 H 0.17470 0.37387 0.97937
 H1626 H 0.14363 0.38598 0.97901
 H1627 H 0.16320 0.43482 1.00454
 H1628 H 0.19423 0.42271 1.00450
 H1629 H 0.13996 0.44632 0.98480
 H1630 H 0.10906 0.45862 0.98621
 H1631 H 0.08823 0.40551 0.99990
 H1632 H 0.11913 0.39309 0.99887
 C1633 C -0.00984 0.28488 0.41550
 C1634 C -0.01078 0.29719 0.42580
 C1635 C -0.01141 0.31263 0.43721
 C1636 C -0.02608 0.32461 0.43595
 C1637 C -0.02551 0.34106 0.44501
 C1638 C -0.01019 0.34572 0.45537
 C1639 C 0.00414 0.33322 0.45718
 C1640 C 0.00354 0.31677 0.44810
 C1641 C -0.00855 0.36415 0.46295
 C1642 C 0.00795 0.37387 0.46158
 C1643 C 0.00913 0.39186 0.46722
 C1644 C -0.00613 0.40032 0.47428
 C1645 C -0.02247 0.39065 0.47610
 C1646 C -0.02369 0.37264 0.47047
 C1647 C -0.00519 0.41910 0.47911
 C1648 C -0.00459 0.43489 0.48306
 H1649 H -0.03762 0.32157 0.42739
 H1650 H -0.03664 0.35052 0.44319
 H1651 H 0.01599 0.33639 0.46525
 H1652 H 0.01500 0.30759 0.44906
 H1653 H 0.01974 0.36778 0.45558
 H1654 H 0.02181 0.39929 0.46572
 H1655 H -0.03434 0.39712 0.48161
 H1656 H -0.03650 0.36542 0.47181
 C1657 C 0.48956 -0.21587 -0.08221
 C1658 C 0.48852 -0.20370 -0.07175
 C1659 C 0.48785 -0.18834 -0.06025
 C1660 C 0.50263 -0.18444 -0.04907
 C1661 C 0.50334 -0.16797 -0.04002
 C1662 C 0.48930 -0.15519 -0.04218
 C1663 C 0.47410 -0.15962 -0.05281
 C1664 C 0.47342 -0.17610 -0.06183
 C1665 C 0.49117 -0.13674 -0.03470
 C1666 C 0.47604 -0.12786 -0.02756
 C1667 C 0.47751 -0.10983 -0.02207
 C1668 C 0.49408 -0.10051 -0.02365
 C1669 C 0.50930 -0.10934 -0.03034
 C1670 C 0.50787 -0.12737 -0.03584
 C1671 C 0.49532 -0.08171 -0.01890
 C1672 C 0.49619 -0.06593 -0.01496
 H1673 H 0.51391 -0.19382 -0.04787
 H1674 H 0.51509 -0.16498 -0.03175
 H1675 H 0.46321 -0.14995 -0.05490
 H1676 H 0.46203 -0.17893 -0.07063
 H1677 H 0.46306 -0.13482 -0.02641
 H1678 H 0.46567 -0.10307 -0.01684
 H1679 H 0.52217 -0.10219 -0.03164
 H1680 H 0.51966 -0.13375 -0.04156
 C1681 C 0.00572 -0.22748 1.08383
 C1682 C 0.00706 -0.21455 1.07411
 C1683 C 0.00870 -0.19814 1.06392
 C1684 C -0.00696 -0.18958 1.05738
 C1685 C -0.00582 -0.17200 1.05037
 C1686 C 0.01101 -0.16279 1.04995
 C1687 C 0.02680 -0.17185 1.05574
 C1688 C 0.02563 -0.18944 1.06273
 C1689 C 0.01178 -0.14336 1.04486
 C1690 C 0.02208 -0.13104 1.05508
 C1691 C 0.02174 -0.11246 1.05116
 C1692 C 0.01112 -0.10604 1.03701
 C1693 C 0.00108 -0.11821 1.02658
 C1694 C 0.00139 -0.13679 1.03048
 C1695 C 0.01032 -0.08697 1.03317
 C1696 C 0.00933 -0.07112 1.02934
 H1697 H -0.02015 -0.19615 1.05849
 H1698 H -0.01823 -0.16527 1.04619
 H1699 H 0.03995 -0.16512 1.05536
 H1700 H 0.03780 -0.19593 1.06791
 H1701 H 0.02996 -0.13570 1.06641
 H1702 H 0.02954 -0.10310 1.05930
 H1703 H -0.00710 -0.11332 1.01553
 H1704 H -0.00655 -0.14600 1.02232
 C1705 C 0.50748 0.27323 0.58327
 C1706 C 0.50907 0.28581 0.57315
 C1707 C 0.51090 0.30190 0.56252
 C1708 C 0.52783 0.31064 0.56149
 C1709 C 0.52906 0.32812 0.55425
 C1710 C 0.51334 0.33704 0.54806
 C1711 C 0.49655 0.32774 0.54827
 C1712 C 0.49534 0.31027 0.55553
 C1713 C 0.51405 0.35647 0.54297
 C1714 C 0.50377 0.36299 0.52849
 C1715 C 0.50318 0.38158 0.52474
 C1716 C 0.51283 0.39384 0.53542
 C1717 C 0.52340 0.38748 0.54963
 C1718 C 0.52402 0.36888 0.55340
 C1719 C 0.51165 0.41294 0.53180
 C1720 C 0.51035 0.42881 0.52818
 H1721 H 0.53991 0.30429 0.56703
 H1722 H 0.54218 0.33491 0.55405
 H1723 H 0.48419 0.33437 0.54380
 H1724 H 0.48215 0.30369 0.55652
 H1725 H 0.49608 0.35371 0.52018
 H1726 H 0.49504 0.38643 0.51364
 H1727 H 0.53091 0.39690 0.55795
 H1728 H 0.53181 0.36426 0.56481
 C1729 C 0.49831 1.20819 0.59941
 C1730 C 0.49695 1.19217 0.59668
 C1731 C 0.49575 1.17304 0.59339
 C1732 C 0.47897 1.16402 0.59437
 C1733 C 0.47781 1.14549 0.59060
 C1734 C 0.49346 1.13582 0.58582
 C1735 C 0.51030 1.14497 0.58518
 C1736 C 0.51142 1.16348 0.58895
 C1737 C 0.49215 1.11654 0.58051
 C1738 C 0.50580 1.10412 0.58551
 C1739 C 0.50554 1.08644 0.57892
 C1740 C 0.49161 1.08100 0.56734
 C1741 C 0.47763 1.09304 0.56279
 C1742 C 0.47786 1.11072 0.56935
 C1743 C 0.49242 1.06365 0.55890
 C1744 C 0.49322 1.04951 0.55110
 H1745 H 0.46678 1.17135 0.59787
 H1746 H 0.46470 1.13873 0.59134
 H1747 H 0.52252 1.13795 0.58126
 H1748 H 0.52446 1.17040 0.58814
 H1749 H 0.51684 1.10820 0.59425
 H1750 H 0.51644 1.07719 0.58246
 H1751 H 0.46687 1.08895 0.55370
 H1752 H 0.46731 1.12005 0.56509
 C1753 C -0.00342 0.70697 1.09793
 C1754 C -0.00498 0.69104 1.09484
 C1755 C -0.00634 0.67199 1.09125
 C1756 C 0.00942 0.66216 1.08772
 C1757 C 0.00822 0.64369 1.08385
 C1758 C -0.00880 0.63483 1.08347
 C1759 C -0.02456 0.64478 1.08729
 C1760 C -0.02332 0.66328 1.09117
 C1761 C -0.01007 0.61556 1.07817
 C1762 C -0.02369 0.60990 1.06618
 C1763 C -0.02375 0.59220 1.05969
 C1764 C -0.01027 0.57997 1.06514
 C1765 C 0.00295 0.58525 1.07755
 C1766 C 0.00304 0.60295 1.08408
 C1767 C -0.00916 0.56258 1.05685
 C1768 C -0.00812 0.54839 1.04916
 H1769 H 0.02262 0.66883 1.08776
 H1770 H 0.02055 0.63645 1.08067
 H1771 H -0.03781 0.63824 1.08723
 H1772 H -0.03558 0.67081 1.09399
 H1773 H -0.03380 0.61938 1.06123
 H1774 H -0.03395 0.58823 1.04997
 H1775 H 0.01346 0.57585 1.08181
 H1776 H 0.01353 0.60690 1.09348
 C1777 C 0.49826 0.72075 -0.09867
 C1778 C 0.50143 0.70504 -0.09543
 C1779 C 0.50515 0.68635 -0.09135
 C1780 C 0.52282 0.68100 -0.08673
 C1781 C 0.52625 0.66297 -0.08184
 C1782 C 0.51199 0.65012 -0.08152
 C1783 C 0.49435 0.65557 -0.08658
 C1784 C 0.49096 0.67359 -0.09145
 C1785 C 0.51519 0.63139 -0.07491
 C1786 C 0.50649 0.61647 -0.08300
 C1787 C 0.50803 0.59906 -0.07562
 C1788 C 0.51832 0.59639 -0.06013
 C1789 C 0.52752 0.61102 -0.05234
 C1790 C 0.52601 0.62843 -0.05970
 C1791 C 0.51810 0.57903 -0.05135
 C1792 C 0.51728 0.56477 -0.04348
 H1793 H 0.53389 0.69081 -0.08666
 H1794 H 0.53999 0.65910 -0.07817
 H1795 H 0.48306 0.64604 -0.08619
 H1796 H 0.47723 0.67765 -0.09497
 H1797 H 0.49825 0.61834 -0.09484
 H1798 H 0.50080 0.58780 -0.08169
 H1799 H 0.53538 0.60908 -0.04025
 H1800 H 0.53265 0.63968 -0.05304
 C1801 C 0.00051 1.21992 0.40169
 C1802 C 0.00397 1.20436 0.40531
 C1803 C 0.00800 1.18584 0.40988
 C1804 C 0.01535 1.18171 0.42657
 C1805 C 0.01851 1.16364 0.43142
 C1806 C 0.01433 1.14948 0.41961
 C1807 C 0.00727 1.15381 0.40272
 C1808 C 0.00412 1.17191 0.39789
 C1809 C 0.01632 1.13030 0.42538
 C1810 C 0.00255 1.11752 0.42148
 C1811 C 0.00344 1.09991 0.42846
 C1812 C 0.01810 1.09485 0.43934
 C1813 C 0.03219 1.10725 0.44279
 C1814 C 0.03133 1.12488 0.43582
 C1815 C 0.01783 1.07754 0.44822
 C1816 C 0.01703 1.06336 0.45622
 H1817 H 0.01834 1.19242 0.43595
 H1818 H 0.02367 1.16072 0.44462
 H1819 H 0.00409 1.14319 0.39331
 H1820 H -0.00154 1.17502 0.38491
 H1821 H -0.00929 1.12137 0.41370
 H1822 H -0.00760 1.09043 0.42586
 H1823 H 0.04356 1.10345 0.45126
 H1824 H 0.04223 1.13437 0.43885
 C1825 C 0.75975 0.65912 0.96153
 C1826 C 0.75894 0.66847 0.94834
 C1827 C 0.75712 0.67942 0.93251
 C1828 C 0.76908 0.67712 0.91840
 C1829 C 0.76652 0.68690 0.90260
 C1830 C 0.75190 0.69909 0.90068
 C1831 C 0.74015 0.70154 0.91506
 C1832 C 0.74275 0.69176 0.93085
 C1833 C 0.74849 0.70856 0.88349
 C1834 C 0.73065 0.71015 0.87666
 C1835 C 0.72755 0.71780 0.85987
 C1836 C 0.74219 0.72404 0.84973
 C1837 C 0.75992 0.72298 0.85661
 C1838 C 0.76306 0.71532 0.87338
 C1839 C 0.73926 0.72990 0.83167
 C1840 C 0.73726 0.73380 0.81622
 H1841 H 0.78017 0.66751 0.91948
 H1842 H 0.77565 0.68450 0.89171
 H1843 H 0.72890 0.71095 0.91407
 H1844 H 0.73339 0.69363 0.94167
 H1845 H 0.71916 0.70486 0.88399
 H1846 H 0.71378 0.71834 0.85461
 H1847 H 0.77137 0.72766 0.84883
 H1848 H 0.77692 0.71450 0.87835
 C1849 C 0.25975 0.15854 0.46097
 C1850 C 0.25892 0.16782 0.44772
 C1851 C 0.25705 0.17869 0.43185
 C1852 C 0.24245 0.19074 0.43004
 C1853 C 0.23978 0.20043 0.41422
 C1854 C 0.25169 0.19818 0.39993
 C1855 C 0.26655 0.18630 0.40200
 C1856 C 0.26917 0.17660 0.41784
 C1857 C 0.24823 0.20757 0.38270
 C1858 C 0.26275 0.21461 0.37268
 C1859 C 0.25958 0.22224 0.35591
 C1860 C 0.24187 0.22300 0.34892
 C1861 C 0.22728 0.21646 0.35897
 C1862 C 0.23042 0.20884 0.37576
 C1863 C 0.23896 0.22889 0.33087
 C1864 C 0.23702 0.23282 0.31542
 H1865 H 0.23295 0.19246 0.44079
 H1866 H 0.22836 0.20962 0.41312
 H1867 H 0.27582 0.18406 0.39118
 H1868 H 0.28045 0.16722 0.41904
 H1869 H 0.27658 0.21404 0.37774
 H1870 H 0.27099 0.22715 0.34822
 H1871 H 0.21354 0.21677 0.35362
 H1872 H 0.21897 0.20333 0.38301
 C1873 C 0.75154 0.33751 0.46697
 C1874 C 0.75253 0.32838 0.45382
 C1875 C 0.75433 0.31787 0.43794
 C1876 C 0.77133 0.31088 0.43340
 C1877 C 0.77345 0.30162 0.41745
 C1878 C 0.75856 0.29923 0.40582
 C1879 C 0.74145 0.30601 0.41066
 C1880 C 0.73937 0.31529 0.42661
 C1881 C 0.76101 0.29046 0.38834
 C1882 C 0.74758 0.27870 0.38142
 C1883 C 0.74923 0.27164 0.36438
 C1884 C 0.76432 0.27619 0.35403
 C1885 C 0.77801 0.28744 0.36098
 C1886 C 0.77641 0.29449 0.37804
 C1887 C 0.76478 0.27086 0.33573
 C1888 C 0.76436 0.26727 0.32017
 H1889 H 0.78301 0.31281 0.44207
 H1890 H 0.78674 0.29639 0.41419
 H1891 H 0.72979 0.30464 0.40188
 H1892 H 0.72618 0.32075 0.42993
 H1893 H 0.73568 0.27517 0.38911
 H1894 H 0.73848 0.26304 0.35909
 H1895 H 0.78965 0.29122 0.35302
 H1896 H 0.78686 0.30369 0.38287
 C1897 C 0.25227 0.83954 0.96543
 C1898 C 0.25341 0.83068 0.95212
 C1899 C 0.25540 0.82047 0.93607
 C1900 C 0.24034 0.81725 0.92503
 C1901 C 0.24252 0.80820 0.90897
 C1902 C 0.25984 0.80228 0.90373
 C1903 C 0.27484 0.80535 0.91506
 C1904 C 0.27262 0.81438 0.93111
 C1905 C 0.26231 0.79365 0.88618
 C1906 C 0.27728 0.79839 0.87557
 C1907 C 0.27888 0.79136 0.85850
 C1908 C 0.26561 0.77944 0.85184
 C1909 C 0.25095 0.77424 0.86249
 C1910 C 0.24931 0.78126 0.87955
 C1911 C 0.26600 0.77400 0.83357
 C1912 C 0.26548 0.77025 0.81805
 H1913 H 0.22697 0.82201 0.92868
 H1914 H 0.23074 0.80630 0.90043
 H1915 H 0.28830 0.80079 0.91149
 H1916 H 0.28438 0.81682 0.93956
 H1917 H 0.28739 0.80807 0.88019
 H1918 H 0.29017 0.79566 0.85030
 H1919 H 0.24053 0.76510 0.85744
 H1920 H 0.23776 0.77718 0.88748
 C1921 C 0.25091 0.84362 0.02990
 C1922 C 0.24986 0.83638 0.04426
 C1923 C 0.24858 0.82717 0.06114
 C1924 C 0.23899 0.83501 0.07504
 C1925 C 0.23753 0.82587 0.09130
 C1926 C 0.24564 0.80873 0.09390
 C1927 C 0.25524 0.80097 0.07983
 C1928 C 0.25667 0.81013 0.06358
 C1929 C 0.24435 0.79917 0.11130
 C1930 C 0.25951 0.78999 0.11853
 C1931 C 0.25860 0.78184 0.13532
 C1932 C 0.24253 0.78264 0.14509
 C1933 C 0.22726 0.79137 0.13785
 C1934 C 0.22814 0.79955 0.12107
 C1935 C 0.24227 0.77611 0.16315
 C1936 C 0.24240 0.77177 0.17860
 H1937 H 0.23266 0.84819 0.07331
 H1938 H 0.23028 0.83236 0.10193
 H1939 H 0.26146 0.78773 0.08132
 H1940 H 0.26404 0.80387 0.05289
 H1941 H 0.27226 0.78964 0.11147
 H1942 H 0.27059 0.77533 0.14086
 H1943 H 0.21479 0.79221 0.14533
 H1944 H 0.21616 0.80627 0.11579
 C1945 C 0.75046 0.34289 0.53135
 C1946 C 0.74927 0.33596 0.54585
 C1947 C 0.74777 0.32715 0.56291
 C1948 C 0.73147 0.31857 0.56774
 C1949 C 0.73014 0.30955 0.58408
 C1950 C 0.74513 0.30894 0.59582
 C1951 C 0.76146 0.31764 0.59084
 C1952 C 0.76275 0.32665 0.57450
 C1953 C 0.74370 0.29955 0.61330
 C1954 C 0.75836 0.28937 0.62018
 C1955 C 0.75738 0.28139 0.63704
 C1956 C 0.74172 0.28340 0.64724
 C1957 C 0.72690 0.29314 0.64035
 C1958 C 0.72785 0.30113 0.62349
 C1959 C 0.74152 0.27703 0.66536
 C1960 C 0.74173 0.27280 0.68084
 H1961 H 0.71982 0.31874 0.55882
 H1962 H 0.71746 0.30283 0.58741
 H1963 H 0.77316 0.31768 0.59967
 H1964 H 0.77545 0.33322 0.57090
 H1965 H 0.77065 0.28767 0.61258
 H1966 H 0.76898 0.27399 0.64227
 H1967 H 0.71479 0.29499 0.64820
 H1968 H 0.71641 0.30904 0.61869
 C1969 C 0.26143 0.15529 0.52655
 C1970 C 0.26354 0.16246 0.54075
 C1971 C 0.26623 0.17164 0.55739
 C1972 C 0.26620 0.19067 0.55788
 C1973 C 0.26880 0.19972 0.57394
 C1974 C 0.27151 0.18985 0.58979
 C1975 C 0.27163 0.17070 0.58914
 C1976 C 0.26901 0.16168 0.57305
 C1977 C 0.27378 0.19943 0.60697
 C1978 C 0.28619 0.19304 0.61989
 C1979 C 0.28751 0.20142 0.63643
 C1980 C 0.27651 0.21633 0.64030
 C1981 C 0.26444 0.22306 0.62739
 C1982 C 0.26311 0.21471 0.61084
 C1983 C 0.27620 0.22345 0.65804
 C1984 C 0.27503 0.22846 0.67317
 H1985 H 0.26416 0.19854 0.54583
 H1986 H 0.26885 0.21445 0.57394
 H1987 H 0.27341 0.16268 0.60112
 H1988 H 0.26906 0.14694 0.57285
 H1989 H 0.29478 0.18147 0.61725
 H1990 H 0.29679 0.19598 0.64636
 H1991 H 0.25567 0.23442 0.63031
 H1992 H 0.25326 0.21983 0.60129
 C1993 C 0.76169 0.65543 0.02708
 C1994 C 0.76385 0.66253 0.04131
 C1995 C 0.76659 0.67167 0.05796
 C1996 C 0.76689 0.69070 0.05845
 C1997 C 0.76956 0.69971 0.07452
 C1998 C 0.77200 0.68981 0.09038
 C1999 C 0.77178 0.67066 0.08975
 C2000 C 0.76909 0.66167 0.07365
 C2001 C 0.77432 0.69937 0.10757
 C2002 C 0.78654 0.69280 0.12057
 C2003 C 0.78789 0.70118 0.13711
 C2004 C 0.77711 0.71628 0.14089
 C2005 C 0.76525 0.72319 0.12790
 C2006 C 0.76388 0.71484 0.11135
 C2007 C 0.77679 0.72341 0.15862
 C2008 C 0.77560 0.72844 0.17374
 H2009 H 0.76507 0.69860 0.04638
 H2010 H 0.76987 0.71444 0.07450
 H2011 H 0.77334 0.66262 0.10174
 H2012 H 0.76888 0.64693 0.07345
 H2013 H 0.79494 0.68108 0.11800
 H2014 H 0.79702 0.69560 0.14709
 H2015 H 0.75665 0.73471 0.13074
 H2016 H 0.75419 0.72011 0.10174
 C2017 C 0.13650 0.53789 0.25545
 C2018 C 0.14476 0.55212 0.25438
 C2019 C 0.15397 0.56947 0.25292
 C2020 C 0.16891 0.57164 0.24170
 C2021 C 0.17733 0.58870 0.23981
 C2022 C 0.17086 0.60386 0.24908
 C2023 C 0.15590 0.60148 0.26041
 C2024 C 0.14754 0.58443 0.26229
 C2025 C 0.17963 0.62209 0.24701
 C2026 C 0.16902 0.63797 0.24633
 C2027 C 0.17727 0.65514 0.24504
 C2028 C 0.19625 0.65672 0.24436
 C2029 C 0.20693 0.64100 0.24475
 C2030 C 0.19870 0.62381 0.24602
 C2031 C 0.20478 0.67448 0.24434
 C2032 C 0.21194 0.68930 0.24505
 H2033 H 0.17395 0.56021 0.23428
 H2034 H 0.18867 0.59009 0.23085
 H2035 H 0.15076 0.61277 0.26795
 H2036 H 0.13598 0.58295 0.27100
 H2037 H 0.15431 0.63714 0.24678
 H2038 H 0.16885 0.66719 0.24480
 H2039 H 0.22164 0.64203 0.24439
 H2040 H 0.20728 0.61190 0.24672
 C2041 C 0.63682 0.03884 0.75759
 C2042 C 0.64504 0.05309 0.75662
 C2043 C 0.65417 0.07049 0.75526
 C2044 C 0.64789 0.08528 0.76498
 C2045 C 0.65613 0.10239 0.76316
 C2046 C 0.67081 0.10501 0.75154
 C2047 C 0.67714 0.09002 0.74193
 C2048 C 0.66885 0.07290 0.74376
 C2049 C 0.67944 0.12330 0.74953
 C2050 C 0.69847 0.12513 0.74818
 C2051 C 0.70659 0.14238 0.74696
 C2052 C 0.69583 0.15805 0.74698
 C2053 C 0.67688 0.15635 0.74802
 C2054 C 0.66874 0.13913 0.74926
 C2055 C 0.70427 0.17584 0.74697
 C2056 C 0.71138 0.19069 0.74766
 H2057 H 0.63653 0.08361 0.77391
 H2058 H 0.65110 0.11355 0.77096
 H2059 H 0.68827 0.09160 0.73274
 H2060 H 0.67376 0.06160 0.73607
 H2061 H 0.70712 0.11326 0.74855
 H2062 H 0.72128 0.14350 0.74632
 H2063 H 0.66840 0.16836 0.74810
 H2064 H 0.65405 0.13821 0.75000
 C2065 C 0.86424 0.03437 0.24918
 C2066 C 0.85571 0.04834 0.24958
 C2067 C 0.84620 0.06540 0.25051
 C2068 C 0.83818 0.07305 0.23531
 C2069 C 0.82970 0.09002 0.23614
 C2070 C 0.82918 0.09962 0.25219
 C2071 C 0.83716 0.09174 0.26742
 C2072 C 0.84560 0.07476 0.26656
 C2073 C 0.82055 0.11786 0.25299
 C2074 C 0.82859 0.13193 0.26299
 C2075 C 0.82064 0.14918 0.26343
 C2076 C 0.80455 0.15262 0.25393
 C2077 C 0.79639 0.13868 0.24406
 C2078 C 0.80431 0.12144 0.24358
 C2079 C 0.79654 0.17048 0.25387
 C2080 C 0.78952 0.18528 0.25323
 H2081 H 0.83868 0.06600 0.22278
 H2082 H 0.82391 0.09581 0.22412
 H2083 H 0.83679 0.09865 0.28001
 H2084 H 0.85179 0.06900 0.27841
 H2085 H 0.84121 0.12970 0.27019
 H2086 H 0.82714 0.15988 0.27104
 H2087 H 0.78393 0.14116 0.23665
 H2088 H 0.79765 0.11086 0.23596
 C2089 C 0.36486 0.53617 0.74806
 C2090 C 0.35663 0.55033 0.74843
 C2091 C 0.34754 0.56762 0.74937
 C2092 C 0.33750 0.57429 0.73489
 C2093 C 0.32935 0.59143 0.73567
 C2094 C 0.33118 0.60218 0.75095
 C2095 C 0.34121 0.59529 0.76547
 C2096 C 0.34931 0.57815 0.76467
 C2097 C 0.32281 0.62055 0.75168
 C2098 C 0.33221 0.63521 0.75955
 C2099 C 0.32442 0.65254 0.75997
 C2100 C 0.30713 0.65546 0.75257
 C2101 C 0.29763 0.64094 0.74483
 C2102 C 0.30539 0.62363 0.74437
 C2103 C 0.29917 0.67335 0.75246
 C2104 C 0.29205 0.68810 0.75176
 H2105 H 0.33614 0.56634 0.72293
 H2106 H 0.32194 0.59643 0.72418
 H2107 H 0.34269 0.60310 0.77750
 H2108 H 0.35708 0.57316 0.77596
 H2109 H 0.34573 0.63336 0.76509
 H2110 H 0.33196 0.66368 0.76591
 H2111 H 0.28423 0.64303 0.73906
 H2112 H 0.29769 0.61261 0.73844
 C2113 C 0.36821 0.46831 0.74790
 C2114 C 0.36206 0.45310 0.74652
 C2115 C 0.35467 0.43496 0.74471
 C2116 C 0.36629 0.42010 0.74273
 C2117 C 0.35910 0.40252 0.74087
 C2118 C 0.34014 0.39955 0.74093
 C2119 C 0.32859 0.41460 0.74290
 C2120 C 0.33580 0.43215 0.74477
 C2121 C 0.33243 0.38085 0.73918
 C2122 C 0.31649 0.37775 0.72910
 C2123 C 0.30883 0.36030 0.72806
 C2124 C 0.31698 0.34567 0.73702
 C2125 C 0.33300 0.34855 0.74684
 C2126 C 0.34069 0.36598 0.74789
 C2127 C 0.30827 0.32801 0.73709
 C2128 C 0.30056 0.31347 0.73778
 H2129 H 0.38091 0.42209 0.74258
 H2130 H 0.36837 0.39128 0.73918
 H2131 H 0.31396 0.41278 0.74328
 H2132 H 0.32666 0.44352 0.74632
 H2133 H 0.30992 0.38882 0.72203
 H2134 H 0.29639 0.35829 0.72047
 H2135 H 0.33935 0.33738 0.75397
 H2136 H 0.35283 0.36791 0.75593
 C2137 C 0.86973 0.96789 0.24855
 C2138 C 0.86355 0.95273 0.24690
 C2139 C 0.85601 0.93468 0.24485
 C2140 C 0.86751 0.91970 0.24302
 C2141 C 0.86016 0.90219 0.24109
 C2142 C 0.84118 0.89941 0.24094
 C2143 C 0.82975 0.91458 0.24274
 C2144 C 0.83712 0.93206 0.24468
 C2145 C 0.83329 0.88078 0.23922
 C2146 C 0.81742 0.87778 0.22902
 C2147 C 0.80955 0.86043 0.22806
 C2148 C 0.81742 0.84578 0.23723
 C2149 C 0.83338 0.84855 0.24716
 C2150 C 0.84129 0.86590 0.24813
 C2151 C 0.80852 0.82822 0.23736
 C2152 C 0.80071 0.81373 0.23810
 H2153 H 0.88215 0.92154 0.24306
 H2154 H 0.86934 0.89085 0.23954
 H2155 H 0.81510 0.91291 0.24296
 H2156 H 0.82807 0.94353 0.24612
 H2157 H 0.81106 0.88887 0.22179
 H2158 H 0.79717 0.85849 0.22036
 H2159 H 0.83953 0.83737 0.25445
 H2160 H 0.85336 0.86775 0.25628
 C2161 C 0.63400 0.97082 0.75880
 C2162 C 0.64010 0.95560 0.75888
 C2163 C 0.64726 0.93735 0.75897
 C2164 C 0.66588 0.93446 0.75649
 C2165 C 0.67281 0.91676 0.75643
 C2166 C 0.66119 0.90165 0.75884
 C2167 C 0.64250 0.90471 0.76138
 C2168 C 0.63561 0.92242 0.76145
 C2169 C 0.66852 0.88280 0.75844
 C2170 C 0.65876 0.86878 0.74991
 C2171 C 0.66593 0.85121 0.74904
 C2172 C 0.68292 0.84735 0.75671
 C2173 C 0.69263 0.86113 0.76541
 C2174 C 0.68550 0.87871 0.76629
 C2175 C 0.69076 0.82950 0.75497
 C2176 C 0.69761 0.81475 0.75308
 H2177 H 0.67504 0.94588 0.75450
 H2178 H 0.68721 0.91489 0.75418
 H2179 H 0.63322 0.89342 0.76350
 H2180 H 0.62118 0.92447 0.76343
 H2181 H 0.64578 0.87149 0.74354
 H2182 H 0.65833 0.84070 0.74216
 H2183 H 0.70581 0.85834 0.77137
 H2184 H 0.69325 0.88910 0.77315
 C2185 C 0.13387 0.46989 0.25722
 C2186 C 0.14004 0.45468 0.25736
 C2187 C 0.14729 0.43647 0.25750
 C2188 C 0.16586 0.43363 0.25466
 C2189 C 0.17287 0.41597 0.25467
 C2190 C 0.16139 0.40083 0.25749
 C2191 C 0.14274 0.40383 0.26039
 C2192 C 0.13577 0.42151 0.26040
 C2193 C 0.16881 0.38201 0.25717
 C2194 C 0.15894 0.36783 0.24902
 C2195 C 0.16618 0.35028 0.24820
 C2196 C 0.18335 0.34660 0.25556
 C2197 C 0.19318 0.36055 0.26388
 C2198 C 0.18597 0.37811 0.26470
 C2199 C 0.19123 0.32876 0.25389
 C2200 C 0.19811 0.31401 0.25206
 H2201 H 0.17491 0.44508 0.25235
 H2202 H 0.18722 0.41414 0.25214
 H2203 H 0.13357 0.39252 0.26283
 H2204 H 0.12138 0.42352 0.26266
 H2205 H 0.14581 0.37039 0.24288
 H2206 H 0.15849 0.33965 0.24160
 H2207 H 0.20650 0.35790 0.26960
 H2208 H 0.19382 0.38863 0.27128
 C2209 C 0.03484 0.23834 0.83369
 C2210 C 0.04735 0.23730 0.82363
 C2211 C 0.06309 0.23664 0.81262
 C2212 C 0.07538 0.22231 0.81462
 C2213 C 0.09209 0.22299 0.80601
 C2214 C 0.09670 0.23810 0.79538
 C2215 C 0.08391 0.25206 0.79284
 C2216 C 0.06720 0.25135 0.80146
 C2217 C 0.11528 0.23990 0.78818
 C2218 C 0.12462 0.25663 0.78927
 C2219 C 0.14265 0.25807 0.78380
 C2220 C 0.15153 0.24285 0.77717
 C2221 C 0.14227 0.22624 0.77571
 C2222 C 0.12423 0.22475 0.78120
 C2223 C 0.17026 0.24418 0.77217
 C2224 C 0.18596 0.24514 0.76794
 H2225 H 0.07236 0.21098 0.82341
 H2226 H 0.10175 0.21216 0.80839
 H2227 H 0.08704 0.26373 0.78454
 H2228 H 0.05779 0.26256 0.79994
 H2229 H 0.11817 0.26844 0.79488
 H2230 H 0.14976 0.27097 0.78500
 H2231 H 0.14906 0.21440 0.77053
 H2232 H 0.11730 0.21176 0.78008
 C2233 C 0.53587 0.73933 0.33573
 C2234 C 0.54845 0.73803 0.32578
 C2235 C 0.56418 0.73707 0.31479
 C2236 C 0.57680 0.72314 0.31756
 C2237 C 0.59340 0.72358 0.30875
 C2238 C 0.59757 0.73803 0.29713
 C2239 C 0.58447 0.75156 0.29387
 C2240 C 0.56787 0.75109 0.30270
 C2241 C 0.61601 0.73969 0.28958
 C2242 C 0.62502 0.75663 0.28947
 C2243 C 0.64295 0.75803 0.28371
 C2244 C 0.65207 0.74255 0.27799
 C2245 C 0.64312 0.72570 0.27770
 C2246 C 0.62517 0.72426 0.28348
 C2247 C 0.67073 0.74388 0.27280
 C2248 C 0.68640 0.74486 0.26847
 H2249 H 0.57410 0.71234 0.32705
 H2250 H 0.60331 0.71311 0.31169
 H2251 H 0.58726 0.76271 0.28482
 H2252 H 0.55820 0.76198 0.30056
 H2253 H 0.61840 0.76868 0.29438
 H2254 H 0.64981 0.77112 0.28399
 H2255 H 0.65009 0.71366 0.27323
 H2256 H 0.61850 0.71109 0.28329
 C2257 C 0.52396 0.25614 0.16143
 C2258 C 0.53714 0.25737 0.17089
 C2259 C 0.55370 0.25888 0.18092
 C2260 C 0.56195 0.24323 0.18780
 C2261 C 0.57946 0.24425 0.19506
 C2262 C 0.58891 0.26094 0.19539
 C2263 C 0.58019 0.27673 0.18911
 C2264 C 0.56267 0.27568 0.18188
 C2265 C 0.60820 0.26159 0.20109
 C2266 C 0.62097 0.27158 0.19115
 C2267 C 0.63941 0.27122 0.19578
 C2268 C 0.64522 0.26088 0.21036
 C2269 C 0.63259 0.25115 0.22050
 C2270 C 0.61416 0.25148 0.21590
 C2271 C 0.66415 0.26005 0.21494
 C2272 C 0.67986 0.25901 0.21936
 H2273 H 0.55517 0.23014 0.18688
 H2274 H 0.58594 0.23184 0.19961
 H2275 H 0.58710 0.28978 0.18941
 H2276 H 0.55641 0.28784 0.17644
 H2277 H 0.61678 0.27926 0.17952
 H2278 H 0.64913 0.27878 0.18786
 H2279 H 0.63701 0.24318 0.23187
 H2280 H 0.60458 0.24380 0.22385
 C2281 C 0.02302 0.75122 0.66220
 C2282 C 0.03624 0.75139 0.67168
 C2283 C 0.05290 0.75184 0.68165
 C2284 C 0.06103 0.76858 0.68560
 C2285 C 0.07872 0.76919 0.69248
 C2286 C 0.08846 0.75302 0.69538
 C2287 C 0.07985 0.73622 0.69214
 C2288 C 0.06216 0.73565 0.68526
 C2289 C 0.10790 0.75373 0.70052
 C2290 C 0.12048 0.74241 0.69212
 C2291 C 0.13895 0.74348 0.69643
 C2292 C 0.14505 0.75588 0.70912
 C2293 C 0.13267 0.76720 0.71758
 C2294 C 0.11416 0.76616 0.71328
 C2295 C 0.16393 0.75648 0.71396
 C2296 C 0.17964 0.75659 0.71849
 H2297 H 0.05402 0.78119 0.68261
 H2298 H 0.08508 0.78231 0.69468
 H2299 H 0.08698 0.72356 0.69450
 H2300 H 0.05600 0.72263 0.68211
 H2301 H 0.11607 0.73294 0.68202
 H2302 H 0.14847 0.73463 0.68987
 H2303 H 0.13730 0.77673 0.72754
 H2304 H 0.10474 0.77495 0.72001
 C2305 C 0.95685 0.74482 0.64932
 C2306 C 0.94098 0.74350 0.65278
 C2307 C 0.92200 0.74253 0.65684
 C2308 C 0.91277 0.75841 0.66123
 C2309 C 0.89436 0.75763 0.66547
 C2310 C 0.88496 0.74091 0.66536
 C2311 C 0.89430 0.72503 0.66072
 C2312 C 0.91275 0.72585 0.65647
 C2313 C 0.86574 0.74004 0.67094
 C2314 C 0.85985 0.72614 0.68247
 C2315 C 0.84223 0.72632 0.68917
 C2316 C 0.83031 0.74033 0.68439
 C2317 C 0.83582 0.75387 0.67245
 C2318 C 0.85344 0.75372 0.66572
 C2319 C 0.81300 0.74154 0.69283
 C2320 C 0.79886 0.74266 0.70059
 H2321 H 0.91986 0.77138 0.66156
 H2322 H 0.88759 0.77002 0.66928
 H2323 H 0.88734 0.71201 0.66039
 H2324 H 0.91982 0.71351 0.65300
 H2325 H 0.86909 0.71558 0.68688
 H2326 H 0.83808 0.71585 0.69852
 H2327 H 0.82666 0.76478 0.66872
 H2328 H 0.85757 0.76446 0.65668
 C2329 C 0.45802 0.24670 0.14915
 C2330 C 0.44220 0.24506 0.15272
 C2331 C 0.42326 0.24364 0.15686
 C2332 C 0.41318 0.25947 0.15934
 C2333 C 0.39481 0.25826 0.16372
 C2334 C 0.38633 0.24118 0.16565
 C2335 C 0.39652 0.22533 0.16289
 C2336 C 0.41491 0.22657 0.15851
 C2337 C 0.36718 0.23999 0.17142
 C2338 C 0.36206 0.22729 0.18450
 C2339 C 0.34443 0.22730 0.19119
 C2340 C 0.33174 0.23993 0.18486
 C2341 C 0.33651 0.25224 0.17145
 C2342 C 0.35414 0.25226 0.16472
 C2343 C 0.31431 0.24107 0.19309
 C2344 C 0.30006 0.24213 0.20065
 H2345 H 0.41957 0.27273 0.15810
 H2346 H 0.38739 0.27068 0.16605
 H2347 H 0.39027 0.21201 0.16415
 H2348 H 0.42264 0.21426 0.15652
 H2349 H 0.37188 0.21786 0.19006
 H2350 H 0.34086 0.21781 0.20167
 H2351 H 0.32674 0.26209 0.16650
 H2352 H 0.35767 0.26204 0.15449
 C2353 C 0.47037 0.74896 0.34786
 C2354 C 0.45473 0.75182 0.34400
 C2355 C 0.43608 0.75519 0.33933
 C2356 C 0.42341 0.74094 0.33975
 C2357 C 0.40538 0.74404 0.33459
 C2358 C 0.39986 0.76144 0.32893
 C2359 C 0.41265 0.77576 0.32884
 C2360 C 0.43067 0.77263 0.33401
 C2361 C 0.38108 0.76435 0.32227
 C2362 C 0.37802 0.77467 0.30677
 C2363 C 0.36052 0.77606 0.29953
 C2364 C 0.34591 0.76724 0.30773
 C2365 C 0.34870 0.75742 0.32346
 C2366 C 0.36620 0.75599 0.33072
 C2367 C 0.32839 0.76704 0.29921
 C2368 C 0.31398 0.76629 0.29158
 H2369 H 0.42751 0.72739 0.34380
 H2370 H 0.39591 0.73270 0.33454
 H2371 H 0.40871 0.78933 0.32471
 H2372 H 0.44041 0.78375 0.33370
 H2373 H 0.38924 0.78104 0.29985
 H2374 H 0.35849 0.78356 0.28726
 H2375 H 0.33745 0.75049 0.32985
 H2376 H 0.36814 0.74815 0.34279
 C2377 C 0.97081 0.24643 0.84819
 C2378 C 0.95516 0.24950 0.84451
 C2379 C 0.93653 0.25319 0.84003
 C2380 C 0.92367 0.23909 0.84023
 C2381 C 0.90566 0.24251 0.83524
 C2382 C 0.90032 0.26010 0.82997
 C2383 C 0.91329 0.27426 0.83011
 C2384 C 0.93130 0.27080 0.83511
 C2385 C 0.88153 0.26339 0.82350
 C2386 C 0.87848 0.27414 0.80827
 C2387 C 0.86095 0.27593 0.80119
 C2388 C 0.84629 0.26708 0.80929
 C2389 C 0.84908 0.25682 0.82475
 C2390 C 0.86661 0.25500 0.83185
 C2391 C 0.82871 0.26727 0.80089
 C2392 C 0.81422 0.26680 0.79335
 H2393 H 0.92763 0.22540 0.84398
 H2394 H 0.89605 0.23129 0.83501
 H2395 H 0.90950 0.28796 0.82629
 H2396 H 0.94117 0.28180 0.83497
 H2397 H 0.88974 0.28054 0.80141
 H2398 H 0.85892 0.28376 0.78912
 H2399 H 0.83780 0.24987 0.83106
 H2400 H 0.86855 0.24682 0.84371
 C2401 C 0.58938 1.00067 0.72934
 C2402 C 0.57924 0.99788 0.71698
 C2403 C 0.56769 0.99542 0.70163
 C2404 C 0.56169 1.01066 0.69205
 C2405 C 0.55178 1.00850 0.67630
 C2406 C 0.54775 0.99101 0.66984
 C2407 C 0.55345 0.97575 0.67980
 C2408 C 0.56338 0.97795 0.69558
 C2409 C 0.53857 0.98880 0.65232
 C2410 C 0.54447 0.97541 0.64050
 C2411 C 0.53689 0.97420 0.62349
 C2412 C 0.52328 0.98631 0.61801
 C2413 C 0.51699 0.99941 0.62979
 C2414 C 0.52456 1.00064 0.64684
 C2415 C 0.51670 0.98589 0.59997
 C2416 C 0.51204 0.98544 0.58460
 H2417 H 0.56506 1.02424 0.69653
 H2418 H 0.54787 1.02052 0.66885
 H2419 H 0.55038 0.96212 0.67532
 H2420 H 0.56798 0.96605 0.70286
 H2421 H 0.55541 0.96627 0.64416
 H2422 H 0.54196 0.96408 0.61445
 H2423 H 0.50649 1.00888 0.62570
 H2424 H 0.51956 1.01096 0.65568
 C2425 C 0.08933 0.49914 1.22743
 C2426 C 0.07931 0.49596 1.21507
 C2427 C 0.06787 0.49289 1.19974
 C2428 C 0.07225 0.47927 1.18769
 C2429 C 0.06224 0.47743 1.17194
 C2430 C 0.04772 0.48925 1.16797
 C2431 C 0.04313 0.50260 1.18039
 C2432 C 0.05315 0.50441 1.19614
 C2433 C 0.03808 0.48824 1.15057
 C2434 C 0.03351 0.50425 1.14121
 C2435 C 0.02570 0.50335 1.12426
 C2436 C 0.02227 0.48647 1.11643
 C2437 C 0.02634 0.47046 1.12580
 C2438 C 0.03417 0.47132 1.14276
 C2439 C 0.01585 0.48558 1.09835
 C2440 C 0.01127 0.48481 1.08297
 H2441 H 0.08371 0.47038 1.19024
 H2442 H 0.06630 0.46719 1.16257
 H2443 H 0.03190 0.51177 1.17784
 H2444 H 0.04967 0.51505 1.20534
 H2445 H 0.03658 0.51748 1.14671
 H2446 H 0.02277 0.51583 1.11708
 H2447 H 0.02381 0.45731 1.11987
 H2448 H 0.03731 0.45876 1.14969
 C2449 C -0.08926 -0.00315 1.21934
 C2450 C -0.07955 -0.00653 1.20702
 C2451 C -0.06833 -0.01005 1.19190
 C2452 C -0.05728 0.00381 1.18499
 C2453 C -0.04741 0.00096 1.16954
 C2454 C -0.04847 -0.01582 1.16072
 C2455 C -0.05928 -0.02982 1.16801
 C2456 C -0.06916 -0.02693 1.18348
 C2457 C -0.03925 -0.01821 1.14345
 C2458 C -0.04827 -0.02711 1.12942
 C2459 C -0.04049 -0.02766 1.11261
 C2460 C -0.02357 -0.01942 1.10957
 C2461 C -0.01417 -0.01113 1.12359
 C2462 C -0.02193 -0.01055 1.14043
 C2463 C -0.01694 -0.01768 1.09175
 C2464 C -0.01224 -0.01526 1.07664
 H2465 H -0.05664 0.01698 1.19132
 H2466 H -0.03948 0.01212 1.16414
 H2467 H -0.06024 -0.04294 1.16164
 H2468 H -0.07769 -0.03775 1.18869
 H2469 H -0.06171 -0.03290 1.13121
 H2470 H -0.04800 -0.03393 1.10182
 H2471 H -0.00112 -0.00459 1.12138
 H2472 H -0.01454 -0.00381 1.15100
 C2473 C 0.41040 0.49760 0.71820
 C2474 C 0.41964 0.49368 0.70570
 C2475 C 0.43025 0.48939 0.69035
 C2476 C 0.44914 0.49206 0.69049
 C2477 C 0.45919 0.48907 0.67514
 C2478 C 0.45046 0.48340 0.65943
 C2479 C 0.43152 0.48038 0.65957
 C2480 C 0.42151 0.48337 0.67492
 C2481 C 0.46074 0.48177 0.64265
 C2482 C 0.45651 0.46793 0.63047
 C2483 C 0.46477 0.46767 0.61384
 C2484 C 0.47743 0.48115 0.60921
 C2485 C 0.48223 0.49455 0.62149
 C2486 C 0.47400 0.49485 0.63810
 C2487 C 0.48389 0.48255 0.59130
 C2488 C 0.48844 0.48477 0.57612
 H2489 H 0.45606 0.49674 0.70237
 H2490 H 0.47377 0.49135 0.67552
 H2491 H 0.42431 0.47632 0.64765
 H2492 H 0.40689 0.48137 0.67462
 H2493 H 0.44654 0.45753 0.63365
 H2494 H 0.46083 0.45731 0.60441
 H2495 H 0.49183 0.50520 0.61797
 H2496 H 0.47738 0.50583 0.64704
 C2497 C 0.41264 0.50102 -0.22121
 C2498 C 0.42338 0.50022 -0.20905
 C2499 C 0.43554 0.50057 -0.19397
 C2500 C 0.44730 0.48608 -0.19027
 C2501 C 0.45844 0.48643 -0.17510
 C2502 C 0.45794 0.50130 -0.16345
 C2503 C 0.44626 0.51588 -0.16748
 C2504 C 0.43517 0.51550 -0.18261
 C2505 C 0.46871 0.50127 -0.14665
 C2506 C 0.47655 0.51746 -0.14014
 C2507 C 0.48496 0.51779 -0.12342
 C2508 C 0.48572 0.50195 -0.11304
 C2509 C 0.47857 0.48566 -0.11968
 C2510 C 0.47015 0.48529 -0.13636
 C2511 C 0.49215 0.50262 -0.09497
 C2512 C 0.49638 0.50260 -0.07949
 H2513 H 0.44772 0.47446 -0.19898
 H2514 H 0.46740 0.47507 -0.17245
 H2515 H 0.44525 0.52736 -0.15866
 H2516 H 0.42607 0.52676 -0.18529
 H2517 H 0.47588 0.52994 -0.14783
 H2518 H 0.49038 0.53050 -0.11840
 H2519 H 0.47893 0.47334 -0.11170
 H2520 H 0.46404 0.47268 -0.14084
 C2521 C -0.08729 0.99970 0.27961
 C2522 C -0.07644 0.99883 0.29168
 C2523 C -0.06410 0.99899 0.30664
 C2524 C -0.06312 1.01446 0.31728
 C2525 C -0.05203 1.01459 0.33241
 C2526 C -0.04172 0.99921 0.33717
 C2527 C -0.04251 0.98381 0.32619
 C2528 C -0.05365 0.98371 0.31102
 C2529 C -0.03112 0.99897 0.35407
 C2530 C -0.03116 0.98336 0.36498
 C2531 C -0.02285 0.98367 0.38171
 C2532 C -0.01433 0.99955 0.38779
 C2533 C -0.01365 1.01497 0.37682
 C2534 C -0.02194 1.01468 0.36005
 C2535 C -0.00786 1.00034 0.40585
 C2536 C -0.00359 1.00049 0.42132
 H2537 H -0.07122 1.02633 0.31407
 H2538 H -0.05202 1.02653 0.34070
 H2539 H -0.03460 0.97182 0.32939
 H2540 H -0.05429 0.97166 0.30287
 H2541 H -0.03832 0.97114 0.36093
 H2542 H -0.02361 0.97170 0.39015
 H2543 H -0.00715 1.02736 0.38140
 H2544 H -0.02145 1.02684 0.35188
 C2545 C 0.09226 0.49981 0.28884
 C2546 C 0.08313 0.49660 0.30172
 C2547 C 0.07253 0.49331 0.31743
 C2548 C 0.06016 0.50640 0.32308
 C2549 C 0.05073 0.50387 0.33893
 C2550 C 0.05356 0.48819 0.34942
 C2551 C 0.06577 0.47493 0.34344
 C2552 C 0.07518 0.47749 0.32757
 C2553 C 0.04452 0.48622 0.36692
 C2554 C 0.05424 0.47946 0.38171
 C2555 C 0.04634 0.47916 0.39850
 C2556 C 0.02860 0.48552 0.40078
 C2557 C 0.01860 0.49174 0.38607
 C2558 C 0.02648 0.49205 0.36925
 C2559 C 0.02143 0.48740 0.41840
 C2560 C 0.01614 0.48998 0.43326
 H2561 H 0.05808 0.51875 0.31543
 H2562 H 0.04168 0.51448 0.34326
 H2563 H 0.06811 0.46263 0.35109
 H2564 H 0.08474 0.46726 0.32335
 H2565 H 0.06822 0.47511 0.38046
 H2566 H 0.05430 0.47452 0.40981
 H2567 H 0.00491 0.49681 0.38766
 H2568 H 0.01854 0.49710 0.35812
 C2569 C 0.59259 0.00051 -0.20930
 C2570 C 0.58352 -0.00284 -0.19642
 C2571 C 0.57300 -0.00631 -0.18070
 C2572 C 0.56049 0.00661 -0.17496
 C2573 C 0.55116 0.00392 -0.15908
 C2574 C 0.55423 -0.01175 -0.14864
 C2575 C 0.56656 -0.02484 -0.15471
 C2576 C 0.57588 -0.02213 -0.17061
 C2577 C 0.54533 -0.01386 -0.13110
 C2578 C 0.55525 -0.02051 -0.11638
 C2579 C 0.54747 -0.02094 -0.09954
 C2580 C 0.52966 -0.01483 -0.09714
 C2581 C 0.51948 -0.00873 -0.11177
 C2582 C 0.52723 -0.00828 -0.12864
 C2583 C 0.52261 -0.01308 -0.07947
 C2584 C 0.51742 -0.01061 -0.06457
 H2585 H 0.55823 0.01896 -0.18258
 H2586 H 0.54200 0.01441 -0.15469
 H2587 H 0.56909 -0.03714 -0.14710
 H2588 H 0.58554 -0.03222 -0.17490
 H2589 H 0.56928 -0.02466 -0.11774
 H2590 H 0.55557 -0.02548 -0.08830
 H2591 H 0.50573 -0.00384 -0.11007
 H2592 H 0.51915 -0.00331 -0.13971
 C2593 C 0.72692 0.61258 -0.00379
 C2594 C 0.71374 0.60274 -0.00271
 C2595 C 0.69747 0.59166 -0.00265
 C2596 C 0.68129 0.59866 0.00408
 C2597 C 0.66498 0.58888 0.00234
 C2598 C 0.66459 0.57194 -0.00621
 C2599 C 0.68101 0.56478 -0.01253
 C2600 C 0.69731 0.57462 -0.01080
 C2601 C 0.64704 0.56205 -0.00890
 C2602 C 0.64597 0.54303 -0.00673
 C2603 C 0.62931 0.53389 -0.00879
 C2604 C 0.61352 0.54360 -0.01316
 C2605 C 0.61452 0.56247 -0.01564
 C2606 C 0.63113 0.57162 -0.01356
 C2607 C 0.59606 0.53452 -0.01379
 C2608 C 0.58123 0.52735 -0.01341
 H2609 H 0.68119 0.61188 0.01031
 H2610 H 0.65265 0.59464 0.00761
 H2611 H 0.68115 0.55187 -0.01932
 H2612 H 0.70970 0.56914 -0.01625
 H2613 H 0.65792 0.53529 -0.00299
 H2614 H 0.62868 0.51932 -0.00664
 H2615 H 0.60239 0.57015 -0.01893
 H2616 H 0.63154 0.58621 -0.01562
 C2617 C 0.22689 1.11213 0.49579
 C2618 C 0.21372 1.10229 0.49688
 C2619 C 0.19744 1.09121 0.49696
 C2620 C 0.19727 1.07417 0.48878
 C2621 C 0.18096 1.06433 0.48711
 C2622 C 0.16456 1.07147 0.49350
 C2623 C 0.16498 1.08841 0.50206
 C2624 C 0.18129 1.09820 0.50374
 C2625 C 0.14701 1.06155 0.49092
 C2626 C 0.13106 1.07109 0.48636
 C2627 C 0.11444 1.06192 0.48439
 C2628 C 0.11348 1.04305 0.48689
 C2629 C 0.12932 1.03337 0.49116
 C2630 C 0.14598 1.04253 0.49310
 C2631 C 0.09603 1.03395 0.48640
 C2632 C 0.08121 1.02677 0.48688
 H2633 H 0.20963 1.06871 0.48328
 H2634 H 0.18108 1.05143 0.48031
 H2635 H 0.15267 1.09415 0.50739
 H2636 H 0.18121 1.11141 0.50999
 H2637 H 0.13143 1.08568 0.48429
 H2638 H 0.10228 1.06959 0.48118
 H2639 H 0.12872 1.01879 0.49332
 H2640 H 0.15797 1.03480 0.49677
 C2641 C 0.21965 -0.11506 1.00173
 C2642 C 0.20657 -0.10572 1.00470
 C2643 C 0.19058 -0.09488 1.00766
 C2644 C 0.18643 -0.08038 0.99621
 C2645 C 0.17034 -0.07056 0.99830
 C2646 C 0.15809 -0.07512 1.01190
 C2647 C 0.16253 -0.08955 1.02352
 C2648 C 0.17864 -0.09935 1.02140
 C2649 C 0.14052 -0.06526 1.01351
 C2650 C 0.12436 -0.07479 1.01750
 C2651 C 0.10769 -0.06570 1.01809
 C2652 C 0.10689 -0.04695 1.01476
 C2653 C 0.12292 -0.03730 1.01109
 C2654 C 0.13961 -0.04636 1.01048
 C2655 C 0.08952 -0.03785 1.01420
 C2656 C 0.07491 -0.03042 1.01319
 H2657 H 0.19547 -0.07687 0.98544
 H2658 H 0.16724 -0.05974 0.98896
 H2659 H 0.15353 -0.09327 1.03424
 H2660 H 0.18167 -0.11056 1.03034
 H2661 H 0.12451 -0.08937 1.01965
 H2662 H 0.09537 -0.07336 1.02082
 H2663 H 0.12249 -0.02280 1.00846
 H2664 H 0.15180 -0.03858 1.00761
 C2665 C 0.71919 0.38353 0.50275
 C2666 C 0.70607 0.39281 0.50573
 C2667 C 0.69001 0.40354 0.50872
 C2668 C 0.69039 0.42240 0.50598
 C2669 C 0.67448 0.43260 0.50776
 C2670 C 0.65792 0.42407 0.51227
 C2671 C 0.65777 0.40515 0.51530
 C2672 C 0.67369 0.39498 0.51351
 C2673 C 0.64074 0.43470 0.51319
 C2674 C 0.62763 0.43074 0.52617
 C2675 C 0.61111 0.44015 0.52642
 C2676 C 0.60745 0.45367 0.51372
 C2677 C 0.62051 0.45789 0.50093
 C2678 C 0.63702 0.44852 0.50066
 C2679 C 0.59002 0.46265 0.51325
 C2680 C 0.57537 0.46998 0.51229
 H2681 H 0.70292 0.42919 0.50224
 H2682 H 0.67513 0.44716 0.50555
 H2683 H 0.64524 0.39810 0.51853
 H2684 H 0.67318 0.38038 0.51555
 H2685 H 0.63014 0.42036 0.53614
 H2686 H 0.60111 0.43673 0.53638
 H2687 H 0.61780 0.46823 0.49096
 H2688 H 0.64665 0.45173 0.49032
 C2689 C -0.21768 0.38551 0.50143
 C2690 C -0.20465 0.39551 0.50280
 C2691 C -0.18851 0.40678 0.50320
 C2692 C -0.17309 0.40108 0.51272
 C2693 C -0.15675 0.41088 0.51149
 C2694 C -0.15556 0.42650 0.50064
 C2695 C -0.17126 0.43236 0.49144
 C2696 C -0.18759 0.42253 0.49268
 C2697 C -0.13794 0.43638 0.49860
 C2698 C -0.13736 0.45552 0.49784
 C2699 C -0.12074 0.46474 0.49614
 C2700 C -0.10446 0.45501 0.49507
 C2701 C -0.10491 0.43598 0.49562
 C2702 C -0.12151 0.42672 0.49734
 C2703 C -0.08724 0.46453 0.49455
 C2704 C -0.07282 0.47250 0.49496
 H2705 H -0.17357 0.38884 0.52080
 H2706 H -0.14501 0.40616 0.51895
 H2707 H -0.17078 0.44420 0.48282
 H2708 H -0.19935 0.42695 0.48506
 H2709 H -0.14972 0.46336 0.49896
 H2710 H -0.12056 0.47948 0.49591
 H2711 H -0.09241 0.42828 0.49489
 H2712 H -0.12149 0.41200 0.49759
 C2713 C 0.28277 -0.11323 0.00110
 C2714 C 0.29584 -0.10334 0.00281
 C2715 C 0.31204 -0.09218 0.00364
 C2716 C 0.32730 -0.09818 0.01322
 C2717 C 0.34372 -0.08849 0.01235
 C2718 C 0.34516 -0.07266 0.00180
 C2719 C 0.32961 -0.06650 -0.00744
 C2720 C 0.31320 -0.07623 -0.00656
 C2721 C 0.36291 -0.06295 0.00008
 C2722 C 0.36372 -0.04381 -0.00033
 C2723 C 0.38046 -0.03475 -0.00179
 C2724 C 0.39663 -0.04466 -0.00294
 C2725 C 0.39594 -0.06369 -0.00273
 C2726 C 0.37923 -0.07278 -0.00125
 C2727 C 0.41397 -0.03535 -0.00328
 C2728 C 0.42849 -0.02758 -0.00277
 H2729 H 0.32663 -0.11058 0.02105
 H2730 H 0.35535 -0.09345 0.01985
 H2731 H 0.33029 -0.05450 -0.01583
 H2732 H 0.30156 -0.07158 -0.01424
 H2733 H 0.35145 -0.03584 0.00084
 H2734 H 0.38083 -0.02002 -0.00176
 H2735 H 0.40835 -0.07152 -0.00354
 H2736 H 0.37907 -0.08750 -0.00127
 C2737 C 0.28953 1.11122 0.49891
 C2738 C 0.30188 1.10117 0.50292
 C2739 C 0.31689 1.08937 0.50745
 C2740 C 0.32110 1.07473 0.49652
 C2741 C 0.33615 1.06376 0.50041
 C2742 C 0.34726 1.06728 0.51531
 C2743 C 0.34277 1.08189 0.52636
 C2744 C 0.32770 1.09285 0.52244
 C2745 C 0.36384 1.05619 0.51885
 C2746 C 0.38018 1.06454 0.52449
 C2747 C 0.39611 1.05435 0.52653
 C2748 C 0.39598 1.03568 0.52305
 C2749 C 0.37969 1.02715 0.51789
 C2750 C 0.36373 1.03731 0.51584
 C2751 C 0.41282 1.02567 0.52313
 C2752 C 0.42708 1.01766 0.52215
 H2753 H 0.31291 1.07196 0.48482
 H2754 H 0.33936 1.05283 0.49147
 H2755 H 0.35091 1.08486 0.53803
 H2756 H 0.32459 1.10413 0.53101
 H2757 H 0.38082 1.07906 0.52668
 H2758 H 0.40867 1.06116 0.53032
 H2759 H 0.37942 1.01273 0.51505
 H2760 H 0.35135 1.03042 0.51172
 C2761 C -0.21055 0.61128 0.99889
 C2762 C -0.19829 0.60104 1.00267
 C2763 C -0.18338 0.58901 1.00689
 C2764 C -0.17915 0.57477 0.99548
 C2765 C -0.16419 0.56359 0.99909
 C2766 C -0.15319 0.56649 1.01420
 C2767 C -0.15771 0.58069 1.02573
 C2768 C -0.17269 0.59186 1.02209
 C2769 C -0.13670 0.55519 1.01748
 C2770 C -0.12038 0.56324 1.02354
 C2771 C -0.10452 0.55290 1.02538
 C2772 C -0.10473 0.53436 1.02127
 C2773 C -0.12101 0.52613 1.01567
 C2774 C -0.13688 0.53644 1.01382
 C2775 C -0.08795 0.52425 1.02125
 C2776 C -0.07372 0.51620 1.02025
 H2777 H -0.18724 0.57248 0.98362
 H2778 H -0.16095 0.55299 0.98979
 H2779 H -0.14965 0.58317 1.03756
 H2780 H -0.17581 0.60283 1.03104
 H2781 H -0.11968 0.57766 1.02624
 H2782 H -0.09197 0.55949 1.02952
 H2783 H -0.12133 0.51182 1.01234
 H2784 H -0.14927 0.52977 1.00935
 C2785 C -0.00394 0.72573 0.60760
 C2786 C -0.00451 0.71494 0.59574
 C2787 C -0.00503 0.70138 0.58223
 C2788 C -0.02044 0.69030 0.58037
 C2789 C -0.02020 0.67556 0.56886
 C2790 C -0.00448 0.67173 0.55912
 C2791 C 0.01069 0.68341 0.56052
 C2792 C 0.01042 0.69815 0.57206
 C2793 C -0.00340 0.65467 0.54892
 C2794 C 0.01230 0.64385 0.55016
 C2795 C 0.01258 0.62667 0.54247
 C2796 C -0.00279 0.62014 0.53344
 C2797 C -0.01823 0.63106 0.53154
 C2798 C -0.01854 0.64827 0.53922
 C2799 C -0.00317 0.60174 0.52735
 C2800 C -0.00356 0.58611 0.52284
 H2801 H -0.03240 0.69263 0.58831
 H2802 H -0.03198 0.66666 0.56826
 H2803 H 0.02290 0.68088 0.55303
 H2804 H 0.02243 0.70666 0.57347
 H2805 H 0.02405 0.64829 0.55778
 H2806 H 0.02454 0.61824 0.54409
 H2807 H -0.03020 0.62607 0.52458
 H2808 H -0.03073 0.65639 0.53792
 C2809 C 0.49798 0.22631 0.10848
 C2810 C 0.49783 0.21504 0.09705
 C2811 C 0.49771 0.20103 0.08398
 C2812 C 0.48211 0.19032 0.08157
 C2813 C 0.48255 0.17534 0.07037
 C2814 C 0.49865 0.17089 0.06150
 C2815 C 0.51406 0.18217 0.06347
 C2816 C 0.51358 0.19716 0.07469
 C2817 C 0.49975 0.15368 0.05157
 C2818 C 0.51503 0.14240 0.05372
 C2819 C 0.51523 0.12517 0.04614
 C2820 C 0.50021 0.11904 0.03631
 C2821 C 0.48522 0.13040 0.03354
 C2822 C 0.48499 0.14766 0.04111
 C2823 C 0.49966 0.10064 0.03024
 C2824 C 0.49908 0.08502 0.02570
 H2825 H 0.46981 0.19318 0.08881
 H2826 H 0.47057 0.16675 0.06932
 H2827 H 0.52657 0.17916 0.05664
 H2828 H 0.52573 0.20540 0.07651
 H2829 H 0.52647 0.14655 0.06192
 H2830 H 0.52683 0.11639 0.04844
 H2831 H 0.47353 0.12573 0.02595
 H2832 H 0.47314 0.15615 0.03910
 C2833 C 0.00448 0.21382 0.88709
 C2834 C 0.00274 0.20289 0.89889
 C2835 C 0.00106 0.18936 0.91258
 C2836 C 0.01673 0.18148 0.91987
 C2837 C 0.01524 0.16709 0.93194
 C2838 C -0.00198 0.16040 0.93684
 C2839 C -0.01768 0.16883 0.92990
 C2840 C -0.01615 0.18323 0.91780
 C2841 C -0.00342 0.14379 0.94798
 C2842 C -0.01598 0.13004 0.94346
 C2843 C -0.01595 0.11346 0.95258
 C2844 C -0.00341 0.11044 0.96633
 C2845 C 0.00869 0.12425 0.97138
 C2846 C 0.00867 0.14087 0.96228
 C2847 C -0.00206 0.09268 0.97420
 C2848 C -0.00075 0.07749 0.98009
 H2849 H 0.03011 0.18609 0.91582
 H2850 H 0.02757 0.16070 0.93683
 H2851 H -0.03111 0.16406 0.93358
 H2852 H -0.02836 0.18927 0.91221
 H2853 H -0.02527 0.13177 0.93235
 H2854 H -0.02528 0.10277 0.94851
 H2855 H 0.01847 0.12199 0.98200
 H2856 H 0.01835 0.15130 0.96617
 C2857 C 0.50278 0.71447 0.38736
 C2858 C 0.50005 0.70315 0.39862
 C2859 C 0.49727 0.68922 0.41172
 C2860 C 0.48620 0.67424 0.40777
 C2861 C 0.48493 0.65974 0.41974
 C2862 C 0.49479 0.66006 0.43581
 C2863 C 0.50539 0.67548 0.43994
 C2864 C 0.50663 0.68997 0.42793
 C2865 C 0.49511 0.64377 0.44747
 C2866 C 0.51167 0.63768 0.45483
 C2867 C 0.51245 0.62122 0.46413
 C2868 C 0.49669 0.61070 0.46623
 C2869 C 0.48002 0.61693 0.45951
 C2870 C 0.47921 0.63340 0.45020
 C2871 C 0.49794 0.59285 0.47393
 C2872 C 0.49920 0.57762 0.47972
 H2873 H 0.47900 0.67351 0.39519
 H2874 H 0.47688 0.64795 0.41608
 H2875 H 0.51296 0.67617 0.45230
 H2876 H 0.51525 0.70154 0.43108
 H2877 H 0.52418 0.64522 0.45271
 H2878 H 0.52543 0.61642 0.46917
 H2879 H 0.46776 0.60883 0.46104
 H2880 H 0.46625 0.63786 0.44483
 C2881 C 0.50960 0.77594 0.38354
 C2882 C 0.50866 0.78917 0.39272
 C2883 C 0.50747 0.80516 0.40337
 C2884 C 0.49158 0.81554 0.40294
 C2885 C 0.49058 0.83145 0.41282
 C2886 C 0.50549 0.83716 0.42323
 C2887 C 0.52135 0.82652 0.42372
 C2888 C 0.52232 0.81061 0.41381
 C2889 C 0.50458 0.85426 0.43337
 C2890 C 0.51167 0.85514 0.45072
 C2891 C 0.51075 0.87130 0.46025
 C2892 C 0.50279 0.88672 0.45253
 C2893 C 0.49575 0.88599 0.43528
 C2894 C 0.49664 0.86986 0.42573
 C2895 C 0.50169 0.90327 0.46235
 C2896 C 0.50065 0.91716 0.47056
 H2897 H 0.48000 0.81138 0.39490
 H2898 H 0.47812 0.83925 0.41239
 H2899 H 0.53311 0.83070 0.43147
 H2900 H 0.53470 0.80267 0.41415
 H2901 H 0.51769 0.84329 0.45698
 H2902 H 0.51618 0.87175 0.47364
 H2903 H 0.48960 0.89789 0.42920
 H2904 H 0.49132 0.86963 0.41231
 C2905 C 0.00852 0.27488 0.88157
 C2906 C 0.00761 0.28810 0.89077
 C2907 C 0.00651 0.30407 0.90146
 C2908 C 0.02126 0.30918 0.91221
 C2909 C 0.02040 0.32507 0.92216
 C2910 C 0.00477 0.33601 0.92142
 C2911 C -0.01005 0.33065 0.91070
 C2912 C -0.00916 0.31476 0.90077
 C2913 C 0.00399 0.35309 0.93161
 C2914 C -0.00348 0.36887 0.92388
 C2915 C -0.00425 0.38499 0.93347
 C2916 C 0.00242 0.38550 0.95087
 C2917 C 0.00992 0.36990 0.95867
 C2918 C 0.01072 0.35376 0.94910
 C2919 C 0.00138 0.40202 0.96075
 C2920 C 0.00034 0.41588 0.96900
 H2921 H 0.03348 0.30100 0.91274
 H2922 H 0.03208 0.32898 0.93015
 H2923 H -0.02234 0.33869 0.91007
 H2924 H -0.02064 0.31087 0.89249
 H2925 H -0.00852 0.36881 0.91035
 H2926 H -0.01004 0.39703 0.92732
 H2927 H 0.01507 0.37018 0.97217
 H2928 H 0.01636 0.34176 0.95543
 C2929 C 0.48787 0.28612 0.11432
 C2930 C 0.48493 0.29874 0.10453
 C2931 C 0.48241 0.31421 0.09315
 C2932 C 0.47183 0.32880 0.09873
 C2933 C 0.47143 0.34489 0.08879
 C2934 C 0.48168 0.34653 0.07322
 C2935 C 0.49164 0.33151 0.06734
 C2936 C 0.49202 0.31544 0.07729
 C2937 C 0.48328 0.36425 0.06396
 C2938 C 0.48356 0.36520 0.04535
 C2939 C 0.48668 0.38180 0.03675
 C2940 C 0.48955 0.39756 0.04667
 C2941 C 0.48891 0.39682 0.06515
 C2942 C 0.48579 0.38027 0.07377
 C2943 C 0.49359 0.41446 0.03795
 C2944 C 0.49702 0.42870 0.03079
 H2945 H 0.46440 0.32795 0.11104
 H2946 H 0.46347 0.35619 0.09349
 H2947 H 0.49985 0.33247 0.05553
 H2948 H 0.50037 0.30424 0.07298
 H2949 H 0.48152 0.35309 0.03749
 H2950 H 0.48710 0.38229 0.02241
 H2951 H 0.49116 0.40898 0.07291
 H2952 H 0.48596 0.37990 0.08811
 C2953 C -0.01185 0.78552 0.61705
 C2954 C -0.01434 0.79874 0.60790
 C2955 C -0.01638 0.81474 0.59714
 C2956 C -0.02472 0.83016 0.60405
 C2957 C -0.02483 0.84640 0.59434
 C2958 C -0.01653 0.84736 0.57765
 C2959 C -0.00876 0.83161 0.57056
 C2960 C -0.00867 0.81539 0.58029
 C2961 C -0.01483 0.86497 0.56818
 C2962 C -0.01708 0.86597 0.54968
 C2963 C -0.01414 0.88239 0.54069
 C2964 C -0.00894 0.89791 0.55010
 C2965 C -0.00699 0.89712 0.56852
 C2966 C -0.00992 0.88075 0.57753
 C2967 C -0.00525 0.91460 0.54086
 C2968 C -0.00211 0.92867 0.53325
 H2969 H -0.03069 0.82975 0.61711
 H2970 H -0.03110 0.85828 0.60000
 H2971 H -0.00207 0.83202 0.55785
 H2972 H -0.00207 0.80354 0.57492
 H2973 H -0.02101 0.85406 0.54218
 H2974 H -0.01574 0.88293 0.52641
 H2975 H -0.00293 0.90909 0.57588
 H2976 H -0.00781 0.88030 0.59174
 C2977 C 0.24998 0.33995 0.02192
 C2978 C 0.24693 0.32982 0.03421
 C2979 C 0.24402 0.31828 0.04945
 C2980 C 0.23020 0.32228 0.06141
 C2981 C 0.22850 0.31221 0.07711
 C2982 C 0.24068 0.29801 0.08113
 C2983 C 0.25425 0.29379 0.06881
 C2984 C 0.25591 0.30388 0.05310
 C2985 C 0.23982 0.28835 0.09850
 C2986 C 0.25590 0.28425 0.10799
 C2987 C 0.25510 0.27645 0.12493
 C2988 C 0.23825 0.27256 0.13261
 C2989 C 0.22218 0.27615 0.12311
 C2990 C 0.22294 0.28397 0.10617
 C2991 C 0.23741 0.26618 0.15069
 C2992 C 0.23663 0.26163 0.16607
 H2993 H 0.22103 0.33351 0.05882
 H2994 H 0.21809 0.31599 0.08641
 H2995 H 0.26370 0.28281 0.07140
 H2996 H 0.26672 0.30070 0.04399
 H2997 H 0.26909 0.28768 0.10259
 H2998 H 0.26762 0.27389 0.13221
 H2999 H 0.20905 0.27326 0.12895
 H3000 H 0.21033 0.28675 0.09914
 C3001 C 0.74941 0.84005 0.52257
 C3002 C 0.74617 0.82999 0.53487
 C3003 C 0.74306 0.81853 0.55013
 C3004 C 0.72944 0.82290 0.56217
 C3005 C 0.72759 0.81288 0.57789
 C3006 C 0.73942 0.79836 0.58183
 C3007 C 0.75277 0.79378 0.56941
 C3008 C 0.75458 0.80382 0.55369
 C3009 C 0.73843 0.78874 0.59921
 C3010 C 0.75447 0.78421 0.60857
 C3011 C 0.75361 0.77644 0.62552
 C3012 C 0.73672 0.77301 0.63334
 C3013 C 0.72068 0.77704 0.62397
 C3014 C 0.72151 0.78483 0.60702
 C3015 C 0.73588 0.76665 0.65142
 C3016 C 0.73516 0.76212 0.66680
 H3017 H 0.72056 0.83437 0.55965
 H3018 H 0.71735 0.81694 0.58726
 H3019 H 0.76194 0.78256 0.57195
 H3020 H 0.76523 0.80035 0.54451
 H3021 H 0.76771 0.78728 0.60307
 H3022 H 0.76611 0.77354 0.63270
 H3023 H 0.70753 0.77452 0.62991
 H3024 H 0.70893 0.78795 0.60008
 C3025 C 0.24782 0.66051 0.52984
 C3026 C 0.24452 0.67039 0.54206
 C3027 C 0.24106 0.68178 0.55708
 C3028 C 0.25505 0.69267 0.56402
 C3029 C 0.25228 0.70262 0.57946
 C3030 C 0.23546 0.70179 0.58821
 C3031 C 0.22132 0.69117 0.58086
 C3032 C 0.22412 0.68122 0.56541
 C3033 C 0.23317 0.71101 0.60550
 C3034 C 0.22414 0.70209 0.61948
 C3035 C 0.22368 0.70983 0.63632
 C3036 C 0.23216 0.72662 0.63943
 C3037 C 0.24059 0.73593 0.62546
 C3038 C 0.24106 0.72821 0.60860
 C3039 C 0.23390 0.73324 0.65727
 C3040 C 0.23627 0.73797 0.67238
 H3041 H 0.26826 0.69312 0.55776
 H3042 H 0.26354 0.71041 0.58490
 H3043 H 0.20816 0.69040 0.58717
 H3044 H 0.21320 0.67282 0.56016
 H3045 H 0.21816 0.68873 0.61763
 H3046 H 0.21730 0.70241 0.64707
 H3047 H 0.24728 0.74888 0.62773
 H3048 H 0.24791 0.73552 0.59806
 C3049 C 0.74672 0.15928 0.03150
 C3050 C 0.74306 0.16873 0.04393
 C3051 C 0.73916 0.17961 0.05920
 C3052 C 0.74334 0.19821 0.05926
 C3053 C 0.74086 0.20841 0.07462
 C3054 C 0.73419 0.20010 0.09014
 C3055 C 0.72961 0.18149 0.08979
 C3056 C 0.73209 0.17133 0.07443
 C3057 C 0.73308 0.21042 0.10697
 C3058 C 0.71871 0.20729 0.11884
 C3059 C 0.71877 0.21554 0.13548
 C3060 C 0.73312 0.22708 0.14045
 C3061 C 0.74712 0.23080 0.12848
 C3062 C 0.74709 0.22257 0.11185
 C3063 C 0.73462 0.23349 0.15839
 C3064 C 0.73678 0.23798 0.17360
 H3065 H 0.74883 0.20476 0.04755
 H3066 H 0.74433 0.22274 0.07440
 H3067 H 0.72474 0.17459 0.10157
 H3068 H 0.72892 0.15692 0.07458
 H3069 H 0.70760 0.19820 0.11540
 H3070 H 0.70792 0.21246 0.14467
 H3071 H 0.75841 0.23954 0.13224
 H3072 H 0.75849 0.22507 0.10316
 C3073 C 0.75023 0.16163 0.97115
 C3074 C 0.74959 0.17248 0.95909
 C3075 C 0.75012 0.18476 0.94413
 C3076 C 0.73625 0.19742 0.94106
 C3077 C 0.73678 0.20877 0.92607
 C3078 C 0.75120 0.20759 0.91397
 C3079 C 0.76516 0.19497 0.91735
 C3080 C 0.76460 0.18368 0.93230
 C3081 C 0.75132 0.21867 0.89739
 C3082 C 0.76776 0.22563 0.89057
 C3083 C 0.76810 0.23430 0.87400
 C3084 C 0.75203 0.23622 0.86408
 C3085 C 0.73552 0.22997 0.87105
 C3086 C 0.73515 0.22129 0.88759
 C3087 C 0.75255 0.24281 0.84606
 C3088 C 0.75235 0.24715 0.83062
 H3089 H 0.72498 0.19840 0.95014
 H3090 H 0.72590 0.21844 0.92392
 H3091 H 0.77626 0.19344 0.90817
 H3092 H 0.77538 0.17388 0.93449
 H3093 H 0.78041 0.22406 0.89789
 H3094 H 0.78097 0.23901 0.86871
 H3095 H 0.72302 0.23122 0.86341
 H3096 H 0.72232 0.21589 0.89231
 C3097 C 0.25051 0.66127 0.46955
 C3098 C 0.24986 0.67198 0.45737
 C3099 C 0.25031 0.68413 0.44231
 C3100 C 0.26488 0.68316 0.43057
 C3101 C 0.26535 0.69433 0.41554
 C3102 C 0.25121 0.70671 0.41198
 C3103 C 0.23671 0.70778 0.42400
 C3104 C 0.23627 0.69655 0.43907
 C3105 C 0.25123 0.71763 0.39530
 C3106 C 0.23505 0.71992 0.38542
 C3107 C 0.23535 0.72848 0.36883
 C3108 C 0.25179 0.73494 0.36186
 C3109 C 0.26786 0.73333 0.37185
 C3110 C 0.26758 0.72478 0.38848
 C3111 C 0.25227 0.74147 0.34383
 C3112 C 0.25206 0.74580 0.32838
 H3113 H 0.27579 0.67354 0.43290
 H3114 H 0.27652 0.69289 0.40642
 H3115 H 0.22570 0.71727 0.42172
 H3116 H 0.22494 0.69744 0.44809
 H3117 H 0.22228 0.71437 0.39015
 H3118 H 0.22285 0.72949 0.36115
 H3119 H 0.28067 0.73820 0.36657
 H3120 H 0.28023 0.72347 0.39586
 C3121 C 0.75103 0.84297 0.46125
 C3122 C 0.74811 0.83376 0.44836
 C3123 C 0.74515 0.82306 0.43264
 C3124 C 0.75885 0.81153 0.42670
 C3125 C 0.75657 0.80203 0.41085
 C3126 C 0.74053 0.80394 0.40065
 C3127 C 0.72667 0.81530 0.40692
 C3128 C 0.72899 0.82480 0.42280
 C3129 C 0.73873 0.79485 0.38316
 C3130 C 0.73108 0.80417 0.36854
 C3131 C 0.73083 0.79629 0.35174
 C3132 C 0.73815 0.77896 0.34927
 C3133 C 0.74529 0.76935 0.36381
 C3134 C 0.74556 0.77721 0.38064
 C3135 C 0.73993 0.77190 0.33161
 C3136 C 0.74235 0.76671 0.31668
 H3137 H 0.77147 0.81016 0.43414
 H3138 H 0.76762 0.79364 0.40630
 H3139 H 0.71409 0.81692 0.39951
 H3140 H 0.71829 0.83370 0.42725
 H3141 H 0.72595 0.81785 0.36994
 H3142 H 0.72545 0.80396 0.34056
 H3143 H 0.75110 0.75598 0.36207
 H3144 H 0.75133 0.76958 0.39164
 C3145 C 0.25060 0.34359 0.96042
 C3146 C 0.24735 0.33475 0.94734
 C3147 C 0.24390 0.32458 0.93139
 C3148 C 0.24589 0.30565 0.93131
 C3149 C 0.24364 0.29599 0.91553
 C3150 C 0.23937 0.30514 0.89957
 C3151 C 0.23705 0.32413 0.89988
 C3152 C 0.23932 0.33375 0.91566
 C3153 C 0.23826 0.29515 0.88251
 C3154 C 0.22530 0.29995 0.86944
 C3155 C 0.22537 0.29164 0.85281
 C3156 C 0.23834 0.27838 0.84903
 C3157 C 0.25092 0.27312 0.86212
 C3158 C 0.25087 0.28140 0.87874
 C3159 C 0.23995 0.27147 0.83129
 C3160 C 0.24226 0.26639 0.81631
 H3161 H 0.24945 0.29839 0.94340
 H3162 H 0.24532 0.28136 0.91579
 H3163 H 0.23407 0.33165 0.88782
 H3164 H 0.23785 0.34841 0.91552
 H3165 H 0.21526 0.31030 0.87198
 H3166 H 0.21563 0.29592 0.84277
 H3167 H 0.26115 0.26303 0.85929
 H3168 H 0.26119 0.27755 0.88837
 C3169 C 0.86180 0.47746 0.75306
 C3170 C 0.85193 0.46431 0.75207
 C3171 C 0.84082 0.44805 0.75216
 C3172 C 0.82419 0.44774 0.76108
 C3173 C 0.81446 0.43142 0.76299
 C3174 C 0.82129 0.41512 0.75610
 C3175 C 0.83780 0.41567 0.74678
 C3176 C 0.84749 0.43199 0.74486
 C3177 C 0.81154 0.39754 0.75899
 C3178 C 0.82135 0.38159 0.76297
 C3179 C 0.81230 0.36496 0.76527
 C3180 C 0.79332 0.36397 0.76370
 C3181 C 0.78340 0.37979 0.76000
 C3182 C 0.79243 0.39648 0.75772
 C3183 C 0.78426 0.34652 0.76455
 C3184 C 0.77702 0.33173 0.76433
 H3185 H 0.81900 0.46002 0.76699
 H3186 H 0.80190 0.43144 0.77038
 H3187 H 0.84329 0.40343 0.74107
 H3188 H 0.86040 0.43200 0.73804
 H3189 H 0.83603 0.38198 0.76433
 H3190 H 0.82015 0.35281 0.76803
 H3191 H 0.76872 0.37918 0.75855
 H3192 H 0.78450 0.40845 0.75452
 C3193 C 0.36198 0.97634 0.25409
 C3194 C 0.35216 0.96317 0.25287
 C3195 C 0.34109 0.94689 0.25265
 C3196 C 0.34802 0.93083 0.24562
 C3197 C 0.33825 0.91452 0.24718
 C3198 C 0.32138 0.91399 0.25587
 C3199 C 0.31429 0.93029 0.26250
 C3200 C 0.32411 0.94661 0.26095
 C3201 C 0.31151 0.89641 0.25837
 C3202 C 0.29245 0.89538 0.25640
 C3203 C 0.28331 0.87872 0.25833
 C3204 C 0.29306 0.86287 0.26237
 C3205 C 0.31197 0.86383 0.26466
 C3206 C 0.32113 0.88045 0.26270
 C3207 C 0.28393 0.84544 0.26292
 C3208 C 0.27667 0.83067 0.26251
 H3209 H 0.36119 0.93083 0.23927
 H3210 H 0.34395 0.90228 0.24167
 H3211 H 0.30144 0.93033 0.26940
 H3212 H 0.31869 0.95890 0.26664
 H3213 H 0.28466 0.90737 0.25292
 H3214 H 0.26869 0.87813 0.25635
 H3215 H 0.31970 0.85167 0.26771
 H3216 H 0.33575 0.88082 0.26462
 C3217 C 0.13466 0.96970 0.74818
 C3218 C 0.14376 0.95650 0.74503
 C3219 C 0.15432 0.94039 0.74181
 C3220 C 0.16988 0.93678 0.75208
 C3221 C 0.17949 0.92060 0.74980
 C3222 C 0.17366 0.90772 0.73722
 C3223 C 0.15816 0.91162 0.72676
 C3224 C 0.14857 0.92782 0.72906
 C3225 C 0.18333 0.89007 0.73551
 C3226 C 0.17347 0.87377 0.73317
 C3227 C 0.18247 0.85706 0.73255
 C3228 C 0.20146 0.85637 0.73419
 C3229 C 0.21142 0.87253 0.73620
 C3230 C 0.20244 0.88926 0.73683
 C3231 C 0.21059 0.83904 0.73476
 C3232 C 0.21814 0.82451 0.73582
 H3233 H 0.17440 0.94631 0.76208
 H3234 H 0.19119 0.91793 0.75824
 H3235 H 0.15342 0.90212 0.71683
 H3236 H 0.13653 0.93043 0.72105
 H3237 H 0.15874 0.87386 0.73236
 H3238 H 0.17459 0.84465 0.73112
 H3239 H 0.22611 0.87219 0.73751
 H3240 H 0.21046 0.90155 0.73841
 C3241 C 0.63651 0.46947 0.24913
 C3242 C 0.64576 0.45629 0.24629
 C3243 C 0.65649 0.44021 0.24344
 C3244 C 0.67091 0.43597 0.25498
 C3245 C 0.68065 0.41983 0.25294
 C3246 C 0.67607 0.40761 0.23931
 C3247 C 0.66172 0.41212 0.22761
 C3248 C 0.65200 0.42829 0.22968
 C3249 C 0.68584 0.38999 0.23773
 C3250 C 0.67623 0.37391 0.23367
 C3251 C 0.68523 0.35720 0.23308
 C3252 C 0.70397 0.35628 0.23648
 C3253 C 0.71372 0.37223 0.24024
 C3254 C 0.70475 0.38897 0.24085
 C3255 C 0.71298 0.33887 0.23699
 C3256 C 0.72031 0.32422 0.23795
 H3257 H 0.67443 0.44500 0.26577
 H3258 H 0.69142 0.41668 0.26234
 H3259 H 0.65798 0.40314 0.21686
 H3260 H 0.64085 0.43138 0.22067
 H3261 H 0.66165 0.37414 0.23146
 H3262 H 0.67749 0.34494 0.23029
 H3263 H 0.72823 0.37172 0.24294
 H3264 H 0.71260 0.40110 0.24379
 C3265 C 0.63874 0.53257 0.24954
 C3266 C 0.64878 0.54553 0.24798
 C3267 C 0.66009 0.56163 0.24736
 C3268 C 0.67605 0.56258 0.25762
 C3269 C 0.68586 0.57892 0.25875
 C3270 C 0.67978 0.59460 0.24970
 C3271 C 0.66396 0.59337 0.23907
 C3272 C 0.65419 0.57702 0.23794
 C3273 C 0.68957 0.61227 0.25170
 C3274 C 0.67979 0.62858 0.25324
 C3275 C 0.68893 0.64524 0.25490
 C3276 C 0.70798 0.64587 0.25509
 C3277 C 0.71785 0.62970 0.25374
 C3278 C 0.70872 0.61301 0.25211
 C3279 C 0.71732 0.66318 0.25551
 C3280 C 0.72505 0.67771 0.25500
 H3281 H 0.68063 0.55083 0.26515
 H3282 H 0.69786 0.57944 0.26718
 H3283 H 0.65907 0.60510 0.23171
 H3284 H 0.64179 0.57651 0.23006
 H3285 H 0.66505 0.62846 0.25327
 H3286 H 0.68113 0.65765 0.25584
 H3287 H 0.73259 0.63002 0.25368
 H3288 H 0.71665 0.60074 0.25077
 C3289 C 0.13750 0.03281 0.74969
 C3290 C 0.14752 0.04578 0.74813
 C3291 C 0.15882 0.06188 0.74745
 C3292 C 0.15300 0.07718 0.73785
 C3293 C 0.16280 0.09352 0.73885
 C3294 C 0.17857 0.09483 0.74953
 C3295 C 0.18457 0.07924 0.75879
 C3296 C 0.17472 0.06292 0.75779
 C3297 C 0.18841 0.11249 0.75138
 C3298 C 0.20756 0.11317 0.75189
 C3299 C 0.21674 0.12984 0.75340
 C3300 C 0.20692 0.14606 0.75451
 C3301 C 0.18787 0.14550 0.75422
 C3302 C 0.17868 0.12886 0.75269
 C3303 C 0.21634 0.16333 0.75485
 C3304 C 0.22415 0.17782 0.75430
 H3305 H 0.14064 0.07661 0.72991
 H3306 H 0.15797 0.10518 0.73134
 H3307 H 0.19652 0.07983 0.76727
 H3308 H 0.17924 0.05124 0.76546
 H3309 H 0.21546 0.10085 0.75074
 H3310 H 0.23149 0.13011 0.75344
 H3311 H 0.18011 0.15796 0.75500
 H3312 H 0.16394 0.12880 0.75263
 C3313 C 0.36072 0.03894 0.25150
 C3314 C 0.35063 0.05127 0.24755
 C3315 C 0.33879 0.06628 0.24314
 C3316 C 0.32437 0.07062 0.25430
 C3317 C 0.31340 0.08568 0.25054
 C3318 C 0.31668 0.09669 0.23553
 C3319 C 0.33106 0.09206 0.22425
 C3320 C 0.34202 0.07697 0.22804
 C3321 C 0.30560 0.11329 0.23212
 C3322 C 0.31391 0.12954 0.22626
 C3323 C 0.30375 0.14549 0.22432
 C3324 C 0.28513 0.14546 0.22811
 C3325 C 0.27664 0.12927 0.23348
 C3326 C 0.28676 0.11329 0.23545
 C3327 C 0.27517 0.16233 0.22804
 C3328 C 0.26721 0.17662 0.22899
 H3329 H 0.32179 0.06252 0.26608
 H3330 H 0.30265 0.08900 0.25965
 H3331 H 0.33383 0.10011 0.21250
 H3332 H 0.35313 0.07376 0.21929
 H3333 H 0.32840 0.13009 0.22382
 H3334 H 0.31055 0.15798 0.22034
 H3335 H 0.26226 0.12907 0.23656
 H3336 H 0.27989 0.10098 0.23974
 C3337 C 0.86133 0.54022 0.75021
 C3338 C 0.85151 0.55278 0.74629
 C3339 C 0.84007 0.56809 0.74188
 C3340 C 0.82130 0.56571 0.73933
 C3341 C 0.81018 0.58073 0.73575
 C3342 C 0.81767 0.59838 0.73467
 C3343 C 0.83660 0.60057 0.73701
 C3344 C 0.84769 0.58554 0.74058
 C3345 C 0.80580 0.61453 0.73184
 C3346 C 0.81159 0.62930 0.72127
 C3347 C 0.80099 0.64501 0.71970
 C3348 C 0.78441 0.64618 0.72861
 C3349 C 0.77832 0.63139 0.73879
 C3350 C 0.78890 0.61568 0.74038
 C3351 C 0.77444 0.66304 0.72862
 C3352 C 0.76648 0.67732 0.72963
 H3353 H 0.81524 0.55227 0.74027
 H3354 H 0.79571 0.57854 0.73382
 H3355 H 0.84280 0.61396 0.73655
 H3356 H 0.86218 0.58758 0.74260
 H3357 H 0.82441 0.62879 0.71434
 H3358 H 0.80592 0.65640 0.71186
 H3359 H 0.76563 0.63219 0.74591
 H3360 H 0.78414 0.60470 0.74882
 C3361 C 0.97519 0.74816 0.13703
 C3362 C 0.96392 0.74834 0.14845
 C3363 C 0.95002 0.74854 0.16162
 C3364 C 0.94600 0.76468 0.17040
 C3365 C 0.93132 0.76527 0.18198
 C3366 C 0.92048 0.74970 0.18483
 C3367 C 0.92503 0.73338 0.17638
 C3368 C 0.93972 0.73283 0.16483
 C3369 C 0.90367 0.75074 0.19538
 C3370 C 0.89849 0.73625 0.20656
 C3371 C 0.88159 0.73638 0.21488
 C3372 C 0.86976 0.75099 0.21213
 C3373 C 0.87506 0.76575 0.20156
 C3374 C 0.89193 0.76566 0.19323
 C3375 C 0.85166 0.75024 0.21898
 C3376 C 0.83623 0.74950 0.22410
 H3377 H 0.95394 0.77691 0.16797
 H3378 H 0.92822 0.77795 0.18845
 H3379 H 0.91678 0.72126 0.17810
 H3380 H 0.94269 0.72031 0.15799
 H3381 H 0.90735 0.72468 0.20858
 H3382 H 0.87756 0.72488 0.22304
 H3383 H 0.86592 0.77706 0.19927
 H3384 H 0.89543 0.77687 0.18449
 C3385 C 0.47501 0.25083 0.63615
 C3386 C 0.46341 0.25149 0.64723
 C3387 C 0.44920 0.25222 0.66005
 C3388 C 0.43643 0.26622 0.65913
 C3389 C 0.42170 0.26621 0.67065
 C3390 C 0.41957 0.25213 0.68320
 C3391 C 0.43278 0.23839 0.68437
 C3392 C 0.44751 0.23843 0.67282
 C3393 C 0.40291 0.25113 0.69403
 C3394 C 0.39373 0.23443 0.69622
 C3395 C 0.37697 0.23372 0.70473
 C3396 C 0.36923 0.24965 0.71117
 C3397 C 0.37853 0.26623 0.70960
 C3398 C 0.39531 0.26698 0.70109
 C3399 C 0.35117 0.24915 0.71816
 C3400 C 0.33578 0.24863 0.72339
 H3401 H 0.43760 0.27689 0.64920
 H3402 H 0.41160 0.27681 0.66925
 H3403 H 0.43156 0.22749 0.69403
 H3404 H 0.45736 0.22753 0.67360
 H3405 H 0.39911 0.22205 0.69069
 H3406 H 0.36978 0.22085 0.70578
 H3407 H 0.37259 0.27864 0.71452
 H3408 H 0.40219 0.27998 0.69975
 C3409 C 0.46419 0.75458 0.86423
 C3410 C 0.45290 0.75269 0.85274
 C3411 C 0.43903 0.75078 0.83938
 C3412 C 0.42478 0.73837 0.84192
 C3413 C 0.41038 0.73760 0.82976
 C3414 C 0.41006 0.74929 0.81491
 C3415 C 0.42472 0.76135 0.81220
 C3416 C 0.43912 0.76210 0.82439
 C3417 C 0.39386 0.74977 0.80310
 C3418 C 0.38661 0.76654 0.79749
 C3419 C 0.37025 0.76716 0.78796
 C3420 C 0.36098 0.75104 0.78388
 C3421 C 0.36838 0.73425 0.78886
 C3422 C 0.38475 0.73360 0.79840
 C3423 C 0.34321 0.75183 0.77591
 C3424 C 0.32801 0.75259 0.76989
 H3425 H 0.42456 0.72964 0.85356
 H3426 H 0.39915 0.72837 0.83235
 H3427 H 0.42491 0.77038 0.80079
 H3428 H 0.45011 0.77176 0.82235
 H3429 H 0.39316 0.77922 0.80113
 H3430 H 0.36453 0.78022 0.78427
 H3431 H 0.36126 0.72170 0.78579
 H3432 H 0.39013 0.72049 0.80238
 C3433 C 0.96525 0.25279 0.36453
 C3434 C 0.95377 0.25075 0.35324
 C3435 C 0.93967 0.24880 0.34011
 C3436 C 0.93276 0.26426 0.33156
 C3437 C 0.91798 0.26270 0.31991
 C3438 C 0.90993 0.24563 0.31668
 C3439 C 0.91734 0.23008 0.32493
 C3440 C 0.93213 0.23168 0.33661
 C3441 C 0.89308 0.24433 0.30581
 C3442 C 0.87855 0.23325 0.31148
 C3443 C 0.86195 0.23343 0.30233
 C3444 C 0.85969 0.24463 0.28742
 C3445 C 0.87423 0.25525 0.28132
 C3446 C 0.89087 0.25508 0.29045
 C3447 C 0.84206 0.24614 0.27922
 C3448 C 0.82702 0.24760 0.27296
 H3449 H 0.93846 0.27759 0.33429
 H3450 H 0.91241 0.27495 0.31398
 H3451 H 0.91153 0.21674 0.32255
 H3452 H 0.93741 0.21963 0.34319
 H3453 H 0.87975 0.22504 0.32340
 H3454 H 0.85071 0.22526 0.30721
 H3455 H 0.87258 0.26397 0.26978
 H3456 H 0.90190 0.26358 0.28568
 C3457 C 0.02516 0.25981 0.36592
 C3458 C 0.03823 0.25898 0.35652
 C3459 C 0.05410 0.25784 0.34571
 C3460 C 0.05961 0.27281 0.33549
 C3461 C 0.07553 0.27191 0.32558
 C3462 C 0.08611 0.25603 0.32584
 C3463 C 0.08031 0.24098 0.33598
 C3464 C 0.06440 0.24190 0.34586
 C3465 C 0.10329 0.25521 0.31582
 C3466 C 0.11881 0.24710 0.32347
 C3467 C 0.13500 0.24622 0.31402
 C3468 C 0.13588 0.25342 0.29685
 C3469 C 0.12054 0.26159 0.28914
 C3470 C 0.10432 0.26251 0.29858
 C3471 C 0.15249 0.25224 0.28713
 C3472 C 0.16645 0.25108 0.27906
 H3473 H 0.05174 0.28523 0.33537
 H3474 H 0.07978 0.28376 0.31803
 H3475 H 0.08805 0.22849 0.33623
 H3476 H 0.06020 0.23025 0.35373
 H3477 H 0.11848 0.24163 0.33682
 H3478 H 0.14684 0.23992 0.32010
 H3479 H 0.12110 0.26716 0.27582
 H3480 H 0.09252 0.26867 0.29231
 C3481 C 0.52576 0.75961 0.86878
 C3482 C 0.53902 0.75889 0.85963
 C3483 C 0.55507 0.75793 0.84904
 C3484 C 0.55839 0.77112 0.83599
 C3485 C 0.57428 0.77039 0.82602
 C3486 C 0.58702 0.75647 0.82906
 C3487 C 0.58347 0.74322 0.84213
 C3488 C 0.56758 0.74396 0.85206
 C3489 C 0.60401 0.75582 0.81873
 C3490 C 0.62062 0.75152 0.82715
 C3491 C 0.63663 0.75069 0.81740
 C3492 C 0.63622 0.75416 0.79917
 C3493 C 0.61980 0.75855 0.79068
 C3494 C 0.60376 0.75940 0.80040
 C3495 C 0.65265 0.75298 0.78916
 C3496 C 0.66646 0.75184 0.78085
 H3497 H 0.54878 0.78202 0.83363
 H3498 H 0.57676 0.78089 0.81618
 H3499 H 0.59291 0.73220 0.84457
 H3500 H 0.56508 0.73368 0.86213
 H3501 H 0.62125 0.74896 0.84129
 H3502 H 0.64931 0.74733 0.82408
 H3503 H 0.61937 0.76120 0.77654
 H3504 H 0.59113 0.76254 0.79356
 C3505 C 0.53503 0.24131 0.63448
 C3506 C 0.54709 0.23923 0.64514
 C3507 C 0.56194 0.23756 0.65747
 C3508 C 0.56439 0.25069 0.67059
 C3509 C 0.58001 0.25048 0.68124
 C3510 C 0.59339 0.23715 0.67882
 C3511 C 0.59046 0.22359 0.66605
 C3512 C 0.57482 0.22383 0.65540
 C3513 C 0.61090 0.23829 0.68859
 C3514 C 0.62736 0.23566 0.67963
 C3515 C 0.64397 0.23821 0.68838
 C3516 C 0.64433 0.24339 0.70615
 C3517 C 0.62806 0.24566 0.71531
 C3518 C 0.61139 0.24312 0.70658
 C3519 C 0.66144 0.24687 0.71477
 C3520 C 0.67590 0.24984 0.72177
 H3521 H 0.55453 0.26145 0.67217
 H3522 H 0.58201 0.26123 0.69080
 H3523 H 0.60045 0.21304 0.66406
 H3524 H 0.57303 0.21364 0.64523
 H3525 H 0.62739 0.23224 0.66571
 H3526 H 0.65654 0.23647 0.68119
 H3527 H 0.62824 0.24962 0.72910
 H3528 H 0.59892 0.24507 0.71382
 C3529 C 0.03501 0.73850 0.13277
 C3530 C 0.04739 0.73609 0.14303
 C3531 C 0.06254 0.73413 0.15495
 C3532 C 0.07642 0.72186 0.15118
 C3533 C 0.09223 0.72159 0.16158
 C3534 C 0.09433 0.73368 0.17581
 C3535 C 0.07998 0.74546 0.17991
 C3536 C 0.06419 0.74569 0.16950
 C3537 C 0.11189 0.73509 0.18545
 C3538 C 0.11238 0.73776 0.20387
 C3539 C 0.12897 0.74066 0.21263
 C3540 C 0.14517 0.74091 0.20306
 C3541 C 0.14486 0.73788 0.18481
 C3542 C 0.12832 0.73498 0.17604
 C3543 C 0.16213 0.74471 0.21182
 C3544 C 0.17647 0.74792 0.21894
 H3545 H 0.07525 0.71289 0.13990
 H3546 H 0.10299 0.71224 0.15828
 H3547 H 0.08131 0.75508 0.19063
 H3548 H 0.05356 0.75534 0.17241
 H3549 H 0.09995 0.73776 0.21146
 H3550 H 0.12914 0.74294 0.22679
 H3551 H 0.15736 0.73809 0.17732
 H3552 H 0.12833 0.73325 0.16181
   
