data_POSCAR
  _audit_creation_date              2014-09-24
  _audit_creation_method            'ToBaCCo'
  _symmetry_space_group_name_H-M    'P1'
  _symmetry_Int_Tables_number       1
  _symmetry_cell_setting            triclinic
  loop_
  _symmetry_equiv_pos_as_xyz
 x,y,z
_cell_length_a 64.9736
_cell_length_b 65.1048
_cell_length_c 64.8266
_cell_angle_alpha 89.649100
_cell_angle_beta 89.706200
_cell_angle_gamma 89.252900
loop_
  _atom_site_label
  _atom_site_type_symbol
  _atom_site_fract_x
  _atom_site_fract_y
  _atom_site_fract_z
C1 C 0.74713 0.61241 1.02682
 C2 C 0.75788 0.62096 1.01019
 C3 C 0.77716 0.62973 1.01334
 C4 C 0.78581 0.63056 1.03323
 C5 C 0.77486 0.62132 1.04970
 C6 C 0.75551 0.61210 1.04684
 C7 C 0.74870 0.62093 0.98941
 C8 C 0.72941 0.63027 0.98608
 C9 C 0.72065 0.63059 0.96633
 C10 C 0.73120 0.62089 0.95003
 C11 C 0.75044 0.61130 0.95317
 C12 C 0.75919 0.61159 0.97293
 H13 H 0.73269 0.60501 1.02362
 H14 H 0.78457 0.63705 1.00030
 H15 H 0.72157 0.63783 0.99879
 H16 H 0.77414 0.60449 0.97556
 H17 H 0.78141 0.62143 1.06494
 H18 H 0.72417 0.62042 0.93492
 C19 C 0.74132 0.39150 0.47032
 C20 C 0.75118 0.38285 0.48754
 C21 C 0.77091 0.37412 0.48533
 C22 C 0.78076 0.37376 0.46598
 C23 C 0.77074 0.38270 0.44889
 C24 C 0.75106 0.39170 0.45094
 C25 C 0.74085 0.38300 0.50788
 C26 C 0.72123 0.37454 0.51023
 C27 C 0.71132 0.37453 0.52954
 C28 C 0.72114 0.38355 0.54645
 C29 C 0.74070 0.39229 0.54426
 C30 C 0.75054 0.39172 0.52492
 H31 H 0.72602 0.39812 0.47209
 H32 H 0.77852 0.36752 0.49869
 H33 H 0.71375 0.36788 0.49700
 H34 H 0.76574 0.39815 0.52305
 H35 H 0.77826 0.38259 0.43394
 H36 H 0.71355 0.38373 0.56136
 C37 C 0.24535 -0.10928 -0.02582
 C38 C 0.25571 -0.11744 -0.00871
 C39 C 0.27580 -0.12530 -0.01106
 C40 C 0.28577 -0.12532 -0.03051
 C41 C 0.27497 -0.11672 -0.04745
 C42 C 0.25491 -0.10867 -0.04523
 C43 C 0.24560 -0.11735 0.01178
 C44 C 0.22612 -0.12607 0.01441
 C45 C 0.21627 -0.12638 0.03391
 C46 C 0.22647 -0.11703 0.05057
 C47 C 0.24589 -0.10809 0.04807
 C48 C 0.25543 -0.10852 0.02864
 H49 H 0.23001 -0.10284 -0.02382
 H50 H 0.28363 -0.13091 0.00257
 H51 H 0.21938 -0.13358 0.00127
 H52 H 0.27050 -0.10186 0.02655
 H53 H 0.28150 -0.11723 -0.06282
 H54 H 0.21896 -0.11561 0.06543
 C55 C 0.24363 0.11175 0.53011
 C56 C 0.25444 0.11998 0.51328
 C57 C 0.27374 0.12884 0.51639
 C58 C 0.28213 0.12986 0.53627
 C59 C 0.27126 0.12124 0.55294
 C60 C 0.25204 0.11208 0.55001
 C61 C 0.24537 0.11963 0.49248
 C62 C 0.22615 0.12901 0.48890
 C63 C 0.21763 0.12932 0.46904
 C64 C 0.22834 0.11953 0.45288
 C65 C 0.24752 0.10990 0.45627
 C66 C 0.25602 0.11021 0.47614
 H67 H 0.22887 0.10465 0.52756
 H68 H 0.28181 0.13562 0.50341
 H69 H 0.21821 0.13669 0.50148
 H70 H 0.27095 0.10315 0.47895
 H71 H 0.27771 0.12181 0.56830
 H72 H 0.22152 0.11909 0.43768
 C73 C 0.11368 0.52564 0.24266
 C74 C 0.12230 0.50861 0.25294
 C75 C 0.13186 0.51120 0.27202
 C76 C 0.13320 0.53076 0.28077
 C77 C 0.12424 0.54768 0.27048
 C78 C 0.11425 0.54549 0.25131
 C79 C 0.12172 0.48810 0.24342
 C80 C 0.13065 0.48485 0.22394
 C81 C 0.13062 0.46526 0.21499
 C82 C 0.12099 0.44907 0.22555
 C83 C 0.11180 0.45215 0.24497
 C84 C 0.11244 0.47172 0.25390
 H85 H 0.10710 0.52319 0.22759
 H86 H 0.13891 0.49805 0.27966
 H87 H 0.13821 0.49745 0.21612
 H88 H 0.10572 0.47429 0.26902
 H89 H 0.12432 0.56238 0.27816
 H90 H 0.12027 0.43409 0.21841
 C91 C -0.10213 -0.02692 0.24798
 C92 C -0.11145 -0.01043 0.25833
 C93 C -0.11961 -0.01342 0.27818
 C94 C -0.11887 -0.03291 0.28790
 C95 C -0.10909 -0.04922 0.27715
 C96 C -0.10073 -0.04636 0.25732
 C97 C -0.11265 0.01002 0.24833
 C98 C -0.12142 0.01224 0.22870
 C99 C -0.12281 0.03163 0.21885
 C100 C -0.11465 0.04871 0.22928
 C101 C -0.10574 0.04664 0.24891
 C102 C -0.10496 0.02723 0.25837
 H103 H -0.09553 -0.02444 0.23280
 H104 H -0.12617 -0.00022 0.28600
 H105 H -0.12668 -0.00145 0.22108
 H106 H -0.09830 0.02547 0.27358
 H107 H -0.10900 -0.06463 0.28346
 H108 H -0.11569 0.06393 0.22260
 C109 C 0.39707 0.47380 0.74561
 C110 C 0.38759 0.49034 0.75573
 C111 C 0.37909 0.48745 0.77546
 C112 C 0.37969 0.46799 0.78527
 C113 C 0.38963 0.45164 0.77474
 C114 C 0.39831 0.45441 0.75504
 C115 C 0.38662 0.51074 0.74560
 C116 C 0.37850 0.51281 0.72567
 C117 C 0.37756 0.53210 0.71588
 C118 C 0.38522 0.54931 0.72617
 C119 C 0.39357 0.54746 0.74607
 C120 C 0.39401 0.52809 0.75575
 H121 H 0.40392 0.47620 0.73052
 H122 H 0.37238 0.50065 0.78313
 H123 H 0.37285 0.49937 0.71784
 H124 H 0.40068 0.52635 0.77095
 H125 H 0.38959 0.43624 0.78109
 H126 H 0.38415 0.56432 0.71893
 C127 C 0.61539 1.02641 0.74769
 C128 C 0.62370 1.00956 0.75840
 C129 C 0.63194 1.01227 0.77814
 C130 C 0.63213 1.03185 0.78744
 C131 C 0.62339 1.04856 0.77632
 C132 C 0.61499 1.04595 0.75660
 C133 C 0.62351 0.98898 0.74894
 C134 C 0.63286 0.98575 0.72966
 C135 C 0.63286 0.96622 0.72058
 C136 C 0.62288 0.95004 0.73084
 C137 C 0.61327 0.95310 0.75007
 C138 C 0.61386 0.97263 0.75911
 H139 H 0.60914 1.02423 0.73240
 H140 H 0.63768 0.99883 0.78627
 H141 H 0.64063 0.99834 0.72204
 H142 H 0.60672 0.97519 0.77404
 H143 H 0.62352 1.06390 0.78257
 H144 H 0.62217 0.93513 0.72358
 C145 C -0.03208 0.24335 -0.11070
 C146 C -0.01559 0.25381 -0.11968
 C147 C -0.01885 0.27341 -0.12828
 C148 C -0.03865 0.28269 -0.12841
 C149 C -0.05490 0.27189 -0.11883
 C150 C -0.05176 0.25236 -0.10999
 C151 C 0.00507 0.24404 -0.12039
 C152 C 0.00772 0.22444 -0.12895
 C153 C 0.02729 0.21472 -0.12970
 C154 C 0.04410 0.22528 -0.12115
 C155 C 0.04159 0.24488 -0.11244
 C156 C 0.02204 0.25422 -0.11231
 H157 H -0.02941 0.22835 -0.10378
 H158 H -0.00599 0.28063 -0.13597
 H159 H -0.00580 0.21672 -0.13448
 H160 H 0.01994 0.26940 -0.10580
 H161 H -0.07013 0.27869 -0.11776
 H162 H 0.05943 0.21868 -0.12167
 C163 C 0.52576 0.24666 0.11297
 C164 C 0.50807 0.25713 0.11990
 C165 C 0.50968 0.27724 0.12733
 C166 C 0.52887 0.28689 0.12802
 C167 C 0.54643 0.27626 0.12082
 C168 C 0.54502 0.25620 0.11315
 C169 C 0.48782 0.24713 0.11906
 C170 C 0.48492 0.22794 0.12853
 C171 C 0.46562 0.21849 0.12808
 C172 C 0.44936 0.22823 0.11745
 C173 C 0.45210 0.24734 0.10769
 C174 C 0.47137 0.25678 0.10878
 H175 H 0.52436 0.23130 0.10683
 H176 H 0.49598 0.28534 0.13262
 H177 H 0.49755 0.22075 0.13685
 H178 H 0.47379 0.27142 0.10115
 H179 H 0.56135 0.28343 0.12168
 H180 H 0.43447 0.22098 0.11690
 C181 C 1.02741 0.74421 0.61000
 C182 C 1.01078 0.75488 0.61881
 C183 C 1.01386 0.77410 0.62787
 C184 C 1.03366 0.78279 0.62862
 C185 C 1.05009 0.77184 0.61917
 C186 C 1.04711 0.75269 0.60988
 C187 C 0.99015 0.74568 0.61887
 C188 C 0.98704 0.72650 0.62827
 C189 C 0.96739 0.71776 0.62868
 C190 C 0.95099 0.72822 0.61900
 C191 C 0.95394 0.74735 0.60934
 C192 C 0.97358 0.75608 0.60956
 H193 H 1.02494 0.72928 0.60321
 H194 H 1.00083 0.78145 0.63537
 H195 H 0.99981 0.71872 0.63582
 H196 H 0.97606 0.77096 0.60244
 H197 H 1.06520 0.77853 0.61801
 H198 H 0.93597 0.72121 0.61859
 C199 C 0.47229 0.74460 0.39299
 C200 C 0.48861 0.75500 0.38355
 C201 C 0.48516 0.77455 0.37492
 C202 C 0.46542 0.78363 0.37538
 C203 C 0.44928 0.77311 0.38518
 C204 C 0.45257 0.75361 0.39405
 C205 C 0.50926 0.74527 0.38262
 C206 C 0.51182 0.72559 0.37423
 C207 C 0.53135 0.71611 0.37345
 C208 C 0.54832 0.72647 0.38159
 C209 C 0.54594 0.74611 0.39025
 C210 C 0.52635 0.75549 0.39045
 H211 H 0.47513 0.72966 0.39995
 H212 H 0.49771 0.78232 0.36720
 H213 H 0.49854 0.71767 0.36830
 H214 H 0.52431 0.77072 0.39688
 H215 H 0.43404 0.78005 0.38573
 H216 H 0.56341 0.71922 0.38121
 C217 C 0.40760 -0.01700 0.27704
 H218 H 0.40884 -0.00157 0.28298
 C219 C 0.41746 -0.03339 0.28719
 H220 H 0.42629 -0.03045 0.30095
 C221 C 0.39324 -0.03978 0.25283
 H222 H 0.38330 -0.04241 0.23986
 C223 C 0.40284 -0.05652 0.26240
 H224 H 0.40054 -0.07175 0.25628
 N225 N 0.39550 -0.02050 0.26039
 C226 C 0.38293 0.03712 0.22793
 H227 H 0.36637 0.03575 0.22738
 C228 C 0.39234 0.05407 0.21898
 H229 H 0.38290 0.06562 0.21135
 C230 C 0.41524 0.02344 0.23841
 H231 H 0.42402 0.01143 0.24605
 C232 C 0.42537 0.04020 0.22948
 H233 H 0.44197 0.04109 0.23045
 Zn234 Zn 0.37880 0.00112 0.24975
 N235 N 0.39435 0.02244 0.23772
 C236 C 0.36459 0.03195 0.27710
 N237 N 0.36297 0.01180 0.27198
 C238 C 0.35094 -0.00111 0.28320
 C239 C 0.33952 0.00625 0.30000
 C240 C 0.35343 0.03995 0.29369
 C241 C 0.37123 -0.01489 0.21095
 C242 C 0.35990 -0.02268 0.19462
 C243 C 0.32889 -0.01773 0.21482
 C244 C 0.34085 -0.00998 0.23079
 N245 N 0.36166 -0.00900 0.22869
 H246 H 0.37474 0.04187 0.26852
 H247 H 0.35024 -0.01717 0.27907
 H248 H 0.32979 -0.00418 0.30857
 H249 H 0.35514 0.05598 0.29761
 H250 H 0.38778 -0.01375 0.20962
 H251 H 0.36791 -0.02775 0.18084
 H252 H 0.31235 -0.01839 0.21672
 H253 H 0.33347 -0.00476 0.24481
 C254 C 0.41380 0.05593 0.21990
 C255 C 0.41468 -0.05354 0.28016
 C256 C 0.33844 -0.02429 0.19647
 C257 C 0.34062 0.02709 0.30535
 C258 C 0.09766 1.01961 0.78464
 H259 H 0.10632 1.00897 0.79415
 C260 C 0.08632 1.03537 0.79402
 H261 H 0.08684 1.03687 0.81063
 C262 C 0.08700 1.03096 0.75157
 H263 H 0.08733 1.02929 0.73504
 C264 C 0.07544 1.04695 0.76031
 H265 H 0.06691 1.05735 0.75034
 N266 N 0.09838 1.01808 0.76372
 C267 C 0.11470 0.96489 0.72641
 H268 H 0.13103 0.96759 0.72486
 C269 C 0.10596 0.94812 0.71672
 H270 H 0.11566 0.93807 0.70749
 C271 C 0.08230 0.97489 0.74034
 H272 H 0.07327 0.98533 0.74976
 C273 C 0.07286 0.95825 0.73080
 H274 H 0.05653 0.95589 0.73303
 Zn275 Zn 0.11708 0.99888 0.75150
 N276 N 0.10292 0.97766 0.73818
 C277 C 0.13351 0.96659 0.77609
 N278 N 0.13413 0.98718 0.77245
 C279 C 0.14596 0.99959 0.78419
 C280 C 0.15783 0.99138 0.80023
 C281 C 0.14511 0.95775 0.79195
 C282 C 0.12362 1.01737 0.71307
 C283 C 0.13439 1.02695 0.69711
 C284 C 0.16504 1.02532 0.71798
 C285 C 0.15365 1.01577 0.73358
 N286 N 0.13322 1.01227 0.73102
 H287 H 0.12379 0.95695 0.76693
 H288 H 0.14584 1.01599 0.78136
 H289 H 0.16681 1.00157 0.80964
 H290 H 0.14447 0.94131 0.79447
 H291 H 0.10764 1.01356 0.71092
 H292 H 0.12647 1.03063 0.68288
 H293 H 0.18120 1.02827 0.72044
 H294 H 0.16127 1.01110 0.74761
 C295 C 0.08484 0.94444 0.71908
 C296 C 0.07546 1.04965 0.78179
 C297 C 0.15537 1.03114 0.69948
 C298 C 0.15740 0.97018 0.80434
 C299 C 0.58841 0.51747 0.27524
 H300 H 0.58754 0.50163 0.28029
 C301 C 0.57761 0.53279 0.28598
 H302 H 0.56816 0.52860 0.29911
 C303 C 0.60238 0.54228 0.25244
 H304 H 0.61256 0.54609 0.23983
 C305 C 0.59179 0.55801 0.26261
 H306 H 0.59398 0.57373 0.25760
 N307 N 0.60057 0.52245 0.25886
 C308 C 0.61237 0.46795 0.22178
 H309 H 0.62894 0.46912 0.22082
 C310 C 0.60239 0.45250 0.21113
 H311 H 0.61144 0.44164 0.20220
 C312 C 0.58058 0.48063 0.23493
 H313 H 0.57219 0.49179 0.24407
 C314 C 0.56993 0.46526 0.22459
 H315 H 0.55333 0.46468 0.22584
 Zn316 Zn 0.61727 0.50178 0.24655
 N317 N 0.60145 0.48154 0.23347
 C318 C 0.63234 0.46899 0.27137
 N319 N 0.63340 0.48953 0.26765
 C320 C 0.64514 0.50185 0.27955
 C321 C 0.65666 0.49352 0.29578
 C322 C 0.64358 0.46004 0.28743
 C323 C 0.62445 0.52100 0.20883
 C324 C 0.63570 0.52987 0.19279
 C325 C 0.66690 0.52269 0.21180
 C326 C 0.65502 0.51396 0.22752
 N327 N 0.63417 0.51353 0.22587
 H328 H 0.62263 0.45949 0.26203
 H329 H 0.64540 0.51820 0.27650
 H330 H 0.66571 0.50361 0.30525
 H331 H 0.64269 0.44362 0.28999
 H332 H 0.60788 0.52010 0.20777
 H333 H 0.62766 0.53563 0.17932
 H334 H 0.68345 0.52325 0.21352
 H335 H 0.66249 0.50758 0.24099
 C336 C 0.58089 0.45099 0.21245
 C337 C 0.57938 0.55341 0.27977
 C338 C 0.65722 0.53091 0.19420
 C339 C 0.65591 0.47234 0.29994
 C340 C 0.90506 0.48116 0.77257
 H341 H 0.90628 0.49659 0.77852
 C342 C 0.91491 0.46478 0.78273
 H343 H 0.92371 0.46773 0.79651
 C344 C 0.89075 0.45838 0.74832
 H345 H 0.88085 0.45576 0.73532
 C346 C 0.90036 0.44165 0.75790
 H347 H 0.89811 0.42642 0.75176
 N348 N 0.89300 0.47766 0.75589
 C349 C 0.88112 0.53505 0.72286
 H350 H 0.86455 0.53379 0.72205
 C351 C 0.89078 0.55193 0.71406
 H352 H 0.88155 0.56354 0.70626
 C353 C 0.91316 0.52125 0.73400
 H354 H 0.92172 0.50925 0.74189
 C355 C 0.92353 0.53794 0.72526
 H356 H 0.94010 0.53878 0.72661
 Zn357 Zn 0.87648 0.49936 0.74518
 N358 N 0.89227 0.52037 0.73294
 C359 C 0.86282 0.53064 0.77224
 N360 N 0.86096 0.51045 0.76742
 C361 C 0.84897 0.49778 0.77897
 C362 C 0.83790 0.50544 0.79587
 C363 C 0.85201 0.53893 0.78892
 C364 C 0.86833 0.48318 0.70652
 C365 C 0.85672 0.47543 0.69038
 C366 C 0.82601 0.48080 0.71092
 C367 C 0.83824 0.48851 0.72670
 N368 N 0.85903 0.48927 0.72434
 H369 H 0.87292 0.54037 0.76339
 H370 H 0.84807 0.48168 0.77506
 H371 H 0.82823 0.49521 0.80474
 H372 H 0.85394 0.55499 0.79261
 H373 H 0.88488 0.48415 0.70499
 H374 H 0.86451 0.47021 0.67653
 H375 H 0.80948 0.48033 0.71302
 H376 H 0.83108 0.49387 0.74077
 C377 C 0.91222 0.55372 0.71546
 C378 C 0.91218 0.44463 0.77568
 C379 C 0.83526 0.47406 0.69249
 C380 C 0.83929 0.52632 0.80096
 C381 C 0.27435 0.40379 -0.02241
 H382 H 0.27964 0.40445 -0.00663
 C383 C 0.28511 0.41409 -0.03800
 H384 H 0.29869 0.42267 -0.03408
 C385 C 0.25111 0.39052 -0.04685
 H386 H 0.23825 0.38087 -0.05041
 C387 C 0.26134 0.40059 -0.06286
 H388 H 0.25583 0.39893 -0.07849
 N389 N 0.25784 0.39209 -0.02710
 C390 C 0.22323 0.37964 0.02922
 H391 H 0.22216 0.36318 0.02739
 C392 C 0.21428 0.38907 0.04632
 H393 H 0.20611 0.37976 0.05750
 C394 C 0.23516 0.41164 0.01667
 H395 H 0.24339 0.42030 0.00506
 C396 C 0.22631 0.42178 0.03360
 H397 H 0.22796 0.43824 0.03504
 Zn398 Zn 0.24617 0.37531 -0.00626
 N399 N 0.23377 0.39088 0.01506
 C400 C 0.27248 0.36071 0.02529
 N401 N 0.26778 0.35893 0.00496
 C402 C 0.27926 0.34674 -0.00775
 C403 C 0.29614 0.33561 -0.00004
 C404 C 0.28917 0.34992 0.03360
 C405 C 0.20798 0.36913 -0.02397
 C406 C 0.19152 0.35839 -0.03215
 C407 C 0.21058 0.32674 -0.02663
 C408 C 0.22672 0.33812 -0.01851
 N409 N 0.22520 0.35895 -0.01753
 H410 H 0.26357 0.37083 0.03510
 H411 H 0.27549 0.34594 -0.02396
 H412 H 0.30532 0.32625 -0.01044
 H413 H 0.29253 0.35150 0.04985
 H414 H 0.20711 0.38569 -0.02281
 H415 H 0.17811 0.36687 -0.03752
 H416 H 0.21195 0.31016 -0.02716
 H417 H 0.24034 0.33027 -0.01288
 C418 C 0.21604 0.41035 0.04888
 C419 C 0.27887 0.41219 -0.05862
 C420 C 0.19267 0.33690 -0.03357
 C421 C 0.30137 0.33729 0.02088
 C422 C 0.76697 0.08311 1.02478
 H423 H 0.76401 0.07533 1.01046
 C424 C 0.77664 0.07243 1.04094
 H425 H 0.78102 0.05647 1.03892
 C426 C 0.76474 0.11320 1.04509
 H427 H 0.76003 0.12910 1.04667
 C428 C 0.77415 0.10312 1.06160
 H429 H 0.77692 0.11152 1.07566
 N430 N 0.76143 0.10321 1.02707
 C431 C 0.71490 0.10476 0.98336
 H432 H 0.70605 0.11487 0.99322
 C433 C 0.70503 0.09486 0.96726
 H434 H 0.68863 0.09718 0.96529
 C435 C 0.74693 0.08993 0.97355
 H436 H 0.76340 0.08865 0.97567
 C437 C 0.73766 0.07980 0.95711
 H438 H 0.74712 0.07068 0.94676
 Zn439 Zn 0.74864 0.11912 1.00601
 N440 N 0.73555 0.10244 0.98606
 C441 C 0.76958 0.13674 0.97185
 N442 N 0.76874 0.13563 0.99280
 C443 C 0.78235 0.14598 1.00461
 C444 C 0.79794 0.15747 0.99541
 C445 C 0.78494 0.14803 0.96200
 C446 C 0.71520 0.12709 1.03211
 C447 C 0.69977 0.13871 1.04172
 C448 C 0.71234 0.16885 1.02400
 C449 C 0.72759 0.15663 1.01474
 N450 N 0.72860 0.13614 1.01881
 H451 H 0.75833 0.12890 0.96268
 H452 H 0.78133 0.14512 1.02122
 H453 H 0.80894 0.16512 1.00511
 H454 H 0.78533 0.14872 0.94531
 H455 H 0.71638 0.11074 1.03503
 H456 H 0.68896 0.13111 1.05188
 H457 H 0.71174 0.18515 1.02061
 H458 H 0.73846 0.16348 1.00413
 C459 C 0.71649 0.08260 0.95354
 C460 C 0.78029 0.08249 1.05966
 C461 C 0.69812 0.15987 1.03763
 C462 C 0.79952 0.15842 0.97381
 C463 C 0.27838 0.58813 0.51723
 H464 H 0.28434 0.58711 0.50165
 C465 C 0.28882 0.57828 0.53341
 H466 H 0.30281 0.56966 0.53013
 C467 C 0.25383 0.60197 0.54063
 H468 H 0.24060 0.61172 0.54359
 C469 C 0.26368 0.59235 0.55717
 H470 H 0.25753 0.59443 0.57258
 N471 N 0.26141 0.59996 0.52114
 C472 C 0.22908 0.61246 0.46356
 H473 H 0.22804 0.62898 0.46511
 C474 C 0.22060 0.60303 0.44645
 H475 H 0.21284 0.61241 0.43495
 C476 C 0.24031 0.58028 0.47696
 H477 H 0.24805 0.57156 0.48894
 C478 C 0.23186 0.57013 0.46005
 H479 H 0.23330 0.55359 0.45898
 Zn480 Zn 0.25033 0.61664 0.49977
 N481 N 0.23902 0.60112 0.47818
 C482 C 0.27755 0.63142 0.46904
 N483 N 0.27204 0.63288 0.48925
 C484 C 0.28259 0.64500 0.50243
 C485 C 0.29916 0.65659 0.49529
 C486 C 0.29400 0.64268 0.46128
 C487 C 0.21139 0.62340 0.51649
 C488 C 0.19482 0.63437 0.52486
 C489 C 0.21377 0.66569 0.51974
 C490 C 0.23003 0.65409 0.51146
 N491 N 0.22869 0.63329 0.51034
 H492 H 0.26939 0.62133 0.45887
 H493 H 0.27820 0.64553 0.51854
 H494 H 0.30751 0.66601 0.50603
 H495 H 0.29794 0.64146 0.44508
 H496 H 0.21061 0.60688 0.51506
 H497 H 0.18120 0.62618 0.52969
 H498 H 0.21528 0.68218 0.52098
 H499 H 0.24372 0.66172 0.50608
 C500 C 0.22214 0.58164 0.44438
 C501 C 0.28174 0.58077 0.55377
 C502 C 0.19595 0.65579 0.52677
 C503 C 0.30508 0.65545 0.47445
 C504 C 0.77679 0.90640 0.48221
 H505 H 0.78218 0.90697 0.49795
 C506 C 0.78776 0.91635 0.46652
 H507 H 0.80157 0.92460 0.47034
 C508 C 0.75317 0.89355 0.45789
 H509 H 0.74010 0.88416 0.45440
 C510 C 0.76359 0.90328 0.44181
 H511 H 0.75801 0.90164 0.42620
 N512 N 0.76003 0.89502 0.47761
 C513 C 0.72518 0.88221 0.53375
 H514 H 0.72386 0.86582 0.53159
 C515 C 0.71630 0.89144 0.55099
 H516 H 0.70793 0.88205 0.56194
 C517 C 0.73771 0.91425 0.52190
 H518 H 0.74617 0.92298 0.51053
 C519 C 0.72895 0.92418 0.53901
 H520 H 0.73087 0.94057 0.54079
 Zn521 Zn 0.74831 0.87819 0.49837
 N522 N 0.73598 0.89355 0.51987
 C523 C 0.77416 0.86245 0.52985
 N524 N 0.76982 0.86158 0.50937
 C525 C 0.78143 0.84986 0.49634
 C526 C 0.79795 0.83811 0.50388
 C527 C 0.79045 0.85094 0.53803
 C528 C 0.71006 0.87188 0.48057
 C529 C 0.69382 0.86101 0.47212
 C530 C 0.71330 0.82956 0.47736
 C531 C 0.72919 0.84105 0.48576
 N532 N 0.72739 0.86185 0.48696
 H533 H 0.76526 0.87233 0.53989
 H534 H 0.77789 0.84973 0.48005
 H535 H 0.80691 0.82871 0.49334
 H536 H 0.79381 0.85211 0.55432
 H537 H 0.70896 0.88841 0.48192
 H538 H 0.68033 0.86935 0.46675
 H539 H 0.71492 0.81301 0.47662
 H540 H 0.74288 0.83331 0.49137
 C541 C 0.71841 0.91263 0.55400
 C542 C 0.78144 0.91442 0.44593
 C543 C 0.69532 0.83956 0.47038
 C544 C 0.80259 0.83855 0.52502
 C545 C -0.02233 0.28514 0.39828
 H546 H -0.01158 0.29442 0.38969
 C547 C -0.03833 0.29476 0.40912
 H548 H -0.03990 0.31131 0.40831
 C549 C -0.03371 0.25242 0.40919
 H550 H -0.03197 0.23593 0.40913
 C551 C -0.04995 0.26140 0.42027
 H552 H -0.06046 0.25165 0.42871
 N553 N -0.02066 0.26429 0.39793
 C554 C 0.03351 0.22702 0.38319
 H555 H 0.03087 0.22531 0.36683
 C556 C 0.05049 0.21748 0.39231
 H557 H 0.06075 0.20821 0.38288
 C558 C 0.02312 0.24119 0.41526
 H559 H 0.01245 0.25064 0.42400
 C560 C 0.03998 0.23182 0.42508
 H561 H 0.04227 0.23419 0.44142
 Zn562 Zn -0.00105 0.25185 0.37982
 N563 N 0.02044 0.23884 0.39461
 C564 C 0.03090 0.27614 0.36321
 N565 N 0.01035 0.27248 0.36236
 C566 C -0.00224 0.28402 0.35005
 C567 C 0.00577 0.29986 0.33791
 C568 C 0.03954 0.29176 0.35132
 C569 C -0.01835 0.21333 0.37404
 C570 C -0.02702 0.19700 0.36350
 C571 C -0.02597 0.21730 0.33223
 C572 C -0.01726 0.23328 0.34340
 N573 N -0.01385 0.23114 0.36401
 H574 H 0.04064 0.26726 0.37344
 H575 H -0.01860 0.28113 0.34993
 H576 H -0.00448 0.30882 0.32818
 H577 H 0.05586 0.29465 0.35258
 H578 H -0.01475 0.21160 0.39022
 H579 H -0.03064 0.18306 0.37189
 H580 H -0.02834 0.21919 0.31581
 H581 H -0.01301 0.24719 0.33545
 C582 C 0.05408 0.22004 0.41346
 C583 C -0.05274 0.28283 0.41987
 C584 C -0.03092 0.19883 0.34229
 C585 C 0.02694 0.30392 0.33850
 C586 C 1.01815 0.77731 0.08911
 H587 H 1.00238 0.78284 0.08877
 C588 C 1.03332 0.78757 0.07781
 H589 H 1.02905 0.80081 0.06852
 C590 C 1.04302 0.75384 0.10232
 H591 H 1.04696 0.74118 0.11244
 C592 C 1.05860 0.76353 0.09123
 H593 H 1.07432 0.75810 0.09297
 N594 N 1.02326 0.76088 0.10119
 C595 C 0.96721 0.72763 0.11583
 H596 H 0.96914 0.72685 0.13239
 C597 C 0.95020 0.71865 0.10677
 H598 H 0.93915 0.71079 0.11647
 C599 C 0.97958 0.73860 0.08317
 H600 H 0.99114 0.74638 0.07409
 C601 C 0.96275 0.72968 0.07339
 H602 H 0.96133 0.73086 0.05680
 Zn603 Zn 1.00300 0.74961 0.11889
 N604 N 0.98127 0.73767 0.10407
 C605 C 0.97213 0.77638 0.13467
 N606 N 0.99248 0.77128 0.13545
 C607 C 1.00577 0.78222 0.14708
 C608 C 0.99864 0.79882 0.15882
 C609 C 0.96437 0.79284 0.14610
 C610 C 1.02123 0.71126 0.12521
 C611 C 1.03020 0.69490 0.13602
 C612 C 1.02520 0.71387 0.16762
 C613 C 1.01633 0.72991 0.15616
 N614 N 1.01480 0.72844 0.13530
 H615 H 0.96185 0.76790 0.12497
 H616 H 1.02196 0.77813 0.14709
 H617 H 1.00947 0.80750 0.16780
 H618 H 0.94808 0.79648 0.14541
 H619 H 1.01947 0.71036 0.10865
 H620 H 1.03515 0.68135 0.12767
 H621 H 1.02667 0.71545 0.18416
 H622 H 1.01074 0.74351 0.16396
 C623 C 0.94765 0.71980 0.08531
 C624 C 1.05392 0.78082 0.07900
 C625 C 1.03241 0.69613 0.15751
 C626 C 0.97767 0.80436 0.15834
 C627 C 0.51578 0.27526 0.59060
 H628 H 0.49991 0.28049 0.59054
 C629 C 0.53054 0.28576 0.57900
 H630 H 0.52584 0.29888 0.56973
 C631 C 0.54133 0.25232 0.60345
 H632 H 0.54568 0.23977 0.61354
 C633 C 0.55652 0.26228 0.59205
 H634 H 0.57237 0.25716 0.59353
 N635 N 0.52142 0.25898 0.60265
 C636 C 0.46625 0.22485 0.61854
 H637 H 0.46853 0.22411 0.63505
 C638 C 0.44916 0.21567 0.60983
 H639 H 0.43842 0.20767 0.61976
 C640 C 0.47778 0.23602 0.58563
 H641 H 0.48901 0.24398 0.57632
 C642 C 0.46084 0.22693 0.57622
 H643 H 0.45903 0.22817 0.55966
 Zn644 Zn 0.50168 0.24755 0.62080
 N645 N 0.47992 0.23510 0.60649
 C646 C 0.47065 0.27401 0.63678
 N647 N 0.49110 0.26927 0.63722
 C648 C 0.50446 0.28071 0.64826
 C649 C 0.49733 0.29753 0.65968
 C650 C 0.46289 0.29067 0.64792
 C651 C 0.52070 0.20959 0.62740
 C652 C 0.53004 0.19354 0.63836
 C653 C 0.52511 0.21292 0.66971
 C654 C 0.51588 0.22865 0.65811
 N655 N 0.51411 0.22682 0.63731
 H656 H 0.46031 0.26511 0.62754
 H657 H 0.52071 0.27689 0.64799
 H658 H 0.50822 0.30663 0.66815
 H659 H 0.44654 0.29405 0.64749
 H660 H 0.51876 0.20840 0.61089
 H661 H 0.53509 0.17992 0.63017
 H662 H 0.52674 0.21478 0.68620
 H663 H 0.51016 0.24228 0.66576
 C664 C 0.44611 0.21687 0.58844
 C665 C 0.55127 0.27943 0.57986
 C666 C 0.53246 0.19512 0.65980
 C667 C 0.47628 0.30275 0.65950
 C668 C 0.48447 0.77804 0.90931
 H669 H 0.50026 0.78310 0.90958
 C670 C 0.46941 0.78851 0.92078
 H671 H 0.47377 0.80146 0.93013
 C672 C 0.45946 0.75549 0.89617
 H673 H 0.45542 0.74310 0.88605
 C674 C 0.44398 0.76541 0.90745
 H675 H 0.42824 0.76042 0.90583
 N676 N 0.47925 0.76194 0.89721
 C677 C 0.53453 0.72624 0.88251
 H678 H 0.53222 0.72530 0.86603
 C679 C 0.55168 0.71681 0.89142
 H680 H 0.56241 0.70840 0.88169
 C681 C 0.52314 0.73829 0.91511
 H682 H 0.51197 0.74676 0.92421
 C683 C 0.54015 0.72898 0.92473
 H684 H 0.54207 0.73052 0.94123
 Zn685 Zn 0.49939 0.75014 0.87950
 N686 N 0.52093 0.73707 0.89430
 C687 C 0.53093 0.77546 0.86387
 N688 N 0.51043 0.77160 0.86308
 C689 C 0.49752 0.78357 0.85156
 C690 C 0.50522 0.79994 0.83990
 C691 C 0.53926 0.79158 0.85245
 C692 C 0.48080 0.71256 0.87290
 C693 C 0.47185 0.69665 0.86194
 C694 C 0.47699 0.71607 0.83049
 C695 C 0.48584 0.73166 0.84209
 N696 N 0.48733 0.72973 0.86294
 H697 H 0.54090 0.76628 0.87360
 H698 H 0.48121 0.78042 0.85149
 H699 H 0.49476 0.80918 0.83065
 H700 H 0.55558 0.79452 0.85356
 H701 H 0.48253 0.71128 0.88945
 H702 H 0.46688 0.68307 0.87018
 H703 H 0.47561 0.71799 0.81395
 H704 H 0.49148 0.74525 0.83440
 C705 C 0.55487 0.71838 0.91274
 C706 C 0.44880 0.78233 0.91976
 C707 C 0.46976 0.69832 0.84045
 C708 C 0.52639 0.80406 0.84023
 C709 C 0.45357 -0.15858 0.34489
 C710 C 0.47156 -0.16136 0.35642
 C711 C 0.47549 -0.18014 0.36640
 C712 C 0.46141 -0.19633 0.36497
 C713 C 0.44343 -0.19335 0.35328
 C714 C 0.43956 -0.17463 0.34334
 C715 C 0.44915 -0.13941 0.33454
 C716 C 0.44437 -0.12383 0.32551
 C717 C 0.43730 -0.10594 0.31432
 C718 C 0.44967 -0.08860 0.31204
 C719 C 0.44241 -0.07145 0.30094
 C720 C 0.42273 -0.07154 0.29196
 C721 C 0.41044 -0.08902 0.29452
 C722 C 0.41768 -0.10605 0.30557
 H723 H 0.48250 -0.14903 0.35774
 H724 H 0.48939 -0.18194 0.37541
 H725 H 0.43248 -0.20561 0.35157
 H726 H 0.42562 -0.17269 0.33439
 H727 H 0.46490 -0.08836 0.31875
 H728 H 0.45225 -0.05825 0.29916
 H729 H 0.39506 -0.08943 0.28820
 H730 H 0.40793 -0.11933 0.30733
 C731 C 0.95040 0.34009 0.84148
 C732 C 0.96997 0.33532 0.84909
 C733 C 0.97365 0.31651 0.85910
 C734 C 0.95774 0.30203 0.86175
 C735 C 0.93806 0.30731 0.85392
 C736 C 0.93451 0.32607 0.84396
 C737 C 0.94634 0.35913 0.83076
 C738 C 0.94175 0.37461 0.82147
 C739 C 0.93478 0.39238 0.81003
 C740 C 0.94713 0.40973 0.80775
 C741 C 0.93989 0.42682 0.79656
 C742 C 0.92026 0.42665 0.78747
 C743 C 0.90800 0.40915 0.79000
 C744 C 0.91523 0.39218 0.80115
 H745 H 0.98239 0.34614 0.84735
 H746 H 0.98886 0.31383 0.86532
 H747 H 0.92540 0.29671 0.85448
 H748 H 0.91932 0.32951 0.83790
 H749 H 0.96230 0.41004 0.81459
 H750 H 0.94970 0.44004 0.79481
 H751 H 0.89265 0.40867 0.78361
 H752 H 0.90549 0.37888 0.80292
 C753 C 0.03649 1.15669 0.84155
 C754 C 0.01997 1.16934 0.83572
 C755 C 0.01671 1.18827 0.84536
 C756 C 0.03005 1.19508 0.86106
 C757 C 0.04645 1.18180 0.86693
 C758 C 0.04960 1.16290 0.85726
 C759 C 0.04060 1.13774 0.83088
 C760 C 0.04473 1.12207 0.82187
 C761 C 0.05058 1.10364 0.81105
 C762 C 0.05991 1.10507 0.79161
 C763 C 0.06733 1.08741 0.78178
 C764 C 0.06557 1.06802 0.79130
 C765 C 0.05560 1.06666 0.81059
 C766 C 0.04819 1.08437 0.82040
 H767 H 0.00983 1.16477 0.82339
 H768 H 0.00430 1.19787 0.83957
 H769 H 0.05666 1.18553 0.87943
 H770 H 0.06237 1.15313 0.86201
 H771 H 0.06196 1.11992 0.78429
 H772 H 0.07520 1.08905 0.76712
 H773 H 0.05380 1.05195 0.81821
 H774 H 0.04100 1.08309 0.83547
 C775 C 0.54051 0.65723 0.34488
 C776 C 0.55038 0.66165 0.36343
 C777 C 0.54720 0.68068 0.37291
 C778 C 0.53410 0.69556 0.36390
 C779 C 0.52400 0.69084 0.34541
 C780 C 0.52722 0.67181 0.33596
 C781 C 0.54483 0.63819 0.33445
 C782 C 0.54897 0.62254 0.32538
 C783 C 0.55463 0.60431 0.31414
 C784 C 0.56260 0.58707 0.32453
 C785 C 0.56992 0.57013 0.31339
 C786 C 0.56946 0.57028 0.29168
 C787 C 0.56078 0.58740 0.28143
 C788 C 0.55345 0.60429 0.29259
 H789 H 0.56074 0.65049 0.37045
 H790 H 0.55497 0.68376 0.38727
 H791 H 0.51403 0.70206 0.33796
 H792 H 0.51962 0.66861 0.32151
 H793 H 0.56369 0.58697 0.34120
 H794 H 0.57673 0.55729 0.32171
 H795 H 0.55999 0.58786 0.26475
 H796 H 0.54732 0.61755 0.28439
 C797 C 0.53668 0.34672 0.15425
 C798 C 0.52335 0.33273 0.16365
 C799 C 0.52037 0.31343 0.15484
 C800 C 0.53079 0.30787 0.13659
 C801 C 0.54377 0.32224 0.12702
 C802 C 0.54669 0.34151 0.13581
 C803 C 0.54123 0.36590 0.16407
 C804 C 0.54604 0.38174 0.17216
 C805 C 0.55306 0.40032 0.18159
 C806 C 0.54629 0.40589 0.20135
 C807 C 0.55478 0.42287 0.21118
 C808 C 0.57026 0.43434 0.20138
 C809 C 0.57644 0.42900 0.18127
 C810 C 0.56791 0.41210 0.17147
 H811 H 0.51564 0.33655 0.17800
 H812 H 0.51045 0.30261 0.16267
 H813 H 0.55178 0.31850 0.11282
 H814 H 0.55707 0.35221 0.12843
 H815 H 0.53489 0.39680 0.20937
 H816 H 0.54986 0.42654 0.22672
 H817 H 0.58812 0.43772 0.17323
 H818 H 0.57327 0.40793 0.15619
 C819 C 0.04426 0.83911 0.65961
 C820 C 0.02479 0.83508 0.65165
 C821 C 0.02120 0.81660 0.64141
 C822 C 0.03712 0.80173 0.63884
 C823 C 0.05668 0.80623 0.64707
 C824 C 0.06013 0.82466 0.65728
 C825 C 0.04830 0.85796 0.67024
 C826 C 0.05292 0.87333 0.67929
 C827 C 0.05997 0.89108 0.69017
 C828 C 0.04890 0.90969 0.68963
 C829 C 0.05670 0.92705 0.69942
 C830 C 0.07572 0.92596 0.70969
 C831 C 0.08644 0.90707 0.71048
 C832 C 0.07862 0.88980 0.70078
 H833 H 0.01240 0.84627 0.65325
 H834 H 0.00609 0.81452 0.63491
 H835 H 0.06930 0.79526 0.64656
 H836 H 0.07524 0.82754 0.66357
 H837 H 0.03446 0.91085 0.68141
 H838 H 0.04819 0.94143 0.69848
 H839 H 0.10094 0.90567 0.71856
 H840 H 0.08729 0.87547 0.70134
 C841 C 0.95638 0.66044 0.65986
 C842 C 0.94234 0.67680 0.66171
 C843 C 0.94600 0.69541 0.65165
 C844 C 0.96380 0.69796 0.63953
 C845 C 0.97798 0.68151 0.63788
 C846 C 0.97426 0.66283 0.64797
 C847 C 0.95192 0.64122 0.66989
 C848 C 0.94696 0.62555 0.67847
 C849 C 0.93949 0.60751 0.68885
 C850 C 0.92182 0.60919 0.70115
 C851 C 0.91333 0.59174 0.71019
 C852 C 0.92237 0.57226 0.70703
 C853 C 0.94051 0.57071 0.69516
 C854 C 0.94898 0.58827 0.68603
 H855 H 0.92847 0.67513 0.67090
 H856 H 0.93497 0.70789 0.65349
 H857 H 0.99174 0.68297 0.62852
 H858 H 0.98520 0.65023 0.64637
 H859 H 0.91437 0.62400 0.70347
 H860 H 0.89955 0.59344 0.71952
 H861 H 0.94771 0.55588 0.69241
 H862 H 0.96264 0.58679 0.67648
 C863 C 0.45541 0.16171 0.16057
 C864 C 0.44067 0.17756 0.16127
 C865 C 0.44402 0.19597 0.15071
 C866 C 0.46220 0.19883 0.13924
 C867 C 0.47702 0.18286 0.13869
 C868 C 0.47361 0.16439 0.14928
 C869 C 0.45141 0.14275 0.17131
 C870 C 0.44689 0.12728 0.18049
 C871 C 0.43997 0.10942 0.19159
 C872 C 0.42277 0.11124 0.20453
 C873 C 0.41469 0.09390 0.21417
 C874 C 0.42369 0.07440 0.21102
 C875 C 0.44141 0.07273 0.19855
 C876 C 0.44946 0.09018 0.18880
 H877 H 0.42655 0.17568 0.17001
 H878 H 0.43249 0.20808 0.15173
 H879 H 0.49109 0.18456 0.12985
 H880 H 0.48509 0.15219 0.14857
 H881 H 0.41531 0.12604 0.20683
 H882 H 0.40122 0.09569 0.22394
 H883 H 0.44857 0.05789 0.19577
 H884 H 0.46276 0.08859 0.17876
 C885 C 0.34912 0.45629 -0.15772
 C886 C 0.34275 0.47273 -0.17020
 C887 C 0.35312 0.47699 -0.18867
 C888 C 0.37006 0.46471 -0.19521
 C889 C 0.37661 0.44857 -0.18196
 C890 C 0.36622 0.44443 -0.16351
 C891 C 0.33733 0.45062 -0.13975
 C892 C 0.32726 0.44498 -0.12515
 C893 C 0.31505 0.43715 -0.10833
 C894 C 0.31192 0.44860 -0.09034
 C895 C 0.30009 0.44060 -0.07411
 C896 C 0.29121 0.42107 -0.07577
 C897 C 0.29452 0.40973 -0.09392
 C898 C 0.30632 0.41773 -0.11005
 H899 H 0.32937 0.48190 -0.16596
 H900 H 0.34687 0.48918 -0.19825
 H901 H 0.39004 0.43922 -0.18546
 H902 H 0.37138 0.43173 -0.15388
 H903 H 0.31861 0.46367 -0.08885
 H904 H 0.29772 0.44974 -0.06039
 H905 H 0.28827 0.39449 -0.09554
 H906 H 0.30872 0.40868 -0.12385
 C907 C 0.85163 0.95565 0.34554
 C908 C 0.84510 0.97206 0.33314
 C909 C 0.85507 0.97618 0.31443
 C910 C 0.87181 0.96379 0.30756
 C911 C 0.87850 0.94761 0.32069
 C912 C 0.86848 0.94361 0.33939
 C913 C 0.84021 0.95024 0.36383
 C914 C 0.83033 0.94494 0.37868
 C915 C 0.81818 0.93760 0.39577
 C916 C 0.81542 0.94942 0.41358
 C917 C 0.80345 0.94198 0.42998
 C918 C 0.79405 0.92267 0.42866
 C919 C 0.79705 0.91095 0.41071
 C920 C 0.80898 0.91837 0.39442
 H921 H 0.83189 0.98136 0.33764
 H922 H 0.84867 0.98836 0.30495
 H923 H 0.89177 0.93814 0.31692
 H924 H 0.87375 0.93090 0.34895
 H925 H 0.82246 0.96435 0.41478
 H926 H 0.80134 0.95140 0.44355
 H927 H 0.79040 0.89585 0.40936
 H928 H 0.81109 0.90905 0.38075
 C929 C 0.84675 0.04011 1.16140
 C930 C 0.84175 0.02351 1.17413
 C931 C 0.85206 0.02040 1.19280
 C932 C 0.86755 0.03401 1.19928
 C933 C 0.87269 0.05040 1.18584
 C934 C 0.86238 0.05338 1.16719
 C935 C 0.83504 0.04440 1.14305
 C936 C 0.82501 0.04888 1.12805
 C937 C 0.81282 0.05539 1.11067
 C938 C 0.81954 0.05161 1.09047
 C939 C 0.80852 0.05975 1.07373
 C940 C 0.79076 0.07190 1.07708
 C941 C 0.78379 0.07501 1.09741
 C942 C 0.79476 0.06683 1.11407
 H943 H 0.82949 0.01326 1.16989
 H944 H 0.84685 0.00795 1.20254
 H945 H 0.88504 0.06079 1.18929
 H946 H 0.86647 0.06624 1.15736
 H947 H 0.83356 0.04286 1.08767
 H948 H 0.81432 0.05726 1.05825
 H949 H 0.77002 0.08407 1.10044
 H950 H 0.78941 0.06985 1.12963
 C951 C 0.34864 0.54097 0.65694
 C952 C 0.34004 0.52758 0.67149
 C953 C 0.34971 0.52429 0.69047
 C954 C 0.36807 0.53445 0.69518
 C955 C 0.37684 0.54751 0.68026
 C956 C 0.36716 0.55075 0.66128
 C957 C 0.33772 0.54591 0.63825
 C958 C 0.32829 0.55092 0.62302
 C959 C 0.31670 0.55804 0.60545
 C960 C 0.31469 0.54585 0.58786
 C961 C 0.30330 0.55314 0.57096
 C962 C 0.29376 0.57267 0.57155
 C963 C 0.29601 0.58476 0.58930
 C964 C 0.30735 0.57749 0.60608
 H965 H 0.32561 0.52008 0.66837
 H966 H 0.34245 0.51435 0.70173
 H967 H 0.39109 0.55533 0.68333
 H968 H 0.37392 0.56121 0.65016
 H969 H 0.32186 0.53076 0.58721
 H970 H 0.30177 0.54345 0.55755
 H971 H 0.28924 0.60003 0.59010
 H972 H 0.30890 0.58709 0.61957
 C973 C 0.16532 0.53997 0.33773
 C974 C 0.15251 0.52300 0.33560
 C975 C 0.14210 0.51985 0.31704
 C976 C 0.14434 0.53374 0.30046
 C977 C 0.15738 0.55062 0.30276
 C978 C 0.16777 0.55371 0.32125
 C979 C 0.17566 0.54390 0.35686
 C980 C 0.18451 0.54841 0.37246
 C981 C 0.19519 0.55537 0.39046
 C982 C 0.19241 0.54586 0.40971
 C983 C 0.20173 0.55395 0.42729
 C984 C 0.21374 0.57173 0.42575
 C985 C 0.21689 0.58075 0.40625
 C986 C 0.20768 0.57263 0.38877
 H987 H 0.15044 0.51232 0.34830
 H988 H 0.13203 0.50680 0.31577
 H989 H 0.15968 0.56138 0.29017
 H990 H 0.17766 0.56688 0.32272
 H991 H 0.18271 0.53252 0.41119
 H992 H 0.19896 0.54678 0.44214
 H993 H 0.22631 0.59426 0.40456
 H994 H 0.20996 0.58010 0.37396
 C995 C 0.66005 0.04193 0.84570
 C996 C 0.64399 0.05470 0.83895
 C997 C 0.63457 0.05121 0.82001
 C998 C 0.64104 0.03479 0.80722
 C999 C 0.65700 0.02170 0.81462
 C1000 C 0.66643 0.02533 0.83360
 C1001 C 0.67035 0.04657 0.86469
 C1002 C 0.67865 0.05153 0.88045
 C1003 C 0.68805 0.05879 0.89904
 C1004 C 0.68292 0.07843 0.90616
 C1005 C 0.69211 0.08603 0.92390
 C1006 C 0.70659 0.07407 0.93490
 C1007 C 0.71170 0.05430 0.92764
 C1008 C 0.70245 0.04670 0.90981
 H1009 H 0.63879 0.06750 0.84831
 H1010 H 0.62180 0.06118 0.81587
 H1011 H 0.66315 0.00925 0.80541
 H1012 H 0.67898 0.01542 0.83862
 H1013 H 0.67192 0.08798 0.89787
 H1014 H 0.68815 0.10146 0.92878
 H1015 H 0.72270 0.04470 0.93584
 H1016 H 0.70655 0.03147 0.90441
 C1017 C 0.66351 0.95508 0.66270
 C1018 C 0.66512 0.94080 0.67883
 C1019 C 0.65522 0.94448 0.69763
 C1020 C 0.64350 0.96255 0.70059
 C1021 C 0.64208 0.97695 0.68434
 C1022 C 0.65201 0.97320 0.66548
 C1023 C 0.67340 0.95067 0.64328
 C1024 C 0.68184 0.94583 0.62740
 C1025 C 0.69202 0.93857 0.60902
 C1026 C 0.70338 0.92021 0.60993
 C1027 C 0.71231 0.91210 0.59210
 C1028 C 0.71000 0.92222 0.57301
 C1029 C 0.69905 0.94100 0.57226
 C1030 C 0.69002 0.94909 0.59019
 H1031 H 0.67401 0.92674 0.67686
 H1032 H 0.65688 0.93326 0.70994
 H1033 H 0.63302 0.99091 0.68610
 H1034 H 0.65059 0.98433 0.65306
 H1035 H 0.70508 0.91196 0.62441
 H1036 H 0.72096 0.89780 0.59321
 H1037 H 0.69694 0.94905 0.55774
 H1038 H 0.68121 0.96331 0.58931
 C1039 C 0.16085 0.45390 0.15694
 C1040 C 0.16275 0.43978 0.17320
 C1041 C 0.15296 0.44354 0.19203
 C1042 C 0.14107 0.46151 0.19492
 C1043 C 0.13936 0.47573 0.17855
 C1044 C 0.14917 0.47192 0.15964
 C1045 C 0.17070 0.44941 0.13752
 C1046 C 0.17915 0.44445 0.12168
 C1047 C 0.18940 0.43700 0.10342
 C1048 C 0.20107 0.41885 0.10468
 C1049 C 0.21008 0.41052 0.08699
 C1050 C 0.20753 0.42020 0.06770
 C1051 C 0.19626 0.43878 0.06660
 C1052 C 0.18715 0.44709 0.08440
 H1053 H 0.17178 0.42580 0.17129
 H1054 H 0.15485 0.43246 0.20443
 H1055 H 0.13017 0.48962 0.18027
 H1056 H 0.14755 0.48292 0.14713
 H1057 H 0.20296 0.41094 0.11932
 H1058 H 0.21897 0.39640 0.08837
 H1059 H 0.19397 0.44649 0.05193
 H1060 H 0.17809 0.46113 0.08325
 C1061 C -0.16051 0.34372 0.45742
 C1062 C -0.17542 0.33484 0.47018
 C1063 C -0.19440 0.34477 0.47324
 C1064 C -0.19873 0.36371 0.46351
 C1065 C -0.18351 0.37266 0.45095
 C1066 C -0.16455 0.36271 0.44793
 C1067 C -0.14147 0.33295 0.45326
 C1068 C -0.12571 0.32381 0.44920
 C1069 C -0.10717 0.31284 0.44355
 C1070 C -0.10846 0.29350 0.43439
 C1071 C -0.09067 0.28345 0.42733
 C1072 C -0.07129 0.29263 0.42930
 C1073 C -0.07009 0.31184 0.43905
 C1074 C -0.08793 0.32187 0.44611
 H1075 H -0.17252 0.32008 0.47749
 H1076 H -0.20589 0.33737 0.48278
 H1077 H -0.18629 0.38735 0.44347
 H1078 H -0.15312 0.36972 0.43800
 H1079 H -0.12329 0.28642 0.43222
 H1080 H -0.09220 0.26885 0.41961
 H1081 H -0.05539 0.31920 0.44101
 H1082 H -0.08675 0.33685 0.45318
 C1083 C 0.34493 0.84719 0.96050
 C1084 C 0.33251 0.84093 0.97696
 C1085 C 0.31324 0.85021 0.98022
 C1086 C 0.30583 0.86595 0.96691
 C1087 C 0.31892 0.87235 0.95063
 C1088 C 0.33818 0.86304 0.94750
 C1089 C 0.36409 0.83666 0.95622
 C1090 C 0.37982 0.82757 0.95196
 C1091 C 0.39815 0.81639 0.94601
 C1092 C 0.39860 0.79493 0.94727
 C1093 C 0.41546 0.78385 0.93948
 C1094 C 0.43210 0.79411 0.93026
 C1095 C 0.43186 0.81573 0.92975
 C1096 C 0.41495 0.82678 0.93753
 H1097 H 0.33751 0.82850 0.98702
 H1098 H 0.30385 0.84406 0.99255
 H1099 H 0.31471 0.88492 0.94047
 H1100 H 0.34774 0.86812 0.93476
 H1101 H 0.38567 0.78672 0.95378
 H1102 H 0.41531 0.76723 0.94031
 H1103 H 0.44430 0.82406 0.92252
 H1104 H 0.41470 0.84339 0.93635
 C1105 C 1.15852 0.84451 0.04259
 C1106 C 1.16398 0.85213 0.02316
 C1107 C 1.18290 0.86179 0.02023
 C1108 C 1.19685 0.86407 0.03678
 C1109 C 1.19088 0.85628 0.05632
 C1110 C 1.17200 0.84664 0.05912
 C1111 C 1.13928 0.83420 0.04574
 C1112 C 1.12345 0.82531 0.04918
 C1113 C 1.10496 0.81440 0.05429
 C1114 C 1.10462 0.79298 0.05269
 C1115 C 1.08762 0.78208 0.05992
 C1116 C 1.07073 0.79248 0.06891
 C1117 C 1.07088 0.81407 0.06971
 C1118 C 1.08792 0.82494 0.06249
 H1119 H 1.15358 0.85068 0.01026
 H1120 H 1.18607 0.86805 0.00508
 H1121 H 1.20106 0.85666 0.06945
 H1122 H 1.16801 0.84059 0.07421
 H1123 H 1.11775 0.78465 0.04641
 H1124 H 1.08786 0.76549 0.05887
 H1125 H 1.05825 0.82250 0.07678
 H1126 H 1.08808 0.84151 0.06395
 C1127 C 0.65306 0.34518 0.53871
 C1128 C 0.66814 0.33602 0.52616
 C1129 C 0.68694 0.34574 0.52288
 C1130 C 0.69094 0.36475 0.53218
 C1131 C 0.67555 0.37399 0.54448
 C1132 C 0.65675 0.36425 0.54773
 C1133 C 0.63431 0.33449 0.54324
 C1134 C 0.61891 0.32527 0.54763
 C1135 C 0.60095 0.31395 0.55366
 C1136 C 0.60109 0.29251 0.55230
 C1137 C 0.58455 0.28128 0.56009
 C1138 C 0.56765 0.29138 0.56940
 C1139 C 0.56733 0.31299 0.57003
 C1140 C 0.58391 0.32418 0.56226
 H1141 H 0.66551 0.32119 0.51924
 H1142 H 0.69857 0.33812 0.51355
 H1143 H 0.67807 0.38873 0.55162
 H1144 H 0.64520 0.37145 0.55751
 H1145 H 0.61421 0.28442 0.54570
 H1146 H 0.58513 0.26468 0.55917
 H1147 H 0.55469 0.32119 0.57734
 H1148 H 0.58371 0.34077 0.56351
 C1149 C 0.33924 0.16049 0.54714
 C1150 C 0.33729 0.14774 0.52996
 C1151 C 0.31868 0.13781 0.52629
 C1152 C 0.30187 0.14047 0.53984
 C1153 C 0.30399 0.15345 0.55694
 C1154 C 0.32253 0.16335 0.56055
 C1155 C 0.35838 0.17040 0.55154
 C1156 C 0.37400 0.17892 0.55633
 C1157 C 0.39205 0.18925 0.56342
 C1158 C 0.41094 0.18713 0.55307
 C1159 C 0.42854 0.19647 0.56090
 C1160 C 0.42742 0.20790 0.57924
 C1161 C 0.40828 0.21026 0.58922
 C1162 C 0.39076 0.20100 0.58137
 H1163 H 0.35017 0.14536 0.51952
 H1164 H 0.31754 0.12780 0.51308
 H1165 H 0.29122 0.15610 0.56744
 H1166 H 0.32386 0.17321 0.57387
 H1167 H 0.41211 0.17802 0.53918
 H1168 H 0.44311 0.19429 0.55297
 H1169 H 0.40686 0.21925 0.60317
 H1170 H 0.37622 0.20279 0.58948
 C1171 C 0.84210 0.66147 0.04382
 C1172 C 0.83826 0.65291 0.02453
 C1173 C 0.81978 0.64272 0.02095
 C1174 C 0.80472 0.64079 0.03671
 C1175 C 0.80900 0.64967 0.05607
 C1176 C 0.82742 0.65983 0.05952
 C1177 C 0.86098 0.67200 0.04788
 C1178 C 0.87639 0.68097 0.05250
 C1179 C 0.89419 0.69178 0.05954
 C1180 C 0.91329 0.68952 0.04962
 C1181 C 0.93069 0.69909 0.05763
 C1182 C 0.92915 0.71086 0.07572
 C1183 C 0.90978 0.71342 0.08521
 C1184 C 0.89247 0.70394 0.07718
 H1185 H 0.84961 0.65398 0.01228
 H1186 H 0.81783 0.63573 0.00601
 H1187 H 0.79784 0.64974 0.06851
 H1188 H 0.83014 0.66661 0.07447
 H1189 H 0.91480 0.68008 0.03599
 H1190 H 0.94544 0.69676 0.05009
 H1191 H 0.90805 0.72266 0.09896
 H1192 H 0.87776 0.70582 0.08496
 C1193 C 0.66295 0.66157 0.95483
 C1194 C 0.66548 0.64979 0.97281
 C1195 C 0.68427 0.63975 0.97667
 C1196 C 0.70071 0.64134 0.96254
 C1197 C 0.69801 0.65334 0.94462
 C1198 C 0.67928 0.66335 0.94082
 C1199 C 0.64363 0.67162 0.95031
 C1200 C 0.62783 0.68021 0.94541
 C1201 C 0.60954 0.69061 0.93817
 C1202 C 0.59078 0.68893 0.94876
 C1203 C 0.57297 0.69832 0.94079
 C1204 C 0.57375 0.70935 0.92207
 C1205 C 0.59278 0.71128 0.91184
 C1206 C 0.61050 0.70197 0.91982
 H1207 H 0.65291 0.64825 0.98373
 H1208 H 0.68584 0.63047 0.99051
 H1209 H 0.71047 0.65513 0.93362
 H1210 H 0.67751 0.67247 0.92688
 H1211 H 0.58987 0.68013 0.96296
 H1212 H 0.55850 0.69650 0.94893
 H1213 H 0.59394 0.71996 0.89759
 H1214 H 0.62493 0.70342 0.91152
 C1215 C 0.16063 0.16129 0.45679
 C1216 C 0.16270 0.14944 0.47478
 C1217 C 0.18125 0.13904 0.47887
 C1218 C 0.19790 0.14033 0.46495
 C1219 C 0.19565 0.15237 0.44699
 C1220 C 0.17715 0.16274 0.44297
 C1221 C 0.14157 0.17174 0.45205
 C1222 C 0.12602 0.18066 0.44695
 C1223 C 0.10803 0.19140 0.43946
 C1224 C 0.08939 0.19103 0.45041
 C1225 C 0.07183 0.20074 0.44224
 C1226 C 0.07276 0.21077 0.42297
 C1227 C 0.09168 0.21140 0.41237
 C1228 C 0.10915 0.20178 0.42055
 H1229 H 0.14997 0.14815 0.48555
 H1230 H 0.18248 0.12975 0.49273
 H1231 H 0.20827 0.15395 0.43616
 H1232 H 0.17573 0.17190 0.42901
 H1233 H 0.08836 0.18300 0.46505
 H1234 H 0.05743 0.19991 0.45067
 H1235 H 0.09296 0.21931 0.39768
 H1236 H 0.12350 0.20223 0.41198
 C1237 C 0.58763 0.09729 0.72445
 C1238 C 0.60636 0.09958 0.73471
 C1239 C 0.61533 0.08288 0.74510
 C1240 C 0.60567 0.06366 0.74535
 C1241 C 0.58689 0.06150 0.73493
 C1242 C 0.57794 0.07822 0.72456
 C1243 C 0.57837 0.11446 0.71376
 C1244 C 0.57056 0.12876 0.70470
 C1245 C 0.56123 0.14569 0.69370
 C1246 C 0.54407 0.15598 0.70197
 C1247 C 0.53478 0.17218 0.69105
 C1248 C 0.54253 0.17824 0.67167
 C1249 C 0.55988 0.16788 0.66358
 C1250 C 0.56915 0.15171 0.67452
 H1251 H 0.61403 0.11425 0.73464
 H1252 H 0.62993 0.08493 0.75275
 H1253 H 0.57898 0.04696 0.73506
 H1254 H 0.56343 0.07629 0.71669
 H1255 H 0.53777 0.15139 0.71678
 H1256 H 0.52130 0.17969 0.69758
 H1257 H 0.56639 0.17237 0.64884
 H1258 H 0.58246 0.14388 0.66800
 C1259 C 1.08659 0.59692 0.22092
 C1260 C 1.10287 0.59976 0.23452
 C1261 C 1.11201 0.58291 0.24451
 C1262 C 1.10505 0.56269 0.24108
 C1263 C 1.08854 0.56022 0.22718
 C1264 C 1.07946 0.57714 0.21727
 C1265 C 1.07730 0.61427 0.21054
 C1266 C 1.06956 0.62874 0.20169
 C1267 C 1.06042 0.64589 0.19087
 C1268 C 1.04328 0.65622 0.19917
 C1269 C 1.03423 0.67267 0.18843
 C1270 C 1.04220 0.67896 0.16921
 C1271 C 1.05953 0.66856 0.16109
 C1272 C 1.06855 0.65214 0.17186
 H1273 H 1.10867 0.61502 0.23729
 H1274 H 1.12509 0.58590 0.25424
 H1275 H 1.08188 0.54536 0.22443
 H1276 H 1.06674 0.57478 0.20684
 H1277 H 1.03683 0.65146 0.21386
 H1278 H 1.02078 0.68022 0.19496
 H1279 H 1.06620 0.67322 0.14649
 H1280 H 1.08185 0.64429 0.16533
 C1281 C 0.92792 0.90327 0.22500
 C1282 C 0.93158 0.90593 0.24607
 C1283 C 0.92225 0.92229 0.25661
 C1284 C 0.90914 0.93621 0.24618
 C1285 C 0.90556 0.93337 0.22500
 C1286 C 0.91489 0.91701 0.21451
 C1287 C 0.93734 0.88637 0.21410
 C1288 C 0.94495 0.87227 0.20466
 C1289 C 0.95360 0.85548 0.19301
 C1290 C 0.96849 0.84240 0.20176
 C1291 C 0.97651 0.82587 0.19045
 C1292 C 0.96967 0.82220 0.17026
 C1293 C 0.95485 0.83557 0.16156
 C1294 C 0.94688 0.85207 0.17287
 H1295 H 0.94165 0.89539 0.25433
 H1296 H 0.92547 0.92422 0.27285
 H1297 H 0.89534 0.94365 0.21662
 H1298 H 0.91188 0.91503 0.19822
 H1299 H 0.97377 0.84488 0.21736
 H1300 H 0.98775 0.81573 0.19763
 H1301 H 0.94951 0.83336 0.14595
 H1302 H 0.93543 0.86214 0.16592
 C1303 C 0.42711 0.40359 0.72358
 C1304 C 0.43050 0.40644 0.74466
 C1305 C 0.42118 0.42298 0.75490
 C1306 C 0.40833 0.43690 0.74416
 C1307 C 0.40506 0.43392 0.72295
 C1308 C 0.41439 0.41736 0.71276
 C1309 C 0.43641 0.38641 0.71304
 C1310 C 0.44391 0.37203 0.70395
 C1311 C 0.45243 0.35487 0.69277
 C1312 C 0.46761 0.34225 0.70167
 C1313 C 0.47554 0.32537 0.69082
 C1314 C 0.46830 0.32089 0.67094
 C1315 C 0.45317 0.33380 0.66209
 C1316 C 0.44530 0.35065 0.67294
 H1317 H 0.44033 0.39587 0.75318
 H1318 H 0.42416 0.42502 0.77118
 H1319 H 0.39504 0.44420 0.71433
 H1320 H 0.41158 0.41524 0.69645
 H1321 H 0.47321 0.34536 0.71704
 H1322 H 0.48703 0.31561 0.69811
 H1323 H 0.44753 0.33097 0.64669
 H1324 H 0.43361 0.36036 0.66588
 C1325 C 0.41823 0.60001 0.77675
 C1326 C 0.40643 0.58583 0.78780
 C1327 C 0.39832 0.56878 0.77783
 C1328 C 0.40192 0.56570 0.75664
 C1329 C 0.41374 0.58010 0.74566
 C1330 C 0.42184 0.59713 0.75566
 C1331 C 0.42681 0.61739 0.78711
 C1332 C 0.43404 0.63183 0.79595
 C1333 C 0.44268 0.64889 0.80676
 C1334 C 0.43424 0.65505 0.82566
 C1335 C 0.44292 0.67125 0.83650
 C1336 C 0.46020 0.68152 0.82858
 C1337 C 0.46844 0.67537 0.80944
 C1338 C 0.45974 0.65913 0.79863
 H1339 H 0.40351 0.58794 0.80412
 H1340 H 0.38908 0.55810 0.78665
 H1341 H 0.41700 0.57801 0.72940
 H1342 H 0.43102 0.60798 0.74697
 H1343 H 0.42101 0.64727 0.83208
 H1344 H 0.43604 0.67582 0.85104
 H1345 H 0.48187 0.68280 0.80305
 H1346 H 0.46644 0.65443 0.78403
 C1347 C -0.08095 0.09915 0.27952
 C1348 C -0.09987 0.10076 0.26938
 C1349 C -0.10799 0.08369 0.25945
 C1350 C -0.09726 0.06477 0.25954
 C1351 C -0.07827 0.06331 0.26981
 C1352 C -0.07018 0.08040 0.27972
 C1353 C -0.07259 0.11667 0.28981
 C1354 C -0.06542 0.13117 0.29859
 C1355 C -0.05667 0.14823 0.30931
 C1356 C -0.06320 0.16835 0.30489
 C1357 C -0.05476 0.18486 0.31551
 C1358 C -0.03972 0.18141 0.33074
 C1359 C -0.03320 0.16113 0.33496
 C1360 C -0.04163 0.14467 0.32432
 H1361 H -0.10838 0.11519 0.26920
 H1362 H -0.12277 0.08521 0.25192
 H1363 H -0.06955 0.04903 0.26994
 H1364 H -0.05551 0.07899 0.28750
 H1365 H -0.07486 0.17127 0.29332
 H1366 H -0.06024 0.20027 0.31207
 H1367 H -0.02142 0.15799 0.34635
 H1368 H -0.03642 0.12917 0.32781
 C1369 C 0.08160 0.40214 0.27576
 C1370 C 0.07270 0.42183 0.27595
 C1371 C 0.08257 0.43814 0.26605
 C1372 C 0.10148 0.43494 0.25581
 C1373 C 0.11033 0.41510 0.25579
 C1374 C 0.10045 0.39883 0.26571
 C1375 C 0.07149 0.38533 0.28594
 C1376 C 0.06323 0.37114 0.29450
 C1377 C 0.05370 0.35410 0.30485
 C1378 C 0.03435 0.35652 0.31417
 C1379 C 0.02545 0.34010 0.32482
 C1380 C 0.03584 0.32105 0.32631
 C1381 C 0.05516 0.31871 0.31663
 C1382 C 0.06401 0.33513 0.30599
 H1383 H 0.05810 0.42456 0.28368
 H1384 H 0.07525 0.45318 0.26612
 H1385 H 0.12500 0.41221 0.24827
 H1386 H 0.10752 0.38366 0.26555
 H1387 H 0.02627 0.37117 0.31343
 H1388 H 0.01069 0.34247 0.33232
 H1389 H 0.06341 0.30416 0.31727
 H1390 H 0.07897 0.33307 0.29878
 C1391 C 0.58163 0.90325 0.77963
 C1392 C 0.57296 0.92304 0.77974
 C1393 C 0.58330 0.93930 0.77025
 C1394 C 0.60245 0.93595 0.76051
 C1395 C 0.61106 0.91601 0.76057
 C1396 C 0.60071 0.89979 0.77007
 C1397 C 0.57107 0.88646 0.78939
 C1398 C 0.56256 0.87221 0.79759
 C1399 C 0.55291 0.85496 0.80749
 C1400 C 0.53372 0.85727 0.81718
 C1401 C 0.52484 0.84061 0.82749
 C1402 C 0.53511 0.82146 0.82829
 C1403 C 0.55422 0.81924 0.81818
 C1404 C 0.56305 0.83587 0.80788
 H1405 H 0.55819 0.92589 0.78707
 H1406 H 0.57616 0.95442 0.77023
 H1407 H 0.62589 0.91299 0.75343
 H1408 H 0.60760 0.88454 0.76999
 H1409 H 0.52577 0.87200 0.81701
 H1410 H 0.51022 0.84286 0.83530
 H1411 H 0.56237 0.80462 0.81826
 H1412 H 0.57788 0.83390 0.80038
 C1413 C 0.72343 0.58433 0.09692
 C1414 C 0.74487 0.58534 0.09719
 C1415 C 0.75547 0.59444 0.08077
 C1416 C 0.74479 0.60278 0.06359
 C1417 C 0.72305 0.60149 0.06366
 C1418 C 0.71256 0.59240 0.08015
 C1419 C 0.71254 0.57507 0.11390
 C1420 C 0.70328 0.56741 0.12807
 C1421 C 0.69198 0.55839 0.14490
 C1422 C 0.67335 0.56732 0.15134
 C1423 C 0.66213 0.55846 0.16746
 C1424 C 0.66940 0.54051 0.17736
 C1425 C 0.68823 0.53172 0.17087
 C1426 C 0.69943 0.54061 0.15472
 H1427 H 0.75346 0.57894 0.11004
 H1428 H 0.77209 0.59402 0.08136
 H1429 H 0.71386 0.60823 0.05146
 H1430 H 0.69590 0.59185 0.07988
 H1431 H 0.66748 0.58112 0.14388
 H1432 H 0.64785 0.56576 0.17229
 H1433 H 0.69410 0.51778 0.17802
 H1434 H 0.71381 0.53355 0.14981
 C1435 C 0.21966 1.08538 0.60135
 C1436 C 0.20892 1.09702 0.58661
 C1437 C 0.21942 1.10571 0.56989
 C1438 C 0.24083 1.10287 0.56773
 C1439 C 0.25147 1.09113 0.58264
 C1440 C 0.24094 1.08245 0.59933
 C1441 C 0.20884 1.07636 0.61850
 C1442 C 0.19977 1.06875 0.63283
 C1443 C 0.18884 1.05960 0.64983
 C1444 C 0.16890 1.06640 0.65474
 C1445 C 0.15809 1.05727 0.67099
 C1446 C 0.16709 1.04119 0.68257
 C1447 C 0.18722 1.03458 0.67763
 C1448 C 0.19800 1.04373 0.66135
 H1449 H 0.19245 1.09941 0.58805
 H1450 H 0.21085 1.11487 0.55880
 H1451 H 0.26790 1.08844 0.58124
 H1452 H 0.24939 1.07340 0.61061
 H1453 H 0.16169 1.07871 0.64595
 H1454 H 0.14274 1.06288 0.67459
 H1455 H 0.19447 1.02207 0.68608
 H1456 H 0.21341 1.03832 0.65764
 C1457 C 0.22303 0.91809 0.90303
 C1458 C 0.24394 0.92196 0.90595
 C1459 C 0.25435 0.91317 0.92271
 C1460 C 0.24394 0.90039 0.93678
 C1461 C 0.22293 0.89653 0.93366
 C1462 C 0.21256 0.90532 0.91689
 C1463 C 0.21223 0.92726 0.88591
 C1464 C 0.20298 0.93487 0.87165
 C1465 C 0.19165 0.94378 0.85474
 C1466 C 0.17172 0.93712 0.85062
 C1467 C 0.16060 0.94571 0.83425
 C1468 C 0.16928 0.96112 0.82174
 C1469 C 0.18932 0.96776 0.82604
 C1470 C 0.20043 0.95912 0.84244
 H1471 H 0.25217 0.93186 0.89534
 H1472 H 0.27045 0.91662 0.92485
 H1473 H 0.21458 0.88656 0.94408
 H1474 H 0.19639 0.90217 0.91473
 H1475 H 0.16475 0.92532 0.86010
 H1476 H 0.14510 0.94049 0.83154
 H1477 H 0.19649 0.97944 0.81657
 H1478 H 0.21587 0.96437 0.84549
 C1479 C 0.72065 0.41964 0.39892
 C1480 C 0.73139 0.40102 0.39657
 C1481 C 0.74137 0.39194 0.41345
 C1482 C 0.74068 0.40138 0.43291
 C1483 C 0.72992 0.42014 0.43508
 C1484 C 0.71997 0.42919 0.41819
 C1485 C 0.71003 0.42881 0.38168
 C1486 C 0.70090 0.43646 0.36737
 C1487 C 0.68971 0.44549 0.35042
 C1488 C 0.66971 0.43907 0.34623
 C1489 C 0.65872 0.44781 0.32984
 C1490 C 0.66761 0.46314 0.31739
 C1491 C 0.68772 0.46954 0.32176
 C1492 C 0.69870 0.46075 0.33816
 H1493 H 0.73193 0.39345 0.38174
 H1494 H 0.74932 0.37738 0.41136
 H1495 H 0.72935 0.42791 0.44980
 H1496 H 0.71172 0.44362 0.42018
 H1497 H 0.66257 0.42734 0.35568
 H1498 H 0.64317 0.44277 0.32708
 H1499 H 0.69506 0.48114 0.31232
 H1500 H 0.71419 0.46582 0.34126
 C1501 C 0.77010 0.42088 0.59574
 C1502 C 0.75969 0.40238 0.59854
 C1503 C 0.75008 0.39306 0.58182
 C1504 C 0.75081 0.40214 0.56208
 C1505 C 0.76128 0.42077 0.55946
 C1506 C 0.77085 0.43005 0.57618
 C1507 C 0.78034 0.43032 0.61280
 C1508 C 0.78920 0.43829 0.62688
 C1509 C 0.80018 0.44781 0.64342
 C1510 C 0.79530 0.44321 0.66398
 C1511 C 0.80649 0.45200 0.67999
 C1512 C 0.82274 0.46545 0.67559
 C1513 C 0.82731 0.47017 0.65488
 C1514 C 0.81610 0.46141 0.63892
 H1515 H 0.75910 0.39510 0.61360
 H1516 H 0.74235 0.37860 0.58427
 H1517 H 0.76186 0.42827 0.54452
 H1518 H 0.77886 0.44438 0.57385
 H1519 H 0.78303 0.43266 0.66763
 H1520 H 0.80276 0.44788 0.69576
 H1521 H 0.83953 0.48070 0.65101
 H1522 H 0.81996 0.46512 0.62306
 C1523 C 0.27512 -0.07864 0.09915
 C1524 C 0.26510 -0.09734 0.10211
 C1525 C 0.25561 -0.10695 0.08551
 C1526 C 0.25603 -0.09796 0.06571
 C1527 C 0.26613 -0.07915 0.06292
 C1528 C 0.27561 -0.06957 0.07954
 C1529 C 0.28513 -0.06887 0.11616
 C1530 C 0.29373 -0.06068 0.13027
 C1531 C 0.30435 -0.05097 0.14694
 C1532 C 0.29925 -0.05561 0.16743
 C1533 C 0.31010 -0.04667 0.18358
 C1534 C 0.32623 -0.03302 0.17940
 C1535 C 0.33102 -0.02824 0.15874
 C1536 C 0.32015 -0.03716 0.14264
 H1537 H 0.26471 -0.10454 0.11722
 H1538 H 0.24815 -0.12153 0.08808
 H1539 H 0.26648 -0.07171 0.04793
 H1540 H 0.28331 -0.05509 0.07709
 H1541 H 0.28708 -0.06632 0.17092
 H1542 H 0.30621 -0.05084 0.19931
 H1543 H 0.34315 -0.01757 0.15504
 H1544 H 0.32418 -0.03342 0.12683
 C1545 C 0.27874 0.07959 0.40613
 C1546 C 0.27849 0.07052 0.42575
 C1547 C 0.26848 0.08042 0.44213
 C1548 C 0.25856 0.09954 0.43905
 C1549 C 0.25902 0.10857 0.41928
 C1550 C 0.26904 0.09866 0.40295
 C1551 C 0.28896 0.06948 0.38919
 C1552 C 0.29749 0.06140 0.37474
 C1553 C 0.30770 0.05234 0.35720
 C1554 C 0.31671 0.03274 0.35866
 C1555 C 0.32715 0.02432 0.34170
 C1556 C 0.32874 0.03547 0.32310
 C1557 C 0.31935 0.05503 0.32174
 C1558 C 0.30893 0.06338 0.33868
 H1559 H 0.28594 0.05575 0.42837
 H1560 H 0.26818 0.07298 0.45711
 H1561 H 0.25177 0.12340 0.41649
 H1562 H 0.26923 0.10587 0.38785
 H1563 H 0.31588 0.02407 0.37295
 H1564 H 0.33440 0.00933 0.34329
 H1565 H 0.32005 0.06386 0.30755
 H1566 H 0.30194 0.07854 0.33736
 C1567 C 0.78053 0.58053 0.90264
 C1568 C 0.78061 0.57157 0.92232
 C1569 C 0.77102 0.58166 0.93883
 C1570 C 0.76119 0.60083 0.93583
 C1571 C 0.76134 0.60976 0.91600
 C1572 C 0.77095 0.59966 0.89954
 C1573 C 0.79021 0.57016 0.88554
 C1574 C 0.79827 0.56186 0.87097
 C1575 C 0.80791 0.55248 0.85329
 C1576 C 0.81675 0.53280 0.85474
 C1577 C 0.82666 0.52408 0.83763
 C1578 C 0.82789 0.53500 0.81887
 C1579 C 0.81868 0.55464 0.81751
 C1580 C 0.80878 0.56330 0.83460
 H1581 H 0.78797 0.55676 0.92488
 H1582 H 0.77094 0.57430 0.95385
 H1583 H 0.75415 0.62461 0.91327
 H1584 H 0.77088 0.60677 0.88438
 H1585 H 0.81619 0.52431 0.86916
 H1586 H 0.83379 0.50903 0.83921
 H1587 H 0.81911 0.56330 0.80320
 H1588 H 0.80192 0.57851 0.83328
 C1589 C 0.09783 0.72090 0.58095
 C1590 C 0.07854 0.72146 0.57147
 C1591 C 0.06201 0.73176 0.58088
 C1592 C 0.06460 0.74163 0.59992
 C1593 C 0.08407 0.74097 0.60933
 C1594 C 0.10057 0.73065 0.59990
 C1595 C 0.11478 0.71012 0.57137
 C1596 C 0.12896 0.70095 0.56348
 C1597 C 0.14584 0.68977 0.55426
 C1598 C 0.15201 0.67081 0.56257
 C1599 C 0.16832 0.65980 0.55365
 C1600 C 0.17871 0.66762 0.53625
 C1601 C 0.17245 0.68676 0.52805
 C1602 C 0.15610 0.69774 0.53700
 H1603 H 0.07627 0.71397 0.55679
 H1604 H 0.04728 0.73223 0.57315
 H1605 H 0.08647 0.74821 0.62411
 H1606 H 0.11542 0.73022 0.60741
 H1607 H 0.14422 0.66454 0.57598
 H1608 H 0.17297 0.64527 0.56051
 H1609 H 0.18000 0.69307 0.51454
 H1610 H 0.15141 0.71240 0.53043
 C1611 C 0.59856 0.22487 1.08917
 C1612 C 0.59534 0.24575 1.08492
 C1613 C 0.57799 0.25596 1.09281
 C1614 C 0.56360 0.24538 1.10506
 C1615 C 0.56701 0.22440 1.10930
 C1616 C 0.58439 0.21422 1.10140
 C1617 C 0.61623 0.21430 1.08072
 C1618 C 0.63094 0.20539 1.07351
 C1619 C 0.64831 0.19457 1.06477
 C1620 C 0.65903 0.17991 1.07654
 C1621 C 0.67545 0.16886 1.06783
 C1622 C 0.68135 0.17231 1.04719
 C1623 C 0.67066 0.18730 1.03558
 C1624 C 0.65423 0.19833 1.04432
 H1625 H 0.60616 0.25411 1.07538
 H1626 H 0.57564 0.27204 1.08903
 H1627 H 0.55634 0.21591 1.11887
 H1628 H 0.58676 0.19805 1.10480
 H1629 H 0.65460 0.17692 1.09240
 H1630 H 0.68355 0.15762 1.07724
 H1631 H 0.67465 0.19013 1.01958
 H1632 H 0.64599 0.20960 1.03505
 C1633 C 0.89775 0.22074 0.91853
 C1634 C 0.91161 0.21005 0.90581
 C1635 C 0.92810 0.22029 0.89661
 C1636 C 0.93091 0.24139 0.90000
 C1637 C 0.91694 0.25198 0.91290
 C1638 C 0.90047 0.24170 0.92209
 C1639 C 0.88069 0.21023 0.92789
 C1640 C 0.86641 0.20143 0.93572
 C1641 C 0.84939 0.19085 0.94507
 C1642 C 0.84295 0.17211 0.93704
 C1643 C 0.82662 0.16166 0.94627
 C1644 C 0.81651 0.16982 0.96370
 C1645 C 0.82303 0.18874 0.97158
 C1646 C 0.83936 0.19917 0.96231
 H1647 H 0.90962 0.19382 0.90293
 H1648 H 0.93848 0.21179 0.88660
 H1649 H 0.91887 0.26815 0.91604
 H1650 H 0.88987 0.25011 0.93197
 H1651 H 0.85066 0.16550 0.92374
 H1652 H 0.82217 0.14700 0.94001
 H1653 H 0.81540 0.19554 0.98482
 H1654 H 0.84419 0.21370 0.96862
 C1655 C 0.40300 0.72160 0.42371
 C1656 C 0.41688 0.71097 0.41097
 C1657 C 0.43299 0.72137 0.40132
 C1658 C 0.43543 0.74259 0.40429
 C1659 C 0.42138 0.75315 0.41713
 C1660 C 0.40528 0.74270 0.42678
 C1661 C 0.38634 0.71080 0.43342
 C1662 C 0.37241 0.70144 0.44124
 C1663 C 0.35583 0.68986 0.45012
 C1664 C 0.35299 0.66950 0.44413
 C1665 C 0.33663 0.65826 0.45222
 C1666 C 0.32283 0.66726 0.46643
 C1667 C 0.32596 0.68767 0.47258
 C1668 C 0.34235 0.69891 0.46443
 H1669 H 0.41520 0.69465 0.40842
 H1670 H 0.44338 0.71287 0.39131
 H1671 H 0.42301 0.76943 0.41991
 H1672 H 0.39462 0.75107 0.43663
 H1673 H 0.36338 0.66232 0.43311
 H1674 H 0.33484 0.64248 0.44743
 H1675 H 0.31548 0.69507 0.48334
 H1676 H 0.34440 0.71469 0.46914
 C1677 C 0.59762 0.77640 0.41712
 C1678 C 0.59995 0.76602 0.39839
 C1679 C 0.58316 0.75619 0.38958
 C1680 C 0.56379 0.75666 0.39941
 C1681 C 0.56162 0.76715 0.41822
 C1682 C 0.57843 0.77695 0.42700
 C1683 C 0.61482 0.78664 0.42619
 C1684 C 0.62902 0.79540 0.43395
 C1685 C 0.64572 0.80615 0.44335
 C1686 C 0.66614 0.80066 0.43883
 C1687 C 0.68231 0.81138 0.44777
 C1688 C 0.67823 0.82777 0.46131
 C1689 C 0.65763 0.83303 0.46587
 C1690 C 0.64151 0.82229 0.45694
 H1691 H 0.61473 0.76557 0.39058
 H1692 H 0.58524 0.74843 0.37498
 H1693 H 0.54699 0.76753 0.42630
 H1694 H 0.57646 0.78491 0.44152
 H1695 H 0.66956 0.78821 0.42829
 H1696 H 0.69799 0.80712 0.44377
 H1697 H 0.65399 0.84537 0.47645
 H1698 H 0.62576 0.82662 0.46060
 C1699 C 0.09337 0.27512 -0.08563
 C1700 C 0.09553 0.26513 -0.10459
 C1701 C 0.07868 0.25538 -0.11339
 C1702 C 0.05944 0.25552 -0.10333
 C1703 C 0.05740 0.26570 -0.08433
 C1704 C 0.07427 0.27542 -0.07555
 C1705 C 0.11069 0.28515 -0.07654
 C1706 C 0.12509 0.29368 -0.06886
 C1707 C 0.14210 0.30412 -0.05964
 C1708 C 0.16237 0.29814 -0.06425
 C1709 C 0.17886 0.30862 -0.05559
 C1710 C 0.17525 0.32527 -0.04225
 C1711 C 0.15480 0.33100 -0.03755
 C1712 C 0.13836 0.32049 -0.04620
 H1713 H 0.11022 0.26488 -0.11256
 H1714 H 0.08065 0.24791 -0.12816
 H1715 H 0.04285 0.26586 -0.07612
 H1716 H 0.07243 0.28310 -0.06086
 H1717 H 0.16544 0.28551 -0.07467
 H1718 H 0.19441 0.30399 -0.05967
 H1719 H 0.15151 0.34354 -0.02710
 H1720 H 0.12273 0.32520 -0.04246
 C1721 C 0.40200 0.27658 0.07526
 C1722 C 0.41495 0.28820 0.08768
 C1723 C 0.43126 0.27872 0.09819
 C1724 C 0.43484 0.25744 0.09643
 C1725 C 0.42176 0.24589 0.08386
 C1726 C 0.40546 0.25541 0.07335
 C1727 C 0.38502 0.28639 0.06479
 C1728 C 0.37076 0.29493 0.05637
 C1729 C 0.35371 0.30559 0.04684
 C1730 C 0.34933 0.32594 0.05226
 C1731 C 0.33247 0.33628 0.04362
 C1732 C 0.31967 0.32639 0.02943
 C1733 C 0.32436 0.30600 0.02383
 C1734 C 0.34127 0.29565 0.03253
 H1735 H 0.41235 0.30458 0.08934
 H1736 H 0.44089 0.28798 0.10794
 H1737 H 0.42429 0.22953 0.08199
 H1738 H 0.39554 0.24627 0.06377
 H1739 H 0.35889 0.33380 0.06326
 H1740 H 0.32948 0.35207 0.04798
 H1741 H 0.31471 0.29793 0.01308
 H1742 H 0.34450 0.27987 0.02826
 C1743 C 0.90328 0.77750 0.57874
 C1744 C 0.90029 0.76797 0.59790
 C1745 C 0.91678 0.75830 0.60793
 C1746 C 0.93652 0.75803 0.59890
 C1747 C 0.93940 0.76776 0.57967
 C1748 C 0.92287 0.77742 0.56966
 C1749 C 0.88620 0.78738 0.56849
 C1750 C 0.87171 0.79567 0.56023
 C1751 C 0.85421 0.80566 0.55086
 C1752 C 0.83536 0.80626 0.56137
 C1753 C 0.81848 0.81663 0.55278
 C1754 C 0.82023 0.82658 0.53353
 C1755 C 0.83915 0.82558 0.52289
 C1756 C 0.85604 0.81520 0.53154
 H1757 H 0.88520 0.76803 0.60511
 H1758 H 0.91414 0.75118 0.62283
 H1759 H 0.95436 0.76759 0.57222
 H1760 H 0.92534 0.78475 0.55482
 H1761 H 0.83375 0.79888 0.57631
 H1762 H 0.80404 0.81688 0.56121
 H1763 H 0.84103 0.83327 0.50816
 H1764 H 0.87059 0.81487 0.52330
   
