data_POSCAR
  _audit_creation_date              2014-09-24
  _audit_creation_method            'ToBaCCo'
  _symmetry_space_group_name_H-M    'P1'
  _symmetry_Int_Tables_number       1
  _symmetry_cell_setting            triclinic
  loop_
  _symmetry_equiv_pos_as_xyz
 x,y,z
_cell_length_a 70.9684
_cell_length_b 70.9589
_cell_length_c 71.0326
_cell_angle_alpha 89.982800
_cell_angle_beta 89.981700
_cell_angle_gamma 89.952300
loop_
  _atom_site_label
  _atom_site_type_symbol
  _atom_site_fract_x
  _atom_site_fract_y
  _atom_site_fract_z
C1 C 0.35202 0.35185 0.32796
 C2 C 0.36802 0.34354 0.31985
 C3 C 0.37594 0.32730 0.32782
 C4 C 0.36800 0.31930 0.34402
 C5 C 0.35200 0.32742 0.35231
 C6 C 0.34393 0.34376 0.34426
 C7 C 0.34377 0.36791 0.31990
 C8 C 0.32758 0.37588 0.32792
 C9 C 0.31958 0.36795 0.34412
 C10 C 0.32765 0.35188 0.35236
 C11 C 0.31956 0.34361 0.36838
 C12 C 0.32753 0.32737 0.37629
 C13 C 0.34372 0.31934 0.36833
 H14 H 0.37422 0.34956 0.30726
 H15 H 0.37418 0.30667 0.35002
 H16 H 0.34979 0.37410 0.30731
 H17 H 0.30699 0.37417 0.35015
 H18 H 0.30697 0.34967 0.37459
 H19 H 0.34973 0.30671 0.37450
 C20 C 0.35231 0.85227 -0.17279
 C21 C 0.36834 0.84399 -0.18089
 C22 C 0.37633 0.82778 -0.17290
 C23 C 0.36842 0.81982 -0.15665
 C24 C 0.35240 0.82791 -0.14837
 C25 C 0.34428 0.84421 -0.15646
 C26 C 0.34400 0.86828 -0.18088
 C27 C 0.32779 0.87624 -0.17287
 C28 C 0.31984 0.86831 -0.15662
 C29 C 0.32798 0.85229 -0.14836
 C30 C 0.31994 0.84404 -0.13230
 C31 C 0.32797 0.82785 -0.12436
 C32 C 0.34418 0.81985 -0.13232
 H33 H 0.37447 0.85004 -0.19352
 H34 H 0.37462 0.80722 -0.15058
 H35 H 0.35003 0.87444 -0.19351
 H36 H 0.30724 0.87448 -0.15054
 H37 H 0.30734 0.85007 -0.12609
 H38 H 0.35023 0.80726 -0.12611
 C39 C 0.85235 0.35242 -0.17261
 C40 C 0.86839 0.34416 -0.18070
 C41 C 0.87637 0.32794 -0.17270
 C42 C 0.86845 0.31997 -0.15648
 C43 C 0.85241 0.32806 -0.14821
 C44 C 0.84429 0.34435 -0.15630
 C45 C 0.84406 0.36845 -0.18071
 C46 C 0.82783 0.37640 -0.17272
 C47 C 0.81986 0.36845 -0.15649
 C48 C 0.82798 0.35243 -0.14822
 C49 C 0.81992 0.34417 -0.13218
 C50 C 0.82795 0.32797 -0.12424
 C51 C 0.84416 0.31998 -0.13218
 H52 H 0.87454 0.35022 -0.19332
 H53 H 0.87463 0.30736 -0.15040
 H54 H 0.85010 0.37461 -0.19332
 H55 H 0.80724 0.37462 -0.15042
 H56 H 0.80731 0.35019 -0.12598
 H57 H 0.85021 0.30739 -0.12597
 C58 C 0.85176 0.85243 0.32783
 C59 C 0.86779 0.84415 0.31975
 C60 C 0.87575 0.82795 0.32776
 C61 C 0.86783 0.81998 0.34397
 C62 C 0.85179 0.82808 0.35223
 C63 C 0.84369 0.84437 0.34414
 C64 C 0.84347 0.86845 0.31972
 C65 C 0.82724 0.87641 0.32770
 C66 C 0.81926 0.86848 0.34393
 C67 C 0.82737 0.85246 0.35221
 C68 C 0.81930 0.84421 0.36825
 C69 C 0.82732 0.82801 0.37620
 C70 C 0.84354 0.82001 0.36827
 H71 H 0.87398 0.85016 0.30714
 H72 H 0.87404 0.80738 0.35001
 H73 H 0.84953 0.87460 0.30710
 H74 H 0.80664 0.87465 0.34999
 H75 H 0.80669 0.85023 0.37444
 H76 H 0.84958 0.80741 0.37448
 C77 C 0.64789 0.64793 0.32778
 C78 C 0.63188 0.65623 0.31968
 C79 C 0.62392 0.67243 0.32768
 C80 C 0.63181 0.68038 0.34391
 C81 C 0.64783 0.67227 0.35219
 C82 C 0.65593 0.65597 0.34410
 C83 C 0.65619 0.63191 0.31969
 C84 C 0.67238 0.62395 0.32769
 C85 C 0.68034 0.63184 0.34392
 C86 C 0.67222 0.64786 0.35220
 C87 C 0.68027 0.65610 0.36825
 C88 C 0.67225 0.67229 0.37619
 C89 C 0.65606 0.68032 0.36824
 H90 H 0.62572 0.65024 0.30706
 H91 H 0.62560 0.69298 0.34994
 H92 H 0.65020 0.62575 0.30707
 H93 H 0.69293 0.62563 0.34995
 H94 H 0.69286 0.65005 0.37445
 H95 H 0.65001 0.69291 0.37444
 C96 C 0.64814 0.14763 -0.17230
 C97 C 0.63210 0.15590 -0.18037
 C98 C 0.62416 0.17212 -0.17239
 C99 C 0.63210 0.18012 -0.15621
 C100 C 0.64815 0.17204 -0.14796
 C101 C 0.65623 0.15572 -0.15602
 C102 C 0.65641 0.13159 -0.18037
 C103 C 0.67265 0.12364 -0.17240
 C104 C 0.68065 0.13160 -0.15621
 C105 C 0.67255 0.14764 -0.14796
 C106 C 0.68064 0.15593 -0.13196
 C107 C 0.67264 0.17215 -0.12403
 C108 C 0.65642 0.18014 -0.13196
 H109 H 0.62589 0.14987 -0.19295
 H110 H 0.62590 0.19274 -0.15020
 H111 H 0.65034 0.12541 -0.19296
 H112 H 0.69327 0.12544 -0.15015
 H113 H 0.69326 0.14991 -0.12577
 H114 H 0.65039 0.19275 -0.12577
 C115 C 0.14832 0.64762 -0.17235
 C116 C 0.13229 0.65590 -0.18043
 C117 C 0.12435 0.67213 -0.17246
 C118 C 0.13229 0.68013 -0.15627
 C119 C 0.14832 0.67203 -0.14801
 C120 C 0.15640 0.65570 -0.15607
 C121 C 0.15658 0.63157 -0.18042
 C122 C 0.17280 0.62360 -0.17243
 C123 C 0.18079 0.63156 -0.15623
 C124 C 0.17270 0.64761 -0.14799
 C125 C 0.18079 0.65589 -0.13198
 C126 C 0.17280 0.67211 -0.12406
 C127 C 0.15659 0.68012 -0.13200
 H128 H 0.12609 0.64988 -0.19302
 H129 H 0.12610 0.69274 -0.15026
 H130 H 0.15051 0.62540 -0.19301
 H131 H 0.19340 0.62539 -0.15017
 H132 H 0.19339 0.64986 -0.12578
 H133 H 0.15057 0.69274 -0.12582
 C134 C 0.14787 0.14787 0.32742
 C135 C 0.13186 0.15617 0.31931
 C136 C 0.12385 0.17235 0.32733
 C137 C 0.13172 0.18028 0.34360
 C138 C 0.14773 0.17216 0.35189
 C139 C 0.15587 0.15589 0.34378
 C140 C 0.15620 0.13188 0.31931
 C141 C 0.17240 0.12390 0.32733
 C142 C 0.18031 0.13179 0.34360
 C143 C 0.17215 0.14778 0.35189
 C144 C 0.18016 0.15599 0.36797
 C145 C 0.17211 0.17216 0.37593
 C146 C 0.15592 0.18018 0.36797
 H147 H 0.12575 0.15015 0.30666
 H148 H 0.12551 0.19286 0.34969
 H149 H 0.15019 0.12576 0.30666
 H150 H 0.19290 0.12560 0.34969
 H151 H 0.19275 0.14994 0.37419
 H152 H 0.14986 0.19276 0.37419
 C153 C 0.64786 0.35218 0.67201
 C154 C 0.63183 0.34391 0.68009
 C155 C 0.62386 0.32775 0.67206
 C156 C 0.63176 0.31980 0.65582
 C157 C 0.64779 0.32788 0.64756
 C158 C 0.65591 0.34414 0.65567
 C159 C 0.65617 0.36815 0.68013
 C160 C 0.67238 0.37609 0.67215
 C161 C 0.68034 0.36819 0.65591
 C162 C 0.67222 0.35221 0.64760
 C163 C 0.68027 0.34398 0.63154
 C164 C 0.67224 0.32782 0.62357
 C165 C 0.65602 0.31983 0.63150
 H166 H 0.62566 0.34990 0.69272
 H167 H 0.62553 0.30722 0.64977
 H168 H 0.65017 0.37432 0.69276
 H169 H 0.69295 0.37438 0.64989
 H170 H 0.69288 0.35000 0.62535
 H171 H 0.64997 0.30726 0.62527
 C172 C 0.64752 0.85188 1.17242
 C173 C 0.63147 0.84365 1.18051
 C174 C 0.62348 0.82745 1.17252
 C175 C 0.63142 0.81945 1.15631
 C176 C 0.64747 0.82750 1.14805
 C177 C 0.65558 0.84378 1.15613
 C178 C 0.65582 0.86788 1.18050
 C179 C 0.67205 0.87578 1.17251
 C180 C 0.68003 0.86782 1.15631
 C181 C 0.67191 0.85182 1.14805
 C182 C 0.67998 0.84354 1.13203
 C183 C 0.67195 0.82735 1.12409
 C184 C 0.65572 0.81940 1.13202
 H185 H 0.62532 0.84973 1.19311
 H186 H 0.62523 0.80686 1.15024
 H187 H 0.64981 0.87409 1.19310
 H188 H 0.69265 0.87399 1.15029
 H189 H 0.69259 0.84953 1.12583
 H190 H 0.64967 0.80681 1.12583
 C191 C 0.14768 0.35186 1.17262
 C192 C 0.13169 0.34355 1.18073
 C193 C 0.12378 0.32731 1.17276
 C194 C 0.13173 0.31933 1.15654
 C195 C 0.14773 0.32747 1.14826
 C196 C 0.15577 0.34379 1.15631
 C197 C 0.15592 0.36791 1.18067
 C198 C 0.17209 0.37589 1.17266
 C199 C 0.18009 0.36797 1.15645
 C200 C 0.17204 0.35192 1.14821
 C201 C 0.18013 0.34366 1.13218
 C202 C 0.17218 0.32743 1.12427
 C203 C 0.15601 0.31940 1.13223
 H204 H 0.12552 0.34961 1.19334
 H205 H 0.12560 0.30671 1.15049
 H206 H 0.14989 0.37410 1.19328
 H207 H 0.19267 0.37419 1.15041
 H208 H 0.19271 0.34972 1.12597
 H209 H 0.15002 0.30678 1.12605
 C210 C 0.14740 0.85187 0.67243
 C211 C 0.13139 0.84358 0.68053
 C212 C 0.12341 0.82740 0.67251
 C213 C 0.13132 0.81947 0.65624
 C214 C 0.14733 0.82758 0.64797
 C215 C 0.15543 0.84384 0.65608
 C216 C 0.15570 0.86786 0.68054
 C217 C 0.17189 0.87581 0.67254
 C218 C 0.17983 0.86793 0.65629
 C219 C 0.17172 0.85195 0.64799
 C220 C 0.17976 0.84373 0.63192
 C221 C 0.17175 0.82756 0.62395
 C222 C 0.15556 0.81955 0.63189
 H223 H 0.12526 0.84961 0.69317
 H224 H 0.12513 0.80689 0.65015
 H225 H 0.14971 0.87401 0.69318
 H226 H 0.19243 0.87414 0.65025
 H227 H 0.19236 0.84977 0.62571
 H228 H 0.14952 0.80697 0.62567
 C229 C 0.35196 0.64799 0.67207
 C230 C 0.36796 0.65629 0.68015
 C231 C 0.37589 0.67249 0.67214
 C232 C 0.36796 0.68046 0.65593
 C233 C 0.35195 0.67236 0.64766
 C234 C 0.34388 0.65605 0.65575
 C235 C 0.34369 0.63197 0.68016
 C236 C 0.32750 0.62401 0.67217
 C237 C 0.31952 0.63193 0.65596
 C238 C 0.32759 0.64795 0.64768
 C239 C 0.31952 0.65620 0.63164
 C240 C 0.32750 0.67241 0.62369
 C241 C 0.34369 0.68042 0.63163
 H242 H 0.37415 0.65028 0.69276
 H243 H 0.37415 0.69307 0.64990
 H244 H 0.34971 0.62579 0.69277
 H245 H 0.30693 0.62572 0.64994
 H246 H 0.30692 0.65017 0.62545
 H247 H 0.34970 0.69303 0.62542
 C248 C 0.35237 0.14774 1.17281
 C249 C 0.36842 0.15599 1.18088
 C250 C 0.37642 0.17216 1.17284
 C251 C 0.36850 0.18013 1.15660
 C252 C 0.35246 0.17206 1.14836
 C253 C 0.34433 0.15580 1.15649
 C254 C 0.34406 0.13176 1.18094
 C255 C 0.32782 0.12384 1.17297
 C256 C 0.31987 0.13177 1.15673
 C257 C 0.32801 0.14775 1.14842
 C258 C 0.31996 0.15600 1.13237
 C259 C 0.32800 0.17216 1.12439
 C260 C 0.34422 0.18012 1.13231
 H261 H 0.37456 0.14994 1.19350
 H262 H 0.37470 0.19270 1.15050
 H263 H 0.35009 0.12561 1.19357
 H264 H 0.30725 0.12562 1.15067
 H265 H 0.30735 0.14999 1.12619
 H266 H 0.35028 0.19269 1.12608
 C267 C 0.85207 0.64735 1.17249
 C268 C 0.86808 0.65566 1.18056
 C269 C 0.87599 0.67187 1.17254
 C270 C 0.86805 0.67982 1.15633
 C271 C 0.85204 0.67170 1.14807
 C272 C 0.84398 0.65540 1.15618
 C273 C 0.84382 0.63132 1.18060
 C274 C 0.82762 0.62334 1.17262
 C275 C 0.81963 0.63126 1.15639
 C276 C 0.82769 0.64729 1.14811
 C277 C 0.81961 0.65553 1.13207
 C278 C 0.82758 0.67173 1.12411
 C279 C 0.84377 0.67976 1.13204
 H280 H 0.87428 0.64966 1.19317
 H281 H 0.87422 0.69243 1.15028
 H282 H 0.84989 0.62518 1.19321
 H283 H 0.80703 0.62507 1.15034
 H284 H 0.80702 0.64948 1.12588
 H285 H 0.84977 0.69236 1.12583
 C286 C 0.85201 0.14811 0.67220
 C287 C 0.86800 0.15641 0.68031
 C288 C 0.87595 0.17261 0.67230
 C289 C 0.86806 0.18056 0.65606
 C290 C 0.85207 0.17244 0.64777
 C291 C 0.84397 0.15615 0.65586
 C292 C 0.84373 0.13210 0.68030
 C293 C 0.82756 0.12414 0.67229
 C294 C 0.81961 0.13203 0.65605
 C295 C 0.82770 0.14804 0.64776
 C296 C 0.81966 0.15627 0.63170
 C297 C 0.82766 0.17247 0.62375
 C298 C 0.84384 0.18049 0.63170
 H299 H 0.87417 0.15042 0.69294
 H300 H 0.87426 0.19315 0.65002
 H301 H 0.84972 0.12594 0.69293
 H302 H 0.80703 0.12581 0.65001
 H303 H 0.80708 0.15023 0.62549
 H304 H 0.84987 0.19308 0.62550
 C305 C 0.35181 0.35205 0.67224
 C306 C 0.34354 0.36808 0.68032
 C307 C 0.32731 0.37602 0.67235
 C308 C 0.31930 0.36806 0.65618
 C309 C 0.32739 0.35203 0.64791
 C310 C 0.34371 0.34395 0.65597
 C311 C 0.36786 0.34378 0.68030
 C312 C 0.37581 0.32757 0.67231
 C313 C 0.36785 0.31956 0.65614
 C314 C 0.35180 0.32764 0.64789
 C315 C 0.34352 0.31954 0.63190
 C316 C 0.32729 0.32753 0.62398
 C317 C 0.31929 0.34374 0.63192
 H318 H 0.34957 0.37429 0.69289
 H319 H 0.30668 0.37426 0.65017
 H320 H 0.37407 0.34982 0.69288
 H321 H 0.37406 0.30695 0.65012
 H322 H 0.34955 0.30693 0.62571
 H323 H 0.30667 0.34976 0.62574
 C324 C 0.35218 0.85287 0.17189
 C325 C 0.34391 0.86890 0.17998
 C326 C 0.32769 0.87685 0.17202
 C327 C 0.31969 0.86892 0.15582
 C328 C 0.32778 0.85290 0.14754
 C329 C 0.34410 0.84480 0.15560
 C330 C 0.36822 0.84459 0.17995
 C331 C 0.37617 0.82838 0.17194
 C332 C 0.36823 0.82040 0.15575
 C333 C 0.35219 0.82850 0.14751
 C334 C 0.34391 0.82043 0.13149
 C335 C 0.32769 0.82843 0.12358
 C336 C 0.31969 0.84464 0.13153
 H337 H 0.34993 0.87508 0.19257
 H338 H 0.30707 0.87513 0.14982
 H339 H 0.37442 0.85060 0.19254
 H340 H 0.37443 0.80780 0.14972
 H341 H 0.34994 0.80782 0.12529
 H342 H 0.30707 0.85067 0.12535
 C343 C 0.85277 0.35208 0.17197
 C344 C 0.84448 0.36812 0.18004
 C345 C 0.82828 0.37607 0.17203
 C346 C 0.82031 0.36814 0.15584
 C347 C 0.82840 0.35210 0.14758
 C348 C 0.84470 0.34400 0.15567
 C349 C 0.86879 0.34380 0.18006
 C350 C 0.87674 0.32758 0.17209
 C351 C 0.86882 0.31959 0.15589
 C352 C 0.85279 0.32769 0.14761
 C353 C 0.84454 0.31960 0.13159
 C354 C 0.82834 0.32761 0.12365
 C355 C 0.82033 0.34383 0.13157
 H356 H 0.85049 0.37432 0.19263
 H357 H 0.80770 0.37435 0.14980
 H358 H 0.87497 0.34982 0.19266
 H359 H 0.87502 0.30698 0.14988
 H360 H 0.85057 0.30699 0.12541
 H361 H 0.80773 0.34987 0.12536
 C362 C 0.85211 0.85234 0.67229
 C363 C 0.84383 0.86836 0.68039
 C364 C 0.82759 0.87629 0.67244
 C365 C 0.81959 0.86835 0.65625
 C366 C 0.82769 0.85233 0.64797
 C367 C 0.84402 0.84426 0.65601
 C368 C 0.86817 0.84407 0.68034
 C369 C 0.87613 0.82788 0.67233
 C370 C 0.86818 0.81989 0.65614
 C371 C 0.85212 0.82796 0.64791
 C372 C 0.84384 0.81988 0.63190
 C373 C 0.82761 0.82787 0.62401
 C374 C 0.81959 0.84407 0.63196
 H375 H 0.84986 0.87455 0.69298
 H376 H 0.80696 0.87454 0.65026
 H377 H 0.87438 0.85010 0.69292
 H378 H 0.87439 0.80729 0.65010
 H379 H 0.84988 0.80729 0.62569
 H380 H 0.80697 0.85009 0.62579
 C381 C 0.64782 0.64778 0.67261
 C382 C 0.65612 0.63176 0.68070
 C383 C 0.67233 0.62381 0.67271
 C384 C 0.68030 0.63174 0.65649
 C385 C 0.67219 0.64776 0.64822
 C386 C 0.65588 0.65585 0.65630
 C387 C 0.63178 0.65606 0.68070
 C388 C 0.62382 0.67226 0.67270
 C389 C 0.63173 0.68024 0.65648
 C390 C 0.64777 0.67215 0.64821
 C391 C 0.65602 0.68022 0.63217
 C392 C 0.67223 0.67222 0.62423
 C393 C 0.68025 0.65602 0.63218
 H394 H 0.65011 0.62557 0.69331
 H395 H 0.69291 0.62554 0.65046
 H396 H 0.62560 0.65004 0.69331
 H397 H 0.62552 0.69283 0.65045
 H398 H 0.64997 0.69282 0.62597
 H399 H 0.69286 0.64999 0.62598
 C400 C 0.64799 0.14752 0.17180
 C401 C 0.65627 0.13151 0.17991
 C402 C 0.67253 0.12359 0.17198
 C403 C 0.68056 0.13154 0.15581
 C404 C 0.67247 0.14756 0.14751
 C405 C 0.65611 0.15562 0.15553
 C406 C 0.63191 0.15577 0.17983
 C407 C 0.62396 0.17197 0.17181
 C408 C 0.63194 0.17998 0.15564
 C409 C 0.64802 0.17192 0.14743
 C410 C 0.65632 0.18002 0.13143
 C411 C 0.67258 0.17205 0.12356
 C412 C 0.68059 0.15585 0.13152
 H413 H 0.65022 0.12530 0.19249
 H414 H 0.69321 0.12537 0.14983
 H415 H 0.62569 0.14974 0.19240
 H416 H 0.62573 0.19258 0.14960
 H417 H 0.65029 0.19262 0.12522
 H418 H 0.69323 0.14984 0.12537
 C419 C 0.14784 0.64801 0.17193
 C420 C 0.15610 0.63197 0.18001
 C421 C 0.17232 0.62402 0.17203
 C422 C 0.18033 0.63197 0.15584
 C423 C 0.17225 0.64801 0.14757
 C424 C 0.15593 0.65610 0.15564
 C425 C 0.13180 0.65629 0.18000
 C426 C 0.12387 0.67251 0.17201
 C427 C 0.13182 0.68051 0.15582
 C428 C 0.14786 0.67242 0.14757
 C429 C 0.15614 0.68051 0.13156
 C430 C 0.17236 0.67251 0.12363
 C431 C 0.18035 0.65629 0.13156
 H432 H 0.15007 0.62577 0.19260
 H433 H 0.19294 0.62576 0.14983
 H434 H 0.12559 0.65026 0.19259
 H435 H 0.12562 0.69313 0.14981
 H436 H 0.15012 0.69313 0.12537
 H437 H 0.19296 0.65026 0.12538
 C438 C 0.14755 0.14762 0.67268
 C439 C 0.15583 0.13159 0.68077
 C440 C 0.17202 0.12361 0.67275
 C441 C 0.17998 0.13150 0.65652
 C442 C 0.17188 0.14753 0.64824
 C443 C 0.15560 0.15565 0.65634
 C444 C 0.13155 0.15593 0.68078
 C445 C 0.12360 0.17214 0.67278
 C446 C 0.13150 0.18009 0.65654
 C447 C 0.14751 0.17196 0.64825
 C448 C 0.15574 0.18000 0.63219
 C449 C 0.17193 0.17196 0.62423
 C450 C 0.17993 0.15575 0.63218
 H451 H 0.14984 0.12543 0.69340
 H452 H 0.19256 0.12527 0.65047
 H453 H 0.12538 0.14995 0.69341
 H454 H 0.12530 0.19269 0.65050
 H455 H 0.14971 0.19260 0.62598
 H456 H 0.19252 0.14970 0.62596
 C457 C 0.35219 0.64808 0.32757
 C458 C 0.34395 0.63204 0.31951
 C459 C 0.32775 0.62409 0.32751
 C460 C 0.31975 0.63203 0.34370
 C461 C 0.32781 0.64808 0.35195
 C462 C 0.34410 0.65617 0.34386
 C463 C 0.36821 0.65637 0.31947
 C464 C 0.37612 0.67259 0.32744
 C465 C 0.36817 0.68059 0.34363
 C466 C 0.35216 0.67249 0.35191
 C467 C 0.34387 0.68058 0.36793
 C468 C 0.32768 0.67257 0.37587
 C469 C 0.31971 0.65635 0.36796
 H470 H 0.34998 0.62584 0.30691
 H471 H 0.30716 0.62582 0.34973
 H472 H 0.37441 0.65034 0.30688
 H473 H 0.37435 0.69320 0.34964
 H474 H 0.34988 0.69320 0.37410
 H475 H 0.30712 0.65032 0.37417
 C476 C 0.35234 0.14740 0.82806
 C477 C 0.34408 0.13137 0.81999
 C478 C 0.32789 0.12342 0.82801
 C479 C 0.31991 0.13135 0.84422
 C480 C 0.32798 0.14738 0.85247
 C481 C 0.34427 0.15548 0.84436
 C482 C 0.36834 0.15569 0.81995
 C483 C 0.37627 0.17190 0.82792
 C484 C 0.36835 0.17989 0.84413
 C485 C 0.35234 0.17179 0.85242
 C486 C 0.34408 0.17987 0.86845
 C487 C 0.32790 0.17186 0.87642
 C488 C 0.31991 0.15565 0.86850
 H489 H 0.35009 0.12518 0.80739
 H490 H 0.30732 0.12515 0.85026
 H491 H 0.37453 0.14967 0.80734
 H492 H 0.37454 0.19250 0.85014
 H493 H 0.35010 0.19248 0.87463
 H494 H 0.30732 0.14962 0.87471
 C495 C 0.85258 0.64768 0.82794
 C496 C 0.84434 0.63163 0.81988
 C497 C 0.82816 0.62366 0.82788
 C498 C 0.82015 0.63159 0.84408
 C499 C 0.82820 0.64764 0.85233
 C500 C 0.84449 0.65575 0.84424
 C501 C 0.86858 0.65598 0.81984
 C502 C 0.87649 0.67220 0.82782
 C503 C 0.86853 0.68019 0.84401
 C504 C 0.85253 0.67208 0.85230
 C505 C 0.84424 0.68015 0.86832
 C506 C 0.82806 0.67213 0.87626
 C507 C 0.82011 0.65590 0.86835
 H508 H 0.85038 0.62544 0.80728
 H509 H 0.80757 0.62537 0.85011
 H510 H 0.87479 0.64996 0.80725
 H511 H 0.87470 0.69281 0.85002
 H512 H 0.85024 0.69277 0.87450
 H513 H 0.80752 0.64985 0.87455
 C514 C 0.85265 0.14752 0.32766
 C515 C 0.84438 0.13149 0.31959
 C516 C 0.82815 0.12358 0.32757
 C517 C 0.82013 0.13155 0.34374
 C518 C 0.82821 0.14758 0.35199
 C519 C 0.84454 0.15564 0.34393
 C520 C 0.86869 0.15577 0.31959
 C521 C 0.87662 0.17198 0.32757
 C522 C 0.86866 0.18001 0.34374
 C523 C 0.85261 0.17195 0.35199
 C524 C 0.84431 0.18006 0.36798
 C525 C 0.82808 0.17210 0.37590
 C526 C 0.82010 0.15589 0.36798
 H527 H 0.85043 0.12527 0.30701
 H528 H 0.80751 0.12538 0.34975
 H529 H 0.87491 0.14972 0.30701
 H530 H 0.87485 0.19261 0.34975
 H531 H 0.85033 0.19267 0.37416
 H532 H 0.80748 0.14988 0.37416
 C533 C 0.64771 0.35204 0.32714
 C534 C 0.65598 0.36807 0.31906
 C535 C 0.67217 0.37602 0.32706
 C536 C 0.68014 0.36809 0.34328
 C537 C 0.67205 0.35206 0.35155
 C538 C 0.65577 0.34397 0.34345
 C539 C 0.63170 0.34376 0.31905
 C540 C 0.62376 0.32755 0.32705
 C541 C 0.63168 0.31957 0.34326
 C542 C 0.64769 0.32767 0.35154
 C543 C 0.65594 0.31960 0.36758
 C544 C 0.67213 0.32760 0.37552
 C545 C 0.68012 0.34381 0.36758
 H546 H 0.64997 0.37426 0.30645
 H547 H 0.69273 0.37429 0.34931
 H548 H 0.62551 0.34977 0.30644
 H549 H 0.62548 0.30697 0.34929
 H550 H 0.64992 0.30699 0.37378
 H551 H 0.69271 0.34984 0.37378
 C552 C 0.64753 0.85236 0.82818
 C553 C 0.65580 0.86840 0.82012
 C554 C 0.67202 0.87631 0.82811
 C555 C 0.68002 0.86833 0.84428
 C556 C 0.67194 0.85229 0.85252
 C557 C 0.65563 0.84423 0.84445
 C558 C 0.63150 0.84411 0.82010
 C559 C 0.62357 0.82789 0.82806
 C560 C 0.63152 0.81985 0.84424
 C561 C 0.64755 0.82791 0.85250
 C562 C 0.65583 0.81978 0.86850
 C563 C 0.67205 0.82775 0.87643
 C564 C 0.68004 0.84397 0.86852
 H565 H 0.64977 0.87463 0.80754
 H566 H 0.69263 0.87450 0.85030
 H567 H 0.62530 0.85017 0.80752
 H568 H 0.62532 0.80724 0.85024
 H569 H 0.64981 0.80717 0.87467
 H570 H 0.69265 0.84997 0.87471
 C571 C 0.14763 0.35234 0.82838
 C572 C 0.15591 0.36837 0.82032
 C573 C 0.17213 0.37627 0.82829
 C574 C 0.18014 0.36829 0.84446
 C575 C 0.17206 0.35226 0.85271
 C576 C 0.15573 0.34421 0.84465
 C577 C 0.13159 0.34410 0.82031
 C578 C 0.12365 0.32789 0.82829
 C579 C 0.13161 0.31985 0.84446
 C580 C 0.14765 0.32790 0.85271
 C581 C 0.15594 0.31977 0.86870
 C582 C 0.17216 0.32772 0.87662
 C583 C 0.18016 0.34394 0.86870
 H584 H 0.14987 0.37460 0.80774
 H585 H 0.19276 0.37446 0.85047
 H586 H 0.12538 0.35016 0.80774
 H587 H 0.12541 0.30724 0.85046
 H588 H 0.14992 0.30715 0.87488
 H589 H 0.19278 0.34993 0.87488
 C590 C 0.14757 0.85282 0.32758
 C591 C 0.15583 0.86886 0.31951
 C592 C 0.17202 0.87680 0.32752
 C593 C 0.18001 0.86885 0.34372
 C594 C 0.17193 0.85281 0.35197
 C595 C 0.15564 0.84473 0.34388
 C596 C 0.13156 0.84455 0.31948
 C597 C 0.12363 0.82833 0.32746
 C598 C 0.13155 0.82032 0.34366
 C599 C 0.14756 0.82841 0.35194
 C600 C 0.15582 0.82032 0.36796
 C601 C 0.17201 0.82831 0.37591
 C602 C 0.18000 0.84453 0.36799
 H603 H 0.14982 0.87506 0.30691
 H604 H 0.19260 0.87505 0.34975
 H605 H 0.12537 0.85058 0.30688
 H606 H 0.12536 0.80771 0.34967
 H607 H 0.14980 0.80770 0.37414
 H608 H 0.19259 0.85055 0.37420
 O609 O 0.25201 1.01928 0.22609
 O610 O 0.22597 0.98252 0.25186
 O611 O 0.22602 1.01928 0.25193
 O612 O 0.25193 0.98252 0.22600
 O613 O 0.27392 0.98241 0.24805
 O614 O 0.24801 1.01917 0.27398
 O615 O 0.24796 0.98241 0.27392
 O616 O 0.27400 1.01916 0.24815
 Cu617 Cu 0.23677 1.00091 0.23675
 Cu618 Cu 0.26319 1.00078 0.26325
 C619 C 0.26737 1.02547 0.23281
 C620 C 0.23261 0.97621 0.26720
 C621 C 0.23267 1.02548 0.26730
 C622 C 0.26726 0.97621 0.23268
 O623 O 0.25167 0.51853 0.72629
 O624 O 0.22581 0.48185 0.75233
 O625 O 0.22585 0.51860 0.75229
 O626 O 0.25163 0.48178 0.72632
 O627 O 0.27375 0.48175 0.74825
 O628 O 0.24797 0.51858 0.77421
 O629 O 0.24793 0.48182 0.77425
 O630 O 0.27379 0.51851 0.74821
 Cu631 Cu 0.23651 0.50019 0.73709
 Cu632 Cu 0.26309 0.50016 0.76344
 C633 C 0.26706 0.52476 0.73289
 C634 C 0.23254 0.47559 0.76765
 C635 C 0.23260 0.52486 0.76759
 C636 C 0.26700 0.47550 0.73294
 O637 O 0.72623 0.01807 0.24809
 O638 O 0.75203 -0.01871 0.27411
 O639 O 0.75213 0.01805 0.27399
 O640 O 0.72613 -0.01868 0.24820
 O641 O 0.74819 -0.01882 0.22619
 O642 O 0.77419 0.01791 0.25199
 O643 O 0.77408 -0.01885 0.25210
 O644 O 0.74828 0.01793 0.22608
 Cu645 Cu 0.73691 -0.00030 0.26332
 Cu646 Cu 0.76341 -0.00047 0.23687
 C647 C 0.73294 0.02426 0.23273
 C648 C 0.76737 -0.02503 0.26746
 C649 C 0.76751 0.02423 0.26731
 C650 C 0.73280 -0.02500 0.23287
 O651 O 0.77435 0.51806 0.75212
 O652 O 0.74841 0.48138 0.72620
 O653 O 0.74839 0.51813 0.72628
 O654 O 0.77436 0.48130 0.75207
 O655 O 0.75235 0.48127 0.77412
 O656 O 0.72639 0.51809 0.74833
 O657 O 0.72641 0.48134 0.74825
 O658 O 0.75235 0.51803 0.77418
 Cu659 Cu 0.76360 0.49972 0.73695
 Cu660 Cu 0.73715 0.49968 0.76345
 C661 C 0.76769 0.52429 0.76749
 C662 C 0.73306 0.47512 0.73289
 C663 C 0.73304 0.52438 0.73299
 C664 C 0.76770 0.47502 0.76741
 O665 O 0.22600 0.51843 0.24806
 O666 O 0.25185 0.48168 0.27406
 O667 O 0.25190 0.51843 0.27395
 O668 O 0.22593 0.48167 0.24817
 O669 O 0.24797 0.48156 0.22616
 O670 O 0.27394 0.51832 0.25194
 O671 O 0.27389 0.48157 0.25204
 O672 O 0.24804 0.51831 0.22604
 Cu673 Cu 0.23670 0.50006 0.26328
 Cu674 Cu 0.26319 0.49993 0.23682
 C675 C 0.23269 0.52462 0.23269
 C676 C 0.26720 0.47537 0.26740
 C677 C 0.26727 0.52463 0.26726
 C678 C 0.23261 0.47536 0.23285
 O679 O 0.74790 1.01868 0.77426
 O680 O 0.77376 0.98189 0.74834
 O681 O 0.77376 1.01864 0.74831
 O682 O 0.74788 0.98192 0.77428
 O683 O 0.72580 0.98194 0.75231
 O684 O 0.75169 1.01866 0.72634
 O685 O 0.75168 0.98191 0.72637
 O686 O 0.72582 1.01870 0.75229
 Cu687 Cu 0.76305 1.00028 0.76352
 Cu688 Cu 0.73652 1.00030 0.73711
 C689 C 0.73253 1.02495 0.76762
 C690 C 0.76705 0.97564 0.73301
 C691 C 0.76706 1.02489 0.73298
 C692 C 0.73251 0.97568 0.76764
 O693 O 0.75229 0.51851 0.22580
 O694 O 0.72628 0.48173 0.25155
 O695 O 0.72632 0.51848 0.25165
 O696 O 0.75228 0.48175 0.22572
 O697 O 0.77426 0.48166 0.24779
 O698 O 0.74830 0.51838 0.27371
 O699 O 0.74826 0.48163 0.27361
 O700 O 0.77427 0.51842 0.24786
 Cu701 Cu 0.73708 0.50013 0.23645
 Cu702 Cu 0.76349 0.50002 0.26297
 C703 C 0.76763 0.52472 0.23252
 C704 C 0.73291 0.47542 0.26689
 C705 C 0.73297 0.52468 0.26703
 C706 C 0.76761 0.47546 0.23242
 O707 O 0.27401 0.01788 0.75218
 O708 O 0.24802 -0.01882 0.72632
 O709 O 0.24801 0.01794 0.72637
 O710 O 0.27404 -0.01887 0.75211
 O711 O 0.25208 -0.01892 0.77420
 O712 O 0.22605 0.01790 0.74847
 O713 O 0.22606 -0.01885 0.74842
 O714 O 0.25204 0.01784 0.77428
 Cu715 Cu 0.26324 -0.00046 0.73702
 Cu716 Cu 0.23685 -0.00051 0.76357
 C717 C 0.26737 0.02411 0.76756
 C718 C 0.23269 -0.02508 0.73304
 C719 C 0.23268 0.02418 0.73311
 C720 C 0.26742 -0.02516 0.76746
 O721 O 0.22616 0.25166 1.01873
 O722 O 0.25210 0.22574 0.98201
 O723 O 0.25213 0.22577 1.01873
 O724 O 0.22615 0.25166 0.98201
 O725 O 0.24815 0.27371 0.98198
 O726 O 0.27413 0.24782 1.01869
 O727 O 0.27410 0.24780 0.98197
 O728 O 0.24816 0.27371 1.01869
 Cu729 Cu 0.23692 0.23648 1.00037
 Cu730 Cu 0.26335 0.26298 1.00033
 C731 C 0.23282 0.26702 1.02496
 C732 C 0.26744 0.23243 0.97574
 C733 C 0.26748 0.23247 1.02496
 C734 C 0.23280 0.26702 0.97575
 O735 O 0.22567 0.75212 0.51812
 O736 O 0.25168 0.72631 0.48138
 O737 O 0.25163 0.72623 0.51810
 O738 O 0.22573 0.75222 0.48140
 O739 O 0.24773 0.77427 0.48147
 O740 O 0.27363 0.74828 0.51816
 O741 O 0.27368 0.74836 0.48145
 O742 O 0.24767 0.77417 0.51819
 Cu743 Cu 0.23646 0.73699 0.49974
 Cu744 Cu 0.26290 0.76350 0.49983
 C745 C 0.23231 0.76747 0.52441
 C746 C 0.26703 0.73301 0.47516
 C747 C 0.26697 0.73291 0.52437
 C748 C 0.23240 0.76760 0.47519
 O749 O 0.24835 0.72634 0.01818
 O750 O 0.27428 0.75220 -0.01857
 O751 O 0.27418 0.75232 0.01815
 O752 O 0.24844 0.72623 -0.01854
 O753 O 0.22634 0.74823 -0.01866
 O754 O 0.25209 0.77431 0.01803
 O755 O 0.25218 0.77420 -0.01868
 O756 O 0.22625 0.74833 0.01806
 Cu757 Cu 0.26354 0.73705 -0.00018
 Cu758 Cu 0.23698 0.76348 -0.00032
 C759 C 0.23295 0.73300 0.02437
 C760 C 0.26757 0.76753 -0.02488
 C761 C 0.26745 0.76768 0.02434
 C762 C 0.23308 0.73286 -0.02484
 O763 O 0.22563 0.24772 0.48177
 O764 O 0.25150 0.27362 0.51850
 O765 O 0.25154 0.27361 0.48179
 O766 O 0.22560 0.24770 0.51850
 O767 O 0.24764 0.22565 0.51851
 O768 O 0.27358 0.25156 0.48181
 O769 O 0.27354 0.25157 0.51853
 O770 O 0.24767 0.22567 0.48179
 Cu771 Cu 0.23634 0.26289 0.50014
 Cu772 Cu 0.26283 0.23639 0.50016
 C773 C 0.23232 0.23236 0.47553
 C774 C 0.26685 0.26693 0.52476
 C775 C 0.26691 0.26692 0.47556
 C776 C 0.23228 0.23234 0.52475
 O777 O 0.75191 0.72572 0.98176
 O778 O 0.72588 0.75154 1.01849
 O779 O 0.72595 0.75162 0.98178
 O780 O 0.75183 0.72563 1.01848
 O781 O 0.77384 0.74768 1.01856
 O782 O 0.74795 0.77367 0.98185
 O783 O 0.74789 0.77359 1.01857
 O784 O 0.77391 0.74777 0.98184
 Cu785 Cu 0.73667 0.73640 1.00012
 Cu786 Cu 0.76312 0.76290 1.00021
 C787 C 0.76727 0.73242 0.97555
 C788 C 0.73253 0.76689 1.02478
 C789 C 0.73261 0.76700 0.97557
 C790 C 0.76716 0.73230 1.02477
 O791 O 0.74801 0.27399 0.48118
 O792 O 0.77396 0.24814 0.51795
 O793 O 0.77398 0.24810 0.48123
 O794 O 0.74800 0.27404 0.51790
 O795 O 0.72601 0.25199 0.51794
 O796 O 0.75199 0.22604 0.48126
 O797 O 0.75196 0.22608 0.51798
 O798 O 0.72601 0.25193 0.48122
 Cu799 Cu 0.76321 0.26329 0.49956
 Cu800 Cu 0.73677 0.23678 0.49960
 C801 C 0.73267 0.26728 0.47495
 C802 C 0.76730 0.23279 0.52422
 C803 C 0.76733 0.23272 0.47501
 C804 C 0.73266 0.26736 0.52416
 O805 O 0.75240 0.27394 0.01814
 O806 O 0.72646 0.24806 -0.01857
 O807 O 0.72649 0.24802 0.01815
 O808 O 0.75234 0.27400 -0.01857
 O809 O 0.77440 0.25197 -0.01863
 O810 O 0.74855 0.22599 0.01810
 O811 O 0.74852 0.22603 -0.01862
 O812 O 0.77446 0.25190 0.01809
 Cu813 Cu 0.73720 0.26323 -0.00021
 Cu814 Cu 0.76371 0.23675 -0.00027
 C815 C 0.76777 0.26725 0.02436
 C816 C 0.73315 0.23271 -0.02484
 C817 C 0.73319 0.23266 0.02437
 C818 C 0.76770 0.26733 -0.02485
 O819 O 0.72581 0.74809 0.48186
 O820 O 0.75169 0.77403 0.51856
 O821 O 0.75166 0.77406 0.48184
 O822 O 0.72583 0.74807 0.51858
 O823 O 0.74792 0.72607 0.51855
 O824 O 0.77375 0.75205 0.48181
 O825 O 0.77378 0.75202 0.51853
 O826 O 0.74790 0.72608 0.48183
 Cu827 Cu 0.73652 0.76328 0.50021
 Cu828 Cu 0.76307 0.73684 0.50018
 C829 C 0.73253 0.73274 0.47560
 C830 C 0.76707 0.76737 0.52479
 C831 C 0.76703 0.76741 0.47557
 C832 C 0.73255 0.73272 0.52481
 O833 O 0.98238 0.25170 0.22599
 O834 O 1.01913 0.22579 0.25192
 O835 O 0.98237 0.22577 0.25188
 O836 O 1.01913 0.25173 0.22603
 O837 O 1.01906 0.27375 0.24806
 O838 O 0.98231 0.24779 0.27390
 O839 O 1.01907 0.24781 0.27394
 O840 O 0.98231 0.27373 0.24801
 Cu841 Cu 1.00076 0.23652 0.23673
 Cu842 Cu 1.00068 0.26299 0.26320
 C843 C 0.97609 0.26705 0.23266
 C844 C 1.02535 0.23246 0.26727
 C845 C 0.97609 0.23244 0.26722
 C846 C 1.02535 0.26709 0.23272
 O847 O 0.51843 0.22590 0.75186
 O848 O 0.48161 0.25178 0.72600
 O849 O 0.51836 0.25181 0.72596
 O850 O 0.48168 0.22586 0.75191
 O851 O 0.48166 0.24790 0.77391
 O852 O 0.51834 0.27386 0.74796
 O853 O 0.48159 0.27382 0.74800
 O854 O 0.51841 0.24794 0.77387
 Cu855 Cu 0.50002 0.23661 0.73671
 Cu856 Cu 0.50000 0.26310 0.76315
 C857 C 0.52468 0.23259 0.76720
 C858 C 0.47533 0.26713 0.73267
 C859 C 0.52459 0.26718 0.73261
 C860 C 0.47543 0.23254 0.76726
 O861 O 0.01798 0.25229 0.77437
 O862 O -0.01873 0.22645 0.74838
 O863 O 0.01801 0.22635 0.74849
 O864 O -0.01877 0.25239 0.77425
 O865 O -0.01866 0.27442 0.75222
 O866 O 0.01813 0.24838 0.72646
 O867 O -0.01862 0.24848 0.72635
 O868 O 0.01809 0.27431 0.75233
 Cu869 Cu -0.00039 0.23715 0.76360
 Cu870 Cu -0.00025 0.26362 0.73712
 C871 C 0.02428 0.26762 0.76770
 C872 C -0.02492 0.23314 0.73301
 C873 C 0.02433 0.23301 0.73316
 C874 C -0.02498 0.26776 0.76755
 O875 O 0.48134 0.27346 0.25164
 O876 O 0.51807 0.24761 0.22561
 O877 O 0.48131 0.24754 0.22576
 O878 O 0.51809 0.27353 0.25149
 O879 O 0.51823 0.25150 0.27352
 O880 O 0.48145 0.22550 0.24778
 O881 O 0.51821 0.22557 0.24764
 O882 O 0.48148 0.25142 0.27367
 Cu883 Cu 0.49969 0.26275 0.23640
 Cu884 Cu 0.49986 0.23627 0.26287
 C885 C 0.47517 0.26677 0.26702
 C886 C 0.52439 0.23226 0.23227
 C887 C 0.47512 0.23217 0.23247
 C888 C 0.52442 0.26687 0.26681
 O889 O 1.01869 0.77404 0.74790
 O890 O 0.98197 0.74813 0.77385
 O891 O 1.01872 0.74811 0.77380
 O892 O 0.98193 0.77405 0.74795
 O893 O 0.98192 0.75202 0.72594
 O894 O 1.01870 0.72608 0.75179
 O895 O 0.98195 0.72610 0.75184
 O896 O 1.01867 0.75200 0.72589
 Cu897 Cu 1.00033 0.76331 0.76309
 Cu898 Cu 1.00031 0.73683 0.73664
 C899 C 1.02493 0.76736 0.73255
 C900 C 0.97571 0.73278 0.76719
 C901 C 1.02497 0.73275 0.76712
 C902 C 0.97567 0.76738 0.73261
 O903 O 0.51850 0.77437 0.24778
 O904 O 0.48170 0.74850 0.27365
 O905 O 0.51845 0.74846 0.27369
 O906 O 0.48175 0.77442 0.24774
 O907 O 0.48177 0.75238 0.22574
 O908 O 0.51847 0.72642 0.25169
 O909 O 0.48173 0.72645 0.25164
 O910 O 0.51852 0.75233 0.22578
 Cu911 Cu 0.50010 0.76366 0.26293
 Cu912 Cu 0.50012 0.73717 0.23649
 C913 C 0.52477 0.76768 0.23245
 C914 C 0.47546 0.73314 0.26698
 C915 C 0.52470 0.73309 0.26703
 C916 C 0.47551 0.76774 0.23240
 O917 O 0.01813 0.74827 0.22591
 O918 O -0.01866 0.77412 0.25186
 O919 O 0.01809 0.77422 0.25176
 O920 O -0.01862 0.74815 0.22602
 O921 O -0.01849 0.72615 0.24808
 O922 O 0.01822 0.75222 0.27382
 O923 O -0.01853 0.75212 0.27391
 O924 O 0.01826 0.72626 0.24797
 Cu925 Cu -0.00028 0.76341 0.23666
 Cu926 Cu -0.00012 0.73697 0.26317
 C927 C 0.02445 0.73294 0.23260
 C928 C -0.02485 0.76745 0.26723
 C929 C 0.02440 0.76759 0.26710
 C930 C -0.02480 0.73278 0.23274
 O931 O 0.51795 0.75221 0.77414
 O932 O 0.48127 0.72633 0.74815
 O933 O 0.51802 0.72627 0.74827
 O934 O 0.48120 0.75227 0.77402
 O935 O 0.48130 0.77430 0.75198
 O936 O 0.51812 0.74829 0.72623
 O937 O 0.48137 0.74836 0.72611
 O938 O 0.51805 0.77423 0.75210
 Cu939 Cu 0.49960 0.73705 0.76337
 Cu940 Cu 0.49972 0.76351 0.73688
 C941 C 0.52425 0.76755 0.76747
 C942 C 0.47508 0.73301 0.73278
 C943 C 0.52433 0.73292 0.73294
 C944 C 0.47499 0.76764 0.76731
 C945 C 0.39194 0.31847 0.31900
 C946 C 0.40515 0.31093 0.31144
 C947 C 0.42041 0.30192 0.30240
 C948 C 0.43326 0.29409 0.29453
 C949 C 0.44809 0.28474 0.28512
 C950 C 0.46056 0.27662 0.27694
 C951 C 0.39150 0.81945 0.81877
 C952 C 0.40476 0.81193 0.81126
 C953 C 0.42006 0.80293 0.80230
 C954 C 0.43295 0.79508 0.79450
 C955 C 0.44783 0.78570 0.78520
 C956 C 0.46034 0.77754 0.77711
 C957 C -0.10845 0.31962 0.81898
 C958 C -0.09519 0.31209 0.81148
 C959 C -0.07988 0.30308 0.80253
 C960 C -0.06699 0.29523 0.79474
 C961 C -0.05212 0.28584 0.78544
 C962 C -0.03962 0.27767 0.77735
 C963 C -0.10822 0.81915 0.31898
 C964 C -0.09498 0.81161 0.31145
 C965 C -0.07969 0.80261 0.30246
 C966 C -0.06683 0.79478 0.29462
 C967 C -0.05197 0.78543 0.28526
 C968 C -0.03948 0.77730 0.27711
 C969 C 0.60792 0.68125 0.31887
 C970 C 0.59470 0.68880 0.31133
 C971 C 0.57944 0.69782 0.30231
 C972 C 0.56659 0.70567 0.29446
 C973 C 0.55177 0.71505 0.28508
 C974 C 0.53930 0.72320 0.27692
 C975 C 0.60812 0.18091 0.81883
 C976 C 0.59488 0.18843 0.81132
 C977 C 0.57958 0.19742 0.80234
 C978 C 0.56670 0.20525 0.79451
 C979 C 0.55183 0.21460 0.78517
 C980 C 0.53932 0.22273 0.77705
 C981 C 1.10833 0.68094 0.81875
 C982 C 1.09510 0.68848 0.81123
 C983 C 1.07981 0.69749 0.80225
 C984 C 1.06694 0.70534 0.79443
 C985 C 1.05209 0.71471 0.78509
 C986 C 1.03960 0.72287 0.77697
 C987 C 1.10870 0.18070 0.31899
 C988 C 1.09546 0.18824 0.31146
 C989 C 1.08018 0.19725 0.30247
 C990 C 1.06731 0.20509 0.29463
 C991 C 1.05246 0.21445 0.28528
 C992 C 1.03997 0.22259 0.27714
 C993 C 0.60784 0.31895 0.68085
 C994 C 0.59461 0.31142 0.68838
 C995 C 0.57934 0.30241 0.69738
 C996 C 0.56649 0.29457 0.70522
 C997 C 0.55166 0.28521 0.71458
 C998 C 0.53919 0.27706 0.72273
 C999 C 0.60830 0.81917 0.18084
 C1000 C 0.59503 0.81169 0.18835
 C1001 C 0.57971 0.80274 0.19733
 C1002 C 0.56681 0.79494 0.20515
 C1003 C 0.55193 0.78563 0.21448
 C1004 C 0.53942 0.77752 0.22260
 C1005 C 1.10864 0.31895 0.18110
 C1006 C 1.09542 0.31140 0.18862
 C1007 C 1.08014 0.30238 0.19760
 C1008 C 1.06729 0.29452 0.20542
 C1009 C 1.05245 0.28514 0.21476
 C1010 C 1.03996 0.27698 0.22287
 C1011 C 1.10826 0.81906 0.68084
 C1012 C 1.09502 0.81153 0.68836
 C1013 C 1.07974 0.80253 0.69735
 C1014 C 1.06687 0.79470 0.70518
 C1015 C 1.05202 0.78535 0.71453
 C1016 C 1.03954 0.77722 0.72268
 C1017 C 0.39189 0.68131 0.68094
 C1018 C 0.40510 0.68884 0.68847
 C1019 C 0.42036 0.69785 0.69748
 C1020 C 0.43320 0.70568 0.70534
 C1021 C 0.44802 0.71503 0.71472
 C1022 C 0.46049 0.72316 0.72288
 C1023 C 0.39160 0.18047 0.18114
 C1024 C 0.40487 0.18797 0.18862
 C1025 C 0.42019 0.19695 0.19755
 C1026 C 0.43309 0.20477 0.20532
 C1027 C 0.44797 0.21413 0.21460
 C1028 C 0.46048 0.22228 0.22268
 C1029 C -0.10801 0.68070 0.18131
 C1030 C -0.09480 0.68827 0.18881
 C1031 C -0.07954 0.69733 0.19776
 C1032 C -0.06670 0.70522 0.20555
 C1033 C -0.05187 0.71465 0.21485
 C1034 C -0.03940 0.72285 0.22293
 C1035 C -0.10807 0.18143 0.68111
 C1036 C -0.09487 0.18897 0.68866
 C1037 C -0.07962 0.19798 0.69769
 C1038 C -0.06679 0.20582 0.70555
 C1039 C -0.05197 0.21517 0.71494
 C1040 C -0.03951 0.22330 0.72311
 C1041 C 0.31880 0.39193 0.31915
 C1042 C 0.31129 0.40519 0.31163
 C1043 C 0.30231 0.42050 0.30265
 C1044 C 0.29449 0.43338 0.29481
 C1045 C 0.28516 0.44824 0.28545
 C1046 C 0.27704 0.46074 0.27730
 C1047 C 0.31942 -0.10860 0.81882
 C1048 C 0.31186 -0.09535 0.81133
 C1049 C 0.30281 -0.08005 0.80239
 C1050 C 0.29493 -0.06717 0.79461
 C1051 C 0.28552 -0.05231 0.78533
 C1052 C 0.27734 -0.03980 0.77726
 C1053 C 0.81948 0.39156 0.81896
 C1054 C 0.81194 0.40481 0.81145
 C1055 C 0.80294 0.42011 0.80247
 C1056 C 0.79510 0.43299 0.79466
 C1057 C 0.78573 0.44786 0.78534
 C1058 C 0.77759 0.46037 0.77723
 C1059 C 0.81890 -0.10843 0.31936
 C1060 C 0.81138 -0.09519 0.31182
 C1061 C 0.80241 -0.07989 0.30280
 C1062 C 0.79461 -0.06702 0.29494
 C1063 C 0.78529 -0.05216 0.28554
 C1064 C 0.77719 -0.03966 0.27737
 C1065 C 0.31871 0.60800 0.68099
 C1066 C 0.31119 0.59478 0.68853
 C1067 C 0.30220 0.57951 0.69755
 C1068 C 0.29438 0.56666 0.70542
 C1069 C 0.28504 0.55183 0.71481
 C1070 C 0.27691 0.53936 0.72298
 C1071 C 0.31945 1.10871 0.18132
 C1072 C 0.31187 1.09550 0.18884
 C1073 C 0.30281 1.08024 0.19780
 C1074 C 0.29492 1.06739 0.20560
 C1075 C 0.28549 1.05256 0.21491
 C1076 C 0.27729 1.04008 0.22300
 C1077 C 0.81932 0.60817 0.18097
 C1078 C 0.81182 0.59492 0.18849
 C1079 C 0.80285 0.57961 0.19747
 C1080 C 0.79503 0.56673 0.20529
 C1081 C 0.78567 0.55186 0.21461
 C1082 C 0.77753 0.53936 0.22271
 C1083 C 0.81875 1.10813 0.68110
 C1084 C 0.81122 1.09491 0.68865
 C1085 C 0.80223 1.07965 0.69767
 C1086 C 0.79440 1.06680 0.70554
 C1087 C 0.78505 1.05197 0.71492
 C1088 C 0.77692 1.03950 0.72309
 C1089 C 0.68120 0.60794 0.31888
 C1090 C 0.68874 0.59472 0.31133
 C1091 C 0.69774 0.57945 0.30231
 C1092 C 0.70558 0.56660 0.29445
 C1093 C 0.71494 0.55176 0.28506
 C1094 C 0.72308 0.53929 0.27691
 C1095 C 0.68097 1.10846 0.81929
 C1096 C 0.68848 1.09519 0.81178
 C1097 C 0.69745 1.07988 0.80280
 C1098 C 0.70526 1.06698 0.79497
 C1099 C 0.71458 1.05211 0.78562
 C1100 C 0.72269 1.03960 0.77749
 C1101 C 0.18112 0.60842 0.81926
 C1102 C 0.18862 0.59514 0.81176
 C1103 C 0.19758 0.57982 0.80279
 C1104 C 0.20538 0.56692 0.79496
 C1105 C 0.21469 0.55203 0.78562
 C1106 C 0.22278 0.53951 0.77747
 C1107 C 0.18078 1.10877 0.31898
 C1108 C 0.18835 1.09554 0.31146
 C1109 C 0.19739 1.08027 0.30248
 C1110 C 0.20525 1.06742 0.29465
 C1111 C 0.21464 1.05258 0.28530
 C1112 C 0.22280 1.04009 0.27717
 C1113 C 0.68122 0.39205 0.68098
 C1114 C 0.68877 0.40524 0.68854
 C1115 C 0.69779 0.42047 0.69758
 C1116 C 0.70565 0.43329 0.70545
 C1117 C 0.71502 0.44809 0.71484
 C1118 C 0.72318 0.46054 0.72300
 C1119 C 0.68088 -0.10823 0.18130
 C1120 C 0.68844 -0.09501 0.18881
 C1121 C 0.69747 -0.07975 0.19779
 C1122 C 0.70534 -0.06691 0.20561
 C1123 C 0.71473 -0.05208 0.21494
 C1124 C 0.72290 -0.03961 0.22305
 C1125 C 0.18085 0.39193 0.18142
 C1126 C 0.18837 0.40518 0.18892
 C1127 C 0.19736 0.42049 0.19786
 C1128 C 0.20520 0.43337 0.20565
 C1129 C 0.21457 0.44823 0.21495
 C1130 C 0.22272 0.46073 0.22304
 C1131 C 0.18072 -0.10821 0.68136
 C1132 C 0.18828 -0.09501 0.68889
 C1133 C 0.19732 -0.07977 0.69789
 C1134 C 0.20520 -0.06693 0.70572
 C1135 C 0.21461 -0.05212 0.71506
 C1136 C 0.22279 -0.03967 0.72319
 C1137 C 0.31873 0.31858 0.39230
 C1138 C 0.31119 0.31106 0.40552
 C1139 C 0.30218 0.30208 0.42079
 C1140 C 0.29432 0.29426 0.43364
 C1141 C 0.28495 0.28492 0.44848
 C1142 C 0.27679 0.27679 0.46095
 C1143 C 0.31922 0.81908 -0.10831
 C1144 C 0.31172 0.81158 -0.09506
 C1145 C 0.30275 0.80261 -0.07975
 C1146 C 0.29493 0.79480 -0.06687
 C1147 C 0.28558 0.78548 -0.05200
 C1148 C 0.27744 0.77737 -0.03951
 C1149 C 0.81918 0.31918 -0.10821
 C1150 C 0.81169 0.31164 -0.09497
 C1151 C 0.80274 0.30263 -0.07968
 C1152 C 0.79494 0.29477 -0.06681
 C1153 C 0.78563 0.28539 -0.05196
 C1154 C 0.77753 0.27722 -0.03947
 C1155 C 0.81854 0.81922 0.39223
 C1156 C 0.81104 0.81170 0.40546
 C1157 C 0.80208 0.80269 0.42075
 C1158 C 0.79428 0.79484 0.43362
 C1159 C 0.78496 0.78546 0.44847
 C1160 C 0.77686 0.77730 0.46096
 C1161 C 0.68100 0.31905 0.60752
 C1162 C 0.68850 0.31154 0.59427
 C1163 C 0.69748 0.30256 0.57897
 C1164 C 0.70530 0.29473 0.56610
 C1165 C 0.71464 0.28537 0.55125
 C1166 C 0.72278 0.27723 0.53877
 C1167 C 0.68073 0.81854 1.10808
 C1168 C 0.68825 0.81101 1.09485
 C1169 C 0.69725 0.80201 1.07957
 C1170 C 0.70509 0.79418 1.06671
 C1171 C 0.71446 0.78484 1.05187
 C1172 C 0.72263 0.77672 1.03939
 C1173 C 0.18099 0.31866 1.10825
 C1174 C 0.18853 0.31115 1.09502
 C1175 C 0.19755 0.30217 1.07975
 C1176 C 0.20541 0.29436 1.06689
 C1177 C 0.21478 0.28502 1.05205
 C1178 C 0.22294 0.27689 1.03957
 C1179 C 0.18051 0.81883 0.60788
 C1180 C 0.18803 0.81135 0.59462
 C1181 C 0.19703 0.80243 0.57930
 C1182 C 0.20487 0.79465 0.56641
 C1183 C 0.21425 0.78537 0.55154
 C1184 C 0.22241 0.77728 0.53904
 C1185 C 0.31870 0.68119 0.60767
 C1186 C 0.31117 0.68870 0.59444
 C1187 C 0.30217 0.69769 0.57916
 C1188 C 0.29433 0.70551 0.56629
 C1189 C 0.28497 0.71487 0.55145
 C1190 C 0.27683 0.72302 0.53898
 C1191 C 0.31924 0.18093 1.10835
 C1192 C 0.31172 0.18843 1.09510
 C1193 C 0.30273 0.19739 1.07980
 C1194 C 0.29489 0.20519 1.06692
 C1195 C 0.28552 0.21451 1.05207
 C1196 C 0.27736 0.22262 1.03958
 C1197 C 0.81878 0.68050 1.10809
 C1198 C 0.81126 0.68802 1.09485
 C1199 C 0.80228 0.69702 1.07957
 C1200 C 0.79446 0.70487 1.06670
 C1201 C 0.78513 0.71425 1.05186
 C1202 C 0.77701 0.72241 1.03938
 C1203 C 0.81891 0.18123 0.60769
 C1204 C 0.81141 0.18873 0.59443
 C1205 C 0.80245 0.19769 0.57912
 C1206 C 0.79463 0.20551 0.56623
 C1207 C 0.78530 0.21483 0.55136
 C1208 C 0.77717 0.22295 0.53886
 C1209 C 0.68101 0.68106 0.39223
 C1210 C 0.68850 0.68857 0.40548
 C1211 C 0.69745 0.69755 0.42077
 C1212 C 0.70525 0.70538 0.43365
 C1213 C 0.71457 0.71473 0.44850
 C1214 C 0.72268 0.72287 0.46098
 C1215 C 0.68144 0.18096 -0.10804
 C1216 C 0.68896 0.18849 -0.09483
 C1217 C 0.69796 0.19751 -0.07957
 C1218 C 0.70579 0.20535 -0.06673
 C1219 C 0.71514 0.21471 -0.05190
 C1220 C 0.72328 0.22285 -0.03944
 C1221 C 0.18159 0.68092 -0.10806
 C1222 C 0.18910 0.68846 -0.09485
 C1223 C 0.19807 0.69748 -0.07958
 C1224 C 0.20587 0.70535 -0.06674
 C1225 C 0.21518 0.71475 -0.05191
 C1226 C 0.22327 0.72293 -0.03944
 C1227 C 0.18083 0.18089 0.39201
 C1228 C 0.18831 0.18837 0.40528
 C1229 C 0.19725 0.19731 0.42061
 C1230 C 0.20505 0.20509 0.43351
 C1231 C 0.21437 0.21440 0.44839
 C1232 C 0.22248 0.22251 0.46090
 C1233 C 0.31852 0.39205 0.68114
 C1234 C 0.31100 0.40530 0.68867
 C1235 C 0.30203 0.42060 0.69767
 C1236 C 0.29423 0.43348 0.70552
 C1237 C 0.28492 0.44835 0.71489
 C1238 C 0.27682 0.46085 0.72305
 C1239 C 0.31889 0.89287 0.18082
 C1240 C 0.31137 0.90610 0.18837
 C1241 C 0.30240 0.92138 0.19740
 C1242 C 0.29458 0.93425 0.20526
 C1243 C 0.28524 0.94910 0.21465
 C1244 C 0.27712 0.96159 0.22280
 C1245 C 0.81947 0.39210 0.18081
 C1246 C 0.81192 0.40534 0.18831
 C1247 C 0.80290 0.42063 0.19728
 C1248 C 0.79504 0.43350 0.20509
 C1249 C 0.78566 0.44836 0.21443
 C1250 C 0.77750 0.46084 0.22255
 C1251 C 0.81878 0.89230 0.68125
 C1252 C 0.81124 0.90553 0.68878
 C1253 C 0.80224 0.92080 0.69779
 C1254 C 0.79440 0.93367 0.70563
 C1255 C 0.78504 0.94852 0.71499
 C1256 C 0.77690 0.96101 0.72314
 C1257 C 0.68115 0.60779 0.68149
 C1258 C 0.68870 0.59456 0.68900
 C1259 C 0.69773 0.57927 0.69797
 C1260 C 0.70560 0.56639 0.70577
 C1261 C 0.71499 0.55153 0.71508
 C1262 C 0.72315 0.53902 0.72317
 C1263 C 0.68133 0.10758 0.18080
 C1264 C 0.68886 0.09435 0.18835
 C1265 C 0.69785 0.07908 0.19738
 C1266 C 0.70567 0.06622 0.20525
 C1267 C 0.71500 0.05137 0.21464
 C1268 C 0.72311 0.03888 0.22282
 C1269 C 0.18111 0.60799 0.18082
 C1270 C 0.18862 0.59475 0.18836
 C1271 C 0.19760 0.57946 0.19738
 C1272 C 0.20541 0.56659 0.20524
 C1273 C 0.21474 0.55173 0.21462
 C1274 C 0.22285 0.53924 0.22279
 C1275 C 0.18082 0.10758 0.68155
 C1276 C 0.18836 0.09435 0.68908
 C1277 C 0.19737 0.07906 0.69806
 C1278 C 0.20522 0.06618 0.70588
 C1279 C 0.21460 0.05132 0.71520
 C1280 C 0.22277 0.03882 0.72331
 C1281 C 0.31898 0.60805 0.31874
 C1282 C 0.31147 0.59480 0.31124
 C1283 C 0.30249 0.57950 0.30228
 C1284 C 0.29466 0.56662 0.29448
 C1285 C 0.28530 0.55176 0.28517
 C1286 C 0.27715 0.53926 0.27707
 C1287 C 0.31910 0.10740 0.81923
 C1288 C 0.31158 0.09417 0.81171
 C1289 C 0.30259 0.07889 0.80272
 C1290 C 0.29476 0.06603 0.79489
 C1291 C 0.28540 0.05119 0.78554
 C1292 C 0.27726 0.03871 0.77741
 C1293 C 0.81939 0.60763 0.81911
 C1294 C 0.81188 0.59438 0.81160
 C1295 C 0.80289 0.57909 0.80263
 C1296 C 0.79506 0.56622 0.79481
 C1297 C 0.78571 0.55137 0.78548
 C1298 C 0.77756 0.53889 0.77735
 C1299 C 0.81936 0.10756 0.31879
 C1300 C 0.81183 0.09432 0.31129
 C1301 C 0.80282 0.07904 0.30233
 C1302 C 0.79496 0.06618 0.29453
 C1303 C 0.78558 0.05133 0.28522
 C1304 C 0.77741 0.03885 0.27712
 C1305 C 0.68097 0.39204 0.31828
 C1306 C 0.68851 0.40527 0.31078
 C1307 C 0.69755 0.42056 0.30184
 C1308 C 0.70542 0.43344 0.29405
 C1309 C 0.71483 0.44829 0.28477
 C1310 C 0.72301 0.46079 0.27669
 C1311 C 0.68081 0.89234 0.81934
 C1312 C 0.68834 0.90558 0.81183
 C1313 C 0.69733 0.92087 0.80285
 C1314 C 0.70517 0.93374 0.79502
 C1315 C 0.71452 0.94859 0.78566
 C1316 C 0.72265 0.96107 0.77752
 C1317 C 0.18093 0.39230 0.81951
 C1318 C 0.18845 0.40553 0.81198
 C1319 C 0.19743 0.42081 0.80297
 C1320 C 0.20525 0.43367 0.79511
 C1321 C 0.21458 0.44851 0.78573
 C1322 C 0.22270 0.46099 0.77756
 C1323 C 0.18081 0.89283 0.31874
 C1324 C 0.18834 0.90607 0.31123
 C1325 C 0.19733 0.92136 0.30225
 C1326 C 0.20517 0.93424 0.29444
 C1327 C 0.21454 0.94909 0.28512
 C1328 C 0.22270 0.96159 0.27701
 C1329 C 0.39185 0.31878 0.68108
 C1330 C 0.40511 0.31126 0.68858
 C1331 C 0.42042 0.30228 0.69755
 C1332 C 0.43330 0.29445 0.70537
 C1333 C 0.44818 0.28511 0.71470
 C1334 C 0.46069 0.27698 0.72282
 C1335 C 0.39220 0.81957 0.18072
 C1336 C 0.40543 0.81203 0.18823
 C1337 C 0.42072 0.80301 0.19721
 C1338 C 0.43358 0.79516 0.20504
 C1339 C 0.44843 0.78578 0.21439
 C1340 C 0.46090 0.77763 0.22253
 C1341 C 0.89275 0.31878 0.18089
 C1342 C 0.90599 0.31124 0.18843
 C1343 C 0.92127 0.30225 0.19743
 C1344 C 0.93413 0.29441 0.20528
 C1345 C 0.94898 0.28506 0.21464
 C1346 C 0.96147 0.27692 0.22279
 C1347 C 0.89218 0.81909 0.68108
 C1348 C 0.90544 0.81157 0.68857
 C1349 C 0.92075 0.80258 0.69753
 C1350 C 0.93364 0.79474 0.70534
 C1351 C 0.94852 0.78539 0.71466
 C1352 C 0.96102 0.77725 0.72278
 C1353 C 0.60775 0.31875 0.31826
 C1354 C 0.59452 0.31121 0.31075
 C1355 C 0.57925 0.30219 0.30179
 C1356 C 0.56638 0.29433 0.29400
 C1357 C 0.55153 0.28494 0.28470
 C1358 C 0.53904 0.27677 0.27661
 C1359 C 0.60754 0.81912 0.81927
 C1360 C 0.59431 0.81162 0.81174
 C1361 C 0.57903 0.80265 0.80273
 C1362 C 0.56617 0.79484 0.79489
 C1363 C 0.55133 0.78551 0.78552
 C1364 C 0.53885 0.77739 0.77736
 C1365 C 0.10762 0.31913 0.81950
 C1366 C 0.09438 0.31163 0.81197
 C1367 C 0.07909 0.30268 0.80297
 C1368 C 0.06622 0.29488 0.79512
 C1369 C 0.05138 0.28556 0.78575
 C1370 C 0.03889 0.27746 0.77759
 C1371 C 0.10763 0.81953 0.31865
 C1372 C 0.09441 0.81199 0.31113
 C1373 C 0.07915 0.80296 0.30214
 C1374 C 0.06630 0.79510 0.29433
 C1375 C 0.05147 0.78570 0.28501
 C1376 C 0.03900 0.77752 0.27691
 C1377 C 0.60779 0.68105 0.68148
 C1378 C 0.59454 0.68859 0.68899
 C1379 C 0.57924 0.69761 0.69795
 C1380 C 0.56636 0.70547 0.70575
 C1381 C 0.55149 0.71485 0.71505
 C1382 C 0.53898 0.72302 0.72314
 C1383 C 0.60789 0.18074 0.18055
 C1384 C 0.59462 0.18824 0.18805
 C1385 C 0.57930 0.19721 0.19702
 C1386 C 0.56640 0.20501 0.20485
 C1387 C 0.55152 0.21433 0.21421
 C1388 C 0.53902 0.22243 0.22237
 C1389 C 0.10784 0.68131 0.18080
 C1390 C 0.09460 0.68884 0.18833
 C1391 C 0.07931 0.69782 0.19734
 C1392 C 0.06643 0.70564 0.20519
 C1393 C 0.05158 0.71497 0.21456
 C1394 C 0.03908 0.72309 0.22271
 C1395 C 0.10761 0.18098 0.68158
 C1396 C 0.09439 0.18855 0.68911
 C1397 C 0.07912 0.19760 0.69809
 C1398 C 0.06627 0.20548 0.70591
 C1399 C 0.05143 0.21490 0.71524
 C1400 C 0.03895 0.22308 0.72334
 C1401 C 0.39213 0.68140 0.31864
 C1402 C 0.40535 0.68893 0.31112
 C1403 C 0.42063 0.69794 0.30213
 C1404 C 0.43349 0.70578 0.29430
 C1405 C 0.44834 0.71514 0.28496
 C1406 C 0.46083 0.72328 0.27683
 C1407 C 0.39226 0.18072 0.81910
 C1408 C 0.40547 0.18826 0.81155
 C1409 C 0.42073 0.19727 0.80253
 C1410 C 0.43356 0.20512 0.79467
 C1411 C 0.44838 0.21450 0.78530
 C1412 C 0.46084 0.22265 0.77714
 C1413 C 0.89248 0.68102 0.81901
 C1414 C 0.90570 0.68857 0.81147
 C1415 C 0.92096 0.69757 0.80245
 C1416 C 0.93381 0.70542 0.79460
 C1417 C 0.94864 0.71477 0.78523
 C1418 C 0.96111 0.72291 0.77707
 C1419 C 0.89267 0.18075 0.31879
 C1420 C 0.90592 0.18826 0.31128
 C1421 C 0.92122 0.19724 0.30231
 C1422 C 0.93410 0.20507 0.29449
 C1423 C 0.94896 0.21442 0.28517
 C1424 C 0.96146 0.22256 0.27705
 C1425 C 0.31849 0.31872 0.60799
 C1426 C 0.31097 0.31118 0.59478
 C1427 C 0.30198 0.30217 0.57952
 C1428 C 0.29416 0.29432 0.56667
 C1429 C 0.28482 0.28495 0.55184
 C1430 C 0.27670 0.27680 0.53937
 C1431 C 0.31890 0.81964 0.10758
 C1432 C 0.31139 0.81210 0.09436
 C1433 C 0.30243 0.80308 0.07909
 C1434 C 0.29463 0.79521 0.06624
 C1435 C 0.28533 0.78580 0.05141
 C1436 C 0.27725 0.77761 0.03894
 C1437 C 0.81955 0.31883 0.10764
 C1438 C 0.81202 0.31132 0.09441
 C1439 C 0.80302 0.30235 0.07914
 C1440 C 0.79517 0.29454 0.06628
 C1441 C 0.78580 0.28521 0.05144
 C1442 C 0.77765 0.27710 0.03897
 C1443 C 0.81880 0.81908 0.60801
 C1444 C 0.81127 0.81156 0.59479
 C1445 C 0.80226 0.80257 0.57953
 C1446 C 0.79442 0.79474 0.56668
 C1447 C 0.78507 0.78538 0.55185
 C1448 C 0.77693 0.77724 0.53938
 C1449 C 0.31887 0.68137 0.39188
 C1450 C 0.31134 0.68890 0.40510
 C1451 C 0.30233 0.69789 0.42038
 C1452 C 0.29448 0.70572 0.43323
 C1453 C 0.28510 0.71506 0.44807
 C1454 C 0.27694 0.72318 0.46055
 C1455 C 0.31911 0.18066 0.89244
 C1456 C 0.31160 0.18819 0.90567
 C1457 C 0.30261 0.19720 0.92095
 C1458 C 0.29479 0.20504 0.93381
 C1459 C 0.28545 0.21441 0.94865
 C1460 C 0.27731 0.22256 0.96113
 C1461 C 0.81924 0.68091 0.89227
 C1462 C 0.81169 0.68841 0.90550
 C1463 C 0.80265 0.69738 0.92077
 C1464 C 0.79477 0.70518 0.93363
 C1465 C 0.78537 0.71449 0.94846
 C1466 C 0.77718 0.72259 0.96094
 C1467 C 0.81926 0.18092 0.39188
 C1468 C 0.81170 0.18847 0.40508
 C1469 C 0.80267 0.19748 0.42032
 C1470 C 0.79480 0.20533 0.43316
 C1471 C 0.78540 0.21469 0.44797
 C1472 C 0.77723 0.22284 0.46043
 C1473 C 0.68091 0.31882 0.39155
 C1474 C 0.68843 0.31132 0.40480
 C1475 C 0.69743 0.30236 0.42009
 C1476 C 0.70527 0.29455 0.43297
 C1477 C 0.71464 0.28523 0.44782
 C1478 C 0.72279 0.27712 0.46032
 C1479 C 0.68086 0.81891 0.89241
 C1480 C 0.68839 0.81135 0.90561
 C1481 C 0.69740 0.80232 0.92086
 C1482 C 0.70525 0.79446 0.93370
 C1483 C 0.71461 0.78507 0.94851
 C1484 C 0.72275 0.77690 0.96098
 C1485 C 0.18097 0.31888 0.89260
 C1486 C 0.18851 0.31132 0.90580
 C1487 C 0.19752 0.30228 0.92104
 C1488 C 0.20537 0.29442 0.93388
 C1489 C 0.21475 0.28504 0.94869
 C1490 C 0.22290 0.27689 0.96115
 C1491 C 0.18080 0.81950 0.39192
 C1492 C 0.18831 0.81195 0.40515
 C1493 C 0.19728 0.80292 0.42042
 C1494 C 0.20509 0.79506 0.43328
 C1495 C 0.21442 0.78566 0.44811
 C1496 C 0.22254 0.77750 0.46059
 C1497 C 0.68100 0.68100 0.60820
 C1498 C 0.68850 0.68852 0.59496
 C1499 C 0.69747 0.69750 0.57966
 C1500 C 0.70528 0.70533 0.56679
 C1501 C 0.71461 0.71469 0.55193
 C1502 C 0.72272 0.72284 0.53944
 C1503 C 0.68141 0.18086 0.10757
 C1504 C 0.68896 0.18839 0.09436
 C1505 C 0.69798 0.19740 0.07911
 C1506 C 0.70584 0.20524 0.06627
 C1507 C 0.71520 0.21461 0.05144
 C1508 C 0.72334 0.22276 0.03897
 C1509 C 0.18117 0.68131 0.10763
 C1510 C 0.18870 0.68884 0.09441
 C1511 C 0.19771 0.69783 0.07915
 C1512 C 0.20556 0.70567 0.06629
 C1513 C 0.21493 0.71502 0.05146
 C1514 C 0.22307 0.72315 0.03898
 C1515 C 0.18069 0.18072 0.60818
 C1516 C 0.18818 0.18822 0.59492
 C1517 C 0.19715 0.19719 0.57961
 C1518 C 0.20495 0.20501 0.56673
 C1519 C 0.21429 0.21435 0.55187
 C1520 C 0.22241 0.22248 0.53937
   
