data_POSCAR
  _audit_creation_date              2014-09-24
  _audit_creation_method            'ToBaCCo'
  _symmetry_space_group_name_H-M    'P1'
  _symmetry_Int_Tables_number       1
  _symmetry_cell_setting            triclinic
  loop_
  _symmetry_equiv_pos_as_xyz
 x,y,z
_cell_length_a 55.3976
_cell_length_b 55.4400
_cell_length_c 53.7811
_cell_angle_alpha 89.881600
_cell_angle_beta 89.893800
_cell_angle_gamma 87.799600
loop_
  _atom_site_label
  _atom_site_type_symbol
  _atom_site_fract_x
  _atom_site_fract_y
  _atom_site_fract_z
O1 O -0.02681 0.28195 0.02431
 O2 O 0.02462 0.28180 -0.01969
 O3 O -0.02204 0.28337 -0.02388
 O4 O 0.01986 0.28264 0.02868
 O5 O 0.02128 0.24283 0.02880
 O6 O -0.02098 0.24357 -0.02446
 O7 O 0.02583 0.24204 -0.01938
 O8 O -0.02548 0.24214 0.02371
 Cu9 Cu -0.00118 0.28641 0.00240
 Cu10 Cu 0.00029 0.23867 0.00215
 C11 C -0.03494 0.26193 0.03149
 C12 C 0.03400 0.26177 -0.02717
 C13 C -0.02868 0.26374 -0.03328
 C14 C 0.02770 0.26276 0.03787
 O15 O 0.47896 0.75131 0.52234
 O16 O 0.52571 0.75169 0.47387
 O17 O 0.47892 0.75153 0.47395
 O18 O 0.52572 0.75161 0.52245
 O19 O 0.52773 0.71180 0.52225
 O20 O 0.48026 0.71170 0.47425
 O21 O 0.52750 0.71188 0.47369
 O22 O 0.48075 0.71149 0.52254
 Cu23 Cu 0.50220 0.75551 0.49814
 Cu24 Cu 0.50429 0.70771 0.49813
 C25 C 0.47186 0.73138 0.53080
 C26 C 0.53454 0.73190 0.46537
 C27 C 0.47146 0.73162 0.46591
 C28 C 0.53465 0.73175 0.53078
 O29 O 1.02535 0.70751 0.02160
 O30 O 0.97790 0.71276 -0.02649
 O31 O 1.02481 0.70848 -0.02702
 O32 O 0.97823 0.71039 0.02156
 O33 O 0.97953 0.75008 0.02300
 O34 O 1.02725 0.74801 -0.02509
 O35 O 0.98021 0.75239 -0.02559
 O36 O 1.02657 0.74716 0.02298
 Cu37 Cu 1.00147 0.70581 -0.00270
 Cu38 Cu 1.00349 0.75338 -0.00104
 C39 C 1.03414 0.72652 0.03055
 C40 C 0.97102 0.73355 -0.03430
 C41 C 1.03418 0.72781 -0.03438
 C42 C 0.97072 0.73049 0.03047
 O43 O 0.52707 0.21230 0.52691
 O44 O 0.47884 0.20566 0.48069
 O45 O 0.52559 0.20885 0.47894
 O46 O 0.48054 0.20875 0.52933
 O47 O 0.47633 0.24842 0.52687
 O48 O 0.52037 0.24836 0.47535
 O49 O 0.47372 0.24530 0.47874
 O50 O 0.52319 0.25192 0.52336
 Cu51 Cu 0.50335 0.20490 0.50424
 Cu52 Cu 0.49790 0.25247 0.50084
 C53 C 0.53362 0.23325 0.53275
 C54 C 0.46802 0.22439 0.47184
 C55 C 0.53073 0.22860 0.46855
 C56 C 0.47089 0.22856 0.53689
 O57 O 0.69705 -0.01323 0.02328
 O58 O 0.69855 0.03221 -0.02699
 O59 O 0.69670 -0.01468 -0.02529
 O60 O 0.69756 0.03379 0.02100
 O61 O 0.73740 0.03139 0.02139
 O62 O 0.73651 -0.01757 -0.02495
 O63 O 0.73832 0.02914 -0.02703
 O64 O 0.73687 -0.01559 0.02338
 Cu65 Cu 0.69347 0.00968 -0.00200
 Cu66 Cu 0.74126 0.00657 -0.00174
 C67 C 0.71680 -0.02216 0.03195
 C68 C 0.71876 0.03851 -0.03562
 C69 C 0.71638 -0.02440 -0.03315
 C70 C 0.71755 0.04109 0.02895
 O71 O 0.22711 0.48343 0.52300
 O72 O 0.23319 0.52633 0.47124
 O73 O 0.23104 0.47978 0.47477
 O74 O 0.22821 0.53013 0.51919
 O75 O 0.26776 0.52705 0.52390
 O76 O 0.27073 0.47738 0.47814
 O77 O 0.27279 0.52429 0.47567
 O78 O 0.26680 0.48033 0.52627
 Cu79 Cu 0.22592 0.50516 0.49666
 Cu80 Cu 0.27350 0.50202 0.50135
 C81 C 0.24598 0.47452 0.53349
 C82 C 0.25405 0.53272 0.46466
 C83 C 0.25132 0.47004 0.46868
 C84 C 0.24741 0.53708 0.52935
 O85 O 0.28667 1.02279 0.02479
 O86 O 0.28100 0.97820 -0.02549
 O87 O 0.28680 1.02435 -0.02394
 O88 O 0.28180 0.97637 0.02272
 O89 O 0.24229 0.98288 0.02402
 O90 O 0.24727 1.03047 -0.02353
 O91 O 0.24138 0.98384 -0.02446
 O92 O 0.24720 1.02936 0.02461
 Cu93 Cu 0.28804 0.99989 -0.00053
 Cu94 Cu 0.24057 1.00722 0.00017
 C95 C 0.26786 1.03379 0.03333
 C96 C 0.26018 0.97327 -0.03344
 C97 C 0.26795 1.03562 -0.03188
 C98 C 0.26126 0.97142 0.03143
 O99 O 0.76375 0.52913 0.52523
 O100 O 0.76746 0.48470 0.47470
 O101 O 0.76585 0.53147 0.47693
 O102 O 0.76515 0.48228 0.52314
 O103 O 0.72538 0.48258 0.52119
 O104 O 0.72604 0.53200 0.47526
 O105 O 0.72768 0.48497 0.47276
 O106 O 0.72394 0.52972 0.52326
 Cu107 Cu 0.76953 0.50681 0.50021
 Cu108 Cu 0.72177 0.50727 0.49795
 C109 C 0.74325 0.53718 0.53277
 C110 C 0.74824 0.47731 0.46496
 C111 C 0.74605 0.54024 0.46829
 C112 C 0.74514 0.47404 0.53013
 C113 C 0.23493 0.25247 0.25886
 C114 C 0.25354 0.23557 0.25824
 C115 C 0.25638 0.21824 0.23717
 C116 C 0.27163 0.23365 0.27865
 C117 C 0.23446 0.27285 0.27685
 C118 C 0.21431 0.25144 0.24132
 C119 C 0.26011 0.19342 0.24181
 C120 C 0.26122 0.17697 0.22211
 C121 C 0.25838 0.18509 0.19751
 C122 C 0.25556 0.20992 0.19279
 C123 C 0.25503 0.22638 0.21241
 C124 C 0.26421 0.23346 0.30366
 C125 C 0.28125 0.23318 0.32274
 C126 C 0.30601 0.23228 0.31718
 C127 C 0.31349 0.23123 0.29224
 C128 C 0.29642 0.23200 0.27311
 C129 C 0.25423 0.28782 0.27900
 C130 C 0.25381 0.30666 0.29625
 C131 C 0.23352 0.31104 0.31159
 C132 C 0.21360 0.29622 0.30909
 C133 C 0.21403 0.27742 0.29181
 C134 C 0.20827 0.27135 0.22616
 C135 C 0.19006 0.26991 0.20835
 C136 C 0.17733 0.24860 0.20558
 C137 C 0.18290 0.22895 0.22141
 C138 C 0.20116 0.23039 0.23917
 H139 H 0.26147 0.18674 0.26071
 H140 H 0.26343 0.15786 0.22608
 H141 H 0.25367 0.21654 0.17391
 H142 H 0.25301 0.24547 0.20829
 H143 H 0.24520 0.23390 0.30841
 H144 H 0.27511 0.23362 0.34188
 H145 H 0.30257 0.23187 0.25398
 H146 H 0.26999 0.28491 0.26728
 H147 H 0.26924 0.31801 0.29735
 H148 H 0.19781 0.29892 0.32079
 H149 H 0.19857 0.26611 0.29042
 H150 H 0.21822 0.28774 0.22755
 H151 H 0.18644 0.28527 0.19627
 H152 H 0.17313 0.21246 0.22007
 H153 H 0.20530 0.21497 0.25101
 H154 H 0.33253 0.23053 0.28758
 C155 C 0.76278 0.75042 0.25127
 C156 C 0.74341 0.76630 0.24967
 C157 C 0.74252 0.78603 0.23091
 C158 C 0.72229 0.76483 0.26651
 C159 C 0.76517 0.73195 0.27138
 C160 C 0.78216 0.75037 0.23220
 C161 C 0.76072 0.80293 0.22991
 C162 C 0.76010 0.82103 0.21179
 C163 C 0.74118 0.82269 0.19438
 C164 C 0.72269 0.80604 0.19581
 C165 C 0.72331 0.78796 0.21398
 C166 C 0.71511 0.78491 0.28089
 C167 C 0.69597 0.78350 0.29767
 C168 C 0.68343 0.76204 0.30019
 C169 C 0.69027 0.74213 0.28524
 C170 C 0.70949 0.74354 0.26848
 C171 C 0.77104 0.70780 0.26530
 C172 C 0.77261 0.69011 0.28382
 C173 C 0.76817 0.69619 0.30879
 C174 C 0.76281 0.72039 0.31500
 C175 C 0.76172 0.73818 0.29652
 C176 C 0.77686 0.74581 0.20718
 C177 C 0.79506 0.74614 0.18921
 C178 C 0.81885 0.75112 0.19594
 C179 C 0.82414 0.75553 0.22104
 C180 C 0.80596 0.75493 0.23906
 H181 H 0.77543 0.80205 0.24316
 H182 H 0.77436 0.83385 0.21151
 H183 H 0.70801 0.80665 0.18254
 H184 H 0.70906 0.77512 0.21452
 H185 H 0.72476 0.80149 0.27958
 H186 H 0.69136 0.79905 0.30911
 H187 H 0.71452 0.72799 0.25718
 H188 H 0.77396 0.70254 0.24611
 H189 H 0.77671 0.67154 0.27859
 H190 H 0.75967 0.72554 0.33418
 H191 H 0.75796 0.75677 0.30182
 H192 H 0.75861 0.74205 0.20162
 H193 H 0.79051 0.74280 0.16998
 H194 H 0.84240 0.75915 0.22671
 H195 H 0.81034 0.75837 0.25832
 H196 H 0.68070 0.72550 0.28641
 C197 C 0.73099 0.25399 0.24219
 C198 C 0.74644 0.27247 0.24198
 C199 C 0.76627 0.27379 0.22350
 C200 C 0.74442 0.29207 0.26062
 C201 C 0.71228 0.25206 0.26173
 C202 C 0.73201 0.23495 0.22295
 C203 C 0.78374 0.25492 0.22118
 C204 C 0.80224 0.25633 0.20359
 C205 C 0.80370 0.27671 0.18811
 C206 C 0.78637 0.29574 0.19080
 C207 C 0.76790 0.29432 0.20841
 C208 C 0.76355 0.29556 0.27705
 C209 C 0.76150 0.31327 0.29542
 C210 C 0.74035 0.32803 0.29749
 C211 C 0.72140 0.32477 0.28060
 C212 C 0.72344 0.30696 0.26230
 C213 C 0.68779 0.25439 0.25535
 C214 C 0.67001 0.25386 0.27379
 C215 C 0.67648 0.25052 0.29884
 C216 C 0.70103 0.24755 0.30511
 C217 C 0.71882 0.24843 0.28669
 C218 C 0.72803 0.24069 0.19783
 C219 C 0.72935 0.22258 0.17980
 C220 C 0.73486 0.19852 0.18662
 C221 C 0.73875 0.19284 0.21179
 C222 C 0.73710 0.21090 0.22984
 H223 H 0.78311 0.23917 0.23307
 H224 H 0.81558 0.24159 0.20233
 H225 H 0.78686 0.31157 0.17901
 H226 H 0.75463 0.30910 0.21002
 H227 H 0.77985 0.28417 0.27600
 H228 H 0.77628 0.31504 0.30835
 H229 H 0.70863 0.30470 0.24949
 H230 H 0.68248 0.25716 0.23615
 H231 H 0.65120 0.25595 0.26849
 H232 H 0.70645 0.24506 0.32431
 H233 H 0.73768 0.24647 0.29187
 H234 H 0.72392 0.25918 0.19225
 H235 H 0.72634 0.22737 0.16049
 H236 H 0.74275 0.17437 0.21750
 H237 H 0.74015 0.20619 0.24917
 H238 H 0.70506 0.33610 0.28142
 C239 C 0.26899 0.75215 0.24032
 C240 C 0.25184 0.73524 0.23896
 C241 C 0.23264 0.73667 0.21973
 C242 C 0.25086 0.71485 0.25675
 C243 C 0.28699 0.75270 0.26085
 C244 C 0.27064 0.77092 0.22078
 C245 C 0.21641 0.75668 0.21857
 C246 C 0.19813 0.75773 0.20070
 C247 C 0.19572 0.73876 0.18363
 C248 C 0.21199 0.71868 0.18498
 C249 C 0.23017 0.71759 0.20297
 C250 C 0.22949 0.71128 0.27003
 C251 C 0.22832 0.69257 0.28730
 C252 C 0.24845 0.67689 0.29148
 C253 C 0.26973 0.68021 0.27778
 C254 C 0.27089 0.69898 0.26047
 C255 C 0.31150 0.75547 0.25521
 C256 C 0.32868 0.75612 0.27415
 C257 C 0.32172 0.75378 0.29912
 C258 C 0.29722 0.75124 0.30487
 C259 C 0.27995 0.75112 0.28593
 C260 C 0.27580 0.76442 0.19608
 C261 C 0.27698 0.78215 0.17768
 C262 C 0.27286 0.80661 0.18368
 C263 C 0.26784 0.81306 0.20847
 C264 C 0.26696 0.79534 0.22692
 H265 H 0.21776 0.77136 0.23169
 H266 H 0.18564 0.77323 0.20051
 H267 H 0.21088 0.70393 0.17193
 H268 H 0.24253 0.70198 0.20367
 H269 H 0.21384 0.72333 0.26739
 H270 H 0.21179 0.69070 0.29779
 H271 H 0.28740 0.70121 0.25004
 H272 H 0.31741 0.75691 0.23607
 H273 H 0.34749 0.75804 0.26930
 H274 H 0.29142 0.74977 0.32404
 H275 H 0.26109 0.74981 0.29088
 H276 H 0.27886 0.74563 0.19111
 H277 H 0.28076 0.77674 0.15869
 H278 H 0.26485 0.83183 0.21356
 H279 H 0.26306 0.80061 0.24593
 H280 H 0.28541 0.66819 0.28032
 C281 C 0.76842 0.25631 0.74175
 C282 C 0.75144 0.23919 0.74208
 C283 C 0.73218 0.23781 0.72297
 C284 C 0.75123 0.22086 0.76220
 C285 C 0.78849 0.25543 0.76000
 C286 C 0.76774 0.27668 0.72374
 C287 C 0.70829 0.23419 0.73049
 C288 C 0.69010 0.23167 0.71291
 C289 C 0.69538 0.23294 0.68744
 C290 C 0.71918 0.23672 0.67980
 C291 C 0.73752 0.23876 0.69741
 C292 C 0.74507 0.22761 0.78659
 C293 C 0.74426 0.21018 0.80535
 C294 C 0.75001 0.18584 0.80004
 C295 C 0.75639 0.17917 0.77565
 C296 C 0.75669 0.19653 0.75679
 C297 C 0.80489 0.23552 0.76084
 C298 C 0.82279 0.23404 0.77909
 C299 C 0.82472 0.25254 0.79674
 C300 C 0.80863 0.27277 0.79538
 C301 C 0.79074 0.27424 0.77710
 C302 C 0.78815 0.28099 0.70916
 C303 C 0.78780 0.29995 0.69201
 C304 C 0.76711 0.31523 0.68925
 C305 C 0.74676 0.31106 0.70414
 C306 C 0.74710 0.29202 0.72127
 H307 H 0.70369 0.23328 0.75004
 H308 H 0.67182 0.22889 0.71919
 H309 H 0.72364 0.23747 0.66020
 H310 H 0.75589 0.24077 0.69108
 H311 H 0.74066 0.24633 0.79097
 H312 H 0.73937 0.21568 0.82407
 H313 H 0.76137 0.19107 0.73801
 H314 H 0.80362 0.22101 0.74751
 H315 H 0.83518 0.21845 0.77935
 H316 H 0.80945 0.28719 0.80886
 H317 H 0.77821 0.28972 0.77670
 H318 H 0.80425 0.26939 0.71080
 H319 H 0.80366 0.30242 0.68062
 H320 H 0.73070 0.32274 0.70282
 H321 H 0.73132 0.28929 0.73270
 H322 H 0.76072 0.16046 0.77116
 C323 C 0.24907 0.74064 0.75435
 C324 C 0.26562 0.75819 0.75307
 C325 C 0.28472 0.75766 0.73371
 C326 C 0.26587 0.77862 0.77085
 C327 C 0.23091 0.73967 0.77471
 C328 C 0.24848 0.72159 0.73501
 C329 C 0.30153 0.73815 0.73204
 C330 C 0.31931 0.73776 0.71358
 C331 C 0.32067 0.75696 0.69657
 C332 C 0.30395 0.77661 0.69854
 C333 C 0.28622 0.77700 0.71702
 C334 C 0.28691 0.78257 0.78444
 C335 C 0.28768 0.80170 0.80119
 C336 C 0.26749 0.81755 0.80448
 C337 C 0.24643 0.81366 0.79067
 C338 C 0.24565 0.79438 0.77395
 C339 C 0.20653 0.73642 0.76892
 C340 C 0.18910 0.73630 0.78771
 C341 C 0.19570 0.73966 0.81260
 C342 C 0.22010 0.74230 0.81853
 C343 C 0.23762 0.74185 0.79980
 C344 C 0.24393 0.72764 0.71005
 C345 C 0.24501 0.70982 0.69169
 C346 C 0.25075 0.68566 0.69798
 C347 C 0.25473 0.67959 0.72308
 C348 C 0.25340 0.69739 0.74146
 H349 H 0.30090 0.72328 0.74509
 H350 H 0.33219 0.72259 0.71284
 H351 H 0.30435 0.79154 0.68555
 H352 H 0.27340 0.79222 0.71811
 H353 H 0.30269 0.77059 0.78230
 H354 H 0.30403 0.80388 0.81181
 H355 H 0.22936 0.79183 0.76332
 H356 H 0.20092 0.73445 0.74978
 H357 H 0.17035 0.73419 0.78278
 H358 H 0.22559 0.74453 0.83769
 H359 H 0.25639 0.74345 0.80488
 H360 H 0.23995 0.74624 0.70478
 H361 H 0.24199 0.71501 0.67249
 H362 H 0.25889 0.66106 0.72845
 H363 H 0.25687 0.69242 0.76064
 H364 H 0.23070 0.82573 0.79248
 C365 C 0.26467 0.25394 0.75982
 C366 C 0.24837 0.27305 0.76057
 C367 C 0.24955 0.29325 0.74257
 C368 C 0.22835 0.27456 0.77896
 C369 C 0.26541 0.23501 0.77953
 C370 C 0.28231 0.25108 0.73898
 C371 C 0.27048 0.30655 0.74039
 C372 C 0.27209 0.32430 0.72207
 C373 C 0.25275 0.32908 0.70563
 C374 C 0.23151 0.31623 0.70847
 C375 C 0.22987 0.29860 0.72690
 C376 C 0.22558 0.29486 0.79436
 C377 C 0.20721 0.29622 0.81219
 C378 C 0.19105 0.27741 0.81476
 C379 C 0.19354 0.25734 0.79884
 C380 C 0.21198 0.25596 0.78107
 C381 C 0.26635 0.21050 0.77290
 C382 C 0.26585 0.19259 0.79119
 C383 C 0.26410 0.19895 0.81638
 C384 C 0.26387 0.22336 0.82312
 C385 C 0.26500 0.24124 0.80488
 C386 C 0.27451 0.25199 0.71412
 C387 C 0.29126 0.25109 0.69468
 C388 C 0.31608 0.24852 0.69968
 C389 C 0.32383 0.24637 0.72447
 C390 C 0.30708 0.24771 0.74397
 H391 H 0.28571 0.30287 0.75261
 H392 H 0.28850 0.33421 0.72069
 H393 H 0.21641 0.31922 0.69594
 H394 H 0.21359 0.28848 0.72835
 H395 H 0.23800 0.30942 0.79294
 H396 H 0.20598 0.31178 0.82432
 H397 H 0.21354 0.24037 0.76900
 H398 H 0.26692 0.20523 0.75351
 H399 H 0.26612 0.17380 0.78570
 H400 H 0.26288 0.22854 0.84252
 H401 H 0.26517 0.25996 0.81054
 H402 H 0.25545 0.25380 0.70979
 H403 H 0.28483 0.25235 0.67570
 H404 H 0.34290 0.24436 0.72876
 H405 H 0.31347 0.24672 0.76297
 H406 H 0.18110 0.24279 0.79996
 C407 C 0.73340 0.75657 0.75785
 C408 C 0.75152 0.73924 0.75740
 C409 C 0.75360 0.72078 0.73742
 C410 C 0.77010 0.73774 0.77724
 C411 C 0.73353 0.77657 0.77611
 C412 C 0.71306 0.75668 0.73987
 C413 C 0.75719 0.69631 0.74375
 C414 C 0.75894 0.67872 0.72524
 C415 C 0.75696 0.68528 0.70009
 C416 C 0.75376 0.70974 0.69369
 C417 C 0.75250 0.72739 0.71219
 C418 C 0.76352 0.73353 0.80204
 C419 C 0.78120 0.73145 0.82051
 C420 C 0.80570 0.73375 0.81448
 C421 C 0.81220 0.73808 0.78965
 C422 C 0.79455 0.73982 0.77114
 C423 C 0.75311 0.79185 0.77722
 C424 C 0.75354 0.81018 0.79496
 C425 C 0.73432 0.81365 0.81185
 C426 C 0.71450 0.79859 0.81033
 C427 C 0.71407 0.78030 0.79252
 C428 C 0.70817 0.77712 0.72504
 C429 C 0.69019 0.77691 0.70688
 C430 C 0.67652 0.75632 0.70334
 C431 C 0.68094 0.73613 0.71881
 C432 C 0.69897 0.73635 0.73696
 H433 H 0.75829 0.69080 0.76306
 H434 H 0.76137 0.65993 0.73056
 H435 H 0.75255 0.71518 0.67437
 H436 H 0.75054 0.74619 0.70682
 H437 H 0.74473 0.73163 0.80700
 H438 H 0.77575 0.72821 0.83954
 H439 H 0.79992 0.74293 0.75206
 H440 H 0.76809 0.78952 0.76436
 H441 H 0.76883 0.82177 0.79532
 H442 H 0.69954 0.80062 0.82323
 H443 H 0.69880 0.76869 0.79186
 H444 H 0.71883 0.79298 0.72700
 H445 H 0.68743 0.79266 0.69514
 H446 H 0.67043 0.72018 0.71691
 H447 H 0.70218 0.72055 0.74854
 H448 H 0.83099 0.73968 0.78452
 C449 C 0.29358 0.07072 0.08398
 C450 C 0.27307 0.08445 0.09237
 C451 C 0.25100 0.08160 0.07962
 C452 C 0.24939 0.06468 0.06037
 C453 C 0.26976 0.05082 0.05253
 C454 C 0.29193 0.05438 0.06434
 C455 C 0.23056 0.09566 0.08608
 C456 C 0.23155 0.11289 0.10468
 C457 C 0.25298 0.11628 0.11818
 C458 C 0.27377 0.10107 0.11269
 C459 C 0.29427 0.10254 0.12809
 C460 C 0.29465 0.11860 0.14789
 C461 C 0.27501 0.13441 0.15264
 C462 C 0.25411 0.13393 0.13746
 C463 C 0.23532 0.15144 0.14203
 C464 C 0.23700 0.16806 0.16132
 C465 C 0.25721 0.16768 0.17685
 C466 C 0.27618 0.15082 0.17247
 H467 H 0.31129 0.07257 0.09183
 H468 H 0.23214 0.06262 0.05126
 H469 H 0.30814 0.04429 0.05864
 H470 H 0.21359 0.09349 0.07648
 H471 H 0.21486 0.12276 0.10864
 H472 H 0.31013 0.09088 0.12583
 H473 H 0.31066 0.11882 0.15945
 H474 H 0.21935 0.15316 0.13067
 H475 H 0.22227 0.18117 0.16433
 H476 H 0.29206 0.15084 0.18424
 C477 C 0.72002 0.58811 0.57411
 C478 C 0.74021 0.59229 0.58942
 C479 C 0.76104 0.57689 0.58643
 C480 C 0.76190 0.55906 0.56794
 C481 C 0.74196 0.55559 0.55258
 C482 C 0.72094 0.57001 0.55609
 C483 C 0.78098 0.57934 0.60184
 C484 C 0.78068 0.59654 0.62054
 C485 C 0.76051 0.61250 0.62418
 C486 C 0.74035 0.61099 0.60772
 C487 C 0.72129 0.62854 0.60971
 C488 C 0.72161 0.64662 0.62750
 C489 C 0.74053 0.64760 0.64445
 C490 C 0.76005 0.63030 0.64341
 C491 C 0.77811 0.63135 0.66196
 C492 C 0.77700 0.64915 0.68027
 C493 C 0.75809 0.66657 0.68060
 C494 C 0.73992 0.66575 0.66263
 H495 H 0.70310 0.59821 0.57583
 H496 H 0.77812 0.54769 0.56565
 H497 H 0.70519 0.56752 0.54460
 H498 H 0.79700 0.56769 0.59955
 H499 H 0.79694 0.59733 0.63140
 H500 H 0.70609 0.62925 0.59724
 H501 H 0.70669 0.65986 0.62815
 H502 H 0.79304 0.61838 0.66325
 H503 H 0.79111 0.64941 0.69419
 H504 H 0.72498 0.67897 0.66319
 C505 C 0.69473 0.93565 0.08205
 C506 C 0.71649 0.92434 0.09082
 C507 C 0.73835 0.93108 0.07946
 C508 C 0.73825 0.94852 0.06049
 C509 C 0.71657 0.95957 0.05212
 C510 C 0.69485 0.95290 0.06305
 C511 C 0.76031 0.92041 0.08699
 C512 C 0.76122 0.90293 0.10547
 C513 C 0.74006 0.89542 0.11742
 C514 C 0.71735 0.90658 0.11027
 C515 C 0.69631 0.89973 0.12292
 C516 C 0.69730 0.88245 0.14166
 C517 C 0.71917 0.87108 0.14849
 C518 C 0.74088 0.87725 0.13644
 C519 C 0.76249 0.86477 0.14389
 C520 C 0.76245 0.84728 0.16258
 C521 C 0.74098 0.84148 0.17459
 C522 C 0.71938 0.85349 0.16737
 H523 H 0.67723 0.93149 0.08926
 H524 H 0.75521 0.95340 0.05212
 H525 H 0.67780 0.96106 0.05692
 H526 H 0.77708 0.92557 0.07841
 H527 H 0.77900 0.89583 0.11010
 H528 H 0.67866 0.90755 0.11897
 H529 H 0.68065 0.87786 0.15085
 H530 H 0.77977 0.86780 0.13551
 H531 H 0.77934 0.83793 0.16737
 H532 H 0.70265 0.84933 0.17666
 C533 C 0.21941 0.43821 0.58586
 C534 C 0.24000 0.42565 0.59575
 C535 C 0.26252 0.42894 0.58387
 C536 C 0.26427 0.44482 0.56367
 C537 C 0.24379 0.45743 0.55445
 C538 C 0.22135 0.45378 0.56557
 C539 C 0.28325 0.41643 0.59220
 C540 C 0.28221 0.40034 0.61190
 C541 C 0.26031 0.39637 0.62446
 C542 C 0.23901 0.40982 0.61677
 C543 C 0.21756 0.40731 0.63060
 C544 C 0.21671 0.39178 0.65081
 C545 C 0.23699 0.37779 0.65785
 C546 C 0.25905 0.37965 0.64469
 C547 C 0.27882 0.36438 0.65216
 C548 C 0.27673 0.34828 0.67195
 C549 C 0.25499 0.34682 0.68510
 C550 C 0.23522 0.36177 0.67796
 H551 H 0.20146 0.43621 0.59310
 H552 H 0.28171 0.44727 0.55502
 H553 H 0.20518 0.46315 0.55870
 H554 H 0.30053 0.41899 0.58326
 H555 H 0.29914 0.39164 0.61718
 H556 H 0.20108 0.41749 0.62659
 H557 H 0.19984 0.39054 0.66091
 H558 H 0.29600 0.36391 0.64276
 H559 H 0.29212 0.33650 0.67658
 H560 H 0.21834 0.36095 0.68810
 C561 C 0.91475 0.23858 0.07148
 C562 C 0.90573 0.25959 0.08384
 C563 C 0.91684 0.28165 0.07844
 C564 C 0.93585 0.28245 0.06112
 C565 C 0.94453 0.26142 0.04915
 C566 C 0.93377 0.23956 0.05454
 C567 C 0.90906 0.30279 0.09048
 C568 C 0.89075 0.30259 0.10813
 C569 C 0.87916 0.28112 0.11435
 C570 C 0.88638 0.25938 0.10154
 C571 C 0.87391 0.23819 0.10675
 C572 C 0.85548 0.23800 0.12421
 C573 C 0.84876 0.25878 0.13741
 C574 C 0.86047 0.28066 0.13281
 C575 C 0.85305 0.30108 0.14712
 C576 C 0.83475 0.29973 0.16491
 C577 C 0.82318 0.27808 0.16917
 C578 C 0.83031 0.25769 0.15526
 H579 H 0.90786 0.22096 0.07469
 H580 H 0.94415 0.29946 0.05724
 H581 H 0.94011 0.22298 0.04565
 H582 H 0.91739 0.31973 0.08635
 H583 H 0.88593 0.31976 0.11642
 H584 H 0.87773 0.22132 0.09741
 H585 H 0.84647 0.22127 0.12753
 H586 H 0.86120 0.31832 0.14534
 H587 H 0.82991 0.31567 0.17569
 H588 H 0.82128 0.24089 0.15816
 C589 C 0.42539 0.70994 0.57678
 C590 C 0.41720 0.73170 0.58837
 C591 C 0.42784 0.75335 0.58066
 C592 C 0.44542 0.75309 0.56185
 C593 C 0.45316 0.73142 0.55049
 C594 C 0.44306 0.70989 0.55822
 C595 C 0.42096 0.77523 0.59174
 C596 C 0.40388 0.77624 0.61062
 C597 C 0.39269 0.75529 0.61909
 C598 C 0.39904 0.73272 0.60739
 C599 C 0.38683 0.71201 0.61490
 C600 C 0.36930 0.71316 0.63336
 C601 C 0.36339 0.73483 0.64539
 C602 C 0.37510 0.75619 0.63865
 C603 C 0.36878 0.77754 0.65197
 C604 C 0.35129 0.77765 0.67066
 C605 C 0.33948 0.75658 0.67686
 C606 C 0.34572 0.73520 0.66415
 H607 H 0.41879 0.69257 0.58176
 H608 H 0.45325 0.76987 0.55619
 H609 H 0.44879 0.69285 0.54986
 H610 H 0.42897 0.79184 0.58582
 H611 H 0.39960 0.79395 0.61791
 H612 H 0.39010 0.69455 0.60658
 H613 H 0.36034 0.69679 0.63838
 H614 H 0.37717 0.79445 0.64872
 H615 H 0.34723 0.79431 0.68057
 H616 H 0.33656 0.71881 0.66865
 C617 C 0.07889 0.70096 0.07616
 C618 C 0.08959 0.72196 0.08540
 C619 C 0.08137 0.74450 0.07549
 C620 C 0.06288 0.74583 0.05769
 C621 C 0.05236 0.72488 0.04875
 C622 C 0.06070 0.70246 0.05816
 C623 C 0.09166 0.76574 0.08327
 C624 C 0.11029 0.76522 0.10045
 C625 C 0.11925 0.74330 0.11093
 C626 C 0.10825 0.72138 0.10386
 C627 C 0.11601 0.69972 0.11574
 C628 C 0.13410 0.69935 0.13359
 C629 C 0.14556 0.72039 0.14004
 C630 C 0.13859 0.74264 0.12860
 C631 C 0.15147 0.76325 0.13520
 C632 C 0.16992 0.76185 0.15283
 C633 C 0.17628 0.73995 0.16457
 C634 C 0.16401 0.71925 0.15795
 H635 H 0.08440 0.68303 0.08209
 H636 H 0.05693 0.76339 0.05058
 H637 H 0.05318 0.68586 0.05164
 H638 H 0.08533 0.78305 0.07584
 H639 H 0.11695 0.78252 0.10551
 H640 H 0.10811 0.68265 0.11203
 H641 H 0.13930 0.68230 0.14234
 H642 H 0.14812 0.78070 0.12680
 H643 H 0.17951 0.77801 0.15702
 H644 H 0.16861 0.70220 0.16698
 C645 C 0.58535 0.25983 0.56790
 C646 C 0.59340 0.24041 0.58333
 C647 C 0.58045 0.21885 0.58243
 C648 C 0.56114 0.21662 0.56585
 C649 C 0.55374 0.23587 0.55042
 C650 C 0.56581 0.25755 0.55183
 C651 C 0.58679 0.19959 0.59808
 C652 C 0.60541 0.20134 0.61511
 C653 C 0.61892 0.22236 0.61676
 C654 C 0.61352 0.24178 0.59985
 C655 C 0.62871 0.26167 0.59967
 C656 C 0.64804 0.26294 0.61595
 C657 C 0.65266 0.24482 0.63350
 C658 C 0.63795 0.22444 0.63447
 C659 C 0.64262 0.20723 0.65354
 C660 C 0.66128 0.21007 0.67053
 C661 C 0.67604 0.22990 0.66899
 C662 C 0.67178 0.24715 0.65034
 H663 H 0.59344 0.27719 0.56813
 H664 H 0.55165 0.19988 0.56518
 H665 H 0.56032 0.27278 0.54024
 H666 H 0.57706 0.18300 0.59735
 H667 H 0.60921 0.18553 0.62632
 H668 H 0.62652 0.27637 0.58664
 H669 H 0.65930 0.27848 0.61501
 H670 H 0.63180 0.19171 0.65631
 H671 H 0.66424 0.19662 0.68497
 H672 H 0.68296 0.26277 0.64942
 C673 C 0.69929 0.08612 0.91888
 C674 C 0.72147 0.09236 0.90792
 C675 C 0.74264 0.07923 0.91554
 C676 C 0.74164 0.06166 0.93432
 C677 C 0.71957 0.05599 0.94541
 C678 C 0.69841 0.06821 0.93714
 C679 C 0.76478 0.08364 0.90437
 C680 C 0.76640 0.10052 0.88542
 C681 C 0.74593 0.11429 0.87730
 C682 C 0.72332 0.11088 0.88949
 C683 C 0.70348 0.12647 0.88329
 C684 C 0.70545 0.14441 0.86542
 C685 C 0.72700 0.14710 0.85246
 C686 C 0.74744 0.13177 0.85779
 C687 C 0.76841 0.13437 0.84304
 C688 C 0.76910 0.15181 0.82431
 C689 C 0.74914 0.16739 0.81985
 C690 C 0.72815 0.16499 0.83401
 H691 H 0.68220 0.09438 0.91339
 H692 H 0.75821 0.05219 0.94006
 H693 H 0.68098 0.06417 0.94496
 H694 H 0.78106 0.07373 0.91019
 H695 H 0.78422 0.10291 0.87799
 H696 H 0.68624 0.12578 0.89253
 H697 H 0.68980 0.15613 0.86150
 H698 H 0.78439 0.12283 0.84505
 H699 H 0.78541 0.15327 0.81334
 H700 H 0.71249 0.17676 0.83021
 C701 C 0.28102 0.57699 0.41975
 C702 C 0.26114 0.58365 0.40433
 C703 C 0.23893 0.57254 0.40899
 C704 C 0.23673 0.55616 0.42872
 C705 C 0.25651 0.55006 0.44396
 C706 C 0.27866 0.56047 0.43916
 C707 C 0.21895 0.57779 0.39399
 C708 C 0.22041 0.59379 0.37424
 C709 C 0.24197 0.60555 0.36885
 C710 C 0.26254 0.60080 0.38447
 C711 C 0.28362 0.61369 0.38001
 C712 C 0.28468 0.63057 0.36099
 C713 C 0.26500 0.63505 0.34535
 C714 C 0.24349 0.62235 0.34871
 C715 C 0.22438 0.62707 0.33171
 C716 C 0.22628 0.64436 0.31301
 C717 C 0.24722 0.65749 0.31043
 C718 C 0.26666 0.65247 0.32648
 H719 H 0.29874 0.58393 0.41723
 H720 H 0.21955 0.54798 0.43207
 H721 H 0.29431 0.55594 0.45054
 H722 H 0.20192 0.56938 0.39751
 H723 H 0.20399 0.59692 0.36387
 H724 H 0.29960 0.61159 0.39128
 H725 H 0.30116 0.64024 0.35852
 H726 H 0.20776 0.61764 0.33213
 H727 H 0.21122 0.64741 0.30042
 H728 H 0.28295 0.66259 0.32472
 C729 C 0.23320 0.92764 0.92333
 C730 C 0.25354 0.91888 0.90959
 C731 C 0.27604 0.92928 0.91450
 C732 C 0.27806 0.94686 0.93307
 C733 C 0.25783 0.95496 0.94679
 C734 C 0.23538 0.94538 0.94153
 C735 C 0.29650 0.92206 0.90094
 C736 C 0.29525 0.90480 0.88240
 C737 C 0.27340 0.89364 0.87689
 C738 C 0.25234 0.90033 0.89116
 C739 C 0.23098 0.88785 0.88692
 C740 C 0.23011 0.86960 0.86933
 C741 C 0.25027 0.86331 0.85484
 C742 C 0.27207 0.87554 0.85802
 C743 C 0.29163 0.86914 0.84207
 C744 C 0.28986 0.85073 0.82460
 C745 C 0.26863 0.83799 0.82228
 C746 C 0.24876 0.84465 0.83730
 H747 H 0.21526 0.92143 0.92033
 H748 H 0.29548 0.95439 0.93672
 H749 H 0.21939 0.95144 0.95170
 H750 H 0.31376 0.92990 0.90467
 H751 H 0.31202 0.90015 0.87314
 H752 H 0.21463 0.89132 0.89739
 H753 H 0.21340 0.86031 0.86701
 H754 H 0.30849 0.87817 0.84230
 H755 H 0.30525 0.84656 0.81271
 H756 H 0.23221 0.83496 0.83574
 C757 C 0.77398 0.43780 0.41335
 C758 C 0.75328 0.42680 0.40384
 C759 C 0.73080 0.43237 0.41557
 C760 C 0.72923 0.44887 0.43535
 C761 C 0.74990 0.45981 0.44424
 C762 C 0.77224 0.45396 0.43316
 C763 C 0.70997 0.42142 0.40758
 C764 C 0.71089 0.40470 0.38840
 C765 C 0.73277 0.39849 0.37606
 C766 C 0.75416 0.41030 0.38338
 C767 C 0.77565 0.40550 0.36980
 C768 C 0.77648 0.38922 0.35026
 C769 C 0.75611 0.37678 0.34362
 C770 C 0.73396 0.38105 0.35643
 C771 C 0.71405 0.36738 0.34922
 C772 C 0.71615 0.35044 0.33009
 C773 C 0.73804 0.34651 0.31739
 C774 C 0.75789 0.35992 0.32421
 H775 H 0.79191 0.43408 0.40621
 H776 H 0.71186 0.45305 0.44395
 H777 H 0.78855 0.46199 0.43975
 H778 H 0.69272 0.42569 0.41639
 H779 H 0.69391 0.39725 0.38340
 H780 H 0.79220 0.41438 0.37349
 H781 H 0.79339 0.38617 0.34038
 H782 H 0.69673 0.36887 0.35832
 H783 H 0.70063 0.33998 0.32559
 H784 H 0.77487 0.35727 0.31435
 C785 C 0.08299 0.23820 0.93105
 C786 C 0.09171 0.25950 0.92030
 C787 C 0.08046 0.28181 0.92752
 C788 C 0.06176 0.28258 0.94528
 C789 C 0.05329 0.26124 0.95575
 C790 C 0.06418 0.23912 0.94832
 C791 C 0.08772 0.30327 0.91679
 C792 C 0.10554 0.30313 0.89859
 C793 C 0.11725 0.28141 0.89063
 C794 C 0.11084 0.25933 0.90234
 C795 C 0.12394 0.23788 0.89592
 C796 C 0.14211 0.23777 0.87815
 C797 C 0.14780 0.25889 0.86573
 C798 C 0.13539 0.28101 0.87159
 C799 C 0.14151 0.30173 0.85783
 C800 C 0.15939 0.30047 0.83948
 C801 C 0.17185 0.27862 0.83413
 C802 C 0.16591 0.25790 0.84742
 H803 H 0.08987 0.22042 0.92615
 H804 H 0.05351 0.29989 0.95054
 H805 H 0.05813 0.22221 0.95578
 H806 H 0.07931 0.32042 0.92232
 H807 H 0.11003 0.32054 0.89140
 H808 H 0.12093 0.22077 0.90467
 H809 H 0.15169 0.22085 0.87392
 H810 H 0.13254 0.31912 0.86039
 H811 H 0.16321 0.31668 0.82915
 H812 H 0.17558 0.24092 0.84369
 C813 C 0.58427 0.71190 0.42062
 C814 C 0.58885 0.73348 0.40754
 C815 C 0.57451 0.75439 0.41365
 C816 C 0.55709 0.75372 0.43257
 C817 C 0.55305 0.73230 0.44553
 C818 C 0.56664 0.71139 0.43922
 C819 C 0.57757 0.77593 0.40087
 C820 C 0.59444 0.77731 0.38191
 C821 C 0.60934 0.75714 0.37513
 C822 C 0.60695 0.73503 0.38860
 C823 C 0.62305 0.71541 0.38302
 C824 C 0.64073 0.71719 0.36485
 C825 C 0.64286 0.73836 0.35113
 C826 C 0.62695 0.75852 0.35571
 C827 C 0.62936 0.77922 0.34055
 C828 C 0.64735 0.78009 0.32245
 C829 C 0.66358 0.76045 0.31866
 C830 C 0.66101 0.73951 0.33293
 H831 H 0.59373 0.69499 0.41677
 H832 H 0.54644 0.76996 0.43705
 H833 H 0.56375 0.69454 0.44880
 H834 H 0.56670 0.79198 0.40554
 H835 H 0.59571 0.79475 0.37329
 H836 H 0.62288 0.69846 0.39281
 H837 H 0.65288 0.70173 0.36146
 H838 H 0.61747 0.79498 0.34193
 H839 H 0.64846 0.79625 0.31121
 H840 H 0.67351 0.72420 0.33026
 C841 C 0.93155 0.75976 0.91424
 C842 C 0.91574 0.74088 0.90923
 C843 C 0.91827 0.71960 0.92384
 C844 C 0.93655 0.71714 0.94185
 C845 C 0.95214 0.73595 0.94635
 C846 C 0.94930 0.75729 0.93254
 C847 C 0.90245 0.70093 0.92055
 C848 C 0.88381 0.70298 0.90337
 C849 C 0.88056 0.72369 0.88823
 C850 C 0.89737 0.74254 0.89055
 C851 C 0.89555 0.76217 0.87379
 C852 C 0.87767 0.76366 0.85576
 C853 C 0.86052 0.74601 0.85399
 C854 C 0.86137 0.72597 0.87047
 C855 C 0.84277 0.70923 0.86860
 C856 C 0.82466 0.71198 0.85067
 C857 C 0.82451 0.73134 0.83394
 C858 C 0.84246 0.74833 0.83576
 H859 H 0.93036 0.77689 0.90477
 H860 H 0.93834 0.70069 0.95275
 H861 H 0.96098 0.77219 0.93579
 H862 H 0.90434 0.68457 0.93158
 H863 H 0.87257 0.68762 0.90194
 H864 H 0.90815 0.77648 0.87365
 H865 H 0.87716 0.77895 0.84314
 H866 H 0.84142 0.69401 0.88093
 H867 H 0.81087 0.69869 0.84965
 H868 H 0.84213 0.76363 0.82314
 C869 C 0.43004 0.19928 0.42027
 C870 C 0.41307 0.21852 0.41556
 C871 C 0.41380 0.23917 0.43101
 C872 C 0.43171 0.24090 0.44926
 C873 C 0.44876 0.22199 0.45315
 C874 C 0.44749 0.20103 0.43883
 C875 C 0.39673 0.25808 0.42816
 C876 C 0.37867 0.25696 0.41042
 C877 C 0.37734 0.23703 0.39425
 C878 C 0.39536 0.21791 0.39624
 C879 C 0.39550 0.19923 0.37843
 C880 C 0.37847 0.19901 0.35952
 C881 C 0.36020 0.21694 0.35799
 C882 C 0.35896 0.23590 0.37568
 C883 C 0.33921 0.25284 0.37413
 C884 C 0.32202 0.25137 0.35533
 C885 C 0.32398 0.23319 0.33738
 C886 C 0.34307 0.21598 0.33882
 H887 H 0.43012 0.18249 0.41022
 H888 H 0.43227 0.25702 0.46061
 H889 H 0.46033 0.18605 0.44168
 H890 H 0.39725 0.27394 0.43989
 H891 H 0.36645 0.27250 0.40931
 H892 H 0.40910 0.18482 0.37808
 H893 H 0.37953 0.18449 0.34604
 H894 H 0.33621 0.26717 0.38740
 H895 H 0.30725 0.26474 0.35460
 H896 H 0.34434 0.20160 0.32518
 C897 C 0.69306 0.93232 0.91899
 C898 C 0.71436 0.91964 0.91099
 C899 C 0.73643 0.92554 0.92240
 C900 C 0.73701 0.94376 0.94049
 C901 C 0.71577 0.95628 0.94792
 C902 C 0.69384 0.95026 0.93709
 C903 C 0.75787 0.91326 0.91573
 C904 C 0.75802 0.89502 0.89809
 C905 C 0.73661 0.88844 0.88607
 C906 C 0.71449 0.90129 0.89226
 C907 C 0.69330 0.89559 0.87931
 C908 C 0.69354 0.87777 0.86124
 C909 C 0.71476 0.86467 0.85545
 C910 C 0.73660 0.86961 0.86785
 C911 C 0.75746 0.85534 0.86151
 C912 C 0.75661 0.83733 0.84347
 C913 C 0.73505 0.83282 0.83107
 C914 C 0.71417 0.84660 0.83723
 H915 H 0.67541 0.92873 0.91189
 H916 H 0.75408 0.94811 0.94887
 H917 H 0.67710 0.95952 0.94255
 H918 H 0.77481 0.91774 0.92433
 H919 H 0.77543 0.88667 0.89404
 H920 H 0.67612 0.90483 0.88238
 H921 H 0.67682 0.87413 0.85174
 H922 H 0.77469 0.85731 0.87034
 H923 H 0.77291 0.82660 0.83949
 H924 H 0.69741 0.84345 0.82760
 C925 C 0.27474 0.41855 0.42776
 C926 C 0.25369 0.41183 0.41492
 C927 C 0.23186 0.42507 0.42014
 C928 C 0.23125 0.44379 0.43772
 C929 C 0.25221 0.45009 0.45033
 C930 C 0.27393 0.43734 0.44508
 C931 C 0.21067 0.41967 0.40778
 C932 C 0.21054 0.40152 0.39008
 C933 C 0.23171 0.38773 0.38409
 C934 C 0.25355 0.39265 0.39706
 C935 C 0.27443 0.37806 0.39193
 C936 C 0.27413 0.35953 0.37460
 C937 C 0.25319 0.35489 0.36141
 C938 C 0.23170 0.36899 0.36575
 C939 C 0.21113 0.36377 0.35138
 C940 C 0.21187 0.34515 0.33393
 C941 C 0.23303 0.33102 0.33005
 C942 C 0.25367 0.33609 0.34387
 H943 H 0.29221 0.40987 0.42472
 H944 H 0.21433 0.45361 0.44144
 H945 H 0.29044 0.44187 0.45443
 H946 H 0.19392 0.42969 0.41178
 H947 H 0.19330 0.39857 0.38166
 H948 H 0.29137 0.38024 0.40126
 H949 H 0.29060 0.34876 0.37142
 H950 H 0.19421 0.37387 0.35285
 H951 H 0.19580 0.34203 0.32315
 H952 H 0.27013 0.32517 0.34121
 C953 C 0.29448 0.07538 0.92029
 C954 C 0.27430 0.08998 0.91276
 C955 C 0.25203 0.08668 0.92508
 C956 C 0.24990 0.06841 0.94300
 C957 C 0.27002 0.05377 0.95002
 C958 C 0.29237 0.05779 0.93867
 C959 C 0.23199 0.10173 0.91959
 C960 C 0.23366 0.12041 0.90251
 C961 C 0.25534 0.12424 0.88949
 C962 C 0.27559 0.10800 0.89378
 C963 C 0.29621 0.10988 0.87853
 C964 C 0.29729 0.12743 0.86015
 C965 C 0.27828 0.14431 0.85679
 C966 C 0.25725 0.14339 0.87181
 C967 C 0.23919 0.16194 0.86877
 C968 C 0.24169 0.18008 0.85101
 C969 C 0.26199 0.18013 0.83556
 C970 C 0.28024 0.16224 0.83849
 H971 H 0.31234 0.07753 0.91283
 H972 H 0.23254 0.06599 0.95185
 H973 H 0.30841 0.04712 0.94378
 H974 H 0.21487 0.09926 0.92887
 H975 H 0.21731 0.13108 0.89924
 H976 H 0.31159 0.09743 0.87975
 H977 H 0.31336 0.12797 0.84865
 H978 H 0.22321 0.16330 0.88022
 H979 H 0.22754 0.19401 0.84911
 H980 H 0.29618 0.16259 0.82677
 C981 C 0.72544 0.59374 0.42876
 C982 C 0.74662 0.59914 0.41538
 C983 C 0.76753 0.58405 0.41935
 C984 C 0.76732 0.56515 0.43679
 C985 C 0.74625 0.56027 0.45005
 C986 C 0.72532 0.57459 0.44567
 C987 C 0.78854 0.58779 0.40580
 C988 C 0.78921 0.60587 0.38793
 C989 C 0.76894 0.62144 0.38326
 C990 C 0.74765 0.61867 0.39796
 C991 C 0.72827 0.63575 0.39508
 C992 C 0.72931 0.65444 0.37793
 C993 C 0.74938 0.65660 0.36253
 C994 C 0.76937 0.63995 0.36466
 C995 C 0.78875 0.64228 0.34768
 C996 C 0.78830 0.66052 0.32972
 C997 C 0.76877 0.67721 0.32821
 C998 C 0.74941 0.67522 0.34477
 H999 H 0.70850 0.60361 0.42623
 H1000 H 0.78354 0.55393 0.43975
 H1001 H 0.70873 0.57110 0.45552
 H1002 H 0.80462 0.57642 0.40885
 H1003 H 0.80621 0.60756 0.37847
 H1004 H 0.71216 0.63554 0.40629
 H1005 H 0.71404 0.66720 0.37650
 H1006 H 0.80425 0.62995 0.34732
 H1007 H 0.80338 0.66167 0.31697
 H1008 H 0.73402 0.68784 0.34332
 C1009 C 0.07595 0.70370 0.91660
 C1010 C 0.08864 0.72433 0.90965
 C1011 C 0.08329 0.74611 0.92265
 C1012 C 0.06493 0.74733 0.94073
 C1013 C 0.05225 0.72675 0.94721
 C1014 C 0.05827 0.70491 0.93511
 C1015 C 0.09641 0.76655 0.91769
 C1016 C 0.11515 0.76576 0.90048
 C1017 C 0.12099 0.74460 0.88682
 C1018 C 0.10672 0.72394 0.89062
 C1019 C 0.11057 0.70381 0.87486
 C1020 C 0.12816 0.70360 0.85644
 C1021 C 0.14312 0.72303 0.85346
 C1022 C 0.14020 0.74361 0.86898
 C1023 C 0.15689 0.76216 0.86620
 C1024 C 0.17508 0.76059 0.84820
 C1025 C 0.17706 0.74073 0.83226
 C1026 C 0.16108 0.72197 0.83500
 H1027 H 0.07970 0.68616 0.90858
 H1028 H 0.06095 0.76430 0.95015
 H1029 H 0.04916 0.68854 0.93976
 H1030 H 0.09238 0.78330 0.92749
 H1031 H 0.12426 0.78238 0.89767
 H1032 H 0.09966 0.68816 0.87572
 H1033 H 0.13023 0.68788 0.84454
 H1034 H 0.15671 0.77787 0.87797
 H1035 H 0.18747 0.77516 0.84645
 H1036 H 0.16291 0.70635 0.82293
 C1037 C 0.58279 0.20857 0.42682
 C1038 C 0.58548 0.22882 0.41109
 C1039 C 0.56888 0.24872 0.41410
 C1040 C 0.55120 0.24861 0.43288
 C1041 C 0.54914 0.22858 0.44856
 C1042 C 0.56490 0.20851 0.44513
 C1043 C 0.56995 0.26866 0.39838
 C1044 C 0.58693 0.26925 0.37939
 C1045 C 0.60403 0.25003 0.37569
 C1046 C 0.60384 0.22988 0.39237
 C1047 C 0.62230 0.21172 0.39013
 C1048 C 0.64002 0.21287 0.37194
 C1049 C 0.63983 0.23182 0.35487
 C1050 C 0.62163 0.25049 0.35617
 C1051 C 0.62170 0.26869 0.33762
 C1052 C 0.63938 0.26852 0.31908
 C1053 C 0.65765 0.25040 0.31841
 C1054 C 0.65778 0.23210 0.33639
 H1055 H 0.59393 0.19229 0.42523
 H1056 H 0.53885 0.26411 0.43512
 H1057 H 0.56359 0.19269 0.45684
 H1058 H 0.55737 0.28397 0.40064
 H1059 H 0.58656 0.28544 0.36828
 H1060 H 0.62398 0.19656 0.40264
 H1061 H 0.65395 0.19861 0.37111
 H1062 H 0.60813 0.28309 0.33660
 H1063 H 0.63891 0.28280 0.30529
 H1064 H 0.67167 0.21778 0.33568
 C1065 C 0.93256 0.28823 0.91392
 C1066 C 0.92221 0.26730 0.90420
 C1067 C 0.92828 0.24491 0.91588
 C1068 C 0.94444 0.24372 0.93604
 C1069 C 0.95454 0.26467 0.94529
 C1070 C 0.94837 0.28686 0.93404
 C1071 C 0.91809 0.22382 0.90750
 C1072 C 0.90163 0.22440 0.88803
 C1073 C 0.89487 0.24620 0.87582
 C1074 C 0.90584 0.26790 0.88360
 C1075 C 0.90024 0.28945 0.87042
 C1076 C 0.88397 0.29005 0.85086
 C1077 C 0.87241 0.26932 0.84368
 C1078 C 0.87759 0.24707 0.85599
 C1079 C 0.86496 0.22672 0.84806
 C1080 C 0.84808 0.22853 0.82882
 C1081 C 0.84315 0.25058 0.81675
 C1082 C 0.85554 0.27087 0.82424
 H1083 H 0.92860 0.30608 0.90675
 H1084 H 0.94893 0.22645 0.94470
 H1085 H 0.95579 0.30340 0.94081
 H1086 H 0.92273 0.20663 0.91625
 H1087 H 0.89474 0.20725 0.88281
 H1088 H 0.90837 0.30631 0.87451
 H1089 H 0.88024 0.30705 0.84136
 H1090 H 0.86729 0.20920 0.85658
 H1091 H 0.83845 0.21264 0.82373
 H1092 H 0.85210 0.28798 0.81485
 C1093 C 0.42026 0.71151 0.42522
 C1094 C 0.41502 0.73221 0.41039
 C1095 C 0.42954 0.75246 0.41375
 C1096 C 0.44765 0.75222 0.43201
 C1097 C 0.45233 0.73170 0.44673
 C1098 C 0.43867 0.71130 0.44295
 C1099 C 0.42602 0.77287 0.39883
 C1100 C 0.40872 0.77355 0.38019
 C1101 C 0.39370 0.75395 0.37610
 C1102 C 0.39620 0.73337 0.39215
 C1103 C 0.37950 0.71489 0.38975
 C1104 C 0.36142 0.71611 0.37188
 C1105 C 0.35959 0.73539 0.35523
 C1106 C 0.37594 0.75441 0.35677
 C1107 C 0.37410 0.77288 0.33853
 C1108 C 0.35653 0.77257 0.31998
 C1109 C 0.34005 0.75411 0.31908
 C1110 C 0.34159 0.73562 0.33683
 H1111 H 0.41082 0.69499 0.42324
 H1112 H 0.45840 0.76797 0.43450
 H1113 H 0.44206 0.69513 0.45394
 H1114 H 0.43697 0.78847 0.40142
 H1115 H 0.40711 0.79010 0.36970
 H1116 H 0.37952 0.69943 0.40191
 H1117 H 0.34890 0.70158 0.37089
 H1118 H 0.38633 0.78749 0.33765
 H1119 H 0.35572 0.78693 0.30628
 H1120 H 0.32912 0.72103 0.33588
 C1121 C 0.23724 0.93206 0.08281
 C1122 C 0.25705 0.91576 0.08755
 C1123 C 0.27796 0.91776 0.07255
 C1124 C 0.27917 0.93594 0.05446
 C1125 C 0.25958 0.95217 0.05037
 C1126 C 0.23854 0.94988 0.06449
 C1127 C 0.29764 0.90164 0.07564
 C1128 C 0.29706 0.88327 0.09314
 C1129 C 0.27681 0.88053 0.10872
 C1130 C 0.25678 0.89750 0.10642
 C1131 C 0.23740 0.89597 0.12338
 C1132 C 0.23737 0.87830 0.14171
 C1133 C 0.25632 0.86113 0.14362
 C1134 C 0.27613 0.86167 0.12690
 C1135 C 0.29433 0.84310 0.12899
 C1136 C 0.29310 0.82529 0.14728
 C1137 C 0.27386 0.82538 0.16415
 C1138 C 0.25549 0.84333 0.16218
 H1139 H 0.22033 0.93137 0.09264
 H1140 H 0.29543 0.93730 0.04336
 H1141 H 0.22305 0.96207 0.06155
 H1142 H 0.31370 0.90315 0.06427
 H1143 H 0.31316 0.87183 0.09439
 H1144 H 0.22214 0.90858 0.12342
 H1145 H 0.22221 0.87801 0.15447
 H1146 H 0.30958 0.84152 0.11658
 H1147 H 0.30745 0.81149 0.14841
 H1148 H 0.24030 0.84318 0.17492
 C1149 C 0.72313 0.42419 0.57188
 C1150 C 0.74432 0.41661 0.58492
 C1151 C 0.76580 0.42880 0.57965
 C1152 C 0.76597 0.44726 0.56170
 C1153 C 0.74487 0.45438 0.54887
 C1154 C 0.72348 0.44273 0.55426
 C1155 C 0.78706 0.42259 0.59232
 C1156 C 0.78758 0.40466 0.61037
 C1157 C 0.76678 0.39188 0.61638
 C1158 C 0.74492 0.39757 0.60304
 C1159 C 0.72451 0.38381 0.60803
 C1160 C 0.72527 0.36536 0.62554
 C1161 C 0.74621 0.35999 0.63912
 C1162 C 0.76721 0.37331 0.63500
 C1163 C 0.78772 0.36750 0.64985
 C1164 C 0.78748 0.34893 0.66741
 C1165 C 0.76689 0.33542 0.67094
 C1166 C 0.74624 0.34123 0.65677
 H1167 H 0.70588 0.41641 0.57502
 H1168 H 0.78262 0.45628 0.55790
 H1169 H 0.70685 0.44792 0.54476
 H1170 H 0.80355 0.43179 0.58830
 H1171 H 0.80485 0.40100 0.61901
 H1172 H 0.70763 0.38655 0.59837
 H1173 H 0.70918 0.35520 0.62855
 H1174 H 0.80421 0.37711 0.64867
 H1175 H 0.80351 0.34533 0.67851
 H1176 H 0.73020 0.33085 0.65917
 C1177 C 0.69641 0.09533 0.06669
 C1178 C 0.71711 0.10057 0.08078
 C1179 C 0.73793 0.08509 0.07798
 C1180 C 0.73814 0.06593 0.06088
 C1181 C 0.71754 0.06125 0.04689
 C1182 C 0.69668 0.07599 0.05015
 C1183 C 0.75839 0.08871 0.09234
 C1184 C 0.75855 0.10702 0.10992
 C1185 C 0.73832 0.12296 0.11341
 C1186 C 0.71767 0.12031 0.09783
 C1187 C 0.69845 0.13772 0.09951
 C1188 C 0.69891 0.15653 0.11643
 C1189 C 0.71823 0.15855 0.13272
 C1190 C 0.73813 0.14168 0.13172
 C1191 C 0.75677 0.14403 0.14947
 C1192 C 0.75566 0.16247 0.16713
 C1193 C 0.73618 0.17928 0.16759
 C1194 C 0.71759 0.17729 0.15024
 H1195 H 0.67951 0.10545 0.06837
 H1196 H 0.75427 0.05440 0.05876
 H1197 H 0.68044 0.07268 0.03972
 H1198 H 0.77442 0.07704 0.09020
 H1199 H 0.77512 0.10858 0.12012
 H1200 H 0.68291 0.13767 0.08752
 H1201 H 0.68376 0.16950 0.11697
 H1202 H 0.77216 0.13161 0.15063
 H1203 H 0.77020 0.16366 0.18048
 H1204 H 0.70225 0.19003 0.15083
 C1205 C 0.22296 0.58985 0.56760
 C1206 C 0.24208 0.59398 0.58433
 C1207 C 0.26316 0.57871 0.58249
 C1208 C 0.26505 0.56064 0.56419
 C1209 C 0.24589 0.55683 0.54786
 C1210 C 0.22488 0.57157 0.54982
 C1211 C 0.28216 0.58134 0.59909
 C1212 C 0.28061 0.59842 0.61793
 C1213 C 0.26002 0.61402 0.62069
 C1214 C 0.24083 0.61236 0.60304
 C1215 C 0.22117 0.62930 0.60451
 C1216 C 0.21992 0.64682 0.62290
 C1217 C 0.23791 0.64800 0.64089
 C1218 C 0.25810 0.63147 0.64030
 C1219 C 0.27534 0.63295 0.65962
 C1220 C 0.27276 0.65035 0.67828
 C1221 C 0.25307 0.66694 0.67835
 C1222 C 0.23571 0.66565 0.65956
 H1223 H 0.20602 0.60003 0.56807
 H1224 H 0.28129 0.54914 0.56307
 H1225 H 0.20973 0.56895 0.53754
 H1226 H 0.29838 0.56983 0.59770
 H1227 H 0.29618 0.59923 0.62981
 H1228 H 0.20656 0.62986 0.59133
 H1229 H 0.20453 0.65950 0.62317
 H1230 H 0.29084 0.62072 0.66114
 H1231 H 0.28645 0.65102 0.69260
 H1232 H 0.22020 0.67820 0.65973
 C1233 C 0.91925 0.71049 0.07084
 C1234 C 0.91406 0.73095 0.08590
 C1235 C 0.92859 0.75126 0.08271
 C1236 C 0.94679 0.75122 0.06443
 C1237 C 0.95142 0.73086 0.04954
 C1238 C 0.93761 0.71051 0.05309
 C1239 C 0.92501 0.77145 0.09788
 C1240 C 0.90760 0.77186 0.11652
 C1241 C 0.89256 0.75218 0.12039
 C1242 C 0.89526 0.73178 0.10420
 C1243 C 0.87881 0.71307 0.10654
 C1244 C 0.86078 0.71385 0.12447
 C1245 C 0.85861 0.73303 0.14111
 C1246 C 0.87462 0.75236 0.13961
 C1247 C 0.87212 0.77086 0.15769
 C1248 C 0.85419 0.77032 0.17597
 C1249 C 0.83810 0.75149 0.17681
 C1250 C 0.84045 0.73290 0.15932
 H1251 H 0.90983 0.69394 0.07259
 H1252 H 0.95762 0.76695 0.06208
 H1253 H 0.94091 0.69444 0.04197
 H1254 H 0.93598 0.78707 0.09549
 H1255 H 0.90600 0.78821 0.12726
 H1256 H 0.87896 0.69769 0.09435
 H1257 H 0.84848 0.69913 0.12543
 H1258 H 0.88393 0.78582 0.15851
 H1259 H 0.85272 0.78486 0.18937
 H1260 H 0.82831 0.71802 0.16019
 C1261 C 0.43579 0.20837 0.59321
 C1262 C 0.41981 0.22842 0.59786
 C1263 C 0.42055 0.24831 0.58128
 C1264 C 0.43737 0.24838 0.56169
 C1265 C 0.45325 0.22849 0.55760
 C1266 C 0.45210 0.20845 0.57338
 C1267 C 0.40443 0.26803 0.58424
 C1268 C 0.38722 0.26837 0.60304
 C1269 C 0.38578 0.24912 0.62016
 C1270 C 0.40296 0.22926 0.61811
 C1271 C 0.40305 0.21118 0.63665
 C1272 C 0.38660 0.21210 0.65617
 C1273 C 0.36902 0.23070 0.65776
 C1274 C 0.36803 0.24929 0.63957
 C1275 C 0.34905 0.26707 0.64143
 C1276 C 0.33226 0.26661 0.66080
 C1277 C 0.33384 0.24862 0.67906
 C1278 C 0.35230 0.23072 0.67746
 H1279 H 0.43586 0.19211 0.60421
 H1280 H 0.43784 0.26384 0.54933
 H1281 H 0.46403 0.19275 0.57052
 H1282 H 0.40497 0.28334 0.57169
 H1283 H 0.37564 0.28439 0.60404
 H1284 H 0.41609 0.19627 0.63700
 H1285 H 0.38753 0.19791 0.67008
 H1286 H 0.34633 0.28133 0.62797
 H1287 H 0.31806 0.28058 0.66166
 H1288 H 0.35334 0.21651 0.69135
 C1289 C 0.06341 0.28559 0.09224
 C1290 C 0.07632 0.26461 0.10065
 C1291 C 0.07307 0.24280 0.08752
 C1292 C 0.05699 0.24213 0.06734
 C1293 C 0.04432 0.26310 0.05939
 C1294 C 0.04779 0.28477 0.07200
 C1295 C 0.08603 0.22182 0.09445
 C1296 C 0.10262 0.22201 0.11378
 C1297 C 0.10663 0.24325 0.12739
 C1298 C 0.09261 0.26467 0.12129
 C1299 C 0.09515 0.28539 0.13616
 C1300 C 0.11146 0.28555 0.15567
 C1301 C 0.12614 0.26527 0.16104
 C1302 C 0.12406 0.24380 0.14703
 C1303 C 0.13988 0.22396 0.15304
 C1304 C 0.15685 0.22551 0.17210
 C1305 C 0.15868 0.24676 0.18591
 C1306 C 0.14306 0.26650 0.18035
 H1307 H 0.06529 0.30309 0.10048
 H1308 H 0.05464 0.22530 0.05755
 H1309 H 0.03835 0.30131 0.06623
 H1310 H 0.08355 0.20505 0.08460
 H1311 H 0.11179 0.20499 0.11786
 H1312 H 0.08447 0.30182 0.13350
 H1313 H 0.11278 0.30192 0.16651
 H1314 H 0.14008 0.20716 0.14302
 H1315 H 0.16901 0.21012 0.17563
 H1316 H 0.14409 0.28296 0.19108
 C1317 C 0.58278 0.71061 0.57680
 C1318 C 0.58754 0.73201 0.59001
 C1319 C 0.57425 0.75338 0.58317
 C1320 C 0.55744 0.75322 0.56365
 C1321 C 0.55300 0.73188 0.55080
 C1322 C 0.56578 0.71062 0.55763
 C1323 C 0.57764 0.77483 0.59592
 C1324 C 0.59370 0.77564 0.61563
 C1325 C 0.60740 0.75494 0.62329
 C1326 C 0.60475 0.73291 0.60985
 C1327 C 0.61959 0.71264 0.61648
 C1328 C 0.63619 0.71367 0.63573
 C1329 C 0.63848 0.73475 0.64947
 C1330 C 0.62396 0.75563 0.64370
 C1331 C 0.62660 0.77630 0.65878
 C1332 C 0.64336 0.77632 0.67813
 C1333 C 0.65809 0.75583 0.68329
 C1334 C 0.65539 0.73503 0.66892
 H1335 H 0.59155 0.69343 0.58102
 H1336 H 0.54747 0.76976 0.55874
 H1337 H 0.56264 0.69383 0.54813
 H1338 H 0.56761 0.79124 0.59069
 H1339 H 0.59523 0.79302 0.62423
 H1340 H 0.61919 0.69567 0.60684
 H1341 H 0.64731 0.69768 0.63998
 H1342 H 0.61580 0.79270 0.65639
 H1343 H 0.64462 0.79246 0.68928
 H1344 H 0.66680 0.71910 0.67257
   
