data_POSCAR
  _audit_creation_date              2014-09-24
  _audit_creation_method            'ToBaCCo'
  _symmetry_space_group_name_H-M    'P1'
  _symmetry_Int_Tables_number       1
  _symmetry_cell_setting            triclinic
  loop_
  _symmetry_equiv_pos_as_xyz
 x,y,z
_cell_length_a 51.2756
_cell_length_b 51.2799
_cell_length_c 51.2322
_cell_angle_alpha 90.001200
_cell_angle_beta 90.007200
_cell_angle_gamma 89.969400
loop_
  _atom_site_label
  _atom_site_type_symbol
  _atom_site_fract_x
  _atom_site_fract_y
  _atom_site_fract_z
C1 C 0.36922 1.35105 0.33104
 C2 C 0.36933 1.33182 0.35048
 C3 C 0.35023 1.33178 0.36955
 C4 C 0.33075 1.35099 0.36943
 C5 C 0.33063 1.36998 0.35025
 C6 C 0.35001 1.37002 0.33090
 C7 C 0.38471 1.35517 0.30950
 N8 N 0.37535 1.37615 0.29625
 C9 C 0.35414 1.38538 0.30925
 C10 C 0.30896 1.38532 0.35435
 N11 N 0.29593 1.37604 0.37552
 C12 C 0.30918 1.35506 0.38488
 C13 C 0.35449 1.31031 0.38510
 N14 N 0.37568 1.29735 0.37588
 C15 C 0.38490 1.31037 0.35473
 H16 H 0.40129 1.34344 0.30367
 H17 H 0.34228 1.40178 0.30319
 H18 H 0.30291 1.40173 0.34249
 H19 H 0.30334 1.34330 0.40144
 H20 H 0.34273 1.30426 0.40157
 H21 H 0.40141 1.30438 0.34299
 C22 C 0.36956 0.85147 0.83216
 C23 C 0.36957 0.83215 0.85152
 C24 C 0.35039 0.83205 0.87051
 C25 C 0.33093 0.85129 0.87040
 C26 C 0.33093 0.87036 0.85129
 C27 C 0.35038 0.87045 0.83204
 C28 C 0.38508 0.85562 0.81065
 N29 N 0.37575 0.87664 0.79750
 C30 C 0.35455 0.88586 0.81044
 C31 C 0.30926 0.88570 0.85532
 N32 N 0.29609 0.87637 0.87638
 C33 C 0.30927 0.85533 0.88574
 C34 C 0.35457 0.81048 0.88596
 N35 N 0.37578 0.79754 0.87674
 C36 C 0.38509 0.81066 0.85570
 H37 H 0.40161 0.84391 0.80471
 H38 H 0.34272 0.90225 0.80429
 H39 H 0.30329 0.90216 0.84348
 H40 H 0.30331 0.84352 0.90222
 H41 H 0.34275 0.80435 0.90236
 H42 H 0.40163 0.80471 0.84398
 C43 C 0.86888 1.35070 0.83067
 C44 C 0.86899 1.33147 0.85013
 C45 C 0.84989 1.33143 0.86919
 C46 C 0.83041 1.35063 0.86906
 C47 C 0.83027 1.36962 0.84987
 C48 C 0.84966 1.36965 0.83053
 C49 C 0.88440 1.35485 0.80917
 N50 N 0.87506 1.37584 0.79592
 C51 C 0.85382 1.38505 0.80890
 C52 C 0.80862 1.38497 0.85401
 N53 N 0.79562 1.37572 0.87522
 C54 C 0.80887 1.35472 0.88455
 C55 C 0.85420 1.31000 0.88479
 N56 N 0.87541 1.29707 0.87560
 C57 C 0.88461 1.31006 0.85442
 H58 H 0.90102 1.34315 0.80338
 H59 H 0.84197 1.40146 0.80284
 H60 H 0.80257 1.40140 0.84218
 H61 H 0.80306 1.34299 0.90114
 H62 H 0.84247 1.30397 0.90128
 H63 H 0.90114 1.30409 0.84271
 C64 C 0.87029 0.85120 0.33107
 C65 C 0.87034 0.83191 0.35049
 C66 C 0.85131 0.83198 0.36964
 C67 C 0.83197 0.85133 0.36963
 C68 C 0.83192 0.87036 0.35048
 C69 C 0.85121 0.87029 0.33107
 C70 C 0.88568 0.85527 0.30944
 N71 N 0.87635 0.87634 0.29629
 C72 C 0.85529 0.88567 0.30944
 C73 C 0.81034 0.88579 0.35463
 N74 N 0.79734 0.87655 0.37579
 C75 C 0.81044 0.85549 0.38511
 C76 C 0.85545 0.81045 0.38513
 N77 N 0.87651 0.79735 0.37582
 C78 C 0.88576 0.81033 0.35466
 H79 H 0.90215 0.84346 0.30348
 H80 H 0.84347 0.90214 0.30348
 H81 H 0.80425 0.90220 0.34281
 H82 H 0.80444 0.84375 0.40161
 H83 H 0.84371 0.80448 0.40164
 H84 H 0.90218 0.80423 0.34286
 C85 C 0.62951 0.64833 0.33139
 C86 C 0.62946 0.66761 0.35081
 C87 C 0.64850 0.66757 0.36994
 C88 C 0.66785 0.64824 0.36993
 C89 C 0.66791 0.62920 0.35078
 C90 C 0.64861 0.62925 0.33138
 C91 C 0.61413 0.64427 0.30976
 N92 N 0.62346 0.62322 0.29659
 C93 C 0.64454 0.61389 0.30973
 C94 C 0.68951 0.61380 0.35491
 N95 N 0.70253 0.62307 0.37605
 C96 C 0.68942 0.64411 0.38538
 C97 C 0.64437 0.68912 0.38540
 N98 N 0.62331 0.70221 0.37609
 C99 C 0.61404 0.68920 0.35494
 H100 H 0.59766 0.65609 0.30380
 H101 H 0.65637 0.59743 0.30375
 H102 H 0.69561 0.59740 0.34308
 H103 H 0.69542 0.65586 0.40188
 H104 H 0.65613 0.69513 0.40189
 H105 H 0.59762 0.69529 0.34313
 C106 C 0.63105 0.14924 0.83054
 C107 C 0.63091 0.16844 0.85004
 C108 C 0.64999 0.16843 0.86913
 C109 C 0.66948 0.14924 0.86899
 C110 C 0.66964 0.13029 0.84976
 C111 C 0.65027 0.13029 0.83039
 C112 C 0.61555 0.14512 0.80901
 N113 N 0.62491 0.12414 0.79575
 C114 C 0.64614 0.11493 0.80873
 C115 C 0.69129 0.11494 0.85390
 N116 N 0.70428 0.12417 0.87513
 C117 C 0.69101 0.14514 0.88449
 C118 C 0.64568 0.18983 0.88476
 N119 N 0.62447 0.20279 0.87559
 C120 C 0.61529 0.18984 0.85437
 H121 H 0.59894 0.15682 0.80322
 H122 H 0.65800 0.09852 0.80267
 H123 H 0.69737 0.09854 0.84204
 H124 H 0.69679 0.15685 0.90111
 H125 H 0.65740 0.19582 0.90129
 H126 H 0.59877 0.19584 0.84265
 C127 C 1.13024 0.64835 0.83244
 C128 C 1.13023 0.66769 0.85177
 C129 C 1.14941 0.66782 0.87077
 C130 C 1.16887 0.64859 0.87068
 C131 C 1.16888 0.62949 0.85159
 C132 C 1.14943 0.62937 0.83234
 C133 C 1.11474 0.64417 0.81091
 N134 N 1.12409 0.62316 0.79778
 C135 C 1.14529 0.61395 0.81074
 C136 C 1.19057 0.61418 0.85561
 N137 N 1.20374 0.62355 0.87665
 C138 C 1.19056 0.64458 0.88601
 C139 C 1.14523 0.68942 0.88617
 N140 N 1.12402 0.70234 0.87694
 C141 C 1.11471 0.68919 0.85591
 H142 H 1.09821 0.65589 0.80495
 H143 H 1.15713 0.59758 0.80461
 H144 H 1.19654 0.59772 0.84378
 H145 H 1.19653 0.65642 0.90247
 H146 H 1.15706 0.69558 0.90256
 H147 H 1.09817 0.69513 0.84418
 C148 C 1.13072 0.14882 0.33099
 C149 C 1.13062 0.16802 0.35047
 C150 C 1.14972 0.16802 0.36954
 C151 C 1.16919 0.14881 0.36939
 C152 C 1.16930 0.12985 0.35018
 C153 C 1.14993 0.12985 0.33083
 C154 C 1.11525 0.14474 0.30943
 N155 N 1.12461 0.12378 0.29615
 C156 C 1.14581 0.11452 0.30915
 C157 C 1.19097 0.11451 0.35425
 N158 N 1.20401 0.12375 0.37543
 C159 C 1.19077 0.14471 0.38484
 C160 C 1.14545 0.18947 0.38512
 N161 N 1.12427 0.20244 0.37593
 C162 C 1.11505 0.18947 0.35475
 H163 H 1.09867 0.15648 0.30361
 H164 H 1.15768 0.09813 0.30307
 H165 H 1.19702 0.09812 0.34236
 H166 H 1.19662 0.15644 0.40141
 H167 H 1.15721 0.19549 0.40161
 H168 H 1.09854 0.19548 0.34301
 C169 C 0.62957 1.35129 0.66891
 C170 C 0.62946 1.33207 0.64942
 C171 C 0.64846 1.33217 0.63025
 C172 C 0.66781 1.35148 0.63028
 C173 C 0.66792 1.37045 0.64950
 C174 C 0.64866 1.37035 0.66894
 C175 C 0.61422 1.35530 0.69058
 N176 N 0.62357 1.37631 0.70379
 C177 C 0.64462 1.38566 0.69064
 C178 C 0.68951 1.38584 0.64535
 N179 N 0.70245 1.37664 0.62413
 C180 C 0.68931 1.35564 0.61478
 C181 C 0.64429 1.31070 0.61470
 N182 N 0.62325 1.29759 0.62400
 C183 C 0.61403 1.31052 0.64522
 H184 H 0.59775 1.34349 0.69652
 H185 H 0.65645 1.40209 0.69665
 H186 H 0.69564 1.40221 0.65720
 H187 H 0.69526 1.34394 0.59822
 H188 H 0.65601 1.30475 0.59816
 H189 H 0.59764 1.30440 0.65704
 C190 C 0.62933 0.85151 1.16851
 C191 C 0.62931 0.83220 1.14912
 C192 C 0.64835 0.83224 1.12998
 C193 C 0.66767 0.85158 1.12997
 C194 C 0.66769 0.87064 1.14910
 C195 C 0.64839 0.87060 1.16850
 C196 C 0.61395 0.85558 1.19014
 N197 N 0.62326 0.87666 1.20329
 C198 C 0.64431 0.88599 1.19013
 C199 C 0.68926 0.88606 1.14496
 N200 N 0.70229 0.87678 1.12383
 C201 C 0.68923 0.85572 1.11452
 C202 C 0.64423 0.81066 1.11454
 N203 N 0.62319 0.79757 1.12387
 C204 C 0.61392 0.81060 1.14500
 H205 H 0.59751 0.84376 1.19612
 H206 H 0.65612 0.90245 1.19608
 H207 H 0.69532 0.90248 1.15677
 H208 H 0.69526 0.84396 1.09804
 H209 H 0.65599 0.80464 1.09806
 H210 H 0.59751 0.80453 1.15682
 C211 C 1.12973 1.35214 1.16721
 C212 C 1.12976 1.33280 1.14788
 C213 C 1.14898 1.33263 1.12893
 C214 C 1.16845 1.35185 1.12906
 C215 C 1.16842 1.37094 1.14815
 C216 C 1.14892 1.37109 1.16735
 C217 C 1.11422 1.35629 1.18872
 N218 N 1.12356 1.37727 1.20190
 C219 C 1.14476 1.38648 1.18897
 C220 C 1.19013 1.38621 1.14420
 N221 N 1.20336 1.37682 1.12321
 C222 C 1.19019 1.35581 1.11381
 C223 C 1.14484 1.31100 1.11356
 N224 N 1.12363 1.29810 1.12278
 C225 C 1.11426 1.31130 1.14375
 H226 H 1.09770 1.34456 1.19467
 H227 H 1.15662 1.40281 1.19516
 H228 H 1.19608 1.40265 1.15606
 H229 H 1.19621 1.34395 1.09738
 H230 H 1.15672 1.30480 1.09722
 H231 H 1.09773 1.30539 1.15548
 C232 C 1.12864 0.85236 0.66690
 C233 C 1.12866 0.83300 0.64757
 C234 C 1.14774 0.83298 0.62847
 C235 C 1.16707 0.85231 0.62845
 C236 C 1.16706 0.87142 0.64753
 C237 C 1.14772 0.87144 0.66688
 C238 C 1.11330 0.85643 0.68855
 N239 N 1.12263 0.87747 0.70164
 C240 C 1.14366 0.88680 0.68853
 C241 C 1.18870 0.88675 0.64347
 N242 N 1.20180 0.87739 0.62243
 C243 C 1.18872 0.85634 0.61310
 C244 C 1.14370 0.81131 0.61315
 N245 N 1.12267 0.79823 0.62252
 C246 C 1.11333 0.81135 0.64355
 H247 H 1.09691 0.84460 0.69466
 H248 H 1.15548 0.90321 0.69461
 H249 H 1.19477 0.90317 0.65529
 H250 H 1.19482 0.84450 0.59670
 H251 H 1.15553 0.80519 0.59675
 H252 H 1.09693 0.80529 0.65540
 C253 C 0.37006 0.64824 0.66744
 C254 C 0.37002 0.66758 0.64810
 C255 C 0.35083 0.66768 0.62911
 C256 C 0.33140 0.64843 0.62922
 C257 C 0.33144 0.62935 0.64831
 C258 C 0.35090 0.62925 0.66756
 C259 C 0.38557 0.64409 0.68897
 N260 N 0.37626 0.62308 0.70211
 C261 C 0.35508 0.61385 0.68916
 C262 C 0.30978 0.61402 0.64432
 N263 N 0.29657 0.62337 0.62329
 C264 C 0.30971 0.64441 0.61391
 C265 C 0.35496 0.68928 0.61370
 N266 N 0.37614 0.70223 0.62293
 C267 C 0.38550 0.68909 0.64395
 H268 H 0.40207 0.65583 0.69493
 H269 H 0.34326 0.59747 0.69531
 H270 H 0.30384 0.59757 0.65616
 H271 H 0.30371 0.65624 0.59746
 H272 H 0.34311 0.69543 0.59732
 H273 H 0.40202 0.69505 0.65568
 C274 C 0.37041 0.14781 1.16685
 C275 C 0.37035 0.16719 1.14756
 C276 C 0.35111 0.16739 1.12863
 C277 C 0.33164 0.14818 1.12874
 C278 C 0.33170 0.12904 1.14779
 C279 C 0.35122 0.12886 1.16697
 C280 C 0.38593 0.14364 1.18835
 N281 N 0.37660 0.12264 1.20150
 C282 C 0.35539 0.11344 1.18857
 C283 C 0.30998 0.11379 1.14385
 N284 N 0.29670 0.12323 1.12290
 C285 C 0.30987 0.14425 1.11352
 C286 C 0.35522 0.18906 1.11331
 N287 N 0.37644 0.20195 1.12254
 C288 C 0.38583 0.18870 1.14347
 H289 H 0.40245 0.15536 1.19431
 H290 H 0.34353 0.09711 1.19475
 H291 H 0.30404 0.09733 1.15569
 H292 H 0.30382 0.15615 1.09713
 H293 H 0.34332 0.19531 1.09700
 H294 H 0.40238 0.19460 1.15520
 C295 C 0.87146 0.64765 1.16688
 C296 C 0.87135 0.66708 1.14762
 C297 C 0.85218 0.66717 1.12860
 C298 C 0.83286 0.64781 1.12860
 C299 C 0.83298 0.62864 1.14761
 C300 C 0.85240 0.62856 1.16687
 C301 C 0.88688 0.64352 1.18847
 N302 N 0.87761 0.62243 1.20152
 C303 C 0.85654 0.61313 1.18845
 C304 C 0.81135 0.61329 1.14360
 N305 N 0.79813 0.62270 1.12264
 C306 C 0.81114 0.64379 1.11332
 C307 C 0.85618 0.68889 1.11333
 N308 N 0.87726 0.70192 1.12266
 C309 C 0.88668 0.68873 1.14362
 H310 H 0.90329 0.65534 1.19456
 H311 H 0.84474 0.59671 1.19452
 H312 H 0.80536 0.59682 1.15539
 H313 H 0.80495 0.65567 1.09698
 H314 H 0.84429 0.69505 1.09698
 H315 H 0.90314 0.69474 1.15541
 C316 C 0.87036 0.14866 0.66870
 C317 C 0.87044 0.16793 0.64928
 C318 C 0.85142 0.16790 0.63013
 C319 C 0.83206 0.14859 0.63012
 C320 C 0.83198 0.12957 0.64928
 C321 C 0.85126 0.12961 0.66871
 C322 C 0.88572 0.14458 0.69035
 N323 N 0.87638 0.12355 0.70352
 C324 C 0.85531 0.11424 0.69036
 C325 C 0.81038 0.11418 0.64512
 N326 N 0.79741 0.12344 0.62394
 C327 C 0.81053 0.14447 0.61463
 C328 C 0.85559 0.18943 0.61465
 N329 N 0.87665 0.20249 0.62398
 C330 C 0.88588 0.18949 0.64514
 H331 H 0.90220 0.15638 0.69631
 H332 H 0.84348 0.09780 0.69634
 H333 H 0.80427 0.09778 0.65693
 H334 H 0.80456 0.15622 0.59811
 H335 H 0.84386 0.19544 0.59813
 H336 H 0.90229 0.19556 0.65697
 C337 C 1.35196 0.36985 0.66760
 C338 C 1.33268 0.36990 0.64820
 C339 C 1.33255 0.35071 0.62922
 C340 C 1.35174 0.33120 0.62938
 C341 C 1.37078 0.33114 0.64853
 C342 C 1.37089 0.35061 0.66777
 C343 C 1.35608 0.38535 0.68912
 N344 N 1.37703 0.37598 0.70233
 C345 C 1.38625 0.35475 0.68943
 C346 C 1.38604 0.30940 0.64454
 N347 N 1.37667 0.29626 0.62348
 C348 C 1.35571 0.30951 0.61407
 C349 C 1.31099 0.35491 0.61377
 N350 N 1.29808 0.37613 0.62297
 C351 C 1.31121 0.38544 0.64401
 H352 H 1.34438 0.40192 0.69502
 H353 H 1.40257 0.34287 0.69564
 H354 H 1.40244 0.30338 0.65641
 H355 H 1.34389 0.30358 0.59758
 H356 H 1.30484 0.34307 0.59739
 H357 H 1.30526 0.40198 0.65573
 C358 C 1.35124 0.86940 1.16881
 C359 C 1.33201 0.86949 1.14937
 C360 C 1.33194 0.85035 1.13034
 C361 C 1.35113 0.83085 1.13050
 C362 C 1.37013 0.83076 1.14968
 C363 C 1.37019 0.85018 1.16898
 C364 C 1.35536 0.88492 1.19033
 N365 N 1.37633 0.87556 1.20360
 C366 C 1.38555 0.85433 1.19063
 C367 C 1.38545 0.80907 1.14565
 N368 N 1.37617 0.79599 1.12451
 C369 C 1.35519 0.80923 1.11511
 C370 C 1.31045 0.85461 1.11480
 N371 N 1.29753 0.87583 1.12398
 C372 C 1.31057 0.88508 1.14510
 H373 H 1.34364 0.90152 1.19612
 H374 H 1.40193 0.84245 1.19673
 H375 H 1.40186 0.80304 1.15752
 H376 H 1.34343 0.80335 1.09856
 H377 H 1.30437 0.84283 1.09835
 H378 H 1.30461 0.90161 1.15682
 C379 C 0.85103 0.36902 1.16919
 C380 C 0.83176 0.36911 1.14978
 C381 C 0.83172 0.35002 1.13069
 C382 C 0.85096 0.33057 1.13077
 C383 C 0.86999 0.33048 1.14992
 C384 C 0.87002 0.34984 1.16927
 C385 C 0.85519 0.38450 1.19073
 N386 N 0.87622 0.37515 1.20393
 C387 C 0.88544 0.35397 1.19089
 C388 C 0.88536 0.30885 1.14579
 N389 N 0.87608 0.29580 1.12463
 C390 C 0.85505 0.30901 1.11530
 C391 C 0.81022 0.35428 1.11517
 N392 N 0.79726 0.37546 1.12441
 C393 C 0.81029 0.38468 1.14555
 H394 H 0.84346 0.40107 1.19659
 H395 H 0.90187 0.34212 1.19690
 H396 H 0.90181 0.30283 1.15762
 H397 H 0.84329 0.30315 1.09875
 H398 H 0.80417 0.34254 1.09868
 H399 H 0.80431 0.40118 1.15730
 C400 C 0.85184 0.87090 0.66737
 C401 C 0.83250 0.87088 0.64801
 C402 C 0.83249 0.85178 0.62894
 C403 C 0.85183 0.83243 0.62896
 C404 C 0.87092 0.83245 0.64805
 C405 C 0.87093 0.85181 0.66738
 C406 C 0.85593 0.88629 0.68899
 N407 N 0.87699 0.87697 0.70209
 C408 C 0.88631 0.85590 0.68902
 C409 C 0.88630 0.81082 0.64400
 N410 N 0.87697 0.79771 0.62295
 C411 C 0.85591 0.81079 0.61360
 C412 C 0.81087 0.85585 0.61355
 N413 N 0.79779 0.87692 0.62286
 C414 C 0.81088 0.88626 0.64392
 H415 H 0.84412 0.90272 0.69505
 H416 H 0.90273 0.84409 0.69510
 H417 H 0.90272 0.80476 0.65582
 H418 H 0.84410 0.80470 0.59717
 H419 H 0.80479 0.84403 0.59713
 H420 H 0.80482 0.90270 0.65572
 C421 C 0.64807 0.62895 0.66742
 C422 C 0.66741 0.62895 0.64807
 C423 C 0.66741 0.64803 0.62897
 C424 C 0.64807 0.66737 0.62897
 C425 C 0.62899 0.66738 0.64806
 C426 C 0.62899 0.64804 0.66741
 C427 C 0.64399 0.61358 0.68905
 N428 N 0.62293 0.62291 0.70214
 C429 C 0.61361 0.64397 0.68905
 C430 C 0.61362 0.68901 0.64397
 N431 N 0.62294 0.70209 0.62290
 C432 C 0.64400 0.68900 0.61358
 C433 C 0.68904 0.64395 0.61359
 N434 N 0.70212 0.62289 0.62293
 C435 C 0.68904 0.61357 0.64399
 H436 H 0.65580 0.59716 0.69513
 H437 H 0.59719 0.65578 0.69512
 H438 H 0.59719 0.69509 0.65578
 H439 H 0.65581 0.69506 0.59715
 H440 H 0.69511 0.65576 0.59716
 H441 H 0.69511 0.59715 0.65581
 C442 C 0.64898 1.13086 1.16909
 C443 C 0.66826 1.13080 1.14968
 C444 C 0.66830 1.14991 1.13062
 C445 C 0.64905 1.16935 1.13071
 C446 C 0.63001 1.16941 1.14985
 C447 C 0.62998 1.15003 1.16918
 C448 C 0.64483 1.11536 1.19061
 N449 N 0.62379 1.12468 1.20380
 C450 C 0.61456 1.14587 1.19078
 C451 C 0.61462 1.19103 1.14574
 N452 N 0.62390 1.20411 1.12460
 C453 C 0.64494 1.19093 1.11527
 C454 C 0.68981 1.14568 1.11511
 N455 N 0.70278 1.12450 1.12433
 C456 C 0.68974 1.11525 1.14546
 H457 H 0.65656 1.09879 1.19647
 H458 H 0.59812 1.15771 1.19679
 H459 H 0.59818 1.19703 1.15757
 H460 H 0.65671 1.19682 1.09873
 H461 H 0.69586 1.15744 1.09864
 H462 H 0.69572 1.09874 1.15719
 C463 C 0.14913 0.63096 1.16931
 C464 C 0.16835 0.63084 1.14985
 C465 C 0.16839 0.64997 1.13080
 C466 C 0.14921 0.66947 1.13096
 C467 C 0.13023 0.66959 1.15017
 C468 C 0.13019 0.65018 1.16949
 C469 C 0.14502 0.61543 1.19082
 N470 N 0.12405 0.62478 1.20410
 C471 C 0.11483 0.64603 1.19115
 C472 C 0.11489 0.69126 1.14608
 N473 N 0.12415 0.70430 1.12490
 C474 C 0.14513 0.69105 1.11552
 C475 C 0.18984 0.64567 1.11522
 N476 N 0.20276 0.62444 1.12440
 C477 C 0.18975 0.61523 1.14556
 H478 H 0.15673 0.59882 1.19660
 H479 H 0.09845 0.65789 1.19724
 H480 H 0.09849 0.69731 1.15794
 H481 H 0.15686 0.69688 1.09894
 H482 H 0.19589 0.65742 1.09875
 H483 H 0.19572 0.59869 1.15727
 C484 C 0.14923 1.13112 0.66946
 C485 C 0.16843 1.13100 0.64998
 C486 C 0.16843 1.15009 0.63090
 C487 C 0.14922 1.16956 0.63104
 C488 C 0.13026 1.16969 0.65025
 C489 C 0.13026 1.15033 0.66961
 C490 C 0.14511 1.11562 0.69100
 N491 N 0.12412 1.12497 0.70425
 C492 C 0.11489 1.14618 0.69126
 C493 C 0.11488 1.19134 0.64614
 N494 N 0.12411 1.20434 0.62492
 C495 C 0.14509 1.19110 0.61555
 C496 C 0.18984 1.14580 0.61528
 N497 N 0.20281 1.12460 0.62446
 C498 C 0.18985 1.11540 0.64566
 H499 H 0.15683 1.09902 0.69680
 H500 H 0.09848 1.15803 0.69732
 H501 H 0.09848 1.19739 0.65800
 H502 H 0.15681 1.19692 0.59895
 H503 H 0.19583 1.15752 0.59876
 H504 H 0.19586 1.09888 0.65738
 C505 C 1.35119 0.63056 0.33112
 C506 C 1.33195 0.63050 0.35056
 C507 C 1.33188 0.64966 0.36958
 C508 C 1.35108 0.66913 0.36942
 C509 C 1.37008 0.66919 0.35024
 C510 C 1.37013 0.64976 0.33095
 C511 C 1.35532 0.61502 0.30962
 N512 N 1.37629 0.62435 0.29635
 C513 C 1.38551 0.64559 0.30931
 C514 C 1.38540 0.69086 0.35427
 N515 N 1.37612 0.70396 0.37541
 C516 C 1.35514 0.69075 0.38481
 C517 C 1.31040 0.64541 0.38512
 N518 N 1.29748 0.62419 0.37595
 C519 C 1.31052 0.61493 0.35483
 H520 H 1.34360 0.59843 0.30383
 H521 H 1.40189 0.65744 0.30322
 H522 H 1.40181 0.69686 0.34240
 H523 H 1.34338 0.69665 0.40135
 H524 H 1.30433 0.65720 0.40157
 H525 H 1.30457 0.59839 0.34313
 C526 C 1.35172 1.13010 0.83249
 C527 C 1.33240 1.13010 0.85184
 C528 C 1.33225 1.14931 0.87080
 C529 C 1.35145 1.16879 0.87066
 C530 C 1.37053 1.16879 0.85156
 C531 C 1.37066 1.14931 0.83233
 C532 C 1.35587 1.11457 0.81099
 N533 N 1.37685 1.12389 0.79781
 C534 C 1.38606 1.14512 0.81072
 C535 C 1.38581 1.19049 0.85556
 N536 N 1.37643 1.20368 0.87659
 C537 C 1.35542 1.19049 0.88597
 C538 C 1.31066 1.14513 0.88622
 N539 N 1.29777 1.12391 0.87701
 C540 C 1.31093 1.11457 0.85600
 H541 H 1.34417 1.09802 0.80508
 H542 H 1.40240 1.15696 0.80453
 H543 H 1.40225 1.19646 0.84371
 H544 H 1.34359 1.19646 0.90243
 H545 H 1.30448 1.15698 0.90258
 H546 H 1.30502 1.09803 0.84429
 C547 C 0.85200 0.62889 0.83296
 C548 C 0.83261 0.62893 0.85226
 C549 C 0.83254 0.64805 0.87132
 C550 C 0.85188 0.66739 0.87133
 C551 C 0.87101 0.66734 0.85229
 C552 C 0.87107 0.64796 0.83298
 C553 C 0.85613 0.61349 0.81135
 N554 N 0.87721 0.62279 0.79830
 C555 C 0.88649 0.64386 0.81138
 C556 C 0.88637 0.68896 0.85634
 N557 N 0.87700 0.70210 0.87735
 C558 C 0.85592 0.68906 0.88667
 C559 C 0.81087 0.64400 0.88664
 N560 N 0.79784 0.62292 0.87731
 C561 C 0.81099 0.61357 0.85630
 H562 H 0.84434 0.59707 0.80526
 H563 H 0.90292 0.65566 0.80532
 H564 H 0.90282 0.69498 0.84455
 H565 H 0.84407 0.69518 0.90306
 H566 H 0.80475 0.65583 0.90304
 H567 H 0.80497 0.59712 0.84450
 C568 C 0.85257 1.12836 0.33345
 C569 C 0.83314 1.12843 0.35271
 C570 C 0.83307 1.14755 0.37178
 C571 C 0.85244 1.16685 0.37183
 C572 C 0.87161 1.16676 0.35282
 C573 C 0.87167 1.14740 0.33351
 C574 C 0.85666 1.11300 0.31180
 N575 N 0.87775 1.12231 0.29877
 C576 C 0.88708 1.14332 0.31190
 C577 C 0.88696 1.18839 0.35687
 N578 N 0.87755 1.20157 0.37783
 C579 C 0.85645 1.18854 0.38714
 C580 C 0.81133 1.14357 0.38701
 N581 N 0.79825 1.12254 0.37762
 C582 C 0.81145 1.11314 0.35666
 H583 H 0.84482 1.09664 0.30566
 H584 H 0.90350 1.15513 0.30586
 H585 H 0.90341 1.19441 0.34507
 H586 H 0.84456 1.19471 0.40347
 H587 H 0.80517 1.15543 0.40337
 H588 H 0.80540 1.09674 0.34481
 C589 C 0.64839 0.37067 0.33167
 C590 C 0.66768 0.37070 0.35108
 C591 C 0.66760 0.35170 0.37026
 C592 C 0.64822 0.33241 0.37029
 C593 C 0.62918 0.33239 0.35115
 C594 C 0.62926 0.35164 0.33171
 C595 C 0.64435 0.38599 0.30998
 N596 N 0.62327 0.37668 0.29685
 C597 C 0.61390 0.35568 0.31006
 C598 C 0.61374 0.31083 0.35530
 N599 N 0.62300 0.29782 0.37645
 C600 C 0.64406 0.31088 0.38577
 C601 C 0.68917 0.35578 0.38570
 N602 N 0.70232 0.37676 0.37634
 C603 C 0.68932 0.38604 0.35518
 H604 H 0.65620 0.40240 0.30397
 H605 H 0.59742 0.34388 0.30412
 H606 H 0.59734 0.30475 0.34347
 H607 H 0.65582 0.30485 0.40225
 H608 H 0.69515 0.34403 0.40221
 H609 H 0.69546 0.40240 0.34333
 C610 C 0.64781 0.87115 0.83281
 C611 C 0.66718 0.87115 0.85214
 C612 C 0.66722 0.85206 0.87123
 C613 C 0.64790 0.83272 0.87125
 C614 C 0.62879 0.83273 0.85217
 C615 C 0.62875 0.85207 0.83283
 C616 C 0.64371 0.88652 0.81117
 N617 N 0.62265 0.87718 0.79809
 C618 C 0.61336 0.85613 0.81120
 C619 C 0.61344 0.81110 0.85624
 N620 N 0.62280 0.79801 0.87729
 C621 C 0.64385 0.81108 0.88662
 C622 C 0.68887 0.85614 0.88658
 N623 N 0.70192 0.87720 0.87723
 C624 C 0.68880 0.88652 0.85619
 H625 H 0.65551 0.90293 0.80508
 H626 H 0.59695 0.84432 0.80513
 H627 H 0.59701 0.80504 0.84444
 H628 H 0.65568 0.80499 0.90303
 H629 H 0.69498 0.84433 0.90300
 H630 H 0.69483 0.90295 0.84436
 C631 C 0.14833 0.37075 0.83166
 C632 C 0.16755 0.37084 0.85113
 C633 C 0.16745 0.35183 0.87030
 C634 C 0.14814 0.33249 0.87026
 C635 C 0.12917 0.33240 0.85105
 C636 C 0.12927 0.35166 0.83161
 C637 C 0.14435 0.38609 0.80997
 N638 N 0.12336 0.37673 0.79673
 C639 C 0.11399 0.35569 0.80989
 C640 C 0.11379 0.31079 0.85515
 N641 N 0.12302 0.29781 0.87635
 C642 C 0.14401 0.31095 0.88573
 C643 C 0.18896 0.35598 0.88582
 N644 N 0.20208 0.37701 0.87650
 C645 C 0.18912 0.38625 0.85531
 H646 H 0.15619 0.40253 0.80403
 H647 H 0.09757 0.34386 0.80386
 H648 H 0.09744 0.30465 0.84328
 H649 H 0.15572 0.30498 0.90226
 H650 H 0.19494 0.34424 0.90234
 H651 H 0.19525 0.40263 0.84347
 C652 C 0.14810 0.87084 0.33167
 C653 C 0.16734 0.87093 0.35112
 C654 C 0.16730 0.85191 0.37026
 C655 C 0.14802 0.83253 0.37022
 C656 C 0.12903 0.83243 0.35103
 C657 C 0.12907 0.85172 0.33161
 C658 C 0.14409 0.88619 0.31000
 N659 N 0.12311 0.87682 0.29676
 C660 C 0.11378 0.85575 0.30989
 C661 C 0.11370 0.81077 0.35513
 N662 N 0.12298 0.79780 0.37629
 C663 C 0.14395 0.81096 0.38566
 C664 C 0.18884 0.85605 0.38574
 N665 N 0.20192 0.87710 0.37641
 C666 C 0.18891 0.88636 0.35526
 H667 H 0.15591 0.90265 0.30407
 H668 H 0.09738 0.84389 0.30386
 H669 H 0.09735 0.80462 0.34327
 H670 H 0.15570 0.80499 0.40218
 H671 H 0.19487 0.84429 0.40222
 H672 H 0.19500 0.90275 0.34342
 O673 O 0.97467 0.90596 0.87035
 O674 O 0.97462 0.87565 0.83982
 C675 C 0.96576 0.89687 0.84909
 C676 C 0.94447 0.91083 0.83538
 C677 C 0.93573 0.90234 0.81082
 H678 H 0.94523 0.88590 0.80155
 O679 O 1.02542 1.09424 0.86998
 O680 O 1.02542 1.12461 0.83951
 C681 C 1.03435 1.10341 0.84876
 C682 C 1.05577 1.08960 0.83510
 C683 C 1.06476 1.09839 0.81074
 H684 H 1.05533 1.11492 0.80156
 O685 O 0.87008 0.97489 0.90593
 O686 O 0.83960 0.97478 0.87556
 C687 C 0.84884 0.96596 0.89682
 C688 C 0.83515 0.94471 0.91082
 C689 C 0.81060 0.93597 0.90236
 H690 H 0.80130 0.94545 0.88592
 O691 O 1.12998 1.02556 0.90585
 O692 O 1.16050 1.02553 0.87553
 C693 C 1.15125 1.03441 0.89676
 C694 C 1.16494 1.05567 0.91074
 C695 C 1.18946 1.06448 0.90226
 H696 H 1.19875 1.05505 0.88580
 O697 O 0.90587 0.87041 0.97473
 O698 O 0.87556 0.83992 0.97470
 C699 C 0.89678 0.84916 0.96583
 C700 C 0.91075 0.83542 0.94458
 C701 C 0.90228 0.81088 0.93587
 H702 H 0.88583 0.80164 0.94536
 O703 O 1.09412 1.12991 0.97457
 O704 O 1.12442 1.16042 0.97450
 C705 C 1.10321 1.15116 0.96564
 C706 C 1.08923 1.16484 0.94433
 C707 C 1.09771 1.18936 0.93553
 H708 H 1.11418 1.19862 0.94498
 O709 O 0.90577 1.02565 0.87005
 O710 O 0.87547 1.02559 0.83951
 C711 C 0.89666 1.03450 0.84875
 C712 C 0.91058 1.05577 0.83501
 C713 C 0.90196 1.06462 0.81053
 H714 H 0.88546 1.05520 0.80132
 O715 O 1.09412 0.97483 0.87013
 O716 O 1.12442 0.97474 0.83959
 C717 C 1.10320 0.96591 0.84886
 C718 C 1.08922 0.94465 0.83518
 C719 C 1.09761 0.93597 0.81057
 H720 H 1.11398 0.94550 0.80124
 O721 O 1.02557 0.87016 0.90601
 O722 O 1.02559 0.83968 0.87564
 C723 C 1.03447 0.84891 0.89688
 C724 C 1.05575 0.83519 0.91084
 C725 C 1.06458 0.81069 0.90231
 H726 H 1.05516 0.80144 0.88582
 O727 O 0.97445 1.12987 0.90574
 O728 O 0.97440 1.16039 0.87541
 C729 C 0.96553 1.15112 0.89664
 C730 C 0.94423 1.16481 0.91059
 C731 C 0.93531 1.18924 0.90194
 H732 H 0.94469 1.19843 0.88539
 O733 O 0.86992 1.09444 0.97459
 O734 O 0.83946 1.12481 0.97457
 C735 C 0.84870 1.10360 0.96565
 C736 C 0.83506 1.08975 0.94423
 C737 C 0.81070 1.09846 0.93515
 H738 H 0.80147 1.11501 0.94449
 O739 O 1.12990 0.90584 0.97468
 O740 O 1.16043 0.87553 0.97461
 C741 C 1.15113 0.89673 0.96572
 C742 C 1.16477 0.91063 0.94434
 C743 C 1.18920 0.90199 0.93541
 H744 H 1.19843 0.88548 0.94484
 O745 O 0.97452 1.09420 0.86992
 O746 O 0.97447 1.12456 0.83944
 C747 C 0.96561 1.10334 0.84867
 C748 C 0.94430 1.08943 0.83496
 C749 C 0.93542 1.09803 0.81049
 H750 H 0.94485 1.11451 0.80124
 O751 O 1.02553 0.90597 0.87033
 O752 O 1.02554 0.87567 0.83978
 C753 C 1.03439 0.89689 0.84904
 C754 C 1.05560 0.91088 0.83527
 C755 C 1.06425 0.90247 0.81066
 H756 H 1.05476 0.88603 0.80139
 O757 O 1.12989 0.97468 0.90582
 O758 O 1.16037 0.97458 0.87546
 C759 C 1.15111 0.96571 0.89668
 C760 C 1.16476 0.94434 0.91059
 C761 C 1.18919 0.93542 0.90195
 H762 H 1.19841 0.94483 0.88543
 O763 O 0.87011 1.02577 0.90584
 O764 O 0.83964 1.02571 0.87546
 C765 C 0.84887 1.03465 0.89667
 C766 C 0.83517 1.05602 0.91051
 C767 C 0.81082 1.06499 0.90171
 H768 H 0.80169 1.05559 0.88514
 O769 O 0.90580 1.12997 0.97465
 O770 O 0.87550 1.16050 0.97465
 C771 C 0.89670 1.15122 0.96575
 C772 C 0.91060 1.16487 0.94439
 C773 C 0.90195 1.18930 0.93547
 H774 H 0.88546 1.19853 0.94492
 O775 O 1.09419 0.87014 0.97483
 O776 O 1.12455 0.83967 0.97478
 C777 C 1.10332 0.84890 0.96592
 C778 C 1.08939 0.83520 0.94463
 C779 C 1.09795 0.81070 0.93585
 H780 H 1.11440 0.80146 0.94536
 O781 O 1.09433 1.02571 0.87003
 O782 O 1.12467 1.02569 0.83953
 C783 C 1.10347 1.03462 0.84877
 C784 C 1.08959 1.05599 0.83509
 C785 C 1.09832 1.06506 0.81072
 H786 H 1.11491 1.05575 0.80154
 O787 O 0.90588 0.97479 0.87027
 O788 O 0.87557 0.97468 0.83973
 C789 C 0.89679 0.96584 0.84902
 C790 C 0.91076 0.94454 0.83535
 C791 C 0.90229 0.93578 0.81079
 H792 H 0.88586 0.94527 0.80150
 O793 O 1.02533 1.12988 0.90578
 O794 O 1.02531 1.16041 0.87548
 C795 C 1.03420 1.15114 0.89669
 C796 C 1.05548 1.16483 0.91065
 C797 C 1.06422 1.18935 0.90212
 H798 H 1.05472 1.19860 0.88566
 O799 O 0.97470 0.87024 0.90607
 O800 O 0.97466 0.83975 0.87571
 C801 C 0.96579 0.84900 0.89695
 C802 C 0.94450 0.83533 0.91090
 C803 C 0.93576 0.81078 0.90245
 H804 H 0.94527 0.80147 0.88603
 O805 O 1.12985 1.09418 0.97464
 O806 O 1.16031 1.12453 0.97459
 C807 C 1.15109 1.10330 0.96574
 C808 C 1.16484 1.08935 0.94449
 C809 C 1.18935 1.09789 0.93576
 H810 H 1.19856 1.11434 0.94527
 O811 O 0.87018 0.90617 0.97473
 O812 O 0.83970 0.87585 0.97470
 C813 C 0.84893 0.89707 0.96583
 C814 C 0.83520 0.91102 0.94456
 C815 C 0.81065 0.90255 0.93584
 H816 H 0.80140 0.88612 0.94536
 Cu817 Cu 1.00013 0.89111 0.89124
 Cu818 Cu 1.00011 0.85463 0.85468
 Cu819 Cu 0.99992 1.10900 0.89089
 Cu820 Cu 0.99990 1.14555 0.85440
 Cu821 Cu 0.89100 1.00028 0.89107
 Cu822 Cu 0.85451 1.00017 0.85451
 Cu823 Cu 1.10904 1.00021 0.89099
 Cu824 Cu 1.14555 1.00012 0.85447
 C825 C 0.93201 0.93209 0.84735
 H826 H 0.93842 0.93851 0.86645
 C827 C 0.91465 0.91469 0.79832
 C828 C 1.06815 1.06825 0.84698
 H829 H 1.06154 1.06160 0.86592
 C830 C 1.08604 1.08627 0.79835
 C831 C 0.84715 0.93227 0.93208
 H832 H 0.86624 0.93867 0.93847
 C833 C 0.79814 0.91490 0.91475
 C834 C 1.15293 1.06808 0.93202
 H835 H 1.13386 1.06163 0.93843
 C836 C 1.20186 1.08559 0.91465
 C837 C 0.93202 0.84736 0.93213
 H838 H 0.93843 0.86644 0.93852
 C839 C 0.91466 0.79835 0.91481
 C840 C 1.06795 1.15287 0.93192
 H841 H 1.06153 1.13381 0.93838
 C842 C 1.08533 1.20181 0.91442
 C843 C 0.93191 1.06814 0.84692
 H844 H 0.93843 1.06164 0.86596
 C845 C 0.91425 1.08575 0.79807
 C846 C 1.06805 0.93214 0.84724
 H847 H 1.06170 0.93851 0.86637
 C848 C 1.08525 0.91489 0.79810
 C849 C 1.06813 0.84715 0.93216
 H850 H 1.06165 0.86620 0.93861
 C851 C 1.08568 0.79824 0.91470
 C852 C 0.93190 1.15292 0.93197
 H853 H 0.93844 1.13393 0.93851
 C854 C 0.91416 1.20168 0.91425
 C855 C 0.84699 1.06837 0.93192
 H856 H 0.86593 1.06177 0.93858
 C857 C 0.79838 1.08621 0.91388
 C858 C 1.15284 0.93196 0.93195
 H859 H 1.13385 0.93851 0.93849
 C860 C 1.20161 0.91424 0.91422
 O861 O 1.02558 0.90603 1.13005
 O862 O 1.02557 0.87573 1.16061
 C863 C 1.03446 0.89693 1.15133
 C864 C 1.05576 0.91086 1.16504
 C865 C 1.06457 0.90229 1.18955
 H866 H 1.05509 0.88584 1.19879
 O867 O 0.97486 1.09418 1.13005
 O868 O 0.97481 1.12447 1.16061
 C869 C 0.96598 1.10324 1.15134
 C870 C 0.94477 1.08922 1.16507
 C871 C 0.93616 1.09756 1.18972
 H872 H 0.94570 1.11392 1.19906
 O873 O 0.87015 1.02562 1.09438
 O874 O 0.83973 1.02571 1.12479
 C875 C 0.84894 1.03457 1.10354
 C876 C 0.83523 1.05588 1.08962
 C877 C 0.81080 1.06479 1.09826
 H878 H 0.80160 1.05541 1.11480
 O879 O 1.13010 0.97467 1.09433
 O880 O 1.16061 0.97463 1.12467
 C881 C 1.15135 0.96576 1.10345
 C882 C 1.16503 0.94445 1.08950
 C883 C 1.18951 0.93558 1.09807
 H884 H 1.19875 0.94499 1.11457
 O885 O 1.09441 0.87009 1.02576
 O886 O 1.12478 0.83963 1.02576
 C887 C 1.10358 0.84887 1.03469
 C888 C 1.08973 0.83521 1.05610
 C889 C 1.09845 0.81085 1.06515
 H890 H 1.11500 0.80164 1.05580
 O891 O 0.90572 1.13001 1.02560
 O892 O 0.87542 1.16053 1.02565
 C893 C 0.89662 1.15124 1.03455
 C894 C 0.91052 1.16487 1.05595
 C895 C 0.90184 1.18926 1.06497
 H896 H 0.88530 1.19848 1.05560
 O897 O 0.90586 0.97463 1.13003
 O898 O 0.87558 0.97466 1.16059
 C899 C 0.89676 0.96573 1.15130
 C900 C 0.91066 0.94439 1.16498
 C901 C 0.90202 0.93548 1.18943
 H902 H 0.88551 0.94489 1.19864
 O903 O 1.09438 1.02558 1.13005
 O904 O 1.12473 1.02559 1.16055
 C905 C 1.10353 1.03450 1.15130
 C906 C 1.08967 1.05587 1.16497
 C907 C 1.09838 1.06478 1.18938
 H908 H 1.11489 1.05533 1.19858
 O909 O 0.97478 0.87025 1.09429
 O910 O 0.97474 0.83976 1.12465
 C911 C 0.96588 0.84901 1.10340
 C912 C 0.94460 0.83533 1.08942
 C913 C 0.93588 0.81075 1.09784
 H914 H 0.94540 0.80143 1.11424
 O915 O 1.02552 1.13010 1.09429
 O916 O 1.02552 1.16060 1.12463
 C917 C 1.03438 1.15137 1.10338
 C918 C 1.05561 1.16507 1.08937
 C919 C 1.06439 1.18962 1.09781
 H920 H 1.05495 1.19892 1.11427
 O921 O 0.87011 0.90608 1.02564
 O922 O 0.83963 0.87575 1.02566
 C923 C 0.84886 0.89697 1.03454
 C924 C 0.83515 0.91090 1.05584
 C925 C 0.81066 0.90237 1.06466
 H926 H 0.80142 0.88591 1.05520
 O927 O 1.12988 1.09428 1.02555
 O928 O 1.16034 1.12463 1.02554
 C929 C 1.15112 1.10342 1.03445
 C930 C 1.16486 1.08950 1.05576
 C931 C 1.18935 1.09807 1.06455
 H932 H 1.19855 1.11455 1.05508
 O933 O 1.02574 1.09441 1.13007
 O934 O 1.02574 1.12473 1.16059
 C935 C 1.03466 1.10354 1.15132
 C936 C 1.05603 1.08965 1.16499
 C937 C 1.06502 1.09831 1.18942
 H938 H 1.05566 1.11485 1.19864
 O939 O 0.97469 0.90592 1.13008
 O940 O 0.97464 0.87560 1.16060
 C941 C 0.96575 0.89680 1.15133
 C942 C 0.94440 0.91070 1.16500
 C943 C 0.93549 0.90206 1.18944
 H944 H 0.94491 0.88556 1.19867
 O945 O 1.13007 1.02555 1.09431
 O946 O 1.16059 1.02556 1.12463
 C947 C 1.15132 1.03445 1.10342
 C948 C 1.16497 1.05577 1.08947
 C949 C 1.18946 1.06462 1.09800
 H950 H 1.19875 1.05516 1.11446
 O951 O 0.87012 0.97475 1.09432
 O952 O 0.83967 0.97479 1.12471
 C953 C 0.84887 0.96590 1.10347
 C954 C 0.83515 0.94462 1.08954
 C955 C 0.81066 0.93583 1.09810
 H956 H 0.80142 0.94531 1.11458
 O957 O 1.09410 1.12996 1.02548
 O958 O 1.12439 1.16046 1.02545
 C959 C 1.10319 1.15122 1.03434
 C960 C 1.08925 1.16498 1.05559
 C961 C 1.09776 1.18951 1.06428
 H962 H 1.11419 1.19873 1.05473
 O963 O 0.90593 0.87045 1.02563
 O964 O 0.87563 0.83995 1.02563
 C965 C 0.89685 0.84919 1.03451
 C966 C 0.91084 0.83544 1.05575
 C967 C 0.90239 0.81087 1.06442
 H968 H 0.88596 0.80163 1.05490
 O969 O 1.09436 0.97470 1.13007
 O970 O 1.12469 0.97465 1.16059
 C971 C 1.10347 0.96579 1.15134
 C972 C 1.08951 0.94450 1.16505
 C973 C 1.09805 0.93566 1.18956
 H974 H 1.11454 0.94508 1.19882
 O975 O 0.90604 1.02550 1.12998
 O976 O 0.87579 1.02556 1.16057
 C977 C 0.89701 1.03438 1.15128
 C978 C 0.91105 1.05556 1.16502
 C979 C 0.90271 1.06416 1.18968
 H980 H 0.88631 1.05463 1.19897
 O981 O 0.97463 1.12995 1.09436
 O982 O 0.97457 1.16041 1.12475
 C983 C 0.96567 1.15116 1.10353
 C984 C 0.94427 1.16481 1.08966
 C985 C 0.93531 1.18919 1.09840
 H986 H 0.94473 1.19837 1.11494
 O987 O 1.02568 0.87018 1.09444
 O988 O 1.02567 0.83973 1.12484
 C989 C 1.03459 0.84896 1.10362
 C990 C 1.05598 0.83527 1.08979
 C991 C 1.06496 0.81091 1.09856
 H992 H 1.05554 0.80175 1.11511
 O993 O 1.12999 0.90593 1.02561
 O994 O 1.16053 0.87562 1.02559
 C995 C 1.15127 0.89683 1.03448
 C996 C 1.16499 0.91077 1.05576
 C997 C 1.18946 0.90216 1.06459
 H998 H 1.19867 0.88567 1.05513
 O999 O 0.87005 1.09427 1.02553
 O1000 O 0.83958 1.12463 1.02558
 C1001 C 0.84883 1.10341 1.03446
 C1002 C 0.83517 1.08952 1.05582
 C1003 C 0.81074 1.09816 1.06472
 H1004 H 0.80150 1.11464 1.05526
 Cu1005 Cu 1.00018 0.89113 1.10917
 Cu1006 Cu 1.00015 0.85466 1.14573
 Cu1007 Cu 1.00020 1.10913 1.10915
 Cu1008 Cu 1.00015 1.14561 1.14570
 Cu1009 Cu 0.89106 0.89133 1.00018
 Cu1010 Cu 0.85457 0.85481 1.00017
 Cu1011 Cu 1.10908 0.89103 1.00023
 Cu1012 Cu 1.14563 0.85456 1.00018
 Cu1013 Cu 0.89091 1.10913 1.00009
 Cu1014 Cu 0.85444 1.14568 1.00012
 Cu1015 Cu 1.10895 1.10904 1.00006
 Cu1016 Cu 1.14542 1.14557 1.00002
 Cu1017 Cu 0.89107 1.00012 1.10912
 Cu1018 Cu 0.85464 1.00020 1.14573
 Cu1019 Cu 1.10919 1.00012 1.10915
 Cu1020 Cu 1.14571 1.00010 1.14567
 C1021 C 1.06820 0.93213 1.15308
 H1022 H 1.06174 0.93860 1.13402
 C1023 C 1.08571 0.91456 1.20201
 C1024 C 0.93225 1.06805 1.15301
 H1025 H 0.93857 1.06175 1.13385
 C1026 C 0.91513 1.08514 1.20223
 C1027 C 0.84712 1.06822 1.06824
 H1028 H 0.86612 1.06169 1.06170
 C1029 C 0.79835 1.08593 1.08594
 C1030 C 1.15307 0.93208 1.06818
 H1031 H 1.13404 0.93858 1.06170
 C1032 C 1.20191 0.91443 1.08574
 C1033 C 1.06834 0.84712 1.06840
 H1034 H 1.06174 0.86606 1.06176
 C1035 C 1.08619 0.79850 1.08639
 C1036 C 0.93190 1.15294 1.06828
 H1037 H 0.93848 1.13398 1.06167
 C1038 C 0.91410 1.20161 1.08620
 C1039 C 0.93201 0.93203 1.15306
 H1040 H 0.93855 0.93857 1.13405
 C1041 C 0.91430 0.91431 1.20186
 C1042 C 1.06834 1.06827 1.15307
 H1043 H 1.06175 1.06171 1.13409
 C1044 C 1.08620 1.08600 1.20181
 C1045 C 0.93210 0.84737 1.06821
 H1046 H 0.93849 0.86647 1.06185
 C1047 C 0.91479 0.79832 1.08545
 C1048 C 1.06801 1.15305 1.06810
 H1049 H 1.06158 1.13397 1.06171
 C1050 C 1.08547 1.20204 1.08538
 C1051 C 0.84710 0.93219 1.06825
 H1052 H 0.86614 0.93864 1.06178
 C1053 C 0.79821 0.91471 1.08579
 C1054 C 1.15296 1.06820 1.06819
 H1055 H 1.13392 1.06171 1.06174
 C1056 C 1.20186 1.08576 1.08566
 O1057 O 0.97472 0.40552 0.36991
 O1058 O 0.97475 0.37513 0.33945
 C1059 C 0.96583 0.39634 0.34866
 C1060 C 0.94448 0.41017 0.33494
 C1061 C 0.93553 0.40142 0.31055
 H1062 H 0.94495 0.38488 0.30138
 O1063 O 1.02575 0.59407 0.37000
 O1064 O 1.02569 0.62441 0.33949
 C1065 C 1.03464 0.60323 0.34876
 C1066 C 1.05602 0.58941 0.33507
 C1067 C 1.06496 0.59818 0.31069
 H1068 H 1.05551 0.61471 0.30153
 O1069 O 0.87042 0.47423 0.40567
 O1070 O 0.83992 0.47427 0.37532
 C1071 C 0.84915 0.46539 0.39656
 C1072 C 0.83541 0.44416 0.41054
 C1073 C 0.81090 0.43542 0.40200
 H1074 H 0.80168 0.44487 0.38549
 O1075 O 1.13017 0.52539 0.40582
 O1076 O 1.16066 0.52534 0.37547
 C1077 C 1.15143 0.53424 0.39669
 C1078 C 1.16512 0.55555 0.41062
 C1079 C 1.18957 0.56443 0.40201
 H1080 H 1.19881 0.55501 0.38551
 O1081 O 0.90603 0.37019 0.47473
 O1082 O 0.87576 0.33965 0.47471
 C1083 C 0.89697 0.34892 0.46585
 C1084 C 0.91097 0.33518 0.44460
 C1085 C 0.90258 0.31058 0.43597
 H1086 H 0.88618 0.30131 0.44553
 O1087 O 1.09439 0.62979 0.47448
 O1088 O 1.12466 0.66032 0.47447
 C1089 C 1.10346 0.65105 0.46558
 C1090 C 1.08948 0.66474 0.44429
 C1091 C 1.09793 0.68927 0.43547
 H1092 H 1.11439 0.69855 0.44492
 O1093 O 0.90625 0.52498 0.36993
 O1094 O 0.87595 0.52506 0.33938
 C1095 C 0.89717 0.53388 0.34866
 C1096 C 0.91116 0.55512 0.33495
 C1097 C 0.90276 0.56380 0.31034
 H1098 H 0.88638 0.55427 0.30102
 O1099 O 1.09424 0.47465 0.37014
 O1100 O 1.12455 0.47456 0.33960
 C1101 C 1.10332 0.46574 0.34887
 C1102 C 1.08935 0.44448 0.33516
 C1103 C 1.09782 0.43579 0.31059
 H1104 H 1.11422 0.44533 0.30131
 O1105 O 1.02564 0.36991 0.40574
 O1106 O 1.02571 0.33939 0.37541
 C1107 C 1.03455 0.34865 0.39664
 C1108 C 1.05582 0.33494 0.41062
 C1109 C 1.06468 0.31047 0.40204
 H1110 H 1.05528 0.30126 0.38550
 O1111 O 0.97473 0.62968 0.40569
 O1112 O 0.97464 0.66014 0.37531
 C1113 C 0.96579 0.65090 0.39654
 C1114 C 0.94447 0.66459 0.41045
 C1115 C 0.93564 0.68906 0.40185
 H1116 H 0.94510 0.69828 0.38537
 O1117 O 0.87037 0.59386 0.47434
 O1118 O 0.83985 0.62417 0.47431
 C1119 C 0.84912 0.60297 0.46542
 C1120 C 0.83545 0.58903 0.44410
 C1121 C 0.81094 0.59756 0.43527
 H1122 H 0.80167 0.61401 0.44473
 O1123 O 1.12997 0.40553 0.47443
 O1124 O 1.16046 0.37518 0.47441
 C1125 C 1.15120 0.39638 0.46549
 C1126 C 1.16486 0.41027 0.44411
 C1127 C 1.18925 0.40158 0.43510
 H1128 H 1.19845 0.38502 0.44445
 O1129 O 0.97488 0.59383 0.37006
 O1130 O 0.97479 0.62413 0.33951
 C1131 C 0.96599 0.60289 0.34877
 C1132 C 0.94480 0.58887 0.33501
 C1133 C 0.93614 0.59727 0.31040
 H1134 H 0.94563 0.61370 0.30112
 O1135 O 1.02559 0.40578 0.37013
 O1136 O 1.02568 0.37544 0.33962
 C1137 C 1.03451 0.39668 0.34887
 C1138 C 1.05574 0.41069 0.33515
 C1139 C 1.06449 0.40226 0.31057
 H1140 H 1.05506 0.38581 0.30128
 O1141 O 1.13005 0.47449 0.40577
 O1142 O 1.16053 0.47439 0.37540
 C1143 C 1.15126 0.46551 0.39661
 C1144 C 1.16488 0.44409 0.41047
 C1145 C 1.18926 0.43513 0.40175
 H1146 H 1.19847 0.44458 0.38525
 O1147 O 0.87043 0.52509 0.40556
 O1148 O 0.83995 0.52517 0.37519
 C1149 C 0.84920 0.53403 0.39643
 C1150 C 0.83550 0.55533 0.41036
 C1151 C 0.81100 0.56412 0.40181
 H1152 H 0.80176 0.55465 0.38533
 O1153 O 0.90597 0.62967 0.47437
 O1154 O 0.87561 0.66016 0.47434
 C1155 C 0.89683 0.65092 0.46546
 C1156 C 0.91075 0.66461 0.44415
 C1157 C 0.90218 0.68909 0.43529
 H1158 H 0.88569 0.69834 0.44472
 O1159 O 1.09424 0.36983 0.47462
 O1160 O 1.12457 0.33932 0.47463
 C1161 C 1.10335 0.34857 0.46574
 C1162 C 1.08944 0.33488 0.44443
 C1163 C 1.09803 0.31041 0.43558
 H1164 H 1.11450 0.30117 0.44505
 O1165 O 1.09455 0.52552 0.36995
 O1166 O 1.12488 0.52548 0.33944
 C1167 C 1.10369 0.53442 0.34869
 C1168 C 1.08981 0.55579 0.33502
 C1169 C 1.09850 0.56483 0.31062
 H1170 H 1.11506 0.55551 0.30140
 O1171 O 0.90601 0.47411 0.36980
 O1172 O 0.87567 0.47413 0.33928
 C1173 C 0.89686 0.46521 0.34854
 C1174 C 0.91074 0.44384 0.33487
 C1175 C 0.90205 0.43483 0.31047
 H1176 H 0.88551 0.44419 0.30125
 O1177 O 1.02560 0.62970 0.40581
 O1178 O 1.02554 0.66019 0.37546
 C1179 C 1.03444 0.65096 0.39669
 C1180 C 1.05571 0.66469 0.41062
 C1181 C 1.06442 0.68921 0.40208
 H1182 H 1.05489 0.69844 0.38563
 O1183 O 0.97478 0.37007 0.40591
 O1184 O 0.97480 0.33951 0.37562
 C1185 C 0.96592 0.34880 0.39684
 C1186 C 0.94467 0.33512 0.41086
 C1187 C 0.93600 0.31051 0.40249
 H1188 H 0.94551 0.30119 0.38609
 O1189 O 1.13011 0.59405 0.47452
 O1190 O 1.16055 0.62441 0.47451
 C1191 C 1.15134 0.60319 0.46563
 C1192 C 1.16506 0.58927 0.44433
 C1193 C 1.18950 0.59789 0.43546
 H1194 H 1.19869 0.61439 0.44490
 O1195 O 0.87019 0.40580 0.47465
 O1196 O 0.83975 0.37544 0.47461
 C1197 C 0.84898 0.39665 0.46572
 C1198 C 0.83531 0.41055 0.44436
 C1199 C 0.81079 0.40205 0.43554
 H1200 H 0.80150 0.38564 0.44504
 Cu1201 Cu 1.00018 0.39087 0.39095
 Cu1202 Cu 1.00025 0.35431 0.35447
 Cu1203 Cu 1.00024 0.60878 0.39094
 Cu1204 Cu 1.00015 0.64527 0.35438
 Cu1205 Cu 0.89132 0.49959 0.39078
 Cu1206 Cu 0.85482 0.49967 0.35423
 Cu1207 Cu 1.10922 0.50004 0.39096
 Cu1208 Cu 1.14571 0.49993 0.35442
 C1209 C 0.93211 0.43154 0.34680
 H1210 H 0.93869 0.43815 0.36577
 C1211 C 0.91432 0.41361 0.29811
 C1212 C 1.06841 0.56806 0.34693
 H1213 H 1.06183 0.56143 0.36590
 C1214 C 1.08620 0.58604 0.29827
 C1215 C 0.84732 0.43177 0.43188
 H1216 H 0.86637 0.43819 0.43834
 C1217 C 0.79838 0.41437 0.41437
 C1218 C 1.15317 0.56794 0.43194
 H1219 H 1.13416 0.56142 0.43845
 C1220 C 1.20196 0.58561 0.41431
 C1221 C 0.93218 0.34716 0.43208
 H1222 H 0.93853 0.36629 0.43841
 C1223 C 0.91496 0.29804 0.41494
 C1224 C 1.06820 0.65275 0.43188
 H1225 H 1.06181 0.63368 0.43834
 C1226 C 1.08552 0.70171 0.41437
 C1227 C 0.93234 0.56763 0.34700
 H1228 H 0.93869 0.56127 0.36614
 C1229 C 0.91513 0.58486 0.29786
 C1230 C 1.06815 0.43196 0.34716
 H1231 H 1.06174 0.43834 0.36627
 C1232 C 1.08553 0.41470 0.29809
 C1233 C 1.06817 0.34684 0.43198
 H1234 H 1.06167 0.36587 0.43847
 C1235 C 1.08579 0.29801 0.41438
 C1236 C 0.93206 0.65266 0.43176
 H1237 H 0.93855 0.63363 0.43825
 C1238 C 0.91450 0.70152 0.41414
 C1239 C 0.84744 0.56776 0.43167
 H1240 H 0.86649 0.56130 0.43814
 C1241 C 0.79852 0.58523 0.41413
 C1242 C 1.15297 0.43168 0.43181
 H1243 H 1.13401 0.43827 0.43840
 C1244 C 1.20165 0.41388 0.41392
 O1245 O 1.02557 0.40598 0.63018
 O1246 O 1.02562 0.37566 0.66071
 C1247 C 1.03450 0.39686 0.65143
 C1248 C 1.05586 0.41075 0.66508
 C1249 C 1.06469 0.40219 0.68958
 H1250 H 1.05518 0.38578 0.69887
 O1251 O 0.97483 0.59391 0.62997
 O1252 O 0.97479 0.62424 0.66048
 C1253 C 0.96594 0.60302 0.65124
 C1254 C 0.94470 0.58907 0.66497
 C1255 C 0.93599 0.59753 0.68955
 H1256 H 0.94549 0.61394 0.69883
 O1257 O 0.87037 0.52529 0.59424
 O1258 O 0.83985 0.52543 0.62457
 C1259 C 0.84912 0.53423 0.60332
 C1260 C 0.83542 0.55547 0.58929
 C1261 C 0.81086 0.56421 0.59774
 H1262 H 0.80160 0.55475 0.61421
 O1263 O 1.13022 0.47443 0.59408
 O1264 O 1.16074 0.47438 0.62440
 C1265 C 1.15148 0.46553 0.60317
 C1266 C 1.16516 0.44425 0.58918
 C1267 C 1.18970 0.43546 0.59764
 H1268 H 1.19900 0.44492 0.61409
 O1269 O 1.09434 0.36997 0.52557
 O1270 O 1.12468 0.33947 0.52563
 C1271 C 1.10349 0.34876 0.53455
 C1272 C 1.08963 0.33516 0.55600
 C1273 C 1.09832 0.31079 0.56505
 H1274 H 1.11485 0.30155 0.55568
 O1275 O 0.90606 0.62956 0.52528
 O1276 O 0.87571 0.66004 0.52531
 C1277 C 0.89693 0.65079 0.53419
 C1278 C 0.91086 0.66449 0.55551
 C1279 C 0.90236 0.68903 0.56425
 H1280 H 0.88594 0.69829 0.55473
 O1281 O 0.90593 0.47437 0.63011
 O1282 O 0.87556 0.47447 0.66059
 C1283 C 0.89676 0.46552 0.65137
 C1284 C 0.91059 0.44417 0.66511
 C1285 C 0.90177 0.43518 0.68945
 H1286 H 0.88518 0.44457 0.69857
 O1287 O 1.09448 0.52527 0.62983
 O1288 O 1.12482 0.52528 0.66034
 C1289 C 1.10360 0.53416 0.65109
 C1290 C 1.08966 0.55544 0.66480
 C1291 C 1.09821 0.56422 0.68932
 H1292 H 1.11468 0.55475 0.69855
 O1293 O 0.97473 0.37023 0.59444
 O1294 O 0.97475 0.33972 0.62477
 C1295 C 0.96585 0.34898 0.60354
 C1296 C 0.94456 0.33529 0.58960
 C1297 C 0.93577 0.31080 0.59816
 H1298 H 0.94524 0.30156 0.61464
 O1299 O 1.02561 0.62967 0.59417
 O1300 O 1.02560 0.66019 0.62450
 C1301 C 1.03446 0.65094 0.60327
 C1302 C 1.05568 0.66468 0.58927
 C1303 C 1.06432 0.68928 0.59767
 H1304 H 1.05480 0.69857 0.61409
 O1305 O 0.87013 0.40584 0.52557
 O1306 O 0.83968 0.37548 0.52560
 C1307 C 0.84890 0.39671 0.53448
 C1308 C 0.83520 0.41064 0.55579
 C1309 C 0.81071 0.40212 0.56464
 H1310 H 0.80145 0.38565 0.55520
 O1311 O 1.13011 0.59409 0.52544
 O1312 O 1.16056 0.62446 0.52548
 C1313 C 1.15134 0.60323 0.53436
 C1314 C 1.16506 0.58932 0.55568
 C1315 C 1.18951 0.59792 0.56454
 H1316 H 1.19870 0.61443 0.55511
 O1317 O 1.02570 0.59394 0.62991
 O1318 O 1.02572 0.62428 0.66041
 C1319 C 1.03462 0.60307 0.65116
 C1320 C 1.05594 0.58915 0.66485
 C1321 C 1.06477 0.59767 0.68937
 H1322 H 1.05531 0.61413 0.69864
 O1323 O 0.97465 0.40578 0.63036
 O1324 O 0.97466 0.37543 0.66086
 C1325 C 0.96573 0.39662 0.65161
 C1326 C 0.94431 0.41047 0.66525
 C1327 C 0.93522 0.40174 0.68961
 H1328 H 0.94456 0.38519 0.69884
 O1329 O 1.13025 0.52531 0.59416
 O1330 O 1.16076 0.52532 0.62450
 C1331 C 1.15149 0.53422 0.60328
 C1332 C 1.16514 0.55557 0.58937
 C1333 C 1.18960 0.56445 0.59797
 H1334 H 1.19886 0.55500 0.61445
 O1335 O 0.87027 0.47443 0.59432
 O1336 O 0.83974 0.47454 0.62464
 C1337 C 0.84899 0.46562 0.60343
 C1338 C 0.83526 0.44435 0.58951
 C1339 C 0.81078 0.43557 0.59810
 H1340 H 0.80157 0.44505 0.61459
 O1341 O 1.09430 0.62972 0.52538
 O1342 O 1.12457 0.66026 0.52542
 C1343 C 1.10336 0.65099 0.53428
 C1344 C 1.08936 0.66470 0.55553
 C1345 C 1.09774 0.68929 0.56419
 H1346 H 1.11412 0.69859 0.55465
 O1347 O 0.90595 0.37021 0.52565
 O1348 O 0.87568 0.33968 0.52567
 C1349 C 0.89687 0.34896 0.53456
 C1350 C 0.91083 0.33528 0.55588
 C1351 C 0.90231 0.31079 0.56472
 H1352 H 0.88584 0.30154 0.55526
 O1353 O 1.09457 0.47441 0.62991
 O1354 O 1.12492 0.47437 0.66042
 C1355 C 1.10369 0.46552 0.65119
 C1356 C 1.08972 0.44428 0.66495
 C1357 C 1.09829 0.43545 0.68946
 H1358 H 1.11482 0.44483 0.69866
 O1359 O 0.90609 0.52524 0.63000
 O1360 O 0.87574 0.52538 0.66050
 C1361 C 0.89699 0.53417 0.65125
 C1362 C 0.91098 0.55541 0.66497
 C1363 C 0.90254 0.56413 0.68955
 H1364 H 0.88611 0.55464 0.69882
 O1365 O 0.97475 0.62956 0.59416
 O1366 O 0.97468 0.66007 0.62449
 C1367 C 0.96582 0.65080 0.60326
 C1368 C 0.94453 0.66449 0.58928
 C1369 C 0.93576 0.68903 0.59775
 H1370 H 0.94523 0.69830 0.61421
 O1371 O 1.02562 0.37020 0.59451
 O1372 O 1.02569 0.33972 0.62487
 C1373 C 1.03457 0.34897 0.60365
 C1374 C 1.05593 0.33528 0.58976
 C1375 C 1.06490 0.31092 0.59852
 H1376 H 1.05550 0.30178 0.61509
 O1377 O 1.13004 0.40568 0.52535
 O1378 O 1.16055 0.37535 0.52537
 C1379 C 1.15132 0.39659 0.53422
 C1380 C 1.16507 0.41056 0.55545
 C1381 C 1.18961 0.40204 0.56417
 H1382 H 1.19883 0.38558 0.55466
 O1383 O 0.87031 0.59390 0.52526
 O1384 O 0.83979 0.62421 0.52528
 C1385 C 0.84906 0.60301 0.53416
 C1386 C 0.83537 0.58908 0.55547
 C1387 C 0.81081 0.59755 0.56419
 H1388 H 0.80152 0.61395 0.55465
 Cu1389 Cu 1.00013 0.39109 0.60934
 Cu1390 Cu 1.00019 0.35458 0.64586
 Cu1391 Cu 1.00023 0.60873 0.60901
 Cu1392 Cu 1.00019 0.64525 0.64553
 Cu1393 Cu 0.89110 0.39106 0.50015
 Cu1394 Cu 0.85467 0.35450 0.50014
 Cu1395 Cu 1.10911 0.39079 0.49999
 Cu1396 Cu 1.14561 0.35427 0.50001
 Cu1397 Cu 0.89122 0.60871 0.49981
 Cu1398 Cu 0.85468 0.64520 0.49981
 Cu1399 Cu 1.10920 0.60887 0.49995
 Cu1400 Cu 1.14564 0.64542 0.49997
 Cu1401 Cu 0.89121 0.49982 0.60913
 Cu1402 Cu 0.85467 0.49998 0.64563
 Cu1403 Cu 1.10934 0.49985 0.60895
 Cu1404 Cu 1.14587 0.49983 0.64547
 C1405 C 1.06834 0.43195 0.65306
 H1406 H 1.06185 0.43842 0.63400
 C1407 C 1.08590 0.41441 0.70197
 C1408 C 0.93222 0.56784 0.65297
 H1409 H 0.93861 0.56144 0.63386
 C1410 C 0.91491 0.58518 0.70204
 C1411 C 0.84738 0.56788 0.56800
 H1412 H 0.86647 0.56146 0.56160
 C1413 C 0.79835 0.58524 0.58532
 C1414 C 1.15314 0.43183 0.56792
 H1415 H 1.13406 0.43827 0.56152
 C1416 C 1.20212 0.41435 0.58525
 C1417 C 1.06827 0.34711 0.56834
 H1418 H 1.06168 0.36606 0.56170
 C1419 C 1.08609 0.29848 0.58632
 C1420 C 0.93210 0.65251 0.56800
 H1421 H 0.93854 0.63343 0.56158
 C1422 C 0.91469 0.70150 0.58536
 C1423 C 0.93201 0.43184 0.65331
 H1424 H 0.93869 0.43845 0.63437
 C1425 C 0.91393 0.41397 0.70191
 C1426 C 1.06836 0.56787 0.65286
 H1427 H 1.06189 0.56142 0.63380
 C1428 C 1.08590 0.58533 0.70180
 C1429 C 0.93212 0.34724 0.56830
 H1430 H 0.93857 0.36628 0.56182
 C1431 C 0.91464 0.29835 0.58585
 C1432 C 1.06817 0.65268 0.56803
 H1433 H 1.06183 0.63356 0.56167
 C1434 C 1.08534 0.70179 0.58525
 C1435 C 0.84717 0.43192 0.56819
 H1436 H 0.86621 0.43837 0.56170
 C1437 C 0.79830 0.41446 0.58580
 C1438 C 1.15317 0.56798 0.56807
 H1439 H 1.13415 0.56146 0.56157
 C1440 C 1.20198 0.58562 0.58568
 O1441 O 0.47440 0.90579 0.36973
 O1442 O 0.47446 0.87548 0.33919
 C1443 C 0.46553 0.89667 0.34846
 C1444 C 0.44419 0.91055 0.33476
 C1445 C 0.43529 0.90185 0.31034
 H1446 H 0.44475 0.88534 0.30115
 O1447 O 0.52532 1.09432 0.36975
 O1448 O 0.52528 1.12470 0.33929
 C1449 C 0.53421 1.10350 0.34851
 C1450 C 0.55555 1.08965 0.33479
 C1451 C 0.56450 1.09839 0.31040
 H1452 H 0.55509 1.11495 0.30124
 O1453 O 0.37005 0.97459 0.40551
 O1454 O 0.33954 0.97462 0.37517
 C1455 C 0.34878 0.96574 0.39640
 C1456 C 0.33506 0.94450 0.41036
 C1457 C 0.31050 0.93581 0.40189
 H1458 H 0.30123 0.94534 0.38546
 O1459 O 0.62954 1.02555 0.40551
 O1460 O 0.66009 1.02556 0.37521
 C1461 C 0.65082 1.03442 0.39645
 C1462 C 0.66454 1.05563 0.41049
 C1463 C 0.68915 1.06428 0.40212
 H1464 H 0.69845 1.05478 0.38570
 O1465 O 0.40572 0.86998 0.47405
 O1466 O 0.37533 0.83956 0.47405
 C1467 C 0.39655 0.84876 0.46513
 C1468 C 0.41042 0.83507 0.44376
 C1469 C 0.40174 0.81068 0.43477
 H1470 H 0.38521 0.80149 0.44416
 O1471 O 0.59391 1.12991 0.47450
 O1472 O 0.62424 1.16039 0.47443
 C1473 C 0.60302 1.15115 0.46557
 C1474 C 0.58905 1.16484 0.44427
 C1475 C 0.59754 1.18937 0.43550
 H1476 H 0.61398 1.19863 0.44499
 O1477 O 0.40588 1.02532 0.36978
 O1478 O 0.37557 1.02538 0.33924
 C1479 C 0.39679 1.03421 0.34851
 C1480 C 0.41075 1.05546 0.33479
 C1481 C 0.40229 1.06413 0.31020
 H1482 H 0.38590 1.05458 0.30092
 O1483 O 0.59384 0.97474 0.36968
 O1484 O 0.62419 0.97471 0.33919
 C1485 C 0.60298 0.96583 0.34843
 C1486 C 0.58909 0.94449 0.33475
 C1487 C 0.59769 0.93564 0.31026
 H1488 H 0.61415 0.94510 0.30101
 O1489 O 0.52527 0.87007 0.40549
 O1490 O 0.52537 0.83960 0.37511
 C1491 C 0.53421 0.84884 0.39636
 C1492 C 0.55549 0.83514 0.41031
 C1493 C 0.56429 0.81064 0.40179
 H1494 H 0.55482 0.80138 0.38532
 O1495 O 0.47436 1.12989 0.40555
 O1496 O 0.47427 1.16041 0.37523
 C1497 C 0.46543 1.15114 0.39646
 C1498 C 0.44414 1.16482 0.41042
 C1499 C 0.43527 1.18929 0.40186
 H1500 H 0.44468 1.19852 0.38534
 O1501 O 0.36996 1.09420 0.47430
 O1502 O 0.33948 1.12455 0.47426
 C1503 C 0.34874 1.10335 0.46535
 C1504 C 0.33510 1.08947 0.44394
 C1505 C 0.31070 1.09813 0.43495
 H1506 H 0.30146 1.11464 0.44435
 O1507 O 0.62961 0.90592 0.47419
 O1508 O 0.66014 0.87562 0.47418
 C1509 C 0.65087 0.89682 0.46528
 C1510 C 0.66454 0.91075 0.44396
 C1511 C 0.68903 0.90221 0.43512
 H1512 H 0.69829 0.88574 0.44457
 O1513 O 0.47446 1.09415 0.36981
 O1514 O 0.47437 1.12450 0.33931
 C1515 C 0.46556 1.10325 0.34854
 C1516 C 0.44435 1.08924 0.33480
 C1517 C 0.43562 1.09765 0.31020
 H1518 H 0.44506 1.11410 0.30092
 O1519 O 0.52528 0.90582 0.36975
 O1520 O 0.52538 0.87552 0.33921
 C1521 C 0.53421 0.89673 0.34849
 C1522 C 0.55548 0.91070 0.33479
 C1523 C 0.56435 0.90213 0.31030
 H1524 H 0.55496 0.88561 0.30108
 O1525 O 0.62957 0.97469 0.40541
 O1526 O 0.66009 0.97466 0.37509
 C1527 C 0.65082 0.96578 0.39630
 C1528 C 0.66451 0.94447 0.41024
 C1529 C 0.68900 0.93566 0.40168
 H1530 H 0.69824 0.94512 0.38520
 O1531 O 0.37008 1.02547 0.40543
 O1532 O 0.33961 1.02554 0.37506
 C1533 C 0.34886 1.03442 0.39628
 C1534 C 0.33518 1.05578 0.41018
 C1535 C 0.31078 1.06471 0.40147
 H1536 H 0.30161 1.05530 0.38493
 O1537 O 0.40567 1.12989 0.47442
 O1538 O 0.37536 1.16041 0.47439
 C1539 C 0.39657 1.15115 0.46551
 C1540 C 0.41049 1.16483 0.44420
 C1541 C 0.40190 1.18930 0.43537
 H1542 H 0.38543 1.19854 0.44484
 O1543 O 0.59399 0.87013 0.47421
 O1544 O 0.62435 0.83965 0.47421
 C1545 C 0.60313 0.84888 0.46533
 C1546 C 0.58920 0.83516 0.44403
 C1547 C 0.59774 0.81065 0.43524
 H1548 H 0.61421 0.80140 0.44471
 O1549 O 0.59397 1.02563 0.36960
 O1550 O 0.62434 1.02567 0.33914
 C1551 C 0.60313 1.03456 0.34837
 C1552 C 0.58926 1.05594 0.33471
 C1553 C 0.59795 1.06495 0.31031
 H1554 H 0.61448 1.05558 0.30109
 O1555 O 0.40566 0.97446 0.36966
 O1556 O 0.37532 0.97446 0.33915
 C1557 C 0.39652 0.96555 0.34840
 C1558 C 0.41042 0.94420 0.33472
 C1559 C 0.40178 0.93523 0.31029
 H1560 H 0.38524 0.94459 0.30105
 O1561 O 0.52523 1.12988 0.40564
 O1562 O 0.52519 1.16042 0.37534
 C1563 C 0.53408 1.15115 0.39656
 C1564 C 0.55535 1.16485 0.41054
 C1565 C 0.56410 1.18937 0.40204
 H1566 H 0.55461 1.19863 0.38558
 O1567 O 0.47439 0.86999 0.40537
 O1568 O 0.47444 0.83953 0.37498
 C1569 C 0.46551 0.84875 0.39620
 C1570 C 0.44416 0.83507 0.41006
 C1571 C 0.43522 0.81068 0.40134
 H1572 H 0.44464 0.80149 0.38481
 O1573 O 0.62959 1.09415 0.47449
 O1574 O 0.66010 1.12444 0.47444
 C1575 C 0.65084 1.10323 0.46558
 C1576 C 0.66454 1.08926 0.44429
 C1577 C 0.68915 1.09764 0.43566
 H1578 H 0.69845 1.11400 0.44525
 O1579 O 0.37009 0.90580 0.47414
 O1580 O 0.33953 0.87556 0.47415
 C1581 C 0.34880 0.89676 0.46528
 C1582 C 0.33507 0.91076 0.44404
 C1583 C 0.31051 0.90233 0.43531
 H1584 H 0.30124 0.88589 0.44479
 Cu1585 Cu 0.49983 0.89095 0.39064
 Cu1586 Cu 0.49993 0.85448 0.35406
 Cu1587 Cu 0.49984 1.10901 0.39073
 Cu1588 Cu 0.49976 1.14557 0.35424
 Cu1589 Cu 0.39096 0.99995 0.39064
 Cu1590 Cu 0.35445 1.00001 0.35409
 Cu1591 Cu 0.60868 1.00016 0.39058
 Cu1592 Cu 0.64523 1.00015 0.35410
 C1593 C 0.43179 0.93188 0.34666
 H1594 H 0.43833 0.93845 0.36566
 C1595 C 0.41409 0.91404 0.29790
 C1596 C 0.56790 1.06826 0.34664
 H1597 H 0.56133 1.06165 0.36561
 C1598 C 0.58570 1.08619 0.29796
 C1599 C 0.34705 0.93201 0.43160
 H1600 H 0.36614 0.93838 0.43800
 C1601 C 0.29802 0.91474 0.41424
 C1602 C 0.65253 1.06809 0.43174
 H1603 H 0.63340 1.06176 0.43807
 C1604 C 0.70166 1.08528 0.41460
 C1605 C 0.43178 0.84696 0.43142
 H1606 H 0.43835 0.86592 0.43801
 C1607 C 0.41401 0.79828 0.41357
 C1608 C 0.56780 1.15288 0.43182
 H1609 H 0.56138 1.13381 0.43825
 C1610 C 0.58519 1.20183 0.41439
 C1611 C 0.43194 1.06797 0.34680
 H1612 H 0.43833 1.06161 0.36592
 C1613 C 0.41459 1.08521 0.29771
 C1614 C 0.56782 0.93205 0.34671
 H1615 H 0.56131 0.93854 0.36575
 C1616 C 0.58545 0.91445 0.29784
 C1617 C 0.56791 0.84711 0.43160
 H1618 H 0.56145 0.86616 0.43805
 C1619 C 0.58541 0.79818 0.41412
 C1620 C 0.43177 1.15288 0.43176
 H1621 H 0.43827 1.13385 0.43824
 C1622 C 0.41415 1.20173 0.41419
 C1623 C 0.34705 1.06813 0.43157
 H1624 H 0.36603 1.06157 0.43816
 C1625 C 0.29834 1.08588 0.41371
 C1626 C 0.65257 0.93205 0.43154
 H1627 H 0.63353 0.93852 0.43802
 C1628 C 0.70146 0.91453 0.41398
 O1629 O 0.52512 0.90588 0.62966
 O1630 O 0.52519 0.87557 0.66019
 C1631 C 0.53403 0.89679 0.65093
 C1632 C 0.55527 0.91077 0.66466
 C1633 C 0.56398 0.90232 0.68925
 H1634 H 0.55449 0.88590 0.69853
 O1635 O 0.47460 1.09403 0.62989
 O1636 O 0.47452 1.12437 0.66040
 C1637 C 0.46568 1.10314 0.65114
 C1638 C 0.44439 1.08922 0.66483
 C1639 C 0.43563 1.09776 0.68936
 H1640 H 0.44516 1.11418 0.69862
 O1641 O 0.36996 1.02560 0.59403
 O1642 O 0.33946 1.02558 0.62437
 C1643 C 0.34870 1.03448 0.60316
 C1644 C 0.33499 1.05579 0.58925
 C1645 C 0.31057 1.06471 0.59792
 H1646 H 0.30139 1.05532 0.61447
 O1647 O 0.62961 0.97464 0.59403
 O1648 O 0.66012 0.97449 0.62436
 C1649 C 0.65085 0.96568 0.60311
 C1650 C 0.66455 0.94443 0.58910
 C1651 C 0.68911 0.93568 0.59757
 H1652 H 0.69837 0.94515 0.61403
 O1653 O 0.59393 0.87022 0.52512
 O1654 O 0.62429 0.83975 0.52517
 C1655 C 0.60307 0.84899 0.53404
 C1656 C 0.58912 0.83528 0.55534
 C1657 C 0.59762 0.81075 0.56409
 H1658 H 0.61407 0.80148 0.55460
 O1659 O 0.40564 1.12982 0.52535
 O1660 O 0.37533 1.16034 0.52537
 C1661 C 0.39652 1.15106 0.53428
 C1662 C 0.41044 1.16471 0.55565
 C1663 C 0.40185 1.18918 0.56454
 H1664 H 0.38536 1.19842 0.55510
 O1665 O 0.40570 0.97468 0.62971
 O1666 O 0.37534 0.97462 0.66020
 C1667 C 0.39656 0.96575 0.65095
 C1668 C 0.41045 0.94443 0.66464
 C1669 C 0.40187 0.93563 0.68914
 H1670 H 0.38542 0.94514 0.69838
 O1671 O 0.59406 1.02556 0.62992
 O1672 O 0.62443 1.02545 0.66040
 C1673 C 0.60324 1.03442 0.65117
 C1674 C 0.58944 1.05581 0.66489
 C1675 C 0.59826 1.06480 0.68924
 H1676 H 0.61482 1.05538 0.69838
 O1677 O 0.47432 0.87008 0.59393
 O1678 O 0.47433 0.83958 0.62427
 C1679 C 0.46545 0.84882 0.60304
 C1680 C 0.44420 0.83511 0.58905
 C1681 C 0.43539 0.81060 0.59756
 H1682 H 0.44481 0.80135 0.61407
 O1683 O 0.52535 1.12986 0.59416
 O1684 O 0.52530 1.16037 0.62450
 C1685 C 0.53419 1.15113 0.60327
 C1686 C 0.55545 1.16485 0.58933
 C1687 C 0.56423 1.18934 0.59791
 H1688 H 0.55476 1.19855 0.61440
 O1689 O 0.37020 0.90584 0.52503
 O1690 O 0.33965 0.87559 0.52509
 C1691 C 0.34894 0.89679 0.53395
 C1692 C 0.33524 0.91080 0.55523
 C1693 C 0.31066 0.90238 0.56392
 H1694 H 0.30139 0.88596 0.55442
 O1695 O 0.62970 1.09423 0.52540
 O1696 O 0.66019 1.12454 0.52541
 C1697 C 0.65095 1.10333 0.53430
 C1698 C 0.66465 1.08939 0.55562
 C1699 C 0.68913 1.09792 0.56448
 H1700 H 0.69837 1.11441 0.55506
 O1701 O 0.52548 1.09428 0.63005
 O1702 O 0.52546 1.12463 0.66054
 C1703 C 0.53439 1.10344 0.65130
 C1704 C 0.55579 1.08958 0.66496
 C1705 C 0.56488 1.09831 0.68932
 H1706 H 0.55557 1.11489 0.69853
 O1707 O 0.47426 0.90580 0.62968
 O1708 O 0.47426 0.87548 0.66020
 C1709 C 0.46537 0.89669 0.65095
 C1710 C 0.44408 0.91064 0.66465
 C1711 C 0.43522 0.90210 0.68916
 H1712 H 0.44463 0.88560 0.69841
 O1713 O 0.62965 1.02550 0.59407
 O1714 O 0.66018 1.02539 0.62440
 C1715 C 0.65092 1.03433 0.60320
 C1716 C 0.66463 1.05563 0.58929
 C1717 C 0.68911 1.06443 0.59789
 H1718 H 0.69834 1.05494 0.61437
 O1719 O 0.37012 0.97473 0.59385
 O1720 O 0.33958 0.97467 0.62416
 C1721 C 0.34887 0.96581 0.60293
 C1722 C 0.33520 0.94454 0.58893
 C1723 C 0.31062 0.93585 0.59735
 H1724 H 0.30132 0.94538 0.61376
 O1725 O 0.59397 1.12996 0.52541
 O1726 O 0.62430 1.16044 0.52540
 C1727 C 0.60309 1.15120 0.53430
 C1728 C 0.58916 1.16490 0.55561
 C1729 C 0.59768 1.18939 0.56446
 H1730 H 0.61415 1.19864 0.55502
 O1731 O 0.40583 0.87003 0.52498
 O1732 O 0.37545 0.83960 0.52504
 C1733 C 0.39668 0.84881 0.53390
 C1734 C 0.41059 0.83511 0.55522
 C1735 C 0.40205 0.81061 0.56400
 H1736 H 0.38562 0.80137 0.55447
 O1737 O 0.59383 0.97468 0.62973
 O1738 O 0.62418 0.97453 0.66024
 C1739 C 0.60294 0.96573 0.65098
 C1740 C 0.58896 0.94447 0.66468
 C1741 C 0.59739 0.93576 0.68927
 H1742 H 0.61381 0.94527 0.69856
 O1743 O 0.40572 1.02554 0.62977
 O1744 O 0.37538 1.02554 0.66028
 C1745 C 0.39661 1.03441 0.65105
 C1746 C 0.41058 1.05565 0.66480
 C1747 C 0.40207 1.06447 0.68934
 H1748 H 0.38558 1.05507 0.69859
 O1749 O 0.47447 1.12979 0.59420
 O1750 O 0.47438 1.16029 0.62455
 C1751 C 0.46551 1.15102 0.60332
 C1752 C 0.44416 1.16468 0.58939
 C1753 C 0.43530 1.18914 0.59800
 H1754 H 0.44475 1.19836 0.61449
 O1755 O 0.52518 0.87019 0.59391
 O1756 O 0.52526 0.83968 0.62425
 C1757 C 0.53411 0.84895 0.60302
 C1758 C 0.55541 0.83527 0.58906
 C1759 C 0.56418 0.81073 0.59754
 H1760 H 0.55469 0.80146 0.61399
 O1761 O 0.62963 0.90593 0.52511
 O1762 O 0.66017 0.87563 0.52515
 C1763 C 0.65089 0.89684 0.53402
 C1764 C 0.66458 0.91078 0.55532
 C1765 C 0.68913 0.90230 0.56406
 H1766 H 0.69841 0.88589 0.55454
 O1767 O 0.36985 1.09419 0.52524
 O1768 O 0.33937 1.12455 0.52525
 C1769 C 0.34861 1.10333 0.53414
 C1770 C 0.33493 1.08944 0.55548
 C1771 C 0.31052 1.09811 0.56442
 H1772 H 0.30130 1.11462 0.55500
 Cu1773 Cu 0.49971 0.89103 0.60875
 Cu1774 Cu 0.49977 0.85452 0.64529
 Cu1775 Cu 0.49999 1.10895 0.60904
 Cu1776 Cu 0.49990 1.14547 0.64555
 Cu1777 Cu 0.39101 0.89093 0.49954
 Cu1778 Cu 0.35443 0.85452 0.49959
 Cu1779 Cu 0.60875 0.89109 0.49965
 Cu1780 Cu 0.64530 0.85461 0.49968
 Cu1781 Cu 0.39081 1.10898 0.49983
 Cu1782 Cu 0.35433 1.14552 0.49981
 Cu1783 Cu 0.60875 1.10903 0.49996
 Cu1784 Cu 0.64527 1.14551 0.49991
 Cu1785 Cu 0.39092 1.00016 0.60880
 Cu1786 Cu 0.35438 1.00010 0.64531
 Cu1787 Cu 0.60874 1.00010 0.60890
 Cu1788 Cu 0.64528 0.99994 0.64541
 C1789 C 0.56773 0.93201 0.65267
 H1790 H 0.56135 0.93840 0.63355
 C1791 C 0.58503 0.91470 0.70176
 C1792 C 0.43190 1.06800 0.65285
 H1793 H 0.43834 1.06155 0.63378
 C1794 C 0.41448 1.08552 0.70182
 C1795 C 0.34687 1.06812 0.56786
 H1796 H 0.36585 1.06157 0.56130
 C1797 C 0.29814 1.08588 0.58565
 C1798 C 0.65258 0.93201 0.56782
 H1799 H 0.63349 0.93843 0.56141
 C1800 C 0.70160 0.91463 0.58518
 C1801 C 0.56786 0.84725 0.56780
 H1802 H 0.56143 0.86633 0.56138
 C1803 C 0.58527 0.79827 0.58519
 C1804 C 0.43176 1.15276 0.56806
 H1805 H 0.43826 1.13374 0.56154
 C1806 C 0.41415 1.20159 0.58571
 C1807 C 0.43172 0.93196 0.65269
 H1808 H 0.43821 0.93843 0.63364
 C1809 C 0.41412 0.91447 0.70160
 C1810 C 0.56805 1.06817 0.65306
 H1811 H 0.56138 1.06156 0.63412
 C1812 C 0.58613 1.08605 0.70166
 C1813 C 0.43183 0.84706 0.56771
 H1814 H 0.43829 0.86611 0.56127
 C1815 C 0.41431 0.79815 0.58516
 C1816 C 0.56788 1.15293 0.56802
 H1817 H 0.56143 1.13389 0.56153
 C1818 C 0.58534 1.20180 0.58561
 C1819 C 0.34722 0.93204 0.56770
 H1820 H 0.36633 0.93841 0.56133
 C1821 C 0.29815 0.91479 0.58497
 C1822 C 0.65270 1.06808 0.56800
 H1823 H 0.63367 1.06162 0.56149
 C1824 C 0.70156 1.08557 0.58562
 O1825 O 0.47460 0.40574 0.87041
 O1826 O 0.47456 0.37542 0.83988
 C1827 C 0.46570 0.39664 0.84914
 C1828 C 0.44442 0.41059 0.83542
 C1829 C 0.43568 0.40203 0.81090
 H1830 H 0.44519 0.38558 0.80168
 O1831 O 0.52525 0.59404 0.87039
 O1832 O 0.52531 0.62434 0.83985
 C1833 C 0.53417 0.60312 0.84913
 C1834 C 0.55544 0.58914 0.83543
 C1835 C 0.56419 0.59761 0.81087
 H1836 H 0.55471 0.61406 0.80160
 O1837 O 0.37005 0.47463 0.90597
 O1838 O 0.33957 0.47462 0.87560
 C1839 C 0.34880 0.46577 0.89685
 C1840 C 0.33506 0.44453 0.91081
 C1841 C 0.31054 0.43580 0.90228
 H1842 H 0.30130 0.44530 0.88581
 O1843 O 0.62976 0.52511 0.90607
 O1844 O 0.66023 0.52521 0.87571
 C1845 C 0.65099 0.53404 0.89695
 C1846 C 0.66465 0.55534 0.91092
 C1847 C 0.68919 0.56410 0.90246
 H1848 H 0.69850 0.55460 0.88603
 O1849 O 0.40563 0.37012 0.97460
 O1850 O 0.37529 0.33967 0.97459
 C1851 C 0.39650 0.34888 0.96569
 C1852 C 0.41041 0.33516 0.94437
 C1853 C 0.40178 0.31072 0.93548
 H1854 H 0.38525 0.30154 0.94488
 O1855 O 0.59389 0.62974 0.97479
 O1856 O 0.62423 0.66021 0.97479
 C1857 C 0.60300 0.65099 0.96591
 C1858 C 0.58906 0.66473 0.94464
 C1859 C 0.59753 0.68928 0.93592
 H1860 H 0.61396 0.69852 0.94544
 O1861 O 0.40584 0.52539 0.87020
 O1862 O 0.37553 0.52540 0.83965
 C1863 C 0.39674 0.53426 0.84891
 C1864 C 0.41066 0.55553 0.83519
 C1865 C 0.40214 0.56427 0.81065
 H1866 H 0.38572 0.55476 0.80139
 O1867 O 0.59409 0.47426 0.87026
 O1868 O 0.62439 0.47431 0.83972
 C1869 C 0.60320 0.46539 0.84898
 C1870 C 0.58932 0.44406 0.83528
 C1871 C 0.59795 0.43519 0.81082
 H1872 H 0.61442 0.44463 0.80159
 O1873 O 0.52543 0.36988 0.90611
 O1874 O 0.52543 0.33940 0.87574
 C1875 C 0.53432 0.34863 0.89698
 C1876 C 0.55564 0.33493 0.91089
 C1877 C 0.56455 0.31051 0.90221
 H1878 H 0.55513 0.30132 0.88568
 O1879 O 0.47434 0.62984 0.90601
 O1880 O 0.47433 0.66033 0.87565
 C1881 C 0.46545 0.65109 0.89688
 C1882 C 0.44417 0.66481 0.91084
 C1883 C 0.43530 0.68929 0.90229
 H1884 H 0.44470 0.69853 0.88577
 O1885 O 0.37007 0.59422 0.97480
 O1886 O 0.33955 0.62453 0.97477
 C1887 C 0.34883 0.60334 0.96586
 C1888 C 0.33518 0.58945 0.94448
 C1889 C 0.31073 0.59806 0.93559
 H1890 H 0.30149 0.61454 0.94504
 O1891 O 0.63000 0.40548 0.97467
 O1892 O 0.66048 0.37512 0.97467
 C1893 C 0.65123 0.39632 0.96574
 C1894 C 0.66487 0.41018 0.94432
 C1895 C 0.68922 0.40146 0.93523
 H1896 H 0.69843 0.38490 0.94456
 O1897 O 0.47439 0.59416 0.87022
 O1898 O 0.47439 0.62446 0.83968
 C1899 C 0.46552 0.60326 0.84893
 C1900 C 0.44428 0.58929 0.83520
 C1901 C 0.43549 0.59777 0.81064
 H1902 H 0.44492 0.61424 0.80138
 O1903 O 0.52548 0.40552 0.87028
 O1904 O 0.52548 0.37521 0.83975
 C1905 C 0.53437 0.39641 0.84901
 C1906 C 0.55568 0.41032 0.83530
 C1907 C 0.56457 0.40170 0.81083
 H1908 H 0.55517 0.38519 0.80161
 O1909 O 0.62983 0.47421 0.90599
 O1910 O 0.66028 0.47427 0.87560
 C1911 C 0.65106 0.46533 0.89681
 C1912 C 0.66476 0.44395 0.91064
 C1913 C 0.68911 0.43496 0.90183
 H1914 H 0.69824 0.44438 0.88526
 O1915 O 0.37013 0.52550 0.90594
 O1916 O 0.33966 0.52554 0.87556
 C1917 C 0.34890 0.53443 0.89679
 C1918 C 0.33522 0.55577 0.91071
 C1919 C 0.31077 0.56466 0.90208
 H1920 H 0.30155 0.55525 0.88557
 O1921 O 0.40580 0.62989 0.97490
 O1922 O 0.37544 0.66037 0.97487
 C1923 C 0.39666 0.65113 0.96599
 C1924 C 0.41056 0.66482 0.94466
 C1925 C 0.40197 0.68930 0.93585
 H1926 H 0.38552 0.69853 0.94536
 O1927 O 0.59421 0.36985 0.97479
 O1928 O 0.62452 0.33933 0.97480
 C1929 C 0.60331 0.34859 0.96591
 C1930 C 0.58937 0.33490 0.94459
 C1931 C 0.59802 0.31048 0.93565
 H1932 H 0.61455 0.30127 0.94504
 O1933 O 0.59399 0.52515 0.87036
 O1934 O 0.62430 0.52524 0.83982
 C1935 C 0.60308 0.53409 0.84910
 C1936 C 0.58912 0.55539 0.83542
 C1937 C 0.59759 0.56413 0.81085
 H1938 H 0.61402 0.55462 0.80157
 O1939 O 0.40581 0.47452 0.87027
 O1940 O 0.37551 0.47448 0.83972
 C1941 C 0.39672 0.46559 0.84900
 C1942 C 0.41068 0.44427 0.83534
 C1943 C 0.40219 0.43543 0.81080
 H1944 H 0.38573 0.44486 0.80150
 O1945 O 0.52520 0.62985 0.90603
 O1946 O 0.52526 0.66034 0.87567
 C1947 C 0.53411 0.65109 0.89691
 C1948 C 0.55537 0.66478 0.91090
 C1949 C 0.56410 0.68933 0.90245
 H1950 H 0.55461 0.69861 0.88600
 O1951 O 0.47453 0.36989 0.90601
 O1952 O 0.47449 0.33941 0.87564
 C1953 C 0.46559 0.34868 0.89686
 C1954 C 0.44421 0.33505 0.91074
 C1955 C 0.43531 0.31061 0.90211
 H1956 H 0.44478 0.30135 0.88564
 O1957 O 0.62957 0.59397 0.97477
 O1958 O 0.66008 0.62427 0.97475
 C1959 C 0.65083 0.60306 0.96587
 C1960 C 0.66456 0.58909 0.94460
 C1961 C 0.68910 0.59757 0.93588
 H1962 H 0.69833 0.61402 0.94537
 O1963 O 0.36999 0.40595 0.97469
 O1964 O 0.33948 0.37565 0.97467
 C1965 C 0.34872 0.39686 0.96580
 C1966 C 0.33502 0.41083 0.94452
 C1967 C 0.31049 0.40236 0.93573
 H1968 H 0.30122 0.38592 0.94520
 Cu1969 Cu 0.50002 0.39079 0.89126
 Cu1970 Cu 0.49999 0.35431 0.85470
 Cu1971 Cu 0.49978 0.60894 0.89120
 Cu1972 Cu 0.49983 0.64542 0.85465
 Cu1973 Cu 0.39100 0.50001 0.89114
 Cu1974 Cu 0.35451 0.50001 0.85457
 Cu1975 Cu 0.60888 0.49968 0.89122
 Cu1976 Cu 0.64535 0.49977 0.85465
 C1977 C 0.43196 0.43187 0.84735
 H1978 H 0.43838 0.43834 0.86642
 C1979 C 0.41457 0.41431 0.79838
 C1980 C 0.56788 0.56786 0.84741
 H1981 H 0.56146 0.56145 0.86651
 C1982 C 0.58526 0.58523 0.79838
 C1983 C 0.34700 0.43208 0.93209
 H1984 H 0.36607 0.43849 0.93854
 C1985 C 0.29805 0.41472 0.91461
 C1986 C 0.65263 0.56781 0.93215
 H1987 H 0.63355 0.56139 0.93856
 C1988 C 0.70162 0.58520 0.91481
 C1989 C 0.43179 0.34702 0.93203
 H1990 H 0.43832 0.36602 0.93855
 C1991 C 0.41410 0.29824 0.91435
 C1992 C 0.56781 0.65278 0.93215
 H1993 H 0.56140 0.63369 0.93855
 C1994 C 0.58518 0.70178 0.91484
 C1995 C 0.43189 0.56800 0.84717
 H1996 H 0.43833 0.56158 0.86626
 C1997 C 0.41442 0.58538 0.79817
 C1998 C 0.56803 0.43165 0.84723
 H1999 H 0.56151 0.43817 0.86625
 C2000 C 0.58571 0.41401 0.79839
 C2001 C 0.56802 0.34682 0.93224
 H2002 H 0.56148 0.36581 0.93880
 C2003 C 0.58575 0.29809 0.91445
 C2004 C 0.43182 0.65287 0.93219
 H2005 H 0.43831 0.63383 0.93866
 C2006 C 0.41420 0.70173 0.91467
 C2007 C 0.34713 0.56814 0.93207
 H2008 H 0.36614 0.56162 0.93860
 C2009 C 0.29832 0.58581 0.91439
 C2010 C 0.65294 0.43158 0.93204
 H2011 H 0.63401 0.43819 0.93870
 C2012 C 0.70154 0.41372 0.91397
 O2013 O 0.52526 0.40575 1.13030
 O2014 O 0.52528 0.37541 1.16080
 C2015 C 0.53416 0.39662 1.15156
 C2016 C 0.55548 0.41053 1.16526
 C2017 C 0.56434 0.40197 1.18975
 H2018 H 0.55489 0.38551 1.19902
 O2019 O 0.47439 0.59401 1.13025
 O2020 O 0.47443 0.62431 1.16079
 C2021 C 0.46552 0.60312 1.15152
 C2022 C 0.44420 0.58925 1.16523
 C2023 C 0.43530 0.59796 1.18965
 H2024 H 0.44475 0.61447 1.19883
 O2025 O 0.37000 0.52539 1.09452
 O2026 O 0.33948 0.52544 1.12485
 C2027 C 0.34875 0.53431 1.10362
 C2028 C 0.33508 0.55562 1.08968
 C2029 C 0.31063 0.56453 1.09828
 H2030 H 0.30140 0.55513 1.11479
 O2031 O 0.62983 0.47428 1.09447
 O2032 O 0.66033 0.47427 1.12483
 C2033 C 0.65109 0.46538 1.10360
 C2034 C 0.66480 0.44408 1.08967
 C2035 C 0.68925 0.43519 1.09830
 H2036 H 0.69845 0.44458 1.11484
 O2037 O 0.59424 0.36995 1.02572
 O2038 O 0.62455 0.33943 1.02580
 C2039 C 0.60335 0.34873 1.03469
 C2040 C 0.58945 0.33510 1.05608
 C2041 C 0.59812 0.31071 1.06508
 H2042 H 0.61465 0.30149 1.05570
 O2043 O 0.40566 0.62994 1.02583
 O2044 O 0.37530 0.66042 1.02585
 C2045 C 0.39651 0.65117 1.03476
 C2046 C 0.41039 0.66483 1.05615
 C2047 C 0.40173 0.68923 1.06513
 H2048 H 0.38521 0.69846 1.05573
 O2049 O 0.40570 0.47447 1.13026
 O2050 O 0.37534 0.47447 1.16075
 C2051 C 0.39655 0.46556 1.15150
 C2052 C 0.41041 0.44419 1.16518
 C2053 C 0.40168 0.43525 1.18958
 H2054 H 0.38516 0.44469 1.19876
 O2055 O 0.59407 0.52520 1.13016
 O2056 O 0.62442 0.52525 1.16067
 C2057 C 0.60320 0.53413 1.15141
 C2058 C 0.58928 0.55545 1.16511
 C2059 C 0.59789 0.56431 1.18958
 H2060 H 0.61439 0.55487 1.19881
 O2061 O 0.47449 0.37005 1.09443
 O2062 O 0.47444 0.33950 1.12472
 C2063 C 0.46559 0.34878 1.10349
 C2064 C 0.44434 0.33511 1.08945
 C2065 C 0.43557 0.31055 1.09784
 H2066 H 0.44502 0.30122 1.11428
 O2067 O 0.52522 0.62974 1.09449
 O2068 O 0.52529 0.66021 1.12487
 C2069 C 0.53414 0.65097 1.10362
 C2070 C 0.55542 0.66467 1.08966
 C2071 C 0.56421 0.68916 1.09821
 H2072 H 0.55474 0.69841 1.11468
 O2073 O 0.37000 0.40586 1.02561
 O2074 O 0.33951 0.37555 1.02564
 C2075 C 0.34876 0.39675 1.03454
 C2076 C 0.33507 0.41066 1.05588
 C2077 C 0.31059 0.40209 1.06470
 H2078 H 0.30136 0.38563 1.05521
 O2079 O 0.62958 0.59394 1.02567
 O2080 O 0.66010 0.62423 1.02569
 C2081 C 0.65085 0.60301 1.03455
 C2082 C 0.66460 0.58903 1.05580
 C2083 C 0.68917 0.59747 1.06445
 H2084 H 0.69842 0.61389 1.05492
 O2085 O 0.52529 0.59400 1.13021
 O2086 O 0.52536 0.62430 1.16075
 C2087 C 0.53423 0.60309 1.15147
 C2088 C 0.55556 0.58916 1.16514
 C2089 C 0.56444 0.59774 1.18961
 H2090 H 0.55501 0.61423 1.19886
 O2091 O 0.47437 0.40566 1.13030
 O2092 O 0.47431 0.37529 1.16078
 C2093 C 0.46543 0.39651 1.15154
 C2094 C 0.44406 0.41041 1.16521
 C2095 C 0.43505 0.40174 1.18962
 H2096 H 0.44440 0.38518 1.19884
 O2097 O 0.62978 0.52515 1.09440
 O2098 O 0.66029 0.52519 1.12474
 C2099 C 0.65103 0.53405 1.10350
 C2100 C 0.66470 0.55532 1.08951
 C2101 C 0.68929 0.56403 1.09791
 H2102 H 0.69861 0.55453 1.11432
 O2103 O 0.36997 0.47452 1.09453
 O2104 O 0.33944 0.47451 1.12484
 C2105 C 0.34871 0.46563 1.10362
 C2106 C 0.33504 0.44433 1.08966
 C2107 C 0.31055 0.43548 1.09820
 H2108 H 0.30130 0.44492 1.11469
 O2109 O 0.59391 0.62972 1.02571
 O2110 O 0.62426 0.66018 1.02574
 C2111 C 0.60304 0.65095 1.03462
 C2112 C 0.58911 0.66465 1.05594
 C2113 C 0.59765 0.68915 1.06475
 H2114 H 0.61411 0.69840 1.05527
 O2115 O 0.40582 0.37024 1.02551
 O2116 O 0.37550 0.33976 1.02554
 C2117 C 0.39673 0.34899 1.03440
 C2118 C 0.41069 0.33524 1.05566
 C2119 C 0.40220 0.31069 1.06431
 H2120 H 0.38578 0.30147 1.05474
 O2121 O 0.59406 0.47432 1.13018
 O2122 O 0.62439 0.47432 1.16071
 C2123 C 0.60318 0.46544 1.15146
 C2124 C 0.58924 0.44417 1.16519
 C2125 C 0.59782 0.43535 1.18969
 H2126 H 0.61432 0.44477 1.19890
 O2127 O 0.40565 0.52536 1.13036
 O2128 O 0.37530 0.52542 1.16085
 C2129 C 0.39652 0.53429 1.15161
 C2130 C 0.41044 0.55561 1.16529
 C2131 C 0.40181 0.56460 1.18973
 H2132 H 0.38527 0.55526 1.19896
 O2133 O 0.47434 0.62981 1.09459
 O2134 O 0.47437 0.66027 1.12497
 C2135 C 0.46545 0.65105 1.10375
 C2136 C 0.44410 0.66476 1.08988
 C2137 C 0.43518 0.68916 1.09859
 H2138 H 0.44460 0.69833 1.11513
 O2139 O 0.52539 0.37006 1.09454
 O2140 O 0.52539 0.33954 1.12487
 C2141 C 0.53431 0.34882 1.10367
 C2142 C 0.55570 0.33515 1.08979
 C2143 C 0.56465 0.31076 1.09851
 H2144 H 0.55523 0.30158 1.11504
 O2145 O 0.62996 0.40564 1.02561
 O2146 O 0.66044 0.37529 1.02568
 C2147 C 0.65119 0.39652 1.03454
 C2148 C 0.66486 0.41043 1.05588
 C2149 C 0.68930 0.40181 1.06478
 H2150 H 0.69853 0.38533 1.05533
 O2151 O 0.37006 0.59412 1.02573
 O2152 O 0.33954 0.62444 1.02574
 C2153 C 0.34880 0.60323 1.03462
 C2154 C 0.33511 0.58931 1.05593
 C2155 C 0.31066 0.59794 1.06479
 H2156 H 0.30145 0.61444 1.05534
 Cu2157 Cu 0.49987 0.39092 1.10936
 Cu2158 Cu 0.49985 0.35438 1.14584
 Cu2159 Cu 0.49981 0.60885 1.10934
 Cu2160 Cu 0.49987 0.64532 1.14591
 Cu2161 Cu 0.39090 0.39109 1.00009
 Cu2162 Cu 0.35439 0.35461 1.00012
 Cu2163 Cu 0.60907 0.39078 1.00019
 Cu2164 Cu 0.64555 0.35424 1.00024
 Cu2165 Cu 0.39094 0.60901 1.00032
 Cu2166 Cu 0.35440 0.64549 1.00030
 Cu2167 Cu 0.60869 0.60881 1.00023
 Cu2168 Cu 0.64522 0.64527 1.00024
 Cu2169 Cu 0.39087 0.49994 1.10938
 Cu2170 Cu 0.35434 0.49996 1.14588
 Cu2171 Cu 0.60890 0.49973 1.10926
 Cu2172 Cu 0.64541 0.49976 1.14580
 C2173 C 0.56791 0.43180 1.15327
 H2174 H 0.56141 0.43828 1.13423
 C2175 C 0.58551 0.41425 1.20217
 C2176 C 0.43180 0.56792 1.15335
 H2177 H 0.43833 0.56134 1.13435
 C2178 C 0.41411 0.58578 1.20210
 C2179 C 0.34702 0.56799 1.06834
 H2180 H 0.36604 0.56146 1.06184
 C2181 C 0.29823 0.58570 1.08597
 C2182 C 0.65291 0.43173 1.06830
 H2183 H 0.63390 0.43825 1.06176
 C2184 C 0.70170 0.41405 1.08599
 C2185 C 0.56808 0.34703 1.06842
 H2186 H 0.56151 0.36600 1.06182
 C2187 C 0.58586 0.29834 1.08630
 C2188 C 0.43173 0.65289 1.06850
 H2189 H 0.43829 0.63391 1.06191
 C2190 C 0.41399 0.70160 1.08635
 C2191 C 0.43175 0.43180 1.15329
 H2192 H 0.43836 0.43837 1.13432
 C2193 C 0.41385 0.41403 1.20200
 C2194 C 0.56795 0.56785 1.15318
 H2195 H 0.56143 0.56135 1.13415
 C2196 C 0.58561 0.58545 1.20203
 C2197 C 0.43192 0.34717 1.06819
 H2198 H 0.43834 0.36626 1.06184
 C2199 C 0.41450 0.29814 1.08538
 C2200 C 0.56784 0.65271 1.06837
 H2201 H 0.56138 0.63366 1.06190
 C2202 C 0.58532 0.70161 1.08588
 C2203 C 0.34700 0.43194 1.06834
 H2204 H 0.36603 0.43842 1.06186
 C2205 C 0.29812 0.41437 1.08585
 C2206 C 0.65265 0.56779 1.06829
 H2207 H 0.63354 0.56141 1.06193
 C2208 C 0.70173 0.58510 1.08549
 N2209 N 1.09388 1.12550 1.26179
 C2210 C 1.11490 1.11421 1.27336
 N2211 N 1.12623 1.09340 1.26148
 N2212 N 1.11700 1.08436 1.23893
 C2213 C 1.09607 1.09572 1.22727
 N2214 N 1.08468 1.11645 1.23923
 N2215 N 1.09310 0.62453 0.76202
 C2216 C 1.11398 0.61314 0.77367
 N2217 N 1.12542 0.59239 0.76184
 N2218 N 1.11638 0.58347 0.73916
 C2219 C 1.09556 0.59490 0.72738
 N2220 N 1.08408 0.61559 0.73934
 N2221 N 0.59406 1.12575 0.76149
 C2222 C 0.61513 1.11451 0.77301
 N2223 N 0.62642 1.09367 0.76115
 N2224 N 0.61711 1.08456 0.73865
 C2225 C 0.59612 1.09586 0.72705
 N2226 N 0.58477 1.11662 0.73899
 N2227 N 0.62522 0.59277 1.26199
 C2228 C 0.61387 0.61364 1.27375
 N2229 N 0.59298 0.62499 1.26203
 N2230 N 0.58392 0.61593 1.23941
 C2231 C 0.59533 0.59515 1.22755
 N2232 N 0.61613 0.58373 1.23938
 N2233 N 0.87464 0.90685 1.26175
 C2234 C 0.88596 0.88595 1.27348
 N2235 N 0.90686 0.87463 1.26175
 N2236 N 0.91594 0.88374 1.23916
 C2237 C 0.90455 0.90455 1.22734
 N2238 N 0.88374 0.91594 1.23917
 N2239 N 0.90595 0.37425 0.76171
 C2240 C 0.88487 0.38549 0.77321
 N2241 N 0.87359 0.40634 0.76135
 N2242 N 0.88293 0.41546 0.73887
 C2243 C 0.90393 0.40416 0.72728
 N2244 N 0.91527 0.38339 0.73923
 N2245 N 0.37451 0.90742 0.76157
 C2246 C 0.38590 0.88666 0.77341
 N2247 N 0.40677 0.87524 0.76178
 N2248 N 0.41584 0.88418 0.73912
 C2249 C 0.40441 0.90489 0.72715
 N2250 N 0.38359 0.91635 0.73891
 N2251 N 0.37377 0.40657 1.26162
 C2252 C 0.38508 0.38574 1.27348
 N2253 N 0.40611 0.37446 1.26193
 N2254 N 0.41533 0.38354 1.23939
 C2255 C 0.40396 0.40429 1.22743
 N2256 N 0.38302 0.41563 1.23908
 N2257 N 0.90686 1.12529 0.73808
 C2258 C 0.88597 1.11397 0.72635
 N2259 N 0.87463 1.09311 0.73812
 N2260 N 0.88371 1.08406 0.76074
 C2261 C 0.90452 1.09545 0.77255
 N2262 N 0.91593 1.11622 0.76069
 N2263 N 0.87613 0.59169 0.23747
 C2264 C 0.88758 0.61245 0.22570
 N2265 N 0.90831 0.62393 0.23752
 N2266 N 0.91716 0.61505 0.26028
 C2267 C 0.90567 0.59434 0.27218
 N2268 N 0.88500 0.58282 0.26024
 N2269 N 0.37525 1.09199 0.23753
 C2270 C 0.38669 1.11269 0.22565
 N2271 N 0.40752 1.12415 0.23731
 N2272 N 0.41649 1.11530 0.26005
 C2273 C 0.40501 1.09466 0.27206
 N2274 N 0.38424 1.08316 0.26027
 N2275 N 0.40721 0.62452 0.73791
 C2276 C 0.38637 0.61309 0.72624
 N2277 N 0.37497 0.59234 0.73808
 N2278 N 0.38400 0.58344 0.76077
 C2279 C 0.40478 0.59492 0.77257
 N2280 N 0.41622 0.61561 0.76060
 N2281 N 1.12418 0.90814 0.73766
 C2282 C 1.11272 0.88739 0.72587
 N2283 N 1.09201 0.87589 0.73770
 N2284 N 1.08319 0.88473 0.76049
 C2285 C 1.09469 0.90542 0.77241
 N2286 N 1.11534 0.91697 0.76046
 N2287 N 1.12490 0.40791 0.23794
 C2288 C 1.11347 0.38721 0.22605
 N2289 N 1.09264 0.37575 0.23769
 N2290 N 1.08366 0.38459 0.26043
 C2291 C 1.09513 0.40524 0.27245
 N2292 N 1.11590 0.41674 0.26067
 N2293 N 0.62499 0.90713 0.23785
 C2294 C 0.61368 0.88624 0.22612
 N2295 N 0.59282 0.87489 0.23787
 N2296 N 0.58377 0.88396 0.26049
 C2297 C 0.59516 0.90476 0.27232
 N2298 N 0.61592 0.91618 0.26047
 N2299 N 0.59310 0.37451 0.73837
 C2300 C 0.61399 0.38585 0.72665
 N2301 N 0.62532 0.40670 0.73844
 N2302 N 0.61623 0.41573 0.76106
 C2303 C 0.59544 0.40431 0.77287
 N2304 N 0.58404 0.38355 0.76099
 N2305 N 1.26207 1.09289 1.12487
 C2306 C 1.27378 1.11376 1.11347
 N2307 N 1.26191 1.12517 1.09269
 N2308 N 1.23923 1.11618 1.08378
 C2309 C 1.22743 1.09540 1.09524
 N2310 N 1.23939 1.08392 1.11594
 N2311 N 1.26201 0.59295 0.62515
 C2312 C 1.27372 0.61382 0.61377
 N2313 N 1.26192 0.62517 0.59291
 N2314 N 1.23930 0.61611 0.58391
 C2315 C 1.22750 0.59533 0.59535
 N2316 N 1.23939 0.58391 0.61613
 N2317 N 0.76153 1.09265 0.62521
 C2318 C 0.77332 1.11343 0.61381
 N2319 N 0.76166 1.12484 0.59294
 N2320 N 0.73902 1.11589 0.58389
 C2321 C 0.72710 1.09516 0.59533
 N2322 N 0.73888 1.08371 0.61614
 N2323 N 0.76222 0.59196 1.12430
 C2324 C 0.77390 0.61275 1.11280
 N2325 N 0.76198 0.62424 1.09213
 N2326 N 0.73921 0.61535 1.08336
 C2327 C 0.72740 0.59461 1.09490
 N2328 N 0.73944 0.58308 1.11553
 N2329 N 1.26153 0.87462 0.90685
 C2330 C 1.27326 0.88595 0.88595
 N2331 N 1.26152 0.90682 0.87459
 N2332 N 1.23892 0.91589 0.88367
 C2333 C 1.22710 0.90450 0.90449
 N2334 N 1.23893 0.88371 0.91591
 N2335 N 1.26131 0.40646 0.37391
 C2336 C 1.27315 0.38561 0.38522
 N2337 N 1.26156 0.37431 0.40622
 N2338 N 1.23901 0.38338 0.41542
 C2339 C 1.22709 0.40414 0.40405
 N2340 N 1.23876 0.41551 0.38313
 N2341 N 0.76147 0.90738 0.37447
 C2342 C 0.77326 0.88660 0.38589
 N2343 N 0.76158 0.87520 0.40675
 N2344 N 0.73892 0.88418 0.41577
 C2345 C 0.72701 0.90492 0.40431
 N2346 N 0.73882 0.91635 0.38350
 N2347 N 0.76103 0.40618 0.87372
 C2348 C 0.77288 0.38532 0.88499
 N2349 N 0.76135 0.37404 0.90604
 N2350 N 0.73886 0.38315 0.91533
 C2351 C 0.72692 0.40393 0.90399
 N2352 N 0.73853 0.41527 0.88303
 N2353 N 0.73814 0.90761 1.12520
 C2354 C 0.72639 0.88682 1.11377
 N2355 N 0.73811 0.87541 1.09293
 N2356 N 0.76078 0.88438 1.08395
 C2357 C 0.77265 0.90511 1.09542
 N2358 N 0.76081 0.91656 1.11620
 N2359 N 0.73815 0.37526 0.59309
 C2360 C 0.72653 0.38665 0.61400
 N2361 N 0.73837 0.40739 0.62543
 N2362 N 0.76101 0.41631 0.61636
 C2363 C 0.77276 0.40488 0.59550
 N2364 N 0.76080 0.38420 0.58404
 N2365 N 0.23779 0.90804 0.62398
 C2366 C 0.22601 0.88729 0.61250
 N2367 N 0.23782 0.87579 0.59177
 N2368 N 0.26059 0.88463 0.58293
 C2369 C 0.27249 0.90532 0.59445
 N2370 N 0.26055 0.91687 0.61512
 N2371 N 0.23809 0.37494 1.09292
 C2372 C 0.22626 0.38632 1.11375
 N2373 N 0.23799 0.40716 1.12516
 N2374 N 0.26066 0.41615 1.11621
 C2375 C 0.27257 0.40471 1.09546
 N2376 N 0.26075 0.38395 1.08398
 N2377 N 0.73852 1.12583 0.90598
 C2378 C 0.72701 1.11457 0.88491
 N2379 N 0.73889 1.09374 0.87361
 N2380 N 0.76139 1.08466 0.88292
 C2381 C 0.77299 1.09599 0.90391
 N2382 N 0.76102 1.11673 0.91527
 N2383 N 0.73834 0.62447 0.40697
 C2384 C 0.72665 0.61305 0.38612
 N2385 N 0.73845 0.59229 0.37468
 N2386 N 0.76113 0.58336 0.38369
 C2387 C 0.77294 0.59481 0.40449
 N2388 N 0.76102 0.61552 0.41596
 N2389 N 0.23840 1.12542 0.40613
 C2390 C 0.22680 1.11416 0.38511
 N2391 N 0.23865 1.09335 0.37374
 N2392 N 0.26121 1.08429 0.38293
 C2393 C 0.27289 1.09562 0.40387
 N2394 N 0.26095 1.11635 0.41529
 N2395 N 0.23835 0.62535 0.90708
 C2396 C 0.22660 0.61400 0.88620
 N2397 N 0.23835 0.59313 0.87484
 N2398 N 0.26097 0.58410 0.88389
 C2399 C 0.27281 0.59551 0.90469
 N2400 N 0.26097 0.61630 0.91611
 N2401 N 1.09266 1.26239 1.12432
 C2402 C 1.11353 1.27398 1.11286
 N2403 N 1.12496 1.26205 1.09215
 N2404 N 1.11592 1.23935 1.08333
 C2405 C 1.09511 1.22764 1.09484
 N2406 N 1.08364 1.23969 1.11548
 N2407 N 1.12426 0.76218 0.59191
 C2408 C 1.11278 0.77400 0.61265
 N2409 N 1.09206 0.76221 0.62417
 N2410 N 1.08325 0.73942 0.61537
 C2411 C 1.09477 0.72748 0.59468
 N2412 N 1.11543 0.73939 0.58311
 N2413 N 0.59244 1.26172 0.62525
 C2414 C 0.61321 1.27353 0.61384
 N2415 N 0.62461 1.26190 0.59295
 N2416 N 0.61565 1.23927 0.58388
 C2417 C 0.59493 1.22733 0.59532
 N2418 N 0.58350 1.23909 0.61616
 N2419 N 0.62459 0.76173 1.09299
 C2420 C 0.61318 0.77346 1.11383
 N2421 N 0.59240 0.76169 1.12527
 N2422 N 0.58346 0.73902 1.11628
 C2423 C 0.59491 0.72717 1.09550
 N2424 N 0.61563 0.73906 1.08402
 N2425 N 0.87436 1.26144 0.90673
 C2426 C 0.88567 1.27312 0.88583
 N2427 N 0.90657 1.26146 0.87448
 N2428 N 0.91572 1.23893 0.88362
 C2429 C 0.90437 1.22712 0.90447
 N2430 N 0.88353 1.23890 0.91586
 N2431 N 0.87515 0.76161 0.40682
 C2432 C 0.88655 0.77327 0.38595
 N2433 N 0.90735 0.76148 0.37456
 N2434 N 0.91632 0.73884 0.38362
 C2435 C 0.90487 0.72705 0.40444
 N2436 N 0.88413 0.73896 0.41587
 N2437 N 0.40674 1.26168 0.37465
 C2438 C 0.38587 1.27335 0.38604
 N2439 N 0.37452 1.26163 0.40690
 N2440 N 0.38362 1.23903 0.41594
 C2441 C 0.40443 1.22723 0.40451
 N2442 N 0.41583 1.23908 0.38371
 N2443 N 0.40682 0.76184 0.87537
 C2444 C 0.38594 0.77347 0.88679
 N2445 N 0.37456 0.76166 0.90758
 N2446 N 0.38366 0.73902 0.91653
 C2447 C 0.40448 0.72727 0.90507
 N2448 N 0.41590 0.73921 0.88433
 N2449 N 1.09301 0.73806 0.87550
 C2450 C 1.11388 0.72643 0.88694
 N2451 N 1.12526 0.73828 0.90771
 N2452 N 1.11619 0.76093 0.91662
 C2453 C 1.09537 0.77269 0.90514
 N2454 N 1.08395 0.76072 0.88442
 N2455 N 1.09321 0.23812 0.37475
 C2456 C 1.11408 0.22643 0.38612
 N2457 N 1.12543 0.23812 0.40700
 N2458 N 1.11632 0.26070 0.41608
 C2459 C 1.09551 0.27252 0.40467
 N2460 N 1.08412 0.26070 0.38384
 N2461 N 0.62470 0.73804 0.40699
 C2462 C 0.61328 0.72632 0.38615
 N2463 N 0.59249 0.73810 0.37472
 N2464 N 0.58355 0.76078 0.38372
 C2465 C 0.59501 0.77261 0.40450
 N2466 N 0.61574 0.76071 0.41597
 N2467 N 0.59331 0.23839 0.87457
 C2468 C 0.61422 0.22671 0.88587
 N2469 N 0.62555 0.23835 0.90680
 N2470 N 0.61639 0.26086 0.91598
 C2471 C 0.59553 0.27267 0.90463
 N2472 N 0.58416 0.26090 0.88376
 N2473 N 0.90797 0.73786 1.12430
 C2474 C 0.88718 0.72616 1.11281
 N2475 N 0.87567 0.73806 1.09213
 N2476 N 0.88455 0.76083 1.08335
 C2477 C 0.90528 0.77265 1.09488
 N2478 N 0.91683 0.76063 1.11550
 N2479 N 0.90749 0.23833 0.62533
 C2480 C 0.88671 0.22657 0.61389
 N2481 N 0.87533 0.23827 0.59303
 N2482 N 0.88431 0.26092 0.58402
 C2483 C 0.90503 0.27280 0.59550
 N2484 N 0.91646 0.26098 0.61632
 N2485 N 0.40709 0.73797 0.62436
 C2486 C 0.38624 0.72633 0.61292
 N2487 N 0.37482 0.73817 0.59216
 N2488 N 0.38385 0.76083 0.58325
 C2489 C 0.40465 0.77259 0.59472
 N2490 N 0.41611 0.76063 0.61543
 N2491 N 0.40738 0.23768 1.12416
 C2492 C 0.38651 0.22611 1.11268
 N2493 N 0.37506 0.23808 1.09202
 N2494 N 0.38407 0.26081 1.08325
 C2495 C 0.40488 0.27251 1.09478
 N2496 N 0.41638 0.26041 1.11539
 N2497 N 1.09364 1.12648 0.73883
 C2498 C 1.11449 1.11519 0.72699
 N2499 N 1.12575 1.09414 0.73853
 N2500 N 1.11662 1.08487 0.76103
 C2501 C 1.09584 1.09622 0.77296
 N2502 N 1.08453 1.11719 0.76133
 N2503 N 1.09365 0.62628 0.23875
 C2504 C 1.11447 0.61499 0.22685
 N2505 N 1.12574 0.59393 0.23834
 N2506 N 1.11667 0.58465 0.26086
 C2507 C 1.09594 0.59600 0.27285
 N2508 N 1.08460 0.61698 0.26126
 N2509 N 0.62540 1.09393 0.23813
 C2510 C 0.61414 1.11494 0.22654
 N2511 N 0.59327 1.12625 0.23834
 N2512 N 0.58415 1.11701 0.26086
 C2513 C 0.59548 1.09608 0.27254
 N2514 N 0.61626 1.08471 0.26065
 N2515 N 0.62441 0.59216 0.73810
 C2516 C 0.61296 0.61294 0.72632
 N2517 N 0.59220 0.62440 0.73810
 N2518 N 0.58330 0.61549 0.76084
 C2519 C 0.59480 0.59477 0.77274
 N2520 N 0.61551 0.58327 0.76084
 N2521 N 0.90772 0.87550 0.73806
 C2522 C 0.88696 0.88696 0.72626
 N2523 N 0.87550 0.90774 0.73803
 N2524 N 0.88441 0.91664 0.76077
 C2525 C 0.90512 0.90515 0.77268
 N2526 N 0.91662 0.88442 0.76079
 N2527 N 0.90674 0.37356 0.23848
 C2528 C 0.88587 0.38488 0.22667
 N2529 N 0.87462 0.40589 0.23827
 N2530 N 0.88375 0.41510 0.26079
 C2531 C 0.90453 0.40372 0.27269
 N2532 N 0.91586 0.38280 0.26100
 N2533 N 0.40671 0.87398 0.23827
 C2534 C 0.38590 0.88530 0.22637
 N2535 N 0.37462 0.90634 0.23790
 N2536 N 0.38367 0.91556 0.26046
 C2537 C 0.40439 0.90417 0.27245
 N2538 N 0.41574 0.88322 0.26082
 N2539 N 0.37555 0.40701 0.73805
 C2540 C 0.38698 0.38611 0.72647
 N2541 N 0.40768 0.37469 0.73839
 N2542 N 0.41653 0.38377 0.76109
 C2543 C 0.40507 0.40461 0.77279
 N2544 N 0.38442 0.41607 0.76074
 N2545 N 1.12500 0.90726 1.26218
 C2546 C 1.11363 0.88638 1.27388
 N2547 N 1.09282 0.87502 1.26203
 N2548 N 1.08387 0.88408 1.23937
 C2549 C 1.09531 0.90487 1.22758
 N2550 N 1.11603 0.91630 1.23951
 N2551 N 1.12526 0.40713 0.76210
 C2552 C 1.11387 0.38628 0.77384
 N2553 N 1.09303 0.37494 0.76204
 N2554 N 1.08407 0.38398 0.73937
 C2555 C 1.09553 0.40474 0.72754
 N2556 N 1.11628 0.41615 0.73944
 N2557 N 0.62412 0.90788 0.76210
 C2558 C 0.61268 0.88712 0.77389
 N2559 N 0.59194 0.87564 0.76211
 N2560 N 0.58306 0.88451 0.73934
 C2561 C 0.59454 0.90521 0.72742
 N2562 N 0.61523 0.91673 0.73933
 N2563 N 0.62507 0.40702 1.26217
 C2564 C 0.61370 0.38620 1.27398
 N2565 N 0.59280 0.37487 1.26227
 N2566 N 0.58376 0.38388 1.23963
 C2567 C 0.59520 0.40460 1.22772
 N2568 N 0.61601 0.41601 1.23952
 N2569 N 0.87619 1.09175 1.26267
 C2570 C 0.88769 1.11243 1.27453
 N2571 N 0.90843 1.12393 1.26277
 N2572 N 0.91725 1.11515 1.23995
 C2573 C 0.90571 1.09452 1.22796
 N2574 N 0.88503 1.08298 1.23985
 N2575 N 0.90797 0.62428 0.76236
 C2576 C 0.88721 0.61282 0.77412
 N2577 N 0.87577 0.59206 0.76233
 N2578 N 0.88469 0.58319 0.73958
 C2579 C 0.90539 0.59469 0.72769
 N2580 N 0.91687 0.61539 0.73961
 N2581 N 0.40756 1.12511 0.76182
 C2582 C 0.38683 1.11374 0.77370
 N2583 N 0.37539 1.09287 0.76209
 N2584 N 0.38427 1.08380 0.73941
 C2585 C 0.40496 1.09522 0.72740
 N2586 N 0.41644 1.11603 0.73914
 N2587 N 0.37461 0.59355 1.26207
 C2588 C 0.38588 0.61459 1.27360
 N2589 N 0.40669 0.62589 1.26171
 N2590 N 0.41574 0.61662 1.23917
 C2591 C 0.40440 0.59568 1.22755
 N2592 N 0.38368 0.58431 1.23953
 N2593 N 1.09231 1.26186 0.87496
 C2594 C 1.11304 1.27369 0.88642
 N2595 N 1.12445 1.26203 0.90729
 N2596 N 1.11554 1.23935 0.91628
 C2597 C 1.09487 1.22739 0.90478
 N2598 N 1.08342 1.23918 0.88397
 N2599 N 1.09234 0.76178 0.37492
 C2600 C 1.11306 0.77365 0.38636
 N2601 N 1.12452 0.76199 0.40721
 N2602 N 1.11567 0.73929 0.41621
 C2603 C 1.09501 0.72730 0.40473
 N2604 N 1.08351 0.73908 0.38393
 N2605 N 0.59221 1.26195 0.37505
 C2606 C 0.61297 1.27371 0.38650
 N2607 N 0.62439 1.26199 0.40734
 N2608 N 0.61545 1.23931 0.41629
 C2609 C 0.59474 1.22741 0.40480
 N2610 N 0.58328 1.23926 0.38402
 N2611 N 0.59207 0.76208 0.87577
 C2612 C 0.61284 0.77382 0.88724
 N2613 N 0.62432 0.76201 0.90799
 N2614 N 0.61542 0.73928 0.91685
 C2615 C 0.59470 0.72741 0.90534
 N2616 N 0.58319 0.73935 0.88464
 N2617 N 0.87441 1.26144 1.09391
 C2618 C 0.88570 1.27305 1.11491
 N2619 N 0.90658 1.26125 1.12621
 N2620 N 0.91567 1.23873 1.11699
 C2621 C 0.90432 1.22703 1.09608
 N2622 N 0.88353 1.23892 1.08471
 N2623 N 0.87550 0.76174 0.59223
 C2624 C 0.88695 0.77353 0.61300
 N2625 N 0.90772 0.76177 0.62449
 N2626 N 0.91662 0.73904 0.61560
 C2627 C 0.90514 0.72712 0.59488
 N2628 N 0.88442 0.73901 0.58335
 N2629 N 0.40697 1.26155 0.62531
 C2630 C 0.38615 1.27338 0.61393
 N2631 N 0.37479 1.26168 0.59302
 N2632 N 0.38377 1.23904 0.58398
 C2633 C 0.40450 1.22712 0.59543
 N2634 N 0.41593 1.23891 0.61625
 N2635 N 0.37444 0.76155 1.09389
 C2636 C 0.38573 0.77318 1.11487
 N2637 N 0.40656 0.76135 1.12623
 N2638 N 0.41561 0.73878 1.11707
 C2639 C 0.40426 0.72706 1.09617
 N2640 N 0.38351 0.73897 1.08475
 N2641 N 0.87548 0.73814 0.90799
 C2642 C 0.88696 0.72629 0.88727
 N2643 N 0.90775 0.73800 0.87581
 N2644 N 0.91664 0.76074 0.88466
 C2645 C 0.90512 0.77271 0.90533
 N2646 N 0.88438 0.76088 0.91683
 N2647 N 0.87594 0.23771 0.40835
 C2648 C 0.88746 0.22581 0.38768
 N2649 N 0.90823 0.23752 0.37617
 N2650 N 0.91706 0.26032 0.38494
 C2651 C 0.90550 0.27235 0.40555
 N2652 N 0.88479 0.26051 0.41710
 N2653 N 0.37442 0.73841 0.40602
 C2654 C 0.38570 0.72676 0.38504
 N2655 N 0.40654 0.73854 0.37369
 N2656 N 0.41561 0.76110 0.38285
 C2657 C 0.40426 0.77284 0.40374
 N2658 N 0.38350 0.76097 0.41516
 N2659 N 0.40681 0.23828 0.87478
 C2660 C 0.38595 0.22654 0.88614
 N2661 N 0.37458 0.23829 0.90701
 N2662 N 0.38362 0.26091 0.91605
 C2663 C 0.40440 0.27274 0.90463
 N2664 N 0.41583 0.26090 0.88384
 N2665 N 1.09372 0.73891 1.12650
 C2666 C 1.11456 0.72707 1.11518
 N2667 N 1.12583 0.73863 1.09416
 N2668 N 1.11673 0.76116 1.08493
 C2669 C 1.09597 0.77309 1.09630
 N2670 N 1.08464 0.76143 1.11725
 N2671 N 1.12574 0.23863 0.59412
 C2672 C 1.11449 0.22709 0.61518
 N2673 N 1.09366 0.23894 0.62649
 N2674 N 1.08456 0.26145 0.61722
 C2675 C 1.09588 0.27308 0.59625
 N2676 N 1.11663 0.26114 0.58487
 N2677 N 0.59220 0.73803 0.62437
 C2678 C 0.61298 0.72626 0.61292
 N2679 N 0.62444 0.73802 0.59215
 N2680 N 0.61553 0.76075 0.58324
 C2681 C 0.59481 0.77265 0.59473
 N2682 N 0.58331 0.76076 0.61545
 N2683 N 0.59339 0.23865 1.12623
 C2684 C 0.61427 0.22688 1.11492
 N2685 N 0.62556 0.23852 1.09394
 N2686 N 0.61643 0.26105 1.08477
 C2687 C 0.59564 0.27291 1.09615
 N2688 N 0.58428 0.26118 1.11704
 N2689 N 1.26180 1.12517 0.90773
 C2690 C 1.27369 1.11376 0.88700
 N2691 N 1.26211 1.09288 0.87557
 N2692 N 1.23945 1.08382 0.88446
 C2693 C 1.22743 1.09527 0.90514
 N2694 N 1.23914 1.11610 0.91661
 N2695 N 1.26189 0.59307 0.37476
 C2696 C 1.27350 0.61398 0.38611
 N2697 N 1.26173 0.62535 0.40695
 N2698 N 1.23916 0.61622 0.41600
 C2699 C 1.22743 0.59536 0.40461
 N2700 N 1.23932 0.58395 0.38383
 N2701 N 0.76209 1.12417 0.40811
 C2702 C 0.77397 1.11268 0.38741
 N2703 N 0.76220 1.09197 0.37585
 N2704 N 0.73938 1.08317 0.38458
 C2705 C 0.72738 1.09471 0.40523
 N2706 N 0.73927 1.11536 0.41683
 N2707 N 0.76181 0.62442 0.90797
 C2708 C 0.77365 0.61295 0.88723
 N2709 N 0.76194 0.59216 0.87577
 N2710 N 0.73921 0.58325 0.88463
 C2711 C 0.72724 0.59476 0.90531
 N2712 N 0.73908 0.61550 0.91682
 N2713 N 1.26175 0.87469 1.09301
 C2714 C 1.27353 0.88605 1.11384
 N2715 N 1.26190 0.90695 1.12522
 N2716 N 1.23931 0.91607 1.11618
 C2717 C 1.22741 0.90467 1.09540
 N2718 N 1.23916 0.88383 1.08399
 N2719 N 1.26213 0.37484 0.59221
 C2720 C 1.27400 0.38626 0.61295
 N2721 N 1.26237 0.40714 0.62437
 N2722 N 1.23970 0.41617 0.61546
 C2723 C 1.22771 0.40470 0.59477
 N2724 N 1.23946 0.38388 0.58331
 N2725 N 0.76185 0.90768 0.62434
 C2726 C 0.77362 0.88690 0.61288
 N2727 N 0.76184 0.87545 0.59211
 N2728 N 0.73911 0.88436 0.58321
 C2729 C 0.72722 0.90508 0.59471
 N2730 N 0.73913 0.91658 0.61543
 N2731 N 0.76158 0.40654 1.12564
 C2732 C 0.77326 0.38567 1.11425
 N2733 N 0.76155 0.37435 1.09336
 N2734 N 0.73897 0.38348 1.08429
 C2735 C 0.72717 0.40429 1.09572
 N2736 N 0.73901 0.41565 1.11655
 N2737 N 0.73850 1.12564 1.09331
 C2738 C 0.72678 1.11430 1.11418
 N2739 N 0.73846 1.09343 1.12556
 N2740 N 0.76104 1.08432 1.11648
 C2741 C 0.77288 1.09569 1.09567
 N2742 N 0.76108 1.11651 1.08425
 N2743 N 0.73807 0.62437 0.59218
 C2744 C 0.72630 0.61292 0.61297
 N2745 N 0.73808 0.59217 0.62445
 N2746 N 0.76082 0.58329 0.61556
 C2747 C 0.77272 0.59477 0.59483
 N2748 N 0.76081 0.61547 0.58330
 N2749 N 0.23842 1.09345 0.62551
 C2750 C 0.22674 1.11435 0.61419
 N2751 N 0.23839 1.12568 0.59327
 N2752 N 0.26091 1.11652 0.58410
 C2753 C 0.27272 1.09567 0.59546
 N2754 N 0.26094 1.08431 0.61632
 N2755 N 0.23834 0.59327 1.12557
 C2756 C 0.22672 0.61418 1.11422
 N2757 N 0.23846 0.62551 1.09335
 N2758 N 0.26101 0.61634 1.08428
 C2759 C 0.27276 0.59548 1.09568
 N2760 N 0.26090 0.58412 1.11648
 N2761 N 0.73783 0.90794 0.87568
 C2762 C 0.72610 0.88718 0.88717
 N2763 N 0.73792 0.87573 0.90793
 N2764 N 0.76066 0.88465 0.91678
 C2765 C 0.77251 0.90536 0.90525
 N2766 N 0.76057 0.91684 0.88454
 N2767 N 0.73831 0.40743 0.37493
 C2768 C 0.72646 0.38671 0.38639
 N2769 N 0.73813 0.37529 0.40726
 N2770 N 0.76083 0.38418 0.41624
 C2771 C 0.77280 0.40484 0.40474
 N2772 N 0.76100 0.41630 0.38392
 N2773 N 0.23784 0.90784 0.37498
 C2774 C 0.22605 0.88709 0.38645
 N2775 N 0.23778 0.87565 0.40726
 N2776 N 0.26049 0.88455 0.41619
 C2777 C 0.27241 0.90524 0.40469
 N2778 N 0.26055 0.91672 0.38393
 N2779 N 0.23785 0.37559 0.90746
 C2780 C 0.22618 0.38701 0.88660
 N2781 N 0.23799 0.40775 0.87516
 N2782 N 0.26067 0.41665 0.88418
 C2783 C 0.27247 0.40519 0.90498
 N2784 N 0.26053 0.38450 0.91646
   
