data_POSCAR
  _audit_creation_date              2014-09-24
  _audit_creation_method            'ToBaCCo'
  _symmetry_space_group_name_H-M    'P1'
  _symmetry_Int_Tables_number       1
  _symmetry_cell_setting            triclinic
  loop_
  _symmetry_equiv_pos_as_xyz
 x,y,z
_cell_length_a 56.7781
_cell_length_b 56.9155
_cell_length_c 57.0503
_cell_angle_alpha 90.002500
_cell_angle_beta 90.010600
_cell_angle_gamma 90.001100
loop_
  _atom_site_label
  _atom_site_type_symbol
  _atom_site_fract_x
  _atom_site_fract_y
  _atom_site_fract_z
O1 O 0.34759 0.38002 0.02236
 O2 O 0.38001 0.34762 -0.02325
 O3 O 0.34753 0.38003 -0.02332
 O4 O 0.37997 0.34753 0.02231
 O5 O 0.35244 0.32020 0.02224
 O6 O 0.32010 0.35266 -0.02333
 O7 O 0.35250 0.32027 -0.02327
 O8 O 0.32010 0.35264 0.02230
 Cu9 Cu 0.36652 0.36656 -0.00047
 Cu10 Cu 0.33352 0.33373 -0.00052
 C11 C 0.32828 0.37188 0.03013
 C12 C 0.37187 0.32833 -0.03098
 C13 C 0.32820 0.37194 -0.03117
 C14 C 0.37180 0.32823 0.03001
 O15 O 0.65198 0.62010 0.02246
 O16 O 0.61953 0.65189 -0.02360
 O17 O 0.65225 0.61970 -0.02313
 O18 O 0.61934 0.65231 0.02208
 O19 O 0.64668 0.67983 0.02192
 O20 O 0.67951 0.64724 -0.02321
 O21 O 0.64689 0.67940 -0.02369
 O22 O 0.67926 0.64769 0.02231
 Cu23 Cu 0.63302 0.63325 -0.00055
 Cu24 Cu 0.66580 0.66631 -0.00069
 C25 C 0.67122 0.62843 0.03022
 C26 C 0.62765 0.67113 -0.03151
 C27 C 0.67162 0.62780 -0.03086
 C28 C 0.62739 0.67167 0.02974
 O29 O 0.61995 0.34864 1.02445
 O30 O 0.65216 0.38087 0.97854
 O31 O 0.61983 0.34838 0.97877
 O32 O 0.65246 0.38104 1.02418
 O33 O 0.67992 0.35368 1.02417
 O34 O 0.64739 0.32107 0.97884
 O35 O 0.67966 0.35350 0.97860
 O36 O 0.64750 0.32132 1.02444
 Cu37 Cu 0.63334 0.36747 1.00150
 Cu38 Cu 0.66636 0.33466 1.00153
 C39 C 0.62819 0.32942 1.03227
 C40 C 0.67145 0.37271 0.97072
 C41 C 0.62805 0.32911 0.97103
 C42 C 0.67186 0.37302 1.03194
 O43 O 0.37870 0.65298 1.02250
 O44 O 0.34638 0.62039 0.97697
 O45 O 0.37869 0.65297 0.97693
 O46 O 0.34638 0.62041 1.02254
 O47 O 0.31881 0.64765 1.02252
 O48 O 0.35107 0.68021 0.97694
 O49 O 0.31878 0.64766 0.97698
 O50 O 0.35108 0.68022 1.02249
 Cu51 Cu 0.36531 0.63395 0.99973
 Cu52 Cu 0.33217 0.66666 0.99973
 C53 C 0.37048 0.67224 1.03022
 C54 C 0.32698 0.62839 0.96925
 C55 C 0.37046 0.67223 0.96919
 C56 C 0.32696 0.62836 1.03030
 O57 O -0.02358 0.37970 0.34715
 O58 O 0.02281 0.34802 0.37934
 O59 O 0.02223 0.38029 0.34687
 O60 O -0.02303 0.34734 0.37950
 O61 O -0.02276 0.31994 0.35222
 O62 O 0.02243 0.35280 0.31963
 O63 O 0.02303 0.32058 0.35204
 O64 O -0.02333 0.35222 0.31989
 Cu65 Cu -0.00042 0.36659 0.36595
 Cu66 Cu -0.00013 0.33363 0.33323
 C67 C -0.03134 0.37143 0.32795
 C68 C 0.03082 0.32883 0.37123
 C69 C 0.03001 0.37222 0.32760
 C70 C -0.03065 0.32791 0.37149
 O71 O 0.02273 0.65147 0.62006
 O72 O -0.02367 0.61934 0.65185
 O73 O -0.02307 0.65191 0.61965
 O74 O 0.02223 0.61893 0.65223
 O75 O 0.02219 0.64624 0.67965
 O76 O -0.02302 0.67915 0.64709
 O77 O -0.02364 0.64668 0.67924
 O78 O 0.02271 0.67872 0.64755
 Cu79 Cu -0.00046 0.63266 0.63321
 Cu80 Cu -0.00045 0.66541 0.66614
 C81 C 0.03060 0.67066 0.62833
 C82 C -0.03158 0.62751 0.67103
 C83 C -0.03076 0.67128 0.62770
 C84 C 0.02996 0.62695 0.67154
 O85 O 0.97799 0.65198 0.38059
 O86 O 1.02447 0.62021 0.34861
 O87 O 1.02385 0.65259 0.38094
 O88 O 0.97861 0.61978 0.34808
 O89 O 0.97862 0.64731 0.32088
 O90 O 1.02377 0.68002 0.35369
 O91 O 1.02441 0.64773 0.32139
 O92 O 0.97798 0.67945 0.35332
 Cu93 Cu 1.00124 0.63339 0.36729
 Cu94 Cu 1.00119 0.66637 0.33460
 C95 C 0.97005 0.67120 0.37245
 C96 C 1.03236 0.62850 0.32948
 C97 C 1.03156 0.67200 0.37299
 C98 C 0.97091 0.62792 0.32881
 O99 O 0.97599 0.34658 0.62062
 O100 O 1.02218 0.37847 0.65289
 O101 O 1.02181 0.34621 0.62040
 O102 O 0.97640 0.37884 0.65309
 O103 O 0.97633 0.35131 0.68028
 O104 O 1.02170 0.31872 0.64759
 O105 O 1.02208 0.35092 0.68008
 O106 O 0.97592 0.31907 0.64785
 Cu107 Cu 0.99911 0.36528 0.63402
 Cu108 Cu 0.99900 0.33225 0.66666
 C109 C 0.96811 0.32731 0.62867
 C110 C 1.02996 0.37021 0.67209
 C111 C 1.02951 0.32679 0.62831
 C112 C 0.96867 0.37072 0.67235
 O113 O 0.37936 0.02298 0.34782
 O114 O 0.34715 -0.02312 0.37985
 O115 O 0.37961 -0.02279 0.34754
 O116 O 0.34693 0.02257 0.38020
 O117 O 0.31944 0.02259 0.35288
 O118 O 0.35208 -0.02272 0.32026
 O119 O 0.31967 -0.02305 0.35252
 O120 O 0.35183 0.02300 0.32055
 Cu121 Cu 0.36603 -0.00009 0.36658
 Cu122 Cu 0.33302 -0.00003 0.33381
 C123 C 0.37112 0.03086 0.32866
 C124 C 0.32784 -0.03092 0.37171
 C125 C 0.37143 -0.03052 0.32829
 C126 C 0.32752 0.03028 0.37218
 O127 O 0.65278 -0.02316 0.62050
 O128 O 0.62103 0.02303 0.65286
 O129 O 0.65322 0.02260 0.62025
 O130 O 0.62057 -0.02264 0.65305
 O131 O 0.64826 -0.02274 0.68017
 O132 O 0.68090 0.02246 0.64737
 O133 O 0.64875 0.02288 0.67995
 O134 O 0.68043 -0.02326 0.64765
 Cu135 Cu 0.63414 -0.00002 0.63393
 Cu136 Cu 0.66737 -0.00017 0.66648
 C137 C 0.67207 -0.03110 0.62853
 C138 C 0.62939 0.03077 0.67202
 C139 C 0.67269 0.03024 0.62816
 C140 C 0.62878 -0.03037 0.67229
 O141 O 0.38108 0.97795 0.65164
 O142 O 0.34897 1.02415 0.61958
 O143 O 0.38151 1.02373 0.65184
 O144 O 0.34856 0.97840 0.61935
 O145 O 0.32117 0.97856 0.64676
 O146 O 0.35406 1.02380 0.67919
 O147 O 0.32160 1.02422 0.64700
 O148 O 0.35362 0.97811 0.67897
 Cu149 Cu 0.36779 1.00104 0.63286
 Cu150 Cu 0.33488 1.00118 0.66572
 C151 C 0.37285 0.97014 0.67082
 C152 C 0.32974 1.03206 0.62780
 C153 C 0.37342 1.03152 0.67111
 C154 C 0.32918 0.97076 0.62748
 O155 O 0.65279 1.02260 0.37912
 O156 O 0.62050 0.97656 0.34708
 O157 O 0.65297 0.97690 0.37948
 O158 O 0.62028 1.02224 0.34683
 O159 O 0.64775 1.02216 0.31951
 O160 O 0.68044 0.97686 0.35214
 O161 O 0.64800 0.97652 0.31979
 O162 O 0.68020 1.02252 0.35178
 Cu163 Cu 0.63389 0.99957 0.36587
 Cu164 Cu 0.66685 0.99950 0.33308
 C165 C 0.67212 1.03043 0.37100
 C166 C 0.62867 0.96875 0.32787
 C167 C 0.67237 0.96919 0.37146
 C168 C 0.62837 1.02990 0.32752
 C169 C 0.82359 0.79263 0.48756
 C170 C 0.82401 0.79247 0.51237
 C171 C 0.80875 0.80735 0.52476
 C172 C 0.79346 0.82276 0.51305
 C173 C 0.79331 0.82318 0.48824
 C174 C 0.80820 0.80794 0.47585
 H175 H 0.80808 0.80826 0.45684
 H176 H 0.80906 0.80721 0.54377
 C177 C 0.17618 0.20720 0.48762
 C178 C 0.17579 0.20740 0.51243
 C179 C 0.19117 0.19264 0.52483
 C180 C 0.20654 0.17731 0.51312
 C181 C 0.20660 0.17679 0.48832
 C182 C 0.19162 0.19194 0.47592
 H183 H 0.19171 0.19157 0.45691
 H184 H 0.19090 0.19281 0.54384
 C185 C 0.17591 0.79387 0.51355
 C186 C 0.17668 0.79288 0.48877
 C187 C 0.19250 0.80738 0.47662
 C188 C 0.20700 0.82339 0.48853
 C189 C 0.20618 0.82443 0.51331
 C190 C 0.19063 0.80966 0.52546
 H191 H 0.19023 0.81022 0.54446
 H192 H 0.19273 0.80700 0.45762
 C193 C 0.82340 0.20641 0.51058
 C194 C 0.82452 0.20544 0.48581
 C195 C 0.80988 0.18971 0.47372
 C196 C 0.79416 0.17496 0.48569
 C197 C 0.79311 0.17588 0.51046
 C198 C 0.80747 0.19187 0.52254
 H199 H 0.80706 0.19222 0.54154
 H200 H 0.81047 0.18920 0.45473
 C201 C 0.48678 0.82329 0.79281
 C202 C 0.51171 0.82361 0.79282
 C203 C 0.52402 0.80832 0.80770
 C204 C 0.51211 0.79308 0.82296
 C205 C 0.48718 0.79304 0.82325
 C206 C 0.47487 0.80796 0.80799
 H207 H 0.45577 0.80791 0.80819
 H208 H 0.54312 0.80855 0.80768
 C209 C 0.48666 0.17670 0.20693
 C210 C 0.51159 0.17627 0.20712
 C211 C 0.52407 0.19153 0.19235
 C212 C 0.51234 0.20685 0.17701
 C213 C 0.48741 0.20698 0.17651
 C214 C 0.47492 0.19209 0.19166
 H215 H 0.45583 0.19222 0.19131
 H216 H 0.54317 0.19123 0.19252
 C217 C 0.51378 0.17692 0.79347
 C218 C 0.48885 0.17723 0.79341
 C219 C 0.47692 0.19256 0.80857
 C220 C 0.48921 0.20743 0.82390
 C221 C 0.51415 0.20734 0.82375
 C222 C 0.52608 0.19213 0.80846
 H223 H 0.54518 0.19186 0.80850
 H224 H 0.45782 0.19264 0.80872
 C225 C 0.51169 0.82368 0.20640
 C226 C 0.48676 0.82347 0.20626
 C227 C 0.47489 0.80821 0.19098
 C228 C 0.48724 0.79332 0.17572
 C229 C 0.51217 0.79334 0.17605
 C230 C 0.52404 0.80846 0.19146
 H231 H 0.54314 0.80866 0.19157
 H232 H 0.45579 0.80820 0.19069
 C233 C 0.79266 0.48732 0.82385
 C234 C 0.79247 0.51219 0.82411
 C235 C 0.80724 0.52453 0.80872
 C236 C 0.82256 0.51270 0.79344
 C237 C 0.82301 0.48783 0.79345
 C238 C 0.80787 0.47549 0.80848
 H239 H 0.80821 0.45644 0.80848
 H240 H 0.80709 0.54358 0.80890
 C241 C 0.20703 0.48745 0.17627
 C242 C 0.20740 0.51232 0.17597
 C243 C 0.19273 0.52480 0.19135
 C244 C 0.17733 0.51312 0.20665
 C245 C 0.17667 0.48826 0.20666
 C246 C 0.19171 0.47577 0.19166
 H247 H 0.19123 0.45672 0.19169
 H248 H 0.19303 0.54385 0.19113
 C249 C 0.79406 0.51374 0.17574
 C250 C 0.79291 0.48890 0.17660
 C251 C 0.80731 0.47670 0.19245
 C252 C 0.82336 0.48859 0.20691
 C253 C 0.82456 0.51342 0.20601
 C254 C 0.80990 0.52563 0.19042
 H255 H 0.81057 0.54467 0.18996
 H256 H 0.80681 0.45765 0.19274
 C257 C 0.20645 0.51095 0.82383
 C258 C 0.20648 0.48608 0.82352
 C259 C 0.19128 0.47420 0.80817
 C260 C 0.17594 0.48649 0.79329
 C261 C 0.17612 0.51136 0.79340
 C262 C 0.19145 0.52324 0.80862
 H263 H 0.19143 0.54229 0.80889
 H264 H 0.19110 0.45515 0.80808
 C265 C 0.28960 0.41010 0.08239
 C266 C 0.28101 0.38868 0.07396
 C267 C 0.29366 0.37616 0.05706
 C268 C 0.31511 0.38494 0.04835
 C269 C 0.32369 0.40644 0.05706
 C270 C 0.31099 0.41893 0.07397
 C271 C 0.27619 0.42320 0.09933
 C272 C 0.26462 0.43413 0.11328
 C273 C 0.25038 0.44711 0.12963
 C274 C 0.22600 0.44353 0.13019
 C275 C 0.21197 0.45647 0.14561
 C276 C 0.22218 0.47323 0.16056
 C277 C 0.24672 0.47648 0.16020
 C278 C 0.26074 0.46353 0.14473
 H279 H 0.26444 0.38171 0.08033
 H280 H 0.28656 0.35967 0.05073
 H281 H 0.34013 0.41368 0.05073
 H282 H 0.31778 0.43553 0.08036
 H283 H 0.21781 0.43088 0.11857
 H284 H 0.19309 0.45374 0.14559
 H285 H 0.25496 0.48911 0.17178
 H286 H 0.27960 0.46639 0.14447
 C287 C 0.71049 0.59050 0.08225
 C288 C 0.71880 0.61205 0.07386
 C289 C 0.70593 0.62450 0.05709
 C290 C 0.68452 0.61552 0.04845
 C291 C 0.67620 0.59391 0.05714
 C292 C 0.68913 0.58149 0.07393
 C293 C 0.72417 0.57745 0.09900
 C294 C 0.73595 0.56656 0.11281
 C295 C 0.75038 0.55362 0.12901
 C296 C 0.77483 0.55675 0.12889
 C297 C 0.78900 0.54391 0.14428
 C298 C 0.77885 0.52773 0.15988
 C299 C 0.75426 0.52492 0.16015
 C300 C 0.74010 0.53775 0.14472
 H301 H 0.73534 0.61916 0.08017
 H302 H 0.71282 0.64107 0.05077
 H303 H 0.65981 0.58652 0.05085
 H304 H 0.68256 0.56479 0.08028
 H305 H 0.78295 0.56899 0.11680
 H306 H 0.80792 0.54632 0.14378
 H307 H 0.74606 0.51275 0.17225
 H308 H 0.72119 0.53525 0.14499
 C309 C 0.70992 0.41071 0.91816
 C310 C 0.68858 0.41960 0.92665
 C311 C 0.67594 0.40718 0.94366
 C312 C 0.68454 0.38570 0.95241
 C313 C 0.70594 0.37686 0.94363
 C314 C 0.71853 0.38930 0.92664
 C315 C 0.72329 0.42373 0.90114
 C316 C 0.73486 0.43456 0.88711
 C317 C 0.74913 0.44740 0.87069
 C318 C 0.73885 0.46380 0.85552
 C319 C 0.75292 0.47660 0.83999
 C320 C 0.77744 0.47323 0.83962
 C321 C 0.78758 0.45649 0.85463
 C322 C 0.77350 0.44369 0.87012
 H323 H 0.68179 0.43618 0.92023
 H324 H 0.65953 0.41446 0.95004
 H325 H 0.71304 0.36039 0.94998
 H326 H 0.73505 0.38229 0.92021
 H327 H 0.72000 0.46676 0.85579
 H328 H 0.74474 0.48923 0.82835
 H329 H 0.80644 0.45366 0.85465
 H330 H 0.78163 0.43105 0.88178
 C331 C 0.28771 0.58908 0.91826
 C332 C 0.30929 0.58053 0.92647
 C333 C 0.32222 0.59342 0.94290
 C334 C 0.31368 0.61504 0.95134
 C335 C 0.29204 0.62356 0.94281
 C336 C 0.27916 0.61064 0.92638
 C337 C 0.27413 0.57557 0.90179
 C338 C 0.26257 0.56425 0.88813
 C339 C 0.24861 0.55076 0.87197
 C340 C 0.23282 0.53386 0.88041
 C341 C 0.21905 0.52089 0.86476
 C342 C 0.22107 0.52460 0.84049
 C343 C 0.23682 0.54169 0.83215
 C344 C 0.25057 0.55466 0.84782
 H345 H 0.31606 0.56384 0.92030
 H346 H 0.33880 0.58637 0.94912
 H347 H 0.28497 0.64013 0.94894
 H348 H 0.26246 0.61740 0.92014
 H349 H 0.23108 0.53078 0.89907
 H350 H 0.20674 0.50805 0.87155
 H351 H 0.23857 0.54483 0.81350
 H352 H 0.26269 0.56774 0.84113
 C353 C 0.08321 0.29045 0.40974
 C354 C 0.07500 0.28191 0.38825
 C355 C 0.05812 0.29450 0.37560
 C356 C 0.04919 0.31584 0.38432
 C357 C 0.05772 0.32441 0.40586
 C358 C 0.07461 0.31177 0.41848
 C359 C 0.10000 0.27701 0.42304
 C360 C 0.11380 0.26536 0.43410
 C361 C 0.12993 0.25098 0.44722
 C362 C 0.13036 0.22667 0.44353
 C363 C 0.14561 0.21250 0.45654
 C364 C 0.16054 0.22249 0.47346
 C365 C 0.16028 0.24695 0.47685
 C366 C 0.14498 0.26112 0.46384
 H367 H 0.08151 0.26540 0.38135
 H368 H 0.05194 0.28742 0.35909
 H369 H 0.05121 0.34077 0.41306
 H370 H 0.08082 0.31851 0.43513
 H371 H 0.11878 0.21866 0.43073
 H372 H 0.14551 0.19369 0.45369
 H373 H 0.17185 0.25502 0.48962
 H374 H 0.14482 0.27992 0.46679
 C375 C 0.08274 0.70980 0.59029
 C376 C 0.07432 0.68851 0.58132
 C377 C 0.05752 0.67560 0.59379
 C378 C 0.04891 0.68389 0.61540
 C379 C 0.05766 0.70521 0.62435
 C380 C 0.07445 0.71806 0.61186
 C381 C 0.09945 0.72350 0.57718
 C382 C 0.11322 0.73533 0.56627
 C383 C 0.12935 0.74986 0.55333
 C384 C 0.12914 0.77424 0.55657
 C385 C 0.14446 0.78851 0.54377
 C386 C 0.16010 0.77855 0.52748
 C387 C 0.16046 0.75403 0.52454
 C388 C 0.14509 0.73977 0.53735
 H389 H 0.08061 0.68198 0.56462
 H390 H 0.05114 0.65927 0.58642
 H391 H 0.05141 0.71208 0.64092
 H392 H 0.08083 0.73455 0.61894
 H393 H 0.11702 0.78222 0.56890
 H394 H 0.14389 0.80737 0.54628
 H395 H 0.17259 0.74598 0.51229
 H396 H 0.14543 0.72092 0.53475
 C397 C 0.91725 0.70947 0.41047
 C398 C 0.92567 0.71805 0.38908
 C399 C 0.94271 0.70551 0.37660
 C400 C 0.95158 0.68417 0.38540
 C401 C 0.94286 0.67558 0.40685
 C402 C 0.92581 0.68818 0.41930
 C403 C 0.90027 0.72286 0.42357
 C404 C 0.88632 0.73448 0.43448
 C405 C 0.87002 0.74884 0.44741
 C406 C 0.86961 0.77314 0.44371
 C407 C 0.85426 0.78731 0.45660
 C408 C 0.83922 0.77733 0.47341
 C409 C 0.83943 0.75286 0.47678
 C410 C 0.85483 0.73870 0.46389
 H411 H 0.91919 0.73455 0.38212
 H412 H 0.94903 0.71261 0.36016
 H413 H 0.94933 0.65923 0.41410
 H414 H 0.91944 0.68141 0.43588
 H415 H 0.88129 0.78116 0.43101
 H416 H 0.85440 0.80613 0.45377
 H417 H 0.82778 0.74479 0.48947
 H418 H 0.85498 0.71990 0.46684
 C419 C 0.91637 0.28850 0.58973
 C420 C 0.92475 0.30996 0.58115
 C421 C 0.94140 0.32275 0.59393
 C422 C 0.94990 0.31420 0.61548
 C423 C 0.94118 0.29271 0.62406
 C424 C 0.92453 0.27996 0.61125
 C425 C 0.89988 0.27492 0.57621
 C426 C 0.88632 0.26331 0.56482
 C427 C 0.87045 0.24916 0.55113
 C428 C 0.84607 0.25135 0.55408
 C429 C 0.83072 0.23741 0.54087
 C430 C 0.83965 0.22126 0.52451
 C431 C 0.86414 0.21902 0.52180
 C432 C 0.87945 0.23297 0.53499
 H433 H 0.91857 0.31670 0.56449
 H434 H 0.94775 0.33922 0.58684
 H435 H 0.94735 0.28563 0.64057
 H436 H 0.91819 0.26334 0.61802
 H437 H 0.83893 0.26378 0.56658
 H438 H 0.81189 0.23932 0.54326
 H439 H 0.87139 0.20640 0.50957
 H440 H 0.89829 0.23105 0.53267
 C441 C 0.40929 0.08331 0.29010
 C442 C 0.38773 0.07493 0.28167
 C443 C 0.37522 0.05801 0.29430
 C444 C 0.38414 0.04920 0.31558
 C445 C 0.40576 0.05787 0.32401
 C446 C 0.41825 0.07481 0.31132
 C447 C 0.42242 0.10021 0.27664
 C448 C 0.43334 0.11412 0.26500
 C449 C 0.44631 0.13039 0.25065
 C450 C 0.44254 0.13084 0.22641
 C451 C 0.45548 0.14616 0.21226
 C452 C 0.47242 0.16112 0.22220
 C453 C 0.47587 0.16087 0.24660
 C454 C 0.46292 0.14550 0.26074
 H455 H 0.38066 0.08137 0.26523
 H456 H 0.35864 0.05172 0.28733
 H457 H 0.41311 0.05146 0.34031
 H458 H 0.43495 0.08115 0.31798
 H459 H 0.42973 0.11921 0.21842
 H460 H 0.45259 0.14605 0.19349
 H461 H 0.48866 0.17246 0.25464
 H462 H 0.46595 0.14532 0.27949
 C463 C 0.59102 0.08231 0.71155
 C464 C 0.58204 0.07408 0.69023
 C465 C 0.59463 0.05749 0.67720
 C466 C 0.61638 0.04890 0.68538
 C467 C 0.62534 0.05746 0.70674
 C468 C 0.61272 0.07405 0.71972
 C469 C 0.57778 0.09888 0.72529
 C470 C 0.56666 0.11259 0.73699
 C471 C 0.55338 0.12876 0.75114
 C472 C 0.53654 0.12028 0.76694
 C473 C 0.52369 0.13593 0.78081
 C474 C 0.52745 0.16026 0.77888
 C475 C 0.54452 0.16865 0.76315
 C476 C 0.55738 0.15297 0.74930
 H477 H 0.56524 0.08035 0.68376
 H478 H 0.58724 0.05125 0.66085
 H479 H 0.64201 0.05122 0.71354
 H480 H 0.61981 0.08029 0.73622
 H481 H 0.53339 0.10158 0.76858
 H482 H 0.51087 0.12910 0.79309
 H483 H 0.54769 0.18734 0.76147
 H484 H 0.57041 0.15971 0.73717
 C485 C 0.41065 0.91738 0.70932
 C486 C 0.41968 0.92585 0.68812
 C487 C 0.40732 0.94291 0.67546
 C488 C 0.38577 0.95173 0.68390
 C489 C 0.37679 0.94296 0.70516
 C490 C 0.38916 0.92592 0.71777
 C491 C 0.42361 0.90034 0.72276
 C492 C 0.43436 0.88631 0.73442
 C493 C 0.44709 0.86991 0.74883
 C494 C 0.46365 0.85468 0.73884
 C495 C 0.47637 0.83919 0.75306
 C496 C 0.47274 0.83894 0.77744
 C497 C 0.45584 0.85402 0.78727
 C498 C 0.44313 0.86945 0.77304
 H499 H 0.43633 0.91938 0.68145
 H500 H 0.41471 0.94928 0.65916
 H501 H 0.36025 0.94936 0.71215
 H502 H 0.38205 0.91951 0.73419
 H503 H 0.46681 0.85486 0.72012
 H504 H 0.48913 0.82751 0.74511
 H505 H 0.45282 0.85413 0.80602
 H506 H 0.43036 0.88117 0.78095
 C507 C 0.58959 0.91754 0.28858
 C508 C 0.61131 0.92562 0.28028
 C509 C 0.62417 0.94208 0.29319
 C510 C 0.61543 0.95071 0.31461
 C511 C 0.59366 0.94230 0.32292
 C512 C 0.58084 0.92583 0.30996
 C513 C 0.57611 0.90111 0.27490
 C514 C 0.56483 0.88752 0.26322
 C515 C 0.55139 0.87147 0.24906
 C516 C 0.55521 0.84724 0.25087
 C517 C 0.54228 0.83168 0.23694
 C518 C 0.52533 0.84022 0.22116
 C519 C 0.52174 0.86457 0.21929
 C520 C 0.53465 0.88010 0.23324
 H521 H 0.61823 0.91933 0.26373
 H522 H 0.64084 0.94819 0.28629
 H523 H 0.58644 0.94859 0.33933
 H524 H 0.56402 0.91970 0.31653
 H525 H 0.56817 0.84039 0.26301
 H526 H 0.54534 0.81296 0.23858
 H527 H 0.50901 0.87152 0.20697
 H528 H 0.53165 0.89883 0.23162
 C529 C 0.41105 0.28892 0.91805
 C530 C 0.38937 0.28053 0.92615
 C531 C 0.37649 0.29346 0.94257
 C532 C 0.38517 0.31498 0.95111
 C533 C 0.40691 0.32336 0.94270
 C534 C 0.41975 0.31039 0.92628
 C535 C 0.42453 0.27527 0.90161
 C536 C 0.43582 0.26367 0.88799
 C537 C 0.44931 0.24964 0.87188
 C538 C 0.44554 0.25167 0.84771
 C539 C 0.45853 0.23789 0.83209
 C540 C 0.47551 0.22204 0.84050
 C541 C 0.47905 0.21994 0.86478
 C542 C 0.46607 0.23374 0.88038
 H543 H 0.38249 0.26391 0.91990
 H544 H 0.35984 0.28651 0.94869
 H545 H 0.41408 0.33985 0.94893
 H546 H 0.43653 0.31702 0.92013
 H547 H 0.43256 0.26387 0.84096
 H548 H 0.45551 0.23970 0.81343
 H549 H 0.49180 0.20756 0.87163
 H550 H 0.46904 0.23196 0.89906
 C551 C 0.58920 0.70949 0.91615
 C552 C 0.58036 0.68819 0.92469
 C553 C 0.59294 0.67556 0.94159
 C554 C 0.61454 0.68413 0.95018
 C555 C 0.62335 0.70547 0.94133
 C556 C 0.61075 0.71805 0.92445
 C557 C 0.57599 0.72291 0.89931
 C558 C 0.56504 0.73458 0.88546
 C559 C 0.55210 0.74903 0.86927
 C560 C 0.53548 0.73899 0.85413
 C561 C 0.52263 0.75324 0.83879
 C562 C 0.52617 0.77769 0.83858
 C563 C 0.54310 0.78757 0.85358
 C564 C 0.55595 0.77332 0.86887
 H565 H 0.56367 0.68144 0.91841
 H566 H 0.58567 0.65921 0.94804
 H567 H 0.63991 0.71255 0.94756
 H568 H 0.61773 0.73454 0.91799
 H569 H 0.53241 0.72021 0.85427
 H570 H 0.50985 0.74525 0.82716
 H571 H 0.54607 0.80637 0.85373
 H572 H 0.56876 0.78126 0.88051
 C573 C 0.40947 0.71182 0.08122
 C574 C 0.38777 0.72013 0.07308
 C575 C 0.37495 0.70715 0.05666
 C576 C 0.38372 0.68565 0.04813
 C577 C 0.40547 0.67735 0.05658
 C578 C 0.41826 0.69038 0.07301
 C579 C 0.42288 0.72550 0.09769
 C580 C 0.43412 0.73713 0.11135
 C581 C 0.44752 0.75116 0.12752
 C582 C 0.44361 0.74916 0.15167
 C583 C 0.45654 0.76293 0.16736
 C584 C 0.47359 0.77873 0.15904
 C585 C 0.47729 0.78081 0.13478
 C586 C 0.46437 0.76702 0.11911
 H587 H 0.38082 0.73672 0.07932
 H588 H 0.35828 0.71403 0.05052
 H589 H 0.41272 0.66089 0.05036
 H590 H 0.43506 0.68380 0.07918
 H591 H 0.43057 0.73699 0.15835
 H592 H 0.45340 0.76114 0.18600
 H593 H 0.49010 0.79315 0.12800
 H594 H 0.46746 0.76878 0.10045
 C595 C 0.58991 0.29061 0.08439
 C596 C 0.58097 0.31191 0.07595
 C597 C 0.59350 0.32468 0.05912
 C598 C 0.61514 0.31625 0.05050
 C599 C 0.62404 0.29491 0.05925
 C600 C 0.61149 0.28219 0.07607
 C601 C 0.57674 0.27707 0.10116
 C602 C 0.56577 0.26534 0.11496
 C603 C 0.55276 0.25089 0.13108
 C604 C 0.53610 0.26093 0.14615
 C605 C 0.52312 0.24669 0.16139
 C606 C 0.52659 0.22223 0.16155
 C607 C 0.54358 0.21234 0.14663
 C608 C 0.55655 0.22659 0.13145
 H609 H 0.56425 0.31856 0.08225
 H610 H 0.58616 0.34104 0.05276
 H611 H 0.64064 0.28793 0.05299
 H612 H 0.61854 0.26570 0.08245
 H613 H 0.53307 0.27972 0.14604
 H614 H 0.51030 0.25469 0.17296
 H615 H 0.54648 0.19353 0.14646
 H616 H 0.56939 0.21864 0.11985
 C617 C 0.29094 0.08449 0.58985
 C618 C 0.28256 0.07618 0.61136
 C619 C 0.29528 0.05926 0.62380
 C620 C 0.31660 0.05040 0.61486
 C621 C 0.32500 0.05901 0.59329
 C622 C 0.31222 0.07594 0.58087
 C623 C 0.27736 0.10134 0.57680
 C624 C 0.26556 0.11519 0.56596
 C625 C 0.25098 0.13136 0.55313
 C626 C 0.22664 0.13168 0.55702
 C627 C 0.21226 0.14689 0.54420
 C628 C 0.22206 0.16188 0.52726
 C629 C 0.24656 0.16177 0.52370
 C630 C 0.26094 0.14651 0.53652
 H631 H 0.26608 0.08264 0.61844
 H632 H 0.28832 0.05302 0.64034
 H633 H 0.34134 0.05256 0.58593
 H634 H 0.31884 0.08223 0.56420
 H635 H 0.21876 0.12002 0.56983
 H636 H 0.19342 0.14667 0.54718
 H637 H 0.25449 0.17339 0.51090
 H638 H 0.27976 0.14644 0.53341
 C639 C 0.71061 0.08151 0.40871
 C640 C 0.71909 0.07311 0.38728
 C641 C 0.70628 0.05638 0.37468
 C642 C 0.68470 0.04772 0.38338
 C643 C 0.67623 0.05653 0.40490
 C644 C 0.68913 0.07327 0.41745
 C645 C 0.72425 0.09819 0.42191
 C646 C 0.73602 0.11194 0.43289
 C647 C 0.75046 0.12809 0.44592
 C648 C 0.77490 0.12803 0.44274
 C649 C 0.78908 0.14343 0.45557
 C650 C 0.77895 0.15898 0.47182
 C651 C 0.75436 0.15916 0.47472
 C652 C 0.74020 0.14372 0.46188
 H653 H 0.73572 0.07937 0.38038
 H654 H 0.71343 0.05014 0.35822
 H655 H 0.65974 0.05039 0.41222
 H656 H 0.68242 0.07965 0.43405
 H657 H 0.78301 0.11600 0.43043
 H658 H 0.80799 0.14300 0.45310
 H659 H 0.74618 0.17123 0.48693
 H660 H 0.72129 0.14394 0.46442
 C661 C 0.71030 0.91631 0.59024
 C662 C 0.68894 0.92489 0.58149
 C663 C 0.67636 0.94188 0.59402
 C664 C 0.68504 0.95051 0.61547
 C665 C 0.70644 0.94162 0.62418
 C666 C 0.71897 0.92464 0.61163
 C667 C 0.72366 0.89937 0.57707
 C668 C 0.73528 0.88545 0.56613
 C669 C 0.74964 0.86917 0.55319
 C670 C 0.73946 0.85408 0.53666
 C671 C 0.75363 0.83869 0.52377
 C672 C 0.77815 0.83839 0.52719
 C673 C 0.78818 0.85333 0.54404
 C674 C 0.77400 0.86867 0.55693
 H675 H 0.68209 0.91858 0.56492
 H676 H 0.65994 0.94836 0.58684
 H677 H 0.71361 0.94788 0.64063
 H678 H 0.73552 0.91815 0.61853
 H679 H 0.72062 0.85429 0.53367
 H680 H 0.74552 0.82710 0.51105
 H681 H 0.80704 0.85340 0.54691
 H682 H 0.78206 0.88028 0.56967
 C683 C 0.28881 0.91717 0.41012
 C684 C 0.28033 0.92547 0.38863
 C685 C 0.29314 0.94219 0.37601
 C686 C 0.31463 0.95086 0.38475
 C687 C 0.32312 0.94224 0.40628
 C688 C 0.31027 0.92551 0.41887
 C689 C 0.27520 0.90054 0.42342
 C690 C 0.26356 0.88686 0.43463
 C691 C 0.24941 0.87085 0.44813
 C692 C 0.23307 0.87962 0.46428
 C693 C 0.21919 0.86418 0.47737
 C694 C 0.22165 0.83977 0.47457
 C695 C 0.23791 0.83107 0.45817
 C696 C 0.25178 0.84655 0.44505
 H697 H 0.26372 0.91915 0.38172
 H698 H 0.28611 0.94845 0.35951
 H699 H 0.33959 0.94855 0.41349
 H700 H 0.31697 0.91922 0.43551
 H701 H 0.23101 0.89839 0.46671
 H702 H 0.20648 0.87125 0.48964
 H703 H 0.23999 0.81232 0.45571
 H704 H 0.26432 0.83959 0.43255
 C705 C 0.08145 0.40886 0.71149
 C706 C 0.07322 0.38723 0.71977
 C707 C 0.05666 0.37451 0.70682
 C708 C 0.04809 0.38330 0.68540
 C709 C 0.05665 0.40497 0.67712
 C710 C 0.07321 0.41766 0.69011
 C711 C 0.09799 0.42221 0.72518
 C712 C 0.11167 0.43341 0.73684
 C713 C 0.12783 0.44680 0.75093
 C714 C 0.11925 0.46353 0.76677
 C715 C 0.13489 0.47643 0.78062
 C716 C 0.15929 0.47285 0.77864
 C717 C 0.16778 0.45591 0.76285
 C718 C 0.15211 0.44299 0.74902
 H719 H 0.07947 0.38027 0.73632
 H720 H 0.05043 0.35790 0.71369
 H721 H 0.05040 0.41223 0.66071
 H722 H 0.07946 0.43441 0.68356
 H723 H 0.10049 0.46653 0.76846
 H724 H 0.12798 0.48916 0.79295
 H725 H 0.18653 0.45285 0.76113
 H726 H 0.15892 0.43004 0.73686
 C727 C 0.08491 0.59055 0.29081
 C728 C 0.07653 0.61209 0.28245
 C729 C 0.05959 0.62455 0.29514
 C730 C 0.05078 0.61560 0.31639
 C731 C 0.05948 0.59401 0.32477
 C732 C 0.07643 0.58157 0.31203
 C733 C 0.10173 0.57743 0.27724
 C734 C 0.11553 0.56649 0.26548
 C735 C 0.13163 0.55351 0.25095
 C736 C 0.13191 0.55740 0.22673
 C737 C 0.14703 0.54444 0.21239
 C738 C 0.16196 0.52736 0.22212
 C739 C 0.16189 0.52380 0.24651
 C740 C 0.14672 0.53677 0.26084
 H741 H 0.08294 0.61917 0.26601
 H742 H 0.05327 0.64111 0.28821
 H743 H 0.05307 0.58664 0.34106
 H744 H 0.08277 0.56488 0.31862
 H745 H 0.12029 0.57031 0.21890
 H746 H 0.14679 0.54741 0.19364
 H747 H 0.17347 0.51090 0.25438
 H748 H 0.14666 0.53366 0.27957
 C749 C 0.91664 0.40970 0.28887
 C750 C 0.92505 0.38818 0.28049
 C751 C 0.94178 0.37558 0.29333
 C752 C 0.95036 0.38439 0.31474
 C753 C 0.94161 0.40594 0.32314
 C754 C 0.92487 0.41851 0.31026
 C755 C 0.90006 0.42303 0.27521
 C756 C 0.88644 0.43430 0.26354
 C757 C 0.87053 0.44789 0.24937
 C758 C 0.84615 0.44496 0.25165
 C759 C 0.83076 0.45818 0.23777
 C760 C 0.83964 0.47454 0.22160
 C761 C 0.86413 0.47720 0.21924
 C762 C 0.87948 0.46401 0.23312
 H763 H 0.91882 0.38123 0.26393
 H764 H 0.94815 0.35906 0.28637
 H765 H 0.94785 0.41321 0.33954
 H766 H 0.91851 0.43518 0.31688
 H767 H 0.83905 0.43249 0.26413
 H768 H 0.81194 0.45583 0.23977
 H769 H 0.87134 0.48943 0.20659
 H770 H 0.89831 0.46632 0.23114
 C771 C 0.91574 0.58945 0.70944
 C772 C 0.92427 0.58053 0.68821
 C773 C 0.94127 0.59299 0.67556
 C774 C 0.94998 0.61454 0.68403
 C775 C 0.94113 0.62342 0.70530
 C776 C 0.92414 0.61094 0.71790
 C777 C 0.89882 0.57635 0.72291
 C778 C 0.88492 0.56548 0.73463
 C779 C 0.86870 0.55263 0.74915
 C780 C 0.85348 0.53600 0.73926
 C781 C 0.83816 0.52319 0.75358
 C782 C 0.83807 0.52679 0.77796
 C783 C 0.85314 0.54375 0.78769
 C784 C 0.86840 0.55656 0.77337
 H785 H 0.91791 0.56387 0.68154
 H786 H 0.94772 0.58567 0.65926
 H787 H 0.94745 0.63994 0.71231
 H788 H 0.91769 0.61798 0.73434
 H789 H 0.85354 0.53287 0.72053
 H790 H 0.82648 0.51038 0.74570
 H791 H 0.85337 0.54675 0.80644
 H792 H 0.88012 0.56938 0.78120
 C793 C 0.71075 0.58939 0.91906
 C794 C 0.68925 0.58066 0.92726
 C795 C 0.67617 0.59341 0.94369
 C796 C 0.68445 0.61516 0.95223
 C797 C 0.70608 0.62382 0.94365
 C798 C 0.71908 0.61101 0.92722
 C799 C 0.72444 0.57605 0.90251
 C800 C 0.73609 0.56490 0.88878
 C801 C 0.75018 0.55161 0.87253
 C802 C 0.74811 0.55555 0.84839
 C803 C 0.76192 0.54274 0.83263
 C804 C 0.77786 0.52576 0.84086
 C805 C 0.78001 0.52204 0.86512
 C806 C 0.76617 0.53484 0.88085
 H807 H 0.68263 0.56392 0.92105
 H808 H 0.65965 0.58609 0.94977
 H809 H 0.71312 0.64045 0.94969
 H810 H 0.73572 0.61794 0.92099
 H811 H 0.73584 0.56853 0.84176
 H812 H 0.76006 0.54590 0.81400
 H813 H 0.79245 0.50929 0.87185
 H814 H 0.76800 0.53173 0.89950
 C815 C 0.29004 0.40959 0.91744
 C816 C 0.28146 0.38818 0.92591
 C817 C 0.29413 0.37564 0.94279
 C818 C 0.31566 0.38437 0.95154
 C819 C 0.32419 0.40591 0.94272
 C820 C 0.31144 0.41839 0.92582
 C821 C 0.27656 0.42267 0.90050
 C822 C 0.26489 0.43351 0.88654
 C823 C 0.25047 0.44633 0.87019
 C824 C 0.22613 0.44242 0.86962
 C825 C 0.21191 0.45517 0.85419
 C826 C 0.22187 0.47206 0.83922
 C827 C 0.24636 0.47564 0.83960
 C828 C 0.26058 0.46289 0.85508
 H829 H 0.26488 0.38121 0.91955
 H830 H 0.28691 0.35918 0.94903
 H831 H 0.34065 0.41326 0.94892
 H832 H 0.31822 0.43498 0.91940
 H833 H 0.21812 0.42966 0.88123
 H834 H 0.19307 0.45216 0.85421
 H835 H 0.25442 0.48838 0.82801
 H836 H 0.27940 0.46602 0.85533
 C837 C 0.28847 0.58979 0.08072
 C838 C 0.27985 0.61127 0.07248
 C839 C 0.29265 0.62415 0.05596
 C840 C 0.31435 0.61570 0.04736
 C841 C 0.32293 0.59410 0.05599
 C842 C 0.31006 0.58128 0.07252
 C843 C 0.27497 0.57634 0.09733
 C844 C 0.26347 0.56508 0.11110
 C845 C 0.24956 0.55168 0.12741
 C846 C 0.25174 0.55561 0.15154
 C847 C 0.23802 0.54277 0.16735
 C848 C 0.22207 0.52577 0.15918
 C849 C 0.21985 0.52203 0.13493
 C850 C 0.23359 0.53486 0.11914
 H851 H 0.26314 0.61801 0.07872
 H852 H 0.28539 0.64065 0.04985
 H853 H 0.33952 0.58695 0.04990
 H854 H 0.31689 0.56465 0.07879
 H855 H 0.26400 0.56863 0.15812
 H856 H 0.23993 0.54595 0.18597
 H857 H 0.20739 0.50928 0.12824
 H858 H 0.23168 0.53176 0.10050
 C859 C 0.71051 0.41121 0.08257
 C860 C 0.68900 0.41989 0.07433
 C861 C 0.67608 0.40721 0.05771
 C862 C 0.68454 0.38559 0.04901
 C863 C 0.70618 0.37698 0.05764
 C864 C 0.71902 0.38971 0.07425
 C865 C 0.72413 0.42454 0.09919
 C866 C 0.73580 0.43572 0.11289
 C867 C 0.75001 0.44912 0.12896
 C868 C 0.74774 0.44581 0.15318
 C869 C 0.76173 0.45873 0.16872
 C870 C 0.77804 0.47519 0.16016
 C871 C 0.78039 0.47825 0.13582
 C872 C 0.76638 0.46535 0.12033
 H873 H 0.68227 0.43654 0.08064
 H874 H 0.65955 0.41448 0.05161
 H875 H 0.71335 0.36046 0.05148
 H876 H 0.73567 0.38284 0.08049
 H877 H 0.73518 0.43324 0.16005
 H878 H 0.75972 0.45607 0.18741
 H879 H 0.79313 0.49055 0.12884
 H880 H 0.76839 0.46795 0.10162
 C881 C 0.91911 0.71048 0.58930
 C882 C 0.92725 0.68897 0.58063
 C883 C 0.94370 0.67587 0.59338
 C884 C 0.95231 0.68414 0.61507
 C885 C 0.94379 0.70577 0.62367
 C886 C 0.92735 0.71879 0.61086
 C887 C 0.90255 0.72419 0.57596
 C888 C 0.88880 0.73586 0.56482
 C889 C 0.87251 0.74996 0.55155
 C890 C 0.88092 0.76578 0.53472
 C891 C 0.86516 0.77967 0.52198
 C892 C 0.84079 0.77774 0.52582
 C893 C 0.83247 0.76197 0.54285
 C894 C 0.84826 0.74811 0.55561
 H895 H 0.92099 0.68237 0.56394
 H896 H 0.94974 0.65935 0.58612
 H897 H 0.94989 0.71279 0.64024
 H898 H 0.92116 0.73543 0.61773
 H899 H 0.89966 0.76745 0.53152
 H900 H 0.87196 0.79198 0.50919
 H901 H 0.81376 0.76028 0.54612
 H902 H 0.84157 0.73597 0.56864
 C903 C 0.91867 0.28903 0.40947
 C904 C 0.92716 0.28058 0.38806
 C905 C 0.94380 0.29349 0.37541
 C906 C 0.95228 0.31514 0.38402
 C907 C 0.94343 0.32353 0.40556
 C908 C 0.92677 0.31054 0.41816
 C909 C 0.90193 0.27536 0.42264
 C910 C 0.88810 0.26359 0.43356
 C911 C 0.87183 0.24915 0.44647
 C912 C 0.87193 0.22476 0.44329
 C913 C 0.85639 0.21060 0.45597
 C914 C 0.84063 0.22067 0.47207
 C915 C 0.84040 0.24519 0.47498
 C916 C 0.85599 0.25935 0.46229
 H917 H 0.92101 0.26393 0.38119
 H918 H 0.95008 0.28638 0.35895
 H919 H 0.94942 0.34006 0.41283
 H920 H 0.92032 0.31722 0.43474
 H921 H 0.88411 0.21669 0.43109
 H922 H 0.85687 0.19173 0.45348
 H923 H 0.82818 0.25334 0.48707
 H924 H 0.85571 0.27821 0.46484
 C925 C 0.07996 0.28816 0.58976
 C926 C 0.07178 0.30972 0.58128
 C927 C 0.05523 0.32262 0.59408
 C928 C 0.04654 0.31411 0.61564
 C929 C 0.05510 0.29241 0.62405
 C930 C 0.07165 0.27958 0.61119
 C931 C 0.09665 0.27466 0.57636
 C932 C 0.11050 0.26319 0.56514
 C933 C 0.12692 0.24934 0.55177
 C934 C 0.11865 0.23358 0.53481
 C935 C 0.13454 0.21990 0.52199
 C936 C 0.15889 0.22198 0.52589
 C937 C 0.16706 0.23772 0.54303
 C938 C 0.15115 0.25137 0.55586
 H939 H 0.07810 0.31652 0.56469
 H940 H 0.04917 0.33920 0.58695
 H941 H 0.04894 0.28520 0.64052
 H942 H 0.07787 0.26290 0.61792
 H943 H 0.09993 0.23178 0.53158
 H944 H 0.12785 0.20761 0.50912
 H945 H 0.18576 0.23952 0.54634
 H946 H 0.15773 0.26346 0.56899
 C947 C 0.08224 0.71069 0.41121
 C948 C 0.07402 0.68919 0.41984
 C949 C 0.05737 0.67627 0.40717
 C950 C 0.04863 0.68471 0.38560
 C951 C 0.05722 0.70634 0.37705
 C952 C 0.07386 0.71918 0.38978
 C953 C 0.09892 0.72429 0.42452
 C954 C 0.11268 0.73593 0.43568
 C955 C 0.12883 0.75011 0.44904
 C956 C 0.12016 0.76633 0.46535
 C957 C 0.13572 0.78029 0.47823
 C958 C 0.16017 0.77807 0.47507
 C959 C 0.16876 0.76192 0.45852
 C960 C 0.15316 0.74796 0.44562
 H961 H 0.08038 0.68247 0.43645
 H962 H 0.05129 0.65975 0.41439
 H963 H 0.05102 0.71349 0.36057
 H964 H 0.08008 0.73582 0.38295
 H965 H 0.10136 0.76824 0.46804
 H966 H 0.12870 0.79291 0.49060
 H967 H 0.18754 0.76001 0.45578
 H968 H 0.16006 0.73553 0.43299
 C969 C 0.58960 0.91866 0.71186
 C970 C 0.61134 0.92677 0.72014
 C971 C 0.62419 0.94321 0.70718
 C972 C 0.61544 0.95178 0.68574
 C973 C 0.59364 0.94340 0.67749
 C974 C 0.58082 0.92695 0.69049
 C975 C 0.57619 0.90210 0.72547
 C976 C 0.56495 0.88836 0.73702
 C977 C 0.55152 0.87208 0.75095
 C978 C 0.55554 0.84789 0.74900
 C979 C 0.54259 0.83211 0.76266
 C980 C 0.52539 0.84038 0.77831
 C981 C 0.52158 0.86469 0.78033
 C982 C 0.53452 0.88045 0.76665
 H983 H 0.61829 0.92047 0.73667
 H984 H 0.64089 0.94930 0.71403
 H985 H 0.58640 0.94964 0.66107
 H986 H 0.56400 0.92081 0.68393
 H987 H 0.56869 0.84124 0.73695
 H988 H 0.54582 0.81344 0.76091
 H989 H 0.50866 0.87145 0.79256
 H990 H 0.53134 0.89914 0.76838
 C991 C 0.40985 0.91740 0.28939
 C992 C 0.38831 0.92584 0.28095
 C993 C 0.37575 0.94268 0.29367
 C994 C 0.38459 0.95134 0.31503
 C995 C 0.40621 0.94265 0.32345
 C996 C 0.41875 0.92580 0.31069
 C997 C 0.42297 0.90048 0.27593
 C998 C 0.43387 0.88653 0.26429
 C999 C 0.44677 0.87018 0.24995
 C1000 C 0.44306 0.86977 0.22570
 C1001 C 0.45588 0.85434 0.21157
 C1002 C 0.47266 0.83919 0.22154
 C1003 C 0.47605 0.83941 0.24595
 C1004 C 0.46322 0.85490 0.26007
 H1005 H 0.38129 0.91949 0.26447
 H1006 H 0.35917 0.94898 0.28669
 H1007 H 0.41350 0.94895 0.33982
 H1008 H 0.43543 0.91942 0.31736
 H1009 H 0.43038 0.88152 0.21769
 H1010 H 0.45303 0.85448 0.19280
 H1011 H 0.48870 0.82768 0.25401
 H1012 H 0.46619 0.85503 0.27883
 C1013 C 0.58912 0.08096 0.28813
 C1014 C 0.58047 0.07275 0.30959
 C1015 C 0.59331 0.05629 0.32253
 C1016 C 0.61501 0.04779 0.31414
 C1017 C 0.62363 0.05627 0.29262
 C1018 C 0.61075 0.07274 0.27972
 C1019 C 0.57568 0.09755 0.27457
 C1020 C 0.56444 0.11132 0.26306
 C1021 C 0.55104 0.12765 0.24916
 C1022 C 0.53405 0.11935 0.23341
 C1023 C 0.52119 0.13516 0.21970
 C1024 C 0.52509 0.15945 0.22173
 C1025 C 0.54226 0.16766 0.23745
 C1026 C 0.55513 0.15183 0.25114
 H1027 H 0.56373 0.07899 0.31626
 H1028 H 0.58618 0.05011 0.33902
 H1029 H 0.64026 0.05009 0.28566
 H1030 H 0.61761 0.07896 0.26312
 H1031 H 0.53082 0.10067 0.23165
 H1032 H 0.50829 0.12845 0.20741
 H1033 H 0.54557 0.18632 0.23921
 H1034 H 0.56828 0.15843 0.26323
 C1035 C 0.41207 0.08349 0.70992
 C1036 C 0.42093 0.07503 0.68864
 C1037 C 0.40832 0.05821 0.67590
 C1038 C 0.38667 0.04962 0.68433
 C1039 C 0.37787 0.05835 0.70568
 C1040 C 0.39050 0.07516 0.71837
 C1041 C 0.42525 0.10038 0.72338
 C1042 C 0.43615 0.11430 0.73505
 C1043 C 0.44902 0.13061 0.74947
 C1044 C 0.46561 0.14581 0.73946
 C1045 C 0.47839 0.16128 0.75366
 C1046 C 0.47480 0.16155 0.77804
 C1047 C 0.45789 0.14649 0.78789
 C1048 C 0.44512 0.13108 0.77369
 H1049 H 0.43764 0.08133 0.68197
 H1050 H 0.41558 0.05185 0.65954
 H1051 H 0.36127 0.05213 0.71266
 H1052 H 0.38350 0.08156 0.73484
 H1053 H 0.46873 0.14564 0.72072
 H1054 H 0.49115 0.17294 0.74568
 H1055 H 0.45489 0.14638 0.80664
 H1056 H 0.43233 0.11939 0.78161
 C1057 C 0.58891 0.71046 0.08181
 C1058 C 0.58011 0.68907 0.07346
 C1059 C 0.59266 0.67635 0.05659
 C1060 C 0.61420 0.68491 0.04785
 C1061 C 0.62293 0.70638 0.05646
 C1062 C 0.61036 0.71905 0.07331
 C1063 C 0.57580 0.72386 0.09877
 C1064 C 0.56493 0.73546 0.11277
 C1065 C 0.55207 0.74975 0.12919
 C1066 C 0.53553 0.73956 0.14429
 C1067 C 0.52273 0.75364 0.15984
 C1068 C 0.52625 0.77809 0.16029
 C1069 C 0.54313 0.78812 0.14534
 C1070 C 0.55592 0.77403 0.12984
 H1071 H 0.56349 0.68228 0.07989
 H1072 H 0.58545 0.65989 0.05034
 H1073 H 0.63944 0.71346 0.05011
 H1074 H 0.61732 0.73561 0.07962
 H1075 H 0.53245 0.72078 0.14397
 H1076 H 0.51000 0.74552 0.17142
 H1077 H 0.54608 0.80693 0.14537
 H1078 H 0.56868 0.78210 0.11823
 C1079 C 0.41063 0.28876 0.08129
 C1080 C 0.41946 0.31018 0.07304
 C1081 C 0.40675 0.32316 0.05650
 C1082 C 0.38502 0.31484 0.04799
 C1083 C 0.37623 0.29337 0.05653
 C1084 C 0.38897 0.28043 0.07307
 C1085 C 0.42393 0.27512 0.09792
 C1086 C 0.43504 0.26349 0.11170
 C1087 C 0.44827 0.24940 0.12800
 C1088 C 0.46523 0.23358 0.11974
 C1089 C 0.47794 0.21971 0.13550
 C1090 C 0.47395 0.22166 0.15973
 C1091 C 0.45678 0.23743 0.16791
 C1092 C 0.44405 0.25128 0.15211
 H1093 H 0.43622 0.31677 0.07928
 H1094 H 0.41401 0.33961 0.05028
 H1095 H 0.35958 0.28646 0.05035
 H1096 H 0.38198 0.26387 0.07932
 H1097 H 0.46855 0.23190 0.10111
 H1098 H 0.49084 0.20740 0.12882
 H1099 H 0.45340 0.23913 0.18651
 H1100 H 0.43092 0.26341 0.15869
 C1101 C 0.59003 0.29028 0.91864
 C1102 C 0.58102 0.31155 0.92709
 C1103 C 0.59341 0.32428 0.94407
 C1104 C 0.61499 0.31586 0.95283
 C1105 C 0.62394 0.29451 0.94413
 C1106 C 0.61153 0.28183 0.92716
 C1107 C 0.57711 0.27687 0.90154
 C1108 C 0.56639 0.26526 0.88743
 C1109 C 0.55371 0.25096 0.87089
 C1110 C 0.53732 0.26114 0.85560
 C1111 C 0.52466 0.24705 0.83995
 C1112 C 0.52816 0.22260 0.83957
 C1113 C 0.54490 0.21257 0.85469
 C1114 C 0.55755 0.22667 0.87029
 H1115 H 0.56436 0.31823 0.92064
 H1116 H 0.58604 0.34064 0.95039
 H1117 H 0.64050 0.28754 0.95048
 H1118 H 0.61866 0.26537 0.92078
 H1119 H 0.53425 0.27993 0.85587
 H1120 H 0.51204 0.25516 0.82824
 H1121 H 0.54783 0.19376 0.85471
 H1122 H 0.57018 0.21860 0.88204
 C1123 C 0.40938 0.71171 0.91801
 C1124 C 0.41817 0.69028 0.92626
 C1125 C 0.40542 0.67729 0.94275
 C1126 C 0.38368 0.68561 0.95123
 C1127 C 0.37492 0.70710 0.94267
 C1128 C 0.38770 0.72004 0.92619
 C1129 C 0.42276 0.72536 0.90146
 C1130 C 0.43398 0.73694 0.88774
 C1131 C 0.44740 0.75095 0.87153
 C1132 C 0.46438 0.76669 0.87990
 C1133 C 0.47731 0.78044 0.86421
 C1134 C 0.47351 0.77846 0.83995
 C1135 C 0.45632 0.76277 0.83167
 C1136 C 0.44338 0.74903 0.84739
 H1137 H 0.43495 0.68368 0.92006
 H1138 H 0.41267 0.66084 0.94898
 H1139 H 0.35826 0.71401 0.94884
 H1140 H 0.38074 0.73662 0.91993
 H1141 H 0.46756 0.76840 0.89855
 H1142 H 0.49022 0.79271 0.87098
 H1143 H 0.45309 0.76104 0.81304
 H1144 H 0.43024 0.73695 0.84072
 C1145 C 0.71192 0.91827 0.41074
 C1146 C 0.72038 0.92639 0.38917
 C1147 C 0.70742 0.94280 0.37628
 C1148 C 0.68580 0.95134 0.38482
 C1149 C 0.67736 0.94293 0.40645
 C1150 C 0.69036 0.92652 0.41931
 C1151 C 0.72554 0.90173 0.42419
 C1152 C 0.73711 0.88800 0.43544
 C1153 C 0.75107 0.87171 0.44884
 C1154 C 0.76686 0.88005 0.46576
 C1155 C 0.78063 0.86428 0.47860
 C1156 C 0.77863 0.83997 0.47476
 C1157 C 0.76287 0.83173 0.45765
 C1158 C 0.74912 0.84752 0.44480
 H1159 H 0.73706 0.92013 0.38238
 H1160 H 0.71442 0.94891 0.35971
 H1161 H 0.66080 0.94915 0.41353
 H1162 H 0.68366 0.92036 0.43600
 H1163 H 0.76860 0.89874 0.46895
 H1164 H 0.79295 0.87102 0.49145
 H1165 H 0.76112 0.81306 0.45439
 H1166 H 0.73701 0.84088 0.43170
 C1167 C 0.28964 0.91911 0.58911
 C1168 C 0.31109 0.92737 0.58026
 C1169 C 0.32407 0.94408 0.59279
 C1170 C 0.31572 0.95275 0.61435
 C1171 C 0.29420 0.94421 0.62315
 C1172 C 0.28127 0.92752 0.61060
 C1173 C 0.27599 0.90230 0.57605
 C1174 C 0.26423 0.88839 0.56522
 C1175 C 0.24982 0.87201 0.55241
 C1176 C 0.26009 0.85629 0.53653
 C1177 C 0.24596 0.84061 0.52393
 C1178 C 0.22139 0.84062 0.52698
 C1179 C 0.21126 0.85625 0.54315
 C1180 C 0.22540 0.87189 0.55575
 H1181 H 0.31772 0.92100 0.56363
 H1182 H 0.34055 0.95028 0.58553
 H1183 H 0.28727 0.95051 0.63968
 H1184 H 0.26468 0.92127 0.61760
 H1185 H 0.27898 0.85619 0.53386
 H1186 H 0.25416 0.82849 0.51178
 H1187 H 0.19236 0.85656 0.54575
 H1188 H 0.21727 0.88396 0.56800
 C1189 C 0.28804 0.08139 0.41128
 C1190 C 0.27958 0.07321 0.38974
 C1191 C 0.29251 0.05672 0.37692
 C1192 C 0.31411 0.04817 0.38551
 C1193 C 0.32254 0.05662 0.40712
 C1194 C 0.30957 0.07311 0.41991
 C1195 C 0.27445 0.09801 0.42464
 C1196 C 0.26288 0.11181 0.43581
 C1197 C 0.24889 0.12815 0.44911
 C1198 C 0.23317 0.11987 0.46612
 C1199 C 0.21936 0.13568 0.47888
 C1200 C 0.22128 0.15997 0.47488
 C1201 C 0.23696 0.16816 0.45768
 C1202 C 0.25074 0.15232 0.44491
 H1203 H 0.26293 0.07949 0.38290
 H1204 H 0.28551 0.05059 0.36036
 H1205 H 0.33909 0.05039 0.41423
 H1206 H 0.31628 0.07932 0.43659
 H1207 H 0.23150 0.10120 0.46944
 H1208 H 0.20711 0.12898 0.49180
 H1209 H 0.23864 0.18681 0.45429
 H1210 H 0.26281 0.15891 0.43174
 C1211 C 0.71182 0.08161 0.58904
 C1212 C 0.69021 0.07339 0.58055
 C1213 C 0.67736 0.05680 0.59335
 C1214 C 0.68600 0.04820 0.61483
 C1215 C 0.70768 0.05672 0.62328
 C1216 C 0.72048 0.07330 0.61045
 C1217 C 0.72533 0.09823 0.57559
 C1218 C 0.73684 0.11195 0.56427
 C1219 C 0.75082 0.12807 0.55069
 C1220 C 0.74844 0.15235 0.55392
 C1221 C 0.76221 0.16794 0.54082
 C1222 C 0.77839 0.15938 0.52426
 C1223 C 0.78083 0.13499 0.52127
 C1224 C 0.76705 0.11944 0.53435
 H1225 H 0.68336 0.07968 0.56398
 H1226 H 0.66076 0.05061 0.58635
 H1227 H 0.71483 0.05047 0.63974
 H1228 H 0.73720 0.07952 0.61717
 H1229 H 0.73599 0.15921 0.56657
 H1230 H 0.76014 0.18667 0.54344
 H1231 H 0.79348 0.12801 0.50890
 H1232 H 0.76913 0.10069 0.53180
 C1233 C 0.91932 0.58932 0.28934
 C1234 C 0.92766 0.58042 0.31066
 C1235 C 0.94434 0.59302 0.32362
 C1236 C 0.95292 0.61470 0.31538
 C1237 C 0.94432 0.62354 0.29398
 C1238 C 0.92765 0.61092 0.28108
 C1239 C 0.90252 0.57619 0.27571
 C1240 C 0.88861 0.56533 0.26397
 C1241 C 0.87223 0.55250 0.24958
 C1242 C 0.85635 0.53668 0.25976
 C1243 C 0.84064 0.52408 0.24565
 C1244 C 0.84078 0.52708 0.22119
 C1245 C 0.85658 0.54319 0.21114
 C1246 C 0.87224 0.55578 0.22526
 H1247 H 0.92135 0.56369 0.31721
 H1248 H 0.95060 0.58572 0.34000
 H1249 H 0.95055 0.64016 0.28713
 H1250 H 0.92134 0.61796 0.26459
 H1251 H 0.85614 0.53406 0.27857
 H1252 H 0.82840 0.51198 0.25379
 H1253 H 0.85699 0.54575 0.19233
 H1254 H 0.88444 0.56799 0.21720
 C1255 C 0.91775 0.41000 0.71196
 C1256 C 0.92585 0.38832 0.72025
 C1257 C 0.94225 0.37542 0.70727
 C1258 C 0.95080 0.38407 0.68579
 C1259 C 0.94242 0.40582 0.67751
 C1260 C 0.92601 0.41868 0.69053
 C1261 C 0.90125 0.42347 0.72561
 C1262 C 0.88756 0.43474 0.73721
 C1263 C 0.87134 0.44819 0.75120
 C1264 C 0.84708 0.44409 0.74950
 C1265 C 0.83135 0.45701 0.76326
 C1266 C 0.83973 0.47425 0.77879
 C1267 C 0.86411 0.47815 0.78055
 C1268 C 0.87981 0.46524 0.76676
 H1269 H 0.91958 0.38144 0.73683
 H1270 H 0.94834 0.35876 0.71415
 H1271 H 0.94865 0.41298 0.66106
 H1272 H 0.91987 0.43546 0.68396
 H1273 H 0.84034 0.43090 0.73756
 H1274 H 0.81263 0.45371 0.76170
 H1275 H 0.87096 0.49110 0.79268
 H1276 H 0.89855 0.46847 0.76831
 C1277 C 0.08196 0.58826 0.71037
 C1278 C 0.07355 0.60974 0.71889
 C1279 C 0.05674 0.62238 0.70620
 C1280 C 0.04806 0.61370 0.68478
 C1281 C 0.05672 0.59214 0.67628
 C1282 C 0.07355 0.57952 0.68902
 C1283 C 0.09887 0.57508 0.72381
 C1284 C 0.11283 0.56415 0.73543
 C1285 C 0.12920 0.55123 0.74976
 C1286 C 0.12968 0.55496 0.77400
 C1287 C 0.14517 0.54217 0.78812
 C1288 C 0.16030 0.52539 0.77814
 C1289 C 0.16001 0.52197 0.75374
 C1290 C 0.14446 0.53477 0.73963
 H1291 H 0.07991 0.61665 0.73542
 H1292 H 0.05046 0.63891 0.71324
 H1293 H 0.05041 0.58497 0.65986
 H1294 H 0.07991 0.56289 0.68228
 H1295 H 0.11795 0.56765 0.78202
 H1296 H 0.14508 0.54504 0.80688
 H1297 H 0.17172 0.50932 0.74567
 H1298 H 0.14428 0.53178 0.72088
 C1299 C 0.08111 0.41145 0.28817
 C1300 C 0.07303 0.38977 0.27987
 C1301 C 0.05654 0.37692 0.29278
 C1302 C 0.04788 0.38561 0.31421
 C1303 C 0.05623 0.40737 0.32248
 C1304 C 0.07272 0.42020 0.30952
 C1305 C 0.09774 0.42483 0.27459
 C1306 C 0.11156 0.43597 0.26301
 C1307 C 0.12793 0.44922 0.24900
 C1308 C 0.11964 0.46630 0.23338
 C1309 C 0.13547 0.47899 0.21955
 C1310 C 0.15981 0.47485 0.22133
 C1311 C 0.16801 0.45758 0.23691
 C1312 C 0.15214 0.44487 0.25072
 H1313 H 0.07939 0.38284 0.26335
 H1314 H 0.05049 0.36024 0.28590
 H1315 H 0.04991 0.41456 0.33889
 H1316 H 0.07885 0.43698 0.31610
 H1317 H 0.10093 0.46972 0.23182
 H1318 H 0.12876 0.49197 0.20738
 H1319 H 0.18670 0.45409 0.23849
 H1320 H 0.15875 0.43165 0.26270
   
