data_POSCAR
  _audit_creation_date              2014-09-24
  _audit_creation_method            'ToBaCCo'
  _symmetry_space_group_name_H-M    'P1'
  _symmetry_Int_Tables_number       1
  _symmetry_cell_setting            triclinic
  loop_
  _symmetry_equiv_pos_as_xyz
 x,y,z
_cell_length_a 52.0970
_cell_length_b 52.1109
_cell_length_c 52.0439
_cell_angle_alpha 89.976400
_cell_angle_beta 90.056500
_cell_angle_gamma 89.909400
loop_
  _atom_site_label
  _atom_site_type_symbol
  _atom_site_fract_x
  _atom_site_fract_y
  _atom_site_fract_z
C1 C 0.36400 1.34623 0.32706
 C2 C 0.36410 1.32753 0.34644
 C3 C 0.34535 1.32775 0.36522
 C4 C 0.32618 1.34669 0.36484
 C5 C 0.32607 1.36511 0.34570
 C6 C 0.34515 1.36490 0.32669
 C7 C 0.37931 1.35004 0.30589
 N8 N 0.37018 1.37066 0.29254
 C9 C 0.34933 1.37985 0.30527
 C10 C 0.30480 1.38032 0.34951
 N11 N 0.29190 1.37153 0.37054
 C12 C 0.30499 1.35103 0.38001
 C13 C 0.34974 1.30690 0.38089
 N14 N 0.37058 1.29398 0.37201
 C15 C 0.37956 1.30659 0.35095
 H16 H 0.39566 1.33832 0.30079
 H17 H 0.33775 1.39601 0.29913
 H18 H 0.29930 1.39632 0.33749
 H19 H 0.29924 1.33975 0.39652
 H20 H 0.33834 1.30123 0.39732
 H21 H 0.39600 1.30109 0.33955
 C22 C 0.36579 0.84763 0.82848
 C23 C 0.36594 0.82869 0.84763
 C24 C 0.34707 0.82855 0.86631
 C25 C 0.32780 0.84740 0.86612
 C26 C 0.32769 0.86605 0.84723
 C27 C 0.34681 0.86619 0.82831
 C28 C 0.38105 0.85183 0.80733
 N29 N 0.37168 0.87248 0.79429
 C30 C 0.35083 0.88140 0.80709
 C31 C 0.30632 0.88106 0.85102
 N32 N 0.29330 0.87196 0.87182
 C33 C 0.30645 0.85143 0.88117
 C34 C 0.35137 0.80746 0.88165
 N35 N 0.37236 0.79474 0.87265
 C36 C 0.38141 0.80770 0.85194
 H37 H 0.39759 0.84048 0.80196
 H38 H 0.33914 0.89752 0.80108
 H39 H 0.30084 0.89717 0.83912
 H40 H 0.30061 0.83991 0.89748
 H41 H 0.33982 0.80188 0.89796
 H42 H 0.39780 0.80194 0.84052
 C43 C 0.86451 1.34664 0.82687
 C44 C 0.86442 1.32760 0.84593
 C45 C 0.84566 1.32772 0.86467
 C46 C 0.82669 1.34683 0.86458
 C47 C 0.82677 1.36563 0.84583
 C48 C 0.84586 1.36554 0.82681
 C49 C 0.87983 1.35061 0.80574
 N50 N 0.87090 1.37151 0.79271
 C51 C 0.85017 1.38075 0.80561
 C52 C 0.80561 1.38095 0.85001
 N53 N 0.79260 1.37184 0.87072
 C54 C 0.80554 1.35094 0.87980
 C55 C 0.84978 1.30661 0.88005
 N56 N 0.87049 1.29361 0.87105
 C57 C 0.87965 1.30641 0.85018
 H58 H 0.89602 1.33876 0.80042
 H59 H 0.83874 1.39711 0.79971
 H60 H 0.79981 1.39727 0.83848
 H61 H 0.80015 1.33920 0.89603
 H62 H 0.83828 1.30085 0.89638
 H63 H 0.89607 1.30088 0.83875
 C64 C 0.86634 0.84764 0.32682
 C65 C 0.86625 0.82870 0.34598
 C66 C 0.84747 0.82891 0.36470
 C67 C 0.82851 0.84803 0.36454
 C68 C 0.82859 0.86673 0.34568
 C69 C 0.84768 0.86654 0.32666
 C70 C 0.88169 0.85154 0.30570
 N71 N 0.87278 0.87240 0.29259
 C72 C 0.85204 0.88168 0.30543
 C73 C 0.80744 0.88208 0.34980
 N74 N 0.79450 0.87307 0.37056
 C75 C 0.80739 0.85227 0.37977
 C76 C 0.85148 0.80785 0.38014
 N77 N 0.87227 0.79478 0.37117
 C78 C 0.88144 0.80750 0.35036
 H79 H 0.89791 0.83969 0.30047
 H80 H 0.84063 0.89804 0.29947
 H81 H 0.80158 0.89836 0.33824
 H82 H 0.80194 0.84082 0.39621
 H83 H 0.83990 0.80257 0.39653
 H84 H 0.89774 0.80147 0.33895
 C85 C 0.63257 0.65158 0.32806
 C86 C 0.63221 0.67062 0.34707
 C87 C 0.65093 0.67092 0.36593
 C88 C 0.67024 0.65215 0.36608
 C89 C 0.67062 0.63340 0.34730
 C90 C 0.65165 0.63312 0.32816
 C91 C 0.61751 0.64725 0.30678
 N92 N 0.62699 0.62669 0.29383
 C93 C 0.64792 0.61787 0.30692
 C94 C 0.69200 0.61845 0.35156
 N95 N 0.70468 0.62775 0.37246
 C96 C 0.69140 0.64828 0.38148
 C97 C 0.64649 0.69210 0.38105
 N98 N 0.62557 0.70474 0.37172
 C99 C 0.61668 0.69162 0.35105
 H100 H 0.60109 0.65859 0.30084
 H101 H 0.65995 0.60184 0.30153
 H102 H 0.69776 0.60213 0.34009
 H103 H 0.69702 0.65985 0.39782
 H104 H 0.65789 0.69779 0.39746
 H105 H 0.60039 0.69730 0.33941
 C106 C 0.63555 0.15300 0.82759
 C107 C 0.63537 0.17187 0.84681
 C108 C 0.65418 0.17190 0.86560
 C109 C 0.67347 0.15310 0.86540
 C110 C 0.67369 0.13458 0.84641
 C111 C 0.65459 0.13452 0.82738
 C112 C 0.62022 0.14874 0.80644
 N113 N 0.62952 0.12819 0.79330
 C114 C 0.65061 0.11934 0.80612
 C115 C 0.69503 0.11950 0.85035
 N116 N 0.70789 0.12846 0.87135
 C117 C 0.69468 0.14896 0.88066
 C118 C 0.64977 0.19284 0.88108
 N119 N 0.62888 0.20561 0.87212
 C120 C 0.61985 0.19281 0.85118
 H121 H 0.60370 0.16005 0.80077
 H122 H 0.66252 0.10327 0.80061
 H123 H 0.70058 0.10343 0.83847
 H124 H 0.70036 0.16034 0.89712
 H125 H 0.66123 0.19869 0.89742
 H126 H 0.60339 0.19823 0.83972
 C127 C 1.13327 0.65066 0.82927
 C128 C 1.13326 0.66978 0.84820
 C129 C 1.15236 0.67020 0.86664
 C130 C 1.17171 0.65147 0.86645
 C131 C 1.17173 0.63258 0.84782
 C132 C 1.15238 0.63220 0.82905
 C133 C 1.11778 0.64626 0.80834
 N134 N 1.12705 0.62572 0.79529
 C135 C 1.14820 0.61689 0.80792
 C136 C 1.19328 0.61774 0.85176
 N137 N 1.20642 0.62720 0.87225
 C138 C 1.19321 0.64788 0.88139
 C139 C 1.14819 0.69143 0.88178
 N140 N 1.12704 0.70397 0.87287
 C141 C 1.11775 0.69075 0.85243
 H142 H 1.10125 0.65754 0.80263
 H143 H 1.15994 0.60074 0.80224
 H144 H 1.19923 0.60149 0.84024
 H145 H 1.19864 0.65982 0.89747
 H146 H 1.15993 0.69721 0.89790
 H147 H 1.10119 0.69633 0.84113
 C148 C 1.13536 0.15308 0.32626
 C149 C 1.13480 0.17187 0.34552
 C150 C 1.15354 0.17213 0.36434
 C151 C 1.17306 0.15358 0.36421
 C152 C 1.17363 0.13503 0.34525
 C153 C 1.15464 0.13481 0.32609
 C154 C 1.12027 0.14886 0.30499
 N155 N 1.12991 0.12856 0.29175
 C156 C 1.15098 0.11978 0.30466
 C157 C 1.19518 0.12025 0.34943
 N158 N 1.20779 0.12943 0.37038
 C159 C 1.19424 0.14986 0.37957
 C160 C 1.14887 0.19300 0.37981
 N161 N 1.12776 0.20551 0.37075
 C162 C 1.11900 0.19261 0.34987
 H163 H 1.10370 0.16009 0.29926
 H164 H 1.16313 0.10392 0.29904
 H165 H 1.20148 0.10422 0.33778
 H166 H 1.19921 0.16153 0.39600
 H167 H 1.16022 0.19855 0.39630
 H168 H 1.10259 0.19824 0.33838
 C169 C 0.63335 1.34634 0.67310
 C170 C 0.63310 1.32729 0.65405
 C171 C 0.65167 1.32724 0.63507
 C172 C 0.67073 1.34622 0.63483
 C173 C 0.67099 1.36494 0.65362
 C174 C 0.65218 1.36500 0.67287
 C175 C 0.61837 1.35063 0.69447
 N176 N 0.62771 1.37134 0.70730
 C177 C 0.64842 1.38028 0.69406
 C178 C 0.69210 1.38014 0.64926
 N179 N 0.70475 1.37101 0.62828
 C180 C 0.69170 1.35034 0.61931
 C181 C 0.64739 1.30612 0.61985
 N182 N 0.62670 1.29324 0.62919
 C183 C 0.61780 1.30616 0.65001
 H184 H 0.60212 1.33920 0.70051
 H185 H 0.66028 1.39647 0.69927
 H186 H 0.69771 1.39650 0.66072
 H187 H 0.69736 1.33886 0.60292
 H188 H 0.65872 1.30067 0.60333
 H189 H 0.60163 1.30029 0.66167
 C190 C 0.63552 0.84677 1.17260
 C191 C 0.63565 0.82775 1.15354
 C192 C 0.65437 0.82787 1.13473
 C193 C 0.67326 0.84702 1.13474
 C194 C 0.67312 0.86577 1.15356
 C195 C 0.65409 0.86566 1.17260
 C196 C 0.62022 0.85077 1.19375
 N197 N 0.62911 0.87170 1.20672
 C198 C 0.64977 0.88091 1.19376
 C199 C 0.69412 0.88120 1.14943
 N200 N 0.70708 0.87221 1.12858
 C201 C 0.69436 0.85140 1.11946
 C202 C 0.65020 0.80676 1.11937
 N203 N 0.62953 0.79379 1.12846
 C204 C 0.62044 0.80660 1.14935
 H205 H 0.60407 0.83894 1.19913
 H206 H 0.66116 0.89728 1.19958
 H207 H 0.69943 0.89760 1.16097
 H208 H 0.70032 0.83999 1.10313
 H209 H 0.66163 0.80100 1.10298
 H210 H 0.60406 0.80112 1.16085
 C211 C 1.13493 1.34793 1.17206
 C212 C 1.13496 1.32892 1.15298
 C213 C 1.15393 1.32877 1.13445
 C214 C 1.17311 1.34762 1.13468
 C215 C 1.17308 1.36639 1.15343
 C216 C 1.15383 1.36655 1.17228
 C217 C 1.11944 1.35218 1.19302
 N218 N 1.12856 1.37290 1.20606
 C219 C 1.14949 1.38184 1.19341
 C220 C 1.19440 1.38146 1.14940
 N221 N 1.20745 1.37222 1.12876
 C222 C 1.19440 1.35148 1.11960
 C223 C 1.14978 1.30774 1.11904
 N224 N 1.12875 1.29503 1.12785
 C225 C 1.11954 1.30795 1.14853
 H226 H 1.10290 1.34082 1.19825
 H227 H 1.16100 1.39804 1.19944
 H228 H 1.20025 1.39772 1.16095
 H229 H 1.19979 1.33970 1.10339
 H230 H 1.16144 1.30223 1.10276
 H231 H 1.10305 1.30222 1.15979
 C232 C 1.13372 0.84759 0.67088
 C233 C 1.13383 0.82851 0.65189
 C234 C 1.15254 0.82855 0.63308
 C235 C 1.17146 0.84769 0.63303
 C236 C 1.17132 0.86653 0.65174
 C237 C 1.15232 0.86648 0.67080
 C238 C 1.11846 0.85168 0.69204
 N239 N 1.12744 0.87257 0.70489
 C240 C 1.14806 0.88177 0.69192
 C241 C 1.19232 0.88194 0.64751
 N242 N 1.20528 0.87287 0.62680
 C243 C 1.19256 0.85194 0.61773
 C244 C 1.14843 0.80734 0.61786
 N245 N 1.12779 0.79438 0.62704
 C246 C 1.11866 0.80731 0.64784
 H247 H 1.10219 0.84006 0.69756
 H248 H 1.15943 0.89815 0.69775
 H249 H 1.19806 0.89831 0.65895
 H250 H 1.19812 0.84043 0.60137
 H251 H 1.15989 0.80147 0.60153
 H252 H 1.10232 0.80185 0.65939
 C253 C 0.36652 0.65190 0.66987
 C254 C 0.36639 0.67086 0.65078
 C255 C 0.34719 0.67118 0.63245
 C256 C 0.32786 0.65248 0.63291
 C257 C 0.32798 0.63373 0.65171
 C258 C 0.34744 0.63348 0.67039
 C259 C 0.38218 0.64766 0.69072
 N260 N 0.37305 0.62725 0.70402
 C261 C 0.35182 0.61833 0.69163
 C262 C 0.30648 0.61884 0.64795
 N263 N 0.29322 0.62813 0.62743
 C264 C 0.30632 0.64876 0.61808
 C265 C 0.35128 0.69228 0.61709
 N266 N 0.37250 0.70481 0.62577
 C267 C 0.38187 0.69174 0.64629
 H268 H 0.39874 0.65896 0.69618
 H269 H 0.34018 0.60222 0.69754
 H270 H 0.30064 0.60265 0.65962
 H271 H 0.30081 0.66055 0.60189
 H272 H 0.33944 0.69799 0.60100
 H273 H 0.39848 0.69735 0.65746
 C274 C 0.36787 0.15170 1.16878
 C275 C 0.36811 0.17036 1.14940
 C276 C 0.34918 0.17048 1.13076
 C277 C 0.32975 0.15189 1.13122
 C278 C 0.32946 0.13352 1.15038
 C279 C 0.34867 0.13343 1.16932
 C280 C 0.38321 0.14769 1.18992
 N281 N 0.37377 0.12752 1.20340
 C282 C 0.35264 0.11858 1.19086
 C283 C 0.30786 0.11878 1.14673
 N284 N 0.29495 0.12782 1.12576
 C285 C 0.30835 0.14802 1.11619
 C286 C 0.35348 0.19143 1.11528
 N287 N 0.37453 0.20408 1.12419
 C288 C 0.38363 0.19119 1.14494
 H289 H 0.39978 0.15894 1.19543
 H290 H 0.34082 0.10263 1.19684
 H291 H 0.30215 0.10292 1.15882
 H292 H 0.30267 0.15941 1.09972
 H293 H 0.34183 0.19703 1.09900
 H294 H 0.40001 0.19699 1.15637
 C295 C 0.86648 0.65237 1.17074
 C296 C 0.86641 0.67155 1.15186
 C297 C 0.84752 0.67184 1.13317
 C298 C 0.82839 0.65291 1.13313
 C299 C 0.82848 0.63401 1.15179
 C300 C 0.84764 0.63374 1.17072
 C301 C 0.88184 0.64798 1.19182
 N302 N 0.87272 0.62724 1.20466
 C303 C 0.85181 0.61832 1.19178
 C304 C 0.80729 0.61885 1.14771
 N305 N 0.79423 0.62813 1.12703
 C306 C 0.80710 0.64888 1.11796
 C307 C 0.85176 0.69311 1.11806
 N308 N 0.87263 0.70575 1.12719
 C309 C 0.88178 0.69258 1.14785
 H310 H 0.89819 0.65936 1.19772
 H311 H 0.84021 0.60202 1.19722
 H312 H 0.80193 0.60239 1.15916
 H313 H 0.80112 0.66047 1.10175
 H314 H 0.84023 0.69924 1.10185
 H315 H 0.89827 0.69777 1.15934
 C316 C 0.86520 0.15301 0.67252
 C317 C 0.86529 0.17196 0.65335
 C318 C 0.84661 0.17187 0.63443
 C319 C 0.82757 0.15288 0.63442
 C320 C 0.82748 0.13426 0.65335
 C321 C 0.84641 0.13433 0.67251
 C322 C 0.88037 0.14883 0.69381
 N323 N 0.87119 0.12816 0.70681
 C324 C 0.85038 0.11913 0.69375
 C325 C 0.80642 0.11893 0.64917
 N326 N 0.79363 0.12787 0.62816
 C327 C 0.80653 0.14854 0.61900
 C328 C 0.85090 0.19288 0.61900
 N329 N 0.87159 0.20579 0.62811
 C330 C 0.88060 0.19304 0.64911
 H331 H 0.89668 0.16030 0.69969
 H332 H 0.83861 0.10293 0.69910
 H333 H 0.80097 0.10261 0.66076
 H334 H 0.80075 0.15987 0.60253
 H335 H 0.83951 0.19864 0.60256
 H336 H 0.89692 0.19855 0.66069
 C337 C 1.34904 0.36723 0.66993
 C338 C 1.33029 0.36724 0.65062
 C339 C 1.33010 0.34808 0.63224
 C340 C 1.34877 0.32864 0.63290
 C341 C 1.36724 0.32861 0.65199
 C342 C 1.36737 0.34804 0.67065
 C343 C 1.35316 0.38284 0.69083
 N344 N 1.37344 0.37356 0.70432
 C345 C 1.38235 0.35228 0.69202
 C346 C 1.38212 0.30704 0.64857
 N347 N 1.37310 0.29386 0.62781
 C348 C 1.35275 0.30707 0.61814
 C349 C 1.30911 0.35233 0.61672
 N350 N 1.29654 0.37357 0.62535
 C351 C 1.30948 0.38282 0.64598
 H352 H 1.34190 0.39949 0.69615
 H353 H 1.39837 0.34052 0.69806
 H354 H 1.39809 0.30156 0.66066
 H355 H 1.34134 0.30117 0.60176
 H356 H 1.30347 0.34055 0.60058
 H357 H 1.30378 0.39940 0.65716
 C358 C 1.34857 0.86603 1.17209
 C359 C 1.32975 0.86609 1.15285
 C360 C 1.32960 0.84706 1.13439
 C361 C 1.34836 0.82772 1.13489
 C362 C 1.36700 0.82768 1.15383
 C363 C 1.36709 0.84701 1.17263
 C364 C 1.35245 0.88150 1.19308
 N365 N 1.37294 0.87233 1.20658
 C366 C 1.38204 0.85131 1.19405
 C367 C 1.38193 0.80616 1.15005
 N368 N 1.37275 0.79307 1.12940
 C369 C 1.35218 0.80629 1.11998
 C370 C 1.30859 0.85133 1.11890
 N371 N 1.29597 0.87249 1.12764
 C372 C 1.30889 0.88164 1.14832
 H373 H 1.34078 0.89794 1.19800
 H374 H 1.39806 0.83963 1.20039
 H375 H 1.39805 0.80019 1.16180
 H376 H 1.34047 0.80092 1.10370
 H377 H 1.30301 0.83966 1.10266
 H378 H 1.30319 0.89817 1.15957
 C379 C 0.84711 0.36451 1.17244
 C380 C 0.82830 0.36461 1.15314
 C381 C 0.82842 0.34583 1.13440
 C382 C 0.84733 0.32666 1.13469
 C383 C 0.86588 0.32652 1.15369
 C384 C 0.86574 0.34559 1.17275
 C385 C 0.85105 0.37976 1.19366
 N386 N 0.87152 0.37053 1.20698
 C387 C 0.88068 0.34959 1.19419
 C388 C 0.88106 0.30523 1.14968
 N389 N 0.87211 0.29235 1.12881
 C390 C 0.85144 0.30548 1.11949
 C391 C 0.80748 0.35009 1.11884
 N392 N 0.79455 0.37089 1.12774
 C393 C 0.80725 0.37998 1.14871
 H394 H 0.83951 0.39612 1.19929
 H395 H 0.89677 0.33775 1.19988
 H396 H 0.89719 0.29928 1.16141
 H397 H 0.83988 0.30023 1.10306
 H398 H 0.80172 0.33860 1.10250
 H399 H 0.80171 0.39640 1.16013
 C400 C 0.84707 0.86607 0.67137
 C401 C 0.82813 0.86619 0.65222
 C402 C 0.82807 0.84738 0.63349
 C403 C 0.84697 0.82820 0.63361
 C404 C 0.86563 0.82805 0.65252
 C405 C 0.86568 0.84712 0.67153
 C406 C 0.85125 0.88136 0.69250
 N407 N 0.87183 0.87211 0.70558
 C408 C 0.88087 0.85118 0.69279
 C409 C 0.88075 0.80674 0.64849
 N410 N 0.87161 0.79391 0.62762
 C411 C 0.85104 0.80701 0.61839
 C412 C 0.80700 0.85161 0.61813
 N413 N 0.79418 0.87251 0.62717
 C414 C 0.80707 0.88158 0.64792
 H415 H 0.83986 0.89777 0.69826
 H416 H 0.89713 0.83954 0.69840
 H417 H 0.89703 0.80112 0.66011
 H418 H 0.83958 0.80123 0.60202
 H419 H 0.80150 0.84007 0.60177
 H420 H 0.80122 0.89791 0.65938
 C421 C 0.64994 0.63184 0.66981
 C422 C 0.66897 0.63144 0.65078
 C423 C 0.66906 0.64995 0.63174
 C424 C 0.65011 0.66908 0.63142
 C425 C 0.63135 0.66946 0.65019
 C426 C 0.63124 0.65069 0.66951
 C427 C 0.64587 0.61702 0.69128
 N428 N 0.62518 0.62651 0.70411
 C429 C 0.61607 0.64701 0.69082
 C430 C 0.61631 0.69075 0.64584
 N431 N 0.62559 0.70336 0.62492
 C432 C 0.64616 0.69013 0.61594
 C433 C 0.69032 0.64563 0.61670
 N434 N 0.70320 0.62497 0.62624
 C435 C 0.69017 0.61613 0.64699
 H436 H 0.65737 0.60070 0.69703
 H437 H 0.59989 0.65873 0.69658
 H438 H 0.60001 0.69653 0.65732
 H439 H 0.65776 0.69577 0.59964
 H440 H 0.69590 0.65694 0.60021
 H441 H 0.69605 0.60006 0.65881
 C442 C 0.65442 1.13598 1.17324
 C443 C 0.67354 1.13609 1.15426
 C444 C 0.67337 1.15475 1.13539
 C445 C 0.65412 1.17359 1.13524
 C446 C 0.63525 1.17347 1.15389
 C447 C 0.63539 1.15451 1.17304
 C448 C 0.65039 1.12076 1.19445
 N449 N 0.62933 1.12964 1.20725
 C450 C 0.62006 1.15022 1.19413
 C451 C 0.61977 1.19447 1.14952
 N452 N 0.62884 1.20744 1.12878
 C453 C 0.64988 1.19464 1.11987
 C454 C 0.69452 1.15064 1.12009
 N455 N 0.70761 1.13003 1.12925
 C456 C 0.69483 1.12093 1.15016
 H457 H 0.66228 1.10466 1.19998
 H458 H 0.60357 1.16157 1.19980
 H459 H 0.60337 1.20019 1.16095
 H460 H 0.66163 1.20006 1.10366
 H461 H 0.70022 1.16205 1.10367
 H462 H 0.70041 1.10460 1.16171
 C463 C 0.15288 0.63452 1.17347
 C464 C 0.17204 0.63424 1.15456
 C465 C 0.17253 0.65316 1.13593
 C466 C 0.15387 0.67258 1.13591
 C467 C 0.13498 0.67286 1.15452
 C468 C 0.13450 0.65370 1.17346
 C469 C 0.14827 0.61921 1.19451
 N470 N 0.12765 0.62865 1.20741
 C471 C 0.11905 0.64978 1.19452
 C472 C 0.12013 0.69434 1.15030
 N473 N 0.12958 0.70721 1.12966
 C474 C 0.15028 0.69389 1.12070
 C475 C 0.19366 0.64871 1.12075
 N476 N 0.20611 0.62756 1.12978
 C477 C 0.19291 0.61856 1.15037
 H478 H 0.15946 0.60265 1.20032
 H479 H 0.10302 0.66182 1.19990
 H480 H 0.10384 0.70041 1.16171
 H481 H 0.16220 0.69910 1.10454
 H482 H 0.19940 0.66022 1.10446
 H483 H 0.19840 0.60204 1.16176
 C484 C 0.15335 1.13592 0.67200
 C485 C 0.17223 1.13584 0.65279
 C486 C 0.17209 1.15456 0.63396
 C487 C 0.15311 1.17366 0.63410
 C488 C 0.13453 1.17378 0.65305
 C489 C 0.13462 1.15472 0.67213
 C490 C 0.14936 1.12062 0.69317
 N491 N 0.12858 1.12971 0.70627
 C492 C 0.11947 1.15053 0.69339
 C493 C 0.11936 1.19504 0.64904
 N494 N 0.12834 1.20792 0.62807
 C495 C 0.14891 1.19481 0.61883
 C496 C 0.19306 1.15028 0.61848
 N497 N 0.20601 1.12953 0.62750
 C498 C 0.19330 1.12049 0.64848
 H499 H 0.16106 1.10430 0.69844
 H500 H 0.10321 1.16207 0.69931
 H501 H 0.10325 1.20057 0.66089
 H502 H 0.16034 1.20055 0.60243
 H503 H 0.19879 1.16172 0.60209
 H504 H 0.19884 1.10410 0.65997
 C505 C 1.34532 0.63516 0.32634
 C506 C 1.32640 0.63508 0.34549
 C507 C 1.32610 0.65412 0.36401
 C508 C 1.34480 0.67349 0.36368
 C509 C 1.36339 0.67357 0.34476
 C510 C 1.36364 0.65429 0.32597
 C511 C 1.34973 0.61964 0.30540
 N512 N 1.37021 0.62892 0.29221
 C513 C 1.37889 0.65016 0.30480
 C514 C 1.37837 0.69496 0.34853
 N515 N 1.36931 0.70800 0.36936
 C516 C 1.34881 0.69487 0.37872
 C517 C 1.30510 0.64975 0.37943
 N518 N 1.29261 0.62857 0.37061
 C519 C 1.30562 0.61946 0.34996
 H520 H 1.33854 0.60303 0.29989
 H521 H 1.39488 0.66210 0.29918
 H522 H 1.39449 0.70038 0.33666
 H523 H 1.33738 0.70067 0.39510
 H524 H 1.29944 0.66136 0.39568
 H525 H 1.30004 0.60291 0.33870
 C526 C 1.34713 1.13564 0.82786
 C527 C 1.32810 1.13567 0.84686
 C528 C 1.32776 1.15468 0.86538
 C529 C 1.34651 1.17399 0.86512
 C530 C 1.36526 1.17397 0.84632
 C531 C 1.36559 1.15465 0.82757
 C532 C 1.35150 1.12007 0.80699
 N533 N 1.37217 1.12923 0.79393
 C534 C 1.38095 1.15029 0.80649
 C535 C 1.38024 1.19534 0.85013
 N536 N 1.37102 1.20846 0.87084
 C537 C 1.35045 1.19540 0.88010
 C538 C 1.30662 1.15035 0.88064
 N539 N 1.29410 1.12930 0.87174
 C540 C 1.30725 1.12012 0.85111
 H541 H 1.34025 1.10342 0.80184
 H542 H 1.39708 1.16188 0.80042
 H543 H 1.39644 1.20071 0.83835
 H544 H 1.33888 1.20130 0.89636
 H545 H 1.30047 1.16194 0.89677
 H546 H 1.30215 1.10351 0.83979
 C547 C 0.84876 0.63331 0.83016
 C548 C 0.82973 0.63340 0.84923
 C549 C 0.82993 0.65206 0.86810
 C550 C 0.84908 0.67092 0.86814
 C551 C 0.86784 0.67083 0.84937
 C552 C 0.86769 0.65188 0.83025
 C553 C 0.85276 0.61812 0.80892
 N554 N 0.87365 0.62711 0.79605
 C555 C 0.88291 0.64767 0.80907
 C556 C 0.88320 0.69187 0.85359
 N557 N 0.87416 0.70479 0.87434
 C558 C 0.85331 0.69199 0.88346
 C559 C 0.80878 0.64805 0.88339
 N560 N 0.79566 0.62753 0.87422
 C561 C 0.80844 0.61835 0.85333
 H562 H 0.84112 0.60188 0.80336
 H563 H 0.89930 0.65903 0.80325
 H564 H 0.89949 0.69770 0.84208
 H565 H 0.84181 0.69749 0.89984
 H566 H 0.80304 0.65954 0.89974
 H567 H 0.80279 0.60209 0.84175
 C568 C 0.84834 1.13275 0.32840
 C569 C 0.82904 1.13277 0.34719
 C570 C 0.82875 1.15158 0.36593
 C571 C 0.84778 1.17061 0.36620
 C572 C 0.86682 1.17053 0.34771
 C573 C 0.86707 1.15151 0.32869
 C574 C 0.85288 1.11752 0.30728
 N575 N 0.87378 1.12665 0.29471
 C576 C 0.88267 1.14742 0.30780
 C577 C 0.88206 1.19162 0.35205
 N578 N 0.87272 1.20460 0.37262
 C579 C 0.85175 1.19179 0.38149
 C580 C 0.80745 1.14741 0.38097
 N581 N 0.79473 1.12654 0.37174
 C582 C 0.80790 1.11746 0.35116
 H583 H 0.84151 1.10124 0.30118
 H584 H 0.89910 1.15896 0.30262
 H585 H 0.89851 1.19741 0.34077
 H586 H 0.84002 1.19735 0.39769
 H587 H 0.80179 1.15890 0.39730
 H588 H 0.80224 1.10111 0.33965
 C589 C 0.65188 0.36555 0.32797
 C590 C 0.67055 0.36587 0.34742
 C591 C 0.67030 0.34732 0.36642
 C592 C 0.65146 0.32816 0.36623
 C593 C 0.63308 0.32780 0.34706
 C594 C 0.63331 0.34663 0.32779
 C595 C 0.64798 0.38053 0.30652
 N596 N 0.62760 0.37114 0.29322
 C597 C 0.61846 0.35035 0.30624
 C598 C 0.61797 0.30656 0.35116
 N599 N 0.62679 0.29396 0.37223
 C600 C 0.64727 0.30715 0.38165
 C601 C 0.69114 0.35169 0.38206
 N602 N 0.70414 0.37231 0.37297
 C603 C 0.69158 0.38122 0.35180
 H604 H 0.65947 0.39685 0.30074
 H605 H 0.60243 0.33845 0.30066
 H606 H 0.60198 0.30039 0.33938
 H607 H 0.65852 0.30197 0.39833
 H608 H 0.69679 0.34034 0.39856
 H609 H 0.69724 0.39745 0.34018
 C610 C 0.65298 0.86636 0.82882
 C611 C 0.67202 0.86656 0.84791
 C612 C 0.67204 0.84797 0.86689
 C613 C 0.65305 0.82893 0.86707
 C614 C 0.63433 0.82872 0.84825
 C615 C 0.63429 0.84756 0.82900
 C616 C 0.64870 0.88141 0.80749
 N617 N 0.62798 0.87215 0.79468
 C618 C 0.61897 0.85145 0.80782
 C619 C 0.61912 0.80761 0.85257
 N620 N 0.62825 0.79491 0.87354
 C621 C 0.64892 0.80794 0.88257
 C622 C 0.69313 0.85226 0.88219
 N623 N 0.70601 0.87299 0.87290
 C624 C 0.69312 0.88189 0.85203
 H625 H 0.66010 0.89768 0.80144
 H626 H 0.60262 0.83984 0.80250
 H627 H 0.60276 0.80203 0.84107
 H628 H 0.66040 0.80223 0.89896
 H629 H 0.69856 0.84092 0.89873
 H630 H 0.69899 0.89809 0.84040
 C631 C 0.15277 0.36626 0.82721
 C632 C 0.17141 0.36657 0.84666
 C633 C 0.17127 0.34792 0.86557
 C634 C 0.15251 0.32866 0.86528
 C635 C 0.13417 0.32831 0.84606
 C636 C 0.13432 0.34725 0.82689
 C637 C 0.14886 0.38135 0.80585
 N638 N 0.12856 0.37195 0.79245
 C639 C 0.11949 0.35104 0.80532
 C640 C 0.11911 0.30701 0.85000
 N641 N 0.12794 0.29437 0.87114
 C642 C 0.14829 0.30757 0.88061
 C643 C 0.19209 0.35238 0.88123
 N644 N 0.20493 0.37315 0.87222
 C645 C 0.19230 0.38204 0.85110
 H646 H 0.16030 0.39775 0.80020
 H647 H 0.10354 0.33908 0.79961
 H648 H 0.10307 0.30127 0.83814
 H649 H 0.15949 0.30195 0.89723
 H650 H 0.19783 0.34101 0.89769
 H651 H 0.19782 0.39838 0.83955
 C652 C 0.15249 0.86616 0.32800
 C653 C 0.17117 0.86631 0.34737
 C654 C 0.17093 0.84776 0.36633
 C655 C 0.15192 0.82872 0.36615
 C656 C 0.13346 0.82854 0.34700
 C657 C 0.13374 0.84745 0.32777
 C658 C 0.14889 0.88128 0.30667
 N659 N 0.12832 0.87219 0.29328
 C660 C 0.11893 0.85155 0.30619
 C661 C 0.11816 0.80742 0.35111
 N662 N 0.12696 0.79474 0.37226
 C663 C 0.14751 0.80774 0.38158
 C664 C 0.19189 0.85213 0.38187
 N665 N 0.20485 0.87278 0.37270
 C666 C 0.19218 0.88165 0.35161
 H667 H 0.16076 0.89745 0.30147
 H668 H 0.10276 0.84003 0.30006
 H669 H 0.10199 0.80182 0.33936
 H670 H 0.15873 0.80204 0.39816
 H671 H 0.19761 0.84082 0.39837
 H672 H 0.19770 0.89790 0.33996
 O673 O 0.97513 0.90627 0.87291
 O674 O 0.97490 0.87622 0.84309
 C675 C 0.96626 0.89718 0.85208
 C676 C 0.94527 0.91081 0.83855
 C677 C 0.93676 0.90235 0.81440
 H678 H 0.94675 0.88668 0.80515
 O679 O 1.02499 1.09242 0.87035
 O680 O 1.02471 1.12223 0.84028
 C681 C 1.03363 1.10143 0.84939
 C682 C 1.05474 1.08784 0.83596
 C683 C 1.06387 1.09649 0.81206
 H684 H 1.05493 1.11291 0.80289
 O685 O 0.87274 0.97441 0.90777
 O686 O 0.84251 0.97411 0.87807
 C687 C 0.85176 0.96559 0.89901
 C688 C 0.83839 0.94480 0.91305
 C689 C 0.81422 0.93605 0.90487
 H690 H 0.80490 0.94503 0.88855
 O691 O 1.12749 1.02493 0.90591
 O692 O 1.15735 1.02464 0.87591
 C693 C 1.14838 1.03354 0.89679
 C694 C 1.16200 1.05453 0.91032
 C695 C 1.18614 1.06295 0.90180
 H696 H 1.19533 1.05299 0.88606
 O697 O 0.90813 0.87251 0.97659
 O698 O 0.87826 0.84257 0.97692
 C699 C 0.89910 0.85157 0.96803
 C700 C 0.91266 0.83790 0.94710
 C701 C 0.90431 0.81363 0.93894
 H702 H 0.88877 0.80441 0.94912
 O703 O 1.09332 1.12791 0.97345
 O704 O 1.12316 1.15788 0.97288
 C705 C 1.10221 1.14870 0.96437
 C706 C 1.08828 1.16194 0.94331
 C707 C 1.09643 1.18605 0.93440
 H708 H 1.11265 1.19543 0.94344
 O709 O 0.90761 1.02421 0.87198
 O710 O 0.87754 1.02394 0.84213
 C711 C 0.89844 1.03281 0.85105
 C712 C 0.91186 1.05381 0.83735
 C713 C 0.90309 1.06232 0.81328
 H714 H 0.88743 1.05223 0.80417
 O715 O 1.09218 0.97463 0.87128
 O716 O 1.12184 0.97429 0.84108
 C717 C 1.10105 0.96563 0.85041
 C718 C 1.08733 0.94445 0.83731
 C719 C 1.09540 0.93564 0.81311
 H720 H 1.11136 0.94489 0.80352
 O721 O 1.02543 0.87109 0.90781
 O722 O 1.02521 0.84088 0.87816
 C723 C 1.03411 0.85011 0.89890
 C724 C 1.05522 0.83677 0.91255
 C725 C 1.06390 0.81256 0.90438
 H726 H 1.05459 0.80311 0.88834
 O727 O 0.97495 1.12717 0.90607
 O728 O 0.97459 1.15711 0.87613
 C729 C 0.96602 1.14802 0.89709
 C730 C 0.94499 1.16144 0.91079
 C731 C 0.93622 1.18545 0.90219
 H732 H 0.94606 1.19469 0.88643
 O733 O 0.87245 1.09245 0.97484
 O734 O 0.84236 1.12226 0.97477
 C735 C 0.85149 1.10137 0.96605
 C736 C 0.83810 1.08763 0.94502
 C737 C 0.81410 1.09613 0.93594
 H738 H 0.80486 1.11249 0.94488
 O739 O 1.12851 0.90706 0.97417
 O740 O 1.15873 0.87738 0.97396
 C741 C 1.14938 0.89816 0.96522
 C742 C 1.16251 0.91188 0.94406
 C743 C 1.18664 0.90367 0.93519
 H744 H 1.19609 0.88750 0.94430
 O745 O 0.97488 1.09203 0.87090
 O746 O 0.97450 1.12180 0.84078
 C747 C 0.96589 1.10094 0.85002
 C748 C 0.94477 1.08718 0.83682
 C749 C 0.93562 1.09554 0.81280
 H750 H 0.94454 1.11182 0.80343
 O751 O 1.02513 0.90645 0.87284
 O752 O 1.02495 0.87641 0.84301
 C753 C 1.03370 0.89737 0.85190
 C754 C 1.05445 0.91104 0.83811
 C755 C 1.06272 0.90257 0.81388
 H756 H 1.05276 0.88681 0.80478
 O757 O 1.12749 0.97488 0.90632
 O758 O 1.15730 0.97461 0.87627
 C759 C 1.14835 0.96604 0.89728
 C760 C 1.16199 0.94516 0.91098
 C761 C 1.18618 0.93681 0.90252
 H762 H 1.19537 0.94696 0.88693
 O763 O 0.87277 1.02446 0.90747
 O764 O 0.84256 1.02419 0.87775
 C765 C 0.85178 1.03311 0.89853
 C766 C 0.83831 1.05421 0.91207
 C767 C 0.81427 1.06283 0.90343
 H768 H 0.80502 1.05273 0.88783
 O769 O 0.90752 1.12762 0.97431
 O770 O 0.87761 1.15761 0.97426
 C771 C 0.89842 1.14844 0.96540
 C772 C 0.91192 1.16170 0.94412
 C773 C 0.90334 1.18568 0.93513
 H774 H 0.88712 1.19497 0.94427
 O775 O 1.09348 0.87186 0.97485
 O776 O 1.12354 0.84202 0.97467
 C777 C 1.10248 0.85095 0.96615
 C778 C 1.08864 0.83725 0.94547
 C779 C 1.09698 0.81302 0.93716
 H780 H 1.11270 0.80380 0.94714
 O781 O 1.09227 1.02477 0.87071
 O782 O 1.12201 1.02443 0.84059
 C783 C 1.10121 1.03335 0.84969
 C784 C 1.08770 1.05443 0.83615
 C785 C 1.09644 1.06320 0.81218
 H786 H 1.11211 1.05317 0.80300
 O787 O 0.90760 0.97410 0.87232
 O788 O 0.87754 0.97381 0.84245
 C789 C 0.89848 0.96514 0.85153
 C790 C 0.91212 0.94403 0.83821
 C791 C 0.90377 0.93521 0.81409
 H792 H 0.88760 0.94440 0.80472
 O793 O 1.02507 1.12716 0.90591
 O794 O 1.02474 1.15715 0.87600
 C795 C 1.03369 1.14807 0.89685
 C796 C 1.05477 1.16160 0.91036
 C797 C 1.06315 1.18573 0.90180
 H798 H 1.05302 1.19498 0.88619
 O799 O 0.97537 0.87155 0.90849
 O800 O 0.97507 0.84132 0.87885
 C801 C 0.96650 0.85062 0.89973
 C802 C 0.94561 0.83738 0.91371
 C803 C 0.93693 0.81313 0.90575
 H804 H 0.94605 0.80364 0.88963
 O805 O 1.12843 1.09272 0.97357
 O806 O 1.15849 1.12247 0.97305
 C807 C 1.14926 1.10157 0.96454
 C808 C 1.16247 1.08771 0.94351
 C809 C 1.18660 1.09586 0.93471
 H810 H 1.19603 1.11197 0.94388
 O811 O 0.87301 0.90769 0.97652
 O812 O 0.84298 0.87791 0.97686
 C813 C 0.85207 0.89868 0.96789
 C814 C 0.83855 0.91214 0.94676
 C815 C 0.81437 0.90371 0.93836
 H816 H 0.80505 0.88823 0.94856
 Cu817 Cu 1.00030 0.89183 0.89352
 Cu818 Cu 1.00001 0.85567 0.85778
 Cu819 Cu 1.00001 1.10669 0.89128
 Cu820 Cu 0.99959 1.14259 0.85530
 Cu821 Cu 0.89321 0.99930 0.89284
 Cu822 Cu 0.85702 0.99899 0.85711
 Cu823 Cu 1.10685 0.99985 0.89154
 Cu824 Cu 1.14261 0.99946 0.85543
 C825 C 0.93296 0.93176 0.85020
 H826 H 0.93925 0.93817 0.86898
 C827 C 0.91576 0.91421 0.80216
 C828 C 1.06674 1.06674 0.84775
 H829 H 1.06013 1.06025 0.86638
 C830 C 1.08491 1.08452 0.80013
 C831 C 0.85031 0.93280 0.93409
 H832 H 0.86912 0.93917 0.94025
 C833 C 0.80219 0.91533 0.91718
 C834 C 1.15042 1.06693 0.93129
 H835 H 1.13164 1.06078 0.93773
 C836 C 1.19846 1.08384 0.91371
 C837 C 0.93343 0.84952 0.93449
 H838 H 0.93974 0.86839 0.94049
 C839 C 0.91612 0.80124 0.91802
 C840 C 1.06735 1.14994 0.93122
 H841 H 1.06120 1.13118 0.93770
 C842 C 1.08421 1.19797 0.91349
 C843 C 0.93282 1.06623 0.84885
 H844 H 0.93946 1.05996 0.86755
 C845 C 0.91462 1.08346 0.80099
 C846 C 1.06676 0.93209 0.84958
 H847 H 1.06069 0.93851 0.86841
 C848 C 1.08343 0.91455 0.80137
 C849 C 1.06765 0.84887 0.93319
 H850 H 1.06135 0.86772 0.93932
 C851 C 1.08495 0.80066 0.91635
 C852 C 0.93283 1.14982 0.93187
 H853 H 0.93930 1.13115 0.93839
 C854 C 0.91514 1.19757 0.91400
 C855 C 0.84997 1.06659 0.93298
 H856 H 0.86866 1.06021 0.93953
 C857 C 0.80216 1.08408 0.91495
 C858 C 1.15041 0.93271 0.93188
 H859 H 1.13161 0.93888 0.93830
 C860 C 1.19851 0.91579 0.91425
 O861 O 1.02737 0.90743 1.12779
 O862 O 1.02764 0.87780 1.15807
 C863 C 1.03626 0.89862 1.14875
 C864 C 1.05723 0.91247 1.16202
 C865 C 1.06600 0.90439 1.18624
 H866 H 1.05690 0.88826 1.19569
 O867 O 0.97717 1.09372 1.12712
 O868 O 0.97732 1.12361 1.15710
 C869 C 0.96864 1.10266 1.14815
 C870 C 0.94798 1.08886 1.16195
 C871 C 0.93977 1.09718 1.18626
 H872 H 0.94972 1.11291 1.19544
 O873 O 0.87428 1.02581 1.09354
 O874 O 0.84470 1.02606 1.12382
 C875 C 0.85352 1.03469 1.10276
 C876 C 0.83985 1.05567 1.08915
 C877 C 0.81592 1.06444 1.09797
 H878 H 0.80693 1.05467 1.11393
 O879 O 1.12962 0.97517 1.09160
 O880 O 1.15979 0.97530 1.12135
 C881 C 1.15059 0.96646 1.10055
 C882 C 1.16398 0.94541 1.08687
 C883 C 1.18810 0.93656 1.09521
 H884 H 1.19744 0.94566 1.11143
 O885 O 1.09420 0.87207 1.02492
 O886 O 1.12425 0.84222 1.02475
 C887 C 1.10342 0.85125 1.03369
 C888 C 1.09010 0.83782 1.05492
 C889 C 1.09877 0.81380 1.06359
 H890 H 1.11436 0.80454 1.05349
 O891 O 0.90818 1.12779 1.02448
 O892 O 0.87824 1.15774 1.02449
 C893 C 0.89921 1.14872 1.03319
 C894 C 0.91290 1.16230 1.05414
 C895 C 0.90419 1.18629 1.06281
 H896 H 0.88843 1.19541 1.05282
 O897 O 0.90961 0.97553 1.12853
 O898 O 0.88013 0.97569 1.15891
 C899 C 0.90082 0.96677 1.14954
 C900 C 0.91451 0.94559 1.16280
 C901 C 0.90608 0.93659 1.18683
 H902 H 0.88983 0.94566 1.19614
 O903 O 1.09430 1.02545 1.12638
 O904 O 1.12435 1.02560 1.15626
 C905 C 1.10342 1.03433 1.14719
 C906 C 1.08996 1.05550 1.16060
 C907 C 1.09853 1.06394 1.18473
 H908 H 1.11398 1.05364 1.19404
 O909 O 0.97718 0.87215 1.09310
 O910 O 0.97738 0.84230 1.12314
 C911 C 0.96845 0.85134 1.10228
 C912 C 0.94723 0.83798 1.08889
 C913 C 0.93877 0.81382 1.09731
 H914 H 0.94894 0.80438 1.11278
 O915 O 1.02659 1.12915 1.09144
 O916 O 1.02677 1.15924 1.12121
 C917 C 1.03537 1.15009 1.10029
 C918 C 1.05628 1.16344 1.08642
 C919 C 1.06516 1.18751 1.09471
 H920 H 1.05610 1.19685 1.11095
 O921 O 0.87319 0.90784 1.02667
 O922 O 0.84315 0.87808 1.02705
 C923 C 0.85233 0.89897 1.03562
 C924 C 0.83905 0.91284 1.05660
 C925 C 0.81493 0.90471 1.06545
 H926 H 0.80552 0.88854 1.05636
 O927 O 1.12896 1.09331 1.02371
 O928 O 1.15902 1.12305 1.02331
 C929 C 1.14994 1.10228 1.03231
 C930 C 1.16346 1.08863 1.05338
 C931 C 1.18752 1.09706 1.06228
 H932 H 1.19670 1.11339 1.05326
 O933 O 1.02719 1.09400 1.12661
 O934 O 1.02745 1.12388 1.15660
 C935 C 1.03616 1.10300 1.14745
 C936 C 1.05727 1.08921 1.16075
 C937 C 1.06629 1.09752 1.18482
 H938 H 1.05738 1.11387 1.19411
 O939 O 0.97734 0.90757 1.12794
 O940 O 0.97754 0.87788 1.15815
 C941 C 0.96871 0.89871 1.14896
 C942 C 0.94773 0.91240 1.16248
 C943 C 0.93915 0.90382 1.18656
 H944 H 0.94917 0.88814 1.19577
 O945 O 1.12926 1.02527 1.09107
 O946 O 1.15943 1.02539 1.12083
 C947 C 1.15019 1.03408 1.09995
 C948 C 1.16354 1.05513 1.08628
 C949 C 1.18765 1.06365 1.09472
 H950 H 1.19704 1.05346 1.11020
 O951 O 0.87402 0.97576 1.09377
 O952 O 0.84438 0.97598 1.12401
 C953 C 0.85318 0.96715 1.10303
 C954 C 0.83949 0.94620 1.08957
 C955 C 0.81535 0.93785 1.09814
 H956 H 0.80617 0.94793 1.11379
 O957 O 1.09374 1.12844 1.02357
 O958 O 1.12361 1.15837 1.02310
 C959 C 1.10279 1.14940 1.03208
 C960 C 1.08930 1.16306 1.05308
 C961 C 1.09787 1.18714 1.06159
 H962 H 1.11356 1.19632 1.05159
 O963 O 0.90837 0.87263 1.02664
 O964 O 0.87849 0.84269 1.02700
 C965 C 0.89948 0.85174 1.03551
 C966 C 0.91346 0.83821 1.05628
 C967 C 0.90524 0.81405 1.06497
 H968 H 0.88890 0.80487 1.05595
 O969 O 1.09452 0.97533 1.12688
 O970 O 1.12457 0.97553 1.15675
 C971 C 1.10366 0.96672 1.14783
 C972 C 1.09016 0.94580 1.16155
 C973 C 1.09861 0.93753 1.18583
 H974 H 1.11419 0.94767 1.19504
 O975 O 0.90985 1.02567 1.12838
 O976 O 0.88043 1.02586 1.15882
 C977 C 0.90118 1.03451 1.14940
 C978 C 0.91506 1.05550 1.16260
 C979 C 0.90710 1.06411 1.18690
 H980 H 0.89115 1.05482 1.19646
 O981 O 0.97646 1.12878 1.09186
 O982 O 0.97650 1.15888 1.12163
 C983 C 0.96755 1.14962 1.10088
 C984 C 0.94618 1.16277 1.08733
 C985 C 0.93702 1.18669 1.09586
 H986 H 0.94606 1.19600 1.11213
 O987 O 1.02729 0.87196 1.09298
 O988 O 1.02758 0.84215 1.12307
 C989 C 1.03621 0.85114 1.10209
 C990 C 1.05725 0.83772 1.08841
 C991 C 1.06627 0.81374 1.09691
 H992 H 1.05730 0.80453 1.11327
 O993 O 1.12901 0.90746 1.02427
 O994 O 1.15919 0.87774 1.02408
 C995 C 1.15007 0.89860 1.03283
 C996 C 1.16368 0.91231 1.05366
 C997 C 1.18783 0.90383 1.06212
 H998 H 1.19708 0.88819 1.05209
 O999 O 0.87288 1.09287 1.02509
 O1000 O 0.84277 1.12264 1.02512
 C1001 C 0.85207 1.10191 1.03406
 C1002 C 0.83906 1.08849 1.05555
 C1003 C 0.81515 1.09705 1.06473
 H1004 H 0.80570 1.11317 1.05555
 Cu1005 Cu 1.00230 0.89272 1.10741
 Cu1006 Cu 1.00255 0.85704 1.14364
 Cu1007 Cu 1.00185 1.10845 1.10626
 Cu1008 Cu 1.00202 1.14443 1.14212
 Cu1009 Cu 0.89365 0.89317 1.00161
 Cu1010 Cu 0.85769 0.85732 1.00199
 Cu1011 Cu 1.10828 0.89261 0.99956
 Cu1012 Cu 1.14447 0.85684 0.99934
 Cu1013 Cu 0.89322 1.10718 0.99966
 Cu1014 Cu 0.85723 1.14305 0.99967
 Cu1015 Cu 1.10814 1.10761 0.99864
 Cu1016 Cu 1.14408 1.14344 0.99803
 Cu1017 Cu 0.89490 1.00067 1.10804
 Cu1018 Cu 0.85945 1.00094 1.14444
 Cu1019 Cu 1.10892 1.00025 1.10599
 Cu1020 Cu 1.14505 1.00048 1.14179
 C1021 C 1.06935 0.93327 1.14991
 H1022 H 1.06295 0.93935 1.13106
 C1023 C 1.08684 0.91657 1.19820
 C1024 C 0.93562 1.06790 1.15037
 H1025 H 0.94161 1.06162 1.13146
 C1026 C 0.91910 1.08510 1.19875
 C1027 C 0.85116 1.06772 1.06784
 H1028 H 0.86976 1.06126 1.06115
 C1029 C 0.80355 1.08537 1.08610
 C1030 C 1.15201 0.93321 1.06602
 H1031 H 1.13322 0.93961 1.05976
 C1032 C 1.20004 0.91558 1.08317
 C1033 C 1.06923 0.84952 1.06734
 H1034 H 1.06267 0.86819 1.06093
 C1035 C 1.08719 0.80172 1.08484
 C1036 C 0.93402 1.15080 1.06640
 H1037 H 0.94065 1.13216 1.05999
 C1038 C 0.91585 1.19848 1.08396
 C1039 C 0.93541 0.93340 1.15085
 H1040 H 0.94174 0.93991 1.13213
 C1041 C 0.91804 0.91553 1.19872
 C1042 C 1.06921 1.06813 1.14886
 H1043 H 1.06270 1.06187 1.13011
 C1044 C 1.08710 1.08521 1.19684
 C1045 C 0.93456 0.84992 1.06827
 H1046 H 0.94076 0.86871 1.06193
 C1047 C 0.91755 0.80183 1.08563
 C1048 C 1.06839 1.15148 1.06550
 H1049 H 1.06192 1.13274 1.05927
 C1050 C 1.08612 1.19939 1.08265
 C1051 C 0.85108 0.93369 1.06870
 H1052 H 0.86986 0.93981 1.06224
 C1053 C 0.80304 0.91687 1.08637
 C1054 C 1.15170 1.06760 1.06550
 H1055 H 1.13296 1.06127 1.05910
 C1056 C 1.19965 1.08490 1.08314
 O1057 O 0.97420 0.40654 0.37260
 O1058 O 0.97424 0.37667 0.34260
 C1059 C 0.96548 0.39754 0.35167
 C1060 C 0.94444 0.41110 0.33813
 C1061 C 0.93594 0.40252 0.31403
 H1062 H 0.94615 0.38699 0.30481
 O1063 O 1.02351 0.59284 0.37211
 O1064 O 1.02322 0.62267 0.34204
 C1065 C 1.03210 0.60183 0.35114
 C1066 C 1.05308 0.58828 0.33755
 C1067 C 1.06153 0.59688 0.31345
 H1068 H 1.05140 0.61250 0.30425
 O1069 O 0.87164 0.47434 0.40759
 O1070 O 0.84157 0.47445 0.37773
 C1071 C 0.85066 0.46573 0.39866
 C1072 C 0.83705 0.44491 0.41238
 C1073 C 0.81285 0.43660 0.40396
 H1074 H 0.80360 0.44671 0.38833
 O1075 O 1.12661 0.52557 0.40670
 O1076 O 1.15643 0.52574 0.37667
 C1077 C 1.14739 0.53446 0.39760
 C1078 C 1.16072 0.55558 0.41126
 C1079 C 1.18471 0.56454 0.40279
 H1080 H 1.19397 0.55550 0.38649
 O1081 O 0.90631 0.37209 0.47547
 O1082 O 0.87658 0.34200 0.47554
 C1083 C 0.89742 0.35114 0.46677
 C1084 C 0.91113 0.33762 0.44581
 C1085 C 0.90276 0.31345 0.43738
 H1086 H 0.88716 0.30419 0.44742
 O1087 O 1.09137 0.62843 0.47487
 O1088 O 1.12102 0.65858 0.47474
 C1089 C 1.10019 0.64938 0.46603
 C1090 C 1.08638 0.66272 0.44497
 C1091 C 1.09468 0.68679 0.43604
 H1092 H 1.11089 0.69612 0.44514
 O1093 O 0.90689 0.52409 0.37215
 O1094 O 0.87698 0.52410 0.34213
 C1095 C 0.89786 0.53282 0.35122
 C1096 C 0.91138 0.55384 0.33772
 C1097 C 0.90306 0.56212 0.31343
 H1098 H 0.88768 0.55187 0.30399
 O1099 O 1.09140 0.47528 0.37192
 O1100 O 1.12101 0.47530 0.34167
 C1101 C 1.10029 0.46643 0.35100
 C1102 C 1.08670 0.44517 0.33783
 C1103 C 1.09503 0.43632 0.31373
 H1104 H 1.11107 0.44559 0.30429
 O1105 O 1.02433 0.37115 0.40759
 O1106 O 1.02434 0.34115 0.37773
 C1107 C 1.03312 0.35026 0.39858
 C1108 C 1.05424 0.33690 0.41218
 C1109 C 1.06312 0.31284 0.40377
 H1110 H 1.05391 0.30350 0.38761
 O1111 O 0.97346 0.62801 0.40726
 O1112 O 0.97313 0.65799 0.37733
 C1113 C 0.96458 0.64890 0.39829
 C1114 C 0.94372 0.66236 0.41216
 C1115 C 0.93496 0.68652 0.40393
 H1116 H 0.94401 0.69580 0.38765
 O1117 O 0.87172 0.59237 0.47498
 O1118 O 0.84160 0.62215 0.47507
 C1119 C 0.85081 0.60137 0.46618
 C1120 C 0.83748 0.58776 0.44500
 C1121 C 0.81343 0.59623 0.43607
 H1122 H 0.80416 0.61249 0.44516
 O1123 O 1.12766 0.40714 0.47377
 O1124 O 1.15773 0.37730 0.47358
 C1125 C 1.14849 0.39814 0.46482
 C1126 C 1.16168 0.41189 0.44367
 C1127 C 1.18568 0.40353 0.43457
 H1128 H 1.19500 0.38717 0.44346
 O1129 O 0.97351 0.59268 0.37222
 O1130 O 0.97317 0.62247 0.34211
 C1131 C 0.96466 0.60154 0.35126
 C1132 C 0.94392 0.58755 0.33776
 C1133 C 0.93528 0.59564 0.31348
 H1134 H 0.94427 0.61191 0.30418
 O1135 O 1.02426 0.40681 0.37289
 O1136 O 1.02432 0.37696 0.34286
 C1137 C 1.03301 0.39787 0.35195
 C1138 C 1.05389 0.41164 0.33837
 C1139 C 1.06246 0.40314 0.31425
 H1140 H 1.05267 0.38732 0.30508
 O1141 O 1.12692 0.47545 0.40670
 O1142 O 1.15670 0.47555 0.37663
 C1143 C 1.14777 0.46672 0.39755
 C1144 C 1.16134 0.44558 0.41096
 C1145 C 1.18540 0.43707 0.40226
 H1146 H 1.19459 0.44729 0.38672
 O1147 O 0.87184 0.52441 0.40735
 O1148 O 0.84179 0.52451 0.37748
 C1149 C 0.85097 0.53328 0.39834
 C1150 C 0.83761 0.55445 0.41191
 C1151 C 0.81354 0.56312 0.40335
 H1152 H 0.80422 0.55314 0.38771
 O1153 O 0.90657 0.62774 0.47533
 O1154 O 0.87661 0.65768 0.47556
 C1155 C 0.89748 0.64868 0.46671
 C1156 C 0.91095 0.66226 0.44569
 C1157 C 0.90247 0.68644 0.43725
 H1158 H 0.88691 0.69576 0.44735
 O1159 O 1.09258 0.37199 0.47445
 O1160 O 1.12247 0.34197 0.47443
 C1161 C 1.10149 0.35100 0.46583
 C1162 C 1.08766 0.33733 0.44511
 C1163 C 1.09618 0.31324 0.43656
 H1164 H 1.11200 0.30406 0.44644
 O1165 O 1.09144 0.52542 0.37148
 O1166 O 1.12108 0.52552 0.34126
 C1167 C 1.10026 0.53423 0.35050
 C1168 C 1.08645 0.55528 0.33718
 C1169 C 1.09479 0.56429 0.31313
 H1170 H 1.11107 0.55530 0.30380
 O1171 O 0.90643 0.47398 0.37203
 O1172 O 0.87650 0.47397 0.34204
 C1173 C 0.89735 0.46515 0.35116
 C1174 C 0.91098 0.44400 0.33783
 C1175 C 0.90254 0.43496 0.31380
 H1176 H 0.88620 0.44392 0.30450
 O1177 O 1.02350 0.62795 0.40729
 O1178 O 1.02322 0.65792 0.37737
 C1179 C 1.03211 0.64887 0.39825
 C1180 C 1.05311 0.66241 0.41183
 C1181 C 1.06159 0.68649 0.40325
 H1182 H 1.05157 0.69571 0.38755
 O1183 O 0.97419 0.37151 0.40790
 O1184 O 0.97416 0.34148 0.37806
 C1185 C 0.96539 0.35064 0.39892
 C1186 C 0.94431 0.33731 0.41262
 C1187 C 0.93556 0.31317 0.40436
 H1188 H 0.94475 0.30380 0.38821
 O1189 O 1.12634 0.59305 0.47465
 O1190 O 1.15615 0.62305 0.47449
 C1191 C 1.14712 0.60214 0.46576
 C1192 C 1.16053 0.58860 0.44463
 C1193 C 1.18454 0.59718 0.43598
 H1194 H 1.19380 0.61281 0.44600
 O1195 O 0.87090 0.40697 0.47544
 O1196 O 0.84095 0.37711 0.47540
 C1197 C 0.85003 0.39797 0.46662
 C1198 C 0.83667 0.41169 0.44554
 C1199 C 0.81252 0.40352 0.43672
 H1200 H 0.80313 0.38738 0.44587
 Cu1201 Cu 0.99925 0.39196 0.39327
 Cu1202 Cu 0.99927 0.35607 0.35730
 Cu1203 Cu 0.99849 0.60739 0.39273
 Cu1204 Cu 0.99815 0.64328 0.35670
 Cu1205 Cu 0.89222 0.49917 0.39275
 Cu1206 Cu 0.85619 0.49927 0.35685
 Cu1207 Cu 1.10612 0.50045 0.39220
 Cu1208 Cu 1.14179 0.50053 0.35603
 C1209 C 0.93199 0.43196 0.34976
 H1210 H 0.93833 0.43847 0.36848
 C1211 C 0.91468 0.41402 0.30187
 C1212 C 1.06552 0.56735 0.34916
 H1213 H 1.05927 0.56084 0.36790
 C1214 C 1.08268 0.58528 0.30124
 C1215 C 0.84870 0.43248 0.43329
 H1216 H 0.86752 0.43862 0.43966
 C1217 C 0.80058 0.41565 0.41576
 C1218 C 1.14887 0.56769 0.43227
 H1219 H 1.13019 0.56119 0.43866
 C1220 C 1.19664 0.58551 0.41481
 C1221 C 0.93201 0.34930 0.43344
 H1222 H 0.93835 0.36809 0.43967
 C1223 C 0.91463 0.30122 0.41640
 C1224 C 1.06550 0.65078 0.43280
 H1225 H 1.05925 0.63205 0.43928
 C1226 C 1.08263 0.69870 0.41502
 C1227 C 0.93193 0.56655 0.34964
 H1228 H 0.93820 0.56045 0.36853
 C1229 C 0.91468 0.58326 0.30129
 C1230 C 1.06603 0.43276 0.34992
 H1231 H 1.05974 0.43921 0.36868
 C1232 C 1.08328 0.41515 0.30192
 C1233 C 1.06656 0.34890 0.43295
 H1234 H 1.06013 0.36764 0.43924
 C1235 C 1.08427 0.30101 0.41561
 C1236 C 0.93168 0.65049 0.43314
 H1237 H 0.93807 0.63168 0.43934
 C1238 C 0.91418 0.69860 0.41613
 C1239 C 0.84933 0.56678 0.43284
 H1240 H 0.86804 0.56037 0.43932
 C1241 C 0.80144 0.58426 0.41508
 C1242 C 1.14975 0.43299 0.43178
 H1243 H 1.13105 0.43929 0.43837
 C1244 C 1.19757 0.41578 0.41369
 O1245 O 1.02514 0.40799 0.62713
 O1246 O 1.02543 0.37806 0.65710
 C1247 C 1.03413 0.39891 0.64794
 C1248 C 1.05543 0.41226 0.66123
 C1249 C 1.06398 0.40370 0.68534
 H1250 H 1.05365 0.38839 0.69476
 O1251 O 0.97484 0.59158 0.62879
 O1252 O 0.97489 0.62126 0.65898
 C1253 C 0.96611 0.60047 0.64978
 C1254 C 0.94508 0.58681 0.66315
 C1255 C 0.93640 0.59505 0.68736
 H1256 H 0.94568 0.61110 0.69677
 O1257 O 0.87146 0.52448 0.59316
 O1258 O 0.84149 0.52465 0.62306
 C1259 C 0.85057 0.53330 0.60212
 C1260 C 0.83711 0.55419 0.58824
 C1261 C 0.81281 0.56273 0.59626
 H1262 H 0.80344 0.55356 0.61242
 O1263 O 1.12913 0.47495 0.59148
 O1264 O 1.15930 0.47483 0.62124
 C1265 C 1.15014 0.46621 0.60032
 C1266 C 1.16355 0.44537 0.58637
 C1267 C 1.18788 0.43673 0.59432
 H1268 H 1.19736 0.44588 0.61043
 O1269 O 1.09313 0.37244 0.52451
 O1270 O 1.12297 0.34238 0.52459
 C1271 C 1.10215 0.35160 0.53341
 C1272 C 1.08846 0.33834 0.55455
 C1273 C 1.09685 0.31431 0.56361
 H1274 H 1.11321 0.30502 0.55471
 O1275 O 0.90672 0.62713 0.52550
 O1276 O 0.87678 0.65710 0.52578
 C1277 C 0.89768 0.64792 0.53449
 C1278 C 0.91138 0.66114 0.55569
 C1279 C 0.90308 0.68524 0.56457
 H1280 H 0.88690 0.69463 0.55542
 O1281 O 0.90657 0.47441 0.62830
 O1282 O 0.87685 0.47436 0.65845
 C1283 C 0.89769 0.46562 0.64925
 C1284 C 0.91156 0.44465 0.66260
 C1285 C 0.90326 0.43559 0.68663
 H1286 H 0.88688 0.44446 0.69591
 O1287 O 1.09346 0.52437 0.62693
 O1288 O 1.12340 0.52431 0.65692
 C1289 C 1.10240 0.53295 0.64793
 C1290 C 1.08854 0.55362 0.66170
 C1291 C 1.09687 0.56179 0.68599
 H1292 H 1.11257 0.55173 0.69517
 O1293 O 0.97474 0.37269 0.59240
 O1294 O 0.97517 0.34269 0.62230
 C1295 C 0.96616 0.35176 0.60150
 C1296 C 0.94505 0.33820 0.58812
 C1297 C 0.93669 0.31408 0.59675
 H1298 H 0.94691 0.30485 0.61231
 O1299 O 1.02462 0.62694 0.59344
 O1300 O 1.02467 0.65677 0.62348
 C1301 C 1.03331 0.64784 0.60248
 C1302 C 1.05409 0.66153 0.58872
 C1303 C 1.06258 0.68565 0.59723
 H1304 H 1.05275 0.69478 0.61308
 O1305 O 0.87090 0.40699 0.52555
 O1306 O 0.84098 0.37709 0.52566
 C1307 C 0.85005 0.39797 0.53438
 C1308 C 0.83669 0.41164 0.55545
 C1309 C 0.81265 0.40325 0.56436
 H1310 H 0.80335 0.38704 0.55525
 O1311 O 1.12701 0.59318 0.52478
 O1312 O 1.15680 0.62320 0.52464
 C1313 C 1.14794 0.60225 0.53342
 C1314 C 1.16172 0.58864 0.55433
 C1315 C 1.18580 0.59731 0.56282
 H1316 H 1.19480 0.61307 0.55279
 O1317 O 1.02500 0.59141 0.62828
 O1318 O 1.02510 0.62106 0.65850
 C1319 C 1.03389 0.60028 0.64919
 C1320 C 1.05509 0.58657 0.66238
 C1321 C 1.06382 0.59458 0.68665
 H1322 H 1.05454 0.61056 0.69621
 O1323 O 0.97493 0.40777 0.62773
 O1324 O 0.97535 0.37782 0.65768
 C1325 C 0.96639 0.39866 0.64869
 C1326 C 0.94529 0.41202 0.66232
 C1327 C 0.93684 0.40332 0.68641
 H1328 H 0.94707 0.38778 0.69563
 O1329 O 1.12871 0.52504 0.59196
 O1330 O 1.15886 0.52507 0.62173
 C1331 C 1.14953 0.53397 0.60098
 C1332 C 1.16256 0.55533 0.58742
 C1333 C 1.18656 0.56440 0.59577
 H1334 H 1.19605 0.55527 0.61191
 O1335 O 0.87141 0.47447 0.59314
 O1336 O 0.84150 0.47455 0.62310
 C1337 C 0.85052 0.46579 0.60219
 C1338 C 0.83697 0.44483 0.58859
 C1339 C 0.81292 0.43627 0.59716
 H1340 H 0.80369 0.44623 0.61287
 O1341 O 1.09151 0.62805 0.52508
 O1342 O 1.12114 0.65822 0.52500
 C1343 C 1.10043 0.64894 0.53390
 C1344 C 1.08687 0.66213 0.55515
 C1345 C 1.09514 0.68623 0.56397
 H1346 H 1.11114 0.69569 0.55466
 O1347 O 0.90627 0.37208 0.52553
 O1348 O 0.87658 0.34196 0.52573
 C1349 C 0.89744 0.35117 0.53440
 C1350 C 0.91138 0.33787 0.55538
 C1351 C 0.90323 0.31379 0.56434
 H1352 H 0.88694 0.30444 0.55539
 O1353 O 1.09412 0.47443 0.62678
 O1354 O 1.12406 0.47423 0.65676
 C1355 C 1.10316 0.46554 0.64765
 C1356 C 1.08937 0.44459 0.66108
 C1357 C 1.09780 0.43559 0.68513
 H1358 H 1.11429 0.44436 0.69430
 O1359 O 0.90680 0.52439 0.62821
 O1360 O 0.87703 0.52445 0.65830
 C1361 C 0.89792 0.53310 0.64919
 C1362 C 0.91172 0.55390 0.66278
 C1363 C 0.90339 0.56232 0.68700
 H1364 H 0.88771 0.55239 0.69626
 O1365 O 0.97457 0.62642 0.59333
 O1366 O 0.97457 0.65628 0.62335
 C1367 C 0.96576 0.64726 0.60243
 C1368 C 0.94467 0.66076 0.58885
 C1369 C 0.93617 0.68488 0.59736
 H1370 H 0.94622 0.69412 0.61301
 O1371 O 1.02490 0.37290 0.59189
 O1372 O 1.02519 0.34292 0.62180
 C1373 C 1.03379 0.35203 0.60087
 C1374 C 1.05485 0.33857 0.58729
 C1375 C 1.06332 0.31447 0.59586
 H1376 H 1.05306 0.30518 0.61132
 O1377 O 1.12825 0.40754 0.52384
 O1378 O 1.15828 0.37766 0.52372
 C1379 C 1.14929 0.39861 0.53238
 C1380 C 1.16306 0.41237 0.55307
 C1381 C 1.18742 0.40410 0.56113
 H1382 H 1.19667 0.38859 0.55090
 O1383 O 0.87166 0.59196 0.52513
 O1384 O 0.84155 0.62176 0.52525
 C1385 C 0.85070 0.60084 0.53388
 C1386 C 0.83721 0.58709 0.55477
 C1387 C 0.81287 0.59525 0.56295
 H1388 H 0.80345 0.61068 0.55271
 Cu1389 Cu 0.99986 0.39336 0.60680
 Cu1390 Cu 1.00033 0.35738 0.64273
 Cu1391 Cu 0.99977 0.60609 0.60799
 Cu1392 Cu 0.99982 0.64183 0.64410
 Cu1393 Cu 0.89154 0.39255 0.50050
 Cu1394 Cu 0.85578 0.35652 0.50057
 Cu1395 Cu 1.10741 0.39277 0.49915
 Cu1396 Cu 1.14338 0.35681 0.49908
 Cu1397 Cu 0.89218 0.60683 0.50021
 Cu1398 Cu 0.85612 0.64267 0.50045
 Cu1399 Cu 1.10606 0.60770 0.49986
 Cu1400 Cu 1.14176 0.64378 0.49970
 Cu1401 Cu 0.89204 0.49943 0.60770
 Cu1402 Cu 0.85621 0.49953 0.64375
 Cu1403 Cu 1.10840 0.49967 0.60627
 Cu1404 Cu 1.14444 0.49960 0.64216
 C1405 C 1.06811 0.43283 0.64935
 H1406 H 1.06175 0.43932 0.63062
 C1407 C 1.08544 0.41495 0.69729
 C1408 C 0.93267 0.56614 0.65110
 H1409 H 0.93896 0.55994 0.63226
 C1410 C 0.91540 0.58315 0.69931
 C1411 C 0.84908 0.56643 0.56740
 H1412 H 0.86801 0.56026 0.56136
 C1413 C 0.80066 0.58343 0.58395
 C1414 C 1.15139 0.43313 0.56564
 H1415 H 1.13245 0.43936 0.55969
 C1416 C 1.19984 0.41592 0.58203
 C1417 C 1.06739 0.35026 0.56651
 H1418 H 1.06109 0.36899 0.56000
 C1419 C 1.08462 0.30235 0.58445
 C1420 C 0.93226 0.64914 0.56791
 H1421 H 0.93853 0.63039 0.56146
 C1422 C 0.91514 0.69714 0.58555
 C1423 C 0.93265 0.43280 0.65069
 H1424 H 0.93890 0.43937 0.63196
 C1425 C 0.91555 0.41475 0.69858
 C1426 C 1.06752 0.56599 0.65014
 H1427 H 1.06121 0.55996 0.63125
 C1428 C 1.08488 0.58253 0.69848
 C1429 C 0.93239 0.34984 0.56733
 H1430 H 0.93854 0.36859 0.56081
 C1431 C 0.91554 0.30186 0.58519
 C1432 C 1.06624 0.65003 0.56758
 H1433 H 1.06001 0.63128 0.56115
 C1434 C 1.08334 0.69803 0.58516
 C1435 C 0.84859 0.43252 0.56763
 H1436 H 0.86731 0.43883 0.56116
 C1437 C 0.80075 0.41522 0.58538
 C1438 C 1.15037 0.56754 0.56663
 H1439 H 1.13168 0.56096 0.56036
 C1440 C 1.19824 0.58555 0.58381
 O1441 O 0.47436 0.90816 0.37127
 O1442 O 0.47420 0.87864 0.34092
 C1443 C 0.46553 0.89945 0.35027
 C1444 C 0.44453 0.91338 0.33703
 C1445 C 0.43575 0.90530 0.31283
 H1446 H 0.44487 0.88915 0.30340
 O1447 O 0.52549 1.09292 0.37133
 O1448 O 0.52570 1.12302 0.34155
 C1449 C 0.53438 1.10205 0.35053
 C1450 C 0.55546 1.08839 0.33711
 C1451 C 0.56460 1.09702 0.31320
 H1452 H 0.55571 1.11347 0.30404
 O1453 O 0.37165 0.97656 0.40706
 O1454 O 0.34160 0.97692 0.37718
 C1455 C 0.35069 0.96800 0.39801
 C1456 C 0.33718 0.94696 0.41149
 C1457 C 0.31293 0.93866 0.40312
 H1458 H 0.30352 0.94885 0.38764
 O1459 O 0.62790 1.02459 0.40660
 O1460 O 0.65802 1.02464 0.37686
 C1461 C 0.64886 1.03334 0.39774
 C1462 C 0.66226 1.05423 0.41164
 C1463 C 0.68632 1.06313 0.40331
 H1464 H 0.69556 1.05419 0.38694
 O1465 O 0.40647 0.87207 0.47288
 O1466 O 0.37640 0.84234 0.47273
 C1467 C 0.39727 0.85133 0.46396
 C1468 C 0.41077 0.83798 0.44276
 C1469 C 0.40210 0.81415 0.43357
 H1470 H 0.38572 0.80500 0.44252
 O1471 O 0.59273 1.12659 0.47540
 O1472 O 0.62265 1.15648 0.47565
 C1473 C 0.60177 1.14751 0.46678
 C1474 C 0.58822 1.16118 0.44578
 C1475 C 0.59663 1.18541 0.43754
 H1476 H 0.61220 1.19462 0.44772
 O1477 O 0.40722 1.02637 0.37203
 O1478 O 0.37731 1.02666 0.34201
 C1479 C 0.39829 1.03516 0.35108
 C1480 C 0.41209 1.05592 0.33748
 C1481 C 0.40375 1.06432 0.31324
 H1482 H 0.38809 1.05434 0.30397
 O1483 O 0.59277 0.97477 0.37116
 O1484 O 0.62269 0.97462 0.34122
 C1485 C 0.60177 0.96596 0.35027
 C1486 C 0.58801 0.94501 0.33681
 C1487 C 0.59651 0.93599 0.31281
 H1488 H 0.61294 0.94485 0.30366
 O1489 O 0.52421 0.87236 0.40607
 O1490 O 0.52424 0.84260 0.37596
 C1491 C 0.53295 0.85151 0.39696
 C1492 C 0.55387 0.83796 0.41071
 C1493 C 0.56254 0.81378 0.40243
 H1494 H 0.55340 0.80453 0.38617
 O1495 O 0.47547 1.12779 0.40700
 O1496 O 0.47556 1.15803 0.37735
 C1497 C 0.46679 1.14882 0.39819
 C1498 C 0.44586 1.16235 0.41198
 C1499 C 0.43715 1.18639 0.40339
 H1500 H 0.44690 1.19556 0.38753
 O1501 O 0.37272 1.09395 0.47533
 O1502 O 0.34291 1.12405 0.47546
 C1503 C 0.35187 1.10316 0.46658
 C1504 C 0.33832 1.08977 0.44541
 C1505 C 0.31428 1.09849 0.43679
 H1506 H 0.30510 1.11414 0.44687
 O1507 O 0.62721 0.90682 0.47412
 O1508 O 0.65712 0.87682 0.47409
 C1509 C 0.64811 0.89777 0.46539
 C1510 C 0.66169 0.91142 0.44446
 C1511 C 0.68586 0.90298 0.43598
 H1512 H 0.69512 0.88726 0.44592
 O1513 O 0.47537 1.09316 0.37133
 O1514 O 0.47544 1.12320 0.34148
 C1515 C 0.46659 1.10234 0.35048
 C1516 C 0.44544 1.08884 0.33709
 C1517 C 0.43671 1.09712 0.31289
 H1518 H 0.44597 1.11317 0.30347
 O1519 O 0.52447 0.90775 0.37112
 O1520 O 0.52435 0.87815 0.34085
 C1521 C 0.53321 0.89887 0.35014
 C1522 C 0.55438 0.91236 0.33678
 C1523 C 0.56300 0.90377 0.31272
 H1524 H 0.55283 0.88830 0.30337
 O1525 O 0.62774 0.97455 0.40653
 O1526 O 0.65786 0.97450 0.37679
 C1527 C 0.64866 0.96574 0.39762
 C1528 C 0.66199 0.94468 0.41134
 C1529 C 0.68614 0.93593 0.40309
 H1530 H 0.69551 0.94516 0.38697
 O1531 O 0.37207 1.02670 0.40721
 O1532 O 0.34202 1.02707 0.37734
 C1533 C 0.35123 1.03571 0.39823
 C1534 C 0.33800 1.05685 0.41196
 C1535 C 0.31401 1.06593 0.40353
 H1536 H 0.30471 1.05696 0.38721
 O1537 O 0.40821 1.12865 0.47551
 O1538 O 0.37858 1.15892 0.47556
 C1539 C 0.39934 1.14961 0.46671
 C1540 C 0.41296 1.16282 0.44548
 C1541 C 0.40448 1.18683 0.43653
 H1542 H 0.38833 1.19620 0.44572
 O1543 O 0.59158 0.87221 0.47395
 O1544 O 0.62135 0.84207 0.47393
 C1545 C 0.60050 0.85130 0.46517
 C1546 C 0.58684 0.83792 0.44414
 C1547 C 0.59513 0.81372 0.43571
 H1548 H 0.61063 0.80429 0.44585
 O1549 O 0.59269 1.02484 0.37146
 O1550 O 0.62263 1.02480 0.34153
 C1551 C 0.60176 1.03363 0.35060
 C1552 C 0.58830 1.05483 0.33718
 C1553 C 0.59700 1.06357 0.31322
 H1554 H 0.61258 1.05346 0.30396
 O1555 O 0.40695 0.97635 0.37205
 O1556 O 0.37705 0.97665 0.34203
 C1557 C 0.39790 0.96773 0.35109
 C1558 C 0.41147 0.94674 0.33747
 C1559 C 0.40305 0.93845 0.31322
 H1560 H 0.38746 0.94860 0.30398
 O1561 O 0.52551 1.12754 0.40700
 O1562 O 0.52571 1.15786 0.37743
 C1563 C 0.53436 1.14849 0.39827
 C1564 C 0.55530 1.16169 0.41227
 C1565 C 0.56404 1.18589 0.40426
 H1566 H 0.55495 1.19536 0.38809
 O1567 O 0.47414 0.87235 0.40574
 O1568 O 0.47412 0.84267 0.37555
 C1569 C 0.46533 0.85159 0.39648
 C1570 C 0.44415 0.83813 0.40983
 C1571 C 0.43534 0.81424 0.40099
 H1572 H 0.44533 0.80506 0.38529
 O1573 O 0.62783 1.09131 0.47523
 O1574 O 0.65786 1.12108 0.47550
 C1575 C 0.64874 1.10032 0.46654
 C1576 C 0.66218 1.08692 0.44533
 C1577 C 0.68625 1.09548 0.43678
 H1578 H 0.69556 1.11100 0.44692
 O1579 O 0.37183 0.90779 0.47344
 O1580 O 0.34159 0.87822 0.47330
 C1581 C 0.35078 0.89912 0.46475
 C1582 C 0.33723 0.91324 0.44410
 C1583 C 0.31299 0.90518 0.43548
 H1584 H 0.30373 0.88889 0.44449
 Cu1585 Cu 0.49931 0.89311 0.39158
 Cu1586 Cu 0.49923 0.85755 0.35526
 Cu1587 Cu 0.50045 1.10731 0.39209
 Cu1588 Cu 0.50061 1.14356 0.35647
 Cu1589 Cu 0.39244 1.00147 0.39262
 Cu1590 Cu 0.35648 1.00186 0.35664
 Cu1591 Cu 0.60728 0.99968 0.39192
 Cu1592 Cu 0.64331 0.99964 0.35609
 C1593 C 0.43233 0.93419 0.34913
 H1594 H 0.43872 0.94028 0.36798
 C1595 C 0.41486 0.91748 0.30089
 C1596 C 0.56740 1.06722 0.34886
 H1597 H 0.56081 1.06074 0.36749
 C1598 C 0.58555 1.08495 0.30122
 C1599 C 0.34907 0.93424 0.43210
 H1600 H 0.36793 0.94031 0.43839
 C1601 C 0.30083 0.91753 0.41482
 C1602 C 0.65044 1.06619 0.43275
 H1603 H 0.63172 1.05972 0.43904
 C1604 C 0.69833 1.08392 0.41553
 C1605 C 0.43187 0.84972 0.43081
 H1606 H 0.43839 0.86828 0.43750
 C1607 C 0.41404 0.80222 0.41251
 C1608 C 0.56744 1.14956 0.43314
 H1609 H 0.56107 1.13073 0.43918
 C1610 C 0.58486 1.19778 0.41655
 C1611 C 0.43305 1.06816 0.34914
 H1612 H 0.43936 1.06193 0.36798
 C1613 C 0.41569 1.08518 0.30094
 C1614 C 0.56687 0.93310 0.34857
 H1615 H 0.56048 0.93960 0.36727
 C1616 C 0.58435 0.91518 0.30075
 C1617 C 0.56609 0.84979 0.43165
 H1618 H 0.55983 0.86862 0.43788
 C1619 C 0.58334 0.80165 0.41460
 C1620 C 0.43375 1.15081 0.43314
 H1621 H 0.44014 1.13211 0.43964
 C1622 C 0.41619 1.19862 0.41532
 C1623 C 0.34992 1.06884 0.43299
 H1624 H 0.36860 1.06223 0.43934
 C1625 C 0.30209 1.08690 0.41559
 C1626 C 0.65001 0.93238 0.43213
 H1627 H 0.63122 0.93876 0.43835
 C1628 C 0.69810 0.91493 0.41506
 O1629 O 0.52421 0.90615 0.62709
 O1630 O 0.52405 0.87604 0.65687
 C1631 C 0.53288 0.89694 0.64798
 C1632 C 0.55386 0.91041 0.66167
 C1633 C 0.56227 0.90187 0.68587
 H1634 H 0.55227 0.88618 0.69506
 O1635 O 0.47515 1.09157 0.62877
 O1636 O 0.47516 1.12126 0.65896
 C1637 C 0.46631 1.10051 0.64967
 C1638 C 0.44509 1.08690 0.66283
 C1639 C 0.43613 1.09526 0.68687
 H1640 H 0.44530 1.11137 0.69630
 O1641 O 0.37217 1.02489 0.59218
 O1642 O 0.34201 1.02478 0.62189
 C1643 C 0.35127 1.03370 0.60115
 C1644 C 0.33803 1.05503 0.58770
 C1645 C 0.31398 1.06372 0.59620
 H1646 H 0.30452 1.05358 0.61165
 O1647 O 0.62699 0.97373 0.59301
 O1648 O 0.65713 0.97317 0.62280
 C1649 C 0.64792 0.96477 0.60182
 C1650 C 0.66129 0.94398 0.58776
 C1651 C 0.68556 0.93529 0.59579
 H1652 H 0.69494 0.94430 0.61204
 O1653 O 0.59198 0.87153 0.52403
 O1654 O 0.62174 0.84138 0.52402
 C1655 C 0.60088 0.85053 0.53274
 C1656 C 0.58706 0.83703 0.55359
 C1657 C 0.59523 0.81277 0.56218
 H1658 H 0.61143 0.80344 0.55304
 O1659 O 0.40800 1.12862 0.52577
 O1660 O 0.37838 1.15889 0.52590
 C1661 C 0.39914 1.14952 0.53470
 C1662 C 0.41284 1.16262 0.55596
 C1663 C 0.40464 1.18675 0.56488
 H1664 H 0.38857 1.19627 0.55567
 O1665 O 0.40680 0.97440 0.62737
 O1666 O 0.37684 0.97424 0.65727
 C1667 C 0.39772 0.96551 0.64819
 C1668 C 0.41136 0.94439 0.66153
 C1669 C 0.40313 0.93560 0.68569
 H1670 H 0.38700 0.94481 0.69509
 O1671 O 0.59225 1.02369 0.62878
 O1672 O 0.62223 1.02316 0.65872
 C1673 C 0.60141 1.03219 0.64974
 C1674 C 0.58806 1.05331 0.66336
 C1675 C 0.59694 1.06198 0.68732
 H1676 H 0.61264 1.05189 0.69644
 O1677 O 0.47408 0.87151 0.59150
 O1678 O 0.47389 0.84123 0.62111
 C1679 C 0.46526 0.85054 0.60025
 C1680 C 0.44438 0.83724 0.58625
 C1681 C 0.43563 0.81304 0.59432
 H1682 H 0.44466 0.80363 0.61056
 O1683 O 0.52539 1.12647 0.59385
 O1684 O 0.52559 1.15642 0.62378
 C1685 C 0.53425 1.14730 0.60284
 C1686 C 0.55521 1.16064 0.58904
 C1687 C 0.56394 1.18477 0.59731
 H1688 H 0.55485 1.19407 0.61355
 O1689 O 0.37214 0.90738 0.52348
 O1690 O 0.34194 0.87777 0.52337
 C1691 C 0.35121 0.89851 0.53223
 C1692 C 0.33782 0.91210 0.55334
 C1693 C 0.31367 0.90370 0.56179
 H1694 H 0.30434 0.88818 0.55167
 O1695 O 0.62787 1.09113 0.52545
 O1696 O 0.65792 1.12088 0.52570
 C1697 C 0.64875 1.10002 0.53436
 C1698 C 0.66205 1.08629 0.55547
 C1699 C 0.68610 1.09463 0.56439
 H1700 H 0.69545 1.11079 0.55524
 O1701 O 0.52528 1.09172 0.62941
 O1702 O 0.52542 1.12146 0.65954
 C1703 C 0.53413 1.10061 0.65036
 C1704 C 0.55521 1.08684 0.66370
 C1705 C 0.56447 1.09536 0.68761
 H1706 H 0.55562 1.11177 0.69685
 O1707 O 0.47416 0.90663 0.62672
 O1708 O 0.47399 0.87650 0.65649
 C1709 C 0.46537 0.89751 0.64756
 C1710 C 0.44450 0.91117 0.66116
 C1711 C 0.43612 0.90275 0.68535
 H1712 H 0.44618 0.88710 0.69460
 O1713 O 0.62712 1.02373 0.59336
 O1714 O 0.65725 1.02323 0.62315
 C1715 C 0.64812 1.03223 0.60234
 C1716 C 0.66168 1.05319 0.58876
 C1717 C 0.68576 1.06175 0.59736
 H1718 H 0.69496 1.05185 0.61315
 O1719 O 0.37196 0.97476 0.59185
 O1720 O 0.34181 0.97459 0.62156
 C1721 C 0.35102 0.96595 0.60067
 C1722 C 0.33765 0.94503 0.58678
 C1723 C 0.31353 0.93625 0.59504
 H1724 H 0.30421 0.94531 0.61130
 O1725 O 0.59263 1.12626 0.52558
 O1726 O 0.62257 1.15613 0.52578
 C1727 C 0.60167 1.14707 0.53447
 C1728 C 0.58810 1.16050 0.55557
 C1729 C 0.59651 1.18465 0.56406
 H1730 H 0.61204 1.19399 0.55398
 O1731 O 0.40712 0.87208 0.52302
 O1732 O 0.37708 0.84231 0.52292
 C1733 C 0.39803 0.85121 0.53168
 C1734 C 0.41160 0.83757 0.55265
 C1735 C 0.40319 0.81336 0.56089
 H1736 H 0.38770 0.80410 0.55065
 O1737 O 0.59186 0.97360 0.62817
 O1738 O 0.62180 0.97301 0.65815
 C1739 C 0.60085 0.96453 0.64897
 C1740 C 0.58707 0.94349 0.66220
 C1741 C 0.59523 0.93466 0.68637
 H1742 H 0.61134 0.94381 0.69584
 O1743 O 0.40714 1.02445 0.62756
 O1744 O 0.37714 1.02435 0.65743
 C1745 C 0.39808 1.03309 0.64850
 C1746 C 0.41172 1.05396 0.66221
 C1747 C 0.40309 1.06255 0.68628
 H1748 H 0.38724 1.05273 0.69538
 O1749 O 0.47536 1.12713 0.59400
 O1750 O 0.47548 1.15701 0.62399
 C1751 C 0.46673 1.14809 0.60303
 C1752 C 0.44589 1.16186 0.58933
 C1753 C 0.43753 1.18603 0.59786
 H1754 H 0.44759 1.19510 0.61359
 O1755 O 0.52411 0.87159 0.59136
 O1756 O 0.52394 0.84133 0.62100
 C1757 C 0.53275 0.85057 0.60021
 C1758 C 0.55368 0.83710 0.58651
 C1759 C 0.56199 0.81282 0.59474
 H1760 H 0.55183 0.80341 0.61020
 O1761 O 0.62675 0.90698 0.52425
 O1762 O 0.65667 0.87698 0.52421
 C1763 C 0.64761 0.89786 0.53301
 C1764 C 0.66112 0.91133 0.55409
 C1765 C 0.68540 0.90298 0.56231
 H1766 H 0.69476 0.88756 0.55204
 O1767 O 0.37274 1.09361 0.52545
 O1768 O 0.34292 1.12369 0.52566
 C1769 C 0.35188 1.10267 0.53426
 C1770 C 0.33831 1.08883 0.55510
 C1771 C 0.31427 1.09732 0.56396
 H1772 H 0.30517 1.11379 0.55505
 Cu1773 Cu 0.49914 0.89200 0.60619
 Cu1774 Cu 0.49895 0.85574 0.64186
 Cu1775 Cu 0.50029 1.10622 0.60854
 Cu1776 Cu 0.50041 1.14202 0.64460
 Cu1777 Cu 0.39243 0.89278 0.49817
 Cu1778 Cu 0.35623 0.85716 0.49808
 Cu1779 Cu 0.60639 0.89240 0.49910
 Cu1780 Cu 0.64223 0.85630 0.49905
 Cu1781 Cu 0.39340 1.10823 0.50053
 Cu1782 Cu 0.35774 1.14443 0.50066
 Cu1783 Cu 0.60728 1.10582 0.50039
 Cu1784 Cu 0.64326 1.14163 0.50067
 Cu1785 Cu 0.39251 0.99961 0.60676
 Cu1786 Cu 0.35641 0.99949 0.64251
 Cu1787 Cu 0.60654 0.99873 0.60786
 Cu1788 Cu 0.64261 0.99808 0.64372
 C1789 C 0.56628 0.93132 0.65009
 H1790 H 0.56012 0.93777 0.63128
 C1791 C 0.58317 0.91372 0.69826
 C1792 C 0.43284 1.06615 0.65074
 H1793 H 0.43937 1.05985 0.63202
 C1794 C 0.41498 1.08344 0.69861
 C1795 C 0.34995 1.06759 0.56704
 H1796 H 0.36867 1.06118 0.56062
 C1797 C 0.30209 1.08511 0.58468
 C1798 C 0.64931 0.93196 0.56680
 H1799 H 0.63042 0.93827 0.56075
 C1800 C 0.69763 0.91463 0.58341
 C1801 C 0.56620 0.84896 0.56582
 H1802 H 0.56007 0.86784 0.55961
 C1803 C 0.58303 0.80065 0.58294
 C1804 C 0.43354 1.15041 0.56826
 H1805 H 0.43970 1.13164 0.56179
 C1806 C 0.41665 1.19851 0.58599
 C1807 C 0.43213 0.93210 0.64951
 H1808 H 0.43833 0.93848 0.63069
 C1809 C 0.41518 0.91462 0.69763
 C1810 C 0.56708 1.06574 0.65183
 H1811 H 0.56036 1.05934 0.63320
 C1812 C 0.58551 1.08329 0.69945
 C1813 C 0.43231 0.84926 0.56531
 H1814 H 0.43865 0.86810 0.55924
 C1815 C 0.41487 0.80108 0.58198
 C1816 C 0.56734 1.14875 0.56807
 H1817 H 0.56099 1.12997 0.56183
 C1818 C 0.58475 1.19680 0.58516
 C1819 C 0.34957 0.93289 0.56583
 H1820 H 0.36835 0.93924 0.55960
 C1821 C 0.30153 0.91541 0.58290
 C1822 C 0.65009 1.06548 0.56771
 H1823 H 0.63136 1.05920 0.56121
 C1824 C 0.69798 1.08271 0.58549
 O1825 O 0.47547 0.40834 0.87203
 O1826 O 0.47549 0.37863 0.84186
 C1827 C 0.46674 0.39947 0.85104
 C1828 C 0.44572 0.41311 0.83756
 C1829 C 0.43730 0.40471 0.81337
 H1830 H 0.44749 0.38922 0.80402
 O1831 O 0.52494 0.59310 0.87246
 O1832 O 0.52503 0.62301 0.84247
 C1833 C 0.53377 0.60211 0.85159
 C1834 C 0.55480 0.58837 0.83823
 C1835 C 0.56334 0.59647 0.81394
 H1836 H 0.55406 0.61255 0.80452
 O1837 O 0.37206 0.47585 0.90691
 O1838 O 0.34212 0.47607 0.87692
 C1839 C 0.35111 0.46730 0.89786
 C1840 C 0.33744 0.44649 0.91150
 C1841 C 0.31322 0.43824 0.90309
 H1842 H 0.30397 0.44834 0.88747
 O1843 O 0.62806 0.52522 0.90806
 O1844 O 0.65803 0.52536 0.87816
 C1845 C 0.64893 0.53402 0.89908
 C1846 C 0.66238 0.55499 0.91276
 C1847 C 0.68656 0.56342 0.90440
 H1848 H 0.69591 0.55332 0.88886
 O1849 O 0.40669 0.37310 0.97366
 O1850 O 0.37684 0.34314 0.97347
 C1851 C 0.39769 0.35227 0.96475
 C1852 C 0.41142 0.33890 0.94370
 C1853 C 0.40293 0.31495 0.93464
 H1854 H 0.38650 0.30580 0.94351
 O1855 O 0.59264 0.62806 0.97544
 O1856 O 0.62249 0.65803 0.97557
 C1857 C 0.60163 0.64897 0.96672
 C1858 C 0.58792 0.66243 0.94567
 C1859 C 0.59629 0.68652 0.93691
 H1860 H 0.61253 0.69575 0.94606
 O1861 O 0.40760 0.52564 0.87196
 O1862 O 0.37781 0.52579 0.84182
 C1863 C 0.39870 0.53441 0.85100
 C1864 C 0.41238 0.55532 0.83754
 C1865 C 0.40406 0.56370 0.81330
 H1866 H 0.38860 0.55354 0.80390
 O1867 O 0.59299 0.47534 0.87257
 O1868 O 0.62285 0.47551 0.84256
 C1869 C 0.60199 0.46671 0.85160
 C1870 C 0.58842 0.44578 0.83799
 C1871 C 0.59695 0.43730 0.81386
 H1872 H 0.61256 0.44736 0.80464
 O1873 O 0.52535 0.37265 0.90713
 O1874 O 0.52529 0.34282 0.87707
 C1875 C 0.53404 0.35175 0.89804
 C1876 C 0.55500 0.33811 0.91161
 C1877 C 0.56344 0.31397 0.90308
 H1878 H 0.55336 0.30477 0.88744
 O1879 O 0.47478 0.62809 0.90756
 O1880 O 0.47468 0.65825 0.87783
 C1881 C 0.46595 0.64902 0.89868
 C1882 C 0.44493 0.66232 0.91251
 C1883 C 0.43603 0.68645 0.90431
 H1884 H 0.44505 0.69582 0.88807
 O1885 O 0.37235 0.59247 0.97553
 O1886 O 0.34231 0.62233 0.97568
 C1887 C 0.35144 0.60154 0.96678
 C1888 C 0.33800 0.58816 0.94556
 C1889 C 0.31382 0.59667 0.93712
 H1890 H 0.30447 0.61206 0.94742
 O1891 O 0.62792 0.40731 0.97487
 O1892 O 0.65791 0.37740 0.97484
 C1893 C 0.64885 0.39834 0.96616
 C1894 C 0.66238 0.41202 0.94524
 C1895 C 0.68644 0.40347 0.93663
 H1896 H 0.69567 0.38779 0.94665
 O1897 O 0.47490 0.59336 0.87199
 O1898 O 0.47486 0.62331 0.84204
 C1899 C 0.46616 0.60240 0.85105
 C1900 C 0.44525 0.58869 0.83750
 C1901 C 0.43652 0.59697 0.81329
 H1902 H 0.44559 0.61321 0.80401
 O1903 O 0.52556 0.40780 0.87191
 O1904 O 0.52557 0.37810 0.84173
 C1905 C 0.53435 0.39887 0.85097
 C1906 C 0.55542 0.41254 0.83766
 C1907 C 0.56431 0.40419 0.81358
 H1908 H 0.55525 0.38797 0.80424
 O1909 O 0.62834 0.47513 0.90758
 O1910 O 0.65833 0.47525 0.87770
 C1911 C 0.64923 0.46637 0.89852
 C1912 C 0.66261 0.44521 0.91208
 C1913 C 0.68661 0.43624 0.90356
 H1914 H 0.69586 0.44533 0.88729
 O1915 O 0.37225 0.52582 0.90687
 O1916 O 0.34228 0.52611 0.87691
 C1917 C 0.35138 0.53472 0.89787
 C1918 C 0.33797 0.55564 0.91174
 C1919 C 0.31385 0.56452 0.90346
 H1920 H 0.30460 0.55561 0.88708
 O1921 O 0.40761 0.62748 0.97571
 O1922 O 0.37766 0.65743 0.97582
 C1923 C 0.39854 0.64840 0.96701
 C1924 C 0.41205 0.66197 0.94599
 C1925 C 0.40351 0.68613 0.93760
 H1926 H 0.38793 0.69538 0.94774
 O1927 O 0.59312 0.37188 0.97457
 O1928 O 0.62294 0.34180 0.97449
 C1929 C 0.60209 0.35100 0.96572
 C1930 C 0.58836 0.33771 0.94465
 C1931 C 0.59662 0.31360 0.93578
 H1932 H 0.61285 0.30423 0.94487
 O1933 O 0.59283 0.52538 0.87289
 O1934 O 0.62266 0.52554 0.84285
 C1935 C 0.60175 0.53420 0.85198
 C1936 C 0.58799 0.55515 0.83849
 C1937 C 0.59616 0.56344 0.81418
 H1938 H 0.61170 0.55333 0.80481
 O1939 O 0.40725 0.47562 0.87180
 O1940 O 0.37750 0.47571 0.84163
 C1941 C 0.39833 0.46689 0.85083
 C1942 C 0.41214 0.44593 0.83743
 C1943 C 0.40388 0.43712 0.81327
 H1944 H 0.38758 0.44614 0.80395
 O1945 O 0.52484 0.62811 0.90770
 O1946 O 0.52487 0.65824 0.87793
 C1947 C 0.53360 0.64904 0.89881
 C1948 C 0.55462 0.66242 0.91253
 C1949 C 0.56318 0.68654 0.90413
 H1950 H 0.55318 0.69591 0.88851
 O1951 O 0.47523 0.37293 0.90690
 O1952 O 0.47520 0.34310 0.87685
 C1953 C 0.46638 0.35216 0.89773
 C1954 C 0.44513 0.33884 0.91108
 C1955 C 0.43649 0.31484 0.90242
 H1956 H 0.44669 0.30551 0.88693
 O1957 O 0.62804 0.59311 0.97545
 O1958 O 0.65810 0.62286 0.97560
 C1959 C 0.64899 0.60205 0.96676
 C1960 C 0.66246 0.58832 0.94578
 C1961 C 0.68661 0.59659 0.93706
 H1962 H 0.69589 0.61280 0.94620
 O1963 O 0.37150 0.40826 0.97422
 O1964 O 0.34149 0.37846 0.97405
 C1965 C 0.35056 0.39938 0.96545
 C1966 C 0.33710 0.41325 0.94458
 C1967 C 0.31290 0.40514 0.93584
 H1968 H 0.30352 0.38899 0.94498
 Cu1969 Cu 0.50044 0.39341 0.89251
 Cu1970 Cu 0.50038 0.35767 0.85636
 Cu1971 Cu 0.49984 0.60766 0.89290
 Cu1972 Cu 0.49987 0.64374 0.85708
 Cu1973 Cu 0.39278 0.50070 0.89239
 Cu1974 Cu 0.35693 0.50094 0.85628
 Cu1975 Cu 0.60758 0.50024 0.89330
 Cu1976 Cu 0.64347 0.50046 0.85731
 C1977 C 0.43315 0.43384 0.84935
 H1978 H 0.43937 0.44019 0.86816
 C1979 C 0.41612 0.41632 0.80123
 C1980 C 0.56718 0.56761 0.85027
 H1981 H 0.56099 0.56150 0.86917
 C1982 C 0.58418 0.58434 0.80189
 C1983 C 0.34912 0.43403 0.93236
 H1984 H 0.36796 0.44011 0.93870
 C1985 C 0.30094 0.41730 0.91493
 C1986 C 0.65059 0.56743 0.93356
 H1987 H 0.63180 0.56120 0.93987
 C1988 C 0.69869 0.58447 0.91620
 C1989 C 0.43259 0.35061 0.93183
 H1990 H 0.43898 0.36926 0.93840
 C1991 C 0.41512 0.30289 0.91382
 C1992 C 0.56700 0.65062 0.93342
 H1993 H 0.56069 0.63186 0.93977
 C1994 C 0.58427 0.69859 0.91597
 C1995 C 0.43310 0.56778 0.84939
 H1996 H 0.43938 0.56157 0.86824
 C1997 C 0.41573 0.58480 0.80118
 C1998 C 0.56754 0.43341 0.84963
 H1999 H 0.56108 0.43968 0.86839
 C2000 C 0.58525 0.41622 0.80163
 C2001 C 0.56745 0.34971 0.93251
 H2002 H 0.56123 0.36848 0.93895
 C2003 C 0.58450 0.30170 0.91483
 C2004 C 0.43287 0.65032 0.93345
 H2005 H 0.43933 0.63153 0.93964
 C2006 C 0.41515 0.69838 0.91651
 C2007 C 0.34981 0.56753 0.93287
 H2008 H 0.36859 0.56109 0.93911
 C2009 C 0.30173 0.58520 0.91582
 C2010 C 0.65074 0.43302 0.93299
 H2011 H 0.63203 0.43951 0.93936
 C2012 C 0.69855 0.41518 0.91549
 O2013 O 0.52469 0.40661 1.12737
 O2014 O 0.52469 0.37645 1.15711
 C2015 C 0.53343 0.39741 1.14821
 C2016 C 0.55446 0.41088 1.16181
 C2017 C 0.56295 0.40228 1.18592
 H2018 H 0.55281 0.38671 1.19512
 O2019 O 0.47501 0.59205 1.12824
 O2020 O 0.47507 0.62175 1.15842
 C2021 C 0.46629 0.60093 1.14922
 C2022 C 0.44527 0.58734 1.16270
 C2023 C 0.43656 0.59606 1.18667
 H2024 H 0.44657 0.61173 1.19586
 O2025 O 0.37222 0.52446 1.09367
 O2026 O 0.34214 0.52448 1.12346
 C2027 C 0.35131 0.53327 1.10261
 C2028 C 0.33796 0.55436 1.08890
 C2029 C 0.31394 0.56331 1.09733
 H2030 H 0.30467 0.55424 1.11360
 O2031 O 0.62748 0.47418 1.09265
 O2032 O 0.65744 0.47409 1.12261
 C2033 C 0.64841 0.46544 1.10166
 C2034 C 0.66200 0.44454 1.08799
 C2035 C 0.68613 0.43605 1.09651
 H2036 H 0.69538 0.44607 1.11217
 O2037 O 0.59255 0.37201 1.02466
 O2038 O 0.62244 0.34199 1.02463
 C2039 C 0.60152 0.35106 1.03334
 C2040 C 0.58788 0.33749 1.05426
 C2041 C 0.59648 0.31341 1.06277
 H2042 H 0.61212 0.30422 1.05268
 O2043 O 0.40748 0.62748 1.02589
 O2044 O 0.37754 0.65744 1.02593
 C2045 C 0.39844 0.64837 1.03468
 C2046 C 0.41200 0.66185 1.05576
 C2047 C 0.40346 0.68594 1.06434
 H2048 H 0.38785 0.69520 1.05425
 O2049 O 0.40721 0.47417 1.12876
 O2050 O 0.37738 0.47406 1.15879
 C2051 C 0.39820 0.46525 1.14959
 C2052 C 0.41179 0.44395 1.16275
 C2053 C 0.40334 0.43481 1.18671
 H2054 H 0.38714 0.44390 1.19610
 O2055 O 0.59206 0.52395 1.12807
 O2056 O 0.62192 0.52376 1.15813
 C2057 C 0.60104 0.53256 1.14905
 C2058 C 0.58747 0.55352 1.16265
 C2059 C 0.59591 0.56173 1.18691
 H2060 H 0.61134 0.55139 1.19621
 O2061 O 0.47480 0.37179 1.09178
 O2062 O 0.47470 0.34140 1.12127
 C2063 C 0.46604 0.35077 1.10044
 C2064 C 0.44520 0.33751 1.08636
 C2065 C 0.43676 0.31309 1.09406
 H2066 H 0.44599 0.30349 1.11008
 O2067 O 0.52509 0.62748 1.09330
 O2068 O 0.52512 0.65728 1.12337
 C2069 C 0.53386 0.64831 1.10242
 C2070 C 0.55488 0.66183 1.08886
 C2071 C 0.56354 0.68584 1.09752
 H2072 H 0.55365 0.69503 1.11330
 O2073 O 0.37202 0.40797 1.02438
 O2074 O 0.34205 0.37813 1.02425
 C2075 C 0.35120 0.39888 1.03321
 C2076 C 0.33789 0.41222 1.05455
 C2077 C 0.31383 0.40365 1.06312
 H2078 H 0.30449 0.38824 1.05287
 O2079 O 0.62755 0.59258 1.02556
 O2080 O 0.65762 0.62231 1.02584
 C2081 C 0.64843 0.60143 1.03447
 C2082 C 0.66176 0.58756 1.05550
 C2083 C 0.68588 0.59578 1.06430
 H2084 H 0.69520 0.61198 1.05518
 O2085 O 0.52506 0.59235 1.12856
 O2086 O 0.52519 0.62198 1.15880
 C2087 C 0.53387 0.60114 1.14955
 C2088 C 0.55478 0.58718 1.16292
 C2089 C 0.56363 0.59528 1.18712
 H2090 H 0.55467 0.61156 1.19648
 O2091 O 0.47463 0.40630 1.12763
 O2092 O 0.47457 0.37609 1.15730
 C2093 C 0.46585 0.39710 1.14845
 C2094 C 0.44487 0.41064 1.16212
 C2095 C 0.43627 0.40188 1.18614
 H2096 H 0.44624 0.38608 1.19519
 O2097 O 0.62729 0.52428 1.09298
 O2098 O 0.65728 0.52417 1.12291
 C2099 C 0.64816 0.53304 1.10205
 C2100 C 0.66159 0.55417 1.08853
 C2101 C 0.68573 0.56265 1.09702
 H2102 H 0.69505 0.55262 1.11266
 O2103 O 0.37223 0.47444 1.09343
 O2104 O 0.34217 0.47430 1.12324
 C2105 C 0.35131 0.46565 1.10231
 C2106 C 0.33791 0.44476 1.08840
 C2107 C 0.31391 0.43578 1.09680
 H2108 H 0.30473 0.44463 1.11325
 O2109 O 0.59275 0.62807 1.02559
 O2110 O 0.62260 0.65802 1.02585
 C2111 C 0.60173 0.64889 1.03453
 C2112 C 0.58805 0.66217 1.05566
 C2113 C 0.59647 0.68616 1.06464
 H2114 H 0.61268 0.69546 1.05553
 O2115 O 0.40724 0.37288 1.02373
 O2116 O 0.37744 0.34287 1.02357
 C2117 C 0.39837 0.35187 1.03227
 C2118 C 0.41220 0.33810 1.05297
 C2119 C 0.40414 0.31365 1.06081
 H2120 H 0.38872 0.30438 1.05046
 O2121 O 0.59248 0.47385 1.12799
 O2122 O 0.62232 0.47366 1.15808
 C2123 C 0.60149 0.46493 1.14888
 C2124 C 0.58783 0.44381 1.16216
 C2125 C 0.59620 0.43479 1.18623
 H2126 H 0.61246 0.44378 1.19558
 O2127 O 0.40734 0.52431 1.12885
 O2128 O 0.37750 0.52438 1.15886
 C2129 C 0.39834 0.53315 1.14973
 C2130 C 0.41198 0.55430 1.16302
 C2131 C 0.40339 0.56349 1.18693
 H2132 H 0.38704 0.55457 1.19617
 O2133 O 0.47497 0.62778 1.09365
 O2134 O 0.47494 0.65764 1.12366
 C2135 C 0.46615 0.64862 1.10275
 C2136 C 0.44505 0.66202 1.08911
 C2137 C 0.43611 0.68605 1.09757
 H2138 H 0.44519 0.69529 1.11386
 O2139 O 0.52488 0.37135 1.09236
 O2140 O 0.52485 0.34103 1.12194
 C2141 C 0.53368 0.35036 1.10120
 C2142 C 0.55481 0.33710 1.08752
 C2143 C 0.56386 0.31308 1.09594
 H2144 H 0.55487 0.30376 1.11222
 O2145 O 0.62809 0.40669 1.02496
 O2146 O 0.65815 0.37683 1.02500
 C2147 C 0.64899 0.39766 1.03379
 C2148 C 0.66232 0.41131 1.05489
 C2149 C 0.68642 0.40297 1.06377
 H2150 H 0.69577 0.38676 1.05466
 O2151 O 0.37253 0.59210 1.02576
 O2152 O 0.34251 0.62197 1.02584
 C2153 C 0.35163 0.60108 1.03456
 C2154 C 0.33817 0.58746 1.05560
 C2155 C 0.31412 0.59605 1.06423
 H2156 H 0.30485 0.61176 1.05428
 Cu2157 Cu 0.49974 0.39202 1.10681
 Cu2158 Cu 0.49967 0.35571 1.14239
 Cu2159 Cu 0.50004 0.60696 1.10791
 Cu2160 Cu 0.50009 0.64265 1.14408
 Cu2161 Cu 0.39233 0.39357 0.99897
 Cu2162 Cu 0.35643 0.35766 0.99885
 Cu2163 Cu 0.60743 0.39247 0.99976
 Cu2164 Cu 0.64337 0.35649 0.99974
 Cu2165 Cu 0.39299 0.60688 1.00073
 Cu2166 Cu 0.35699 0.64278 1.00083
 Cu2167 Cu 0.60725 0.60749 1.00047
 Cu2168 Cu 0.64321 0.64331 1.00074
 Cu2169 Cu 0.39275 0.49935 1.10823
 Cu2170 Cu 0.35681 0.49930 1.14411
 Cu2171 Cu 0.60683 0.49906 1.10743
 Cu2172 Cu 0.64275 0.49892 1.14344
 C2173 C 0.56688 0.43176 1.15019
 H2174 H 0.56059 0.43829 1.13144
 C2175 C 0.58410 0.41385 1.19815
 C2176 C 0.43299 0.56633 1.15113
 H2177 H 0.43944 0.55971 1.13249
 C2178 C 0.41532 0.58457 1.19876
 C2179 C 0.34984 0.56650 1.06794
 H2180 H 0.36855 0.56000 1.06158
 C2181 C 0.30201 0.58433 1.08535
 C2182 C 0.65035 0.43218 1.06707
 H2183 H 0.63158 0.43845 1.06064
 C2184 C 0.69835 0.41500 1.08476
 C2185 C 0.56691 0.34908 1.06660
 H2186 H 0.56039 0.36780 1.06030
 C2187 C 0.58489 0.30122 1.08393
 C2188 C 0.43291 0.65016 1.06814
 H2189 H 0.43939 0.63145 1.06178
 C2190 C 0.41515 0.69806 1.08552
 C2191 C 0.43263 0.43178 1.15070
 H2192 H 0.43898 0.43842 1.13203
 C2193 C 0.41524 0.41362 1.19846
 C2194 C 0.56678 0.56622 1.15092
 H2195 H 0.56040 0.56014 1.13206
 C2196 C 0.58437 0.58289 1.19914
 C2197 C 0.43286 0.34979 1.06572
 H2198 H 0.43895 0.36881 1.05994
 C2199 C 0.41606 0.30114 1.08161
 C2200 C 0.56715 0.65026 1.06782
 H2201 H 0.56080 0.63158 1.06128
 C2202 C 0.58457 0.69802 1.08572
 C2203 C 0.34967 0.43289 1.06719
 H2204 H 0.36837 0.43939 1.06086
 C2205 C 0.30184 0.41506 1.08451
 C2206 C 0.64984 0.56665 1.06766
 H2207 H 0.63107 0.56043 1.06124
 C2208 C 0.69789 0.58368 1.08520
 C2209 C 1.11974 1.11981 1.26924
 C2210 C 1.13025 1.10059 1.25560
 C2211 C 1.12033 1.09131 1.23065
 C2212 C 1.09625 1.09494 1.22206
 H2213 H 1.14785 1.09164 1.26196
 H2214 H 1.13395 1.08070 1.21915
 H2215 H 1.10285 1.12943 1.26185
 H2216 H 1.08269 1.10577 1.23345
 C2217 C 1.11600 0.61622 0.77182
 C2218 C 1.12786 0.59874 0.75708
 C2219 C 1.11803 0.58931 0.73215
 C2220 C 1.09374 0.59201 0.72386
 H2221 H 1.14653 0.59161 0.76263
 H2222 H 1.13200 0.57964 0.72024
 H2223 H 1.09803 0.62458 0.76561
 H2224 H 1.07980 0.60203 0.73551
 C2225 C 0.61904 1.11918 0.77101
 C2226 C 0.62931 1.09966 0.75755
 C2227 C 0.61911 1.08996 0.73285
 C2228 C 0.59495 1.09340 0.72445
 H2229 H 0.64694 1.09075 0.76385
 H2230 H 0.63262 1.07914 0.72139
 H2231 H 0.60212 1.12876 0.76365
 H2232 H 0.58153 1.10442 0.73583
 C2233 C 0.61686 0.61777 1.27137
 C2234 C 0.62728 0.59829 1.25802
 C2235 C 0.61746 0.58890 1.23308
 C2236 C 0.59341 0.59249 1.22444
 H2237 H 0.64477 0.58926 1.26457
 H2238 H 0.63114 0.57829 1.22164
 H2239 H 0.60012 0.62747 1.26375
 H2240 H 0.57981 0.60329 1.23582
 C2241 C 0.88188 0.88265 1.27026
 C2242 C 0.90150 0.87229 1.25704
 C2243 C 0.91122 0.88220 1.23227
 C2244 C 0.90800 0.90636 1.22381
 H2245 H 0.91043 0.85475 1.26355
 H2246 H 0.92183 0.86852 1.22084
 H2247 H 0.87226 0.89943 1.26262
 H2248 H 0.89719 0.91994 1.23521
 C2249 C 0.87994 0.38181 0.77036
 C2250 C 0.89959 0.37154 0.75711
 C2251 C 0.90923 0.38149 0.73232
 C2252 C 0.90567 0.40555 0.72372
 H2253 H 0.90862 0.35405 0.76363
 H2254 H 0.92006 0.36791 0.72095
 H2255 H 0.87023 0.39855 0.76277
 H2256 H 0.89467 0.41904 0.73504
 C2257 C 0.38107 0.88343 0.77073
 C2258 C 0.39887 0.87174 0.75625
 C2259 C 0.40836 0.88151 0.73132
 C2260 C 0.40553 0.90574 0.72293
 H2261 H 0.40629 0.85325 0.76202
 H2262 H 0.41826 0.86758 0.71955
 H2263 H 0.37239 0.90115 0.76426
 H2264 H 0.39529 0.91963 0.73447
 C2265 C 0.37920 0.38078 1.27010
 C2266 C 0.39894 0.37051 1.25700
 C2267 C 0.40861 0.38033 1.23216
 C2268 C 0.40524 0.40442 1.22357
 H2269 H 0.40803 0.35311 1.26367
 H2270 H 0.41933 0.36666 1.22082
 H2271 H 0.36940 0.39738 1.26229
 H2272 H 0.39437 0.41798 1.23493
 C2273 C 0.88149 1.11920 0.72922
 C2274 C 0.87124 1.09963 0.74256
 C2275 C 0.88122 1.09002 0.76738
 C2276 C 0.90534 1.09339 0.77587
 H2277 H 0.85374 1.09063 0.73609
 H2278 H 0.86763 1.07935 0.77884
 H2279 H 0.89823 1.12890 0.73679
 H2280 H 0.91884 1.10424 0.76444
 C2281 C 0.88367 0.61761 0.22815
 C2282 C 0.87203 0.59963 0.24245
 C2283 C 0.88176 0.58993 0.26734
 C2284 C 0.90591 0.59288 0.27592
 H2285 H 0.85360 0.59221 0.23655
 H2286 H 0.86787 0.57983 0.27896
 H2287 H 0.90137 0.62621 0.23472
 H2288 H 0.91976 0.60330 0.26455
 C2289 C 0.38475 1.11838 0.22707
 C2290 C 0.37273 1.10137 0.24219
 C2291 C 0.38256 1.09210 0.26722
 C2292 C 0.40683 1.09481 0.27558
 H2293 H 0.35397 1.09440 0.23681
 H2294 H 0.36859 1.08248 0.27915
 H2295 H 0.40285 1.12657 0.23304
 H2296 H 0.42077 1.10487 0.26399
 C2297 C 0.38434 0.61793 0.72748
 C2298 C 0.37247 0.60086 0.74265
 C2299 C 0.38251 0.59153 0.76756
 C2300 C 0.40676 0.59448 0.77588
 H2301 H 0.35365 0.59392 0.73742
 H2302 H 0.36867 0.58170 0.77947
 H2303 H 0.40250 0.62609 0.73328
 H2304 H 0.42056 0.60480 0.76436
 C2305 C 1.11789 0.88348 0.72841
 C2306 C 1.10016 0.87168 0.74288
 C2307 C 1.09051 0.88142 0.76776
 C2308 C 1.09301 0.90570 0.77603
 H2309 H 1.09293 0.85313 0.73714
 H2310 H 1.08082 0.86743 0.77962
 H2311 H 1.12636 0.90128 0.73485
 H2312 H 1.10299 0.91966 0.76438
 C2313 C 1.11877 0.38388 0.22946
 C2314 C 1.10083 0.37215 0.24374
 C2315 C 1.09087 0.38193 0.26849
 C2316 C 1.09320 0.40624 0.27672
 H2317 H 1.09366 0.35360 0.23795
 H2318 H 1.08105 0.36796 0.28025
 H2319 H 1.12721 0.40167 0.23599
 H2320 H 1.10331 0.42018 0.26515
 C2321 C 0.62010 0.88206 0.22904
 C2322 C 0.60054 0.87182 0.24239
 C2323 C 0.59092 0.88185 0.26716
 C2324 C 0.59440 0.90594 0.27568
 H2325 H 0.59157 0.85430 0.23597
 H2326 H 0.58015 0.86830 0.27856
 H2327 H 0.62975 0.89885 0.23654
 H2328 H 0.60540 0.91941 0.26436
 C2329 C 0.61764 0.38037 0.72975
 C2330 C 0.62806 0.39996 0.74294
 C2331 C 0.61833 0.40960 0.76782
 C2332 C 0.59427 0.40631 0.77644
 H2333 H 0.64550 0.40892 0.73632
 H2334 H 0.63206 0.42020 0.77918
 H2335 H 0.60098 0.37070 0.73749
 H2336 H 0.58062 0.39554 0.76509
 C2337 C 1.27234 1.11933 1.11561
 C2338 C 1.25855 1.10025 1.12616
 C2339 C 1.23353 1.09114 1.11629
 C2340 C 1.22485 1.09474 1.09222
 H2341 H 1.26486 1.09127 1.14376
 H2342 H 1.22208 1.08059 1.12998
 H2343 H 1.26500 1.12901 1.09873
 H2344 H 1.23618 1.10557 1.07862
 C2345 C 1.27059 0.61807 0.61886
 C2346 C 1.25700 0.62848 0.59948
 C2347 C 1.23200 0.61873 0.59022
 C2348 C 1.22344 0.59466 0.59363
 H2349 H 1.26343 0.64593 0.59038
 H2350 H 1.22051 0.63244 0.57969
 H2351 H 1.26307 0.60140 0.62871
 H2352 H 1.23492 0.58104 0.60436
 C2353 C 0.77027 1.11812 0.61708
 C2354 C 0.75594 1.10022 0.62880
 C2355 C 0.73128 1.09024 0.61888
 C2356 C 0.72310 1.09265 0.59451
 H2357 H 0.76163 1.09306 0.64743
 H2358 H 0.71951 1.08034 0.63280
 H2359 H 0.76387 1.12651 0.59918
 H2360 H 0.73465 1.10286 0.58062
 C2361 C 0.77067 0.61863 1.11619
 C2362 C 0.75640 0.60070 1.12796
 C2363 C 0.73157 0.59089 1.11828
 C2364 C 0.72315 0.59347 1.09402
 H2365 H 0.76228 0.59338 1.14647
 H2366 H 0.71992 0.58094 1.13226
 H2367 H 0.76407 0.62720 1.09845
 H2368 H 0.73459 0.60371 1.08007
 C2369 C 1.27075 0.88069 0.88190
 C2370 C 1.25724 0.90004 0.87139
 C2371 C 1.23227 0.90937 0.88113
 C2372 C 1.22376 0.90607 0.90525
 H2373 H 1.26366 0.90903 0.85386
 H2374 H 1.22073 0.91977 0.86734
 H2375 H 1.26321 0.87097 0.89865
 H2376 H 1.23525 0.89546 0.91895
 C2377 C 1.26951 0.38049 0.38080
 C2378 C 1.25605 0.39993 0.37039
 C2379 C 1.23123 0.40947 0.38037
 C2380 C 1.22270 0.40592 0.40447
 H2381 H 1.26243 0.40888 0.35282
 H2382 H 1.21977 0.42020 0.36677
 H2383 H 1.26208 0.37088 0.39765
 H2384 H 1.23408 0.39499 0.41800
 C2385 C 0.77100 0.88402 0.38011
 C2386 C 0.75651 0.87214 0.39780
 C2387 C 0.73170 0.88186 0.40764
 C2388 C 0.72336 0.90613 0.40523
 H2389 H 0.76221 0.85350 0.40491
 H2390 H 0.71995 0.86785 0.41743
 H2391 H 0.76461 0.90191 0.37173
 H2392 H 0.73487 0.92011 0.39511
 C2393 C 0.77024 0.38221 0.87963
 C2394 C 0.75682 0.37186 0.89910
 C2395 C 0.73202 0.38182 0.90863
 C2396 C 0.72361 0.40600 0.90543
 H2397 H 0.76317 0.35427 0.90804
 H2398 H 0.72052 0.36815 0.91914
 H2399 H 0.76277 0.39903 0.86996
 H2400 H 0.73504 0.41958 0.89469
 C2401 C 0.73049 0.88193 1.11765
 C2402 C 0.74461 0.90008 1.12925
 C2403 C 0.76938 0.90994 1.11949
 C2404 C 0.77778 0.90718 1.09526
 H2405 H 0.73868 0.90754 1.14768
 H2406 H 0.78102 0.92002 1.13341
 H2407 H 0.73714 0.87329 1.09998
 H2408 H 0.76633 0.89684 1.08138
 C2409 C 0.72812 0.38052 0.61708
 C2410 C 0.74277 0.39817 0.62878
 C2411 C 0.76748 0.40792 0.61878
 C2412 C 0.77563 0.40531 0.59444
 H2413 H 0.73729 0.40531 0.64747
 H2414 H 0.77931 0.41783 0.63265
 H2415 H 0.73427 0.37213 0.59911
 H2416 H 0.76408 0.39503 0.58060
 C2417 C 0.22869 0.88398 0.61727
 C2418 C 0.24325 0.87231 0.59951
 C2419 C 0.26803 0.88222 0.58986
 C2420 C 0.27632 0.90646 0.59268
 H2421 H 0.23766 0.85373 0.59223
 H2422 H 0.27981 0.86836 0.57986
 H2423 H 0.23494 0.90183 0.62576
 H2424 H 0.26482 0.92028 0.60303
 C2425 C 0.22991 0.38240 1.11995
 C2426 C 0.24330 0.37207 1.10043
 C2427 C 0.26814 0.38192 1.09093
 C2428 C 0.27673 0.40595 1.09445
 H2429 H 0.23683 0.35461 1.09136
 H2430 H 0.27953 0.36829 1.08020
 H2431 H 0.23747 0.39909 1.12973
 H2432 H 0.26542 0.41949 1.10540
 C2433 C 0.73029 1.11961 0.88174
 C2434 C 0.74386 1.10023 0.87140
 C2435 C 0.76867 1.09073 0.88148
 C2436 C 0.77710 1.09412 0.90566
 H2437 H 0.73758 1.09130 0.85378
 H2438 H 0.78019 1.08011 0.86788
 H2439 H 0.73764 1.12924 0.89863
 H2440 H 0.76568 1.10498 0.91917
 C2441 C 0.72824 0.61849 0.38359
 C2442 C 0.74311 0.60105 0.37180
 C2443 C 0.76796 0.59146 0.38177
 C2444 C 0.77626 0.59420 0.40606
 H2445 H 0.73766 0.59392 0.35310
 H2446 H 0.77977 0.58152 0.36789
 H2447 H 0.73432 0.62687 0.40159
 H2448 H 0.76476 0.60455 0.41990
 C2449 C 0.23029 1.11944 0.37944
 C2450 C 0.24323 1.12967 0.39933
 C2451 C 0.26811 1.11997 0.40908
 C2452 C 0.27693 1.09599 0.40558
 H2453 H 0.23637 1.14694 0.40850
 H2454 H 0.27928 1.13363 0.41998
 H2455 H 0.23827 1.10298 0.36958
 H2456 H 0.26573 1.08244 0.39455
 C2457 C 0.22908 0.61725 0.88093
 C2458 C 0.24252 0.62772 0.90034
 C2459 C 0.26756 0.61808 0.90970
 C2460 C 0.27643 0.59413 0.90606
 H2461 H 0.23591 0.64513 0.90944
 H2462 H 0.27885 0.63177 0.92042
 H2463 H 0.23674 0.60060 0.87114
 H2464 H 0.26520 0.58052 0.89514
 C2465 C 1.11768 1.27171 1.11803
 C2466 C 1.12928 1.25744 1.09997
 C2467 C 1.11938 1.23278 1.08995
 C2468 C 1.09511 1.22453 1.09256
 H2469 H 1.14781 1.26317 1.09268
 H2470 H 1.13325 1.22107 1.07988
 H2471 H 1.09987 1.26528 1.12650
 H2472 H 1.08128 1.23602 1.10293
 C2473 C 1.11826 0.77085 0.61615
 C2474 C 1.10053 0.75642 0.62801
 C2475 C 1.09075 0.73159 0.61831
 C2476 C 1.09315 0.72327 0.59400
 H2477 H 1.09337 0.76216 0.64661
 H2478 H 1.08098 0.71984 0.63234
 H2479 H 1.12667 0.76441 0.59830
 H2480 H 1.10323 0.73481 0.58001
 C2481 C 0.61574 1.26973 0.61974
 C2482 C 0.62752 1.25522 0.60199
 C2483 C 0.61778 1.23040 0.59228
 C2484 C 0.59356 1.22204 0.59495
 H2485 H 0.64607 1.26090 0.59474
 H2486 H 0.63173 1.21866 0.58235
 H2487 H 0.59794 1.26336 0.62825
 H2488 H 0.57964 1.23351 0.60522
 C2489 C 0.61990 0.77040 1.11737
 C2490 C 0.60201 0.75600 1.12904
 C2491 C 0.59206 0.73133 1.11911
 C2492 C 0.59458 0.72312 1.09477
 H2493 H 0.59479 0.76167 1.14764
 H2494 H 0.58206 0.71960 1.13299
 H2495 H 0.62833 0.76403 1.09950
 H2496 H 0.60489 0.73461 1.08093
 C2497 C 0.88005 1.27019 0.88222
 C2498 C 0.89781 1.25561 0.87055
 C2499 C 0.90764 1.23088 0.88056
 C2500 C 0.90505 1.22266 0.90490
 H2501 H 0.90500 1.26117 0.85191
 H2502 H 0.91764 1.21910 0.86670
 H2503 H 0.87163 1.26395 0.90013
 H2504 H 0.89469 1.23418 0.91872
 C2505 C 0.88311 0.77129 0.38094
 C2506 C 0.87153 0.75728 0.39920
 C2507 C 0.88121 0.73247 0.40914
 C2508 C 0.90537 0.72388 0.40632
 H2509 H 0.85318 0.76335 0.40670
 H2510 H 0.86731 0.72096 0.41935
 H2511 H 0.90071 0.76453 0.37227
 H2512 H 0.91923 0.73520 0.39585
 C2513 C 0.38041 1.27076 0.38334
 C2514 C 0.39816 1.25619 0.37163
 C2515 C 0.40825 1.23161 0.38173
 C2516 C 0.40605 1.22366 0.40618
 H2517 H 0.40510 1.26160 0.35285
 H2518 H 0.41805 1.21970 0.36785
 H2519 H 0.37220 1.26464 0.40140
 H2520 H 0.39590 1.23531 0.42004
 C2521 C 0.38351 0.77132 0.88221
 C2522 C 0.37194 0.75682 0.90007
 C2523 C 0.38190 0.73201 0.90972
 C2524 C 0.40613 0.72363 0.90680
 H2525 H 0.35341 0.76249 0.90744
 H2526 H 0.36809 0.72027 0.91980
 H2527 H 0.40133 0.76499 0.87365
 H2528 H 0.41990 0.73511 0.89638
 C2529 C 1.11598 0.72745 0.88230
 C2530 C 1.12796 0.74229 0.89962
 C2531 C 1.11813 0.76716 0.90915
 C2532 C 1.09379 0.77537 0.90669
 H2533 H 1.14673 0.73686 0.90658
 H2534 H 1.13213 0.77909 0.91874
 H2535 H 1.09791 0.73354 0.87409
 H2536 H 1.07981 0.76374 0.89672
 C2537 C 1.11633 0.22870 0.38047
 C2538 C 1.12803 0.24343 0.39807
 C2539 C 1.11786 0.26803 0.40794
 C2540 C 1.09342 0.27594 0.40562
 H2541 H 1.14685 0.23814 0.40502
 H2542 H 1.13171 0.28001 0.41768
 H2543 H 1.09822 0.23469 0.37224
 H2544 H 1.07959 0.26426 0.39549
 C2545 C 0.61443 0.72825 0.38097
 C2546 C 0.62635 0.74320 0.39822
 C2547 C 0.61648 0.76809 0.40762
 C2548 C 0.59220 0.77639 0.40489
 H2549 H 0.64512 0.73782 0.40525
 H2550 H 0.63041 0.77998 0.41737
 H2551 H 0.59638 0.73426 0.37265
 H2552 H 0.57829 0.76486 0.39470
 C2553 C 0.61917 0.22896 0.88327
 C2554 C 0.60118 0.24335 0.87168
 C2555 C 0.59140 0.26811 0.88159
 C2556 C 0.59429 0.27648 0.90584
 H2557 H 0.59381 0.23764 0.85314
 H2558 H 0.58128 0.27982 0.86773
 H2559 H 0.62774 0.23534 0.90107
 H2560 H 0.60474 0.26501 0.91965
 C2561 C 0.88232 0.72926 1.11643
 C2562 C 0.90056 0.74322 1.12812
 C2563 C 0.91051 0.76800 1.11853
 C2564 C 0.90775 0.77658 1.09435
 H2565 H 0.90804 0.73712 1.14649
 H2566 H 0.92068 0.77950 1.13250
 H2567 H 0.87364 0.73608 1.09883
 H2568 H 0.89732 0.76529 1.08041
 C2569 C 0.88117 0.22918 0.61698
 C2570 C 0.89922 0.24351 0.62847
 C2571 C 0.90892 0.26827 0.61849
 C2572 C 0.90586 0.27665 0.59426
 H2573 H 0.90674 0.23774 0.64693
 H2574 H 0.91913 0.27994 0.63228
 H2575 H 0.87249 0.23561 0.59923
 H2576 H 0.89534 0.26521 0.58052
 C2577 C 0.38354 0.72820 0.61614
 C2578 C 0.37187 0.74269 0.59829
 C2579 C 0.38174 0.76748 0.58865
 C2580 C 0.40596 0.77580 0.59157
 H2581 H 0.35333 0.73703 0.59094
 H2582 H 0.36787 0.77927 0.57863
 H2583 H 0.40139 0.73450 0.62465
 H2584 H 0.41980 0.76428 0.60192
 C2585 C 0.38550 0.22753 1.11470
 C2586 C 0.37363 0.24219 1.09712
 C2587 C 0.38327 0.26718 1.08784
 C2588 C 0.40745 0.27563 1.09077
 H2589 H 0.35506 0.23655 1.08984
 H2590 H 0.36925 0.27905 1.07814
 H2591 H 0.40334 0.23383 1.12321
 H2592 H 0.42145 0.26403 1.10083
 C2593 C 1.11821 1.12069 0.72860
 C2594 C 1.12837 1.10096 0.74186
 C2595 C 1.11832 1.09123 0.76660
 C2596 C 1.09423 1.09474 0.77514
 H2597 H 1.14583 1.09188 0.73537
 H2598 H 1.13187 1.08032 0.77793
 H2599 H 1.10151 1.13045 0.73618
 H2600 H 1.08079 1.10588 0.76385
 C2601 C 1.11846 0.61830 0.22966
 C2602 C 1.09894 0.62869 0.24297
 C2603 C 1.08925 0.61866 0.26770
 C2604 C 1.09259 0.59451 0.27613
 H2605 H 1.09009 0.64631 0.23656
 H2606 H 1.07862 0.63229 0.27919
 H2607 H 1.12797 0.60139 0.23714
 H2608 H 1.10341 0.58096 0.26470
 C2609 C 0.61888 1.12067 0.22955
 C2610 C 0.62917 1.10121 0.24307
 C2611 C 0.61903 1.09161 0.26781
 C2612 C 0.59490 1.09510 0.27623
 H2613 H 0.64678 1.09227 0.23681
 H2614 H 0.63257 1.08083 0.27929
 H2615 H 0.60198 1.13029 0.23688
 H2616 H 0.58144 1.10612 0.26486
 C2617 C 0.61441 0.61752 0.72790
 C2618 C 0.62651 0.60035 0.74286
 C2619 C 0.61697 0.59114 0.76797
 C2620 C 0.59277 0.59384 0.77644
 H2621 H 0.64517 0.59323 0.73730
 H2622 H 0.63107 0.58153 0.77983
 H2623 H 0.59649 0.62595 0.73410
 H2624 H 0.57871 0.60384 0.76488
 C2625 C 0.88131 0.88307 0.72911
 C2626 C 0.89898 0.87126 0.74371
 C2627 C 0.90864 0.88106 0.76858
 C2628 C 0.90595 0.90532 0.77690
 H2629 H 0.90621 0.85266 0.73807
 H2630 H 0.91853 0.86712 0.78038
 H2631 H 0.87287 0.90094 0.73542
 H2632 H 0.89571 0.91922 0.76536
 C2633 C 0.88010 0.38091 0.22948
 C2634 C 0.89937 0.37062 0.24327
 C2635 C 0.90851 0.38067 0.26822
 C2636 C 0.90483 0.40475 0.27671
 H2637 H 0.90847 0.35307 0.23706
 H2638 H 0.91914 0.36709 0.27980
 H2639 H 0.87029 0.39772 0.23676
 H2640 H 0.89393 0.41823 0.26525
 C2641 C 0.38288 0.88145 0.22905
 C2642 C 0.37247 0.90127 0.24195
 C2643 C 0.38198 0.91096 0.26687
 C2644 C 0.40603 0.90775 0.27558
 H2645 H 0.35514 0.91035 0.23508
 H2646 H 0.36815 0.92152 0.27817
 H2647 H 0.39937 0.87164 0.23709
 H2648 H 0.41977 0.89707 0.26424
 C2649 C 0.38271 0.38480 0.72780
 C2650 C 0.39990 0.37296 0.74292
 C2651 C 0.40931 0.38302 0.76778
 C2652 C 0.40641 0.40730 0.77599
 H2653 H 0.40694 0.35417 0.73770
 H2654 H 0.41920 0.36921 0.77973
 H2655 H 0.37448 0.40294 0.73360
 H2656 H 0.39607 0.42110 0.76441
 C2657 C 1.11849 0.88108 1.27064
 C2658 C 1.12907 0.90060 1.25745
 C2659 C 1.11962 0.91015 1.23240
 C2660 C 1.09562 0.90691 1.22358
 H2661 H 1.14646 0.90958 1.26421
 H2662 H 1.13347 0.92064 1.22109
 H2663 H 1.10191 0.87138 1.26276
 H2664 H 1.08186 0.89628 1.23491
 C2665 C 1.12000 0.38218 0.76986
 C2666 C 1.10079 0.37180 0.75610
 C2667 C 1.09158 0.38175 0.73111
 C2668 C 1.09530 0.40577 0.72248
 H2669 H 1.09175 0.35427 0.76239
 H2670 H 1.08088 0.36820 0.71963
 H2671 H 1.12973 0.39898 0.76253
 H2672 H 1.10626 0.41925 0.73382
 C2673 C 0.61829 0.88285 0.77108
 C2674 C 0.60015 0.87116 0.75700
 C2675 C 0.59027 0.88075 0.73211
 C2676 C 0.59288 0.90494 0.72360
 H2677 H 0.59272 0.85280 0.76307
 H2678 H 0.58028 0.86677 0.72048
 H2679 H 0.62692 0.90044 0.76429
 H2680 H 0.60310 0.91888 0.73507
 C2681 C 0.61899 0.38126 1.27060
 C2682 C 0.59973 0.37082 1.25695
 C2683 C 0.59047 0.38066 1.23194
 C2684 C 0.59392 0.40473 1.22337
 H2685 H 0.59071 0.35331 1.26333
 H2686 H 0.57996 0.36699 1.22042
 H2687 H 0.62873 0.39801 1.26314
 H2688 H 0.60466 0.41832 1.23481
 C2689 C 0.88368 1.11586 1.27128
 C2690 C 0.90178 1.12764 1.25724
 C2691 C 0.91175 1.11807 1.23244
 C2692 C 0.90948 1.09380 1.22411
 H2693 H 0.90901 1.14611 1.26323
 H2694 H 0.92146 1.13214 1.22069
 H2695 H 0.87521 1.09817 1.26452
 H2696 H 0.89953 1.07976 1.23570
 C2697 C 0.88454 0.61760 0.77250
 C2698 C 0.87268 0.59996 0.75795
 C2699 C 0.88238 0.59032 0.73304
 C2700 C 0.90662 0.59290 0.72463
 H2701 H 0.85410 0.59279 0.76366
 H2702 H 0.86837 0.58052 0.72127
 H2703 H 0.90239 0.62599 0.76612
 H2704 H 0.92059 0.60303 0.73615
 C2705 C 0.38324 1.11935 0.77061
 C2706 C 0.37168 1.10118 0.75648
 C2707 C 0.38158 1.09109 0.73184
 C2708 C 0.40593 1.09343 0.72373
 H2709 H 0.35317 1.09391 0.76229
 H2710 H 0.36768 1.08118 0.72005
 H2711 H 0.40096 1.12788 0.76404
 H2712 H 0.41979 1.10361 0.73535
 C2713 C 0.37928 0.61832 1.27002
 C2714 C 0.39863 0.62862 1.25643
 C2715 C 0.40831 0.61831 1.23180
 C2716 C 0.40516 0.59404 1.22368
 H2717 H 0.40738 0.64636 1.26252
 H2718 H 0.41884 0.63183 1.22014
 H2719 H 0.36983 0.60128 1.26283
 H2720 H 0.39437 0.58060 1.23523
 C2721 C 1.11848 1.27086 0.88212
 C2722 C 1.10069 1.25638 0.87040
 C2723 C 1.09104 1.23157 0.88027
 C2724 C 1.09388 1.22321 0.90453
 H2725 H 1.09333 1.26210 0.85185
 H2726 H 1.08104 1.21983 0.86638
 H2727 H 1.12698 1.26450 0.89997
 H2728 H 1.10420 1.23470 0.91838
 C2729 C 1.11731 0.77137 0.38337
 C2730 C 1.09943 0.75694 0.37173
 C2731 C 1.08965 0.73221 0.38170
 C2732 C 1.09247 0.72387 0.40598
 H2733 H 1.09213 0.76262 0.35315
 H2734 H 1.07956 0.72051 0.36784
 H2735 H 1.12577 0.76504 0.40126
 H2736 H 1.10290 0.73532 0.41979
 C2737 C 0.61596 1.27044 0.38180
 C2738 C 0.62751 1.25636 0.40007
 C2739 C 0.61786 1.23151 0.40979
 C2740 C 0.59366 1.22310 0.40697
 H2741 H 0.64582 1.26237 0.40769
 H2742 H 0.63180 1.21983 0.41983
 H2743 H 0.59846 1.26368 0.37294
 H2744 H 0.57977 1.23461 0.39668
 C2745 C 0.61877 0.77150 0.88468
 C2746 C 0.60123 0.75682 0.87284
 C2747 C 0.59153 0.73205 0.88274
 C2748 C 0.59416 0.72376 0.90705
 H2749 H 0.59415 0.76232 0.85412
 H2750 H 0.58164 0.72027 0.86881
 H2751 H 0.62710 0.76533 0.90269
 H2752 H 0.60444 0.73524 0.92095
 C2753 C 0.88247 1.26997 1.11994
 C2754 C 0.87233 1.25668 1.10026
 C2755 C 0.88235 1.23189 1.09072
 C2756 C 0.90652 1.22349 1.09405
 H2757 H 0.85486 1.26314 1.09113
 H2758 H 0.86874 1.22043 1.08007
 H2759 H 0.89913 1.26236 1.12980
 H2760 H 0.92002 1.23493 1.10491
 C2761 C 0.88099 0.77033 0.61669
 C2762 C 0.89870 0.75574 0.62846
 C2763 C 0.90826 0.73084 0.61868
 C2764 C 0.90541 0.72241 0.59445
 H2765 H 0.90604 0.76144 0.64702
 H2766 H 0.91825 0.71910 0.63262
 H2767 H 0.87245 0.76398 0.59886
 H2768 H 0.89507 0.73390 0.58056
 C2769 C 0.38178 1.27119 0.61792
 C2770 C 0.40107 1.25766 0.62856
 C2771 C 0.41038 1.23259 0.61896
 C2772 C 0.40696 1.22384 0.59492
 H2773 H 0.41005 1.26420 0.64606
 H2774 H 0.42087 1.22119 0.63279
 H2775 H 0.37209 1.26359 0.60118
 H2776 H 0.39630 1.23523 0.58118
 C2777 C 0.38281 0.77044 1.12079
 C2778 C 0.37242 0.75700 1.10133
 C2779 C 0.38212 0.73200 1.09199
 C2780 C 0.40614 0.72325 1.09546
 H2781 H 0.35500 0.76356 1.09218
 H2782 H 0.36839 0.72068 1.08134
 H2783 H 0.39944 0.76279 1.13067
 H2784 H 0.41976 0.73453 1.10632
 C2785 C 0.88511 0.72827 0.88385
 C2786 C 0.87337 0.74272 0.90165
 C2787 C 0.88309 0.76759 0.91124
 C2788 C 0.90733 0.77590 0.90853
 H2789 H 0.85485 0.73700 0.90898
 H2790 H 0.86913 0.77941 0.92105
 H2791 H 0.90287 0.73469 0.87528
 H2792 H 0.92126 0.76431 0.89841
 C2793 C 0.88363 0.22809 0.38216
 C2794 C 0.87186 0.24259 0.39991
 C2795 C 0.88161 0.26747 0.40952
 C2796 C 0.90580 0.27594 0.40667
 H2797 H 0.85333 0.23686 0.40720
 H2798 H 0.86767 0.27917 0.41950
 H2799 H 0.90145 0.23447 0.37369
 H2800 H 0.91969 0.26449 0.39635
 C2801 C 0.37816 0.73045 0.37959
 C2802 C 0.39761 0.74386 0.36920
 C2803 C 0.40725 0.76865 0.37915
 C2804 C 0.40386 0.77723 0.40326
 H2805 H 0.40655 0.73744 0.35164
 H2806 H 0.41803 0.77998 0.36554
 H2807 H 0.36851 0.73795 0.39640
 H2808 H 0.39287 0.76596 0.41678
 C2809 C 0.37975 0.23097 0.88100
 C2810 C 0.39923 0.24436 0.87068
 C2811 C 0.40868 0.26922 0.88057
 C2812 C 0.40514 0.27781 0.90464
 H2813 H 0.40832 0.23787 0.85322
 H2814 H 0.41942 0.28059 0.86695
 H2815 H 0.36995 0.23854 0.89769
 H2816 H 0.39419 0.26652 0.91817
 C2817 C 1.11958 0.72972 1.12067
 C2818 C 1.13001 0.74291 1.10107
 C2819 C 1.12027 0.76779 1.09140
 C2820 C 1.09626 0.77657 1.09485
 H2821 H 1.14743 0.73622 1.09207
 H2822 H 1.13395 0.77903 1.08062
 H2823 H 1.10292 0.73748 1.13036
 H2824 H 1.08267 0.76536 1.10581
 C2825 C 1.11954 0.23031 0.61768
 C2826 C 1.10012 0.24388 0.62793
 C2827 C 1.09081 0.26874 0.61786
 C2828 C 1.09445 0.27722 0.59374
 H2829 H 1.09106 0.23756 0.64547
 H2830 H 1.08015 0.28027 0.63142
 H2831 H 1.12928 0.23770 0.60089
 H2832 H 1.10535 0.26579 0.58026
 C2833 C 0.61641 0.72695 0.61384
 C2834 C 0.59918 0.74194 0.62577
 C2835 C 0.58985 0.76690 0.61597
 C2836 C 0.59265 0.77529 0.59172
 H2837 H 0.59211 0.73652 0.64450
 H2838 H 0.58009 0.77876 0.62993
 H2839 H 0.62475 0.73299 0.59582
 H2840 H 0.60284 0.76378 0.57778
 C2841 C 0.61831 0.22968 1.11973
 C2842 C 0.62853 0.24310 1.10020
 C2843 C 0.61840 0.26784 1.09063
 C2844 C 0.59421 0.27617 1.09392
 H2845 H 0.64613 0.23682 1.09126
 H2846 H 0.63199 0.27938 1.08006
 H2847 H 0.60145 0.23708 1.12938
 H2848 H 0.58072 0.26469 1.10473
 C2849 C 1.27071 1.11947 0.88262
 C2850 C 1.25670 1.10128 0.87092
 C2851 C 1.23199 1.09124 0.88059
 C2852 C 1.22369 1.09363 0.90489
 H2853 H 1.26266 1.09397 0.85245
 H2854 H 1.22031 1.08132 0.86658
 H2855 H 1.26398 1.12804 0.90029
 H2856 H 1.23520 1.10378 0.91886
 C2857 C 1.26934 0.61728 0.38028
 C2858 C 1.25464 0.62896 0.39792
 C2859 C 1.22996 0.61888 0.40769
 C2860 C 1.22173 0.59461 0.40486
 H2861 H 1.26004 0.64766 0.40503
 H2862 H 1.21816 0.63267 0.41776
 H2863 H 1.26331 0.59926 0.37198
 H2864 H 1.23322 0.58086 0.39438
 C2865 C 0.77124 1.11546 0.38112
 C2866 C 0.75666 1.12706 0.39893
 C2867 C 0.73188 1.11713 0.40862
 C2868 C 0.72350 1.09293 0.40566
 H2869 H 0.76228 1.14558 0.40632
 H2870 H 0.72018 1.13092 0.41879
 H2871 H 0.76497 1.09765 0.37254
 H2872 H 0.73492 1.07918 0.39512
 C2873 C 0.77209 0.61824 0.88520
 C2874 C 0.75738 0.60072 0.87338
 C2875 C 0.73246 0.59126 0.88316
 C2876 C 0.72397 0.59419 0.90737
 H2877 H 0.76300 0.59347 0.85478
 H2878 H 0.72075 0.58130 0.86923
 H2879 H 0.76585 0.62671 0.90309
 H2880 H 0.73538 0.60455 0.92125
 C2881 C 1.27266 0.88372 1.11790
 C2882 C 1.25816 0.87213 1.10005
 C2883 C 1.23343 0.88219 1.09028
 C2884 C 1.22522 0.90650 1.09303
 H2885 H 1.26374 0.85353 1.09281
 H2886 H 1.22162 0.86838 1.08029
 H2887 H 1.26642 0.90163 1.12632
 H2888 H 1.23676 0.92028 1.10338
 C2889 C 1.27316 0.38470 0.61569
 C2890 C 1.25856 0.37299 0.59800
 C2891 C 1.23366 0.38285 0.58850
 C2892 C 1.22524 0.40706 0.59146
 H2893 H 1.26419 0.35440 0.59074
 H2894 H 1.22186 0.36896 0.57862
 H2895 H 1.26690 0.40259 0.62412
 H2896 H 1.23677 0.42092 0.60171
 C2897 C 0.77069 0.88350 0.61762
 C2898 C 0.75629 0.87184 0.59971
 C2899 C 0.73142 0.88161 0.59009
 C2900 C 0.72298 0.90581 0.59296
 H2901 H 0.76209 0.85336 0.59231
 H2902 H 0.71969 0.86771 0.58011
 H2903 H 0.76421 0.90123 0.62623
 H2904 H 0.73446 0.91968 0.60326
 C2905 C 0.77117 0.38047 1.11650
 C2906 C 0.75656 0.39820 1.12814
 C2907 C 0.73179 0.40790 1.11813
 C2908 C 0.72354 0.40516 1.09381
 H2909 H 0.76210 0.40543 1.14678
 H2910 H 0.71997 0.41787 1.13197
 H2911 H 0.76496 0.37201 1.09858
 H2912 H 0.73509 0.39482 1.08000
 C2913 C 0.73104 1.12048 1.11811
 C2914 C 0.74559 1.10261 1.12970
 C2915 C 0.77031 1.09278 1.11966
 C2916 C 0.77848 1.09542 1.09531
 H2917 H 0.73999 1.09531 1.14830
 H2918 H 0.78211 1.08274 1.13350
 H2919 H 0.73731 1.12898 1.10024
 H2920 H 0.76689 1.10579 1.08153
 C2921 C 0.72688 0.61405 0.61715
 C2922 C 0.74167 0.62593 0.59975
 C2923 C 0.76672 0.61628 0.59052
 C2924 C 0.77523 0.59210 0.59340
 H2925 H 0.73604 0.64452 0.59248
 H2926 H 0.77852 0.63028 0.58077
 H2927 H 0.73316 0.59621 0.62572
 H2928 H 0.76374 0.57814 0.60355
 C2929 C 0.22937 1.11990 0.61632
 C2930 C 0.24388 1.10201 0.62792
 C2931 C 0.26859 1.09217 0.61793
 C2932 C 0.27697 1.09513 0.59370
 H2933 H 0.23826 1.09470 0.64650
 H2934 H 0.28024 1.08189 0.63172
 H2935 H 0.23563 1.12839 0.59844
 H2936 H 0.26563 1.10580 0.57995
 C2937 C 0.22943 0.61622 1.12023
 C2938 C 0.24423 0.62796 1.10271
 C2939 C 0.26888 0.61783 1.09287
 C2940 C 0.27693 0.59345 1.09536
 H2941 H 0.23891 0.64675 1.09573
 H2942 H 0.28078 0.63165 1.08300
 H2943 H 0.23540 0.59812 1.12845
 H2944 H 0.26535 0.57966 1.10563
 C2945 C 0.72946 0.88401 0.88245
 C2946 C 0.74383 0.87242 0.90048
 C2947 C 0.76861 0.88224 0.91025
 C2948 C 0.77695 0.90645 0.90742
 H2949 H 0.73807 0.85395 0.90791
 H2950 H 0.78033 0.86837 0.92035
 H2951 H 0.73591 0.90172 0.87380
 H2952 H 0.76548 0.92028 0.89701
 C2953 C 0.72750 0.38183 0.38421
 C2954 C 0.74224 0.39934 0.37246
 C2955 C 0.76706 0.40885 0.38246
 C2956 C 0.77533 0.40601 0.40676
 H2957 H 0.73678 0.40649 0.35375
 H2958 H 0.77891 0.41870 0.36858
 H2959 H 0.73360 0.37346 0.40222
 H2960 H 0.76378 0.39577 0.42060
 C2961 C 0.22823 0.88251 0.38373
 C2962 C 0.24253 0.90040 0.37196
 C2963 C 0.26724 0.91036 0.38175
 C2964 C 0.27557 0.90781 0.40603
 H2965 H 0.23679 0.90759 0.35336
 H2966 H 0.27894 0.92030 0.36779
 H2967 H 0.23466 0.87411 0.40162
 H2968 H 0.26413 0.89756 0.41996
 C2969 C 0.22823 0.38283 0.88343
 C2970 C 0.24274 0.40057 0.87171
 C2971 C 0.26748 0.41029 0.88165
 C2972 C 0.27570 0.40764 0.90598
 H2973 H 0.23716 0.40774 0.85305
 H2974 H 0.27931 0.42013 0.86774
 H2975 H 0.23450 0.37444 0.90137
 H2976 H 0.26413 0.39746 0.91987
   
