data_POSCAR
  _audit_creation_date              2014-09-24
  _audit_creation_method            'ToBaCCo'
  _symmetry_space_group_name_H-M    'P1'
  _symmetry_Int_Tables_number       1
  _symmetry_cell_setting            triclinic
  loop_
  _symmetry_equiv_pos_as_xyz
 x,y,z
_cell_length_a 38.1940
_cell_length_b 38.5376
_cell_length_c 37.7087
_cell_angle_alpha 93.409900
_cell_angle_beta 92.438800
_cell_angle_gamma 94.860100
loop_
  _atom_site_label
  _atom_site_type_symbol
  _atom_site_fract_x
  _atom_site_fract_y
  _atom_site_fract_z
C1 C 0.72350 0.68499 0.93466
 H2 H 0.74491 0.67706 0.91905
 C3 C 0.69937 0.70614 0.92028
 H4 H 0.70257 0.71481 0.89372
 C5 C 0.69207 0.68153 0.98739
 H6 H 0.68878 0.67093 1.01306
 C7 C 0.66765 0.70330 0.97426
 H8 H 0.64565 0.70941 0.99000
 N9 N 0.71894 0.67236 0.96722
 C10 C 0.81692 0.63185 1.00446
 H11 H 0.80876 0.60419 1.00239
 C12 C 0.85111 0.64337 1.01662
 H13 H 0.86903 0.62425 1.02299
 C14 C 0.80323 0.68990 0.99735
 H15 H 0.78436 0.70790 0.98993
 C16 C 0.83733 0.70261 1.00957
 H17 H 0.84442 0.73049 1.01178
 Zn18 Zn 0.74726 0.63643 0.97959
 N19 N 0.79364 0.65500 0.99521
 C20 C 0.78178 0.60279 0.92380
 N21 N 0.74978 0.60752 0.93700
 C22 C 0.71956 0.59564 0.91794
 C23 C 0.72094 0.57870 0.88415
 C24 C 0.78429 0.58556 0.89065
 C25 C 0.74496 0.61037 1.04834
 C26 C 0.73093 0.59236 1.07618
 C27 C 0.67797 0.57709 1.03973
 C28 C 0.69353 0.59477 1.01217
 N29 N 0.72652 0.61101 1.01680
 H30 H 0.80564 0.61313 0.93824
 H31 H 0.69436 0.60057 0.92823
 H32 H 0.69683 0.56977 0.86897
 H33 H 0.81001 0.58126 0.88111
 H34 H 0.77073 0.62405 1.05241
 H35 H 0.74787 0.59147 1.09967
 H36 H 0.65117 0.56619 1.03456
 H37 H 0.67875 0.59622 0.98732
 C38 C 0.86164 0.67918 1.01977
 C39 C 0.67065 0.71497 0.93986
 C40 C 0.69648 0.57547 1.07300
 C41 C 0.75371 0.57429 0.87002
 C42 C 0.71430 0.33867 0.50441
 H43 H 0.74097 0.33652 0.51436
 C44 C 0.68617 0.32393 0.52230
 H45 H 0.69155 0.30977 0.54558
 C46 C 0.67532 0.36044 0.46222
 H47 H 0.67135 0.37548 0.43931
 C48 C 0.64628 0.34627 0.47953
 H49 H 0.62004 0.35056 0.46971
 N50 N 0.70848 0.35681 0.47525
 C51 C 0.81029 0.36091 0.42770
 H52 H 0.81550 0.38874 0.42573
 C53 C 0.83557 0.33847 0.41800
 H54 H 0.86019 0.34900 0.40808
 C55 C 0.77190 0.31310 0.44314
 H56 H 0.74698 0.30326 0.45274
 C57 C 0.79652 0.28975 0.43384
 H58 H 0.79064 0.26208 0.43662
 Zn59 Zn 0.74856 0.38051 0.45758
 N60 N 0.77960 0.34805 0.44091
 C61 C 0.80146 0.40017 0.51141
 N62 N 0.77014 0.40830 0.49713
 C63 C 0.75155 0.43250 0.51381
 C64 C 0.76466 0.45003 0.54576
 C65 C 0.81512 0.41642 0.54370
 C66 C 0.72450 0.38947 0.38832
 C67 C 0.71143 0.40674 0.35974
 C68 C 0.72146 0.46102 0.39546
 C69 C 0.73521 0.44278 0.42306
 N70 N 0.73531 0.40747 0.41947
 H71 H 0.81515 0.37975 0.49879
 H72 H 0.72595 0.43746 0.50286
 H73 H 0.74946 0.46939 0.55824
 H74 H 0.83920 0.40796 0.55502
 H75 H 0.72544 0.36145 0.38592
 H76 H 0.70330 0.39151 0.33535
 H77 H 0.71996 0.48884 0.39982
 H78 H 0.74472 0.45686 0.44763
 C79 C 0.82899 0.30263 0.42195
 C80 C 0.65158 0.32856 0.51059
 C81 C 0.70842 0.44294 0.36342
 C82 C 0.79666 0.44171 0.56160
 C83 C 0.24834 -0.15687 0.02754
 H84 H 0.27448 -0.15697 0.03974
 C85 C 0.22192 -0.18221 0.03534
 H86 H 0.22857 -0.20228 0.05266
 C87 C 0.20836 -0.13039 -0.00971
 H88 H 0.20288 -0.10962 -0.02657
 C89 C 0.18092 -0.15444 -0.00168
 H90 H 0.15480 -0.15129 -0.01250
 N91 N 0.24136 -0.13204 0.00476
 C92 C 0.34352 -0.09155 -0.03068
 H93 H 0.33932 -0.06410 -0.02931
 C94 C 0.37443 -0.10261 -0.04410
 H95 H 0.39411 -0.08360 -0.05306
 C96 C 0.32225 -0.14994 -0.02232
 H97 H 0.30139 -0.16846 -0.01514
 C98 C 0.35292 -0.16213 -0.03549
 H99 H 0.35525 -0.18992 -0.03840
 Zn100 Zn 0.27678 -0.09651 -0.00422
 N101 N 0.31831 -0.11510 -0.01977
 C102 C 0.31988 -0.06037 0.05193
 N103 N 0.28629 -0.06824 0.03859
 C104 C 0.25839 -0.05921 0.05730
 C105 C 0.26370 -0.04263 0.09135
 C106 C 0.32639 -0.04308 0.08543
 C107 C 0.25442 -0.08902 -0.07351
 C108 C 0.24038 -0.07348 -0.10269
 C109 C 0.24027 -0.01993 -0.06625
 C110 C 0.25417 -0.03673 -0.03761
 N111 N 0.26017 -0.07088 -0.04160
 H112 H 0.34175 -0.06844 0.03727
 H113 H 0.23193 -0.06620 0.04633
 H114 H 0.24126 -0.03671 0.10651
 H115 H 0.35325 -0.03797 0.09605
 H116 H 0.26040 -0.11597 -0.07613
 H117 H 0.23749 -0.08931 -0.12738
 H118 H 0.23483 0.00673 -0.06096
 H119 H 0.25945 -0.02266 -0.01199
 C120 C 0.37937 -0.13824 -0.04646
 C121 C 0.18737 -0.18105 0.02108
 C122 C 0.23173 -0.03841 -0.09961
 C123 C 0.29808 -0.03464 0.10583
 C124 C 0.19313 0.16799 0.44868
 H125 H 0.20982 0.15437 0.43126
 C126 C 0.16590 0.18541 0.43396
 H127 H 0.16137 0.18420 0.40535
 C128 C 0.17896 0.18675 0.50686
 H129 H 0.18442 0.18739 0.53529
 C130 C 0.15105 0.20396 0.49332
 H131 H 0.13501 0.21773 0.51147
 N132 N 0.19843 0.16800 0.48462
 C133 C 0.27672 0.17430 0.56321
 H134 H 0.25976 0.15926 0.57990
 C135 C 0.30733 0.19270 0.57817
 H136 H 0.31344 0.19166 0.60637
 C137 C 0.28926 0.19405 0.50646
 H138 H 0.28243 0.19360 0.47828
 C139 C 0.32041 0.21251 0.52022
 H140 H 0.33728 0.22608 0.50225
 Zn141 Zn 0.23335 0.14197 0.50536
 N142 N 0.26918 0.17397 0.52763
 C143 C 0.28960 0.11399 0.47093
 N144 N 0.25392 0.11362 0.47032
 C145 C 0.23337 0.09289 0.44580
 C146 C 0.24873 0.07311 0.41930
 C147 C 0.30596 0.09439 0.44532
 C148 C 0.17973 0.11094 0.54735
 C149 C 0.16742 0.09187 0.57535
 C150 C 0.22570 0.07353 0.58536
 C151 C 0.23692 0.09307 0.55723
 N152 N 0.21425 0.11220 0.53962
 H153 H 0.30560 0.12921 0.49151
 H154 H 0.20503 0.09213 0.44649
 H155 H 0.23210 0.05706 0.39966
 H156 H 0.33441 0.09563 0.44602
 H157 H 0.16170 0.12524 0.53242
 H158 H 0.14021 0.09279 0.58196
 H159 H 0.24440 0.05917 0.59952
 H160 H 0.26415 0.09400 0.55021
 C161 C 0.33046 0.21094 0.55635
 C162 C 0.14395 0.20298 0.45644
 C163 C 0.19064 0.07330 0.59529
 C164 C 0.28552 0.07381 0.41891
 C165 C 0.17580 0.45552 0.23585
 H166 H 0.16849 0.44339 0.25992
 C167 C 0.19589 0.43824 0.21154
 H168 H 0.20425 0.41287 0.21708
 C169 C 0.17177 0.50224 0.19813
 H170 H 0.16129 0.52654 0.19237
 C171 C 0.19244 0.48619 0.17342
 H172 H 0.19769 0.49835 0.14880
 N173 N 0.16352 0.48653 0.22843
 C174 C 0.13074 0.54264 0.32328
 H175 H 0.10403 0.54629 0.31452
 C176 C 0.14328 0.55489 0.35740
 H177 H 0.12570 0.56798 0.37410
 C178 C 0.18483 0.51941 0.31171
 H179 H 0.20075 0.50523 0.29387
 C180 C 0.19854 0.53145 0.34557
 H181 H 0.22547 0.52717 0.35285
 Zn182 Zn 0.12974 0.50367 0.25863
 N183 N 0.15118 0.52451 0.30162
 C184 C 0.09442 0.45852 0.30392
 N185 N 0.09925 0.46466 0.26925
 C186 C 0.08548 0.44152 0.24254
 C187 C 0.06579 0.41085 0.25038
 C188 C 0.07465 0.42862 0.31286
 C189 C 0.12233 0.56910 0.23227
 C190 C 0.10606 0.59458 0.21445
 C191 C 0.05358 0.55482 0.20550
 C192 C 0.07083 0.53006 0.22362
 N193 N 0.10484 0.53736 0.23595
 H194 H 0.10640 0.47638 0.32492
 H195 H 0.09044 0.44657 0.21520
 H196 H 0.05500 0.39257 0.22898
 H197 H 0.07147 0.42414 0.34067
 H198 H 0.14926 0.57430 0.24257
 H199 H 0.12058 0.61935 0.21064
 H200 H 0.02691 0.54846 0.19472
 H201 H 0.05730 0.50481 0.22711
 C202 C 0.17741 0.54870 0.36947
 C203 C 0.20393 0.45338 0.17963
 C204 C 0.07145 0.58731 0.20063
 C205 C 0.06003 0.40436 0.28598
 C206 C -0.13142 0.02359 0.20096
 H207 H -0.12380 0.03843 0.22576
 C208 C -0.15423 0.03676 0.17644
 H209 H -0.16253 0.06237 0.18294
 C210 C -0.12681 -0.02665 0.16282
 H211 H -0.11597 -0.05139 0.15778
 C212 C -0.14996 -0.01462 0.13750
 H213 H -0.15704 -0.03106 0.11361
 N214 N -0.11847 -0.00764 0.19398
 C215 C -0.09791 -0.05195 0.29453
 H216 H -0.07006 -0.05485 0.29319
 C217 C -0.11616 -0.06424 0.32308
 H218 H -0.10207 -0.07662 0.34367
 C219 C -0.15019 -0.03349 0.26843
 H220 H -0.16340 -0.02184 0.24684
 C221 C -0.16961 -0.04576 0.29642
 H222 H -0.19757 -0.04295 0.29639
 Zn223 Zn -0.08816 -0.02227 0.22975
 N224 N -0.11495 -0.03657 0.26816
 C225 C -0.05097 0.02650 0.28002
 N226 N -0.05582 0.01647 0.24483
 C227 C -0.04227 0.03684 0.21958
 C228 C -0.02474 0.06958 0.22933
 C229 C -0.03306 0.05864 0.29094
 C230 C -0.08467 -0.09245 0.21140
 C231 C -0.06931 -0.12303 0.20216
 C232 C -0.01457 -0.08851 0.19491
 C233 C -0.03088 -0.05854 0.20504
 N234 N -0.06535 -0.06109 0.21295
 H235 H -0.06249 0.01055 0.29975
 H236 H -0.04700 0.02858 0.19174
 H237 H -0.01570 0.08632 0.20890
 H238 H -0.03109 0.06682 0.31898
 H239 H -0.11196 -0.09374 0.21821
 H240 H -0.08511 -0.14769 0.20220
 H241 H 0.01264 -0.08568 0.18793
 H242 H -0.01603 -0.03328 0.20664
 C243 C -0.15251 -0.06130 0.32425
 C244 C -0.16463 0.01747 0.14411
 C245 C -0.03374 -0.12149 0.19369
 C246 C -0.02068 0.08109 0.26541
 C247 C 0.34468 0.52336 0.75044
 H248 H 0.34313 0.53316 0.77777
 C249 C 0.32257 0.53466 0.72408
 H250 H 0.30349 0.55255 0.73177
 C251 C 0.37126 0.48753 0.70800
 H252 H 0.39073 0.46951 0.70197
 C253 C 0.35031 0.49902 0.68050
 H254 H 0.35431 0.48981 0.65345
 N255 N 0.36813 0.49996 0.74212
 C256 C 0.38913 0.46573 0.84779
 H257 H 0.41742 0.47116 0.85016
 C258 C 0.37115 0.45203 0.87593
 H259 H 0.38580 0.44689 0.90000
 C260 C 0.33586 0.46465 0.81294
 H261 H 0.32231 0.46869 0.78801
 C262 C 0.31689 0.45053 0.84026
 H263 H 0.28870 0.44471 0.83641
 Zn264 Zn 0.39817 0.48832 0.77956
 N265 N 0.37131 0.47212 0.81723
 C266 C 0.41709 0.54728 0.82506
 N267 N 0.42617 0.53004 0.79483
 C268 C 0.44995 0.54521 0.77337
 C269 C 0.46567 0.57899 0.78217
 C270 C 0.43135 0.58119 0.83434
 C271 C 0.40359 0.41985 0.76022
 C272 C 0.41807 0.38945 0.74885
 C273 C 0.47386 0.42308 0.74472
 C274 C 0.45846 0.45284 0.75741
 N275 N 0.42367 0.45076 0.76412
 H276 H 0.39687 0.53573 0.84093
 H277 H 0.45565 0.53176 0.74858
 H278 H 0.48450 0.59007 0.76450
 H279 H 0.42167 0.59448 0.85748
 H280 H 0.37606 0.41881 0.76604
 H281 H 0.40141 0.36522 0.74674
 H282 H 0.50114 0.42580 0.73799
 H283 H 0.47420 0.47750 0.76123
 C284 C 0.33459 0.44401 0.87222
 C285 C 0.32555 0.52311 0.68832
 C286 C 0.45348 0.39072 0.73998
 C287 C 0.45567 0.59809 0.81260
 C288 C 0.68113 0.96468 0.68617
 H289 H 0.67413 0.94965 0.70853
 C290 C 0.69949 0.94967 0.65884
 H291 H 0.70587 0.92305 0.66082
 C292 C 0.67814 1.01631 0.65567
 H293 H 0.66900 1.04188 0.65386
 C294 C 0.69746 1.00273 0.62827
 H295 H 0.70370 1.01878 0.60644
 N296 N 0.67016 0.99715 0.68386
 C297 C 0.65550 1.06009 0.77775
 H298 H 0.63781 1.07609 0.76462
 C299 C 0.66750 1.06994 0.81258
 H300 H 0.66039 1.09470 0.82365
 C301 C 0.68541 1.00893 0.77846
 H302 H 0.69130 0.98451 0.76541
 C303 C 0.69724 1.01730 0.81384
 H304 H 0.71204 0.99868 0.82695
 Zn305 Zn 0.63886 1.01205 0.71843
 N306 N 0.66383 1.02963 0.76158
 C307 C 0.60641 0.96644 0.76460
 N308 N 0.60971 0.97206 0.72958
 C309 C 0.59799 0.94704 0.70376
 C310 C 0.58484 0.91389 0.71300
 C311 C 0.59403 0.93375 0.77493
 C312 C 0.62898 1.07887 0.69625
 C313 C 0.61033 1.10680 0.68699
 C314 C 0.55670 1.06851 0.68427
 C315 C 0.57636 1.04136 0.69449
 N316 N 0.61182 1.04712 0.70067
 H317 H 0.61502 0.98679 0.78477
 H318 H 0.60101 0.95206 0.67608
 H319 H 0.57709 0.89362 0.69236
 H320 H 0.59294 0.92936 0.80299
 H321 H 0.65714 1.08290 0.70150
 H322 H 0.62433 1.13213 0.68454
 H323 H 0.52844 1.06388 0.67993
 H324 H 0.56324 1.01593 0.69812
 C325 C 0.68718 1.04762 0.83228
 C326 C 0.70775 0.96856 0.62902
 C327 C 0.57373 1.10187 0.68131
 C328 C 0.58430 0.90668 0.74903
 C329 C 0.01571 0.22910 -0.16179
 H330 H 0.02737 0.25572 -0.16122
 C331 C 0.03236 0.20237 -0.17884
 H332 H 0.05630 0.20896 -0.19225
 C333 C -0.02891 0.18836 -0.14357
 H334 H -0.05210 0.18292 -0.12870
 C335 C -0.01296 0.16079 -0.16004
 H336 H -0.02428 0.13435 -0.15769
 N337 N -0.01388 0.22160 -0.14397
 C338 C -0.05903 0.31905 -0.11871
 H339 H -0.06234 0.31539 -0.09079
 C340 C -0.07073 0.34830 -0.13368
 H341 H -0.08311 0.36713 -0.11704
 C342 C -0.03876 0.29870 -0.17411
 H343 H -0.02662 0.27901 -0.18974
 C344 C -0.04990 0.32796 -0.19023
 H345 H -0.04653 0.33051 -0.21835
 Zn346 Zn -0.02938 0.25729 -0.11374
 N347 N -0.04335 0.29503 -0.13888
 C348 C 0.02254 0.30703 -0.08161
 N349 N 0.00905 0.27322 -0.08184
 C350 C 0.02446 0.25004 -0.06174
 C351 C 0.05431 0.26080 -0.03980
 C352 C 0.05241 0.31880 -0.06037
 C353 C -0.09979 0.23355 -0.10839
 C354 C -0.13035 0.22198 -0.09204
 C355 C -0.09659 0.22384 -0.03633
 C356 C -0.06686 0.23603 -0.05373
 N357 N -0.06883 0.24011 -0.08921
 H358 H 0.01084 0.32483 -0.09869
 H359 H 0.01380 0.22305 -0.06313
 H360 H 0.06611 0.24201 -0.02388
 H361 H 0.06315 0.34556 -0.06171
 H362 H -0.10083 0.23789 -0.13648
 H363 H -0.15445 0.21880 -0.10835
 H364 H -0.09259 0.21948 -0.00852
 H365 H -0.04215 0.24192 -0.03874
 C366 C -0.06633 0.35304 -0.16988
 C367 C 0.01883 0.16748 -0.17688
 C368 C -0.12952 0.21617 -0.05528
 C369 C 0.06878 0.29563 -0.03901
 C370 C 0.45468 0.20119 0.18313
 H371 H 0.43962 0.22354 0.18433
 C372 C 0.44572 0.17380 0.20459
 H373 H 0.42334 0.17589 0.22091
 C374 C 0.50023 0.17088 0.15890
 H375 H 0.52083 0.16895 0.14039
 C376 C 0.49307 0.14354 0.18091
 H377 H 0.50939 0.12197 0.17960
 N378 N 0.48108 0.19912 0.16018
 C379 C 0.51101 0.30392 0.12730
 H380 H 0.50461 0.29879 0.09915
 C381 C 0.52388 0.33729 0.14044
 H382 H 0.52668 0.35797 0.12236
 C383 C 0.51365 0.28311 0.18523
 H384 H 0.50965 0.26176 0.20239
 C385 C 0.52683 0.31626 0.19953
 H386 H 0.53310 0.32044 0.22782
 Zn387 Zn 0.48950 0.23422 0.12676
 N388 N 0.50637 0.27766 0.14961
 C389 C 0.42578 0.26056 0.12624
 N390 N 0.44546 0.24228 0.10385
 C391 C 0.43321 0.23280 0.06993
 C392 C 0.40056 0.24251 0.05744
 C393 C 0.39250 0.26905 0.11559
 C394 C 0.55766 0.22360 0.11740
 C395 C 0.58763 0.21100 0.10361
 C396 C 0.55508 0.19608 0.04778
 C397 C 0.52527 0.20858 0.06293
 N398 N 0.52679 0.22112 0.09763
 H399 H 0.43614 0.26917 0.15266
 H400 H 0.44830 0.21792 0.05223
 H401 H 0.39253 0.23573 0.02993
 H402 H 0.37748 0.28215 0.13506
 H403 H 0.55844 0.23356 0.14487
 H404 H 0.61135 0.21145 0.12050
 H405 H 0.55325 0.18461 0.02077
 H406 H 0.50107 0.20662 0.04716
 C407 C 0.53251 0.34357 0.17682
 C408 C 0.46482 0.14411 0.20362
 C409 C 0.58629 0.19632 0.06872
 C410 C 0.37951 0.26111 0.08040
 C411 C 0.93968 0.70950 0.66930
 H412 H 0.92378 0.72556 0.65407
 C413 C 0.92312 0.68110 0.68477
 H414 H 0.89474 0.67663 0.68179
 C415 C 0.99548 0.69525 0.69076
 H416 H 1.02380 0.70049 0.69212
 C417 C 0.97984 0.66601 0.70647
 H418 H 0.99640 0.64898 0.71992
 N419 N 0.97528 0.71601 0.67211
 C420 C 1.02094 0.82062 0.65437
 H421 H 1.01332 0.81992 0.62637
 C422 C 1.03602 0.85156 0.67155
 H423 H 1.03901 0.87481 0.65687
 C424 C 1.02474 0.79133 0.70779
 H425 H 1.02016 0.76772 0.72164
 C426 C 1.04038 0.82189 0.72603
 H427 H 1.04793 0.82180 0.75403
 Zn428 Zn 0.99583 0.75156 0.64449
 N429 N 1.01585 0.79125 0.67245
 C430 C 0.93746 0.78758 0.63184
 N431 N 0.95992 0.76723 0.61515
 C432 C 0.95623 0.75878 0.57961
 C433 C 0.92862 0.77072 0.55949
 C434 C 0.90946 0.79979 0.61291
 C435 C 1.06365 0.75083 0.61754
 C436 C 1.09155 0.73577 0.60172
 C437 C 1.05243 0.68444 0.58459
 C438 C 1.02508 0.70067 0.60043
 N439 N 1.03132 0.73297 0.61721
 H440 H 0.94103 0.79379 0.66020
 H441 H 0.97458 0.74276 0.56691
 H442 H 0.92625 0.76410 0.53114
 H443 H 0.89150 0.81517 0.62710
 H444 H 1.06836 0.77627 0.63129
 H445 H 1.11743 0.74979 0.60384
 H446 H 1.04719 0.65833 0.57240
 H447 H 0.99920 0.68691 0.60071
 C448 C 1.04664 0.85221 0.70754
 C449 C 0.94313 0.65827 0.70288
 C450 C 1.08640 0.70177 0.58586
 C451 C 0.90481 0.79160 0.57616
 C452 C 0.53022 0.71116 0.35155
 H453 H 0.54741 0.73409 0.36031
 C454 C 0.54191 0.68647 0.32728
 H455 H 0.56825 0.69077 0.31805
 C456 C 0.47612 0.67704 0.35517
 H457 H 0.45070 0.67310 0.36641
 C458 C 0.48653 0.65190 0.33047
 H459 H 0.46856 0.62925 0.32263
 N460 N 0.49784 0.70617 0.36498
 C461 C 0.44133 0.79379 0.38472
 H462 H 0.42679 0.78413 0.40652
 C463 C 0.42933 0.82140 0.36689
 H464 H 0.40595 0.83226 0.37595
 C465 C 0.49128 0.79351 0.34982
 H466 H 0.51536 0.78238 0.34314
 C467 C 0.48082 0.82200 0.33198
 H468 H 0.49697 0.83177 0.31125
 Zn469 Zn 0.48542 0.74066 0.39917
 N470 N 0.47132 0.77974 0.37541
 C471 C 0.53742 0.78937 0.43299
 N472 N 0.52610 0.75487 0.42873
 C473 C 0.54623 0.73002 0.44050
 C474 C 0.58018 0.73943 0.45518
 C475 C 0.57108 0.79990 0.44773
 C476 C 0.41554 0.71633 0.40813
 C477 C 0.38563 0.70697 0.42643
 C478 C 0.42212 0.70802 0.48039
 C479 C 0.45133 0.71850 0.46114
 N480 N 0.44748 0.72268 0.42568
 H481 H 0.52117 0.80865 0.42310
 H482 H 0.53683 0.70275 0.43622
 H483 H 0.59687 0.71934 0.46239
 H484 H 0.58064 0.82721 0.44861
 H485 H 0.41304 0.72019 0.37998
 H486 H 0.36046 0.70398 0.41184
 H487 H 0.42617 0.70427 0.50840
 H488 H 0.47698 0.72359 0.47459
 C489 C 0.44894 0.83608 0.33989
 C490 C 0.51990 0.65635 0.31614
 C491 C 0.38841 0.70269 0.46319
 C492 C 0.59308 0.77468 0.45820
 C493 C 0.39786 -0.03946 0.28419
 C494 C 0.37000 -0.04397 0.25344
 C495 C 0.35401 -0.01453 0.24720
 C496 C 0.36750 0.01709 0.27228
 C497 C 0.42339 -0.00898 0.27414
 C498 C 0.40751 0.02060 0.26814
 C499 C 0.37901 -0.02447 0.31591
 C500 C 0.36289 0.00489 0.30999
 H501 H 0.36707 -0.06694 0.23528
 H502 H 0.35481 0.04100 0.26642
 H503 H 0.45125 -0.01025 0.27121
 H504 H 0.37784 -0.03702 0.34083
 C505 C 0.10031 1.05265 0.77528
 C506 C 0.11762 1.06044 0.74054
 C507 C 0.13891 1.03609 0.72917
 C508 C 0.14134 1.00592 0.75367
 C509 C 0.08140 1.01577 0.76816
 C510 C 0.10290 0.99113 0.75682
 C511 C 0.13056 1.04730 0.80189
 C512 C 0.15201 1.02280 0.79096
 H513 H 0.11152 1.08208 0.72496
 H514 H 0.15946 0.98675 0.74426
 H515 H 0.05381 1.00969 0.77216
 H516 H 0.13122 1.05803 0.82908
 C517 C 0.58594 0.54755 0.23703
 C518 C 0.60537 0.55492 0.20318
 C519 C 0.62643 0.52990 0.19307
 C520 C 0.62581 0.49911 0.21709
 C521 C 0.56582 0.51145 0.22815
 C522 C 0.58671 0.48593 0.21792
 C523 C 0.61477 0.54103 0.26485
 C524 C 0.63503 0.51510 0.25490
 H525 H 0.60222 0.57737 0.18778
 H526 H 0.64356 0.47912 0.20876
 H527 H 0.53759 0.50684 0.22944
 H528 H 0.61544 0.55221 0.29195
 C529 C 0.86984 0.46723 0.76354
 C530 C 0.85783 0.45567 0.72508
 C531 C 0.84098 0.47991 0.70786
 C532 C 0.83733 0.51360 0.73059
 C533 C 0.89238 0.50192 0.76079
 C534 C 0.87553 0.52622 0.74322
 C535 C 0.83675 0.47825 0.78130
 C536 C 0.81950 0.50214 0.76418
 H537 H 0.86384 0.43119 0.71208
 H538 H 0.82296 0.53294 0.71652
 H539 H 0.91950 0.50613 0.77070
 H540 H 0.83045 0.47195 0.80796
 C541 C 0.25917 0.38193 -0.01234
 C542 C 0.22083 0.36710 -0.01970
 C543 C 0.20775 0.34808 0.00671
 C544 C 0.23371 0.34592 0.03846
 C545 C 0.25832 0.40307 0.02355
 C546 C 0.24505 0.38431 0.05034
 C547 C 0.27932 0.35045 -0.00402
 C548 C 0.26628 0.33187 0.02257
 H549 H 0.20485 0.37256 -0.04278
 H550 H 0.22306 0.32976 0.05953
 H551 H 0.26437 0.43090 0.02656
 H552 H 0.30423 0.34578 -0.01537
 C553 C 0.75195 0.08234 1.03978
 C554 C 0.71829 0.09797 1.05115
 C555 C 0.70461 0.11957 1.02789
 C556 C 0.72585 0.12255 0.99417
 C557 C 0.74137 0.06362 1.00332
 C558 C 0.72754 0.08455 0.97943
 C559 C 0.77700 0.11365 1.03180
 C560 C 0.76369 0.13458 1.00778
 H561 H 0.70675 0.09267 1.07611
 H562 H 0.71559 0.13978 0.97449
 H563 H 0.74273 0.03593 0.99760
 H564 H 0.80399 0.11727 1.04233
 C565 C 0.25644 0.59182 0.57373
 C566 C 0.22525 0.61165 0.58495
 C567 C 0.21344 0.63298 0.56055
 C568 C 0.23434 0.63278 0.52662
 C569 C 0.24328 0.57254 0.53798
 C570 C 0.23176 0.59409 0.51327
 C571 C 0.28443 0.61984 0.56367
 C572 C 0.27318 0.64107 0.53891
 H573 H 0.21259 0.60781 0.60976
 H574 H 0.22538 0.65061 0.50675
 H575 H 0.24170 0.54456 0.53298
 H576 H 0.31194 0.61985 0.57199
 C577 C 0.77678 0.88111 0.44549
 C578 C 0.74308 0.85620 0.44024
 C579 C 0.73233 0.84212 0.47077
 C580 C 0.75627 0.85418 0.50389
 C581 C 0.76835 0.90816 0.47479
 C582 C 0.75795 0.89422 0.50544
 C583 C 0.80334 0.85904 0.46314
 C584 C 0.79300 0.84551 0.49362
 H585 H 0.72840 0.85049 0.41519
 H586 H 0.74766 0.84227 0.52852
 H587 H 0.77052 0.93594 0.47149
 H588 H 0.82941 0.85631 0.45361
 C589 C -0.04676 0.24574 0.37654
 C590 C -0.04516 0.21571 0.34838
 C591 C -0.01386 0.21577 0.33248
 C592 C 0.01337 0.24563 0.34639
 C593 C -0.01535 0.24191 0.40245
 C594 C 0.01631 0.24190 0.38691
 C595 C -0.03658 0.27865 0.35757
 C596 C -0.00505 0.27932 0.34212
 H597 H -0.06537 0.19420 0.34433
 H598 H 0.03838 0.24457 0.33295
 H599 H -0.01820 0.23857 0.43044
 H600 H -0.05360 0.29969 0.35646
 C601 C 1.06545 0.74499 0.07849
 C602 C 1.07051 0.71205 0.09825
 C603 C 1.04333 0.70191 0.11839
 C604 C 1.01316 0.72571 0.11714
 C605 C 1.03019 0.73606 0.05693
 C606 C 1.00276 0.72602 0.07727
 C607 C 1.05720 0.77260 0.10711
 C608 C 1.02992 0.76275 0.12726
 H609 H 1.09328 0.69732 0.09546
 H610 H 0.99127 0.71769 0.13413
 H611 H 1.02730 0.73578 0.02830
 H612 H 1.06932 0.79912 0.10840
 C613 C 0.53714 0.27495 0.59594
 C614 C 0.54660 0.24022 0.60974
 C615 C 0.52283 0.22595 0.63160
 C616 C 0.49161 0.24761 0.63807
 C617 C 0.49979 0.26717 0.57861
 C618 C 0.47593 0.25278 0.60069
 C619 C 0.53170 0.29819 0.62939
 C620 C 0.50801 0.28403 0.65143
 H621 H 0.57029 0.22818 0.60308
 H622 H 0.47267 0.23599 0.65652
 H623 H 0.49261 0.27346 0.55188
 H624 H 0.54308 0.32493 0.63344
 C625 C 0.49245 0.80150 0.87964
 C626 C 0.47518 0.76577 0.86606
 C627 C 0.49622 0.74612 0.84655
 C628 C 0.53280 0.76445 0.84159
 C629 C 0.52646 0.79355 0.89977
 C630 C 0.54787 0.77400 0.88001
 C631 C 0.50555 0.81887 0.84666
 C632 C 0.52593 0.79943 0.82643
 H633 H 0.44922 0.75597 0.87339
 H634 H 0.54948 0.74911 0.82450
 H635 H 0.53233 0.80229 0.92728
 H636 H 0.50299 0.84609 0.84228
 C637 C 0.40183 -0.12949 0.31805
 C638 C 0.43743 -0.13521 0.32237
 C639 C 0.46123 -0.10918 0.30906
 C640 C 0.44924 -0.07852 0.29522
 C641 C 0.41285 -0.07337 0.29286
 C642 C 0.39046 -0.10104 0.30300
 C643 C 0.35261 -0.11149 0.30739
 C644 C 0.36507 -0.14403 0.32398
 H645 H 0.48934 -0.11087 0.31157
 H646 H 0.46888 -0.05889 0.28774
 H647 H 0.33774 -0.11725 0.28144
 H648 H 0.34057 -0.09366 0.32667
 H649 H 0.35749 -0.16864 0.30754
 H650 H 0.35904 -0.14471 0.35249
 C651 C 0.88769 0.39452 0.82511
 C652 C 0.91959 0.38347 0.81415
 C653 C 0.93733 0.40261 0.78856
 C654 C 0.92176 0.43031 0.77283
 C655 C 0.88819 0.43949 0.78238
 C656 C 0.87226 0.42144 0.80957
 C657 C 0.83636 0.40250 0.81005
 C658 C 0.85346 0.37330 0.82736
 H659 H 0.96271 0.39571 0.78013
 H660 H 0.93539 0.44376 0.75235
 H661 H 0.82471 0.39485 0.78288
 H662 H 0.81879 0.41586 0.82812
 H663 H 0.85169 0.34857 0.81035
 H664 H 0.84622 0.37044 0.85534
 C665 C 0.02276 1.10512 0.80056
 C666 C 0.03935 1.13819 0.81111
 C667 C 0.07645 1.14170 0.81297
 C668 C 0.09566 1.11406 0.80132
 C669 C 0.07855 1.08159 0.78837
 C670 C 0.04177 1.07749 0.78945
 C671 C 0.01483 1.06558 0.76037
 C672 C -0.00585 1.09563 0.77269
 H673 H 0.09089 1.16589 0.82306
 H674 H 0.12408 1.11825 0.80197
 H675 H 0.00112 1.03969 0.76470
 H676 H 0.02513 1.06821 0.73342
 H677 H -0.03114 1.08694 0.78431
 H678 H -0.00764 1.11576 0.75290
 C679 C 0.51931 0.59425 0.29062
 C680 C 0.53186 0.62948 0.29038
 C681 C 0.55744 0.63797 0.26558
 C682 C 0.57347 0.61165 0.24637
 C683 C 0.56347 0.57594 0.25027
 C684 C 0.53476 0.56831 0.27135
 C685 C 0.52997 0.54335 0.29994
 C686 C 0.51314 0.57180 0.32108
 H687 H 0.56680 0.66485 0.26246
 H688 H 0.59540 0.61957 0.23063
 H689 H 0.55525 0.53679 0.31242
 H690 H 0.51111 0.52053 0.29138
 H691 H 0.52881 0.58188 0.34563
 H692 H 0.48468 0.56521 0.32470
 C693 C 0.58076 0.39209 0.18091
 C694 C 0.54783 0.37832 0.19091
 C695 C 0.53006 0.39878 0.21529
 C696 C 0.54283 0.43370 0.22492
 C697 C 0.57386 0.44864 0.21061
 C698 C 0.59354 0.42608 0.19083
 C699 C 0.61153 0.43023 0.15676
 C700 C 0.59761 0.39278 0.14590
 H701 H 0.50535 0.38849 0.22524
 H702 H 0.52782 0.44906 0.24267
 H703 H 0.64064 0.43355 0.16073
 H704 H 0.59992 0.44968 0.14024
 H705 H 0.61872 0.37469 0.14399
 H706 H 0.57860 0.39106 0.12267
 C707 C 0.09687 0.89871 0.71579
 C708 C 0.06398 0.88455 0.72553
 C709 C 0.04712 0.90342 0.75194
 C710 C 0.06044 0.93769 0.76368
 C711 C 0.09104 0.95358 0.74933
 C712 C 0.11018 0.93207 0.72767
 C713 C 0.12777 0.93811 0.69367
 C714 C 0.11337 0.90132 0.68073
 H715 H 0.02237 0.89278 0.76150
 H716 H 0.04580 0.95203 0.78265
 H717 H 0.15692 0.94096 0.69726
 H718 H 0.11621 0.95871 0.67868
 H719 H 0.13425 0.88314 0.67736
 H720 H 0.09423 0.90110 0.65775
 C721 C 0.89450 0.61023 0.69820
 C722 C 0.92522 0.62601 0.71602
 C723 C 0.93736 0.61034 0.74662
 C724 C 0.92096 0.57822 0.75636
 C725 C 0.89219 0.56102 0.73559
 C726 C 0.87851 0.57879 0.70766
 C727 C 0.86966 0.56643 0.66977
 C728 C 0.88711 0.60100 0.65943
 H729 H 0.95987 0.62237 0.76256
 H730 H 0.93134 0.56666 0.77959
 H731 H 0.84082 0.56347 0.66347
 H732 H 0.88391 0.54363 0.66115
 H733 H 0.86826 0.61790 0.64740
 H734 H 0.91147 0.59830 0.64474
 C735 C 0.46651 0.08055 0.21673
 C736 C 0.45493 0.11360 0.22509
 C737 C 0.43277 0.11608 0.25421
 C738 C 0.41845 0.08588 0.26955
 C739 C 0.42687 0.05261 0.25709
 C740 C 0.45325 0.05101 0.23266
 C741 C 0.45458 0.02818 0.19950
 C742 C 0.46865 0.06053 0.18175
 H743 H 0.42491 0.14092 0.26428
 H744 H 0.39966 0.08848 0.29006
 H745 H 0.42819 0.01726 0.18866
 H746 H 0.47424 0.00871 0.20221
 H747 H 0.45016 0.06872 0.16089
 H748 H 0.49620 0.05916 0.17376
 C749 C 0.32492 0.43765 -0.06321
 C750 C 0.31544 0.42785 -0.09881
 C751 C 0.28805 0.40120 -0.10587
 C752 C 0.26895 0.38751 -0.07803
 C753 C 0.27581 0.40090 -0.04242
 C754 C 0.30571 0.42466 -0.03569
 C755 C 0.30989 0.45965 -0.01563
 C756 C 0.33144 0.47325 -0.04550
 H757 H 0.28133 0.39090 -0.13287
 H758 H 0.24887 0.36630 -0.08452
 H759 H 0.32558 0.45920 0.00984
 H760 H 0.28464 0.47186 -0.01349
 H761 H 0.35968 0.47986 -0.03753
 H762 H 0.31879 0.49330 -0.06038
 C763 C 0.84421 0.92582 0.38802
 C764 C 0.82793 0.92470 0.35413
 C765 C 0.79389 0.90717 0.34931
 C766 C 0.77634 0.89350 0.37839
 C767 C 0.79232 0.89738 0.41316
 C768 C 0.82680 0.91330 0.41648
 C769 C 0.84389 0.94169 0.44168
 C770 C 0.86314 0.95551 0.41021
 H771 H 0.78081 0.90394 0.32314
 H772 H 0.75028 0.88062 0.37323
 H773 H 0.86162 0.93153 0.46200
 H774 H 0.82511 0.95975 0.45225
 H775 H 0.89197 0.95329 0.41243
 H776 H 0.85530 0.98129 0.40258
 C777 C 0.80694 0.01649 1.08367
 C778 C 0.81085 0.02974 1.11941
 C779 C 0.78885 0.05615 1.12937
 C780 C 0.76864 0.07178 1.10394
 C781 C 0.76797 0.06067 1.06757
 C782 C 0.78628 0.03165 1.05853
 C783 C 0.81172 0.02672 1.03012
 C784 C 0.83438 0.01027 1.05738
 H785 H 0.78756 0.06595 1.15666
 H786 H 0.75518 0.09407 1.11284
 H787 H 0.82399 0.05183 1.02145
 H788 H 0.80067 0.00786 1.00821
 H789 H 0.85983 0.02582 1.06456
 H790 H 0.83643 -0.01797 1.05085
 C791 C 0.29000 0.56960 0.66537
 C792 C 0.30374 0.53730 0.65978
 C793 C 0.29608 0.51959 0.62600
 C794 C 0.27953 0.53604 0.59807
 C795 C 0.26980 0.57053 0.60334
 C796 C 0.27399 0.58567 0.63812
 C797 C 0.28819 0.62127 0.65244
 C798 C 0.30607 0.60360 0.68239
 H799 H 0.30400 0.49361 0.62048
 H800 H 0.27647 0.52225 0.57221
 H801 H 0.26704 0.63731 0.66156
 H802 H 0.30723 0.63439 0.63504
 H803 H 0.29532 0.60987 0.70871
 H804 H 0.33526 0.60612 0.68189
 C805 C 0.18258 0.59128 0.42378
 C806 C 0.19131 0.56014 0.40633
 C807 C 0.21636 0.54143 0.42412
 C808 C 0.22979 0.55226 0.45875
 C809 C 0.21864 0.58219 0.47668
 C810 C 0.19635 0.60213 0.45770
 C811 C 0.16333 0.61663 0.46878
 C812 C 0.14770 0.60416 0.43216
 H813 H 0.22476 0.51758 0.41196
 H814 H 0.24856 0.53690 0.47148
 H815 H 0.16646 0.64553 0.47305
 H816 H 0.15102 0.60264 0.49068
 H817 H 0.14108 0.62588 0.41567
 H818 H 0.12644 0.58275 0.43339
 C819 C 0.71839 0.03558 0.88879
 C820 C 0.69466 0.05434 0.86954
 C821 C 0.67671 0.07868 0.89020
 C822 C 0.68622 0.08720 0.92629
 C823 C 0.71373 0.07160 0.94335
 C824 C 0.72742 0.04382 0.92458
 C825 C 0.76444 0.03521 0.92092
 C826 C 0.75499 0.02678 0.88161
 H827 H 0.65523 0.09169 0.87913
 H828 H 0.67247 0.10674 0.94046
 H829 H 0.77017 0.01187 0.93539
 H830 H 0.78404 0.05806 0.92621
 H831 H 0.75622 -0.00131 0.87364
 H832 H 0.76859 0.04525 0.86407
 C833 C 0.72371 0.96543 0.56447
 C834 C 0.72591 0.95257 0.59852
 C835 C 0.74543 0.92324 0.60209
 C836 C 0.75687 0.90480 0.57197
 C837 C 0.75020 0.91577 0.53752
 C838 C 0.73592 0.94780 0.53493
 C839 C 0.70668 0.95754 0.51106
 C840 C 0.69301 0.97654 0.54341
 H841 H 0.75072 0.91336 0.62782
 H842 H 0.76974 0.88128 0.57577
 H843 H 0.68890 0.93469 0.50033
 H844 H 0.71631 0.97542 0.49083
 H845 H 0.66743 0.96445 0.55174
 H846 H 0.69441 1.00528 0.54140
 C847 C 0.20862 0.39894 0.14154
 C848 C 0.22098 0.43347 0.15150
 C849 C 0.24731 0.44932 0.13128
 C850 C 0.25713 0.43246 0.09948
 C851 C 0.24004 0.39980 0.08670
 C852 C 0.21769 0.38259 0.10986
 C853 C 0.18140 0.36484 0.10326
 C854 C 0.17174 0.38259 0.13805
 H855 H 0.25878 0.47551 0.13891
 H856 H 0.27664 0.44606 0.08419
 H857 H 0.18081 0.33603 0.10423
 H858 H 0.16743 0.37406 0.07963
 H859 H 0.16612 0.36408 0.15901
 H860 H 0.15210 0.40199 0.13457
 C861 C -0.11461 0.27794 0.43815
 C862 C -0.14363 0.27895 0.41453
 C863 C -0.14395 0.25937 0.38185
 C864 C -0.11341 0.24433 0.37107
 C865 C -0.08210 0.24827 0.39301
 C866 C -0.08458 0.26310 0.42769
 C867 C -0.06121 0.29033 0.44935
 C868 C -0.09423 0.30625 0.46097
 H869 H -0.16640 0.25876 0.36320
 H870 H -0.11325 0.23313 0.34408
 H871 H -0.04472 0.30747 0.43275
 H872 H -0.04670 0.27923 0.47157
 H873 H -0.09646 0.33269 0.45136
 H874 H -0.09883 0.30389 0.48967
 C875 C 0.43625 0.83314 0.95461
 C876 C 0.41051 0.84987 0.93635
 C877 C 0.41575 0.85638 0.90060
 C878 C 0.44329 0.84227 0.88268
 C879 C 0.46740 0.82249 0.90045
 C880 C 0.46399 0.81990 0.93713
 C881 C 0.46378 0.78905 0.95928
 C882 C 0.43334 0.80350 0.97840
 H883 H 0.39705 0.87028 0.88582
 H884 H 0.44409 0.84507 0.85435
 H885 H 0.48812 0.78946 0.97659
 H886 H 0.45626 0.76399 0.94358
 H887 H 0.44023 0.81216 1.00666
 H888 H 0.40842 0.78649 0.97377
 C889 C 1.16043 0.77634 0.06269
 C890 C 1.15816 0.79368 0.03118
 C891 C 1.12611 0.78719 0.01057
 C892 C 1.09626 0.76946 0.02433
 C893 C 1.09783 0.75697 0.05881
 C894 C 1.13128 0.75884 0.07608
 C895 C 1.14373 0.76846 0.11375
 C896 C 1.17562 0.78802 0.09906
 H897 H 1.12316 0.79743 -0.01536
 H898 H 1.07176 0.76809 0.00875
 H899 H 1.15033 0.74532 0.12810
 H900 H 1.12688 0.78608 0.12819
 H901 H 1.20051 0.77623 0.10546
 H902 H 1.17662 0.81679 0.10440
 C903 C 0.58818 0.30655 0.51649
 C904 C 0.62153 0.31737 0.53217
 C905 C 0.62532 0.31831 0.56957
 C906 C 0.59787 0.30497 0.58975
 C907 C 0.56531 0.29121 0.57339
 C908 C 0.56072 0.29372 0.53654
 C909 C 0.54860 0.26606 0.50813
 C910 C 0.57846 0.28027 0.48632
 H911 H 0.64983 0.32839 0.58336
 H912 H 0.60250 0.30450 0.61825
 H913 H 0.52226 0.26997 0.49611
 H914 H 0.55166 0.23929 0.51661
 H915 H 0.56923 0.29255 0.46209
 H916 H 0.59889 0.26174 0.48202
 C917 C 0.38296 0.21044 0.59860
 C918 C 0.36574 0.22589 0.57085
 C919 C 0.38423 0.25463 0.55634
 C920 C 0.41996 0.26407 0.56628
 C921 C 0.43796 0.24506 0.59106
 C922 C 0.41797 0.21985 0.60848
 C923 C 0.42496 0.18320 0.61502
 C924 C 0.38657 0.17283 0.60419
 H925 H 0.37166 0.26901 0.53634
 H926 H 0.43355 0.28561 0.55389
 H927 H 0.43145 0.17978 0.64354
 H928 H 0.44347 0.17254 0.59612
 H929 H 0.37099 0.16347 0.62651
 H930 H 0.38281 0.15606 0.57904
 C931 C 0.91028 0.68203 0.06736
 C932 C 0.89724 0.69228 0.03463
 C933 C 0.91806 0.71817 0.01813
 C934 C 0.95235 0.72967 0.03189
 C935 C 0.96628 0.71612 0.06297
 C936 C 0.94347 0.69411 0.08133
 C937 C 0.94908 0.66075 0.09789
 C938 C 0.91287 0.64710 0.08220
 H939 H 0.90847 0.72837 -0.00625
 H940 H 0.96801 0.74862 0.01784
 H941 H 0.95022 0.66376 0.12743
 H942 H 0.97088 0.64726 0.08615
 H943 H 0.89338 0.64186 0.10271
 H944 H 0.91450 0.62555 0.06163
 C945 C 0.62900 0.72376 0.88892
 C946 C 0.64280 0.73403 0.92323
 C947 C 0.62823 0.76193 0.94141
 C948 C 0.59846 0.77632 0.92680
 C949 C 0.58191 0.76250 0.89401
 C950 C 0.59930 0.73738 0.87477
 C951 C 0.58564 0.70259 0.85747
 C952 C 0.61824 0.68797 0.87291
 H953 H 0.63901 0.77174 0.96747
 H954 H 0.58793 0.79726 0.94214
 H955 H 0.58508 0.70221 0.82795
 H956 H 0.56088 0.69186 0.86874
 H957 H 0.63638 0.67972 0.85236
 H958 H 0.61243 0.66878 0.89323
 C959 C 0.08048 0.21446 0.45748
 C960 C 0.11290 0.21888 0.44172
 C961 C 0.11416 0.23726 0.41050
 C962 C 0.08301 0.24678 0.39363
 C963 C 0.04980 0.23745 0.40718
 C964 C 0.04977 0.22329 0.44061
 C965 C 0.02891 0.19203 0.45288
 C966 C 0.06254 0.18254 0.47143
 H967 H 0.13897 0.24290 0.39826
 H968 H 0.08515 0.26008 0.36931
 H969 H 0.01901 0.17313 0.43053
 H970 H 0.00880 0.19928 0.47180
 H971 H 0.07218 0.15806 0.45993
 H972 H 0.06182 0.18456 0.50091
 C973 C 0.53048 0.13056 0.64330
 C974 C 0.55362 0.13180 0.67324
 C975 C 0.55952 0.16373 0.69384
 C976 C 0.54661 0.19430 0.68170
 C977 C 0.52788 0.19341 0.64871
 C978 C 0.51815 0.16083 0.63109
 C979 C 0.52114 0.14874 0.59307
 C980 C 0.53454 0.11559 0.60642
 H981 H 0.57621 0.16554 0.71794
 H982 H 0.55388 0.21900 0.69650
 H983 H 0.54131 0.16494 0.57947
 H984 H 0.49511 0.14409 0.57851
 H985 H 0.56245 0.11259 0.60054
 H986 H 0.51610 0.09201 0.59969
 C987 C 1.03867 0.64030 0.19232
 C988 C 1.05559 0.61218 0.17804
 C989 C 1.06073 0.61040 0.14129
 C990 C 1.05411 0.63875 0.12091
 C991 C 1.04208 0.66926 0.13699
 C992 C 1.03168 0.66813 0.17205
 C993 C 1.03974 0.69407 0.20290
 C994 C 1.04743 0.66362 0.22507
 H995 H 1.07275 0.58851 0.12904
 H996 H 1.06086 0.63784 0.09329
 H997 H 1.01606 0.70689 0.21095
 H998 H 1.06336 0.71223 0.19923
 H999 H 1.02817 0.65895 0.24591
 H1000 H 1.07552 0.66416 0.23430
 C1001 C 0.96236 0.81624 0.16826
 C1002 C 0.98274 0.84587 0.18338
 C1003 C 1.01941 0.84337 0.18748
 C1004 C 1.03494 0.81478 0.17156
 C1005 C 1.01413 0.78781 0.15170
 C1006 C 0.97762 0.78791 0.15296
 C1007 C 0.94983 0.78236 0.12362
 C1008 C 0.93312 0.81331 0.14036
 H1009 H 1.03643 0.86422 0.20120
 H1010 H 1.06334 0.81492 0.17285
 H1011 H 0.93344 0.75729 0.12503
 H1012 H 0.96021 0.78725 0.09710
 H1013 H 0.90717 0.80590 0.15131
 H1014 H 0.93385 0.83612 0.12359
 C1015 C 0.44585 0.33159 0.70685
 C1016 C 0.46806 0.35871 0.72451
 C1017 C 0.50457 0.35486 0.72500
 C1018 C 0.51791 0.32835 0.70342
 C1019 C 0.49501 0.30474 0.68152
 C1020 C 0.45897 0.30517 0.68609
 C1021 C 0.42930 0.30438 0.65888
 C1022 C 0.41490 0.33320 0.68154
 H1023 H 0.52311 0.37345 0.74008
 H1024 H 0.54612 0.32793 0.70191
 H1025 H 0.41230 0.27944 0.65780
 H1026 H 0.43798 0.31293 0.63276
 H1027 H 0.38964 0.32467 0.69330
 H1028 H 0.41524 0.35839 0.66856
 C1029 C 0.46038 0.65282 0.85310
 C1030 C 0.46757 0.63600 0.82049
 C1031 C 0.48235 0.65756 0.79471
 C1032 C 0.49194 0.69348 0.80287
 C1033 C 0.48605 0.70896 0.83655
 C1034 C 0.46892 0.68819 0.86067
 C1035 C 0.47938 0.68350 0.89850
 C1036 C 0.47053 0.64465 0.89027
 H1037 H 0.48675 0.64714 0.76822
 H1038 H 0.50392 0.70908 0.78292
 H1039 H 0.46127 0.69527 0.91715
 H1040 H 0.50782 0.69084 0.90494
 H1041 H 0.44771 0.63410 0.90487
 H1042 H 0.49391 0.62933 0.89155
 C1043 C -0.02091 0.14535 0.25889
 C1044 C -0.00784 0.11768 0.27633
 C1045 C 0.01274 0.12618 0.30818
 C1046 C 0.01435 0.16008 0.32479
 C1047 C -0.00490 0.18570 0.30996
 C1048 C -0.01983 0.17854 0.27553
 C1049 C -0.05499 0.18494 0.25967
 C1050 C -0.05631 0.14851 0.24152
 H1051 H 0.02457 0.10593 0.32198
 H1052 H 0.02715 0.16499 0.35102
 H1053 H -0.05311 0.20593 0.24070
 H1054 H -0.07528 0.18749 0.27969
 H1055 H -0.05537 0.14858 0.21210
 H1056 H -0.07712 0.13000 0.25130
 C1057 C 0.04330 0.33953 0.28000
 C1058 C 0.03882 0.37268 0.29557
 C1059 C 0.01550 0.37465 0.32334
 C1060 C 0.00116 0.34431 0.33794
 C1061 C 0.00949 0.31090 0.32512
 C1062 C 0.02941 0.30931 0.29471
 C1063 C 0.06151 0.29105 0.28684
 C1064 C 0.07616 0.32387 0.27026
 H1065 H 0.00998 0.39974 0.33528
 H1066 H -0.01470 0.34741 0.36082
 H1067 H 0.05571 0.26839 0.26722
 H1068 H 0.07712 0.28580 0.31116
 H1069 H 0.07816 0.32033 0.24097
 H1070 H 0.09997 0.33708 0.28492
 C1071 C 0.54331 0.85203 0.74801
 C1072 C 0.57478 0.87108 0.76012
 C1073 C 0.59505 0.85702 0.78707
 C1074 C 0.58071 0.82902 0.80574
 C1075 C 0.54580 0.81509 0.79799
 C1076 C 0.52886 0.82488 0.76685
 C1077 C 0.49219 0.83408 0.75903
 C1078 C 0.50813 0.86395 0.73861
 H1079 H 0.62041 0.86994 0.79617
 H1080 H 0.59507 0.82163 0.82912
 H1081 H 0.47872 0.84317 0.78293
 H1082 H 0.47667 0.81355 0.74160
 H1083 H 0.50446 0.89016 0.75115
 H1084 H 0.50158 0.86064 0.70954
 C1085 C 0.69831 0.56233 0.13566
 C1086 C 0.68204 0.55885 0.10096
 C1087 C 0.64974 0.53713 0.09741
 C1088 C 0.63281 0.52489 0.12736
 C1089 C 0.64783 0.53294 0.16176
 C1090 C 0.68162 0.54971 0.16499
 C1091 C 0.69576 0.57983 0.18940
 C1092 C 0.71386 0.59418 0.15772
 H1093 H 0.63628 0.53003 0.07196
 H1094 H 0.60681 0.51125 0.12377
 H1095 H 0.71438 0.57200 0.21032
 H1096 H 0.67498 0.59599 0.19922
 H1097 H 0.74299 0.59520 0.16112
 H1098 H 0.70351 0.61861 0.14909
 C1099 C 0.20172 1.05259 0.65676
 C1100 C 0.17879 1.05511 0.62705
 C1101 C 0.14333 1.04215 0.62990
 C1102 C 0.13068 1.03320 0.66299
 C1103 C 0.15334 1.03617 0.69364
 C1104 C 0.18929 1.04316 0.68927
 C1105 C 0.21543 1.06843 0.70980
 C1106 C 0.22905 1.07885 0.67430
 H1107 H 0.12477 1.04125 0.60731
 H1108 H 0.10276 1.02644 0.66512
 H1109 H 0.23464 1.05505 0.72588
 H1110 H 0.20291 1.08960 0.72452
 H1111 H 0.25616 1.07156 0.67004
 H1112 H 0.22444 1.10608 0.66839
 C1113 C 0.21128 1.01238 0.87203
 C1114 C 0.21500 0.97634 0.87283
 C1115 C 0.19834 0.95604 0.84267
 C1116 C 0.17924 0.97125 0.81544
 C1117 C 0.17596 1.00747 0.81648
 C1118 C 0.19337 1.02684 0.84526
 C1119 C 0.20133 1.06330 0.86024
 C1120 C 0.22159 1.04757 0.89046
 H1121 H 0.19746 0.92796 0.84033
 H1122 H 0.16569 0.95412 0.79452
 H1123 H 0.17769 1.07556 0.86924
 H1124 H 0.21849 1.07913 0.84309
 H1125 H 0.20914 1.05142 0.91635
 H1126 H 0.25044 1.05463 0.89096
 C1127 C 0.69355 0.49784 0.33445
 C1128 C 0.68979 0.46130 0.33531
 C1129 C 0.66496 0.44309 0.31046
 C1130 C 0.64797 0.46053 0.28388
 C1131 C 0.65452 0.49682 0.28172
 C1132 C 0.67606 0.51518 0.30863
 C1133 C 0.70694 0.54096 0.30531
 C1134 C 0.72612 0.52204 0.33344
 H1135 H 0.65838 0.41533 0.31119
 H1136 H 0.62952 0.44551 0.26516
 H1137 H 0.70147 0.56780 0.31456
 H1138 H 0.71842 0.53871 0.27874
 H1139 H 0.73179 0.53815 0.35880
 H1140 H 0.74873 0.50874 0.32324
 C1141 C 0.78682 0.47173 0.62149
 C1142 C 0.80977 0.45802 0.59717
 C1143 C 0.84561 0.45897 0.60875
 C1144 C 0.85619 0.46738 0.64467
 C1145 C 0.83144 0.47612 0.66955
 C1146 C 0.79755 0.48101 0.65670
 C1147 C 0.76300 0.46811 0.67014
 C1148 C 0.75118 0.45774 0.63168
 H1149 H 0.86534 0.45148 0.59075
 H1150 H 0.88335 0.46556 0.65329
 H1151 H 0.74891 0.48971 0.68202
 H1152 H 0.76494 0.44547 0.68686
 H1153 H 0.73004 0.47323 0.62162
 H1154 H 0.74633 0.42904 0.62602
 C1155 C 0.28741 -0.03650 0.17081
 C1156 C 0.30464 -0.02067 0.14313
 C1157 C 0.33214 0.00545 0.15275
 C1158 C 0.34561 0.01052 0.18827
 C1159 C 0.33264 -0.01134 0.21428
 C1160 C 0.30146 -0.03248 0.20545
 C1161 C 0.28928 -0.06907 0.21294
 C1162 C 0.27407 -0.07354 0.17480
 H1163 H 0.34523 0.01969 0.13245
 H1164 H 0.36852 0.02872 0.19441
 H1165 H 0.26875 -0.07001 0.23297
 H1166 H 0.31090 -0.08594 0.21774
 H1167 H 0.24485 -0.07726 0.17298
 H1168 H 0.28748 -0.09230 0.15769
 C1169 C 0.29067 0.04991 0.35593
 C1170 C 0.30272 0.05271 0.39168
 C1171 C 0.33301 0.03603 0.40062
 C1172 C 0.35249 0.02075 0.37406
 C1173 C 0.34234 0.02172 0.33768
 C1174 C 0.31020 0.03519 0.32950
 C1175 C 0.30101 0.06191 0.30427
 C1176 C 0.27923 0.07742 0.33301
 H1177 H 0.34250 0.03598 0.42809
 H1178 H 0.37643 0.00959 0.38209
 H1179 H 0.28488 0.05015 0.28066
 H1180 H 0.32400 0.07993 0.29830
 H1181 H 0.25049 0.07405 0.32625
 H1182 H 0.28958 0.10415 0.34324
 C1183 C 0.77181 0.57362 0.80664
 C1184 C 0.75668 0.55640 0.83478
 C1185 C 0.75166 0.51977 0.83097
 C1186 C 0.76836 0.50136 0.80406
 C1187 C 0.79058 0.51944 0.78093
 C1188 C 0.78834 0.55547 0.78019
 C1189 C 0.81584 0.58498 0.77733
 C1190 C 0.79727 0.60518 0.80567
 H1191 H 0.73890 0.50534 0.85134
 H1192 H 0.76741 0.47321 0.80428
 H1193 H 0.81446 0.59632 0.75094
 H1194 H 0.84242 0.57867 0.78665
 H1195 H 0.78456 0.62766 0.79528
 H1196 H 0.81383 0.61144 0.83046
 C1197 C 0.12348 0.65200 0.59067
 C1198 C 0.11737 0.68336 0.57560
 C1199 C 0.14517 0.70000 0.55753
 C1200 C 0.17657 0.68384 0.55218
 C1201 C 0.18121 0.65115 0.56572
 C1202 C 0.15458 0.63657 0.58605
 C1203 C 0.13655 0.60062 0.58299
 C1204 C 0.10232 0.61737 0.58744
 H1205 H 0.14245 0.72531 0.54721
 H1206 H 0.19708 0.69693 0.53765
 H1207 H 0.14381 0.58522 0.60577
 H1208 H 0.13853 0.58728 0.55626
 H1209 H 0.08959 0.61120 0.61254
 H1210 H 0.08468 0.61370 0.56305
 C1211 C 0.62691 0.15060 1.07640
 C1212 C 0.61610 0.17754 1.05670
 C1213 C 0.63611 0.18733 1.02783
 C1214 C 0.66494 0.16867 1.01801
 C1215 C 0.67388 0.13950 1.03656
 C1216 C 0.65466 0.13191 1.06647
 C1217 C 0.63583 0.09825 1.07579
 C1218 C 0.60561 0.11896 1.08687
 H1219 H 0.62944 0.20921 1.01292
 H1220 H 0.67981 0.17723 0.99592
 H1221 H 0.64899 0.08677 1.09862
 H1222 H 0.62909 0.07989 1.05213
 H1223 H 0.60180 0.11974 1.11596
 H1224 H 0.58121 0.11261 1.06974
 C1225 C 0.81026 0.18868 0.94127
 C1226 C 0.84099 0.20331 0.96090
 C1227 C 0.83931 0.20296 0.99856
 C1228 C 0.81225 0.18309 1.01433
 C1229 C 0.78550 0.16348 0.99326
 C1230 C 0.78332 0.16949 0.95714
 C1231 C 0.77643 0.14404 0.92588
 C1232 C 0.80581 0.16448 0.90836
 H1233 H 0.85916 0.21682 1.01654
 H1234 H 0.81363 0.18126 1.04290
 H1235 H 0.75009 0.14568 0.91270
 H1236 H 0.78279 0.11742 0.93188
 H1237 H 0.79614 0.17748 0.88475
 H1238 H 0.82909 0.14952 0.90403
 C1239 C 0.32549 0.67699 0.46500
 C1240 C 0.35623 0.69288 0.48294
 C1241 C 0.35501 0.69883 0.52027
 C1242 C 0.32653 0.68419 0.53870
 C1243 C 0.29819 0.66409 0.52022
 C1244 C 0.29715 0.66320 0.48309
 C1245 C 0.29004 0.63289 0.45648
 C1246 C 0.32101 0.64789 0.43673
 H1247 H 0.37665 0.71314 0.53566
 H1248 H 0.32772 0.68675 0.56750
 H1249 H 0.26452 0.63356 0.44139
 H1250 H 0.29455 0.60756 0.46778
 H1251 H 0.31304 0.65692 0.41036
 H1252 H 0.34349 0.63135 0.43669
 C1253 C 0.64375 0.80396 0.49723
 C1254 C 0.63087 0.78445 0.46616
 C1255 C 0.65516 0.77712 0.44025
 C1256 C 0.68947 0.79392 0.44289
 C1257 C 0.70019 0.81800 0.47176
 C1258 C 0.67783 0.81992 0.50015
 C1259 C 0.66698 0.85072 0.52150
 C1260 C 0.62964 0.83316 0.51842
 H1261 H 0.64667 0.76106 0.41638
 H1262 H 0.70663 0.78995 0.42115
 H1263 H 0.67009 0.87508 0.50722
 H1264 H 0.67875 0.85269 0.54910
 H1265 H 0.61123 0.84781 0.50278
 H1266 H 0.62002 0.82487 0.54427
 C1267 C 0.12822 0.28495 -0.01209
 C1268 C 0.10169 0.30743 -0.01759
 C1269 C 0.10910 0.34267 -0.00489
 C1270 C 0.14361 0.35569 0.00613
 C1271 C 0.17099 0.33352 0.00575
 C1272 C 0.16213 0.29773 -0.00046
 C1273 C 0.17849 0.27174 -0.02392
 C1274 C 0.14143 0.25775 -0.03678
 H1275 H 0.08905 0.36084 -0.00618
 H1276 H 0.14939 0.38347 0.01217
 H1277 H 0.19242 0.25303 -0.00836
 H1278 H 0.19398 0.28402 -0.04490
 H1279 H 0.13411 0.23090 -0.02877
 H1280 H 0.13537 0.26196 -0.06523
 C1281 C 0.32908 0.29905 0.08838
 C1282 C 0.34505 0.27339 0.06814
 C1283 C 0.32747 0.26112 0.03533
 C1284 C 0.29931 0.27829 0.02123
 C1285 C 0.28719 0.30706 0.04022
 C1286 C 0.30064 0.31509 0.07494
 C1287 C 0.31336 0.34975 0.09269
 C1288 C 0.34464 0.33250 0.10727
 H1289 H 0.33650 0.23985 0.01925
 H1290 H 0.28871 0.27067 -0.00547
 H1291 H 0.29571 0.35811 0.11365
 H1292 H 0.32055 0.36970 0.07350
 H1293 H 0.34494 0.33158 0.13669
 H1294 H 0.36999 0.34230 0.09645
 C1295 C 0.86126 0.78786 0.52389
 C1296 C 0.87603 0.80564 0.55520
 C1297 C 0.86362 0.83823 0.56498
 C1298 C 0.83516 0.85033 0.54591
 C1299 C 0.81841 0.83016 0.51679
 C1300 C 0.83340 0.80005 0.50486
 C1301 C 0.81610 0.76408 0.49686
 C1302 C 0.84665 0.75076 0.51760
 H1303 H 0.87579 0.85450 0.58727
 H1304 H 0.82671 0.87571 0.55350
 H1305 H 0.81534 0.75622 0.46798
 H1306 H 0.79053 0.75987 0.50970
 H1307 H 0.86352 0.73528 0.50062
 H1308 H 0.83888 0.73875 0.54251
   
