data_POSCAR
  _audit_creation_date              2014-09-24
  _audit_creation_method            'ToBaCCo'
  _symmetry_space_group_name_H-M    'P1'
  _symmetry_Int_Tables_number       1
  _symmetry_cell_setting            triclinic
  loop_
  _symmetry_equiv_pos_as_xyz
 x,y,z
_cell_length_a 57.3836
_cell_length_b 57.4271
_cell_length_c 57.4091
_cell_angle_alpha 89.981800
_cell_angle_beta 89.928300
_cell_angle_gamma 89.973000
loop_
  _atom_site_label
  _atom_site_type_symbol
  _atom_site_fract_x
  _atom_site_fract_y
  _atom_site_fract_z
C1 C 0.27382 0.37762 0.01161
 C2 C 0.27463 0.37848 -0.01222
 C3 C 0.29098 0.36207 -0.01927
 N4 N 0.30010 0.35130 -0.00043
 C5 C 0.28973 0.36077 0.01849
 C6 C 0.29663 0.35709 -0.04278
 C7 C 0.31271 0.33979 -0.05010
 C8 C 0.31561 0.33269 -0.07304
 C9 C 0.33250 0.31575 -0.07306
 C10 C 0.33960 0.31283 -0.05012
 N11 N 0.32765 0.32780 -0.03631
 C12 C 0.35686 0.29670 -0.04284
 C13 C 0.36190 0.29111 -0.01933
 C14 C 0.37834 0.27479 -0.01231
 C15 C 0.37754 0.27404 0.01152
 C16 C 0.36070 0.28996 0.01843
 N17 N 0.35117 0.30027 -0.00047
 C18 C 0.35524 0.29516 0.04190
 C19 C 0.33875 0.31201 0.04923
 C20 C 0.33599 0.31923 0.07214
 C21 C 0.31903 0.33611 0.07215
 C22 C 0.31180 0.33885 0.04925
 N23 N 0.32360 0.32375 0.03547
 C24 C 0.29490 0.35528 0.04195
 H25 H 0.26288 0.38836 0.02260
 H26 H 0.26428 0.38987 -0.02311
 H27 H 0.32043 0.32058 0.01802
 H28 H 0.30635 0.33892 -0.08824
 H29 H 0.33870 0.30647 -0.08826
 H30 H 0.38970 0.26441 -0.02323
 H31 H 0.38832 0.26314 0.02249
 H32 H 0.31301 0.34558 0.08731
 H33 H 0.33085 0.33099 -0.01887
 H34 H 0.34548 0.31325 0.08728
 C35 C 0.72636 0.62192 -0.01199
 C36 C 0.72715 0.62269 0.01183
 C37 C 0.71104 0.63932 0.01880
 N38 N 0.70056 0.64874 -0.00005
 C39 C 0.70982 0.63815 -0.01895
 C40 C 0.70572 0.64459 0.04229
 C41 C 0.68868 0.66086 0.04967
 C42 C 0.68120 0.66327 0.07254
 C43 C 0.66422 0.68013 0.07262
 C44 C 0.66169 0.68766 0.04979
 N45 N 0.67701 0.67613 0.03600
 C46 C 0.64530 0.70463 0.04256
 C47 C 0.63999 0.71004 0.01912
 C48 C 0.62334 0.72615 0.01223
 C49 C 0.62260 0.72548 -0.01161
 C50 C 0.63887 0.70901 -0.01862
 N51 N 0.64945 0.69967 0.00021
 C52 C 0.64382 0.70339 -0.04210
 C53 C 0.66091 0.68719 -0.04951
 C54 C 0.66772 0.68418 -0.07251
 C55 C 0.68463 0.66725 -0.07263
 C56 C 0.68780 0.66026 -0.04968
 N57 N 0.67300 0.67230 -0.03577
 C58 C 0.70405 0.64309 -0.04245
 H59 H 0.73684 0.61069 -0.02295
 H60 H 0.73820 0.61202 0.02277
 H61 H 0.67004 0.66926 -0.01826
 H62 H 0.68708 0.65360 0.08763
 H63 H 0.65457 0.68589 0.08777
 H64 H 0.61265 0.73713 0.02323
 H65 H 0.61138 0.73599 -0.02251
 H66 H 0.69374 0.66097 -0.08791
 H67 H 0.68042 0.67960 0.01863
 H68 H 0.66135 0.69340 -0.08767
 C69 C 0.62326 0.27336 0.98914
 C70 C 0.62418 0.27267 1.01297
 C71 C 0.64043 0.28921 1.01977
 N72 N 0.64946 0.29986 1.00082
 C73 C 0.63902 0.29026 0.98204
 C74 C 0.64562 0.29486 1.04317
 C75 C 0.66167 0.31217 1.05031
 C76 C 0.66382 0.32006 1.07304
 C77 C 0.68068 0.33702 1.07294
 C78 C 0.68849 0.33914 1.05012
 N79 N 0.67708 0.32360 1.03653
 C80 C 0.70572 0.35526 1.04272
 C81 C 0.71112 0.36027 1.01915
 C82 C 0.72758 0.37647 1.01193
 C83 C 0.72665 0.37712 0.98810
 C84 C 0.70971 0.36126 0.98139
 N85 N 0.70031 0.35102 1.00041
 C86 C 0.70362 0.35648 0.95799
 C87 C 0.68712 0.33962 0.95079
 C88 C 0.68341 0.33319 0.92779
 C89 C 0.66652 0.31624 0.92794
 C90 C 0.66027 0.31269 0.95103
 N91 N 0.67268 0.32728 0.96478
 C92 C 0.64353 0.29618 0.95854
 H93 H 0.61223 0.26260 0.97829
 H94 H 0.61384 0.26142 1.02403
 H95 H 0.67032 0.32979 0.98244
 H96 H 0.65403 0.31443 1.08816
 H97 H 0.68632 0.34690 1.08796
 H98 H 0.73893 0.38696 1.02272
 H99 H 0.73730 0.38804 0.97700
 H100 H 0.65982 0.30734 0.91274
 H101 H 0.68082 0.31976 1.01930
 H102 H 0.69218 0.33980 0.91245
 C103 C 0.27425 0.62172 1.01238
 C104 C 0.27358 0.62267 0.98855
 C105 C 0.28954 0.63951 0.98179
 N106 N 0.29981 0.64890 1.00077
 C107 C 0.29056 0.63807 1.01954
 C108 C 0.29486 0.64508 0.95837
 C109 C 0.31179 0.66152 0.95116
 C110 C 0.31913 0.66434 0.92829
 C111 C 0.33607 0.68122 0.92840
 C112 C 0.33871 0.68836 0.95134
 N113 N 0.32350 0.67658 0.96502
 C114 C 0.35515 0.70518 0.95877
 C115 C 0.36052 0.71025 0.98228
 C116 C 0.37733 0.72610 0.98930
 C117 C 0.37805 0.72521 1.01312
 C118 C 0.36158 0.70886 1.02003
 N119 N 0.35093 0.69982 1.00110
 C120 C 0.35646 0.70313 1.04350
 C121 C 0.33914 0.68702 1.05069
 C122 C 0.33197 0.68400 1.07361
 C123 C 0.31504 0.66711 1.07350
 C124 C 0.31220 0.66014 1.05051
 N125 N 0.32721 0.67216 1.03680
 C126 C 0.29609 0.64294 1.04309
 H127 H 0.26382 0.61031 1.02319
 H128 H 0.26271 0.61197 0.97749
 H129 H 0.33046 0.66907 1.01934
 H130 H 0.31320 0.65492 0.91308
 H131 H 0.34564 0.68725 0.91330
 H132 H 0.38815 0.73706 0.97841
 H133 H 0.38937 0.73551 1.02411
 H134 H 0.30572 0.66083 1.08865
 H135 H 0.32023 0.67969 0.98247
 H136 H 0.33815 0.69317 1.08887
 C137 C 0.01093 0.36893 0.26761
 C138 C -0.01296 0.36886 0.26759
 C139 C -0.01991 0.35643 0.28716
 N140 N -0.00102 0.34904 0.29911
 C141 C 0.01785 0.35654 0.28715
 C142 C -0.04326 0.35375 0.29461
 C143 C -0.05010 0.33956 0.31359
 C144 C -0.07200 0.33988 0.32391
 C145 C -0.07195 0.32298 0.34088
 C146 C -0.05002 0.31274 0.34053
 N147 N -0.03692 0.32282 0.32369
 C148 C -0.04309 0.29386 0.35478
 C149 C -0.01971 0.28649 0.35736
 C150 C -0.01265 0.26699 0.36980
 C151 C 0.01124 0.26707 0.36972
 C152 C 0.01805 0.28660 0.35723
 N153 N -0.00089 0.29848 0.34982
 C154 C 0.04133 0.29406 0.35449
 C155 C 0.04817 0.31292 0.34024
 C156 C 0.07008 0.32313 0.34047
 C157 C 0.07003 0.34006 0.32352
 C158 C 0.04810 0.33974 0.31339
 N159 N 0.03499 0.32299 0.32352
 C160 C 0.04116 0.35396 0.29454
 H161 H 0.02194 0.37746 0.25488
 H162 H -0.02397 0.37733 0.25485
 H163 H 0.01891 0.31711 0.31772
 H164 H -0.08656 0.35105 0.31957
 H165 H -0.08646 0.31864 0.35214
 H166 H -0.02359 0.25423 0.37837
 H167 H 0.02233 0.25440 0.37820
 H168 H 0.08455 0.35126 0.31909
 H169 H -0.02086 0.31695 0.31778
 H170 H 0.08464 0.31876 0.35162
 C171 C -0.01222 0.72605 0.62257
 C172 C 0.01161 0.72680 0.62349
 C173 C 0.01842 0.71084 0.64032
 N174 N -0.00054 0.70051 0.64973
 C175 C -0.01934 0.70970 0.63893
 C176 C 0.04186 0.70558 0.64583
 C177 C 0.04910 0.68866 0.66225
 C178 C 0.07199 0.68133 0.66497
 C179 C 0.07191 0.66437 0.68184
 C180 C 0.04898 0.66170 0.68906
 N181 N 0.03527 0.67691 0.67735
 C182 C 0.04158 0.64522 0.70587
 C183 C 0.01808 0.63982 0.71103
 C184 C 0.01110 0.62298 0.72689
 C185 C -0.01274 0.62222 0.72607
 C186 C -0.01968 0.63868 0.70975
 N187 N -0.00077 0.64939 0.70066
 C188 C -0.04317 0.64375 0.70407
 C189 C -0.05040 0.66104 0.68796
 C190 C -0.07335 0.66814 0.68497
 C191 C -0.07327 0.68505 0.66806
 C192 C -0.05028 0.68796 0.66106
 N193 N -0.03652 0.67301 0.67307
 C194 C -0.04289 0.70407 0.64382
 H195 H -0.02306 0.73644 0.61118
 H196 H 0.02265 0.73771 0.61279
 H197 H -0.01905 0.66981 0.66995
 H198 H 0.08718 0.68729 0.65550
 H199 H 0.08703 0.65482 0.68780
 H200 H 0.02202 0.61216 0.73781
 H201 H -0.02371 0.61086 0.73639
 H202 H -0.08845 0.69432 0.66179
 H203 H 0.01781 0.68016 0.68053
 H204 H -0.08860 0.66192 0.69417
 C205 C 0.98838 0.63045 0.26708
 C206 C 1.01228 0.63048 0.26700
 C207 C 1.01925 0.64301 0.28647
 N208 N 1.00037 0.65050 0.29842
 C209 C 0.98148 0.64296 0.28656
 C210 C 1.04260 0.64573 0.29383
 C211 C 1.04947 0.66001 0.31270
 C212 C 1.07139 0.65979 0.32293
 C213 C 1.07131 0.67673 0.33986
 C214 C 1.04936 0.68685 0.33956
 N215 N 1.03626 0.67673 0.32281
 C216 C 1.04241 0.70566 0.35384
 C217 C 1.01909 0.71303 0.35655
 C218 C 1.01214 0.73244 0.36914
 C219 C 0.98824 0.73244 0.36913
 C220 C 0.98135 0.71303 0.35653
 N221 N 1.00024 0.70114 0.34898
 C222 C 0.95804 0.70566 0.35380
 C223 C 0.95116 0.68684 0.33954
 C224 C 0.92922 0.67669 0.33981
 C225 C 0.92926 0.65971 0.32291
 C226 C 0.95122 0.65994 0.31277
 N227 N 0.96435 0.67670 0.32284
 C228 C 0.95817 0.64563 0.29398
 H229 H 0.97736 0.62188 0.25443
 H230 H 1.02327 0.62192 0.25428
 H231 H 0.98046 0.68250 0.31701
 H232 H 1.08597 0.64865 0.31856
 H233 H 1.08582 0.68113 0.35106
 H234 H 1.02313 0.74509 0.37776
 H235 H 0.97720 0.74509 0.37773
 H236 H 0.91473 0.64853 0.31853
 H237 H 1.02017 0.68254 0.31697
 H238 H 0.91466 0.68111 0.35096
 C239 C 1.01238 0.38444 0.71710
 C240 C 0.98848 0.38449 0.71709
 C241 C 0.98156 0.36478 0.70499
 N242 N 1.00042 0.35263 0.69781
 C243 C 1.01930 0.36470 0.70500
 C244 C 0.95819 0.35768 0.70196
 C245 C 0.95132 0.33864 0.68800
 C246 C 0.92918 0.32894 0.68785
 C247 C 0.92922 0.31190 0.67100
 C248 C 0.95137 0.31165 0.66130
 N249 N 0.96465 0.32810 0.67166
 C250 C 0.95829 0.29752 0.64238
 C251 C 0.98164 0.29449 0.63519
 C252 C 0.98851 0.28235 0.61546
 C253 C 1.01241 0.28235 0.61537
 C254 C 1.01941 0.29450 0.63506
 N255 N 1.00054 0.30171 0.64722
 C256 C 1.04281 0.29754 0.64215
 C257 C 1.04965 0.31161 0.66118
 C258 C 1.07176 0.31179 0.67101
 C259 C 1.07169 0.32875 0.68793
 C260 C 1.04956 0.33849 0.68801
 N261 N 1.03633 0.32805 0.67157
 C262 C 1.04265 0.35751 0.70201
 H263 H 1.02340 0.39737 0.72527
 H264 H 0.97748 0.39746 0.72524
 H265 H 1.02013 0.33370 0.66589
 H266 H 0.91446 0.33381 0.69861
 H267 H 0.91451 0.30110 0.66626
 H268 H 0.97748 0.27416 0.60257
 H269 H 1.02338 0.27416 0.60238
 H270 H 1.08635 0.33354 0.69876
 H271 H 0.98089 0.33367 0.66601
 H272 H 1.08649 0.30098 0.66629
 C273 C 0.37734 -0.01280 0.27399
 C274 C 0.37646 0.01102 0.27321
 C275 C 0.35957 0.01788 0.28912
 N276 N 0.35009 -0.00104 0.29945
 C277 C 0.36090 -0.01986 0.29031
 C278 C 0.35407 0.04132 0.29433
 C279 C 0.33760 0.04862 0.31122
 C280 C 0.33486 0.07151 0.31849
 C281 C 0.31796 0.07149 0.33544
 C282 C 0.31073 0.04859 0.33816
 N283 N 0.32247 0.03484 0.32299
 C284 C 0.29388 0.04125 0.35466
 C285 C 0.28870 0.01779 0.36009
 C286 C 0.27280 0.01087 0.37696
 C287 C 0.27360 -0.01295 0.37775
 C288 C 0.28992 -0.01995 0.36129
 N289 N 0.29905 -0.00109 0.35055
 C290 C 0.29558 -0.04344 0.35625
 C291 C 0.31169 -0.05072 0.33895
 C292 C 0.31464 -0.07365 0.33186
 C293 C 0.33158 -0.07363 0.31495
 C294 C 0.33865 -0.05069 0.31203
 N295 N 0.32664 -0.03690 0.32698
 C296 C 0.35594 -0.04337 0.29594
 H297 H 0.38875 -0.02368 0.26363
 H298 H 0.38722 0.02202 0.26231
 H299 H 0.32981 -0.01946 0.33018
 H300 H 0.34435 0.08666 0.31251
 H301 H 0.31197 0.08662 0.34496
 H302 H 0.26189 0.02182 0.38776
 H303 H 0.26325 -0.02387 0.38913
 H304 H 0.33783 -0.08882 0.30569
 H305 H 0.31930 0.01740 0.31979
 H306 H 0.30539 -0.08886 0.33808
 C307 C 0.73290 0.01137 0.63130
 C308 C 0.73285 -0.01252 0.63135
 C309 C 0.71342 -0.01936 0.64401
 N310 N 0.70157 -0.00047 0.65156
 C311 C 0.71350 0.01835 0.64393
 C312 C 0.70599 -0.04264 0.64677
 C313 C 0.68712 -0.04950 0.66105
 C314 C 0.67693 -0.07139 0.66076
 C315 C 0.65994 -0.07138 0.67768
 C316 C 0.66020 -0.04947 0.68790
 N317 N 0.67700 -0.03635 0.67780
 C318 C 0.64589 -0.04254 0.70677
 C319 C 0.64328 -0.01918 0.71415
 C320 C 0.63077 -0.01214 0.73364
 C321 C 0.63088 0.01174 0.73359
 C322 C 0.64345 0.01855 0.71410
 N323 N 0.65089 -0.00036 0.70221
 C324 C 0.64624 0.04184 0.70669
 C325 C 0.66055 0.04870 0.68786
 C326 C 0.66037 0.07064 0.67773
 C327 C 0.67732 0.07059 0.66076
 C328 C 0.68740 0.04863 0.66098
 N329 N 0.67724 0.03550 0.67772
 C330 C 0.70619 0.04167 0.64665
 H331 H 0.74557 0.02233 0.62263
 H332 H 0.74547 -0.02357 0.62272
 H333 H 0.68299 0.01938 0.68352
 H334 H 0.68131 -0.08592 0.64956
 H335 H 0.64873 -0.08591 0.68203
 H336 H 0.62213 -0.02307 0.74635
 H337 H 0.62235 0.02281 0.74626
 H338 H 0.68177 0.08513 0.64959
 H339 H 0.68286 -0.02029 0.68363
 H340 H 0.64925 0.08521 0.68215
 C341 C 0.37735 0.98901 0.72605
 C342 C 0.37819 1.01283 0.72527
 C343 C 0.36185 1.01987 0.70888
 N344 N 0.35115 1.00104 0.69969
 C345 C 0.36058 0.98213 0.71008
 C346 C 0.35689 1.04338 0.70322
 C347 C 0.33968 1.05069 0.68706
 C348 C 0.33261 1.07363 0.68411
 C349 C 0.31574 1.07363 0.66717
 C350 C 0.31283 1.05069 0.66010
 N351 N 0.32774 1.03689 0.67211
 C352 C 0.29676 1.04339 0.64281
 C353 C 0.29117 1.01989 0.63778
 C354 C 0.27488 1.01287 0.62134
 C355 C 0.27411 0.98905 0.62215
 C356 C 0.28999 0.98214 0.63899
 N357 N 0.30031 1.00103 0.64851
 C358 C 0.29518 0.95868 0.64446
 C359 C 0.31200 0.95136 0.66095
 C360 C 0.31926 0.92847 0.66370
 C361 C 0.33610 0.92847 0.68067
 C362 C 0.33878 0.95136 0.68793
 N363 N 0.32368 0.96513 0.67613
 C364 C 0.35514 0.95868 0.70487
 H365 H 0.38805 0.97803 0.73701
 H366 H 0.38952 1.02372 0.73568
 H367 H 0.32046 0.98257 0.67932
 H368 H 0.33880 1.08883 0.69337
 H369 H 0.30649 1.08884 0.66092
 H370 H 0.26452 1.02377 0.60997
 H371 H 0.26322 0.97808 0.61137
 H372 H 0.34558 0.91332 0.68669
 H373 H 0.33092 1.01944 0.66895
 H374 H 0.31333 0.91332 0.65419
 C375 C 0.62235 0.98767 0.27351
 C376 C 0.62145 1.01149 0.27425
 C377 C 0.63768 1.01857 0.29072
 N378 N 0.64837 0.99975 0.29999
 C379 C 0.63904 0.98082 0.28959
 C380 C 0.64250 1.04209 0.29644
 C381 C 0.65964 1.04944 0.31263
 C382 C 0.66646 1.07243 0.31580
 C383 C 0.68344 1.07243 0.33264
 C384 C 0.68664 1.04946 0.33942
 N385 N 0.67183 1.03563 0.32737
 C386 C 0.70297 1.04216 0.35641
 C387 C 0.70880 1.01873 0.36132
 C388 C 0.72542 1.01185 0.37745
 C389 C 0.72627 0.98802 0.37671
 C390 C 0.71009 0.98101 0.36019
 N391 N 0.69952 0.99983 0.35082
 C392 C 0.70480 0.95754 0.35495
 C393 C 0.68776 0.95020 0.33871
 C394 C 0.68031 0.92734 0.33629
 C395 C 0.66335 0.92730 0.31943
 C396 C 0.66081 0.95013 0.31191
 N397 N 0.67609 0.96389 0.32344
 C398 C 0.64445 0.95739 0.29494
 H399 H 0.61172 0.97665 0.26252
 H400 H 0.61015 1.02235 0.26378
 H401 H 0.67948 0.98125 0.31995
 H402 H 0.66004 1.08766 0.30672
 H403 H 0.69256 1.08765 0.33899
 H404 H 0.73593 1.02283 0.38858
 H405 H 0.73740 0.97711 0.38732
 H406 H 0.65373 0.91216 0.31365
 H407 H 0.66895 1.01810 0.33032
 H408 H 0.68620 0.91225 0.34594
 O409 O 0.81770 0.84928 0.52289
 O410 O 0.84976 0.81728 0.47757
 O411 O 0.81766 0.84939 0.47769
 O412 O 0.84977 0.81714 0.52277
 O413 O 0.82255 0.78989 0.52282
 O414 O 0.79034 0.82223 0.47762
 O415 O 0.82255 0.79002 0.47749
 O416 O 0.79037 0.82214 0.52295
 Cu417 Cu 0.83646 0.83601 0.50023
 Cu418 Cu 0.80369 0.80332 0.50022
 C419 C 0.79857 0.84122 0.53048
 C420 C 0.84168 0.79819 0.46998
 C421 C 0.79852 0.84135 0.47014
 C422 C 0.84169 0.79801 0.53030
 O423 O 0.18276 0.15089 0.52297
 O424 O 0.15023 0.18262 0.47784
 O425 O 0.18230 0.15049 0.47779
 O426 O 0.15064 0.18302 0.52302
 O427 O 0.17785 0.21028 0.52254
 O428 O 0.20962 0.17763 0.47717
 O429 O 0.17744 0.20987 0.47723
 O430 O 0.21008 0.17804 0.52249
 Cu431 Cu 0.16374 0.16402 0.50047
 Cu432 Cu 0.19651 0.19671 0.49981
 C433 C 0.20198 0.15899 0.53023
 C434 C 0.15824 0.20165 0.47001
 C435 C 0.20136 0.15847 0.46993
 C436 C 0.15878 0.20221 0.53030
 O437 O 0.15048 0.81753 0.52277
 O438 O 0.18263 0.84928 0.47734
 O439 O 0.15042 0.81732 0.47756
 O440 O 0.18259 0.84961 0.52252
 O441 O 0.20986 0.82238 0.52272
 O442 O 0.17757 0.78997 0.47762
 O443 O 0.20989 0.82204 0.47740
 O444 O 0.17764 0.79020 0.52296
 Cu445 Cu 0.16379 0.83617 0.50003
 Cu446 Cu 0.19649 0.80338 0.50019
 C447 C 0.15854 0.79846 0.53044
 C448 C 0.20175 0.84113 0.46981
 C449 C 0.15846 0.79815 0.47008
 C450 C 0.20172 0.84156 0.53010
 O451 O 0.84962 0.18231 0.52255
 O452 O 0.81741 0.15028 0.47743
 O453 O 0.84955 0.18234 0.47736
 O454 O 0.81763 0.15010 0.52263
 O455 O 0.79026 0.17723 0.52287
 O456 O 0.82232 0.20960 0.47746
 O457 O 0.79008 0.17744 0.47754
 O458 O 0.82235 0.20955 0.52277
 Cu459 Cu 0.83629 0.16352 0.49998
 Cu460 Cu 0.80349 0.19620 0.50018
 C461 C 0.84153 0.20141 0.53017
 C462 C 0.79825 0.15835 0.46997
 C463 C 0.84145 0.20147 0.46987
 C464 C 0.79850 0.15811 0.53030
 O465 O 0.47745 0.85032 0.81797
 O466 O 0.52267 0.81811 0.84993
 O467 O 0.52268 0.85032 0.81794
 O468 O 0.47746 0.81819 0.85006
 O469 O 0.47737 0.79096 0.82283
 O470 O 0.52272 0.82321 0.79059
 O471 O 0.52270 0.79089 0.82268
 O472 O 0.47736 0.82319 0.79063
 Cu473 Cu 0.50006 0.83697 0.83672
 Cu474 Cu 0.50003 0.80432 0.80392
 C475 C 0.46987 0.84229 0.79884
 C476 C 0.53020 0.79900 0.84181
 C477 C 0.53024 0.84230 0.79879
 C478 C 0.46989 0.79909 0.84199
 O479 O 0.52271 0.18245 0.15120
 O480 O 0.47714 0.15033 0.18275
 O481 O 0.47750 0.18251 0.15074
 O482 O 0.52234 0.15023 0.18317
 O483 O 0.52214 0.17731 0.21055
 O484 O 0.47717 0.20970 0.17802
 O485 O 0.47680 0.17741 0.21013
 O486 O 0.52252 0.20964 0.17847
 Cu487 Cu 0.49995 0.16365 0.16421
 Cu488 Cu 0.49963 0.19627 0.19706
 C489 C 0.53021 0.20152 0.15940
 C490 C 0.46938 0.15833 0.20182
 C491 C 0.46986 0.20160 0.15880
 C492 C 0.52970 0.15821 0.20239
 O493 O 0.52209 0.15045 0.81773
 O494 O 0.47670 0.18282 0.84936
 O495 O 0.47687 0.15070 0.81726
 O496 O 0.52190 0.18256 0.84980
 O497 O 0.52240 0.20983 0.82259
 O498 O 0.47725 0.17787 0.78995
 O499 O 0.47708 0.21009 0.82215
 O500 O 0.52260 0.17762 0.79041
 Cu501 Cu 0.49934 0.16389 0.83627
 Cu502 Cu 0.49987 0.19660 0.80351
 C503 C 0.52992 0.15847 0.79868
 C504 C 0.46935 0.20199 0.84122
 C505 C 0.46957 0.15879 0.79805
 C506 C 0.52965 0.20164 0.84179
 O507 O 0.47665 0.81608 0.15134
 O508 O 0.52184 0.84839 0.18314
 O509 O 0.52186 0.81622 0.15116
 O510 O 0.47663 0.84832 0.18329
 O511 O 0.47671 0.82124 0.21070
 O512 O 0.52207 0.78903 0.17845
 O513 O 0.52205 0.82131 0.21054
 O514 O 0.47672 0.78889 0.17863
 Cu515 Cu 0.49922 0.83498 0.16448
 Cu516 Cu 0.49939 0.80237 0.19735
 C517 C 0.46917 0.79697 0.15950
 C518 C 0.52948 0.84041 0.20226
 C519 C 0.52952 0.79716 0.15928
 C520 C 0.46914 0.84032 0.20248
 O521 O 0.84876 0.52301 0.81660
 O522 O 0.81681 0.47767 0.84864
 O523 O 0.84889 0.47784 0.81646
 O524 O 0.81673 0.52283 0.84882
 O525 O 0.78937 0.52295 0.82172
 O526 O 0.82165 0.47783 0.78925
 O527 O 0.78946 0.47765 0.82153
 O528 O 0.82151 0.52312 0.78939
 Cu529 Cu 0.83554 0.50033 0.83536
 Cu530 Cu 0.80273 0.50039 0.80272
 C531 C 0.84064 0.53061 0.79753
 C532 C 0.79768 0.47012 0.84061
 C533 C 0.84081 0.47035 0.79733
 C534 C 0.79756 0.53039 0.84084
 O535 O 0.18177 0.47747 0.15050
 O536 O 0.14976 0.52283 0.18248
 O537 O 0.18203 0.52264 0.15048
 O538 O 0.14949 0.47763 0.18248
 O539 O 0.17656 0.47739 0.20987
 O540 O 0.20920 0.52253 0.17777
 O541 O 0.17682 0.52272 0.20987
 O542 O 0.20894 0.47723 0.17778
 Cu543 Cu 0.16303 0.50016 0.16374
 Cu544 Cu 0.19562 0.49995 0.19659
 C545 C 0.20083 0.46980 0.15862
 C546 C 0.15778 0.53034 0.20163
 C547 C 0.20118 0.53007 0.15861
 C548 C 0.15743 0.47001 0.20163
 O549 O 0.81826 0.52163 0.15048
 O550 O 0.85012 0.47631 0.18264
 O551 O 0.81812 0.47645 0.15045
 O552 O 0.85033 0.52151 0.18257
 O553 O 0.82307 0.52170 0.20984
 O554 O 0.79074 0.47651 0.17761
 O555 O 0.82285 0.47637 0.20990
 O556 O 0.79090 0.52182 0.17765
 Cu557 Cu 0.83696 0.49896 0.16380
 Cu558 Cu 0.80413 0.49911 0.19650
 C559 C 0.79914 0.52928 0.15853
 C560 C 0.84197 0.46879 0.20175
 C561 C 0.79893 0.46898 0.15849
 C562 C 0.84224 0.52913 0.20167
 O563 O 0.15118 0.47720 0.81729
 O564 O 0.18292 0.52245 0.84957
 O565 O 0.15078 0.52236 0.81757
 O566 O 0.18327 0.47727 0.84940
 O567 O 0.21058 0.47756 0.82218
 O568 O 0.17797 0.52279 0.79024
 O569 O 0.21022 0.52287 0.82235
 O570 O 0.17838 0.47749 0.78997
 Cu571 Cu 0.16430 0.49977 0.83620
 Cu572 Cu 0.19705 0.50020 0.80342
 C573 C 0.15930 0.46983 0.79811
 C574 C 0.20198 0.53020 0.84151
 C575 C 0.15878 0.53010 0.79848
 C576 C 0.20248 0.46991 0.84129
 C577 C 0.24829 0.43067 0.09551
 C578 C 0.27062 0.41699 0.10192
 C579 C 0.26020 0.39522 0.09040
 C580 C 0.23805 0.40871 0.08378
 C581 C 0.23727 0.42305 0.11870
 C582 C 0.22684 0.40128 0.10717
 C583 C 0.25942 0.40958 0.12537
 C584 C 0.24920 0.38753 0.11357
 C585 C 0.27278 0.38030 0.07397
 C586 C 0.28292 0.36863 0.05976
 C587 C 0.22437 0.43910 0.13378
 C588 C 0.21366 0.45284 0.14550
 H589 H 0.24778 0.44858 0.08824
 H590 H 0.28876 0.42327 0.09958
 H591 H 0.22940 0.40819 0.06649
 H592 H 0.20869 0.39500 0.10950
 H593 H 0.26806 0.41012 0.14265
 H594 H 0.24974 0.36961 0.12080
 C595 C 0.77458 0.59232 0.10069
 C596 C 0.75634 0.58453 0.08245
 C597 C 0.74022 0.60432 0.09053
 C598 C 0.75827 0.61236 0.10855
 C599 C 0.76297 0.57624 0.11868
 C600 C 0.74686 0.59601 0.12681
 C601 C 0.74492 0.56824 0.10064
 C602 C 0.72860 0.58824 0.10850
 C603 C 0.72773 0.61936 0.07418
 C604 C 0.71764 0.63113 0.06003
 C605 C 0.77577 0.56007 0.13370
 C606 C 0.78640 0.54627 0.14540
 H607 H 0.79363 0.59382 0.09764
 H608 H 0.76010 0.57998 0.06403
 H609 H 0.76360 0.63068 0.11161
 H610 H 0.74311 0.60054 0.14524
 H611 H 0.73956 0.54993 0.09753
 H612 H 0.70955 0.58675 0.11153
 C613 C 0.74379 0.40488 0.87287
 C614 C 0.75513 0.38743 0.89011
 C615 C 0.73838 0.39590 0.90920
 C616 C 0.72683 0.41308 0.89226
 C617 C 0.76130 0.42352 0.88072
 C618 C 0.74453 0.43194 0.89984
 C619 C 0.77283 0.40634 0.89768
 C620 C 0.75589 0.41455 0.91700
 C621 C 0.72580 0.38113 0.92575
 C622 C 0.71564 0.36961 0.94006
 C623 C 0.77417 0.43949 0.86554
 C624 C 0.78486 0.45319 0.85377
 H625 H 0.73898 0.40109 0.85454
 H626 H 0.75933 0.36894 0.88631
 H627 H 0.70777 0.41567 0.89022
 H628 H 0.74031 0.45041 0.90368
 H629 H 0.79189 0.40375 0.89974
 H630 H 0.76072 0.41836 0.93532
 C631 C 0.25236 0.59822 0.87354
 C632 C 0.24107 0.61290 0.89324
 C633 C 0.26059 0.60510 0.90979
 C634 C 0.27210 0.59070 0.89038
 C635 C 0.23796 0.57711 0.88150
 C636 C 0.25749 0.56935 0.89807
 C637 C 0.22648 0.59152 0.90092
 C638 C 0.24618 0.58398 0.91769
 C639 C 0.27301 0.62007 0.92624
 C640 C 0.28303 0.63175 0.94048
 C641 C 0.22524 0.56098 0.86641
 C642 C 0.21466 0.54719 0.85468
 H643 H 0.25474 0.60389 0.85521
 H644 H 0.23447 0.63098 0.89145
 H645 H 0.29100 0.59055 0.88624
 H646 H 0.26411 0.55128 0.89990
 H647 H 0.20759 0.59168 0.90509
 H648 H 0.24378 0.57829 0.93602
 C649 C 0.09837 0.25388 0.43134
 C650 C 0.10600 0.27183 0.41270
 C651 C 0.08961 0.26007 0.39514
 C652 C 0.08177 0.24231 0.41357
 C653 C 0.11797 0.23756 0.42320
 C654 C 0.10157 0.22581 0.40563
 C655 C 0.12587 0.25531 0.40478
 C656 C 0.10919 0.24376 0.38695
 C657 C 0.07318 0.27241 0.38005
 C658 C 0.05903 0.28235 0.36816
 C659 C 0.13314 0.22488 0.43932
 C660 C 0.14496 0.21433 0.45308
 H661 H 0.09407 0.25791 0.44976
 H662 H 0.10763 0.29090 0.41543
 H663 H 0.06345 0.23710 0.41701
 H664 H 0.09992 0.20674 0.40290
 H665 H 0.14418 0.26050 0.40136
 H666 H 0.11345 0.23975 0.36852
 C667 C 0.10058 0.74442 0.56959
 C668 C 0.10838 0.72818 0.58965
 C669 C 0.09039 0.73987 0.60567
 C670 C 0.08237 0.75592 0.58582
 C671 C 0.11864 0.76248 0.57755
 C672 C 0.10064 0.77415 0.59357
 C673 C 0.12671 0.74644 0.59739
 C674 C 0.10843 0.75792 0.61368
 C675 C 0.07396 0.72746 0.62071
 C676 C 0.05973 0.71743 0.63245
 C677 C 0.13370 0.77520 0.56134
 C678 C 0.14541 0.78577 0.54749
 H679 H 0.09751 0.73901 0.55128
 H680 H 0.11138 0.70914 0.58823
 H681 H 0.06396 0.75968 0.58124
 H682 H 0.09762 0.79319 0.59500
 H683 H 0.14513 0.74269 0.60195
 H684 H 0.11146 0.76330 0.63200
 C685 C 0.87593 0.75615 0.39745
 C686 C 0.90066 0.76440 0.39032
 C687 C 0.90986 0.73965 0.39467
 C688 C 0.88541 0.73118 0.40154
 C689 C 0.88159 0.76213 0.42290
 C690 C 0.89081 0.73739 0.42724
 C691 C 0.90606 0.77056 0.41601
 C692 C 0.91548 0.74566 0.42013
 C693 C 0.92625 0.72732 0.37949
 C694 C 0.94037 0.71738 0.36754
 C695 C 0.86651 0.77483 0.43913
 C696 C 0.85480 0.78543 0.45296
 H697 H 0.85949 0.76062 0.38831
 H698 H 0.90491 0.77536 0.37496
 H699 H 0.87713 0.71484 0.39539
 H700 H 0.88659 0.72641 0.44260
 H701 H 0.91439 0.78689 0.42213
 H702 H 0.93191 0.74121 0.42929
 C703 C 0.89887 0.25679 0.56795
 C704 C 0.89108 0.27283 0.58819
 C705 C 0.90979 0.26169 0.60374
 C706 C 0.91778 0.24585 0.58370
 C707 C 0.88153 0.23824 0.57641
 C708 C 0.90024 0.22711 0.59196
 C709 C 0.87348 0.25406 0.59643
 C710 C 0.89247 0.24314 0.61225
 C711 C 0.92621 0.27462 0.61831
 C712 C 0.94044 0.28511 0.62960
 C713 C 0.86645 0.22512 0.56058
 C714 C 0.85471 0.21429 0.54699
 H715 H 0.90134 0.26227 0.54956
 H716 H 0.88751 0.29178 0.58682
 H717 H 0.93618 0.24262 0.57863
 H718 H 0.90384 0.20816 0.59333
 H719 H 0.85508 0.25728 0.60148
 H720 H 0.89004 0.23769 0.63065
 C721 C 0.40630 0.10034 0.22586
 C722 C 0.41411 0.08197 0.24397
 C723 C 0.39424 0.08986 0.26010
 C724 C 0.38617 0.10800 0.24217
 C725 C 0.42229 0.11826 0.23761
 C726 C 0.40244 0.12621 0.25374
 C727 C 0.43031 0.10010 0.25555
 C728 C 0.41023 0.10777 0.27188
 C729 C 0.37922 0.07337 0.27246
 C730 C 0.36748 0.05914 0.28247
 C731 C 0.43847 0.13341 0.22497
 C732 C 0.45231 0.14517 0.21445
 H733 H 0.40486 0.09745 0.20679
 H734 H 0.41873 0.06360 0.24010
 H735 H 0.36784 0.11105 0.23683
 H736 H 0.39783 0.14458 0.25760
 H737 H 0.44863 0.09700 0.26092
 H738 H 0.41166 0.11063 0.29095
 C739 C 0.57266 0.10885 0.73834
 C740 C 0.59831 0.11434 0.73188
 C741 C 0.60537 0.09005 0.74059
 C742 C 0.57997 0.08434 0.74686
 C743 C 0.57709 0.11836 0.76295
 C744 C 0.58418 0.09406 0.77163
 C745 C 0.60249 0.12412 0.75671
 C746 C 0.60982 0.09954 0.76520
 C747 C 0.62057 0.07365 0.72831
 C748 C 0.63252 0.05951 0.71839
 C749 C 0.56084 0.13348 0.77556
 C750 C 0.54697 0.14526 0.78606
 H751 H 0.55721 0.11284 0.72743
 H752 H 0.60431 0.12248 0.71539
 H753 H 0.57087 0.06781 0.74268
 H754 H 0.57820 0.08587 0.78810
 H755 H 0.61156 0.14066 0.76092
 H756 H 0.62527 0.09553 0.77610
 C757 C 0.40697 0.90022 0.77398
 C758 C 0.41489 0.91841 0.75571
 C759 C 0.39515 0.91034 0.73956
 C760 C 0.38698 0.89237 0.75764
 C761 C 0.42309 0.88219 0.76248
 C762 C 0.40336 0.87407 0.74634
 C763 C 0.43121 0.90018 0.74440
 C764 C 0.41126 0.89232 0.72805
 C765 C 0.38019 0.92671 0.72698
 C766 C 0.36850 0.94088 0.71683
 C767 C 0.43918 0.86716 0.77536
 C768 C 0.45293 0.85545 0.78605
 H769 H 0.40538 0.90330 0.79300
 H770 H 0.41945 0.93682 0.75943
 H771 H 0.36861 0.88936 0.76292
 H772 H 0.39881 0.85565 0.74264
 H773 H 0.44956 0.90324 0.73909
 H774 H 0.41284 0.88927 0.70902
 C775 C 0.59600 0.87253 0.25450
 C776 C 0.61245 0.89061 0.24296
 C777 C 0.60432 0.90886 0.26076
 C778 C 0.58813 0.89107 0.27251
 C779 C 0.57632 0.88051 0.23821
 C780 C 0.56823 0.89878 0.25602
 C781 C 0.59251 0.89831 0.22648
 C782 C 0.58463 0.91678 0.24446
 C783 C 0.61931 0.92532 0.27314
 C784 C 0.63104 0.93955 0.28313
 C785 C 0.56020 0.86537 0.22552
 C786 C 0.54643 0.85361 0.21496
 H787 H 0.60048 0.85415 0.25847
 H788 H 0.63082 0.88745 0.23775
 H789 H 0.58652 0.88829 0.29158
 H790 H 0.54988 0.90199 0.26126
 H791 H 0.59413 0.90112 0.20742
 H792 H 0.58013 0.93516 0.24048
 C793 C 0.40242 0.22818 0.89456
 C794 C 0.41051 0.24126 0.91669
 C795 C 0.39546 0.26218 0.90948
 C796 C 0.38711 0.24930 0.88758
 C797 C 0.42292 0.23893 0.88109
 C798 C 0.40788 0.25985 0.87383
 C799 C 0.43120 0.25182 0.90301
 C800 C 0.41595 0.27293 0.89602
 C801 C 0.38077 0.27493 0.92599
 C802 C 0.36930 0.28521 0.94028
 C803 C 0.43881 0.22585 0.86597
 C804 C 0.45246 0.21500 0.85427
 H805 H 0.39703 0.20963 0.89379
 H806 H 0.41143 0.23377 0.93449
 H807 H 0.36879 0.24844 0.88144
 H808 H 0.40698 0.26733 0.85603
 H809 H 0.44950 0.25272 0.90921
 H810 H 0.42134 0.29147 0.89681
 C811 C 0.59523 0.74460 0.87345
 C812 C 0.61285 0.75566 0.89069
 C813 C 0.60435 0.73882 0.90968
 C814 C 0.58701 0.72755 0.89273
 C815 C 0.57672 0.76216 0.88158
 C816 C 0.56828 0.74531 0.90059
 C817 C 0.59406 0.77342 0.89854
 C818 C 0.58583 0.75638 0.91775
 C819 C 0.61914 0.72599 0.92601
 C820 C 0.63067 0.71563 0.94015
 C821 C 0.56076 0.77524 0.86658
 C822 C 0.54709 0.78607 0.85491
 H823 H 0.59891 0.73992 0.85505
 H824 H 0.63135 0.75975 0.88681
 H825 H 0.58429 0.70854 0.89052
 H826 H 0.54978 0.74119 0.90451
 H827 H 0.59679 0.79243 0.90076
 H828 H 0.58213 0.76108 0.93614
 C829 C 0.43115 0.74365 0.10048
 C830 C 0.41244 0.72580 0.10814
 C831 C 0.39510 0.73726 0.09129
 C832 C 0.41361 0.75491 0.08342
 C833 C 0.42268 0.76029 0.11966
 C834 C 0.40533 0.77173 0.10280
 C835 C 0.40418 0.74263 0.12759
 C836 C 0.38656 0.75388 0.11045
 C837 C 0.38037 0.72464 0.07477
 C838 C 0.36889 0.71448 0.06045
 C839 C 0.43862 0.77325 0.13475
 C840 C 0.45228 0.78403 0.14645
 H841 H 0.44966 0.73958 0.09653
 H842 H 0.41518 0.70677 0.11014
 H843 H 0.41732 0.75982 0.06508
 H844 H 0.40258 0.79076 0.10078
 H845 H 0.40049 0.73774 0.14593
 H846 H 0.36805 0.75792 0.11435
 C847 C 0.59725 0.25378 0.12799
 C848 C 0.61352 0.24238 0.10964
 C849 C 0.60549 0.26054 0.09170
 C850 C 0.58951 0.27216 0.10977
 C851 C 0.57738 0.23782 0.11988
 C852 C 0.56940 0.25599 0.10192
 C853 C 0.59337 0.22622 0.10180
 C854 C 0.58561 0.24457 0.08365
 C855 C 0.62053 0.27299 0.07529
 C856 C 0.63226 0.28302 0.06106
 C857 C 0.56116 0.22502 0.13486
 C858 C 0.54730 0.21435 0.14646
 H859 H 0.60185 0.25742 0.14641
 H860 H 0.63184 0.23694 0.11261
 H861 H 0.58811 0.29119 0.11285
 H862 H 0.55110 0.26146 0.09890
 H863 H 0.59478 0.20720 0.09869
 H864 H 0.58099 0.24092 0.06523
 C865 C 0.22822 0.10575 0.59707
 C866 C 0.24143 0.08366 0.58902
 C867 C 0.26228 0.09095 0.60411
 C868 C 0.24927 0.11282 0.61242
 C869 C 0.23900 0.11922 0.57659
 C870 C 0.25985 0.12657 0.59167
 C871 C 0.25202 0.09733 0.56835
 C872 C 0.27306 0.10441 0.58364
 C873 C 0.27503 0.07450 0.61884
 C874 C 0.28530 0.06025 0.63034
 C875 C 0.22590 0.13427 0.56070
 C876 C 0.21502 0.14595 0.54707
 H877 H 0.20963 0.10647 0.60241
 H878 H 0.23401 0.06583 0.58810
 H879 H 0.24831 0.11899 0.63071
 H880 H 0.26726 0.14439 0.59257
 H881 H 0.25302 0.09111 0.55007
 H882 H 0.29164 0.10368 0.57829
 C883 C 0.75006 0.09570 0.43126
 C884 C 0.72789 0.10239 0.41747
 C885 C 0.73820 0.09051 0.39581
 C886 C 0.76019 0.08361 0.40940
 C887 C 0.76148 0.11862 0.42346
 C888 C 0.77180 0.10674 0.40180
 C889 C 0.73948 0.12556 0.40989
 C890 C 0.74959 0.11341 0.38795
 C891 C 0.72542 0.07416 0.38103
 C892 C 0.71512 0.05999 0.36951
 C893 C 0.77453 0.13360 0.43942
 C894 C 0.78534 0.14525 0.45310
 H895 H 0.75039 0.08857 0.44923
 H896 H 0.70969 0.10042 0.42374
 H897 H 0.76856 0.06618 0.40904
 H898 H 0.79000 0.10869 0.39554
 H899 H 0.73112 0.14299 0.41027
 H900 H 0.74923 0.12049 0.36996
 C901 C 0.74472 0.87306 0.59598
 C902 C 0.75629 0.88963 0.61390
 C903 C 0.73995 0.90924 0.60586
 C904 C 0.72817 0.89295 0.58822
 C905 C 0.76247 0.88105 0.57759
 C906 C 0.74612 0.90068 0.56960
 C907 C 0.77423 0.89734 0.59524
 C908 C 0.75771 0.91717 0.58745
 C909 C 0.72761 0.92559 0.62106
 C910 C 0.71768 0.93970 0.63303
 C911 C 0.77518 0.86601 0.56135
 C912 C 0.78579 0.85432 0.54750
 H913 H 0.73953 0.85473 0.59930
 H914 H 0.76031 0.88528 0.63230
 H915 H 0.70909 0.89133 0.58551
 H916 H 0.74208 0.90507 0.55121
 H917 H 0.79331 0.89899 0.59795
 H918 H 0.76292 0.93549 0.58412
 C919 C 0.22686 0.89785 0.40585
 C920 C 0.24400 0.91700 0.41394
 C921 C 0.26137 0.90901 0.39519
 C922 C 0.24442 0.89008 0.38684
 C923 C 0.23833 0.88080 0.42299
 C924 C 0.25569 0.87275 0.40425
 C925 C 0.25529 0.89975 0.43129
 C926 C 0.27285 0.89197 0.41232
 C927 C 0.27400 0.92544 0.38034
 C928 C 0.28419 0.93969 0.36877
 C929 C 0.22538 0.86579 0.43905
 C930 C 0.21463 0.85415 0.45282
 H931 H 0.20781 0.90010 0.40337
 H932 H 0.23935 0.93537 0.41776
 H933 H 0.24012 0.88630 0.36837
 H934 H 0.26033 0.85437 0.40045
 H935 H 0.25962 0.90357 0.44974
 H936 H 0.29190 0.88974 0.41480
 C937 C 0.12749 0.40338 0.74548
 C938 C 0.10833 0.38775 0.75642
 C939 C 0.09118 0.39623 0.73772
 C940 C 0.11005 0.41159 0.72656
 C941 C 0.11948 0.42356 0.76114
 C942 C 0.10230 0.43198 0.74243
 C943 C 0.10060 0.40819 0.77228
 C944 C 0.08323 0.41641 0.75339
 C945 C 0.07472 0.38166 0.72483
 C946 C 0.06049 0.37035 0.71438
 C947 C 0.13455 0.43938 0.77426
 C948 C 0.14624 0.45299 0.78513
 H949 H 0.14588 0.39821 0.74239
 H950 H 0.11061 0.36938 0.76201
 H951 H 0.11374 0.41280 0.70762
 H952 H 0.09998 0.45033 0.73681
 H953 H 0.09688 0.40697 0.79122
 H954 H 0.06484 0.42161 0.75649
 C955 C 0.12608 0.59632 0.25490
 C956 C 0.10891 0.61373 0.24338
 C957 C 0.08983 0.60569 0.26036
 C958 C 0.10672 0.58857 0.27209
 C959 C 0.11799 0.57746 0.23775
 C960 C 0.09889 0.56947 0.25475
 C961 C 0.10109 0.59459 0.22604
 C962 C 0.08179 0.58681 0.24321
 C963 C 0.07348 0.62086 0.27275
 C964 C 0.05933 0.63276 0.28272
 C965 C 0.13301 0.56122 0.22501
 C966 C 0.14469 0.54737 0.21440
 H967 H 0.14448 0.60005 0.25955
 H968 H 0.11284 0.63211 0.23886
 H969 H 0.10884 0.58628 0.29118
 H970 H 0.09491 0.55111 0.25929
 H971 H 0.09894 0.59689 0.20696
 H972 H 0.06340 0.58308 0.23855
 C973 C 0.89782 0.40394 0.22660
 C974 C 0.91765 0.41180 0.24306
 C975 C 0.90959 0.39364 0.26099
 C976 C 0.88997 0.38552 0.24472
 C977 C 0.88156 0.42179 0.23817
 C978 C 0.87344 0.40364 0.25609
 C979 C 0.90119 0.42986 0.25445
 C980 C 0.89334 0.41149 0.27257
 C981 C 0.92589 0.37852 0.27347
 C982 C 0.94002 0.36666 0.28348
 C983 C 0.86662 0.43798 0.22531
 C984 C 0.85500 0.45180 0.21460
 H985 H 0.89951 0.40101 0.20756
 H986 H 0.93602 0.41499 0.23784
 H987 H 0.88555 0.36710 0.24088
 H988 H 0.85507 0.40047 0.26129
 H989 H 0.90566 0.44827 0.25831
 H990 H 0.89168 0.41440 0.29161
 C991 C 0.87270 0.59604 0.74374
 C992 C 0.89005 0.61338 0.75506
 C993 C 0.90904 0.60495 0.73816
 C994 C 0.89198 0.58789 0.72663
 C995 C 0.88062 0.57727 0.76109
 C996 C 0.89963 0.56890 0.74418
 C997 C 0.89769 0.59433 0.77261
 C998 C 0.91690 0.58617 0.75552
 C999 C 0.92557 0.61974 0.72558
 C1000 C 0.93989 0.63126 0.71543
 C1001 C 0.86548 0.56127 0.77398
 C1002 C 0.85375 0.54756 0.78469
 H1003 H 0.85434 0.59991 0.73905
 H1004 H 0.88632 0.63185 0.75937
 H1005 H 0.88982 0.58543 0.70757
 H1006 H 0.90341 0.55044 0.73984
 H1007 H 0.89987 0.59681 0.79166
 H1008 H 0.93525 0.58227 0.76022
 C1009 C 0.74415 0.56833 0.90012
 C1010 C 0.75551 0.58549 0.91748
 C1011 C 0.73818 0.60434 0.90972
 C1012 C 0.72662 0.58739 0.89258
 C1013 C 0.76109 0.57677 0.88117
 C1014 C 0.74376 0.59561 0.87335
 C1015 C 0.77263 0.59373 0.89833
 C1016 C 0.75511 0.61284 0.89079
 C1017 C 0.72560 0.61909 0.92630
 C1018 C 0.71544 0.63061 0.94063
 C1019 C 0.77398 0.56084 0.86594
 C1020 C 0.78470 0.54721 0.85410
 H1021 H 0.73978 0.54986 0.90381
 H1022 H 0.76020 0.58150 0.93581
 H1023 H 0.70756 0.58496 0.89040
 H1024 H 0.73908 0.59958 0.85502
 H1025 H 0.79169 0.59616 0.90053
 H1026 H 0.75945 0.63132 0.88715
 C1027 C 0.25670 0.40477 0.87327
 C1028 C 0.27383 0.41299 0.89245
 C1029 C 0.26237 0.39592 0.90959
 C1030 C 0.24545 0.38743 0.89070
 C1031 C 0.23930 0.42351 0.88122
 C1032 C 0.22785 0.40643 0.89837
 C1033 C 0.25623 0.43195 0.90013
 C1034 C 0.24496 0.41467 0.91748
 C1035 C 0.27502 0.38115 0.92609
 C1036 C 0.28521 0.36961 0.94036
 C1037 C 0.22630 0.43944 0.86610
 C1038 C 0.21548 0.45308 0.85438
 H1039 H 0.26137 0.40089 0.85491
 H1040 H 0.29288 0.41551 0.89021
 H1041 H 0.24119 0.36894 0.88701
 H1042 H 0.20881 0.40390 0.90063
 H1043 H 0.26052 0.45042 0.90386
 H1044 H 0.24028 0.41857 0.93584
 C1045 C 0.26471 0.57561 0.11513
 C1046 C 0.26087 0.57737 0.08850
 C1047 C 0.26144 0.60404 0.09046
 C1048 C 0.26548 0.60254 0.11687
 C1049 C 0.23818 0.57644 0.11871
 C1050 C 0.23872 0.60311 0.12071
 C1051 C 0.23418 0.57799 0.09230
 C1052 C 0.23492 0.60487 0.09404
 C1053 C 0.27423 0.61883 0.07406
 C1054 C 0.28454 0.63039 0.05987
 C1055 C 0.22508 0.56051 0.13378
 C1056 C 0.21421 0.54688 0.14548
 H1057 H 0.27682 0.56340 0.12397
 H1058 H 0.27011 0.56694 0.07508
 H1059 H 0.27851 0.61283 0.12677
 H1060 H 0.22946 0.61352 0.13414
 H1061 H 0.22118 0.56773 0.08233
 H1062 H 0.22281 0.61708 0.08518
 C1063 C 0.77411 0.40580 0.10094
 C1064 C 0.75708 0.38631 0.10866
 C1065 C 0.73970 0.39460 0.09009
 C1066 C 0.75653 0.41384 0.08216
 C1067 C 0.76250 0.42242 0.11843
 C1068 C 0.74510 0.43067 0.09984
 C1069 C 0.74567 0.40320 0.12642
 C1070 C 0.72807 0.41122 0.10757
 C1071 C 0.72718 0.37968 0.07365
 C1072 C 0.71706 0.36799 0.05946
 C1073 C 0.77535 0.43844 0.13356
 C1074 C 0.78605 0.45213 0.14532
 H1075 H 0.79317 0.40374 0.09838
 H1076 H 0.76185 0.36789 0.11209
 H1077 H 0.76086 0.41804 0.06378
 H1078 H 0.74031 0.44907 0.09637
 H1079 H 0.74136 0.39901 0.14480
 H1080 H 0.70900 0.41327 0.11010
 C1081 C 0.90045 0.74435 0.56864
 C1082 C 0.91776 0.75561 0.58592
 C1083 C 0.90972 0.73836 0.60474
 C1084 C 0.89262 0.72691 0.58767
 C1085 C 0.88155 0.76141 0.57693
 C1086 C 0.87345 0.74417 0.59574
 C1087 C 0.89866 0.77285 0.59401
 C1088 C 0.89084 0.75541 0.61309
 C1089 C 0.92611 0.72571 0.61963
 C1090 C 0.94030 0.71550 0.63124
 C1091 C 0.86652 0.77437 0.56090
 C1092 C 0.85482 0.78512 0.54719
 H1093 H 0.90426 0.73994 0.55020
 H1094 H 0.93617 0.76017 0.58206
 H1095 H 0.89031 0.70787 0.58525
 H1096 H 0.85504 0.73962 0.59959
 H1097 H 0.90099 0.79188 0.59644
 H1098 H 0.88708 0.75979 0.63155
 C1099 C 0.90773 0.23335 0.42116
 C1100 C 0.90572 0.23392 0.39428
 C1101 C 0.90969 0.26037 0.39486
 C1102 C 0.91192 0.25995 0.42152
 C1103 C 0.88138 0.23778 0.42297
 C1104 C 0.88535 0.26423 0.42355
 C1105 C 0.87911 0.23817 0.39630
 C1106 C 0.88335 0.26485 0.39662
 C1107 C 0.92610 0.27275 0.37973
 C1108 C 0.94024 0.28272 0.36781
 C1109 C 0.86628 0.22501 0.43913
 C1110 C 0.85455 0.21433 0.45291
 H1111 H 0.91761 0.22026 0.43141
 H1112 H 0.91428 0.22160 0.38207
 H1113 H 0.92558 0.26904 0.43173
 H1114 H 0.87680 0.27656 0.43577
 H1115 H 0.86545 0.22906 0.38611
 H1116 H 0.87353 0.27796 0.38635
 C1117 C 0.12689 0.25457 0.59710
 C1118 C 0.10972 0.27379 0.58899
 C1119 C 0.09058 0.26264 0.60404
 C1120 C 0.10746 0.24364 0.61242
 C1121 C 0.11895 0.23928 0.57664
 C1122 C 0.09980 0.22816 0.59169
 C1123 C 0.10205 0.25829 0.56831
 C1124 C 0.08270 0.24735 0.58356
 C1125 C 0.07406 0.27549 0.61863
 C1126 C 0.05974 0.28589 0.62996
 C1127 C 0.13405 0.22616 0.56077
 C1128 C 0.14574 0.21526 0.54715
 H1129 H 0.14525 0.25738 0.60248
 H1130 H 0.11361 0.29270 0.58806
 H1131 H 0.10949 0.23779 0.63073
 H1132 H 0.09588 0.20925 0.59263
 H1133 H 0.09997 0.26418 0.55001
 H1134 H 0.06434 0.24452 0.57816
 C1135 C 0.10738 0.73833 0.42856
 C1136 C 0.08381 0.74775 0.41947
 C1137 C 0.09041 0.73958 0.39485
 C1138 C 0.11377 0.72996 0.40370
 C1139 C 0.11858 0.76202 0.42313
 C1140 C 0.12524 0.75387 0.39851
 C1141 C 0.09522 0.77160 0.41425
 C1142 C 0.10160 0.76326 0.38939
 C1143 C 0.07409 0.72727 0.37962
 C1144 C 0.06001 0.71735 0.36763
 C1145 C 0.13363 0.77471 0.43935
 C1146 C 0.14533 0.78532 0.45315
 H1147 H 0.10992 0.72821 0.44484
 H1148 H 0.06660 0.74511 0.42791
 H1149 H 0.12120 0.71269 0.39916
 H1150 H 0.14245 0.75653 0.39008
 H1151 H 0.08774 0.78885 0.41875
 H1152 H 0.09903 0.77337 0.37311
 C1153 C 0.56933 0.90159 0.74604
 C1154 C 0.58696 0.91834 0.75763
 C1155 C 0.60561 0.91036 0.74014
 C1156 C 0.58820 0.89382 0.72837
 C1157 C 0.57732 0.88219 0.76267
 C1158 C 0.59596 0.87416 0.74518
 C1159 C 0.59473 0.89875 0.77443
 C1160 C 0.61364 0.89099 0.75675
 C1161 C 0.62083 0.92671 0.72780
 C1162 C 0.63281 0.94081 0.71786
 C1163 C 0.56107 0.86714 0.77538
 C1164 C 0.54724 0.85543 0.78600
 H1165 H 0.55094 0.90580 0.74177
 H1166 H 0.58342 0.93669 0.76261
 H1167 H 0.58570 0.89198 0.70928
 H1168 H 0.59947 0.85581 0.74022
 H1169 H 0.59725 0.90061 0.79350
 H1170 H 0.63204 0.88682 0.76100
 C1171 C 0.43097 0.89928 0.25603
 C1172 C 0.41392 0.91678 0.24466
 C1173 C 0.39491 0.90896 0.26183
 C1174 C 0.41175 0.89168 0.27339
 C1175 C 0.42259 0.88048 0.23894
 C1176 C 0.40359 0.87261 0.25610
 C1177 C 0.40574 0.89778 0.22739
 C1178 C 0.38648 0.89019 0.24475
 C1179 C 0.38010 0.92550 0.27439
 C1180 C 0.36852 0.93978 0.28455
 C1181 C 0.43857 0.86529 0.22606
 C1182 C 0.45225 0.85351 0.21534
 H1183 H 0.44943 0.90286 0.26053
 H1184 H 0.41800 0.93512 0.24010
 H1185 H 0.41404 0.88935 0.29244
 H1186 H 0.39952 0.85427 0.26064
 H1187 H 0.40345 0.90013 0.20834
 H1188 H 0.36800 0.88665 0.24027
 C1189 C 0.56799 0.10189 0.25891
 C1190 C 0.58232 0.08188 0.24792
 C1191 C 0.60359 0.08965 0.26216
 C1192 C 0.58947 0.10945 0.27336
 C1193 C 0.57599 0.11804 0.23912
 C1194 C 0.59724 0.12587 0.25335
 C1195 C 0.59011 0.09823 0.22794
 C1196 C 0.61162 0.10578 0.24237
 C1197 C 0.61837 0.07316 0.27481
 C1198 C 0.62993 0.05892 0.28501
 C1199 C 0.56008 0.13320 0.22614
 C1200 C 0.54647 0.14499 0.21535
 H1201 H 0.54988 0.10045 0.26558
 H1202 H 0.57635 0.06362 0.24582
 H1203 H 0.58939 0.11388 0.29218
 H1204 H 0.60320 0.14414 0.25542
 H1205 H 0.59020 0.09377 0.20913
 H1206 H 0.62974 0.10718 0.23573
 C1207 C 0.40474 0.12710 0.74342
 C1208 C 0.41300 0.10778 0.72644
 C1209 C 0.39560 0.09086 0.73775
 C1210 C 0.38707 0.10990 0.75452
 C1211 C 0.42319 0.11904 0.76104
 C1212 C 0.40579 0.10211 0.77234
 C1213 C 0.43167 0.09998 0.74427
 C1214 C 0.41407 0.08286 0.75538
 C1215 C 0.38085 0.07446 0.72498
 C1216 C 0.36935 0.06023 0.71470
 C1217 C 0.43911 0.13406 0.77414
 C1218 C 0.45274 0.14572 0.78502
 H1219 H 0.40108 0.14548 0.73866
 H1220 H 0.41578 0.10993 0.70743
 H1221 H 0.36855 0.11379 0.75857
 H1222 H 0.40300 0.09994 0.79135
 H1223 H 0.45017 0.09605 0.74019
 H1224 H 0.41774 0.06448 0.76016
 C1225 C 0.57729 0.76445 0.09282
 C1226 C 0.60423 0.76523 0.09387
 C1227 C 0.60480 0.73863 0.09105
 C1228 C 0.57808 0.73769 0.08978
 C1229 C 0.57660 0.76110 0.11936
 C1230 C 0.57716 0.73450 0.11654
 C1231 C 0.60332 0.76207 0.12068
 C1232 C 0.60416 0.73523 0.11759
 C1233 C 0.61993 0.72631 0.07461
 C1234 C 0.63177 0.71637 0.06039
 C1235 C 0.56037 0.77379 0.13445
 C1236 C 0.54653 0.78438 0.14616
 H1237 H 0.56608 0.77658 0.08278
 H1238 H 0.61553 0.77772 0.08437
 H1239 H 0.56786 0.72754 0.07689
 H1240 H 0.56586 0.72200 0.12603
 H1241 H 0.61351 0.77224 0.13356
 H1242 H 0.61540 0.72307 0.12757
 C1243 C 0.43148 0.25542 0.10008
 C1244 C 0.41470 0.24399 0.08239
 C1245 C 0.39538 0.26074 0.09033
 C1246 C 0.41195 0.27237 0.10781
 C1247 C 0.42328 0.23798 0.11866
 C1248 C 0.40397 0.25473 0.12666
 C1249 C 0.40670 0.22637 0.10117
 C1250 C 0.38713 0.24331 0.10890
 C1251 C 0.38041 0.27322 0.07389
 C1252 C 0.36867 0.28328 0.05970
 C1253 C 0.43933 0.22515 0.13379
 C1254 C 0.45302 0.21446 0.14557
 H1255 H 0.44989 0.26027 0.09660
 H1256 H 0.41894 0.23971 0.06401
 H1257 H 0.41393 0.29143 0.11035
 H1258 H 0.39975 0.25899 0.14504
 H1259 H 0.40472 0.20731 0.09861
 H1260 H 0.36871 0.23848 0.11233
 C1261 C 0.59477 0.25545 0.87405
 C1262 C 0.58660 0.27250 0.89334
 C1263 C 0.60379 0.26104 0.91033
 C1264 C 0.61224 0.24419 0.89133
 C1265 C 0.57610 0.23801 0.88205
 C1266 C 0.59329 0.22656 0.89905
 C1267 C 0.56770 0.25487 0.90107
 C1268 C 0.58510 0.24360 0.91828
 C1269 C 0.61863 0.27372 0.92672
 C1270 C 0.63025 0.28399 0.94085
 C1271 C 0.56013 0.22510 0.86691
 C1272 C 0.54648 0.21441 0.85509
 H1273 H 0.59857 0.26017 0.85568
 H1274 H 0.58402 0.29154 0.89117
 H1275 H 0.63073 0.23996 0.88751
 H1276 H 0.59588 0.20752 0.90124
 H1277 H 0.54922 0.25913 0.90493
 H1278 H 0.58129 0.23887 0.93664
 C1279 C 0.43150 0.74636 0.90163
 C1280 C 0.41361 0.75773 0.91829
 C1281 C 0.39534 0.73984 0.91044
 C1282 C 0.41302 0.72827 0.89399
 C1283 C 0.42322 0.76267 0.88209
 C1284 C 0.40496 0.74478 0.87419
 C1285 C 0.40553 0.77422 0.89856
 C1286 C 0.38700 0.75614 0.89093
 C1287 C 0.38037 0.72730 0.92688
 C1288 C 0.36863 0.71716 0.94104
 C1289 C 0.43927 0.77553 0.86695
 C1290 C 0.45298 0.78623 0.85518
 H1291 H 0.44997 0.74247 0.90588
 H1292 H 0.41700 0.76291 0.93661
 H1293 H 0.41593 0.70924 0.89229
 H1294 H 0.40159 0.73961 0.85587
 H1295 H 0.40262 0.79326 0.90028
 H1296 H 0.36853 0.76000 0.88672
 C1297 C 0.77378 0.89855 0.40650
 C1298 C 0.75677 0.89069 0.38709
 C1299 C 0.73937 0.90933 0.39523
 C1300 C 0.75619 0.91741 0.41439
 C1301 C 0.76219 0.88122 0.42329
 C1302 C 0.74477 0.89988 0.43138
 C1303 C 0.74537 0.87308 0.40415
 C1304 C 0.72776 0.89201 0.41201
 C1305 C 0.72685 0.92567 0.38018
 C1306 C 0.71674 0.93980 0.36841
 C1307 C 0.77503 0.86620 0.43944
 C1308 C 0.78571 0.85451 0.45321
 H1309 H 0.79285 0.90107 0.40441
 H1310 H 0.76155 0.88710 0.36869
 H1311 H 0.76050 0.93581 0.41843
 H1312 H 0.73997 0.90351 0.44977
 H1313 H 0.74107 0.85468 0.40012
 H1314 H 0.70869 0.88951 0.41409
 C1315 C 0.25438 0.87382 0.59628
 C1316 C 0.27244 0.89227 0.58830
 C1317 C 0.26078 0.91017 0.60443
 C1318 C 0.24293 0.89201 0.61268
 C1319 C 0.23806 0.88176 0.57662
 C1320 C 0.22642 0.89967 0.59275
 C1321 C 0.25591 0.89994 0.56841
 C1322 C 0.24445 0.91805 0.58475
 C1323 C 0.27324 0.92665 0.61935
 C1324 C 0.28330 0.94087 0.63105
 C1325 C 0.22525 0.86659 0.56061
 C1326 C 0.21457 0.85479 0.54694
 H1327 H 0.25831 0.85545 0.60083
 H1328 H 0.29150 0.88941 0.58665
 H1329 H 0.23775 0.88894 0.63106
 H1330 H 0.20736 0.90256 0.59442
 H1331 H 0.26112 0.90305 0.55004
 H1332 H 0.24051 0.93642 0.58018
 C1333 C 0.22952 0.11233 0.39806
 C1334 C 0.25505 0.11555 0.38976
 C1335 C 0.25967 0.08972 0.39499
 C1336 C 0.23437 0.08626 0.40303
 C1337 C 0.23719 0.11816 0.42302
 C1338 C 0.24184 0.09232 0.42819
 C1339 C 0.26250 0.12165 0.41500
 C1340 C 0.26732 0.09556 0.41995
 C1341 C 0.27203 0.07324 0.37994
 C1342 C 0.28203 0.05903 0.36815
 C1343 C 0.22453 0.13336 0.43917
 C1344 C 0.21400 0.14518 0.45296
 H1345 H 0.21383 0.11941 0.38925
 H1346 H 0.26064 0.12489 0.37378
 H1347 H 0.22294 0.07153 0.39794
 H1348 H 0.23628 0.08292 0.44415
 H1349 H 0.27392 0.13637 0.42011
 H1350 H 0.28299 0.08848 0.42878
 C1351 C 0.74654 0.09816 0.56936
 C1352 C 0.75817 0.08190 0.58743
 C1353 C 0.74015 0.08974 0.60562
 C1354 C 0.72833 0.10578 0.58777
 C1355 C 0.76257 0.11802 0.57736
 C1356 C 0.74455 0.12591 0.59554
 C1357 C 0.77438 0.10197 0.59522
 C1358 C 0.75617 0.10959 0.61368
 C1359 C 0.72785 0.07336 0.62085
 C1360 C 0.71792 0.05927 0.63284
 C1361 C 0.77522 0.13314 0.56112
 C1362 C 0.78577 0.14491 0.54730
 H1363 H 0.74270 0.09360 0.55096
 H1364 H 0.76363 0.06362 0.58426
 H1365 H 0.70925 0.10717 0.58489
 H1366 H 0.73910 0.14419 0.59870
 H1367 H 0.79345 0.10056 0.59811
 H1368 H 0.75998 0.11410 0.63208
 C1369 C 0.90198 0.56824 0.25375
 C1370 C 0.91817 0.58640 0.24214
 C1371 C 0.91019 0.60453 0.26015
 C1372 C 0.89421 0.58658 0.27195
 C1373 C 0.88209 0.57618 0.23770
 C1374 C 0.87405 0.59429 0.25571
 C1375 C 0.89808 0.59413 0.22592
 C1376 C 0.89032 0.61251 0.24412
 C1377 C 0.92649 0.61979 0.27244
 C1378 C 0.94056 0.63181 0.28234
 C1379 C 0.86707 0.55992 0.22503
 C1380 C 0.85538 0.54609 0.21444
 H1381 H 0.90662 0.54987 0.25758
 H1382 H 0.93649 0.58333 0.23670
 H1383 H 0.89280 0.58366 0.29101
 H1384 H 0.85573 0.59735 0.26114
 H1385 H 0.89951 0.59707 0.20686
 H1386 H 0.88571 0.63090 0.24031
 C1387 C 0.89088 0.42951 0.73625
 C1388 C 0.91524 0.42171 0.74474
 C1389 C 0.90949 0.39665 0.73737
 C1390 C 0.88534 0.40421 0.72867
 C1391 C 0.88100 0.42409 0.76054
 C1392 C 0.87519 0.39903 0.75320
 C1393 C 0.90517 0.41651 0.76920
 C1394 C 0.89964 0.39122 0.76166
 C1395 C 0.92603 0.38201 0.72460
 C1396 C 0.94031 0.37062 0.71424
 C1397 C 0.86581 0.43995 0.77356
 C1398 C 0.85401 0.45355 0.78437
 H1399 H 0.88711 0.44542 0.72593
 H1400 H 0.93189 0.43088 0.74112
 H1401 H 0.87738 0.39897 0.71186
 H1402 H 0.85854 0.38989 0.75683
 H1403 H 0.91317 0.42173 0.78600
 H1404 H 0.90343 0.37530 0.77196
 C1405 C 0.10084 0.59323 0.77434
 C1406 C 0.10849 0.61302 0.75764
 C1407 C 0.09003 0.60489 0.74008
 C1408 C 0.08215 0.58536 0.75660
 C1409 C 0.11847 0.57688 0.76256
 C1410 C 0.09999 0.56880 0.74499
 C1411 C 0.12641 0.59640 0.74605
 C1412 C 0.10765 0.58855 0.72828
 C1413 C 0.07355 0.61992 0.72772
 C1414 C 0.05934 0.63171 0.71772
 C1415 C 0.13367 0.56077 0.77523
 C1416 C 0.14551 0.54702 0.78578
 H1417 H 0.09820 0.59498 0.79342
 H1418 H 0.11179 0.63138 0.76268
 H1419 H 0.06378 0.58099 0.76079
 H1420 H 0.09665 0.55045 0.73992
 H1421 H 0.14478 0.60076 0.74186
 H1422 H 0.11027 0.58680 0.70920
 C1423 C 0.12506 0.40636 0.25713
 C1424 C 0.10378 0.41412 0.27189
 C1425 C 0.08915 0.39492 0.26038
 C1426 C 0.11014 0.38689 0.24582
 C1427 C 0.11732 0.42312 0.23775
 C1428 C 0.10268 0.40392 0.22625
 C1429 C 0.09631 0.43110 0.25233
 C1430 C 0.08146 0.41169 0.24100
 C1431 C 0.07283 0.37972 0.27279
 C1432 C 0.05876 0.36774 0.28278
 C1433 C 0.13240 0.43931 0.22500
 C1434 C 0.14417 0.45309 0.21438
 H1435 H 0.14316 0.40436 0.26361
 H1436 H 0.10406 0.41813 0.29081
 H1437 H 0.11564 0.36853 0.24330
 H1438 H 0.10238 0.39990 0.20734
 H1439 H 0.09077 0.44945 0.25487
 H1440 H 0.06335 0.41372 0.23451
   
