data_POSCAR
  _audit_creation_date              2014-09-24
  _audit_creation_method            'ToBaCCo'
  _symmetry_space_group_name_H-M    'P1'
  _symmetry_Int_Tables_number       1
  _symmetry_cell_setting            triclinic
  loop_
  _symmetry_equiv_pos_as_xyz
 x,y,z
_cell_length_a 39.8996
_cell_length_b 40.5171
_cell_length_c 48.6400
_cell_angle_alpha 89.830000
_cell_angle_beta 89.470300
_cell_angle_gamma 90.149000
loop_
  _atom_site_label
  _atom_site_type_symbol
  _atom_site_fract_x
  _atom_site_fract_y
  _atom_site_fract_z
B1 B 0.28574 0.24366 0.28412
 B2 B 0.24486 0.23531 0.27831
 B3 B 0.25737 0.27427 0.28574
 B4 B 0.29532 0.28070 0.27040
 B5 B 0.30540 0.24528 0.25332
 B6 B 0.27426 0.21744 0.25887
 B7 B 0.24798 0.26973 0.23076
 B8 B 0.28893 0.27727 0.23629
 B9 B 0.27604 0.23872 0.22907
 B10 B 0.23843 0.23234 0.24428
 B11 B 0.22808 0.26771 0.26138
 B12 B 0.25968 0.29563 0.25621
 B13 B 0.72702 0.76692 0.22351
 B14 B 0.71824 0.72709 0.22993
 B15 B 0.75670 0.73754 0.21848
 B16 B 0.76726 0.77433 0.23217
 B17 B 0.73502 0.78615 0.25317
 B18 B 0.70445 0.75652 0.25180
 B19 B 0.75997 0.72801 0.27324
 B20 B 0.76935 0.76773 0.26648
 B21 B 0.73075 0.75744 0.27819
 B22 B 0.71986 0.72050 0.26425
 B23 B 0.75227 0.70882 0.24353
 B24 B 0.78295 0.73832 0.24497
 B25 B 0.74102 0.23763 -0.21589
 B26 B 0.73588 0.27728 -0.22519
 B27 B 0.77423 0.26394 -0.21711
 B28 B 0.77825 0.22457 -0.22801
 B29 B 0.74163 0.21414 -0.24407
 B30 B 0.71540 0.24734 -0.24204
 B31 B 0.77028 0.26562 -0.27236
 B32 B 0.77541 0.22596 -0.26231
 B33 B 0.73711 0.24011 -0.27118
 B34 B 0.73285 0.27927 -0.25986
 B35 B 0.76934 0.28959 -0.24434
 B36 B 0.79591 0.25673 -0.24594
 B37 B 0.25863 0.75791 -0.28943
 B38 B 0.21885 0.76360 -0.27833
 B39 B 0.23224 0.72534 -0.28611
 B40 B 0.27262 0.72177 -0.27660
 B41 B 0.28405 0.75846 -0.26237
 B42 B 0.25053 0.78460 -0.26347
 B43 B 0.23355 0.73161 -0.23086
 B44 B 0.27303 0.72639 -0.24228
 B45 B 0.25955 0.76449 -0.23425
 B46 B 0.21906 0.76800 -0.24358
 B47 B 0.20770 0.73150 -0.25794
 B48 B 0.24141 0.70549 -0.25697
 B49 B 1.23547 1.27031 0.71691
 B50 B 1.22339 1.23292 0.72871
 B51 B 1.26320 1.23929 0.71754
 B52 B 1.27536 1.27779 0.72684
 B53 B 1.24255 1.29480 0.74414
 B54 B 1.21017 1.26733 0.74504
 B55 B 1.26291 1.24024 0.77296
 B56 B 1.27439 1.27806 0.76171
 B57 B 1.23488 1.27185 0.77257
 B58 B 1.22260 1.23343 0.76346
 B59 B 1.25536 1.21619 0.74606
 B60 B 1.28768 1.24414 0.74481
 B61 B 0.77527 0.73722 0.77986
 B62 B 0.73829 0.72109 0.77060
 B63 B 0.74069 0.76118 0.77968
 B64 B 0.77757 0.77648 0.76806
 B65 B 0.79762 0.74526 0.75108
 B66 B 0.77323 0.71070 0.75300
 B67 B 0.73927 0.75750 0.72412
 B68 B 0.77620 0.77416 0.73354
 B69 B 0.77372 0.73396 0.72434
 B70 B 0.73685 0.71848 0.73617
 B71 B 0.71696 0.74970 0.75278
 B72 B 0.74119 0.78432 0.75087
 B73 B 1.25385 0.72483 0.29093
 B74 B 1.24260 0.76362 0.28259
 B75 B 1.28339 0.75459 0.28723
 B76 B 1.29093 0.71646 0.27508
 B77 B 1.25410 0.70181 0.26241
 B78 B 1.22383 0.73116 0.26713
 B79 B 1.27173 0.75674 0.23261
 B80 B 1.28337 0.71819 0.24118
 B81 B 1.24261 0.72697 0.23623
 B82 B 1.23484 0.76518 0.24842
 B83 B 1.27140 0.77975 0.26134
 B84 B 1.30162 0.75069 0.25636
 B85 B 0.75024 1.26667 0.21652
 B86 B 0.70990 1.27079 0.22660
 B87 B 0.72558 1.23312 0.21994
 B88 B 0.76561 1.23168 0.23068
 B89 B 0.77478 1.26926 0.24418
 B90 B 0.74011 1.29370 0.24153
 B91 B 0.72399 1.24176 0.27499
 B92 B 0.76442 1.23769 0.26509
 B93 B 0.74885 1.27547 0.27147
 B94 B 0.70865 1.27670 0.26080
 B95 B 0.69957 1.23886 0.24720
 B96 B 0.73439 1.21458 0.25013
 N97 N 0.54925 1.03162 0.02670
 N98 N 0.57301 1.05183 0.03541
 N99 N 0.53103 0.95874 0.04029
 N100 N 0.54121 0.93734 0.05886
 N101 N 0.55422 0.96294 0.02123
 N102 N 0.58079 0.94466 0.02653
 N103 N 0.52622 1.02744 0.04591
 N104 N 0.53380 1.04450 0.06802
 C105 C 0.56264 1.06010 0.06110
 C106 C 0.57203 0.92833 0.04982
 N107 N 0.43426 0.95417 0.02436
 N108 N 0.40967 0.93422 0.03240
 N109 N 0.45411 1.02251 0.04762
 N110 N 0.44653 1.04114 0.06896
 N111 N 0.43009 1.02354 0.02934
 N112 N 0.40569 1.04334 0.03773
 N113 N 0.45864 0.95369 0.04238
 N114 N 0.45102 0.93364 0.06292
 Mn115 Mn 0.49251 0.99054 0.04409
 C116 C 0.42094 0.92083 0.05612
 C117 C 0.41664 1.05453 0.06234
 N118 N 0.55238 0.96923 -0.03788
 N119 N 0.57594 0.94792 -0.04507
 N120 N 0.52359 1.03881 -0.05081
 N121 N 0.52952 1.06216 -0.06925
 N122 N 0.54768 1.03804 -0.03259
 N123 N 0.57071 1.06054 -0.03835
 N124 N 0.52825 0.96955 -0.05604
 N125 N 0.53461 0.94829 -0.07593
 Mn126 Mn 0.55109 1.00051 -0.00567
 C127 C 0.56440 0.93483 -0.06883
 C128 C 0.55879 1.07582 -0.06099
 N129 N 0.42794 1.02946 -0.02994
 N130 N 0.40162 1.04824 -0.03496
 N131 N 0.45611 0.96459 -0.05426
 N132 N 0.45093 0.94430 -0.07490
 N133 N 0.43276 0.96086 -0.03525
 N134 N 0.41077 0.93816 -0.04278
 N135 N 0.45104 1.03351 -0.04911
 N136 N 0.44107 1.05536 -0.06744
 Mn137 Mn 0.43100 0.99197 -0.00286
 Mn138 Mn 0.48973 1.00168 -0.05276
 Cl139 Cl 0.49105 0.99617 -0.00431
 C140 C 0.41042 1.06471 -0.05817
 C141 C 0.42281 0.92772 -0.06743
 N142 N 1.04011 0.45769 0.45536
 N143 N 1.06679 0.45063 0.44024
 N144 N 0.96461 0.43644 0.46038
 N145 N 0.94020 0.41730 0.45131
 N146 N 0.97162 0.45981 0.44244
 N147 N 0.95232 0.45720 0.42074
 N148 N 1.03346 0.43361 0.47274
 N149 N 1.05547 0.40954 0.46977
 C150 C 1.07644 0.42070 0.44969
 C151 C 0.93279 0.43068 0.42649
 N152 N 0.94358 0.45711 0.53716
 N153 N 0.91721 0.45033 0.55271
 N154 N 1.01705 0.43217 0.53065
 N155 N 1.04118 0.41174 0.53789
 N156 N 1.01253 0.45497 0.54944
 N157 N 1.03354 0.45078 0.56989
 N158 N 0.94836 0.43390 0.51875
 N159 N 0.92570 0.41023 0.52189
 Mn160 Mn 0.99077 0.43362 0.49558
 C161 C 0.90592 0.42134 0.54271
 C162 C 1.05118 0.42368 0.56250
 N163 N 0.97345 0.53057 0.44396
 N164 N 0.95650 0.53717 0.42154
 N165 N 1.03602 0.55179 0.47558
 N166 N 1.05771 0.57624 0.47312
 N167 N 1.04193 0.52909 0.45695
 N168 N 1.06796 0.53764 0.44139
 N169 N 0.96734 0.55270 0.46302
 N170 N 0.94583 0.57496 0.45404
 Mn171 Mn 1.00697 0.49425 0.44948
 C172 C 0.93915 0.56469 0.42814
 C173 C 1.07795 0.56686 0.45212
 N174 N 1.01408 0.52596 0.55107
 N175 N 1.03421 0.52886 0.57225
 N176 N 0.95117 0.55176 0.52136
 N177 N 0.93062 0.57673 0.52607
 N178 N 0.94522 0.52770 0.53890
 N179 N 0.92006 0.53536 0.55547
 N180 N 1.01989 0.54952 0.53308
 N181 N 1.04435 0.56898 0.54140
 Mn182 Mn 0.97882 0.49139 0.54436
 Mn183 Mn 0.99349 0.55175 0.49824
 Cl184 Cl 0.99247 0.49275 0.49691
 C185 C 1.05304 0.55572 0.56590
 C186 C 0.91078 0.56575 0.54695
 N187 N 0.97791 0.53702 -0.04416
 N188 N 0.96057 0.54468 -0.06622
 N189 N 1.04404 0.56104 -0.01893
 N190 N 1.06205 0.58730 -0.02576
 N191 N 1.04779 0.53768 -0.03748
 N192 N 1.06872 0.54765 -0.05708
 N193 N 0.97423 0.55986 -0.02523
 N194 N 0.95397 0.58342 -0.03392
 C195 C 0.94522 0.57331 -0.05940
 C196 C 1.07794 0.57841 -0.04926
 N197 N 1.03229 0.53647 0.05896
 N198 N 1.05301 0.54132 0.07944
 N199 N 0.96550 0.55997 0.03385
 N200 N 0.94290 0.58327 0.03808
 N201 N 0.96233 0.53641 0.05227
 N202 N 0.93721 0.54278 0.06924
 N203 N 1.03533 0.56006 0.04052
 N204 N 1.05812 0.58189 0.04824
 Mn205 Mn 1.00479 0.56046 0.00759
 C206 C 1.06915 0.56956 0.07252
 C207 C 0.92509 0.57191 0.05999
 N208 N 1.04785 0.46532 -0.03703
 N209 N 1.06971 0.45604 -0.05605
 N210 N 0.97505 0.44220 -0.02495
 N211 N 0.95344 0.41940 -0.03276
 N212 N 0.97786 0.46555 -0.04365
 N213 N 0.95787 0.45946 -0.06448
 N214 N 1.04445 0.44204 -0.01825
 N215 N 1.06369 0.41653 -0.02424
 Mn216 Mn 1.01297 0.50135 -0.04072
 C217 C 1.07986 0.42582 -0.04755
 C218 C 0.94265 0.43073 -0.05734
 N219 N 0.96233 0.46552 0.05238
 N220 N 0.93657 0.45965 0.06886
 N221 N 1.03544 0.44216 0.04086
 N222 N 1.05774 0.41997 0.04870
 N223 N 1.03243 0.46552 0.05933
 N224 N 1.05272 0.46005 0.08008
 N225 N 0.96551 0.44195 0.03411
 N226 N 0.94220 0.41907 0.03798
 Mn227 Mn 0.99731 0.50099 0.05592
 Mn228 Mn 1.00511 0.44185 0.00795
 Cl229 Cl 1.00518 0.50119 0.00761
 C230 C 0.92403 0.43076 0.05954
 C231 C 1.06856 0.43169 0.07317
 N232 N 0.56900 1.02997 0.54190
 N233 N 0.59005 1.05333 0.54972
 N234 N 0.54046 0.95958 0.55445
 N235 N 0.54235 0.93475 0.57191
 N236 N 0.56714 0.96063 0.53847
 N237 N 0.58792 0.93643 0.54467
 N238 N 0.54277 1.02882 0.55836
 N239 N 0.54514 1.05139 0.57769
 C240 C 0.57466 1.06661 0.57206
 C241 C 0.57193 0.92029 0.56545
 N242 N 0.44779 0.96589 0.52703
 N243 N 0.42101 0.94711 0.53062
 N244 N 0.47157 1.03162 0.55147
 N245 N 0.46187 1.05034 0.57206
 N246 N 0.45121 1.03490 0.53056
 N247 N 0.42693 1.05600 0.53665
 N248 N 0.46856 0.96236 0.54764
 N249 N 0.45653 0.94068 0.56558
 Mn250 Mn 0.50586 0.99545 0.55319
 C251 C 0.42717 0.93094 0.55439
 C252 C 0.43441 1.06587 0.56252
 N253 N 0.57664 0.96492 0.47996
 N254 N 0.59989 0.94239 0.47566
 N255 N 0.55809 1.03594 0.46215
 N256 N 0.56763 1.05928 0.44483
 N257 N 0.57890 1.03386 0.48282
 N258 N 0.60379 1.05523 0.47967
 N259 N 0.55587 0.96624 0.45921
 N260 N 0.56416 0.94422 0.44039
 Mn261 Mn 0.57330 0.99743 0.51087
 C262 C 0.59138 0.92925 0.45117
 C263 C 0.59589 1.07137 0.45615
 N264 N 0.46082 1.03880 0.47136
 N265 N 0.43984 1.06238 0.46400
 N266 N 0.48443 0.96957 0.45211
 N267 N 0.48105 0.94803 0.43214
 N268 N 0.45800 0.96926 0.46839
 N269 N 0.43602 0.94702 0.46005
 N270 N 0.48716 1.03859 0.45500
 N271 N 0.48494 1.06199 0.43626
 Mn272 Mn 0.45410 1.00234 0.49925
 Mn273 Mn 0.52143 1.00253 0.45689
 Cl274 Cl 0.51363 0.99946 0.50507
 C275 C 0.45551 1.07693 0.44223
 C276 C 0.45100 0.93383 0.43749
 N277 N 1.05533 1.03696 0.52499
 N278 N 1.08086 1.05537 0.53296
 N279 N 1.02868 0.96865 0.54216
 N280 N 1.03500 0.94727 0.56191
 N281 N 1.05219 0.96776 0.52310
 N282 N 1.07518 0.94561 0.52952
 N283 N 1.03100 1.03798 0.54335
 N284 N 1.03916 1.05740 0.56399
 C285 C 1.07009 1.06853 0.55706
 C286 C 1.06379 0.93269 0.55366
 N287 N 0.93299 0.97185 0.52362
 N288 N 0.90757 0.95277 0.53120
 N289 N 0.95883 1.03987 0.54331
 N290 N 0.95120 1.05887 0.56434
 N291 N 0.93487 1.04063 0.52496
 N292 N 0.91023 1.05998 0.53326
 N293 N 0.95685 0.97071 0.54205
 N294 N 0.94854 0.95054 0.56223
 Mn295 Mn 0.99382 1.00438 0.54282
 C296 C 0.91805 0.93910 0.55507
 C297 C 0.92116 1.07170 0.55762
 N298 N 1.05221 0.97056 0.46318
 N299 N 1.07535 0.94934 0.45500
 N300 N 1.03074 1.04174 0.44734
 N301 N 1.03634 1.06612 0.42996
 N302 N 1.05486 1.03970 0.46544
 N303 N 1.07791 1.06251 0.46055
 N304 N 1.02843 0.97270 0.44478
 N305 N 1.03449 0.95297 0.42393
 Mn306 Mn 1.05406 1.00363 0.49413
 C307 C 1.06353 0.93820 0.43063
 C308 C 1.06564 1.07903 0.43854
 N309 N 0.93515 1.04331 0.46568
 N310 N 0.91201 1.06539 0.45951
 N311 N 0.95703 0.97470 0.44491
 N312 N 0.95047 0.95379 0.42500
 N313 N 0.93353 0.97370 0.46394
 N314 N 0.91029 0.95176 0.45747
 N315 N 0.95918 1.04362 0.44710
 N316 N 0.95305 1.06558 0.42780
 Mn317 Mn 0.93378 1.00731 0.49452
 Mn318 Mn 0.99391 1.00825 0.44592
 Cl319 Cl 0.99391 1.00584 0.49441
 C320 C 0.92384 1.07937 0.43594
 C321 C 0.92147 0.93937 0.43316
 N322 N 0.53476 0.45065 -0.03473
 N323 N 0.54149 0.43373 -0.05714
 N324 N 0.54836 0.46624 0.02598
 N325 N 0.56550 0.46072 0.04847
 N326 N 0.52566 0.44322 0.02240
 N327 N 0.52719 0.42092 0.04232
 N328 N 0.55707 0.47409 -0.03121
 N329 N 0.57964 0.47379 -0.05125
 C330 C 0.56921 0.44868 -0.06737
 C331 C 0.55219 0.43244 0.05848
 N332 N 0.52323 0.55804 0.03313
 N333 N 0.52441 0.57554 0.05597
 N334 N 0.55636 0.54440 -0.02414
 N335 N 0.57880 0.55039 -0.04359
 N336 N 0.53309 0.56718 -0.02394
 N337 N 0.53885 0.58918 -0.04344
 N338 N 0.54712 0.53588 0.03271
 N339 N 0.56528 0.53769 0.05515
 Mn340 Mn 0.55267 0.50513 0.00075
 C341 C 0.55039 0.56203 0.06972
 C342 C 0.56759 0.57851 -0.05537
 N343 N 0.45376 0.44327 0.01433
 N344 N 0.44749 0.42237 0.03458
 N345 N 0.44146 0.47361 -0.04418
 N346 N 0.42521 0.47176 -0.06771
 N347 N 0.46413 0.45029 -0.04260
 N348 N 0.46382 0.43183 -0.06484
 N349 N 0.43014 0.46570 0.01286
 N350 N 0.40726 0.46074 0.03217
 Mn351 Mn 0.49454 0.44635 -0.01003
 C352 C 0.41825 0.43350 0.04541
 C353 C 0.43978 0.44571 -0.08047
 N354 N 0.46227 0.56716 -0.03168
 N355 N 0.46013 0.59189 -0.04919
 N356 N 0.42904 0.53594 0.01954
 N357 N 0.40560 0.53628 0.03894
 N358 N 0.45220 0.55807 0.02467
 N359 N 0.44531 0.57403 0.04749
 N360 N 0.44030 0.54409 -0.03743
 N361 N 0.42284 0.55229 -0.05931
 Mn362 Mn 0.49269 0.56300 0.00067
 Mn363 Mn 0.43472 0.50481 -0.01247
 Cl364 Cl 0.49361 0.50481 -0.00523
 C365 C 0.43579 0.58204 -0.06647
 C366 C 0.41620 0.56030 0.05619
 C367 C 0.30515 1.21375 0.15403
 C368 C 0.31420 1.18010 0.15735
 C369 C 0.30827 1.16565 0.18347
 C370 C 0.29436 1.18403 0.20501
 C371 C 0.28699 1.21780 0.20212
 C372 C 0.29189 1.23218 0.17607
 C373 C 0.31685 1.13288 0.18846
 C374 C 0.33304 1.11437 0.16857
 C375 C 0.34097 1.12779 0.14254
 C376 C 0.32964 1.16042 0.13617
 C377 C 0.33407 1.17195 0.10893
 C378 C 0.34968 1.15257 0.08887
 C379 C 0.36293 1.12161 0.09539
 C380 C 0.35950 1.10927 0.12259
 C381 C 0.37586 1.07932 0.12910
 C382 C 0.39405 1.06206 0.10930
 C383 C 0.39617 1.07345 0.08222
 C384 C 0.38031 1.10315 0.07518
 H385 H 0.30908 1.22679 0.13492
 H386 H 0.29048 1.17162 0.22450
 H387 H 0.28629 1.25799 0.17278
 H388 H 0.31164 1.12153 0.20826
 H389 H 0.33838 1.08916 0.17406
 H390 H 0.32503 1.19573 0.10237
 H391 H 0.35219 1.16231 0.06817
 H392 H 0.37626 1.06919 0.14959
 H393 H 0.40656 1.03946 0.11524
 H394 H 0.38266 1.11248 0.05433
 C395 C 0.83843 0.71523 0.66547
 C396 C 0.82362 0.68874 0.65116
 C397 C 0.79225 0.67683 0.66087
 C398 C 0.77578 0.69229 0.68307
 C399 C 0.79091 0.71856 0.69724
 C400 C 0.82265 0.72924 0.68831
 C401 C 0.77797 0.64891 0.64891
 C402 C 0.79509 0.63141 0.62861
 C403 C 0.82665 0.64209 0.61861
 C404 C 0.83981 0.67256 0.62860
 C405 C 0.86865 0.68587 0.61566
 C406 C 0.88548 0.66883 0.59500
 C407 C 0.87502 0.63738 0.58715
 C408 C 0.84558 0.62337 0.59899
 C409 C 0.83740 0.59048 0.59182
 C410 C 0.85810 0.57223 0.57423
 C411 C 0.88683 0.58642 0.56245
 C412 C 0.89466 0.61931 0.56836
 H413 H 0.86315 0.72441 0.66049
 H414 H 0.75164 0.68290 0.68985
 H415 H 0.83619 0.74778 0.69943
 H416 H 0.75380 0.63980 0.65596
 H417 H 0.78261 0.60989 0.62062
 H418 H 0.87840 0.70993 0.62073
 H419 H 0.90765 0.67992 0.58577
 H420 H 0.81623 0.57759 0.60068
 H421 H 0.85196 0.54664 0.57020
 H422 H 0.91738 0.63011 0.55980
 C423 C 0.65065 0.80109 0.18354
 C424 C 0.66466 0.82048 0.16236
 C425 C 0.70011 0.82143 0.15973
 C426 C 0.72054 0.80493 0.17909
 C427 C 0.70588 0.78681 0.20080
 C428 C 0.67065 0.78510 0.20226
 C429 C 0.71465 0.83862 0.13770
 C430 C 0.69480 0.85469 0.11831
 C431 C 0.65942 0.85506 0.12068
 C432 C 0.64431 0.83841 0.14359
 C433 C 0.60928 0.84085 0.14757
 C434 C 0.58939 0.85780 0.12933
 C435 C 0.60337 0.87324 0.10644
 C436 C 0.63847 0.87208 0.10144
 C437 C 0.65081 0.88820 0.07747
 C438 C 0.62922 0.90561 0.06007
 C439 C 0.59483 0.90739 0.06600
 C440 C 0.58215 0.89062 0.08891
 H441 H 0.62416 0.79682 0.18599
 H442 H 0.74759 0.80602 0.17714
 H443 H 0.65763 0.77048 0.21764
 H444 H 0.74167 0.83944 0.13527
 H445 H 0.70799 0.86730 0.10193
 H446 H 0.59623 0.83082 0.16516
 H447 H 0.56265 0.85910 0.13341
 H448 H 0.67694 0.88795 0.07169
 H449 H 0.63960 0.91832 0.04231
 H450 H 0.55551 0.89161 0.09352
 C451 C 1.19049 0.28332 0.64637
 C452 C 1.18290 0.31747 0.64682
 C453 C 1.19658 0.33646 0.66840
 C454 C 1.21537 0.32154 0.68914
 C455 C 1.22035 0.28724 0.68979
 C456 C 1.20889 0.26863 0.66747
 C457 C 1.19059 0.37026 0.66985
 C458 C 1.16933 0.38547 0.65144
 C459 C 1.15311 0.36736 0.63068
 C460 C 1.16144 0.33324 0.62730
 C461 C 1.14751 0.31605 0.60491
 C462 C 1.12506 0.33119 0.58719
 C463 C 1.11489 0.36371 0.59144
 C464 C 1.12865 0.38225 0.61333
 C465 C 1.11631 0.41458 0.61764
 C466 C 1.09150 0.42776 0.60095
 C467 C 1.07827 0.40949 0.57925
 C468 C 1.09038 0.37759 0.57433
 H469 H 1.18171 0.26701 0.63054
 H470 H 1.22478 0.33693 0.70553
 H471 H 1.21343 0.24240 0.66641
 H472 H 1.20176 0.38505 0.68591
 H473 H 1.16620 0.41166 0.65404
 H474 H 1.15350 0.29071 0.60044
 H475 H 1.11485 0.31694 0.57038
 H476 H 1.12440 0.43005 0.63428
 H477 H 1.08249 0.45244 0.60521
 H478 H 1.07997 0.36317 0.55770
 C479 C 0.72359 1.18237 -0.15086
 C480 C 0.68839 1.18535 -0.14716
 C481 C 0.67133 1.20749 -0.16468
 C482 C 0.68871 1.22523 -0.18502
 C483 C 0.72335 1.22112 -0.18932
 C484 C 0.74061 1.19979 -0.17171
 C485 C 0.63670 1.21127 -0.16248
 C486 C 0.61806 1.19195 -0.14443
 C487 C 0.63346 1.16828 -0.12744
 C488 C 0.66932 1.16635 -0.12756
 C489 C 0.68473 1.14537 -0.10824
 C490 C 0.66580 1.12582 -0.09034
 C491 C 0.63085 1.12553 -0.09155
 C492 C 0.61414 1.14649 -0.11031
 C493 C 0.57878 1.14378 -0.11196
 C494 C 0.56099 1.12121 -0.09568
 C495 C 0.57759 1.10103 -0.07689
 C496 C 0.61251 1.10368 -0.07459
 H497 H 0.73849 1.16575 -0.13874
 H498 H 0.67464 1.24171 -0.19813
 H499 H 0.76719 1.19565 -0.17453
 H500 H 0.62368 1.22878 -0.17544
 H501 H 0.59146 1.19646 -0.14403
 H502 H 0.71155 1.14383 -0.10620
 H503 H 0.67874 1.11004 -0.07589
 H504 H 0.56418 1.15776 -0.12640
 H505 H 0.53406 1.11936 -0.09797
 H506 H 0.62563 1.08768 -0.06041
 C507 C 1.24195 0.65667 0.34744
 C508 C 1.21032 0.66472 0.35906
 C509 C 1.19609 0.69532 0.35153
 C510 C 1.21060 0.71449 0.33065
 C511 C 1.24138 0.70602 0.31839
 C512 C 1.25732 0.67722 0.32768
 C513 C 1.16649 0.70613 0.36391
 C514 C 1.15014 0.68689 0.38342
 C515 C 1.16184 0.65510 0.39022
 C516 C 1.19173 0.64329 0.37712
 C517 C 1.20056 0.60986 0.38097
 C518 C 1.18014 0.58847 0.39623
 C519 C 1.15135 0.59998 0.40964
 C520 C 1.14313 0.63395 0.40820
 C521 C 1.11610 0.64536 0.42455
 C522 C 1.09620 0.62345 0.43961
 C523 C 1.10221 0.58947 0.43871
 C524 C 1.13029 0.57782 0.42416
 H525 H 1.25532 0.63466 0.35325
 H526 H 1.19634 0.73508 0.32299
 H527 H 1.28094 0.66955 0.31866
 H528 H 1.15569 0.72974 0.35833
 H529 H 1.12698 0.69674 0.39143
 H530 H 1.22211 0.59908 0.37094
 H531 H 1.18696 0.56264 0.39753
 H532 H 1.10995 0.67116 0.42636
 H533 H 1.07515 0.63314 0.45124
 H534 H 1.13566 0.55160 0.42410
 C535 C 0.27087 0.81581 -0.16647
 C536 C 0.30608 0.82099 -0.16569
 C537 C 0.32541 0.80791 -0.18763
 C538 C 0.31020 0.79104 -0.20920
 C539 C 0.27542 0.78565 -0.20969
 C540 C 0.25593 0.79836 -0.18808
 C541 C 0.36010 0.81141 -0.18807
 C542 C 0.37638 0.82844 -0.16755
 C543 C 0.35854 0.84309 -0.14560
 C544 C 0.32286 0.83879 -0.14428
 C545 C 0.30532 0.85266 -0.12177
 C546 C 0.32179 0.87088 -0.10173
 C547 C 0.35634 0.87628 -0.10329
 C548 C 0.37525 0.86226 -0.12515
 C549 C 0.41014 0.86879 -0.12605
 C550 C 0.42518 0.88916 -0.10676
 C551 C 0.40638 0.90352 -0.08561
 C552 C 0.37202 0.89640 -0.08353
 H553 H 0.25416 0.82487 -0.15072
 H554 H 0.32609 0.78125 -0.22538
 H555 H 0.22905 0.79483 -0.18781
 H556 H 0.37497 0.80092 -0.20464
 H557 H 0.40320 0.82961 -0.16971
 H558 H 0.27862 0.85005 -0.11913
 H559 H 0.30717 0.88135 -0.08502
 H560 H 0.42666 0.85934 -0.14173
 H561 H 0.45180 0.89410 -0.10871
 H562 H 0.35725 0.90760 -0.06725
 C563 C 0.76949 0.31534 0.34312
 C564 C 0.79720 0.33589 0.33641
 C565 C 0.80473 0.34062 0.30821
 C566 C 0.78805 0.32246 0.28815
 C567 C 0.76297 0.29941 0.29513
 C568 C 0.75224 0.29803 0.32266
 C569 C 0.82969 0.36268 0.29998
 C570 C 0.84818 0.37975 0.31921
 C571 C 0.84314 0.37463 0.34766
 C572 C 0.81784 0.35170 0.35646
 C573 C 0.81537 0.34401 0.38474
 C574 C 0.83732 0.35775 0.40370
 C575 C 0.86164 0.38068 0.39544
 C576 C 0.86384 0.39048 0.36747
 C577 C 0.88697 0.41567 0.36038
 C578 C 0.90857 0.42876 0.37980
 C579 C 0.90802 0.41741 0.40698
 C580 C 0.88407 0.39371 0.41488
 H581 H 0.76054 0.31229 0.36397
 H582 H 0.79556 0.32595 0.26687
 H583 H 0.73165 0.28231 0.32880
 H584 H 0.83535 0.36650 0.27835
 H585 H 0.86758 0.39553 0.31096
 H586 H 0.79767 0.32613 0.39265
 H587 H 0.83525 0.35030 0.42507
 H588 H 0.88876 0.42622 0.34007
 H589 H 0.92624 0.44762 0.37327
 H590 H 0.88289 0.38543 0.43608
 C591 C 1.19669 0.28292 0.16249
 C592 C 1.18781 0.31686 0.16391
 C593 C 1.19929 0.33475 0.18691
 C594 C 1.21794 0.31939 0.20742
 C595 C 1.22728 0.28601 0.20578
 C596 C 1.21596 0.26786 0.18315
 C597 C 1.19199 0.36813 0.18978
 C598 C 1.17267 0.38439 0.17066
 C599 C 1.15934 0.36781 0.14775
 C600 C 1.16753 0.33363 0.14392
 C601 C 1.15489 0.31754 0.12047
 C602 C 1.13440 0.33391 0.10178
 C603 C 1.12539 0.36690 0.10571
 C604 C 1.13785 0.38434 0.12872
 C605 C 1.12766 0.41757 0.13207
 C606 C 1.10580 0.43250 0.11373
 C607 C 1.09326 0.41525 0.09121
 C608 C 1.10352 0.38247 0.08703
 H609 H 1.18882 0.26728 0.14587
 H610 H 1.22472 0.33406 0.22506
 H611 H 1.22152 0.24180 0.18156
 H612 H 1.20125 0.38197 0.20721
 H613 H 1.16867 0.41017 0.17467
 H614 H 1.16035 0.29208 0.11601
 H615 H 1.12513 0.32041 0.08420
 H616 H 1.13549 0.43283 0.14889
 H617 H 1.09847 0.45784 0.11743
 H618 H 1.09385 0.36883 0.06967
 C619 C 0.71727 0.78566 0.64920
 C620 C 0.68386 0.79693 0.65236
 C621 C 0.66728 0.78966 0.67750
 C622 C 0.68464 0.77547 0.69938
 C623 C 0.71880 0.76759 0.69704
 C624 C 0.73421 0.77088 0.67110
 C625 C 0.63369 0.79779 0.68127
 C626 C 0.61637 0.81464 0.66113
 C627 C 0.63234 0.82500 0.63655
 C628 C 0.66665 0.81593 0.63200
 C629 C 0.68308 0.82783 0.60811
 C630 C 0.66709 0.84899 0.58990
 C631 C 0.63394 0.85860 0.59439
 C632 C 0.61566 0.84569 0.61716
 C633 C 0.58163 0.85501 0.62006
 C634 C 0.56743 0.87826 0.60259
 C635 C 0.58630 0.89272 0.58138
 C636 C 0.61923 0.88194 0.57674
 H637 H 0.73119 0.78840 0.63023
 H638 H 0.67141 0.77201 0.71871
 H639 H 0.76020 0.76435 0.66806
 H640 H 0.62074 0.79171 0.70033
 H641 H 0.59079 0.82054 0.66621
 H642 H 0.70895 0.82244 0.60352
 H643 H 0.68111 0.85848 0.57237
 H644 H 0.56524 0.84515 0.63576
 H645 H 0.54164 0.88549 0.60617
 H646 H 0.63385 0.89258 0.56001
 C647 C 1.21722 0.66127 -0.17742
 C648 C 1.19066 0.67297 -0.16097
 C649 C 1.18104 0.70642 -0.16431
 C650 C 1.19559 0.72617 -0.18549
 C651 C 1.22052 0.71321 -0.20306
 C652 C 1.23123 0.68063 -0.19806
 C653 C 1.15644 0.71950 -0.14686
 C654 C 1.14113 0.70007 -0.12648
 C655 C 1.14880 0.66616 -0.12344
 C656 C 1.17326 0.65227 -0.14163
 C657 C 1.17848 0.61778 -0.14088
 C658 C 1.16087 0.59754 -0.12281
 C659 C 1.13788 0.61071 -0.10420
 C660 C 1.13206 0.64529 -0.10362
 C661 C 1.10970 0.65728 -0.08320
 C662 C 1.09311 0.63567 -0.06502
 C663 C 1.09775 0.60144 -0.06681
 C664 C 1.12039 0.58923 -0.08635
 H665 H 1.22781 0.63702 -0.17504
 H666 H 1.18663 0.75105 -0.18885
 H667 H 1.24994 0.66888 -0.21085
 H668 H 1.14890 0.74505 -0.14896
 H669 H 1.12225 0.71201 -0.11406
 H670 H 1.19509 0.60523 -0.15492
 H671 H 1.16533 0.57116 -0.12345
 H672 H 1.10480 0.68324 -0.08059
 H673 H 1.07586 0.64579 -0.04994
 H674 H 1.12449 0.56282 -0.08763
 C675 C 0.66433 1.22749 0.33823
 C676 C 0.67538 1.19694 0.34900
 C677 C 0.70438 1.18270 0.33707
 C678 C 0.71920 1.19672 0.31354
 C679 C 0.70810 1.22701 0.30290
 C680 C 0.68052 1.24222 0.31571
 C681 C 0.71819 1.15420 0.34837
 C682 C 0.70350 1.13908 0.37114
 C683 C 0.67323 1.15095 0.38261
 C684 C 0.65836 1.17973 0.37076
 C685 C 0.62606 1.18911 0.37982
 C686 C 0.60837 1.17034 0.39904
 C687 C 0.62279 1.14255 0.41103
 C688 C 0.65617 1.13361 0.40425
 C689 C 0.67067 1.10709 0.41897
 C690 C 0.65161 1.08831 0.43757
 C691 C 0.61767 1.09522 0.44174
 C692 C 0.60361 1.12288 0.42908
 H693 H 0.64357 1.24087 0.34705
 H694 H 0.73943 1.18361 0.30342
 H695 H 0.67093 1.26545 0.30810
 H696 H 0.74069 1.14346 0.33953
 H697 H 0.71541 1.11686 0.37830
 H698 H 0.61285 1.20977 0.37113
 H699 H 0.58298 1.17752 0.40439
 H700 H 0.69660 1.10020 0.41645
 H701 H 0.66296 1.06720 0.44751
 H702 H 0.57739 1.12856 0.43275
 C703 C 0.81305 0.72825 0.15226
 C704 C 0.80964 0.69414 0.14612
 C705 C 0.78598 0.67585 0.16179
 C706 C 0.76822 0.69055 0.18333
 C707 C 0.77270 0.72396 0.19016
 C708 C 0.79491 0.74278 0.17398
 C709 C 0.78075 0.64244 0.15668
 C710 C 0.80039 0.62585 0.13771
 C711 C 0.82633 0.64208 0.12313
 C712 C 0.82970 0.67712 0.12603
 C713 C 0.85345 0.69360 0.10919
 C714 C 0.87440 0.67627 0.09128
 C715 C 0.87326 0.64183 0.09003
 C716 C 0.84926 0.62424 0.10603
 C717 C 0.85034 0.58930 0.10540
 C718 C 0.87446 0.57272 0.08989
 C719 C 0.89796 0.59014 0.07407
 C720 C 0.89681 0.62475 0.07367
 H721 H 0.83042 0.74406 0.14136
 H722 H 0.75157 0.67512 0.19554
 H723 H 0.79938 0.76849 0.17875
 H724 H 0.76178 0.62868 0.16802
 H725 H 0.79453 0.60012 0.13494
 H726 H 0.85646 0.72003 0.10941
 H727 H 0.89249 0.68994 0.07896
 H728 H 0.83394 0.57391 0.11763
 H729 H 0.87503 0.54600 0.09062
 H730 H 0.91536 0.63839 0.06177
 C731 C 0.30220 1.21688 0.64493
 C732 C 0.31575 1.18502 0.64982
 C733 C 0.31178 1.17178 0.67659
 C734 C 0.29516 1.18933 0.69708
 C735 C 0.28093 1.22045 0.69215
 C736 C 0.28538 1.23436 0.66590
 C737 C 0.32451 1.14088 0.68323
 C738 C 0.34286 1.12319 0.66426
 C739 C 0.34935 1.13580 0.63773
 C740 C 0.33395 1.16615 0.62969
 C741 C 0.33718 1.17616 0.60194
 C742 C 0.35552 1.15748 0.58295
 C743 C 0.37265 1.12906 0.59115
 C744 C 0.37047 1.11854 0.61894
 C745 C 0.39053 1.09172 0.62726
 C746 C 0.41082 1.07523 0.60862
 C747 C 0.41189 1.08448 0.58094
 C748 C 0.39260 1.11137 0.57209
 H749 H 0.30504 1.22921 0.62537
 H750 H 0.29360 1.17812 0.71727
 H751 H 0.27655 1.25903 0.66161
 H752 H 0.32056 1.13031 0.70353
 H753 H 0.35101 1.09915 0.67091
 H754 H 0.32513 1.19805 0.59421
 H755 H 0.35702 1.16586 0.56179
 H756 H 0.39222 1.08356 0.64830
 H757 H 0.42578 1.05483 0.61604
 H758 H 0.39400 1.11911 0.55075
 C759 C 0.83192 0.27574 -0.15256
 C760 C 0.83243 0.31063 -0.14953
 C761 C 0.81310 0.32937 -0.16811
 C762 C 0.79466 0.31399 -0.18862
 C763 C 0.79439 0.27953 -0.19176
 C764 C 0.81325 0.26054 -0.17343
 C765 C 0.81229 0.36365 -0.16654
 C766 C 0.83171 0.38026 -0.14773
 C767 C 0.85280 0.36314 -0.12954
 C768 C 0.85188 0.32776 -0.12936
 C769 C 0.87034 0.31098 -0.10904
 C770 C 0.88975 0.32811 -0.09012
 C771 C 0.89254 0.36247 -0.09129
 C772 C 0.87454 0.38041 -0.11137
 C773 C 0.87994 0.41492 -0.11310
 C774 C 0.90176 0.43088 -0.09535
 C775 C 0.91871 0.41327 -0.07509
 C776 C 0.91381 0.37906 -0.07292
 H777 H 0.84630 0.25962 -0.13958
 H778 H 0.78043 0.32952 -0.20238
 H779 H 0.81413 0.23398 -0.17547
 H780 H 0.79677 0.37794 -0.18034
 H781 H 0.82913 0.40671 -0.14768
 H782 H 0.86987 0.28450 -0.10700
 H783 H 0.90339 0.31420 -0.07480
 H784 H 0.86868 0.43026 -0.12857
 H785 H 0.90547 0.45726 -0.09760
 H786 H 0.92745 0.36518 -0.05758
 C787 C 0.33018 0.77418 0.35630
 C788 C 0.34636 0.80450 0.34990
 C789 C 0.34494 0.81572 0.32238
 C790 C 0.32517 0.79947 0.30323
 C791 C 0.30716 0.77072 0.31010
 C792 C 0.31167 0.75712 0.33638
 C793 C 0.36278 0.84359 0.31396
 C794 C 0.38222 0.86088 0.33233
 C795 C 0.38348 0.85169 0.36027
 C796 C 0.36402 0.82405 0.36954
 C797 C 0.36149 0.81812 0.39810
 C798 C 0.37706 0.83893 0.41695
 C799 C 0.39733 0.86510 0.40799
 C800 C 0.40221 0.87055 0.37943
 C801 C 0.42581 0.89470 0.37106
 C802 C 0.44188 0.91436 0.39022
 C803 C 0.43482 0.91096 0.41826
 C804 C 0.41282 0.88603 0.42722
 H805 H 0.33197 0.76290 0.37635
 H806 H 0.32405 0.80969 0.28266
 H807 H 0.29966 0.73408 0.34199
 H808 H 0.36169 0.85221 0.29285
 H809 H 0.39447 0.88264 0.32429
 H810 H 0.34609 0.79854 0.40648
 H811 H 0.37343 0.83430 0.43873
 H812 H 0.43301 0.89847 0.34986
 H813 H 0.45944 0.93293 0.38291
 H814 H 0.40820 0.88264 0.44905
 C815 C 1.22105 1.16627 0.33046
 C816 C 1.18806 1.17470 0.33836
 C817 C 1.17154 1.19953 0.32306
 C818 C 1.18893 1.21749 0.30270
 C819 C 1.22311 1.21159 0.29772
 C820 C 1.23803 1.18421 0.31032
 C821 C 1.13807 1.20685 0.32868
 C822 C 1.12038 1.18957 0.34884
 C823 C 1.13597 1.16493 0.36484
 C824 C 1.17083 1.15875 0.36049
 C825 C 1.18759 1.13753 0.37883
 C826 C 1.17039 1.12089 0.39953
 C827 C 1.13579 1.12412 0.40233
 C828 C 1.11799 1.14620 0.38509
 C829 C 1.08270 1.14740 0.38799
 C830 C 1.06595 1.12656 0.40638
 C831 C 1.08377 1.10457 0.42291
 C832 C 1.11872 1.10427 0.42156
 H833 H 1.23430 1.14569 0.33927
 H834 H 1.17637 1.23737 0.29202
 H835 H 1.26345 1.17702 0.30530
 H836 H 1.12531 1.22601 0.31724
 H837 H 1.09468 1.19683 0.35198
 H838 H 1.21434 1.13384 0.37808
 H839 H 1.18421 1.10454 0.41296
 H840 H 1.06714 1.16280 0.37533
 H841 H 1.03880 1.12695 0.40711
 H842 H 1.13251 1.08685 0.43407
 C843 C 0.71843 0.64824 -0.17935
 C844 C 0.68383 0.65255 -0.17368
 C845 C 0.66668 0.67724 -0.18863
 C846 C 0.68377 0.69713 -0.20763
 C847 C 0.71852 0.69464 -0.21115
 C848 C 0.73532 0.66888 -0.19788
 C849 C 0.63265 0.68272 -0.18409
 C850 C 0.61549 0.66566 -0.16368
 C851 C 0.63175 0.64206 -0.14714
 C852 C 0.66590 0.63397 -0.15328
 C853 C 0.68097 0.60790 -0.13863
 C854 C 0.66384 0.59134 -0.11780
 C855 C 0.63144 0.60064 -0.11025
 C856 C 0.61495 0.62629 -0.12465
 C857 C 0.58273 0.63587 -0.11527
 C858 C 0.56755 0.62032 -0.09282
 C859 C 0.58379 0.59468 -0.07909
 C860 C 0.61562 0.58476 -0.08800
 H861 H 0.73349 0.62997 -0.16918
 H862 H 0.66974 0.71518 -0.21916
 H863 H 0.76191 0.66512 -0.20117
 H864 H 0.61931 0.70112 -0.19593
 H865 H 0.58925 0.67137 -0.16155
 H866 H 0.70602 0.59940 -0.14291
 H867 H 0.67643 0.57153 -0.10702
 H868 H 0.56891 0.65594 -0.12423
 H869 H 0.54296 0.62849 -0.08616
 H870 H 0.62845 0.56508 -0.07725
 C871 C 0.85094 1.17723 0.70780
 C872 C 0.83656 1.16016 0.68549
 C873 C 0.80115 1.16008 0.68346
 C874 C 0.78153 1.17769 0.70235
 C875 C 0.79654 1.19894 0.72123
 C876 C 0.83118 1.19618 0.72533
 C877 C 0.78554 1.14371 0.66190
 C878 C 0.80442 1.12949 0.64101
 C879 C 0.83979 1.13042 0.64133
 C880 C 0.85606 1.14415 0.66478
 C881 C 0.89127 1.14187 0.66652
 C882 C 0.91011 1.12770 0.64568
 C883 C 0.89480 1.11600 0.62203
 C884 C 0.85951 1.11765 0.61918
 C885 C 0.84559 1.10692 0.59403
 C886 C 0.86581 1.09337 0.57342
 C887 C 0.90034 1.09018 0.57725
 C888 C 0.91474 1.10220 0.60130
 H889 H 0.87747 1.17805 0.71151
 H890 H 0.75459 1.17568 0.70146
 H891 H 0.84361 1.21028 0.74115
 H892 H 0.75843 1.14307 0.66055
 H893 H 0.79051 1.11761 0.62493
 H894 H 0.90520 1.15034 0.68399
 H895 H 0.93707 1.12623 0.64799
 H896 H 0.81927 1.10884 0.58957
 H897 H 0.85422 1.08449 0.55479
 H898 H 0.94159 1.10024 0.60417
 C899 C 0.35654 0.68889 0.19412
 C900 C 0.34463 0.65879 0.18333
 C901 C 0.31243 0.64775 0.19175
 C902 C 0.29379 0.66571 0.21116
 C903 C 0.30553 0.69602 0.22107
 C904 C 0.33732 0.70706 0.21253
 C905 C 0.29870 0.61931 0.18025
 C906 C 0.31556 0.60249 0.15946
 C907 C 0.34754 0.61286 0.15016
 C908 C 0.36312 0.64013 0.16364
 C909 C 0.39671 0.64791 0.15706
 C910 C 0.41356 0.63173 0.13617
 C911 C 0.39754 0.60748 0.12089
 C912 C 0.36451 0.59719 0.12774
 C913 C 0.34957 0.57261 0.11109
 C914 C 0.36653 0.55980 0.08819
 C915 C 0.39875 0.57099 0.08139
 C916 C 0.41435 0.59412 0.09827
 H917 H 0.37998 0.69994 0.18783
 H918 H 0.26995 0.65612 0.21814
 H919 H 0.34740 0.73038 0.21948
 H920 H 0.27415 0.61058 0.18673
 H921 H 0.30307 0.58110 0.15129
 H922 H 0.41093 0.66622 0.16798
 H923 H 0.43917 0.63895 0.13143
 H924 H 0.32443 0.56367 0.11458
 H925 H 0.35408 0.54178 0.07540
 H926 H 0.43948 0.60266 0.09332
 C927 C 1.14607 0.82196 0.69810
 C928 C 1.14885 0.82124 0.66899
 C929 C 1.17333 0.80014 0.65741
 C930 C 1.19362 0.78070 0.67425
 C931 C 1.19183 0.78256 0.70301
 C932 C 1.16734 0.80311 0.71470
 C933 C 1.17830 0.79908 0.62902
 C934 C 1.16037 0.81955 0.61168
 C935 C 1.13610 0.84160 0.62206
 C936 C 1.12907 0.84131 0.65103
 C937 C 1.10248 0.86096 0.66098
 C938 C 1.08408 0.88096 0.64346
 C939 C 1.09196 0.88297 0.61548
 C940 C 1.11836 0.86370 0.60437
 C941 C 1.12641 0.86805 0.57610
 C942 C 1.10869 0.89027 0.55970
 C943 C 1.08217 0.90857 0.57073
 C944 C 1.07380 0.90459 0.59862
 H945 H 1.12857 0.83773 0.70872
 H946 H 1.21237 0.76562 0.66455
 H947 H 1.16496 0.80531 0.73681
 H948 H 1.19683 0.78266 0.62008
 H949 H 1.16576 0.81706 0.59005
 H950 H 1.09481 0.86096 0.68227
 H951 H 1.06378 0.89552 0.65204
 H952 H 1.14689 0.85540 0.56616
 H953 H 1.11582 0.89316 0.53828
 H954 H 1.05361 0.91905 0.60748
 C955 C 0.63477 0.28440 0.17667
 C956 C 0.63521 0.31896 0.17231
 C957 C 0.65764 0.33786 0.18834
 C958 C 0.68008 0.32248 0.20626
 C959 C 0.68172 0.28802 0.20823
 C960 C 0.65735 0.26941 0.19455
 C961 C 0.65813 0.37209 0.18613
 C962 C 0.63784 0.38817 0.16748
 C963 C 0.61636 0.37051 0.14983
 C964 C 0.61456 0.33535 0.15258
 C965 C 0.59310 0.31775 0.13487
 C966 C 0.57502 0.33369 0.11449
 C967 C 0.57746 0.36775 0.11086
 C968 C 0.59756 0.38677 0.12888
 C969 C 0.59890 0.42128 0.12450
 C970 C 0.58301 0.43574 0.10221
 C971 C 0.56465 0.41667 0.08374
 C972 C 0.56090 0.38281 0.08866
 H973 H 0.61734 0.26818 0.16664
 H974 H 0.69670 0.33768 0.21837
 H975 H 0.65556 0.24302 0.19747
 H976 H 0.67489 0.38669 0.19867
 H977 H 0.64030 0.41460 0.16709
 H978 H 0.59035 0.29133 0.13570
 H979 H 0.55953 0.31902 0.10097
 H980 H 0.61263 0.43793 0.13742
 H981 H 0.58570 0.46212 0.09913
 H982 H 0.54654 0.36795 0.07446
 C983 C 0.83720 0.83186 0.28914
 C984 C 0.83796 0.82783 0.31808
 C985 C 0.81761 0.80277 0.32980
 C986 C 0.79819 0.78232 0.31310
 C987 C 0.79606 0.78767 0.28464
 C988 C 0.81637 0.81233 0.27285
 C989 C 0.81562 0.79892 0.35828
 C990 C 0.83227 0.82046 0.37559
 C991 C 0.85262 0.84611 0.36500
 C992 C 0.85712 0.84856 0.33581
 C993 C 0.88078 0.87141 0.32538
 C994 C 0.89852 0.89205 0.34276
 C995 C 0.89260 0.89156 0.37106
 C996 C 0.86910 0.86908 0.38263
 C997 C 0.86250 0.87118 0.41128
 C998 C 0.87920 0.89416 0.42767
 C999 C 0.90328 0.91528 0.41615
 C1000 C 0.90990 0.91377 0.38785
 H1001 H 0.85114 0.85094 0.27858
 H1002 H 0.78246 0.76406 0.32291
 H1003 H 0.81572 0.81727 0.25099
 H1004 H 0.80022 0.77958 0.36734
 H1005 H 0.82937 0.81588 0.39732
 H1006 H 0.88685 0.87332 0.30380
 H1007 H 0.91666 0.90904 0.33385
 H1008 H 0.84389 0.85609 0.42151
 H1009 H 0.87345 0.89521 0.44946
 H1010 H 0.92808 0.93054 0.37869
 C1011 C 0.31945 0.30871 -0.17261
 C1012 C 0.34209 0.33250 -0.18219
 C1013 C 0.33937 0.34379 -0.20962
 C1014 C 0.31880 0.32631 -0.22834
 C1015 C 0.29823 0.30018 -0.21880
 C1016 C 0.29699 0.29437 -0.19021
 C1017 C 0.35645 0.37274 -0.21729
 C1018 C 0.37453 0.39089 -0.19774
 C1019 C 0.37895 0.37864 -0.17072
 C1020 C 0.36524 0.34720 -0.16422
 C1021 C 0.37511 0.33092 -0.14001
 C1022 C 0.39523 0.34650 -0.12109
 C1023 C 0.40446 0.37934 -0.12500
 C1024 C 0.39629 0.39624 -0.14970
 C1025 C 0.40381 0.43037 -0.15135
 C1026 C 0.41790 0.44696 -0.12887
 C1027 C 0.42638 0.42951 -0.10502
 C1028 C 0.42056 0.39566 -0.10365
 H1029 H 0.31730 0.30228 -0.15106
 H1030 H 0.31815 0.33353 -0.24979
 H1031 H 0.27890 0.27801 -0.18079
 H1032 H 0.35448 0.38224 -0.23805
 H1033 H 0.38602 0.41374 -0.20442
 H1034 H 0.36805 0.30562 -0.13571
 H1035 H 0.40208 0.33329 -0.10257
 H1036 H 0.39728 0.44494 -0.16913
 H1037 H 0.42219 0.47333 -0.13011
 H1038 H 0.42662 0.38230 -0.08497
 C1039 C 1.21159 0.34681 -0.18120
 C1040 C 1.18990 0.33369 -0.16098
 C1041 C 1.18540 0.29892 -0.16025
 C1042 C 1.20021 0.27863 -0.18072
 C1043 C 1.22000 0.29262 -0.20182
 C1044 C 1.22578 0.32691 -0.20116
 C1045 C 1.16587 0.28490 -0.13927
 C1046 C 1.15055 0.30460 -0.11927
 C1047 C 1.15326 0.33943 -0.11997
 C1048 C 1.17262 0.35414 -0.14164
 C1049 C 1.17309 0.38892 -0.14402
 C1050 C 1.15574 0.40877 -0.12573
 C1051 C 1.13749 0.39502 -0.10407
 C1052 C 1.13642 0.36024 -0.10038
 C1053 C 1.11832 0.34799 -0.07730
 C1054 C 1.10100 0.36935 -0.05961
 C1055 C 1.10096 0.40350 -0.06437
 C1056 C 1.11971 0.41612 -0.08640
 H1057 H 1.21852 0.37249 -0.18217
 H1058 H 1.19585 0.25222 -0.18046
 H1059 H 1.24151 0.33914 -0.21630
 H1060 H 1.16236 0.25839 -0.13827
 H1061 H 1.13576 0.29179 -0.10396
 H1062 H 1.18562 0.40183 -0.16054
 H1063 H 1.15646 0.43529 -0.12875
 H1064 H 1.11709 0.32207 -0.07235
 H1065 H 1.08685 0.35897 -0.04254
 H1066 H 1.12015 0.44254 -0.09003
 C1067 C 0.66942 0.76958 0.34056
 C1068 C 0.67862 0.80116 0.35042
 C1069 C 0.70781 0.81591 0.33914
 C1070 C 0.72408 0.80174 0.31659
 C1071 C 0.71471 0.77067 0.30647
 C1072 C 0.68742 0.75453 0.31913
 C1073 C 0.72004 0.84548 0.34966
 C1074 C 0.70347 0.86129 0.37098
 C1075 C 0.67280 0.84904 0.38150
 C1076 C 0.65950 0.81915 0.37036
 C1077 C 0.62663 0.80963 0.37799
 C1078 C 0.60700 0.82937 0.39509
 C1079 C 0.62007 0.85813 0.40661
 C1080 C 0.65389 0.86710 0.40137
 C1081 C 0.66727 0.89422 0.41591
 C1082 C 0.64700 0.91333 0.43301
 C1083 C 0.61285 0.90635 0.43577
 C1084 C 0.59949 0.87840 0.42301
 H1085 H 0.64857 0.75591 0.34915
 H1086 H 0.74329 0.81607 0.30625
 H1087 H 0.67902 0.73075 0.31175
 H1088 H 0.74269 0.85660 0.34125
 H1089 H 0.71415 0.88441 0.37748
 H1090 H 0.61464 0.78807 0.36957
 H1091 H 0.58131 0.82204 0.39933
 H1092 H 0.69340 0.90101 0.41474
 H1093 H 0.65781 0.93445 0.44331
 H1094 H 0.57317 0.87248 0.42589
 C1095 C 0.79837 0.70499 -0.14619
 C1096 C 0.83068 0.69132 -0.15056
 C1097 C 0.84531 0.69532 -0.17698
 C1098 C 0.82848 0.71233 -0.19772
 C1099 C 0.79581 0.72447 -0.19376
 C1100 C 0.78118 0.72092 -0.16754
 C1101 C 0.87636 0.68137 -0.18313
 C1102 C 0.89256 0.66175 -0.16414
 C1103 C 0.87870 0.65599 -0.13780
 C1104 C 0.84851 0.67277 -0.13019
 C1105 C 0.83757 0.67061 -0.10254
 C1106 C 0.85523 0.65218 -0.08319
 C1107 C 0.88337 0.63377 -0.09093
 C1108 C 0.89466 0.63454 -0.11864
 C1109 C 0.92098 0.61305 -0.12634
 C1110 C 0.93646 0.59289 -0.10705
 C1111 C 0.92681 0.59378 -0.07937
 C1112 C 0.90017 0.61427 -0.07132
 H1113 H 0.78504 0.70220 -0.12693
 H1114 H 0.84062 0.71425 -0.21766
 H1115 H 0.75571 0.72885 -0.16377
 H1116 H 0.88792 0.68491 -0.20320
 H1117 H 0.91657 0.65210 -0.17045
 H1118 H 0.81591 0.68383 -0.09508
 H1119 H 0.84631 0.65174 -0.06208
 H1120 H 0.92950 0.61046 -0.14732
 H1121 H 0.95664 0.57692 -0.11380
 H1122 H 0.89208 0.61443 -0.04998
 C1123 C 0.31093 1.21154 0.35739
 C1124 C 0.34289 1.19755 0.35273
 C1125 C 0.35776 1.20246 0.32649
 C1126 C 0.34003 1.21814 0.30540
 C1127 C 0.30719 1.22978 0.30965
 C1128 C 0.29373 1.22744 0.33629
 C1129 C 0.39001 1.19095 0.32108
 C1130 C 0.40766 1.17379 0.34091
 C1131 C 0.39340 1.16670 0.36696
 C1132 C 0.36033 1.17848 0.37290
 C1133 C 0.34524 1.16955 0.39825
 C1134 C 0.36146 1.14912 0.41685
 C1135 C 0.39362 1.13736 0.41133
 C1136 C 0.41054 1.14691 0.38677
 C1137 C 0.44379 1.13566 0.38285
 C1138 C 0.45845 1.11396 0.40143
 C1139 C 0.44079 1.10287 0.42468
 C1140 C 0.40869 1.11540 0.42995
 H1141 H 0.29837 1.21054 0.37707
 H1142 H 0.35194 1.22035 0.28540
 H1143 H 0.26917 1.23646 0.34090
 H1144 H 0.40164 1.19488 0.30110
 H1145 H 0.43208 1.16526 0.33465
 H1146 H 0.32021 1.17689 0.40395
 H1147 H 0.34846 1.14214 0.43567
 H1148 H 0.45923 1.14299 0.36561
 H1149 H 0.48362 1.10528 0.39717
 H1150 H 0.39504 1.10739 0.44817
 C1151 C 1.19306 0.71553 0.16742
 C1152 C 1.18239 0.68213 0.16900
 C1153 C 1.19091 0.66420 0.19296
 C1154 C 1.20888 0.67909 0.21411
 C1155 C 1.22076 0.71159 0.21184
 C1156 C 1.21174 0.72993 0.18857
 C1157 C 1.18149 0.63131 0.19598
 C1158 C 1.16386 0.61536 0.17562
 C1159 C 1.15453 0.63180 0.15126
 C1160 C 1.16336 0.66592 0.14803
 C1161 C 1.15232 0.68264 0.12425
 C1162 C 1.13277 0.66687 0.10464
 C1163 C 1.12408 0.63363 0.10750
 C1164 C 1.13570 0.61540 0.13046
 C1165 C 1.12769 0.58140 0.13179
 C1166 C 1.10701 0.56687 0.11242
 C1167 C 1.09392 0.58531 0.09070
 C1168 C 1.10331 0.61854 0.08782
 H1169 H 1.18757 0.73116 0.15010
 H1170 H 1.21390 0.66468 0.23239
 H1171 H 1.21894 0.75560 0.18665
 H1172 H 1.18789 0.61760 0.21438
 H1173 H 1.15721 0.59015 0.18010
 H1174 H 1.15777 0.70831 0.12046
 H1175 H 1.12425 0.68093 0.08706
 H1176 H 1.13689 0.56511 0.14750
 H1177 H 1.10091 0.54093 0.11472
 H1178 H 1.09363 0.63289 0.07082
 C1179 C 0.71375 1.20956 0.65484
 C1180 C 0.68211 1.19444 0.65937
 C1181 C 0.66660 1.19932 0.68531
 C1182 C 0.68357 1.21549 0.70644
 C1183 C 0.71627 1.22770 0.70258
 C1184 C 0.73030 1.22613 0.67602
 C1185 C 0.63460 1.18696 0.69061
 C1186 C 0.61790 1.16859 0.67108
 C1187 C 0.63296 1.16103 0.64548
 C1188 C 0.66567 1.17405 0.63952
 C1189 C 0.68145 1.16485 0.61459
 C1190 C 0.66628 1.14301 0.59648
 C1191 C 0.63454 1.12997 0.60210
 C1192 C 0.61696 1.13964 0.62624
 C1193 C 0.58424 1.12686 0.63039
 C1194 C 0.57064 1.10390 0.61239
 C1195 C 0.58881 1.09300 0.58945
 C1196 C 0.62049 1.10673 0.58401
 H1197 H 0.72666 1.20855 0.63531
 H1198 H 0.67142 1.21711 0.72638
 H1199 H 0.75519 1.23544 0.67185
 H1200 H 0.62248 1.19102 0.71036
 H1201 H 0.59364 1.15949 0.67732
 H1202 H 0.70625 1.17313 0.60894
 H1203 H 0.67979 1.13594 0.57798
 H1204 H 0.56833 1.13394 0.64734
 H1205 H 0.54580 1.09428 0.61678
 H1206 H 0.63453 1.09884 0.56602
 C1207 C 0.80657 0.27682 0.15068
 C1208 C 0.80364 0.31092 0.14456
 C1209 C 0.78022 0.32936 0.16022
 C1210 C 0.76171 0.31449 0.18154
 C1211 C 0.76605 0.28114 0.18844
 C1212 C 0.78829 0.26238 0.17235
 C1213 C 0.77624 0.36303 0.15540
 C1214 C 0.79672 0.37952 0.13672
 C1215 C 0.82206 0.36286 0.12190
 C1216 C 0.82418 0.32771 0.12453
 C1217 C 0.84720 0.31080 0.10746
 C1218 C 0.86882 0.32774 0.08973
 C1219 C 0.86904 0.36218 0.08877
 C1220 C 0.84564 0.38026 0.10485
 C1221 C 0.84797 0.41514 0.10429
 C1222 C 0.87285 0.43115 0.08895
 C1223 C 0.89590 0.41322 0.07320
 C1224 C 0.89337 0.37871 0.07260
 H1225 H 0.82381 0.26090 0.13994
 H1226 H 0.74545 0.32983 0.19384
 H1227 H 0.79244 0.23657 0.17699
 H1228 H 0.75769 0.37707 0.16682
 H1229 H 0.79195 0.40552 0.13431
 H1230 H 0.84908 0.28428 0.10730
 H1231 H 0.88634 0.31370 0.07728
 H1232 H 0.83197 0.43084 0.11645
 H1233 H 0.87440 0.45784 0.08979
 H1234 H 0.91147 0.36465 0.06073
 C1235 C 0.32275 0.77136 0.65071
 C1236 C 0.31761 0.80473 0.64339
 C1237 C 0.28881 0.82061 0.65417
 C1238 C 0.26885 0.80501 0.67434
 C1239 C 0.27565 0.77261 0.68304
 C1240 C 0.30211 0.75568 0.67008
 C1241 C 0.28084 0.85249 0.64559
 C1242 C 0.30129 0.86930 0.62692
 C1243 C 0.33157 0.85543 0.61715
 C1244 C 0.34040 0.82304 0.62628
 C1245 C 0.37258 0.81089 0.61955
 C1246 C 0.39557 0.82992 0.60476
 C1247 C 0.38690 0.86107 0.59490
 C1248 C 0.35420 0.87360 0.59980
 C1249 C 0.34563 0.90392 0.58718
 C1250 C 0.36918 0.92176 0.57174
 C1251 C 0.40209 0.91042 0.56888
 C1252 C 0.41083 0.87996 0.58030
 H1253 H 0.34264 0.75676 0.64186
 H1254 H 0.24889 0.81887 0.68413
 H1255 H 0.30803 0.73052 0.67574
 H1256 H 0.25864 0.86470 0.65352
 H1257 H 0.29368 0.89405 0.62179
 H1258 H 0.38146 0.78734 0.62680
 H1259 H 0.42041 0.82006 0.60094
 H1260 H 0.32076 0.91416 0.58846
 H1261 H 0.36189 0.94507 0.56263
 H1262 H 0.43615 0.87080 0.57749
 C1263 C 0.33666 1.20803 -0.18258
 C1264 C 0.32187 1.18594 -0.16377
 C1265 C 0.28635 1.18391 -0.16293
 C1266 C 0.26676 1.20175 -0.18219
 C1267 C 0.28237 1.22208 -0.20209
 C1268 C 0.31760 1.22485 -0.20144
 C1269 C 0.27096 1.16384 -0.14305
 C1270 C 0.29005 1.14576 -0.12429
 C1271 C 0.32553 1.14612 -0.12529
 C1272 C 0.34152 1.16595 -0.14592
 C1273 C 0.37675 1.16429 -0.14890
 C1274 C 0.39593 1.14485 -0.13187
 C1275 C 0.38106 1.12622 -0.11107
 C1276 C 0.34575 1.12672 -0.10704
 C1277 C 0.33251 1.10759 -0.08500
 C1278 C 0.35348 1.08818 -0.06853
 C1279 C 0.38812 1.08709 -0.07359
 C1280 C 0.40163 1.10654 -0.09466
 H1281 H 0.36311 1.21331 -0.18328
 H1282 H 0.23971 1.19931 -0.18200
 H1283 H 0.33132 1.24059 -0.21560
 H1284 H 0.24388 1.16213 -0.14191
 H1285 H 0.27625 1.13087 -0.10968
 H1286 H 0.39052 1.17680 -0.16496
 H1287 H 0.42284 1.14420 -0.13521
 H1288 H 0.30615 1.10716 -0.07999
 H1289 H 0.34244 1.07342 -0.05218
 H1290 H 0.42845 1.10615 -0.09852
 C1291 C 0.78199 0.68509 0.34324
 C1292 C 0.81368 0.67086 0.33746
 C1293 C 0.82610 0.67338 0.31018
 C1294 C 0.80876 0.69135 0.29037
 C1295 C 0.77811 0.70667 0.29653
 C1296 C 0.76433 0.70220 0.32292
 C1297 C 0.85601 0.65814 0.30262
 C1298 C 0.87381 0.63975 0.32145
 C1299 C 0.86282 0.63662 0.34897
 C1300 C 0.83325 0.65382 0.35750
 C1301 C 0.82501 0.65426 0.38580
 C1302 C 0.84486 0.63815 0.40505
 C1303 C 0.87267 0.61971 0.39674
 C1304 C 0.88121 0.61773 0.36842
 C1305 C 0.90756 0.59639 0.36058
 C1306 C 0.92573 0.57917 0.38014
 C1307 C 0.91862 0.58276 0.40816
 C1308 C 0.89197 0.60299 0.41646
 H1309 H 0.76992 0.68276 0.36308
 H1310 H 0.81951 0.69309 0.26989
 H1311 H 0.74018 0.71246 0.32817
 H1312 H 0.86572 0.66028 0.28179
 H1313 H 0.89701 0.62936 0.31402
 H1314 H 0.80400 0.66800 0.39380
 H1315 H 0.83806 0.63975 0.42663
 H1316 H 0.91417 0.59169 0.33942
 H1317 H 0.94583 0.56319 0.37324
 H1318 H 0.88584 0.60512 0.43814
 C1319 C 0.69777 1.20340 0.14677
 C1320 C 0.68104 1.17333 0.15265
 C1321 C 0.68062 1.16230 0.18032
 C1322 C 0.69684 1.18035 0.20084
 C1323 C 0.71256 1.21066 0.19499
 C1324 C 0.71281 1.22181 0.16762
 C1325 C 0.66312 1.13377 0.18767
 C1326 C 0.64440 1.11677 0.16846
 C1327 C 0.64315 1.12723 0.14079
 C1328 C 0.66351 1.15458 0.13236
 C1329 C 0.66578 1.16200 0.10400
 C1330 C 0.64784 1.14399 0.08468
 C1331 C 0.62587 1.11888 0.09290
 C1332 C 0.62258 1.11080 0.12120
 C1333 C 0.59803 1.08724 0.12891
 C1334 C 0.57853 1.07158 0.10927
 C1335 C 0.58300 1.07833 0.08125
 C1336 C 0.60680 1.10200 0.07309
 H1337 H 0.69807 1.21427 0.12652
 H1338 H 0.69557 1.17133 0.22182
 H1339 H 0.72293 1.24566 0.16221
 H1340 H 0.66316 1.12491 0.20873
 H1341 H 0.63175 1.09488 0.17581
 H1342 H 0.68204 1.18111 0.09603
 H1343 H 0.65066 1.15029 0.06310
 H1344 H 0.59251 1.08110 0.15005
 H1345 H 0.56006 1.05363 0.11614
 H1346 H 0.60992 1.10779 0.05144
 C1347 C 1.20949 0.68489 0.64285
 C1348 C 1.18343 0.66274 0.65051
 C1349 C 1.17644 0.65893 0.67888
 C1350 C 1.19225 0.67882 0.69816
 C1351 C 1.21648 0.70240 0.69038
 C1352 C 1.22620 0.70381 0.66262
 C1353 C 1.15320 0.63565 0.68813
 C1354 C 1.13611 0.61609 0.66973
 C1355 C 1.14077 0.61988 0.64113
 C1356 C 1.16400 0.64429 0.63127
 C1357 C 1.16561 0.65062 0.60274
 C1358 C 1.14457 0.63428 0.58455
 C1359 C 1.12228 0.61001 0.59392
 C1360 C 1.12137 0.60131 0.62214
 C1361 C 1.10065 0.57458 0.63033
 C1362 C 1.07943 0.55930 0.61173
 C1363 C 1.07819 0.56996 0.58442
 C1364 C 1.10034 0.59473 0.57537
 H1365 H 1.21786 0.68764 0.62182
 H1366 H 1.18526 0.67563 0.71958
 H1367 H 1.24613 0.72007 0.65590
 H1368 H 1.14795 0.63263 0.70991
 H1369 H 1.11796 0.59940 0.67866
 H1370 H 1.18173 0.66940 0.59403
 H1371 H 1.14567 0.64083 0.56294
 H1372 H 1.10041 0.56467 0.65091
 H1373 H 1.06328 0.53953 0.61902
 H1374 H 1.10023 0.60239 0.55399
 C1375 C 0.72313 0.81235 -0.15317
 C1376 C 0.68772 0.81581 -0.15309
 C1377 C 0.66988 0.79875 -0.17370
 C1378 C 0.68680 0.78006 -0.19365
 C1379 C 0.72193 0.77745 -0.19412
 C1380 C 0.73980 0.79377 -0.17345
 C1381 C 0.63510 0.80116 -0.17504
 C1382 C 0.61747 0.82147 -0.15722
 C1383 C 0.63396 0.84037 -0.13709
 C1384 C 0.66945 0.83640 -0.13413
 C1385 C 0.68535 0.85340 -0.11252
 C1386 C 0.66753 0.87434 -0.09505
 C1387 C 0.63329 0.87987 -0.09867
 C1388 C 0.61604 0.86312 -0.11986
 C1389 C 0.58168 0.87063 -0.12347
 C1390 C 0.56533 0.89355 -0.10675
 C1391 C 0.58228 0.90975 -0.08564
 C1392 C 0.61629 0.90253 -0.08152
 H1393 H 0.73879 0.82463 -0.13844
 H1394 H 0.67213 0.76910 -0.20979
 H1395 H 0.76693 0.79306 -0.17338
 H1396 H 0.62128 0.78760 -0.19045
 H1397 H 0.59070 0.82161 -0.15972
 H1398 H 0.71171 0.85084 -0.10845
 H1399 H 0.68090 0.88688 -0.07882
 H1400 H 0.56678 0.85996 -0.13951
 H1401 H 0.53914 0.89872 -0.11050
 H1402 H 0.62979 0.91519 -0.06542
 C1403 C 1.23646 0.34964 0.33311
 C1404 C 1.21282 0.33652 0.35213
 C1405 C 1.20861 0.30188 0.35255
 C1406 C 1.22467 0.28201 0.33294
 C1407 C 1.24582 0.29533 0.31251
 C1408 C 1.25261 0.32939 0.31381
 C1409 C 1.18732 0.28708 0.37188
 C1410 C 1.16901 0.30601 0.39031
 C1411 C 1.17053 0.34082 0.38971
 C1412 C 1.19266 0.35638 0.37019
 C1413 C 1.19250 0.39117 0.36835
 C1414 C 1.17068 0.41006 0.38422
 C1415 C 1.14880 0.39525 0.40313
 C1416 C 1.14935 0.36056 0.40699
 C1417 C 1.12800 0.34706 0.42761
 C1418 C 1.10542 0.36687 0.44216
 C1419 C 1.10330 0.40072 0.43676
 C1420 C 1.12573 0.41491 0.41773
 H1421 H 1.24272 0.37552 0.33234
 H1422 H 1.21962 0.25613 0.33371
 H1423 H 1.26940 0.34094 0.29903
 H1424 H 1.18426 0.26047 0.37243
 H1425 H 1.15263 0.29248 0.40400
 H1426 H 1.20800 0.40456 0.35388
 H1427 H 1.17065 0.43661 0.38138
 H1428 H 1.12795 0.32126 0.43300
 H1429 H 1.08883 0.35536 0.45713
 H1430 H 1.12476 0.44125 0.41383
 C1431 C 0.30276 0.77376 0.15669
 C1432 C 0.31168 0.80766 0.15745
 C1433 C 0.30443 0.82506 0.18199
 C1434 C 0.28965 0.80907 0.20462
 C1435 C 0.28276 0.77503 0.20436
 C1436 C 0.28868 0.75785 0.17976
 C1437 C 0.31271 0.85834 0.18431
 C1438 C 0.32995 0.87451 0.16343
 C1439 C 0.33937 0.85805 0.13906
 C1440 C 0.32835 0.82473 0.13524
 C1441 C 0.33448 0.80983 0.10945
 C1442 C 0.35168 0.82654 0.08849
 C1443 C 0.36467 0.85817 0.09270
 C1444 C 0.35925 0.87404 0.11833
 C1445 C 0.37507 0.90487 0.12261
 C1446 C 0.39479 0.91949 0.10219
 C1447 C 0.39912 0.90440 0.07664
 C1448 C 0.38375 0.87383 0.07176
 H1449 H 0.30741 0.75859 0.13891
 H1450 H 0.28482 0.82345 0.22295
 H1451 H 0.28305 0.73180 0.17833
 H1452 H 0.30648 0.87196 0.20283
 H1453 H 0.33506 0.90028 0.16686
 H1454 H 0.32577 0.78533 0.10469
 H1455 H 0.35561 0.81417 0.06900
 H1456 H 0.37383 0.91783 0.14190
 H1457 H 0.40680 0.94294 0.10642
 H1458 H 0.38766 0.86179 0.05212
 C1459 C 0.83239 0.28140 0.66648
 C1460 C 0.81675 0.30635 0.65102
 C1461 C 0.78613 0.31937 0.66118
 C1462 C 0.77067 0.30569 0.68483
 C1463 C 0.78641 0.28043 0.69981
 C1464 C 0.81788 0.26947 0.69063
 C1465 C 0.77178 0.34658 0.64812
 C1466 C 0.78830 0.36232 0.62633
 C1467 C 0.81904 0.35026 0.61582
 C1468 C 0.83181 0.32023 0.62690
 C1469 C 0.85927 0.30505 0.61356
 C1470 C 0.87579 0.32034 0.59173
 C1471 C 0.86636 0.35177 0.58304
 C1472 C 0.83780 0.36726 0.59490
 C1473 C 0.83065 0.40001 0.58667
 C1474 C 0.85200 0.41701 0.56856
 C1475 C 0.88020 0.40156 0.55720
 C1476 C 0.88650 0.36852 0.56364
 H1477 H 0.85694 0.27206 0.66131
 H1478 H 0.74691 0.31550 0.69196
 H1479 H 0.83223 0.25223 0.70244
 H1480 H 0.74822 0.35662 0.65550
 H1481 H 0.77606 0.38358 0.61764
 H1482 H 0.86816 0.28092 0.61937
 H1483 H 0.89712 0.30804 0.58239
 H1484 H 0.81007 0.41386 0.59531
 H1485 H 0.84705 0.44274 0.56407
 H1486 H 0.90880 0.35676 0.55538
 C1487 C 1.14325 1.20369 0.68977
 C1488 C 1.15495 1.17616 0.67461
 C1489 C 1.18831 1.16575 0.67912
 C1490 C 1.20841 1.18172 0.69854
 C1491 C 1.19747 1.21039 0.71193
 C1492 C 1.16427 1.22061 0.70784
 C1493 C 1.20194 1.14008 0.66363
 C1494 C 1.18365 1.12529 0.64285
 C1495 C 1.15031 1.13472 0.63748
 C1496 C 1.13510 1.15917 0.65469
 C1497 C 1.10050 1.16530 0.65175
 C1498 C 1.08151 1.14843 0.63245
 C1499 C 1.09645 1.12594 0.61448
 C1500 C 1.13132 1.11966 0.61605
 C1501 C 1.14578 1.09883 0.59585
 C1502 C 1.12603 1.08347 0.57601
 C1503 C 1.09128 1.08791 0.57589
 C1504 C 1.07667 1.10947 0.59500
 H1505 H 1.11856 1.21384 0.68704
 H1506 H 1.23318 1.17233 0.70229
 H1507 H 1.15470 1.24254 0.71781
 H1508 H 1.22743 1.13192 0.66709
 H1509 H 1.19599 1.10565 0.63185
 H1510 H 1.08704 1.18218 0.66486
 H1511 H 1.05487 1.15337 0.63137
 H1512 H 1.17237 1.09436 0.59456
 H1513 H 1.13790 1.06720 0.56124
 H1514 H 1.04981 1.11349 0.59465
 C1515 C 0.67987 0.69656 0.16144
 C1516 C 0.65943 0.67000 0.16931
 C1517 C 0.65281 0.66497 0.19766
 C1518 C 0.67086 0.68318 0.21752
 C1519 C 0.69382 0.70779 0.20912
 C1520 C 0.69625 0.71506 0.18084
 C1521 C 0.62833 0.64190 0.20553
 C1522 C 0.61012 0.62457 0.18569
 C1523 C 0.61771 0.62788 0.15733
 C1524 C 0.64460 0.64916 0.14950
 C1525 C 0.65689 0.64834 0.12224
 C1526 C 0.64154 0.62935 0.10251
 C1527 C 0.61284 0.61133 0.10900
 C1528 C 0.60008 0.61042 0.13638
 C1529 C 0.56972 0.59301 0.14121
 C1530 C 0.55299 0.57737 0.11956
 C1531 C 0.56668 0.57798 0.09298
 C1532 C 0.59665 0.59454 0.08794
 H1533 H 0.68311 0.70410 0.14027
 H1534 H 0.66721 0.67805 0.23922
 H1535 H 0.71225 0.73435 0.17286
 H1536 H 0.62261 0.63783 0.22710
 H1537 H 0.59119 0.60760 0.19311
 H1538 H 0.67933 0.66132 0.11585
 H1539 H 0.65178 0.62944 0.08178
 H1540 H 0.55789 0.59213 0.16123
 H1541 H 0.52952 0.56466 0.12356
 H1542 H 0.60688 0.59517 0.06718
 C1543 C 1.21547 0.80886 0.34984
 C1544 C 1.18779 0.82788 0.34174
 C1545 C 1.17725 0.82546 0.31405
 C1546 C 1.19520 0.80599 0.29508
 C1547 C 1.22304 0.78753 0.30345
 C1548 C 1.23235 0.78907 0.33114
 C1549 C 1.14847 0.84193 0.30564
 C1550 C 1.12925 0.85975 0.32435
 C1551 C 1.13876 0.86267 0.35217
 C1552 C 1.16952 0.84805 0.36055
 C1553 C 1.18130 0.85443 0.38733
 C1554 C 1.16286 0.87318 0.40580
 C1555 C 1.13172 0.88576 0.39857
 C1556 C 1.11894 0.88029 0.37181
 C1557 C 1.08654 0.89225 0.36597
 C1558 C 1.06848 0.91015 0.38546
 C1559 C 1.08195 0.91675 0.41137
 C1560 C 1.11341 0.90411 0.41796
 H1561 H 1.22368 0.80726 0.37085
 H1562 H 1.18680 0.80461 0.27399
 H1563 H 1.25138 0.77332 0.33922
 H1564 H 1.14030 0.84047 0.28448
 H1565 H 1.10742 0.87174 0.31617
 H1566 H 1.20535 0.84611 0.39442
 H1567 H 1.17300 0.87764 0.42606
 H1568 H 1.07421 0.88781 0.34672
 H1569 H 1.04391 0.91924 0.37998
 H1570 H 1.12382 0.90883 0.43809
 C1571 C 0.70190 0.31263 -0.15643
 C1572 C 0.67936 0.33716 -0.16450
 C1573 C 0.67837 0.34627 -0.19261
 C1574 C 0.69625 0.32761 -0.21241
 C1575 C 0.71657 0.30114 -0.20405
 C1576 C 0.72005 0.29533 -0.17569
 C1577 C 0.65970 0.37391 -0.20033
 C1578 C 0.64270 0.39270 -0.18056
 C1579 C 0.64192 0.38303 -0.15257
 C1580 C 0.65872 0.35344 -0.14505
 C1581 C 0.65355 0.34006 -0.11855
 C1582 C 0.63454 0.35638 -0.09915
 C1583 C 0.62063 0.38690 -0.10521
 C1584 C 0.62431 0.40112 -0.13182
 C1585 C 0.61069 0.43298 -0.13614
 C1586 C 0.59355 0.44938 -0.11493
 C1587 C 0.58925 0.43410 -0.08933
 C1588 C 0.60273 0.40308 -0.08461
 H1589 H 0.70683 0.30692 -0.13516
 H1590 H 0.69433 0.33366 -0.23405
 H1591 H 0.73670 0.27683 -0.16766
 H1592 H 0.65883 0.38149 -0.22170
 H1593 H 0.62917 0.41395 -0.18787
 H1594 H 0.66283 0.31612 -0.11258
 H1595 H 0.63107 0.34516 -0.07904
 H1596 H 0.61348 0.44592 -0.15544
 H1597 H 0.58308 0.47360 -0.11865
 H1598 H 0.59936 0.39156 -0.06459
 C1599 C 0.84012 1.18443 0.29030
 C1600 C 0.83735 1.18644 0.31933
 C1601 C 0.81191 1.20684 0.33034
 C1602 C 0.79073 1.22452 0.31298
 C1603 C 0.79234 1.22111 0.28433
 C1604 C 0.81783 1.20128 0.27322
 C1605 C 0.80674 1.20871 0.35869
 C1606 C 0.82530 1.18944 0.37651
 C1607 C 0.85051 1.16808 0.36665
 C1608 C 0.85796 1.16804 0.33776
 C1609 C 0.88573 1.14966 0.32834
 C1610 C 0.90465 1.13079 0.34627
 C1611 C 0.89610 1.12865 0.37409
 C1612 C 0.86870 1.14692 0.38472
 C1613 C 0.86003 1.14236 0.41284
 C1614 C 0.87802 1.12069 0.42953
 C1615 C 0.90540 1.10331 0.41891
 C1616 C 0.91452 1.10773 0.39125
 H1617 H 0.85826 1.16893 0.28014
 H1618 H 0.77118 1.23892 0.32226
 H1619 H 0.82026 1.19802 0.25121
 H1620 H 0.78745 1.22461 0.36718
 H1621 H 0.81969 1.19230 0.39808
 H1622 H 0.89393 1.14988 0.30717
 H1623 H 0.92581 1.11709 0.33811
 H1624 H 0.83880 1.15426 0.42235
 H1625 H 0.87036 1.11740 0.45079
 H1626 H 0.93543 1.09398 0.38272
 C1627 C 0.34032 0.66272 -0.21815
 C1628 C 0.34333 0.66997 -0.18983
 C1629 C 0.32567 0.69754 -0.17951
 C1630 C 0.30322 0.71448 -0.19607
 C1631 C 0.30009 0.70728 -0.22409
 C1632 C 0.31936 0.68143 -0.23503
 C1633 C 0.32974 0.70778 -0.15245
 C1634 C 0.35127 0.69117 -0.13517
 C1635 C 0.36804 0.66243 -0.14395
 C1636 C 0.36270 0.65068 -0.17125
 C1637 C 0.37506 0.61921 -0.17841
 C1638 C 0.39132 0.59956 -0.15920
 C1639 C 0.39779 0.61142 -0.13286
 C1640 C 0.38812 0.64389 -0.12557
 C1641 C 0.39868 0.65645 -0.09998
 C1642 C 0.41543 0.63644 -0.08140
 C1643 C 0.42164 0.60340 -0.08760
 C1644 C 0.41345 0.59101 -0.11349
 H1645 H 0.35435 0.64318 -0.22787
 H1646 H 0.28720 0.73244 -0.18635
 H1647 H 0.31761 0.67490 -0.25653
 H1648 H 0.31631 0.72904 -0.14457
 H1649 H 0.35256 0.70022 -0.11438
 H1650 H 0.37063 0.60830 -0.19824
 H1651 H 0.39903 0.57491 -0.16506
 H1652 H 0.39477 0.68176 -0.09397
 H1653 H 0.42249 0.64652 -0.06167
 H1654 H 0.41939 0.56561 -0.11852
 C1655 C 0.85038 0.82463 0.70249
 C1656 C 0.83548 0.84134 0.68017
 C1657 C 0.80005 0.84065 0.67847
 C1658 C 0.78095 0.82238 0.69754
 C1659 C 0.79659 0.80162 0.71656
 C1660 C 0.83121 0.80522 0.72029
 C1661 C 0.78392 0.85711 0.65717
 C1662 C 0.80226 0.87278 0.63650
 C1663 C 0.83766 0.87298 0.63657
 C1664 C 0.85448 0.85809 0.65934
 C1665 C 0.88978 0.85991 0.66030
 C1666 C 0.90814 0.87536 0.63972
 C1667 C 0.89227 0.88913 0.61709
 C1668 C 0.85689 0.88784 0.61482
 C1669 C 0.84248 0.90131 0.59071
 C1670 C 0.86238 0.91677 0.57060
 C1671 C 0.89708 0.91917 0.57389
 C1672 C 0.91184 0.90466 0.59687
 H1673 H 0.87689 0.82481 0.70630
 H1674 H 0.75393 0.82345 0.69672
 H1675 H 0.84412 0.79164 0.73619
 H1676 H 0.75679 0.85700 0.65596
 H1677 H 0.78784 0.88466 0.62071
 H1678 H 0.90428 0.84982 0.67684
 H1679 H 0.93520 0.87637 0.64149
 H1680 H 0.81598 0.90039 0.58675
 H1681 H 0.85046 0.92768 0.55286
 H1682 H 0.93881 0.90604 0.59935
 C1683 C 0.35996 0.29922 0.18402
 C1684 C 0.34979 0.33009 0.17334
 C1685 C 0.32079 0.34482 0.18499
 C1686 C 0.30277 0.32890 0.20608
 C1687 C 0.31195 0.29743 0.21516
 C1688 C 0.34139 0.28335 0.20452
 C1689 C 0.30939 0.37505 0.17518
 C1690 C 0.32532 0.39055 0.15320
 C1691 C 0.35369 0.37648 0.14026
 C1692 C 0.36690 0.34640 0.15119
 C1693 C 0.39663 0.33354 0.13949
 C1694 C 0.41224 0.34871 0.11723
 C1695 C 0.39878 0.37705 0.10550
 C1696 C 0.36934 0.39145 0.11675
 C1697 C 0.35647 0.41989 0.10357
 C1698 C 0.37237 0.43335 0.08047
 C1699 C 0.40148 0.41901 0.06969
 C1700 C 0.41463 0.39094 0.08236
 H1701 H 0.38152 0.28603 0.17648
 H1702 H 0.28116 0.34097 0.21496
 H1703 H 0.34972 0.25928 0.21130
 H1704 H 0.28742 0.38659 0.18422
 H1705 H 0.31475 0.41377 0.14695
 H1706 H 0.40881 0.31175 0.14715
 H1707 H 0.43494 0.33783 0.10888
 H1708 H 0.33391 0.43212 0.11023
 H1709 H 0.36170 0.45509 0.07097
 H1710 H 0.43718 0.37968 0.07409
   
