data_POSCAR
  _audit_creation_date              2014-09-24
  _audit_creation_method            'ToBaCCo'
  _symmetry_space_group_name_H-M    'P1'
  _symmetry_Int_Tables_number       1
  _symmetry_cell_setting            triclinic
  loop_
  _symmetry_equiv_pos_as_xyz
 x,y,z
_cell_length_a 49.2271
_cell_length_b 49.2727
_cell_length_c 52.1371
_cell_angle_alpha 90.000200
_cell_angle_beta 89.999800
_cell_angle_gamma 90.003300
loop_
  _atom_site_label
  _atom_site_type_symbol
  _atom_site_fract_x
  _atom_site_fract_y
  _atom_site_fract_z
C1 C 0.39574 -0.00010 0.25000
 C2 C 0.10425 0.00009 0.75000
 C3 C 0.60426 0.50010 0.25000
 C4 C 0.89575 0.49991 0.75000
 C5 C 0.24989 0.35276 1.00001
 C6 C 0.75010 0.14723 1.00000
 C7 C 0.25012 0.64723 0.50000
 C8 C 0.74989 0.85276 0.50000
 C9 C 0.00001 0.25000 0.37541
 C10 C -0.00000 0.75000 0.12460
 C11 C 0.50000 0.24999 0.62461
 C12 C 0.50000 0.75000 0.87541
 C13 C -0.25010 0.64597 1.00000
 C14 C -0.24989 0.35403 0.50000
 C15 C 0.25008 -0.14597 -0.00001
 C16 C 0.24991 1.14597 0.50000
 C17 C 0.10298 0.49989 0.25000
 C18 C -0.10298 1.00011 0.24999
 C19 C 0.39702 0.50010 -0.25000
 C20 C 0.60298 -0.00011 -0.25000
 C21 C -0.00001 0.25000 0.87504
 C22 C 0.50000 0.25000 0.12494
 C23 C 0.00001 0.75001 0.62494
 C24 C 0.50000 0.74999 0.37504
 Zr25 Zr 0.02423 -0.01855 1.03454
 O26 O 0.05293 -0.00440 1.06163
 O27 O 0.01945 -0.05883 1.04583
 O28 O 0.00753 -0.01659 1.07252
 O29 O 0.07160 -0.03000 0.98622
 O30 O -0.03208 0.00675 1.06671
 O31 O 0.06335 -0.03670 1.02886
 O32 O -0.01275 -0.07511 1.01826
 O33 O -0.01764 -0.02473 1.02916
 O34 O 0.01949 -0.03843 0.99928
 O35 O 0.00654 0.02032 1.03476
 O36 O 0.04279 0.00662 1.00675
 Zr37 Zr -0.02352 0.01970 0.96464
 Zr38 Zr -0.03484 0.01406 1.02745
 Zr39 Zr 0.03574 -0.01285 0.97163
 Zr40 Zr -0.02200 -0.04320 0.99332
 O41 O 0.06955 0.00936 0.95789
 O42 O -0.05899 -0.05566 1.01053
 O43 O -0.00563 -0.01927 0.96391
 O44 O -0.04142 -0.00557 0.99243
 O45 O -0.01875 0.03991 0.99974
 O46 O 0.01830 0.02566 0.97017
 C47 C 0.00411 -0.07760 1.03687
 C48 C 0.07847 -0.03868 1.00855
 C49 C -0.01439 -0.00499 1.08094
 O50 O -0.07022 -0.00700 1.03908
 O51 O -0.06909 0.03470 1.01366
 O52 O -0.06191 0.03937 0.97064
 C53 C -0.07624 0.04292 0.99128
 O54 O 0.05447 0.04992 1.03308
 Zr55 Zr 0.02297 0.04428 1.00570
 O56 O -0.01968 0.06032 0.95418
 O57 O -0.03986 0.05081 1.04795
 O58 O 0.01099 0.07590 1.03091
 O59 O 0.05800 0.05925 0.98670
 O60 O 0.00992 0.07733 0.98386
 C61 C -0.00650 0.07969 0.96490
 O62 O -0.05311 0.00587 0.93825
 O63 O 0.04325 -0.05015 0.95270
 O64 O -0.00770 0.01623 0.92645
 O65 O 0.03058 -0.00928 0.93208
 O66 O -0.00848 -0.07622 0.97055
 O67 O -0.04985 -0.05086 0.96301
 C68 C 0.01320 0.00298 0.91789
 H69 H 0.02889 -0.05616 0.99855
 H70 H -0.06101 -0.00834 0.98901
 H71 H 0.02651 0.03674 0.95635
 H72 H 0.00965 0.02959 1.05135
 H73 H -0.06057 -0.07556 1.00821
 H74 H -0.08005 0.00503 1.05117
 H75 H -0.05709 0.04930 1.05771
 H76 H 0.02167 0.09228 1.02641
 H77 H -0.01929 -0.09237 0.97546
 H78 H 0.06058 -0.04814 0.94319
 H79 H 0.07921 -0.00261 0.94563
 H80 H 0.05875 0.07909 0.98976
 H81 H -0.05807 -0.06904 0.96531
 H82 H -0.05744 0.02139 0.92684
 H83 H 0.05739 -0.01997 1.07295
 H84 H 0.06067 0.06903 1.03270
 Zr85 Zr 0.52427 0.48145 0.53456
 O86 O 0.55297 0.49560 0.56166
 O87 O 0.51949 0.44118 0.54585
 O88 O 0.50757 0.48341 0.57254
 O89 O 0.57163 0.47001 0.48624
 O90 O 0.46796 0.50675 0.56674
 O91 O 0.56338 0.46330 0.52888
 O92 O 0.48728 0.42490 0.51828
 O93 O 0.48239 0.47528 0.52918
 O94 O 0.51952 0.46158 0.49930
 O95 O 0.50657 0.52033 0.53479
 O96 O 0.54283 0.50663 0.50678
 Zr97 Zr 0.47652 0.51971 0.46466
 Zr98 Zr 0.46519 0.51407 0.52747
 Zr99 Zr 0.53578 0.48716 0.47165
 Zr100 Zr 0.47804 0.45681 0.49334
 O101 O 0.56959 0.50936 0.45791
 O102 O 0.44104 0.44435 0.51055
 O103 O 0.49440 0.48074 0.46394
 O104 O 0.45861 0.49444 0.49245
 O105 O 0.48129 0.53992 0.49977
 O106 O 0.51834 0.52567 0.47020
 C107 C 0.50415 0.42241 0.53689
 C108 C 0.57851 0.46132 0.50858
 C109 C 0.48565 0.49502 0.58096
 O110 O 0.42982 0.49301 0.53911
 O111 O 0.43095 0.53471 0.51369
 O112 O 0.43813 0.53938 0.47066
 C113 C 0.42380 0.54293 0.49130
 O114 O 0.55451 0.54992 0.53310
 Zr115 Zr 0.52301 0.54428 0.50573
 O116 O 0.48036 0.56033 0.45421
 O117 O 0.46018 0.55082 0.54797
 O118 O 0.51104 0.57591 0.53093
 O119 O 0.55804 0.55926 0.48672
 O120 O 0.50997 0.57734 0.48388
 C121 C 0.49354 0.57970 0.46492
 O122 O 0.44693 0.50589 0.43827
 O123 O 0.54329 0.44986 0.45273
 O124 O 0.49234 0.51624 0.42648
 O125 O 0.53062 0.49073 0.43210
 O126 O 0.49156 0.42379 0.47057
 O127 O 0.45019 0.44915 0.46303
 C128 C 0.51324 0.50300 0.41792
 H129 H 0.52893 0.44385 0.49857
 H130 H 0.43903 0.49167 0.48903
 H131 H 0.52655 0.53675 0.45638
 H132 H 0.50969 0.52960 0.55137
 H133 H 0.43946 0.42445 0.50823
 H134 H 0.41999 0.50504 0.55119
 H135 H 0.44295 0.54931 0.55773
 H136 H 0.52172 0.59229 0.52644
 H137 H 0.48074 0.40764 0.47548
 H138 H 0.56061 0.45187 0.44321
 H139 H 0.57925 0.49740 0.44566
 H140 H 0.55879 0.57909 0.48979
 H141 H 0.44197 0.43097 0.46533
 H142 H 0.44260 0.52141 0.42686
 H143 H 0.55743 0.48004 0.57297
 H144 H 0.56071 0.56904 0.53273
 Zr145 Zr 0.47575 1.01854 0.53455
 O146 O 0.44705 1.00440 0.56165
 O147 O 0.48053 1.05882 0.54584
 O148 O 0.49245 1.01659 0.57253
 O149 O 0.42838 1.02998 0.48623
 O150 O 0.53206 0.99325 0.56672
 O151 O 0.43664 1.03669 0.52887
 O152 O 0.51273 1.07510 0.51827
 O153 O 0.51762 1.02471 0.52917
 O154 O 0.48049 1.03841 0.49929
 O155 O 0.49345 0.97967 0.53478
 O156 O 0.45719 0.99336 0.50677
 Zr157 Zr 0.52349 0.98028 0.46465
 Zr158 Zr 0.53482 0.98593 0.52746
 Zr159 Zr 0.46424 1.01283 0.47164
 Zr160 Zr 0.52198 1.04318 0.49333
 O161 O 0.43043 0.99063 0.45791
 O162 O 0.55898 1.05564 0.51053
 O163 O 0.50561 1.01926 0.46392
 O164 O 0.54140 1.00556 0.49244
 O165 O 0.51873 0.96008 0.49976
 O166 O 0.48168 0.97432 0.47019
 C167 C 0.49587 1.07759 0.53688
 C168 C 0.42151 1.03867 0.50857
 C169 C 0.51437 1.00498 0.58095
 O170 O 0.57020 1.00699 0.53909
 O171 O 0.56907 0.96529 0.51367
 O172 O 0.56189 0.96061 0.47065
 C173 C 0.57622 0.95707 0.49129
 O174 O 0.44551 0.95007 0.53310
 Zr175 Zr 0.47701 0.95571 0.50572
 O176 O 0.51965 0.93966 0.45420
 O177 O 0.53985 0.94918 0.54796
 O178 O 0.48899 0.92409 0.53093
 O179 O 0.44197 0.94074 0.48672
 O180 O 0.49005 0.92265 0.48388
 C181 C 0.50648 0.92029 0.46492
 O182 O 0.55308 0.99410 0.43826
 O183 O 0.45673 1.05013 0.45271
 O184 O 0.50768 0.98375 0.42647
 O185 O 0.46939 1.00926 0.43209
 O186 O 0.50846 1.07620 0.47055
 O187 O 0.54983 1.05084 0.46301
 C188 C 0.48678 0.99699 0.41791
 H189 H 0.47109 1.05614 0.49856
 H190 H 0.56099 1.00832 0.48902
 H191 H 0.47347 0.96324 0.45637
 H192 H 0.49033 0.97040 0.55136
 H193 H 0.56055 1.07554 0.50821
 H194 H 0.58003 0.99496 0.55118
 H195 H 0.55707 0.95069 0.55772
 H196 H 0.47830 0.90771 0.52643
 H197 H 0.51927 1.09236 0.47546
 H198 H 0.43940 1.04812 0.44320
 H199 H 0.42077 1.00259 0.44565
 H200 H 0.44123 0.92090 0.48979
 H201 H 0.55804 1.06902 0.46531
 H202 H 0.55741 0.97858 0.42685
 H203 H 0.44259 1.01996 0.57296
 H204 H 0.43931 0.93096 0.53273
 Zr205 Zr -0.02426 0.51854 1.03456
 O206 O -0.05296 0.50439 1.06166
 O207 O -0.01948 0.55881 1.04585
 O208 O -0.00756 0.51658 1.07254
 O209 O -0.07163 0.52997 0.98624
 O210 O 0.03205 0.49324 1.06673
 O211 O -0.06337 0.53669 1.02888
 O212 O 0.01272 0.57509 1.01828
 O213 O 0.01761 0.52471 1.02918
 O214 O -0.01951 0.53840 0.99930
 O215 O -0.00657 0.47966 1.03479
 O216 O -0.04282 0.49336 1.00677
 Zr217 Zr 0.02349 0.48028 0.96466
 Zr218 Zr 0.03481 0.48592 1.02747
 Zr219 Zr -0.03577 0.51282 0.97165
 Zr220 Zr 0.02197 0.54317 0.99334
 O221 O -0.06958 0.49062 0.95791
 O222 O 0.05896 0.55564 1.01054
 O223 O 0.00560 0.51925 0.96393
 O224 O 0.04139 0.50555 0.99245
 O225 O 0.01872 0.46007 0.99976
 O226 O -0.01833 0.47432 0.97020
 C227 C -0.00414 0.57758 1.03689
 C228 C -0.07850 0.53867 1.00857
 C229 C 0.01436 0.50497 1.08096
 O230 O 0.07019 0.50698 1.03910
 O231 O 0.06906 0.46528 1.01368
 O232 O 0.06188 0.46061 0.97066
 C233 C 0.07621 0.45706 0.99130
 O234 O -0.05450 0.45007 1.03311
 Zr235 Zr -0.02300 0.45570 1.00573
 O236 O 0.01965 0.43965 0.95421
 O237 O 0.03983 0.44917 1.04797
 O238 O -0.01103 0.42408 1.03094
 O239 O -0.05803 0.44073 0.98673
 O240 O -0.00995 0.42265 0.98389
 C241 C 0.00647 0.42028 0.96493
 O242 O 0.05307 0.49410 0.93827
 O243 O -0.04328 0.55013 0.95272
 O244 O 0.00767 0.48374 0.92648
 O245 O -0.03061 0.50926 0.93210
 O246 O 0.00845 0.57619 0.97056
 O247 O 0.04982 0.55083 0.96302
 C248 C -0.01323 0.49699 0.91792
 H249 H -0.02892 0.55614 0.99856
 H250 H 0.06098 0.50832 0.98903
 H251 H -0.02654 0.46323 0.95638
 H252 H -0.00968 0.47039 1.05137
 H253 H 0.06054 0.57554 1.00822
 H254 H 0.08002 0.49495 1.05119
 H255 H 0.05706 0.45068 1.05773
 H256 H -0.02171 0.40770 1.02644
 H257 H 0.01926 0.59235 0.97547
 H258 H -0.06061 0.54811 0.94321
 H259 H -0.07924 0.50258 0.94566
 H260 H -0.05878 0.42089 0.98979
 H261 H 0.05803 0.56902 0.96532
 H262 H 0.05740 0.47857 0.92686
 H263 H -0.05742 0.51995 1.07297
 H264 H -0.06070 0.43095 1.03273
 Zr265 Zr -0.02398 0.48140 0.46560
 O266 O -0.05267 0.49555 0.43850
 O267 O -0.01921 0.44112 0.45432
 O268 O -0.00728 0.48334 0.42762
 O269 O -0.07136 0.46997 0.51391
 O270 O 0.03234 0.50667 0.43343
 O271 O -0.06310 0.46326 0.47127
 O272 O 0.01299 0.42484 0.48189
 O273 O 0.01789 0.47522 0.47099
 O274 O -0.01925 0.46153 0.50086
 O275 O -0.00628 0.52027 0.46537
 O276 O -0.04254 0.50658 0.49338
 Zr277 Zr 0.02376 0.51965 0.53550
 Zr278 Zr 0.03510 0.51400 0.47269
 Zr279 Zr -0.03550 0.48712 0.52850
 Zr280 Zr 0.02223 0.45675 0.50683
 O281 O -0.06930 0.50933 0.54224
 O282 O 0.05923 0.44429 0.48964
 O283 O 0.00587 0.48069 0.53623
 O284 O 0.04167 0.49438 0.50772
 O285 O 0.01901 0.53986 0.50039
 O286 O -0.01805 0.52562 0.52996
 C287 C -0.00387 0.42235 0.46327
 C288 C -0.07823 0.46127 0.49158
 C289 C 0.01465 0.49494 0.41921
 O290 O 0.07047 0.49293 0.46107
 O291 O 0.06935 0.53464 0.48648
 O292 O 0.06217 0.53932 0.52950
 C293 C 0.07650 0.54286 0.50886
 O294 O -0.05421 0.54987 0.46705
 Zr295 Zr -0.02271 0.54423 0.49443
 O296 O 0.01994 0.56028 0.54596
 O297 O 0.04013 0.55074 0.45218
 O298 O -0.01073 0.57585 0.46921
 O299 O -0.05773 0.55923 0.51343
 O300 O -0.00964 0.57729 0.51625
 C301 C 0.00678 0.57966 0.53522
 O302 O 0.05335 0.50584 0.56189
 O303 O -0.04303 0.44982 0.54744
 O304 O 0.00794 0.51619 0.57368
 O305 O -0.03035 0.49068 0.56806
 O306 O 0.00869 0.42374 0.52960
 O307 O 0.05007 0.44909 0.53715
 C308 C -0.01296 0.50294 0.58224
 H309 H -0.02866 0.44380 0.50159
 H310 H 0.06125 0.49160 0.51114
 H311 H -0.02626 0.53671 0.54377
 H312 H -0.00938 0.52953 0.44878
 H313 H 0.06081 0.42439 0.49196
 H314 H 0.08031 0.50496 0.44898
 H315 H 0.05736 0.54923 0.44243
 H316 H -0.02141 0.59223 0.47370
 H317 H 0.01950 0.40758 0.52470
 H318 H -0.06036 0.45184 0.55694
 H319 H -0.07897 0.49737 0.55449
 H320 H -0.05847 0.57906 0.51036
 H321 H 0.05828 0.43091 0.53486
 H322 H 0.05768 0.52136 0.57330
 H323 H -0.05714 0.47999 0.42719
 H324 H -0.06041 0.56898 0.46742
 Zr325 Zr 0.47598 -0.01859 -0.03442
 O326 O 0.44729 -0.00444 -0.06152
 O327 O 0.48076 -0.05886 -0.04570
 O328 O 0.49269 -0.01664 -0.07240
 O329 O 0.42861 -0.03002 0.01389
 O330 O 0.53230 0.00669 -0.06659
 O331 O 0.43687 -0.03673 -0.02875
 O332 O 0.51296 -0.07515 -0.01814
 O333 O 0.51785 -0.02477 -0.02903
 O334 O 0.48072 -0.03846 0.00084
 O335 O 0.49369 0.02029 -0.03465
 O336 O 0.45742 0.00659 -0.00664
 Zr337 Zr 0.52373 0.01967 0.03548
 Zr338 Zr 0.53506 0.01402 -0.02733
 Zr339 Zr 0.46446 -0.01287 0.02848
 Zr340 Zr 0.52220 -0.04323 0.00681
 O341 O 0.43066 0.00934 0.04222
 O342 O 0.55920 -0.05570 -0.01038
 O343 O 0.50583 -0.01930 0.03621
 O344 O 0.54163 -0.00561 0.00770
 O345 O 0.51897 0.03987 0.00038
 O346 O 0.48191 0.02563 0.02994
 C347 C 0.49610 -0.07763 -0.03675
 C348 C 0.42174 -0.03872 -0.00844
 C349 C 0.51461 -0.00505 -0.08081
 O350 O 0.57044 -0.00705 -0.03895
 O351 O 0.56931 0.03465 -0.01354
 O352 O 0.56213 0.03933 0.02948
 C353 C 0.57646 0.04287 0.00884
 O354 O 0.44575 0.04988 -0.03297
 Zr355 Zr 0.47725 0.04424 -0.00559
 O356 O 0.51990 0.06029 0.04594
 O357 O 0.54009 0.05076 -0.04783
 O358 O 0.48923 0.07586 -0.03081
 O359 O 0.44223 0.05924 0.01341
 O360 O 0.49032 0.07730 0.01624
 C361 C 0.50674 0.07967 0.03520
 O362 O 0.55331 0.00585 0.06188
 O363 O 0.45693 -0.05017 0.04742
 O364 O 0.50791 0.01620 0.07367
 O365 O 0.46962 -0.00931 0.06804
 O366 O 0.50866 -0.07625 0.02958
 O367 O 0.55004 -0.05089 0.03713
 C368 C 0.48700 0.00295 0.08222
 H369 H 0.47131 -0.05619 0.00157
 H370 H 0.56122 -0.00838 0.01112
 H371 H 0.47370 0.03672 0.04376
 H372 H 0.49058 0.02955 -0.05123
 H373 H 0.56077 -0.07560 -0.00806
 H374 H 0.58027 0.00498 -0.05104
 H375 H 0.55732 0.04925 -0.05759
 H376 H 0.47855 0.09224 -0.02631
 H377 H 0.51947 -0.09241 0.02467
 H378 H 0.43961 -0.04816 0.05692
 H379 H 0.42099 -0.00262 0.05447
 H380 H 0.44149 0.07907 0.01034
 H381 H 0.55824 -0.06908 0.03484
 H382 H 0.55764 0.02137 0.07329
 H383 H 0.44283 -0.02000 -0.07283
 H384 H 0.43955 0.06899 -0.03259
 Zr385 Zr 0.52399 0.51861 -0.03440
 O386 O 0.55268 0.50446 -0.06151
 O387 O 0.51922 0.55888 -0.04568
 O388 O 0.50728 0.51667 -0.07238
 O389 O 0.57136 0.53004 0.01391
 O390 O 0.46766 0.49333 -0.06657
 O391 O 0.56310 0.53675 -0.02873
 O392 O 0.48701 0.57517 -0.01811
 O393 O 0.48212 0.52479 -0.02901
 O394 O 0.51925 0.53847 0.00086
 O395 O 0.50628 0.47974 -0.03463
 O396 O 0.54255 0.49342 -0.00663
 Zr397 Zr 0.47624 0.48035 0.03550
 Zr398 Zr 0.46491 0.48601 -0.02731
 Zr399 Zr 0.53551 0.51289 0.02850
 Zr400 Zr 0.47777 0.54325 0.00683
 O401 O 0.56931 0.49067 0.04223
 O402 O 0.44077 0.55572 -0.01036
 O403 O 0.49414 0.51931 0.03623
 O404 O 0.45834 0.50563 0.00772
 O405 O 0.48099 0.46015 0.00039
 O406 O 0.51806 0.47438 0.02995
 C407 C 0.50387 0.57766 -0.03672
 C408 C 0.57823 0.53873 -0.00843
 C409 C 0.48535 0.50507 -0.08080
 O410 O 0.42953 0.50708 -0.03893
 O411 O 0.43066 0.46537 -0.01352
 O412 O 0.43784 0.46068 0.02950
 C413 C 0.42351 0.45714 0.00886
 O414 O 0.55422 0.45014 -0.03296
 Zr415 Zr 0.52272 0.45577 -0.00558
 O416 O 0.48007 0.43972 0.04595
 O417 O 0.45987 0.44926 -0.04782
 O418 O 0.51074 0.42416 -0.03080
 O419 O 0.55774 0.44078 0.01342
 O420 O 0.50965 0.42271 0.01624
 C421 C 0.49323 0.42034 0.03521
 O422 O 0.44666 0.49416 0.06189
 O423 O 0.54304 0.55018 0.04743
 O424 O 0.49207 0.48381 0.07368
 O425 O 0.53036 0.50932 0.06805
 O426 O 0.49131 0.57626 0.02960
 O427 O 0.44993 0.55091 0.03715
 C428 C 0.51297 0.49706 0.08224
 H429 H 0.52867 0.55620 0.00159
 H430 H 0.43875 0.50840 0.01114
 H431 H 0.52627 0.46329 0.04377
 H432 H 0.50939 0.47047 -0.05122
 H433 H 0.43920 0.57562 -0.00803
 H434 H 0.41970 0.49505 -0.05102
 H435 H 0.44265 0.45077 -0.05758
 H436 H 0.52141 0.40778 -0.02631
 H437 H 0.48050 0.59242 0.02470
 H438 H 0.56036 0.54816 0.05694
 H439 H 0.57898 0.50263 0.05448
 H440 H 0.55848 0.42094 0.01035
 H441 H 0.44173 0.56909 0.03486
 H442 H 0.44233 0.47864 0.07330
 H443 H 0.55714 0.52003 -0.07282
 H444 H 0.56042 0.43102 -0.03259
 Zr445 Zr 0.02400 1.01860 0.46559
 O446 O 0.05269 1.00445 0.43848
 O447 O 0.01923 1.05887 0.45431
 O448 O 0.00729 1.01666 0.42761
 O449 O 0.07138 1.03003 0.51390
 O450 O -0.03232 0.99333 0.43341
 O451 O 0.06312 1.03674 0.47126
 O452 O -0.01298 1.07516 0.48188
 O453 O -0.01787 1.02477 0.47098
 O454 O 0.01927 1.03846 0.50085
 O455 O 0.00629 0.97972 0.46535
 O456 O 0.04256 0.99341 0.49336
 Zr457 Zr -0.02374 0.98033 0.53549
 Zr458 Zr -0.03508 0.98599 0.47268
 Zr459 Zr 0.03552 1.01287 0.52849
 Zr460 Zr -0.02222 1.04324 0.50682
 O461 O 0.06933 0.99066 0.54222
 O462 O -0.05922 1.05571 0.48963
 O463 O -0.00585 1.01930 0.53621
 O464 O -0.04165 1.00561 0.50771
 O465 O -0.01899 0.96013 0.50038
 O466 O 0.01807 0.97437 0.52994
 C467 C 0.00388 1.07764 0.46326
 C468 C 0.07825 1.03872 0.49156
 C469 C -0.01464 1.00506 0.41919
 O470 O -0.07046 1.00706 0.46106
 O471 O -0.06933 0.96536 0.48646
 O472 O -0.06214 0.96067 0.52949
 C473 C -0.07648 0.95713 0.50885
 O474 O 0.05423 0.95013 0.46703
 Zr475 Zr 0.02273 0.95576 0.49440
 O476 O -0.01991 0.93971 0.54593
 O477 O -0.04012 0.94925 0.45217
 O478 O 0.01075 0.92415 0.46919
 O479 O 0.05775 0.94077 0.51341
 O480 O 0.00966 0.92270 0.51623
 C481 C -0.00676 0.92033 0.53520
 O482 O -0.05333 0.99415 0.56188
 O483 O 0.04305 1.05017 0.54742
 O484 O -0.00792 0.98380 0.57367
 O485 O 0.03037 1.00931 0.56804
 O486 O -0.00868 1.07625 0.52959
 O487 O -0.05005 1.05089 0.53715
 C488 C 0.01298 0.99705 0.58222
 H489 H 0.02868 1.05619 0.50158
 H490 H -0.06124 1.00838 0.51113
 H491 H 0.02628 0.96328 0.54375
 H492 H 0.00940 0.97046 0.44877
 H493 H -0.06079 1.07560 0.49196
 H494 H -0.08029 0.99504 0.44897
 H495 H -0.05734 0.95076 0.44241
 H496 H 0.02143 0.90777 0.47368
 H497 H -0.01949 1.09241 0.52469
 H498 H 0.06038 1.04815 0.55693
 H499 H 0.07899 1.00261 0.55447
 H500 H 0.05849 0.92093 0.51033
 H501 H -0.05826 1.06908 0.53486
 H502 H -0.05766 0.97862 0.57329
 H503 H 0.05715 1.02002 0.42717
 H504 H 0.06043 0.93101 0.46740
 Zr505 Zr 0.73152 0.27430 0.21545
 O506 O 0.74577 0.30298 0.18839
 O507 O 0.69122 0.26961 0.20412
 O508 O 0.73348 0.25765 0.17746
 O509 O 0.72011 0.32160 0.26380
 O510 O 0.75677 0.21804 0.18324
 O511 O 0.71342 0.31341 0.22115
 O512 O 0.67484 0.23744 0.23165
 O513 O 0.72527 0.23247 0.22079
 O514 O 0.71159 0.26957 0.25069
 O515 O 0.77040 0.25655 0.21524
 O516 O 0.75674 0.29277 0.24327
 Zr517 Zr 0.76967 0.22646 0.28533
 Zr518 Zr 0.76406 0.21522 0.22251
 Zr519 Zr 0.73720 0.28574 0.27837
 Zr520 Zr 0.70674 0.22812 0.25661
 O521 O 0.75948 0.31946 0.29216
 O522 O 0.69422 0.19120 0.23937
 O523 O 0.73069 0.24440 0.28605
 O524 O 0.74437 0.20864 0.25751
 O525 O 0.78994 0.23122 0.25025
 O526 O 0.77571 0.26824 0.27984
 C527 C 0.67239 0.25429 0.21304
 C528 C 0.71144 0.32851 0.24147
 C529 C 0.74507 0.23574 0.16903
 O530 O 0.74292 0.17992 0.21083
 O531 O 0.78464 0.18095 0.23629
 O532 O 0.78930 0.18808 0.27932
 C533 C 0.79284 0.17377 0.25867
 O534 O 0.80012 0.30438 0.21698
 Zr535 Zr 0.79439 0.27290 0.24433
 O536 O 0.81032 0.23022 0.29584
 O537 O 0.80085 0.21015 0.20203
 O538 O 0.82604 0.26089 0.21914
 O539 O 0.80942 0.30786 0.26337
 O540 O 0.82743 0.25980 0.26620
 C541 C 0.82975 0.24338 0.28516
 O542 O 0.75576 0.19690 0.31168
 O543 O 0.69986 0.29329 0.29728
 O544 O 0.76620 0.24223 0.32353
 O545 O 0.74073 0.28053 0.31792
 O546 O 0.67370 0.24167 0.27937
 O547 O 0.69900 0.20029 0.28690
 C548 C 0.75297 0.26313 0.33209
 H549 H 0.69386 0.27899 0.25141
 H550 H 0.74156 0.18908 0.26091
 H551 H 0.78681 0.27641 0.29367
 H552 H 0.77970 0.25966 0.19866
 H553 H 0.67429 0.18966 0.24168
 H554 H 0.75495 0.17009 0.19875
 H555 H 0.79932 0.19296 0.19226
 H556 H 0.84245 0.27152 0.22366
 H557 H 0.65751 0.23090 0.27443
 H558 H 0.70190 0.31058 0.30681
 H559 H 0.74751 0.32912 0.30441
 H560 H 0.82928 0.30858 0.26032
 H561 H 0.68078 0.19212 0.28458
 H562 H 0.77127 0.19253 0.32311
 H563 H 0.73021 0.30747 0.17707
 H564 H 0.81927 0.31053 0.21737
 Zr565 Zr 0.76849 0.72571 0.71546
 O566 O 0.75425 0.69703 0.68841
 O567 O 0.80880 0.73040 0.70412
 O568 O 0.76653 0.74235 0.67747
 O569 O 0.77991 0.67841 0.76381
 O570 O 0.74323 0.78197 0.68325
 O571 O 0.78660 0.68660 0.72116
 O572 O 0.82517 0.76258 0.73165
 O573 O 0.77474 0.76754 0.72080
 O574 O 0.78842 0.73045 0.75070
 O575 O 0.72961 0.74345 0.71525
 O576 O 0.74328 0.70724 0.74328
 Zr577 Zr 0.73034 0.77355 0.78534
 Zr578 Zr 0.73595 0.78479 0.72252
 Zr579 Zr 0.76282 0.71428 0.77838
 Zr580 Zr 0.79327 0.77189 0.75661
 O581 O 0.74055 0.68056 0.79217
 O582 O 0.80579 0.80882 0.73937
 O583 O 0.76932 0.75561 0.78605
 O584 O 0.75564 0.79137 0.75752
 O585 O 0.71007 0.76879 0.75026
 O586 O 0.72431 0.73177 0.77985
 C587 C 0.82762 0.74572 0.71304
 C588 C 0.78858 0.67151 0.74148
 C589 C 0.75494 0.76426 0.66904
 O590 O 0.75708 0.82008 0.71083
 O591 O 0.71536 0.81906 0.73629
 O592 O 0.71071 0.81193 0.77932
 C593 C 0.70717 0.82624 0.75867
 O594 O 0.69990 0.69562 0.71699
 Zr595 Zr 0.70563 0.72710 0.74434
 O596 O 0.68969 0.76979 0.79585
 O597 O 0.69916 0.78985 0.70204
 O598 O 0.67397 0.73911 0.71916
 O599 O 0.69060 0.69214 0.76338
 O600 O 0.67259 0.74021 0.76622
 C601 C 0.67027 0.75663 0.78517
 O602 O 0.74426 0.80312 0.81169
 O603 O 0.80016 0.70674 0.79728
 O604 O 0.73382 0.75778 0.82353
 O605 O 0.75929 0.71949 0.81793
 O606 O 0.82632 0.75835 0.77937
 O607 O 0.80101 0.79973 0.78690
 C608 C 0.74705 0.73689 0.83210
 H609 H 0.80616 0.72102 0.75142
 H610 H 0.75845 0.81093 0.76092
 H611 H 0.71321 0.72360 0.79368
 H612 H 0.72031 0.74034 0.69868
 H613 H 0.82571 0.81036 0.74167
 H614 H 0.74505 0.82991 0.69875
 H615 H 0.70069 0.80704 0.69227
 H616 H 0.65756 0.72847 0.72368
 H617 H 0.84251 0.76912 0.77443
 H618 H 0.79812 0.68944 0.80682
 H619 H 0.75252 0.67090 0.80443
 H620 H 0.67074 0.69143 0.76034
 H621 H 0.81923 0.80790 0.78458
 H622 H 0.72874 0.80748 0.82311
 H623 H 0.76981 0.69253 0.67708
 H624 H 0.68075 0.68947 0.71739
 Zr625 Zr 0.23145 0.22595 0.78440
 O626 O 0.24570 0.19728 0.81146
 O627 O 0.19115 0.23064 0.79573
 O628 O 0.23340 0.24261 0.82239
 O629 O 0.22004 0.17865 0.73606
 O630 O 0.25669 0.28223 0.81661
 O631 O 0.21335 0.18685 0.77871
 O632 O 0.17477 0.26282 0.76821
 O633 O 0.22520 0.26778 0.77906
 O634 O 0.21153 0.23069 0.74916
 O635 O 0.27033 0.24371 0.78462
 O636 O 0.25667 0.20749 0.75659
 Zr637 Zr 0.26960 0.27380 0.71452
 Zr638 Zr 0.26398 0.28505 0.77734
 Zr639 Zr 0.23714 0.21452 0.72149
 Zr640 Zr 0.20667 0.27213 0.74324
 O641 O 0.25942 0.18080 0.70771
 O642 O 0.19415 0.30906 0.76047
 O643 O 0.23063 0.25585 0.71381
 O644 O 0.24430 0.29161 0.74234
 O645 O 0.28987 0.26905 0.74961
 O646 O 0.27565 0.23202 0.72002
 C647 C 0.17233 0.24596 0.78681
 C648 C 0.21137 0.17175 0.75839
 C649 C 0.24498 0.26452 0.83082
 O650 O 0.24284 0.32034 0.78902
 O651 O 0.28457 0.31932 0.76357
 O652 O 0.28923 0.31219 0.72054
 C653 C 0.29277 0.32650 0.74119
 O654 O 0.30005 0.19588 0.78288
 Zr655 Zr 0.29432 0.22737 0.75553
 O656 O 0.31026 0.27004 0.70402
 O657 O 0.30077 0.29012 0.79783
 O658 O 0.32597 0.23937 0.78073
 O659 O 0.30937 0.19242 0.73649
 O660 O 0.32736 0.24049 0.73367
 C661 C 0.32968 0.25691 0.71471
 O662 O 0.25569 0.30336 0.68817
 O663 O 0.19980 0.20696 0.70258
 O664 O 0.26613 0.25802 0.67633
 O665 O 0.24066 0.21972 0.68194
 O666 O 0.17363 0.25857 0.72049
 O667 O 0.19893 0.29995 0.71294
 C668 C 0.25289 0.23713 0.66776
 H669 H 0.19379 0.22125 0.74844
 H670 H 0.24149 0.31118 0.73893
 H671 H 0.28674 0.22385 0.70619
 H672 H 0.27962 0.24060 0.80120
 H673 H 0.17422 0.31060 0.75816
 H674 H 0.25487 0.33017 0.80111
 H675 H 0.29924 0.30731 0.80760
 H676 H 0.34238 0.22874 0.77621
 H677 H 0.15744 0.26934 0.72542
 H678 H 0.20184 0.18966 0.69305
 H679 H 0.24745 0.17114 0.69545
 H680 H 0.32922 0.19171 0.73954
 H681 H 0.18071 0.30812 0.71526
 H682 H 0.27121 0.30772 0.67675
 H683 H 0.23014 0.19279 0.82279
 H684 H 0.31919 0.18973 0.78248
 Zr685 Zr 0.26854 0.77404 0.28439
 O686 O 0.25430 0.80271 0.31146
 O687 O 0.30885 0.76935 0.29572
 O688 O 0.26660 0.75739 0.32239
 O689 O 0.27995 0.82135 0.23605
 O690 O 0.24331 0.71776 0.31660
 O691 O 0.28664 0.81315 0.27870
 O692 O 0.32523 0.73718 0.26820
 O693 O 0.27480 0.73222 0.27905
 O694 O 0.28847 0.76931 0.24916
 O695 O 0.22966 0.75628 0.28461
 O696 O 0.24332 0.79251 0.25658
 Zr697 Zr 0.23039 0.72620 0.21451
 Zr698 Zr 0.23602 0.71495 0.27734
 Zr699 Zr 0.26285 0.78548 0.22148
 Zr700 Zr 0.29332 0.72787 0.24323
 O701 O 0.24057 0.81920 0.20770
 O702 O 0.30586 0.69094 0.26045
 O703 O 0.26936 0.74415 0.21380
 O704 O 0.25570 0.70838 0.24233
 O705 O 0.21013 0.73094 0.24960
 O706 O 0.22434 0.76797 0.22001
 C707 C 0.32767 0.75404 0.28680
 C708 C 0.28862 0.82825 0.25839
 C709 C 0.25502 0.73547 0.33081
 O710 O 0.25716 0.67966 0.28900
 O711 O 0.21544 0.68067 0.26356
 O712 O 0.21077 0.68781 0.22053
 C713 C 0.20723 0.67349 0.24118
 O714 O 0.19994 0.80411 0.28288
 Zr715 Zr 0.20567 0.77263 0.25553
 O716 O 0.18973 0.72995 0.20401
 O717 O 0.19923 0.70987 0.29782
 O718 O 0.17403 0.76062 0.28073
 O719 O 0.19062 0.80757 0.23649
 O720 O 0.17263 0.75950 0.23367
 C721 C 0.17031 0.74309 0.21471
 O722 O 0.24430 0.69664 0.18816
 O723 O 0.30019 0.79305 0.20257
 O724 O 0.23386 0.74197 0.17632
 O725 O 0.25933 0.78028 0.18193
 O726 O 0.32637 0.74144 0.22047
 O727 O 0.30107 0.70005 0.21293
 C728 C 0.24709 0.76287 0.16776
 H729 H 0.30620 0.77875 0.24843
 H730 H 0.25851 0.68882 0.23892
 H731 H 0.21325 0.77614 0.20618
 H732 H 0.22037 0.75938 0.30119
 H733 H 0.32578 0.68940 0.25814
 H734 H 0.24514 0.66982 0.30109
 H735 H 0.20077 0.69268 0.30759
 H736 H 0.15762 0.77124 0.27621
 H737 H 0.34256 0.73067 0.22540
 H738 H 0.29814 0.81034 0.19304
 H739 H 0.25253 0.82886 0.19545
 H740 H 0.17077 0.80828 0.23954
 H741 H 0.31928 0.69189 0.21524
 H742 H 0.22878 0.69227 0.17674
 H743 H 0.26986 0.80721 0.32278
 H744 H 0.18080 0.81026 0.28249
 Zr745 Zr 0.23152 0.77430 0.71545
 O746 O 0.24577 0.80297 0.68840
 O747 O 0.19121 0.76960 0.70412
 O748 O 0.23348 0.75765 0.67746
 O749 O 0.22010 0.82159 0.76380
 O750 O 0.25677 0.71803 0.68324
 O751 O 0.21342 0.81340 0.72115
 O752 O 0.17483 0.73743 0.73164
 O753 O 0.22527 0.73247 0.72079
 O754 O 0.21159 0.76956 0.75069
 O755 O 0.27040 0.75655 0.71524
 O756 O 0.25673 0.79276 0.74327
 Zr757 Zr 0.26966 0.72645 0.78534
 Zr758 Zr 0.26405 0.71521 0.72251
 Zr759 Zr 0.23720 0.78572 0.77837
 Zr760 Zr 0.20674 0.72811 0.75661
 O761 O 0.25947 0.81944 0.79216
 O762 O 0.19421 0.69119 0.73936
 O763 O 0.23068 0.74439 0.78605
 O764 O 0.24436 0.70863 0.75751
 O765 O 0.28993 0.73121 0.75026
 O766 O 0.27570 0.76823 0.77984
 C767 C 0.17239 0.75429 0.71304
 C768 C 0.21144 0.82850 0.74147
 C769 C 0.24507 0.73574 0.66903
 O770 O 0.24291 0.67992 0.71083
 O771 O 0.28464 0.68094 0.73628
 O772 O 0.28929 0.68806 0.77932
 C773 C 0.29283 0.67375 0.75867
 O774 O 0.30012 0.80437 0.71699
 Zr775 Zr 0.29438 0.77289 0.74434
 O776 O 0.31031 0.73021 0.79584
 O777 O 0.30084 0.71014 0.70204
 O778 O 0.32604 0.76088 0.71915
 O779 O 0.30942 0.80785 0.76338
 O780 O 0.32742 0.75978 0.76621
 C781 C 0.32974 0.74336 0.78516
 O782 O 0.25574 0.69688 0.81168
 O783 O 0.19986 0.79327 0.79728
 O784 O 0.26618 0.74222 0.82353
 O785 O 0.24072 0.78052 0.81792
 O786 O 0.17369 0.74166 0.77936
 O787 O 0.19899 0.70028 0.78689
 C788 C 0.25296 0.76311 0.83210
 H789 H 0.19385 0.77899 0.75141
 H790 H 0.24155 0.68907 0.76091
 H791 H 0.28680 0.77639 0.79368
 H792 H 0.27970 0.75966 0.69867
 H793 H 0.17428 0.68965 0.74167
 H794 H 0.25495 0.67009 0.69874
 H795 H 0.29931 0.69295 0.69226
 H796 H 0.34245 0.77151 0.72367
 H797 H 0.15750 0.73089 0.77443
 H798 H 0.20189 0.81057 0.80681
 H799 H 0.24750 0.82910 0.80442
 H800 H 0.32927 0.80856 0.76033
 H801 H 0.18077 0.69210 0.78457
 H802 H 0.27126 0.69252 0.82310
 H803 H 0.23021 0.80747 0.67708
 H804 H 0.31927 0.81052 0.71738
 Zr805 Zr 0.26850 0.22571 0.21547
 O806 O 0.25426 0.19703 0.18841
 O807 O 0.30880 0.23040 0.20413
 O808 O 0.26654 0.24235 0.17747
 O809 O 0.27992 0.17841 0.26382
 O810 O 0.24324 0.28197 0.18325
 O811 O 0.28660 0.18660 0.22116
 O812 O 0.32518 0.26258 0.23166
 O813 O 0.27475 0.26754 0.22080
 O814 O 0.28843 0.23045 0.25070
 O815 O 0.22961 0.24345 0.21525
 O816 O 0.24329 0.20724 0.24329
 Zr817 Zr 0.23035 0.27355 0.28535
 Zr818 Zr 0.23596 0.28479 0.22252
 Zr819 Zr 0.26282 0.21428 0.27838
 Zr820 Zr 0.29328 0.27189 0.25662
 O821 O 0.24055 0.18056 0.29218
 O822 O 0.30580 0.30882 0.23937
 O823 O 0.26933 0.25561 0.28606
 O824 O 0.25565 0.29137 0.25752
 O825 O 0.21008 0.26879 0.25026
 O826 O 0.22431 0.23177 0.27985
 C827 C 0.32763 0.24571 0.21305
 C828 C 0.28858 0.17151 0.24148
 C829 C 0.25495 0.26426 0.16904
 O830 O 0.25709 0.32008 0.21084
 O831 O 0.21537 0.31906 0.23629
 O832 O 0.21072 0.31194 0.27933
 C833 C 0.20718 0.32624 0.25868
 O834 O 0.19990 0.19562 0.21700
 Zr835 Zr 0.20563 0.22711 0.24435
 O836 O 0.18970 0.26979 0.29585
 O837 O 0.19917 0.28985 0.20205
 O838 O 0.17398 0.23911 0.21916
 O839 O 0.19061 0.19215 0.26339
 O840 O 0.17260 0.24021 0.26622
 C841 C 0.17027 0.25663 0.28517
 O842 O 0.24426 0.30312 0.31169
 O843 O 0.30016 0.20673 0.29729
 O844 O 0.23382 0.25778 0.32354
 O845 O 0.25930 0.21949 0.31794
 O846 O 0.32633 0.25835 0.27937
 O847 O 0.30102 0.29973 0.28690
 C848 C 0.24706 0.23689 0.33211
 H849 H 0.30616 0.22102 0.25143
 H850 H 0.25846 0.31093 0.26092
 H851 H 0.21322 0.22360 0.29369
 H852 H 0.22032 0.24034 0.19868
 H853 H 0.32572 0.31036 0.24168
 H854 H 0.24506 0.32991 0.19875
 H855 H 0.20070 0.30704 0.19227
 H856 H 0.15757 0.22847 0.22368
 H857 H 0.34251 0.26912 0.27444
 H858 H 0.29813 0.18944 0.30682
 H859 H 0.25252 0.17090 0.30443
 H860 H 0.17075 0.19143 0.26034
 H861 H 0.31923 0.30790 0.28458
 H862 H 0.22875 0.30748 0.32311
 H863 H 0.26982 0.19253 0.17709
 H864 H 0.18076 0.18947 0.21739
 Zr865 Zr 0.73145 0.72596 0.28439
 O866 O 0.74570 0.69730 0.31145
 O867 O 0.69115 0.73065 0.29572
 O868 O 0.73340 0.74262 0.32238
 O869 O 0.72004 0.67866 0.23605
 O870 O 0.75669 0.78224 0.31660
 O871 O 0.71335 0.68686 0.27870
 O872 O 0.67477 0.76283 0.26820
 O873 O 0.72520 0.76779 0.27905
 O874 O 0.71153 0.73070 0.24915
 O875 O 0.77033 0.74372 0.28461
 O876 O 0.75667 0.70750 0.25658
 Zr877 Zr 0.76961 0.77381 0.21451
 Zr878 Zr 0.76398 0.78506 0.27733
 Zr879 Zr 0.73714 0.71453 0.22148
 Zr880 Zr 0.70667 0.77214 0.24323
 O881 O 0.75942 0.68081 0.20770
 O882 O 0.69414 0.80907 0.26046
 O883 O 0.73063 0.75586 0.21380
 O884 O 0.74430 0.79162 0.24233
 O885 O 0.78987 0.76906 0.24960
 O886 O 0.77565 0.73203 0.22001
 C887 C 0.67233 0.74597 0.28680
 C888 C 0.71138 0.67176 0.25838
 C889 C 0.74498 0.76453 0.33081
 O890 O 0.74284 0.82035 0.28901
 O891 O 0.78456 0.81933 0.26356
 O892 O 0.78923 0.81220 0.22053
 C893 C 0.79276 0.82651 0.24118
 O894 O 0.80005 0.69589 0.28287
 Zr895 Zr 0.79432 0.72738 0.25552
 O896 O 0.81026 0.77005 0.20401
 O897 O 0.80077 0.79013 0.29782
 O898 O 0.82597 0.73938 0.28072
 O899 O 0.80937 0.69243 0.23648
 O900 O 0.82736 0.74051 0.23367
 C901 C 0.82969 0.75692 0.21470
 O902 O 0.75570 0.80337 0.18816
 O903 O 0.69981 0.70696 0.20257
 O904 O 0.76613 0.75803 0.17632
 O905 O 0.74067 0.71973 0.18193
 O906 O 0.67363 0.75858 0.22048
 O907 O 0.69893 0.79996 0.21293
 C908 C 0.75290 0.73714 0.16775
 H909 H 0.69379 0.72126 0.24843
 H910 H 0.74149 0.81119 0.23892
 H911 H 0.78675 0.72386 0.20618
 H912 H 0.77963 0.74062 0.30119
 H913 H 0.67422 0.81061 0.25815
 H914 H 0.75487 0.83018 0.30110
 H915 H 0.79923 0.80733 0.30759
 H916 H 0.84238 0.72876 0.27620
 H917 H 0.65744 0.76934 0.22541
 H918 H 0.70185 0.68967 0.19304
 H919 H 0.74746 0.67115 0.19544
 H920 H 0.82923 0.69173 0.23953
 H921 H 0.68071 0.80813 0.21524
 H922 H 0.77121 0.80774 0.17674
 H923 H 0.73014 0.69280 0.32278
 H924 H 0.81919 0.68974 0.28248
 Zr925 Zr 0.76853 0.27405 0.78440
 O926 O 0.75428 0.30272 0.81146
 O927 O 0.80884 0.26936 0.79573
 O928 O 0.76659 0.25740 0.82239
 O929 O 0.77994 0.32136 0.73606
 O930 O 0.74330 0.21777 0.81661
 O931 O 0.78663 0.31316 0.77871
 O932 O 0.82522 0.23719 0.76821
 O933 O 0.77480 0.23222 0.77906
 O934 O 0.78846 0.26932 0.74916
 O935 O 0.72966 0.25629 0.78462
 O936 O 0.74332 0.29251 0.75659
 Zr937 Zr 0.73039 0.22620 0.71452
 Zr938 Zr 0.73601 0.21495 0.77734
 Zr939 Zr 0.76285 0.28549 0.72148
 Zr940 Zr 0.79332 0.22788 0.74324
 O941 O 0.74057 0.31920 0.70770
 O942 O 0.80585 0.19095 0.76047
 O943 O 0.76936 0.24415 0.71380
 O944 O 0.75570 0.20839 0.74233
 O945 O 0.71013 0.23095 0.74960
 O946 O 0.72434 0.26798 0.72002
 C947 C 0.82766 0.25405 0.78681
 C948 C 0.78861 0.32826 0.75839
 C949 C 0.75501 0.23548 0.83082
 O950 O 0.75716 0.17966 0.78901
 O951 O 0.71543 0.18068 0.76357
 O952 O 0.71077 0.18781 0.72054
 C953 C 0.70723 0.17350 0.74118
 O954 O 0.69994 0.30412 0.78287
 Zr955 Zr 0.70567 0.27263 0.75553
 O956 O 0.68973 0.22995 0.70401
 O957 O 0.69923 0.20988 0.79782
 O958 O 0.67402 0.26062 0.78072
 O959 O 0.69062 0.30758 0.73648
 O960 O 0.67263 0.25950 0.73367
 C961 C 0.67031 0.24308 0.71471
 O962 O 0.74430 0.19664 0.68817
 O963 O 0.80018 0.29305 0.70257
 O964 O 0.73387 0.24197 0.67632
 O965 O 0.75933 0.28028 0.68193
 O966 O 0.82637 0.24144 0.72048
 O967 O 0.80107 0.20005 0.71294
 C968 C 0.74710 0.26287 0.66776
 H969 H 0.80620 0.27875 0.74844
 H970 H 0.75851 0.18882 0.73893
 H971 H 0.71324 0.27614 0.70618
 H972 H 0.72036 0.25939 0.80119
 H973 H 0.82578 0.18942 0.75816
 H974 H 0.74513 0.16983 0.80110
 H975 H 0.70076 0.19268 0.80759
 H976 H 0.65761 0.27125 0.77620
 H977 H 0.84256 0.23068 0.72541
 H978 H 0.79814 0.31035 0.69305
 H979 H 0.75253 0.32887 0.69545
 H980 H 0.67076 0.30828 0.73953
 H981 H 0.81929 0.19189 0.71525
 H982 H 0.72879 0.19227 0.67675
 H983 H 0.76984 0.30722 0.82278
 H984 H 0.68079 0.31027 0.78248
 C985 C 0.44538 1.00223 0.31697
 N986 N 0.44727 0.98139 0.30005
 N987 N 0.43219 0.98122 0.27876
 C988 C 0.41439 1.00170 0.27356
 N989 N 0.41299 1.02279 0.29030
 N990 N 0.42812 1.02301 0.31152
 C991 C 0.45987 1.00167 0.34186
 N992 N 0.45623 1.02240 0.35855
 N993 N 0.46639 1.02115 0.38214
 C994 C 0.48086 0.99927 0.39017
 N995 N 0.48520 0.97864 0.37332
 N996 N 0.47489 0.97986 0.34956
 C997 C -0.05462 0.50223 0.81698
 N998 N -0.05274 0.48139 0.80005
 N999 N -0.06781 0.48122 0.77877
 C1000 C -0.08561 0.50171 0.77356
 N1001 N -0.08701 0.52279 0.79031
 N1002 N -0.07188 0.52301 0.81153
 C1003 C -0.04013 0.50167 0.84186
 N1004 N -0.04378 0.52239 0.85856
 N1005 N -0.03362 0.52114 0.88215
 C1006 C -0.01914 0.49926 0.89018
 N1007 N -0.01481 0.47864 0.87333
 N1008 N -0.02512 0.47986 0.84956
 C1009 C 0.05461 -0.00224 0.81696
 N1010 N 0.05273 0.01860 0.80004
 N1011 N 0.06781 0.01877 0.77876
 C1012 C 0.08561 -0.00171 0.77355
 N1013 N 0.08701 -0.02280 0.79030
 N1014 N 0.07187 -0.02302 0.81151
 C1015 C 0.04011 -0.00169 0.84184
 N1016 N 0.04375 -0.02242 0.85853
 N1017 N 0.03358 -0.02117 0.88212
 C1018 C 0.01911 0.00071 0.89016
 N1019 N 0.01478 0.02134 0.87331
 N1020 N 0.02510 0.02012 0.84955
 C1021 C 0.55463 0.49776 0.31698
 N1022 N 0.55274 0.51861 0.30005
 N1023 N 0.56782 0.51878 0.27877
 C1024 C 0.58562 0.49829 0.27356
 N1025 N 0.58702 0.47721 0.29031
 N1026 N 0.57189 0.47699 0.31153
 C1027 C 0.54014 0.49832 0.34186
 N1028 N 0.54379 0.47760 0.35856
 N1029 N 0.53363 0.47885 0.38215
 C1030 C 0.51915 0.50073 0.39018
 N1031 N 0.51481 0.52135 0.37333
 N1032 N 0.52512 0.52013 0.34957
 C1033 C 0.55448 0.50236 0.18312
 N1034 N 0.57171 0.52317 0.18854
 N1035 N 0.58690 0.52297 0.20973
 C1036 C 0.58556 0.50187 0.22648
 N1037 N 0.56778 0.48136 0.22130
 N1038 N 0.55266 0.48151 0.20004
 C1039 C 0.53994 0.50178 0.15826
 N1040 N 0.52497 0.47993 0.15057
 N1041 N 0.51464 0.47870 0.12682
 C1042 C 0.51888 0.49934 0.10997
 N1043 N 0.53330 0.52127 0.11800
 N1044 N 0.54349 0.52253 0.14158
 C1045 C 0.05448 1.00235 0.68311
 N1046 N 0.05266 0.98150 0.70003
 N1047 N 0.06778 0.98135 0.72129
 C1048 C 0.08556 1.00187 0.72647
 N1049 N 0.08690 1.02296 0.70973
 N1050 N 0.07172 1.02315 0.68854
 C1051 C 0.03994 1.00177 0.65825
 N1052 N 0.04350 1.02252 0.64157
 N1053 N 0.03332 1.02125 0.61799
 C1054 C 0.01890 0.99933 0.60996
 N1055 N 0.01464 0.97868 0.62681
 N1056 N 0.02498 0.97992 0.65056
 C1057 C -0.05447 0.49764 0.68313
 N1058 N -0.07171 0.47684 0.68855
 N1059 N -0.08689 0.47704 0.70973
 C1060 C -0.08556 0.49813 0.72648
 N1061 N -0.06778 0.51864 0.72130
 N1062 N -0.05265 0.51849 0.70005
 C1063 C -0.03993 0.49822 0.65826
 N1064 N -0.02497 0.52006 0.65057
 N1065 N -0.01463 0.52130 0.62682
 C1066 C -0.01888 0.50065 0.60997
 N1067 N -0.03329 0.47873 0.61800
 N1068 N -0.04348 0.47747 0.64158
 C1069 C 0.44551 -0.00236 0.18311
 N1070 N 0.44734 0.01849 0.20004
 N1071 N 0.43222 0.01864 0.22130
 C1072 C 0.41443 -0.00188 0.22648
 N1073 N 0.41310 -0.02297 0.20973
 N1074 N 0.42828 -0.02316 0.18854
 C1075 C 0.46005 -0.00178 0.15825
 N1076 N 0.45649 -0.02253 0.14156
 N1077 N 0.46667 -0.02126 0.11798
 C1078 C 0.48109 0.00066 0.10995
 N1079 N 0.48535 0.02131 0.12681
 N1080 N 0.47502 0.02006 0.15056
 C1081 C 0.32190 0.40116 0.00687
 N1082 N 0.30617 0.40235 -0.01461
 N1083 N 0.28339 0.38771 -0.01660
 C1084 C 0.27535 0.37097 0.00273
 N1085 N 0.29091 0.37033 0.02440
 N1086 N 0.31361 0.38501 0.02643
 C1087 C 0.34799 0.41642 0.00837
 N1088 N 0.36365 0.41635 0.02997
 N1089 N 0.38751 0.42945 0.03067
 C1090 C 0.39670 0.44307 0.00968
 N1091 N 0.38093 0.44312 -0.01176
 N1092 N 0.35716 0.43019 -0.01241
 C1093 C -0.17810 0.90116 0.50686
 N1094 N -0.19382 0.90235 0.48539
 N1095 N -0.21660 0.88771 0.48339
 C1096 C -0.22464 0.87097 0.50273
 N1097 N -0.20908 0.87033 0.52440
 N1098 N -0.18638 0.88500 0.52643
 C1099 C -0.15200 0.91642 0.50836
 N1100 N -0.13634 0.91634 0.52996
 N1101 N -0.11248 0.92945 0.53066
 C1102 C -0.10329 0.94306 0.50967
 N1103 N -0.11906 0.94312 0.48823
 N1104 N -0.14283 0.93018 0.48758
 C1105 C -0.17786 0.09889 0.99323
 N1106 N -0.18616 0.11499 0.97363
 N1107 N -0.20887 0.12966 0.97564
 C1108 C -0.22442 0.12905 0.99731
 N1109 N -0.21637 0.11236 1.01668
 N1110 N -0.19358 0.09773 1.01470
 C1111 C -0.15176 0.08364 0.99174
 N1112 N -0.14257 0.06991 1.01254
 N1113 N -0.11881 0.05698 1.01190
 C1114 C -0.10305 0.05699 0.99045
 N1115 N -0.11225 0.07057 0.96945
 N1116 N -0.13610 0.08368 0.97013
 C1117 C 0.32218 0.59889 0.49324
 N1118 N 0.30646 0.59774 0.51472
 N1119 N 0.28367 0.61236 0.51668
 C1120 C 0.27561 0.62905 0.49732
 N1121 N 0.29117 0.62965 0.47564
 N1122 N 0.31388 0.61500 0.47364
 C1123 C 0.34828 0.58364 0.49176
 N1124 N 0.36393 0.58368 0.47015
 N1125 N 0.38779 0.57058 0.46947
 C1126 C 0.39699 0.55700 0.49047
 N1127 N 0.38123 0.55699 0.51192
 N1128 N 0.35747 0.56992 0.51256
 C1129 C 0.17811 0.59883 0.50686
 N1130 N 0.18640 0.61499 0.52643
 N1131 N 0.20910 0.62966 0.52440
 C1132 C 0.22466 0.62903 0.50273
 N1133 N 0.21662 0.61228 0.48340
 N1134 N 0.19384 0.59764 0.48539
 C1135 C 0.15202 0.58358 0.50837
 N1136 N 0.14285 0.56981 0.48759
 N1137 N 0.11908 0.55687 0.48824
 C1138 C 0.10331 0.55693 0.50968
 N1139 N 0.11250 0.57055 0.53067
 N1140 N 0.13636 0.58365 0.52997
 C1141 C 0.67808 0.09884 0.00685
 N1142 N 0.69381 0.09765 -0.01462
 N1143 N 0.71659 0.11229 -0.01661
 C1144 C 0.72463 0.12903 0.00272
 N1145 N 0.70907 0.12967 0.02439
 N1146 N 0.68637 0.11500 0.02642
 C1147 C 0.65199 0.08359 0.00836
 N1148 N 0.63632 0.08366 0.02996
 N1149 N 0.61246 0.07056 0.03065
 C1150 C 0.60328 0.05694 0.00967
 N1151 N 0.61905 0.05689 -0.01177
 N1152 N 0.64281 0.06982 -0.01243
 C1153 C 0.67784 0.90110 0.49323
 N1154 N 0.68614 0.88499 0.47364
 N1155 N 0.70885 0.87034 0.47564
 C1156 C 0.72440 0.87094 0.49732
 N1157 N 0.71635 0.88763 0.51668
 N1158 N 0.69356 0.90226 0.51471
 C1159 C 0.65174 0.91635 0.49175
 N1160 N 0.64255 0.93007 0.51255
 N1161 N 0.61879 0.94301 0.51191
 C1162 C 0.60303 0.94299 0.49046
 N1163 N 0.61223 0.92941 0.46946
 N1164 N 0.63608 0.91631 0.47014
 C1165 C 0.17783 0.40110 0.99324
 N1166 N 0.18613 0.38499 0.97364
 N1167 N 0.20885 0.37033 0.97565
 C1168 C 0.22440 0.37094 0.99732
 N1169 N 0.21634 0.38763 1.01669
 N1170 N 0.19355 0.40225 1.01472
 C1171 C 0.15173 0.41634 0.99176
 N1172 N 0.14254 0.43007 1.01256
 N1173 N 0.11878 0.44300 1.01192
 C1174 C 0.10302 0.44299 0.99047
 N1175 N 0.11222 0.42941 0.96947
 N1176 N 0.13608 0.41630 0.97015
 C1177 C -0.01123 0.31935 0.42058
 N1178 N 0.00880 0.30149 0.42606
 N1179 N 0.01177 0.27922 0.41212
 C1180 C -0.00526 0.27408 0.39226
 N1181 N -0.02573 0.29174 0.38718
 N1182 N -0.02860 0.31413 0.40107
 C1183 C -0.01144 0.34533 0.43314
 N1184 N -0.02748 0.36563 0.42433
 N1185 N -0.02508 0.39049 0.43391
 C1186 C -0.00637 0.39567 0.45233
 N1187 N 0.00938 0.37527 0.46133
 N1188 N 0.00700 0.35049 0.45176
 C1189 C 0.48875 -0.18063 -0.07945
 N1190 N 0.47140 -0.18585 -0.09896
 N1191 N 0.47426 -0.20825 -0.11284
 C1192 C 0.49473 -0.22592 -0.10774
 N1193 N 0.51175 -0.22077 -0.08788
 N1194 N 0.50878 -0.19850 -0.07395
 C1195 C 0.48855 -0.15465 -0.06689
 N1196 N 0.50698 -0.14949 -0.04827
 N1197 N 0.50935 -0.12471 -0.03869
 C1198 C 0.49361 -0.10432 -0.04770
 N1199 N 0.47490 -0.10950 -0.06613
 N1200 N 0.47251 -0.13435 -0.07571
 C1201 C 0.01144 -0.18063 1.07950
 N1202 N -0.00855 -0.19852 1.07391
 N1203 N -0.01157 -0.22080 1.08783
 C1204 C 0.00536 -0.22594 1.10776
 N1205 N 0.02578 -0.20825 1.11295
 N1206 N 0.02870 -0.18585 1.09909
 C1207 C 0.01167 -0.15464 1.06696
 N1208 N 0.02766 -0.13433 1.07584
 N1209 N 0.02527 -0.10947 1.06628
 C1210 C 0.00661 -0.10429 1.04781
 N1211 N -0.00909 -0.12470 1.03874
 N1212 N -0.00671 -0.14948 1.04829
 C1213 C 0.51145 0.31937 0.57952
 N1214 N 0.52871 0.31415 0.59912
 N1215 N 0.52579 0.29175 0.61297
 C1216 C 0.50536 0.27406 0.60777
 N1217 N 0.48843 0.27921 0.58784
 N1218 N 0.49146 0.30149 0.57393
 C1219 C 0.51169 0.34536 0.56698
 N1220 N 0.49331 0.35052 0.54831
 N1221 N 0.49094 0.37531 0.53876
 C1222 C 0.50664 0.39572 0.54783
 N1223 N 0.52529 0.39054 0.56630
 N1224 N 0.52768 0.36567 0.57587
 C1225 C 0.48856 1.18062 0.57951
 N1226 N 0.50855 1.19850 0.57392
 N1227 N 0.51157 1.22078 0.58783
 C1228 C 0.49464 1.22593 0.60776
 N1229 N 0.47421 1.20824 0.61296
 N1230 N 0.47129 1.18584 0.59910
 C1231 C 0.48832 1.15464 0.56696
 N1232 N 0.47233 1.13432 0.57585
 N1233 N 0.47472 1.10946 0.56628
 C1234 C 0.49338 1.10428 0.54781
 N1235 N 0.50908 1.12468 0.53874
 N1236 N 0.50670 1.14947 0.54830
 C1237 C -0.01145 0.68062 1.07951
 N1238 N 0.00854 0.69850 1.07392
 N1239 N 0.01157 0.72078 1.08783
 C1240 C -0.00536 0.72593 1.10776
 N1241 N -0.02579 0.70824 1.11296
 N1242 N -0.02871 0.68583 1.09911
 C1243 C -0.01168 0.65463 1.06697
 N1244 N -0.02768 0.63431 1.07586
 N1245 N -0.02529 0.60945 1.06629
 C1246 C -0.00663 0.60427 1.04782
 N1247 N 0.00906 0.62468 1.03875
 N1248 N 0.00669 0.64947 1.04831
 C1249 C 0.51124 0.68066 -0.07941
 N1250 N 0.49120 0.69852 -0.07393
 N1251 N 0.48823 0.72078 -0.08788
 C1252 C 0.50526 0.72593 -0.10773
 N1253 N 0.52574 0.70826 -0.11281
 N1254 N 0.52861 0.68588 -0.09892
 C1255 C 0.51144 0.65468 -0.06685
 N1256 N 0.52749 0.63438 -0.07566
 N1257 N 0.52509 0.60952 -0.06608
 C1258 C 0.50637 0.60434 -0.04767
 N1259 N 0.49062 0.62473 -0.03866
 N1260 N 0.49300 0.64952 -0.04823
 C1261 C 0.01124 1.18064 0.42057
 N1262 N 0.02861 1.18587 0.40106
 N1263 N 0.02574 1.20826 0.38718
 C1264 C 0.00527 1.22592 0.39226
 N1265 N -0.01176 1.22078 0.41212
 N1266 N -0.00880 1.19851 0.42606
 C1267 C 0.01144 1.15467 0.43313
 N1268 N -0.00700 1.14950 0.45175
 N1269 N -0.00938 1.12472 0.46132
 C1270 C 0.00638 1.10433 0.45232
 N1271 N 0.02509 1.10951 0.43390
 N1272 N 0.02749 1.13436 0.42432
 C1273 C 0.75228 0.69557 0.93304
 N1274 N 0.77307 0.67833 0.93850
 N1275 N 0.77284 0.66320 0.95971
 C1276 C 0.75172 0.66459 0.97645
 N1277 N 0.73121 0.68238 0.97123
 N1278 N 0.73140 0.69745 0.94995
 C1279 C 0.75173 0.71005 0.90816
 N1280 N 0.72990 0.72505 0.90045
 N1281 N 0.72869 0.73534 0.87669
 C1282 C 0.74933 0.73101 0.85984
 N1283 N 0.77124 0.71656 0.86788
 N1284 N 0.77248 0.70641 0.89148
 C1285 C 0.25228 0.19557 0.43305
 N1286 N 0.23141 0.19745 0.44996
 N1287 N 0.23122 0.18238 0.47123
 C1288 C 0.25172 0.16459 0.47645
 N1289 N 0.27284 0.16320 0.45971
 N1290 N 0.27307 0.17833 0.43850
 C1291 C 0.25173 0.21006 0.40817
 N1292 N 0.27249 0.20642 0.39148
 N1293 N 0.27124 0.21656 0.36789
 C1294 C 0.24934 0.23101 0.35984
 N1295 N 0.22869 0.23534 0.37669
 N1296 N 0.22991 0.22505 0.40046
 C1297 C 0.74774 0.30444 0.43304
 N1298 N 0.72695 0.32168 0.43850
 N1299 N 0.72718 0.33681 0.45971
 C1300 C 0.74830 0.33541 0.47645
 N1301 N 0.76880 0.31762 0.47123
 N1302 N 0.76861 0.30256 0.44995
 C1303 C 0.74829 0.28996 0.40815
 N1304 N 0.77011 0.27496 0.40045
 N1305 N 0.77133 0.26467 0.37668
 C1306 C 0.75069 0.26901 0.35983
 N1307 N 0.72879 0.28347 0.36787
 N1308 N 0.72754 0.29361 0.39147
 C1309 C 0.24772 0.80443 0.93304
 N1310 N 0.26859 0.80255 0.94995
 N1311 N 0.26877 0.81762 0.97123
 C1312 C 0.24827 0.83541 0.97644
 N1313 N 0.22715 0.83680 0.95970
 N1314 N 0.22692 0.82167 0.93849
 C1315 C 0.24827 0.78994 0.90816
 N1316 N 0.22752 0.79358 0.89147
 N1317 N 0.22877 0.78344 0.86788
 C1318 C 0.25067 0.76899 0.85983
 N1319 N 0.27132 0.76466 0.87668
 N1320 N 0.27009 0.77495 0.90045
 C1321 C 0.25239 0.80430 0.06686
 N1322 N 0.27321 0.82152 0.06143
 N1323 N 0.27299 0.83669 0.04025
 C1324 C 0.25187 0.83536 0.02352
 N1325 N 0.23134 0.81759 0.02870
 N1326 N 0.23151 0.80248 0.04996
 C1327 C 0.25182 0.78977 0.09172
 N1328 N 0.22996 0.77482 0.09943
 N1329 N 0.22872 0.76450 0.12318
 C1330 C 0.24939 0.76875 0.14002
 N1331 N 0.27133 0.78315 0.13198
 N1332 N 0.27259 0.79332 0.10840
 C1333 C 0.75241 0.30429 0.56687
 N1334 N 0.73153 0.30247 0.54996
 N1335 N 0.73137 0.31759 0.52871
 C1336 C 0.75190 0.33536 0.52352
 N1337 N 0.77302 0.33668 0.54026
 N1338 N 0.77323 0.32151 0.56144
 C1339 C 0.75184 0.28976 0.59173
 N1340 N 0.77261 0.29331 0.60841
 N1341 N 0.77134 0.28314 0.63199
 C1342 C 0.74940 0.26875 0.64002
 N1343 N 0.72873 0.26450 0.62318
 N1344 N 0.72997 0.27482 0.59943
 C1345 C 0.24760 0.19570 0.56687
 N1346 N 0.22678 0.17848 0.56144
 N1347 N 0.22699 0.16331 0.54026
 C1348 C 0.24812 0.16464 0.52352
 N1349 N 0.26865 0.18241 0.52871
 N1350 N 0.26848 0.19752 0.54996
 C1351 C 0.24817 0.21023 0.59173
 N1352 N 0.27003 0.22518 0.59943
 N1353 N 0.27127 0.23550 0.62318
 C1354 C 0.25060 0.23125 0.64003
 N1355 N 0.22866 0.21685 0.63199
 N1356 N 0.22739 0.20668 0.60841
 C1357 C 0.74760 0.69571 0.06686
 N1358 N 0.76848 0.69752 0.04996
 N1359 N 0.76865 0.68241 0.02871
 C1360 C 0.74811 0.66464 0.02352
 N1361 N 0.72699 0.66332 0.04025
 N1362 N 0.72678 0.67849 0.06144
 C1363 C 0.74817 0.71024 0.09172
 N1364 N 0.72739 0.70669 0.10840
 N1365 N 0.72866 0.71686 0.13198
 C1366 C 0.75060 0.73126 0.14002
 N1367 N 0.77127 0.73551 0.12318
 N1368 N 0.77003 0.72519 0.09942
 C1369 C 0.15137 0.57188 0.24316
 N1370 N 0.13523 0.56358 0.22358
 N1371 N 0.12056 0.54088 0.22561
 C1372 C 0.12120 0.52534 0.24728
 N1373 N 0.13794 0.53339 0.26662
 N1374 N 0.15257 0.55617 0.26463
 C1375 C 0.16661 0.59797 0.24167
 N1376 N 0.18035 0.60717 0.26246
 N1377 N 0.19325 0.63093 0.26181
 C1378 C 0.19320 0.64668 0.24036
 N1379 N 0.17961 0.63747 0.21937
 N1380 N 0.16653 0.61361 0.22005
 C1381 C 0.65137 0.07188 0.74316
 N1382 N 0.63523 0.06358 0.72358
 N1383 N 0.62056 0.04088 0.72561
 C1384 C 0.62120 0.02534 0.74728
 N1385 N 0.63794 0.03339 0.76662
 N1386 N 0.65256 0.05617 0.76463
 C1387 C 0.66661 0.09797 0.74167
 N1388 N 0.68034 0.10717 0.76246
 N1389 N 0.69325 0.13094 0.76181
 C1390 C 0.69320 0.14668 0.74037
 N1391 N 0.67961 0.13747 0.71937
 N1392 N 0.66653 0.11361 0.72006
 C1393 C 0.84869 0.07215 0.25674
 N1394 N 0.86479 0.06383 0.27635
 N1395 N 0.87944 0.04112 0.27435
 C1396 C 0.87883 0.02559 0.25267
 N1397 N 0.86214 0.03365 0.23330
 N1398 N 0.84753 0.05644 0.23526
 C1399 C 0.83347 0.09824 0.25821
 N1400 N 0.81977 0.10746 0.23740
 N1401 N 0.80686 0.13122 0.23804
 C1402 C 0.80688 0.14696 0.25949
 N1403 N 0.82043 0.13773 0.28051
 N1404 N 0.83351 0.11388 0.27983
 C1405 C 0.34869 0.57213 0.75674
 N1406 N 0.36478 0.56382 0.77635
 N1407 N 0.37943 0.54111 0.77435
 C1408 C 0.37883 0.52558 0.75268
 N1409 N 0.36214 0.53364 0.73330
 N1410 N 0.34753 0.55643 0.73526
 C1411 C 0.33346 0.59823 0.75821
 N1412 N 0.31977 0.60745 0.73740
 N1413 N 0.30686 0.63121 0.73804
 C1414 C 0.30687 0.64694 0.75949
 N1415 N 0.32042 0.63772 0.78051
 N1416 N 0.33350 0.61386 0.77983
 C1417 C 0.34863 0.42812 0.74316
 N1418 N 0.34744 0.44383 0.76464
 N1419 N 0.36206 0.46661 0.76662
 C1420 C 0.37880 0.47465 0.74728
 N1421 N 0.37944 0.45911 0.72561
 N1422 N 0.36477 0.43642 0.72358
 C1423 C 0.33339 0.40202 0.74167
 N1424 N 0.33347 0.38638 0.72006
 N1425 N 0.32039 0.36253 0.71937
 C1426 C 0.30680 0.35331 0.74037
 N1427 N 0.30675 0.36906 0.76181
 N1428 N 0.31966 0.39282 0.76246
 C1429 C 0.84863 0.92813 0.24316
 N1430 N 0.86477 0.93643 0.22358
 N1431 N 0.87944 0.95912 0.22560
 C1432 C 0.87880 0.97466 0.24727
 N1433 N 0.86207 0.96662 0.26661
 N1434 N 0.84744 0.94384 0.26463
 C1435 C 0.83339 0.90204 0.24166
 N1436 N 0.81966 0.89283 0.26246
 N1437 N 0.80675 0.86907 0.26180
 C1438 C 0.80680 0.85332 0.24036
 N1439 N 0.82039 0.86254 0.21936
 N1440 N 0.83347 0.88639 0.22005
 C1441 C 0.65131 0.92786 0.75674
 N1442 N 0.63522 0.93618 0.77635
 N1443 N 0.62057 0.95888 0.77435
 C1444 C 0.62117 0.97442 0.75268
 N1445 N 0.63786 0.96636 0.73330
 N1446 N 0.65247 0.94357 0.73527
 C1447 C 0.66654 0.90176 0.75822
 N1448 N 0.68024 0.89255 0.73741
 N1449 N 0.69314 0.86879 0.73805
 C1450 C 0.69313 0.85305 0.75950
 N1451 N 0.67957 0.86228 0.78051
 N1452 N 0.66650 0.88613 0.77983
 C1453 C 0.15132 0.42786 0.25674
 N1454 N 0.15247 0.44356 0.23527
 N1455 N 0.13786 0.46635 0.23330
 C1456 C 0.12117 0.47442 0.25268
 N1457 N 0.12057 0.45888 0.27435
 N1458 N 0.13522 0.43618 0.27635
 C1459 C 0.16654 0.40176 0.25822
 N1460 N 0.16650 0.38613 0.27984
 N1461 N 0.17958 0.36228 0.28051
 C1462 C 0.19313 0.35305 0.25950
 N1463 N 0.19315 0.36879 0.23805
 N1464 N 0.18024 0.39255 0.23741
 C1465 C 0.06936 0.23873 0.82981
 N1466 N 0.06416 0.22140 0.84934
 N1467 N 0.04177 0.22428 0.86326
 C1468 C 0.02409 0.24474 0.85819
 N1469 N 0.02923 0.26175 0.83832
 N1470 N 0.05149 0.25876 0.82435
 C1471 C 0.09532 0.23848 0.81717
 N1472 N 0.10044 0.25685 0.79851
 N1473 N 0.12521 0.25920 0.78885
 C1474 C 0.14564 0.24346 0.79782
 N1475 N 0.14051 0.22480 0.81628
 N1476 N 0.11566 0.22244 0.82595
 C1477 C 0.56937 0.73873 0.32980
 N1478 N 0.56417 0.72139 0.34933
 N1479 N 0.54178 0.72428 0.36325
 C1480 C 0.52410 0.74474 0.35818
 N1481 N 0.52923 0.76175 0.33832
 N1482 N 0.55149 0.75876 0.32434
 C1483 C 0.59532 0.73848 0.31716
 N1484 N 0.60044 0.75686 0.29850
 N1485 N 0.62521 0.75920 0.28884
 C1486 C 0.64565 0.74347 0.29781
 N1487 N 0.64051 0.72481 0.31627
 N1488 N 0.61567 0.72245 0.32593
 C1489 C 0.56940 0.26148 0.17010
 N1490 N 0.56420 0.27871 0.15049
 N1491 N 0.54180 0.27577 0.13660
 C1492 C 0.52410 0.25536 0.14179
 N1493 N 0.52923 0.23845 0.16173
 N1494 N 0.55151 0.24149 0.17567
 C1495 C 0.59537 0.26176 0.18272
 N1496 N 0.60048 0.24344 0.20144
 N1497 N 0.62526 0.24111 0.21108
 C1498 C 0.64571 0.25679 0.20205
 N1499 N 0.64058 0.27539 0.18353
 N1500 N 0.61572 0.27774 0.17388
 C1501 C 0.06939 0.76149 0.67011
 N1502 N 0.05150 0.74151 0.67568
 N1503 N 0.02922 0.73847 0.66174
 C1504 C 0.02409 0.75537 0.64179
 N1505 N 0.04180 0.77577 0.63660
 N1506 N 0.06420 0.77872 0.65049
 C1507 C 0.09536 0.76178 0.68273
 N1508 N 0.11572 0.77775 0.67388
 N1509 N 0.14057 0.77539 0.68353
 C1510 C 0.14570 0.75680 0.70205
 N1511 N 0.12525 0.74112 0.71109
 N1512 N 0.10047 0.74346 0.70145
 C1513 C 0.93061 0.73854 0.67011
 N1514 N 0.94850 0.75852 0.67567
 N1515 N 0.97078 0.76156 0.66173
 C1516 C 0.97591 0.74465 0.64179
 N1517 N 0.95821 0.72424 0.63661
 N1518 N 0.93581 0.72130 0.65050
 C1519 C 0.90464 0.73825 0.68272
 N1520 N 0.88429 0.72227 0.67388
 N1521 N 0.85944 0.72462 0.68353
 C1522 C 0.85431 0.74322 0.70205
 N1523 N 0.87475 0.75891 0.71108
 N1524 N 0.89953 0.75657 0.70144
 C1525 C 0.43062 0.23852 0.17012
 N1526 N 0.43582 0.22129 0.15051
 N1527 N 0.45822 0.22423 0.13661
 C1528 C 0.47592 0.24465 0.14179
 N1529 N 0.47079 0.26155 0.16173
 N1530 N 0.44851 0.25851 0.17568
 C1531 C 0.40465 0.23824 0.18274
 N1532 N 0.39954 0.25656 0.20145
 N1533 N 0.37476 0.25889 0.21109
 C1534 C 0.35432 0.24322 0.20206
 N1535 N 0.35945 0.22461 0.18354
 N1536 N 0.38430 0.22226 0.17390
 C1537 C 0.43063 0.76126 0.32981
 N1538 N 0.44850 0.74123 0.32435
 N1539 N 0.47076 0.73824 0.33832
 C1540 C 0.47590 0.75525 0.35819
 N1541 N 0.45822 0.77571 0.36325
 N1542 N 0.43583 0.77860 0.34934
 C1543 C 0.40467 0.76152 0.31717
 N1544 N 0.38433 0.77755 0.32594
 N1545 N 0.35949 0.77519 0.31627
 C1546 C 0.35435 0.75654 0.29781
 N1547 N 0.37479 0.74080 0.28884
 N1548 N 0.39956 0.74314 0.29850
 C1549 C 0.93062 0.26129 0.82981
 N1550 N 0.93582 0.27861 0.84935
 N1551 N 0.95821 0.27572 0.86327
 C1552 C 0.97589 0.25527 0.85819
 N1553 N 0.97076 0.23827 0.83831
 N1554 N 0.94850 0.24127 0.82434
 C1555 C 0.90467 0.26154 0.81717
 N1556 N 0.89956 0.24317 0.79850
 N1557 N 0.87478 0.24083 0.78884
 C1558 C 0.85435 0.25655 0.79782
 N1559 N 0.85948 0.27521 0.81629
 N1560 N 0.88432 0.27757 0.82595
 C1561 C 0.55417 0.99853 0.68253
 N1562 N 0.57142 0.97771 0.68786
 N1563 N 0.58614 0.97751 0.70932
 C1564 C 0.58429 0.99818 0.72647
 N1565 N 0.56643 1.01866 0.72141
 N1566 N 0.55175 1.01891 0.69988
 C1567 C 0.54039 0.99963 0.65732
 N1568 N 0.52494 1.02123 0.64983
 N1569 N 0.51514 1.02284 0.62589
 C1570 C 0.52057 1.00285 0.60863
 N1571 N 0.53553 0.98122 0.61642
 N1572 N 0.54513 0.97957 0.64018
 C1573 C 0.05416 0.49853 1.18254
 N1574 N 0.05175 0.51891 1.19988
 N1575 N 0.06643 0.51866 1.22142
 C1576 C 0.08429 0.49817 1.22647
 N1577 N 0.08613 0.47750 1.20933
 N1578 N 0.07141 0.47771 1.18786
 C1579 C 0.04038 0.49963 1.15733
 N1580 N 0.04512 0.47956 1.14019
 N1581 N 0.03552 0.48121 1.11643
 C1582 C 0.02056 0.50285 1.10863
 N1583 N 0.01514 0.52283 1.12589
 N1584 N 0.02493 0.52123 1.14984
 C1585 C -0.05417 0.00147 1.18252
 N1586 N -0.05175 -0.01891 1.19987
 N1587 N -0.06643 -0.01866 1.22141
 C1588 C -0.08429 0.00183 1.22647
 N1589 N -0.08614 0.02250 1.20931
 N1590 N -0.07142 0.02229 1.18785
 C1591 C -0.04039 0.00037 1.15731
 N1592 N -0.04514 0.02043 1.14017
 N1593 N -0.03554 0.01878 1.11641
 C1594 C -0.02058 -0.00286 1.10862
 N1595 N -0.01515 -0.02284 1.12588
 N1596 N -0.02494 -0.02123 1.14983
 C1597 C 0.44584 0.50147 0.68254
 N1598 N 0.44825 0.48108 0.69988
 N1599 N 0.43357 0.48133 0.72142
 C1600 C 0.41571 0.50182 0.72647
 N1601 N 0.41387 0.52249 0.70933
 N1602 N 0.42860 0.52228 0.68786
 C1603 C 0.45963 0.50037 0.65733
 N1604 N 0.45489 0.52043 0.64019
 N1605 N 0.46450 0.51879 0.61644
 C1606 C 0.47945 0.49715 0.60864
 N1607 N 0.48487 0.47716 0.62589
 N1608 N 0.47507 0.47876 0.64984
 C1609 C 0.44567 0.49869 -0.18243
 N1610 N 0.44817 0.51906 -0.19979
 N1611 N 0.43354 0.51882 -0.22135
 C1612 C 0.41565 0.49837 -0.22644
 N1613 N 0.41372 0.47771 -0.20928
 N1614 N 0.42839 0.47790 -0.18779
 C1615 C 0.45940 0.49977 -0.15719
 N1616 N 0.45453 0.47975 -0.14004
 N1617 N 0.46410 0.48138 -0.11627
 C1618 C 0.47915 0.50296 -0.10848
 N1619 N 0.48469 0.52290 -0.12575
 N1620 N 0.47493 0.52131 -0.14971
 C1621 C -0.05432 0.99869 0.31756
 N1622 N -0.07160 0.97790 0.31220
 N1623 N -0.08627 0.97771 0.29071
 C1624 C -0.08435 0.99837 0.27355
 N1625 N -0.06645 1.01883 0.27864
 N1626 N -0.05183 1.01906 0.30021
 C1627 C -0.04060 0.99977 0.34279
 N1628 N -0.02506 1.02131 0.35028
 N1629 N -0.01530 1.02290 0.37424
 C1630 C -0.02084 1.00296 0.39151
 N1631 N -0.03589 0.98138 0.38372
 N1632 N -0.04546 0.97975 0.35995
 C1633 C 0.05433 0.50131 0.31757
 N1634 N 0.05183 0.48094 0.30022
 N1635 N 0.06646 0.48117 0.27865
 C1636 C 0.08435 0.50163 0.27356
 N1637 N 0.08628 0.52229 0.29072
 N1638 N 0.07161 0.52210 0.31221
 C1639 C 0.04061 0.50023 0.34281
 N1640 N 0.04547 0.52025 0.35996
 N1641 N 0.03590 0.51862 0.38373
 C1642 C 0.02086 0.49704 0.39153
 N1643 N 0.01531 0.47710 0.37425
 N1644 N 0.02507 0.47869 0.35029
 C1645 C 0.55432 0.00132 -0.18244
 N1646 N 0.57160 0.02210 -0.18780
 N1647 N 0.58627 0.02229 -0.20929
 C1648 C 0.58435 0.00163 -0.22644
 N1649 N 0.56645 -0.01882 -0.22136
 N1650 N 0.55183 -0.01905 -0.19979
 C1651 C 0.54059 0.00024 -0.15721
 N1652 N 0.52506 -0.02131 -0.14972
 N1653 N 0.51529 -0.02289 -0.12576
 C1654 C 0.52082 -0.00294 -0.10849
 N1655 N 0.53587 0.01864 -0.11629
 N1656 N 0.54544 0.02027 -0.14005
 C1657 C 0.67879 0.59631 -0.00670
 N1658 N 0.68632 0.61316 -0.02603
 N1659 N 0.70864 0.62840 -0.02402
 C1660 C 0.72452 0.62768 -0.00257
 N1661 N 0.71718 0.61039 0.01657
 N1662 N 0.69480 0.59516 0.01458
 C1663 C 0.65322 0.58024 -0.00826
 N1664 N 0.64509 0.56508 0.01205
 N1665 N 0.62164 0.55158 0.01142
 C1666 C 0.60520 0.55241 -0.00955
 N1667 N 0.61339 0.56738 -0.03008
 N1668 N 0.63693 0.58101 -0.02942
 C1669 C 0.17880 1.09631 0.49330
 N1670 N 0.18632 1.11316 0.47397
 N1671 N 0.20865 1.12840 0.47598
 C1672 C 0.22453 1.12768 0.49743
 N1673 N 0.21718 1.11038 0.51657
 N1674 N 0.19480 1.09515 0.51458
 C1675 C 0.15323 1.08023 0.49173
 N1676 N 0.14510 1.06507 0.51204
 N1677 N 0.12165 1.05156 0.51141
 C1678 C 0.10522 1.05240 0.49044
 N1679 N 0.11340 1.06737 0.46991
 N1680 N 0.13694 1.08101 0.47057
 C1681 C 0.17902 -0.09627 1.00677
 N1682 N 0.18652 -0.11316 1.02608
 N1683 N 0.20884 -0.12841 1.02404
 C1684 C 0.22472 -0.12766 1.00260
 N1685 N 0.21739 -0.11033 0.98348
 N1686 N 0.19502 -0.09509 0.98550
 C1687 C 0.15345 -0.08019 1.00836
 N1688 N 0.14533 -0.06501 0.98806
 N1689 N 0.12188 -0.05150 0.98871
 C1690 C 0.10544 -0.05236 1.00967
 N1691 N 0.11362 -0.06735 1.03018
 N1692 N 0.13716 -0.08099 1.02951
 C1693 C 0.67905 0.40373 0.50679
 N1694 N 0.68655 0.38684 0.52609
 N1695 N 0.70887 0.37159 0.52405
 C1696 C 0.72475 0.37234 0.50261
 N1697 N 0.71742 0.38968 0.48350
 N1698 N 0.69506 0.40492 0.48552
 C1699 C 0.65349 0.41981 0.50838
 N1700 N 0.64536 0.43500 0.48809
 N1701 N 0.62192 0.44851 0.48873
 C1702 C 0.60548 0.44765 0.50970
 N1703 N 0.61366 0.43265 0.53021
 N1704 N 0.63719 0.41901 0.52953
 C1705 C -0.17879 0.40369 0.49330
 N1706 N -0.19479 0.40484 0.51458
 N1707 N -0.21717 0.38961 0.51658
 C1708 C -0.22451 0.37232 0.49743
 N1709 N -0.20863 0.37160 0.47599
 N1710 N -0.18630 0.38684 0.47397
 C1711 C -0.15322 0.41976 0.49174
 N1712 N -0.13693 0.41899 0.47058
 N1713 N -0.11339 0.43263 0.46992
 C1714 C -0.10520 0.44760 0.49045
 N1715 N -0.12163 0.44843 0.51142
 N1716 N -0.14509 0.43492 0.51205
 C1717 C 0.32118 -0.09631 -0.00671
 N1718 N 0.31366 -0.11316 -0.02604
 N1719 N 0.29134 -0.12840 -0.02402
 C1720 C 0.27546 -0.12768 -0.00258
 N1721 N 0.28280 -0.11038 0.01656
 N1722 N 0.30518 -0.09515 0.01457
 C1723 C 0.34675 -0.08023 -0.00828
 N1724 N 0.35488 -0.06507 0.01203
 N1725 N 0.37833 -0.05156 0.01140
 C1726 C 0.39477 -0.05239 -0.00957
 N1727 N 0.38658 -0.06736 -0.03009
 N1728 N 0.36304 -0.08100 -0.02943
 C1729 C 0.32097 1.09627 0.50679
 N1730 N 0.30496 1.09508 0.48551
 N1731 N 0.28260 1.11032 0.48349
 C1732 C 0.27527 1.12766 0.50261
 N1733 N 0.29115 1.12840 0.52405
 N1734 N 0.31346 1.11315 0.52609
 C1735 C 0.34653 1.08018 0.50837
 N1736 N 0.36282 1.08098 0.52952
 N1737 N 0.38636 1.06734 0.53020
 C1738 C 0.39454 1.05235 0.50969
 N1739 N 0.37810 1.05149 0.48872
 N1740 N 0.35465 1.06499 0.48808
 C1741 C -0.17904 0.59626 1.00679
 N1742 N -0.19504 0.59508 0.98551
 N1743 N -0.21741 0.61032 0.98349
 C1744 C -0.22474 0.62766 1.00261
 N1745 N -0.20886 0.62840 1.02405
 N1746 N -0.18654 0.61315 1.02609
 C1747 C -0.15348 0.58018 1.00837
 N1748 N -0.13718 0.58098 1.02953
 N1749 N -0.11365 0.56734 1.03020
 C1750 C -0.10547 0.55234 1.00969
 N1751 N -0.12191 0.55148 0.98873
 N1752 N -0.14535 0.56499 0.98808
 C1753 C 0.01389 0.68233 0.57801
 N1754 N 0.03084 0.68751 0.59784
 N1755 N 0.02684 0.70914 0.61252
 C1756 C 0.00551 0.72597 0.60805
 N1757 N -0.01124 0.72079 0.58799
 N1758 N -0.00710 0.69931 0.57322
 C1759 C 0.01535 0.65687 0.56461
 N1760 N -0.00198 0.65208 0.54498
 N1761 N -0.00422 0.62735 0.53526
 C1762 C 0.01054 0.60665 0.54511
 N1763 N 0.02839 0.61152 0.56434
 N1764 N 0.03069 0.63633 0.57404
 C1765 C 0.51388 0.18234 0.07799
 N1766 N 0.53083 0.18752 0.09781
 N1767 N 0.52684 0.20915 0.11249
 C1768 C 0.50550 0.22598 0.10804
 N1769 N 0.48874 0.22080 0.08799
 N1770 N 0.49288 0.19932 0.07321
 C1771 C 0.51532 0.15689 0.06458
 N1772 N 0.49799 0.15209 0.04497
 N1773 N 0.49574 0.12736 0.03525
 C1774 C 0.51051 0.10667 0.04509
 N1775 N 0.52837 0.11153 0.06431
 N1776 N 0.53067 0.13635 0.07400
 C1777 C -0.01368 0.18233 0.92204
 N1778 N 0.00735 0.19931 0.92674
 N1779 N 0.01142 0.22078 0.91194
 C1780 C -0.00542 0.22596 0.89195
 N1781 N -0.02678 0.20913 0.88759
 N1782 N -0.03072 0.18751 0.90229
 C1783 C -0.01509 0.15689 0.93547
 N1784 N -0.03049 0.13635 0.92611
 N1785 N -0.02818 0.11155 0.93582
 C1786 C -0.01026 0.10668 0.95500
 N1787 N 0.00457 0.12737 0.96477
 N1788 N 0.00232 0.15210 0.95503
 C1789 C 0.48636 0.68234 0.42207
 N1790 N 0.46930 0.68752 0.40232
 N1791 N 0.47323 0.70914 0.38761
 C1792 C 0.49460 0.72596 0.39195
 N1793 N 0.51145 0.72078 0.41194
 N1794 N 0.50739 0.69931 0.42674
 C1795 C 0.48495 0.65690 0.43549
 N1796 N 0.50237 0.65211 0.45505
 N1797 N 0.50462 0.62738 0.46479
 C1798 C 0.48978 0.60669 0.45502
 N1799 N 0.47185 0.61156 0.43586
 N1800 N 0.46954 0.63636 0.42615
 C1801 C 0.51365 0.81765 0.42206
 N1802 N 0.49262 0.80068 0.42674
 N1803 N 0.48855 0.77921 0.41194
 C1804 C 0.50540 0.77403 0.39195
 N1805 N 0.52677 0.79085 0.38761
 N1806 N 0.53071 0.81247 0.40231
 C1807 C 0.51506 0.84309 0.43549
 N1808 N 0.53047 0.86363 0.42614
 N1809 N 0.52816 0.88843 0.43585
 C1810 C 0.51023 0.89330 0.45502
 N1811 N 0.49539 0.87261 0.46478
 N1812 N 0.49765 0.84789 0.45504
 C1813 C 0.01366 0.31764 0.92208
 N1814 N 0.03071 0.31247 0.90232
 N1815 N 0.02677 0.29085 0.88761
 C1816 C 0.00540 0.27403 0.89196
 N1817 N -0.01145 0.27920 0.91195
 N1818 N -0.00737 0.30067 0.92676
 C1819 C 0.01507 0.34308 0.93551
 N1820 N -0.00235 0.34788 0.95506
 N1821 N -0.00460 0.37260 0.96480
 C1822 C 0.01023 0.39329 0.95503
 N1823 N 0.02816 0.38842 0.93586
 N1824 N 0.03047 0.36362 0.92616
 C1825 C 0.48612 0.31767 0.07800
 N1826 N 0.50712 0.30069 0.07321
 N1827 N 0.51125 0.27922 0.08799
 C1828 C 0.49451 0.27403 0.10805
 N1829 N 0.47317 0.29086 0.11250
 N1830 N 0.46916 0.31249 0.09782
 C1831 C 0.48466 0.34312 0.06459
 N1832 N 0.46931 0.36366 0.07402
 N1833 N 0.47161 0.38848 0.06432
 C1834 C 0.48947 0.39335 0.04509
 N1835 N 0.50423 0.37265 0.03525
 N1836 N 0.50199 0.34792 0.04497
 C1837 C -0.01388 0.81766 0.57798
 N1838 N 0.00712 0.80068 0.57320
 N1839 N 0.01126 0.77921 0.58798
 C1840 C -0.00549 0.77403 0.60804
 N1841 N -0.02683 0.79085 0.61249
 N1842 N -0.03084 0.81247 0.59780
 C1843 C -0.01533 0.84311 0.56457
 N1844 N -0.03068 0.86365 0.57399
 N1845 N -0.02838 0.88846 0.56430
 C1846 C -0.01052 0.89333 0.54508
 N1847 N 0.00425 0.87264 0.53524
 N1848 N 0.00200 0.84791 0.54496
 C1849 C 0.24849 0.30398 0.06746
 N1850 N 0.22766 0.32120 0.06213
 N1851 N 0.22746 0.33592 0.04067
 C1852 C 0.24816 0.33409 0.02353
 N1853 N 0.26867 0.31625 0.02860
 N1854 N 0.26891 0.30158 0.05013
 C1855 C 0.24959 0.29020 0.09267
 N1856 N 0.27122 0.27479 0.10016
 N1857 N 0.27282 0.26501 0.12411
 C1858 C 0.25280 0.27041 0.14136
 N1859 N 0.23113 0.28533 0.13355
 N1860 N 0.22949 0.29492 0.10980
 C1861 C 0.74849 0.80398 0.56745
 N1862 N 0.76891 0.80158 0.55012
 N1863 N 0.76867 0.81625 0.52859
 C1864 C 0.74817 0.83409 0.52353
 N1865 N 0.72746 0.83592 0.54066
 N1866 N 0.72766 0.82121 0.56212
 C1867 C 0.74958 0.79021 0.59266
 N1868 N 0.72948 0.79493 0.60979
 N1869 N 0.73113 0.78534 0.63355
 C1870 C 0.75280 0.77042 0.64136
 N1871 N 0.77282 0.76501 0.62411
 N1872 N 0.77121 0.77479 0.60016
 C1873 C 0.25152 0.69602 0.56745
 N1874 N 0.23110 0.69842 0.55012
 N1875 N 0.23134 0.68375 0.52859
 C1876 C 0.25185 0.66590 0.52352
 N1877 N 0.27255 0.66407 0.54066
 N1878 N 0.27236 0.67879 0.56212
 C1879 C 0.25043 0.70979 0.59266
 N1880 N 0.27053 0.70507 0.60979
 N1881 N 0.26888 0.71466 0.63354
 C1882 C 0.24721 0.72958 0.64135
 N1883 N 0.22719 0.73499 0.62410
 N1884 N 0.22880 0.72521 0.60015
 C1885 C 0.75150 0.19601 0.06745
 N1886 N 0.77234 0.17878 0.06212
 N1887 N 0.77253 0.16407 0.04066
 C1888 C 0.75182 0.16590 0.02352
 N1889 N 0.73132 0.18375 0.02859
 N1890 N 0.73108 0.19842 0.05012
 C1891 C 0.75042 0.20979 0.09266
 N1892 N 0.72879 0.22521 0.10015
 N1893 N 0.72719 0.23499 0.12410
 C1894 C 0.74721 0.22958 0.14135
 N1895 N 0.76887 0.21465 0.13354
 N1896 N 0.77051 0.20506 0.10979
 C1897 C 0.74864 0.19586 0.93245
 N1898 N 0.72783 0.17860 0.93781
 N1899 N 0.72765 0.16394 0.95930
 C1900 C 0.74835 0.16585 0.97644
 N1901 N 0.76882 0.18372 0.97135
 N1902 N 0.76904 0.19834 0.94979
 C1903 C 0.74971 0.20958 0.90722
 N1904 N 0.77128 0.22508 0.89972
 N1905 N 0.77287 0.23483 0.87576
 C1906 C 0.75289 0.22931 0.85850
 N1907 N 0.73128 0.21431 0.86631
 N1908 N 0.72965 0.20475 0.89008
 C1909 C 0.24866 0.69585 0.43245
 N1910 N 0.26907 0.69833 0.44978
 N1911 N 0.26885 0.68371 0.47134
 C1912 C 0.24838 0.66584 0.47644
 N1913 N 0.22768 0.66393 0.45930
 N1914 N 0.22786 0.67859 0.43781
 C1915 C 0.24973 0.70957 0.40721
 N1916 N 0.22967 0.70473 0.39007
 N1917 N 0.23130 0.71429 0.36630
 C1918 C 0.25291 0.72930 0.35849
 N1919 N 0.27288 0.73482 0.37575
 N1920 N 0.27130 0.72507 0.39972
 C1921 C 0.75135 0.80414 0.43245
 N1922 N 0.77216 0.82140 0.43781
 N1923 N 0.77233 0.83607 0.45930
 C1924 C 0.75164 0.83415 0.47644
 N1925 N 0.73117 0.81628 0.47135
 N1926 N 0.73095 0.80166 0.44979
 C1927 C 0.75028 0.79042 0.40722
 N1928 N 0.72871 0.77492 0.39972
 N1929 N 0.72712 0.76518 0.37576
 C1930 C 0.74710 0.77070 0.35849
 N1931 N 0.76871 0.78571 0.36630
 N1932 N 0.77034 0.79527 0.39007
 C1933 C 0.25135 0.30414 0.93246
 N1934 N 0.23094 0.30165 0.94979
 N1935 N 0.23116 0.31627 0.97135
 C1936 C 0.25164 0.33415 0.97645
 N1937 N 0.27233 0.33606 0.95931
 N1938 N 0.27215 0.32140 0.93782
 C1939 C 0.25028 0.29042 0.90722
 N1940 N 0.27033 0.29526 0.89008
 N1941 N 0.26871 0.28570 0.86631
 C1942 C 0.24710 0.27069 0.85850
 N1943 N 0.22712 0.26517 0.87576
 N1944 N 0.22871 0.27492 0.89973
 C1945 C 0.84609 0.42882 0.75668
 N1946 N 0.84493 0.44481 0.73540
 N1947 N 0.86015 0.46719 0.73341
 C1948 C 0.87744 0.47455 0.75257
 N1949 N 0.87816 0.45868 0.77401
 N1950 N 0.86293 0.43636 0.77602
 C1951 C 0.83004 0.40325 0.75823
 N1952 N 0.83080 0.38699 0.77940
 N1953 N 0.81719 0.36345 0.78005
 C1954 C 0.80226 0.35523 0.75951
 N1955 N 0.80143 0.37163 0.73853
 N1956 N 0.81491 0.39509 0.73790
 C1957 C 0.34609 0.92882 0.25667
 N1958 N 0.34493 0.94481 0.23540
 N1959 N 0.36015 0.96719 0.23341
 C1960 C 0.37744 0.97454 0.25257
 N1961 N 0.37816 0.95868 0.27401
 N1962 N 0.36293 0.93635 0.27602
 C1963 C 0.33004 0.90325 0.25823
 N1964 N 0.33081 0.88698 0.27940
 N1965 N 0.31720 0.86344 0.28005
 C1966 C 0.30226 0.85522 0.25951
 N1967 N 0.30143 0.87163 0.23853
 N1968 N 0.31491 0.89508 0.23790
 C1969 C 0.15395 0.92905 0.74324
 N1970 N 0.13708 0.93657 0.72392
 N1971 N 0.12184 0.95888 0.72595
 C1972 C 0.12257 0.97475 0.74740
 N1973 N 0.13991 0.96740 0.76652
 N1974 N 0.15514 0.94504 0.76452
 C1975 C 0.17001 0.90348 0.74166
 N1976 N 0.18517 0.89532 0.76197
 N1977 N 0.19865 0.87187 0.76133
 C1978 C 0.19779 0.85547 0.74036
 N1979 N 0.18283 0.86368 0.71983
 N1980 N 0.16922 0.88722 0.72050
 C1981 C 0.65396 0.42906 0.24324
 N1982 N 0.65515 0.44505 0.26451
 N1983 N 0.63991 0.46741 0.26652
 C1984 C 0.62258 0.47476 0.24740
 N1985 N 0.62183 0.45889 0.22595
 N1986 N 0.63708 0.43658 0.22392
 C1987 C 0.67002 0.40349 0.24166
 N1988 N 0.66922 0.38723 0.22050
 N1989 N 0.68283 0.36369 0.21983
 C1990 C 0.69780 0.35548 0.24035
 N1991 N 0.69866 0.37188 0.26133
 N1992 N 0.68518 0.39534 0.26197
 C1993 C 0.65391 0.57119 0.25667
 N1994 N 0.63707 0.56365 0.27602
 N1995 N 0.62184 0.54132 0.27401
 C1996 C 0.62256 0.52546 0.25257
 N1997 N 0.63985 0.53282 0.23341
 N1998 N 0.65507 0.55520 0.23539
 C1999 C 0.66996 0.59676 0.25823
 N2000 N 0.68508 0.60493 0.23790
 N2001 N 0.69856 0.62838 0.23852
 C2002 C 0.69773 0.64479 0.25951
 N2003 N 0.68280 0.63656 0.28005
 N2004 N 0.66919 0.61302 0.27939
 C2005 C 0.15390 0.07118 0.75668
 N2006 N 0.13706 0.06364 0.77602
 N2007 N 0.12184 0.04131 0.77401
 C2008 C 0.12255 0.02545 0.75256
 N2009 N 0.13984 0.03281 0.73341
 N2010 N 0.15506 0.05519 0.73540
 C2011 C 0.16995 0.09675 0.75823
 N2012 N 0.18508 0.10492 0.73791
 N2013 N 0.19856 0.12837 0.73853
 C2014 C 0.19773 0.14478 0.75952
 N2015 N 0.18279 0.13655 0.78006
 N2016 N 0.16918 0.11301 0.77940
 C2017 C 0.34605 0.07095 0.24325
 N2018 N 0.34486 0.05496 0.26452
 N2019 N 0.36009 0.03259 0.26653
 C2020 C 0.37743 0.02525 0.24740
 N2021 N 0.37817 0.04111 0.22596
 N2022 N 0.36293 0.06342 0.22393
 C2023 C 0.33000 0.09651 0.24167
 N2024 N 0.33079 0.11278 0.22051
 N2025 N 0.31718 0.13632 0.21984
 C2026 C 0.30222 0.14454 0.24037
 N2027 N 0.30137 0.12813 0.26134
 N2028 N 0.31484 0.10468 0.26198
 C2029 C 0.84605 0.57095 0.74324
 N2030 N 0.84486 0.55496 0.76452
 N2031 N 0.86009 0.53259 0.76653
 C2032 C 0.87743 0.52525 0.74740
 N2033 N 0.87817 0.54111 0.72596
 N2034 N 0.86293 0.56343 0.72393
 C2035 C 0.83000 0.59652 0.74167
 N2036 N 0.83079 0.61278 0.72050
 N2037 N 0.81718 0.63632 0.71984
 C2038 C 0.80222 0.64454 0.74036
 N2039 N 0.80136 0.62813 0.76134
 N2040 N 0.81484 0.60468 0.76198
 C2041 C 0.93232 0.76391 0.17161
 N2042 N 0.93748 0.78083 0.15176
 N2043 N 0.95910 0.77681 0.13706
 C2044 C 0.97595 0.75549 0.14150
 N2045 N 0.97078 0.73877 0.16158
 N2046 N 0.94931 0.74292 0.17638
 C2047 C 0.90689 0.76541 0.18509
 N2048 N 0.90215 0.74814 0.20476
 N2049 N 0.87743 0.74594 0.21457
 C2050 C 0.85669 0.76069 0.20476
 N2051 N 0.86150 0.77848 0.18548
 N2052 N 0.88631 0.78074 0.17570
 C2053 C 0.43232 0.26390 0.67162
 N2054 N 0.44930 0.24291 0.67638
 N2055 N 0.47078 0.23875 0.66158
 C2056 C 0.47595 0.25548 0.64151
 N2057 N 0.45910 0.27680 0.63707
 N2058 N 0.43748 0.28082 0.65177
 C2059 C 0.40688 0.26539 0.68510
 N2060 N 0.38630 0.28073 0.67571
 N2061 N 0.36150 0.27847 0.68549
 C2062 C 0.35668 0.26067 0.70477
 N2063 N 0.37742 0.24592 0.71457
 N2064 N 0.40214 0.24812 0.70476
 C2065 C 0.43233 0.73630 0.82833
 N2066 N 0.43749 0.71929 0.84811
 N2067 N 0.45910 0.72325 0.86284
 C2068 C 0.47594 0.74459 0.85849
 N2069 N 0.47078 0.76141 0.83848
 N2070 N 0.44932 0.75731 0.82365
 C2071 C 0.40691 0.73485 0.81483
 N2072 N 0.40218 0.75219 0.79521
 N2073 N 0.37747 0.75440 0.78539
 C2074 C 0.35673 0.73959 0.79512
 N2075 N 0.36154 0.72173 0.81435
 N2076 N 0.38633 0.71946 0.82414
 C2077 C 0.93234 0.23633 0.32832
 N2078 N 0.94932 0.25734 0.32366
 N2079 N 0.97079 0.26143 0.33849
 C2080 C 0.97595 0.24461 0.35849
 N2081 N 0.95911 0.22325 0.36283
 N2082 N 0.93750 0.21930 0.34810
 C2083 C 0.90692 0.23487 0.31482
 N2084 N 0.88634 0.21948 0.32413
 N2085 N 0.86155 0.22175 0.31433
 C2086 C 0.85674 0.23962 0.29512
 N2087 N 0.87747 0.25444 0.28539
 N2088 N 0.90218 0.25222 0.29522
 C2089 C 0.06768 0.26368 0.32833
 N2090 N 0.06252 0.28070 0.34811
 N2091 N 0.04091 0.27675 0.36284
 C2092 C 0.02407 0.25540 0.35850
 N2093 N 0.02923 0.23858 0.33850
 N2094 N 0.05069 0.24267 0.32367
 C2095 C 0.09310 0.26513 0.31484
 N2096 N 0.09784 0.24779 0.29523
 N2097 N 0.12255 0.24558 0.28541
 C2098 C 0.14328 0.26039 0.29513
 N2099 N 0.13847 0.27826 0.31435
 N2100 N 0.11368 0.28053 0.32415
 C2101 C 0.56767 0.76367 0.82834
 N2102 N 0.55069 0.74266 0.82367
 N2103 N 0.52922 0.73857 0.83850
 C2104 C 0.52406 0.75540 0.85850
 N2105 N 0.54090 0.77675 0.86284
 N2106 N 0.56251 0.78070 0.84811
 C2107 C 0.59310 0.76512 0.81484
 N2108 N 0.61367 0.78052 0.82415
 N2109 N 0.63846 0.77825 0.81435
 C2110 C 0.64328 0.76039 0.79513
 N2111 N 0.62254 0.74557 0.78541
 N2112 N 0.59783 0.74778 0.79523
 C2113 C 0.56767 0.23608 0.67162
 N2114 N 0.55068 0.25707 0.67639
 N2115 N 0.52921 0.26122 0.66158
 C2116 C 0.52405 0.24450 0.64151
 N2117 N 0.54089 0.22318 0.63706
 N2118 N 0.56251 0.21916 0.65177
 C2119 C 0.59311 0.23458 0.68510
 N2120 N 0.61369 0.21926 0.67571
 N2121 N 0.63849 0.22152 0.68549
 C2122 C 0.64331 0.23931 0.70477
 N2123 N 0.62257 0.25405 0.71457
 N2124 N 0.59785 0.25185 0.70477
 C2125 C 0.06768 0.73609 0.17161
 N2126 N 0.05069 0.75708 0.17638
 N2127 N 0.02922 0.76123 0.16157
 C2128 C 0.02405 0.74451 0.14150
 N2129 N 0.04089 0.72319 0.13706
 N2130 N 0.06251 0.71917 0.15177
 C2131 C 0.09311 0.73460 0.18509
 N2132 N 0.11369 0.71927 0.17571
 N2133 N 0.13849 0.72152 0.18549
 C2134 C 0.14331 0.73932 0.20477
 N2135 N 0.12257 0.75407 0.21457
 N2136 N 0.09785 0.75187 0.20476
   
