data_POSCAR
  _audit_creation_date              2014-09-24
  _audit_creation_method            'ToBaCCo'
  _symmetry_space_group_name_H-M    'P1'
  _symmetry_Int_Tables_number       1
  _symmetry_cell_setting            triclinic
  loop_
  _symmetry_equiv_pos_as_xyz
 x,y,z
_cell_length_a 38.4096
_cell_length_b 35.3904
_cell_length_c 35.9349
_cell_angle_alpha 89.918700
_cell_angle_beta 90.139700
_cell_angle_gamma 90.713200
loop_
  _atom_site_label
  _atom_site_type_symbol
  _atom_site_fract_x
  _atom_site_fract_y
  _atom_site_fract_z
B1 B 0.26405 0.23762 0.28386
 B2 B 0.22158 0.23312 0.27300
 B3 B 0.23858 0.27635 0.28198
 B4 B 0.27914 0.27859 0.26474
 B5 B 0.28728 0.23622 0.24435
 B6 B 0.25146 0.20759 0.24974
 B7 B 0.23200 0.26792 0.20743
 B8 B 0.27463 0.27360 0.21812
 B9 B 0.25837 0.22998 0.20923
 B10 B 0.21760 0.22731 0.22660
 B11 B 0.20947 0.26950 0.24714
 B12 B 0.24511 0.29839 0.24125
 B13 B 0.71949 0.75851 0.29376
 B14 B 0.76015 0.77299 0.28176
 B15 B 0.75336 0.72854 0.29707
 B16 B 0.71463 0.71312 0.28113
 B17 B 0.69742 0.74833 0.25487
 B18 B 0.72578 0.78587 0.25554
 B19 B 0.75794 0.72646 0.22186
 B20 B 0.71789 0.71166 0.23515
 B21 B 0.72416 0.75627 0.21863
 B22 B 0.76331 0.77223 0.23457
 B23 B 0.78068 0.73689 0.26089
 B24 B 0.75260 0.69947 0.26047
 B25 B 0.73827 0.23436 -0.28749
 B26 B 0.77876 0.21921 -0.27687
 B27 B 0.77159 0.26559 -0.28654
 B28 B 0.73229 0.27705 -0.26839
 B29 B 0.71612 0.23717 -0.24741
 B30 B 0.74505 0.20207 -0.25342
 B31 B 0.77635 0.25754 -0.21153
 B32 B 0.73524 0.27077 -0.22189
 B33 B 0.74389 0.22468 -0.21280
 B34 B 0.78277 0.21430 -0.23055
 B35 B 0.79900 0.25376 -0.25180
 B36 B 0.76966 0.28945 -0.24575
 B37 B 0.27621 0.75380 -0.28819
 B38 B 0.23520 0.76887 -0.27997
 B39 B 0.24251 0.72203 -0.28725
 B40 B 0.28042 0.71082 -0.26773
 B41 B 0.29731 0.75007 -0.24693
 B42 B 0.26947 0.78679 -0.25507
 B43 B 0.23507 0.73394 -0.21308
 B44 B 0.27522 0.71694 -0.22184
 B45 B 0.26953 0.76385 -0.21356
 B46 B 0.23108 0.77643 -0.23355
 B47 B 0.21409 0.73670 -0.25416
 B48 B 0.24164 0.70057 -0.24601
 B49 B 1.23538 1.27130 0.72051
 B50 B 1.21903 1.22772 0.72879
 B51 B 1.26160 1.23295 0.71910
 B52 B 1.27566 1.27393 0.73864
 B53 B 1.24105 1.29296 0.76135
 B54 B 1.20588 1.26353 0.75466
 B55 B 1.25463 1.22470 0.79365
 B56 B 1.27047 1.26857 0.78513
 B57 B 1.22778 1.26219 0.79477
 B58 B 1.21421 1.22141 0.77510
 B59 B 1.24881 1.20245 0.75281
 B60 B 1.28413 1.23156 0.75931
 B61 B 0.75495 0.72449 0.70767
 B62 B 0.76997 0.76852 0.71649
 B63 B 0.72739 0.76139 0.70665
 B64 B 0.71462 0.72020 0.72584
 B65 B 0.74949 0.70166 0.74826
 B66 B 0.78434 0.73157 0.74225
 B67 B 0.73489 0.76985 0.78097
 B68 B 0.71923 0.72609 0.77218
 B69 B 0.76171 0.73205 0.78232
 B70 B 0.77519 0.77355 0.76306
 B71 B 0.74021 0.79208 0.74032
 B72 B 0.70556 0.76192 0.74660
 B73 B 1.23797 0.72899 0.21825
 B74 B 1.27883 0.71413 0.22758
 B75 B 1.27130 0.76050 0.21869
 B76 B 1.23220 0.77126 0.23793
 B77 B 1.21689 0.73092 0.25906
 B78 B 1.24598 0.69629 0.25167
 B79 B 1.27762 0.75171 0.29352
 B80 B 1.23614 0.76444 0.28430
 B81 B 1.24565 0.71828 0.29267
 B82 B 1.28413 0.70871 0.27373
 B83 B 1.29945 0.74857 0.25267
 B84 B 1.26988 0.78385 0.25982
 B85 B 0.76806 1.26464 0.28474
 B86 B 0.77677 1.21959 0.27151
 B87 B 0.73629 1.23149 0.28518
 B88 B 0.72744 1.27493 0.26949
 B89 B 0.76296 1.29118 0.24588
 B90 B 0.79424 1.25695 0.24796
 B91 B 0.73856 1.22809 0.20954
 B92 B 0.72818 1.27220 0.22276
 B93 B 0.76951 1.26237 0.20926
 B94 B 0.77868 1.21828 0.22475
 B95 B 0.74264 1.20230 0.24836
 B96 B 0.71213 1.23564 0.24661
 O97 O 0.56041 1.05840 0.06511
 O98 O 0.59279 1.01990 0.02757
 C99 C 0.58966 1.04475 0.05393
 O100 O 0.44771 0.93576 0.06740
 O101 O 0.41157 0.97836 0.03890
 C102 C 0.41725 0.95019 0.06126
 O103 O 0.54535 0.92695 0.06420
 O104 O 0.58522 0.95766 0.02696
 C105 C 0.57707 0.93395 0.05315
 O106 O 0.46570 1.07533 0.06653
 O107 O 0.41975 1.04573 0.03741
 C108 C 0.43283 1.07179 0.05897
 Zr109 Zr 0.50915 1.04567 0.04787
 O110 O 0.50794 1.04131 0.10668
 O111 O 0.52067 1.10407 0.05251
 Zr112 Zr 0.49754 0.95163 0.04684
 O113 O 0.49747 0.95155 0.10576
 O114 O 0.49436 0.89187 0.04575
 O115 O 0.53478 0.99459 0.05225
 O116 O 0.47331 1.00271 0.05640
 O117 O 0.45720 1.07738 -0.05757
 O118 O 0.41551 1.04631 -0.02319
 C119 C 0.42558 1.07309 -0.04568
 O120 O 0.53574 0.93257 -0.07308
 O121 O 0.58097 0.95762 -0.03882
 C122 C 0.56869 0.93743 -0.06611
 O123 O 0.43961 0.93865 -0.06101
 O124 O 0.40729 0.97943 -0.02586
 C125 C 0.41019 0.95238 -0.05015
 O126 O 0.55129 1.05945 -0.07088
 O127 O 0.58864 1.02115 -0.03869
 C128 C 0.58184 1.04582 -0.06439
 Zr129 Zr 0.50291 1.04773 -0.04571
 O130 O 0.49392 1.04799 -0.10392
 O131 O 0.51479 1.10626 -0.04757
 Zr132 Zr 0.49122 0.95345 -0.04616
 O133 O 0.48261 0.95184 -0.10430
 O134 O 0.48911 0.89362 -0.04417
 Zr135 Zr 0.55219 0.99342 -0.00340
 Zr136 Zr 0.44807 1.00687 0.00444
 O137 O 0.46638 1.00484 -0.05065
 O138 O 0.52730 0.99679 -0.05574
 O139 O 0.47653 1.05832 0.00343
 O140 O 0.52401 0.94194 -0.00216
 O141 O 0.53691 1.05016 -0.00119
 O142 O 0.46231 0.94939 0.00259
 H143 H 0.45892 1.00482 0.07914
 H144 H 0.53721 0.91811 -0.00373
 H145 H 0.44940 1.00767 -0.07125
 H146 H 0.55501 1.07032 -0.00229
 H147 H 0.47299 0.88475 0.03190
 H148 H 0.46723 0.88607 -0.03156
 H149 H 0.49892 0.97029 -0.11568
 H150 H 0.51209 1.03252 -0.11572
 H151 H 0.50026 1.11874 -0.02867
 H152 H 0.50757 1.11698 0.03263
 H153 H 0.52912 1.02790 0.11474
 H154 H 0.51956 0.96346 0.11413
 O155 O 1.05436 0.55669 0.56997
 O156 O 1.08935 0.51642 0.53723
 C157 C 1.08404 0.54120 0.56327
 O158 O 0.93803 0.44155 0.56227
 O159 O 0.90621 0.48402 0.52824
 C160 C 0.90884 0.45643 0.55204
 O161 O 1.03405 0.43181 0.57262
 O162 O 1.07939 0.45477 0.53736
 C163 C 1.06700 0.43537 0.56516
 O164 O 0.96098 0.57947 0.55911
 O165 O 0.91696 0.55031 0.52620
 C166 C 0.92874 0.57634 0.54857
 Zr167 Zr 1.00520 0.54792 0.54570
 O168 O 0.99837 0.55005 0.60412
 O169 O 1.01908 0.60599 0.54498
 Zr170 Zr 0.98971 0.45402 0.54621
 O171 O 0.98253 0.45106 0.60445
 O172 O 0.98546 0.39437 0.54329
 O173 O 1.02758 0.49566 0.55485
 O174 O 0.96721 0.50663 0.55172
 O175 O 0.96623 0.57876 0.43488
 O176 O 0.91997 0.55128 0.46530
 C177 C 0.93352 0.57687 0.44334
 O178 O 1.03868 0.43178 0.43017
 O179 O 1.08171 0.45487 0.46869
 C180 C 1.07112 0.43585 0.43979
 O181 O 0.94212 0.43995 0.43376
 O182 O 0.90836 0.48340 0.46379
 C183 C 0.91234 0.45499 0.44132
 O184 O 1.05946 0.55469 0.43263
 O185 O 1.09182 0.51556 0.46981
 C186 C 1.08849 0.53944 0.44258
 Zr187 Zr 1.00854 0.54680 0.45289
 O188 O 1.00656 0.54720 0.39396
 O189 O 1.02137 0.60502 0.45581
 Zr190 Zr 0.99272 0.45286 0.45367
 O191 O 0.99006 0.44633 0.39531
 O192 O 0.98894 0.39329 0.45896
 Zr193 Zr 1.05099 0.49120 0.50193
 Zr194 Zr 0.94714 0.51011 0.49727
 O195 O 0.97075 0.50543 0.44481
 O196 O 1.03108 0.49438 0.44720
 O197 O 0.97747 0.56012 0.49786
 O198 O 1.02090 0.44106 0.50127
 O199 O 1.03842 0.54874 0.50062
 O200 O 0.95890 0.45193 0.49862
 H201 H 0.95108 0.51003 0.57289
 H202 H 1.03392 0.41705 0.50200
 H203 H 0.95594 0.50850 0.42241
 H204 H 1.05775 0.56756 0.50125
 H205 H 0.96281 0.38803 0.53154
 H206 H 0.96490 0.38681 0.46669
 H207 H 0.99504 0.47145 0.38443
 H208 H 1.02301 0.52798 0.38493
 H209 H 1.02369 0.61405 0.42981
 H210 H 1.00595 0.61781 0.52440
 H211 H 1.01435 0.53157 0.61544
 H212 H 0.99715 0.47127 0.61553
 O213 O 0.94063 0.45424 -0.06795
 O214 O 0.97465 0.41323 -0.03454
 C215 C 0.95133 0.42056 -0.05974
 O216 O 1.06138 0.56744 -0.06104
 O217 O 1.02553 0.60678 -0.02823
 C218 C 1.05035 0.60064 -0.05197
 O219 O 1.06099 0.46281 -0.06823
 O220 O 1.03286 0.41679 -0.03411
 C221 C 1.05373 0.42779 -0.06060
 O222 O 0.93384 0.55982 -0.06215
 O223 O 0.96537 0.60310 -0.02796
 C224 C 0.94142 0.59426 -0.05208
 Zr225 Zr 0.95607 0.50761 -0.04614
 O226 O 0.95800 0.51321 -0.10481
 O227 O 0.90133 0.50017 -0.04823
 Zr228 Zr 1.04393 0.51322 -0.04408
 O229 O 1.04753 0.51928 -0.10250
 O230 O 1.09894 0.51167 -0.04006
 O231 O 1.00147 0.47695 -0.05335
 O232 O 0.99865 0.54339 -0.05131
 O233 O 0.93208 0.55613 0.06568
 O234 O 0.96532 0.60119 0.03572
 C235 C 0.94073 0.59098 0.05854
 O236 O 1.05926 0.45907 0.07085
 O237 O 1.03195 0.41494 0.03373
 C238 C 1.05221 0.42455 0.06135
 O239 O 1.05964 0.56353 0.06898
 O240 O 1.02594 0.60489 0.03568
 C241 C 1.04962 0.59724 0.06037
 O242 O 0.93867 0.45070 0.06572
 O243 O 0.97371 0.41135 0.03190
 C244 C 0.94947 0.41741 0.05634
 Zr245 Zr 0.95471 0.50509 0.04730
 O246 O 0.95498 0.50739 0.10620
 O247 O 0.89992 0.49776 0.04685
 Zr248 Zr 1.04261 0.51054 0.04872
 O249 O 1.04460 0.51304 0.10749
 O250 O 1.09769 0.50890 0.04663
 Zr251 Zr 1.00178 0.45207 0.00012
 Zr252 Zr 0.99698 0.56585 0.00287
 O253 O 0.99722 0.54040 0.05586
 O254 O 0.99989 0.47396 0.05468
 O255 O 0.94719 0.53987 0.00129
 O256 O 1.05103 0.47871 0.00161
 O257 O 0.95059 0.47288 -0.00034
 O258 O 1.04867 0.54644 0.00330
 H259 H 0.99807 0.56080 -0.07290
 H260 H 1.07178 0.46234 0.00155
 H261 H 0.99631 0.55654 0.07833
 H262 H 0.93065 0.45487 -0.00118
 H263 H 1.10697 0.53544 -0.02818
 H264 H 1.10613 0.53323 0.03626
 H265 H 1.02500 0.49741 0.11687
 H266 H 0.96684 0.48456 0.11547
 H267 H 0.89009 0.51804 0.03122
 H268 H 0.89103 0.51912 -0.03148
 H269 H 0.97000 0.49084 -0.11481
 H270 H 1.02814 0.50436 -0.11339
 O271 O 0.43822 0.95409 0.43538
 O272 O 0.47213 0.91364 0.46955
 C273 C 0.44891 0.92054 0.44416
 O274 O 0.56087 1.06508 0.43706
 O275 O 0.52617 1.10597 0.46929
 C276 C 0.55083 1.09873 0.44582
 O277 O 0.55687 0.96030 0.43123
 O278 O 0.52966 0.91615 0.46839
 C279 C 0.54928 0.92577 0.44041
 O280 O 0.43241 1.06009 0.43889
 O281 O 0.46575 1.10354 0.47067
 C282 C 0.44099 1.09463 0.44766
 Zr283 Zr 0.45407 1.00787 0.45598
 O284 O 0.45348 1.01194 0.39721
 O285 O 0.39923 1.00098 0.45689
 Zr286 Zr 0.54212 1.01178 0.45512
 O287 O 0.54431 1.01657 0.39650
 O288 O 0.59714 1.00833 0.45714
 O289 O 0.49884 0.97626 0.44837
 O290 O 0.49716 1.04263 0.44833
 O291 O 0.43409 1.06052 0.56630
 O292 O 0.46647 1.10393 0.53328
 C293 C 0.44223 1.09502 0.55690
 O294 O 0.55972 0.96123 0.57129
 O295 O 0.53089 0.91645 0.53624
 C296 C 0.55191 0.92654 0.56301
 O297 O 0.56170 1.06609 0.56558
 O298 O 0.52651 1.10658 0.53308
 C299 C 0.55131 1.09961 0.55662
 O300 O 0.44018 0.95486 0.57128
 O301 O 0.47271 0.91387 0.53649
 C302 C 0.45028 0.92116 0.56248
 Zr303 Zr 0.45537 1.00825 0.54937
 O304 O 0.45593 1.01295 0.60811
 O305 O 0.40053 1.00120 0.54956
 Zr306 Zr 0.54338 1.01238 0.54800
 O307 O 0.54723 1.01744 0.60650
 O308 O 0.59834 1.00977 0.54423
 Zr309 Zr 0.50036 0.95301 0.50253
 Zr310 Zr 0.49731 1.06679 0.50181
 O311 O 0.49853 1.04311 0.55557
 O312 O 0.50037 0.97678 0.55640
 O313 O 0.44711 1.04171 0.50259
 O314 O 0.55002 0.97875 0.50167
 O315 O 0.44944 0.97448 0.50296
 O316 O 0.54869 1.04648 0.50127
 H317 H 0.49647 1.05946 0.42630
 H318 H 0.57044 0.96190 0.50140
 H319 H 0.49827 1.06011 0.57746
 H320 H 0.42952 0.95640 0.50333
 H321 H 0.60618 1.03163 0.46911
 H322 H 0.60687 1.03387 0.53340
 H323 H 0.52811 1.00202 0.61720
 H324 H 0.46994 0.99192 0.61802
 H325 H 0.39055 1.02207 0.53484
 H326 H 0.38959 1.02205 0.47150
 H327 H 0.46660 0.99029 0.38730
 H328 H 0.52435 1.00192 0.38646
 O329 O 1.07430 0.93788 0.54602
 O330 O 1.03863 0.96681 0.58811
 C331 C 1.06515 0.94617 0.57974
 O332 O 1.05660 1.07004 0.44309
 O333 O 1.02968 1.03065 0.40114
 C334 C 1.04881 1.05977 0.40938
 O335 O 1.06041 1.06625 0.54776
 O336 O 1.03113 1.02815 0.58902
 C337 C 1.05223 1.05567 0.58128
 O338 O 1.07031 0.93398 0.44272
 O339 O 1.03665 0.96663 0.40111
 C340 C 1.06138 0.94345 0.40919
 Zr341 Zr 1.05155 0.95194 0.49459
 O342 O 1.10650 0.95401 0.49148
 O343 O 1.05155 0.89224 0.49623
 Zr344 Zr 1.04381 1.04642 0.49522
 O345 O 1.09868 1.05135 0.49116
 O346 O 1.04124 1.10601 0.49941
 O347 O 1.05473 0.99984 0.52811
 O348 O 1.05418 1.00028 0.46250
 O349 O 0.94939 0.92013 0.44280
 O350 O 0.97615 0.95987 0.40097
 C351 C 0.95523 0.93194 0.40918
 O352 O 0.93684 1.05386 0.54734
 O353 O 0.97279 1.02357 0.58850
 C354 C 0.94762 1.04625 0.58072
 O355 O 0.94103 1.05959 0.44364
 O356 O 0.97435 1.02703 0.40182
 C357 C 0.95144 1.05205 0.41016
 O358 O 0.94649 0.92264 0.54589
 O359 O 0.97616 0.95926 0.58814
 C360 C 0.95365 0.93308 0.57962
 Zr361 Zr 0.96495 0.94219 0.49448
 O362 O 0.91035 0.93424 0.49072
 O363 O 0.97159 0.88297 0.49788
 Zr364 Zr 0.95624 1.03635 0.49521
 O365 O 0.90201 1.02542 0.49089
 O366 O 0.94565 1.09465 0.49879
 Zr367 Zr 1.00435 0.99412 0.55085
 Zr368 Zr 1.00412 0.99487 0.43899
 O369 O 0.95403 0.98904 0.46211
 O370 O 0.95376 0.98828 0.52835
 O371 O 1.00883 0.93988 0.46078
 O372 O 0.99958 1.04840 0.52730
 O373 O 1.00896 0.93995 0.52753
 O374 O 0.99943 1.04925 0.46249
 H375 H 1.07468 1.00305 0.44598
 H376 H 0.99794 1.07104 0.54336
 H377 H 0.93366 0.98768 0.44516
 H378 H 1.01100 0.91805 0.54459
 H379 H 1.02485 1.11486 0.48008
 H380 H 0.96770 1.10806 0.49305
 H381 H 0.89373 1.01652 0.51549
 H382 H 0.89956 0.95129 0.50904
 H383 H 0.98729 0.87558 0.47742
 H384 H 1.07631 0.88485 0.49514
 H385 H 1.11404 0.97785 0.50348
 H386 H 1.10877 1.04101 0.51435
 O387 O 0.46212 0.41152 -0.05219
 O388 O 0.48370 0.45364 -0.09500
 C389 C 0.46594 0.42360 -0.08595
 O390 O 0.43266 0.54487 0.04899
 O391 O 0.47182 0.52034 0.09061
 C392 C 0.44475 0.54009 0.08249
 O393 O 0.42897 0.53841 -0.05534
 O394 O 0.46948 0.51565 -0.09611
 C395 C 0.44105 0.53330 -0.08864
 O396 O 0.46678 0.41062 0.05044
 O397 O 0.48611 0.45569 0.09148
 C398 C 0.47055 0.42384 0.08380
 Zr399 Zr 0.47771 0.43510 -0.00144
 O400 O 0.42585 0.41475 0.00284
 O401 O 0.49607 0.37900 -0.00479
 Zr402 Zr 0.45109 0.52513 -0.00295
 O403 O 0.40025 0.50166 0.00157
 O404 O 0.42834 0.57910 -0.00615
 O405 O 0.45771 0.47741 -0.03559
 O406 O 0.45818 0.47869 0.03045
 O407 O 0.58336 0.45173 0.05021
 O408 O 0.54336 0.47549 0.09119
 C409 C 0.57216 0.45862 0.08347
 O410 O 0.54695 0.57707 -0.05657
 O411 O 0.52498 0.53310 -0.09732
 C412 C 0.54083 0.56458 -0.08993
 O413 O 0.54384 0.58201 0.04766
 O414 O 0.52544 0.53696 0.08959
 C415 C 0.53894 0.56942 0.08112
 O416 O 0.58512 0.45367 -0.05340
 O417 O 0.54430 0.47381 -0.09561
 C418 C 0.57390 0.45875 -0.08705
 Zr419 Zr 0.56110 0.46428 -0.00202
 O420 O 0.61407 0.48106 0.00149
 O421 O 0.57570 0.40683 -0.00496
 Zr422 Zr 0.53520 0.55462 -0.00371
 O423 O 0.58831 0.57116 -0.00002
 O424 O 0.52165 0.61221 -0.00854
 Zr425 Zr 0.50612 0.49404 -0.05842
 Zr426 Zr 0.50640 0.49577 0.05303
 O427 O 0.55439 0.51225 0.02947
 O428 O 0.55471 0.51130 -0.03627
 O429 O 0.52152 0.44300 0.03193
 O430 O 0.49120 0.54624 -0.03537
 O431 O 0.52112 0.44249 -0.03446
 O432 O 0.49131 0.54767 0.02925
 H433 H 0.43867 0.47303 0.04765
 H434 H 0.48528 0.56805 -0.05139
 H435 H 0.57405 0.51969 0.04593
 H436 H 0.52679 0.42126 -0.05127
 H437 H 0.44758 0.59760 -0.00309
 H438 H 0.50258 0.61676 0.00928
 H439 H 0.59979 0.56360 -0.02343
 H440 H 0.61751 0.50222 -0.01615
 H441 H 0.56717 0.39409 0.01783
 H442 H 0.50973 0.37390 0.01801
 H443 H 0.41147 0.43023 -0.01402
 H444 H 0.39321 0.49255 -0.02339
 C445 C 0.30699 1.20713 0.16525
 C446 C 0.32203 1.18159 0.14093
 C447 C 0.30273 1.15027 0.12769
 C448 C 0.26730 1.14704 0.13730
 C449 C 0.25197 1.17379 0.16100
 C450 C 0.27189 1.20401 0.17572
 C451 C 0.31975 1.12236 0.10657
 C452 C 0.35570 1.12602 0.09885
 C453 C 0.37377 1.15906 0.11067
 C454 C 0.35689 1.18643 0.13138
 C455 C 0.40900 1.16399 0.10289
 C456 C 0.42711 1.13568 0.08529
 C457 C 0.41057 1.10154 0.07494
 C458 C 0.37439 1.09719 0.08068
 H459 H 0.32385 1.22823 0.17776
 H460 H 0.25178 1.12334 0.12741
 H461 H 0.22503 1.16984 0.16906
 H462 H 0.30543 1.09754 0.09722
 H463 H 0.37131 1.21109 0.14116
 H464 H 0.42287 1.18948 0.11123
 H465 H 0.45459 1.14057 0.08027
 H466 H 0.36127 1.07125 0.07238
 C467 C 0.80247 0.70481 0.66062
 C468 C 0.81715 0.68055 0.63474
 C469 C 0.79873 0.64809 0.62276
 C470 C 0.76418 0.64268 0.63477
 C471 C 0.74898 0.66832 0.65966
 C472 C 0.76825 0.69947 0.67342
 C473 C 0.81583 0.62125 0.60044
 C474 C 0.85087 0.62729 0.58989
 C475 C 0.86774 0.66163 0.59994
 C476 C 0.85085 0.68782 0.62216
 C477 C 0.90200 0.66886 0.58911
 C478 C 0.92057 0.64140 0.57065
 C479 C 0.90545 0.60595 0.56267
 C480 C 0.87000 0.59939 0.57094
 H481 H 0.81898 0.72673 0.67226
 H482 H 0.74922 0.61824 0.62565
 H483 H 0.72276 0.66280 0.66940
 H484 H 0.80240 0.59538 0.59242
 H485 H 0.86445 0.71345 0.63074
 H486 H 0.91491 0.69533 0.59613
 H487 H 0.94747 0.64758 0.56364
 H488 H 0.85806 0.57224 0.56457
 C489 C 0.70772 0.81164 0.17262
 C490 C 0.68438 0.82772 0.14673
 C491 C 0.65889 0.80458 0.12938
 C492 C 0.65960 0.76561 0.13485
 C493 C 0.68333 0.74990 0.15960
 C494 C 0.70618 0.77255 0.18099
 C495 C 0.63269 0.82069 0.10738
 C496 C 0.63235 0.85976 0.10115
 C497 C 0.65982 0.88258 0.11537
 C498 C 0.68525 0.86661 0.13871
 C499 C 0.66124 0.92103 0.10603
 C500 C 0.63520 0.93681 0.08389
 C501 C 0.60612 0.91522 0.07267
 C502 C 0.60502 0.87644 0.08096
 H503 H 0.72561 0.82995 0.18770
 H504 H 0.64117 0.74718 0.12063
 H505 H 0.68224 0.71993 0.16236
 H506 H 0.61244 0.80285 0.09537
 H507 H 0.70544 0.88445 0.15081
 H508 H 0.68251 0.93887 0.11574
 H509 H 0.63727 0.96630 0.07631
 H510 H 0.58318 0.85932 0.07139
 C511 C 1.19381 0.32267 0.69516
 C512 C 1.17841 0.34434 0.66751
 C513 C 1.19183 0.34435 0.63109
 C514 C 1.22243 0.32392 0.62404
 C515 C 1.23809 0.30228 0.65244
 C516 C 1.22257 0.29951 0.68785
 C517 C 1.17395 0.36425 0.60282
 C518 C 1.14282 0.38354 0.61113
 C519 C 1.13078 0.38395 0.64837
 C520 C 1.14878 0.36488 0.67610
 C521 C 1.10013 0.40243 0.65756
 C522 C 1.08046 0.41940 0.63007
 C523 C 1.09094 0.41860 0.59268
 C524 C 1.12281 0.40156 0.58325
 H525 H 1.18222 0.32350 0.72256
 H526 H 1.23381 0.32405 0.59650
 H527 H 1.26111 0.28615 0.64616
 H528 H 1.18362 0.36389 0.57451
 H529 H 1.13892 0.36494 0.70440
 H530 H 1.09087 0.40301 0.68603
 H531 H 1.05659 0.43314 0.63818
 H532 H 1.13118 0.40112 0.55448
 C533 C 0.70340 1.17062 -0.18831
 C534 C 0.68936 1.14664 -0.16126
 C535 C 0.69999 1.15013 -0.12387
 C536 C 0.72679 1.17608 -0.11500
 C537 C 0.74197 1.19896 -0.14281
 C538 C 0.72960 1.19759 -0.17970
 C539 C 0.68328 1.12795 -0.09634
 C540 C 0.65656 1.10208 -0.10632
 C541 C 0.64812 1.09717 -0.14443
 C542 C 0.66437 1.11953 -0.17144
 C543 C 0.62232 1.07114 -0.15507
 C544 C 0.60300 1.05205 -0.12822
 C545 C 0.60920 1.05836 -0.09028
 C546 C 0.63689 1.08234 -0.07918
 H547 H 0.69330 1.16815 -0.21639
 H548 H 0.73612 1.17858 -0.08663
 H549 H 0.76318 1.21755 -0.13515
 H550 H 0.69047 1.13139 -0.06734
 H551 H 0.65688 1.11647 -0.20044
 H552 H 0.61594 1.06686 -0.18418
 H553 H 0.58169 1.03379 -0.13708
 H554 H 0.64143 1.08756 -0.04984
 C555 C 1.20870 0.66136 0.31782
 C556 C 1.19601 0.63713 0.34546
 C557 C 1.20569 0.64287 0.38288
 C558 C 1.23123 0.67038 0.39116
 C559 C 1.24570 0.69291 0.36275
 C560 C 1.23325 0.69024 0.32591
 C561 C 1.18927 0.62135 0.41104
 C562 C 1.16421 0.59349 0.40163
 C563 C 1.15769 0.58546 0.36361
 C564 C 1.17323 0.60759 0.33593
 C565 C 1.13416 0.55674 0.35369
 C566 C 1.11463 0.53846 0.38092
 C567 C 1.11811 0.54865 0.41843
 C568 C 1.14402 0.57497 0.42910
 H569 H 1.19880 0.65756 0.28981
 H570 H 1.24012 0.67435 0.41953
 H571 H 1.26609 0.71261 0.37006
 H572 H 1.19529 0.62691 0.44003
 H573 H 1.16679 0.60250 0.30692
 H574 H 1.12937 0.54995 0.32471
 H575 H 1.09459 0.51842 0.37237
 H576 H 1.14639 0.58322 0.45805
 C577 C 0.28478 0.82474 -0.17233
 C578 C 0.30531 0.84325 -0.14467
 C579 C 0.32781 0.82166 -0.12211
 C580 C 0.32874 0.78263 -0.12629
 C581 C 0.30907 0.76489 -0.15371
 C582 C 0.28697 0.78509 -0.17774
 C583 C 0.35023 0.83923 -0.09652
 C584 C 0.35117 0.87853 -0.09316
 C585 C 0.32791 0.90070 -0.11418
 C586 C 0.30493 0.88290 -0.13982
 C587 C 0.32913 0.94027 -0.10993
 C588 C 0.35432 0.95750 -0.08674
 C589 C 0.37872 0.93542 -0.06763
 C590 C 0.37627 0.89594 -0.07025
 H591 H 0.26840 0.84133 -0.19052
 H592 H 0.34571 0.76570 -0.10901
 H593 H 0.31221 0.73505 -0.15574
 H594 H 0.36793 0.82230 -0.08007
 H595 H 0.28765 0.89988 -0.15665
 H596 H 0.31145 0.95793 -0.12552
 H597 H 0.35600 0.98804 -0.08542
 H598 H 0.39508 0.87875 -0.05560
 C599 C 0.78359 0.32466 0.32580
 C600 C 0.80504 0.34344 0.35219
 C601 C 0.82808 0.32212 0.37433
 C602 C 0.82816 0.28284 0.37122
 C603 C 0.80737 0.26469 0.34483
 C604 C 0.78546 0.28498 0.32078
 C605 C 0.85173 0.34029 0.39828
 C606 C 0.85316 0.37977 0.40026
 C607 C 0.82922 0.40149 0.37967
 C608 C 0.80511 0.38315 0.35581
 C609 C 0.83066 0.44116 0.38265
 C610 C 0.85648 0.45897 0.40450
 C611 C 0.88154 0.43739 0.42313
 C612 C 0.87911 0.39780 0.42157
 H613 H 0.76690 0.34122 0.30791
 H614 H 0.84545 0.26608 0.38828
 H615 H 0.81000 0.23471 0.34289
 H616 H 0.86988 0.32368 0.41448
 H617 H 0.78722 0.39977 0.33933
 H618 H 0.81244 0.45841 0.36733
 H619 H 0.85787 0.48954 0.40545
 H620 H 0.89812 0.38098 0.43632
 C621 C 1.18768 0.31506 0.17957
 C622 C 1.16271 0.32614 0.15366
 C623 C 1.16249 0.31068 0.11758
 C624 C 1.18563 0.28124 0.10959
 C625 C 1.20802 0.26720 0.13740
 C626 C 1.21022 0.28473 0.17258
 C627 C 1.13873 0.32463 0.09084
 C628 C 1.11384 0.35182 0.10108
 C629 C 1.11204 0.36329 0.13878
 C630 C 1.13705 0.35149 0.16429
 C631 C 1.08585 0.38748 0.15048
 C632 C 1.06345 0.40325 0.12466
 C633 C 1.06731 0.39613 0.08649
 C634 C 1.09151 0.36895 0.07467
 H635 H 1.18777 0.32894 0.20641
 H636 H 1.18538 0.26804 0.08241
 H637 H 1.22344 0.24267 0.13124
 H638 H 1.13945 0.31427 0.06248
 H639 H 1.13638 0.36188 0.19269
 H640 H 1.08363 0.39555 0.17946
 H641 H 1.04481 0.42382 0.13427
 H642 H 1.09467 0.36337 0.04523
 C643 C 0.68341 0.80958 0.68010
 C644 C 0.65873 0.82208 0.65458
 C645 C 0.65707 0.80643 0.61862
 C646 C 0.67863 0.77565 0.61031
 C647 C 0.70110 0.76075 0.63760
 C648 C 0.70468 0.77833 0.67262
 C649 C 0.63362 0.82167 0.59228
 C650 C 0.61071 0.85080 0.60272
 C651 C 0.61058 0.86309 0.64023
 C652 C 0.63501 0.84945 0.66543
 C653 C 0.58672 0.88988 0.65208
 C654 C 0.56496 0.90704 0.62655
 C655 C 0.56701 0.89846 0.58851
 C656 C 0.58879 0.86900 0.57663
 H657 H 0.68448 0.82349 0.70691
 H658 H 0.67728 0.76235 0.58321
 H659 H 0.71576 0.73574 0.63113
 H660 H 0.63322 0.81101 0.56401
 H661 H 0.63552 0.86018 0.69373
 H662 H 0.58590 0.89881 0.68091
 H663 H 0.54807 0.92929 0.63622
 H664 H 0.59041 0.86218 0.54730
 C665 C 1.17534 0.71779 -0.18011
 C666 C 1.15566 0.70342 -0.15016
 C667 C 1.17230 0.69515 -0.11610
 C668 C 1.20755 0.70479 -0.11154
 C669 C 1.22672 0.71993 -0.14121
 C670 C 1.21162 0.72441 -0.17667
 C671 C 1.15375 0.67630 -0.08773
 C672 C 1.11856 0.66613 -0.09290
 C673 C 1.10120 0.67735 -0.12580
 C674 C 1.11988 0.69577 -0.15426
 C675 C 1.06577 0.66836 -0.13046
 C676 C 1.04826 0.64626 -0.10401
 C677 C 1.06590 0.63255 -0.07268
 C678 C 1.10084 0.64335 -0.06667
 H679 H 1.16232 0.72225 -0.20646
 H680 H 1.22063 0.69949 -0.08533
 H681 H 1.25401 0.72526 -0.13682
 H682 H 1.16698 0.66851 -0.06220
 H683 H 1.10685 0.70291 -0.18009
 H684 H 1.05200 0.67700 -0.15534
 H685 H 1.02153 0.63767 -0.10930
 H686 H 1.11463 0.63236 -0.04270
 C687 C 0.67867 1.21707 0.32220
 C688 C 0.65987 1.20027 0.35141
 C689 C 0.67791 1.18359 0.38132
 C690 C 0.71425 1.18705 0.38303
 C691 C 0.73271 1.20462 0.35414
 C692 C 0.71553 1.21757 0.32204
 C693 C 0.65940 1.16296 0.40840
 C694 C 0.62301 1.15905 0.40586
 C695 C 0.60476 1.17825 0.37746
 C696 C 0.62332 1.19870 0.35038
 C697 C 0.56830 1.17526 0.37567
 C698 C 0.55027 1.15136 0.40016
 C699 C 0.56847 1.13016 0.42660
 C700 C 0.60469 1.13489 0.43015
 H701 H 0.66418 1.22868 0.29907
 H702 H 0.72854 1.17534 0.40629
 H703 H 0.76056 1.20607 0.35647
 H704 H 0.67336 1.14899 0.43067
 H705 H 0.60942 1.21216 0.32776
 H706 H 0.55389 1.19021 0.35441
 H707 H 0.52238 1.14764 0.39694
 H708 H 0.61868 1.11847 0.45069
 C709 C 0.81551 0.70921 0.18588
 C710 C 0.83352 0.69026 0.15743
 C711 C 0.81455 0.67114 0.12932
 C712 C 0.77828 0.67392 0.12837
 C713 C 0.76073 0.69349 0.15617
 C714 C 0.77868 0.70982 0.18643
 C715 C 0.83202 0.64902 0.10301
 C716 C 0.86845 0.64654 0.10376
 C717 C 0.88770 0.66801 0.13007
 C718 C 0.87012 0.68938 0.15701
 C719 C 0.92422 0.66704 0.12944
 C720 C 0.94142 0.64384 0.10408
 C721 C 0.92248 0.62043 0.07971
 C722 C 0.88596 0.62232 0.07921
 H723 H 0.83034 0.72253 0.20805
 H724 H 0.76334 0.66037 0.10641
 H725 H 0.73288 0.69412 0.15443
 H726 H 0.81722 0.63328 0.08233
 H727 H 0.88490 0.70480 0.17794
 H728 H 0.93947 0.68360 0.14905
 H729 H 0.96953 0.64274 0.10474
 H730 H 0.87125 0.60444 0.06021
 C731 C 0.31237 1.22329 0.66990
 C732 C 0.33071 1.19923 0.64545
 C733 C 0.31512 1.16470 0.63401
 C734 C 0.28189 1.15491 0.64621
 C735 C 0.26490 1.17758 0.67154
 C736 C 0.27931 1.21233 0.68387
 C737 C 0.33359 1.13901 0.61242
 C738 C 0.36808 1.14659 0.60258
 C739 C 0.38387 1.18141 0.61257
 C740 C 0.36496 1.20780 0.63373
 C741 C 0.41858 1.18853 0.60199
 C742 C 0.43749 1.16097 0.58281
 C743 C 0.42216 1.12571 0.57438
 C744 C 0.38724 1.11909 0.58387
 H745 H 0.32471 1.24905 0.67987
 H746 H 0.26982 1.12833 0.63802
 H747 H 0.24126 1.16591 0.68313
 H748 H 0.32156 1.11224 0.60464
 H749 H 0.37723 1.23421 0.64209
 H750 H 0.43128 1.21504 0.60915
 H751 H 0.46441 1.16674 0.57563
 H752 H 0.37503 1.09218 0.57697
 C753 C 0.83376 0.27905 -0.17643
 C754 C 0.85107 0.30170 -0.14970
 C755 C 0.83173 0.31883 -0.12107
 C756 C 0.79597 0.31124 -0.11836
 C757 C 0.77899 0.28905 -0.14512
 C758 C 0.79714 0.27373 -0.17546
 C759 C 0.84817 0.34414 -0.09630
 C760 C 0.88383 0.35271 -0.09980
 C761 C 0.90365 0.33415 -0.12723
 C762 C 0.88715 0.30882 -0.15203
 C763 C 0.93951 0.34205 -0.12999
 C764 C 0.95534 0.36898 -0.10670
 C765 C 0.93553 0.38879 -0.08065
 C766 C 0.89985 0.38026 -0.07697
 H767 H 0.84876 0.26736 -0.19904
 H768 H 0.78081 0.32351 -0.09614
 H769 H 0.75136 0.28472 -0.14209
 H770 H 0.83302 0.35790 -0.07491
 H771 H 0.90221 0.29547 -0.17375
 H772 H 0.95518 0.32798 -0.15068
 H773 H 0.98282 0.37543 -0.10999
 H774 H 0.88452 0.39556 -0.05680
 C775 C 0.33500 0.77498 0.32799
 C776 C 0.35188 0.79822 0.35462
 C777 C 0.33225 0.81473 0.38339
 C778 C 0.29680 0.80596 0.38645
 C779 C 0.28031 0.78318 0.35993
 C780 C 0.29856 0.76835 0.32938
 C781 C 0.34800 0.84063 0.40801
 C782 C 0.38331 0.85048 0.40428
 C783 C 0.40357 0.83256 0.37678
 C784 C 0.38775 0.80654 0.35212
 C785 C 0.43916 0.84177 0.37387
 C786 C 0.45421 0.86924 0.39713
 C787 C 0.43386 0.88839 0.42323
 C788 C 0.39849 0.87863 0.42700
 H789 H 0.35007 0.76388 0.30512
 H790 H 0.28146 0.81773 0.40880
 H791 H 0.25293 0.77795 0.36345
 H792 H 0.33255 0.85385 0.42949
 H793 H 0.40314 0.79354 0.33047
 H794 H 0.45520 0.82826 0.35313
 H795 H 0.48150 0.87655 0.39385
 H796 H 0.38277 0.89338 0.44722
 C797 C 1.16820 1.18865 0.28643
 C798 C 1.14409 1.17198 0.31085
 C799 C 1.14391 1.18318 0.34863
 C800 C 1.16830 1.20932 0.36175
 C801 C 1.19325 1.22385 0.33790
 C802 C 1.19319 1.21474 0.29986
 C803 C 1.12091 1.16637 0.37352
 C804 C 1.09990 1.13628 0.36202
 C805 C 1.10000 1.12417 0.32458
 C806 C 1.12134 1.14309 0.29874
 C807 C 1.08016 1.09220 0.31440
 C808 C 1.06231 1.07131 0.34167
 C809 C 1.06341 1.08292 0.37909
 C810 C 1.08083 1.11647 0.38847
 H811 H 1.16814 1.18025 0.25745
 H812 H 1.16926 1.21710 0.39091
 H813 H 1.21359 1.24060 0.35014
 H814 H 1.12111 1.17497 0.40252
 H815 H 1.12171 1.13397 0.26994
 H816 H 1.07980 1.08240 0.28585
 H817 H 1.04867 1.04560 0.33369
 H818 H 1.08137 1.12623 0.41706
 C819 C 0.66503 0.68353 -0.21381
 C820 C 0.63962 0.66943 -0.18951
 C821 C 0.63986 0.68129 -0.15193
 C822 C 0.66633 0.70485 -0.13865
 C823 C 0.69250 0.71670 -0.16236
 C824 C 0.69158 0.70765 -0.20042
 C825 C 0.61502 0.66753 -0.12736
 C826 C 0.59210 0.63910 -0.13872
 C827 C 0.59204 0.62600 -0.17585
 C828 C 0.61494 0.64253 -0.20161
 C829 C 0.57081 0.59498 -0.18559
 C830 C 0.55235 0.57535 -0.15797
 C831 C 0.55390 0.58773 -0.12082
 C832 C 0.57183 0.62112 -0.11215
 H833 H 0.66433 0.67513 -0.24278
 H834 H 0.66757 0.71290 -0.10957
 H835 H 0.71387 0.73224 -0.15034
 H836 H 0.61541 0.67671 -0.09853
 H837 H 0.61514 0.63271 -0.23019
 H838 H 0.57027 0.58449 -0.21390
 H839 H 0.53816 0.54980 -0.16537
 H840 H 0.57276 0.63144 -0.08374
 C841 C 0.83445 1.18356 0.69962
 C842 C 0.85023 1.15413 0.67964
 C843 C 0.82922 1.12871 0.65878
 C844 C 0.79313 1.13116 0.66022
 C845 C 0.77777 1.15903 0.68137
 C846 C 0.79792 1.18711 0.69955
 C847 C 0.84442 1.10089 0.63691
 C848 C 0.88051 1.09728 0.63617
 C849 C 0.90177 1.12079 0.65882
 C850 C 0.88652 1.14948 0.68011
 C851 C 0.93795 1.11566 0.65889
 C852 C 0.95286 1.08897 0.63526
 C853 C 0.93180 1.06748 0.61108
 C854 C 0.89566 1.07114 0.61221
 H855 H 0.85048 1.20356 0.71501
 H856 H 0.77665 1.11110 0.64543
 H857 H 0.74973 1.15815 0.68339
 H858 H 0.82812 1.08219 0.62022
 H859 H 0.90282 1.16830 0.69662
 H860 H 0.95473 1.13297 0.67634
 H861 H 0.98096 1.08677 0.63417
 H862 H 0.87948 1.05456 0.59340
 C863 C 0.33346 0.67765 0.20343
 C864 C 0.34860 0.64892 0.18207
 C865 C 0.32730 0.62625 0.15863
 C866 C 0.29135 0.63026 0.15914
 C867 C 0.27649 0.65707 0.18190
 C868 C 0.29716 0.68271 0.20268
 C869 C 0.34204 0.59934 0.13540
 C870 C 0.37781 0.59343 0.13627
 C871 C 0.39911 0.61382 0.16163
 C872 C 0.38447 0.64203 0.18393
 C873 C 0.43472 0.60586 0.16370
 C874 C 0.44915 0.57929 0.13970
 C875 C 0.42839 0.56130 0.11260
 C876 C 0.39263 0.56777 0.11161
 H877 H 0.34976 0.69576 0.22065
 H878 H 0.27457 0.61196 0.14263
 H879 H 0.24848 0.65689 0.18340
 H880 H 0.32562 0.58294 0.11665
 H881 H 0.40087 0.65845 0.20265
 H882 H 0.45149 0.62066 0.18326
 H883 H 0.47687 0.57430 0.14094
 H884 H 0.37651 0.55352 0.09100
 C885 C 1.19879 0.82939 0.69988
 C886 C 1.17392 0.84690 0.67640
 C887 C 1.16224 0.82762 0.64416
 C888 C 1.17419 0.79188 0.63614
 C889 C 1.19719 0.77457 0.65983
 C890 C 1.21092 0.79262 0.69166
 C891 C 1.13811 0.84364 0.62026
 C892 C 1.12439 0.87879 0.62806
 C893 C 1.13470 0.89865 0.66040
 C894 C 1.15980 0.88267 0.68447
 C895 C 1.11966 0.93403 0.66752
 C896 C 1.09559 0.94950 0.64224
 C897 C 1.08657 0.92980 0.60958
 C898 C 1.10062 0.89425 0.60327
 H899 H 1.20773 0.84376 0.72479
 H900 H 1.16509 0.77669 0.61171
 H901 H 1.20400 0.74686 0.65167
 H902 H 1.12978 0.82849 0.59546
 H903 H 1.16810 0.89780 0.70923
 H904 H 1.12686 0.94989 0.69217
 H905 H 1.08507 0.97722 0.64746
 H906 H 1.09336 0.87865 0.57837
 C907 C 0.69812 0.33468 0.20018
 C908 C 0.67067 0.35344 0.18219
 C909 C 0.64299 0.33203 0.16636
 C910 C 0.64254 0.29288 0.16917
 C911 C 0.66957 0.27465 0.18677
 C912 C 0.69838 0.29490 0.20152
 C913 C 0.61614 0.34982 0.14742
 C914 C 0.61669 0.38888 0.14320
 C915 C 0.64371 0.41094 0.15937
 C916 C 0.67050 0.39305 0.17917
 C917 C 0.64405 0.45027 0.15397
 C918 C 0.61913 0.46689 0.13083
 C919 C 0.59328 0.44442 0.11391
 C920 C 0.59148 0.40584 0.12112
 H921 H 0.71939 0.35081 0.21244
 H922 H 0.62117 0.27623 0.15776
 H923 H 0.66718 0.24429 0.18910
 H924 H 0.59535 0.33310 0.13485
 H925 H 0.69159 0.40971 0.19113
 H926 H 0.66438 0.46781 0.16618
 H927 H 0.62101 0.49679 0.12485
 H928 H 0.57164 0.38867 0.10745
 C929 C 0.81287 0.82062 0.29203
 C930 C 0.83505 0.84173 0.31582
 C931 C 0.82645 0.84470 0.35394
 C932 C 0.79644 0.82737 0.36767
 C933 C 0.77534 0.80605 0.34434
 C934 C 0.78287 0.80204 0.30634
 C935 C 0.84847 0.86390 0.37842
 C936 C 0.87954 0.87997 0.36576
 C937 C 0.88862 0.87809 0.32781
 C938 C 0.86610 0.85901 0.30278
 C939 C 0.92015 0.89510 0.31611
 C940 C 0.94234 0.91322 0.34203
 C941 C 0.93347 0.91387 0.37996
 C942 C 0.90174 0.89756 0.39116
 H943 H 0.81971 0.81754 0.26297
 H944 H 0.78986 0.82912 0.39695
 H945 H 0.75422 0.79124 0.35721
 H946 H 0.84174 0.86559 0.40770
 H947 H 0.87296 0.85709 0.27361
 H948 H 0.92767 0.89426 0.28709
 H949 H 0.96644 0.92616 0.33257
 H950 H 0.89389 0.89871 0.42010
 C951 C 0.32553 0.31050 -0.20150
 C952 C 0.34864 0.32896 -0.17717
 C953 C 0.34220 0.32761 -0.13848
 C954 C 0.31271 0.30895 -0.12479
 C955 C 0.28975 0.29123 -0.14911
 C956 C 0.29596 0.29114 -0.18763
 C957 C 0.36536 0.34478 -0.11384
 C958 C 0.39462 0.36407 -0.12725
 C959 C 0.40108 0.36666 -0.16580
 C960 C 0.37808 0.34864 -0.19073
 C961 C 0.43015 0.38762 -0.17837
 C962 C 0.45218 0.40610 -0.15276
 C963 C 0.44574 0.40291 -0.11441
 C964 C 0.41705 0.38149 -0.10216
 H965 H 0.33096 0.31100 -0.23105
 H966 H 0.30759 0.30765 -0.09516
 H967 H 0.26817 0.27591 -0.13723
 H968 H 0.36043 0.34341 -0.08413
 H969 H 0.38290 0.35011 -0.22043
 H970 H 0.43547 0.39019 -0.20786
 H971 H 0.47401 0.42281 -0.16283
 H972 H 0.41114 0.37935 -0.07273
 C973 C 1.18481 0.31104 -0.17837
 C974 C 1.16043 0.32378 -0.15279
 C975 C 1.15849 0.30762 -0.11702
 C976 C 1.17965 0.27641 -0.10888
 C977 C 1.20200 0.26152 -0.13616
 C978 C 1.20558 0.27929 -0.17110
 C979 C 1.13517 0.32284 -0.09069
 C980 C 1.11272 0.35255 -0.10091
 C981 C 1.11300 0.36559 -0.13821
 C982 C 1.13727 0.35188 -0.16341
 C983 C 1.08961 0.39305 -0.14986
 C984 C 1.06777 0.40989 -0.12434
 C985 C 1.06937 0.40046 -0.08643
 C986 C 1.09081 0.37050 -0.07479
 H987 H 1.18605 0.32520 -0.20508
 H988 H 1.17811 0.26279 -0.08192
 H989 H 1.21651 0.23634 -0.12978
 H990 H 1.13447 0.31167 -0.06259
 H991 H 1.13803 0.36308 -0.19155
 H992 H 1.08911 0.40260 -0.17853
 H993 H 1.05103 0.43238 -0.13388
 H994 H 1.09208 0.36299 -0.04558
 C995 C 0.66982 0.80191 0.31744
 C996 C 0.64692 0.81578 0.34420
 C997 C 0.64979 0.80410 0.38160
 C998 C 0.67400 0.77620 0.39080
 C999 C 0.69564 0.76095 0.36336
 C1000 C 0.69503 0.77473 0.32653
 C1001 C 0.62868 0.82084 0.40892
 C1002 C 0.60423 0.84839 0.39879
 C1003 C 0.59976 0.85742 0.36065
 C1004 C 0.62126 0.84139 0.33381
 C1005 C 0.57480 0.88365 0.34987
 C1006 C 0.55632 0.90322 0.37663
 C1007 C 0.56234 0.89703 0.41465
 C1008 C 0.58524 0.86841 0.42587
 H1009 H 0.66745 0.81224 0.28917
 H1010 H 0.67617 0.76607 0.41917
 H1011 H 0.71375 0.73954 0.37160
 H1012 H 0.63173 0.81301 0.43792
 H1013 H 0.61853 0.84957 0.30484
 H1014 H 0.57064 0.89028 0.32076
 H1015 H 0.53850 0.92495 0.36763
 H1016 H 0.59004 0.86369 0.45523
 C1017 C 0.81228 0.72225 -0.16779
 C1018 C 0.83046 0.69814 -0.14303
 C1019 C 0.81494 0.66340 -0.13210
 C1020 C 0.78194 0.65347 -0.14502
 C1021 C 0.76500 0.67636 -0.17035
 C1022 C 0.77939 0.71124 -0.18234
 C1023 C 0.83323 0.63773 -0.11011
 C1024 C 0.86746 0.64556 -0.09926
 C1025 C 0.88315 0.68059 -0.10873
 C1026 C 0.86444 0.70691 -0.13040
 C1027 C 0.91756 0.68798 -0.09711
 C1028 C 0.93636 0.66047 -0.07754
 C1029 C 0.92119 0.62499 -0.06961
 C1030 C 0.88649 0.61813 -0.08005
 H1031 H 0.82458 0.74819 -0.17739
 H1032 H 0.76999 0.62669 -0.13729
 H1033 H 0.74140 0.66478 -0.18221
 H1034 H 0.82123 0.61085 -0.10265
 H1035 H 0.87668 0.73346 -0.13839
 H1036 H 0.93014 0.71470 -0.10376
 H1037 H 0.96312 0.66642 -0.06974
 H1038 H 0.87437 0.59106 -0.07361
 C1039 C 0.31394 1.22645 0.33387
 C1040 C 0.33155 1.20178 0.35846
 C1041 C 0.31526 1.16744 0.36938
 C1042 C 0.28188 1.15863 0.35678
 C1043 C 0.26543 1.18209 0.33155
 C1044 C 0.28078 1.21645 0.31944
 C1045 C 0.33318 1.14105 0.39090
 C1046 C 0.36775 1.14776 0.40116
 C1047 C 0.38412 1.18247 0.39180
 C1048 C 0.36577 1.20955 0.37079
 C1049 C 0.41879 1.18887 0.40294
 C1050 C 0.43707 1.16084 0.42229
 C1051 C 0.42126 1.12562 0.42999
 C1052 C 0.38640 1.11961 0.41976
 H1053 H 0.32695 1.25190 0.32408
 H1054 H 0.26928 1.13221 0.36456
 H1055 H 0.24156 1.17120 0.31971
 H1056 H 0.32059 1.11450 0.39839
 H1057 H 0.37846 1.23596 0.36311
 H1058 H 0.43196 1.21521 0.39613
 H1059 H 0.46390 1.16626 0.43018
 H1060 H 0.37383 1.09273 0.42600
 C1061 C 1.17808 0.70964 0.18762
 C1062 C 1.15728 0.69650 0.15817
 C1063 C 1.17184 0.69204 0.12249
 C1064 C 1.20654 0.70322 0.11655
 C1065 C 1.22703 0.71674 0.14610
 C1066 C 1.21374 0.71859 0.18253
 C1067 C 1.15182 0.67536 0.09389
 C1068 C 1.11750 0.66290 0.10088
 C1069 C 1.10254 0.66936 0.13625
 C1070 C 1.12242 0.68632 0.16448
 C1071 C 1.06851 0.65682 0.14359
 C1072 C 1.05014 0.63593 0.11703
 C1073 C 1.06515 0.62785 0.08252
 C1074 C 1.09852 0.64216 0.07405
 H1075 H 1.16620 0.71149 0.21481
 H1076 H 1.21817 0.70053 0.08925
 H1077 H 1.25375 0.72360 0.14045
 H1078 H 1.16333 0.67078 0.06676
 H1079 H 1.11118 0.69009 0.19188
 H1080 H 1.05683 0.66134 0.17061
 H1081 H 1.02508 0.62381 0.12442
 H1082 H 1.11043 0.63503 0.04769
 C1083 C 0.67888 1.21978 0.67855
 C1084 C 0.65914 1.20422 0.64934
 C1085 C 0.67591 1.19241 0.61655
 C1086 C 0.71162 1.19972 0.61230
 C1087 C 0.73101 1.21577 0.64142
 C1088 C 0.71549 1.22362 0.67594
 C1089 C 0.65698 1.17236 0.58932
 C1090 C 0.62143 1.16417 0.59460
 C1091 C 0.60412 1.17874 0.62609
 C1092 C 0.62309 1.19867 0.65324
 C1093 C 0.56841 1.17149 0.63088
 C1094 C 0.55048 1.14786 0.60612
 C1095 C 0.56800 1.13120 0.57634
 C1096 C 0.60322 1.14014 0.57000
 H1097 H 0.66546 1.22731 0.70388
 H1098 H 0.72486 1.19182 0.58693
 H1099 H 0.75855 1.21938 0.63745
 H1100 H 0.67014 1.16196 0.56478
 H1101 H 0.61007 1.20842 0.67814
 H1102 H 0.55471 1.18277 0.65464
 H1103 H 0.52345 1.14064 0.61155
 H1104 H 0.61676 1.12689 0.54709
 C1105 C 0.82505 0.27864 0.16826
 C1106 C 0.84294 0.30247 0.14281
 C1107 C 0.82399 0.32893 0.12168
 C1108 C 0.78781 0.32991 0.12475
 C1109 C 0.77051 0.30682 0.15029
 C1110 C 0.78854 0.28149 0.17340
 C1111 C 0.84144 0.35507 0.09877
 C1112 C 0.87785 0.35552 0.09677
 C1113 C 0.89708 0.32798 0.11621
 C1114 C 0.87949 0.30154 0.13915
 C1115 C 0.93360 0.32813 0.11298
 C1116 C 0.95083 0.35613 0.09192
 C1117 C 0.93184 0.38476 0.07435
 C1118 C 0.89533 0.38386 0.07641
 H1119 H 0.83988 0.25948 0.18548
 H1120 H 0.77284 0.34968 0.10834
 H1121 H 0.74292 0.31016 0.15213
 H1122 H 0.82668 0.37582 0.08330
 H1123 H 0.89428 0.28105 0.15488
 H1124 H 0.94888 0.30708 0.12734
 H1125 H 0.97901 0.35636 0.09069
 H1126 H 0.88055 0.40573 0.06260
 C1127 C 0.33483 0.77991 0.68158
 C1128 C 0.35289 0.80103 0.65419
 C1129 C 0.33575 0.81099 0.62088
 C1130 C 0.30168 0.79799 0.61474
 C1131 C 0.28394 0.77738 0.64214
 C1132 C 0.29941 0.76894 0.67665
 C1133 C 0.35250 0.83462 0.59473
 C1134 C 0.38628 0.84875 0.60156
 C1135 C 0.40407 0.83753 0.63421
 C1136 C 0.38734 0.81367 0.66021
 C1137 C 0.43795 0.85137 0.64086
 C1138 C 0.45355 0.87714 0.61624
 C1139 C 0.43564 0.88954 0.58455
 C1140 C 0.40216 0.87487 0.57698
 H1141 H 0.34813 0.77381 0.70744
 H1142 H 0.28827 0.80471 0.58905
 H1143 H 0.25780 0.76877 0.63602
 H1144 H 0.33888 0.84284 0.56957
 H1145 H 0.40078 0.80588 0.68561
 H1146 H 0.45205 0.84306 0.66565
 H1147 H 0.47920 0.88852 0.62262
 H1148 H 0.38816 0.88471 0.55266
 C1149 C 0.30074 1.20399 -0.15743
 C1150 C 0.31464 1.17898 -0.13150
 C1151 C 0.29635 1.14563 -0.12189
 C1152 C 0.26248 1.14011 -0.13603
 C1153 C 0.24785 1.16666 -0.16054
 C1154 C 0.26714 1.19871 -0.17218
 C1155 C 0.31298 1.11807 -0.09978
 C1156 C 0.34737 1.12431 -0.08692
 C1157 C 0.36379 1.15963 -0.09420
 C1158 C 0.34749 1.18643 -0.11646
 C1159 C 0.39713 1.16729 -0.08061
 C1160 C 0.41554 1.13932 -0.06253
 C1161 C 0.40132 1.10283 -0.05788
 C1162 C 0.36643 1.09575 -0.06850
 H1163 H 0.31754 1.22628 -0.16768
 H1164 H 0.24765 1.11492 -0.12886
 H1165 H 0.22214 1.16106 -0.17180
 H1166 H 0.29971 1.09157 -0.09368
 H1167 H 0.36093 1.21275 -0.12309
 H1168 H 0.40961 1.19452 -0.08531
 H1169 H 0.44187 1.14586 -0.05352
 H1170 H 0.35508 1.06785 -0.06457
 C1171 C 0.80411 0.71553 0.34336
 C1172 C 0.82102 0.69078 0.36778
 C1173 C 0.80241 0.66040 0.38426
 C1174 C 0.76663 0.65673 0.37772
 C1175 C 0.75022 0.68056 0.35234
 C1176 C 0.76890 0.70971 0.33400
 C1177 C 0.82023 0.63293 0.40499
 C1178 C 0.85661 0.63509 0.40872
 C1179 C 0.87477 0.66652 0.39340
 C1180 C 0.85688 0.69433 0.37363
 C1181 C 0.91089 0.66896 0.39654
 C1182 C 0.92922 0.63990 0.41321
 C1183 C 0.91197 0.60760 0.42756
 C1184 C 0.87535 0.60580 0.42611
 H1185 H 0.81930 0.73716 0.32918
 H1186 H 0.75173 0.63398 0.39043
 H1187 H 0.72320 0.67463 0.34570
 H1188 H 0.80605 0.60895 0.41650
 H1189 H 0.87120 0.71764 0.36101
 H1190 H 0.92514 0.69297 0.38522
 H1191 H 0.95730 0.64282 0.41451
 H1192 H 0.86168 0.58131 0.43721
 C1193 C 0.71476 1.16679 0.17665
 C1194 C 0.69812 1.14744 0.14756
 C1195 C 0.69082 1.16637 0.11392
 C1196 C 0.70194 1.20402 0.10956
 C1197 C 0.71852 1.22319 0.13891
 C1198 C 0.72401 1.20545 0.17347
 C1199 C 0.67150 1.14773 0.08595
 C1200 C 0.65858 1.11081 0.09192
 C1201 C 0.66706 1.09166 0.12529
 C1202 C 0.68724 1.10984 0.15252
 C1203 C 0.65337 1.05543 0.13206
 C1204 C 0.62975 1.03916 0.10714
 C1205 C 0.62062 1.05798 0.07428
 C1206 C 0.63558 1.09354 0.06632
 H1207 H 0.71918 1.15150 0.20229
 H1208 H 0.69687 1.21906 0.08386
 H1209 H 0.72546 1.25236 0.13476
 H1210 H 0.66526 1.16246 0.06034
 H1211 H 0.69298 1.09534 0.17841
 H1212 H 0.65926 1.04067 0.15772
 H1213 H 0.61687 1.01289 0.11474
 H1214 H 0.62748 1.10870 0.04159
 C1215 C 1.19973 0.66987 0.68776
 C1216 C 1.18772 0.64352 0.66163
 C1217 C 1.20262 0.64237 0.62586
 C1218 C 1.23225 0.66488 0.61860
 C1219 C 1.24615 0.68882 0.64627
 C1220 C 1.22897 0.69330 0.68059
 C1221 C 1.18755 0.61876 0.59838
 C1222 C 1.15898 0.59498 0.60729
 C1223 C 1.14733 0.59324 0.64464
 C1224 C 1.16108 0.61810 0.67117
 C1225 C 1.12087 0.56785 0.65473
 C1226 C 1.10340 0.54714 0.62758
 C1227 C 1.11166 0.55172 0.58983
 C1228 C 1.14063 0.57427 0.57968
 H1229 H 1.18637 0.67138 0.71422
 H1230 H 1.24507 0.66341 0.59183
 H1231 H 1.27003 0.70398 0.64047
 H1232 H 1.19769 0.61919 0.57025
 H1233 H 1.15065 0.61801 0.69922
 H1234 H 1.11241 0.56546 0.68340
 H1235 H 1.08122 0.52985 0.63578
 H1236 H 1.14697 0.57805 0.55053
 C1237 C 0.69337 0.82108 -0.19390
 C1238 C 0.67831 0.84322 -0.16655
 C1239 C 0.69142 0.84283 -0.12994
 C1240 C 0.72138 0.82143 -0.12235
 C1241 C 0.73677 0.79939 -0.15046
 C1242 C 0.72170 0.79737 -0.18620
 C1243 C 0.67392 0.86338 -0.10203
 C1244 C 0.64355 0.88385 -0.11091
 C1245 C 0.63193 0.88481 -0.14835
 C1246 C 0.64947 0.86490 -0.17571
 C1247 C 0.60214 0.90473 -0.15810
 C1248 C 0.58272 0.92234 -0.13091
 C1249 C 0.59271 0.92080 -0.09337
 C1250 C 0.62385 0.90250 -0.08337
 H1251 H 0.68203 0.82223 -0.22147
 H1252 H 0.73256 0.82130 -0.09465
 H1253 H 0.75939 0.78271 -0.14383
 H1254 H 0.68333 0.86271 -0.07358
 H1255 H 0.63989 0.86531 -0.20416
 H1256 H 0.59331 0.90590 -0.18675
 H1257 H 0.55935 0.93698 -0.13929
 H1258 H 0.63177 0.90144 -0.05443
 C1259 C 1.19907 0.32887 0.30804
 C1260 C 1.18404 0.34993 0.33630
 C1261 C 1.19634 0.34699 0.37314
 C1262 C 1.22596 0.32491 0.38006
 C1263 C 1.24146 0.30423 0.35107
 C1264 C 1.22653 0.30393 0.31518
 C1265 C 1.17827 0.36556 0.40198
 C1266 C 1.14813 0.38665 0.39380
 C1267 C 1.13769 0.39074 0.35616
 C1268 C 1.15580 0.37276 0.32790
 C1269 C 1.10836 0.41162 0.34701
 C1270 C 1.08801 0.42673 0.37484
 C1271 C 1.09650 0.42164 0.41253
 C1272 C 1.12743 0.40274 0.42213
 H1273 H 1.18819 0.33139 0.28034
 H1274 H 1.23662 0.32295 0.40792
 H1275 H 1.26365 0.28675 0.35726
 H1276 H 1.18694 0.36270 0.43056
 H1277 H 1.14697 0.37536 0.29929
 H1278 H 1.10049 0.41535 0.31826
 H1279 H 1.06498 0.44214 0.36675
 H1280 H 1.13436 0.39916 0.45116
 C1281 C 0.28867 0.82219 0.18010
 C1282 C 0.31023 0.84092 0.15368
 C1283 C 0.33142 0.81932 0.12989
 C1284 C 0.32962 0.78009 0.13130
 C1285 C 0.30885 0.76202 0.15751
 C1286 C 0.28847 0.78220 0.18311
 C1287 C 0.35513 0.83697 0.10577
 C1288 C 0.35826 0.87630 0.10483
 C1289 C 0.33606 0.89854 0.12693
 C1290 C 0.31215 0.88071 0.15136
 C1291 C 0.33890 0.93815 0.12464
 C1292 C 0.36423 0.95526 0.10178
 C1293 C 0.38753 0.93303 0.08149
 C1294 C 0.38399 0.89360 0.08271
 H1295 H 0.27351 0.83878 0.19935
 H1296 H 0.34531 0.76313 0.11282
 H1297 H 0.30990 0.73191 0.15740
 H1298 H 0.37187 0.81996 0.08840
 H1299 H 0.29575 0.89771 0.16906
 H1300 H 0.32200 0.95585 0.14103
 H1301 H 0.36658 0.98579 0.10116
 H1302 H 0.40170 0.87634 0.06677
 C1303 C 0.78569 0.32670 0.67281
 C1304 C 0.80525 0.34572 0.64491
 C1305 C 0.82694 0.32458 0.62123
 C1306 C 0.82813 0.28545 0.62480
 C1307 C 0.80957 0.26720 0.65275
 C1308 C 0.78824 0.28702 0.67763
 C1309 C 0.84847 0.34274 0.59527
 C1310 C 0.84956 0.38214 0.59301
 C1311 C 0.82718 0.40385 0.61537
 C1312 C 0.80483 0.38545 0.64107
 C1313 C 0.82875 0.44355 0.61247
 C1314 C 0.85368 0.46130 0.58947
 C1315 C 0.87730 0.43956 0.56911
 C1316 C 0.87420 0.40006 0.57009
 H1317 H 0.76984 0.34296 0.69170
 H1318 H 0.84455 0.26888 0.60674
 H1319 H 0.81305 0.23738 0.65461
 H1320 H 0.86557 0.32618 0.57788
 H1321 H 0.78818 0.40203 0.65888
 H1322 H 0.81169 0.46084 0.62909
 H1323 H 0.85588 0.49184 0.58931
 H1324 H 0.89238 0.38317 0.55435
 C1325 C 1.16679 1.18289 0.71195
 C1326 C 1.14451 1.16586 0.68579
 C1327 C 1.14647 1.17715 0.64805
 C1328 C 1.17091 1.20398 0.63674
 C1329 C 1.19402 1.21896 0.66234
 C1330 C 1.19202 1.20948 0.70029
 C1331 C 1.12553 1.15986 0.62146
 C1332 C 1.10422 1.12956 0.63144
 C1333 C 1.10190 1.11758 0.66888
 C1334 C 1.12147 1.13660 0.69622
 C1335 C 1.08113 1.08594 0.67776
 C1336 C 1.06425 1.06563 0.64942
 C1337 C 1.06766 1.07720 0.61212
 C1338 C 1.08673 1.10989 0.60371
 H1339 H 1.16527 1.17438 0.74088
 H1340 H 1.17343 1.21193 0.60770
 H1341 H 1.21470 1.23622 0.65150
 H1342 H 1.12737 1.16857 0.59253
 H1343 H 1.12007 1.12750 0.72501
 H1344 H 1.07882 1.07629 0.70628
 H1345 H 1.04916 1.04063 0.65659
 H1346 H 1.08910 1.11954 0.57515
 C1347 C 0.65909 0.68138 0.21524
 C1348 C 0.63952 0.65428 0.19623
 C1349 C 0.65589 0.62155 0.18263
 C1350 C 0.69141 0.61615 0.18912
 C1351 C 0.71111 0.64436 0.20643
 C1352 C 0.69548 0.67824 0.21763
 C1353 C 0.63698 0.59588 0.16097
 C1354 C 0.60277 0.60404 0.15070
 C1355 C 0.58624 0.63672 0.16438
 C1356 C 0.60444 0.66101 0.18820
 C1357 C 0.55263 0.64573 0.15202
 C1358 C 0.53640 0.62353 0.12483
 C1359 C 0.55317 0.59153 0.11132
 C1360 C 0.58570 0.58130 0.12485
 H1361 H 0.64617 0.70645 0.22516
 H1362 H 0.70423 0.59096 0.17930
 H1363 H 0.73877 0.64004 0.20997
 H1364 H 0.64958 0.57095 0.15005
 H1365 H 0.59214 0.68646 0.19824
 H1366 H 0.53966 0.67071 0.16213
 H1367 H 0.51120 0.63152 0.11400
 H1368 H 0.59857 0.55689 0.11334
 C1369 C 1.20071 0.82531 0.30316
 C1370 C 1.17307 0.84233 0.32269
 C1371 C 1.15503 0.82114 0.35013
 C1372 C 1.16399 0.78412 0.35746
 C1373 C 1.18991 0.76728 0.33723
 C1374 C 1.20939 0.78720 0.31020
 C1375 C 1.12756 0.83665 0.36965
 C1376 C 1.11726 0.87335 0.36235
 C1377 C 1.13420 0.89516 0.33468
 C1378 C 1.16235 0.87954 0.31498
 C1379 C 1.12297 0.93232 0.32820
 C1380 C 1.09701 0.94807 0.35073
 C1381 C 1.08177 0.92646 0.37935
 C1382 C 1.09100 0.88881 0.38381
 H1383 H 1.21426 0.84100 0.28159
 H1384 H 1.15003 0.76749 0.37810
 H1385 H 1.19317 0.73807 0.34291
 H1386 H 1.11417 0.82007 0.39081
 H1387 H 1.17587 0.89624 0.29411
 H1388 H 1.13512 0.94956 0.30682
 H1389 H 1.09033 0.97751 0.34727
 H1390 H 1.07902 0.87209 0.40580
 C1391 C 0.70480 0.33381 -0.19949
 C1392 C 0.67889 0.35246 -0.17866
 C1393 C 0.65838 0.33131 -0.15321
 C1394 C 0.66230 0.29254 -0.15019
 C1395 C 0.68605 0.27428 -0.17230
 C1396 C 0.70882 0.29423 -0.19623
 C1397 C 0.63321 0.34872 -0.13169
 C1398 C 0.62698 0.38708 -0.13581
 C1399 C 0.64595 0.40880 -0.16202
 C1400 C 0.67229 0.39139 -0.18314
 C1401 C 0.63820 0.44744 -0.16601
 C1402 C 0.61290 0.46419 -0.14324
 C1403 C 0.59545 0.44239 -0.11629
 C1404 C 0.60216 0.40391 -0.11332
 H1405 H 0.72083 0.34972 -0.21888
 H1406 H 0.64589 0.27590 -0.13171
 H1407 H 0.68500 0.24415 -0.17088
 H1408 H 0.61812 0.33218 -0.11183
 H1409 H 0.68727 0.40790 -0.20303
 H1410 H 0.65213 0.46477 -0.18605
 H1411 H 0.60804 0.49419 -0.14557
 H1412 H 0.58861 0.38719 -0.09239
 C1413 C 0.83468 1.18720 0.29375
 C1414 C 0.85216 1.15749 0.31167
 C1415 C 0.83261 1.12757 0.32791
 C1416 C 0.79661 1.12636 0.32432
 C1417 C 0.77968 1.15521 0.30612
 C1418 C 0.79803 1.18706 0.29217
 C1419 C 0.84908 1.09928 0.34797
 C1420 C 0.88508 1.10003 0.35201
 C1421 C 0.90533 1.12841 0.33422
 C1422 C 0.88868 1.15716 0.31411
 C1423 C 0.94171 1.12804 0.33810
 C1424 C 0.95739 1.10107 0.36102
 C1425 C 0.93674 1.07458 0.38027
 C1426 C 0.90088 1.07349 0.37495
 H1427 H 0.84940 1.21048 0.28173
 H1428 H 0.78143 1.10303 0.33565
 H1429 H 0.75172 1.15237 0.30357
 H1430 H 0.83375 1.07711 0.36127
 H1431 H 0.90398 1.17952 0.30118
 H1432 H 0.95785 1.14925 0.32454
 H1433 H 0.98531 1.10212 0.36528
 H1434 H 0.88519 1.05283 0.38996
 C1435 C 0.32903 0.67774 -0.19990
 C1436 C 0.34381 0.64702 -0.18102
 C1437 C 0.32258 0.62367 -0.15825
 C1438 C 0.28682 0.62952 -0.15684
 C1439 C 0.27216 0.65855 -0.17729
 C1440 C 0.29302 0.68445 -0.19748
 C1441 C 0.33723 0.59437 -0.13764
 C1442 C 0.37280 0.58726 -0.14022
 C1443 C 0.39381 0.60874 -0.16492
 C1444 C 0.37927 0.63885 -0.18486
 C1445 C 0.42920 0.60030 -0.16837
 C1446 C 0.44397 0.57254 -0.14584
 C1447 C 0.42371 0.55340 -0.11911
 C1448 C 0.38790 0.55990 -0.11738
 H1449 H 0.34540 0.69595 -0.21690
 H1450 H 0.26998 0.61089 -0.14082
 H1451 H 0.24413 0.65969 -0.17789
 H1452 H 0.32097 0.57728 -0.11939
 H1453 H 0.39551 0.65598 -0.20308
 H1454 H 0.44570 0.61612 -0.18739
 H1455 H 0.47176 0.56806 -0.14742
 H1456 H 0.37217 0.54502 -0.09691
 C1457 C 0.82247 0.81389 0.70153
 C1458 C 0.84342 0.83410 0.67630
 C1459 C 0.83575 0.83203 0.63783
 C1460 C 0.80781 0.81020 0.62510
 C1461 C 0.78736 0.79038 0.65017
 C1462 C 0.79417 0.79177 0.68858
 C1463 C 0.85622 0.85153 0.61231
 C1464 C 0.88450 0.87318 0.62447
 C1465 C 0.89270 0.87583 0.66268
 C1466 C 0.87194 0.85618 0.68861
 C1467 C 0.92148 0.89808 0.67385
 C1468 C 0.94181 0.91717 0.64718
 C1469 C 0.93356 0.91397 0.60916
 C1470 C 0.90465 0.89213 0.59837
 H1471 H 0.82838 0.81535 0.73098
 H1472 H 0.80197 0.80807 0.59564
 H1473 H 0.76706 0.77272 0.63888
 H1474 H 0.85020 0.84970 0.58282
 H1475 H 0.87796 0.85796 0.71806
 H1476 H 0.92824 0.90062 0.70304
 H1477 H 0.96392 0.93412 0.65619
 H1478 H 0.89740 0.88984 0.56927
 C1479 C 0.33008 0.31580 0.20428
 C1480 C 0.35426 0.33196 0.17935
 C1481 C 0.34916 0.32702 0.14068
 C1482 C 0.31991 0.30762 0.12743
 C1483 C 0.29594 0.29246 0.15213
 C1484 C 0.30090 0.29525 0.19077
 C1485 C 0.37325 0.34161 0.11549
 C1486 C 0.40189 0.36256 0.12808
 C1487 C 0.40691 0.36914 0.16644
 C1488 C 0.38336 0.35298 0.19212
 C1489 C 0.43487 0.39250 0.17793
 C1490 C 0.45695 0.40961 0.15147
 C1491 C 0.45181 0.40277 0.11332
 C1492 C 0.42467 0.37837 0.10223
 H1493 H 0.33427 0.31896 0.23393
 H1494 H 0.31571 0.30376 0.09783
 H1495 H 0.27464 0.27651 0.14054
 H1496 H 0.36923 0.33739 0.08586
 H1497 H 0.38736 0.35716 0.22172
 H1498 H 0.43890 0.39857 0.20718
 H1499 H 0.47756 0.42854 0.16070
 H1500 H 0.41969 0.37322 0.07295
   
