data_POSCAR
  _audit_creation_date              2014-09-24
  _audit_creation_method            'ToBaCCo'
  _symmetry_space_group_name_H-M    'P1'
  _symmetry_Int_Tables_number       1
  _symmetry_cell_setting            triclinic
  loop_
  _symmetry_equiv_pos_as_xyz
 x,y,z
_cell_length_a 35.6716
_cell_length_b 36.2477
_cell_length_c 46.2721
_cell_angle_alpha 90.058600
_cell_angle_beta 90.265400
_cell_angle_gamma 90.312100
loop_
  _atom_site_label
  _atom_site_type_symbol
  _atom_site_fract_x
  _atom_site_fract_y
  _atom_site_fract_z
B1 B 0.26437 0.24248 0.27225
 B2 B 0.22046 0.22888 0.26347
 B3 B 0.22928 0.27297 0.27284
 B4 B 0.27168 0.28535 0.25948
 B5 B 0.28852 0.24788 0.24128
 B6 B 0.25694 0.21309 0.24449
 B7 B 0.22369 0.26922 0.21462
 B8 B 0.26769 0.28232 0.22331
 B9 B 0.25857 0.23819 0.21389
 B10 B 0.21644 0.22590 0.22727
 B11 B 0.19940 0.26319 0.24516
 B12 B 0.23144 0.29835 0.24284
 B13 B 0.73480 0.77020 0.28501
 B14 B 0.77929 0.78340 0.27815
 B15 B 0.76986 0.73906 0.28608
 B16 B 0.72804 0.72724 0.27118
 B17 B 0.71175 0.76523 0.25349
 B18 B 0.74380 0.80016 0.25781
 B19 B 0.77792 0.74544 0.22819
 B20 B 0.73369 0.73130 0.23501
 B21 B 0.74278 0.77606 0.22720
 B22 B 0.78480 0.78780 0.24218
 B23 B 0.80088 0.74985 0.25980
 B24 B 0.76902 0.71500 0.25503
 B25 B 0.73447 0.21985 -0.22974
 B26 B 0.71903 0.26246 -0.23751
 B27 B 0.76456 0.25588 -0.22965
 B28 B 0.77819 0.21494 -0.24351
 B29 B 0.74016 0.19641 -0.26036
 B30 B 0.70315 0.22589 -0.25678
 B31 B 0.75774 0.26152 -0.28745
 B32 B 0.77322 0.21902 -0.27970
 B33 B 0.72757 0.22501 -0.28753
 B34 B 0.71400 0.26626 -0.27385
 B35 B 0.75214 0.28496 -0.25662
 B36 B 0.78895 0.25541 -0.26021
 B37 B 0.27807 0.76188 -0.26926
 B38 B 0.23523 0.77921 -0.26163
 B39 B 0.23959 0.73544 -0.27393
 B40 B 0.27923 0.71702 -0.25938
 B41 B 0.29875 0.75014 -0.23785
 B42 B 0.27152 0.78880 -0.23968
 B43 B 0.22926 0.73329 -0.21633
 B44 B 0.27225 0.71640 -0.22314
 B45 B 0.26792 0.76009 -0.21142
 B46 B 0.22854 0.77815 -0.22580
 B47 B 0.20890 0.74492 -0.24739
 B48 B 0.23629 0.70653 -0.24581
 B49 B 1.22733 1.26524 0.78608
 B50 B 1.27162 1.27778 0.77800
 B51 B 1.26199 1.23398 0.78775
 B52 B 1.21944 1.22201 0.77396
 B53 B 1.20378 1.25918 0.75485
 B54 B 1.23618 1.29363 0.75795
 B55 B 1.26871 1.23596 0.72967
 B56 B 1.22421 1.22377 0.73779
 B57 B 1.23441 1.26744 0.72789
 B58 B 1.27655 1.27950 0.74178
 B59 B 1.29239 1.24239 0.76047
 B60 B 1.25980 1.20765 0.75808
 B61 B 0.75656 0.74065 0.77288
 B62 B 0.71315 0.72846 0.76218
 B63 B 0.72281 0.77303 0.76869
 B64 B 0.76734 0.78209 0.75779
 B65 B 0.78447 0.74196 0.74386
 B66 B 0.75067 0.70858 0.74667
 B67 B 0.72362 0.76255 0.71112
 B68 B 0.76719 0.77473 0.72149
 B69 B 0.75723 0.73010 0.71523
 B70 B 0.71303 0.72121 0.72615
 B71 B 0.69600 0.76115 0.73991
 B72 B 0.72969 0.79468 0.73725
 B73 B 1.22207 0.72323 0.26492
 B74 B 1.21265 0.76769 0.25799
 B75 B 1.25595 0.75595 0.26878
 B76 B 1.26641 0.71438 0.25434
 B77 B 1.22893 0.70090 0.23368
 B78 B 1.19531 0.73428 0.23602
 B79 B 1.25695 0.76508 0.21106
 B80 B 1.26675 0.72078 0.21812
 B81 B 1.22339 0.73255 0.20722
 B82 B 1.21273 0.77409 0.22187
 B83 B 1.25034 0.78745 0.24220
 B84 B 1.28391 0.75420 0.23995
 B85 B 0.77273 1.26075 0.22902
 B86 B 0.72778 1.26672 0.23849
 B87 B 0.74320 1.22426 0.23053
 B88 B 0.78785 1.22022 0.24267
 B89 B 0.79928 1.26097 0.25891
 B90 B 0.76164 1.28983 0.25620
 B91 B 0.74035 1.23000 0.28850
 B92 B 0.78560 1.22474 0.27905
 B93 B 0.76956 1.26706 0.28706
 B94 B 0.72516 1.27086 0.27485
 B95 B 0.71384 1.23019 0.25861
 B96 B 0.75145 1.20120 0.26119
 O97 O 0.46155 1.07034 0.02474
 O98 O 0.55012 0.93273 0.02185
 O99 O 0.43524 0.95673 0.01953
 O100 O 0.57664 1.04646 0.02434
 O101 O 0.48667 0.93638 0.03559
 O102 O 0.52419 1.06328 0.04057
 O103 O 0.57099 0.98324 0.03949
 O104 O 0.44183 1.01813 0.03889
 C105 C 0.44349 1.05182 0.04271
 C106 C 0.56677 0.94947 0.04177
 C107 C 0.45250 0.93921 0.03840
 C108 C 0.55830 1.06071 0.04416
 O109 O 0.54783 1.07396 -0.01515
 O110 O 0.46572 0.93261 -0.02126
 O111 O 0.43394 1.04458 -0.01586
 O112 O 0.58006 0.96233 -0.01597
 O113 O 0.52997 0.94167 -0.03485
 O114 O 0.48538 1.06566 -0.03139
 O115 O 0.57131 1.02444 -0.03145
 O116 O 0.44256 0.98395 -0.03437
 Co117 Co 0.50496 1.06185 0.00451
 Co118 Co 0.50794 0.94230 0.00048
 Co119 Co 0.44530 1.00104 0.00220
 Co120 Co 0.56799 1.00403 0.00398
 O121 O 0.50655 1.00226 0.00275
 C122 C 0.56583 1.05777 -0.03437
 C123 C 0.44573 0.95049 -0.03849
 C124 C 0.45122 1.06228 -0.03462
 C125 C 0.56424 0.94652 -0.03657
 O126 O 0.97547 0.57430 0.52537
 O127 O 1.04344 0.43027 0.52718
 O128 O 0.93144 0.46466 0.52296
 O129 O 1.08640 0.53895 0.51704
 O130 O 0.98162 0.44412 0.54056
 O131 O 1.03916 0.56420 0.53546
 O132 O 1.07160 0.48020 0.53888
 O133 O 0.94697 0.52557 0.54018
 C134 C 0.95500 0.55851 0.54368
 C135 C 1.06380 0.44784 0.54459
 C136 C 0.94740 0.44717 0.54254
 C137 C 1.07309 0.55826 0.53658
 O138 O 1.05491 0.56432 0.47693
 O139 O 0.95886 0.43630 0.48366
 O140 O 0.93913 0.55176 0.48686
 O141 O 1.07511 0.44915 0.48608
 O142 O 1.02183 0.43587 0.46950
 O143 O 0.99025 0.56449 0.46668
 O144 O 1.07357 0.51018 0.46499
 O145 O 0.94166 0.48903 0.46812
 Co146 Co 1.01428 0.56079 0.50126
 Co147 Co 1.00211 0.44261 0.50505
 Co148 Co 0.94700 0.50695 0.50425
 Co149 Co 1.06960 0.49520 0.50195
 O150 O 1.00830 0.50144 0.50313
 C151 C 1.07149 0.54352 0.45949
 C152 C 0.94296 0.45529 0.46473
 C153 C 0.95584 0.56555 0.46604
 C154 C 1.05605 0.43465 0.46660
 O155 O 1.03452 0.48265 0.03916
 O156 O 1.01477 0.51979 -0.05853
 O157 O 1.02550 0.43893 -0.02232
 O158 O 1.02703 0.56736 0.00463
 O159 O 0.99650 0.45741 -0.05960
 O160 O 1.01550 0.54475 0.04615
 O161 O 0.99670 0.57113 -0.04183
 O162 O 1.01140 0.43084 0.02826
 C163 C 1.03747 0.44886 0.03946
 C164 C 1.01926 0.55349 -0.05690
 C165 C 1.02493 0.44286 -0.04887
 C166 C 1.03665 0.56282 0.03004
 O167 O 0.94317 0.52189 0.04956
 O168 O 0.92455 0.47713 -0.04655
 O169 O 0.93708 0.43677 0.01605
 O170 O 0.92899 0.56469 -0.01601
 O171 O 0.94155 0.53986 -0.05654
 O172 O 0.96314 0.46019 0.05319
 O173 O 0.95919 0.57284 0.03036
 O174 O 0.95083 0.42757 -0.03371
 Co175 Co 0.98822 0.50210 0.04201
 Co176 Co 0.97015 0.49875 -0.05031
 Co177 Co 0.98108 0.44057 -0.00310
 Co178 Co 0.97806 0.56211 -0.00553
 O179 O 0.97919 0.50102 -0.00419
 C180 C 0.93940 0.55558 0.04800
 C181 C 0.92337 0.44315 -0.04499
 C182 C 0.93667 0.44216 0.04240
 C183 C 0.92068 0.55982 -0.04171
 O184 O 0.53179 0.97819 0.54099
 O185 O 0.52167 1.02401 0.44424
 O186 O 0.52986 0.93744 0.47856
 O187 O 0.52276 1.06608 0.50755
 O188 O 0.50766 0.95983 0.43957
 O189 O 0.51081 1.04000 0.54784
 O190 O 0.49547 1.07173 0.46058
 O191 O 0.50996 0.92684 0.52720
 C192 C 0.53535 0.94435 0.53975
 C193 C 0.52149 1.05806 0.44644
 C194 C 0.53346 0.94340 0.45247
 C195 C 0.53046 1.06178 0.53335
 O196 O 0.43804 1.01527 0.54675
 O197 O 0.43284 0.97462 0.44750
 O198 O 0.43736 0.93123 0.51010
 O199 O 0.42675 1.05789 0.48290
 O200 O 0.44583 1.03775 0.44228
 O201 O 0.45925 0.95434 0.54911
 O202 O 0.45425 1.06742 0.53078
 O203 O 0.45888 0.92522 0.46030
 Co204 Co 0.48463 0.99706 0.54126
 Co205 Co 0.47733 0.99882 0.44827
 Co206 Co 0.48352 0.93731 0.49407
 Co207 Co 0.47520 1.05859 0.49541
 O208 O 0.48026 0.99798 0.49476
 C209 C 0.43318 1.04887 0.54643
 C210 C 0.43224 0.94065 0.44791
 C211 C 0.43480 0.93515 0.53666
 C212 C 0.42242 1.05584 0.45641
 O213 O 1.08321 1.02815 0.46462
 O214 O 0.96051 1.03609 0.54038
 O215 O 0.96517 1.01806 0.45251
 O216 O 1.07793 1.01905 0.55325
 O217 O 0.95538 1.04665 0.49063
 O218 O 1.08927 1.04226 0.51291
 O219 O 1.01692 1.04951 0.55414
 O220 O 1.02794 1.04529 0.45215
 C221 C 1.06219 1.05098 0.45215
 C222 C 0.98302 1.05702 0.55380
 C223 C 0.95365 1.04634 0.46409
 C224 C 1.09208 1.04434 0.53928
 O225 O 1.09311 0.96671 0.52663
 O226 O 0.94538 0.96980 0.48140
 O227 O 1.05408 0.97855 0.44290
 O228 O 0.98626 0.98566 0.56518
 O229 O 0.95833 0.95984 0.53073
 O230 O 1.07688 0.95235 0.47882
 O231 O 1.04423 0.95428 0.55184
 O232 O 0.99406 0.95193 0.45780
 Co233 Co 1.07984 0.99747 0.49638
 Co234 Co 0.96072 1.00285 0.51005
 Co235 Co 1.01147 0.99864 0.45682
 Co236 Co 1.03031 1.00187 0.55057
 O237 O 1.02059 1.00030 0.50354
 C238 C 1.07686 0.94674 0.54503
 C239 C 0.96093 0.94675 0.46489
 C240 C 1.07079 0.95166 0.45264
 C241 C 0.96562 0.96044 0.55680
 O242 O 0.58242 0.53922 -0.01751
 O243 O 0.45357 0.54434 0.01518
 O244 O 0.50223 0.53808 -0.05239
 O245 O 0.53304 0.54716 0.04740
 O246 O 0.44898 0.52457 -0.03376
 O247 O 0.58646 0.52868 0.03267
 O248 O 0.47111 0.52232 0.05483
 O249 O 0.56417 0.51075 -0.05419
 C250 C 0.57840 0.53893 -0.04397
 C251 C 0.45524 0.54753 0.04169
 C252 C 0.46815 0.54377 -0.05093
 C253 C 0.56723 0.55223 0.04599
 O254 O 0.57926 0.45237 0.02206
 O255 O 0.45126 0.45171 -0.01530
 O256 O 0.53463 0.44498 -0.04524
 O257 O 0.49799 0.45422 0.05211
 O258 O 0.44605 0.47079 0.03263
 O259 O 0.58746 0.46231 -0.02740
 O260 O 0.56028 0.48039 0.05858
 O261 O 0.47344 0.47071 -0.05458
 Co262 Co 0.57779 0.49577 0.00232
 Co263 Co 0.45622 0.49789 -0.00018
 Co264 Co 0.51847 0.49172 -0.04637
 Co265 Co 0.51583 0.50054 0.04778
 O266 O 0.51707 0.49648 0.00082
 C267 C 0.57553 0.45278 0.04847
 C268 C 0.45596 0.44670 -0.04130
 C269 C 0.56860 0.43965 -0.04230
 C270 C 0.46393 0.44897 0.04859
 C271 C 0.30555 1.21847 0.13884
 C272 C 0.31618 1.18095 0.14153
 C273 C 0.30217 1.16122 0.16555
 C274 C 0.28171 1.17922 0.18706
 C275 C 0.27472 1.21736 0.18579
 C276 C 0.28487 1.23612 0.16049
 C277 C 0.30953 1.12372 0.16865
 C278 C 0.33148 1.10523 0.14878
 C279 C 0.34772 1.12374 0.12509
 C280 C 0.34022 1.16233 0.12151
 C281 C 0.35808 1.18125 0.09873
 C282 C 0.38227 1.16324 0.08002
 C283 C 0.38932 1.12558 0.08291
 C284 C 0.37183 1.10508 0.10521
 C285 C 0.37922 1.06667 0.10654
 C286 C 0.40290 1.04966 0.08666
 C287 C 0.42036 1.07019 0.06493
 C288 C 0.41363 1.10825 0.06335
 H289 H 0.31287 1.23499 0.12034
 H290 H 0.27242 1.16317 0.20542
 H291 H 0.27767 1.26481 0.15758
 H292 H 0.29855 1.10847 0.18693
 H293 H 0.33604 1.07646 0.15321
 H294 H 0.35465 1.21041 0.09519
 H295 H 0.39560 1.17904 0.06300
 H296 H 0.36666 1.04869 0.12231
 H297 H 0.40733 1.02017 0.08818
 H298 H 0.42660 1.12437 0.04635
 C299 C 0.77671 0.65868 0.65361
 C300 C 0.81613 0.66158 0.65010
 C301 C 0.83527 0.68891 0.66635
 C302 C 0.81619 0.71020 0.68659
 C303 C 0.77727 0.70675 0.69038
 C304 C 0.75768 0.68105 0.67337
 C305 C 0.87358 0.69478 0.66269
 C306 C 0.89364 0.67421 0.64292
 C307 C 0.87627 0.64602 0.62658
 C308 C 0.83723 0.63855 0.63110
 C309 C 0.82101 0.60761 0.61726
 C310 C 0.84198 0.58510 0.59927
 C311 C 0.87946 0.59328 0.59346
 C312 C 0.89694 0.62440 0.60641
 C313 C 0.93421 0.63301 0.59811
 C314 C 0.95322 0.61127 0.57812
 C315 C 0.93612 0.57995 0.56628
 C316 C 0.89938 0.57086 0.57425
 H317 H 0.75975 0.63976 0.64113
 H318 H 0.83213 0.72986 0.69940
 H319 H 0.72766 0.67773 0.67561
 H320 H 0.88827 0.71571 0.67518
 H321 H 0.92320 0.68019 0.64178
 H322 H 0.79231 0.59934 0.62069
 H323 H 0.82850 0.56132 0.58941
 H324 H 0.94899 0.65711 0.60580
 H325 H 0.98137 0.61907 0.57177
 H326 H 0.88566 0.54713 0.56446
 C327 C 0.73235 0.84783 0.16425
 C328 C 0.69386 0.84459 0.15683
 C329 C 0.67295 0.81634 0.17045
 C330 C 0.68909 0.79471 0.19203
 C331 C 0.72693 0.79817 0.19970
 C332 C 0.74851 0.82494 0.18529
 C333 C 0.63547 0.81033 0.16324
 C334 C 0.61807 0.83154 0.14237
 C335 C 0.63727 0.86056 0.12845
 C336 C 0.67519 0.86840 0.13674
 C337 C 0.69244 0.90048 0.12558
 C338 C 0.67337 0.92389 0.10677
 C339 C 0.63717 0.91527 0.09718
 C340 C 0.61920 0.88273 0.10715
 C341 C 0.58421 0.87301 0.09476
 C342 C 0.56746 0.89518 0.07395
 C343 C 0.58424 0.92825 0.06531
 C344 C 0.61907 0.93843 0.07711
 H345 H 0.75066 0.86761 0.15404
 H346 H 0.67106 0.77656 0.20390
 H347 H 0.77784 0.82880 0.19066
 H348 H 0.61935 0.78881 0.17381
 H349 H 0.58884 0.82556 0.13858
 H350 H 0.72032 0.90894 0.13189
 H351 H 0.68742 0.94861 0.09917
 H352 H 0.56986 0.84754 0.09962
 H353 H 0.54135 0.88607 0.06421
 H354 H 0.63286 0.96337 0.06963
 C355 C 1.18916 0.28360 0.65167
 C356 C 1.17878 0.32122 0.65314
 C357 C 1.19222 0.34203 0.67695
 C358 C 1.21204 0.32504 0.69933
 C359 C 1.21888 0.28692 0.69912
 C360 C 1.20903 0.26695 0.67423
 C361 C 1.18492 0.37961 0.67894
 C362 C 1.16392 0.39724 0.65796
 C363 C 1.14870 0.37772 0.63421
 C364 C 1.15567 0.33893 0.63201
 C365 C 1.13829 0.31898 0.60936
 C366 C 1.11549 0.33635 0.58921
 C367 C 1.10953 0.37430 0.59047
 C368 C 1.12630 0.39565 0.61281
 C369 C 1.12033 0.43426 0.61252
 C370 C 1.09908 0.45074 0.59086
 C371 C 1.08270 0.42949 0.56892
 C372 C 1.08744 0.39118 0.56910
 H373 H 1.18237 0.26627 0.63343
 H374 H 1.22097 0.34187 0.71747
 H375 H 1.21613 0.23817 0.67212
 H376 H 1.19528 0.39563 0.69713
 H377 H 1.15927 0.42617 0.66159
 H378 H 1.14108 0.28955 0.60699
 H379 H 1.10262 0.31988 0.57225
 H380 H 1.13249 0.45284 0.62815
 H381 H 1.09596 0.48047 0.59102
 H382 H 1.07522 0.37464 0.55189
 C383 C 0.72656 1.15121 -0.16435
 C384 C 0.68819 1.15412 -0.15671
 C385 C 0.66619 1.17998 -0.17198
 C386 C 0.68123 1.19971 -0.19505
 C387 C 0.71930 1.19719 -0.20238
 C388 C 0.74182 1.17263 -0.18673
 C389 C 0.62896 1.18602 -0.16450
 C390 C 0.61289 1.16728 -0.14167
 C391 C 0.63316 1.14060 -0.12602
 C392 C 0.67075 1.13248 -0.13459
 C393 C 0.68889 1.10220 -0.12155
 C394 C 0.67091 1.08070 -0.10081
 C395 C 0.63506 1.08974 -0.09114
 C396 C 0.61639 1.12079 -0.10279
 C397 C 0.58190 1.13129 -0.09031
 C398 C 0.56596 1.11078 -0.06808
 C399 C 0.58323 1.07876 -0.05802
 C400 C 0.61786 1.06828 -0.06957
 H401 H 0.74554 1.13312 -0.15308
 H402 H 0.66271 1.21751 -0.20722
 H403 H 0.77111 1.16935 -0.19208
 H404 H 0.61206 1.20578 -0.17629
 H405 H 0.58378 1.17309 -0.13764
 H406 H 0.71654 1.09354 -0.12787
 H407 H 0.68549 1.05711 -0.09190
 H408 H 0.56723 1.15599 -0.09650
 H409 H 0.53987 1.12002 -0.05872
 H410 H 0.63197 1.04414 -0.06109
 C411 C 1.14185 0.68859 0.31472
 C412 C 1.15961 0.66401 0.33378
 C413 C 1.19805 0.65617 0.32926
 C414 C 1.21861 0.67557 0.30807
 C415 C 1.20069 0.70126 0.29006
 C416 C 1.16179 0.70617 0.29313
 C417 C 1.21527 0.62864 0.34564
 C418 C 1.19483 0.60820 0.36575
 C419 C 1.15678 0.61606 0.37143
 C420 C 1.13981 0.64605 0.35645
 C421 C 1.10395 0.65797 0.36509
 C422 C 1.08447 0.64010 0.38680
 C423 C 1.09938 0.60904 0.40013
 C424 C 1.13532 0.59587 0.39221
 C425 C 1.14791 0.56279 0.40519
 C426 C 1.12633 0.54477 0.42610
 C427 C 1.09205 0.55951 0.43499
 C428 C 1.07857 0.59137 0.42170
 H429 H 1.11210 0.69369 0.31516
 H430 H 1.24821 0.67010 0.30526
 H431 H 1.14621 0.72439 0.27906
 H432 H 1.24460 0.62224 0.34241
 H433 H 1.20997 0.58725 0.37743
 H434 H 1.09083 0.68224 0.35627
 H435 H 1.05724 0.65054 0.39303
 H436 H 1.17401 0.54999 0.39931
 H437 H 1.13708 0.51991 0.43605
 H438 H 1.05171 0.60246 0.42824
 C439 C 0.34162 0.77790 -0.15063
 C440 C 0.33033 0.81175 -0.13861
 C441 C 0.29620 0.82717 -0.14856
 C442 C 0.27384 0.80831 -0.16912
 C443 C 0.28633 0.77533 -0.18185
 C444 C 0.32072 0.76091 -0.17226
 C445 C 0.28581 0.86230 -0.13922
 C446 C 0.30968 0.88328 -0.12172
 C447 C 0.34429 0.86919 -0.11181
 C448 C 0.35334 0.83189 -0.11873
 C449 C 0.38520 0.81592 -0.10568
 C450 C 0.40889 0.83637 -0.08798
 C451 C 0.40220 0.87363 -0.08292
 C452 C 0.37006 0.89082 -0.09493
 C453 C 0.36559 0.92911 -0.08997
 C454 C 0.39111 0.94884 -0.07276
 C455 C 0.42176 0.93111 -0.05989
 C456 C 0.42736 0.89361 -0.06547
 H457 H 0.36822 0.76538 -0.14567
 H458 H 0.24827 0.82099 -0.17688
 H459 H 0.33355 0.73766 -0.18275
 H460 H 0.25967 0.87434 -0.14648
 H461 H 0.29995 0.91036 -0.11586
 H462 H 0.39207 0.78717 -0.10811
 H463 H 0.43299 0.82290 -0.07839
 H464 H 0.34288 0.94464 -0.09930
 H465 H 0.38620 0.97789 -0.06890
 H466 H 0.45118 0.87970 -0.05582
 C467 C 0.78535 0.31155 0.36357
 C468 C 0.81681 0.33477 0.35876
 C469 C 0.82948 0.33873 0.33004
 C470 C 0.81411 0.31721 0.30795
 C471 C 0.78468 0.29218 0.31318
 C472 C 0.76904 0.29132 0.34091
 C473 C 0.85789 0.36379 0.32336
 C474 C 0.87440 0.38515 0.34474
 C475 C 0.86416 0.38104 0.37395
 C476 C 0.83605 0.35432 0.38124
 C477 C 0.82959 0.34664 0.41068
 C478 C 0.85017 0.36425 0.43227
 C479 C 0.87651 0.39145 0.42543
 C480 C 0.88258 0.40149 0.39623
 C481 C 0.90685 0.43171 0.39056
 C482 C 0.92590 0.44962 0.41295
 C483 C 0.92187 0.43752 0.44136
 C484 C 0.89696 0.40872 0.44761
 H485 H 0.77233 0.30911 0.38448
 H486 H 0.82547 0.32032 0.28641
 H487 H 0.74499 0.27406 0.34542
 H488 H 0.86752 0.36696 0.30130
 H489 H 0.89666 0.40329 0.33786
 H490 H 0.81008 0.32564 0.41761
 H491 H 0.84524 0.35666 0.45460
 H492 H 0.91098 0.44269 0.36917
 H493 H 0.94441 0.47255 0.40801
 H494 H 0.89302 0.40027 0.46989
 C495 C 1.17481 0.28313 0.13865
 C496 C 1.16169 0.32000 0.14055
 C497 C 1.16913 0.33933 0.16651
 C498 C 1.18685 0.32205 0.18965
 C499 C 1.20127 0.28619 0.18744
 C500 C 1.19450 0.26666 0.16172
 C501 C 1.15884 0.37609 0.16965
 C502 C 1.14159 0.39471 0.14731
 C503 C 1.13266 0.37685 0.12110
 C504 C 1.14131 0.33849 0.11802
 C505 C 1.12786 0.31987 0.09319
 C506 C 1.10576 0.33787 0.07264
 C507 C 1.09795 0.37551 0.07520
 C508 C 1.11324 0.39583 0.09864
 C509 C 1.10794 0.43445 0.09897
 C510 C 1.08492 0.45149 0.07877
 C511 C 1.06670 0.43092 0.05726
 C512 C 1.07424 0.39299 0.05497
 H513 H 1.17098 0.26669 0.11941
 H514 H 1.18973 0.33761 0.20951
 H515 H 1.20416 0.23857 0.15941
 H516 H 1.16444 0.39085 0.18962
 H517 H 1.13386 0.42280 0.15189
 H518 H 1.13248 0.29081 0.08983
 H519 H 1.09463 0.32215 0.05458
 H520 H 1.12120 0.45234 0.11463
 H521 H 1.07999 0.48078 0.08095
 H522 H 1.06096 0.37698 0.03793
 C523 C 0.65791 0.77264 0.64307
 C524 C 0.66133 0.81079 0.63634
 C525 C 0.68807 0.83151 0.65224
 C526 C 0.70861 0.81527 0.67461
 C527 C 0.70413 0.77784 0.68197
 C528 C 0.67894 0.75659 0.66553
 C529 C 0.69365 0.86884 0.64648
 C530 C 0.67189 0.88696 0.62619
 C531 C 0.64317 0.86845 0.61085
 C532 C 0.63858 0.82947 0.61524
 C533 C 0.61086 0.81081 0.59890
 C534 C 0.58741 0.82964 0.57993
 C535 C 0.59029 0.86783 0.57656
 C536 C 0.61843 0.88783 0.59169
 C537 C 0.61973 0.92665 0.58771
 C538 C 0.59355 0.94467 0.57025
 C539 C 0.56533 0.92487 0.55591
 C540 C 0.56443 0.88627 0.55868
 H541 H 0.63859 0.75462 0.63190
 H542 H 0.72760 0.83266 0.68694
 H543 H 0.67444 0.72777 0.67062
 H544 H 0.71474 0.88454 0.65824
 H545 H 0.67820 0.91577 0.62331
 H546 H 0.60627 0.78149 0.60051
 H547 H 0.56615 0.81415 0.56821
 H548 H 0.63993 0.94422 0.59833
 H549 H 0.59503 0.97443 0.56842
 H550 H 0.54268 0.87056 0.54769
 C551 C 1.15989 0.72175 -0.15108
 C552 C 1.15248 0.68317 -0.15124
 C553 C 1.17085 0.66173 -0.17239
 C554 C 1.19422 0.67822 -0.19273
 C555 C 1.20146 0.71636 -0.19254
 C556 C 1.18413 0.73795 -0.17137
 C557 C 1.16603 0.62365 -0.17342
 C558 C 1.14327 0.60585 -0.15378
 C559 C 1.12387 0.62556 -0.13230
 C560 C 1.12774 0.66495 -0.13137
 C561 C 1.10610 0.68465 -0.11114
 C562 C 1.08124 0.66662 -0.09274
 C563 C 1.07765 0.62823 -0.09317
 C564 C 1.09976 0.60710 -0.11236
 C565 C 1.09673 0.56818 -0.11085
 C566 C 1.07116 0.55122 -0.09249
 C567 C 1.04787 0.57220 -0.07475
 C568 C 1.05179 0.61076 -0.07471
 H569 H 1.14782 0.74004 -0.13533
 H570 H 1.20772 0.66052 -0.20836
 H571 H 1.18932 0.76739 -0.17042
 H572 H 1.18005 0.60726 -0.18970
 H573 H 1.14068 0.57649 -0.15671
 H574 H 1.10699 0.71430 -0.10954
 H575 H 1.06460 0.68296 -0.07800
 H576 H 1.11387 0.54981 -0.12333
 H577 H 1.06944 0.52137 -0.09244
 H578 H 1.03438 0.62723 -0.06059
 C579 C 0.71216 1.15121 0.34176
 C580 C 0.67836 1.16369 0.35401
 C581 C 0.66776 1.20066 0.34821
 C582 C 0.68914 1.22306 0.32934
 C583 C 0.72144 1.20935 0.31584
 C584 C 0.73265 1.17325 0.32286
 C585 C 0.63510 1.21461 0.36041
 C586 C 0.61219 1.19257 0.37760
 C587 C 0.62066 1.15511 0.38306
 C588 C 0.65431 1.14042 0.37102
 C589 C 0.66214 1.10263 0.37555
 C590 C 0.63788 1.07985 0.39088
 C591 C 0.60500 1.09362 0.40281
 C592 C 0.59619 1.13159 0.39954
 C593 C 0.56303 1.14429 0.41283
 C594 C 0.53956 1.12030 0.42800
 C595 C 0.54782 1.08263 0.43054
 C596 C 0.58081 1.06950 0.41793
 H597 H 0.72322 1.12408 0.34558
 H598 H 0.67949 1.25056 0.32409
 H599 H 0.75659 1.16074 0.31258
 H600 H 0.62681 1.24286 0.35630
 H601 H 0.58735 1.20565 0.38571
 H602 H 0.68656 1.08932 0.36695
 H603 H 0.64495 1.05096 0.39334
 H604 H 0.55436 1.17267 0.41210
 H605 H 0.51438 1.13144 0.43759
 H606 H 0.58781 1.04057 0.42005
 C607 C 0.80784 0.72061 0.14910
 C608 C 0.83544 0.69339 0.15383
 C609 C 0.84564 0.68550 0.18276
 C610 C 0.82996 0.70521 0.20565
 C611 C 0.80115 0.73082 0.20092
 C612 C 0.79053 0.73837 0.17229
 C613 C 0.87028 0.65683 0.18895
 C614 C 0.88350 0.63436 0.16708
 C615 C 0.87398 0.64095 0.13794
 C616 C 0.85200 0.67256 0.13103
 C617 C 0.84805 0.68259 0.10169
 C618 C 0.86480 0.66203 0.07987
 C619 C 0.88399 0.62956 0.08632
 C620 C 0.88711 0.61768 0.11540
 C621 C 0.90281 0.58265 0.12081
 C622 C 0.91764 0.56173 0.09843
 C623 C 0.91792 0.57529 0.07014
 C624 C 0.90049 0.60895 0.06403
 H625 H 0.79730 0.72693 0.12780
 H626 H 0.83840 0.69825 0.22750
 H627 H 0.76765 0.75659 0.16747
 H628 H 0.87844 0.65089 0.21105
 H629 H 0.90244 0.61274 0.17351
 H630 H 0.83361 0.70728 0.09511
 H631 H 0.86216 0.67131 0.05769
 H632 H 0.90344 0.57048 0.14207
 H633 H 0.93042 0.53548 0.10355
 H634 H 0.89991 0.61907 0.04198
 C635 C 0.31358 1.21925 0.65308
 C636 C 0.32723 1.18263 0.65542
 C637 C 0.32372 1.16508 0.68257
 C638 C 0.30801 1.18359 0.70606
 C639 C 0.29170 1.21861 0.70301
 C640 C 0.29614 1.23680 0.67651
 C641 C 0.33524 1.12873 0.68628
 C642 C 0.34951 1.10873 0.66339
 C643 C 0.35401 1.12473 0.63586
 C644 C 0.34419 1.16273 0.63206
 C645 C 0.35262 1.17963 0.60537
 C646 C 0.37072 1.16035 0.58346
 C647 C 0.37960 1.12308 0.58671
 C648 C 0.36975 1.10433 0.61243
 C649 C 0.37637 1.06585 0.61372
 C650 C 0.39510 1.04763 0.59153
 C651 C 0.40787 1.06699 0.56732
 C652 C 0.39902 1.10455 0.56464
 H653 H 0.31502 1.23468 0.63322
 H654 H 0.30684 1.16930 0.72658
 H655 H 0.28600 1.26462 0.67370
 H656 H 0.33268 1.11529 0.70712
 H657 H 0.35817 1.08100 0.66831
 H658 H 0.34690 1.20829 0.60118
 H659 H 0.37783 1.17481 0.56372
 H660 H 0.36732 1.04898 0.63156
 H661 H 0.40084 1.01846 0.59390
 H662 H 0.40800 1.11960 0.54562
 C663 C 0.82369 0.26904 -0.15879
 C664 C 0.81852 0.30695 -0.15231
 C665 C 0.79487 0.32741 -0.17090
 C666 C 0.77908 0.31113 -0.19550
 C667 C 0.78429 0.27359 -0.20173
 C668 C 0.80670 0.25274 -0.18303
 C669 C 0.78705 0.36424 -0.16509
 C670 C 0.80317 0.38198 -0.14162
 C671 C 0.82861 0.36368 -0.12320
 C672 C 0.83638 0.32549 -0.12853
 C673 C 0.86280 0.30764 -0.11065
 C674 C 0.88247 0.32678 -0.08937
 C675 C 0.87612 0.36422 -0.08462
 C676 C 0.84802 0.38287 -0.10057
 C677 C 0.84158 0.42045 -0.09385
 C678 C 0.86468 0.43940 -0.07444
 C679 C 0.89450 0.42161 -0.06075
 C680 C 0.89890 0.38354 -0.06485
 H681 H 0.84043 0.25110 -0.14551
 H682 H 0.76168 0.32791 -0.20946
 H683 H 0.81143 0.22376 -0.18716
 H684 H 0.76843 0.37976 -0.17907
 H685 H 0.79601 0.41060 -0.13921
 H686 H 0.87007 0.27904 -0.11325
 H687 H 0.90355 0.31225 -0.07693
 H688 H 0.81948 0.43636 -0.10357
 H689 H 0.85990 0.46844 -0.07090
 H690 H 0.92148 0.36924 -0.05388
 C691 C 0.31858 0.76652 0.33867
 C692 C 0.31494 0.80462 0.34542
 C693 C 0.28912 0.82515 0.32875
 C694 C 0.27018 0.80900 0.30540
 C695 C 0.27467 0.77157 0.29821
 C696 C 0.29869 0.75039 0.31550
 C697 C 0.28276 0.86221 0.33480
 C698 C 0.30266 0.88021 0.35637
 C699 C 0.33054 0.86199 0.37261
 C700 C 0.33647 0.82340 0.36740
 C701 C 0.36455 0.80539 0.38360
 C702 C 0.38701 0.82453 0.40333
 C703 C 0.38234 0.86231 0.40796
 C704 C 0.35348 0.88144 0.39318
 C705 C 0.34954 0.91963 0.39905
 C706 C 0.37436 0.93819 0.41744
 C707 C 0.40383 0.91957 0.43099
 C708 C 0.40706 0.88133 0.42673
 H709 H 0.33687 0.74853 0.35065
 H710 H 0.25218 0.82637 0.29239
 H711 H 0.30304 0.72151 0.31064
 H712 H 0.26241 0.87776 0.32238
 H713 H 0.29599 0.90889 0.35917
 H714 H 0.37053 0.77648 0.38101
 H715 H 0.40879 0.80963 0.41474
 H716 H 0.32800 0.93638 0.38949
 H717 H 0.37083 0.96759 0.42059
 H718 H 0.42961 0.86651 0.43728
 C719 C 1.19956 1.14515 0.31269
 C720 C 1.16872 1.15750 0.32896
 C721 C 1.14972 1.18946 0.31943
 C722 C 1.16448 1.21079 0.29686
 C723 C 1.19813 1.20076 0.28353
 C724 C 1.21378 1.16631 0.29022
 C725 C 1.11673 1.20038 0.33300
 C726 C 1.10203 1.17991 0.35573
 C727 C 1.12091 1.14868 0.36663
 C728 C 1.15592 1.13877 0.35404
 C729 C 1.17782 1.11141 0.36752
 C730 C 1.16470 1.09230 0.39131
 C731 C 1.12894 1.09897 0.40201
 C732 C 1.10634 1.12714 0.38987
 C733 C 1.06956 1.13140 0.40074
 C734 C 1.05565 1.10773 0.42198
 C735 C 1.07818 1.07979 0.43348
 C736 C 1.11520 1.07648 0.42411
 H737 H 1.21332 1.11927 0.31690
 H738 H 1.15023 1.23565 0.29034
 H739 H 1.23869 1.15650 0.27947
 H740 H 1.10203 1.22486 0.32587
 H741 H 1.07651 1.19011 0.36514
 H742 H 1.20587 1.10495 0.36060
 H743 H 1.18234 1.07129 0.40090
 H744 H 1.05022 1.15140 0.39219
 H745 H 1.02679 1.11057 0.42881
 H746 H 1.13268 1.05461 0.43264
 C747 C 0.64431 0.65441 -0.20618
 C748 C 0.64622 0.66130 -0.17598
 C749 C 0.66829 0.69148 -0.16655
 C750 C 0.68755 0.71326 -0.18640
 C751 C 0.68668 0.70561 -0.21618
 C752 C 0.66435 0.67617 -0.22584
 C753 C 0.67220 0.69939 -0.13720
 C754 C 0.65594 0.67690 -0.11659
 C755 C 0.63460 0.64567 -0.12459
 C756 C 0.62824 0.63870 -0.15479
 C757 C 0.60443 0.60921 -0.16274
 C758 C 0.58909 0.58602 -0.14212
 C759 C 0.59715 0.59098 -0.11287
 C760 C 0.61966 0.62095 -0.10345
 C761 C 0.62708 0.62411 -0.07332
 C762 C 0.61323 0.59807 -0.05371
 C763 C 0.59169 0.56828 -0.06350
 C764 C 0.58327 0.56541 -0.09303
 H765 H 0.62864 0.63173 -0.21531
 H766 H 0.70504 0.73520 -0.17798
 H767 H 0.66299 0.66926 -0.24859
 H768 H 0.68881 0.72286 -0.13002
 H769 H 0.66058 0.68489 -0.09444
 H770 H 0.59691 0.60333 -0.18483
 H771 H 0.57128 0.56341 -0.14926
 H772 H 0.64426 0.64574 -0.06423
 H773 H 0.62001 0.60085 -0.03096
 H774 H 0.56638 0.54255 -0.10090
 C775 C 0.81355 1.18877 0.64593
 C776 C 0.84646 1.16968 0.65289
 C777 C 0.85724 1.16770 0.68239
 C778 C 0.83357 1.18183 0.70419
 C779 C 0.79979 1.19936 0.69680
 C780 C 0.79115 1.20324 0.66725
 C781 C 0.89179 1.15221 0.68967
 C782 C 0.91570 1.13890 0.66829
 C783 C 0.90515 1.13906 0.63877
 C784 C 0.86924 1.15339 0.63123
 C785 C 0.85638 1.14975 0.60244
 C786 C 0.87796 1.13304 0.58153
 C787 C 0.91338 1.11977 0.58826
 C788 C 0.92825 1.12368 0.61663
 C789 C 0.96528 1.11121 0.62159
 C790 C 0.98483 1.09234 0.60005
 C791 C 0.96803 1.08547 0.57312
 C792 C 0.93313 1.10072 0.56697
 H793 H 0.80506 1.19467 0.62406
 H794 H 0.84190 1.17999 0.72670
 H795 H 0.76751 1.21906 0.65982
 H796 H 0.90064 1.15075 0.71207
 H797 H 0.94178 1.12726 0.67567
 H798 H 0.82872 1.15775 0.59555
 H799 H 0.86643 1.12987 0.55993
 H800 H 0.97948 1.11497 0.64200
 H801 H 1.01211 1.08101 0.60515
 H802 H 0.92036 1.09590 0.54595
 C803 C 0.34635 0.65491 0.19213
 C804 C 0.34655 0.65990 0.16174
 C805 C 0.31961 0.68399 0.14973
 C806 C 0.29480 0.70314 0.16762
 C807 C 0.29492 0.69818 0.19776
 C808 C 0.32099 0.67368 0.20968
 C809 C 0.31733 0.68880 0.11986
 C810 C 0.34055 0.66930 0.10138
 C811 C 0.36782 0.64478 0.11215
 C812 C 0.37193 0.64130 0.14288
 C813 C 0.40150 0.61963 0.15376
 C814 C 0.42483 0.60021 0.13544
 C815 C 0.41938 0.60109 0.10561
 C816 C 0.39109 0.62349 0.09332
 C817 C 0.38668 0.62254 0.06277
 C818 C 0.40851 0.59918 0.04558
 C819 C 0.43552 0.57642 0.05823
 C820 C 0.44153 0.57858 0.08814
 H821 H 0.36489 0.63610 0.20304
 H822 H 0.27521 0.72199 0.15769
 H823 H 0.32205 0.66890 0.23276
 H824 H 0.29688 0.70744 0.11059
 H825 H 0.33678 0.67449 0.07864
 H826 H 0.40772 0.61740 0.17649
 H827 H 0.44690 0.58355 0.14484
 H828 H 0.36567 0.63836 0.05160
 H829 H 0.40330 0.59795 0.02251
 H830 H 0.46267 0.56136 0.09818
 C831 C 1.15448 0.83714 0.70591
 C832 C 1.17001 0.84900 0.67939
 C833 C 1.20938 0.84667 0.67628
 C834 C 1.23121 0.82943 0.69751
 C835 C 1.21432 0.81123 0.72074
 C836 C 1.17634 0.81850 0.72617
 C837 C 1.22668 0.86001 0.65144
 C838 C 1.20553 0.87391 0.62875
 C839 C 1.16598 0.87479 0.62997
 C840 C 1.14795 0.86264 0.65591
 C841 C 1.10844 0.86350 0.65721
 C842 C 1.08722 0.87703 0.63448
 C843 C 1.10433 0.88970 0.60937
 C844 C 1.14382 0.88797 0.60633
 C845 C 1.15937 0.90012 0.57984
 C846 C 1.13700 0.91652 0.55868
 C847 C 1.09846 0.92075 0.56299
 C848 C 1.08208 0.90549 0.58771
 H849 H 1.12535 0.84042 0.71125
 H850 H 1.26107 0.82929 0.69502
 H851 H 1.16253 0.80721 0.74502
 H852 H 1.25690 0.85887 0.64918
 H853 H 1.22121 0.88353 0.61040
 H854 H 1.09283 0.85380 0.67557
 H855 H 1.05698 0.87788 0.63671
 H856 H 1.18881 0.89844 0.57504
 H857 H 1.15028 0.92764 0.53954
 H858 H 1.05215 0.90821 0.59113
 C859 C 0.65275 0.33560 0.20830
 C860 C 0.65668 0.33215 0.17788
 C861 C 0.68245 0.30576 0.16763
 C862 C 0.70361 0.28468 0.18692
 C863 C 0.70034 0.28886 0.21700
 C864 C 0.67429 0.31436 0.22740
 C865 C 0.68777 0.30078 0.13808
 C866 C 0.66880 0.32225 0.11813
 C867 C 0.64356 0.34982 0.12697
 C868 C 0.63676 0.35435 0.15734
 C869 C 0.61076 0.38128 0.16610
 C870 C 0.59311 0.40396 0.14617
 C871 C 0.60055 0.40085 0.11671
 C872 C 0.62538 0.37346 0.10650
 C873 C 0.63151 0.37156 0.07621
 C874 C 0.61468 0.39661 0.05727
 C875 C 0.59121 0.42424 0.06777
 C876 C 0.58370 0.42565 0.09746
 H877 H 0.63380 0.35486 0.21814
 H878 H 0.72348 0.26542 0.17803
 H879 H 0.67088 0.31852 0.25041
 H880 H 0.70730 0.28030 0.13021
 H881 H 0.67491 0.31661 0.09582
 H882 H 0.60355 0.38583 0.18838
 H883 H 0.57379 0.42464 0.15400
 H884 H 0.64962 0.35154 0.06638
 H885 H 0.62071 0.39482 0.03438
 H886 H 0.56516 0.44670 0.10581
 C887 C 0.80775 0.86498 0.32887
 C888 C 0.83618 0.84937 0.34631
 C889 C 0.85021 0.81442 0.33819
 C890 C 0.83357 0.79464 0.31538
 C891 C 0.80253 0.80878 0.30032
 C892 C 0.79168 0.84513 0.30608
 C893 C 0.88034 0.79911 0.35319
 C894 C 0.89753 0.81818 0.37575
 C895 C 0.88429 0.85292 0.38487
 C896 C 0.85182 0.86771 0.37093
 C897 C 0.83544 0.89981 0.38250
 C898 C 0.85160 0.91825 0.40576
 C899 C 0.88526 0.90615 0.41780
 C900 C 0.90229 0.87341 0.40750
 C901 C 0.93759 0.86364 0.41929
 C902 C 0.95572 0.88639 0.43940
 C903 C 0.93878 0.91878 0.44916
 C904 C 0.90293 0.92775 0.43911
 H905 H 0.79786 0.89276 0.33198
 H906 H 0.84435 0.76764 0.30995
 H907 H 0.77050 0.85847 0.29312
 H908 H 0.89098 0.77218 0.34728
 H909 H 0.92052 0.80440 0.38629
 H910 H 0.80946 0.91088 0.37437
 H911 H 0.83820 0.94297 0.41379
 H912 H 0.95301 0.83988 0.41209
 H913 H 0.98377 0.87939 0.44655
 H914 H 0.89015 0.95335 0.44603
 C915 C 0.29224 0.35324 -0.16425
 C916 C 0.32921 0.34498 -0.15545
 C917 C 0.34990 0.32020 -0.17279
 C918 C 0.33259 0.30166 -0.19599
 C919 C 0.29414 0.30573 -0.20135
 C920 C 0.27528 0.33416 -0.18696
 C921 C 0.38744 0.31333 -0.16645
 C922 C 0.40502 0.33059 -0.14320
 C923 C 0.38538 0.35497 -0.12492
 C924 C 0.34647 0.36114 -0.13055
 C925 C 0.32582 0.38250 -0.11074
 C926 C 0.34305 0.39949 -0.08730
 C927 C 0.38152 0.39624 -0.08280
 C928 C 0.40330 0.37366 -0.10132
 C929 C 0.44243 0.37218 -0.09617
 C930 C 0.45915 0.39398 -0.07484
 C931 C 0.43752 0.41698 -0.05746
 C932 C 0.39863 0.41702 -0.06070
 H933 H 0.27569 0.37435 -0.15407
 H934 H 0.34902 0.28345 -0.20937
 H935 H 0.24678 0.34125 -0.19260
 H936 H 0.40342 0.29428 -0.17954
 H937 H 0.43396 0.32348 -0.13975
 H938 H 0.29594 0.38616 -0.11255
 H939 H 0.32617 0.41616 -0.07294
 H940 H 0.46124 0.35617 -0.10923
 H941 H 0.48938 0.39406 -0.07271
 H942 H 0.38204 0.43562 -0.04763
 C943 C 1.19548 0.29797 -0.13638
 C944 C 1.16452 0.32095 -0.14290
 C945 C 1.15414 0.32437 -0.17234
 C946 C 1.17291 0.30476 -0.19380
 C947 C 1.20392 0.28241 -0.18740
 C948 C 1.21506 0.27949 -0.15833
 C949 C 1.12534 0.34791 -0.18060
 C950 C 1.10710 0.36928 -0.16039
 C951 C 1.11631 0.36727 -0.13076
 C952 C 1.14400 0.34134 -0.12159
 C953 C 1.14926 0.33609 -0.09158
 C954 C 1.12777 0.35520 -0.07134
 C955 C 1.10167 0.38164 -0.08012
 C956 C 1.09718 0.38922 -0.10998
 C957 C 1.07357 0.41862 -0.11802
 C958 C 1.05204 0.43680 -0.09765
 C959 C 1.05331 0.42681 -0.06844
 C960 C 1.07937 0.40011 -0.05950
 H961 H 1.20617 0.29506 -0.11467
 H962 H 1.16395 0.30853 -0.21600
 H963 H 1.23985 0.26429 -0.15245
 H964 H 1.11705 0.35026 -0.20310
 H965 H 1.08466 0.38614 -0.16859
 H966 H 1.16872 0.31611 -0.08315
 H967 H 1.13175 0.34932 -0.04857
 H968 H 1.07129 0.42844 -0.13994
 H969 H 1.03341 0.45836 -0.10508
 H970 H 1.08135 0.39284 -0.03683
 C971 C 0.67644 0.78166 0.35695
 C972 C 0.66919 0.82021 0.35744
 C973 C 0.68301 0.84132 0.33411
 C974 C 0.70264 0.82475 0.31169
 C975 C 0.71132 0.78699 0.31173
 C976 C 0.69696 0.76541 0.33433
 C977 C 0.67727 0.87922 0.33287
 C978 C 0.65658 0.89691 0.35375
 C979 C 0.64021 0.87724 0.37674
 C980 C 0.64794 0.83859 0.37947
 C981 C 0.63403 0.81993 0.40398
 C982 C 0.61207 0.83798 0.42443
 C983 C 0.60224 0.87500 0.42091
 C984 C 0.61608 0.89509 0.39690
 C985 C 0.60372 0.93188 0.39323
 C986 C 0.57816 0.94758 0.41212
 C987 C 0.56456 0.92776 0.43570
 C988 C 0.57737 0.89173 0.44053
 H989 H 0.66622 0.76334 0.37350
 H990 H 0.71047 0.84215 0.29379
 H991 H 0.70159 0.73592 0.33457
 H992 H 0.68879 0.89553 0.31535
 H993 H 0.65431 0.92633 0.35127
 H994 H 0.63981 0.79123 0.40798
 H995 H 0.60177 0.82244 0.44278
 H996 H 0.61164 0.94888 0.37518
 H997 H 0.56815 0.97521 0.40781
 H998 H 0.56616 0.87599 0.45847
 C999 C 0.81478 0.73140 -0.15451
 C1000 C 0.80982 0.69356 -0.14721
 C1001 C 0.78570 0.67249 -0.16519
 C1002 C 0.76924 0.68798 -0.18981
 C1003 C 0.77442 0.72533 -0.19719
 C1004 C 0.79726 0.74691 -0.17902
 C1005 C 0.77824 0.63562 -0.15892
 C1006 C 0.79568 0.61823 -0.13594
 C1007 C 0.82209 0.63687 -0.11837
 C1008 C 0.82845 0.67548 -0.12342
 C1009 C 0.85383 0.69424 -0.10498
 C1010 C 0.87360 0.67574 -0.08334
 C1011 C 0.86926 0.63775 -0.07925
 C1012 C 0.84305 0.61784 -0.09646
 C1013 C 0.84033 0.57922 -0.09200
 C1014 C 0.86402 0.56112 -0.07266
 C1015 C 0.89048 0.58057 -0.05634
 C1016 C 0.89229 0.61914 -0.05904
 H1017 H 0.83236 0.74963 -0.14192
 H1018 H 0.75219 0.67023 -0.20343
 H1019 H 0.80236 0.77565 -0.18405
 H1020 H 0.75891 0.61974 -0.17221
 H1021 H 0.78796 0.58979 -0.13280
 H1022 H 0.85949 0.72334 -0.10707
 H1023 H 0.89336 0.69125 -0.07018
 H1024 H 0.82149 0.56167 -0.10402
 H1025 H 0.86262 0.53141 -0.07122
 H1026 H 0.91347 0.63431 -0.04697
 C1027 C 0.34846 1.21284 0.32038
 C1028 C 0.33147 1.19381 0.34354
 C1029 C 0.29207 1.19644 0.34637
 C1030 C 0.27069 1.21486 0.32518
 C1031 C 0.28771 1.22893 0.30009
 C1032 C 0.32702 1.22953 0.29905
 C1033 C 0.27422 1.17962 0.36976
 C1034 C 0.29449 1.15896 0.38982
 C1035 C 0.33357 1.15389 0.38701
 C1036 C 0.35228 1.17180 0.36348
 C1037 C 0.39100 1.16575 0.35971
 C1038 C 0.41075 1.14256 0.37774
 C1039 C 0.39305 1.12467 0.40049
 C1040 C 0.35454 1.13055 0.40620
 C1041 C 0.33898 1.11230 0.43062
 C1042 C 0.36073 1.08840 0.44773
 C1043 C 0.39811 1.08166 0.44057
 C1044 C 0.41403 1.10038 0.41728
 H1045 H 0.37833 1.21498 0.31764
 H1046 H 0.24075 1.21719 0.32800
 H1047 H 0.34183 1.24230 0.28130
 H1048 H 0.24410 1.18171 0.37224
 H1049 H 0.27851 1.14624 0.40685
 H1050 H 0.40700 1.17748 0.34232
 H1051 H 0.44029 1.13819 0.37355
 H1052 H 0.31024 1.11597 0.43705
 H1053 H 0.34814 1.07458 0.46605
 H1054 H 0.44337 1.09606 0.41219
 C1055 C 1.16069 0.72665 0.13751
 C1056 C 1.16479 0.68939 0.12870
 C1057 C 1.19053 0.66747 0.14440
 C1058 C 1.20970 0.68184 0.16844
 C1059 C 1.20485 0.71854 0.17740
 C1060 C 1.18027 0.74077 0.16145
 C1061 C 1.19641 0.63083 0.13664
 C1062 C 1.17576 0.61453 0.11459
 C1063 C 1.14788 0.63423 0.09943
 C1064 C 1.14327 0.67266 0.10581
 C1065 C 1.11653 0.69267 0.08968
 C1066 C 1.09337 0.67539 0.06947
 C1067 C 1.09575 0.63753 0.06447
 C1068 C 1.12361 0.61647 0.07885
 C1069 C 1.12465 0.57805 0.07306
 C1070 C 1.09765 0.56121 0.05550
 C1071 C 1.06933 0.58191 0.04260
 C1072 C 1.06922 0.62024 0.04622
 H1073 H 1.14185 0.74542 0.12689
 H1074 H 1.22789 0.66374 0.18067
 H1075 H 1.17494 0.76890 0.16800
 H1076 H 1.21676 0.61423 0.14818
 H1077 H 1.18208 0.58606 0.11029
 H1078 H 1.11227 0.72183 0.09251
 H1079 H 1.07253 0.69175 0.05824
 H1080 H 1.14489 0.55981 0.08265
 H1081 H 1.09821 0.53159 0.05263
 H1082 H 1.04690 0.63624 0.03646
 C1083 C 0.69663 1.14431 0.66206
 C1084 C 0.66933 1.15974 0.64386
 C1085 C 0.66421 1.19851 0.64482
 C1086 C 0.68295 1.22014 0.66607
 C1087 C 0.70793 1.20355 0.68571
 C1088 C 0.71513 1.16555 0.68244
 C1089 C 0.64023 1.21498 0.62469
 C1090 C 0.62132 1.19373 0.60391
 C1091 C 0.62410 1.15479 0.60349
 C1092 C 0.64731 1.13762 0.62471
 C1093 C 0.64643 1.09878 0.62724
 C1094 C 0.62421 1.07725 0.60931
 C1095 C 0.60276 1.09331 0.58760
 C1096 C 0.60324 1.13217 0.58359
 C1097 C 0.58255 1.14646 0.55995
 C1098 C 0.56072 1.12321 0.54233
 C1099 C 0.55840 1.08532 0.54806
 C1100 C 0.57994 1.07055 0.57040
 H1101 H 0.70495 1.11581 0.66072
 H1102 H 0.67775 1.24951 0.66750
 H1103 H 0.73549 1.15140 0.69573
 H1104 H 0.63621 1.24459 0.62485
 H1105 H 0.60324 1.20843 0.58921
 H1106 H 0.66115 1.08414 0.64403
 H1107 H 0.62372 1.04763 0.61258
 H1108 H 0.58280 1.17541 0.55458
 H1109 H 0.54423 1.13514 0.52501
 H1110 H 0.57840 1.04117 0.57471
 C1111 C 0.82689 0.27400 0.15580
 C1112 C 0.82451 0.31255 0.15086
 C1113 C 0.80445 0.33372 0.17129
 C1114 C 0.78735 0.31684 0.19516
 C1115 C 0.79028 0.27866 0.20012
 C1116 C 0.81035 0.25758 0.18010
 C1117 C 0.80199 0.37189 0.16820
 C1118 C 0.82070 0.39000 0.14610
 C1119 C 0.84218 0.37049 0.12569
 C1120 C 0.84228 0.33101 0.12705
 C1121 C 0.86006 0.31150 0.10456
 C1122 C 0.87854 0.32987 0.08228
 C1123 C 0.88127 0.36833 0.08199
 C1124 C 0.86349 0.38921 0.10392
 C1125 C 0.86925 0.42793 0.10392
 C1126 C 0.89203 0.44489 0.08331
 C1127 C 0.90893 0.42425 0.06148
 C1128 C 0.90285 0.38601 0.06053
 H1129 H 0.84249 0.25597 0.14183
 H1130 H 0.77205 0.33399 0.21018
 H1131 H 0.81409 0.22834 0.18344
 H1132 H 0.78605 0.38814 0.18346
 H1133 H 0.81721 0.41949 0.14527
 H1134 H 0.85964 0.28181 0.10334
 H1135 H 0.89183 0.31368 0.06553
 H1136 H 0.85814 0.44573 0.12041
 H1137 H 0.89699 0.47435 0.08472
 H1138 H 0.91682 0.36979 0.04412
 C1139 C 0.35275 0.82328 0.69383
 C1140 C 0.34245 0.82229 0.66440
 C1141 C 0.31654 0.79486 0.65535
 C1142 C 0.29792 0.77276 0.67603
 C1143 C 0.30492 0.77779 0.70581
 C1144 C 0.33429 0.80162 0.71401
 C1145 C 0.30857 0.79078 0.62588
 C1146 C 0.32587 0.81334 0.60533
 C1147 C 0.35042 0.84224 0.61365
 C1148 C 0.35724 0.84770 0.64384
 C1149 C 0.37723 0.87938 0.65282
 C1150 C 0.39237 0.90367 0.63301
 C1151 C 0.38900 0.89702 0.60349
 C1152 C 0.36809 0.86635 0.59310
 C1153 C 0.36687 0.86080 0.56271
 C1154 C 0.38699 0.88396 0.54384
 C1155 C 0.40820 0.91362 0.55468
 C1156 C 0.40766 0.92059 0.58444
 H1157 H 0.37499 0.84073 0.70199
 H1158 H 0.27651 0.75366 0.66888
 H1159 H 0.34213 0.80516 0.73648
 H1160 H 0.28886 0.76984 0.61861
 H1161 H 0.31839 0.80845 0.58304
 H1162 H 0.38066 0.88686 0.67523
 H1163 H 0.40770 0.92755 0.64097
 H1164 H 0.35208 0.83786 0.55305
 H1165 H 0.38705 0.87783 0.52093
 H1166 H 0.42362 0.94363 0.59318
 C1167 C 0.27476 1.17401 -0.14227
 C1168 C 0.31439 1.17326 -0.13904
 C1169 C 0.33576 1.19456 -0.15858
 C1170 C 0.31845 1.21434 -0.18056
 C1171 C 0.27942 1.21489 -0.18399
 C1172 C 0.25768 1.19435 -0.16453
 C1173 C 0.37470 1.19553 -0.15686
 C1174 C 0.39350 1.17423 -0.13692
 C1175 C 0.37398 1.15076 -0.11790
 C1176 C 0.33378 1.15144 -0.11797
 C1177 C 0.31461 1.13028 -0.09710
 C1178 C 0.33398 1.10888 -0.07710
 C1179 C 0.37306 1.10691 -0.07762
 C1180 C 0.39356 1.12715 -0.09846
 C1181 C 0.43295 1.12250 -0.09928
 C1182 C 0.45128 1.10070 -0.07902
 C1183 C 0.43115 1.08250 -0.05746
 C1184 C 0.39191 1.08498 -0.05725
 H1185 H 0.25627 1.15842 -0.12850
 H1186 H 0.33640 1.22754 -0.19607
 H1187 H 0.22747 1.19335 -0.16685
 H1188 H 0.39098 1.21271 -0.17138
 H1189 H 0.42354 1.17724 -0.13678
 H1190 H 0.28450 1.13012 -0.09538
 H1191 H 0.31814 1.09342 -0.06121
 H1192 H 0.45052 1.13486 -0.11551
 H1193 H 0.48146 1.09824 -0.08020
 H1194 H 0.37601 1.07038 -0.04090
 C1195 C 0.80177 0.71293 0.36520
 C1196 C 0.82555 0.68231 0.36038
 C1197 C 0.83045 0.67061 0.33151
 C1198 C 0.81083 0.68746 0.30895
 C1199 C 0.78723 0.71787 0.31370
 C1200 C 0.78352 0.73068 0.34217
 C1201 C 0.85556 0.64251 0.32495
 C1202 C 0.87701 0.62630 0.34641
 C1203 C 0.87314 0.63666 0.37560
 C1204 C 0.84549 0.66357 0.38292
 C1205 C 0.83804 0.66993 0.41243
 C1206 C 0.85713 0.65080 0.43400
 C1207 C 0.88569 0.62611 0.42709
 C1208 C 0.89514 0.61989 0.39779
 C1209 C 0.92670 0.59756 0.39190
 C1210 C 0.94673 0.58069 0.41418
 C1211 C 0.93554 0.58485 0.44286
 C1212 C 0.90509 0.60769 0.44928
 H1213 H 0.79825 0.72488 0.38636
 H1214 H 0.81567 0.67740 0.28725
 H1215 H 0.76801 0.75547 0.34669
 H1216 H 0.85920 0.63333 0.30283
 H1217 H 0.89545 0.60454 0.33957
 H1218 H 0.81640 0.68851 0.41944
 H1219 H 0.84985 0.65583 0.45638
 H1220 H 0.93723 0.59346 0.37034
 H1221 H 0.97068 0.56372 0.40894
 H1222 H 0.89709 0.61175 0.47164
 C1223 C 0.73079 1.15736 0.16447
 C1224 C 0.69146 1.15838 0.15961
 C1225 C 0.67000 1.18122 0.17789
 C1226 C 0.68709 1.20197 0.19956
 C1227 C 0.72602 1.20135 0.20404
 C1228 C 0.74765 1.17837 0.18649
 C1229 C 0.63129 1.18343 0.17477
 C1230 C 0.61279 1.16274 0.15410
 C1231 C 0.63242 1.13894 0.13550
 C1232 C 0.67250 1.13744 0.13767
 C1233 C 0.69212 1.11556 0.11761
 C1234 C 0.67333 1.09603 0.09607
 C1235 C 0.63431 1.09681 0.09407
 C1236 C 0.61321 1.11744 0.11423
 C1237 C 0.57359 1.11572 0.11219
 C1238 C 0.55596 1.09655 0.08988
 C1239 C 0.57705 1.07808 0.06909
 C1240 C 0.61620 1.07748 0.07171
 H1241 H 0.74921 1.14007 0.15208
 H1242 H 0.66937 1.21881 0.21312
 H1243 H 0.77751 1.17592 0.19010
 H1244 H 0.61496 1.20136 0.18858
 H1245 H 0.58296 1.16681 0.15292
 H1246 H 0.72224 1.11361 0.11754
 H1247 H 0.68958 1.08014 0.08077
 H1248 H 0.55523 1.12868 0.12750
 H1249 H 0.52561 1.09667 0.08869
 H1250 H 0.63271 1.06255 0.05597
 C1251 C 1.16799 0.72054 0.66328
 C1252 C 1.17867 0.68649 0.65123
 C1253 C 1.21327 0.67131 0.66043
 C1254 C 1.23437 0.68837 0.68270
 C1255 C 1.22150 0.72068 0.69623
 C1256 C 1.18852 0.73662 0.68553
 C1257 C 1.22585 0.63855 0.64804
 C1258 C 1.20448 0.62009 0.62723
 C1259 C 1.16895 0.63324 0.61843
 C1260 C 1.15567 0.66677 0.63098
 C1261 C 1.11915 0.67876 0.62386
 C1262 C 1.09645 0.65906 0.60495
 C1263 C 1.10920 0.62692 0.59193
 C1264 C 1.14577 0.61365 0.59806
 C1265 C 1.15744 0.58139 0.58337
 C1266 C 1.13373 0.56338 0.56367
 C1267 C 1.09754 0.57652 0.55819
 C1268 C 1.08539 0.60814 0.57261
 H1269 H 1.14332 0.73528 0.65658
 H1270 H 1.25985 0.67542 0.69038
 H1271 H 1.17658 0.76057 0.69526
 H1272 H 1.25238 0.62679 0.65473
 H1273 H 1.21614 0.59481 0.61911
 H1274 H 1.10653 0.70286 0.63319
 H1275 H 1.06850 0.66924 0.60042
 H1276 H 1.18491 0.56970 0.58619
 H1277 H 1.14379 0.53899 0.55268
 H1278 H 1.05757 0.61875 0.56822
 C1279 C 0.63986 0.80987 -0.18551
 C1280 C 0.65690 0.83175 -0.16402
 C1281 C 0.69649 0.83601 -0.16479
 C1282 C 0.71801 0.81734 -0.18580
 C1283 C 0.70040 0.79492 -0.20662
 C1284 C 0.66100 0.79207 -0.20611
 C1285 C 0.71413 0.85912 -0.14474
 C1286 C 0.69335 0.87851 -0.12435
 C1287 C 0.65389 0.87480 -0.12269
 C1288 C 0.63562 0.85000 -0.14226
 C1289 C 0.59668 0.84373 -0.13922
 C1290 C 0.57590 0.86207 -0.11861
 C1291 C 0.59285 0.88741 -0.10011
 C1292 C 0.63201 0.89443 -0.10185
 C1293 C 0.64744 0.92089 -0.08264
 C1294 C 0.62513 0.93830 -0.06205
 C1295 C 0.58674 0.93024 -0.05999
 C1296 C 0.57069 0.90523 -0.07944
 H1297 H 0.61000 0.80634 -0.18760
 H1298 H 0.74822 0.82054 -0.18607
 H1299 H 0.64561 0.77537 -0.22154
 H1300 H 0.74432 0.86263 -0.14500
 H1301 H 0.70923 0.89576 -0.10975
 H1302 H 0.58120 0.82399 -0.15198
 H1303 H 0.54612 0.85620 -0.11709
 H1304 H 0.67657 0.92884 -0.08293
 H1305 H 0.63817 0.95798 -0.04746
 H1306 H 0.54099 0.89892 -0.07807
 C1307 C 1.21848 0.31878 0.34937
 C1308 C 1.18036 0.32988 0.34944
 C1309 C 1.15867 0.32162 0.32457
 C1310 C 1.17469 0.30409 0.30076
 C1311 C 1.21220 0.29250 0.30101
 C1312 C 1.23402 0.30059 0.32550
 C1313 C 1.12093 0.33109 0.32323
 C1314 C 1.10378 0.34859 0.34616
 C1315 C 1.12388 0.35787 0.37149
 C1316 C 1.16301 0.34908 0.37298
 C1317 C 1.18348 0.36039 0.39766
 C1318 C 1.16648 0.37964 0.42003
 C1319 C 1.12828 0.38770 0.41913
 C1320 C 1.10623 0.37636 0.39512
 C1321 C 1.06728 0.38388 0.39587
 C1322 C 1.05133 0.40260 0.41905
 C1323 C 1.07341 0.41458 0.44230
 C1324 C 1.11194 0.40701 0.44223
 H1325 H 1.23706 0.32363 0.36740
 H1326 H 1.15728 0.29963 0.28184
 H1327 H 1.26339 0.29337 0.32619
 H1328 H 1.10432 0.32484 0.30414
 H1329 H 1.07469 0.35521 0.34295
 H1330 H 1.21305 0.35538 0.40013
 H1331 H 1.18347 0.38814 0.43838
 H1332 H 1.04807 0.37527 0.37915
 H1333 H 1.02145 0.40784 0.41868
 H1334 H 1.12921 0.41582 0.46033
 C1335 C 0.27398 0.83023 0.14507
 C1336 C 0.31357 0.83001 0.14238
 C1337 C 0.33404 0.80744 0.16171
 C1338 C 0.31564 0.78640 0.18260
 C1339 C 0.27649 0.78711 0.18528
 C1340 C 0.25590 0.80923 0.16625
 C1341 C 0.37299 0.80613 0.16050
 C1342 C 0.39256 0.82781 0.14110
 C1343 C 0.37381 0.85164 0.12185
 C1344 C 0.33363 0.85176 0.12170
 C1345 C 0.31500 0.87340 0.10080
 C1346 C 0.33483 0.89446 0.08094
 C1347 C 0.37390 0.89554 0.08149
 C1348 C 0.39399 0.87478 0.10231
 C1349 C 0.43354 0.87839 0.10287
 C1350 C 0.45223 0.89996 0.08257
 C1351 C 0.43234 0.91879 0.06115
 C1352 C 0.39308 0.91710 0.06110
 H1353 H 0.25616 0.84700 0.13166
 H1354 H 0.33232 0.76960 0.19707
 H1355 H 0.22577 0.81109 0.16804
 H1356 H 0.38865 0.78838 0.17497
 H1357 H 0.42255 0.82466 0.14143
 H1358 H 0.28493 0.87414 0.09881
 H1359 H 0.31933 0.91028 0.06505
 H1360 H 0.45097 0.86532 0.11887
 H1361 H 0.48247 0.90179 0.08366
 H1362 H 0.37735 0.93215 0.04487
 C1363 C 0.76943 0.33031 0.64705
 C1364 C 0.80900 0.33092 0.64323
 C1365 C 0.83041 0.30690 0.66070
 C1366 C 0.81330 0.28442 0.68117
 C1367 C 0.77432 0.28445 0.68555
 C1368 C 0.75248 0.30748 0.66799
 C1369 C 0.86923 0.30552 0.65827
 C1370 C 0.88798 0.32883 0.63971
 C1371 C 0.86856 0.35468 0.62265
 C1372 C 0.82836 0.35469 0.62332
 C1373 C 0.80925 0.37821 0.60399
 C1374 C 0.82871 0.40085 0.58474
 C1375 C 0.86791 0.40199 0.58469
 C1376 C 0.88828 0.37975 0.60434
 C1377 C 0.92777 0.38373 0.60511
 C1378 C 0.94634 0.40650 0.58566
 C1379 C 0.92645 0.42655 0.56491
 C1380 C 0.88705 0.42493 0.56496
 H1381 H 0.75100 0.34783 0.63475
 H1382 H 0.83129 0.26721 0.69429
 H1383 H 0.72241 0.30860 0.67090
 H1384 H 0.88551 0.28638 0.67118
 H1385 H 0.91790 0.32526 0.63882
 H1386 H 0.77909 0.37911 0.60282
 H1387 H 0.81286 0.41789 0.56988
 H1388 H 0.94528 0.36997 0.62071
 H1389 H 0.97668 0.40792 0.58664
 H1390 H 0.87132 0.44092 0.54932
 C1391 C 1.14390 1.19117 0.68669
 C1392 C 1.16179 1.16403 0.66968
 C1393 C 1.19787 1.15230 0.67858
 C1394 C 1.21517 1.16779 0.70302
 C1395 C 1.19922 1.19786 0.71727
 C1396 C 1.16244 1.20787 0.70990
 C1397 C 1.21732 1.12628 0.66241
 C1398 C 1.20233 1.11239 0.63691
 C1399 C 1.16664 1.12333 0.62687
 C1400 C 1.14548 1.14861 0.64405
 C1401 C 1.10863 1.15730 0.63518
 C1402 C 1.09260 1.14123 0.61085
 C1403 C 1.11290 1.11674 0.59389
 C1404 C 1.15069 1.10853 0.60090
 C1405 C 1.17046 1.08486 0.58196
 C1406 C 1.15203 1.06682 0.55927
 C1407 C 1.11390 1.07259 0.55440
 C1408 C 1.09489 1.09877 0.57083
 H1409 H 1.11643 1.20167 0.68181
 H1410 H 1.24205 1.15754 0.70988
 H1411 H 1.14853 1.23034 0.72084
 H1412 H 1.24491 1.11719 0.66918
 H1413 H 1.21921 1.09235 0.62583
 H1414 H 1.09074 1.17556 0.64713
 H1415 H 1.06375 1.14768 0.60548
 H1416 H 1.19980 1.07877 0.58463
 H1417 H 1.16697 1.04633 0.54680
 H1418 H 1.06523 1.10311 0.56701
 C1419 C 0.71986 0.65377 0.17718
 C1420 C 0.68310 0.65959 0.16681
 C1421 C 0.66033 0.68454 0.18241
 C1422 C 0.67521 0.70481 0.20590
 C1423 C 0.71344 0.70280 0.21297
 C1424 C 0.73440 0.67471 0.19986
 C1425 C 0.62304 0.68952 0.17421
 C1426 C 0.60791 0.67066 0.15064
 C1427 C 0.62967 0.64611 0.13397
 C1428 C 0.66805 0.64085 0.14203
 C1429 C 0.69033 0.61744 0.12483
 C1430 C 0.67529 0.59813 0.10157
 C1431 C 0.63759 0.60158 0.09416
 C1432 C 0.61433 0.62618 0.10978
 C1433 C 0.57645 0.62906 0.10081
 C1434 C 0.56199 0.60672 0.07877
 C1435 C 0.58466 0.58100 0.06458
 C1436 C 0.62281 0.57958 0.07170
 H1437 H 0.73825 0.63322 0.16835
 H1438 H 0.65696 0.72236 0.21839
 H1439 H 0.76268 0.66881 0.20677
 H1440 H 0.60535 0.70843 0.18605
 H1441 H 0.57889 0.67620 0.14596
 H1442 H 0.71983 0.61350 0.12864
 H1443 H 0.69338 0.57992 0.08942
 H1444 H 0.55685 0.64746 0.11089
 H1445 H 0.53240 0.60862 0.07361
 H1446 H 0.64065 0.55980 0.06089
 C1447 C 1.14299 0.84075 0.28962
 C1448 C 1.14527 0.83429 0.31987
 C1449 C 1.16839 0.80517 0.32934
 C1450 C 1.18816 0.78397 0.30952
 C1451 C 1.18655 0.79086 0.27964
 C1452 C 1.16340 0.81940 0.26994
 C1453 C 1.17251 0.79748 0.35868
 C1454 C 1.15517 0.81905 0.37928
 C1455 C 1.13261 0.84919 0.37130
 C1456 C 1.12639 0.85609 0.34109
 C1457 C 1.10171 0.88462 0.33318
 C1458 C 1.08495 0.90668 0.35387
 C1459 C 1.09246 0.90161 0.38320
 C1460 C 1.11622 0.87279 0.39252
 C1461 C 1.12331 0.86961 0.42268
 C1462 C 1.10798 0.89452 0.44243
 C1463 C 1.08504 0.92312 0.43282
 C1464 C 1.07685 0.92595 0.40323
 H1465 H 1.12647 0.86263 0.28045
 H1466 H 1.20608 0.76258 0.31797
 H1467 H 1.16147 0.82575 0.24712
 H1468 H 1.18991 0.77480 0.36587
 H1469 H 1.15993 0.81113 0.40140
 H1470 H 1.09456 0.89057 0.31104
 H1471 H 1.06642 0.92851 0.34675
 H1472 H 1.14141 0.84892 0.43173
 H1473 H 1.11473 0.89184 0.46518
 H1474 H 1.05899 0.94798 0.39550
 C1475 C 0.64229 0.32673 -0.20360
 C1476 C 0.65002 0.32439 -0.17352
 C1477 C 0.68011 0.30184 -0.16473
 C1478 C 0.69997 0.28132 -0.18497
 C1479 C 0.69305 0.28435 -0.21483
 C1480 C 0.66376 0.30729 -0.22386
 C1481 C 0.69078 0.30000 -0.13573
 C1482 C 0.67298 0.32125 -0.11509
 C1483 C 0.64265 0.34412 -0.12254
 C1484 C 0.62960 0.34405 -0.15192
 C1485 C 0.59619 0.36291 -0.15851
 C1486 C 0.57684 0.38213 -0.13738
 C1487 C 0.59086 0.38470 -0.10922
 C1488 C 0.62442 0.36651 -0.10146
 C1489 C 0.63892 0.37254 -0.07319
 C1490 C 0.62059 0.39566 -0.05360
 C1491 C 0.58684 0.41244 -0.06126
 C1492 C 0.57193 0.40634 -0.08898
 H1493 H 0.62071 0.34435 -0.21220
 H1494 H 0.72150 0.26314 -0.17696
 H1495 H 0.65744 0.31045 -0.24662
 H1496 H 0.71379 0.28253 -0.12897
 H1497 H 0.68283 0.31823 -0.09317
 H1498 H 0.58367 0.36234 -0.17976
 H1499 H 0.55104 0.39592 -0.14334
 H1500 H 0.66522 0.36115 -0.06603
 H1501 H 0.63297 0.40068 -0.03252
 H1502 H 0.54639 0.42017 -0.09546
 C1503 C 0.86778 1.16318 0.30789
 C1504 C 0.86448 1.16637 0.33837
 C1505 C 0.83639 1.18999 0.34909
 C1506 C 0.81254 1.20870 0.33014
 C1507 C 0.81520 1.20470 0.30006
 C1508 C 0.84353 1.18202 0.28919
 C1509 C 0.83133 1.19428 0.37876
 C1510 C 0.85264 1.17440 0.39836
 C1511 C 0.88013 1.14932 0.38901
 C1512 C 0.88701 1.14613 0.35854
 C1513 C 0.91567 1.12230 0.34927
 C1514 C 0.93531 1.10062 0.36873
 C1515 C 0.92731 1.10175 0.39818
 C1516 C 0.90033 1.12662 0.40902
 C1517 C 0.89400 1.12668 0.43935
 C1518 C 0.91233 1.10173 0.45764
 C1519 C 0.93739 1.07609 0.44630
 C1520 C 0.94555 1.07714 0.41672
 H1521 H 0.88824 1.14580 0.29772
 H1522 H 0.79039 1.22482 0.33929
 H1523 H 0.84672 1.17820 0.26612
 H1524 H 0.81008 1.21277 0.38698
 H1525 H 0.84652 1.17914 0.42080
 H1526 H 0.92345 1.11940 0.32694
 H1527 H 0.95650 1.08207 0.36050
 H1528 H 0.87439 1.14491 0.44961
 H1529 H 0.90585 1.10161 0.48049
 H1530 H 0.96558 1.05791 0.40781
 C1531 C 0.29599 0.66269 -0.15241
 C1532 C 0.32921 0.64405 -0.15897
 C1533 C 0.34412 0.64801 -0.18714
 C1534 C 0.32408 0.66769 -0.20860
 C1535 C 0.29088 0.68653 -0.20157
 C1536 C 0.27837 0.68434 -0.17282
 C1537 C 0.37980 0.63414 -0.19296
 C1538 C 0.40151 0.61850 -0.17097
 C1539 C 0.38732 0.61412 -0.14267
 C1540 C 0.34948 0.62445 -0.13744
 C1541 C 0.33287 0.61491 -0.11083
 C1542 C 0.35343 0.59835 -0.08905
 C1543 C 0.39138 0.59118 -0.09274
 C1544 C 0.40915 0.59927 -0.11943
 C1545 C 0.44812 0.59271 -0.12142
 C1546 C 0.46787 0.57691 -0.09839
 C1547 C 0.44942 0.56702 -0.07279
 C1548 C 0.41137 0.57503 -0.06996
 H1549 H 0.28498 0.66420 -0.13077
 H1550 H 0.33587 0.67070 -0.23002
 H1551 H 0.25695 0.70201 -0.16449
 H1552 H 0.39172 0.63688 -0.21435
 H1553 H 0.42910 0.60920 -0.17689
 H1554 H 0.30345 0.61885 -0.10659
 H1555 H 0.33949 0.59139 -0.06899
 H1556 H 0.46403 0.59961 -0.14044
 H1557 H 0.49738 0.57108 -0.10113
 H1558 H 0.39693 0.56772 -0.05017
 C1559 C 0.81032 0.80600 0.64801
 C1560 C 0.83625 0.83366 0.65558
 C1561 C 0.84207 0.84091 0.68544
 C1562 C 0.82031 0.82264 0.70663
 C1563 C 0.79333 0.79622 0.69848
 C1564 C 0.78959 0.78797 0.66885
 C1565 C 0.86964 0.86623 0.69381
 C1566 C 0.89173 0.88405 0.67327
 C1567 C 0.88621 0.87817 0.64329
 C1568 C 0.85693 0.85370 0.63437
 C1569 C 0.84844 0.85080 0.60456
 C1570 C 0.86857 0.87026 0.58402
 C1571 C 0.89832 0.89300 0.59215
 C1572 C 0.90812 0.89675 0.62184
 C1573 C 0.93954 0.91897 0.62875
 C1574 C 0.95871 0.93824 0.60733
 C1575 C 0.94751 0.93608 0.57825
 C1576 C 0.91781 0.91267 0.57071
 H1577 H 0.80589 0.79679 0.62611
 H1578 H 0.82452 0.82891 0.72932
 H1579 H 0.77028 0.76720 0.66106
 H1580 H 0.87449 0.87209 0.71650
 H1581 H 0.91221 0.90329 0.68160
 H1582 H 0.82530 0.83468 0.59631
 H1583 H 0.86065 0.86752 0.56146
 H1584 H 0.95014 0.92196 0.65047
 H1585 H 0.98217 0.95555 0.61374
 H1586 H 0.90920 0.91051 0.54826
 C1587 C 0.29686 0.36295 0.17277
 C1588 C 0.33091 0.35031 0.16093
 C1589 C 0.34728 0.31841 0.17314
 C1590 C 0.32803 0.29804 0.19414
 C1591 C 0.29224 0.30878 0.20335
 C1592 C 0.27815 0.34261 0.19379
 C1593 C 0.38234 0.30653 0.16385
 C1594 C 0.40187 0.32602 0.14287
 C1595 C 0.38629 0.35748 0.12956
 C1596 C 0.34944 0.36861 0.13775
 C1597 C 0.33169 0.39679 0.12187
 C1598 C 0.35007 0.41498 0.09974
 C1599 C 0.38710 0.40656 0.09312
 C1600 C 0.40602 0.37796 0.10803
 C1601 C 0.44428 0.37202 0.10143
 C1602 C 0.46287 0.39419 0.08133
 C1603 C 0.44376 0.42224 0.06677
 C1604 C 0.40565 0.42757 0.07223
 H1605 H 0.28429 0.38875 0.16656
 H1606 H 0.34035 0.27278 0.20221
 H1607 H 0.25237 0.35351 0.20227
 H1608 H 0.39493 0.28200 0.17301
 H1609 H 0.42866 0.31494 0.13677
 H1610 H 0.30301 0.40471 0.12552
 H1611 H 0.33537 0.43651 0.08812
 H1612 H 0.46108 0.35171 0.11238
 H1613 H 0.49252 0.38993 0.07765
 H1614 H 0.39081 0.44968 0.06140
   
