data_POSCAR
  _audit_creation_date              2014-09-24
  _audit_creation_method            'ToBaCCo'
  _symmetry_space_group_name_H-M    'P1'
  _symmetry_Int_Tables_number       1
  _symmetry_cell_setting            triclinic
  loop_
  _symmetry_equiv_pos_as_xyz
 x,y,z
_cell_length_a 55.0435
_cell_length_b 55.2965
_cell_length_c 55.6202
_cell_angle_alpha 90.130800
_cell_angle_beta 89.992300
_cell_angle_gamma 90.008000
loop_
  _atom_site_label
  _atom_site_type_symbol
  _atom_site_fract_x
  _atom_site_fract_y
  _atom_site_fract_z
N1 N 0.16916 0.22419 0.23111
 N2 N 0.17564 0.20448 0.24261
 C3 C 0.16037 0.20093 0.26120
 C4 C 0.14342 0.21947 0.26142
 C5 C 0.14960 0.23385 0.24197
 H6 H 0.16184 0.18630 0.27396
 H7 H 0.14060 0.25018 0.23612
 Cu8 Cu 0.20428 0.18653 0.23265
 Cu9 Cu 0.18685 0.23630 0.20318
 Cu10 Cu 0.23873 0.20468 0.18652
 N11 N 0.23328 0.16873 0.22344
 N12 N 0.24723 0.17661 0.20593
 C13 C 0.26657 0.16189 0.20372
 C14 C 0.26448 0.14366 0.22055
 C15 C 0.24312 0.14852 0.23275
 H16 H 0.28083 0.16397 0.19050
 H17 H 0.23559 0.13826 0.24749
 N18 N 0.22698 0.23346 0.16917
 N19 N 0.20726 0.24548 0.17546
 C20 C 0.20404 0.26400 0.16009
 C21 C 0.22260 0.26365 0.14323
 C22 C 0.23678 0.24400 0.14964
 H23 H 0.18930 0.27685 0.16119
 H24 H 0.25296 0.23765 0.14065
 H25 H 0.20164 0.20371 0.19250
 H26 H 0.22014 0.22269 0.21336
 N27 N 0.67060 0.72838 0.73194
 N28 N 0.67736 0.70929 0.74427
 C29 C 0.66201 0.70616 0.76286
 C30 C 0.64454 0.72409 0.76195
 C31 C 0.65051 0.73785 0.74205
 H32 H 0.66319 0.69176 0.77592
 H33 H 0.64118 0.75379 0.73565
 Cu34 Cu 0.70553 0.69050 0.73463
 Cu35 Cu 0.68870 0.73979 0.70403
 Cu36 Cu 0.73869 0.70573 0.68635
 N37 N 0.73376 0.67176 0.72514
 N38 N 0.74667 0.67771 0.70618
 C39 C 0.76542 0.66220 0.70402
 C40 C 0.76421 0.64562 0.72267
 C41 C 0.74382 0.65231 0.73567
 H42 H 0.77890 0.66299 0.68991
 H43 H 0.73702 0.64390 0.75183
 N44 N 0.72766 0.73486 0.66892
 N45 N 0.70923 0.74830 0.67622
 C46 C 0.70677 0.76726 0.66125
 C47 C 0.72428 0.76556 0.64353
 C48 C 0.73717 0.74478 0.64890
 H49 H 0.69291 0.78102 0.66275
 H50 H 0.75253 0.73763 0.63907
 H51 H 0.70206 0.70635 0.69390
 H52 H 0.72214 0.72521 0.71337
 N53 N 0.33032 0.77343 0.73157
 N54 N 0.32386 0.79294 0.74345
 C55 C 0.33932 0.79634 0.76192
 C56 C 0.35644 0.77796 0.76159
 C57 C 0.35011 0.76378 0.74199
 H58 H 0.33803 0.81096 0.77478
 H59 H 0.35925 0.74771 0.73562
 Cu60 Cu 0.29580 0.81192 0.73373
 Cu61 Cu 0.31247 0.76179 0.70370
 Cu62 Cu 0.26133 0.79406 0.68684
 N63 N 0.26679 0.82954 0.72427
 N64 N 0.25319 0.82228 0.70626
 C65 C 0.23404 0.83725 0.70410
 C66 C 0.23569 0.85506 0.72172
 C67 C 0.25687 0.84950 0.73410
 H68 H 0.22021 0.83537 0.69045
 H69 H 0.26435 0.85891 0.74943
 N70 N 0.27267 0.76495 0.66956
 N71 N 0.29215 0.75270 0.67603
 C72 C 0.29525 0.73400 0.66080
 C73 C 0.27688 0.73441 0.64379
 C74 C 0.26287 0.75434 0.65001
 H75 H 0.30997 0.72115 0.66194
 H76 H 0.24676 0.76073 0.64096
 H77 H 0.29805 0.79490 0.69331
 H78 H 0.27911 0.77617 0.71401
 N79 N 0.83027 0.27269 0.23335
 N80 N 0.82386 0.29215 0.24534
 C81 C 0.83923 0.29543 0.26388
 C82 C 0.85638 0.27700 0.26360
 C83 C 0.84995 0.26288 0.24385
 H84 H 0.83791 0.31015 0.27660
 H85 H 0.85893 0.24680 0.23729
 Cu86 Cu 0.79584 0.31098 0.23554
 Cu87 Cu 0.81296 0.26189 0.20459
 Cu88 Cu 0.76332 0.29634 0.18669
 N89 N 0.76760 0.32970 0.22621
 N90 N 0.75486 0.32388 0.20708
 C91 C 0.73601 0.33926 0.20503
 C92 C 0.73696 0.35561 0.22395
 C93 C 0.75731 0.34894 0.23699
 H94 H 0.72267 0.33856 0.19079
 H95 H 0.76392 0.35722 0.25333
 N96 N 0.77486 0.26772 0.16869
 N97 N 0.79319 0.25414 0.17595
 C98 C 0.79598 0.23559 0.16044
 C99 C 0.77879 0.23773 0.14244
 C100 C 0.76576 0.25832 0.14822
 H101 H 0.80976 0.22174 0.16183
 H102 H 0.75049 0.26562 0.13841
 H103 H 0.79991 0.29552 0.19466
 H104 H 0.77952 0.27649 0.21358
 N105 N 0.83120 0.72757 0.26823
 N106 N 0.82512 0.70796 0.25631
 C107 C 0.84089 0.70473 0.23803
 C108 C 0.85787 0.72326 0.23866
 C109 C 0.85104 0.73742 0.25809
 H110 H 0.84037 0.68974 0.22554
 H111 H 0.85987 0.75366 0.26449
 Cu112 Cu 0.79759 0.68823 0.26629
 Cu113 Cu 0.81371 0.73841 0.29666
 Cu114 Cu 0.76479 0.70377 0.31510
 N115 N 0.76907 0.66989 0.27613
 N116 N 0.75645 0.67603 0.29522
 C117 C 0.73750 0.66085 0.29761
 C118 C 0.73821 0.64423 0.27897
 C119 C 0.75857 0.65051 0.26571
 H120 H 0.72420 0.66190 0.31187
 H121 H 0.76497 0.64193 0.24943
 N122 N 0.77597 0.73262 0.33269
 N123 N 0.79396 0.74641 0.32510
 C124 C 0.79666 0.76513 0.34042
 C125 C 0.77974 0.76284 0.35863
 C126 C 0.76696 0.74203 0.35320
 H127 H 0.81027 0.77913 0.33880
 H128 H 0.75196 0.73454 0.36329
 H129 H 0.80129 0.70460 0.30686
 H130 H 0.78059 0.72294 0.28745
 N131 N 0.33116 0.22667 -0.23121
 N132 N 0.32387 0.20842 -0.24453
 C133 C 0.33939 0.20553 -0.26302
 C134 C 0.35775 0.22267 -0.26100
 C135 C 0.35179 0.23575 -0.24048
 H136 H 0.33772 0.19158 -0.27655
 H137 H 0.36136 0.25108 -0.23302
 Cu138 Cu 0.29528 0.18986 -0.23565
 Cu139 Cu 0.31300 0.23779 -0.20322
 Cu140 Cu 0.26177 0.20485 -0.18742
 N141 N 0.26668 0.17132 -0.22681
 N142 N 0.25358 0.17732 -0.20797
 C143 C 0.23478 0.16189 -0.20604
 C144 C 0.23615 0.14522 -0.22466
 C145 C 0.25670 0.15182 -0.23746
 H146 H 0.22124 0.16267 -0.19198
 H147 H 0.26374 0.14321 -0.25345
 N148 N 0.27317 0.23337 -0.16909
 N149 N 0.29228 0.24626 -0.17554
 C150 C 0.29473 0.26509 -0.16032
 C151 C 0.27650 0.26386 -0.14328
 C152 C 0.26321 0.24349 -0.14933
 H153 H 0.30890 0.27859 -0.16130
 H154 H 0.24718 0.23687 -0.14025
 H155 H 0.29838 0.20445 -0.19441
 H156 H 0.27931 0.22449 -0.21364
 N157 N 0.66777 0.27395 -0.22912
 N158 N 0.67583 0.29127 -0.24312
 C159 C 0.66052 0.29385 -0.26181
 C160 C 0.64160 0.27739 -0.25934
 C161 C 0.64694 0.26510 -0.23823
 H162 H 0.66294 0.30697 -0.27597
 H163 H 0.63692 0.25031 -0.23034
 Cu164 Cu 0.70531 0.30919 -0.23550
 Cu165 Cu 0.68578 0.26297 -0.20113
 Cu166 Cu 0.73834 0.29412 -0.18673
 N167 N 0.73361 0.32783 -0.22559
 N168 N 0.74652 0.32176 -0.20667
 C169 C 0.76514 0.33733 -0.20421
 C170 C 0.76388 0.35418 -0.22257
 C171 C 0.74357 0.34755 -0.23576
 H172 H 0.77849 0.33649 -0.18999
 H173 H 0.73677 0.35621 -0.25180
 N174 N 0.72699 0.26575 -0.16856
 N175 N 0.70652 0.25439 -0.17357
 C176 C 0.70329 0.23644 -0.15755
 C177 C 0.72274 0.23635 -0.14181
 C178 C 0.73743 0.25517 -0.14935
 H179 H 0.68810 0.22405 -0.15752
 H180 H 0.75425 0.26097 -0.14113
 H181 H 0.70146 0.29618 -0.19384
 H182 H 0.71955 0.27450 -0.21252
 N183 N 0.16784 0.77492 0.26982
 N184 N 0.17445 0.79425 0.25779
 C185 C 0.15874 0.79773 0.23951
 C186 C 0.14130 0.77959 0.24019
 C187 C 0.14777 0.76548 0.25971
 H188 H 0.15987 0.81236 0.22671
 H189 H 0.13882 0.74926 0.26592
 Cu190 Cu 0.20349 0.81215 0.26721
 Cu191 Cu 0.18585 0.76301 0.29753
 Cu192 Cu 0.23830 0.79405 0.31334
 N193 N 0.23260 0.83000 0.27641
 N194 N 0.24657 0.82223 0.29392
 C195 C 0.26572 0.83718 0.29629
 C196 C 0.26366 0.85562 0.27949
 C197 C 0.24229 0.85033 0.26719
 H198 H 0.27973 0.83496 0.30970
 H199 H 0.23445 0.86030 0.25242
 N200 N 0.22659 0.76522 0.33079
 N201 N 0.20642 0.75369 0.32499
 C202 C 0.20303 0.73531 0.34046
 C203 C 0.22201 0.73510 0.35678
 C204 C 0.23659 0.75438 0.35008
 H205 H 0.18796 0.72281 0.33975
 H206 H 0.25307 0.76031 0.35884
 H207 H 0.20148 0.79565 0.30772
 H208 H 0.21944 0.77617 0.28687
 N209 N 0.47833 0.41854 0.48334
 N210 N 0.45822 0.42417 0.49483
 C211 C 0.45465 0.40811 0.51267
 C212 C 0.47366 0.39171 0.51245
 C213 C 0.48837 0.39892 0.49363
 H214 H 0.43963 0.40850 0.52520
 H215 H 0.50491 0.39027 0.48760
 Cu216 Cu 0.43960 0.45265 0.48562
 Cu217 Cu 0.48957 0.43646 0.45532
 Cu218 Cu 0.45596 0.48676 0.43849
 N219 N 0.42104 0.48123 0.47665
 N220 N 0.42763 0.49453 0.45821
 C221 C 0.41234 0.51341 0.45619
 C222 C 0.39521 0.51201 0.47442
 C223 C 0.40135 0.49126 0.48702
 H224 H 0.41362 0.52709 0.44240
 H225 H 0.39239 0.48419 0.50279
 N226 N 0.48523 0.47583 0.42095
 N227 N 0.49802 0.45675 0.42744
 C228 C 0.51667 0.45390 0.41202
 C229 C 0.51568 0.47202 0.39489
 C230 C 0.49548 0.48563 0.40124
 H231 H 0.52989 0.43953 0.41312
 H232 H 0.48871 0.50153 0.39221
 H233 H 0.47489 0.46952 0.46535
 H234 H 0.45606 0.45013 0.44511
 N235 N -0.02423 -0.08244 0.98076
 N236 N -0.04339 -0.07573 0.99320
 C237 C -0.04679 -0.09147 1.01136
 C238 C -0.02884 -0.10907 1.01019
 C239 C -0.01489 -0.10265 0.99047
 H240 H -0.06131 -0.09028 1.02440
 H241 H 0.00110 -0.11181 0.98379
 Cu242 Cu -0.06152 -0.04682 0.98431
 Cu243 Cu -0.01269 -0.06445 0.95294
 Cu244 Cu -0.04461 -0.01270 0.93729
 N245 N -0.07964 -0.01791 0.97541
 N246 N -0.07263 -0.00443 0.95723
 C247 C -0.08782 0.01453 0.95513
 C248 C -0.10540 0.01287 0.97287
 C249 C -0.09960 -0.00798 0.98541
 H250 H -0.08640 0.02828 0.94142
 H251 H -0.10909 -0.01522 1.00082
 N252 N -0.01575 -0.02423 0.91943
 N253 N -0.00375 -0.04400 0.92537
 C254 C 0.01472 -0.04723 0.90982
 C255 C 0.01448 -0.02858 0.89329
 C256 C -0.00511 -0.01433 0.89997
 H257 H 0.02760 -0.06195 0.91063
 H258 H -0.01134 0.00191 0.89112
 H259 H -0.02594 -0.03095 0.96354
 H260 H -0.04578 -0.04932 0.94342
 N261 N 1.02288 0.58262 0.98103
 N262 N 1.04215 0.57603 0.99332
 C263 C 1.04542 0.59163 1.01170
 C264 C 1.02728 0.60903 1.01080
 C265 C 1.01333 0.60263 0.99106
 H266 H 1.06007 0.59058 1.02460
 H267 H 0.99727 0.61172 0.98450
 Cu268 Cu 1.06091 0.54772 0.98378
 Cu269 Cu 1.01159 0.56488 0.95285
 Cu270 Cu 1.04494 0.51440 0.93579
 N271 N 1.07967 0.51945 0.97418
 N272 N 1.07328 0.50651 0.95538
 C273 C 1.08890 0.48796 0.95279
 C274 C 1.10608 0.48919 0.97100
 C275 C 1.09956 0.50949 0.98423
 H276 H 1.08771 0.47457 0.93866
 H277 H 1.10849 0.51641 1.00012
 N278 N 1.01571 0.52545 0.91837
 N279 N 1.00306 0.54465 0.92488
 C280 C 0.98447 0.54763 0.90945
 C281 C 0.98533 0.52943 0.89230
 C282 C 1.00545 0.51572 0.89860
 H283 H 0.97139 0.56214 0.91055
 H284 H 1.01223 0.49985 0.88945
 H285 H 1.02565 0.53158 0.96260
 H286 H 1.04498 0.55092 0.94296
 N287 N 0.52071 0.08006 0.48274
 N288 N 0.54073 0.07431 0.49429
 C289 C 0.54429 0.09027 0.51228
 C290 C 0.52535 0.10671 0.51216
 C291 C 0.51068 0.09964 0.49321
 H292 H 0.55935 0.08986 0.52475
 H293 H 0.49423 0.10843 0.48717
 Cu294 Cu 0.55987 0.04620 0.48497
 Cu295 Cu 0.50967 0.06232 0.45442
 Cu296 Cu 0.54428 0.01295 0.43684
 N297 N 0.57874 0.01801 0.47531
 N298 N 0.57269 0.00533 0.45621
 C299 C 0.58861 -0.01291 0.45334
 C300 C 0.60554 -0.01175 0.47170
 C301 C 0.59867 0.00811 0.48534
 H302 H 0.58766 -0.02630 0.43918
 H303 H 0.60768 0.01496 0.50122
 N304 N 0.51489 0.02337 0.41952
 N305 N 0.50160 0.04207 0.42620
 C306 C 0.48259 0.04413 0.41105
 C307 C 0.48388 0.02577 0.39405
 C308 C 0.50471 0.01307 0.40003
 H309 H 0.46869 0.05785 0.41247
 H310 H 0.51197 -0.00259 0.39090
 H311 H 0.52465 0.02969 0.46400
 H312 H 0.54341 0.04972 0.44443
 N313 N -0.02268 0.08072 0.51691
 N314 N -0.04195 0.07388 0.50476
 C315 C -0.04521 0.08900 0.48608
 C316 C -0.02695 0.10628 0.48650
 C317 C -0.01304 0.10042 0.50643
 H318 H -0.05980 0.08752 0.47317
 H319 H 0.00316 0.10951 0.51269
 Cu320 Cu -0.06065 0.04562 0.51434
 Cu321 Cu -0.01115 0.06325 0.54505
 Cu322 Cu -0.04416 0.01276 0.56236
 N323 N -0.07904 0.01729 0.52429
 N324 N -0.07245 0.00449 0.54306
 C325 C -0.08812 -0.01396 0.54597
 C326 C -0.10555 -0.01268 0.52806
 C327 C -0.09918 0.00742 0.51464
 H328 H -0.08706 -0.02711 0.56029
 H329 H -0.10840 0.01424 0.49890
 N330 N -0.01495 0.02400 0.57961
 N331 N -0.00237 0.04318 0.57303
 C332 C 0.01632 0.04621 0.58837
 C333 C 0.01553 0.02809 0.60553
 C334 C -0.00459 0.01435 0.59931
 H335 H 0.02944 0.06068 0.58720
 H336 H -0.01131 -0.00150 0.60846
 H337 H -0.02510 0.02997 0.53533
 H338 H -0.04447 0.04937 0.55497
 N339 N 0.47742 0.58227 0.01856
 N340 N 0.45832 0.57547 0.00610
 C341 C 0.45539 0.59061 -0.01262
 C342 C 0.47363 0.60789 -0.01185
 C343 C 0.48723 0.60198 0.00827
 H344 H 0.44101 0.58922 -0.02577
 H345 H 0.50333 0.61106 0.01480
 Cu346 Cu 0.43974 0.54708 0.01547
 Cu347 Cu 0.48854 0.56470 0.04686
 Cu348 Cu 0.45581 0.51362 0.06317
 N349 N 0.42120 0.51864 0.02471
 N350 N 0.42778 0.50549 0.04325
 C351 C 0.41232 0.48677 0.04554
 C352 C 0.39505 0.48822 0.02747
 C353 C 0.40130 0.50874 0.01460
 H354 H 0.41347 0.47327 0.05951
 H355 H 0.39220 0.51579 -0.00110
 N356 N 0.48472 0.52502 0.08097
 N357 N 0.49698 0.54459 0.07487
 C358 C 0.51550 0.54768 0.09039
 C359 C 0.51501 0.52915 0.10706
 C360 C 0.49522 0.51512 0.10050
 H361 H 0.52862 0.56218 0.08942
 H362 H 0.48880 0.49901 0.10944
 H363 H 0.47493 0.53121 0.03676
 H364 H 0.45515 0.55015 0.05645
 N365 N 0.52247 -0.08052 0.01769
 N366 N 0.54159 -0.07364 0.00534
 C367 C 0.54474 -0.08879 -0.01339
 C368 C 0.52658 -0.10616 -0.01283
 C369 C 0.51277 -0.10023 0.00722
 H370 H 0.55924 -0.08730 -0.02638
 H371 H 0.49681 -0.10947 0.01378
 Cu372 Cu 0.56041 -0.04556 0.01510
 Cu373 Cu 0.51154 -0.06332 0.04639
 Cu374 Cu 0.54519 -0.01310 0.06385
 N375 N 0.57922 -0.01747 0.02483
 N376 N 0.57354 -0.00518 0.04429
 C377 C 0.58971 0.01285 0.04729
 C378 C 0.60630 0.01193 0.02860
 C379 C 0.59904 -0.00752 0.01465
 H380 H 0.58922 0.02590 0.06180
 H381 H 0.60781 -0.01411 -0.00147
 N382 N 0.51589 -0.02410 0.08116
 N383 N 0.50342 -0.04350 0.07482
 C384 C 0.48463 -0.04629 0.09008
 C385 C 0.48506 -0.02758 0.10661
 C386 C 0.50513 -0.01387 0.10043
 H387 H 0.47119 -0.06050 0.08892
 H388 H 0.51146 0.00229 0.10943
 H389 H 0.52538 -0.02987 0.03701
 H390 H 0.54499 -0.04958 0.05600
 N391 N 1.02155 0.41860 0.51569
 N392 N 1.04043 0.42555 0.50298
 C393 C 1.04298 0.41059 0.48398
 C394 C 1.02469 0.39334 0.48485
 C395 C 1.01149 0.39907 0.50528
 H396 H 1.05710 0.41208 0.47058
 H397 H 0.99547 0.38998 0.51194
 Cu398 Cu 1.05913 0.45393 0.51250
 Cu399 Cu 1.01074 0.43574 0.54436
 Cu400 Cu 1.04352 0.48660 0.56109
 N401 N 1.07788 0.48219 0.52226
 N402 N 1.07141 0.49503 0.54113
 C403 C 1.08677 0.51379 0.54366
 C404 C 1.10391 0.51274 0.52543
 C405 C 1.09767 0.49237 0.51220
 H406 H 1.08557 0.52712 0.55785
 H407 H 1.10662 0.48567 0.49623
 N408 N 1.01479 0.47501 0.57897
 N409 N 1.00257 0.45544 0.57276
 C410 C 0.98419 0.45215 0.58838
 C411 C 0.98471 0.47060 0.60522
 C412 C 1.00438 0.48476 0.59867
 H413 H 0.97109 0.43764 0.58734
 H414 H 1.01076 0.50087 0.60771
 H415 H 1.02403 0.46929 0.53449
 H416 H 1.04417 0.45013 0.55355
 C417 C 0.37331 -0.00104 0.24973
 C418 C 0.12576 -0.00055 0.74994
 C419 C 0.62598 0.50057 0.25037
 C420 C 0.87397 0.49969 0.74872
 C421 C 0.24968 0.37665 0.00046
 C422 C 0.75000 0.12445 0.00055
 C423 C 0.24980 0.62357 0.49947
 C424 C 0.74941 0.87627 0.50004
 C425 C 0.00035 0.24874 0.37343
 C426 C 0.00022 0.75063 0.12511
 C427 C 0.50030 0.24942 0.62675
 C428 C 0.50010 0.75062 0.87469
 C429 C 0.08526 0.23103 0.31198
 C430 C 0.09708 0.20857 0.31080
 C431 C 0.11607 0.20483 0.29451
 C432 C 0.12347 0.22344 0.27892
 C433 C 0.11160 0.24592 0.28022
 C434 C 0.09276 0.24968 0.29661
 C435 C 0.06477 0.23493 0.32875
 C436 C 0.06371 0.25586 0.34297
 C437 C 0.04372 0.26028 0.35783
 C438 C 0.02378 0.24414 0.35841
 C439 C 0.02571 0.22257 0.34476
 C440 C 0.04581 0.21811 0.33011
 H441 H 0.12471 0.18727 0.29400
 H442 H 0.11688 0.26074 0.26869
 H443 H 0.04428 0.27652 0.36857
 H444 H 0.01106 0.20950 0.34481
 H445 H 0.08372 0.26708 0.29700
 H446 H 0.07845 0.26883 0.34261
 H447 H 0.09172 0.19396 0.32261
 H448 H 0.04615 0.20185 0.31923
 C449 C 0.58466 0.73486 0.81067
 C450 C 0.60631 0.72389 0.81857
 C451 C 0.62563 0.72014 0.80268
 C452 C 0.62398 0.72774 0.77867
 C453 C 0.60251 0.73877 0.77072
 C454 C 0.58298 0.74201 0.78643
 C455 C 0.56397 0.73904 0.82750
 C456 C 0.54886 0.75923 0.82473
 C457 C 0.52889 0.76282 0.83975
 C458 C 0.52288 0.74633 0.85824
 C459 C 0.53982 0.72744 0.86233
 C460 C 0.55937 0.72336 0.84678
 H461 H 0.64208 0.71177 0.80934
 H462 H 0.60062 0.74449 0.75221
 H463 H 0.51890 0.77917 0.83690
 H464 H 0.53863 0.71572 0.87775
 H465 H 0.56645 0.74990 0.77943
 H466 H 0.55266 0.77269 0.81113
 H467 H 0.60859 0.71853 0.83712
 H468 H 0.57082 0.70780 0.84996
 C469 C 0.41622 0.76694 0.81041
 C470 C 0.40324 0.78880 0.81063
 C471 C 0.38379 0.79237 0.79487
 C472 C 0.37697 0.77418 0.77848
 C473 C 0.39000 0.75231 0.77835
 C474 C 0.40939 0.74874 0.79413
 C475 C 0.43681 0.76301 0.82710
 C476 C 0.43911 0.74117 0.83951
 C477 C 0.45864 0.73719 0.85503
 C478 C 0.47723 0.75470 0.85823
 C479 C 0.47363 0.77719 0.84649
 C480 C 0.45406 0.78114 0.83104
 H481 H 0.37426 0.80946 0.79553
 H482 H 0.38522 0.73779 0.76619
 H483 H 0.45818 0.72035 0.86453
 H484 H 0.48547 0.79241 0.84980
 H485 H 0.41926 0.73181 0.79342
 H486 H 0.42545 0.72719 0.83755
 H487 H 0.40796 0.80303 0.82320
 H488 H 0.45252 0.79843 0.82206
 C489 C -0.08389 0.26717 0.31093
 C490 C -0.08868 0.25037 0.29259
 C491 C -0.10838 0.25351 0.27712
 C492 C -0.12396 0.27360 0.27956
 C493 C -0.11921 0.29026 0.29827
 C494 C -0.09944 0.28706 0.31373
 C495 C -0.06238 0.26402 0.32664
 C496 C -0.06392 0.26728 0.35160
 C497 C -0.04374 0.26281 0.36624
 C498 C -0.02151 0.25445 0.35646
 C499 C -0.01991 0.25310 0.33107
 C500 C -0.04006 0.25742 0.31655
 H501 H -0.11118 0.24002 0.26331
 H502 H -0.13044 0.30606 0.30099
 H503 H -0.04569 0.26517 0.38548
 H504 H -0.00327 0.24888 0.32179
 H505 H -0.09599 0.30044 0.32757
 H506 H -0.08090 0.27266 0.35986
 H507 H -0.07718 0.23464 0.29027
 H508 H -0.03811 0.25576 0.29723
 C509 C -0.08063 0.73403 0.19186
 C510 C -0.09939 0.71808 0.18531
 C511 C -0.11932 0.71453 0.20049
 C512 C -0.12095 0.72689 0.22255
 C513 C -0.10211 0.74278 0.22910
 C514 C -0.08219 0.74631 0.21392
 C515 C -0.05966 0.73799 0.17559
 C516 C -0.05064 0.76137 0.17159
 C517 C -0.03143 0.76514 0.15563
 C518 C -0.02117 0.74578 0.14252
 C519 C -0.02920 0.72216 0.14807
 C520 C -0.04844 0.71840 0.16402
 H521 H -0.13357 0.70235 0.19473
 H522 H -0.10251 0.75234 0.24608
 H523 H -0.02482 0.78341 0.15311
 H524 H -0.02054 0.70639 0.14039
 H525 H -0.06783 0.75842 0.21960
 H526 H -0.05870 0.77683 0.18052
 H527 H -0.09884 0.70865 0.16823
 H528 H -0.05431 0.70006 0.16763
 C529 C 0.41865 0.23259 0.69311
 C530 C 0.39936 0.21738 0.68629
 C531 C 0.37949 0.21384 0.70151
 C532 C 0.37796 0.22593 0.72378
 C533 C 0.39722 0.24133 0.73047
 C534 C 0.41738 0.24435 0.71551
 C535 C 0.43979 0.23639 0.67677
 C536 C 0.45202 0.25868 0.67619
 C537 C 0.47145 0.26235 0.66051
 C538 C 0.47859 0.24438 0.64386
 C539 C 0.46698 0.22162 0.64541
 C540 C 0.44792 0.21777 0.66154
 H541 H 0.36510 0.20207 0.69531
 H542 H 0.39723 0.25071 0.74755
 H543 H 0.48059 0.27970 0.66081
 H544 H 0.47270 0.20636 0.63468
 H545 H 0.43210 0.25572 0.72174
 H546 H 0.44641 0.27355 0.68757
 H547 H 0.39933 0.20844 0.66896
 H548 H 0.43977 0.19996 0.66227
 C549 C 0.58152 0.26648 0.69377
 C550 C 0.60096 0.28153 0.68709
 C551 C 0.62055 0.28537 0.70261
 C552 C 0.62163 0.27381 0.72514
 C553 C 0.60220 0.25859 0.73172
 C554 C 0.58236 0.25521 0.71639
 C555 C 0.56062 0.26249 0.67713
 C556 C 0.54836 0.24022 0.67649
 C557 C 0.52910 0.23645 0.66056
 C558 C 0.52206 0.25437 0.64387
 C559 C 0.53375 0.27708 0.64547
 C560 C 0.55271 0.28099 0.66173
 H561 H 0.63504 0.29703 0.69648
 H562 H 0.60185 0.24957 0.74894
 H563 H 0.51993 0.21912 0.66083
 H564 H 0.52814 0.29229 0.63469
 H565 H 0.56750 0.24397 0.72249
 H566 H 0.55379 0.22546 0.68804
 H567 H 0.60131 0.29015 0.66964
 H568 H 0.56090 0.29877 0.66248
 C569 C 0.08096 0.76781 0.19201
 C570 C 0.08222 0.75565 0.21410
 C571 C 0.10171 0.75957 0.22972
 C572 C 0.12047 0.77573 0.22362
 C573 C 0.11916 0.78793 0.20150
 C574 C 0.09964 0.78399 0.18587
 C575 C 0.06027 0.76362 0.17540
 C576 C 0.04906 0.78312 0.16373
 C577 C 0.02987 0.77922 0.14773
 C578 C 0.02183 0.75557 0.14226
 C579 C 0.03217 0.73629 0.15536
 C580 C 0.05136 0.74019 0.17134
 H581 H 0.10185 0.75007 0.24669
 H582 H 0.13335 0.80030 0.19604
 H583 H 0.02120 0.79493 0.14003
 H584 H 0.02559 0.71800 0.15288
 H585 H 0.09933 0.79332 0.16877
 H586 H 0.05483 0.80149 0.16737
 H587 H 0.06792 0.74334 0.21947
 H588 H 0.05941 0.72480 0.18032
 C589 C 0.31294 0.08392 0.23148
 C590 C 0.28795 0.08133 0.23581
 C591 C 0.27224 0.10086 0.23253
 C592 C 0.28120 0.12317 0.22441
 C593 C 0.30619 0.12570 0.21992
 C594 C 0.32199 0.10629 0.22371
 C595 C 0.32938 0.06317 0.23500
 C596 C 0.34972 0.06512 0.25003
 C597 C 0.36422 0.04489 0.25465
 C598 C 0.35837 0.02209 0.24468
 C599 C 0.33922 0.02108 0.22779
 C600 C 0.32456 0.04115 0.22351
 H601 H 0.25303 0.09839 0.23593
 H602 H 0.31355 0.14277 0.21380
 H603 H 0.37997 0.04733 0.26600
 H604 H 0.33510 0.00435 0.21849
 H605 H 0.34122 0.10859 0.22026
 H606 H 0.35410 0.08219 0.25858
 H607 H 0.28066 0.06422 0.24195
 H608 H 0.30941 0.03951 0.21118
 C609 C 0.81192 0.58542 0.73657
 C610 C 0.81874 0.60357 0.72028
 C611 C 0.80341 0.62325 0.71591
 C612 C 0.78090 0.62518 0.72774
 C613 C 0.77436 0.60722 0.74439
 C614 C 0.78968 0.58762 0.74876
 C615 C 0.82748 0.56384 0.74030
 C616 C 0.81698 0.54083 0.74220
 C617 C 0.83139 0.52034 0.74534
 C618 C 0.85703 0.52202 0.74587
 C619 C 0.86734 0.54544 0.74461
 C620 C 0.85282 0.56597 0.74181
 H621 H 0.80923 0.63686 0.70322
 H622 H 0.75723 0.60799 0.75387
 H623 H 0.82193 0.50341 0.74730
 H624 H 0.88685 0.54778 0.74547
 H625 H 0.78409 0.57413 0.76172
 H626 H 0.79747 0.53857 0.74094
 H627 H 0.83569 0.60229 0.71049
 H628 H 0.86143 0.58356 0.74098
 C629 C 0.81269 0.41370 0.76409
 C630 C 0.78987 0.41266 0.75277
 C631 C 0.77412 0.39330 0.75698
 C632 C 0.78069 0.37461 0.77278
 C633 C 0.80348 0.37565 0.78411
 C634 C 0.81933 0.39488 0.77973
 C635 C 0.82924 0.43459 0.76003
 C636 C 0.84349 0.44377 0.77887
 C637 C 0.85850 0.46381 0.77540
 C638 C 0.85893 0.47622 0.75320
 C639 C 0.84526 0.46614 0.73409
 C640 C 0.83076 0.44570 0.73742
 H641 H 0.75663 0.39327 0.74811
 H642 H 0.80930 0.36151 0.79622
 H643 H 0.86947 0.46919 0.79050
 H644 H 0.84546 0.47450 0.71650
 H645 H 0.83689 0.39487 0.78848
 H646 H 0.84279 0.43571 0.79657
 H647 H 0.78393 0.42706 0.74100
 H648 H 0.82070 0.43861 0.72224
 C649 C 0.31105 -0.08474 0.26898
 C650 C 0.28880 -0.08601 0.25678
 C651 C 0.27330 -0.10573 0.26005
 C652 C 0.27950 -0.12460 0.27592
 C653 C 0.30191 -0.12309 0.28821
 C654 C 0.31756 -0.10349 0.28459
 C655 C 0.32718 -0.06364 0.26551
 C656 C 0.35181 -0.06672 0.25983
 C657 C 0.36651 -0.04663 0.25516
 C658 C 0.35679 -0.02298 0.25538
 C659 C 0.33254 -0.02016 0.26330
 C660 C 0.31784 -0.04020 0.26773
 H661 H 0.25631 -0.10575 0.25032
 H662 H 0.30770 -0.13705 0.30051
 H663 H 0.38544 -0.04957 0.25075
 H664 H 0.32470 -0.00247 0.26624
 H665 H 0.33461 -0.10278 0.29429
 H666 H 0.35953 -0.08468 0.25846
 H667 H 0.28347 -0.07176 0.24453
 H668 H 0.29915 -0.03738 0.27315
 C669 C 0.18701 -0.08668 0.73475
 C670 C 0.18112 -0.10501 0.71820
 C671 C 0.19718 -0.12407 0.71378
 C672 C 0.21948 -0.12566 0.72614
 C673 C 0.22511 -0.10747 0.74304
 C674 C 0.20923 -0.08818 0.74709
 C675 C 0.17035 -0.06582 0.73873
 C676 C 0.16840 -0.05484 0.76143
 C677 C 0.15397 -0.03433 0.76470
 C678 C 0.14066 -0.02411 0.74548
 C679 C 0.14147 -0.03639 0.72314
 C680 C 0.15649 -0.05644 0.71973
 H681 H 0.19172 -0.13767 0.70089
 H682 H 0.24201 -0.10761 0.75293
 H683 H 0.15357 -0.02602 0.78235
 H684 H 0.13085 -0.03086 0.70788
 H685 H 0.21466 -0.07417 0.75961
 H686 H 0.17812 -0.06201 0.77675
 H687 H 0.16395 -0.10482 0.70874
 H688 H 0.15753 -0.06431 0.70192
 C689 C 0.68868 0.41525 0.23835
 C690 C 0.71094 0.41324 0.25052
 C691 C 0.72646 0.39381 0.24599
 C692 C 0.72008 0.37585 0.22921
 C693 C 0.69756 0.37758 0.21741
 C694 C 0.68203 0.39708 0.22193
 C695 C 0.67294 0.43670 0.24214
 C696 C 0.64761 0.43439 0.24362
 C697 C 0.63293 0.45483 0.24636
 C698 C 0.64306 0.47832 0.24758
 C699 C 0.66870 0.48018 0.24715
 C700 C 0.68327 0.45979 0.24406
 H701 H 0.74361 0.39318 0.25544
 H702 H 0.69187 0.36395 0.20462
 H703 H 0.61344 0.45235 0.24721
 H704 H 0.67805 0.49717 0.24917
 H705 H 0.66506 0.39823 0.21215
 H706 H 0.63915 0.41673 0.24278
 H707 H 0.71641 0.42677 0.26355
 H708 H 0.70276 0.46219 0.24285
 C709 C 0.68772 0.58625 0.26512
 C710 C 0.71069 0.58652 0.25406
 C711 C 0.72696 0.60542 0.25838
 C712 C 0.72076 0.62441 0.27405
 C713 C 0.69775 0.62424 0.28499
 C714 C 0.68138 0.60545 0.28050
 C715 C 0.67079 0.56567 0.26117
 C716 C 0.65645 0.55685 0.28007
 C717 C 0.64134 0.53684 0.27676
 C718 C 0.64089 0.52415 0.25466
 C719 C 0.65453 0.53398 0.23544
 C720 C 0.66916 0.55435 0.23863
 H721 H 0.74458 0.60485 0.24978
 H722 H 0.69219 0.63872 0.29689
 H723 H 0.63037 0.53165 0.29191
 H724 H 0.65432 0.52538 0.21793
 H725 H 0.66369 0.60607 0.28897
 H726 H 0.65723 0.56512 0.29772
 H727 H 0.71635 0.57183 0.24244
 H728 H 0.67933 0.56115 0.22342
 C729 C 0.18847 0.08485 0.76171
 C730 C 0.18163 0.10321 0.77783
 C731 C 0.19697 0.12291 0.78210
 C732 C 0.21952 0.12468 0.77034
 C733 C 0.22615 0.10647 0.75391
 C734 C 0.21080 0.08681 0.74964
 C735 C 0.17277 0.06333 0.75809
 C736 C 0.18308 0.04021 0.75649
 C737 C 0.16850 0.01979 0.75356
 C738 C 0.14287 0.02167 0.75286
 C739 C 0.13276 0.04518 0.75389
 C740 C 0.14745 0.06563 0.75649
 H741 H 0.19111 0.13667 0.79466
 H742 H 0.24334 0.10710 0.74453
 H743 H 0.17782 0.00274 0.75188
 H744 H 0.11327 0.04768 0.75292
 H745 H 0.21643 0.07312 0.73685
 H746 H 0.20256 0.03782 0.75784
 H747 H 0.16463 0.10209 0.78757
 H748 H 0.13898 0.08330 0.75711
 C749 C 0.23350 0.31230 0.08363
 C750 C 0.25125 0.29509 0.08957
 C751 C 0.24773 0.27935 0.10887
 C752 C 0.22636 0.28044 0.12272
 C753 C 0.20860 0.29770 0.11669
 C754 C 0.21212 0.31341 0.09735
 C755 C 0.23738 0.32907 0.06324
 C756 C 0.21872 0.33387 0.04686
 C757 C 0.22267 0.34929 0.02740
 C758 C 0.24557 0.36033 0.02322
 C759 C 0.26372 0.35615 0.04085
 C760 C 0.25976 0.34062 0.06021
 H761 H 0.26189 0.26642 0.11287
 H762 H 0.19187 0.29912 0.12677
 H763 H 0.20734 0.35282 0.01578
 H764 H 0.28116 0.36477 0.04058
 H765 H 0.19825 0.32668 0.09330
 H766 H 0.20108 0.32547 0.04893
 H767 H 0.26776 0.29363 0.07907
 H768 H 0.27423 0.33792 0.07314
 C769 C 0.73437 0.81354 0.58365
 C770 C 0.72499 0.82231 0.60544
 C771 C 0.72160 0.80668 0.62489
 C772 C 0.72800 0.78214 0.62301
 C773 C 0.73770 0.77349 0.60127
 C774 C 0.74063 0.78901 0.58168
 C775 C 0.73759 0.82988 0.56293
 C776 C 0.72749 0.82396 0.54059
 C777 C 0.73084 0.83915 0.52086
 C778 C 0.74524 0.86029 0.52262
 C779 C 0.75474 0.86633 0.54550
 C780 C 0.75086 0.85136 0.56534
 H781 H 0.71422 0.81387 0.64147
 H782 H 0.74259 0.75464 0.59924
 H783 H 0.72227 0.83425 0.50402
 H784 H 0.76522 0.88258 0.54841
 H785 H 0.74799 0.78195 0.56503
 H786 H 0.71675 0.80768 0.53847
 H787 H 0.71997 0.84117 0.60726
 H788 H 0.75864 0.85634 0.58254
 C789 C 0.76824 0.81036 0.41869
 C790 C 0.77702 0.81947 0.39682
 C791 C 0.78114 0.80394 0.37739
 C792 C 0.77605 0.77914 0.37938
 C793 C 0.76722 0.77006 0.40127
 C794 C 0.76358 0.78552 0.42085
 C795 C 0.76343 0.82687 0.43902
 C796 C 0.77328 0.82235 0.46172
 C797 C 0.76876 0.83815 0.48081
 C798 C 0.75418 0.85914 0.47799
 C799 C 0.74356 0.86262 0.45501
 C800 C 0.74851 0.84704 0.43585
 H801 H 0.78780 0.81143 0.36067
 H802 H 0.76335 0.75098 0.40333
 H803 H 0.77675 0.83380 0.49806
 H804 H 0.73099 0.87691 0.45115
 H805 H 0.75668 0.77819 0.43756
 H806 H 0.78472 0.80669 0.46463
 H807 H 0.78080 0.83859 0.39485
 H808 H 0.74015 0.85045 0.41855
 C809 C 0.26472 0.31266 -0.08383
 C810 C 0.27463 0.32106 -0.10562
 C811 C 0.27862 0.30518 -0.12484
 C812 C 0.27230 0.28066 -0.12296
 C813 C 0.26218 0.27224 -0.10141
 C814 C 0.25876 0.28795 -0.08198
 C815 C 0.26061 0.32942 -0.06310
 C816 C 0.24133 0.32553 -0.04708
 C817 C 0.23801 0.34041 -0.02705
 C818 C 0.25381 0.35994 -0.02199
 C819 C 0.27168 0.36503 -0.03966
 C820 C 0.27555 0.34963 -0.05926
 H821 H 0.28623 0.31222 -0.14136
 H822 H 0.25743 0.25336 -0.09937
 H823 H 0.22246 0.33652 -0.01613
 H824 H 0.28269 0.38116 -0.03890
 H825 H 0.25175 0.28055 -0.06538
 H826 H 0.22838 0.31112 -0.05017
 H827 H 0.27904 0.33996 -0.10805
 H828 H 0.29040 0.35370 -0.07133
 C829 C 0.73435 0.18853 -0.08204
 C830 C 0.71076 0.19314 -0.09040
 C831 C 0.70703 0.20849 -0.10997
 C832 C 0.72679 0.21984 -0.12130
 C833 C 0.75041 0.21528 -0.11282
 C834 C 0.75416 0.19962 -0.09347
 C835 C 0.73826 0.17214 -0.06144
 C836 C 0.75510 0.15323 -0.06306
 C837 C 0.75882 0.13765 -0.04367
 C838 C 0.74585 0.14066 -0.02190
 C839 C 0.72895 0.15992 -0.02060
 C840 C 0.72512 0.17529 -0.04010
 H841 H 0.68862 0.21173 -0.11600
 H842 H 0.76601 0.22356 -0.12132
 H843 H 0.77198 0.12341 -0.04611
 H844 H 0.71855 0.16295 -0.00433
 H845 H 0.77251 0.19638 -0.08722
 H846 H 0.76523 0.15033 -0.07951
 H847 H 0.69525 0.18463 -0.08194
 H848 H 0.71211 0.18989 -0.03840
 C849 C 0.23301 0.68539 0.41536
 C850 C 0.21021 0.68730 0.40427
 C851 C 0.20667 0.70334 0.38520
 C852 C 0.22583 0.71797 0.37694
 C853 C 0.24867 0.71602 0.38811
 C854 C 0.25223 0.69983 0.40706
 C855 C 0.23668 0.66864 0.43578
 C856 C 0.25687 0.65322 0.43636
 C857 C 0.26096 0.63813 0.45607
 C858 C 0.24534 0.63864 0.47627
 C859 C 0.22433 0.65331 0.47478
 C860 C 0.22016 0.66816 0.45494
 H861 H 0.18882 0.70439 0.37716
 H862 H 0.26389 0.72683 0.38214
 H863 H 0.27645 0.62626 0.45506
 H864 H 0.21152 0.65390 0.48955
 H865 H 0.26994 0.69885 0.41550
 H866 H 0.26945 0.65272 0.42139
 H867 H 0.19516 0.67621 0.41024
 H868 H 0.20434 0.67981 0.45488
 C869 C 0.26749 0.68628 0.58326
 C870 C 0.25193 0.70615 0.58659
 C871 C 0.25486 0.72163 0.60625
 C872 C 0.27340 0.71759 0.62317
 C873 C 0.28875 0.69746 0.61997
 C874 C 0.28581 0.68198 0.60026
 C875 C 0.26470 0.67045 0.56186
 C876 C 0.26654 0.64521 0.56366
 C877 C 0.26242 0.63053 0.54354
 C878 C 0.25560 0.64056 0.52115
 C879 C 0.25592 0.66611 0.51929
 C880 C 0.26002 0.68069 0.53934
 H881 H 0.24264 0.73683 0.60795
 H882 H 0.30320 0.69360 0.63254
 H883 H 0.26364 0.61110 0.54564
 H884 H 0.25321 0.67539 0.50249
 H885 H 0.29820 0.66693 0.59804
 H886 H 0.27051 0.63677 0.58076
 H887 H 0.23737 0.70969 0.57398
 H888 H 0.25969 0.70015 0.53717
 C889 C 0.76726 0.19038 0.08212
 C890 C 0.77675 0.18132 0.10372
 C891 C 0.78084 0.19678 0.12322
 C892 C 0.77503 0.22147 0.12161
 C893 C 0.76544 0.23047 0.09999
 C894 C 0.76183 0.21509 0.08032
 C895 C 0.76262 0.17395 0.06165
 C896 C 0.77252 0.17871 0.03900
 C897 C 0.76840 0.16285 0.01984
 C898 C 0.75401 0.14172 0.02255
 C899 C 0.74332 0.13796 0.04544
 C900 C 0.74799 0.15353 0.06469
 H901 H 0.78810 0.18933 0.13971
 H902 H 0.76097 0.24944 0.09819
 H903 H 0.77684 0.16700 0.00276
 H904 H 0.73109 0.12331 0.04912
 H905 H 0.75440 0.22237 0.06383
 H906 H 0.78383 0.19448 0.03624
 H907 H 0.78113 0.16230 0.10540
 H908 H 0.73973 0.14984 0.08199
 C909 C 0.48449 0.33129 0.56024
 C910 C 0.50445 0.34390 0.55046
 C911 C 0.50094 0.36320 0.53462
 C912 C 0.47741 0.37095 0.52875
 C913 C 0.45746 0.35874 0.53860
 C914 C 0.46092 0.33896 0.55383
 C915 C 0.48821 0.31046 0.57707
 C916 C 0.47047 0.30436 0.59422
 C917 C 0.47364 0.28470 0.60964
 C918 C 0.49549 0.27127 0.60975
 C919 C 0.51312 0.27732 0.59231
 C920 C 0.50943 0.29628 0.57611
 H921 H 0.51667 0.37246 0.52742
 H922 H 0.43912 0.36419 0.53414
 H923 H 0.45857 0.28033 0.62119
 H924 H 0.52986 0.26710 0.59114
 H925 H 0.44495 0.32963 0.56027
 H926 H 0.45394 0.31476 0.59599
 H927 H 0.52289 0.33922 0.55526
 H928 H 0.52324 0.29952 0.56267
 C929 C -0.01724 0.83062 0.05797
 C930 C -0.00501 0.83189 0.03585
 C931 C -0.00889 0.85135 0.02032
 C932 C -0.02506 0.87005 0.02654
 C933 C -0.03740 0.86866 0.04864
 C934 C -0.03350 0.84919 0.06418
 C935 C -0.01300 0.81006 0.07459
 C936 C -0.03254 0.79897 0.08641
 C937 C -0.02859 0.77996 0.10244
 C938 C -0.00481 0.77199 0.10783
 C939 C 0.01452 0.78222 0.09460
 C940 C 0.01056 0.80123 0.07857
 H941 H 0.00070 0.85154 0.00335
 H942 H -0.04982 0.88276 0.05419
 H943 H -0.04435 0.77136 0.11026
 H944 H 0.03290 0.77569 0.09702
 H945 H -0.04292 0.84888 0.08127
 H946 H -0.05101 0.80471 0.08287
 H947 H 0.00734 0.81764 0.03042
 H948 H 0.02599 0.80923 0.06951
 C949 C 0.01640 0.66981 0.05838
 C950 C 0.03237 0.65106 0.06471
 C951 C 0.03595 0.63137 0.04929
 C952 C 0.02362 0.62997 0.02719
 C953 C 0.00768 0.64881 0.02088
 C954 C 0.00412 0.66848 0.03630
 C955 C 0.01252 0.69062 0.07483
 C956 C -0.01091 0.69974 0.07890
 C957 C -0.01457 0.71896 0.09483
 C958 C 0.00497 0.72916 0.10782
 C959 C 0.02863 0.72091 0.10231
 C960 C 0.03227 0.70166 0.08640
 H961 H 0.04818 0.61715 0.05490
 H962 H -0.00189 0.64859 0.00391
 H963 H -0.03287 0.72565 0.09739
 H964 H 0.04453 0.72943 0.10996
 H965 H -0.00801 0.68286 0.03079
 H966 H -0.02650 0.69178 0.07002
 H967 H 0.04180 0.65144 0.08180
 H968 H 0.05064 0.69565 0.08280
 C969 C 0.51523 0.16741 0.55999
 C970 C 0.49511 0.15495 0.55028
 C971 C 0.49839 0.13552 0.53446
 C972 C 0.52181 0.12753 0.52852
 C973 C 0.54192 0.13957 0.53834
 C974 C 0.53870 0.15948 0.55353
 C975 C 0.51179 0.18835 0.57682
 C976 C 0.52963 0.19430 0.59395
 C977 C 0.52668 0.21400 0.60944
 C978 C 0.50497 0.22763 0.60959
 C979 C 0.48724 0.22172 0.59218
 C980 C 0.49072 0.20273 0.57591
 H981 H 0.48255 0.12637 0.52730
 H982 H 0.56020 0.13393 0.53386
 H983 H 0.54176 0.21821 0.62106
 H984 H 0.47057 0.23205 0.59112
 H985 H 0.55478 0.16873 0.55988
 H986 H 0.54606 0.18373 0.59567
 H987 H 0.47673 0.15985 0.55511
 H988 H 0.47686 0.19960 0.56248
 C989 C -0.01497 0.16432 0.43607
 C990 C -0.03186 0.14593 0.43101
 C991 C -0.03583 0.12719 0.44738
 C992 C -0.02289 0.12628 0.46917
 C993 C -0.00593 0.14462 0.47416
 C994 C -0.00207 0.16343 0.45786
 C995 C -0.01110 0.18459 0.41897
 C996 C -0.03069 0.19469 0.40638
 C997 C -0.02729 0.21439 0.39106
 C998 C -0.00421 0.22535 0.38844
 C999 C 0.01552 0.21436 0.40059
 C1000 C 0.01215 0.19435 0.41547
 H1001 H -0.04888 0.11334 0.44274
 H1002 H 0.00425 0.14473 0.49079
 H1003 H -0.04316 0.22081 0.38179
 H1004 H 0.03366 0.22180 0.39913
 H1005 H 0.01074 0.17753 0.46255
 H1006 H -0.04891 0.18772 0.40879
 H1007 H -0.04185 0.14585 0.41424
 H1008 H 0.02780 0.18663 0.42440
 C1009 C 0.48521 0.66724 0.93925
 C1010 C 0.46943 0.64826 0.93308
 C1011 C 0.46573 0.62894 0.94887
 C1012 C 0.47778 0.62817 0.97117
 C1013 C 0.49379 0.64706 0.97716
 C1014 C 0.49745 0.66634 0.96140
 C1015 C 0.48868 0.68818 0.92294
 C1016 C 0.48955 0.71170 0.93228
 C1017 C 0.49316 0.73154 0.91725
 C1018 C 0.49591 0.72869 0.89204
 C1019 C 0.49489 0.70473 0.88296
 C1020 C 0.49131 0.68488 0.89809
 H1021 H 0.45347 0.61464 0.94351
 H1022 H 0.50335 0.64720 0.99414
 H1023 H 0.49374 0.74898 0.92593
 H1024 H 0.49696 0.70139 0.86387
 H1025 H 0.50999 0.68054 0.96650
 H1026 H 0.48720 0.71485 0.95137
 H1027 H 0.45960 0.64855 0.91622
 H1028 H 0.49099 0.66690 0.89035
 C1029 C 0.51587 0.83419 0.93812
 C1030 C 0.50067 0.83719 0.95817
 C1031 C 0.50409 0.85654 0.97399
 C1032 C 0.52287 0.87335 0.97019
 C1033 C 0.53810 0.87028 0.95007
 C1034 C 0.53465 0.85090 0.93424
 C1035 C 0.51208 0.81364 0.92136
 C1036 C 0.53186 0.80015 0.91279
 C1037 C 0.52819 0.78035 0.89755
 C1038 C 0.50458 0.77368 0.89005
 C1039 C 0.48480 0.78710 0.89936
 C1040 C 0.48854 0.80693 0.91444
 H1041 H 0.49201 0.85810 0.98923
 H1042 H 0.55270 0.88281 0.94637
 H1043 H 0.54395 0.77001 0.89216
 H1044 H 0.46626 0.78197 0.89537
 H1045 H 0.54648 0.84916 0.91877
 H1046 H 0.55018 0.80448 0.91844
 H1047 H 0.48629 0.82435 0.96183
 H1048 H 0.47292 0.81698 0.92080
 C1049 C 0.01220 0.33379 0.43622
 C1050 C 0.00040 0.33481 0.45858
 C1051 C 0.00432 0.35420 0.47420
 C1052 C 0.02014 0.37311 0.46785
 C1053 C 0.03161 0.37232 0.44526
 C1054 C 0.02766 0.35287 0.42959
 C1055 C 0.00900 0.31242 0.42036
 C1056 C 0.00886 0.28915 0.43024
 C1057 C 0.00586 0.26883 0.41567
 C1058 C 0.00351 0.27097 0.39042
 C1059 C 0.00337 0.29463 0.38073
 C1060 C 0.00608 0.31500 0.39545
 H1061 H -0.00481 0.35406 0.49141
 H1062 H 0.04368 0.38667 0.43962
 H1063 H 0.00544 0.25167 0.42476
 H1064 H 0.00133 0.29733 0.36156
 H1065 H 0.03714 0.35246 0.41253
 H1066 H 0.01131 0.28656 0.44938
 H1067 H -0.01188 0.32054 0.46404
 H1068 H 0.00562 0.33279 0.38738
 C1069 C 0.33535 0.56056 0.48819
 C1070 C 0.33712 0.53837 0.50033
 C1071 C 0.35660 0.52277 0.49600
 C1072 C 0.37486 0.52896 0.47945
 C1073 C 0.37336 0.55142 0.46769
 C1074 C 0.35384 0.56704 0.47203
 C1075 C 0.31383 0.57641 0.49172
 C1076 C 0.31625 0.60163 0.49310
 C1077 C 0.29576 0.61638 0.49562
 C1078 C 0.27210 0.60645 0.49670
 C1079 C 0.27011 0.58092 0.49620
 C1080 C 0.29055 0.56628 0.49339
 H1081 H 0.35705 0.50571 0.50545
 H1082 H 0.38718 0.55701 0.45504
 H1083 H 0.29834 0.63578 0.49642
 H1084 H 0.25296 0.57172 0.49796
 H1085 H 0.35293 0.58395 0.46229
 H1086 H 0.33403 0.60998 0.49237
 H1087 H 0.32340 0.53304 0.51323
 H1088 H 0.28804 0.54689 0.49219
 C1089 C 0.83416 0.06089 -0.01524
 C1090 C 0.83367 0.03723 -0.00622
 C1091 C 0.85342 0.02174 -0.00981
 C1092 C 0.87389 0.02951 -0.02281
 C1093 C 0.87428 0.05326 -0.03183
 C1094 C 0.85466 0.06886 -0.02792
 C1095 C 0.81323 0.07715 -0.01151
 C1096 C 0.81623 0.09935 0.00021
 C1097 C 0.79628 0.11439 0.00452
 C1098 C 0.77267 0.10795 -0.00335
 C1099 C 0.77033 0.08591 -0.01624
 C1100 C 0.79014 0.07052 -0.01968
 H1101 H 0.85244 0.00357 -0.00270
 H1102 H 0.88981 0.05990 -0.04176
 H1103 H 0.79991 0.13098 0.01397
 H1104 H 0.75303 0.08042 -0.02370
 H1105 H 0.85530 0.08705 -0.03509
 H1106 H 0.83403 0.10490 0.00643
 H1107 H 0.81805 0.03085 0.00378
 H1108 H 0.78753 0.05357 -0.02914
 C1109 C 0.66745 0.05875 0.01648
 C1110 C 0.65832 0.05541 0.03980
 C1111 C 0.63831 0.04036 0.04371
 C1112 C 0.62731 0.02809 0.02442
 C1113 C 0.63661 0.03131 0.00111
 C1114 C 0.65639 0.04665 -0.00284
 C1115 C 0.68821 0.07516 0.01224
 C1116 C 0.68680 0.09295 -0.00555
 C1117 C 0.70614 0.10880 -0.00943
 C1118 C 0.72758 0.10759 0.00464
 C1119 C 0.72906 0.08865 0.02168
 C1120 C 0.70955 0.07303 0.02575
 H1121 H 0.63164 0.03810 0.06188
 H1122 H 0.62841 0.02228 -0.01414
 H1123 H 0.70390 0.12158 -0.02385
 H1124 H 0.74546 0.08615 0.03216
 H1125 H 0.66320 0.04892 -0.02096
 H1126 H 0.67056 0.09472 -0.01641
 H1127 H 0.66647 0.06474 0.05492
 H1128 H 0.71127 0.05901 0.03921
 C1129 C 0.16353 0.56204 0.51340
 C1130 C 0.16277 0.53949 0.50165
 C1131 C 0.14336 0.52361 0.50536
 C1132 C 0.12433 0.52976 0.52109
 C1133 C 0.12508 0.55232 0.53278
 C1134 C 0.14437 0.56828 0.52892
 C1135 C 0.18442 0.57875 0.50979
 C1136 C 0.19556 0.58088 0.48721
 C1137 C 0.21602 0.59548 0.48421
 C1138 C 0.22608 0.60871 0.50363
 C1139 C 0.21364 0.60766 0.52587
 C1140 C 0.19357 0.59252 0.52898
 H1141 H 0.14356 0.50635 0.49617
 H1142 H 0.11067 0.55786 0.54481
 H1143 H 0.22449 0.59603 0.46664
 H1144 H 0.21909 0.61814 0.54127
 H1145 H 0.14413 0.58564 0.53795
 H1146 H 0.18851 0.57118 0.47180
 H1147 H 0.17745 0.53389 0.48993
 H1148 H 0.18548 0.59130 0.54669
 C1149 C 0.16598 0.44041 -0.01627
 C1150 C 0.16303 0.46124 -0.00208
 C1151 C 0.14365 0.47704 -0.00618
 C1152 C 0.12671 0.47238 -0.02458
 C1153 C 0.12973 0.45146 -0.03873
 C1154 C 0.14914 0.43570 -0.03463
 C1155 C 0.18669 0.42379 -0.01208
 C1156 C 0.19351 0.41740 0.01134
 C1157 C 0.21335 0.40219 0.01528
 C1158 C 0.22672 0.39232 -0.00414
 C1159 C 0.22000 0.39944 -0.02762
 C1160 C 0.20017 0.41470 -0.03150
 H1161 H 0.14216 0.49296 0.00504
 H1162 H 0.11712 0.44707 -0.05297
 H1163 H 0.21856 0.39854 0.03368
 H1164 H 0.23026 0.39369 -0.04318
 H1165 H 0.15082 0.41962 -0.04567
 H1166 H 0.18351 0.42424 0.02669
 H1167 H 0.17598 0.46553 0.01196
 H1168 H 0.19576 0.41993 -0.04973
 C1169 C 0.66577 0.94023 0.48369
 C1170 C 0.65646 0.95418 0.50265
 C1171 C 0.63702 0.96995 0.49873
 C1172 C 0.62631 0.97173 0.47585
 C1173 C 0.63557 0.95750 0.45696
 C1174 C 0.65525 0.94203 0.46082
 C1175 C 0.68654 0.92388 0.48775
 C1176 C 0.68532 0.90597 0.50542
 C1177 C 0.70490 0.89039 0.50925
 C1178 C 0.72656 0.89240 0.49558
 C1179 C 0.72763 0.91126 0.47840
 C1180 C 0.70779 0.92638 0.47420
 H1181 H 0.63024 0.98050 0.51370
 H1182 H 0.62785 0.95851 0.43911
 H1183 H 0.70274 0.87714 0.52328
 H1184 H 0.74401 0.91413 0.46800
 H1185 H 0.66212 0.93125 0.44602
 H1186 H 0.66905 0.90392 0.51619
 H1187 H 0.66446 0.95308 0.52041
 H1188 H 0.70919 0.94037 0.46067
 C1189 C 0.83340 0.93994 0.51707
 C1190 C 0.85298 0.93261 0.53145
 C1191 C 0.87278 0.94801 0.53510
 C1192 C 0.87348 0.97093 0.52420
 C1193 C 0.85392 0.97807 0.50958
 C1194 C 0.83402 0.96276 0.50616
 C1195 C 0.81241 0.92375 0.51326
 C1196 C 0.78882 0.93183 0.51796
 C1197 C 0.76897 0.91657 0.51420
 C1198 C 0.77189 0.89306 0.50429
 C1199 C 0.79603 0.88506 0.50050
 C1200 C 0.81589 0.90012 0.50501
 H1201 H 0.88760 0.94181 0.54628
 H1202 H 0.85379 0.99557 0.50093
 H1203 H 0.75129 0.92334 0.51935
 H1204 H 0.80024 0.86720 0.49418
 H1205 H 0.81921 0.96861 0.49474
 H1206 H 0.78579 0.94984 0.52506
 H1207 H 0.85279 0.91505 0.54006
 H1208 H 0.83407 0.89337 0.50170
 C1209 C 0.33440 0.44043 0.01521
 C1210 C 0.35364 0.43338 0.03022
 C1211 C 0.37338 0.44881 0.03409
 C1212 C 0.37434 0.47164 0.02303
 C1213 C 0.35517 0.47854 0.00780
 C1214 C 0.33545 0.46312 0.00396
 C1215 C 0.31311 0.42439 0.01156
 C1216 C 0.28958 0.43401 0.01154
 C1217 C 0.26941 0.41914 0.00800
 C1218 C 0.27195 0.39386 0.00448
 C1219 C 0.29594 0.38452 0.00454
 C1220 C 0.31610 0.39947 0.00806
 H1221 H 0.38789 0.44275 0.04573
 H1222 H 0.35517 0.49598 -0.00096
 H1223 H 0.25197 0.42800 0.00813
 H1224 H 0.29905 0.36536 0.00187
 H1225 H 0.32102 0.46892 -0.00795
 H1226 H 0.28668 0.45315 0.01457
 H1227 H 0.35322 0.41609 0.03931
 H1228 H 0.33408 0.39153 0.00772
 C1229 C 0.56313 0.48187 0.33382
 C1230 C 0.54280 0.49686 0.33716
 C1231 C 0.52752 0.49375 0.35697
 C1232 C 0.53223 0.47561 0.37403
 C1233 C 0.55275 0.46075 0.37074
 C1234 C 0.56800 0.46384 0.35087
 C1235 C 0.57898 0.48505 0.31247
 C1236 C 0.60436 0.48369 0.31438
 C1237 C 0.61907 0.48811 0.29437
 C1238 C 0.60893 0.49474 0.27196
 C1239 C 0.58329 0.49408 0.26997
 C1240 C 0.56866 0.48967 0.28994
 H1241 H 0.51197 0.50556 0.35869
 H1242 H 0.55711 0.44659 0.38338
 H1243 H 0.63861 0.48721 0.29654
 H1244 H 0.57400 0.49672 0.25312
 H1245 H 0.58338 0.45183 0.34861
 H1246 H 0.61289 0.47983 0.33149
 H1247 H 0.53878 0.51115 0.32449
 H1248 H 0.54912 0.48970 0.28766
 C1249 C 0.06403 -0.01772 0.83429
 C1250 C 0.04954 0.00141 0.84269
 C1251 C 0.03338 -0.00212 0.86176
 C1252 C 0.03152 -0.02481 0.87295
 C1253 C 0.04618 -0.04390 0.86456
 C1254 C 0.06217 -0.04041 0.84536
 C1255 C 0.08080 -0.01401 0.81381
 C1256 C 0.08124 -0.03039 0.79456
 C1257 C 0.09600 -0.02607 0.77461
 C1258 C 0.11067 -0.00511 0.77315
 C1259 C 0.11123 0.01036 0.79345
 C1260 C 0.09620 0.00615 0.81324
 H1261 H 0.02253 0.01303 0.86782
 H1262 H 0.04516 -0.06166 0.87260
 H1263 H 0.09540 -0.03877 0.75976
 H1264 H 0.12308 0.02584 0.79447
 H1265 H 0.07329 -0.05539 0.83929
 H1266 H 0.06962 -0.04620 0.79463
 H1267 H 0.05047 0.01902 0.83425
 H1268 H 0.09672 0.01864 0.82827
 C1269 C 0.06318 0.01820 0.66637
 C1270 C 0.04328 0.00273 0.66269
 C1271 C 0.02796 0.00585 0.64295
 C1272 C 0.03218 0.02448 0.62629
 C1273 C 0.05234 0.03976 0.62984
 C1274 C 0.06768 0.03663 0.64965
 C1275 C 0.07893 0.01510 0.68777
 C1276 C 0.10429 0.01683 0.68601
 C1277 C 0.11893 0.01241 0.70606
 C1278 C 0.10875 0.00538 0.72835
 C1279 C 0.08309 0.00573 0.73021
 C1280 C 0.06853 0.01015 0.71020
 H1281 H 0.01276 -0.00638 0.64096
 H1282 H 0.05634 0.05427 0.61748
 H1283 H 0.13846 0.01358 0.70399
 H1284 H 0.07374 0.00282 0.74697
 H1285 H 0.08279 0.04892 0.65213
 H1286 H 0.11286 0.02097 0.66899
 H1287 H 0.03963 -0.01192 0.67507
 H1288 H 0.04897 0.00985 0.71234
 C1289 C 0.56453 0.51782 0.16595
 C1290 C 0.54970 0.49887 0.15772
 C1291 C 0.53355 0.50255 0.13868
 C1292 C 0.53206 0.52520 0.12734
 C1293 C 0.54707 0.54409 0.13555
 C1294 C 0.56305 0.54046 0.15473
 C1295 C 0.58119 0.51402 0.18646
 C1296 C 0.58152 0.53035 0.20575
 C1297 C 0.59621 0.52600 0.22572
 C1298 C 0.61093 0.50508 0.22715
 C1299 C 0.61159 0.48966 0.20682
 C1300 C 0.59660 0.49388 0.18701
 H1301 H 0.52241 0.48755 0.13278
 H1302 H 0.54635 0.56181 0.12739
 H1303 H 0.59552 0.53866 0.24061
 H1304 H 0.62349 0.47422 0.20580
 H1305 H 0.57442 0.55529 0.16070
 H1306 H 0.56988 0.54614 0.20567
 H1307 H 0.55036 0.48131 0.16630
 H1308 H 0.59717 0.48143 0.17195
 C1309 C 0.43399 -0.01398 0.16378
 C1310 C 0.43824 -0.03767 0.15549
 C1311 C 0.45459 -0.04205 0.13675
 C1312 C 0.46743 -0.02290 0.12616
 C1313 C 0.46323 0.00077 0.13433
 C1314 C 0.44654 0.00521 0.15277
 C1315 C 0.41728 -0.00953 0.18441
 C1316 C 0.42227 0.00877 0.20126
 C1317 C 0.40763 0.01174 0.22153
 C1318 C 0.38833 -0.00432 0.22641
 C1319 C 0.38212 -0.02123 0.20837
 C1320 C 0.39651 -0.02393 0.18783
 H1321 H 0.45761 -0.06051 0.13096
 H1322 H 0.47257 0.01593 0.12622
 H1323 H 0.41203 0.02609 0.23407
 H1324 H 0.36606 -0.03238 0.20987
 H1325 H 0.44340 0.02374 0.15827
 H1326 H 0.43790 0.02045 0.19923
 H1327 H 0.42935 -0.05297 0.16384
 H1328 H 0.39129 -0.03731 0.17456
 C1329 C 0.93521 0.48176 0.66419
 C1330 C 0.94973 0.50084 0.65580
 C1331 C 0.96588 0.49720 0.63674
 C1332 C 0.96770 0.47445 0.62556
 C1333 C 0.95303 0.45541 0.63394
 C1334 C 0.93704 0.45901 0.65314
 C1335 C 0.91848 0.48560 0.68467
 C1336 C 0.91812 0.46938 0.70398
 C1337 C 0.90349 0.47389 0.72399
 C1338 C 0.88887 0.49490 0.72543
 C1339 C 0.88816 0.51015 0.70505
 C1340 C 0.90308 0.50575 0.68521
 H1341 H 0.97674 0.51231 0.63067
 H1342 H 0.95404 0.43762 0.62588
 H1343 H 0.90415 0.46133 0.73889
 H1344 H 0.87628 0.52561 0.70401
 H1345 H 0.92592 0.44407 0.65924
 H1346 H 0.92972 0.45356 0.70392
 H1347 H 0.94882 0.51849 0.66424
 H1348 H 0.90248 0.51810 0.67012
 C1349 C 0.93730 0.51906 0.83176
 C1350 C 0.95729 0.50369 0.83533
 C1351 C 0.97275 0.50697 0.85496
 C1352 C 0.96861 0.52572 0.87160
 C1353 C 0.94840 0.54094 0.86812
 C1354 C 0.93292 0.53763 0.84844
 C1355 C 0.92133 0.51571 0.81052
 C1356 C 0.89598 0.51727 0.81253
 C1357 C 0.88115 0.51264 0.79262
 C1358 C 0.89115 0.50563 0.77022
 C1359 C 0.91679 0.50610 0.76812
 C1360 C 0.93153 0.51069 0.78799
 H1361 H 0.98797 0.49479 0.85691
 H1362 H 0.94446 0.55553 0.88047
 H1363 H 0.86163 0.51370 0.79487
 H1364 H 0.92599 0.50319 0.75126
 H1365 H 0.91777 0.54988 0.84603
 H1366 H 0.88756 0.52146 0.82963
 H1367 H 0.96087 0.48895 0.82296
 H1368 H 0.95106 0.51050 0.78566
 C1369 C 0.43467 0.01066 0.33536
 C1370 C 0.45337 -0.00557 0.34122
 C1371 C 0.46920 -0.00069 0.36024
 C1372 C 0.46670 0.02051 0.37405
 C1373 C 0.44769 0.03655 0.36846
 C1374 C 0.43190 0.03170 0.34933
 C1375 C 0.41878 0.00616 0.31419
 C1376 C 0.39395 0.01196 0.31481
 C1377 C 0.37952 0.00917 0.29430
 C1378 C 0.38961 0.00119 0.27233
 C1379 C 0.41402 -0.00671 0.27261
 C1380 C 0.42848 -0.00372 0.29299
 H1381 H 0.48335 -0.01369 0.36401
 H1382 H 0.44513 0.05308 0.37858
 H1383 H 0.36044 0.01381 0.29541
 H1384 H 0.42224 -0.01520 0.25710
 H1385 H 0.41788 0.04475 0.34510
 H1386 H 0.38565 0.01863 0.33118
 H1387 H 0.45577 -0.02216 0.33112
 H1388 H 0.44744 -0.00878 0.29194
   
