data_POSCAR
  _audit_creation_date              2014-09-24
  _audit_creation_method            'ToBaCCo'
  _symmetry_space_group_name_H-M    'P1'
  _symmetry_Int_Tables_number       1
  _symmetry_cell_setting            triclinic
  loop_
  _symmetry_equiv_pos_as_xyz
 x,y,z
_cell_length_a 47.7946
_cell_length_b 47.7736
_cell_length_c 47.7720
_cell_angle_alpha 90.024200
_cell_angle_beta 90.018700
_cell_angle_gamma 89.977800
loop_
  _atom_site_label
  _atom_site_type_symbol
  _atom_site_fract_x
  _atom_site_fract_y
  _atom_site_fract_z
O1 O 0.27093 1.02538 0.02250
 O2 O 0.26715 0.96804 -0.02864
 O3 O 0.26961 1.02231 -0.03207
 O4 O 0.26760 0.97080 0.02515
 O5 O 0.22142 0.97273 0.02515
 O6 O 0.22370 1.02686 -0.02953
 O7 O 0.22123 0.97215 -0.02978
 O8 O 0.22479 1.02652 0.02492
 Cu9 Cu 0.27346 0.99649 -0.00332
 Cu10 Cu 0.21812 0.99978 -0.00238
 C11 C 0.24856 1.03534 0.03286
 C12 C 0.24358 0.96036 -0.03823
 C13 C 0.24701 1.03362 -0.04033
 C14 C 0.24414 0.96282 0.03472
 O15 O 0.77211 0.52679 0.52753
 O16 O 0.77188 0.47207 0.47348
 O17 O 0.77271 0.52695 0.47356
 O18 O 0.77038 0.47202 0.52765
 O19 O 0.72418 0.47353 0.52704
 O20 O 0.72651 0.52766 0.47230
 O21 O 0.72570 0.47333 0.47212
 O22 O 0.72590 0.52769 0.52705
 Cu23 Cu 0.77640 0.49930 0.50062
 Cu24 Cu 0.72093 0.50062 0.49950
 C25 C 0.74911 0.53659 0.53649
 C26 C 0.74882 0.46336 0.46356
 C27 C 0.74999 0.53673 0.46380
 C28 C 0.74685 0.46356 0.53667
 O29 O 0.73379 0.97469 1.03019
 O30 O 0.73334 1.02514 0.97200
 O31 O 0.73350 0.97131 0.97545
 O32 O 0.73447 1.02934 1.02628
 O33 O 0.78049 1.02723 1.02765
 O34 O 0.77970 0.97166 0.97436
 O35 O 0.77952 1.02653 0.97296
 O36 O 0.77980 0.97264 1.02820
 Cu37 Cu 0.72914 1.00014 1.00117
 Cu38 Cu 0.78452 0.99962 1.00075
 C39 C 0.75681 0.96444 1.03876
 C40 C 0.75633 1.03460 0.96271
 C41 C 0.75648 0.96177 0.96608
 C42 C 0.75767 1.03813 1.03589
 O43 O 0.22769 0.47303 0.52469
 O44 O 0.23087 0.52671 0.46974
 O45 O 0.22906 0.47256 0.46989
 O46 O 0.23064 0.52697 0.52449
 O47 O 0.27683 0.52522 0.52479
 O48 O 0.27520 0.47018 0.47088
 O49 O 0.27706 0.52506 0.47069
 O50 O 0.27385 0.47056 0.52510
 Cu51 Cu 0.22493 0.50000 0.49710
 Cu52 Cu 0.28039 0.49751 0.49790
 C53 C 0.25019 0.46267 0.53429
 C54 C 0.25447 0.53518 0.46099
 C55 C 0.25186 0.46207 0.46113
 C56 C 0.25404 0.53539 0.53389
 O57 O 1.02767 0.22745 0.02463
 O58 O 0.97009 0.22833 -0.02695
 O59 O 1.02445 0.22498 -0.02988
 O60 O 0.97331 0.22946 0.02745
 O61 O 0.97251 0.27546 0.02300
 O62 O 1.02951 0.27091 -0.02870
 O63 O 0.97533 0.27395 -0.03134
 O64 O 1.02676 0.27366 0.02566
 Cu65 Cu 0.99870 0.22288 -0.00103
 Cu66 Cu 1.00126 0.27814 -0.00302
 C67 C 1.03643 0.25056 0.03449
 C68 C 0.96329 0.25134 -0.03852
 C69 C 1.03616 0.24715 -0.03864
 C70 C 0.96367 0.25319 0.03453
 O71 O 0.52640 0.72794 0.53038
 O72 O 0.47412 0.72748 0.47402
 O73 O 0.52861 0.72776 0.47577
 O74 O 0.47246 0.72769 0.52882
 O75 O 0.47285 0.77393 0.52909
 O76 O 0.52623 0.77388 0.47368
 O77 O 0.47204 0.77368 0.47530
 O78 O 0.52778 0.77412 0.52866
 Cu79 Cu 0.50046 0.72307 0.50222
 Cu80 Cu 0.49991 0.77858 0.50176
 C81 C 0.53608 0.75109 0.53907
 C82 C 0.46385 0.75043 0.46536
 C83 C 0.53651 0.75086 0.46524
 C84 C 0.46320 0.75086 0.53806
 O85 O 0.02835 0.72241 -0.02387
 O86 O -0.02857 0.72542 0.02799
 O87 O -0.02612 0.72341 -0.02646
 O88 O 0.02565 0.72488 0.03053
 O89 O 0.02922 0.77073 0.02600
 O90 O -0.02815 0.76947 -0.02569
 O91 O -0.02512 0.77150 0.02884
 O92 O 0.02631 0.76823 -0.02857
 Cu93 Cu -0.00024 0.71940 0.00218
 Cu94 Cu 0.00064 0.77463 -0.00009
 C95 C 0.03666 0.74475 -0.03568
 C96 C -0.03598 0.74897 0.03786
 C97 C -0.03655 0.74617 -0.03547
 C98 C 0.03661 0.74802 0.03769
 O99 O 0.52827 0.22912 0.47182
 O100 O 0.47441 0.22959 0.52694
 O101 O 0.47339 0.22844 0.47220
 O102 O 0.52883 0.23072 0.52584
 O103 O 0.52617 0.27688 0.52629
 O104 O 0.47432 0.27461 0.46943
 O105 O 0.47157 0.27563 0.52366
 O106 O 0.52796 0.27537 0.47142
 Cu107 Cu 0.50122 0.22479 0.49931
 Cu108 Cu 0.49999 0.28029 0.49775
 C109 C 0.53737 0.25222 0.46236
 C110 C 0.46354 0.25268 0.53439
 C111 C 0.46487 0.25116 0.46127
 C112 C 0.53671 0.25423 0.53540
 O113 O 1.02502 0.03041 0.27546
 O114 O 0.97168 -0.02494 0.27745
 O115 O 1.02629 -0.02380 0.27684
 O116 O 0.97127 0.02998 0.27527
 O117 O 0.97158 0.02899 0.22904
 O118 O 1.02419 -0.02735 0.23079
 O119 O 0.96967 -0.02504 0.23137
 O120 O 1.02642 0.02736 0.22935
 Cu121 Cu 0.99849 0.00292 0.28090
 Cu122 Cu 0.99801 0.00082 0.22548
 C123 C 1.03499 0.03819 0.25212
 C124 C 0.96114 -0.03423 0.25484
 C125 C 1.03451 -0.03487 0.25410
 C126 C 0.96239 0.03899 0.25188
 O127 O 0.52734 0.52227 0.77752
 O128 O 0.46903 0.47216 0.77667
 O129 O 0.52330 0.46798 0.77704
 O130 O 0.47302 0.52647 0.77636
 O131 O 0.47076 0.52378 0.73027
 O132 O 0.52678 0.47079 0.73103
 O133 O 0.47226 0.46925 0.73064
 O134 O 0.52528 0.52531 0.73143
 Cu135 Cu 0.49810 0.49723 0.78156
 Cu136 Cu 0.49883 0.49728 0.72617
 C137 C 0.53583 0.53282 0.75466
 C138 C 0.46114 0.46166 0.75357
 C139 C 0.53412 0.45988 0.75414
 C140 C 0.46282 0.53464 0.75320
 O141 O 0.96915 1.02324 0.72875
 O142 O 1.02518 0.97024 0.72874
 O143 O 0.97090 0.96882 0.73096
 O144 O 1.02363 1.02467 0.72672
 O145 O 1.02827 1.02363 0.77270
 O146 O 0.96977 0.97360 0.77693
 O147 O 1.02395 0.96934 0.77495
 O148 O 0.97403 1.02801 0.77437
 Cu149 Cu 0.99703 0.99659 0.72413
 Cu150 Cu 0.99916 0.99886 0.77940
 C151 C 0.96246 1.03529 0.75153
 C152 C 1.03354 0.96021 0.75189
 C153 C 0.96093 0.96207 0.75465
 C154 C 1.03544 1.03321 0.74896
 O155 O 0.47050 0.52931 0.22895
 O156 O 0.52602 0.47598 0.22684
 O157 O 0.47124 0.47526 0.22796
 O158 O 0.52503 0.53069 0.22848
 O159 O 0.52778 0.52732 0.27450
 O160 O 0.47149 0.47496 0.27421
 O161 O 0.52507 0.47314 0.27300
 O162 O 0.47312 0.52987 0.27512
 Cu163 Cu 0.49820 0.50295 0.22339
 Cu164 Cu 0.49936 0.50140 0.27888
 C165 C 0.46260 0.53889 0.25242
 C166 C 0.53451 0.46503 0.24953
 C167 C 0.46219 0.46574 0.25108
 C168 C 0.53590 0.53808 0.25161
 O169 O 0.25043 0.17640 0.20800
 O170 O 0.28170 0.16813 0.24645
 O171 O 0.17893 0.21140 0.24989
 O172 O 0.16851 0.24823 0.27562
 O173 O 0.21231 0.24828 0.17424
 O174 O 0.25047 0.28009 0.16607
 O175 O 0.25529 0.28777 0.31912
 O176 O 0.22126 0.25187 0.32712
 O177 O 0.32453 0.24950 0.28443
 O178 O 0.33295 0.21830 0.24473
 O179 O 0.29060 0.32136 0.24640
 O180 O 0.25167 0.33114 0.21696
 O181 O 0.25279 0.32123 0.28535
 O182 O 0.22026 0.32899 0.24457
 O183 O 0.32399 0.28750 0.24802
 O184 O 0.33160 0.24740 0.21428
 O185 O 0.29159 0.24863 0.31872
 O186 O 0.25295 0.21833 0.32804
 O187 O 0.25283 0.21007 0.17438
 O188 O 0.28205 0.24968 0.16579
 O189 O 0.17921 0.25048 0.20844
 O190 O 0.17373 0.28325 0.24821
 O191 O 0.21183 0.17707 0.24688
 O192 O 0.25079 0.16887 0.27819
 Zr193 Zr 0.25004 0.19904 0.24582
 O194 O 0.27700 0.22272 0.27144
 Zr195 Zr 0.20169 0.24887 0.24634
 O196 O 0.22625 0.27446 0.27253
 Zr197 Zr 0.25031 0.24800 0.19654
 O198 O 0.27677 0.27412 0.22019
 Zr199 Zr 0.25343 0.24984 0.29678
 O200 O 0.22610 0.22387 0.27336
 Zr201 Zr 0.30162 0.24955 0.24685
 O202 O 0.27730 0.22307 0.22084
 Zr203 Zr 0.25275 0.29898 0.24739
 O204 O 0.22604 0.27543 0.22103
 O205 O 0.22413 0.22249 0.22005
 O206 O 0.27929 0.27602 0.27338
 C207 C 0.25220 0.18441 0.18238
 C208 C 0.18640 0.18556 0.24913
 C209 C 0.18681 0.24998 0.18263
 C210 C 0.25408 0.31339 0.31102
 C211 C 0.31709 0.24895 0.31027
 C212 C 0.31618 0.31322 0.24735
 H213 H 0.28869 0.20985 0.28263
 H214 H 0.28822 0.28563 0.20739
 H215 H 0.21194 0.21051 0.20833
 H216 H 0.21391 0.28596 0.28454
 H217 H 0.20693 0.23796 0.32158
 H218 H 0.17548 0.25715 0.29294
 H219 H 0.32927 0.26413 0.20231
 H220 H 0.29739 0.23749 0.17252
 H221 H 0.26545 0.20301 0.32195
 H222 H 0.23715 0.17517 0.29246
 H223 H 0.26311 0.32487 0.20090
 H224 H 0.23692 0.29442 0.17247
 H225 H 0.29650 0.17464 0.23351
 H226 H 0.32821 0.20368 0.25859
 H227 H 0.17839 0.29580 0.23240
 H228 H 0.20794 0.32659 0.26103
 O229 O 0.74838 0.82252 0.20998
 O230 O 0.71723 0.83136 0.24865
 O231 O 0.82107 0.79178 0.25720
 O232 O 0.83190 0.75470 0.28319
 O233 O 0.79190 0.74787 0.18081
 O234 O 0.75294 0.71799 0.17176
 O235 O 0.74939 0.71507 0.32497
 O236 O 0.77875 0.75569 0.33195
 O237 O 0.67616 0.75097 0.28705
 O238 O 0.66924 0.78155 0.24543
 O239 O 0.71232 0.67886 0.25369
 O240 O 0.75374 0.66993 0.22298
 O241 O 0.74800 0.68051 0.29226
 O242 O 0.78198 0.67105 0.25433
 O243 O 0.67822 0.71179 0.24955
 O244 O 0.66996 0.75031 0.21751
 O245 O 0.70836 0.74890 0.32204
 O246 O 0.73970 0.78298 0.33217
 O247 O 0.75384 0.78801 0.17752
 O248 O 0.72216 0.74930 0.16968
 O249 O 0.82396 0.75314 0.21564
 O250 O 0.82916 0.72032 0.25570
 O251 O 0.78761 0.82475 0.24914
 O252 O 0.74753 0.83382 0.27915
 Zr253 Zr 0.75004 0.80166 0.24879
 O254 O 0.72340 0.77796 0.27473
 Zr255 Zr 0.79991 0.75346 0.25266
 O256 O 0.77540 0.72759 0.27859
 Zr257 Zr 0.75308 0.75094 0.20131
 O258 O 0.72632 0.72514 0.22496
 Zr259 Zr 0.74696 0.75208 0.30131
 O260 O 0.77385 0.77862 0.27802
 Zr261 Zr 0.70006 0.75003 0.25001
 O262 O 0.72449 0.77600 0.22366
 Zr263 Zr 0.74997 0.70168 0.25369
 O264 O 0.77716 0.72514 0.22765
 O265 O 0.77759 0.77814 0.22475
 O266 O 0.72219 0.72483 0.27798
 C267 C 0.75098 0.81379 0.18467
 C268 C 0.81297 0.81722 0.25397
 C269 C 0.81716 0.74993 0.18979
 C270 C 0.74866 0.68920 0.31770
 C271 C 0.68306 0.74968 0.31302
 C272 C 0.68657 0.68631 0.25163
 H273 H 0.71133 0.79069 0.28573
 H274 H 0.71552 0.71301 0.21214
 H275 H 0.78992 0.78997 0.21305
 H276 H 0.78788 0.71685 0.29113
 H277 H 0.79000 0.77242 0.32711
 H278 H 0.82326 0.74905 0.30111
 H279 H 0.67620 0.73684 0.20307
 H280 H 0.70767 0.76318 0.17486
 H281 H 0.74506 0.80102 0.32369
 H282 H 0.76302 0.83080 0.29258
 H283 H 0.73832 0.67234 0.20938
 H284 H 0.76490 0.70301 0.17963
 H285 H 0.70307 0.82445 0.23520
 H286 H 0.67174 0.79518 0.26083
 H287 H 0.82466 0.70691 0.24054
 H288 H 0.79521 0.67608 0.26944
 O289 O 0.75177 0.17496 0.78580
 O290 O 0.72233 0.16663 0.74666
 O291 O 0.82425 0.21239 0.74857
 O292 O 0.83241 0.24847 0.71916
 O293 O 0.78942 0.24771 0.82156
 O294 O 0.74999 0.27745 0.83042
 O295 O 0.74846 0.28845 0.67725
 O296 O 0.78100 0.25281 0.66851
 O297 O 0.67773 0.25033 0.71110
 O298 O 0.67062 0.21482 0.74939
 O299 O 0.70910 0.31941 0.74944
 O300 O 0.74865 0.32912 0.78114
 O301 O 0.74566 0.32124 0.71166
 O302 O 0.77870 0.32999 0.75154
 O303 O 0.67668 0.28469 0.75158
 O304 O 0.66971 0.24309 0.78043
 O305 O 0.71091 0.25004 0.67697
 O306 O 0.75028 0.21896 0.66746
 O307 O 0.75242 0.20768 0.82048
 O308 O 0.71937 0.24521 0.82941
 O309 O 0.82265 0.25184 0.78766
 O310 O 0.82811 0.28393 0.74879
 O311 O 0.79174 0.17757 0.74605
 O312 O 0.75258 0.16910 0.71541
 Zr313 Zr 0.75296 0.19847 0.74853
 O314 O 0.72563 0.22218 0.72341
 Zr315 Zr 0.80037 0.24937 0.74972
 O316 O 0.77531 0.27504 0.72402
 Zr317 Zr 0.75160 0.24621 0.79912
 O318 O 0.72454 0.27225 0.77603
 Zr319 Zr 0.74902 0.25024 0.69900
 O320 O 0.77674 0.22439 0.72197
 Zr321 Zr 0.70035 0.24769 0.74879
 O322 O 0.72522 0.22123 0.77420
 Zr323 Zr 0.74778 0.29834 0.74927
 O324 O 0.77508 0.27485 0.77524
 O325 O 0.77827 0.22186 0.77505
 O326 O 0.72214 0.27512 0.72280
 C327 C 0.75195 0.18223 0.81172
 C328 C 0.81711 0.18651 0.74682
 C329 C 0.81485 0.25049 0.81335
 C330 C 0.74668 0.31387 0.68580
 C331 C 0.68538 0.25063 0.68533
 C332 C 0.68375 0.31060 0.75085
 H333 H 0.71421 0.20948 0.71177
 H334 H 0.71281 0.28309 0.78918
 H335 H 0.79068 0.21004 0.78669
 H336 H 0.78740 0.28714 0.71240
 H337 H 0.79590 0.23961 0.67430
 H338 H 0.82627 0.26037 0.70337
 H339 H 0.67408 0.25671 0.79541
 H340 H 0.70587 0.23077 0.82322
 H341 H 0.73585 0.20476 0.67168
 H342 H 0.76544 0.17639 0.70090
 H343 H 0.73458 0.32387 0.79536
 H344 H 0.76206 0.29295 0.82386
 H345 H 0.70639 0.17324 0.75812
 H346 H 0.67332 0.20333 0.73238
 H347 H 0.82146 0.29741 0.76306
 H348 H 0.79126 0.32780 0.73523
 O349 O 0.24364 0.81884 0.78933
 O350 O 0.27548 0.82851 0.75168
 O351 O 0.17349 0.78278 0.75024
 O352 O 0.16471 0.74706 0.72108
 O353 O 0.20943 0.74310 0.82252
 O354 O 0.24943 0.71498 0.83022
 O355 O 0.25175 0.70969 0.67664
 O356 O 0.21644 0.74382 0.66930
 O357 O 0.31985 0.74706 0.71102
 O358 O 0.32938 0.77821 0.74827
 O359 O 0.28843 0.67570 0.74622
 O360 O 0.24946 0.66504 0.77875
 O361 O 0.24964 0.67533 0.70952
 O362 O 0.21898 0.66518 0.74996
 O363 O 0.32086 0.71027 0.75009
 O364 O 0.32652 0.75272 0.78201
 O365 O 0.28621 0.74956 0.67742
 O366 O 0.24558 0.77952 0.66970
 O367 O 0.24719 0.78487 0.82263
 O368 O 0.27953 0.74642 0.82981
 O369 O 0.17540 0.74425 0.78914
 O370 O 0.17008 0.71098 0.75002
 O371 O 0.20593 0.81764 0.74892
 O372 O 0.24563 0.82755 0.71948
 Zr373 Zr 0.24467 0.79676 0.75126
 O374 O 0.27188 0.77413 0.72506
 Zr375 Zr 0.19741 0.74587 0.75095
 O376 O 0.22219 0.72127 0.72391
 Zr377 Zr 0.24697 0.74702 0.79983
 O378 O 0.27363 0.72181 0.77539
 Zr379 Zr 0.24842 0.74695 0.69974
 O380 O 0.22075 0.77183 0.72387
 Zr381 Zr 0.29747 0.74755 0.74897
 O382 O 0.27290 0.77314 0.77559
 Zr383 Zr 0.24983 0.69690 0.74795
 O384 O 0.22301 0.71943 0.77518
 O385 O 0.21983 0.77227 0.77713
 O386 O 0.27541 0.72107 0.72225
 C387 C 0.24536 0.81057 0.81486
 C388 C 0.18057 0.80871 0.74916
 C389 C 0.18373 0.74278 0.81467
 C390 C 0.25126 0.68386 0.68408
 C391 C 0.31185 0.74860 0.68538
 C392 C 0.31377 0.68442 0.74817
 H393 H 0.28313 0.78737 0.71386
 H394 H 0.28550 0.71046 0.78797
 H395 H 0.20738 0.78363 0.78919
 H396 H 0.21006 0.70965 0.71183
 H397 H 0.20099 0.75609 0.67565
 H398 H 0.17062 0.73558 0.70489
 H399 H 0.32511 0.73611 0.79429
 H400 H 0.29298 0.76118 0.82432
 H401 H 0.25995 0.79372 0.67414
 H402 H 0.23250 0.82126 0.70473
 H403 H 0.26469 0.66901 0.79220
 H404 H 0.23854 0.69901 0.82275
 H405 H 0.29003 0.82244 0.76513
 H406 H 0.32152 0.79509 0.73925
 H407 H 0.17599 0.69822 0.76524
 H408 H 0.20500 0.66903 0.73517
 O409 O 0.24581 0.32092 0.70947
 O410 O 0.21600 0.32776 0.74862
 O411 O 0.32011 0.28716 0.74726
 O412 O 0.33064 0.25109 0.77532
 O413 O 0.28654 0.24989 0.67353
 O414 O 0.24854 0.21849 0.66488
 O415 O 0.24577 0.20722 0.81773
 O416 O 0.27913 0.24295 0.82659
 O417 O 0.17579 0.24284 0.78458
 O418 O 0.16643 0.27679 0.74617
 O419 O 0.21064 0.17452 0.74686
 O420 O 0.24994 0.16691 0.71393
 O421 O 0.24945 0.17446 0.78339
 O422 O 0.28058 0.16747 0.74259
 O423 O 0.17655 0.20764 0.74439
 O424 O 0.16736 0.24887 0.71502
 O425 O 0.20913 0.24537 0.81846
 O426 O 0.24795 0.27689 0.82768
 O427 O 0.24773 0.28821 0.67484
 O428 O 0.21651 0.24916 0.66607
 O429 O 0.32032 0.24845 0.70708
 O430 O 0.32744 0.21574 0.74569
 O431 O 0.28585 0.32025 0.74936
 O432 O 0.24638 0.32697 0.77972
 Zr433 Zr 0.24822 0.29750 0.74673
 O434 O 0.22224 0.27254 0.77197
 Zr435 Zr 0.29817 0.24905 0.74525
 O436 O 0.27456 0.22219 0.77112
 Zr437 Zr 0.24892 0.24975 0.69620
 O438 O 0.22337 0.22242 0.71942
 Zr439 Zr 0.24703 0.24554 0.79622
 O440 O 0.27337 0.27272 0.77317
 Zr441 Zr 0.19814 0.24582 0.74674
 O442 O 0.22149 0.27345 0.72121
 Zr443 Zr 0.24820 0.19754 0.74593
 O444 O 0.27408 0.22236 0.71983
 O445 O 0.27455 0.27544 0.72009
 O446 O 0.22140 0.21939 0.77250
 C447 C 0.24618 0.31361 0.68357
 C448 C 0.31165 0.31264 0.74919
 C449 C 0.31221 0.24903 0.68142
 C450 C 0.24758 0.18179 0.80918
 C451 C 0.18359 0.24371 0.81030
 C452 C 0.18490 0.18213 0.74541
 H453 H 0.21037 0.28479 0.78365
 H454 H 0.21211 0.21099 0.70637
 H455 H 0.28633 0.28794 0.70852
 H456 H 0.28726 0.21071 0.78274
 H457 H 0.29372 0.25657 0.82100
 H458 H 0.32515 0.23906 0.79123
 H459 H 0.17199 0.23497 0.70039
 H460 H 0.20230 0.26287 0.67237
 H461 H 0.23323 0.29081 0.82345
 H462 H 0.25980 0.32056 0.79416
 H463 H 0.23486 0.17101 0.70036
 H464 H 0.26105 0.20337 0.67154
 H465 H 0.20053 0.32055 0.73687
 H466 H 0.16957 0.28950 0.76221
 H467 H 0.32202 0.20267 0.73054
 H468 H 0.29413 0.17107 0.75784
 O469 O 0.74810 0.67583 0.71241
 O470 O 0.78126 0.66716 0.74935
 O471 O 0.67700 0.70719 0.75444
 O472 O 0.66723 0.74175 0.78463
 O473 O 0.70848 0.75026 0.68204
 O474 O 0.74668 0.78082 0.67398
 O475 O 0.75262 0.78317 0.82736
 O476 O 0.72007 0.74639 0.83487
 O477 O 0.82251 0.74702 0.79004
 O478 O 0.83124 0.71861 0.74947
 O479 O 0.78619 0.81988 0.75805
 O480 O 0.74592 0.82902 0.72592
 O481 O 0.74834 0.81784 0.79505
 O482 O 0.71645 0.82727 0.75580
 O483 O 0.82041 0.78709 0.75367
 O484 O 0.82801 0.74764 0.71952
 O485 O 0.78994 0.74714 0.82480
 O486 O 0.75200 0.71289 0.83304
 O487 O 0.74894 0.71073 0.67993
 O488 O 0.77826 0.75100 0.67254
 O489 O 0.67570 0.74695 0.71643
 O490 O 0.66964 0.77857 0.75659
 O491 O 0.71130 0.67412 0.75416
 O492 O 0.75199 0.66557 0.78190
 Zr493 Zr 0.74871 0.69709 0.75103
 O494 O 0.77537 0.72054 0.77707
 Zr495 Zr 0.69887 0.74534 0.75388
 O496 O 0.72309 0.77075 0.78067
 Zr497 Zr 0.74685 0.74793 0.70355
 O498 O 0.77300 0.77381 0.72780
 Zr499 Zr 0.75138 0.74615 0.80361
 O500 O 0.72444 0.72022 0.77969
 Zr501 Zr 0.79890 0.74869 0.75291
 O502 O 0.77482 0.72266 0.72637
 Zr503 Zr 0.74872 0.79691 0.75634
 O504 O 0.72221 0.77363 0.72951
 O505 O 0.72179 0.72072 0.72639
 O506 O 0.77633 0.77359 0.78075
 C507 C 0.74898 0.68476 0.68703
 C508 C 0.68550 0.68167 0.75490
 C509 C 0.68302 0.74933 0.69065
 C510 C 0.75077 0.80905 0.82032
 C511 C 0.81528 0.74696 0.81592
 C512 C 0.81196 0.81248 0.75624
 H513 H 0.78756 0.70762 0.78766
 H514 H 0.78397 0.78609 0.71530
 H515 H 0.70967 0.70895 0.71440
 H516 H 0.71067 0.78150 0.79326
 H517 H 0.70555 0.73289 0.82883
 H518 H 0.67326 0.75278 0.80108
 H519 H 0.82472 0.76428 0.70764
 H520 H 0.79327 0.73780 0.67798
 H521 H 0.76805 0.70057 0.82870
 H522 H 0.74021 0.67169 0.79780
 H523 H 0.76168 0.82672 0.71271
 H524 H 0.73512 0.79596 0.68214
 H525 H 0.79504 0.67418 0.73557
 H526 H 0.82609 0.70252 0.76141
 H527 H 0.67445 0.79214 0.74169
 H528 H 0.70283 0.82222 0.77055
 O529 O 0.25050 0.68062 0.29029
 O530 O 0.21990 0.67219 0.25164
 O531 O 0.32279 0.71554 0.24996
 O532 O 0.33164 0.75160 0.22106
 O533 O 0.29004 0.75476 0.32379
 O534 O 0.25031 0.78379 0.33292
 O535 O 0.24820 0.79215 0.17970
 O536 O 0.27965 0.75541 0.17108
 O537 O 0.17684 0.75216 0.21471
 O538 O 0.16943 0.72154 0.25562
 O539 O 0.21053 0.82510 0.25383
 O540 O 0.25173 0.83420 0.28291
 O541 O 0.24544 0.82549 0.21359
 O542 O 0.27993 0.83441 0.25195
 O543 O 0.17717 0.79128 0.25122
 O544 O 0.16943 0.75194 0.28433
 O545 O 0.20956 0.75589 0.18038
 O546 O 0.24779 0.72252 0.17087
 O547 O 0.25247 0.71409 0.32423
 O548 O 0.21996 0.75190 0.33276
 O549 O 0.32297 0.75354 0.28942
 O550 O 0.32820 0.78710 0.25087
 O551 O 0.28960 0.68134 0.24976
 O552 O 0.24999 0.67307 0.22008
 Zr553 Zr 0.25140 0.70324 0.25244
 O554 O 0.22436 0.72701 0.22709
 Zr555 Zr 0.29991 0.75301 0.25192
 O556 O 0.27512 0.77885 0.22618
 Zr557 Zr 0.25178 0.75210 0.30204
 O558 O 0.22490 0.77811 0.27876
 Zr559 Zr 0.24793 0.75430 0.20193
 O560 O 0.27530 0.72813 0.22500
 Zr561 Zr 0.19989 0.75352 0.25219
 O562 O 0.22454 0.72716 0.27794
 Zr563 Zr 0.24852 0.80315 0.25145
 O564 O 0.27570 0.77960 0.27738
 O565 O 0.27755 0.72658 0.27812
 O566 O 0.22195 0.78014 0.22563
 C567 C 0.25138 0.68848 0.31603
 C568 C 0.31516 0.68975 0.24929
 C569 C 0.31554 0.75456 0.31524
 C570 C 0.24636 0.81768 0.18787
 C571 C 0.18415 0.75396 0.18890
 C572 C 0.18496 0.81697 0.25276
 H573 H 0.21262 0.71420 0.21589
 H574 H 0.21358 0.78951 0.29179
 H575 H 0.28991 0.71465 0.28971
 H576 H 0.28729 0.79049 0.21419
 H577 H 0.29427 0.74196 0.17702
 H578 H 0.32543 0.76336 0.20520
 H579 H 0.17356 0.76711 0.29781
 H580 H 0.20547 0.73865 0.32613
 H581 H 0.23230 0.70942 0.17491
 H582 H 0.26193 0.68031 0.20478
 H583 H 0.23785 0.82972 0.29759
 H584 H 0.26288 0.79892 0.32644
 H585 H 0.20516 0.67842 0.26481
 H586 H 0.17326 0.70756 0.24083
 H587 H 0.32228 0.80035 0.26568
 H588 H 0.29243 0.83118 0.23578
 O589 O 0.74576 0.32396 0.28726
 O590 O 0.77712 0.33379 0.24928
 O591 O 0.67499 0.28834 0.24649
 O592 O 0.66626 0.25252 0.21750
 O593 O 0.70997 0.24868 0.31928
 O594 O 0.74963 0.21923 0.32659
 O595 O 0.75119 0.21579 0.17309
 O596 O 0.71750 0.25133 0.16643
 O597 O 0.82118 0.25322 0.20828
 O598 O 0.82894 0.28565 0.24811
 O599 O 0.78999 0.18143 0.24369
 O600 O 0.75039 0.17043 0.27503
 O601 O 0.75376 0.18143 0.20599
 O602 O 0.72052 0.17075 0.24509
 O603 O 0.82239 0.21612 0.24672
 O604 O 0.82923 0.25662 0.27821
 O605 O 0.78768 0.25506 0.17448
 O606 O 0.74789 0.28559 0.16657
 O607 O 0.74889 0.28946 0.31999
 O608 O 0.77984 0.25065 0.32738
 O609 O 0.67648 0.24960 0.28541
 O610 O 0.67145 0.21654 0.24624
 O611 O 0.70738 0.32326 0.24661
 O612 O 0.74685 0.33363 0.21761
 Zr613 Zr 0.74607 0.30229 0.24884
 O614 O 0.77321 0.27992 0.22234
 Zr615 Zr 0.69880 0.25140 0.24754
 O616 O 0.72372 0.22696 0.22053
 Zr617 Zr 0.74781 0.25195 0.29687
 O618 O 0.77484 0.22727 0.27234
 Zr619 Zr 0.74981 0.25297 0.19665
 O620 O 0.72227 0.27771 0.22100
 Zr621 Zr 0.79877 0.25325 0.24621
 O622 O 0.77397 0.27825 0.27312
 Zr623 Zr 0.75138 0.20254 0.24452
 O624 O 0.72415 0.22466 0.27169
 O625 O 0.72096 0.27760 0.27424
 O626 O 0.77687 0.22705 0.21907
 C627 C 0.74776 0.31533 0.31268
 C628 C 0.68203 0.31430 0.24600
 C629 C 0.68434 0.24848 0.31111
 C630 C 0.75318 0.19006 0.18057
 C631 C 0.81328 0.25448 0.18260
 C632 C 0.81532 0.19025 0.24520
 H633 H 0.78444 0.29327 0.21127
 H634 H 0.78667 0.21582 0.28487
 H635 H 0.70861 0.28904 0.28632
 H636 H 0.71168 0.21538 0.20833
 H637 H 0.70249 0.26402 0.17302
 H638 H 0.67242 0.24137 0.20118
 H639 H 0.82598 0.24123 0.29166
 H640 H 0.79419 0.26437 0.32148
 H641 H 0.76195 0.29991 0.17157
 H642 H 0.73440 0.32711 0.20239
 H643 H 0.76493 0.17467 0.28915
 H644 H 0.73768 0.20397 0.31927
 H645 H 0.79227 0.32691 0.26163
 H646 H 0.82456 0.29937 0.23325
 H647 H 0.67773 0.20334 0.26091
 H648 H 0.70762 0.17409 0.22925
 C649 C 0.25318 0.09958 0.09570
 C650 C 0.23242 0.07851 0.09730
 C651 C 0.23065 0.05799 0.07632
 C652 C 0.25019 0.05728 0.05445
 C653 C 0.27156 0.07730 0.05363
 C654 C 0.27295 0.09838 0.07383
 C655 C 0.25356 0.12185 0.11778
 C656 C 0.27093 0.14563 0.11617
 C657 C 0.27036 0.16593 0.13718
 C658 C 0.25293 0.16273 0.16051
 C659 C 0.23541 0.13929 0.16230
 C660 C 0.23504 0.11927 0.14078
 C661 C 0.21402 0.07767 0.12010
 C662 C 0.21574 0.09723 0.14171
 H663 H 0.19835 0.06134 0.12152
 H664 H 0.20132 0.09543 0.15913
 H665 H 0.21451 0.04207 0.07741
 H666 H 0.28701 0.07688 0.03705
 H667 H 0.28378 0.18411 0.13534
 H668 H 0.22134 0.13719 0.17999
 H669 H 0.28984 0.11325 0.07219
 H670 H 0.28468 0.14921 0.09864
 C671 C 0.75085 0.60130 0.59901
 C672 C 0.73073 0.57960 0.60051
 C673 C 0.72971 0.55895 0.57957
 C674 C 0.74951 0.55873 0.55794
 C675 C 0.77021 0.57946 0.55718
 C676 C 0.77076 0.60067 0.57727
 C677 C 0.75060 0.62350 0.62116
 C678 C 0.76731 0.64778 0.61966
 C679 C 0.76647 0.66777 0.64097
 C680 C 0.74944 0.66378 0.66447
 C681 C 0.73239 0.63996 0.66602
 C682 C 0.73229 0.62023 0.64422
 C683 C 0.71233 0.57820 0.62329
 C684 C 0.71357 0.59768 0.64502
 H685 H 0.69714 0.56141 0.62466
 H686 H 0.69927 0.59536 0.66248
 H687 H 0.71410 0.54251 0.58058
 H688 H 0.78582 0.57945 0.54074
 H689 H 0.77951 0.68625 0.63930
 H690 H 0.71861 0.63724 0.68385
 H691 H 0.78721 0.61605 0.57570
 H692 H 0.78080 0.65191 0.60205
 C693 C 0.75690 0.90037 0.10025
 C694 C 0.73240 0.91620 0.09522
 C695 C 0.73232 0.93710 0.07453
 C696 C 0.75689 0.94374 0.05969
 C697 C 0.78160 0.92907 0.06612
 C698 C 0.78156 0.90752 0.08585
 C699 C 0.75569 0.87721 0.12135
 C700 C 0.77757 0.85773 0.12498
 C701 C 0.77556 0.83669 0.14515
 C702 C 0.75201 0.83497 0.16246
 C703 C 0.72988 0.85382 0.15878
 C704 C 0.73120 0.87437 0.13778
 C705 C 0.70835 0.91152 0.11134
 C706 C 0.70803 0.89160 0.13269
 H707 H 0.68966 0.92389 0.10781
 H708 H 0.68913 0.88921 0.14499
 H709 H 0.71318 0.94864 0.07050
 H710 H 0.80103 0.93375 0.05543
 H711 H 0.79271 0.82207 0.14770
 H712 H 0.71143 0.85204 0.17187
 H713 H 0.80113 0.89697 0.08980
 H714 H 0.79618 0.85818 0.11221
 C715 C 0.24599 0.40064 0.59921
 C716 C 0.26619 0.39840 0.57764
 C717 C 0.26790 0.41912 0.55688
 C718 C 0.24876 0.44133 0.55643
 C719 C 0.22795 0.44285 0.57700
 C720 C 0.22668 0.42293 0.59832
 C721 C 0.24558 0.37872 0.62160
 C722 C 0.22877 0.38081 0.64578
 C723 C 0.22915 0.35974 0.66603
 C724 C 0.24580 0.33590 0.66235
 C725 C 0.26285 0.33375 0.63859
 C726 C 0.26343 0.35525 0.61863
 C727 C 0.28405 0.37518 0.57651
 C728 C 0.28223 0.35373 0.59620
 H729 H 0.29929 0.37328 0.55982
 H730 H 0.29615 0.33593 0.59414
 H731 H 0.28360 0.41754 0.54056
 H732 H 0.21284 0.45977 0.57682
 H733 H 0.21611 0.36187 0.68446
 H734 H 0.27633 0.31567 0.63611
 H735 H 0.21021 0.42509 0.61361
 H736 H 0.21559 0.39873 0.64964
 C737 C 0.75359 0.09512 0.89615
 C738 C 0.77326 0.09797 0.91816
 C739 C 0.77478 0.07758 0.93932
 C740 C 0.75588 0.05515 0.93973
 C741 C 0.73573 0.05295 0.91855
 C742 C 0.73472 0.07247 0.89685
 C743 C 0.75306 0.11693 0.87362
 C744 C 0.73664 0.11436 0.84922
 C745 C 0.73657 0.13547 0.82901
 C746 C 0.75239 0.15983 0.83290
 C747 C 0.76918 0.16243 0.85683
 C748 C 0.77019 0.14088 0.87680
 C749 C 0.79060 0.12158 0.91940
 C750 C 0.78862 0.14290 0.89953
 H751 H 0.80545 0.12396 0.93638
 H752 H 0.80205 0.16104 0.90176
 H753 H 0.78995 0.07971 0.95607
 H754 H 0.72081 0.03588 0.91867
 H755 H 0.72376 0.13297 0.81046
 H756 H 0.78203 0.18094 0.85952
 H757 H 0.71867 0.06981 0.88121
 H758 H 0.72404 0.09607 0.84517
 C759 C 0.25629 0.60097 0.39978
 C760 C 0.23628 0.57922 0.39776
 C761 C 0.23561 0.55797 0.41803
 C762 C 0.25556 0.55723 0.43952
 C763 C 0.27637 0.57782 0.44057
 C764 C 0.27664 0.59961 0.42111
 C765 C 0.25526 0.62415 0.37871
 C766 C 0.27160 0.64859 0.38108
 C767 C 0.26988 0.66962 0.36089
 C768 C 0.25225 0.66658 0.33766
 C769 C 0.23562 0.64255 0.33522
 C770 C 0.23642 0.62174 0.35595
 C771 C 0.21747 0.57855 0.37528
 C772 C 0.21802 0.59897 0.35443
 H773 H 0.20240 0.56169 0.37351
 H774 H 0.20337 0.59726 0.33720
 H775 H 0.21990 0.54163 0.41678
 H776 H 0.29209 0.57741 0.45691
 H777 H 0.28276 0.68815 0.36317
 H778 H 0.22152 0.64047 0.31755
 H779 H 0.29307 0.61499 0.42293
 H780 H 0.28550 0.65202 0.39854
 C781 C 0.24066 0.89623 0.90037
 C782 C 0.26546 0.90121 0.91572
 C783 C 0.26639 0.92281 0.93561
 C784 C 0.24241 0.93880 0.94176
 C785 C 0.21736 0.93261 0.92761
 C786 C 0.21654 0.91185 0.90701
 C787 C 0.24110 0.87412 0.87811
 C788 C 0.21894 0.87023 0.85902
 C789 C 0.22057 0.84961 0.83837
 C790 C 0.24396 0.83208 0.83670
 C791 C 0.26618 0.83571 0.85541
 C792 C 0.26527 0.85713 0.87554
 C793 C 0.28903 0.88427 0.91154
 C794 C 0.28869 0.86223 0.89240
 H795 H 0.30792 0.88780 0.92360
 H796 H 0.30731 0.84946 0.89024
 H797 H 0.28577 0.92664 0.94679
 H798 H 0.19837 0.94420 0.93202
 H799 H 0.20338 0.84714 0.82376
 H800 H 0.28454 0.82247 0.85361
 H801 H 0.19677 0.90810 0.89677
 H802 H 0.20050 0.88326 0.85933
 C803 C 0.75022 0.39889 0.40072
 C804 C 0.73033 0.42082 0.39917
 C805 C 0.72943 0.44141 0.42019
 C806 C 0.74907 0.44129 0.44200
 C807 C 0.76950 0.42028 0.44282
 C808 C 0.76997 0.39918 0.42262
 C809 C 0.74987 0.37676 0.37847
 C810 C 0.76642 0.35238 0.37994
 C811 C 0.76545 0.33242 0.35862
 C812 C 0.74839 0.33648 0.33513
 C813 C 0.73153 0.36046 0.33357
 C814 C 0.73161 0.38022 0.35538
 C815 C 0.71204 0.42246 0.37631
 C816 C 0.71312 0.40297 0.35456
 H817 H 0.69703 0.43941 0.37491
 H818 H 0.69887 0.40546 0.33708
 H819 H 0.71401 0.45804 0.41912
 H820 H 0.78499 0.42000 0.45938
 H821 H 0.77840 0.31387 0.36031
 H822 H 0.71775 0.36330 0.31575
 H823 H 0.78623 0.38360 0.42427
 H824 H 0.77991 0.34812 0.39753
 C825 C 0.09917 0.25221 0.09891
 C826 C 0.10064 0.23210 0.07718
 C827 C 0.07962 0.23105 0.05662
 C828 C 0.05791 0.25079 0.05658
 C829 C 0.05715 0.27142 0.07740
 C830 C 0.07734 0.27203 0.09846
 C831 C 0.12139 0.25203 0.12100
 C832 C 0.11994 0.26882 0.14523
 C833 C 0.14120 0.26795 0.16522
 C834 C 0.16461 0.25078 0.16131
 C835 C 0.16620 0.23373 0.13747
 C836 C 0.14443 0.23369 0.11770
 C837 C 0.12345 0.21372 0.07569
 C838 C 0.14521 0.21495 0.09514
 H839 H 0.12480 0.19853 0.05888
 H840 H 0.16265 0.20064 0.09278
 H841 H 0.08063 0.21549 0.04012
 H842 H 0.04066 0.28699 0.07754
 H843 H 0.13950 0.28101 0.18369
 H844 H 0.18396 0.21983 0.13481
 H845 H 0.07576 0.28847 0.11387
 H846 H 0.10237 0.28237 0.14938
 C847 C 0.59658 0.74967 0.60560
 C848 C 0.59934 0.76910 0.58338
 C849 C 0.57905 0.77013 0.56210
 C850 C 0.55685 0.75097 0.56183
 C851 C 0.55482 0.73099 0.58318
 C852 C 0.57424 0.73045 0.60495
 C853 C 0.61815 0.74974 0.62834
 C854 C 0.61551 0.73361 0.65289
 C855 C 0.63642 0.73398 0.67325
 C856 C 0.66063 0.75006 0.66947
 C857 C 0.66326 0.76666 0.64541
 C858 C 0.64190 0.76716 0.62521
 C859 C 0.62274 0.78672 0.58214
 C860 C 0.64389 0.78528 0.60224
 H861 H 0.62506 0.80138 0.56500
 H862 H 0.66188 0.79890 0.60000
 H863 H 0.58102 0.78518 0.54522
 H864 H 0.53791 0.71589 0.58319
 H865 H 0.63390 0.72121 0.69181
 H866 H 0.68168 0.77964 0.64275
 H867 H 0.57169 0.71452 0.62073
 H868 H 0.59736 0.72082 0.65691
 C869 C 0.09918 0.74075 0.90134
 C870 C 0.08384 0.76571 0.90567
 C871 C 0.06369 0.76714 0.92703
 C872 C 0.05727 0.74346 0.94335
 C873 C 0.07164 0.71832 0.93793
 C874 C 0.09246 0.71704 0.91747
 C875 C 0.12139 0.74050 0.87918
 C876 C 0.14029 0.71807 0.87567
 C877 C 0.16069 0.71893 0.85475
 C878 C 0.16226 0.74180 0.83656
 C879 C 0.14387 0.76435 0.83996
 C880 C 0.12399 0.76421 0.86159
 C881 C 0.08819 0.78887 0.88822
 C882 C 0.10732 0.78788 0.86620
 H883 H 0.07620 0.80789 0.89126
 H884 H 0.10954 0.80617 0.85296
 H885 H 0.05242 0.78657 0.93033
 H886 H 0.06712 0.69955 0.94982
 H887 H 0.17514 0.70158 0.85255
 H888 H 0.14570 0.78239 0.82629
 H889 H 0.10273 0.69717 0.91430
 H890 H 0.13999 0.69998 0.88918
 C891 C 0.59884 0.25220 0.39687
 C892 C 0.60128 0.23326 0.41952
 C893 C 0.58079 0.23290 0.44061
 C894 C 0.55876 0.25228 0.44024
 C895 C 0.55724 0.27200 0.41864
 C896 C 0.57686 0.27186 0.39705
 C897 C 0.62027 0.25104 0.37408
 C898 C 0.61753 0.26621 0.34897
 C899 C 0.63819 0.26475 0.32846
 C900 C 0.66226 0.24854 0.33260
 C901 C 0.66503 0.23288 0.35726
 C902 C 0.64382 0.23340 0.37765
 C903 C 0.62447 0.21539 0.42129
 C904 C 0.64567 0.21600 0.40119
 H905 H 0.62659 0.20115 0.43882
 H906 H 0.66348 0.20221 0.40381
 H907 H 0.58238 0.21808 0.45774
 H908 H 0.54048 0.28728 0.41820
 H909 H 0.63560 0.27681 0.30946
 H910 H 0.68335 0.21981 0.36023
 H911 H 0.57469 0.28756 0.38097
 H912 H 0.59946 0.27902 0.34460
 C913 C 0.90309 0.75142 0.10413
 C914 C 0.90102 0.73119 0.08255
 C915 C 0.92122 0.73025 0.06123
 C916 C 0.94279 0.75010 0.06025
 C917 C 0.94405 0.77097 0.08083
 C918 C 0.92462 0.77153 0.10267
 C919 C 0.88177 0.75096 0.12714
 C920 C 0.88378 0.76792 0.15123
 C921 C 0.86310 0.76700 0.17187
 C922 C 0.83976 0.74953 0.16880
 C923 C 0.83781 0.73216 0.14522
 C924 C 0.85892 0.73224 0.12479
 C925 C 0.87848 0.71246 0.08205
 C926 C 0.85754 0.71342 0.10234
 H927 H 0.87670 0.69718 0.06536
 H928 H 0.84024 0.69885 0.10070
 H929 H 0.91981 0.71444 0.04499
 H930 H 0.96045 0.78660 0.08032
 H931 H 0.86502 0.78050 0.19001
 H932 H 0.82005 0.71819 0.14306
 H933 H 0.92660 0.78803 0.11795
 H934 H 0.90123 0.78182 0.15461
 C935 C 0.39794 0.25323 0.59580
 C936 C 0.42094 0.23478 0.59870
 C937 C 0.44200 0.23423 0.57821
 C938 C 0.44124 0.25291 0.55560
 C939 C 0.41922 0.27214 0.55352
 C940 C 0.39767 0.27219 0.57321
 C941 C 0.37524 0.25227 0.61736
 C942 C 0.34988 0.26703 0.61444
 C943 C 0.32938 0.26552 0.63513
 C944 C 0.33381 0.24973 0.65944
 C945 C 0.35878 0.23463 0.66245
 C946 C 0.37915 0.23518 0.64126
 C947 C 0.42309 0.21754 0.62232
 C948 C 0.40300 0.21826 0.64349
 H949 H 0.44088 0.20367 0.62475
 H950 H 0.40587 0.20491 0.66160
 H951 H 0.45942 0.21981 0.58024
 H952 H 0.41847 0.28691 0.53634
 H953 H 0.31011 0.27710 0.63230
 H954 H 0.36199 0.22186 0.68094
 H955 H 0.38126 0.28747 0.57059
 H956 H 0.34530 0.27947 0.59617
 C957 C 0.90098 0.25358 0.89832
 C958 C 0.90449 0.22933 0.91492
 C959 C 0.92566 0.22836 0.93533
 C960 C 0.94247 0.25196 0.94071
 C961 C 0.93777 0.27648 0.92510
 C962 C 0.91757 0.27722 0.90406
 C963 C 0.87909 0.25335 0.87589
 C964 C 0.87661 0.27481 0.85578
 C965 C 0.85580 0.27367 0.83531
 C966 C 0.83671 0.25150 0.83485
 C967 C 0.83917 0.22981 0.85440
 C968 C 0.86071 0.23017 0.87439
 C969 C 0.88637 0.20651 0.91158
 C970 C 0.86447 0.20724 0.89226
 H971 H 0.88875 0.18804 0.92453
 H972 H 0.85065 0.18930 0.89086
 H973 H 0.92840 0.20946 0.94759
 H974 H 0.95004 0.29519 0.92879
 H975 H 0.85436 0.29031 0.81997
 H976 H 0.82485 0.21223 0.85341
 H977 H 0.91494 0.29665 0.89286
 H978 H 0.89083 0.29233 0.85518
 C979 C 0.40187 0.75021 0.40028
 C980 C 0.39925 0.76864 0.42333
 C981 C 0.41989 0.76900 0.44427
 C982 C 0.44233 0.75012 0.44335
 C983 C 0.44406 0.73082 0.42136
 C984 C 0.42425 0.73098 0.39990
 C985 C 0.38024 0.75147 0.37765
 C986 C 0.38299 0.73688 0.35219
 C987 C 0.36216 0.73850 0.33182
 C988 C 0.33788 0.75426 0.33649
 C989 C 0.33510 0.76932 0.36154
 C990 C 0.35644 0.76865 0.38177
 C991 C 0.37577 0.78606 0.42566
 C992 C 0.35446 0.78551 0.40569
 H993 H 0.37355 0.79990 0.44350
 H994 H 0.33644 0.79896 0.40872
 H995 H 0.41813 0.78346 0.46169
 H996 H 0.46112 0.71590 0.42051
 H997 H 0.36481 0.72694 0.31252
 H998 H 0.31662 0.78206 0.36494
 H999 H 0.42659 0.71567 0.38347
 H1000 H 0.40122 0.72443 0.34744
 C1001 C 0.09808 0.10241 0.25251
 C1002 C 0.09955 0.08022 0.23289
 C1003 C 0.07841 0.05974 0.23217
 C1004 C 0.05655 0.06027 0.25175
 C1005 C 0.05575 0.08165 0.27181
 C1006 C 0.07606 0.10259 0.27210
 C1007 C 0.12051 0.12432 0.25208
 C1008 C 0.11922 0.14883 0.26848
 C1009 C 0.14064 0.16863 0.26739
 C1010 C 0.16409 0.16429 0.25035
 C1011 C 0.16553 0.14013 0.23372
 C1012 C 0.14361 0.12051 0.23393
 C1013 C 0.12246 0.07822 0.21470
 C1014 C 0.14432 0.09758 0.21564
 H1015 H 0.12380 0.06109 0.19988
 H1016 H 0.16181 0.09482 0.20147
 H1017 H 0.07945 0.04285 0.21703
 H1018 H 0.03915 0.08230 0.28724
 H1019 H 0.13902 0.18733 0.28013
 H1020 H 0.18330 0.13708 0.21994
 H1021 H 0.07441 0.11840 0.28814
 H1022 H 0.10166 0.15334 0.28191
 C1023 C 0.60114 0.59462 0.75678
 C1024 C 0.57879 0.59712 0.73747
 C1025 C 0.55794 0.57643 0.73633
 C1026 C 0.55822 0.55399 0.75521
 C1027 C 0.57965 0.55219 0.77514
 C1028 C 0.60102 0.57208 0.77580
 C1029 C 0.62350 0.61658 0.75666
 C1030 C 0.64828 0.61427 0.77253
 C1031 C 0.66846 0.63537 0.77176
 C1032 C 0.66418 0.65947 0.75564
 C1033 C 0.63981 0.66187 0.73949
 C1034 C 0.61985 0.64032 0.73931
 C1035 C 0.57698 0.62059 0.72000
 C1036 C 0.59671 0.64205 0.72138
 H1037 H 0.55971 0.62270 0.70544
 H1038 H 0.59410 0.66005 0.70781
 H1039 H 0.54099 0.57824 0.72134
 H1040 H 0.58004 0.53512 0.79006
 H1041 H 0.68735 0.63304 0.78409
 H1042 H 0.63684 0.68016 0.72638
 H1043 H 0.61694 0.56970 0.79163
 H1044 H 0.65266 0.59616 0.78528
 C1045 C 0.90233 0.10065 0.75146
 C1046 C 0.90543 0.08318 0.72776
 C1047 C 0.92590 0.06206 0.72759
 C1048 C 0.94232 0.05676 0.75150
 C1049 C 0.93795 0.07322 0.77552
 C1050 C 0.91852 0.09503 0.77543
 C1051 C 0.88116 0.12375 0.75034
 C1052 C 0.87922 0.14463 0.77110
 C1053 C 0.85877 0.16542 0.76937
 C1054 C 0.83953 0.16553 0.74728
 C1055 C 0.84157 0.14530 0.72617
 C1056 C 0.86279 0.12494 0.72711
 C1057 C 0.88752 0.08634 0.70473
 C1058 C 0.86613 0.10624 0.70477
 H1059 H 0.88959 0.07272 0.68670
 H1060 H 0.85237 0.10738 0.68677
 H1061 H 0.92835 0.04915 0.70906
 H1062 H 0.94994 0.06962 0.79444
 H1063 H 0.85752 0.18113 0.78571
 H1064 H 0.82700 0.14581 0.70877
 H1065 H 0.91611 0.10692 0.79448
 H1066 H 0.89347 0.14545 0.78860
 C1067 C 0.40087 0.60412 0.25332
 C1068 C 0.39770 0.58078 0.23535
 C1069 C 0.41820 0.55975 0.23487
 C1070 C 0.44107 0.56085 0.25320
 C1071 C 0.44333 0.58306 0.27218
 C1072 C 0.42363 0.60463 0.27211
 C1073 C 0.37943 0.62691 0.25205
 C1074 C 0.38278 0.65267 0.26598
 C1075 C 0.36211 0.67319 0.26438
 C1076 C 0.33740 0.66839 0.24935
 C1077 C 0.33404 0.64307 0.23489
 C1078 C 0.35522 0.62267 0.23549
 C1079 C 0.37382 0.57831 0.21850
 C1080 C 0.35267 0.59844 0.21915
 H1081 H 0.37117 0.56024 0.20503
 H1082 H 0.33433 0.59530 0.20617
 H1083 H 0.41606 0.54214 0.22068
 H1084 H 0.46073 0.58403 0.28668
 H1085 H 0.36521 0.69272 0.27544
 H1086 H 0.31523 0.63955 0.22268
 H1087 H 0.42637 0.62129 0.28712
 H1088 H 0.40135 0.65751 0.27788
 C1089 C 0.09431 0.89388 0.75222
 C1090 C 0.09655 0.91615 0.73280
 C1091 C 0.07624 0.93739 0.73236
 C1092 C 0.05451 0.93762 0.75205
 C1093 C 0.05307 0.91633 0.77213
 C1094 C 0.07254 0.89454 0.77211
 C1095 C 0.11578 0.87104 0.75130
 C1096 C 0.11354 0.84632 0.76725
 C1097 C 0.13434 0.82585 0.76596
 C1098 C 0.15804 0.82973 0.74916
 C1099 C 0.16027 0.85395 0.73278
 C1100 C 0.13899 0.87423 0.73316
 C1101 C 0.11941 0.91746 0.71450
 C1102 C 0.14053 0.89733 0.71517
 H1103 H 0.12132 0.93468 0.69986
 H1104 H 0.15810 0.89961 0.70102
 H1105 H 0.07778 0.95424 0.71723
 H1106 H 0.03655 0.91631 0.78765
 H1107 H 0.13220 0.80716 0.77862
 H1108 H 0.17832 0.85670 0.71930
 H1109 H 0.07047 0.87870 0.78807
 H1110 H 0.09579 0.84229 0.78059
 C1111 C 0.59510 0.39872 0.24827
 C1112 C 0.59856 0.42239 0.23078
 C1113 C 0.57822 0.44363 0.23057
 C1114 C 0.55530 0.44237 0.24882
 C1115 C 0.55259 0.41961 0.26705
 C1116 C 0.57206 0.39787 0.26664
 C1117 C 0.61672 0.37609 0.24725
 C1118 C 0.61339 0.35024 0.26104
 C1119 C 0.63442 0.33004 0.26000
 C1120 C 0.65942 0.33525 0.24562
 C1121 C 0.66269 0.36059 0.23119
 C1122 C 0.64123 0.38070 0.23129
 C1123 C 0.62269 0.42511 0.21436
 C1124 C 0.64391 0.40505 0.21518
 H1125 H 0.62554 0.44337 0.20122
 H1126 H 0.66249 0.40843 0.20263
 H1127 H 0.58069 0.46163 0.21697
 H1128 H 0.53512 0.41848 0.28145
 H1129 H 0.63135 0.31046 0.27097
 H1130 H 0.68172 0.36440 0.21944
 H1131 H 0.56900 0.38091 0.28122
 H1132 H 0.59462 0.34512 0.27247
 C1133 C 0.89817 0.90321 0.25771
 C1134 C 0.90376 0.91764 0.23248
 C1135 C 0.92508 0.93786 0.23150
 C1136 C 0.94005 0.94526 0.25579
 C1137 C 0.93325 0.93190 0.28113
 C1138 C 0.91286 0.91100 0.28205
 C1139 C 0.87629 0.88074 0.25752
 C1140 C 0.87190 0.86251 0.28032
 C1141 C 0.85137 0.84175 0.27901
 C1142 C 0.83438 0.83917 0.25530
 C1143 C 0.83864 0.85694 0.23239
 C1144 C 0.86000 0.87712 0.23302
 C1145 C 0.88761 0.91230 0.20858
 C1146 C 0.86572 0.89301 0.20907
 H1147 H 0.89160 0.92362 0.18933
 H1148 H 0.85351 0.89000 0.19018
 H1149 H 0.92941 0.94838 0.21185
 H1150 H 0.94405 0.93722 0.30035
 H1151 H 0.84853 0.82782 0.29667
 H1152 H 0.82595 0.85433 0.21374
 H1153 H 0.90861 0.90149 0.30208
 H1154 H 0.88448 0.86357 0.29905
 C1155 C 0.39599 0.39963 0.75381
 C1156 C 0.41842 0.39767 0.73455
 C1157 C 0.43922 0.41843 0.73404
 C1158 C 0.43880 0.44042 0.75347
 C1159 C 0.41728 0.44168 0.77332
 C1160 C 0.39597 0.42172 0.77338
 C1161 C 0.37368 0.37764 0.75302
 C1162 C 0.34890 0.37946 0.76892
 C1163 C 0.32874 0.35838 0.76747
 C1164 C 0.33302 0.33479 0.75060
 C1165 C 0.35742 0.33286 0.73443
 C1166 C 0.37738 0.35441 0.73498
 C1167 C 0.42032 0.37468 0.71644
 C1168 C 0.40059 0.35318 0.71711
 H1169 H 0.43765 0.37298 0.70191
 H1170 H 0.40326 0.33558 0.70304
 H1171 H 0.45624 0.41702 0.71909
 H1172 H 0.41675 0.45839 0.78865
 H1173 H 0.30985 0.36035 0.77986
 H1174 H 0.36041 0.31497 0.72077
 H1175 H 0.37998 0.42369 0.78919
 H1176 H 0.34448 0.39716 0.78222
 C1177 C 0.09808 0.24234 0.89628
 C1178 C 0.10077 0.26218 0.91815
 C1179 C 0.08021 0.26396 0.93905
 C1180 C 0.05760 0.24530 0.93930
 C1181 C 0.05567 0.22475 0.91847
 C1182 C 0.07550 0.22338 0.89705
 C1183 C 0.11974 0.24207 0.87361
 C1184 C 0.11720 0.22566 0.84919
 C1185 C 0.13787 0.22638 0.82854
 C1186 C 0.16175 0.24301 0.83201
 C1187 C 0.16444 0.25952 0.85611
 C1188 C 0.14334 0.25974 0.87651
 C1189 C 0.12422 0.27972 0.91933
 C1190 C 0.14536 0.27806 0.89931
 H1191 H 0.12648 0.29466 0.93626
 H1192 H 0.16328 0.29180 0.90138
 H1193 H 0.08213 0.27946 0.95554
 H1194 H 0.03847 0.20999 0.91847
 H1195 H 0.13537 0.21363 0.80994
 H1196 H 0.18261 0.27292 0.85852
 H1197 H 0.07297 0.20718 0.88152
 H1198 H 0.09922 0.21254 0.84542
 C1199 C 0.59690 0.75138 0.39843
 C1200 C 0.59942 0.73195 0.42067
 C1201 C 0.57930 0.73142 0.44213
 C1202 C 0.55748 0.75105 0.44258
 C1203 C 0.55578 0.77110 0.42125
 C1204 C 0.57504 0.77116 0.39930
 C1205 C 0.61822 0.75065 0.37543
 C1206 C 0.61575 0.76671 0.35079
 C1207 C 0.63653 0.76580 0.33026
 C1208 C 0.66046 0.74928 0.33401
 C1209 C 0.66281 0.73263 0.35808
 C1210 C 0.64158 0.73268 0.37842
 C1211 C 0.62238 0.71373 0.42172
 C1212 C 0.64336 0.71457 0.40142
 H1213 H 0.62451 0.69904 0.43887
 H1214 H 0.66103 0.70051 0.40354
 H1215 H 0.58105 0.71627 0.45894
 H1216 H 0.53917 0.78655 0.42133
 H1217 H 0.63423 0.77858 0.31167
 H1218 H 0.68098 0.71927 0.36071
 H1219 H 0.57273 0.78711 0.38349
 H1220 H 0.59784 0.77989 0.34688
 C1221 C 0.90140 0.74394 0.90095
 C1222 C 0.90740 0.76926 0.91509
 C1223 C 0.92835 0.77003 0.93573
 C1224 C 0.94268 0.74551 0.94366
 C1225 C 0.93563 0.72019 0.93038
 C1226 C 0.91551 0.71942 0.90922
 C1227 C 0.87968 0.74421 0.87830
 C1228 C 0.87444 0.72095 0.86087
 C1229 C 0.85372 0.72215 0.84029
 C1230 C 0.83759 0.74632 0.83693
 C1231 C 0.84285 0.76978 0.85367
 C1232 C 0.86419 0.76911 0.87389
 C1233 C 0.89204 0.79350 0.90899
 C1234 C 0.87047 0.79326 0.88930
 H1235 H 0.89638 0.81285 0.92001
 H1236 H 0.85884 0.81241 0.88573
 H1237 H 0.93297 0.78971 0.94608
 H1238 H 0.94595 0.70081 0.93604
 H1239 H 0.84999 0.70401 0.82719
 H1240 H 0.83066 0.78868 0.85054
 H1241 H 0.91103 0.69935 0.89990
 H1242 H 0.88628 0.70181 0.86257
 C1243 C 0.40400 0.25073 0.39510
 C1244 C 0.39990 0.23400 0.41922
 C1245 C 0.42035 0.23339 0.44039
 C1246 C 0.44406 0.25055 0.43859
 C1247 C 0.44744 0.26806 0.41535
 C1248 C 0.42786 0.26798 0.39369
 C1249 C 0.38223 0.25009 0.37255
 C1250 C 0.38606 0.26300 0.34632
 C1251 C 0.36504 0.26213 0.32609
 C1252 C 0.33946 0.24891 0.33162
 C1253 C 0.33561 0.23547 0.35746
 C1254 C 0.35707 0.23532 0.37760
 C1255 C 0.37505 0.21877 0.42243
 C1256 C 0.35380 0.22001 0.40240
 H1257 H 0.37169 0.20624 0.44103
 H1258 H 0.33471 0.20836 0.40616
 H1259 H 0.41735 0.22039 0.45875
 H1260 H 0.46551 0.28167 0.41382
 H1261 H 0.36869 0.27215 0.30613
 H1262 H 0.31618 0.22451 0.36158
 H1263 H 0.43148 0.28198 0.37636
 H1264 H 0.40529 0.27347 0.34087
 C1265 C 0.09784 0.74920 0.10372
 C1266 C 0.10001 0.76813 0.08103
 C1267 C 0.07962 0.76810 0.05980
 C1268 C 0.05783 0.74844 0.06011
 C1269 C 0.05646 0.72890 0.08192
 C1270 C 0.07603 0.72936 0.10359
 C1271 C 0.11940 0.75055 0.12646
 C1272 C 0.11726 0.73499 0.15143
 C1273 C 0.13812 0.73659 0.17180
 C1274 C 0.16179 0.75335 0.16764
 C1275 C 0.16390 0.76941 0.14316
 C1276 C 0.14257 0.76865 0.12291
 C1277 C 0.12285 0.78643 0.07933
 C1278 C 0.14401 0.78622 0.09947
 H1279 H 0.12472 0.80073 0.06182
 H1280 H 0.16154 0.80037 0.09690
 H1281 H 0.08113 0.78285 0.04262
 H1282 H 0.03989 0.71343 0.08243
 H1283 H 0.13599 0.72422 0.19069
 H1284 H 0.18186 0.78296 0.14019
 H1285 H 0.07396 0.71377 0.11977
 H1286 H 0.09953 0.72172 0.15575
 C1287 C 0.59918 0.25590 0.60012
 C1288 C 0.60127 0.23661 0.57771
 C1289 C 0.58051 0.23590 0.55693
 C1290 C 0.55836 0.25513 0.55732
 C1291 C 0.55710 0.27521 0.57865
 C1292 C 0.57709 0.27548 0.59999
 C1293 C 0.62098 0.25497 0.62266
 C1294 C 0.61891 0.27064 0.64759
 C1295 C 0.63972 0.26890 0.66804
 C1296 C 0.66330 0.25198 0.66388
 C1297 C 0.66552 0.23613 0.63930
 C1298 C 0.64421 0.23691 0.61907
 C1299 C 0.62430 0.21858 0.57586
 C1300 C 0.64566 0.21921 0.59574
 H1301 H 0.62610 0.20407 0.55851
 H1302 H 0.66328 0.20516 0.59313
 H1303 H 0.58191 0.22079 0.54003
 H1304 H 0.54027 0.29040 0.57911
 H1305 H 0.63761 0.28115 0.68702
 H1306 H 0.68346 0.22253 0.63635
 H1307 H 0.57510 0.29133 0.61595
 H1308 H 0.60119 0.28396 0.65189
 C1309 C 0.89914 0.25707 0.09706
 C1310 C 0.92084 0.23701 0.09916
 C1311 C 0.94162 0.23560 0.07844
 C1312 C 0.94189 0.25484 0.05628
 C1313 C 0.92127 0.27563 0.05502
 C1314 C 0.89999 0.27665 0.07501
 C1315 C 0.87654 0.25690 0.11878
 C1316 C 0.85222 0.27345 0.11661
 C1317 C 0.83165 0.27242 0.13730
 C1318 C 0.83506 0.25532 0.16086
 C1319 C 0.85902 0.23856 0.16317
 C1320 C 0.87937 0.23867 0.14197
 C1321 C 0.92196 0.21885 0.12216
 C1322 C 0.90203 0.22013 0.14345
 H1323 H 0.93877 0.20373 0.12397
 H1324 H 0.90405 0.20593 0.16103
 H1325 H 0.95796 0.21991 0.07986
 H1326 H 0.92131 0.29083 0.03820
 H1327 H 0.81312 0.28530 0.13507
 H1328 H 0.86134 0.22476 0.18106
 H1329 H 0.88462 0.29307 0.07300
 H1330 H 0.84846 0.28693 0.09889
 C1331 C 0.39754 0.75196 0.59959
 C1332 C 0.41905 0.73163 0.60109
 C1333 C 0.44007 0.73088 0.58052
 C1334 C 0.44081 0.75111 0.55927
 C1335 C 0.42026 0.77200 0.55858
 C1336 C 0.39873 0.77234 0.57830
 C1337 C 0.37487 0.75138 0.62124
 C1338 C 0.35078 0.76832 0.61958
 C1339 C 0.33028 0.76711 0.64034
 C1340 C 0.33353 0.74943 0.66349
 C1341 C 0.35720 0.73217 0.66523
 C1342 C 0.37747 0.73247 0.64392
 C1343 C 0.41983 0.71269 0.62347
 C1344 C 0.39987 0.71356 0.64478
 H1345 H 0.43647 0.69733 0.62485
 H1346 H 0.40170 0.69882 0.66193
 H1347 H 0.45635 0.71509 0.58150
 H1348 H 0.42065 0.78794 0.54246
 H1349 H 0.31196 0.78036 0.63852
 H1350 H 0.35937 0.71791 0.68276
 H1351 H 0.38352 0.78895 0.57678
 H1352 H 0.34715 0.78229 0.60222
 C1353 C 0.24919 0.09514 0.89402
 C1354 C 0.22949 0.09742 0.91603
 C1355 C 0.22850 0.07691 0.93706
 C1356 C 0.24782 0.05482 0.93729
 C1357 C 0.26814 0.05328 0.91622
 C1358 C 0.26872 0.07302 0.89469
 C1359 C 0.24888 0.11686 0.87142
 C1360 C 0.26527 0.11472 0.84699
 C1361 C 0.26446 0.13568 0.82666
 C1362 C 0.24772 0.15945 0.83041
 C1363 C 0.23093 0.16161 0.85437
 C1364 C 0.23087 0.14020 0.87451
 C1365 C 0.21140 0.12047 0.91729
 C1366 C 0.21253 0.14173 0.89732
 H1367 H 0.19652 0.12239 0.93429
 H1368 H 0.19848 0.15941 0.89952
 H1369 H 0.21316 0.07854 0.95371
 H1370 H 0.28339 0.03650 0.91618
 H1371 H 0.27736 0.13353 0.80814
 H1372 H 0.21739 0.17966 0.85696
 H1373 H 0.28484 0.07084 0.87905
 H1374 H 0.27855 0.09690 0.84302
 C1375 C 0.75156 0.60310 0.40307
 C1376 C 0.73151 0.58138 0.40099
 C1377 C 0.73082 0.56002 0.42117
 C1378 C 0.75082 0.55911 0.44262
 C1379 C 0.77156 0.57979 0.44382
 C1380 C 0.77182 0.60170 0.42447
 C1381 C 0.75080 0.62618 0.38185
 C1382 C 0.76737 0.65051 0.38404
 C1383 C 0.76618 0.67123 0.36345
 C1384 C 0.74890 0.66794 0.34001
 C1385 C 0.73187 0.64416 0.33791
 C1386 C 0.73215 0.62368 0.35896
 C1387 C 0.71274 0.58077 0.37847
 C1388 C 0.71353 0.60108 0.35752
 H1389 H 0.69761 0.56398 0.37667
 H1390 H 0.69898 0.59936 0.34020
 H1391 H 0.71515 0.54366 0.41980
 H1392 H 0.78729 0.57930 0.46014
 H1393 H 0.77926 0.68963 0.36554
 H1394 H 0.71794 0.64195 0.32015
 H1395 H 0.78823 0.61708 0.42638
 H1396 H 0.78111 0.65404 0.40161
 C1397 C 0.75920 0.10344 0.09616
 C1398 C 0.73403 0.09654 0.08219
 C1399 C 0.73353 0.07458 0.06262
 C1400 C 0.75814 0.05995 0.05567
 C1401 C 0.78333 0.06782 0.06872
 C1402 C 0.78385 0.08906 0.08879
 C1403 C 0.75856 0.12609 0.11788
 C1404 C 0.78163 0.13232 0.13521
 C1405 C 0.77978 0.15330 0.15548
 C1406 C 0.75516 0.16880 0.15856
 C1407 C 0.73206 0.16293 0.14156
 C1408 C 0.73336 0.14126 0.12172
 C1409 C 0.70960 0.11188 0.08747
 C1410 C 0.70943 0.13413 0.10637
 H1411 H 0.69038 0.10685 0.07654
 H1412 H 0.69007 0.14554 0.10948
 H1413 H 0.71395 0.06932 0.05241
 H1414 H 0.80279 0.05730 0.06375
 H1415 H 0.79766 0.15753 0.16877
 H1416 H 0.71282 0.17461 0.14449
 H1417 H 0.80381 0.09409 0.09804
 H1418 H 0.80105 0.12089 0.13388
 C1419 C 0.25586 0.59954 0.59697
 C1420 C 0.23549 0.57804 0.59800
 C1421 C 0.23463 0.55754 0.57696
 C1422 C 0.25474 0.55724 0.55562
 C1423 C 0.27576 0.57765 0.55539
 C1424 C 0.27621 0.59875 0.57563
 C1425 C 0.25521 0.62180 0.61907
 C1426 C 0.27209 0.64597 0.61794
 C1427 C 0.27056 0.66621 0.63899
 C1428 C 0.25261 0.66256 0.66187
 C1429 C 0.23559 0.63873 0.66316
 C1430 C 0.23619 0.61877 0.64159
 C1431 C 0.21656 0.57678 0.62035
 C1432 C 0.21736 0.59632 0.64202
 H1433 H 0.20121 0.56011 0.62135
 H1434 H 0.20258 0.59416 0.65908
 H1435 H 0.21877 0.54131 0.57758
 H1436 H 0.29163 0.57755 0.53920
 H1437 H 0.28371 0.68463 0.63759
 H1438 H 0.22121 0.63622 0.68055
 H1439 H 0.29284 0.61396 0.57445
 H1440 H 0.28622 0.64986 0.60078
 C1441 C 0.75580 0.89483 0.90594
 C1442 C 0.73565 0.91653 0.90448
 C1443 C 0.73555 0.93793 0.92463
 C1444 C 0.75623 0.93891 0.94541
 C1445 C 0.77695 0.91818 0.94608
 C1446 C 0.77664 0.89622 0.92678
 C1447 C 0.75456 0.87184 0.88464
 C1448 C 0.77135 0.84760 0.88620
 C1449 C 0.76963 0.82694 0.86558
 C1450 C 0.75158 0.83021 0.84271
 C1451 C 0.73441 0.85395 0.84119
 C1452 C 0.73524 0.87436 0.86231
 C1453 C 0.71626 0.91717 0.88250
 C1454 C 0.71651 0.89691 0.86149
 H1455 H 0.70105 0.93395 0.88118
 H1456 H 0.70147 0.89865 0.84459
 H1457 H 0.71990 0.95435 0.92366
 H1458 H 0.79323 0.91875 0.96186
 H1459 H 0.78286 0.80860 0.86720
 H1460 H 0.71994 0.85619 0.82383
 H1461 H 0.79311 0.88084 0.92823
 H1462 H 0.78566 0.84408 0.90331
 C1463 C 0.25043 0.39960 0.39634
 C1464 C 0.27014 0.39778 0.41839
 C1465 C 0.27085 0.41854 0.43922
 C1466 C 0.25122 0.44037 0.43921
 C1467 C 0.23081 0.44132 0.41820
 C1468 C 0.23051 0.42136 0.39686
 C1469 C 0.25122 0.37784 0.37377
 C1470 C 0.23505 0.37982 0.34919
 C1471 C 0.23641 0.35898 0.32879
 C1472 C 0.25351 0.33546 0.33256
 C1473 C 0.27002 0.33339 0.35673
 C1474 C 0.26956 0.35476 0.37697
 C1475 C 0.28852 0.37497 0.41982
 C1476 C 0.28776 0.35357 0.39993
 H1477 H 0.30338 0.37335 0.43689
 H1478 H 0.30207 0.33611 0.40225
 H1479 H 0.28625 0.41736 0.45587
 H1480 H 0.21532 0.45788 0.41800
 H1481 H 0.22368 0.36104 0.31013
 H1482 H 0.28379 0.31552 0.35937
 H1483 H 0.21432 0.42312 0.38123
 H1484 H 0.22156 0.39746 0.34513
 C1485 C 0.24225 0.90220 0.10108
 C1486 C 0.26217 0.89994 0.07925
 C1487 C 0.26299 0.92014 0.05796
 C1488 C 0.24330 0.94185 0.05725
 C1489 C 0.22270 0.94331 0.07805
 C1490 C 0.22228 0.92389 0.09989
 C1491 C 0.24292 0.88095 0.12411
 C1492 C 0.22646 0.88324 0.14850
 C1493 C 0.22789 0.86283 0.16938
 C1494 C 0.24532 0.83949 0.16617
 C1495 C 0.26201 0.83712 0.14218
 C1496 C 0.26149 0.85799 0.12155
 C1497 C 0.28069 0.87724 0.07846
 C1498 C 0.27990 0.85635 0.09880
 H1499 H 0.29570 0.87531 0.06157
 H1500 H 0.29433 0.83894 0.09701
 H1501 H 0.27853 0.91859 0.04148
 H1502 H 0.20717 0.95983 0.07768
 H1503 H 0.21500 0.86506 0.18790
 H1504 H 0.27600 0.81937 0.13999
 H1505 H 0.20599 0.92600 0.11537
 H1506 H 0.21271 0.90080 0.15203
 C1507 C 0.74406 0.40095 0.60124
 C1508 C 0.76372 0.39884 0.57917
 C1509 C 0.76495 0.41972 0.55851
 C1510 C 0.74583 0.44196 0.55864
 C1511 C 0.72545 0.44328 0.57966
 C1512 C 0.72469 0.42321 0.60090
 C1513 C 0.74431 0.37895 0.62361
 C1514 C 0.72824 0.38103 0.64826
 C1515 C 0.72930 0.36000 0.66853
 C1516 C 0.74589 0.33616 0.66447
 C1517 C 0.76219 0.33399 0.64017
 C1518 C 0.76211 0.35551 0.62015
 C1519 C 0.78153 0.37561 0.57750
 C1520 C 0.78026 0.35408 0.59716
 H1521 H 0.79633 0.37378 0.56041
 H1522 H 0.79414 0.33631 0.59467
 H1523 H 0.78029 0.41827 0.54184
 H1524 H 0.71033 0.46019 0.57992
 H1525 H 0.71685 0.36221 0.68730
 H1526 H 0.77562 0.31591 0.63729
 H1527 H 0.70858 0.42525 0.61658
 H1528 H 0.71512 0.39892 0.65250
 C1529 C 0.09888 0.09678 0.74413
 C1530 C 0.10064 0.07550 0.76466
 C1531 C 0.07961 0.05504 0.76646
 C1532 C 0.05749 0.05468 0.74716
 C1533 C 0.05656 0.07489 0.72596
 C1534 C 0.07685 0.09583 0.72453
 C1535 C 0.12087 0.11909 0.74383
 C1536 C 0.11900 0.14304 0.72673
 C1537 C 0.13986 0.16343 0.72742
 C1538 C 0.16329 0.16022 0.74472
 C1539 C 0.16537 0.13659 0.76197
 C1540 C 0.14398 0.11642 0.76220
 C1541 C 0.12360 0.07450 0.78288
 C1542 C 0.14513 0.09414 0.78124
 H1543 H 0.12517 0.05800 0.79838
 H1544 H 0.16264 0.09223 0.79553
 H1545 H 0.08077 0.03900 0.78248
 H1546 H 0.03978 0.07480 0.71071
 H1547 H 0.13779 0.18172 0.71416
 H1548 H 0.18316 0.13446 0.77593
 H1549 H 0.07507 0.11084 0.70777
 H1550 H 0.10138 0.14670 0.71311
 C1551 C 0.60156 0.59962 0.25332
 C1552 C 0.57881 0.60256 0.23455
 C1553 C 0.55780 0.58200 0.23351
 C1554 C 0.55833 0.55924 0.25204
 C1555 C 0.58016 0.55705 0.27149
 C1556 C 0.60167 0.57679 0.27200
 C1557 C 0.62411 0.62141 0.25303
 C1558 C 0.64919 0.61863 0.26828
 C1559 C 0.66952 0.63958 0.26743
 C1560 C 0.66516 0.66403 0.25184
 C1561 C 0.64046 0.66686 0.23622
 C1562 C 0.62029 0.64545 0.23613
 C1563 C 0.57681 0.62634 0.21750
 C1564 C 0.59675 0.64764 0.21878
 H1565 H 0.55925 0.62880 0.20337
 H1566 H 0.59397 0.66586 0.20556
 H1567 H 0.54056 0.58412 0.21890
 H1568 H 0.58077 0.53975 0.28613
 H1569 H 0.68860 0.63679 0.27931
 H1570 H 0.63729 0.68542 0.22354
 H1571 H 0.61789 0.57408 0.28746
 H1572 H 0.65371 0.60028 0.28064
 C1573 C 0.09932 0.90275 0.25613
 C1574 C 0.07748 0.90089 0.23621
 C1575 C 0.05664 0.92163 0.23526
 C1576 C 0.05648 0.94350 0.25486
 C1577 C 0.07733 0.94452 0.27543
 C1578 C 0.09864 0.92457 0.27598
 C1579 C 0.12188 0.88099 0.25563
 C1580 C 0.14625 0.88296 0.27211
 C1581 C 0.16672 0.86218 0.27090
 C1582 C 0.16319 0.83874 0.25366
 C1583 C 0.13919 0.83663 0.23691
 C1584 C 0.11891 0.85794 0.23723
 C1585 C 0.07625 0.87807 0.21781
 C1586 C 0.09616 0.85671 0.21877
 H1587 H 0.05934 0.87643 0.20278
 H1588 H 0.09402 0.83926 0.20442
 H1589 H 0.04013 0.92039 0.21973
 H1590 H 0.07742 0.96112 0.29089
 H1591 H 0.18527 0.86427 0.28378
 H1592 H 0.13678 0.81884 0.22300
 H1593 H 0.11412 0.92639 0.29231
 H1594 H 0.15014 0.90057 0.28570
 C1595 C 0.59618 0.39463 0.75477
 C1596 C 0.59851 0.41739 0.73593
 C1597 C 0.57779 0.43824 0.73538
 C1598 C 0.55545 0.43759 0.75438
 C1599 C 0.55385 0.41577 0.77390
 C1600 C 0.57378 0.39437 0.77397
 C1601 C 0.61817 0.37225 0.75397
 C1602 C 0.61606 0.34714 0.76933
 C1603 C 0.63723 0.32702 0.76799
 C1604 C 0.66121 0.33167 0.75178
 C1605 C 0.66336 0.35638 0.73612
 C1606 C 0.64174 0.37629 0.73650
 C1607 C 0.62182 0.41956 0.71831
 C1608 C 0.64330 0.39980 0.71907
 H1609 H 0.62379 0.43714 0.70410
 H1610 H 0.66117 0.40272 0.70541
 H1611 H 0.57946 0.45547 0.72070
 H1612 H 0.53687 0.41506 0.78890
 H1613 H 0.63507 0.30793 0.78003
 H1614 H 0.68156 0.35974 0.72305
 H1615 H 0.57154 0.37811 0.78946
 H1616 H 0.59808 0.34249 0.78215
 C1617 C 0.90162 0.10527 0.25021
 C1618 C 0.89987 0.08291 0.23083
 C1619 C 0.92019 0.06165 0.23102
 C1620 C 0.94137 0.06151 0.25132
 C1621 C 0.94229 0.08291 0.27135
 C1622 C 0.92285 0.10469 0.27069
 C1623 C 0.88019 0.12808 0.24869
 C1624 C 0.88212 0.15288 0.26454
 C1625 C 0.86127 0.17327 0.26286
 C1626 C 0.83783 0.16921 0.24574
 C1627 C 0.83598 0.14494 0.22933
 C1628 C 0.85734 0.12475 0.23011
 C1629 C 0.87745 0.08152 0.21197
 C1630 C 0.85626 0.10161 0.21212
 H1631 H 0.87590 0.06425 0.19733
 H1632 H 0.83900 0.09926 0.19758
 H1633 H 0.91905 0.04473 0.21592
 H1634 H 0.95839 0.08300 0.28731
 H1635 H 0.86317 0.19203 0.27547
 H1636 H 0.81817 0.14205 0.21557
 H1637 H 0.92449 0.12058 0.28666
 H1638 H 0.89966 0.15706 0.27812
 C1639 C 0.40104 0.60017 0.75256
 C1640 C 0.39940 0.57787 0.73312
 C1641 C 0.42003 0.55690 0.73299
 C1642 C 0.44155 0.55701 0.75296
 C1643 C 0.44242 0.57840 0.77300
 C1644 C 0.42261 0.59988 0.77271
 C1645 C 0.37920 0.62266 0.75139
 C1646 C 0.38081 0.64734 0.76747
 C1647 C 0.35972 0.66750 0.76595
 C1648 C 0.33633 0.66338 0.74876
 C1649 C 0.33473 0.63918 0.73221
 C1650 C 0.35631 0.61918 0.73288
 C1651 C 0.37683 0.57624 0.71447
 C1652 C 0.35540 0.59610 0.71481
 H1653 H 0.37537 0.55901 0.69978
 H1654 H 0.33809 0.59358 0.70036
 H1655 H 0.41890 0.54000 0.71786
 H1656 H 0.45875 0.57872 0.78873
 H1657 H 0.36145 0.68618 0.77870
 H1658 H 0.31699 0.63626 0.71835
 H1659 H 0.42427 0.61577 0.78867
 H1660 H 0.39829 0.65161 0.78109
 C1661 C 0.89656 0.89936 0.75862
 C1662 C 0.91826 0.89738 0.73855
 C1663 C 0.93887 0.91824 0.73709
 C1664 C 0.93900 0.94047 0.75623
 C1665 C 0.91832 0.94173 0.77696
 C1666 C 0.89717 0.92158 0.77805
 C1667 C 0.87423 0.87734 0.75860
 C1668 C 0.85000 0.87910 0.77534
 C1669 C 0.82970 0.85810 0.77436
 C1670 C 0.83331 0.83467 0.75710
 C1671 C 0.85722 0.83274 0.74025
 C1672 C 0.87728 0.85418 0.74033
 C1673 C 0.91961 0.87435 0.72045
 C1674 C 0.89990 0.85290 0.72176
 H1675 H 0.93642 0.87266 0.70533
 H1676 H 0.90209 0.83532 0.70758
 H1677 H 0.95525 0.91682 0.72145
 H1678 H 0.91826 0.95862 0.79210
 H1679 H 0.81125 0.86000 0.78741
 H1680 H 0.85975 0.81492 0.72640
 H1681 H 0.88175 0.92358 0.79440
 H1682 H 0.84613 0.89670 0.78895
 C1683 C 0.40119 0.39965 0.25147
 C1684 C 0.39895 0.42186 0.23199
 C1685 C 0.41928 0.44312 0.23149
 C1686 C 0.44101 0.44336 0.25122
 C1687 C 0.44238 0.42214 0.27139
 C1688 C 0.42291 0.40039 0.27142
 C1689 C 0.37986 0.37671 0.25051
 C1690 C 0.38228 0.35199 0.26642
 C1691 C 0.36175 0.33129 0.26494
 C1692 C 0.33811 0.33489 0.24801
 C1693 C 0.33563 0.35919 0.23173
 C1694 C 0.35669 0.37972 0.23228
 C1695 C 0.37610 0.42306 0.21365
 C1696 C 0.35506 0.40282 0.21429
 H1697 H 0.37414 0.44024 0.19896
 H1698 H 0.33752 0.40499 0.20006
 H1699 H 0.41780 0.45990 0.21629
 H1700 H 0.45889 0.42213 0.28693
 H1701 H 0.36411 0.31258 0.27746
 H1702 H 0.31767 0.36173 0.21809
 H1703 H 0.42497 0.38463 0.28745
 H1704 H 0.40003 0.34807 0.27981
   
