data_POSCAR
  _audit_creation_date              2014-09-24
  _audit_creation_method            'ToBaCCo'
  _symmetry_space_group_name_H-M    'P1'
  _symmetry_Int_Tables_number       1
  _symmetry_cell_setting            triclinic
  loop_
  _symmetry_equiv_pos_as_xyz
 x,y,z
_cell_length_a 92.9563
_cell_length_b 93.0315
_cell_length_c 93.1770
_cell_angle_alpha 89.980000
_cell_angle_beta 89.980800
_cell_angle_gamma 89.946700
loop_
  _atom_site_label
  _atom_site_type_symbol
  _atom_site_fract_x
  _atom_site_fract_y
  _atom_site_fract_z
N1 N 0.36124 0.32133 0.33161
 N2 N 0.36106 0.33138 0.32167
 C3 C 0.37229 0.32935 0.31273
 C4 C 0.37980 0.31747 0.31740
 C5 C 0.37257 0.31259 0.32935
 H6 H 0.37488 0.33604 0.30359
 H7 H 0.37537 0.30342 0.33592
 Cu8 Cu 0.34630 0.34621 0.32156
 Cu9 Cu 0.34691 0.32045 0.34683
 Cu10 Cu 0.32050 0.34683 0.34681
 N11 N 0.33143 0.36094 0.32162
 N12 N 0.32137 0.36113 0.33156
 C13 C 0.31259 0.37242 0.32924
 C14 C 0.31745 0.37960 0.31725
 C15 C 0.32938 0.37211 0.31263
 H16 H 0.30341 0.37522 0.33580
 H17 H 0.33607 0.37469 0.30349
 N18 N 0.32143 0.33144 0.36132
 N19 N 0.33149 0.32138 0.36133
 C20 C 0.32930 0.31255 0.37258
 C21 C 0.31735 0.31732 0.37992
 C22 C 0.31258 0.32925 0.37258
 H23 H 0.33590 0.30337 0.37530
 H24 H 0.30339 0.33585 0.37529
 H25 H 0.33066 0.33058 0.33560
 H26 H 0.34224 0.34216 0.34710
 N27 N 0.36153 0.82137 -0.16890
 N28 N 0.36110 0.83119 -0.17908
 C29 C 0.37231 0.82917 -0.18805
 C30 C 0.38003 0.81749 -0.18316
 C31 C 0.37298 0.81276 -0.17105
 H32 H 0.37477 0.83574 -0.19731
 H33 H 0.37599 0.80381 -0.16427
 Cu34 Cu 0.34618 0.84590 -0.17900
 Cu35 Cu 0.34741 0.82057 -0.15338
 Cu36 Cu 0.32033 0.84626 -0.15424
 N37 N 0.33168 0.86106 -0.17884
 N38 N 0.32172 0.86132 -0.16879
 C39 C 0.31310 0.87278 -0.17089
 C40 C 0.31797 0.88001 -0.18285
 C41 C 0.32975 0.87238 -0.18769
 H42 H 0.30392 0.87554 -0.16430
 H43 H 0.33633 0.87485 -0.19694
 N44 N 0.32180 0.83162 -0.13896
 N45 N 0.33203 0.82173 -0.13877
 C46 C 0.32999 0.81308 -0.12733
 C47 C 0.31799 0.81782 -0.12006
 C48 C 0.31303 0.82954 -0.12762
 H49 H 0.33665 0.80397 -0.12453
 H50 H 0.30368 0.83598 -0.12509
 H51 H 0.33116 0.82978 -0.16478
 H52 H 0.34219 0.84209 -0.15352
 N53 N 0.86112 0.32196 -0.16848
 N54 N 0.86098 0.33204 -0.17839
 C55 C 0.87217 0.32998 -0.18737
 C56 C 0.87961 0.31802 -0.18276
 C57 C 0.87239 0.31315 -0.17080
 H58 H 0.87474 0.33663 -0.19653
 H59 H 0.87514 0.30393 -0.16428
 Cu60 Cu 0.84615 0.34680 -0.17842
 Cu61 Cu 0.84675 0.32101 -0.15327
 Cu62 Cu 0.82016 0.34726 -0.15345
 N63 N 0.83129 0.36154 -0.17851
 N64 N 0.82109 0.36159 -0.16871
 C65 C 0.81223 0.37281 -0.17108
 C66 C 0.81721 0.38009 -0.18296
 C67 C 0.82928 0.37275 -0.18747
 H68 H 0.80295 0.37552 -0.16461
 H69 H 0.83607 0.37541 -0.19651
 N70 N 0.82111 0.33186 -0.13892
 N71 N 0.83127 0.32191 -0.13882
 C72 C 0.82913 0.31313 -0.12750
 C73 C 0.81712 0.31783 -0.12023
 C74 C 0.81225 0.32966 -0.12767
 H75 H 0.83583 0.30405 -0.12469
 H76 H 0.80300 0.33620 -0.12502
 H77 H 0.83046 0.33101 -0.16459
 H78 H 0.84187 0.34265 -0.15295
 N79 N 0.86087 0.82158 0.33123
 N80 N 0.86060 0.83155 0.32120
 C81 C 0.87185 0.82956 0.31229
 C82 C 0.87946 0.81777 0.31705
 C83 C 0.87227 0.81292 0.32904
 H84 H 0.87442 0.83622 0.30312
 H85 H 0.87518 0.80386 0.33571
 Cu86 Cu 0.84574 0.84627 0.32122
 Cu87 Cu 0.84662 0.82075 0.34658
 Cu88 Cu 0.82036 0.84735 0.34675
 N89 N 0.83109 0.86121 0.32126
 N90 N 0.82122 0.86160 0.33140
 C91 C 0.81257 0.87301 0.32922
 C92 C 0.81733 0.88006 0.31711
 C93 C 0.82906 0.87238 0.31227
 H94 H 0.80357 0.87598 0.33595
 H95 H 0.83561 0.87481 0.30299
 N96 N 0.82133 0.83195 0.36129
 N97 N 0.83128 0.82179 0.36118
 C98 C 0.82908 0.81294 0.37242
 C99 C 0.81725 0.81782 0.37987
 C100 C 0.81255 0.82983 0.37261
 H101 H 0.83559 0.80367 0.37505
 H102 H 0.80345 0.83650 0.37540
 H103 H 0.83020 0.83089 0.33563
 H104 H 0.84207 0.84249 0.34684
 N105 N 0.63881 0.67865 0.33175
 N106 N 0.63897 0.66859 0.32182
 C107 C 0.62773 0.67062 0.31291
 C108 C 0.62025 0.68254 0.31756
 C109 C 0.62750 0.68741 0.32950
 H110 H 0.62515 0.66397 0.30375
 H111 H 0.62473 0.69660 0.33605
 Cu112 Cu 0.65384 0.65387 0.32161
 Cu113 Cu 0.65317 0.67957 0.34693
 Cu114 Cu 0.67958 0.65320 0.34692
 N115 N 0.66858 0.63901 0.32180
 N116 N 0.67865 0.63885 0.33173
 C117 C 0.68742 0.62755 0.32945
 C118 C 0.68254 0.62032 0.31752
 C119 C 0.67061 0.62779 0.31287
 H120 H 0.69663 0.62478 0.33600
 H121 H 0.66394 0.62522 0.30372
 N122 N 0.67869 0.66864 0.36137
 N123 N 0.66863 0.67868 0.36138
 C124 C 0.67085 0.68756 0.37259
 C125 C 0.68283 0.68282 0.37989
 C126 C 0.68757 0.67086 0.37258
 H127 H 0.66424 0.69673 0.37531
 H128 H 0.69675 0.66426 0.37530
 H129 H 0.66947 0.66950 0.33568
 H130 H 0.65784 0.65786 0.34714
 N131 N 0.63875 0.17827 -0.16845
 N132 N 0.63916 0.16846 -0.17861
 C133 C 0.62797 0.17054 -0.18759
 C134 C 0.62026 0.18222 -0.18271
 C135 C 0.62733 0.18691 -0.17059
 H136 H 0.62554 0.16403 -0.19689
 H137 H 0.62433 0.19587 -0.16383
 Cu138 Cu 0.65414 0.15382 -0.17866
 Cu139 Cu 0.65298 0.17909 -0.15308
 Cu140 Cu 0.67946 0.15270 -0.15313
 N141 N 0.66882 0.13887 -0.17867
 N142 N 0.67867 0.13848 -0.16852
 C143 C 0.68733 0.12707 -0.17070
 C144 C 0.68261 0.12001 -0.18281
 C145 C 0.67088 0.12770 -0.18766
 H146 H 0.69632 0.12410 -0.16394
 H147 H 0.66433 0.12527 -0.19694
 N148 N 0.67843 0.16804 -0.13853
 N149 N 0.66834 0.17807 -0.13850
 C150 C 0.67056 0.18694 -0.12728
 C151 C 0.68254 0.18222 -0.11999
 C152 C 0.68731 0.17028 -0.12731
 H153 H 0.66397 0.19614 -0.12459
 H154 H 0.69656 0.16374 -0.12465
 H155 H 0.66947 0.16923 -0.16410
 H156 H 0.65770 0.15741 -0.15300
 N157 N 0.13882 0.67860 -0.16836
 N158 N 0.13894 0.66851 -0.17826
 C159 C 0.12776 0.67060 -0.18723
 C160 C 0.12033 0.68256 -0.18261
 C161 C 0.12756 0.68741 -0.17067
 H162 H 0.12514 0.66391 -0.19635
 H163 H 0.12479 0.69660 -0.16411
 Cu164 Cu 0.15353 0.65351 -0.17823
 Cu165 Cu 0.15313 0.67945 -0.15312
 Cu166 Cu 0.17948 0.65305 -0.15312
 N167 N 0.16851 0.63890 -0.17826
 N168 N 0.17860 0.63876 -0.16836
 C169 C 0.18740 0.62748 -0.17066
 C170 C 0.18252 0.62026 -0.18260
 C171 C 0.17057 0.62772 -0.18722
 H172 H 0.19658 0.62469 -0.16410
 H173 H 0.16387 0.62511 -0.19634
 N174 N 0.17857 0.66843 -0.13862
 N175 N 0.16853 0.67849 -0.13862
 C176 C 0.17076 0.68735 -0.12740
 C177 C 0.18272 0.68259 -0.12009
 C178 C 0.18745 0.67063 -0.12740
 H179 H 0.16418 0.69655 -0.12469
 H180 H 0.19663 0.66402 -0.12470
 H181 H 0.16927 0.66924 -0.16445
 H182 H 0.15773 0.65773 -0.15274
 N183 N 0.13870 0.17855 0.33163
 N184 N 0.13884 0.16847 0.32172
 C185 C 0.12765 0.17054 0.31275
 C186 C 0.12021 0.18249 0.31737
 C187 C 0.12743 0.18735 0.32932
 H188 H 0.12506 0.16388 0.30361
 H189 H 0.12466 0.19655 0.33586
 Cu190 Cu 0.15365 0.15369 0.32170
 Cu191 Cu 0.15303 0.17946 0.34686
 Cu192 Cu 0.17947 0.15306 0.34683
 N193 N 0.16844 0.13890 0.32168
 N194 N 0.17854 0.13875 0.33157
 C195 C 0.18735 0.12749 0.32924
 C196 C 0.18247 0.12028 0.31729
 C197 C 0.17050 0.12773 0.31270
 H198 H 0.19657 0.12472 0.33576
 H199 H 0.16382 0.12515 0.30356
 N200 N 0.17853 0.16847 0.36133
 N201 N 0.16847 0.17852 0.36134
 C202 C 0.17067 0.18737 0.37257
 C203 C 0.18264 0.18262 0.37988
 C204 C 0.18740 0.17067 0.37255
 H205 H 0.16406 0.19654 0.37530
 H206 H 0.19658 0.16408 0.37527
 H207 H 0.16933 0.16936 0.33562
 H208 H 0.15777 0.15779 0.34719
 N209 N 0.63878 0.32134 0.66860
 N210 N 0.63910 0.33123 0.67869
 C211 C 0.62787 0.32921 0.68763
 C212 C 0.62023 0.31747 0.68282
 C213 C 0.62738 0.31269 0.67077
 H214 H 0.62535 0.33581 0.69685
 H215 H 0.62444 0.30369 0.66405
 Cu216 Cu 0.65398 0.34593 0.67868
 Cu217 Cu 0.65300 0.32052 0.65323
 Cu218 Cu 0.67926 0.34708 0.65308
 N219 N 0.66862 0.36086 0.67865
 N220 N 0.67843 0.36129 0.66846
 C221 C 0.68706 0.37270 0.67063
 C222 C 0.68237 0.37973 0.68278
 C223 C 0.67070 0.37201 0.68765
 H224 H 0.69603 0.37570 0.66386
 H225 H 0.66420 0.37441 0.69698
 N226 N 0.67828 0.33172 0.63852
 N227 N 0.66833 0.32158 0.63861
 C228 C 0.67056 0.31270 0.62740
 C229 C 0.68241 0.31755 0.61998
 C230 C 0.68709 0.32956 0.62723
 H231 H 0.66407 0.30343 0.62479
 H232 H 0.69622 0.33619 0.62446
 H233 H 0.66946 0.33058 0.66417
 H234 H 0.65756 0.34225 0.65304
 N235 N 0.63890 0.82155 1.16858
 N236 N 0.63877 0.83190 1.17822
 C237 C 0.62752 0.82992 1.18714
 C238 C 0.62031 0.81774 1.18277
 C239 C 0.62774 0.81266 1.17102
 H240 H 0.62475 0.83678 1.19608
 H241 H 0.62519 0.80326 1.16470
 Cu242 Cu 0.65346 0.84675 1.17802
 Cu243 Cu 0.65334 0.82052 1.15343
 Cu244 Cu 0.67961 0.84707 1.15330
 N245 N 0.66825 0.86148 1.17818
 N246 N 0.67852 0.86147 1.16845
 C247 C 0.68741 0.87262 1.17088
 C248 C 0.68240 0.87992 1.18273
 C249 C 0.67028 0.87264 1.18716
 H250 H 0.69677 0.87524 1.16451
 H251 H 0.66351 0.87531 1.19622
 N252 N 0.67881 0.83155 1.13892
 N253 N 0.66886 0.82141 1.13900
 C254 C 0.67111 0.81255 1.12778
 C255 C 0.68297 0.81741 1.12038
 C256 C 0.68764 0.82941 1.12764
 H257 H 0.66456 0.80334 1.12509
 H258 H 0.69670 0.83612 1.12483
 H259 H 0.66948 0.83092 1.16464
 H260 H 0.65800 0.84218 1.15268
 N261 N 0.13865 0.32178 1.16834
 N262 N 0.13872 0.33189 1.17822
 C263 C 0.12735 0.32999 1.18700
 C264 C 0.11987 0.31811 1.18230
 C265 C 0.12726 0.31311 1.17049
 H266 H 0.12473 0.33666 1.19614
 H267 H 0.12463 0.30380 1.16405
 Cu268 Cu 0.15370 0.34650 1.17839
 Cu269 Cu 0.15381 0.32028 1.15397
 Cu270 Cu 0.17948 0.34726 1.15313
 N271 N 0.16858 0.36117 1.17854
 N272 N 0.17858 0.36142 1.16853
 C273 C 0.18729 0.37275 1.17078
 C274 C 0.18243 0.37991 1.18277
 C275 C 0.17059 0.37237 1.18748
 H276 H 0.19640 0.37562 1.16415
 H277 H 0.16390 0.37496 1.19663
 N278 N 0.17843 0.33185 1.13861
 N279 N 0.16854 0.32165 1.13881
 C280 C 0.17066 0.31284 1.12752
 C281 C 0.18242 0.31776 1.12000
 C282 C 0.18713 0.32976 1.12724
 H283 H 0.16420 0.30352 1.12497
 H284 H 0.19624 0.33641 1.12443
 H285 H 0.17007 0.33126 1.16472
 H286 H 0.15792 0.34212 1.15304
 N287 N 0.13879 0.82164 0.66836
 N288 N 0.13899 0.83166 0.67833
 C289 C 0.12776 0.82966 0.68726
 C290 C 0.12024 0.81779 0.68258
 C291 C 0.12746 0.81292 0.67061
 H292 H 0.12518 0.83632 0.69642
 H293 H 0.12464 0.80379 0.66401
 Cu294 Cu 0.15378 0.84641 0.67834
 Cu295 Cu 0.15312 0.82074 0.65310
 Cu296 Cu 0.17953 0.84712 0.65312
 N297 N 0.16856 0.86117 0.67836
 N298 N 0.17860 0.86138 0.66840
 C299 C 0.18735 0.87266 0.67069
 C300 C 0.18249 0.87982 0.68268
 C301 C 0.17059 0.87234 0.68733
 H302 H 0.19650 0.87549 0.66410
 H303 H 0.16392 0.87491 0.69650
 N304 N 0.17860 0.83173 0.63862
 N305 N 0.16856 0.82168 0.63861
 C306 C 0.17078 0.81286 0.62735
 C307 C 0.18272 0.81763 0.62004
 C308 C 0.18747 0.82956 0.62738
 H309 H 0.16420 0.80368 0.62463
 H310 H 0.19665 0.83615 0.62467
 H311 H 0.16944 0.83082 0.66426
 H312 H 0.15781 0.84246 0.65280
 N313 N 0.36126 0.67856 0.66844
 N314 N 0.36114 0.66845 0.67832
 C315 C 0.37233 0.67050 0.68730
 C316 C 0.37976 0.68247 0.68272
 C317 C 0.37251 0.68736 0.67078
 H318 H 0.37492 0.66381 0.69644
 H319 H 0.37526 0.69658 0.66426
 Cu320 Cu 0.34635 0.65366 0.67832
 Cu321 Cu 0.34694 0.67949 0.65318
 Cu322 Cu 0.32054 0.65308 0.65317
 N323 N 0.33155 0.63888 0.67833
 N324 N 0.32145 0.63876 0.66843
 C325 C 0.31263 0.62753 0.67078
 C326 C 0.31749 0.62031 0.68275
 C327 C 0.32948 0.62772 0.68733
 H328 H 0.30342 0.62477 0.66425
 H329 H 0.33616 0.62513 0.69647
 N330 N 0.32148 0.66850 0.63866
 N331 N 0.33152 0.67855 0.63867
 C332 C 0.32934 0.68738 0.62740
 C333 C 0.31743 0.68260 0.62004
 C334 C 0.31266 0.67068 0.62738
 H335 H 0.33594 0.69656 0.62469
 H336 H 0.30350 0.66408 0.62465
 H337 H 0.33064 0.66936 0.66439
 H338 H 0.34223 0.65782 0.65281
 N339 N 0.36126 0.17842 1.16849
 N340 N 0.36109 0.16840 1.17846
 C341 C 0.37214 0.17060 1.18756
 C342 C 0.37954 0.18257 1.18295
 C343 C 0.37242 0.18732 1.17087
 H344 H 0.37474 0.16392 1.19670
 H345 H 0.37530 0.19638 1.16419
 Cu346 Cu 0.34645 0.15345 1.17828
 Cu347 Cu 0.34761 0.17842 1.15261
 Cu348 Cu 0.32047 0.15288 1.15324
 N349 N 0.33180 0.13856 1.17823
 N350 N 0.32161 0.13849 1.16842
 C351 C 0.31279 0.12728 1.17080
 C352 C 0.31773 0.12004 1.18271
 C353 C 0.32976 0.12740 1.18723
 H354 H 0.30350 0.12458 1.16435
 H355 H 0.33646 0.12479 1.19635
 N356 N 0.32142 0.16842 1.13883
 N357 N 0.33166 0.17828 1.13868
 C358 C 0.32940 0.18723 1.12753
 C359 C 0.31726 0.18269 1.12038
 C360 C 0.31243 0.17080 1.12774
 H361 H 0.33614 0.19626 1.12468
 H362 H 0.30317 0.16430 1.12510
 H363 H 0.33103 0.16903 1.16410
 H364 H 0.34202 0.15676 1.15269
 N365 N 0.86133 0.67831 1.16839
 N366 N 0.86116 0.66827 1.17835
 C367 C 0.87239 0.67028 1.18727
 C368 C 0.87988 0.68216 1.18259
 C369 C 0.87265 0.68704 1.17064
 H370 H 0.87494 0.66364 1.19645
 H371 H 0.87542 0.69622 1.16408
 Cu372 Cu 0.84625 0.65362 1.17862
 Cu373 Cu 0.84693 0.67927 1.15324
 Cu374 Cu 0.82037 0.65311 1.15345
 N375 N 0.83149 0.63883 1.17847
 N376 N 0.82133 0.63877 1.16864
 C377 C 0.81254 0.62751 1.17094
 C378 C 0.81751 0.62020 1.18279
 C379 C 0.82951 0.62758 1.18735
 H380 H 0.80329 0.62480 1.16445
 H381 H 0.83628 0.62489 1.19641
 N382 N 0.82127 0.66851 1.13897
 N383 N 0.83143 0.67844 1.13884
 C384 C 0.82928 0.68722 1.12754
 C385 C 0.81725 0.68253 1.12030
 C386 C 0.81239 0.67072 1.12775
 H387 H 0.83597 0.69628 1.12470
 H388 H 0.80315 0.66419 1.12511
 H389 H 0.83061 0.66931 1.16460
 H390 H 0.84212 0.65755 1.15310
 N391 N 0.86122 0.17835 0.66833
 N392 N 0.86106 0.16831 0.67828
 C393 C 0.87229 0.17034 0.68721
 C394 C 0.87976 0.18224 0.68254
 C395 C 0.87252 0.18711 0.67058
 H396 H 0.87487 0.16369 0.69638
 H397 H 0.87528 0.19629 0.66402
 Cu398 Cu 0.84620 0.15361 0.67855
 Cu399 Cu 0.84685 0.17926 0.65316
 Cu400 Cu 0.82051 0.15289 0.65316
 N401 N 0.83152 0.13874 0.67830
 N402 N 0.82147 0.13856 0.66835
 C403 C 0.81272 0.12727 0.67063
 C404 C 0.81759 0.12007 0.68260
 C405 C 0.82949 0.12754 0.68725
 H406 H 0.80354 0.12448 0.66408
 H407 H 0.83615 0.12498 0.69642
 N408 N 0.82138 0.16832 0.63871
 N409 N 0.83141 0.17838 0.63871
 C410 C 0.82917 0.18726 0.62750
 C411 C 0.81721 0.18252 0.62020
 C412 C 0.81249 0.17055 0.62750
 H413 H 0.83575 0.19644 0.62478
 H414 H 0.80332 0.16394 0.62478
 H415 H 0.83052 0.16914 0.66440
 H416 H 0.84222 0.15748 0.65299
 N417 N 0.32133 0.36124 0.66837
 N418 N 0.33141 0.36110 0.67827
 C419 C 0.32932 0.37225 0.68728
 C420 C 0.31734 0.37967 0.68269
 C421 C 0.31249 0.37248 0.67071
 H422 H 0.33602 0.37484 0.69640
 H423 H 0.30330 0.37527 0.66416
 Cu424 Cu 0.34640 0.34650 0.67824
 Cu425 Cu 0.32047 0.34697 0.65311
 Cu426 Cu 0.34686 0.32058 0.65311
 N427 N 0.36102 0.33153 0.67825
 N428 N 0.36115 0.32144 0.66836
 C429 C 0.37242 0.31263 0.67067
 C430 C 0.37965 0.31750 0.68261
 C431 C 0.37221 0.32945 0.68722
 H432 H 0.37520 0.30345 0.66411
 H433 H 0.37482 0.33614 0.69634
 N434 N 0.33148 0.32154 0.63859
 N435 N 0.32143 0.33160 0.63858
 C436 C 0.31260 0.32943 0.62732
 C437 C 0.31737 0.31749 0.61999
 C438 C 0.32930 0.31271 0.62734
 H439 H 0.30341 0.33602 0.62461
 H440 H 0.33590 0.30352 0.62463
 H441 H 0.33068 0.33078 0.66442
 H442 H 0.34222 0.34230 0.65274
 N443 N 0.32164 0.86145 0.16819
 N444 N 0.33171 0.86129 0.17811
 C445 C 0.32968 0.87248 0.18707
 C446 C 0.31774 0.87994 0.18244
 C447 C 0.31286 0.87274 0.17049
 H448 H 0.33635 0.87505 0.19621
 H449 H 0.30366 0.87553 0.16394
 Cu450 Cu 0.34646 0.84646 0.17825
 Cu451 Cu 0.32072 0.84712 0.15297
 Cu452 Cu 0.34712 0.82071 0.15299
 N453 N 0.36130 0.83172 0.17812
 N454 N 0.36146 0.82164 0.16821
 C455 C 0.37276 0.81288 0.17050
 C456 C 0.37999 0.81778 0.18243
 C457 C 0.37251 0.82970 0.18706
 H458 H 0.37554 0.80368 0.16396
 H459 H 0.37509 0.83638 0.19620
 N460 N 0.33168 0.82163 0.13851
 N461 N 0.32163 0.83169 0.13850
 C462 C 0.31280 0.82951 0.12725
 C463 C 0.31757 0.81758 0.11992
 C464 C 0.32950 0.81280 0.12727
 H465 H 0.30362 0.83612 0.12451
 H466 H 0.33610 0.80362 0.12455
 H467 H 0.33081 0.83082 0.16421
 H468 H 0.34244 0.84242 0.15270
 N469 N 0.82149 0.36145 0.16827
 N470 N 0.83156 0.36127 0.17819
 C471 C 0.82952 0.37244 0.18717
 C472 C 0.81761 0.37995 0.18252
 C473 C 0.81273 0.37276 0.17056
 H474 H 0.83623 0.37503 0.19627
 H475 H 0.80358 0.37561 0.16397
 Cu476 Cu 0.84643 0.34656 0.17818
 Cu477 Cu 0.82059 0.34716 0.15301
 Cu478 Cu 0.84698 0.32073 0.15301
 N479 N 0.86113 0.33169 0.17818
 N480 N 0.86129 0.32161 0.16827
 C481 C 0.87261 0.31286 0.17053
 C482 C 0.87984 0.31776 0.18247
 C483 C 0.87233 0.32965 0.18713
 H484 H 0.87544 0.30371 0.16394
 H485 H 0.87494 0.33636 0.19623
 N486 N 0.83155 0.32169 0.13852
 N487 N 0.82151 0.33176 0.13851
 C488 C 0.81266 0.32958 0.12728
 C489 C 0.81740 0.31763 0.11995
 C490 C 0.82934 0.31285 0.12728
 H491 H 0.80347 0.33618 0.12457
 H492 H 0.83592 0.30365 0.12457
 H493 H 0.83074 0.33091 0.16422
 H494 H 0.84236 0.34249 0.15264
 N495 N 0.82151 0.86146 0.66845
 N496 N 0.83139 0.86110 0.67855
 C497 C 0.82936 0.87228 0.68753
 C498 C 0.81761 0.87994 0.68274
 C499 C 0.81285 0.87286 0.67065
 H500 H 0.83594 0.87474 0.69677
 H501 H 0.80383 0.87583 0.66393
 Cu502 Cu 0.84607 0.84620 0.67856
 Cu503 Cu 0.82067 0.84724 0.65309
 Cu504 Cu 0.84710 0.82080 0.65309
 N505 N 0.86098 0.83152 0.67854
 N506 N 0.86133 0.82164 0.66844
 C507 C 0.87275 0.81300 0.67062
 C508 C 0.87985 0.81777 0.68268
 C509 C 0.87218 0.82950 0.68749
 H510 H 0.87571 0.80398 0.66391
 H511 H 0.87466 0.83608 0.69673
 N512 N 0.83174 0.82182 0.63852
 N513 N 0.82169 0.83188 0.63852
 C514 C 0.81285 0.82970 0.62726
 C515 C 0.81762 0.81776 0.61993
 C516 C 0.82955 0.81298 0.62728
 H517 H 0.80364 0.83628 0.62456
 H518 H 0.83612 0.80378 0.62459
 H519 H 0.83065 0.83077 0.66411
 H520 H 0.84241 0.84251 0.65293
 N521 N 0.67855 0.63866 0.66851
 N522 N 0.66850 0.63887 0.67846
 C523 C 0.67049 0.62762 0.68739
 C524 C 0.68239 0.62010 0.68272
 C525 C 0.68728 0.62733 0.67077
 H526 H 0.66381 0.62504 0.69654
 H527 H 0.69645 0.62452 0.66420
 Cu528 Cu 0.65371 0.65368 0.67846
 Cu529 Cu 0.67948 0.65299 0.65326
 Cu530 Cu 0.65308 0.67942 0.65325
 N531 N 0.63892 0.66850 0.67845
 N532 N 0.63874 0.67853 0.66850
 C533 C 0.62742 0.68729 0.67075
 C534 C 0.62019 0.68243 0.68272
 C535 C 0.62768 0.67052 0.68738
 H536 H 0.62463 0.69645 0.66417
 H537 H 0.62508 0.66385 0.69653
 N538 N 0.66853 0.67848 0.63876
 N539 N 0.67858 0.66842 0.63876
 C540 C 0.68745 0.67062 0.62753
 C541 C 0.68271 0.68257 0.62020
 C542 C 0.67075 0.68733 0.62752
 H543 H 0.69664 0.66402 0.62482
 H544 H 0.66416 0.69652 0.62480
 H545 H 0.66936 0.66929 0.66441
 H546 H 0.65775 0.65771 0.65292
 N547 N 0.67863 0.13840 0.16827
 N548 N 0.66857 0.13858 0.17822
 C549 C 0.67056 0.12733 0.18712
 C550 C 0.68245 0.11982 0.18244
 C551 C 0.68736 0.12706 0.17051
 H552 H 0.66387 0.12473 0.19626
 H553 H 0.69653 0.12426 0.16394
 Cu554 Cu 0.65379 0.15339 0.17823
 Cu555 Cu 0.67957 0.15274 0.15305
 Cu556 Cu 0.65317 0.17917 0.15306
 N557 N 0.63900 0.16819 0.17824
 N558 N 0.63883 0.17825 0.16830
 C559 C 0.62751 0.18699 0.17057
 C560 C 0.62027 0.18211 0.18251
 C561 C 0.62776 0.17020 0.18717
 H562 H 0.62472 0.19617 0.16400
 H563 H 0.62516 0.16352 0.19630
 N564 N 0.66863 0.17825 0.13858
 N565 N 0.67868 0.16819 0.13858
 C566 C 0.68756 0.17040 0.12735
 C567 C 0.68282 0.18237 0.12004
 C568 C 0.67086 0.18712 0.12736
 H569 H 0.69674 0.16380 0.12464
 H570 H 0.66427 0.19631 0.12465
 H571 H 0.66945 0.16903 0.16423
 H572 H 0.65785 0.15746 0.15271
 N573 N 0.17840 0.63863 0.16816
 N574 N 0.16832 0.63880 0.17808
 C575 C 0.17030 0.62755 0.18699
 C576 C 0.18221 0.62006 0.18234
 C577 C 0.18713 0.62731 0.17042
 H578 H 0.16363 0.62498 0.19615
 H579 H 0.19633 0.62452 0.16387
 Cu580 Cu 0.15360 0.65368 0.17829
 Cu581 Cu 0.17936 0.65300 0.15298
 Cu582 Cu 0.15300 0.67943 0.15298
 N583 N 0.13876 0.66844 0.17809
 N584 N 0.13862 0.67851 0.16817
 C585 C 0.12731 0.68728 0.17044
 C586 C 0.12005 0.68239 0.18237
 C587 C 0.12752 0.67046 0.18702
 H588 H 0.12455 0.69647 0.16389
 H589 H 0.12493 0.66379 0.19617
 N590 N 0.16847 0.67852 0.13853
 N591 N 0.17852 0.66845 0.13853
 C592 C 0.18739 0.67065 0.12731
 C593 C 0.18266 0.68260 0.11998
 C594 C 0.17071 0.68737 0.12730
 H595 H 0.19657 0.66403 0.12459
 H596 H 0.16412 0.69656 0.12457
 H597 H 0.16928 0.66931 0.16422
 H598 H 0.15764 0.65771 0.15273
 N599 N 0.17834 0.13842 0.66836
 N600 N 0.16827 0.13857 0.67829
 C601 C 0.17029 0.12733 0.68720
 C602 C 0.18222 0.11984 0.68255
 C603 C 0.18710 0.12711 0.67062
 H604 H 0.16360 0.12473 0.69634
 H605 H 0.19630 0.12434 0.66405
 Cu606 Cu 0.15341 0.15333 0.67842
 Cu607 Cu 0.17926 0.15278 0.65317
 Cu608 Cu 0.15290 0.17918 0.65318
 N609 N 0.13868 0.16822 0.67830
 N610 N 0.13855 0.17829 0.66838
 C611 C 0.12726 0.18708 0.67065
 C612 C 0.12000 0.18222 0.68258
 C613 C 0.12746 0.17028 0.68723
 H614 H 0.12451 0.19627 0.66409
 H615 H 0.12484 0.16361 0.69637
 N616 N 0.16833 0.17828 0.63871
 N617 N 0.17838 0.16822 0.63870
 C618 C 0.18727 0.17045 0.62749
 C619 C 0.18255 0.18243 0.62019
 C620 C 0.17057 0.18716 0.62750
 H621 H 0.19646 0.16385 0.62477
 H622 H 0.16397 0.19635 0.62479
 H623 H 0.16911 0.16901 0.66447
 H624 H 0.15750 0.15745 0.65290
 N625 N 0.32143 0.63865 0.33147
 N626 N 0.33151 0.63880 0.32155
 C627 C 0.32947 0.62762 0.31258
 C628 C 0.31752 0.62017 0.31719
 C629 C 0.31264 0.62738 0.32916
 H630 H 0.33617 0.62502 0.30345
 H631 H 0.30346 0.62459 0.33572
 Cu632 Cu 0.34634 0.65354 0.32156
 Cu633 Cu 0.32052 0.65294 0.34674
 Cu634 Cu 0.34694 0.67931 0.34675
 N635 N 0.36111 0.66834 0.32157
 N636 N 0.36126 0.67841 0.33149
 C637 C 0.37257 0.68716 0.32922
 C638 C 0.37981 0.68228 0.31727
 C639 C 0.37233 0.67037 0.31263
 H640 H 0.37535 0.69632 0.33578
 H641 H 0.37494 0.66369 0.30349
 N642 N 0.33151 0.67838 0.36125
 N643 N 0.32145 0.66835 0.36125
 C644 C 0.31260 0.67055 0.37250
 C645 C 0.31737 0.68247 0.37984
 C646 C 0.32931 0.68722 0.37250
 H647 H 0.30341 0.66396 0.37521
 H648 H 0.33591 0.69639 0.37522
 H649 H 0.33067 0.66919 0.33554
 H650 H 0.34226 0.65759 0.34709
 N651 N 0.32131 0.13841 0.83164
 N652 N 0.33142 0.13855 0.82175
 C653 C 0.32936 0.12740 0.81274
 C654 C 0.31737 0.11998 0.81730
 C655 C 0.31249 0.12718 0.82928
 H656 H 0.33605 0.12482 0.80360
 H657 H 0.30328 0.12442 0.83581
 Cu658 Cu 0.34622 0.15333 0.82176
 Cu659 Cu 0.32039 0.15272 0.84691
 Cu660 Cu 0.34679 0.17912 0.84691
 N661 N 0.36101 0.16811 0.82177
 N662 N 0.36112 0.17821 0.83165
 C663 C 0.37238 0.18701 0.82933
 C664 C 0.37963 0.18212 0.81739
 C665 C 0.37221 0.17016 0.81280
 H666 H 0.37512 0.19622 0.83586
 H667 H 0.37481 0.16348 0.80366
 N668 N 0.33136 0.17817 0.86142
 N669 N 0.32132 0.16812 0.86143
 C670 C 0.31249 0.17029 0.87270
 C671 C 0.31726 0.18221 0.88005
 C672 C 0.32918 0.18699 0.87269
 H673 H 0.30332 0.16369 0.87544
 H674 H 0.33577 0.19616 0.87540
 H675 H 0.33050 0.16901 0.83569
 H676 H 0.34208 0.15745 0.84727
 N677 N 0.82156 0.63867 0.83163
 N678 N 0.83141 0.63906 0.82149
 C679 C 0.82936 0.62789 0.81250
 C680 C 0.81764 0.62021 0.81733
 C681 C 0.81291 0.62727 0.82944
 H682 H 0.83591 0.62545 0.80322
 H683 H 0.80392 0.62430 0.83618
 Cu684 Cu 0.84604 0.65399 0.82143
 Cu685 Cu 0.82068 0.65293 0.84696
 Cu686 Cu 0.84686 0.67956 0.84675
 N687 N 0.86088 0.66873 0.82139
 N688 N 0.86111 0.67871 0.83140
 C689 C 0.87249 0.68738 0.82919
 C690 C 0.87971 0.68252 0.81723
 C691 C 0.87213 0.67071 0.81248
 H692 H 0.87537 0.69645 0.83585
 H693 H 0.87472 0.66405 0.80333
 N694 N 0.83153 0.67852 0.86135
 N695 N 0.82161 0.66834 0.86148
 C696 C 0.81283 0.67047 0.87280
 C697 C 0.81749 0.68249 0.88004
 C698 C 0.82930 0.68738 0.87257
 H699 H 0.80375 0.66378 0.87562
 H700 H 0.83578 0.69666 0.87518
 H701 H 0.83048 0.66939 0.83582
 H702 H 0.84238 0.65781 0.84705
 N703 N 0.82152 0.13844 0.33153
 N704 N 0.83162 0.13859 0.32163
 C705 C 0.82957 0.12743 0.31263
 C706 C 0.81760 0.12000 0.31721
 C707 C 0.81271 0.12720 0.32918
 H708 H 0.83626 0.12485 0.30349
 H709 H 0.80350 0.12443 0.33570
 Cu710 Cu 0.84640 0.15337 0.32165
 Cu711 Cu 0.82057 0.15274 0.34678
 Cu712 Cu 0.84693 0.17917 0.34678
 N713 N 0.86118 0.16817 0.32165
 N714 N 0.86128 0.17826 0.33154
 C715 C 0.87253 0.18707 0.32922
 C716 C 0.87979 0.18219 0.31728
 C717 C 0.87237 0.17022 0.31268
 H718 H 0.87526 0.19629 0.33574
 H719 H 0.87498 0.16355 0.30355
 N720 N 0.83149 0.17821 0.36128
 N721 N 0.82147 0.16815 0.36129
 C722 C 0.81262 0.17032 0.37255
 C723 C 0.81735 0.18225 0.37988
 C724 C 0.82928 0.18704 0.37254
 H725 H 0.80346 0.16370 0.37527
 H726 H 0.83586 0.19622 0.37526
 H727 H 0.83066 0.16904 0.33556
 H728 H 0.84225 0.15750 0.34715
 N729 N 0.67858 0.36136 0.33156
 N730 N 0.66847 0.36125 0.32167
 C731 C 0.67058 0.37239 0.31265
 C732 C 0.68257 0.37979 0.31723
 C733 C 0.68741 0.37258 0.32921
 H734 H 0.66390 0.37500 0.30350
 H735 H 0.69662 0.37532 0.33573
 Cu736 Cu 0.65366 0.34648 0.32167
 Cu737 Cu 0.67950 0.34704 0.34681
 Cu738 Cu 0.65310 0.32065 0.34678
 N739 N 0.63885 0.33170 0.32168
 N740 N 0.63876 0.32158 0.33155
 C741 C 0.62750 0.31278 0.32923
 C742 C 0.62025 0.31767 0.31729
 C743 C 0.62767 0.32964 0.31270
 H744 H 0.62477 0.30356 0.33574
 H745 H 0.62505 0.33634 0.30357
 N746 N 0.66852 0.32155 0.36128
 N747 N 0.67856 0.33161 0.36130
 C748 C 0.68741 0.32939 0.37254
 C749 C 0.68267 0.31742 0.37984
 C750 C 0.67073 0.31268 0.37250
 H751 H 0.69658 0.33599 0.37528
 H752 H 0.66415 0.30350 0.37520
 H753 H 0.66941 0.33079 0.33557
 H754 H 0.65782 0.34234 0.34717
 N755 N 0.67856 0.86148 0.83170
 N756 N 0.66847 0.86134 0.82180
 C757 C 0.67051 0.87252 0.81282
 C758 C 0.68247 0.87997 0.81742
 C759 C 0.68735 0.87274 0.82938
 H760 H 0.66383 0.87511 0.80368
 H761 H 0.69656 0.87549 0.83590
 Cu762 Cu 0.65368 0.84655 0.82175
 Cu763 Cu 0.67950 0.84714 0.84694
 Cu764 Cu 0.65307 0.82078 0.84696
 N765 N 0.63885 0.83180 0.82184
 N766 N 0.63871 0.82172 0.83175
 C767 C 0.62743 0.81294 0.82947
 C768 C 0.62018 0.81782 0.81752
 C769 C 0.62764 0.82975 0.81289
 H770 H 0.62467 0.80375 0.83601
 H771 H 0.62505 0.83642 0.80374
 N772 N 0.66851 0.82168 0.86144
 N773 N 0.67857 0.83171 0.86144
 C774 C 0.68742 0.82949 0.87267
 C775 C 0.68266 0.81754 0.88000
 C776 C 0.67071 0.81282 0.87268
 H777 H 0.69661 0.83607 0.87539
 H778 H 0.66410 0.80366 0.87540
 H779 H 0.66939 0.83088 0.83573
 H780 H 0.65780 0.84248 0.84727
 N781 N 0.17837 0.36125 0.83172
 N782 N 0.16832 0.36108 0.82178
 C783 C 0.17034 0.37230 0.81285
 C784 C 0.18224 0.37980 0.81752
 C785 C 0.18712 0.37256 0.82947
 H786 H 0.16366 0.37490 0.80371
 H787 H 0.19628 0.37535 0.83604
 Cu788 Cu 0.15348 0.34632 0.82170
 Cu789 Cu 0.17927 0.34693 0.84696
 Cu790 Cu 0.15290 0.32056 0.84698
 N791 N 0.13873 0.33148 0.82180
 N792 N 0.13856 0.32144 0.83175
 C793 C 0.12725 0.31269 0.82950
 C794 C 0.12001 0.31756 0.81755
 C795 C 0.12750 0.32945 0.81287
 H796 H 0.12446 0.30353 0.83609
 H797 H 0.12490 0.33613 0.80373
 N798 N 0.16831 0.32148 0.86147
 N799 N 0.17836 0.33152 0.86146
 C800 C 0.18720 0.32933 0.87271
 C801 C 0.18244 0.31741 0.88006
 C802 C 0.17051 0.31264 0.87272
 H803 H 0.19638 0.33592 0.87542
 H804 H 0.16392 0.30347 0.87545
 H805 H 0.16915 0.33068 0.83574
 H806 H 0.15752 0.34229 0.84725
 N807 N 0.17853 0.86137 0.33129
 N808 N 0.16865 0.86100 0.32118
 C809 C 0.17068 0.87217 0.31219
 C810 C 0.18241 0.87983 0.31699
 C811 C 0.18718 0.87276 0.32908
 H812 H 0.16410 0.87464 0.30294
 H813 H 0.19619 0.87572 0.33579
 Cu814 Cu 0.15398 0.84611 0.32121
 Cu815 Cu 0.17940 0.84717 0.34667
 Cu816 Cu 0.15299 0.82077 0.34673
 N817 N 0.13907 0.83145 0.32126
 N818 N 0.13873 0.82159 0.33139
 C819 C 0.12732 0.81295 0.32924
 C820 C 0.12020 0.81770 0.31717
 C821 C 0.12786 0.82941 0.31232
 H822 H 0.12438 0.80395 0.33598
 H823 H 0.12537 0.83597 0.30306
 N824 N 0.16837 0.82179 0.36129
 N825 N 0.17841 0.83184 0.36126
 C826 C 0.18728 0.82966 0.37250
 C827 C 0.18254 0.81773 0.37985
 C828 C 0.17060 0.81296 0.37254
 H829 H 0.19648 0.83624 0.37518
 H830 H 0.16403 0.80376 0.37526
 H831 H 0.16945 0.83072 0.33568
 H832 H 0.15767 0.84249 0.34684
 C833 C 0.24484 1.04523 0.25511
 C834 C 0.25530 1.04522 0.24475
 C835 C 0.25838 1.03093 0.24172
 N836 N 0.25008 1.02231 0.24995
 C837 C 0.24177 1.03095 0.25816
 C838 C 0.26870 1.02630 0.23150
 C839 C 0.27202 1.01178 0.22819
 C840 C 0.28213 1.00743 0.21812
 C841 C 0.28214 0.99261 0.21811
 C842 C 0.27204 0.98825 0.22818
 N843 N 0.26599 1.00001 0.23421
 C844 C 0.26874 0.97372 0.23148
 C845 C 0.25840 0.96911 0.24170
 C846 C 0.25533 0.95483 0.24474
 C847 C 0.24485 0.95484 0.25508
 C848 C 0.24178 0.96913 0.25812
 N849 N 0.25009 0.97775 0.24991
 C850 C 0.23145 0.97375 0.26835
 C851 C 0.22814 0.98828 0.27166
 C852 C 0.21803 0.99264 0.28173
 C853 C 0.21803 1.00746 0.28175
 C854 C 0.22814 1.01182 0.27168
 N855 N 0.23417 1.00005 0.26565
 C856 C 0.23145 1.02635 0.26839
 H857 H 0.24006 1.05473 0.25983
 H858 H 0.26008 1.05470 0.24000
 H859 H 0.24195 1.00004 0.25786
 H860 H 0.28882 1.01420 0.21144
 H861 H 0.28884 0.98584 0.21143
 H862 H 0.26011 0.94534 0.24000
 H863 H 0.24007 0.94536 0.25982
 H864 H 0.21133 1.01424 0.28842
 H865 H 0.25821 1.00002 0.24200
 H866 H 0.21133 0.98587 0.28840
 C867 C 0.24472 0.45477 0.75517
 C868 C 0.25518 0.45479 0.74481
 C869 C 0.25825 0.46907 0.74180
 N870 N 0.24996 0.47770 0.75005
 C871 C 0.24166 0.46905 0.75825
 C872 C 0.26858 0.47370 0.73156
 C873 C 0.27188 0.48823 0.72827
 C874 C 0.28198 0.49259 0.71820
 C875 C 0.28198 0.50741 0.71820
 C876 C 0.27187 0.51178 0.72827
 N877 N 0.26583 0.50000 0.73428
 C878 C 0.26855 0.52631 0.73157
 C879 C 0.25823 0.53091 0.74181
 C880 C 0.25513 0.54519 0.74486
 C881 C 0.24468 0.54517 0.75522
 C882 C 0.24163 0.53088 0.75826
 N883 N 0.24994 0.52226 0.75003
 C884 C 0.23131 0.52625 0.76850
 C885 C 0.22801 0.51172 0.77180
 C886 C 0.21790 0.50736 0.78188
 C887 C 0.21791 0.49254 0.78188
 C888 C 0.22802 0.48818 0.77181
 N889 N 0.23405 0.49995 0.76579
 C890 C 0.23133 0.47365 0.76850
 H891 H 0.23994 0.44528 0.75989
 H892 H 0.25995 0.44530 0.74004
 H893 H 0.24183 0.49996 0.75799
 H894 H 0.28868 0.48582 0.71152
 H895 H 0.28867 0.51419 0.71152
 H896 H 0.25990 0.55468 0.74012
 H897 H 0.23989 0.55465 0.75996
 H898 H 0.21121 0.48577 0.78855
 H899 H 0.25803 0.49999 0.74206
 H900 H 0.21120 0.51414 0.78855
 C901 C 0.74494 -0.04542 0.24492
 C902 C 0.75537 -0.04545 0.25529
 C903 C 0.75846 -0.03118 0.25833
 N904 N 0.75018 -0.02252 0.25010
 C905 C 0.74189 -0.03113 0.24187
 C906 C 0.76877 -0.02658 0.26858
 C907 C 0.77208 -0.01205 0.27187
 C908 C 0.78217 -0.00770 0.28194
 C909 C 0.78217 0.00712 0.28192
 C910 C 0.77208 0.01149 0.27184
 N911 N 0.76605 -0.00028 0.26584
 C912 C 0.76878 0.02602 0.26853
 C913 C 0.75846 0.03065 0.25828
 C914 C 0.75539 0.04494 0.25525
 C915 C 0.74494 0.04495 0.24488
 C916 C 0.74188 0.03068 0.24183
 N917 N 0.75018 0.02203 0.25005
 C918 C 0.73157 0.02608 0.23158
 C919 C 0.72827 0.01156 0.22829
 C920 C 0.71817 0.00720 0.21822
 C921 C 0.71817 -0.00762 0.21823
 C922 C 0.72828 -0.01197 0.22831
 N923 N 0.73430 -0.00021 0.23432
 C924 C 0.73159 -0.02650 0.23162
 H925 H 0.74016 -0.05490 0.24018
 H926 H 0.76013 -0.05495 0.26004
 H927 H 0.74208 -0.00023 0.24211
 H928 H 0.78885 -0.01448 0.28863
 H929 H 0.78886 0.01389 0.28860
 H930 H 0.76015 0.05442 0.26001
 H931 H 0.74016 0.05445 0.24016
 H932 H 0.71148 -0.01439 0.21156
 H933 H 0.75826 -0.00026 0.25805
 H934 H 0.71147 0.01398 0.21154
 C935 C 0.75533 0.54507 0.75536
 C936 C 0.74488 0.54508 0.74499
 C937 C 0.74183 0.53080 0.74193
 N938 N 0.75013 0.52216 0.75016
 C939 C 0.75841 0.53079 0.75840
 C940 C 0.73151 0.52619 0.73169
 C941 C 0.72821 0.51166 0.72838
 C942 C 0.71809 0.50731 0.71833
 C943 C 0.71810 0.49249 0.71832
 C944 C 0.72823 0.48811 0.72837
 N945 N 0.73427 0.49988 0.73437
 C946 C 0.73154 0.47357 0.73165
 C947 C 0.74186 0.46896 0.74190
 C948 C 0.74493 0.45467 0.74496
 C949 C 0.75537 0.45467 0.75534
 C950 C 0.75844 0.46895 0.75837
 N951 N 0.75015 0.47759 0.75013
 C952 C 0.76875 0.47355 0.76862
 C953 C 0.77205 0.48809 0.77192
 C954 C 0.78216 0.49244 0.78199
 C955 C 0.78215 0.50726 0.78199
 C956 C 0.77204 0.51163 0.77193
 N957 N 0.76600 0.49987 0.76593
 C958 C 0.76873 0.52617 0.76864
 H959 H 0.76009 0.55456 0.76011
 H960 H 0.74010 0.55457 0.74025
 H961 H 0.75817 0.49987 0.75817
 H962 H 0.71138 0.51410 0.71168
 H963 H 0.71139 0.48572 0.71166
 H964 H 0.74016 0.44519 0.74023
 H965 H 0.76014 0.44518 0.76009
 H966 H 0.78885 0.51402 0.78866
 H967 H 0.74210 0.49988 0.74212
 H968 H 0.78886 0.48565 0.78865
 C969 C 0.24474 0.45481 0.24475
 C970 C 0.25519 0.45479 0.25511
 C971 C 0.25828 0.46906 0.25815
 N972 N 0.24999 0.47771 0.24993
 C973 C 0.24168 0.46910 0.24171
 C974 C 0.26860 0.47366 0.26838
 C975 C 0.27190 0.48819 0.27168
 C976 C 0.28200 0.49254 0.28175
 C977 C 0.28200 0.50736 0.28175
 C978 C 0.27190 0.51173 0.27167
 N979 N 0.26587 0.49997 0.26566
 C980 C 0.26859 0.52627 0.26836
 C981 C 0.25827 0.53090 0.25813
 C982 C 0.25519 0.54518 0.25509
 C983 C 0.24474 0.54519 0.24473
 C984 C 0.24167 0.53092 0.24169
 N985 N 0.24997 0.52227 0.24991
 C986 C 0.23135 0.52631 0.23145
 C987 C 0.22804 0.51179 0.22816
 C988 C 0.21793 0.50744 0.21810
 C989 C 0.21794 0.49262 0.21811
 C990 C 0.22805 0.48826 0.22817
 N991 N 0.23409 0.50002 0.23418
 C992 C 0.23137 0.47373 0.23148
 H993 H 0.23995 0.44533 0.24002
 H994 H 0.25996 0.44529 0.25985
 H995 H 0.24188 0.50001 0.24196
 H996 H 0.28869 0.48576 0.28843
 H997 H 0.28869 0.51413 0.28842
 H998 H 0.25996 0.55467 0.25983
 H999 H 0.23995 0.55469 0.24000
 H1000 H 0.21124 0.48585 0.21144
 H1001 H 0.25809 0.49998 0.25786
 H1002 H 0.21123 0.51422 0.21143
 C1003 C 0.75520 1.04540 0.74492
 C1004 C 0.74476 1.04544 0.75530
 C1005 C 0.74169 1.03117 0.75839
 N1006 N 0.74997 1.02250 0.75018
 C1007 C 0.75826 1.03111 0.74191
 C1008 C 0.73137 1.02659 0.76865
 C1009 C 0.72806 1.01205 0.77194
 C1010 C 0.71795 1.00769 0.78200
 C1011 C 0.71795 0.99286 0.78198
 C1012 C 0.72805 0.98850 0.77191
 N1013 N 0.73410 1.00027 0.76591
 C1014 C 0.73136 0.97396 0.76860
 C1015 C 0.74168 0.96932 0.75835
 C1016 C 0.74473 0.95503 0.75530
 C1017 C 0.75518 0.95501 0.74493
 C1018 C 0.75827 0.96928 0.74189
 N1019 N 0.74998 0.97794 0.75011
 C1020 C 0.76859 0.97387 0.73164
 C1021 C 0.77189 0.98840 0.72835
 C1022 C 0.78199 0.99276 0.71827
 C1023 C 0.78198 1.00757 0.71828
 C1024 C 0.77187 1.01193 0.72836
 N1025 N 0.76584 1.00017 0.73437
 C1026 C 0.76856 1.02646 0.73167
 H1027 H 0.75997 1.05487 0.74014
 H1028 H 0.73999 1.05495 0.76001
 H1029 H 0.75804 1.00019 0.74215
 H1030 H 0.71125 1.01446 0.78868
 H1031 H 0.71124 0.98609 0.78864
 H1032 H 0.73995 0.94555 0.76005
 H1033 H 0.75995 0.94551 0.74019
 H1034 H 0.78867 1.01435 0.71160
 H1035 H 0.74189 1.00025 0.75813
 H1036 H 0.78868 0.98599 0.71158
 C1037 C 0.74482 0.45487 0.25518
 C1038 C 0.75527 0.45487 0.24480
 C1039 C 0.75835 0.46915 0.24178
 N1040 N 0.75008 0.47779 0.25004
 C1041 C 0.74177 0.46916 0.25825
 C1042 C 0.76867 0.47377 0.23154
 C1043 C 0.77197 0.48830 0.22825
 C1044 C 0.78207 0.49266 0.21818
 C1045 C 0.78207 0.50747 0.21818
 C1046 C 0.77195 0.51183 0.22826
 N1047 N 0.76592 0.50006 0.23426
 C1048 C 0.76864 0.52635 0.23156
 C1049 C 0.75833 0.53098 0.24180
 C1050 C 0.75525 0.54526 0.24483
 C1051 C 0.74480 0.54527 0.25520
 C1052 C 0.74175 0.53099 0.25826
 N1053 N 0.75005 0.52235 0.25004
 C1054 C 0.73144 0.52638 0.26851
 C1055 C 0.72814 0.51185 0.27181
 C1056 C 0.71802 0.50749 0.28187
 C1057 C 0.71803 0.49267 0.28186
 C1058 C 0.72815 0.48831 0.27181
 N1059 N 0.73419 0.50008 0.26581
 C1060 C 0.73146 0.47377 0.26850
 H1061 H 0.74003 0.44539 0.25990
 H1062 H 0.76003 0.44539 0.24003
 H1063 H 0.74200 0.50008 0.25804
 H1064 H 0.78878 0.48589 0.21150
 H1065 H 0.78876 0.51425 0.21151
 H1066 H 0.76001 0.55475 0.24007
 H1067 H 0.74002 0.55477 0.25993
 H1068 H 0.71132 0.48590 0.28852
 H1069 H 0.75810 0.50006 0.24202
 H1070 H 0.71130 0.51427 0.28853
 C1071 C 0.25533 0.04483 0.75530
 C1072 C 0.24487 0.04487 0.74495
 C1073 C 0.24180 0.03060 0.74187
 N1074 N 0.25011 0.02193 0.75007
 C1075 C 0.25841 0.03053 0.75830
 C1076 C 0.23147 0.02602 0.73163
 C1077 C 0.22818 0.01150 0.72833
 C1078 C 0.21806 0.00715 0.71828
 C1079 C 0.21808 -0.00767 0.71827
 C1080 C 0.22820 -0.01204 0.72833
 N1081 N 0.23423 -0.00028 0.73433
 C1082 C 0.23153 -0.02657 0.73162
 C1083 C 0.24186 -0.03123 0.74183
 C1084 C 0.24493 -0.04553 0.74482
 C1085 C 0.25540 -0.04559 0.75516
 C1086 C 0.25848 -0.03133 0.75825
 N1087 N 0.25017 -0.02265 0.75006
 C1088 C 0.26882 -0.02677 0.76848
 C1089 C 0.27211 -0.01222 0.77179
 C1090 C 0.28221 -0.00786 0.78185
 C1091 C 0.28219 0.00696 0.78186
 C1092 C 0.27207 0.01134 0.77181
 N1093 N 0.26605 -0.00043 0.76579
 C1094 C 0.26874 0.02588 0.76853
 H1095 H 0.26010 0.05430 0.76005
 H1096 H 0.24008 0.05437 0.74024
 H1097 H 0.25824 -0.00040 0.75802
 H1098 H 0.21135 0.01393 0.71162
 H1099 H 0.21138 -0.01444 0.71161
 H1100 H 0.24014 -0.05500 0.74005
 H1101 H 0.26017 -0.05510 0.75986
 H1102 H 0.28888 0.01373 0.78853
 H1103 H 0.24204 -0.00031 0.74210
 H1104 H 0.28892 -0.01464 0.78851
 C1105 C 0.24481 0.25517 1.04527
 C1106 C 0.25518 0.24470 1.04526
 C1107 C 0.25822 0.24163 1.03100
 N1108 N 0.24999 0.24995 1.02239
 C1109 C 0.24176 0.25825 1.03102
 C1110 C 0.26847 0.23130 1.02639
 C1111 C 0.27177 0.22798 1.01188
 C1112 C 0.28184 0.21786 1.00752
 C1113 C 0.28184 0.21786 0.99273
 C1114 C 0.27176 0.22799 0.98838
 N1115 N 0.26575 0.23403 1.00013
 C1116 C 0.26846 0.23131 0.97387
 C1117 C 0.25818 0.24163 0.96928
 C1118 C 0.25511 0.24469 0.95502
 C1119 C 0.24471 0.25513 0.95503
 C1120 C 0.24167 0.25820 0.96929
 N1121 N 0.24993 0.24992 0.97791
 C1122 C 0.23140 0.26852 0.97390
 C1123 C 0.22812 0.27185 0.98841
 C1124 C 0.21805 0.28197 0.99277
 C1125 C 0.21808 0.28199 1.00757
 C1126 C 0.22818 0.27188 1.01192
 N1127 N 0.23418 0.26583 1.00016
 C1128 C 0.23151 0.26858 1.02642
 H1129 H 0.24007 0.25995 1.05475
 H1130 H 0.25993 0.23991 1.05474
 H1131 H 0.24197 0.25803 1.00015
 H1132 H 0.28851 0.21114 1.01429
 H1133 H 0.28851 0.21115 0.98596
 H1134 H 0.25985 0.23991 0.94554
 H1135 H 0.23994 0.25990 0.94556
 H1136 H 0.21141 0.28870 1.01434
 H1137 H 0.25797 0.24185 1.00014
 H1138 H 0.21134 0.28866 0.98601
 C1139 C 0.25523 0.74498 0.54503
 C1140 C 0.24484 0.75543 0.54502
 C1141 C 0.24180 0.75850 0.53076
 N1142 N 0.25006 0.75021 0.52215
 C1143 C 0.25830 0.74191 0.53077
 C1144 C 0.23154 0.76881 0.52615
 C1145 C 0.22822 0.77212 0.51165
 C1146 C 0.21812 0.78222 0.50729
 C1147 C 0.21811 0.78221 0.49250
 C1148 C 0.22820 0.77210 0.48815
 N1149 N 0.23424 0.76607 0.49990
 C1150 C 0.23149 0.76877 0.47364
 C1151 C 0.24176 0.75845 0.46904
 C1152 C 0.24480 0.75536 0.45478
 C1153 C 0.25520 0.74492 0.45479
 C1154 C 0.25827 0.74188 0.46905
 N1155 N 0.25003 0.75018 0.47767
 C1156 C 0.26855 0.73157 0.47365
 C1157 C 0.27186 0.72826 0.48816
 C1158 C 0.28194 0.71814 0.49252
 C1159 C 0.28195 0.71815 0.50732
 C1160 C 0.27187 0.72827 0.51167
 N1161 N 0.26584 0.73430 0.49991
 C1162 C 0.26857 0.73159 0.52618
 H1163 H 0.25997 0.74020 0.55451
 H1164 H 0.24008 0.76020 0.55450
 H1165 H 0.25805 0.74211 0.49991
 H1166 H 0.21144 0.78892 0.51406
 H1167 H 0.21141 0.78890 0.48573
 H1168 H 0.24003 0.76012 0.44531
 H1169 H 0.25993 0.74013 0.44531
 H1170 H 0.28863 0.71145 0.51408
 H1171 H 0.24203 0.75827 0.49990
 H1172 H 0.28862 0.71143 0.48575
 C1173 C 0.24503 0.74478 -0.04524
 C1174 C 0.25545 0.75518 -0.04527
 C1175 C 0.25852 0.75825 -0.03101
 N1176 N 0.25026 0.74999 -0.02237
 C1177 C 0.24199 0.74173 -0.03098
 C1178 C 0.26882 0.76853 -0.02643
 C1179 C 0.27212 0.77185 -0.01192
 C1180 C 0.28224 0.78191 -0.00758
 C1181 C 0.28222 0.78194 0.00722
 C1182 C 0.27209 0.77189 0.01159
 N1183 N 0.26604 0.76588 -0.00016
 C1184 C 0.26876 0.76861 0.02610
 C1185 C 0.25848 0.75833 0.03073
 C1186 C 0.25541 0.75530 0.04499
 C1187 C 0.24501 0.74487 0.04501
 C1188 C 0.24197 0.74178 0.03076
 N1189 N 0.25023 0.75004 0.02212
 C1190 C 0.23169 0.73149 0.02617
 C1191 C 0.22838 0.72818 0.01167
 C1192 C 0.21825 0.71813 0.00733
 C1193 C 0.21825 0.71812 -0.00747
 C1194 C 0.22838 0.72817 -0.01184
 N1195 N 0.23444 0.73417 -0.00009
 C1196 C 0.23169 0.73146 -0.02635
 H1197 H 0.24025 0.74002 -0.05470
 H1198 H 0.26020 0.75994 -0.05475
 H1199 H 0.24230 0.74189 -0.00011
 H1200 H 0.28896 0.78856 -0.01435
 H1201 H 0.28892 0.78861 0.01398
 H1202 H 0.26015 0.76008 0.05446
 H1203 H 0.24024 0.74013 0.05449
 H1204 H 0.21153 0.71146 -0.01423
 H1205 H 0.25818 0.75816 -0.00015
 H1206 H 0.21153 0.71148 0.01410
 C1207 C 0.25512 0.25511 0.45492
 C1208 C 0.24471 0.24470 0.45492
 C1209 C 0.24165 0.24164 0.46918
 N1210 N 0.24991 0.24990 0.47780
 C1211 C 0.25817 0.25817 0.46917
 C1212 C 0.23137 0.23136 0.47379
 C1213 C 0.22807 0.22805 0.48830
 C1214 C 0.21797 0.21796 0.49266
 C1215 C 0.21797 0.21796 0.50746
 C1216 C 0.22807 0.22804 0.51181
 N1217 N 0.23410 0.23406 0.50005
 C1218 C 0.23137 0.23134 0.52632
 C1219 C 0.24165 0.24163 0.53092
 C1220 C 0.24470 0.24469 0.54517
 C1221 C 0.25510 0.25511 0.54517
 C1222 C 0.25816 0.25817 0.53091
 N1223 N 0.24991 0.24989 0.52229
 C1224 C 0.26844 0.26845 0.52629
 C1225 C 0.27175 0.27176 0.51178
 C1226 C 0.28186 0.28184 0.50743
 C1227 C 0.28186 0.28184 0.49263
 C1228 C 0.27176 0.27176 0.48828
 N1229 N 0.26572 0.26574 0.50004
 C1230 C 0.26846 0.26845 0.47378
 H1231 H 0.25987 0.25987 0.44544
 H1232 H 0.23995 0.23994 0.44545
 H1233 H 0.25790 0.25798 0.50004
 H1234 H 0.21128 0.21128 0.48590
 H1235 H 0.21128 0.21127 0.51422
 H1236 H 0.23993 0.23993 0.55465
 H1237 H 0.25985 0.25988 0.55464
 H1238 H 0.28856 0.28852 0.48586
 H1239 H 0.24191 0.24184 0.50005
 H1240 H 0.28855 0.28852 0.51419
 C1241 C 0.74483 0.75522 1.04524
 C1242 C 0.75520 0.74475 1.04524
 C1243 C 0.75827 0.74170 1.03098
 N1244 N 0.75006 0.75003 1.02236
 C1245 C 0.74181 0.75832 1.03099
 C1246 C 0.76852 0.73137 1.02637
 C1247 C 0.77184 0.72807 1.01187
 C1248 C 0.78192 0.71795 1.00752
 C1249 C 0.78194 0.71797 0.99272
 C1250 C 0.77186 0.72810 0.98837
 N1251 N 0.76584 0.73414 1.00012
 C1252 C 0.76858 0.73144 0.97386
 C1253 C 0.75829 0.74174 0.96926
 C1254 C 0.75525 0.74482 0.95500
 C1255 C 0.74483 0.75525 0.95500
 C1256 C 0.74175 0.75828 0.96926
 N1257 N 0.75001 0.75000 0.97788
 C1258 C 0.73147 0.76859 0.97386
 C1259 C 0.72819 0.77192 0.98837
 C1260 C 0.71813 0.78206 0.99273
 C1261 C 0.71816 0.78209 1.00753
 C1262 C 0.72824 0.77196 1.01187
 N1263 N 0.73423 0.76589 1.00012
 C1264 C 0.73156 0.76866 1.02638
 H1265 H 0.74007 0.75999 1.05472
 H1266 H 0.75992 0.73995 1.05472
 H1267 H 0.74199 0.75806 1.00012
 H1268 H 0.78859 0.71123 1.01428
 H1269 H 0.78862 0.71127 0.98595
 H1270 H 0.76003 0.74008 0.94553
 H1271 H 0.74009 0.76003 0.94553
 H1272 H 0.71151 0.78881 1.01429
 H1273 H 0.75806 0.74196 1.00012
 H1274 H 0.71144 0.78876 0.98597
 C1275 C 0.74478 0.25509 0.45486
 C1276 C 0.75518 0.24465 0.45486
 C1277 C 0.75820 0.24155 0.46912
 N1278 N 0.74992 0.24981 0.47774
 C1279 C 0.74168 0.25811 0.46912
 C1280 C 0.76848 0.23124 0.47372
 C1281 C 0.77177 0.22792 0.48823
 C1282 C 0.78183 0.21778 0.49259
 C1283 C 0.78184 0.21779 0.50739
 C1284 C 0.77178 0.22794 0.51174
 N1285 N 0.76578 0.23399 0.49998
 C1286 C 0.76847 0.23125 0.52624
 C1287 C 0.75820 0.24156 0.53085
 C1288 C 0.75513 0.24461 0.54511
 C1289 C 0.74472 0.25504 0.54511
 C1290 C 0.74168 0.25812 0.53085
 N1291 N 0.74995 0.24985 0.52223
 C1292 C 0.73140 0.26843 0.52625
 C1293 C 0.72810 0.27175 0.51174
 C1294 C 0.71804 0.28188 0.50738
 C1295 C 0.71804 0.28187 0.49259
 C1296 C 0.72810 0.27173 0.48823
 N1297 N 0.73410 0.26568 0.49999
 C1298 C 0.73140 0.26842 0.47372
 H1299 H 0.74005 0.25988 0.44539
 H1300 H 0.75997 0.23991 0.44539
 H1301 H 0.74185 0.25783 0.49999
 H1302 H 0.78850 0.21106 0.48583
 H1303 H 0.78850 0.21108 0.51415
 H1304 H 0.75987 0.23982 0.55458
 H1305 H 0.73995 0.25979 0.55459
 H1306 H 0.71137 0.28859 0.48582
 H1307 H 0.75804 0.24186 0.49998
 H1308 H 0.71138 0.28860 0.51415
 C1309 C 0.74473 0.24496 -0.04521
 C1310 C 0.75511 0.25541 -0.04521
 C1311 C 0.75818 0.25845 -0.03095
 N1312 N 0.74996 0.25013 -0.02233
 C1313 C 0.74171 0.24186 -0.03095
 C1314 C 0.76844 0.26876 -0.02635
 C1315 C 0.77175 0.27205 -0.01184
 C1316 C 0.78185 0.28214 -0.00749
 C1317 C 0.78186 0.28212 0.00730
 C1318 C 0.77177 0.27203 0.01166
 N1319 N 0.76572 0.26603 -0.00009
 C1320 C 0.76848 0.26871 0.02617
 C1321 C 0.75823 0.25838 0.03078
 C1322 C 0.75520 0.25530 0.04504
 C1323 C 0.74483 0.24484 0.04504
 C1324 C 0.74178 0.24178 0.03079
 N1325 N 0.75000 0.25009 0.02216
 C1326 C 0.73152 0.23147 0.02618
 C1327 C 0.72821 0.22817 0.01167
 C1328 C 0.71811 0.21810 0.00732
 C1329 C 0.71808 0.21812 -0.00747
 C1330 C 0.72818 0.22821 -0.01184
 N1331 N 0.73423 0.23420 -0.00008
 C1332 C 0.73145 0.23154 -0.02635
 H1333 H 0.73997 0.24021 -0.05468
 H1334 H 0.75983 0.26020 -0.05469
 H1335 H 0.74206 0.24195 -0.00008
 H1336 H 0.78853 0.28883 -0.01426
 H1337 H 0.78855 0.28880 0.01406
 H1338 H 0.75994 0.26007 0.05451
 H1339 H 0.74010 0.24006 0.05452
 H1340 H 0.71138 0.21145 -0.01423
 H1341 H 0.75789 0.25828 -0.00009
 H1342 H 0.71142 0.21141 0.01409
 C1343 C 0.74481 0.74498 0.45492
 C1344 C 0.75520 0.75542 0.45491
 C1345 C 0.75826 0.75848 0.46917
 N1346 N 0.75002 0.75019 0.47780
 C1347 C 0.74177 0.74191 0.46919
 C1348 C 0.76853 0.76878 0.47376
 C1349 C 0.77184 0.77208 0.48826
 C1350 C 0.78194 0.78217 0.49261
 C1351 C 0.78195 0.78216 0.50740
 C1352 C 0.77186 0.77207 0.51177
 N1353 N 0.76582 0.76605 0.50002
 C1354 C 0.76857 0.76875 0.52628
 C1355 C 0.75831 0.75844 0.53090
 C1356 C 0.75527 0.75538 0.54516
 C1357 C 0.74488 0.74495 0.54518
 C1358 C 0.74183 0.74187 0.53092
 N1359 N 0.75007 0.75015 0.52229
 C1360 C 0.73155 0.73158 0.52633
 C1361 C 0.72824 0.72828 0.51183
 C1362 C 0.71812 0.71821 0.50748
 C1363 C 0.71811 0.71823 0.49268
 C1364 C 0.72822 0.72830 0.48832
 N1365 N 0.73427 0.73429 0.50007
 C1366 C 0.73151 0.73161 0.47380
 H1367 H 0.74005 0.74022 0.44546
 H1368 H 0.75994 0.76019 0.44543
 H1369 H 0.74211 0.74204 0.50006
 H1370 H 0.78861 0.78887 0.48584
 H1371 H 0.78864 0.78885 0.51416
 H1372 H 0.76001 0.76015 0.55463
 H1373 H 0.74013 0.74018 0.55466
 H1374 H 0.71140 0.71156 0.48593
 H1375 H 0.75801 0.75828 0.50003
 H1376 H 0.71143 0.71154 0.51425
 C1377 C 0.95474 0.24487 0.25511
 C1378 C 0.95476 0.25534 0.24476
 C1379 C 0.96906 0.25841 0.24176
 N1380 N 0.97769 0.25011 0.24999
 C1381 C 0.96903 0.24180 0.25819
 C1382 C 0.97369 0.26874 0.23154
 C1383 C 0.98823 0.27206 0.22826
 C1384 C 0.99260 0.28219 0.21823
 C1385 C 1.00743 0.28219 0.21825
 C1386 C 1.01179 0.27205 0.22829
 N1387 N 1.00001 0.26600 0.23426
 C1388 C 1.02633 0.26874 0.23160
 C1389 C 1.03093 0.25841 0.24183
 C1390 C 1.04522 0.25534 0.24490
 C1391 C 1.04520 0.24489 0.25526
 C1392 C 1.03090 0.24183 0.25828
 N1393 N 1.02227 0.25012 0.25004
 C1394 C 1.02627 0.23150 0.26850
 C1395 C 1.01173 0.22818 0.27177
 C1396 C 1.00736 0.21804 0.28180
 C1397 C 0.99253 0.21803 0.28178
 C1398 C 0.98817 0.22816 0.27174
 N1399 N 0.99996 0.23423 0.26576
 C1400 C 0.97363 0.23147 0.26842
 H1401 H 0.94524 0.24009 0.25982
 H1402 H 0.94527 0.26012 0.24001
 H1403 H 0.99997 0.24206 0.25802
 H1404 H 0.98583 0.28891 0.21158
 H1405 H 1.01422 0.28891 0.21161
 H1406 H 1.05472 0.26011 0.24017
 H1407 H 1.05469 0.24011 0.26000
 H1408 H 0.98575 0.21131 0.28841
 H1409 H 1.00000 0.25816 0.24200
 H1410 H 1.01414 0.21133 0.28846
 C1411 C 0.45464 0.24468 0.75520
 C1412 C 0.45465 0.25514 0.74485
 C1413 C 0.46894 0.25821 0.74183
 N1414 N 0.47758 0.24991 0.75006
 C1415 C 0.46893 0.24161 0.75827
 C1416 C 0.47357 0.26853 0.73160
 C1417 C 0.48811 0.27183 0.72829
 C1418 C 0.49247 0.28193 0.71822
 C1419 C 0.50730 0.28191 0.71821
 C1420 C 0.51166 0.27179 0.72827
 N1421 N 0.49988 0.26577 0.73429
 C1422 C 0.52620 0.26847 0.73156
 C1423 C 0.53082 0.25818 0.74183
 C1424 C 0.54511 0.25512 0.74489
 C1425 C 0.54510 0.24471 0.75530
 C1426 C 0.53081 0.24165 0.75835
 N1427 N 0.52217 0.24992 0.75008
 C1428 C 0.52619 0.23136 0.76861
 C1429 C 0.51164 0.22804 0.77189
 C1430 C 0.50728 0.21793 0.78195
 C1431 C 0.49245 0.21791 0.78191
 C1432 C 0.48808 0.22800 0.77183
 N1433 N 0.49986 0.23405 0.76585
 C1434 C 0.47354 0.23129 0.76851
 H1435 H 0.44514 0.23991 0.75992
 H1436 H 0.44515 0.25992 0.74010
 H1437 H 0.49987 0.24184 0.75806
 H1438 H 0.48569 0.28864 0.71156
 H1439 H 0.51408 0.28860 0.71153
 H1440 H 0.55460 0.25987 0.74015
 H1441 H 0.55460 0.23995 0.76006
 H1442 H 0.48566 0.21120 0.78857
 H1443 H 0.49988 0.25797 0.74206
 H1444 H 0.51406 0.21125 0.78864
 C1445 C -0.04543 0.25524 0.75523
 C1446 C -0.04544 0.24478 0.74489
 C1447 C -0.03115 0.24171 0.74182
 N1448 N -0.02250 0.25002 0.75002
 C1449 C -0.03114 0.25832 0.75824
 C1450 C -0.02653 0.23137 0.73161
 C1451 C -0.01199 0.22805 0.72831
 C1452 C -0.00763 0.21788 0.71831
 C1453 C 0.00721 0.21787 0.71830
 C1454 C 0.01157 0.22803 0.72829
 N1455 N -0.00021 0.23412 0.73426
 C1456 C 0.02611 0.23133 0.73158
 C1457 C 0.03073 0.24164 0.74182
 C1458 C 0.04503 0.24469 0.74486
 C1459 C 0.04503 0.25512 0.75523
 C1460 C 0.03074 0.25820 0.75829
 N1461 N 0.02210 0.24994 0.75005
 C1462 C 0.02614 0.26853 0.76852
 C1463 C 0.01159 0.27187 0.77180
 C1464 C 0.00722 0.28204 0.78180
 C1465 C -0.00761 0.28208 0.78177
 C1466 C -0.01197 0.27193 0.77176
 N1467 N -0.00019 0.26583 0.76581
 C1468 C -0.02652 0.26865 0.76846
 H1469 H -0.05493 0.26002 0.75998
 H1470 H -0.05493 0.23999 0.74018
 H1471 H -0.00019 0.25795 0.75813
 H1472 H -0.01441 0.21115 0.71169
 H1473 H 0.01398 0.21113 0.71167
 H1474 H 0.05452 0.23991 0.74011
 H1475 H 0.05453 0.25988 0.75996
 H1476 H -0.01439 0.28883 0.78839
 H1477 H -0.00021 0.24200 0.74195
 H1478 H 0.01400 0.28875 0.78844
 C1479 C 0.45484 0.25501 0.25521
 C1480 C 0.45485 0.24455 0.24486
 C1481 C 0.46914 0.24149 0.24180
 N1482 N 0.47778 0.24980 0.25000
 C1483 C 0.46914 0.25809 0.25822
 C1484 C 0.47376 0.23117 0.23157
 C1485 C 0.48831 0.22787 0.22826
 C1486 C 0.49268 0.21773 0.21823
 C1487 C 0.50752 0.21775 0.21822
 C1488 C 0.51187 0.22790 0.22823
 N1489 N 0.50008 0.23395 0.23423
 C1490 C 0.52640 0.23123 0.23152
 C1491 C 0.53101 0.24154 0.24175
 C1492 C 0.54531 0.24461 0.24478
 C1493 C 0.54531 0.25504 0.25515
 C1494 C 0.53101 0.25810 0.25822
 N1495 N 0.52237 0.24982 0.24999
 C1496 C 0.52640 0.26842 0.26846
 C1497 C 0.51185 0.27173 0.27175
 C1498 C 0.50747 0.28186 0.28178
 C1499 C 0.49264 0.28187 0.28177
 C1500 C 0.48829 0.27174 0.27174
 N1501 N 0.50007 0.26567 0.26576
 C1502 C 0.47375 0.26842 0.26844
 H1503 H 0.44534 0.25978 0.25995
 H1504 H 0.44535 0.23976 0.24015
 H1505 H 0.50008 0.25783 0.25803
 H1506 H 0.48591 0.21100 0.21160
 H1507 H 0.51430 0.21104 0.21157
 H1508 H 0.55480 0.23984 0.24003
 H1509 H 0.55480 0.25981 0.25988
 H1510 H 0.48584 0.28859 0.28841
 H1511 H 0.50008 0.24179 0.24195
 H1512 H 0.51424 0.28858 0.28842
 C1513 C 0.95486 0.75541 0.74483
 C1514 C 0.95484 0.74496 0.75519
 C1515 C 0.96913 0.74188 0.75826
 N1516 N 0.97778 0.75017 0.75005
 C1517 C 0.96915 0.75847 0.74181
 C1518 C 0.97373 0.73156 0.76850
 C1519 C 0.98827 0.72824 0.77180
 C1520 C 0.99263 0.71814 0.78187
 C1521 C 1.00746 0.71812 0.78187
 C1522 C 1.01183 0.72822 0.77180
 N1523 N 1.00005 0.73426 0.76579
 C1524 C 1.02637 0.73151 0.76850
 C1525 C 1.03100 0.74183 0.75827
 C1526 C 1.04530 0.74491 0.75526
 C1527 C 1.04531 0.75537 0.74491
 C1528 C 1.03102 0.75843 0.74184
 N1529 N 1.02237 0.75013 0.75004
 C1530 C 1.02642 0.76877 0.73161
 C1531 C 1.01188 0.77208 0.72830
 C1532 C 1.00753 0.78219 0.71824
 C1533 C 0.99270 0.78220 0.71823
 C1534 C 0.98833 0.77209 0.72829
 N1535 N 1.00010 0.76604 0.73430
 C1536 C 0.97379 0.76878 0.73157
 H1537 H 0.94537 0.76018 0.74007
 H1538 H 0.94534 0.74019 0.75992
 H1539 H 1.00009 0.75825 0.74208
 H1540 H 0.98585 0.71145 0.78855
 H1541 H 1.01424 0.71142 0.78854
 H1542 H 1.05479 0.74013 0.76001
 H1543 H 1.05482 0.76015 0.74020
 H1544 H 0.98592 0.78890 0.71156
 H1545 H 1.00006 0.74204 0.75800
 H1546 H 1.01431 0.78889 0.71158
 C1547 C 0.45485 0.75533 0.24478
 C1548 C 0.45483 0.74487 0.25513
 C1549 C 0.46912 0.74179 0.25820
 N1550 N 0.47777 0.75009 0.25000
 C1551 C 0.46914 0.75840 0.24177
 C1552 C 0.47372 0.73147 0.26844
 C1553 C 0.48826 0.72816 0.27176
 C1554 C 0.49262 0.71805 0.28182
 C1555 C 0.50745 0.71806 0.28184
 C1556 C 0.51182 0.72818 0.27180
 N1557 N 0.50004 0.73422 0.26578
 C1558 C 0.52636 0.73150 0.26852
 C1559 C 0.53099 0.74181 0.25829
 C1560 C 0.54529 0.74487 0.25526
 C1561 C 0.54530 0.75531 0.24489
 C1562 C 0.53101 0.75837 0.24182
 N1563 N 0.52236 0.75009 0.25004
 C1564 C 0.52641 0.76868 0.23157
 C1565 C 0.51187 0.77200 0.22826
 C1566 C 0.50752 0.78213 0.21821
 C1567 C 0.49269 0.78215 0.21821
 C1568 C 0.48832 0.77203 0.22826
 N1569 N 0.50009 0.76597 0.23426
 C1570 C 0.47378 0.76872 0.23155
 H1571 H 0.44536 0.76011 0.24003
 H1572 H 0.44532 0.74009 0.25984
 H1573 H 0.50008 0.75815 0.24202
 H1574 H 0.48583 0.71134 0.28847
 H1575 H 0.51423 0.71136 0.28852
 H1576 H 0.55478 0.74011 0.26002
 H1577 H 0.55480 0.76008 0.24016
 H1578 H 0.48591 0.78886 0.21155
 H1579 H 0.50005 0.74202 0.25801
 H1580 H 0.51430 0.78883 0.21156
 C1581 C 0.04512 0.74481 0.24480
 C1582 C 0.04512 0.75523 0.25518
 C1583 C 0.03083 0.75830 0.25825
 N1584 N 0.02218 0.75002 0.25002
 C1585 C 0.03082 0.74175 0.24177
 C1586 C 0.02621 0.76861 0.26849
 C1587 C 0.01167 0.77194 0.27178
 C1588 C 0.00730 0.78209 0.28180
 C1589 C -0.00753 0.78211 0.28179
 C1590 C -0.01189 0.77198 0.27177
 N1591 N -0.00011 0.76590 0.26580
 C1592 C -0.02643 0.76868 0.26848
 C1593 C -0.03105 0.75834 0.25828
 C1594 C -0.04534 0.75526 0.25526
 C1595 C -0.04534 0.74479 0.24493
 C1596 C -0.03105 0.74172 0.24187
 N1597 N -0.02241 0.75003 0.25006
 C1598 C -0.02644 0.73138 0.23166
 C1599 C -0.01189 0.72808 0.22833
 C1600 C -0.00753 0.71795 0.21830
 C1601 C 0.00730 0.71797 0.21826
 C1602 C 0.01166 0.72811 0.22827
 N1603 N -0.00012 0.73416 0.23428
 C1604 C 0.02621 0.73143 0.23154
 H1605 H 0.05461 0.74004 0.24005
 H1606 H 0.05462 0.76000 0.25991
 H1607 H -0.00011 0.74200 0.24201
 H1608 H 0.01408 0.78880 0.28845
 H1609 H -0.01431 0.78885 0.28843
 H1610 H -0.05484 0.76004 0.26000
 H1611 H -0.05484 0.74000 0.24022
 H1612 H 0.01408 0.71125 0.21160
 H1613 H -0.00011 0.75805 0.25808
 H1614 H -0.01431 0.71122 0.21167
 C1615 C 0.54516 0.75536 0.75539
 C1616 C 0.54517 0.74494 0.74500
 C1617 C 0.53088 0.74189 0.74195
 N1618 N 0.52223 0.75016 0.75020
 C1619 C 0.53086 0.75842 0.75844
 C1620 C 0.52627 0.73159 0.73170
 C1621 C 0.51173 0.72827 0.72841
 C1622 C 0.50738 0.71813 0.71839
 C1623 C 0.49255 0.71812 0.71840
 C1624 C 0.48817 0.72825 0.72843
 N1625 N 0.49994 0.73432 0.73440
 C1626 C 0.47362 0.73155 0.73173
 C1627 C 0.46899 0.74187 0.74197
 C1628 C 0.45470 0.74494 0.74502
 C1629 C 0.45469 0.75537 0.75539
 C1630 C 0.46898 0.75844 0.75844
 N1631 N 0.47763 0.75015 0.75020
 C1632 C 0.47358 0.76875 0.76868
 C1633 C 0.48813 0.77205 0.77198
 C1634 C 0.49248 0.78218 0.78201
 C1635 C 0.50731 0.78217 0.78202
 C1636 C 0.51169 0.77204 0.77199
 N1637 N 0.49991 0.76599 0.76600
 C1638 C 0.52624 0.76873 0.76870
 H1639 H 0.55465 0.76011 0.76014
 H1640 H 0.55467 0.74017 0.74026
 H1641 H 0.49992 0.75814 0.75828
 H1642 H 0.51417 0.71142 0.71174
 H1643 H 0.48578 0.71140 0.71176
 H1644 H 0.44521 0.74017 0.74028
 H1645 H 0.44519 0.76014 0.76013
 H1646 H 0.51408 0.78888 0.78867
 H1647 H 0.49993 0.74217 0.74212
 H1648 H 0.48569 0.78890 0.78866
 C1649 C 0.41606 0.30014 0.29987
 N1650 N 0.42904 0.30664 0.30138
 N1651 N 0.44082 0.30080 0.29566
 C1652 C 0.43997 0.28826 0.28829
 N1653 N 0.42700 0.28178 0.28678
 N1654 N 0.41523 0.28762 0.29249
 C1655 C 0.40336 0.30637 0.30603
 C1656 C 0.39262 0.31148 0.31120
 C1657 C 0.45250 0.28194 0.28189
 C1658 C 0.46251 0.27610 0.27606
 C1659 C 0.41582 0.80053 0.79998
 N1660 N 0.42865 0.80745 0.80078
 N1661 N 0.44046 0.80157 0.79515
 C1662 C 0.43979 0.78858 0.78857
 N1663 N 0.42697 0.78168 0.78778
 N1664 N 0.41518 0.78755 0.79340
 C1665 C 0.40306 0.80680 0.80600
 C1666 C 0.39226 0.81189 0.81106
 C1667 C 0.45233 0.78225 0.78216
 C1668 C 0.46234 0.77642 0.77631
 C1669 C -0.08421 0.30054 0.79969
 N1670 N -0.07126 0.30711 0.80106
 N1671 N -0.05947 0.30122 0.79538
 C1672 C -0.06030 0.28857 0.78820
 N1673 N -0.07325 0.28202 0.78683
 N1674 N -0.08503 0.28790 0.79250
 C1675 C -0.09691 0.30681 0.80582
 C1676 C -0.10762 0.31196 0.81100
 C1677 C -0.04776 0.28222 0.78184
 C1678 C -0.03775 0.27636 0.77605
 C1679 C -0.08412 0.80050 0.29978
 N1680 N -0.07127 0.80736 0.30069
 N1681 N -0.05947 0.80149 0.29503
 C1682 C -0.06018 0.78857 0.28832
 N1683 N -0.07303 0.78174 0.28742
 N1684 N -0.08481 0.78760 0.29307
 C1685 C -0.09686 0.80676 0.30585
 C1686 C -0.10764 0.81185 0.31094
 C1687 C -0.04765 0.78224 0.28192
 C1688 C -0.03766 0.77638 0.27609
 C1689 C 0.58403 0.69977 0.29990
 N1690 N 0.58484 0.70709 0.28735
 N1691 N 0.57307 0.71284 0.28156
 C1692 C 0.56012 0.71143 0.28812
 N1693 N 0.55929 0.70411 0.30069
 N1694 N 0.57108 0.69836 0.30648
 C1695 C 0.59674 0.69365 0.30615
 C1696 C 0.60746 0.68857 0.31135
 C1697 C 0.54759 0.71790 0.28188
 C1698 C 0.53758 0.72379 0.27612
 C1699 C 0.58390 0.19949 0.79986
 N1700 N 0.58469 0.20689 0.78735
 N1701 N 0.57292 0.21270 0.78162
 C1702 C 0.55998 0.21129 0.78821
 N1703 N 0.55918 0.20390 0.80074
 N1704 N 0.57097 0.19808 0.80647
 C1705 C 0.59664 0.19331 0.80603
 C1706 C 0.60740 0.18821 0.81115
 C1707 C 0.54744 0.21778 0.78200
 C1708 C 0.53743 0.22368 0.77623
 C1709 C 1.08405 0.69988 0.79993
 N1710 N 1.07111 0.69330 0.80138
 N1711 N 1.05931 0.69913 0.79567
 C1712 C 1.06013 0.71172 0.78837
 N1713 N 1.07307 0.71827 0.78693
 N1714 N 1.08485 0.71245 0.79262
 C1715 C 1.09677 0.69367 0.80606
 C1716 C 1.10752 0.68856 0.81121
 C1717 C 1.04759 0.71801 0.78197
 C1718 C 1.03759 0.72384 0.77613
 C1719 C 1.08396 0.19970 0.29975
 N1720 N 1.08476 0.20708 0.28723
 N1721 N 1.07298 0.21284 0.28147
 C1722 C 1.06004 0.21139 0.28803
 N1723 N 1.05922 0.20401 0.30056
 N1724 N 1.07102 0.19825 0.30633
 C1725 C 1.09669 0.19359 0.30597
 C1726 C 1.10742 0.18851 0.31116
 C1727 C 1.04750 0.21787 0.28182
 C1728 C 1.03750 0.22378 0.27608
 C1729 C 0.58384 0.30036 0.70027
 N1730 N 0.58462 0.29313 0.71288
 N1731 N 0.57285 0.28734 0.71863
 C1732 C 0.55994 0.28860 0.71197
 N1733 N 0.55915 0.29581 0.69934
 N1734 N 0.57093 0.30161 0.69358
 C1735 C 0.59657 0.30648 0.69407
 C1736 C 0.60735 0.31154 0.68894
 C1737 C 0.54743 0.28208 0.71819
 C1738 C 0.53744 0.27617 0.72396
 C1739 C 0.58409 0.80054 0.20041
 N1740 N 0.57120 0.80178 0.19369
 N1741 N 0.55941 0.79600 0.19944
 C1742 C 0.56017 0.78883 0.21209
 N1743 N 0.57307 0.78758 0.21879
 N1744 N 0.58485 0.79336 0.21304
 C1745 C 0.59681 0.80665 0.19419
 C1746 C 0.60754 0.81172 0.18900
 C1747 C 0.54765 0.78232 0.21829
 C1748 C 0.53764 0.77640 0.22401
 C1749 C 1.08381 0.30073 0.20014
 N1750 N 1.08469 0.29351 0.21275
 N1751 N 1.07298 0.28770 0.21859
 C1752 C 1.06002 0.28894 0.21202
 N1753 N 1.05913 0.29615 0.19939
 N1754 N 1.07085 0.30197 0.19355
 C1755 C 1.09646 0.30690 0.19383
 C1756 C 1.10713 0.31203 0.18856
 C1757 C 1.04755 0.28240 0.21829
 C1758 C 1.03757 0.27647 0.22404
 C1759 C 1.08401 0.80062 0.70023
 N1760 N 1.07077 0.80402 0.69512
 N1761 N 1.05901 0.79820 0.70091
 C1762 C 1.06017 0.78881 0.71199
 N1763 N 1.07341 0.78542 0.71709
 N1764 N 1.08515 0.79123 0.71131
 C1765 C 1.09669 0.80677 0.69398
 C1766 C 1.10742 0.81183 0.68877
 C1767 C 1.04765 0.78237 0.71827
 C1768 C 1.03765 0.77647 0.72403
 C1769 C 0.41596 0.69986 0.70029
 N1770 N 0.42895 0.69338 0.69874
 N1771 N 0.44073 0.69922 0.70446
 C1772 C 0.43985 0.71174 0.71186
 N1773 N 0.42686 0.71821 0.71341
 N1774 N 0.41510 0.71237 0.70770
 C1775 C 0.40325 0.69362 0.69414
 C1776 C 0.39254 0.68850 0.68896
 C1777 C 0.45238 0.71806 0.71827
 C1778 C 0.46238 0.72388 0.72410
 C1779 C 0.41595 0.19958 0.20039
 N1780 N 0.42919 0.19526 0.19598
 N1781 N 0.44101 0.20100 0.20170
 C1782 C 0.43993 0.21125 0.21200
 N1783 N 0.42670 0.21555 0.21640
 N1784 N 0.41490 0.20981 0.21069
 C1785 C 0.40320 0.19350 0.19422
 C1786 C 0.39241 0.18850 0.18909
 C1787 C 0.45252 0.21759 0.21824
 C1788 C 0.46254 0.22345 0.22400
 C1789 C -0.08402 0.69953 0.20030
 N1790 N -0.08515 0.71092 0.20931
 N1791 N -0.07342 0.71676 0.21506
 C1792 C -0.06019 0.71142 0.21199
 N1793 N -0.05904 0.70002 0.20299
 N1794 N -0.07079 0.69417 0.19723
 C1795 C -0.09668 0.69332 0.19407
 C1796 C -0.10736 0.68820 0.18884
 C1797 C -0.04767 0.71780 0.21832
 C1798 C -0.03767 0.72367 0.22409
 C1799 C -0.08404 0.19941 0.70026
 N1800 N -0.07202 0.20140 0.69223
 N1801 N -0.06025 0.20713 0.69805
 C1802 C -0.06015 0.21101 0.71208
 N1803 N -0.07217 0.20904 0.72009
 N1804 N -0.08394 0.20331 0.71427
 C1805 C -0.09676 0.19335 0.69399
 C1806 C -0.10747 0.18828 0.68877
 C1807 C -0.04772 0.21764 0.71834
 C1808 C -0.03776 0.22362 0.72408
 C1809 C 0.30021 0.41596 0.29985
 N1810 N 0.30842 0.42515 0.29205
 N1811 N 0.30267 0.43702 0.28644
 C1812 C 0.28855 0.44010 0.28852
 N1813 N 0.28035 0.43089 0.29629
 N1814 N 0.28609 0.41903 0.30189
 C1815 C 0.30635 0.40315 0.30588
 C1816 C 0.31144 0.39240 0.31102
 C1817 C 0.28213 0.45248 0.28192
 C1818 C 0.27627 0.46242 0.27602
 C1819 C 0.30076 -0.08444 0.79993
 N1820 N 0.30896 -0.07505 0.79236
 N1821 N 0.30312 -0.06323 0.78672
 C1822 C 0.28891 -0.06040 0.78853
 N1823 N 0.28071 -0.06982 0.79606
 N1824 N 0.28655 -0.08163 0.80169
 C1825 C 0.30702 -0.09719 0.80603
 C1826 C 0.31220 -0.10790 0.81122
 C1827 C 0.28242 -0.04801 0.78195
 C1828 C 0.27653 -0.03804 0.77608
 C1829 C 0.80036 0.41587 0.80011
 N1830 N 0.80860 0.42513 0.79242
 N1831 N 0.80286 0.43701 0.78683
 C1832 C 0.78872 0.44003 0.78882
 N1833 N 0.78049 0.43076 0.79648
 N1834 N 0.78623 0.41889 0.80207
 C1835 C 0.80650 0.40303 0.80609
 C1836 C 0.81156 0.39224 0.81119
 C1837 C 0.78229 0.45239 0.78220
 C1838 C 0.77642 0.46233 0.77627
 C1839 C 0.80038 -0.08430 0.30000
 N1840 N 0.80766 -0.07166 0.30014
 N1841 N 0.80182 -0.05986 0.29447
 C1842 C 0.78852 -0.06035 0.28852
 N1843 N 0.78126 -0.07299 0.28837
 N1844 N 0.78709 -0.08478 0.29404
 C1845 C 0.80660 -0.09703 0.30611
 C1846 C 0.81169 -0.10779 0.31126
 C1847 C 0.78223 -0.04782 0.28208
 C1848 C 0.77642 -0.03782 0.27622
 C1849 C 0.30021 0.58394 0.70009
 N1850 N 0.30839 0.57477 0.70795
 N1851 N 0.30263 0.56291 0.71355
 C1852 C 0.28854 0.55982 0.71139
 N1853 N 0.28036 0.56901 0.70356
 N1854 N 0.28612 0.58087 0.69796
 C1855 C 0.30637 0.59676 0.69409
 C1856 C 0.31147 0.60752 0.68897
 C1857 C 0.28209 0.54747 0.71801
 C1858 C 0.27622 0.53754 0.72392
 C1859 C 0.30039 1.08383 0.20010
 N1860 N 0.28633 1.08069 0.19782
 N1861 N 0.28057 1.06883 0.20339
 C1862 C 0.28870 1.05972 0.21135
 N1863 N 0.30275 1.06287 0.21366
 N1864 N 0.30852 1.07473 0.20808
 C1865 C 0.30656 1.09660 0.19411
 C1866 C 0.31168 1.10732 0.18897
 C1867 C 0.28224 1.04740 0.21794
 C1868 C 0.27636 1.03749 0.22385
 C1869 C 0.80029 0.58385 0.20004
 N1870 N 0.78618 0.58083 0.19798
 N1871 N 0.78042 0.56899 0.20358
 C1872 C 0.78861 0.55977 0.21136
 N1873 N 0.80272 0.56280 0.21346
 N1874 N 0.80849 0.57465 0.20785
 C1875 C 0.80644 0.59665 0.19406
 C1876 C 0.81153 0.60740 0.18897
 C1877 C 0.78217 0.54745 0.21798
 C1878 C 0.77630 0.53755 0.22391
 C1879 C 0.80029 1.08384 0.70000
 N1880 N 0.78622 1.08072 0.69778
 N1881 N 0.78045 1.06890 0.70342
 C1882 C 0.78858 1.05981 0.71140
 N1883 N 0.80265 1.06293 0.71366
 N1884 N 0.80843 1.07476 0.70801
 C1885 C 0.80646 1.09659 0.69397
 C1886 C 0.81157 1.10732 0.68882
 C1887 C 0.78212 1.04752 0.71805
 C1888 C 0.77623 1.03764 0.72400
 C1889 C 0.69981 0.58411 0.29987
 N1890 N 0.69621 0.57090 0.30488
 N1891 N 0.70198 0.55911 0.29911
 C1892 C 0.71153 0.56021 0.28815
 N1893 N 0.71512 0.57342 0.28315
 N1894 N 0.70935 0.58519 0.28892
 C1895 C 0.69367 0.59682 0.30609
 C1896 C 0.68857 0.60754 0.31129
 C1897 C 0.71790 0.54764 0.28188
 C1898 C 0.72375 0.53762 0.27611
 C1899 C 0.69955 1.08436 0.79997
 N1900 N 0.69666 1.07120 0.80554
 N1901 N 0.70248 1.05942 0.79979
 C1902 C 0.71136 1.06046 0.78828
 N1903 N 0.71425 1.07362 0.78272
 N1904 N 0.70844 1.08539 0.78847
 C1905 C 0.69337 1.09709 0.80617
 C1906 C 0.68828 1.10785 0.81134
 C1907 C 0.71780 1.04789 0.78202
 C1908 C 0.72368 1.03786 0.77626
 C1909 C 0.19973 0.58397 0.79990
 N1910 N 0.19460 0.57077 0.80340
 N1911 N 0.20039 0.55897 0.79766
 C1912 C 0.21148 0.56005 0.78826
 N1913 N 0.21658 0.57325 0.78477
 N1914 N 0.21081 0.58502 0.79050
 C1915 C 0.19357 0.59669 0.80607
 C1916 C 0.18850 0.60744 0.81123
 C1917 C 0.21779 0.54749 0.78193
 C1918 C 0.22362 0.53747 0.77613
 C1919 C 0.19978 1.08408 0.29969
 N1920 N 0.19468 1.07087 0.30319
 N1921 N 0.20049 1.05908 0.29747
 C1922 C 0.21159 1.06017 0.28809
 N1923 N 0.21668 1.07337 0.28459
 N1924 N 0.21087 1.08515 0.29031
 C1925 C 0.19360 1.09679 0.30587
 C1926 C 0.18849 1.10751 0.31106
 C1927 C 0.21793 1.04760 0.28179
 C1928 C 0.22376 1.03758 0.27600
 C1929 C 0.69975 0.41596 0.70026
 N1930 N 0.71138 0.41490 0.70897
 N1931 N 0.71724 0.42664 0.71468
 C1932 C 0.71167 0.43982 0.71185
 N1933 N 0.70003 0.44091 0.70314
 N1934 N 0.69417 0.42915 0.69742
 C1935 C 0.69349 0.40328 0.69411
 C1936 C 0.68837 0.39255 0.68896
 C1937 C 0.71803 0.45235 0.71821
 C1938 C 0.72387 0.46235 0.72403
 C1939 C 0.69985 -0.08406 0.20035
 N1940 N 0.71124 -0.08515 0.20936
 N1941 N 0.71709 -0.07341 0.21506
 C1942 C 0.71175 -0.06021 0.21189
 N1943 N 0.70036 -0.05909 0.20287
 N1944 N 0.69451 -0.07086 0.19717
 C1945 C 0.69362 -0.09672 0.19419
 C1946 C 0.68847 -0.10739 0.18900
 C1947 C 0.71810 -0.04769 0.21820
 C1948 C 0.72393 -0.03770 0.22400
 C1949 C 0.19963 0.41618 0.20016
 N1950 N 0.19451 0.42940 0.19670
 N1951 N 0.20035 0.44117 0.20241
 C1952 C 0.21148 0.44004 0.21175
 N1953 N 0.21658 0.42683 0.21520
 N1954 N 0.21075 0.41508 0.20949
 C1955 C 0.19343 0.40350 0.19402
 C1956 C 0.18836 0.39275 0.18890
 C1957 C 0.21783 0.45256 0.21806
 C1958 C 0.22369 0.46254 0.22386
 C1959 C 0.19973 -0.08389 0.70000
 N1960 N 0.21378 -0.08075 0.69771
 N1961 N 0.21957 -0.06894 0.70335
 C1962 C 0.21146 -0.05988 0.71139
 N1963 N 0.19741 -0.06303 0.71371
 N1964 N 0.19162 -0.07485 0.70807
 C1965 C 0.19356 -0.09666 0.69399
 C1966 C 0.18847 -0.10740 0.68888
 C1967 C 0.21794 -0.04761 0.71803
 C1968 C 0.22384 -0.03774 0.72397
 C1969 C 0.29997 0.29991 0.41613
 N1970 N 0.29019 0.28917 0.41505
 N1971 N 0.28443 0.28340 0.42681
 C1972 C 0.28828 0.28819 0.44001
 N1973 N 0.29807 0.29894 0.44110
 N1974 N 0.30383 0.30471 0.42933
 C1975 C 0.30613 0.30610 0.40343
 C1976 C 0.31125 0.31123 0.39271
 C1977 C 0.28194 0.28189 0.45256
 C1978 C 0.27611 0.27609 0.46256
 C1979 C 0.30047 0.80013 -0.08400
 N1980 N 0.29069 0.78939 -0.08515
 N1981 N 0.28492 0.78355 -0.07343
 C1982 C 0.28874 0.78826 -0.06020
 N1983 N 0.29852 0.79901 -0.05903
 N1984 N 0.30430 0.80485 -0.07076
 C1985 C 0.30666 0.80642 -0.09665
 C1986 C 0.31182 0.81165 -0.10732
 C1987 C 0.28235 0.78193 -0.04768
 C1988 C 0.27650 0.77613 -0.03767
 C1989 C 0.79980 0.30042 -0.08398
 N1990 N 0.80371 0.30516 -0.07077
 N1991 N 0.79798 0.29935 -0.05900
 C1992 C 0.78817 0.28862 -0.06011
 N1993 N 0.78427 0.28390 -0.07331
 N1994 N 0.79000 0.28970 -0.08507
 C1995 C 0.80595 0.30663 -0.09668
 C1996 C 0.81105 0.31176 -0.10742
 C1997 C 0.78186 0.28228 -0.04756
 C1998 C 0.77606 0.27644 -0.03756
 C1999 C 0.79991 0.80036 0.41609
 N2000 N 0.80377 0.80516 0.42929
 N2001 N 0.79803 0.79936 0.44107
 C2002 C 0.78828 0.78859 0.43997
 N2003 N 0.78443 0.78380 0.42677
 N2004 N 0.79016 0.78960 0.41501
 C2005 C 0.80605 0.80657 0.40339
 C2006 C 0.81116 0.81172 0.39267
 C2007 C 0.78196 0.78226 0.45253
 C2008 C 0.77616 0.77644 0.46254
 C2009 C 0.69992 0.30001 0.58387
 N2010 N 0.71013 0.28965 0.58499
 N2011 N 0.71589 0.28387 0.57324
 C2012 C 0.71164 0.28826 0.56002
 N2013 N 0.70144 0.29863 0.55889
 N2014 N 0.69566 0.30442 0.57065
 C2015 C 0.69373 0.30622 0.59655
 C2016 C 0.68857 0.31139 0.60724
 C2017 C 0.71796 0.28192 0.54747
 C2018 C 0.72377 0.27610 0.53746
 C2019 C 0.70006 0.80012 1.08399
 N2020 N 0.70333 0.80852 1.07254
 N2021 N 0.70896 0.80274 1.06071
 C2022 C 0.71143 0.78839 1.05997
 N2023 N 0.70817 0.78001 1.07143
 N2024 N 0.70255 0.78578 1.08325
 C2025 C 0.69407 0.80630 1.09677
 C2026 C 0.68903 0.81139 1.10755
 C2027 C 0.71799 0.78212 1.04753
 C2028 C 0.72390 0.77631 1.03758
 C2029 C 0.19984 0.30023 1.08386
 N2030 N 0.20755 0.30845 1.07462
 N2031 N 0.21323 0.30268 1.06281
 C2032 C 0.21129 0.28853 1.05986
 N2033 N 0.20361 0.28032 1.06913
 N2034 N 0.19794 0.28609 1.08093
 C2035 C 0.19374 0.30642 1.09659
 C2036 C 0.18858 0.31159 1.10728
 C2037 C 0.21793 0.28211 1.04754
 C2038 C 0.22386 0.27625 1.03762
 C2039 C 0.20002 0.80025 0.58379
 N2040 N 0.20520 0.78663 0.58401
 N2041 N 0.21088 0.78085 0.57222
 C2042 C 0.21151 0.78849 0.55983
 N2043 N 0.20634 0.80213 0.55960
 N2044 N 0.20067 0.80791 0.57141
 C2045 C 0.19394 0.80644 0.59652
 C2046 C 0.18884 0.81156 0.60725
 C2047 C 0.21799 0.78225 0.54734
 C2048 C 0.22387 0.77646 0.53735
 C2049 C 0.30005 0.70005 0.58382
 N2050 N 0.30394 0.69527 0.57062
 N2051 N 0.29818 0.70106 0.55885
 C2052 C 0.28836 0.71180 0.55995
 N2053 N 0.28449 0.71656 0.57315
 N2054 N 0.29024 0.71078 0.58491
 C2055 C 0.30622 0.69385 0.59652
 C2056 C 0.31134 0.68871 0.60724
 C2057 C 0.28203 0.71811 0.54740
 C2058 C 0.27621 0.72393 0.53739
 C2059 C 0.29991 0.19992 1.08409
 N2060 N 0.29007 0.21063 1.08512
 N2061 N 0.28432 0.21634 1.07333
 C2062 C 0.28822 0.21152 1.06016
 N2063 N 0.29806 0.20080 1.05911
 N2064 N 0.30382 0.19508 1.07091
 C2065 C 0.30608 0.19381 1.09681
 C2066 C 0.31119 0.18875 1.10757
 C2067 C 0.28191 0.21780 1.04759
 C2068 C 0.27610 0.22362 1.03759
 C2069 C 0.79989 0.69979 1.08402
 N2070 N 0.79003 0.71047 1.08508
 N2071 N 0.78428 0.71623 1.07332
 C2072 C 0.78821 0.71149 1.06013
 N2073 N 0.79808 0.70079 1.05904
 N2074 N 0.80383 0.69503 1.07082
 C2075 C 0.80606 0.69365 1.09673
 C2076 C 0.81118 0.68857 1.10747
 C2077 C 0.78192 0.71782 1.04758
 C2078 C 0.77613 0.72367 1.03758
 C2079 C 0.79988 0.19959 0.58381
 N2080 N 0.78576 0.19762 0.58078
 N2081 N 0.78004 0.20323 0.56892
 C2082 C 0.78829 0.21092 0.55969
 N2083 N 0.80242 0.21292 0.56273
 N2084 N 0.80813 0.20731 0.57459
 C2085 C 0.80600 0.19363 0.59663
 C2086 C 0.81111 0.18859 0.60740
 C2087 C 0.78190 0.21757 0.54735
 C2088 C 0.77608 0.22353 0.53744
 C2089 C 0.69996 0.70006 0.41628
 N2090 N 0.71055 0.69309 0.42350
 N2091 N 0.71617 0.69877 0.43537
 C2092 C 0.71132 0.71156 0.44043
 N2093 N 0.70075 0.71854 0.43319
 N2094 N 0.69513 0.71287 0.42132
 C2095 C 0.69398 0.69400 0.40345
 C2096 C 0.68892 0.68891 0.39268
 C2097 C 0.71791 0.71807 0.45272
 C2098 C 0.72383 0.72396 0.46262
 C2099 C 0.69987 0.19992 -0.08387
 N2100 N 0.70444 0.19145 -0.07292
 N2101 N 0.71007 0.19729 -0.06112
 C2102 C 0.71124 0.21177 -0.05990
 N2103 N 0.70670 0.22022 -0.07087
 N2104 N 0.70107 0.21439 -0.08266
 C2105 C 0.69383 0.19365 -0.09659
 C2106 C 0.68871 0.18843 -0.10728
 C2107 C 0.71783 0.21812 -0.04751
 C2108 C 0.72376 0.22392 -0.03756
 C2109 C 0.19998 0.69998 -0.08383
 N2110 N 0.20752 0.69170 -0.07449
 N2111 N 0.21316 0.69744 -0.06266
 C2112 C 0.21137 0.71162 -0.05977
 N2113 N 0.20386 0.71989 -0.06913
 N2114 N 0.19822 0.71416 -0.08096
 C2115 C 0.19396 0.69383 -0.09660
 C2116 C 0.18886 0.68870 -0.10733
 C2117 C 0.21802 0.71801 -0.04745
 C2118 C 0.22398 0.72384 -0.03754
 C2119 C 0.19982 0.19984 0.41626
 N2120 N 0.21111 0.19338 0.42286
 N2121 N 0.21674 0.19904 0.43474
 C2122 C 0.21121 0.21128 0.44040
 N2123 N 0.19995 0.21776 0.43377
 N2124 N 0.19432 0.21210 0.42190
 C2125 C 0.19381 0.19380 0.40343
 C2126 C 0.18874 0.18871 0.39266
 C2127 C 0.21779 0.21782 0.45270
 C2128 C 0.22370 0.22371 0.46260
 C2129 C 0.30016 0.41608 0.70000
 N2130 N 0.30841 0.42531 0.70769
 N2131 N 0.30267 0.43718 0.71331
 C2132 C 0.28853 0.44021 0.71134
 N2133 N 0.28029 0.43097 0.70367
 N2134 N 0.28602 0.41910 0.69805
 C2135 C 0.30628 0.40326 0.69400
 C2136 C 0.31134 0.39248 0.68888
 C2137 C 0.28211 0.45257 0.71797
 C2138 C 0.27625 0.46249 0.72390
 C2139 C 0.30049 0.91627 0.19981
 N2140 N 0.30866 0.92542 0.20767
 N2141 N 0.30289 0.93726 0.21332
 C2142 C 0.28877 0.94032 0.21122
 N2143 N 0.28060 0.93115 0.20339
 N2144 N 0.28638 0.91933 0.19775
 C2145 C 0.30664 0.90348 0.19379
 C2146 C 0.31173 0.89273 0.18866
 C2147 C 0.28231 0.95263 0.21788
 C2148 C 0.27642 0.96252 0.22383
 C2149 C 0.80041 0.41632 0.19987
 N2150 N 0.80862 0.42555 0.20760
 N2151 N 0.80283 0.43738 0.21325
 C2152 C 0.78869 0.44037 0.21127
 N2153 N 0.78049 0.43112 0.20356
 N2154 N 0.78626 0.41930 0.19792
 C2155 C 0.80658 0.40353 0.19384
 C2156 C 0.81165 0.39277 0.18870
 C2157 C 0.78223 0.45268 0.21793
 C2158 C 0.77634 0.46257 0.22388
 C2159 C 0.80044 0.91642 0.69995
 N2160 N 0.80860 0.92561 0.70779
 N2161 N 0.80280 0.93743 0.71344
 C2162 C 0.78868 0.94047 0.71135
 N2163 N 0.78052 0.93127 0.70353
 N2164 N 0.78632 0.91945 0.69789
 C2165 C 0.80661 0.90360 0.69397
 C2166 C 0.81167 0.89281 0.68889
 C2167 C 0.78218 0.95276 0.71803
 C2168 C 0.77627 0.96265 0.72398
 C2169 C 0.69972 0.58386 0.70029
 N2170 N 0.69464 0.57063 0.69684
 N2171 N 0.70048 0.55887 0.70258
 C2172 C 0.71160 0.55999 0.71194
 N2173 N 0.71667 0.57321 0.71539
 N2174 N 0.71083 0.58496 0.70965
 C2175 C 0.69351 0.59655 0.69410
 C2176 C 0.68840 0.60729 0.68892
 C2177 C 0.71797 0.54744 0.71828
 C2178 C 0.72382 0.53743 0.72408
 C2179 C 0.69972 0.08360 0.20006
 N2180 N 0.69619 0.07036 0.19509
 N2181 N 0.70202 0.05862 0.20089
 C2182 C 0.71155 0.05979 0.21185
 N2183 N 0.71507 0.07303 0.21681
 N2184 N 0.70925 0.08475 0.21101
 C2185 C 0.69354 0.09628 0.19382
 C2186 C 0.68844 0.10700 0.18863
 C2187 C 0.71799 0.04728 0.21816
 C2188 C 0.72388 0.03730 0.22397
 C2189 C 0.19954 0.58387 0.19996
 N2190 N 0.19446 0.57063 0.19653
 N2191 N 0.20031 0.55888 0.20231
 C2192 C 0.21142 0.56004 0.21167
 N2193 N 0.21648 0.57327 0.21508
 N2194 N 0.21064 0.58500 0.20931
 C2195 C 0.19332 0.59654 0.19374
 C2196 C 0.18822 0.60726 0.18855
 C2197 C 0.21780 0.54752 0.21802
 C2198 C 0.22366 0.53754 0.22384
 C2199 C 0.19963 0.08362 0.70010
 N2200 N 0.21156 0.08464 0.70840
 N2201 N 0.21741 0.07291 0.71416
 C2202 C 0.21154 0.05978 0.71179
 N2203 N 0.19960 0.05874 0.70349
 N2204 N 0.19374 0.07049 0.69773
 C2205 C 0.19337 0.09631 0.69391
 C2206 C 0.18824 0.10703 0.68874
 C2207 C 0.21791 0.04726 0.71819
 C2208 C 0.22377 0.03727 0.72402
 C2209 C 0.30027 0.58384 0.29984
 N2210 N 0.28617 0.58076 0.30199
 N2211 N 0.28042 0.56891 0.29638
 C2212 C 0.28858 0.55975 0.28851
 N2213 N 0.30267 0.56285 0.28632
 N2214 N 0.30843 0.57470 0.29193
 C2215 C 0.30642 0.59663 0.30585
 C2216 C 0.31151 0.60739 0.31098
 C2217 C 0.28213 0.54741 0.28191
 C2218 C 0.27626 0.53748 0.27600
 C2219 C 0.30017 0.08363 0.79993
 N2220 N 0.28605 0.08057 0.80193
 N2221 N 0.28035 0.06868 0.79635
 C2222 C 0.28860 0.05945 0.78866
 N2223 N 0.30272 0.06252 0.78662
 N2224 N 0.30843 0.07441 0.79220
 C2225 C 0.30628 0.09645 0.80594
 C2226 C 0.31136 0.10720 0.81107
 C2227 C 0.28223 0.04705 0.78208
 C2228 C 0.27640 0.03710 0.77618
 C2229 C 0.80046 0.58375 0.80011
 N2230 N 0.78633 0.58074 0.80216
 N2231 N 0.78056 0.56890 0.79657
 C2232 C 0.78875 0.55965 0.78881
 N2233 N 0.80287 0.56267 0.78673
 N2234 N 0.80865 0.57453 0.79233
 C2235 C 0.80662 0.59658 0.80608
 C2236 C 0.81169 0.60736 0.81116
 C2237 C 0.78229 0.54731 0.78220
 C2238 C 0.77641 0.53739 0.77628
 C2239 C 0.80037 0.08364 0.29992
 N2240 N 0.78630 0.08052 0.30211
 N2241 N 0.78056 0.06865 0.29654
 C2242 C 0.78873 0.05950 0.28867
 N2243 N 0.80281 0.06263 0.28645
 N2244 N 0.80855 0.07450 0.29203
 C2245 C 0.80651 0.09646 0.30589
 C2246 C 0.81159 0.10722 0.31100
 C2247 C 0.78230 0.04715 0.28208
 C2248 C 0.77644 0.03723 0.27617
 C2249 C 0.69969 0.41616 0.29981
 N2250 N 0.70943 0.42400 0.30730
 N2251 N 0.71509 0.43589 0.30164
 C2252 C 0.71112 0.44032 0.28835
 N2253 N 0.70141 0.43246 0.28086
 N2254 N 0.69575 0.42058 0.28651
 C2255 C 0.69367 0.40333 0.30588
 C2256 C 0.68860 0.39257 0.31101
 C2257 C 0.71777 0.45265 0.28192
 C2258 C 0.72374 0.46256 0.27609
 C2259 C 0.69978 0.91620 0.79988
 N2260 N 0.69352 0.92922 0.80188
 N2261 N 0.69933 0.94103 0.79620
 C2262 C 0.71160 0.94014 0.78837
 N2263 N 0.71785 0.92712 0.78637
 N2264 N 0.71204 0.91533 0.79204
 C2265 C 0.69359 0.90348 0.80603
 C2266 C 0.68848 0.89275 0.81120
 C2267 C 0.71788 0.95271 0.78202
 C2268 C 0.72369 0.96273 0.77622
 C2269 C 0.19954 0.41602 0.79992
 N2270 N 0.20987 0.41487 0.78971
 N2271 N 0.21570 0.42661 0.78395
 C2272 C 0.21139 0.43987 0.78822
 N2273 N 0.20105 0.44104 0.79843
 N2274 N 0.19522 0.42929 0.80420
 C2275 C 0.19334 0.40334 0.80613
 C2276 C 0.18824 0.39261 0.81132
 C2277 C 0.21778 0.45241 0.78191
 C2278 C 0.22364 0.46241 0.77611
 C2279 C 0.19971 0.91618 0.29975
 N2280 N 0.21400 0.91667 0.29686
 N2281 N 0.21985 0.92847 0.29126
 C2282 C 0.21161 0.94016 0.28842
 N2283 N 0.19731 0.93968 0.29128
 N2284 N 0.19145 0.92787 0.29689
 C2285 C 0.19346 0.90343 0.30575
 C2286 C 0.18836 0.89267 0.31083
 C2287 C 0.21794 0.95259 0.28188
 C2288 C 0.22378 0.96254 0.27599
 C2289 C 0.41591 0.30019 0.70012
 N2290 N 0.42888 0.30671 0.69859
 N2291 N 0.44067 0.30088 0.70432
 C2292 C 0.43982 0.28835 0.71171
 N2293 N 0.42685 0.28186 0.71324
 N2294 N 0.41508 0.28768 0.70752
 C2295 C 0.40320 0.30640 0.69396
 C2296 C 0.39246 0.31150 0.68880
 C2297 C 0.45235 0.28204 0.71813
 C2298 C 0.46234 0.27621 0.72397
 C2299 C 0.41619 0.80043 0.20003
 N2300 N 0.42909 0.80715 0.19888
 N2301 N 0.44086 0.80130 0.20462
 C2302 C 0.44007 0.78855 0.21163
 N2303 N 0.42716 0.78186 0.21278
 N2304 N 0.41541 0.78770 0.20705
 C2305 C 0.40350 0.80666 0.19385
 C2306 C 0.39278 0.81176 0.18866
 C2307 C 0.45257 0.78223 0.21806
 C2308 C 0.46256 0.77640 0.22391
 C2309 C 0.91608 0.30047 0.20004
 N2310 N 0.92906 0.30696 0.19853
 N2311 N 0.94084 0.30112 0.20426
 C2312 C 0.93997 0.28858 0.21165
 N2313 N 0.92699 0.28211 0.21316
 N2314 N 0.91523 0.28795 0.20743
 C2315 C 0.90340 0.30670 0.19385
 C2316 C 0.89267 0.31179 0.18866
 C2317 C 0.95249 0.28226 0.21807
 C2318 C 0.96248 0.27643 0.22391
 C2319 C 0.91618 0.80051 0.70008
 N2320 N 0.92903 0.80738 0.69921
 N2321 N 0.94081 0.80153 0.70491
 C2322 C 0.94009 0.78860 0.71162
 N2323 N 0.92725 0.78175 0.71249
 N2324 N 0.91548 0.78760 0.70679
 C2325 C 0.90347 0.80675 0.69396
 C2326 C 0.89271 0.81183 0.68883
 C2327 C 0.95259 0.78229 0.71806
 C2328 C 0.96257 0.77646 0.72393
 C2329 C 0.58404 0.30035 0.29968
 N2330 N 0.58483 0.29310 0.28709
 N2331 N 0.57307 0.28730 0.28134
 C2332 C 0.56015 0.28858 0.28798
 N2333 N 0.55934 0.29582 0.30059
 N2334 N 0.57111 0.30162 0.30635
 C2335 C 0.59674 0.30651 0.30589
 C2336 C 0.60746 0.31163 0.31108
 C2337 C 0.54763 0.28206 0.28177
 C2338 C 0.53763 0.27613 0.27603
 C2339 C 0.58392 0.80059 0.79993
 N2340 N 0.57101 0.80182 0.80663
 N2341 N 0.55923 0.79604 0.80087
 C2342 C 0.56001 0.78886 0.78823
 N2343 N 0.57292 0.78762 0.78155
 N2344 N 0.58469 0.79340 0.78730
 C2345 C 0.59664 0.80672 0.80614
 C2346 C 0.60738 0.81180 0.81132
 C2347 C 0.54748 0.78235 0.78202
 C2348 C 0.53747 0.77644 0.77628
 C2349 C 0.08375 0.30035 0.79991
 N2350 N 0.08457 0.29315 0.78729
 N2351 N 0.07282 0.28737 0.78150
 C2352 C 0.05988 0.28863 0.78812
 N2353 N 0.05905 0.29583 0.80075
 N2354 N 0.07082 0.30161 0.80655
 C2355 C 0.09646 0.30648 0.80616
 C2356 C 0.10719 0.31156 0.81136
 C2357 C 0.04737 0.28213 0.78187
 C2358 C 0.03738 0.27622 0.77611
 C2359 C 0.08385 0.80055 0.29970
 N2360 N 0.08464 0.79329 0.28711
 N2361 N 0.07287 0.78749 0.28137
 C2362 C 0.05996 0.78877 0.28802
 N2363 N 0.05915 0.79602 0.30063
 N2364 N 0.07093 0.80182 0.30638
 C2365 C 0.09657 0.80668 0.30590
 C2366 C 0.10734 0.81174 0.31104
 C2367 C 0.04744 0.78225 0.28181
 C2368 C 0.03745 0.77632 0.27607
 C2369 C 0.58388 0.69962 0.70034
 N2370 N 0.58393 0.70406 0.71420
 N2371 N 0.57215 0.70981 0.71999
 C2372 C 0.55996 0.71128 0.71212
 N2373 N 0.55991 0.70687 0.69825
 N2374 N 0.57170 0.70110 0.69245
 C2375 C 0.59663 0.69353 0.69410
 C2376 C 0.60737 0.68845 0.68891
 C2377 C 0.54750 0.71790 0.71837
 C2378 C 0.53751 0.72386 0.72412
 C2379 C 0.58401 0.19932 0.20015
 N2380 N 0.58485 0.20670 0.21265
 N2381 N 0.57310 0.21249 0.21845
 C2382 C 0.56014 0.21107 0.21193
 N2383 N 0.55928 0.20370 0.19940
 N2384 N 0.57104 0.19790 0.19360
 C2385 C 0.59671 0.19319 0.19390
 C2386 C 0.60745 0.18811 0.18870
 C2387 C 0.54763 0.21759 0.21817
 C2388 C 0.53764 0.22351 0.22393
 C2389 C 0.08383 0.69960 0.20009
 N2390 N 0.08468 0.70699 0.21260
 N2391 N 0.07292 0.71276 0.21841
 C2392 C 0.05995 0.71131 0.21191
 N2393 N 0.05908 0.70393 0.19939
 N2394 N 0.07085 0.69815 0.19358
 C2395 C 0.09653 0.69349 0.19382
 C2396 C 0.10726 0.68841 0.18860
 C2397 C 0.04744 0.71781 0.21817
 C2398 C 0.03744 0.72372 0.22394
 C2399 C 0.08375 0.19948 0.70021
 N2400 N 0.08459 0.20687 0.71272
 N2401 N 0.07282 0.21263 0.71852
 C2402 C 0.05986 0.21118 0.71200
 N2403 N 0.05901 0.20380 0.69948
 N2404 N 0.07079 0.19802 0.69368
 C2405 C 0.09647 0.19335 0.69397
 C2406 C 0.10720 0.18825 0.68878
 C2407 C 0.04734 0.21768 0.71825
 C2408 C 0.03734 0.22360 0.72400
 C2409 C 0.41604 0.69967 0.29976
 N2410 N 0.42904 0.69321 0.30133
 N2411 N 0.44082 0.69908 0.29564
 C2412 C 0.43993 0.71161 0.28823
 N2413 N 0.42693 0.71804 0.28665
 N2414 N 0.41517 0.71217 0.29233
 C2415 C 0.40334 0.69342 0.30590
 C2416 C 0.39261 0.68829 0.31106
 C2417 C 0.45246 0.71795 0.28185
 C2418 C 0.46247 0.72379 0.27604
 C2419 C 0.41584 0.19955 0.79986
 N2420 N 0.41498 0.21205 0.79243
 N2421 N 0.42675 0.21790 0.78674
 C2422 C 0.43975 0.21146 0.78833
 N2423 N 0.44062 0.19895 0.79576
 N2424 N 0.42884 0.19309 0.80146
 C2425 C 0.40314 0.19330 0.80600
 C2426 C 0.39241 0.18816 0.81117
 C2427 C 0.45228 0.21779 0.78195
 C2428 C 0.46229 0.22362 0.77612
 C2429 C 0.91609 0.69980 0.79991
 N2430 N 0.91522 0.71227 0.79244
 N2431 N 0.92698 0.71813 0.78676
 C2432 C 0.93999 0.71173 0.78838
 N2433 N 0.94088 0.69924 0.79585
 N2434 N 0.92910 0.69337 0.80154
 C2435 C 0.90337 0.69354 0.80601
 C2436 C 0.89260 0.68845 0.81111
 C2437 C 0.95251 0.71806 0.78198
 C2438 C 0.96250 0.72390 0.77614
 C2439 C 0.91597 0.19962 0.29970
 N2440 N 0.92919 0.19422 0.30278
 N2441 N 0.94095 0.20009 0.29706
 C2442 C 0.93984 0.21154 0.28812
 N2443 N 0.92663 0.21692 0.28505
 N2444 N 0.91488 0.21106 0.29076
 C2445 C 0.90328 0.19337 0.30588
 C2446 C 0.89257 0.18824 0.31105
 C2447 C 0.95238 0.21792 0.28179
 C2448 C 0.96239 0.22378 0.27601
 C2449 C 0.29996 0.30001 0.58385
 N2450 N 0.30380 0.30479 0.57063
 N2451 N 0.29804 0.29899 0.55888
 C2452 C 0.28826 0.28824 0.56002
 N2453 N 0.28443 0.28347 0.57323
 N2454 N 0.29018 0.28926 0.58497
 C2455 C 0.30613 0.30622 0.59652
 C2456 C 0.31126 0.31138 0.60722
 C2457 C 0.28192 0.28191 0.54749
 C2458 C 0.27609 0.27610 0.53750
 C2459 C 0.30024 0.80012 0.08372
 N2460 N 0.30302 0.80581 0.07059
 N2461 N 0.29729 0.80002 0.05882
 C2462 C 0.28862 0.78834 0.05984
 N2463 N 0.28585 0.78266 0.07296
 N2464 N 0.29157 0.78845 0.08472
 C2465 C 0.30637 0.80633 0.09641
 C2466 C 0.31148 0.81148 0.10713
 C2467 C 0.28225 0.78206 0.04730
 C2468 C 0.27642 0.77626 0.03731
 C2469 C 0.80008 0.30017 0.08375
 N2470 N 0.80068 0.30723 0.07101
 N2471 N 0.79497 0.30142 0.05924
 C2472 C 0.78851 0.28837 0.05986
 N2473 N 0.78790 0.28133 0.07259
 N2474 N 0.79361 0.28713 0.08435
 C2475 C 0.80618 0.30639 0.09645
 C2476 C 0.81129 0.31153 0.10717
 C2477 C 0.78204 0.28212 0.04736
 C2478 C 0.77615 0.27634 0.03738
 C2479 C 0.80015 0.80026 0.58383
 N2480 N 0.79037 0.78952 0.58495
 N2481 N 0.78459 0.78374 0.57321
 C2482 C 0.78842 0.78851 0.56000
 N2483 N 0.79820 0.79926 0.55886
 N2484 N 0.80398 0.80504 0.57061
 C2485 C 0.80633 0.80647 0.59650
 C2486 C 0.81149 0.81163 0.60719
 C2487 C 0.78206 0.78220 0.54747
 C2488 C 0.77623 0.77639 0.53748
 C2489 C 0.29999 0.69995 0.41603
 N2490 N 0.30391 0.69521 0.42924
 N2491 N 0.29816 0.70101 0.44101
 C2492 C 0.28833 0.71174 0.43990
 N2493 N 0.28443 0.71646 0.42669
 N2494 N 0.29017 0.71067 0.41494
 C2495 C 0.30615 0.69373 0.40334
 C2496 C 0.31127 0.68858 0.39262
 C2497 C 0.28200 0.71807 0.45244
 C2498 C 0.27619 0.72390 0.46244
 C2499 C 0.29990 0.19968 0.91626
 N2500 N 0.30382 0.19494 0.92947
 N2501 N 0.29807 0.20075 0.94124
 C2502 C 0.28824 0.21148 0.94012
 N2503 N 0.28433 0.21620 0.92691
 N2504 N 0.29008 0.21039 0.91516
 C2505 C 0.30606 0.19346 0.90357
 C2506 C 0.31117 0.18831 0.89284
 C2507 C 0.28191 0.21781 0.95266
 C2508 C 0.27610 0.22364 0.96266
 C2509 C 0.80011 0.69994 0.91624
 N2510 N 0.79032 0.71069 0.91515
 N2511 N 0.78457 0.71647 0.92691
 C2512 C 0.78842 0.71168 0.94011
 N2513 N 0.79821 0.70092 0.94122
 N2514 N 0.80397 0.69514 0.92945
 C2515 C 0.80627 0.69374 0.90355
 C2516 C 0.81140 0.68860 0.89282
 C2517 C 0.78207 0.71799 0.95265
 C2518 C 0.77624 0.72379 0.96265
 C2519 C 0.80007 0.19972 0.41613
 N2520 N 0.79905 0.19195 0.42842
 N2521 N 0.79337 0.19777 0.44021
 C2522 C 0.78858 0.21154 0.44007
 N2523 N 0.78959 0.21929 0.42777
 N2524 N 0.79526 0.21348 0.41600
 C2525 C 0.80614 0.19349 0.40341
 C2526 C 0.81124 0.18834 0.39268
 C2527 C 0.78206 0.21781 0.45254
 C2528 C 0.77616 0.22360 0.46252
 C2529 C 0.69999 0.30018 0.41618
 N2530 N 0.71406 0.30234 0.41934
 N2531 N 0.71977 0.29669 0.43119
 C2532 C 0.71157 0.28877 0.44027
 N2533 N 0.69751 0.28658 0.43709
 N2534 N 0.69179 0.29223 0.42524
 C2535 C 0.69388 0.30621 0.40337
 C2536 C 0.68877 0.31130 0.39262
 C2537 C 0.71797 0.28210 0.45261
 C2538 C 0.72379 0.27614 0.46252
 C2539 C 0.70004 0.80032 0.91631
 N2540 N 0.71453 0.79965 0.91788
 N2541 N 0.72028 0.79400 0.92970
 C2542 C 0.71174 0.78890 0.94034
 N2543 N 0.69725 0.78953 0.93877
 N2544 N 0.69149 0.79518 0.92694
 C2545 C 0.69388 0.80634 0.90353
 C2546 C 0.68876 0.81143 0.89279
 C2547 C 0.71805 0.78225 0.95273
 C2548 C 0.72385 0.77630 0.96266
 C2549 C 0.19983 0.29999 0.91628
 N2550 N 0.20913 0.28881 0.91523
 N2551 N 0.21489 0.28304 0.92699
 C2552 C 0.21152 0.28826 0.94016
 N2553 N 0.20222 0.29945 0.94123
 N2554 N 0.19646 0.30523 0.92945
 C2555 C 0.19367 0.30618 0.90358
 C2556 C 0.18854 0.31131 0.89285
 C2557 C 0.21788 0.28197 0.95270
 C2558 C 0.22373 0.27617 0.96270
 C2559 C 0.19985 0.80025 0.41607
 N2560 N 0.20317 0.80862 0.42752
 N2561 N 0.20882 0.80282 0.43933
 C2562 C 0.21128 0.78847 0.44005
 N2563 N 0.20798 0.78011 0.42859
 N2564 N 0.20233 0.78590 0.41679
 C2565 C 0.19380 0.80646 0.40333
 C2566 C 0.18869 0.81161 0.39261
 C2567 C 0.21786 0.78218 0.45248
 C2568 C 0.22380 0.77639 0.46243
 C2569 C 0.69996 0.70008 0.58395
 N2570 N 0.70392 0.71410 0.58380
 N2571 N 0.70958 0.71991 0.57201
 C2572 C 0.71142 0.71190 0.55999
 N2573 N 0.70748 0.69786 0.56013
 N2574 N 0.70182 0.69204 0.57193
 C2575 C 0.69391 0.69384 0.59668
 C2576 C 0.68882 0.68868 0.60742
 C2577 C 0.71796 0.71817 0.54753
 C2578 C 0.72387 0.72395 0.53755
 C2579 C 0.70002 0.19988 0.08378
 N2580 N 0.70338 0.19152 0.07232
 N2581 N 0.70900 0.19734 0.06051
 C2582 C 0.71139 0.21171 0.05979
 N2583 N 0.70805 0.22005 0.07125
 N2584 N 0.70243 0.21423 0.08306
 C2585 C 0.69401 0.19365 0.09653
 C2586 C 0.68893 0.18848 0.10726
 C2587 C 0.71795 0.21802 0.04736
 C2588 C 0.72386 0.22382 0.03740
 C2589 C 0.19995 0.70005 0.08373
 N2590 N 0.20327 0.69168 0.07227
 N2591 N 0.20896 0.69748 0.06047
 C2592 C 0.21143 0.71183 0.05976
 N2593 N 0.20812 0.72018 0.07123
 N2594 N 0.20245 0.71439 0.08302
 C2595 C 0.19390 0.69385 0.09647
 C2596 C 0.18879 0.68870 0.10720
 C2597 C 0.21804 0.71811 0.04734
 C2598 C 0.22399 0.72389 0.03739
 C2599 C 0.19976 0.19974 0.58384
 N2600 N 0.21033 0.19277 0.57661
 N2601 N 0.21598 0.19846 0.56475
 C2602 C 0.21116 0.21127 0.55971
 N2603 N 0.20061 0.21826 0.56696
 N2604 N 0.19497 0.21257 0.57882
 C2605 C 0.19374 0.19366 0.59666
 C2606 C 0.18866 0.18855 0.60741
 C2607 C 0.21777 0.21780 0.54742
 C2608 C 0.22370 0.22369 0.53752
   
