data_POSCAR
  _audit_creation_date              2014-09-24
  _audit_creation_method            'ToBaCCo'
  _symmetry_space_group_name_H-M    'P1'
  _symmetry_Int_Tables_number       1
  _symmetry_cell_setting            triclinic
  loop_
  _symmetry_equiv_pos_as_xyz
 x,y,z
_cell_length_a 32.9324
_cell_length_b 34.6204
_cell_length_c 42.3442
_cell_angle_alpha 89.967700
_cell_angle_beta 89.903500
_cell_angle_gamma 89.985900
loop_
  _atom_site_label
  _atom_site_type_symbol
  _atom_site_fract_x
  _atom_site_fract_y
  _atom_site_fract_z
Zr1 Zr 0.24877 0.25332 0.30869
 O2 O 0.28161 0.28385 0.34363
 O3 O 0.20863 0.22032 0.33609
 O4 O 0.21013 0.29099 0.33370
 O5 O 0.32001 0.18118 0.29851
 O6 O 0.17882 0.32609 0.29510
 O7 O 0.28540 0.21604 0.33566
 O8 O 0.16943 0.19013 0.29912
 O9 O 0.19552 0.25680 0.28198
 O10 O 0.24550 0.20218 0.28255
 O11 O 0.25518 0.30349 0.28114
 O12 O 0.30325 0.25087 0.28236
 Zr13 Zr 0.25171 0.25301 0.19846
 Zr14 Zr 0.20324 0.30500 0.25276
 Zr15 Zr 0.29755 0.20091 0.25463
 Zr16 Zr 0.19377 0.20670 0.25484
 O17 O 0.36179 0.20126 0.25364
 O18 O 0.13115 0.22095 0.25426
 O19 O 0.24555 0.20228 0.22591
 O20 O 0.19793 0.25506 0.22524
 O21 O 0.25528 0.30439 0.22428
 O22 O 0.30460 0.24918 0.22564
 C23 C 0.17958 0.19782 0.32779
 C24 C 0.31128 0.19021 0.32725
 C25 C 0.18512 0.31694 0.32402
 O26 O 0.13911 0.30466 0.24940
 O27 O 0.18512 0.32961 0.20984
 O28 O 0.21748 0.29378 0.17217
 C29 C 0.19351 0.32120 0.18109
 O30 O 0.33515 0.32008 0.29422
 Zr31 Zr 0.30691 0.29934 0.25244
 O32 O 0.29280 0.28538 0.17131
 O33 O 0.21326 0.36531 0.25518
 O34 O 0.30145 0.36036 0.25195
 O35 O 0.37006 0.28740 0.25114
 O36 O 0.32905 0.31873 0.20828
 C37 C 0.32017 0.30975 0.17963
 O38 O 0.21688 0.22576 0.16289
 O39 O 0.28793 0.14052 0.25666
 O40 O 0.28565 0.21133 0.17343
 O41 O 0.31577 0.17493 0.21192
 O42 O 0.19664 0.14557 0.25722
 O43 O 0.16912 0.18191 0.21315
 C44 C 0.30825 0.18328 0.18292
 H45 H 0.24415 0.17869 0.29584
 H46 H 0.17376 0.25617 0.21139
 H47 H 0.32955 0.24653 0.21275
 H48 H 0.25710 0.32675 0.29465
 H49 H 0.11589 0.19745 0.26043
 H50 H 0.13003 0.33194 0.25040
 H51 H 0.18626 0.37787 0.25396
 H52 H 0.32832 0.37109 0.24610
 H53 H 0.16914 0.13613 0.26280
 H54 H 0.31509 0.12831 0.25801
 H55 H 0.37059 0.17389 0.25356
 H56 H 0.38418 0.31174 0.24551
 H57 H 0.14460 0.16675 0.21862
 H58 H 0.22803 0.23426 0.14224
 H59 H 0.27076 0.27569 0.36447
 H60 H 0.35498 0.34050 0.28867
 Zr61 Zr 0.75538 0.74971 0.30116
 O62 O 0.72452 0.71503 0.33471
 O63 O 0.79481 0.78166 0.32996
 O64 O 0.79521 0.71053 0.32309
 O65 O 0.68038 0.81928 0.29659
 O66 O 0.82739 0.68012 0.28219
 O67 O 0.71794 0.78308 0.33099
 O68 O 0.83073 0.81773 0.29443
 O69 O 0.80819 0.75130 0.27354
 O70 O 0.75507 0.80317 0.27822
 O71 O 0.75127 0.70201 0.27055
 O72 O 0.70012 0.75172 0.27601
 Zr73 Zr 0.74916 0.76018 0.19146
 Zr74 Zr 0.80254 0.70564 0.24128
 Zr75 Zr 0.70218 0.80431 0.25132
 Zr76 Zr 0.80624 0.80391 0.24960
 O77 O 0.63807 0.80050 0.25192
 O78 O 0.86951 0.79294 0.24716
 O79 O 0.75340 0.80844 0.22184
 O80 O 0.80387 0.75841 0.21710
 O81 O 0.74956 0.70632 0.21396
 O82 O 0.69699 0.75848 0.21964
 C83 C 0.82208 0.80665 0.32270
 C84 C 0.69062 0.80845 0.32456
 C85 C 0.82043 0.68581 0.31174
 O86 O 0.86654 0.70967 0.23835
 O87 O 0.82172 0.68792 0.19588
 O88 O 0.78525 0.72533 0.16168
 C89 C 0.81174 0.69909 0.16793
 O90 O 0.67267 0.68058 0.28438
 Zr91 Zr 0.69855 0.70598 0.24330
 O92 O 0.70985 0.72730 0.16301
 O93 O 0.79602 0.64496 0.23844
 O94 O 0.70727 0.64547 0.23947
 O95 O 0.63475 0.71437 0.24336
 O96 O 0.67681 0.68891 0.19860
 C97 C 0.68447 0.70054 0.17038
 O98 O 0.78084 0.79349 0.15744
 O99 O 0.70857 0.86481 0.25639
 O100 O 0.71130 0.80134 0.16959
 O101 O 0.68049 0.83268 0.21065
 O102 O 0.80018 0.86442 0.25579
 O103 O 0.82834 0.83382 0.20923
 C104 C 0.68721 0.82703 0.18108
 H105 H 0.75561 0.82543 0.29286
 H106 H 0.82768 0.76015 0.20287
 H107 H 0.67153 0.76069 0.20738
 H108 H 0.75072 0.67741 0.28248
 H109 H 0.88363 0.81649 0.25463
 H110 H 0.87700 0.68289 0.23689
 H111 H 0.82370 0.63414 0.23599
 H112 H 0.68081 0.63388 0.23364
 H113 H 0.82731 0.87470 0.26142
 H114 H 0.68085 0.87548 0.25904
 H115 H 0.62765 0.82728 0.25357
 H116 H 0.62205 0.68972 0.23674
 H117 H 0.85233 0.84942 0.21518
 H118 H 0.76969 0.78668 0.13640
 H119 H 0.73545 0.72173 0.35583
 H120 H 0.65379 0.65969 0.27812
 Zr121 Zr 0.75462 0.25087 -0.30295
 O122 O 0.72292 0.28417 -0.33689
 O123 O 0.79481 0.21917 -0.33142
 O124 O 0.79347 0.29045 -0.32549
 O125 O 0.68154 0.17969 -0.29724
 O126 O 0.82477 0.32236 -0.28506
 O127 O 0.71806 0.21613 -0.33222
 O128 O 0.83171 0.18473 -0.29550
 O129 O 0.80743 0.25109 -0.27547
 O130 O 0.75578 0.19789 -0.27930
 O131 O 0.74911 0.29906 -0.27299
 O132 O 0.69942 0.24802 -0.27762
 Zr133 Zr 0.74871 0.24235 -0.19316
 Zr134 Zr 0.80044 0.29723 -0.24384
 Zr135 Zr 0.70295 0.19599 -0.25227
 Zr136 Zr 0.80695 0.19895 -0.25081
 O137 O 0.63874 0.19820 -0.25275
 O138 O 0.86989 0.21156 -0.24880
 O139 O 0.75424 0.19363 -0.22288
 O140 O 0.80334 0.24503 -0.21893
 O141 O 0.74755 0.29575 -0.21635
 O142 O 0.69649 0.24228 -0.22118
 C143 C 0.82269 0.19494 -0.32388
 C144 C 0.69144 0.19027 -0.32536
 C145 C 0.81805 0.31591 -0.31449
 O146 O 0.86451 0.29485 -0.24079
 O147 O 0.81873 0.31666 -0.19883
 O148 O 0.78356 0.27893 -0.16397
 C149 C 0.80904 0.30588 -0.17072
 O150 O 0.66986 0.31831 -0.28677
 Zr151 Zr 0.69654 0.29432 -0.24550
 O152 O 0.70860 0.27466 -0.16497
 O153 O 0.79227 0.35780 -0.24204
 O154 O 0.70360 0.35509 -0.24248
 O155 O 0.63299 0.28437 -0.24519
 O156 O 0.67450 0.31169 -0.20086
 C157 C 0.68256 0.30071 -0.17254
 O158 O 0.78143 0.21054 -0.15887
 O159 O 0.71098 0.13558 -0.25656
 O160 O 0.71193 0.20081 -0.17062
 O161 O 0.68194 0.16800 -0.21120
 O162 O 0.80261 0.13818 -0.25611
 O163 O 0.82992 0.17050 -0.21009
 C164 C 0.68844 0.17443 -0.18175
 H165 H 0.75690 0.17534 -0.29363
 H166 H 0.82718 0.24424 -0.20473
 H167 H 0.67110 0.23969 -0.20881
 H168 H 0.74790 0.32338 -0.28526
 H169 H 0.88466 0.18820 -0.25596
 H170 H 0.87423 0.32190 -0.23975
 H171 H 0.81963 0.36937 -0.23977
 H172 H 0.67686 0.36614 -0.23663
 H173 H 0.83002 0.12845 -0.26163
 H174 H 0.68356 0.12419 -0.25900
 H175 H 0.62907 0.17115 -0.25404
 H176 H 0.61964 0.30879 -0.23875
 H177 H 0.85436 0.15541 -0.21589
 H178 H 0.77014 0.21749 -0.13788
 H179 H 0.73405 0.27731 -0.35795
 H180 H 0.65043 0.33883 -0.28068
 Zr181 Zr 0.24676 0.74632 -0.30745
 O182 O 0.27885 0.71539 -0.34267
 O183 O 0.20707 0.78010 -0.33459
 O184 O 0.20738 0.70918 -0.33227
 O185 O 0.31939 0.81726 -0.29739
 O186 O 0.17567 0.67440 -0.29357
 O187 O 0.28421 0.78313 -0.33450
 O188 O 0.16851 0.81068 -0.29737
 O189 O 0.19357 0.74344 -0.28044
 O190 O 0.24437 0.79739 -0.28119
 O191 O 0.25245 0.69599 -0.27993
 O192 O 0.30134 0.74783 -0.28132
 Zr193 Zr 0.25012 0.74618 -0.19710
 Zr194 Zr 0.20060 0.69504 -0.25124
 Zr195 Zr 0.29651 0.79779 -0.25349
 Zr196 Zr 0.19267 0.79349 -0.25322
 O197 O 0.36074 0.79652 -0.25265
 O198 O 0.12987 0.78003 -0.25249
 O199 O 0.24461 0.79703 -0.22450
 O200 O 0.19620 0.74501 -0.22365
 O201 O 0.25278 0.69481 -0.22303
 O202 O 0.30293 0.74938 -0.22457
 C203 C 0.17839 0.80305 -0.32616
 C204 C 0.31065 0.80852 -0.32617
 C205 C 0.18201 0.68352 -0.32253
 O206 O 0.13651 0.69630 -0.24753
 O207 O 0.18235 0.67057 -0.20810
 O208 O 0.21552 0.70573 -0.17059
 C209 C 0.19105 0.67864 -0.17931
 O210 O 0.33200 0.67800 -0.29340
 Zr211 Zr 0.30436 0.69925 -0.25146
 O212 O 0.29106 0.71328 -0.17022
 O213 O 0.20966 0.63461 -0.25387
 O214 O 0.29788 0.63832 -0.25091
 O215 O 0.36768 0.71035 -0.25063
 O216 O 0.32664 0.67956 -0.20746
 C217 C 0.31813 0.68863 -0.17873
 O218 O 0.21574 0.77373 -0.16131
 O219 O 0.28778 0.85831 -0.25548
 O220 O 0.28463 0.78753 -0.17221
 O221 O 0.31509 0.82357 -0.21085
 O222 O 0.19653 0.85458 -0.25537
 O223 O 0.16839 0.81849 -0.21142
 C224 C 0.30751 0.81535 -0.18181
 H225 H 0.24341 0.82094 -0.29443
 H226 H 0.17209 0.74420 -0.20967
 H227 H 0.32797 0.75169 -0.21181
 H228 H 0.25396 0.67273 -0.29348
 H229 H 0.11492 0.80374 -0.25856
 H230 H 0.12703 0.66915 -0.24848
 H231 H 0.18248 0.62245 -0.25241
 H232 H 0.32460 0.62718 -0.24521
 H233 H 0.16920 0.86446 -0.26088
 H234 H 0.31512 0.87015 -0.25691
 H235 H 0.36997 0.82376 -0.25253
 H236 H 0.38151 0.68583 -0.24511
 H237 H 0.14405 0.83394 -0.21679
 H238 H 0.22693 0.76513 -0.14073
 H239 H 0.26806 0.72387 -0.36341
 H240 H 0.35155 0.65732 -0.28794
 Zr241 Zr 1.24870 1.25778 0.80192
 O242 O 1.21252 1.23109 0.83706
 O243 O 1.28951 1.28956 0.82956
 O244 O 1.28331 1.21860 0.82902
 O245 O 1.18237 1.33345 0.78661
 O246 O 1.31451 1.18033 0.79228
 O247 O 1.21229 1.29864 0.82612
 O248 O 1.33239 1.31586 0.79296
 O249 O 1.30294 1.25005 0.77676
 O250 O 1.25645 1.30738 0.77438
 O251 O 1.24087 1.20677 0.77558
 O252 O 1.19591 1.26189 0.77392
 Zr253 Zr 1.25091 1.25344 0.69170
 Zr254 Zr 1.29390 1.20108 0.74850
 Zr255 Zr 1.20607 1.31007 0.74479
 Zr256 Zr 1.30916 1.29882 0.74837
 O257 O 1.14196 1.31330 0.74238
 O258 O 1.37070 1.28091 0.74995
 O259 O 1.25920 1.30491 0.71769
 O260 O 1.30334 1.24958 0.71990
 O261 O 1.24323 1.20339 0.71883
 O262 O 1.19720 1.26094 0.71733
 C263 C 1.32042 1.30992 0.82156
 C264 C 1.18854 1.32543 0.81579
 C265 C 1.30704 1.19077 0.82081
 O266 O 1.35803 1.19784 0.74696
 O267 O 1.31207 1.17395 0.70614
 O268 O 1.28323 1.21026 0.66710
 C269 C 1.30501 1.18186 0.67696
 O270 O 1.15947 1.19539 0.78724
 Zr271 Zr 1.19081 1.21227 0.74554
 O272 O 1.20962 1.22152 0.66448
 O273 O 1.28034 1.14150 0.75214
 O274 O 1.19267 1.15108 0.74728
 O275 O 1.12849 1.22711 0.74198
 O276 O 1.16993 1.19174 0.70150
 C277 C 1.18072 1.19878 0.67286
 O278 O 1.28895 1.27804 0.65671
 O279 O 1.21985 1.36977 0.74485
 O280 O 1.21937 1.29456 0.66434
 O281 O 1.19043 1.33441 0.70102
 O282 O 1.31001 1.36006 0.74904
 O283 O 1.33759 1.32051 0.70690
 C284 C 1.19768 1.32384 0.67251
 H285 H 1.25856 1.33134 0.78701
 H286 H 1.32797 1.24660 0.70668
 H287 H 1.17292 1.26408 0.70383
 H288 H 1.23685 1.18424 0.78965
 H289 H 1.38716 1.30366 0.75606
 H290 H 1.36528 1.17013 0.74868
 H291 H 1.30662 1.12757 0.75175
 H292 H 1.16546 1.14149 0.74112
 H293 H 1.33773 1.36819 0.75525
 H294 H 1.19358 1.38373 0.74481
 H295 H 1.13481 1.34105 0.74077
 H296 H 1.11337 1.20317 0.73686
 H297 H 1.36271 1.33449 0.71274
 H298 H 1.27847 1.26951 0.63589
 H299 H 1.22274 1.24012 0.85781
 H300 H 1.13887 1.17561 0.78193
 Zr301 Zr 0.74980 0.75680 0.80885
 O302 O 0.78042 0.79035 0.84319
 O303 O 0.71025 0.72394 0.83699
 O304 O 0.70951 0.79482 0.83184
 O305 O 0.82436 0.68678 0.80245
 O306 O 0.67794 0.82701 0.79169
 O307 O 0.78771 0.72285 0.83760
 O308 O 0.67280 0.69081 0.80062
 O309 O 0.69713 0.75740 0.78131
 O310 O 0.74884 0.70413 0.78472
 O311 O 0.75539 0.80555 0.77954
 O312 O 0.80498 0.75427 0.78344
 Zr313 Zr 0.75561 0.75019 0.69911
 Zr314 Zr 0.70411 0.80420 0.75036
 Zr315 Zr 0.80165 0.70259 0.75758
 Zr316 Zr 0.69762 0.70573 0.75615
 O317 O 0.86588 0.70437 0.75709
 O318 O 0.63465 0.71825 0.75425
 O319 O 0.75027 0.70087 0.72821
 O320 O 0.70100 0.75253 0.72479
 O321 O 0.75700 0.80309 0.72291
 O322 O 0.80795 0.74941 0.72702
 C323 C 0.68210 0.70018 0.82913
 C324 C 0.81499 0.69769 0.83062
 C325 C 0.68402 0.81966 0.82104
 O326 O 0.64020 0.80191 0.74560
 O327 O 0.68778 0.82627 0.70580
 O328 O 0.72249 0.78896 0.67042
 C329 C 0.69805 0.81666 0.67758
 O330 O 0.83458 0.82467 0.79334
 Zr331 Zr 0.80802 0.80111 0.75189
 O332 O 0.79644 0.78170 0.67125
 O333 O 0.71203 0.86486 0.75098
 O334 O 0.80089 0.86188 0.74907
 O335 O 0.87155 0.79108 0.75181
 O336 O 0.83038 0.81857 0.70731
 C337 C 0.82257 0.80750 0.67896
 O338 O 0.72173 0.72003 0.66454
 O339 O 0.79360 0.64222 0.76221
 O340 O 0.79120 0.70837 0.67593
 O341 O 0.82158 0.67473 0.71593
 O342 O 0.70196 0.64488 0.76087
 O343 O 0.67480 0.67808 0.71504
 C344 C 0.81441 0.68145 0.68655
 H345 H 0.74801 0.68145 0.79895
 H346 H 0.67729 0.75230 0.71045
 H347 H 0.83327 0.74674 0.71458
 H348 H 0.75633 0.82957 0.79219
 H349 H 0.61993 0.69470 0.76104
 H350 H 0.63043 0.82899 0.74522
 H351 H 0.68472 0.87649 0.74848
 H352 H 0.82761 0.87294 0.74322
 H353 H 0.67451 0.63508 0.76618
 H354 H 0.82108 0.63082 0.76419
 H355 H 0.87538 0.67724 0.75820
 H356 H 0.88494 0.81554 0.74550
 H357 H 0.65043 0.66277 0.72063
 H358 H 0.73301 0.72726 0.64362
 H359 H 0.76939 0.78290 0.86415
 H360 H 0.85379 0.84545 0.78739
 Zr361 Zr 1.25180 0.74563 0.19792
 O362 O 1.21663 0.77378 0.16299
 O363 O 1.29285 0.71419 0.17010
 O364 O 1.28721 0.78525 0.17200
 O365 O 1.18446 0.67029 0.21061
 O366 O 1.31791 0.82227 0.20973
 O367 O 1.21576 0.70613 0.17232
 O368 O 1.33452 0.68622 0.20663
 O369 O 1.30555 0.75206 0.22375
 O370 O 1.25841 0.69512 0.22448
 O371 O 1.24377 0.79589 0.22516
 O372 O 1.19829 0.74114 0.22517
 Zr373 Zr 1.25156 0.74653 0.30803
 Zr374 Zr 1.29626 0.80027 0.25285
 Zr375 Zr 1.20728 0.69195 0.25336
 Zr376 Zr 1.31061 0.70239 0.25123
 O377 O 1.14310 0.68921 0.25497
 O378 O 1.37235 0.71974 0.25055
 O379 O 1.25986 0.69577 0.28114
 O380 O 1.30466 0.75084 0.28056
 O381 O 1.24492 0.79746 0.28190
 O382 O 1.19832 0.74031 0.28173
 C383 C 1.32322 0.69308 0.17805
 C384 C 1.19148 0.67930 0.18170
 C385 C 1.31086 0.81270 0.18095
 O386 O 1.36038 0.80288 0.25517
 O387 O 1.31349 0.82598 0.29594
 O388 O 1.28347 0.78871 0.33389
 C389 C 1.30560 0.81727 0.32484
 O390 O 1.16269 0.80831 0.21286
 Zr391 Zr 1.19298 0.78990 0.25452
 O392 O 1.21003 0.77784 0.33553
 O393 O 1.28339 0.86007 0.25028
 O394 O 1.19541 0.85110 0.25404
 O395 O 1.13046 0.77558 0.25717
 O396 O 1.17146 0.80926 0.29880
 C397 C 1.18159 0.80116 0.32738
 O398 O 1.28871 0.72052 0.34283
 O399 O 1.22038 0.63212 0.25220
 O400 O 1.21912 0.70493 0.33420
 O401 O 1.19037 0.66650 0.29651
 O402 O 1.31099 0.64117 0.24946
 O403 O 1.33785 0.67934 0.29263
 C404 C 1.19723 0.67619 0.32528
 H405 H 1.26056 0.67152 0.21140
 H406 H 1.32900 0.75321 0.29412
 H407 H 1.17372 0.73700 0.29492
 H408 H 1.24025 0.81886 0.21150
 H409 H 1.38870 0.69698 0.24422
 H410 H 1.36790 0.83056 0.25412
 H411 H 1.30980 0.87374 0.25128
 H412 H 1.16817 0.86073 0.26015
 H413 H 1.33881 0.63298 0.24352
 H414 H 1.19394 0.61848 0.25157
 H415 H 1.13568 0.66148 0.25580
 H416 H 1.11548 0.79949 0.26266
 H417 H 1.36306 0.66543 0.28684
 H418 H 1.27790 0.72848 0.36373
 H419 H 1.22725 0.76544 0.14214
 H420 H 1.14217 0.82812 0.21835
 Zr421 Zr 0.75067 1.24057 0.19136
 O422 O 0.78051 1.20649 0.15688
 O423 O 0.71198 1.27456 0.16333
 O424 O 0.70962 1.20348 0.16829
 O425 O 0.82711 1.30863 0.19805
 O426 O 0.67723 1.17169 0.20835
 O427 O 0.78979 1.27363 0.16272
 O428 O 0.67508 1.30818 0.19983
 O429 O 0.69788 1.24084 0.21893
 O430 O 0.75074 1.29313 0.21565
 O431 O 0.75508 1.19161 0.22060
 O432 O 0.80573 1.24181 0.21686
 Zr433 Zr 0.75607 1.24649 0.30129
 Zr434 Zr 0.70369 1.19378 0.24978
 Zr435 Zr 0.80341 1.29343 0.24284
 Zr436 Zr 0.69935 1.29238 0.24424
 O437 O 0.86758 1.29041 0.24372
 O438 O 0.63611 1.28107 0.24600
 O439 O 0.75193 1.29597 0.27222
 O440 O 0.70158 1.24538 0.27551
 O441 O 0.75646 1.19369 0.27730
 O442 O 0.80856 1.24644 0.27336
 C443 C 0.68428 1.29885 0.17127
 C444 C 0.81776 1.29803 0.16981
 C445 C 0.68358 1.17908 0.17902
 O446 O 0.63983 1.19736 0.25455
 O447 O 0.68660 1.17169 0.29425
 O448 O 0.72202 1.20799 0.32980
 C449 C 0.69697 1.18081 0.32254
 O450 O 0.83380 1.17065 0.20690
 Zr451 Zr 0.80765 1.19484 0.24833
 O452 O 0.79643 1.21425 0.32903
 O453 O 0.71034 1.13299 0.24890
 O454 O 0.79914 1.13423 0.25117
 O455 O 0.87136 1.20377 0.24823
 O456 O 0.82975 1.17692 0.29284
 C457 C 0.82219 1.18809 0.32123
 O458 O 0.72258 1.27683 0.33606
 O459 O 0.79675 1.35394 0.23802
 O460 O 0.79207 1.28801 0.32449
 O461 O 0.82321 1.32116 0.28449
 O462 O 0.70517 1.35315 0.23985
 O463 O 0.67684 1.32024 0.28542
 C464 C 0.81563 1.31470 0.31387
 H465 H 0.75054 1.31586 0.20147
 H466 H 0.67780 1.24600 0.28984
 H467 H 0.83384 1.24868 0.28583
 H468 H 0.75558 1.16762 0.20789
 H469 H 0.62193 1.30496 0.23933
 H470 H 0.62945 1.17050 0.25476
 H471 H 0.68278 1.12187 0.25134
 H472 H 0.82558 1.12261 0.25701
 H473 H 0.67800 1.36360 0.23452
 H474 H 0.82450 1.36477 0.23609
 H475 H 0.87766 1.31735 0.24264
 H476 H 0.88432 1.17910 0.25453
 H477 H 0.65286 1.33608 0.27984
 H478 H 0.73375 1.26929 0.35693
 H479 H 0.76976 1.21431 0.13595
 H480 H 0.85260 1.14955 0.21286
 O481 O 0.44502 1.07397 0.02111
 O482 O 0.53834 0.92847 0.02320
 O483 O 0.41405 0.95559 0.02107
 O484 O 0.56893 1.04663 0.01912
 O485 O 0.47008 0.93558 0.03923
 O486 O 0.51352 1.06747 0.03749
 O487 O 0.56079 0.98251 0.03916
 O488 O 0.42140 1.02097 0.03866
 C489 C 0.42638 1.05606 0.04226
 C490 C 0.55669 0.94754 0.04375
 C491 C 0.43305 0.93861 0.04238
 C492 C 0.55046 1.06363 0.04066
 O493 O 0.53748 1.07332 -0.02464
 O494 O 0.44578 0.92697 -0.02208
 O495 O 0.41332 1.04503 -0.02199
 O496 O 0.56939 0.95538 -0.02059
 O497 O 0.51405 0.93438 -0.03882
 O498 O 0.46900 1.06595 -0.04034
 O499 O 0.56069 1.01938 -0.04044
 O500 O 0.42169 0.97968 -0.03971
 Co501 Co 0.49135 1.06348 -0.00147
 Co502 Co 0.49206 0.93805 0.00024
 Co503 Co 0.42497 1.00035 -0.00052
 Co504 Co 0.55767 1.00093 -0.00067
 O505 O 0.49148 1.00071 -0.00062
 C506 C 0.55632 1.05432 -0.04505
 C507 C 0.42686 0.94458 -0.04318
 C508 C 0.43191 1.06284 -0.04313
 C509 C 0.55099 0.93819 -0.04202
 O510 O 0.94351 0.57450 0.51928
 O511 O 1.03935 0.42641 0.52031
 O512 O 0.91495 0.45658 0.52216
 O513 O 1.06759 0.54447 0.52254
 O514 O 0.97152 0.43479 0.53870
 O515 O 1.01150 0.56714 0.53902
 O516 O 1.05980 0.47965 0.53877
 O517 O 0.92129 0.52186 0.53758
 C518 C 0.92596 0.55689 0.54102
 C519 C 1.05822 0.44427 0.54119
 C520 C 0.93482 0.43946 0.54311
 C521 C 1.04826 0.56243 0.54319
 O522 O 1.03960 0.57489 0.47893
 O523 O 0.94443 0.42638 0.47884
 O524 O 0.91532 0.54425 0.47528
 O525 O 1.06830 0.45699 0.47721
 O526 O 1.01266 0.43440 0.45996
 O527 O 0.97214 0.56669 0.45972
 O528 O 1.06089 0.52162 0.46099
 O529 O 0.92270 0.47877 0.45979
 Co530 Co 0.99167 0.56384 0.49930
 Co531 Co 0.99195 0.43752 0.49940
 Co532 Co 0.92544 0.50039 0.49874
 Co533 Co 1.05712 0.50067 0.49984
 O534 O 0.99152 0.50062 0.49932
 C535 C 1.05879 0.55692 0.45823
 C536 C 0.92722 0.44362 0.45680
 C537 C 0.93561 0.56179 0.45474
 C538 C 1.04950 0.43911 0.45630
 O539 O 1.02176 0.46943 0.06480
 O540 O 1.01514 0.54062 -0.06534
 O541 O 1.05627 0.45120 -0.03171
 O542 O 1.05852 0.55194 0.02744
 O543 O 1.01501 0.47064 -0.06792
 O544 O 1.01647 0.54107 0.06429
 O545 O 1.05785 0.54868 -0.02847
 O546 O 1.05431 0.43900 0.02703
 C547 C 1.05032 0.44765 0.05550
 C548 C 1.05016 0.55021 -0.05696
 C549 C 1.04885 0.45650 -0.06008
 C550 C 1.05095 0.55184 0.05590
 O551 O 0.94101 0.53671 0.04227
 O552 O 0.93872 0.47004 -0.04254
 O553 O 0.97761 0.41980 0.02351
 O554 O 0.98327 0.58288 -0.02967
 O555 O 0.94030 0.53833 -0.03670
 O556 O 0.94432 0.46428 0.04967
 O557 O 0.98163 0.58249 0.02784
 O558 O 0.98048 0.42410 -0.03530
 Co559 Co 0.98251 0.50309 0.04970
 Co560 Co 0.97921 0.50480 -0.04875
 Co561 Co 1.01550 0.44032 -0.00412
 Co562 Co 1.01831 0.56108 -0.00075
 O563 O 0.99893 0.50186 -0.00068
 C564 C 0.94804 0.57181 0.03944
 C565 C 0.94614 0.43516 -0.04401
 C566 C 0.94937 0.42978 0.04208
 C567 C 0.94838 0.57304 -0.03791
 O568 O 0.55374 0.98007 0.55528
 O569 O 0.55333 1.01653 0.44664
 O570 O 0.55066 0.93179 0.48188
 O571 O 0.55130 1.06410 0.51999
 O572 O 0.52453 0.95220 0.43986
 O573 O 0.52546 1.04434 0.56236
 O574 O 0.53420 1.07035 0.46658
 O575 O 0.53427 0.92621 0.53562
 C576 C 0.55969 0.94499 0.55144
 C577 C 0.55925 1.05167 0.45025
 C578 C 0.55253 0.93454 0.45292
 C579 C 0.55345 1.06165 0.54892
 O580 O 0.45071 1.01610 0.55589
 O581 O 0.45018 0.98073 0.44697
 O582 O 0.45215 0.93225 0.52091
 O583 O 0.45225 1.06436 0.48238
 O584 O 0.47857 1.04479 0.44015
 O585 O 0.47905 0.95190 0.56282
 O586 O 0.46954 1.07006 0.53602
 O587 O 0.46869 0.92665 0.46690
 Co588 Co 0.50220 0.99814 0.55305
 Co589 Co 0.50170 0.99853 0.44942
 Co590 Co 0.50144 0.93571 0.50131
 Co591 Co 0.50180 1.06073 0.50126
 O592 O 0.50180 0.99827 0.50125
 C593 C 0.44458 1.05115 0.55225
 C594 C 0.44382 0.94574 0.45077
 C595 C 0.45071 0.93453 0.54994
 C596 C 0.45029 1.06186 0.45341
 O597 O 1.07134 1.04537 0.48177
 O598 O 0.93216 1.04571 0.52001
 O599 O 0.98440 1.04730 0.44621
 O600 O 1.01978 1.04832 0.55476
 O601 O 0.92718 1.03040 0.46637
 O602 O 1.07691 1.03069 0.53518
 O603 O 0.95261 1.02001 0.56171
 O604 O 1.05178 1.01906 0.44015
 C605 C 1.06771 1.04727 0.45292
 C606 C 0.93615 1.04792 0.54884
 C607 C 0.94771 1.05383 0.45021
 C608 C 1.05636 1.05488 0.55047
 O609 O 1.07085 0.95165 0.52084
 O610 O 0.93236 0.95161 0.48124
 O611 O 1.02055 0.94910 0.44718
 O612 O 0.98372 0.95014 0.55543
 O613 O 0.92672 0.96691 0.53495
 O614 O 1.07739 0.96637 0.46733
 O615 O 1.05081 0.97824 0.56228
 O616 O 0.95357 0.97738 0.43972
 Co617 Co 1.06758 0.99851 0.50124
 Co618 Co 0.93622 0.99865 0.50068
 Co619 Co 1.00258 0.99824 0.44912
 Co620 Co 1.00180 0.99916 0.55273
 O621 O 1.00204 0.99865 0.50094
 C622 C 1.06716 0.95004 0.54972
 C623 C 0.93667 0.94955 0.45240
 C624 C 1.05703 0.94241 0.45170
 C625 C 0.94718 0.94341 0.55105
 O626 O 0.57200 0.54690 -0.01819
 O627 O 0.43295 0.54666 0.02018
 O628 O 0.48434 0.54908 -0.05388
 O629 O 0.52198 0.54844 0.05449
 O630 O 0.42737 0.53144 -0.03378
 O631 O 0.57871 0.53026 0.03492
 O632 O 0.45466 0.52090 0.06160
 O633 O 0.55199 0.52184 -0.06029
 C634 C 0.56812 0.54963 -0.04698
 C635 C 0.43775 0.54877 0.04897
 C636 C 0.44747 0.55502 -0.05012
 C637 C 0.55858 0.55475 0.05015
 O638 O 0.57179 0.45206 0.01890
 O639 O 0.43268 0.45287 -0.01923
 O640 O 0.52154 0.45103 -0.05382
 O641 O 0.48454 0.45051 0.05471
 O642 O 0.42749 0.46815 0.03487
 O643 O 0.57843 0.46870 -0.03434
 O644 O 0.55216 0.47737 0.06109
 O645 O 0.45437 0.47874 -0.06068
 Co646 Co 0.56857 0.49949 0.00032
 Co647 Co 0.43690 0.49976 0.00051
 Co648 Co 0.50316 0.50009 -0.05137
 Co649 Co 0.50340 0.49940 0.05217
 O650 O 0.50299 0.49969 0.00040
 C651 C 0.56842 0.44958 0.04779
 C652 C 0.43724 0.45095 -0.04809
 C653 C 0.55811 0.44452 -0.04968
 C654 C 0.44772 0.44450 0.05100
 C655 C 0.36621 1.11900 0.11596
 C656 C 0.36006 1.07913 0.11310
 C657 C 0.38029 1.05826 0.08953
 C658 C 0.32769 1.16002 0.15931
 C659 C 0.41332 1.11709 0.07200
 C660 C 0.39315 1.13782 0.09554
 C661 C 0.34491 1.14093 0.13962
 C662 C 0.40681 1.07717 0.06853
 H663 H 0.33937 1.06426 0.12888
 H664 H 0.37470 1.02754 0.08742
 H665 H 0.43370 1.13242 0.05628
 H666 H 0.39829 1.16863 0.09763
 C667 C 0.87162 0.61789 0.61861
 C668 C 0.86618 0.57794 0.61572
 C669 C 0.88430 0.55788 0.59070
 C670 C 0.83463 0.65782 0.66353
 C671 C 0.91377 0.61767 0.57158
 C672 C 0.89569 0.63762 0.59661
 C673 C 0.85158 0.63907 0.64343
 C674 C 0.90796 0.57765 0.56818
 H675 H 0.84758 0.56237 0.63259
 H676 H 0.87939 0.52704 0.58874
 H677 H 0.93201 0.63362 0.55473
 H678 H 0.90011 0.66853 0.59860
 C679 C 0.62132 0.88918 0.11748
 C680 C 0.62589 0.92911 0.11359
 C681 C 0.60394 0.94850 0.09016
 C682 C 0.66479 0.85018 0.15912
 C683 C 0.57220 0.88812 0.07495
 C684 C 0.59409 0.86885 0.09838
 C685 C 0.64519 0.86857 0.14038
 C686 C 0.57732 0.92804 0.07030
 H687 H 0.64685 0.94512 0.12830
 H688 H 0.60848 0.97927 0.08712
 H689 H 0.55180 0.87163 0.06013
 H690 H 0.59024 0.83797 0.10126
 C691 C 1.13337 0.38364 0.60697
 C692 C 1.13362 0.42405 0.60643
 C693 C 1.10836 0.44398 0.58553
 C694 C 1.17764 0.34528 0.64827
 C695 C 1.08212 0.38301 0.56607
 C696 C 1.10738 0.36318 0.58696
 C697 C 1.15834 0.36303 0.62902
 C698 C 1.08258 0.42360 0.56499
 H699 H 1.15335 0.44012 0.62210
 H700 H 1.10940 0.47525 0.58514
 H701 H 1.06258 0.36658 0.55053
 H702 H 1.10666 0.33190 0.58750
 C703 C 0.62238 1.11271 -0.11800
 C704 C 0.62667 1.07275 -0.11425
 C705 C 0.60422 1.05337 -0.09109
 C706 C 0.66625 1.15148 -0.15952
 C707 C 0.57252 1.11384 -0.07590
 C708 C 0.59492 1.13310 -0.09906
 C709 C 0.64656 1.13321 -0.14076
 C710 C 0.57736 1.07387 -0.07138
 H711 H 0.64777 1.05671 -0.12887
 H712 H 0.60855 1.02256 -0.08813
 H713 H 0.55195 1.13034 -0.06117
 H714 H 0.59128 1.16402 -0.10188
 C715 C 1.13236 0.61659 0.39072
 C716 C 1.13291 0.57622 0.39183
 C717 C 1.10820 0.55663 0.41336
 C718 C 1.17662 0.65445 0.34907
 C719 C 1.08190 0.61787 0.43234
 C720 C 1.10663 0.63736 0.41080
 C721 C 1.15718 0.63683 0.36833
 C722 C 1.08270 0.57733 0.43399
 H723 H 1.15250 0.55992 0.37615
 H724 H 1.10944 0.52538 0.41415
 H725 H 1.06254 0.63451 0.44793
 H726 H 1.10576 0.66863 0.40987
 C727 C 0.36600 0.88033 -0.11566
 C728 C 0.39357 0.86200 -0.09552
 C729 C 0.41400 0.88318 -0.07243
 C730 C 0.32713 0.83865 -0.15834
 C731 C 0.37997 0.94151 -0.08986
 C732 C 0.35948 0.92019 -0.11298
 C733 C 0.34450 0.85797 -0.13890
 C734 C 0.40711 0.92308 -0.06912
 H735 H 0.39902 0.83122 -0.09749
 H736 H 0.43485 0.86820 -0.05691
 H737 H 0.37406 0.97219 -0.08786
 H738 H 0.33832 0.93470 -0.12855
 C739 C 0.87253 0.38014 0.38076
 C740 C 0.89711 0.36127 0.40286
 C741 C 0.91536 0.38209 0.42728
 C742 C 0.83562 0.33867 0.33678
 C743 C 0.88514 0.44110 0.40737
 C744 C 0.86682 0.42015 0.38294
 C745 C 0.85246 0.35803 0.35652
 C746 C 0.90927 0.42217 0.43000
 H747 H 0.90180 0.33034 0.40142
 H748 H 0.93394 0.36672 0.44422
 H749 H 0.87996 0.47195 0.40883
 H750 H 0.84786 0.43509 0.36598
 C751 C 1.13047 0.38862 0.11921
 C752 C 1.13914 0.38997 0.08694
 C753 C 1.11395 0.41069 0.06657
 C754 C 1.17342 0.34430 0.15767
 C755 C 1.07187 0.43023 0.11078
 C756 C 1.09719 0.40933 0.13119
 C757 C 1.15452 0.36456 0.13974
 C758 C 1.07951 0.43042 0.07812
 H759 H 1.16479 0.37421 0.07739
 H760 H 1.12091 0.41036 0.04156
 H761 H 1.04560 0.44498 0.12036
 H762 H 1.09022 0.40850 0.15619
 C763 C 0.64301 0.88115 0.60910
 C764 C 0.63861 0.92106 0.61353
 C765 C 0.61331 0.94257 0.59358
 C766 C 0.68047 0.83883 0.65233
 C767 C 0.59809 0.88455 0.56388
 C768 C 0.62341 0.86317 0.58378
 C769 C 0.66431 0.85809 0.63215
 C770 C 0.59185 0.92428 0.56909
 H771 H 0.65350 0.93530 0.63313
 H772 H 0.60905 0.97306 0.59825
 H773 H 0.58211 0.86964 0.54517
 H774 H 0.62645 0.83233 0.58013
 C775 C 1.12975 0.61309 -0.11922
 C776 C 1.09356 0.59710 -0.13071
 C777 C 1.06845 0.57515 -0.11088
 C778 C 1.17283 0.65778 -0.15776
 C779 C 1.11626 0.58393 -0.06809
 C780 C 1.14131 0.60591 -0.08796
 C781 C 1.15411 0.63758 -0.13949
 C782 C 1.07916 0.56885 -0.07916
 H783 H 1.08428 0.60229 -0.15488
 H784 H 1.04010 0.56408 -0.12012
 H785 H 1.12537 0.57974 -0.04376
 H786 H 1.16924 0.61795 -0.07875
 C787 C 0.64099 1.11607 0.39096
 C788 C 0.63650 1.07614 0.38655
 C789 C 0.61169 1.05448 0.40690
 C790 C 0.67887 1.15858 0.34773
 C791 C 0.59697 1.11237 0.43691
 C792 C 0.62180 1.13389 0.41661
 C793 C 0.66242 1.13925 0.36785
 C794 C 0.59079 1.07259 0.43185
 H795 H 0.65106 1.06196 0.36674
 H796 H 0.60745 1.02399 0.40227
 H797 H 0.58142 1.12721 0.45592
 H798 H 0.62489 1.16472 0.42032
 C799 C 0.87209 0.64509 0.09577
 C800 C 0.85748 0.60962 0.08479
 C801 C 0.88111 0.58704 0.06449
 C802 C 0.83229 0.68107 0.14171
 C803 C 0.93337 0.63627 0.06435
 C804 C 0.90966 0.65882 0.08484
 C805 C 0.85018 0.66535 0.12031
 C806 C 0.91990 0.59952 0.05482
 H807 H 0.82852 0.59862 0.09301
 H808 H 0.86983 0.55891 0.05756
 H809 H 0.96319 0.64654 0.05755
 H810 H 0.92139 0.68619 0.09320
 C811 C 0.36206 1.11433 0.61131
 C812 C 0.38081 1.13239 0.58557
 C813 C 0.40593 1.11124 0.56532
 C814 C 0.32360 1.15740 0.65359
 C815 C 0.39229 1.05322 0.59557
 C816 C 0.36719 1.07452 0.61589
 C817 C 0.34033 1.13734 0.63419
 C818 C 0.41279 1.07162 0.57055
 H819 H 0.37712 1.16314 0.58175
 H820 H 0.42118 1.12624 0.54623
 H821 H 0.39707 1.02280 0.60028
 H822 H 0.35292 1.06021 0.63578
 C823 C 0.86894 0.36329 -0.10054
 C824 C 0.90530 0.34844 -0.08839
 C825 C 0.92951 0.37104 -0.06846
 C826 C 0.82890 0.32528 -0.14499
 C827 C 0.88027 0.42290 -0.07178
 C828 C 0.85612 0.40026 -0.09163
 C829 C 0.84664 0.34213 -0.12420
 C830 C 0.91774 0.40891 -0.06061
 H831 H 0.91564 0.31992 -0.09519
 H832 H 0.95822 0.35949 -0.06034
 H833 H 0.87033 0.45193 -0.06619
 H834 H 0.82814 0.41214 -0.10093
 C835 C 0.36104 0.88338 0.39188
 C836 C 0.37984 0.86497 0.41738
 C837 C 0.40498 0.88587 0.43769
 C838 C 0.32353 0.84104 0.34885
 C839 C 0.39110 0.94428 0.40802
 C840 C 0.36599 0.92325 0.38764
 C841 C 0.33977 0.86068 0.36868
 C842 C 0.41179 0.92553 0.43271
 H843 H 0.37628 0.83415 0.42089
 H844 H 0.42037 0.87064 0.45655
 H845 H 0.39581 0.97476 0.40353
 H846 H 0.35167 0.93780 0.36793
 C847 C 1.11908 1.13500 0.39393
 C848 C 1.08963 1.10984 0.38218
 C849 C 1.07224 1.08217 0.40184
 C850 C 1.15789 1.17820 0.35234
 C851 C 1.11232 1.10565 0.44581
 C852 C 1.13006 1.13332 0.42589
 C853 C 1.14014 1.15972 0.37211
 C854 C 1.08394 1.07926 0.43367
 H855 H 1.08101 1.11080 0.35750
 H856 H 1.05018 1.06246 0.39188
 H857 H 1.12179 1.10399 0.47026
 H858 H 1.15306 1.15257 0.43516
 C859 C 0.62088 0.63799 -0.10467
 C860 C 0.59059 0.61389 -0.11664
 C861 C 0.57269 0.58609 -0.09736
 C862 C 0.66045 0.68100 -0.14602
 C863 C 0.61390 0.60737 -0.05328
 C864 C 0.63216 0.63516 -0.07282
 C865 C 0.64246 0.66267 -0.12626
 C866 C 0.58470 0.58198 -0.06569
 H867 H 0.58173 0.61572 -0.14123
 H868 H 0.55004 0.56715 -0.10751
 H869 H 0.62366 0.60476 -0.02896
 H870 H 0.65581 0.65355 -0.06338
 C871 C 0.88344 1.13449 0.60845
 C872 C 0.91459 1.11074 0.61955
 C873 C 0.93244 1.08360 0.59962
 C874 C 0.84429 1.17628 0.65093
 C875 C 0.88945 1.10487 0.55657
 C876 C 0.87124 1.13198 0.57677
 C877 C 0.86209 1.15848 0.63072
 C878 C 0.91954 1.07978 0.56813
 H879 H 0.92421 1.11230 0.64398
 H880 H 0.95580 1.06494 0.60914
 H881 H 0.87897 1.10247 0.53242
 H882 H 0.84694 1.15011 0.56798
 C883 C 0.38457 0.63351 0.11005
 C884 C 0.41682 0.61058 0.12038
 C885 C 0.43490 0.58417 0.09992
 C886 C 0.34520 0.67426 0.15313
 C887 C 0.38990 0.60458 0.05785
 C888 C 0.37150 0.63097 0.07858
 C889 C 0.36315 0.65678 0.13281
 C890 C 0.42110 0.58025 0.06866
 H891 H 0.42716 0.61219 0.14463
 H892 H 0.45910 0.56606 0.10886
 H893 H 0.37869 0.60208 0.03390
 H894 H 0.34638 0.64849 0.07037
 C895 C 1.11988 0.86393 0.60971
 C896 C 1.13104 0.86538 0.57773
 C897 C 1.11288 0.89245 0.55750
 C898 C 1.15882 0.82122 0.65164
 C899 C 1.07201 0.91583 0.60116
 C900 C 1.08984 0.88876 0.62114
 C901 C 1.14106 0.83957 0.63177
 C902 C 1.08385 0.91851 0.56930
 H903 H 1.15445 0.84637 0.56868
 H904 H 1.12251 0.89394 0.53306
 H905 H 1.04947 0.93526 0.61088
 H906 H 1.08102 0.88798 0.64580
 C907 C 0.62324 0.36216 0.10550
 C908 C 0.59314 0.38637 0.11773
 C909 C 0.57462 0.41386 0.09850
 C910 C 0.66294 0.31860 0.14649
 C911 C 0.61491 0.39218 0.05395
 C912 C 0.63377 0.36469 0.07344
 C913 C 0.64500 0.33727 0.12689
 C914 C 0.58579 0.41760 0.06657
 H915 H 0.58478 0.38479 0.14247
 H916 H 0.55206 0.43280 0.10885
 H917 H 0.62407 0.39448 0.02944
 H918 H 0.65720 0.34619 0.06374
 C919 C 0.88282 0.86518 0.39146
 C920 C 0.86978 0.86777 0.42297
 C921 C 0.88839 0.89402 0.44368
 C922 C 0.84353 0.82492 0.34812
 C923 C 0.93349 0.91418 0.40148
 C924 C 0.91523 0.88790 0.38106
 C925 C 0.86130 0.84211 0.36866
 C926 C 0.91976 0.91816 0.43278
 H927 H 0.84454 0.85042 0.43123
 H928 H 0.87723 0.89659 0.46766
 H929 H 0.95780 0.93214 0.39247
 H930 H 0.92555 0.88625 0.35678
 C931 C 0.38224 0.36833 -0.11002
 C932 C 0.36892 0.37083 -0.07857
 C933 C 0.38792 0.39641 -0.05751
 C934 C 0.34244 0.32869 -0.15353
 C935 C 0.43401 0.41601 -0.09922
 C936 C 0.41534 0.39042 -0.12000
 C937 C 0.36050 0.34578 -0.13308
 C938 C 0.42001 0.41995 -0.06797
 H939 H 0.34317 0.35394 -0.07062
 H940 H 0.37649 0.39897 -0.03360
 H941 H 0.45887 0.43353 -0.10791
 H942 H 0.42593 0.38880 -0.14421
 C943 C 1.12564 0.39589 -0.12466
 C944 C 1.13945 0.40448 -0.09429
 C945 C 1.11543 0.42650 -0.07395
 C946 C 1.16744 0.34921 -0.16188
 C947 C 1.06443 0.43318 -0.11483
 C948 C 1.08857 0.41104 -0.13518
 C949 C 1.14875 0.37040 -0.14460
 C950 C 1.07714 0.44016 -0.08369
 H951 H 1.16821 0.39317 -0.08600
 H952 H 1.12612 0.43150 -0.05012
 H953 H 1.03506 0.44314 -0.12292
 H954 H 1.07773 0.40471 -0.15876
 C955 C 0.63178 0.86943 0.39295
 C956 C 0.62844 0.85939 0.42496
 C957 C 0.60421 0.88167 0.44531
 C958 C 0.67089 0.82760 0.35043
 C959 C 0.58783 0.92440 0.40177
 C960 C 0.61206 0.90239 0.38166
 C961 C 0.65371 0.84569 0.37081
 C962 C 0.58293 0.91386 0.43361
 H963 H 0.64367 0.83394 0.43396
 H964 H 0.60078 0.87287 0.46972
 H965 H 0.57203 0.94919 0.39215
 H966 H 0.61456 0.91056 0.35702
 C967 C 0.87479 0.64428 -0.09718
 C968 C 0.91184 0.65837 -0.08579
 C969 C 0.93471 0.63636 -0.06452
 C970 C 0.83614 0.67983 -0.14359
 C971 C 0.88251 0.58701 -0.06480
 C972 C 0.85970 0.60907 -0.08597
 C973 C 0.85370 0.66422 -0.12211
 C974 C 0.92084 0.59988 -0.05461
 H975 H 0.92382 0.68560 -0.09431
 H976 H 0.96419 0.64693 -0.05722
 H977 H 0.87102 0.55904 -0.05762
 H978 H 0.83105 0.59790 -0.09458
 C979 C 0.37027 1.12611 0.39369
 C980 C 0.39014 1.09324 0.38239
 C981 C 0.41455 1.07143 0.40247
 C982 C 0.33130 1.16893 0.35180
 C983 C 0.39793 1.11410 0.44600
 C984 C 0.37353 1.13617 0.42568
 C985 C 0.34846 1.15002 0.37164
 C986 C 0.41946 1.08209 0.43427
 H987 H 0.38773 1.08507 0.35776
 H988 H 0.43057 1.04676 0.39284
 H989 H 0.40138 1.12299 0.47037
 H990 H 0.35820 1.16158 0.43468
 C991 C 1.12857 0.61295 0.11950
 C992 C 1.09313 0.59536 0.13077
 C993 C 1.06865 0.57392 0.11036
 C994 C 1.17069 0.65688 0.15842
 C995 C 1.11585 0.58651 0.06755
 C996 C 1.14027 0.60796 0.08801
 C997 C 1.15208 0.63699 0.14018
 C998 C 1.07937 0.56992 0.07840
 H999 H 1.08393 0.59895 0.15517
 H1000 H 1.04075 0.56149 0.11936
 H1001 H 1.12488 0.58394 0.04304
 H1002 H 1.16774 0.62134 0.07911
 C1003 C 0.63336 1.12739 0.60739
 C1004 C 0.62970 1.13695 0.57533
 C1005 C 0.60529 1.11437 0.55546
 C1006 C 0.67209 1.17033 0.64912
 C1007 C 0.58946 1.07226 0.59957
 C1008 C 0.61389 1.09456 0.61921
 C1009 C 0.65514 1.15166 0.62908
 C1010 C 0.58415 1.08239 0.56770
 H1011 H 0.64473 1.16232 0.56596
 H1012 H 0.60154 1.12284 0.53101
 H1013 H 0.57375 1.04762 0.60957
 H1014 H 0.61664 1.08680 0.64391
 C1015 C 0.87783 0.35295 0.09820
 C1016 C 0.91467 0.33996 0.08532
 C1017 C 0.93684 0.36373 0.06468
 C1018 C 0.83958 0.31561 0.14409
 C1019 C 0.88440 0.41260 0.06874
 C1020 C 0.86228 0.38882 0.08906
 C1021 C 0.85733 0.33158 0.12278
 C1022 C 0.92251 0.40086 0.05711
 H1023 H 0.92706 0.31225 0.09227
 H1024 H 0.96629 0.35417 0.05637
 H1025 H 0.87256 0.44103 0.06329
 H1026 H 0.83383 0.39921 0.09878
 C1027 C 0.37042 0.86980 0.61000
 C1028 C 0.37235 0.86110 0.57765
 C1029 C 0.39708 0.88314 0.55741
 C1030 C 0.32955 0.82755 0.65156
 C1031 C 0.41699 0.92304 0.60175
 C1032 C 0.39229 0.90124 0.62176
 C1033 C 0.34755 0.84616 0.63183
 C1034 C 0.42031 0.91386 0.56948
 H1035 H 0.35551 0.83685 0.56822
 H1036 H 0.39918 0.87534 0.53269
 H1037 H 0.43428 0.94666 0.61174
 H1038 H 0.39099 0.90843 0.64665
 C1039 C 0.36686 1.12798 -0.11262
 C1040 C 0.40927 1.13008 -0.11135
 C1041 C 0.43066 1.10814 -0.08921
 C1042 C 0.32716 1.16945 -0.15484
 C1043 C 0.36721 1.08142 -0.06992
 C1044 C 0.34590 1.10337 -0.09208
 C1045 C 0.34496 1.15075 -0.13529
 C1046 C 0.40977 1.08387 -0.06807
 H1047 H 0.42577 1.14888 -0.12730
 H1048 H 0.46343 1.11063 -0.08832
 H1049 H 0.35033 1.06293 -0.05397
 H1050 H 0.31309 1.10136 -0.09304
 C1051 C 0.87842 0.62002 0.37738
 C1052 C 0.85525 0.59696 0.39775
 C1053 C 0.87394 0.57711 0.42254
 C1054 C 0.84179 0.66224 0.33399
 C1055 C 0.93923 0.60266 0.40613
 C1056 C 0.92047 0.62247 0.38139
 C1057 C 0.85880 0.64267 0.35341
 C1058 C 0.91605 0.58025 0.42725
 H1059 H 0.82264 0.59493 0.39483
 H1060 H 0.85538 0.55996 0.43835
 H1061 H 0.97175 0.60555 0.40910
 H1062 H 0.93866 0.64028 0.36578
 C1063 C 0.61668 1.12023 0.11421
 C1064 C 0.57465 1.12564 0.11182
 C1065 C 0.55270 1.10657 0.08827
 C1066 C 0.65967 1.15841 0.15647
 C1067 C 0.61477 1.07622 0.06987
 C1068 C 0.63659 1.09522 0.09341
 C1069 C 0.63976 1.14099 0.13740
 C1070 C 0.57270 1.08205 0.06682
 H1071 H 0.55899 1.14494 0.12786
 H1072 H 0.52030 1.11154 0.08647
 H1073 H 0.63094 1.05732 0.05381
 H1074 H 0.66909 1.09078 0.09513
 C1075 C 1.11492 0.62348 0.61378
 C1076 C 1.13387 0.59485 0.59580
 C1077 C 1.11164 0.57411 0.57357
 C1078 C 1.15860 0.66328 0.65445
 C1079 C 1.05092 0.60982 0.58787
 C1080 C 1.07333 0.63064 0.61014
 C1081 C 1.13849 0.64546 0.63580
 C1082 C 1.07012 0.58180 0.56903
 H1083 H 1.16596 0.58892 0.59865
 H1084 H 1.12716 0.55252 0.55951
 H1085 H 1.01899 0.61631 0.58481
 H1086 H 1.05840 0.65265 0.62415
 C1087 C 0.61747 0.88013 -0.11480
 C1088 C 0.57541 0.87495 -0.11243
 C1089 C 0.55336 0.89456 -0.08917
 C1090 C 0.66039 0.84088 -0.15654
 C1091 C 0.61543 0.92503 -0.07106
 C1092 C 0.63734 0.90548 -0.09431
 C1093 C 0.64058 0.85879 -0.13766
 C1094 C 0.57332 0.91939 -0.06801
 H1095 H 0.55978 0.85540 -0.12824
 H1096 H 0.52094 0.88973 -0.08735
 H1097 H 0.63155 0.94415 -0.05520
 H1098 H 0.66986 0.90974 -0.09603
 C1099 C 1.11777 0.37762 0.38700
 C1100 C 1.13636 0.40631 0.40506
 C1101 C 1.11360 0.42728 0.42685
 C1102 C 1.16193 0.33741 0.34699
 C1103 C 1.05315 0.39166 0.41184
 C1104 C 1.07608 0.37062 0.39003
 C1105 C 1.14173 0.35544 0.36542
 C1106 C 1.07195 0.41971 0.43081
 H1107 H 1.16855 0.41209 0.40262
 H1108 H 1.12879 0.44891 0.44104
 H1109 H 1.02112 0.38528 0.41448
 H1110 H 1.06147 0.34856 0.37590
 C1111 C 0.37000 0.87601 0.11441
 C1112 C 0.34839 0.89962 0.09356
 C1113 C 0.36905 0.92081 0.07053
 C1114 C 0.33115 0.83459 0.15708
 C1115 C 0.43312 0.89535 0.08965
 C1116 C 0.41238 0.87418 0.11265
 C1117 C 0.34871 0.85344 0.13750
 C1118 C 0.41157 0.91851 0.06814
 H1119 H 0.31558 0.90133 0.09488
 H1120 H 0.35172 0.93850 0.05432
 H1121 H 0.46589 0.89306 0.08836
 H1122 H 0.42934 0.85607 0.12881
 C1123 C 0.87609 0.38149 0.61983
 C1124 C 0.91827 0.37950 0.61657
 C1125 C 0.93752 0.39926 0.59204
 C1126 C 0.83908 0.33937 0.66304
 C1127 C 0.87240 0.42386 0.57437
 C1128 C 0.85321 0.40404 0.59896
 C1129 C 0.85612 0.35889 0.64363
 C1130 C 0.91468 0.42114 0.57039
 H1131 H 0.93620 0.36208 0.63261
 H1132 H 0.97016 0.39674 0.58962
 H1133 H 0.85412 0.44062 0.55813
 H1134 H 0.82049 0.40569 0.60134
 C1135 C 1.11802 1.13977 0.60573
 C1136 C 1.13922 1.11895 0.58270
 C1137 C 1.11866 1.09278 0.56342
 C1138 C 1.15863 1.17954 0.64842
 C1139 C 1.05521 1.10959 0.58912
 C1140 C 1.07587 1.13574 0.60842
 C1141 C 1.14001 1.16223 0.62850
 C1142 C 1.07664 1.08700 0.56708
 H1143 H 1.17187 1.12182 0.58049
 H1144 H 1.13594 1.07592 0.54655
 H1145 H 1.02285 1.10582 0.59244
 H1146 H 1.05922 1.15166 0.62626
 C1147 C 0.62153 0.64108 0.10346
 C1148 C 0.57943 0.63696 0.10678
 C1149 C 0.55838 0.61019 0.08827
 C1150 C 0.66273 0.68173 0.14542
 C1151 C 0.62130 0.59270 0.06213
 C1152 C 0.64225 0.61949 0.08063
 C1153 C 0.64398 0.66419 0.12564
 C1154 C 0.57933 0.58700 0.06637
 H1155 H 0.56311 0.65338 0.12451
 H1156 H 0.52608 0.60652 0.09203
 H1157 H 0.63823 0.57542 0.04535
 H1158 H 0.67484 0.62230 0.07795
 C1159 C 1.11883 0.85849 0.39553
 C1160 C 1.14011 0.87926 0.41847
 C1161 C 1.11954 0.90505 0.43814
 C1162 C 1.15935 0.81983 0.35205
 C1163 C 1.05594 0.88785 0.41299
 C1164 C 1.07661 0.86209 0.39332
 C1165 C 1.14073 0.83662 0.37230
 C1166 C 1.07742 0.91048 0.43491
 H1167 H 1.17282 0.87671 0.42029
 H1168 H 1.13685 0.92196 0.45489
 H1169 H 1.02349 0.89133 0.41003
 H1170 H 1.05990 0.84618 0.37556
 C1171 C 0.62007 0.35925 -0.10476
 C1172 C 0.64123 0.38043 -0.08198
 C1173 C 0.62061 0.40682 -0.06284
 C1174 C 0.66067 0.31940 -0.14759
 C1175 C 0.55719 0.38961 -0.08820
 C1176 C 0.57790 0.36325 -0.10736
 C1177 C 0.64210 0.33663 -0.12752
 C1178 C 0.57856 0.41247 -0.06638
 H1179 H 0.67388 0.37766 -0.07986
 H1180 H 0.63786 0.42387 -0.04614
 H1181 H 0.52481 0.39325 -0.09142
 H1182 H 0.56127 0.34710 -0.12503
 C1183 C 0.88548 1.13375 0.39066
 C1184 C 0.92771 1.13015 0.38840
 C1185 C 0.94858 1.10586 0.40916
 C1186 C 0.84459 1.17008 0.34611
 C1187 C 0.88514 1.09024 0.43540
 C1188 C 0.86438 1.11456 0.41466
 C1189 C 0.86338 1.15422 0.36673
 C1190 C 0.92727 1.08472 0.43222
 H1191 H 0.94429 1.14489 0.36985
 H1192 H 0.98101 1.10223 0.40616
 H1193 H 0.86795 1.07446 0.45301
 H1194 H 0.83168 1.11717 0.41657
 C1195 C 0.38314 0.63316 -0.11043
 C1196 C 0.36270 0.61400 -0.08604
 C1197 C 0.38410 0.59025 -0.06520
 C1198 C 0.34105 0.66999 -0.15429
 C1199 C 0.44692 0.60612 -0.09216
 C1200 C 0.42540 0.62985 -0.11303
 C1201 C 0.36036 0.65378 -0.13405
 C1202 C 0.42630 0.58522 -0.06857
 H1203 H 0.33001 0.61635 -0.08378
 H1204 H 0.36737 0.57462 -0.04724
 H1205 H 0.47936 0.60283 -0.09539
 H1206 H 0.44153 0.64455 -0.13184
 C1207 C 0.88548 0.86192 0.60943
 C1208 C 0.92771 0.86544 0.61146
 C1209 C 0.94838 0.89028 0.59103
 C1210 C 0.84494 0.82534 0.65400
 C1211 C 0.88474 0.90659 0.56548
 C1212 C 0.86416 0.88171 0.58591
 C1213 C 0.86360 0.84123 0.63332
 C1214 C 0.92686 0.91206 0.56853
 H1215 H 0.94442 0.85025 0.62966
 H1216 H 0.98083 0.89384 0.59387
 H1217 H 0.86741 0.92285 0.54829
 H1218 H 0.83144 0.87917 0.58422
 C1219 C 0.38435 0.36530 0.11093
 C1220 C 0.36354 0.38479 0.08696
 C1221 C 0.38462 0.40892 0.06619
 C1222 C 0.34289 0.32829 0.15503
 C1223 C 0.44780 0.39272 0.09238
 C1224 C 0.42661 0.36861 0.11317
 C1225 C 0.36194 0.34453 0.13466
 C1226 C 0.42682 0.41399 0.06926
 H1227 H 0.33083 0.38243 0.08503
 H1228 H 0.36764 0.42483 0.04858
 H1229 H 0.48027 0.39603 0.09534
 H1230 H 0.44300 0.35366 0.13168
   
