data_POSCAR
  _audit_creation_date              2014-09-24
  _audit_creation_method            'ToBaCCo'
  _symmetry_space_group_name_H-M    'P1'
  _symmetry_Int_Tables_number       1
  _symmetry_cell_setting            triclinic
  loop_
  _symmetry_equiv_pos_as_xyz
 x,y,z
_cell_length_a 60.7285
_cell_length_b 61.0958
_cell_length_c 61.9011
_cell_angle_alpha 89.528500
_cell_angle_beta 90.089500
_cell_angle_gamma 90.277400
loop_
  _atom_site_label
  _atom_site_type_symbol
  _atom_site_fract_x
  _atom_site_fract_y
  _atom_site_fract_z
N1 N 0.36059 0.29698 0.30515
 N2 N 0.36319 0.31457 0.29300
 C3 C 0.37990 0.31153 0.27919
 C4 C 0.38816 0.29083 0.28264
 C5 C 0.37546 0.28187 0.29911
 H6 H 0.38572 0.32363 0.26766
 H7 H 0.37748 0.26601 0.30673
 Cu8 Cu 0.34505 0.34022 0.29644
 Cu9 Cu 0.33933 0.29669 0.32910
 Cu10 Cu 0.33338 0.34974 0.34797
 N11 N 0.33347 0.36810 0.30527
 N12 N 0.33012 0.37233 0.32578
 C13 C 0.32305 0.39307 0.32763
 C14 C 0.32138 0.40196 0.30709
 C15 C 0.32807 0.38569 0.29326
 H16 H 0.31831 0.40065 0.34265
 H17 H 0.32880 0.38654 0.27581
 N18 N 0.32665 0.32338 0.36547
 N19 N 0.32730 0.30320 0.35798
 C20 C 0.31857 0.28944 0.37288
 C21 C 0.31230 0.30168 0.39058
 C22 C 0.31777 0.32301 0.38532
 H23 H 0.31668 0.27196 0.37089
 H24 H 0.31436 0.33742 0.39475
 H25 H 0.32247 0.32697 0.32628
 H26 H 0.35241 0.32638 0.33292
 N27 N 0.36193 0.83770 -0.18105
 N28 N 0.36492 0.85681 -0.19056
 C29 C 0.38286 0.85605 -0.20320
 C30 C 0.39136 0.83513 -0.20200
 C31 C 0.37758 0.82381 -0.18789
 H32 H 0.38890 0.86957 -0.21293
 H33 H 0.37911 0.80697 -0.18257
 Cu34 Cu 0.34421 0.88048 -0.18680
 Cu35 Cu 0.33839 0.83327 -0.15972
 Cu36 Cu 0.32073 0.88268 -0.13839
 N37 N 0.32370 0.90352 -0.17977
 N38 N 0.31561 0.90524 -0.16018
 C39 C 0.30260 0.92298 -0.15932
 C40 C 0.30201 0.93242 -0.17970
 C41 C 0.31562 0.91967 -0.19229
 H42 H 0.29340 0.92787 -0.14521
 H43 H 0.31937 0.92192 -0.20924
 N44 N 0.31691 0.85439 -0.12351
 N45 N 0.32225 0.83541 -0.13207
 C46 C 0.31495 0.81917 -0.11899
 C47 C 0.30453 0.82853 -0.10146
 C48 C 0.30620 0.85081 -0.10482
 H49 H 0.31681 0.80189 -0.12212
 H50 H 0.29921 0.86353 -0.09496
 H51 H 0.31850 0.86110 -0.16323
 H52 H 0.34642 0.86373 -0.15090
 N53 N 0.85456 0.31510 -0.17237
 N54 N 0.85380 0.33008 -0.18774
 C55 C 0.87136 0.32769 -0.20077
 C56 C 0.88389 0.31053 -0.19284
 C57 C 0.87277 0.30292 -0.17483
 H58 H 0.87495 0.33785 -0.21473
 H59 H 0.87734 0.28930 -0.16451
 Cu60 Cu 0.83011 0.35159 -0.18878
 Cu61 Cu 0.83117 0.31211 -0.15105
 Cu62 Cu 0.80784 0.36222 -0.14024
 N63 N 0.81009 0.37606 -0.18467
 N64 N 0.80235 0.38065 -0.16541
 C65 C 0.79021 0.39895 -0.16662
 C66 C 0.78994 0.40605 -0.18789
 C67 C 0.80273 0.39112 -0.19896
 H68 H 0.78186 0.40621 -0.15304
 H69 H 0.80672 0.39141 -0.21599
 N70 N 0.80606 0.33700 -0.12019
 N71 N 0.81377 0.31750 -0.12504
 C72 C 0.80734 0.30298 -0.10985
 C73 C 0.79509 0.31395 -0.09463
 C74 C 0.79469 0.33550 -0.10156
 H75 H 0.81097 0.28567 -0.11007
 H76 H 0.78566 0.34877 -0.09433
 H77 H 0.80748 0.33581 -0.16011
 H78 H 0.83519 0.34462 -0.15014
 N79 N 0.85748 0.77637 0.31805
 N80 N 0.85915 0.79033 0.30183
 C81 C 0.87567 0.78398 0.28882
 C82 C 0.88496 0.76530 0.29771
 C83 C 0.87301 0.76092 0.31618
 H84 H 0.88125 0.79289 0.27467
 H85 H 0.87570 0.74776 0.32767
 Cu86 Cu 0.84105 0.81671 0.30083
 Cu87 Cu 0.83611 0.78021 0.34104
 Cu88 Cu 0.82963 0.83523 0.35069
 N89 N 0.82936 0.84596 0.30531
 N90 N 0.82698 0.85365 0.32496
 C91 C 0.82063 0.87466 0.32376
 C92 C 0.81801 0.88023 0.30221
 C93 C 0.82365 0.86159 0.29088
 H94 H 0.81684 0.88462 0.33762
 H95 H 0.82387 0.85963 0.27353
 N96 N 0.82288 0.81218 0.37239
 N97 N 0.82428 0.79110 0.36813
 C98 C 0.81652 0.77942 0.38496
 C99 C 0.80989 0.79386 0.40067
 C100 C 0.81419 0.81450 0.39226
 H101 H 0.81563 0.76175 0.38561
 H102 H 0.81045 0.83002 0.39964
 H103 H 0.81900 0.80957 0.33291
 H104 H 0.84913 0.81055 0.33909
 N105 N 0.63651 0.67507 0.34620
 N106 N 0.63954 0.66724 0.32673
 C107 C 0.62397 0.67506 0.31336
 C108 C 0.61021 0.68830 0.32515
 C109 C 0.61850 0.68788 0.34601
 H110 H 0.62260 0.67117 0.29639
 H111 H 0.61223 0.69656 0.35985
 Cu112 Cu 0.66288 0.64684 0.32093
 Cu113 Cu 0.65680 0.66802 0.36981
 Cu114 Cu 0.70674 0.64573 0.35341
 N115 N 0.68330 0.62271 0.32034
 N116 N 0.70148 0.62276 0.33191
 C117 C 0.71302 0.60452 0.32743
 C118 C 0.70094 0.59235 0.31276
 C119 C 0.68221 0.60431 0.30869
 H120 H 0.72841 0.59998 0.33502
 H121 H 0.66881 0.60000 0.29797
 N122 N 0.70312 0.66146 0.38094
 N123 N 0.68370 0.66812 0.38784
 C124 C 0.68608 0.67672 0.40764
 C125 C 0.70804 0.67583 0.41329
 C126 C 0.71848 0.66617 0.39599
 H127 H 0.67296 0.68400 0.41690
 H128 H 0.73583 0.66250 0.39462
 H129 H 0.68172 0.66917 0.34782
 H130 H 0.67439 0.64144 0.35836
 N131 N 0.63222 0.20736 -0.17967
 N132 N 0.63321 0.19776 -0.19859
 C133 C 0.61736 0.20579 -0.21157
 C134 C 0.60557 0.22100 -0.20009
 C135 C 0.61532 0.22160 -0.17987
 H136 H 0.61408 0.20034 -0.22785
 H137 H 0.61057 0.23171 -0.16642
 Cu138 Cu 0.65346 0.17415 -0.20401
 Cu139 Cu 0.65357 0.20104 -0.15673
 Cu140 Cu 0.68925 0.15791 -0.16619
 N141 N 0.66685 0.14547 -0.20498
 N142 N 0.68151 0.13949 -0.19050
 C143 C 0.69018 0.12020 -0.19623
 C144 C 0.68019 0.11365 -0.21523
 C145 C 0.66525 0.12995 -0.22022
 H146 H 0.70316 0.11188 -0.18748
 H147 H 0.65499 0.13113 -0.23447
 N148 N 0.68970 0.17495 -0.13940
 N149 N 0.67675 0.19188 -0.13598
 C150 C 0.68243 0.20105 -0.11700
 C151 C 0.69936 0.18896 -0.10798
 C152 C 0.70345 0.17250 -0.12249
 H153 H 0.67493 0.21548 -0.11026
 H154 H 0.71609 0.16016 -0.12118
 H155 H 0.67780 0.18876 -0.17581
 H156 H 0.65726 0.16858 -0.16528
 N157 N 0.14096 0.70635 -0.17353
 N158 N 0.13864 0.69554 -0.19167
 C159 C 0.12224 0.70461 -0.20331
 C160 C 0.11371 0.72172 -0.19156
 C161 C 0.12583 0.72232 -0.17274
 H162 H 0.11663 0.69896 -0.21890
 H163 H 0.12422 0.73397 -0.15979
 Cu164 Cu 0.15652 0.67003 -0.19782
 Cu165 Cu 0.16487 0.70070 -0.15348
 Cu166 Cu 0.19790 0.65617 -0.16433
 N167 N 0.16953 0.64098 -0.19826
 N168 N 0.18609 0.63597 -0.18547
 C169 C 0.19373 0.61611 -0.19067
 C170 C 0.18112 0.60809 -0.20743
 C171 C 0.16580 0.62420 -0.21184
 H172 H 0.20790 0.60840 -0.18332
 H173 H 0.15385 0.62430 -0.22481
 N174 N 0.20263 0.67525 -0.13931
 N175 N 0.19019 0.69243 -0.13543
 C176 C 0.19836 0.70311 -0.11827
 C177 C 0.21651 0.69189 -0.11078
 C178 C 0.21873 0.67422 -0.12433
 H179 H 0.19179 0.71810 -0.11178
 H180 H 0.23156 0.66201 -0.12377
 H181 H 0.18549 0.68617 -0.17510
 H182 H 0.16662 0.66741 -0.15988
 N183 N 0.13987 0.18110 0.31412
 N184 N 0.13547 0.16245 0.30450
 C185 C 0.11605 0.16400 0.29419
 C186 C 0.10799 0.18484 0.29714
 C187 C 0.12357 0.19541 0.30971
 H188 H 0.10822 0.15083 0.28544
 H189 H 0.12250 0.21175 0.31621
 Cu190 Cu 0.15518 0.13757 0.30649
 Cu191 Cu 0.16508 0.18375 0.33377
 Cu192 Cu 0.18059 0.13282 0.35393
 N193 N 0.17417 0.11281 0.31276
 N194 N 0.18329 0.11040 0.33189
 C195 C 0.19466 0.09153 0.33243
 C196 C 0.19289 0.08187 0.31238
 C197 C 0.17978 0.09581 0.30027
 H198 H 0.20413 0.08572 0.34612
 H199 H 0.17472 0.09373 0.28365
 N200 N 0.18636 0.16047 0.36905
 N201 N 0.18212 0.17999 0.36072
 C202 C 0.18969 0.19544 0.37434
 C203 C 0.19886 0.18499 0.39209
 C204 C 0.19641 0.16292 0.38822
 H205 H 0.18797 0.21290 0.37187
 H206 H 0.20195 0.14958 0.39841
 H207 H 0.18318 0.15472 0.32921
 H208 H 0.15570 0.15340 0.34257
 N209 N 0.64291 0.32327 0.66567
 N210 N 0.64100 0.34209 0.67565
 C211 C 0.62169 0.34260 0.68618
 C212 C 0.61115 0.32285 0.68311
 C213 C 0.62509 0.31078 0.67018
 H214 H 0.61590 0.35619 0.69569
 H215 H 0.62212 0.29457 0.66388
 Cu216 Cu 0.66437 0.36372 0.67506
 Cu217 Cu 0.66772 0.31794 0.64618
 Cu218 Cu 0.69250 0.36665 0.62908
 N219 N 0.68769 0.38508 0.67115
 N220 N 0.69804 0.38710 0.65260
 C221 C 0.71235 0.40398 0.65379
 C222 C 0.71113 0.41256 0.67437
 C223 C 0.69537 0.40015 0.68496
 H224 H 0.72320 0.40920 0.64088
 H225 H 0.68971 0.40216 0.70138
 N226 N 0.69373 0.33926 0.61254
 N227 N 0.68581 0.32038 0.61973
 C228 C 0.69085 0.30458 0.60550
 C229 C 0.70224 0.31413 0.58850
 C230 C 0.70371 0.33607 0.59345
 H231 H 0.68608 0.28757 0.60710
 H232 H 0.71193 0.34871 0.58411
 H233 H 0.69015 0.34348 0.65262
 H234 H 0.66387 0.34974 0.63828
 N235 N 0.64572 0.77784 1.17163
 N236 N 0.64704 0.78956 1.18931
 C237 C 0.62987 0.78481 1.20221
 C238 C 0.61688 0.76948 1.19198
 C239 C 0.62731 0.76542 1.17255
 H240 H 0.62676 0.79231 1.21766
 H241 H 0.62206 0.75411 1.16020
 Cu242 Cu 0.67024 0.81085 1.19351
 Cu243 Cu 0.66851 0.77943 1.14929
 Cu244 Cu 0.70666 0.82169 1.15420
 N245 N 0.68801 0.83720 1.19373
 N246 N 0.70331 0.84074 1.17910
 C247 C 0.71386 0.85959 1.18365
 C248 C 0.70423 0.86844 1.20178
 C249 C 0.68782 0.85393 1.20771
 H250 H 0.72697 0.86675 1.17408
 H251 H 0.67674 0.85534 1.22129
 N252 N 0.70701 0.80062 1.13025
 N253 N 0.69300 0.78409 1.12863
 C254 C 0.69791 0.77258 1.11077
 C255 C 0.71550 0.78268 1.10056
 C256 C 0.72079 0.80038 1.11325
 H257 H 0.68896 0.75835 1.10520
 H258 H 0.73379 0.81217 1.11028
 H259 H 0.69376 0.79292 1.16719
 H260 H 0.67380 0.81234 1.15448
 N261 N 0.12161 0.32623 1.18181
 N262 N 0.12572 0.33081 1.20213
 C263 C 0.11036 0.32106 1.21469
 C264 C 0.09574 0.31016 1.20131
 C265 C 0.10323 0.31399 1.18059
 H266 H 0.10981 0.32193 1.23213
 H267 H 0.09650 0.30745 1.16579
 Cu268 Cu 0.15029 0.34996 1.20950
 Cu269 Cu 0.14193 0.33431 1.15886
 Cu270 Cu 0.19445 0.34652 1.17705
 N271 N 0.17461 0.37069 1.21154
 N272 N 0.19253 0.36873 1.19978
 C273 C 0.20643 0.38532 1.20449
 C274 C 0.19634 0.39858 1.21953
 C275 C 0.17620 0.38883 1.22362
 H276 H 0.22208 0.38825 1.19661
 H277 H 0.16349 0.39466 1.23433
 N278 N 0.18863 0.33369 1.14837
 N279 N 0.16837 0.33137 1.14092
 C280 C 0.16911 0.32320 1.12089
 C281 C 0.19081 0.31976 1.11552
 C282 C 0.20289 0.32657 1.13328
 H283 H 0.15479 0.31869 1.11148
 H284 H 0.22061 0.32633 1.13511
 H285 H 0.16564 0.32745 1.18096
 H286 H 0.16348 0.35672 1.17259
 N287 N 0.14928 0.84340 0.68552
 N288 N 0.14550 0.86256 0.69429
 C289 C 0.12601 0.86186 0.70459
 C290 C 0.11744 0.84098 0.70252
 C291 C 0.13268 0.82960 0.69053
 H292 H 0.11882 0.87535 0.71326
 H293 H 0.13138 0.81286 0.68511
 Cu294 Cu 0.16728 0.88591 0.69242
 Cu295 Cu 0.17437 0.83892 0.66642
 Cu296 Cu 0.19490 0.88802 0.64588
 N297 N 0.18940 0.90836 0.68710
 N298 N 0.19958 0.90984 0.66840
 C299 C 0.21369 0.92693 0.66886
 C300 C 0.21262 0.93622 0.68913
 C301 C 0.19707 0.92403 0.70031
 H302 H 0.22457 0.93161 0.65578
 H303 H 0.19182 0.92634 0.71682
 N304 N 0.19747 0.85991 0.63068
 N305 N 0.19123 0.84106 0.63936
 C306 C 0.19626 0.82476 0.62577
 C307 C 0.20587 0.83385 0.60758
 C308 C 0.20640 0.85615 0.61118
 H309 H 0.19245 0.80766 0.62857
 H310 H 0.21307 0.86865 0.60056
 H311 H 0.19457 0.86661 0.67082
 H312 H 0.16768 0.86980 0.65656
 N313 N 0.37172 0.69488 0.68806
 N314 N 0.37343 0.67613 0.69846
 C315 C 0.38879 0.67786 0.71400
 C316 C 0.39702 0.69891 0.71349
 C317 C 0.38589 0.70937 0.69682
 H318 H 0.39319 0.66490 0.72518
 H319 H 0.38801 0.72613 0.69142
 Cu320 Cu 0.35456 0.65147 0.69199
 Cu321 Cu 0.35138 0.69800 0.66371
 Cu322 Cu 0.30522 0.66538 0.67128
 N323 N 0.32978 0.63170 0.69305
 N324 N 0.31011 0.63747 0.68622
 C325 C 0.29557 0.62168 0.69179
 C326 C 0.30695 0.60521 0.70245
 C327 C 0.32859 0.61206 0.70283
 H328 H 0.27805 0.62233 0.68868
 H329 H 0.34224 0.60401 0.71078
 N330 N 0.30628 0.68999 0.65016
 N331 N 0.32437 0.70156 0.64656
 C332 C 0.32153 0.71400 0.62877
 C333 C 0.30051 0.71044 0.62102
 C334 C 0.29122 0.69520 0.63494
 H335 H 0.33418 0.72405 0.62136
 H336 H 0.27552 0.68702 0.63292
 H337 H 0.33104 0.68283 0.68475
 H338 H 0.33693 0.66644 0.65999
 N339 N 0.35747 0.15994 1.17986
 N340 N 0.35279 0.14396 1.19345
 C341 C 0.36942 0.14179 1.20776
 C342 C 0.38510 0.15754 1.20298
 C343 C 0.37700 0.16877 1.18525
 H344 H 0.36948 0.13056 1.22136
 H345 H 0.38438 0.18288 1.17742
 Cu346 Cu 0.32446 0.12932 1.19248
 Cu347 Cu 0.33702 0.16969 1.15764
 Cu348 Cu 0.28631 0.14333 1.15550
 N349 N 0.30030 0.10993 1.18521
 N350 N 0.28554 0.11497 1.17043
 C351 C 0.27040 0.09875 1.16951
 C352 C 0.27604 0.08294 1.18467
 C353 C 0.29504 0.09058 1.19429
 H354 H 0.25587 0.09896 1.15938
 H355 H 0.30411 0.08281 1.20728
 N356 N 0.29412 0.16848 1.13658
 N357 N 0.31399 0.17739 1.13659
 C358 C 0.31497 0.19297 1.12116
 C359 C 0.29473 0.19428 1.11122
 C360 C 0.28176 0.17860 1.12135
 H361 H 0.32927 0.20296 1.11757
 H362 H 0.26490 0.17442 1.11745
 H363 H 0.30866 0.16128 1.17374
 H364 H 0.31965 0.14032 1.15497
 N365 N 0.86864 0.65662 1.15217
 N366 N 0.86351 0.65260 1.17246
 C367 C 0.87858 0.66210 1.18533
 C368 C 0.89405 0.67246 1.17237
 C369 C 0.88736 0.66851 1.15141
 H370 H 0.87825 0.66161 1.20280
 H371 H 0.89504 0.67446 1.13673
 Cu372 Cu 0.83775 0.63513 1.18010
 Cu373 Cu 0.84983 0.64724 1.12842
 Cu374 Cu 0.79752 0.63092 1.14346
 N375 N 0.81440 0.61334 1.18333
 N376 N 0.79909 0.61122 1.16842
 C377 C 0.78635 0.59381 1.17329
 C378 C 0.79389 0.58478 1.19242
 C379 C 0.81164 0.59759 1.19848
 H380 H 0.77289 0.58791 1.16343
 H381 H 0.82245 0.59490 1.21214
 N382 N 0.80417 0.64267 1.11464
 N383 N 0.82450 0.64699 1.10833
 C384 C 0.82397 0.65469 1.08791
 C385 C 0.80226 0.65564 1.08130
 C386 C 0.79009 0.64797 1.09864
 H387 H 0.83812 0.66092 1.07918
 H388 H 0.77235 0.64687 1.09974
 H389 H 0.82373 0.65344 1.14785
 H390 H 0.82971 0.62393 1.14303
 N391 N 0.87246 0.20036 0.65949
 N392 N 0.87022 0.19498 0.67998
 C393 C 0.88365 0.20764 0.69191
 C394 C 0.89502 0.22150 0.67803
 C395 C 0.88772 0.21629 0.65758
 H396 H 0.88471 0.20710 0.70935
 H397 H 0.89223 0.22427 0.64255
 Cu398 Cu 0.84907 0.17271 0.68898
 Cu399 Cu 0.85304 0.18838 0.63746
 Cu400 Cu 0.80344 0.17037 0.65872
 N401 N 0.82728 0.14969 0.69343
 N402 N 0.80868 0.14972 0.68249
 C403 C 0.79620 0.13268 0.68907
 C404 C 0.80784 0.12113 0.70458
 C405 C 0.82751 0.13234 0.70699
 H406 H 0.78027 0.12850 0.68240
 H407 H 0.84092 0.12826 0.71779
 N408 N 0.80645 0.18178 0.62903
 N409 N 0.82588 0.18617 0.62042
 C410 C 0.82319 0.19171 0.59956
 C411 C 0.80100 0.19125 0.59496
 C412 C 0.79073 0.18497 0.61395
 H413 H 0.83632 0.19691 0.58886
 H414 H 0.77327 0.18255 0.61651
 H415 H 0.82987 0.19264 0.66037
 H416 H 0.83527 0.16361 0.65306
 N417 N 0.30319 0.37553 0.67021
 N418 N 0.32123 0.37528 0.68197
 C419 C 0.32032 0.39163 0.69640
 C420 C 0.30042 0.40215 0.69379
 C421 C 0.28989 0.39154 0.67714
 H422 H 0.33301 0.39550 0.70805
 H423 H 0.27411 0.39567 0.67012
 Cu424 Cu 0.34378 0.35315 0.67776
 Cu425 Cu 0.29895 0.35610 0.64598
 Cu426 Cu 0.33998 0.31857 0.63590
 N427 N 0.36669 0.33187 0.67171
 N428 N 0.36570 0.31894 0.65484
 C429 C 0.38357 0.30590 0.65479
 C430 C 0.39617 0.31078 0.67276
 C431 C 0.38499 0.32728 0.68312
 H432 H 0.38662 0.29313 0.64319
 H433 H 0.38972 0.33507 0.69805
 N434 N 0.31466 0.32318 0.61631
 N435 N 0.29961 0.33827 0.61979
 C436 C 0.28492 0.33813 0.60349
 C437 C 0.29069 0.32183 0.58942
 C438 C 0.30951 0.31255 0.59799
 H439 H 0.27052 0.34843 0.60240
 H440 H 0.31864 0.29901 0.59138
 H441 H 0.31775 0.33039 0.65778
 H442 H 0.33230 0.35111 0.64044
 N443 N 0.31951 0.85606 0.18117
 N444 N 0.33621 0.85475 0.19466
 C445 C 0.33398 0.87027 0.20987
 C446 C 0.31465 0.88147 0.20582
 C447 C 0.30584 0.87200 0.18759
 H448 H 0.34524 0.87296 0.22315
 H449 H 0.29084 0.87669 0.17938
 Cu450 Cu 0.35857 0.83211 0.19154
 Cu451 Cu 0.31720 0.83793 0.15567
 Cu452 Cu 0.35543 0.79662 0.15014
 N453 N 0.37919 0.80788 0.18862
 N454 N 0.37825 0.79460 0.17203
 C455 C 0.39466 0.77995 0.17351
 C456 C 0.40629 0.78401 0.19220
 C457 C 0.39603 0.80176 0.20151
 H458 H 0.39762 0.76697 0.16212
 H459 H 0.40062 0.80965 0.21644
 N460 N 0.33122 0.80131 0.12957
 N461 N 0.31750 0.81793 0.13098
 C462 C 0.30433 0.81812 0.11347
 C463 C 0.30969 0.80048 0.10085
 C464 C 0.32666 0.79005 0.11147
 H465 H 0.29167 0.83008 0.11015
 H466 H 0.33556 0.77588 0.10592
 H467 H 0.33249 0.81126 0.16990
 H468 H 0.35017 0.82987 0.15307
 N469 N 0.80311 0.35853 0.17053
 N470 N 0.81046 0.35610 0.19038
 C471 C 0.80040 0.37054 0.20326
 C472 C 0.78622 0.38290 0.19071
 C473 C 0.78844 0.37500 0.16997
 H474 H 0.80345 0.37220 0.22039
 H475 H 0.77972 0.38043 0.15566
 Cu476 Cu 0.83337 0.33515 0.19715
 Cu477 Cu 0.81268 0.33919 0.14751
 Cu478 Cu 0.83524 0.29044 0.16636
 N479 N 0.85712 0.31426 0.20005
 N480 N 0.85731 0.29603 0.18890
 C481 C 0.87500 0.28416 0.19490
 C482 C 0.88664 0.29594 0.21022
 C483 C 0.87487 0.31495 0.21305
 H484 H 0.87941 0.26851 0.18815
 H485 H 0.87876 0.32817 0.22395
 N486 N 0.82063 0.29324 0.13789
 N487 N 0.81402 0.31235 0.13020
 C488 C 0.80667 0.30976 0.10991
 C489 C 0.80831 0.28795 0.10466
 C490 C 0.81715 0.27781 0.12275
 H491 H 0.79994 0.32269 0.09989
 H492 H 0.82138 0.26071 0.12451
 H493 H 0.81168 0.31525 0.17043
 H494 H 0.83972 0.32249 0.16036
 N495 N 0.81480 0.88656 0.66578
 N496 N 0.82321 0.88596 0.68535
 C497 C 0.81357 0.90126 0.69753
 C498 C 0.79854 0.91231 0.68479
 C499 C 0.79981 0.90273 0.66466
 H500 H 0.81737 0.90430 0.71431
 H501 H 0.79014 0.90674 0.65049
 Cu502 Cu 0.84655 0.86583 0.69285
 Cu503 Cu 0.82337 0.86518 0.64407
 Cu504 Cu 0.84702 0.81843 0.66640
 N505 N 0.87030 0.84519 0.69684
 N506 N 0.86999 0.82600 0.68739
 C507 C 0.88781 0.81458 0.69378
 C508 C 0.90004 0.82761 0.70758
 C509 C 0.88849 0.84691 0.70913
 H510 H 0.89185 0.79831 0.68833
 H511 H 0.89283 0.86104 0.71867
 N512 N 0.83138 0.81856 0.63842
 N513 N 0.82434 0.83679 0.62915
 C514 C 0.81647 0.83213 0.60940
 C515 C 0.81825 0.80988 0.60626
 C516 C 0.82766 0.80167 0.62497
 H517 H 0.80930 0.84395 0.59837
 H518 H 0.83212 0.78485 0.62825
 H519 H 0.82363 0.84358 0.66908
 H520 H 0.85114 0.84983 0.65714
 N521 N 0.69133 0.65240 0.69533
 N522 N 0.67314 0.65041 0.70670
 C523 C 0.67381 0.63168 0.71826
 C524 C 0.69364 0.62158 0.71415
 C525 C 0.70449 0.63522 0.69969
 H526 H 0.66084 0.62587 0.72883
 H527 H 0.72029 0.63241 0.69219
 Cu528 Cu 0.65039 0.67262 0.70551
 Cu529 Cu 0.69513 0.67614 0.67416
 Cu530 Cu 0.64411 0.69422 0.65631
 N531 N 0.62591 0.69187 0.69896
 N532 N 0.62288 0.69938 0.67922
 C533 C 0.60430 0.71126 0.67858
 C534 C 0.59559 0.71165 0.69916
 C535 C 0.60968 0.69921 0.71175
 H536 H 0.59811 0.71967 0.66439
 H537 H 0.60817 0.69568 0.72884
 N538 N 0.67132 0.69741 0.63929
 N539 N 0.69101 0.69198 0.64660
 C540 C 0.70628 0.69808 0.63191
 C541 C 0.69552 0.70765 0.61454
 C542 C 0.67344 0.70691 0.61975
 H543 H 0.72379 0.69540 0.63357
 H544 H 0.65994 0.71336 0.61029
 H545 H 0.66796 0.69704 0.67925
 H546 H 0.66348 0.66899 0.66842
 N547 N 0.69240 0.11488 0.17394
 N548 N 0.67414 0.10958 0.18419
 C549 C 0.67658 0.08987 0.19369
 C550 C 0.69767 0.08268 0.18964
 C551 C 0.70741 0.09898 0.17724
 H552 H 0.66397 0.08141 0.20288
 H553 H 0.72371 0.09876 0.17022
 Cu554 Cu 0.64875 0.12884 0.18432
 Cu555 Cu 0.69370 0.14072 0.15494
 Cu556 Cu 0.64123 0.15459 0.13739
 N557 N 0.62338 0.14764 0.17966
 N558 N 0.61962 0.15624 0.16048
 C559 C 0.60029 0.16688 0.16076
 C560 C 0.59184 0.16542 0.18141
 C561 C 0.60690 0.15315 0.19309
 H562 H 0.59342 0.17582 0.14721
 H563 H 0.60576 0.14833 0.20990
 N564 N 0.66817 0.16218 0.12136
 N565 N 0.68827 0.15845 0.12864
 C566 C 0.70291 0.16786 0.11499
 C567 C 0.69128 0.17787 0.09838
 C568 C 0.66940 0.17387 0.10294
 H569 H 0.72060 0.16735 0.11694
 H570 H 0.65530 0.17974 0.09396
 H571 H 0.66414 0.15755 0.16115
 H572 H 0.66326 0.13049 0.14746
 N573 N 0.20367 0.63040 0.16547
 N574 N 0.18953 0.62852 0.18145
 C575 C 0.19681 0.61326 0.19553
 C576 C 0.21626 0.60491 0.18768
 C577 C 0.22014 0.61602 0.16855
 H578 H 0.18839 0.60816 0.21012
 H579 H 0.23401 0.61397 0.15784
 Cu580 Cu 0.16258 0.64549 0.18170
 Cu581 Cu 0.20001 0.65191 0.14237
 Cu582 Cu 0.15235 0.68311 0.14309
 N583 N 0.13550 0.66225 0.18146
 N584 N 0.13217 0.67795 0.16717
 C585 C 0.11294 0.68788 0.17160
 C586 C 0.10363 0.67743 0.18926
 C587 C 0.11823 0.66122 0.19505
 H588 H 0.10596 0.70124 0.16235
 H589 H 0.11653 0.64987 0.20845
 N590 N 0.17484 0.68572 0.12015
 N591 N 0.19337 0.67447 0.12045
 C592 C 0.20588 0.68076 0.10354
 C593 C 0.19448 0.69629 0.09181
 C594 C 0.17485 0.69903 0.10266
 H595 H 0.22201 0.67441 0.09985
 H596 H 0.16187 0.71033 0.09841
 H597 H 0.18040 0.67339 0.15930
 H598 H 0.16591 0.65220 0.14297
 N599 N 0.17591 0.14323 0.67693
 N600 N 0.15881 0.14548 0.68966
 C601 C 0.16205 0.13393 0.70794
 C602 C 0.18242 0.12413 0.70664
 C603 C 0.19083 0.13030 0.68675
 H604 H 0.15070 0.13321 0.72138
 H605 H 0.20652 0.12573 0.67992
 Cu606 Cu 0.13450 0.16436 0.68185
 Cu607 Cu 0.17680 0.15738 0.64869
 Cu608 Cu 0.14905 0.20682 0.64972
 N609 N 0.11628 0.18994 0.67899
 N610 N 0.12242 0.20732 0.66780
 C611 C 0.10744 0.22331 0.67082
 C612 C 0.09105 0.21506 0.68423
 C613 C 0.09711 0.19389 0.68891
 H614 H 0.10811 0.23939 0.66340
 H615 H 0.08850 0.18239 0.69930
 N616 N 0.17159 0.19950 0.62752
 N617 N 0.18113 0.18013 0.62676
 C618 C 0.19414 0.17914 0.60929
 C619 C 0.19304 0.19891 0.59851
 C620 C 0.17868 0.21156 0.61049
 H621 H 0.20394 0.16512 0.60492
 H622 H 0.17337 0.22803 0.60674
 H623 H 0.16635 0.18306 0.66635
 H624 H 0.14614 0.17397 0.64541
 N625 N 0.30912 0.64464 0.33624
 N626 N 0.32725 0.64150 0.32508
 C627 C 0.32539 0.62275 0.31400
 C628 C 0.30480 0.61398 0.31796
 C629 C 0.29480 0.62824 0.33210
 H630 H 0.33817 0.61581 0.30405
 H631 H 0.27893 0.62618 0.33977
 Cu632 Cu 0.35171 0.66207 0.32616
 Cu633 Cu 0.30714 0.66845 0.35719
 Cu634 Cu 0.35894 0.68606 0.37372
 N635 N 0.37592 0.68243 0.33085
 N636 N 0.37936 0.69099 0.34997
 C637 C 0.39745 0.70380 0.34922
 C638 C 0.40545 0.70359 0.32835
 C639 C 0.39142 0.68987 0.31708
 H640 H 0.40378 0.71314 0.36265
 H641 H 0.39246 0.68559 0.30019
 N642 N 0.33221 0.68985 0.39108
 N643 N 0.31227 0.68459 0.38427
 C644 C 0.29741 0.69168 0.39874
 C645 C 0.30868 0.70181 0.41539
 C646 C 0.33065 0.70027 0.41004
 H647 H 0.27977 0.68975 0.39720
 H648 H 0.34445 0.70714 0.41876
 H649 H 0.33502 0.68802 0.35086
 H650 H 0.33854 0.66039 0.36341
 N651 N 0.31341 0.17156 0.83215
 N652 N 0.32691 0.17372 0.81566
 C653 C 0.32434 0.15643 0.80247
 C654 C 0.30864 0.14269 0.81147
 C655 C 0.30210 0.15269 0.83029
 H656 H 0.33376 0.15365 0.78795
 H657 H 0.29007 0.14667 0.84179
 Cu658 Cu 0.34757 0.19821 0.81396
 Cu659 Cu 0.31142 0.19374 0.85447
 Cu660 Cu 0.36140 0.21967 0.86215
 N661 N 0.37196 0.21874 0.81698
 N662 N 0.37771 0.22647 0.83595
 C663 C 0.39571 0.23919 0.83368
 C664 C 0.40138 0.23966 0.81209
 C665 C 0.38599 0.22651 0.80191
 H666 H 0.40390 0.24759 0.84676
 H667 H 0.38531 0.22258 0.78492
 N668 N 0.33781 0.21932 0.88401
 N669 N 0.31828 0.21046 0.88049
 C670 C 0.30482 0.21530 0.89697
 C671 C 0.31650 0.22774 0.91162
 C672 C 0.33737 0.22991 0.90301
 H673 H 0.28769 0.21048 0.89800
 H674 H 0.35082 0.23955 0.90944
 H675 H 0.33324 0.21891 0.84430
 H676 H 0.34434 0.19166 0.85282
 N677 N 0.83245 0.63627 0.81480
 N678 N 0.85188 0.63006 0.80786
 C679 C 0.84975 0.61141 0.79671
 C680 C 0.82776 0.60574 0.79634
 C681 C 0.81716 0.62184 0.80796
 H682 H 0.86307 0.60326 0.78849
 H683 H 0.79967 0.62313 0.81095
 Cu684 Cu 0.87780 0.64819 0.81090
 Cu685 Cu 0.82873 0.66295 0.83167
 Cu686 Cu 0.87635 0.69204 0.84253
 N687 N 0.89838 0.67221 0.80698
 N688 N 0.89714 0.68999 0.81871
 C689 C 0.91182 0.70480 0.81130
 C690 C 0.92290 0.69561 0.79413
 C691 C 0.91411 0.67489 0.79189
 H692 H 0.91410 0.72104 0.81777
 H693 H 0.91809 0.66306 0.77961
 N694 N 0.84905 0.69625 0.85872
 N695 N 0.83050 0.68592 0.85412
 C696 C 0.81506 0.69180 0.86860
 C697 C 0.82461 0.70621 0.88305
 C698 C 0.84612 0.70865 0.87628
 H699 H 0.79860 0.68501 0.86946
 H700 H 0.85888 0.71826 0.88394
 H701 H 0.85571 0.67997 0.81986
 H702 H 0.86000 0.66116 0.84351
 N703 N 0.80393 0.11487 0.32711
 N704 N 0.81669 0.11402 0.30999
 C705 C 0.81139 0.09623 0.29840
 C706 C 0.79465 0.08525 0.30901
 C707 C 0.79033 0.09739 0.32722
 H708 H 0.81919 0.09155 0.28344
 H709 H 0.77766 0.09425 0.33912
 Cu710 Cu 0.83934 0.13584 0.30447
 Cu711 Cu 0.80425 0.14001 0.34616
 Cu712 Cu 0.84852 0.17538 0.34079
 N713 N 0.86684 0.15218 0.30499
 N714 N 0.87012 0.16799 0.31893
 C715 C 0.88914 0.17828 0.31417
 C716 C 0.89840 0.16814 0.29654
 C717 C 0.88393 0.15156 0.29115
 H718 H 0.89536 0.19260 0.32237
 H719 H 0.88503 0.14086 0.27736
 N720 N 0.82721 0.17727 0.36467
 N721 N 0.80990 0.16419 0.36632
 C722 C 0.79751 0.17062 0.38311
 C723 C 0.80770 0.18836 0.39260
 C724 C 0.82653 0.19208 0.38066
 H725 H 0.78211 0.16313 0.38797
 H726 H 0.83835 0.20516 0.38295
 H727 H 0.82030 0.16270 0.32712
 H728 H 0.83785 0.14337 0.34288
 N729 N 0.67296 0.35140 0.33306
 N730 N 0.66414 0.35178 0.31363
 C731 C 0.67279 0.36862 0.30229
 C732 C 0.68754 0.37957 0.31544
 C733 C 0.68715 0.36831 0.33492
 H734 H 0.66872 0.37257 0.28570
 H735 H 0.69708 0.37160 0.34906
 Cu736 Cu 0.64205 0.33030 0.30508
 Cu737 Cu 0.66646 0.32777 0.35360
 Cu738 Cu 0.64670 0.28108 0.32834
 N739 N 0.62218 0.30638 0.29764
 N740 N 0.62517 0.28669 0.30581
 C741 C 0.61006 0.27290 0.29760
 C742 C 0.59649 0.28473 0.28402
 C743 C 0.60456 0.30596 0.28441
 H744 H 0.60832 0.25585 0.30217
 H745 H 0.59802 0.32000 0.27584
 N746 N 0.65984 0.28075 0.35728
 N747 N 0.66693 0.29848 0.36722
 C748 C 0.67484 0.29268 0.38678
 C749 C 0.67221 0.27029 0.38925
 C750 C 0.66263 0.26329 0.37031
 H751 H 0.68230 0.30383 0.39817
 H752 H 0.65837 0.24665 0.36611
 H753 H 0.66725 0.30881 0.32739
 H754 H 0.63939 0.31136 0.33980
 N755 N 0.69255 0.88466 0.83569
 N756 N 0.68166 0.88363 0.81735
 C757 C 0.68883 0.89958 0.80398
 C758 C 0.70479 0.91150 0.81470
 C759 C 0.70665 0.90174 0.83486
 H760 H 0.68275 0.90245 0.78778
 H761 H 0.71792 0.90622 0.84766
 Cu762 Cu 0.65866 0.86200 0.81307
 Cu763 Cu 0.68832 0.86250 0.85831
 Cu764 Cu 0.66550 0.81424 0.83873
 N765 N 0.63593 0.83962 0.81264
 N766 N 0.63926 0.82016 0.82125
 C767 C 0.62149 0.80743 0.81750
 C768 C 0.60608 0.81993 0.80656
 C769 C 0.61572 0.84025 0.80378
 H770 H 0.61956 0.79072 0.82312
 H771 H 0.60869 0.85433 0.79567
 N772 N 0.68437 0.81533 0.86465
 N773 N 0.69118 0.83396 0.87313
 C774 C 0.70123 0.82972 0.89207
 C775 C 0.70104 0.80737 0.89545
 C776 C 0.69036 0.79866 0.87775
 H777 H 0.70851 0.84196 0.90243
 H778 H 0.68637 0.78162 0.87509
 H779 H 0.68630 0.84143 0.83337
 H780 H 0.66028 0.84508 0.84884
 N781 N 0.19039 0.36739 0.83178
 N782 N 0.17805 0.36590 0.81438
 C783 C 0.18208 0.38323 0.80139
 C784 C 0.19746 0.39642 0.81145
 C785 C 0.20241 0.38594 0.83070
 H786 H 0.17393 0.38636 0.78612
 H787 H 0.21401 0.39125 0.84287
 Cu788 Cu 0.15663 0.34237 0.81107
 Cu789 Cu 0.19024 0.34451 0.85385
 Cu790 Cu 0.13877 0.32092 0.85842
 N791 N 0.12965 0.32534 0.81293
 N792 N 0.12215 0.31809 0.83160
 C793 C 0.10207 0.30924 0.82866
 C794 C 0.09687 0.31079 0.80696
 C795 C 0.11476 0.32098 0.79738
 H796 H 0.09195 0.30234 0.84139
 H797 H 0.11632 0.32586 0.78061
 N798 N 0.16153 0.31850 0.88122
 N799 N 0.18150 0.32683 0.87895
 C800 C 0.19402 0.32061 0.89582
 C801 C 0.18130 0.30779 0.90945
 C802 C 0.16076 0.30684 0.89980
 H803 H 0.21123 0.32476 0.89779
 H804 H 0.14667 0.29747 0.90532
 H805 H 0.16789 0.32044 0.84216
 H806 H 0.15746 0.34805 0.84999
 N807 N 0.18669 0.83876 0.32458
 N808 N 0.17404 0.83710 0.30740
 C809 C 0.17784 0.85437 0.29421
 C810 C 0.19341 0.86761 0.30394
 C811 C 0.19862 0.85731 0.32318
 H812 H 0.16902 0.85770 0.27935
 H813 H 0.20994 0.86307 0.33542
 Cu814 Cu 0.15192 0.81397 0.30533
 Cu815 Cu 0.18609 0.81682 0.34757
 Cu816 Cu 0.13376 0.79572 0.35388
 N817 N 0.12488 0.79707 0.30812
 N818 N 0.11725 0.79115 0.32719
 C819 C 0.09735 0.78173 0.32467
 C820 C 0.09248 0.78140 0.30286
 C821 C 0.11033 0.79115 0.29276
 H822 H 0.08731 0.77535 0.33771
 H823 H 0.11221 0.79440 0.27566
 N824 N 0.15654 0.79417 0.37682
 N825 N 0.17686 0.80131 0.37380
 C826 C 0.18918 0.79617 0.39115
 C827 C 0.17597 0.78538 0.40596
 C828 C 0.15533 0.78443 0.39644
 H829 H 0.20652 0.79992 0.39280
 H830 H 0.14082 0.77642 0.40290
 H831 H 0.16247 0.79316 0.33744
 H832 H 0.15341 0.82157 0.34394
 C833 C 0.23354 1.03548 0.24766
 C834 C 0.24183 1.02431 0.22984
 C835 C 0.24401 1.00151 0.23072
 C836 C 0.23876 0.98984 0.24979
 C837 C 0.23065 1.00145 0.26770
 C838 C 0.22761 1.02420 0.26657
 C839 C 0.24191 0.96567 0.25112
 C840 C 0.22703 0.95245 0.26284
 C841 C 0.22997 0.92973 0.26441
 C842 C 0.24753 0.91999 0.25346
 C843 C 0.26290 0.93294 0.24226
 C844 C 0.26015 0.95572 0.24124
 H845 H 0.23204 1.05314 0.24684
 H846 H 0.25018 0.99300 0.21670
 H847 H 0.22671 0.99282 0.28255
 H848 H 0.21303 0.95976 0.27078
 H849 H 0.25016 0.90251 0.25492
 H850 H 0.27236 0.96564 0.23293
 C851 C 0.23927 0.56087 0.74524
 C852 C 0.25754 0.54942 0.73772
 C853 C 0.25758 0.52655 0.73904
 C854 C 0.23901 0.51482 0.74653
 C855 C 0.22050 0.52668 0.75354
 C856 C 0.22094 0.54965 0.75352
 C857 C 0.23951 0.49038 0.74742
 C858 C 0.22840 0.47858 0.76377
 C859 C 0.22983 0.45565 0.76497
 C860 C 0.24288 0.44444 0.75004
 C861 C 0.25492 0.45605 0.73446
 C862 C 0.25252 0.47872 0.73267
 H863 H 0.23943 0.57861 0.74506
 H864 H 0.27223 0.51795 0.73417
 H865 H 0.20599 0.51823 0.75949
 H866 H 0.21906 0.48713 0.77593
 H867 H 0.24509 0.42691 0.75169
 H868 H 0.26129 0.48717 0.71986
 C869 C 0.76211 -0.07847 0.24718
 C870 C 0.77709 -0.06524 0.25843
 C871 C 0.77499 -0.04239 0.25714
 C872 C 0.75710 -0.03259 0.24626
 C873 C 0.74153 -0.04630 0.23620
 C874 C 0.74420 -0.06909 0.23627
 C875 C 0.75423 -0.00826 0.24630
 C876 C 0.74343 0.00268 0.22914
 C877 C 0.74066 0.02552 0.22934
 C878 C 0.74991 0.03765 0.24623
 C879 C 0.76026 0.02707 0.26359
 C880 C 0.76192 0.00424 0.26381
 H881 H 0.76329 -0.09612 0.24833
 H882 H 0.78726 -0.03233 0.26502
 H883 H 0.72706 -0.03943 0.22857
 H884 H 0.73716 -0.00645 0.21554
 H885 H 0.74781 0.05524 0.24669
 H886 H 0.76926 -0.00365 0.27777
 C887 C 0.75293 0.45264 0.74373
 C888 C 0.75949 0.46297 0.76282
 C889 C 0.75992 0.48588 0.76363
 C890 C 0.75426 0.49854 0.74543
 C891 C 0.74769 0.48800 0.72636
 C892 C 0.74682 0.46504 0.72549
 C893 C 0.75567 0.52272 0.74644
 C894 C 0.73824 0.53591 0.73913
 C895 C 0.73957 0.55881 0.74072
 C896 C 0.75842 0.56845 0.74979
 C897 C 0.77585 0.55546 0.75727
 C898 C 0.77443 0.53266 0.75538
 H899 H 0.75241 0.43493 0.74312
 H900 H 0.76487 0.49390 0.77842
 H901 H 0.74317 0.49765 0.71229
 H902 H 0.72363 0.52835 0.73237
 H903 H 0.75942 0.58609 0.75121
 H904 H 0.78782 0.52252 0.76117
 C905 C 0.26019 0.44838 0.26066
 C906 C 0.27658 0.46027 0.27148
 C907 C 0.27636 0.48317 0.27058
 C908 C 0.25943 0.49444 0.25973
 C909 C 0.24256 0.48220 0.24973
 C910 C 0.24297 0.45919 0.25000
 C911 C 0.25941 0.51886 0.25903
 C912 C 0.25202 0.53013 0.24053
 C913 C 0.25210 0.55305 0.23977
 C914 C 0.26025 0.56496 0.25735
 C915 C 0.26882 0.55405 0.27553
 C916 C 0.26764 0.53108 0.27652
 H917 H 0.26002 0.43067 0.26172
 H918 H 0.28961 0.49216 0.27822
 H919 H 0.22901 0.49053 0.24187
 H920 H 0.24632 0.52113 0.22657
 H921 H 0.26116 0.58263 0.25619
 H922 H 0.27325 0.52273 0.29097
 C923 C 0.74285 1.07052 0.74274
 C924 C 0.76246 1.06038 0.73654
 C925 C 0.76406 1.03750 0.73789
 C926 C 0.74606 1.02482 0.74515
 C927 C 0.72650 1.03530 0.75127
 C928 C 0.72500 1.05809 0.75019
 C929 C 0.74752 1.00067 0.74619
 C930 C 0.74037 0.98923 0.76470
 C931 C 0.74103 0.96630 0.76547
 C932 C 0.74931 0.95482 0.74775
 C933 C 0.75680 0.96605 0.72929
 C934 C 0.75568 0.98896 0.72852
 H935 H 0.74151 1.08820 0.74212
 H936 H 0.77921 1.02954 0.73321
 H937 H 0.71249 1.02577 0.75685
 H938 H 0.73405 0.99816 0.77839
 H939 H 0.74999 0.93710 0.74836
 H940 H 0.76127 0.99770 0.71423
 C941 C 0.74975 0.54088 0.25804
 C942 C 0.76166 0.52860 0.24308
 C943 C 0.76030 0.50567 0.24385
 C944 C 0.74552 0.49477 0.25789
 C945 C 0.73287 0.50759 0.27202
 C946 C 0.73523 0.53048 0.27248
 C947 C 0.74253 0.47034 0.25692
 C948 C 0.73438 0.45820 0.27480
 C949 C 0.73092 0.43548 0.27341
 C950 C 0.73734 0.42451 0.25470
 C951 C 0.74600 0.43603 0.23705
 C952 C 0.74762 0.45887 0.23785
 H953 H 0.75042 0.55858 0.25732
 H954 H 0.77070 0.49653 0.23307
 H955 H 0.72074 0.49999 0.28244
 H956 H 0.73039 0.46626 0.28976
 H957 H 0.73564 0.40687 0.25386
 H958 H 0.75328 0.46743 0.22355
 C959 C 0.25850 -0.02266 0.75589
 C960 C 0.26531 -0.01188 0.77467
 C961 C 0.26437 0.01098 0.77557
 C962 C 0.25744 0.02326 0.75753
 C963 C 0.25109 0.01222 0.73860
 C964 C 0.25109 -0.01072 0.73790
 C965 C 0.25596 0.04747 0.75878
 C966 C 0.23795 0.05834 0.74950
 C967 C 0.23613 0.08107 0.75080
 C968 C 0.25223 0.09324 0.76165
 C969 C 0.26986 0.08259 0.77193
 C970 C 0.27182 0.05976 0.77012
 H971 H 0.25878 -0.04038 0.75536
 H972 H 0.26903 0.01915 0.79036
 H973 H 0.24562 0.02144 0.72458
 H974 H 0.22498 0.04911 0.74161
 H975 H 0.25017 0.11076 0.76328
 H976 H 0.28568 0.05158 0.77760
 C977 C 0.24408 0.26032 1.07062
 C978 C 0.23101 0.27570 1.05958
 C979 C 0.23216 0.27707 1.03694
 C980 C 0.24555 0.26285 1.02508
 C981 C 0.25838 0.24749 1.03644
 C982 C 0.25802 0.24638 1.05908
 C983 C 0.24622 0.26416 1.00096
 C984 C 0.26564 0.25896 0.98969
 C985 C 0.26616 0.25940 0.96706
 C986 C 0.24756 0.26638 0.95557
 C987 C 0.22829 0.27235 0.96639
 C988 C 0.22749 0.27060 0.98900
 H989 H 0.24360 0.25932 1.08809
 H990 H 0.22293 0.28966 1.02859
 H991 H 0.26853 0.23603 1.02775
 H992 H 0.28034 0.25425 0.99841
 H993 H 0.24811 0.26716 0.93809
 H994 H 0.21230 0.27449 0.99720
 C995 C 0.24575 0.76219 0.56979
 C996 C 0.23374 0.77679 0.55674
 C997 C 0.23165 0.77272 0.53452
 C998 C 0.24137 0.75420 0.52521
 C999 C 0.25349 0.73989 0.53861
 C1000 C 0.25623 0.74410 0.56070
 C1001 C 0.24041 0.75072 0.50135
 C1002 C 0.25871 0.74198 0.49055
 C1003 C 0.25852 0.73901 0.46812
 C1004 C 0.24003 0.74556 0.45621
 C1005 C 0.22172 0.75473 0.46648
 C1006 C 0.22178 0.75683 0.48909
 H1007 H 0.24832 0.76581 0.58671
 H1008 H 0.22291 0.78433 0.52442
 H1009 H 0.26116 0.72552 0.53188
 H1010 H 0.27328 0.73757 0.49960
 H1011 H 0.23995 0.74374 0.43883
 H1012 H 0.20752 0.76363 0.49702
 C1013 C 0.26291 0.75511 -0.06447
 C1014 C 0.26889 0.77310 -0.05182
 C1015 C 0.26701 0.77150 -0.02928
 C1016 C 0.26027 0.75183 -0.01917
 C1017 C 0.25498 0.73376 -0.03217
 C1018 C 0.25575 0.73554 -0.05474
 C1019 C 0.25869 0.75039 0.00485
 C1020 C 0.24207 0.73783 0.01499
 C1021 C 0.24066 0.73673 0.03762
 C1022 C 0.25570 0.74858 0.05021
 C1023 C 0.27153 0.76204 0.04035
 C1024 C 0.27334 0.76242 0.01784
 H1025 H 0.26362 0.75635 -0.08193
 H1026 H 0.27091 0.78563 -0.01959
 H1027 H 0.24981 0.71842 -0.02483
 H1028 H 0.23001 0.72915 0.00537
 H1029 H 0.25402 0.74862 0.06764
 H1030 H 0.28623 0.77229 0.01055
 C1031 C 0.25197 0.24717 0.43476
 C1032 C 0.26493 0.26246 0.44596
 C1033 C 0.26292 0.26380 0.46854
 C1034 C 0.24695 0.25158 0.47996
 C1035 C 0.23379 0.23683 0.46824
 C1036 C 0.23678 0.23391 0.44597
 C1037 C 0.24426 0.25410 0.50395
 C1038 C 0.23532 0.23704 0.51688
 C1039 C 0.23279 0.23954 0.53929
 C1040 C 0.24082 0.25847 0.54915
 C1041 C 0.25024 0.27528 0.53679
 C1042 C 0.25098 0.27355 0.51428
 H1043 H 0.25382 0.24538 0.41748
 H1044 H 0.27424 0.27418 0.47723
 H1045 H 0.22094 0.22757 0.47626
 H1046 H 0.23023 0.22176 0.50972
 H1047 H 0.23994 0.26012 0.56655
 H1048 H 0.25736 0.28732 0.50512
 C1049 C 0.75508 0.72259 1.04492
 C1050 C 0.74656 0.74239 1.03703
 C1051 C 0.74695 0.74675 1.01475
 C1052 C 0.75512 0.73126 1.00012
 C1053 C 0.76363 0.71149 1.00840
 C1054 C 0.76441 0.70738 1.03075
 C1055 C 0.75576 0.73615 0.97642
 C1056 C 0.77306 0.72835 0.96352
 C1057 C 0.77394 0.73310 0.94132
 C1058 C 0.75763 0.74626 0.93189
 C1059 C 0.74093 0.75523 0.94470
 C1060 C 0.73971 0.74954 0.96669
 H1061 H 0.75585 0.71984 1.06221
 H1062 H 0.74116 0.76246 1.00894
 H1063 H 0.76990 0.69929 0.99748
 H1064 H 0.78621 0.71888 0.97075
 H1065 H 0.75897 0.75086 0.91500
 H1066 H 0.72625 0.75581 0.97622
 C1067 C 0.74525 0.24517 0.54755
 C1068 C 0.73340 0.26066 0.53533
 C1069 C 0.73188 0.25827 0.51280
 C1070 C 0.74194 0.24055 0.50249
 C1071 C 0.75350 0.22520 0.51498
 C1072 C 0.75586 0.22770 0.53732
 C1073 C 0.74106 0.23807 0.47866
 C1074 C 0.75975 0.23072 0.46740
 C1075 C 0.75860 0.22621 0.44527
 C1076 C 0.73880 0.22968 0.43420
 C1077 C 0.72045 0.23795 0.44498
 C1078 C 0.72149 0.24208 0.46716
 H1079 H 0.74734 0.24750 0.56476
 H1080 H 0.72315 0.27037 0.50325
 H1081 H 0.76087 0.21124 0.50719
 H1082 H 0.77510 0.22805 0.47593
 H1083 H 0.73777 0.22651 0.41702
 H1084 H 0.70695 0.24780 0.47546
 C1085 C 0.74794 0.24532 -0.05692
 C1086 C 0.75772 0.26138 -0.04403
 C1087 C 0.75915 0.25804 -0.02166
 C1088 C 0.75214 0.23815 -0.01212
 C1089 C 0.74294 0.22191 -0.02552
 C1090 C 0.74020 0.22571 -0.04777
 C1091 C 0.75375 0.23487 0.01180
 C1092 C 0.73758 0.22290 0.02304
 C1093 C 0.73797 0.22117 0.04568
 C1094 C 0.75460 0.23201 0.05733
 C1095 C 0.77064 0.24459 0.04644
 C1096 C 0.77062 0.24499 0.02373
 H1097 H 0.74644 0.24805 -0.07418
 H1098 H 0.76593 0.27096 -0.01178
 H1099 H 0.73758 0.20641 -0.01871
 H1100 H 0.72429 0.21526 0.01418
 H1101 H 0.75417 0.23172 0.07481
 H1102 H 0.78362 0.25362 0.01527
 C1103 C 0.76259 0.73574 0.45291
 C1104 C 0.77360 0.75364 0.46214
 C1105 C 0.77427 0.75561 0.48469
 C1106 C 0.76479 0.73953 0.49824
 C1107 C 0.75414 0.72153 0.48858
 C1108 C 0.75220 0.71996 0.46603
 C1109 C 0.76479 0.74229 0.52228
 C1110 C 0.74720 0.73418 0.53480
 C1111 C 0.74643 0.73746 0.55719
 C1112 C 0.76315 0.74962 0.56723
 C1113 C 0.78033 0.75881 0.55493
 C1114 C 0.78150 0.75429 0.53273
 H1115 H 0.76103 0.73483 0.43552
 H1116 H 0.78200 0.76990 0.49160
 H1117 H 0.74706 0.70872 0.49857
 H1118 H 0.73370 0.72561 0.52715
 H1119 H 0.76187 0.75320 0.58429
 H1120 H 0.79538 0.76051 0.52360
 C1121 C 1.05605 0.24510 0.25256
 C1122 C 1.04585 0.22925 0.26573
 C1123 C 1.02274 0.22796 0.26622
 C1124 C 1.00966 0.24104 0.25246
 C1125 C 1.02040 0.25598 0.23856
 C1126 C 1.04338 0.25841 0.23882
 C1127 C 0.98505 0.23865 0.25204
 C1128 C 0.97147 0.25628 0.24552
 C1129 C 0.94851 0.25378 0.24428
 C1130 C 0.93885 0.23416 0.25121
 C1131 C 0.95184 0.21679 0.25849
 C1132 C 0.97482 0.21868 0.25804
 H1133 H 1.07384 0.24610 0.25188
 H1134 H 1.01509 0.21656 0.27738
 H1135 H 1.01098 0.26570 0.22722
 H1136 H 0.97857 0.27197 0.24118
 H1137 H 0.92108 0.23244 0.25118
 H1138 H 0.98448 0.20461 0.26279
 C1139 C 0.56135 0.27209 0.73863
 C1140 C 0.54959 0.26006 0.75417
 C1141 C 0.52652 0.26012 0.75368
 C1142 C 0.51490 0.27309 0.73858
 C1143 C 0.52710 0.28590 0.72377
 C1144 C 0.55022 0.28532 0.72358
 C1145 C 0.49025 0.27398 0.73896
 C1146 C 0.47797 0.27834 0.72000
 C1147 C 0.45491 0.27990 0.72076
 C1148 C 0.44394 0.27565 0.74023
 C1149 C 0.45570 0.27068 0.75906
 C1150 C 0.47875 0.27062 0.75851
 H1151 H 0.57918 0.27240 0.73926
 H1152 H 0.51777 0.24989 0.76518
 H1153 H 0.51870 0.29673 0.71261
 H1154 H 0.48621 0.28087 0.70469
 H1155 H 0.42612 0.27621 0.74074
 H1156 H 0.48763 0.26767 0.77339
 C1157 C -0.06850 0.27889 0.73828
 C1158 C -0.05703 0.28533 0.75680
 C1159 C -0.03390 0.28483 0.75686
 C1160 C -0.02205 0.27948 0.73797
 C1161 C -0.03414 0.27432 0.71919
 C1162 C -0.05714 0.27275 0.71969
 C1163 C 0.00265 0.27776 0.73817
 C1164 C 0.01357 0.26369 0.72382
 C1165 C 0.03655 0.26120 0.72430
 C1166 C 0.04887 0.27249 0.73988
 C1167 C 0.03827 0.28581 0.75502
 C1168 C 0.01544 0.28904 0.75349
 H1169 H -0.08632 0.27792 0.73856
 H1170 H -0.02541 0.28837 0.77179
 H1171 H -0.02583 0.27042 0.70431
 H1172 H 0.00426 0.25407 0.71246
 H1173 H 0.06641 0.26967 0.74121
 H1174 H 0.00775 0.30024 0.76456
 C1175 C 0.43193 0.22014 0.24666
 C1176 C 0.44362 0.23917 0.25164
 C1177 C 0.46659 0.23948 0.24938
 C1178 C 0.47820 0.22045 0.24351
 C1179 C 0.46601 0.20118 0.23931
 C1180 C 0.44295 0.20133 0.24003
 C1181 C 0.50276 0.22101 0.24109
 C1182 C 0.51351 0.20711 0.22645
 C1183 C 0.53651 0.20765 0.22414
 C1184 C 0.54894 0.22273 0.23607
 C1185 C 0.53846 0.23757 0.24974
 C1186 C 0.51563 0.23616 0.25271
 H1187 H 0.41409 0.22011 0.24733
 H1188 H 0.47524 0.25471 0.25211
 H1189 H 0.47420 0.18622 0.23478
 H1190 H 0.50409 0.19601 0.21649
 H1191 H 0.56656 0.22396 0.23357
 H1192 H 0.50809 0.24703 0.26421
 C1193 C 1.07121 0.78241 0.75340
 C1194 C 1.06010 0.76856 0.76784
 C1195 C 1.03717 0.76682 0.76687
 C1196 C 1.02509 0.77808 0.75089
 C1197 C 1.03640 0.79264 0.73699
 C1198 C 1.05937 0.79517 0.73849
 C1199 C 1.00083 0.77447 0.74899
 C1200 C 0.98662 0.79138 0.74220
 C1201 C 0.96378 0.78777 0.74084
 C1202 C 0.95503 0.76754 0.74744
 C1203 C 0.96887 0.75069 0.75441
 C1204 C 0.99167 0.75392 0.75440
 H1205 H 1.08891 0.78429 0.75478
 H1206 H 1.02885 0.75653 0.77864
 H1207 H 1.02755 0.80182 0.72477
 H1208 H 0.99320 0.80732 0.73794
 H1209 H 0.93737 0.76488 0.74727
 H1210 H 1.00215 0.74045 0.75922
 C1211 C 0.56761 0.73291 0.25873
 C1212 C 0.55557 0.72564 0.27666
 C1213 C 0.53256 0.72733 0.27647
 C1214 C 0.52120 0.73717 0.25893
 C1215 C 0.53394 0.74443 0.24108
 C1216 C 0.55690 0.74198 0.24079
 C1217 C 0.49641 0.73976 0.25935
 C1218 C 0.48437 0.74529 0.24045
 C1219 C 0.46150 0.74836 0.24111
 C1220 C 0.45005 0.74409 0.26025
 C1221 C 0.46128 0.73772 0.27893
 C1222 C 0.48432 0.73664 0.27871
 H1223 H 0.58537 0.73139 0.25864
 H1224 H 0.52387 0.72025 0.28999
 H1225 H 0.52652 0.75254 0.22738
 H1226 H 0.49240 0.74759 0.22509
 H1227 H 0.43227 0.74554 0.26055
 H1228 H 0.49236 0.73285 0.29379
 C1229 C -0.06563 0.72368 0.23445
 C1230 C -0.05550 0.73188 0.25298
 C1231 C -0.03250 0.73229 0.25440
 C1232 C -0.01935 0.72592 0.23677
 C1233 C -0.02995 0.71793 0.21808
 C1234 C -0.05301 0.71602 0.21719
 C1235 C 0.00526 0.72733 0.23812
 C1236 C 0.01868 0.71269 0.22668
 C1237 C 0.04171 0.71422 0.22776
 C1238 C 0.05158 0.72981 0.24120
 C1239 C 0.03856 0.74364 0.25381
 C1240 C 0.01557 0.74294 0.25146
 H1241 H -0.08345 0.72283 0.23370
 H1242 H -0.02502 0.73771 0.26931
 H1243 H -0.02038 0.71278 0.20433
 H1244 H 0.01139 0.69985 0.21705
 H1245 H 0.06933 0.73006 0.24293
 H1246 H 0.00579 0.75462 0.26024
 C1247 C 0.43635 0.76757 0.76017
 C1248 C 0.44776 0.78648 0.76642
 C1249 C 0.47088 0.78690 0.76550
 C1250 C 0.48271 0.76812 0.75949
 C1251 C 0.47088 0.74904 0.75416
 C1252 C 0.44784 0.74894 0.75376
 C1253 C 0.50725 0.76832 0.75829
 C1254 C 0.51812 0.75593 0.74251
 C1255 C 0.54115 0.75505 0.74178
 C1256 C 0.55356 0.76718 0.75660
 C1257 C 0.54309 0.78066 0.77164
 C1258 C 0.51999 0.78087 0.77267
 H1259 H 0.41850 0.76741 0.76010
 H1260 H 0.47953 0.80187 0.76950
 H1261 H 0.47954 0.73429 0.74978
 H1262 H 0.50871 0.74690 0.73066
 H1263 H 0.57135 0.76720 0.75547
 H1264 H 0.51203 0.79065 0.78486
 N1265 N 0.43739 0.27955 0.25301
 N1266 N 0.42258 0.29306 0.26091
 C1267 C 0.40730 0.28129 0.27175
 C1268 C 0.41247 0.25932 0.27061
 C1269 C 0.43166 0.25891 0.25847
 H1270 H 0.40345 0.24560 0.27742
 H1271 H 0.45083 0.28446 0.24361
 H1272 H 0.42304 0.31004 0.25887
 N1273 N 0.44018 0.82654 0.76730
 N1274 N 0.42392 0.84006 0.77573
 C1275 C 0.40985 0.82734 0.78715
 C1276 C 0.41654 0.80569 0.78608
 C1277 C 0.43540 0.80587 0.77341
 H1278 H 0.40854 0.79152 0.79323
 H1279 H 0.45303 0.83173 0.75728
 H1280 H 0.42328 0.85700 0.77345
 N1281 N -0.06426 0.28491 0.79659
 N1282 N -0.08012 0.29112 0.80978
 C1283 C -0.09552 0.30187 0.79822
 C1284 C -0.08934 0.30241 0.77674
 C1285 C -0.06947 0.29132 0.77635
 H1286 H -0.09839 0.30922 0.76320
 H1287 H -0.05060 0.27573 0.80134
 H1288 H -0.08041 0.28784 0.82637
 N1289 N -0.06550 0.73436 0.29196
 N1290 N -0.08152 0.74274 0.30366
 C1291 C -0.09537 0.75363 0.29043
 C1292 C -0.08805 0.75197 0.26938
 C1293 C -0.06910 0.73951 0.27106
 H1294 H -0.09556 0.75862 0.25489
 H1295 H -0.05267 0.72488 0.29819
 H1296 H -0.08279 0.74110 0.32042
 N1297 N 0.56035 0.71827 0.31630
 N1298 N 0.57496 0.70879 0.32914
 C1299 C 0.59106 0.70036 0.31687
 C1300 C 0.58665 0.70477 0.29535
 C1301 C 0.56705 0.71623 0.29564
 H1302 H 0.59640 0.70034 0.28145
 H1303 H 0.54633 0.72637 0.32172
 H1304 H 0.57378 0.70809 0.34596
 N1305 N 0.55475 0.24972 0.79294
 N1306 N 0.56986 0.24016 0.80513
 C1307 C 0.58615 0.23307 0.79229
 C1308 C 0.58137 0.23849 0.77102
 C1309 C 0.56130 0.24909 0.77214
 H1310 H 0.59123 0.23544 0.75683
 H1311 H 0.54054 0.25707 0.79890
 H1312 H 0.56887 0.23846 0.82190
 N1313 N 1.06755 0.75775 0.80596
 N1314 N 1.08190 0.74565 0.81670
 C1315 C 1.09564 0.73638 0.80243
 C1316 C 1.09010 0.74307 0.78172
 C1317 C 1.07223 0.75667 0.78475
 H1318 H 1.09797 0.73878 0.76668
 H1319 H 1.05501 0.76681 0.81311
 H1320 H 1.08208 0.74366 0.83348
 N1321 N 1.05228 0.19140 0.27957
 N1322 N 1.06873 0.17965 0.28726
 C1323 C 1.08631 0.19281 0.29006
 C1324 C 1.08088 0.21396 0.28380
 C1325 C 1.05906 0.21232 0.27705
 H1326 H 1.09158 0.22816 0.28323
 H1327 H 1.03705 0.18482 0.27511
 H1328 H 1.06797 0.16279 0.29014
 N1329 N 0.55658 0.32088 0.70451
 N1330 N 0.57281 0.33087 0.69417
 C1331 C 0.58948 0.31668 0.69171
 C1332 C 0.58376 0.29679 0.70100
 C1333 C 0.56276 0.30021 0.70917
 H1334 H 0.59395 0.28241 0.70281
 H1335 H 0.54209 0.32857 0.70931
 H1336 H 0.57265 0.34733 0.68945
 N1337 N 0.56390 0.74492 0.20101
 N1338 N 0.58002 0.75152 0.18813
 C1339 C 0.59634 0.75988 0.20034
 C1340 C 0.59049 0.75838 0.22189
 C1341 C 0.56983 0.74873 0.22165
 H1342 H 0.60003 0.76338 0.23580
 H1343 H 0.54937 0.73745 0.19574
 H1344 H 0.57972 0.75040 0.17130
 N1345 N 1.04649 0.27792 0.20339
 N1346 N 1.06027 0.29145 0.19356
 C1347 C 1.07676 0.29641 0.20725
 C1348 C 1.07347 0.28542 0.22667
 C1349 C 1.05405 0.27378 0.22349
 H1350 H 1.08394 0.28549 0.24083
 H1351 H 1.03254 0.27117 0.19608
 H1352 H 1.05842 0.29698 0.17765
 N1353 N 1.06278 0.83267 0.72264
 N1354 N 1.07835 0.84502 0.71386
 C1355 C 1.09642 0.83271 0.71102
 C1356 C 1.09229 0.81165 0.71837
 C1357 C 1.07078 0.81235 0.72581
 H1358 H 1.10368 0.79810 0.71920
 H1359 H 1.04736 0.83842 0.72733
 H1360 H 1.07666 0.86165 0.71021
 N1361 N 0.44157 0.70875 0.75014
 N1362 N 0.42814 0.69561 0.73950
 C1363 C 0.41395 0.70790 0.72791
 C1364 C 0.41827 0.72981 0.73154
 C1365 C 0.43590 0.72961 0.74578
 H1366 H 0.41013 0.74387 0.72447
 H1367 H 0.45436 0.70345 0.76016
 H1368 H 0.42904 0.67855 0.73990
 N1369 N 0.43161 0.16183 0.23856
 N1370 N 0.41593 0.15027 0.22900
 C1371 C 0.40443 0.16370 0.21586
 C1372 C 0.41290 0.18461 0.21722
 C1373 C 0.42997 0.18279 0.23185
 H1374 H 0.40701 0.19930 0.20925
 H1375 H 0.44269 0.15559 0.24994
 H1376 H 0.41312 0.13358 0.23161
 N1377 N -0.05671 0.70462 0.17841
 N1378 N -0.07073 0.69314 0.16661
 C1379 C -0.08712 0.68583 0.17948
 C1380 C -0.08350 0.69308 0.20025
 C1381 C -0.06409 0.70503 0.19893
 H1382 H -0.09352 0.68995 0.21439
 H1383 H -0.04255 0.71222 0.17234
 H1384 H -0.06896 0.69033 0.15009
 N1385 N -0.06354 0.26337 0.68082
 N1386 N -0.07608 0.24959 0.66989
 C1387 C -0.08951 0.23906 0.68386
 C1388 C -0.08568 0.24669 0.70446
 C1389 C -0.06908 0.26208 0.70187
 H1390 H -0.09312 0.24107 0.71940
 H1391 H -0.05121 0.27315 0.67396
 H1392 H -0.07493 0.24706 0.65327
 N1393 N 0.30006 0.45634 0.30440
 N1394 N 0.31153 0.44077 0.31409
 C1395 C 0.31208 0.42324 0.30109
 C1396 C 0.30045 0.42772 0.28238
 C1397 C 0.29286 0.44884 0.28519
 H1398 H 0.29687 0.41667 0.26924
 H1399 H 0.29626 0.47133 0.31143
 H1400 H 0.31829 0.44199 0.32956
 N1401 N 0.26812 -0.02051 0.81406
 N1402 N 0.27819 -0.03652 0.82684
 C1403 C 0.28966 -0.04961 0.81357
 C1404 C 0.28700 -0.04261 0.79237
 C1405 C 0.27337 -0.02456 0.79335
 H1406 H 0.29389 -0.04980 0.77798
 H1407 H 0.25785 -0.00819 0.81978
 H1408 H 0.27694 -0.03764 0.84364
 N1409 N 0.76048 0.45548 0.80245
 N1410 N 0.76876 0.43930 0.81618
 C1411 C 0.77912 0.42444 0.80388
 C1412 C 0.77742 0.43052 0.78226
 C1413 C 0.76564 0.44996 0.78207
 H1414 H 0.78401 0.42204 0.76843
 H1415 H 0.75150 0.46908 0.80741
 H1416 H 0.76729 0.43935 0.83298
 N1417 N 0.79700 -0.06614 0.29350
 N1418 N 0.80760 -0.08183 0.30616
 C1419 C 0.80996 -0.09993 0.29414
 C1420 C 0.80115 -0.09625 0.27368
 C1421 C 0.79272 -0.07508 0.27409
 H1422 H 0.79933 -0.10808 0.26088
 H1423 H 0.79128 -0.05120 0.29926
 H1424 H 0.81195 -0.07974 0.32234
 N1425 N 0.29767 0.55420 0.72983
 N1426 N 0.31060 0.56887 0.72045
 C1427 C 0.29811 0.58546 0.71302
 C1428 C 0.27629 0.58130 0.71796
 C1429 C 0.27671 0.56130 0.72871
 H1430 H 0.26217 0.59147 0.71442
 H1431 H 0.30333 0.53988 0.73726
 H1432 H 0.32769 0.56748 0.71934
 N1433 N 0.24029 1.03635 0.19112
 N1434 N 0.24880 1.05245 0.17929
 C1435 C 0.26355 1.06340 0.19144
 C1436 C 0.26438 1.05404 0.21180
 C1437 C 0.24938 1.03703 0.21098
 H1438 H 0.27375 1.05949 0.22565
 H1439 H 0.22784 1.02576 0.18595
 H1440 H 0.24432 1.05599 0.16335
 N1441 N 0.77284 0.53138 0.20448
 N1442 N 0.78064 0.54639 0.19104
 C1443 C 0.78621 0.56425 0.20240
 C1444 C 0.78167 0.56058 0.22407
 C1445 C 0.77297 0.53948 0.22469
 H1446 H 0.78318 0.57209 0.23719
 H1447 H 0.76636 0.51635 0.19958
 H1448 H 0.78162 0.54455 0.17431
 N1449 N 0.80247 1.07012 0.73329
 N1450 N 0.81440 1.08648 0.72537
 C1451 C 0.80083 1.10084 0.71555
 C1452 C 0.77939 1.09343 0.71739
 C1453 C 0.78109 1.07395 0.72886
 H1454 H 0.76459 1.10128 0.71149
 H1455 H 0.80887 1.05694 0.74208
 H1456 H 0.83151 1.08768 0.72668
 N1457 N 0.69938 0.53882 0.29008
 N1458 N 0.69031 0.55527 0.30045
 C1459 C 0.70577 0.57071 0.30391
 C1460 C 0.72557 0.56396 0.29523
 C1461 C 0.72074 0.54365 0.28639
 H1462 H 0.74085 0.57309 0.29426
 H1463 H 0.69070 0.52514 0.28463
 H1464 H 0.67365 0.55612 0.30451
 N1465 N 0.68769 1.07328 0.74436
 N1466 N 0.67542 1.08991 0.75379
 C1467 C 0.68575 1.09569 0.77219
 C1468 C 0.70430 1.08287 0.77507
 C1469 C 0.70509 1.06936 0.75728
 H1470 H 0.71700 1.08475 0.78721
 H1471 H 0.68513 1.06715 0.72885
 H1472 H 0.66165 1.09728 0.74675
 N1473 N 0.18174 0.56150 0.75764
 N1474 N 0.17122 0.57745 0.76761
 C1475 C 0.18576 0.58836 0.78004
 C1476 C 0.20631 0.57916 0.77782
 C1477 C 0.20313 0.56232 0.76340
 H1478 H 0.22171 0.58468 0.78478
 H1479 H 0.17458 0.55098 0.74640
 H1480 H 0.15454 0.58099 0.76557
 N1481 N 0.22177 1.03121 0.30605
 N1482 N 0.21288 1.04660 0.31811
 C1483 C 0.20366 1.06174 0.30504
 C1484 C 0.20689 1.05583 0.28379
 C1485 C 0.21860 1.03644 0.28507
 H1486 H 0.20186 1.06469 0.26941
 H1487 H 0.23044 1.01781 0.31219
 H1488 H 0.21336 1.04675 0.33498
 N1489 N 0.74327 0.46060 0.68539
 N1490 N 0.73419 0.44650 0.67188
 C1491 C 0.72388 0.43078 0.68349
 C1492 C 0.72670 0.43487 0.70524
 C1493 C 0.73913 0.45389 0.70579
 H1494 H 0.72044 0.42542 0.71879
 H1495 H 0.75235 0.47437 0.68063
 H1496 H 0.73485 0.44785 0.65507
 N1497 N 0.70536 -0.08076 0.23005
 N1498 N 0.69484 -0.09756 0.22147
 C1499 C 0.70972 -0.11082 0.21228
 C1500 C 0.73063 -0.10230 0.21528
 C1501 C 0.72713 -0.08327 0.22677
 H1502 H 0.74618 -0.10936 0.21053
 H1503 H 0.69777 -0.06830 0.23872
 H1504 H 0.67781 -0.09992 0.22207
 N1505 N 0.20325 0.45209 0.24200
 N1506 N 0.19098 0.43587 0.23458
 C1507 C 0.20426 0.41961 0.22810
 C1508 C 0.22596 0.42565 0.23164
 C1509 C 0.22460 0.44636 0.24066
 H1510 H 0.24057 0.41601 0.22884
 H1511 H 0.19697 0.46640 0.24867
 H1512 H 0.17378 0.43595 0.23418
 N1513 N 0.24578 -0.01594 0.69810
 N1514 N 0.23586 -0.03010 0.68524
 C1515 C 0.22587 -0.04550 0.69752
 C1516 C 0.22982 -0.04115 0.71907
 C1517 C 0.24257 -0.02230 0.71876
 H1518 H 0.22408 -0.05030 0.73303
 H1519 H 0.25476 -0.00232 0.69273
 H1520 H 0.23574 -0.02901 0.66839
 N1521 N 0.28665 0.29714 0.44241
 N1522 N 0.29901 0.30731 0.42796
 C1523 C 0.30087 0.29458 0.41043
 C1524 C 0.28909 0.27532 0.41386
 C1525 C 0.28022 0.27762 0.43446
 H1526 H 0.28682 0.26194 0.40272
 H1527 H 0.28213 0.30403 0.45712
 H1528 H 0.30572 0.32292 0.43007
 N1529 N 0.27509 0.81363 -0.05337
 N1530 N 0.28455 0.82809 -0.06637
 C1531 C 0.29290 0.81756 -0.08352
 C1532 C 0.28843 0.79539 -0.08145
 C1533 C 0.27709 0.79356 -0.06203
 H1534 H 0.29298 0.78244 -0.09237
 H1535 H 0.26717 0.81766 -0.03900
 H1536 H 0.28524 0.84487 -0.06339
 N1537 N 0.76630 0.30155 -0.04547
 N1538 N 0.77603 0.31545 -0.05893
 C1539 C 0.78332 0.30427 -0.07615
 C1540 C 0.77780 0.28242 -0.07372
 C1541 C 0.76695 0.28137 -0.05409
 H1542 H 0.78122 0.26914 -0.08466
 H1543 H 0.75910 0.30595 -0.03083
 H1544 H 0.77774 0.33222 -0.05623
 N1545 N 0.78589 0.79201 0.45352
 N1546 N 0.79535 0.80261 0.43728
 C1547 C 0.79948 0.78827 0.42142
 C1548 C 0.79224 0.76769 0.42773
 C1549 C 0.78370 0.77072 0.44821
 H1550 H 0.79313 0.75262 0.41871
 H1551 H 0.78070 0.79944 0.46774
 H1552 H 0.79886 0.81936 0.43718
 N1553 N 0.72353 0.30027 0.53648
 N1554 N 0.71569 0.31435 0.55056
 C1555 C 0.71088 0.30356 0.56902
 C1556 C 0.71601 0.28163 0.56669
 C1557 C 0.72409 0.28024 0.54577
 H1558 H 0.71451 0.26867 0.57863
 H1559 H 0.72902 0.30456 0.52103
 H1560 H 0.71380 0.33107 0.54751
 N1561 N 0.74375 0.78084 1.04989
 N1562 N 0.73599 0.79134 1.06679
 C1563 C 0.72591 0.77682 1.07998
 C1564 C 0.72748 0.75608 1.07123
 C1565 C 0.73903 0.75937 1.05213
 H1566 H 0.72148 0.74078 1.07798
 H1567 H 0.75268 0.78826 1.03739
 H1568 H 0.73761 0.80818 1.06917
 N1569 N 0.19657 0.29745 1.06267
 N1570 N 0.18615 0.30906 1.07728
 C1571 C 0.19838 0.30961 1.09542
 C1572 C 0.21748 0.29768 1.09230
 C1573 C 0.21562 0.29014 1.07122
 H1574 H 0.23047 0.29446 1.10386
 H1575 H 0.19023 0.29406 1.04735
 H1576 H 0.17075 0.31621 1.07485
 N1577 N 0.22418 0.81658 0.55546
 N1578 N 0.21734 0.83172 0.56899
 C1579 C 0.21350 0.82223 0.58833
 C1580 C 0.21816 0.80013 0.58714
 C1581 C 0.22499 0.79719 0.56602
 H1582 H 0.21716 0.78801 0.59996
 H1583 H 0.22887 0.81974 0.53951
 H1584 H 0.21547 0.84824 0.56497
 N1585 N 0.29198 0.72493 0.56557
 N1586 N 0.30391 0.71679 0.58154
 C1587 C 0.29205 0.71750 0.59986
 C1588 C 0.27167 0.72666 0.59547
 C1589 C 0.27236 0.73130 0.57344
 H1590 H 0.25868 0.73032 0.60680
 H1591 H 0.29767 0.72699 0.54977
 H1592 H 0.32000 0.71109 0.57991
 N1593 N 0.29436 0.22852 1.06413
 N1594 N 0.30402 0.21504 1.07790
 C1595 C 0.28925 0.20876 1.09294
 C1596 C 0.26928 0.21891 1.08877
 C1597 C 0.27332 0.23141 1.07032
 H1598 H 0.25420 0.21772 1.09801
 H1599 H 0.30229 0.23602 1.05105
 H1600 H 0.32049 0.21029 1.07696
 N1601 N 0.79518 0.68046 1.02936
 N1602 N 0.80541 0.66704 1.04281
 C1603 C 0.79405 0.66605 1.06143
 C1604 C 0.77576 0.67941 1.05982
 C1605 C 0.77720 0.68856 1.03924
 H1606 H 0.76422 0.68332 1.07250
 H1607 H 0.80140 0.68508 1.01427
 H1608 H 0.82043 0.65950 1.03958
 N1609 N 0.78931 0.20441 0.54000
 N1610 N 0.80124 0.19493 0.55518
 C1611 C 0.79102 0.19732 0.57425
 C1612 C 0.77169 0.20890 0.57119
 C1613 C 0.77130 0.21327 0.54914
 H1614 H 0.76038 0.21451 0.58343
 H1615 H 0.79422 0.20576 0.52388
 H1616 H 0.81649 0.18758 0.55254
 N1617 N 0.71901 0.69569 0.46637
 N1618 N 0.70719 0.68440 0.45238
 C1619 C 0.71779 0.68427 0.43333
 C1620 C 0.73725 0.69604 0.43518
 C1621 C 0.73732 0.70330 0.45644
 H1622 H 0.74876 0.70012 0.42242
 H1623 H 0.71377 0.69924 0.48200
 H1624 H 0.69173 0.67762 0.45569
 N1625 N 0.73255 0.18751 -0.06005
 N1626 N 0.72201 0.17788 -0.07611
 C1627 C 0.71164 0.19329 -0.08796
 C1628 C 0.71589 0.21364 -0.07923
 C1629 C 0.72939 0.20927 -0.06162
 H1630 H 0.71061 0.22943 -0.08531
 H1631 H 0.74237 0.17932 -0.04874
 H1632 H 0.72219 0.16106 -0.07900
 N1633 N 0.25319 0.69621 -0.06559
 N1634 N 0.24309 0.68470 -0.08071
 C1635 C 0.23098 0.69844 -0.09296
 C1636 C 0.23370 0.71956 -0.08562
 C1637 C 0.24794 0.71746 -0.06832
 H1638 H 0.22617 0.73437 -0.09181
 H1639 H 0.26356 0.68961 -0.05377
 H1640 H 0.24418 0.66773 -0.08227
 N1641 N 0.21990 0.19676 0.44472
 N1642 N 0.21024 0.18386 0.43056
 C1643 C 0.20851 0.19468 0.41161
 C1644 C 0.21766 0.21542 0.41370
 C1645 C 0.22474 0.21604 0.43505
 H1646 H 0.21922 0.22803 0.40142
 H1647 H 0.22361 0.19208 0.46057
 H1648 H 0.20499 0.16789 0.43392
 N1649 N 0.29330 0.45279 0.72119
 N1650 N 0.30555 0.43823 0.71122
 C1651 C 0.29261 0.42134 0.70544
 C1652 C 0.27123 0.42507 0.71219
 C1653 C 0.27244 0.44522 0.72219
 H1654 H 0.25704 0.41443 0.71055
 H1655 H 0.29933 0.46730 0.72782
 H1656 H 0.32243 0.43993 0.70841
 N1657 N 0.30346 0.92920 0.23713
 N1658 N 0.31716 0.91515 0.22823
 C1659 C 0.30528 0.89967 0.21806
 C1660 C 0.28308 0.90386 0.22077
 C1661 C 0.28265 0.92270 0.23302
 H1662 H 0.26923 0.89431 0.21504
 H1663 H 0.30834 0.94260 0.24639
 H1664 H 0.33431 0.91626 0.22905
 N1665 N 0.75290 0.43062 0.19751
 N1666 N 0.76337 0.41641 0.18526
 C1667 C 0.77202 0.40073 0.19809
 C1668 C 0.76657 0.40491 0.21932
 C1669 C 0.75444 0.42399 0.21828
 H1670 H 0.77139 0.39578 0.23361
 H1671 H 0.74499 0.44462 0.19168
 H1672 H 0.76501 0.41783 0.16852
 N1673 N 0.76371 0.95916 0.69003
 N1674 N 0.77445 0.94475 0.67825
 C1675 C 0.78419 0.93024 0.69163
 C1676 C 0.77925 0.93542 0.71277
 C1677 C 0.76620 0.95384 0.71107
 H1678 H 0.78468 0.92717 0.72736
 H1679 H 0.75474 0.97227 0.68368
 H1680 H 0.77535 0.94515 0.66141
 N1681 N 0.69964 0.56762 0.73647
 N1682 N 0.68757 0.58438 0.72998
 C1683 C 0.70108 0.60032 0.72263
 C1684 C 0.72268 0.59353 0.72465
 C1685 C 0.72106 0.57271 0.73362
 H1686 H 0.73746 0.60262 0.72058
 H1687 H 0.69326 0.55326 0.74332
 H1688 H 0.67039 0.58481 0.73061
 N1689 N 0.70754 0.02723 0.20554
 N1690 N 0.69588 0.04245 0.19554
 C1691 C 0.70697 0.06154 0.19634
 C1692 C 0.72653 0.05843 0.20742
 C1693 C 0.72616 0.03640 0.21329
 H1694 H 0.73833 0.07084 0.21212
 H1695 H 0.70199 0.01124 0.20831
 H1696 H 0.68019 0.03993 0.18904
 N1697 N 0.25137 0.55958 0.19995
 N1698 N 0.24235 0.57362 0.18624
 C1699 C 0.22965 0.58752 0.19743
 C1700 C 0.23082 0.58236 0.21920
 C1701 C 0.24479 0.56457 0.22009
 H1702 H 0.22267 0.59038 0.23249
 H1703 H 0.26208 0.54706 0.19557
 H1704 H 0.24466 0.57342 0.16953
 N1705 N 0.19600 0.08834 0.75059
 N1706 N 0.18180 0.09980 0.73901
 C1707 C 0.19285 0.11031 0.72314
 C1708 C 0.21507 0.10562 0.72479
 C1709 C 0.21628 0.09170 0.74245
 H1710 H 0.22837 0.11125 0.71450
 H1711 H 0.19183 0.07839 0.76377
 H1712 H 0.16484 0.10003 0.74176
 N1713 N 0.29817 0.55790 0.30357
 N1714 N 0.30782 0.57375 0.31451
 C1715 C 0.29685 0.59249 0.31089
 C1716 C 0.27952 0.58853 0.29686
 C1717 C 0.28100 0.56628 0.29243
 H1718 H 0.26849 0.60044 0.28976
 H1719 H 0.30423 0.54197 0.30277
 H1720 H 0.32217 0.57187 0.32364
 N1721 N 0.29257 0.08681 0.80523
 N1722 N 0.30241 0.10277 0.81587
 C1723 C 0.30151 0.12116 0.80383
 C1724 C 0.29042 0.11689 0.78476
 C1725 C 0.28486 0.09485 0.78634
 H1726 H 0.28588 0.12848 0.77223
 H1727 H 0.29012 0.07105 0.81146
 H1728 H 0.30905 0.10118 0.83138
 N1729 N 0.81593 0.55721 0.76638
 N1730 N 0.82954 0.57044 0.77668
 C1731 C 0.81796 0.58735 0.78453
 C1732 C 0.79605 0.58491 0.77888
 C1733 C 0.79546 0.56558 0.76729
 H1734 H 0.78253 0.59573 0.78255
 H1735 H 0.82081 0.54299 0.75851
 H1736 H 0.84646 0.56787 0.77819
 N1737 N 0.76490 0.03496 0.30286
 N1738 N 0.77355 0.05061 0.31487
 C1739 C 0.78315 0.06549 0.30173
 C1740 C 0.78032 0.05929 0.28048
 C1741 C 0.76858 0.03989 0.28191
 H1742 H 0.78575 0.06782 0.26603
 H1743 H 0.75621 0.02147 0.30893
 H1744 H 0.77293 0.05096 0.33172
 N1745 N 0.72283 0.42687 0.31239
 N1746 N 0.71164 0.41190 0.32345
 C1747 C 0.70150 0.39843 0.30942
 C1748 C 0.70658 0.40496 0.28859
 C1749 C 0.72026 0.42298 0.29113
 H1750 H 0.70122 0.39752 0.27366
 H1751 H 0.73240 0.43918 0.31938
 H1752 H 0.71098 0.41102 0.34030
 N1753 N 0.73627 0.96043 0.80526
 N1754 N 0.72706 0.94575 0.81826
 C1755 C 0.71736 0.93025 0.80612
 C1756 C 0.72074 0.93507 0.78450
 C1757 C 0.73287 0.95431 0.78465
 H1758 H 0.71510 0.92594 0.77063
 H1759 H 0.74496 0.97420 0.81050
 H1760 H 0.72722 0.94656 0.83511
 N1761 N 0.22072 0.44986 0.80387
 N1762 N 0.21287 0.43392 0.81624
 C1763 C 0.20642 0.41731 0.80351
 C1764 C 0.21045 0.42276 0.78216
 C1765 C 0.21968 0.44352 0.78309
 H1766 H 0.20792 0.41270 0.76805
 H1767 H 0.22754 0.46439 0.80971
 H1768 H 0.21218 0.43438 0.83309
 N1769 N 0.20992 0.92362 0.29899
 N1770 N 0.20087 0.90709 0.30967
 C1771 C 0.20084 0.88938 0.29690
 C1772 C 0.21044 0.89471 0.27728
 C1773 C 0.21615 0.91663 0.27933
 H1774 H 0.21387 0.88389 0.26395
 H1775 H 0.21277 0.93907 0.30555
 H1776 H 0.19523 0.90787 0.32557
 N1777 N 0.44574 0.27993 0.68114
 N1778 N 0.42994 0.28775 0.66852
 C1779 C 0.41609 0.29964 0.68065
 C1780 C 0.42323 0.29925 0.70184
 C1781 C 0.44198 0.28647 0.70155
 H1782 H 0.41559 0.30685 0.71565
 H1783 H 0.45845 0.26983 0.67590
 H1784 H 0.42871 0.28490 0.65195
 N1785 N 0.45323 0.74979 0.20146
 N1786 N 0.43844 0.75899 0.18863
 C1787 C 0.42510 0.77155 0.20065
 C1788 C 0.43150 0.77018 0.22203
 C1789 C 0.44932 0.75611 0.22190
 H1790 H 0.42399 0.77799 0.23580
 H1791 H 0.46535 0.73896 0.19631
 H1792 H 0.43754 0.75662 0.17196
 N1793 N 0.93766 0.29303 0.23940
 N1794 N 0.92115 0.30406 0.23069
 C1795 C 0.90724 0.28981 0.22120
 C1796 C 0.91511 0.26880 0.22410
 C1797 C 0.93438 0.27153 0.23585
 H1798 H 0.90764 0.25365 0.21877
 H1799 H 0.95054 0.30014 0.24811
 H1800 H 0.91948 0.32105 0.23134
 N1801 N 0.95171 0.82662 0.73569
 N1802 N 0.93473 0.83706 0.72716
 C1803 C 0.92094 0.82225 0.71835
 C1804 C 0.92938 0.80152 0.72149
 C1805 C 0.94887 0.80497 0.73267
 H1806 H 0.92221 0.78609 0.71656
 H1807 H 0.96466 0.83425 0.74387
 H1808 H 0.93270 0.85402 0.72744
 N1809 N 0.54351 0.27665 0.25998
 N1810 N 0.55906 0.28925 0.26824
 C1811 C 0.57652 0.27669 0.27325
 C1812 C 0.57202 0.25519 0.26775
 C1813 C 0.55089 0.25588 0.25935
 H1814 H 0.58260 0.24108 0.26959
 H1815 H 0.52828 0.28232 0.25448
 H1816 H 0.55754 0.30607 0.27067
 N1817 N 0.54996 0.81658 0.78930
 N1818 N 0.56677 0.82715 0.79797
 C1819 C 0.58394 0.81339 0.79953
 C1820 C 0.57791 0.79318 0.79147
 C1821 C 0.55623 0.79596 0.78488
 H1822 H 0.58828 0.77899 0.78941
 H1823 H 0.53493 0.82384 0.78536
 H1824 H 0.56659 0.84367 0.80219
 N1825 N 0.04142 0.29606 0.79379
 N1826 N 0.05690 0.30201 0.80755
 C1827 C 0.07597 0.30446 0.79675
 C1828 C 0.07256 0.29976 0.77512
 C1829 C 0.05035 0.29441 0.77393
 H1830 H 0.08461 0.29969 0.76227
 H1831 H 0.02521 0.29242 0.79822
 H1832 H 0.05436 0.30423 0.82407
 N1833 N 0.03863 0.76126 0.29006
 N1834 N 0.05293 0.77066 0.30316
 C1835 C 0.07229 0.77284 0.29280
 C1836 C 0.07027 0.76446 0.27216
 C1837 C 0.04862 0.75708 0.27108
 H1838 H 0.08306 0.76296 0.26011
 H1839 H 0.02264 0.75683 0.29456
 H1840 H 0.04953 0.77507 0.31907
 N1841 N 0.54492 0.74081 0.70427
 N1842 N 0.55941 0.72964 0.69297
 C1843 C 0.57601 0.72364 0.70616
 C1844 C 0.57207 0.73145 0.72670
 C1845 C 0.55220 0.74237 0.72479
 H1846 H 0.58244 0.72989 0.74086
 H1847 H 0.53068 0.74780 0.69778
 H1848 H 0.55795 0.72635 0.67650
 N1849 N 0.53892 0.18991 0.18807
 N1850 N 0.55364 0.17911 0.17670
 C1851 C 0.57150 0.17560 0.18913
 C1852 C 0.56816 0.18472 0.20926
 C1853 C 0.54729 0.19379 0.20786
 H1854 H 0.57964 0.18549 0.22263
 H1855 H 0.52383 0.19531 0.18197
 H1856 H 0.55156 0.17457 0.16059
 N1857 N 0.05184 0.67650 0.21665
 N1858 N 0.06841 0.66676 0.20689
 C1859 C 0.08260 0.68219 0.19978
 C1860 C 0.07497 0.70265 0.20546
 C1861 C 0.05544 0.69827 0.21627
 H1862 H 0.08293 0.71835 0.20291
 H1863 H 0.03880 0.66826 0.22418
 H1864 H 0.07004 0.64983 0.20537
 N1865 N 0.03700 0.22661 0.70313
 N1866 N 0.05129 0.21468 0.69243
 C1867 C 0.07069 0.22536 0.69171
 C1868 C 0.06880 0.24498 0.70267
 C1869 C 0.04706 0.24509 0.70981
 H1870 H 0.08171 0.25671 0.70613
 H1871 H 0.02101 0.22141 0.70673
 H1872 H 0.04798 0.19907 0.68644
 N1873 N 0.45508 0.73422 0.31889
 N1874 N 0.44027 0.72523 0.33189
 C1875 C 0.42442 0.71587 0.31977
 C1876 C 0.42916 0.71925 0.29818
 C1877 C 0.44872 0.73098 0.29829
 H1878 H 0.41995 0.71356 0.28432
 H1879 H 0.46921 0.74244 0.32413
 H1880 H 0.44126 0.72526 0.34874
 N1881 N 0.45110 0.26883 0.79929
 N1882 N 0.43669 0.26071 0.81323
 C1883 C 0.42009 0.25128 0.80217
 C1884 C 0.42394 0.25367 0.78028
 C1885 C 0.44379 0.26489 0.77911
 H1886 H 0.41400 0.24761 0.76708
 H1887 H 0.46558 0.27695 0.80365
 H1888 H 0.43846 0.26138 0.83000
 N1889 N 0.96699 0.70996 0.75830
 N1890 N 0.95471 0.69541 0.76871
 C1891 C 0.93943 0.70614 0.78023
 C1892 C 0.94181 0.72838 0.77683
 C1893 C 0.95941 0.73011 0.76276
 H1894 H 0.93221 0.74148 0.78370
 H1895 H 0.98017 0.70609 0.74823
 H1896 H 0.95698 0.67849 0.76809
 N1897 N 0.94477 0.17647 0.26159
 N1898 N 0.93025 0.16357 0.27139
 C1899 C 0.91740 0.17598 0.28406
 C1900 C 0.92377 0.19760 0.28212
 C1901 C 0.94102 0.19725 0.26763
 H1902 H 0.91626 0.21175 0.28945
 H1903 H 0.95638 0.17119 0.25037
 H1904 H 0.92902 0.14668 0.26917
 N1905 N 0.25561 0.31523 0.54338
 N1906 N 0.26614 0.32755 0.55755
 C1907 C 0.27798 0.31442 0.57071
 C1908 C 0.27469 0.29290 0.56495
 C1909 C 0.26027 0.29412 0.54768
 H1910 H 0.28113 0.27835 0.57276
 H1911 H 0.24487 0.32117 0.53154
 H1912 H 0.26501 0.34458 0.55831
 N1913 N 0.28657 0.79909 0.04786
 N1914 N 0.29595 0.80944 0.06411
 C1915 C 0.30015 0.79482 0.07993
 C1916 C 0.29299 0.77429 0.07369
 C1917 C 0.28432 0.77777 0.05324
 H1918 H 0.29312 0.75926 0.08307
 H1919 H 0.28090 0.80674 0.03378
 H1920 H 0.29915 0.82625 0.06442
 N1921 N 0.79409 0.27810 0.04967
 N1922 N 0.80378 0.28952 0.06500
 C1923 C 0.80213 0.27844 0.08378
 C1924 C 0.79083 0.25898 0.08032
 C1925 C 0.78578 0.25946 0.05834
 H1926 H 0.78563 0.24713 0.09237
 H1927 H 0.79209 0.28387 0.03388
 H1928 H 0.81065 0.30507 0.06271
 N1929 N 0.80327 0.79273 0.55319
 N1930 N 0.81282 0.80640 0.56673
 C1931 C 0.81154 0.79794 0.58681
 C1932 C 0.80061 0.77798 0.58611
 C1933 C 0.79541 0.77534 0.56439
 H1934 H 0.79582 0.76771 0.59965
 H1935 H 0.80105 0.79606 0.53676
 H1936 H 0.81946 0.82159 0.56231
 N1937 N 0.29869 0.73066 0.46452
 N1938 N 0.31180 0.72086 0.45067
 C1939 C 0.29957 0.71311 0.43423
 C1940 C 0.27770 0.71825 0.43770
 C1941 C 0.27782 0.72945 0.45713
 H1942 H 0.26375 0.71446 0.42748
 H1943 H 0.30420 0.73844 0.47849
 H1944 H 0.32885 0.71971 0.45248
 N1945 N 0.30685 0.25486 0.96187
 N1946 N 0.32014 0.24661 0.94714
 C1947 C 0.30780 0.23817 0.93110
 C1948 C 0.28580 0.24133 0.93567
 C1949 C 0.28586 0.25206 0.95527
 H1950 H 0.27171 0.23657 0.92603
 H1951 H 0.31217 0.26260 0.97593
 H1952 H 0.33730 0.24676 0.94816
 N1953 N 0.81404 0.72702 0.93589
 N1954 N 0.82735 0.72044 0.92043
 C1955 C 0.81519 0.71491 0.90308
 C1956 C 0.79311 0.71833 0.90757
 C1957 C 0.79315 0.72607 0.92861
 H1958 H 0.77910 0.71563 0.89710
 H1959 H 0.81931 0.73242 0.95101
 H1960 H 0.84445 0.71955 0.92193
 N1961 N 0.79893 0.22420 0.43729
 N1962 N 0.81185 0.21446 0.42317
 C1963 C 0.79937 0.20148 0.41058
 C1964 C 0.77759 0.20313 0.41676
 C1965 C 0.77798 0.21781 0.43368
 H1966 H 0.76341 0.19513 0.40966
 H1967 H 0.80438 0.23547 0.44874
 H1968 H 0.82887 0.21678 0.42220
 N1969 N 0.68745 0.22637 0.42453
 N1970 N 0.67490 0.23489 0.40922
 C1971 C 0.67981 0.25634 0.40716
 C1972 C 0.69594 0.26178 0.42201
 C1973 C 0.70036 0.24228 0.43262
 H1974 H 0.70501 0.27702 0.42314
 H1975 H 0.68822 0.20969 0.42826
 H1976 H 0.66414 0.22583 0.39958
 N1977 N 0.72022 0.79017 0.94745
 N1978 N 0.71027 0.80417 0.93440
 C1979 C 0.70969 0.79569 0.91443
 C1980 C 0.71980 0.77541 0.91466
 C1981 C 0.72644 0.77257 0.93598
 H1982 H 0.72288 0.76483 0.90107
 H1983 H 0.72363 0.79322 0.96370
 H1984 H 0.70436 0.81944 0.93910
 N1985 N 0.18793 0.27778 0.95915
 N1986 N 0.17554 0.28697 0.94402
 C1987 C 0.18880 0.29618 0.92903
 C1988 C 0.21050 0.29259 0.93475
 C1989 C 0.20928 0.28076 0.95390
 H1990 H 0.22513 0.29774 0.92611
 H1991 H 0.18175 0.26926 0.97254
 H1992 H 0.15835 0.28689 0.94404
 N1993 N 0.18166 0.76195 0.45911
 N1994 N 0.16956 0.76972 0.44300
 C1995 C 0.18305 0.77586 0.42676
 C1996 C 0.20458 0.77167 0.43270
 C1997 C 0.20304 0.76274 0.45328
 H1998 H 0.21933 0.77461 0.42329
 H1999 H 0.17527 0.75583 0.47362
 H2000 H 0.15241 0.77081 0.44322
 N2001 N 0.70648 0.72891 0.56159
 N2002 N 0.69314 0.72123 0.57668
 C2003 C 0.70503 0.71667 0.59452
 C2004 C 0.72695 0.72184 0.59072
 C2005 C 0.72714 0.72955 0.56956
 H2006 H 0.74074 0.72016 0.60169
 H2007 H 0.70132 0.73393 0.54624
 H2008 H 0.67620 0.71910 0.57464
 N2009 N 0.69915 0.20806 0.04919
 N2010 N 0.68700 0.19676 0.06298
 C2011 C 0.69967 0.19056 0.07980
 C2012 C 0.72093 0.19840 0.07664
 C2013 C 0.71988 0.20943 0.05692
 H2014 H 0.73505 0.19638 0.08713
 H2015 H 0.69305 0.21506 0.03496
 H2016 H 0.67027 0.19343 0.06079
 N2017 N 0.20122 0.72574 0.04194
 N2018 N 0.18890 0.71570 0.05661
 C2019 C 0.20212 0.70791 0.07234
 C2020 C 0.22373 0.71329 0.06761
 C2021 C 0.22245 0.72475 0.04825
 H2022 H 0.23822 0.71010 0.07732
 H2023 H 0.19503 0.73389 0.02834
 H2024 H 0.17176 0.71442 0.05589
 N2025 N 0.22363 0.20068 0.54901
 N2026 N 0.21333 0.19007 0.56474
 C2027 C 0.20484 0.20475 0.57852
 C2028 C 0.21003 0.22563 0.57135
 C2029 C 0.22212 0.22234 0.55263
 H2030 H 0.20603 0.24099 0.57896
 H2031 H 0.23207 0.19310 0.53646
 H2032 H 0.21233 0.17304 0.56601
   
