data_POSCAR
  _audit_creation_date              2014-09-24
  _audit_creation_method            'ToBaCCo'
  _symmetry_space_group_name_H-M    'P1'
  _symmetry_Int_Tables_number       1
  _symmetry_cell_setting            triclinic
  loop_
  _symmetry_equiv_pos_as_xyz
 x,y,z
_cell_length_a 60.9226
_cell_length_b 61.5302
_cell_length_c 58.8114
_cell_angle_alpha 89.745000
_cell_angle_beta 89.792100
_cell_angle_gamma 90.061400
loop_
  _atom_site_label
  _atom_site_type_symbol
  _atom_site_fract_x
  _atom_site_fract_y
  _atom_site_fract_z
O1 O 0.32763 0.35528 0.02258
 O2 O 0.35182 0.32391 -0.02414
 O3 O 0.32331 0.35494 -0.02105
 O4 O 0.35656 0.32440 0.01970
 O5 O 0.33034 0.29991 0.02343
 O6 O 0.29664 0.33089 -0.01789
 O7 O 0.32559 0.29936 -0.02072
 O8 O 0.30103 0.33116 0.02612
 Cu9 Cu 0.34248 0.34200 -0.00104
 Cu10 Cu 0.31076 0.31284 0.00308
 C11 C 0.31007 0.34884 0.03216
 C12 C 0.34295 0.30625 -0.03042
 C13 C 0.30422 0.34844 -0.02638
 C14 C 0.34933 0.30693 0.02853
 O15 O 0.67559 0.64436 0.02260
 O16 O 0.64519 0.67714 -0.01867
 O17 O 0.67616 0.64811 -0.02130
 O18 O 0.64488 0.67299 0.02501
 O19 O 0.66949 0.69918 0.02758
 O20 O 0.70150 0.67354 -0.01862
 O21 O 0.67004 0.70312 -0.01651
 O22 O 0.70055 0.67016 0.02562
 Cu23 Cu 0.65802 0.65807 0.00152
 Cu24 Cu 0.68795 0.68912 0.00463
 C25 C 0.69311 0.65161 0.03138
 C26 C 0.65205 0.69588 -0.02436
 C27 C 0.69438 0.65618 -0.02769
 C28 C 0.65171 0.69033 0.03423
 O29 O 0.64528 0.32996 1.02487
 O30 O 0.67494 0.35391 0.97650
 O31 O 0.64528 0.32407 0.98118
 O32 O 0.67594 0.35930 1.02001
 O33 O 0.70149 0.33421 1.02358
 O34 O 0.67081 0.29885 0.98430
 O35 O 0.70087 0.32912 0.97976
 O36 O 0.67055 0.30452 1.02820
 Cu37 Cu 0.65779 0.34427 1.00041
 Cu38 Cu 0.68848 0.31412 1.00436
 C39 C 0.65255 0.31301 1.03464
 C40 C 0.69305 0.34586 0.96994
 C41 C 0.65275 0.30546 0.97604
 C42 C 0.69420 0.35307 1.02813
 O43 O 0.33316 0.63292 0.97476
 O44 O 0.36536 0.66516 1.01515
 O45 O 0.33681 0.63412 1.01871
 O46 O 0.36278 0.66293 0.97131
 O47 O 0.33701 0.68806 0.97232
 O48 O 0.31024 0.65835 1.01978
 O49 O 0.33903 0.68970 1.01648
 O50 O 0.30697 0.65763 0.97541
 Cu51 Cu 0.35211 0.64631 0.99488
 Cu52 Cu 0.32061 0.67589 0.99607
 C53 C 0.31459 0.63975 0.96809
 C54 C 0.35777 0.68295 1.02274
 C55 C 0.31912 0.64110 1.02746
 C56 C 0.35462 0.68049 0.96381
 O57 O 0.02672 0.31610 0.34974
 O58 O -0.01717 0.34852 0.32443
 O59 O -0.01599 0.31533 0.35151
 O60 O 0.02520 0.34883 0.32203
 O61 O 0.02449 0.32651 0.29280
 O62 O -0.01704 0.29301 0.32235
 O63 O -0.01825 0.32659 0.29489
 O64 O 0.02581 0.29341 0.32081
 Cu65 Cu 0.00479 0.33436 0.33988
 Cu66 Cu 0.00364 0.30760 0.30477
 C67 C 0.03386 0.29929 0.33974
 C68 C -0.02514 0.34333 0.30531
 C69 C -0.02368 0.29845 0.34203
 C70 C 0.03185 0.34350 0.30234
 O71 O 0.02593 0.68814 0.66058
 O72 O -0.02048 0.65422 0.67894
 O73 O -0.01542 0.68653 0.65074
 O74 O 0.02055 0.65632 0.68953
 O75 O 0.01404 0.68018 0.71660
 O76 O -0.02375 0.70948 0.67809
 O77 O -0.02766 0.67695 0.70687
 O78 O 0.01778 0.71232 0.68689
 Cu79 Cu 0.00342 0.66900 0.66726
 Cu80 Cu -0.00560 0.69705 0.69992
 C81 C 0.02944 0.70628 0.67009
 C82 C -0.03180 0.65947 0.69622
 C83 C -0.02569 0.70326 0.65760
 C84 C 0.02334 0.66290 0.70975
 O85 O 1.02933 0.65079 0.32119
 O86 O 0.98235 0.67252 0.35304
 O87 O 0.98718 0.64726 0.31799
 O88 O 1.02462 0.67589 0.35617
 O89 O 1.02465 0.70435 0.33332
 O90 O 0.98555 0.67599 0.29549
 O91 O 0.98185 0.70148 0.33082
 O92 O 1.02794 0.67876 0.29759
 Cu93 Cu 1.00592 0.65881 0.33937
 Cu94 Cu 1.00496 0.69309 0.31208
 C95 C 1.03634 0.66076 0.30367
 C96 C 0.97418 0.69079 0.34761
 C97 C 0.98005 0.65652 0.30015
 C98 C 1.03112 0.69501 0.35146
 O99 O 0.97089 0.31684 0.64823
 O100 O 1.01477 0.34795 0.67504
 O101 O 1.01327 0.31516 0.64786
 O102 O 0.97259 0.34942 0.67639
 O103 O 0.97162 0.32668 0.70545
 O104 O 1.01322 0.29246 0.67694
 O105 O 1.01432 0.32575 0.70460
 O106 O 0.97058 0.29354 0.67683
 Cu107 Cu 0.99281 0.33455 0.65898
 Cu108 Cu 0.99228 0.30731 0.69392
 C109 C 0.96359 0.29961 0.65746
 C110 C 1.02194 0.34247 0.69446
 C111 C 1.02029 0.29794 0.65736
 C112 C 0.96548 0.34426 0.69600
 O113 O 0.34809 0.01750 0.31831
 O114 O 0.31543 -0.02384 0.34861
 O115 O 0.34556 -0.02442 0.31734
 O116 O 0.31877 0.01803 0.35056
 O117 O 0.29244 0.02079 0.32509
 O118 O 0.32019 -0.02163 0.29084
 O119 O 0.28955 -0.02129 0.32260
 O120 O 0.32198 0.02081 0.29264
 Cu121 Cu 0.33452 -0.00344 0.33628
 Cu122 Cu 0.30345 -0.00010 0.30513
 C123 C 0.34070 0.02619 0.30026
 C124 C 0.29683 -0.02952 0.34094
 C125 C 0.33778 -0.03018 0.29833
 C126 C 0.30097 0.02654 0.34384
 O127 O 0.66788 -0.01601 0.63470
 O128 O 0.63880 0.02635 0.66618
 O129 O 0.67081 0.02591 0.63642
 O130 O 0.63679 -0.01548 0.66468
 O131 O 0.66097 -0.01795 0.69240
 O132 O 0.69513 0.02367 0.66403
 O133 O 0.66299 0.02425 0.69393
 O134 O 0.69236 -0.01878 0.66209
 Cu135 Cu 0.65120 0.00556 0.64772
 Cu136 Cu 0.68038 0.00264 0.68086
 C137 C 0.68495 -0.02481 0.64291
 C138 C 0.64551 0.03224 0.68561
 C139 C 0.68891 0.03169 0.64518
 C140 C 0.64296 -0.02375 0.68342
 O141 O 0.34117 0.98576 0.69282
 O142 O 0.30943 1.02722 0.66294
 O143 O 0.33972 1.02732 0.69395
 O144 O 0.31012 0.98481 0.66283
 O145 O 0.28510 0.98350 0.68999
 O146 O 0.31434 1.02685 0.72082
 O147 O 0.28387 1.02613 0.68957
 O148 O 0.31667 0.98486 0.72051
 Cu149 Cu 0.32747 1.00639 0.67532
 Cu150 Cu 0.29734 1.00516 0.70785
 C151 C 0.33486 0.97866 0.71204
 C152 C 0.29132 1.03389 0.67099
 C153 C 0.33236 1.03408 0.71289
 C154 C 0.29261 0.97676 0.67111
 O155 O 0.65930 0.98129 0.30590
 O156 O 0.69573 1.01799 0.33646
 O157 O 0.66489 1.02258 0.30605
 O158 O 0.69077 0.97636 0.33514
 O159 O 0.71531 0.97400 0.30760
 O160 O 0.68940 1.02061 0.27843
 O161 O 0.72046 1.01594 0.30913
 O162 O 0.68325 0.97886 0.27783
 Cu163 Cu 0.67532 0.99984 0.32366
 Cu164 Cu 0.70459 0.99710 0.29047
 C165 C 0.66463 0.97416 0.28646
 C166 C 0.71449 1.02297 0.32852
 C167 C 0.67230 1.02915 0.28699
 C168 C 0.70765 0.96744 0.32656
 C169 C 0.86849 0.78740 0.49847
 C170 C 0.85637 0.79014 0.47854
 C171 C 0.83884 0.80488 0.47822
 C172 C 0.83362 0.81748 0.49757
 C173 C 0.84658 0.81473 0.51732
 C174 C 0.86370 0.79948 0.51796
 C175 C 0.81450 0.83295 0.49730
 C176 C 0.80398 0.83918 0.51774
 C177 C 0.78580 0.85314 0.51751
 C178 C 0.77741 0.86030 0.49669
 C179 C 0.78733 0.85436 0.47615
 C180 C 0.80620 0.84129 0.47657
 H181 H 0.88174 0.77566 0.49880
 H182 H 0.82908 0.80583 0.46295
 H183 H 0.84377 0.82451 0.53226
 H184 H 0.80935 0.83295 0.53400
 H185 H 0.76342 0.87118 0.49650
 H186 H 0.81409 0.83759 0.46057
 C187 C 0.13656 0.21998 0.49955
 C188 C 0.14620 0.21208 0.47964
 C189 C 0.15997 0.19390 0.48081
 C190 C 0.16355 0.18289 0.50163
 C191 C 0.15272 0.19065 0.52130
 C192 C 0.13993 0.20958 0.52044
 C193 C 0.17957 0.16441 0.50296
 C194 C 0.19062 0.15959 0.52347
 C195 C 0.20711 0.14372 0.52425
 C196 C 0.21327 0.13310 0.50424
 C197 C 0.20253 0.13747 0.48377
 C198 C 0.18520 0.15240 0.48335
 H199 H 0.12601 0.23415 0.49877
 H200 H 0.16836 0.18906 0.46543
 H201 H 0.15452 0.18249 0.53750
 H202 H 0.18728 0.16862 0.53881
 H203 H 0.22634 0.12116 0.50459
 H204 H 0.17679 0.15498 0.46742
 C205 C 0.12193 0.79904 0.51193
 C206 C 0.12842 0.81006 0.53154
 C207 C 0.14657 0.82410 0.53054
 C208 C 0.15897 0.82661 0.51029
 C209 C 0.15219 0.81494 0.49086
 C210 C 0.13362 0.80141 0.49154
 C211 C 0.17918 0.84072 0.50965
 C212 C 0.18747 0.84907 0.48885
 C213 C 0.20713 0.86099 0.48812
 C214 C 0.21786 0.86593 0.50844
 C215 C 0.20966 0.85865 0.52938
 C216 C 0.19072 0.84566 0.52984
 H217 H 0.10787 0.78824 0.51263
 H218 H 0.15065 0.83309 0.54569
 H219 H 0.16158 0.81556 0.47525
 H220 H 0.17898 0.84625 0.47304
 H221 H 0.23242 0.87606 0.50795
 H222 H 0.18548 0.83916 0.54607
 C223 C 0.87655 0.20186 0.49879
 C224 C 0.87333 0.18801 0.51750
 C225 C 0.86066 0.16913 0.51484
 C226 C 0.85088 0.16421 0.49373
 C227 C 0.85421 0.17861 0.47530
 C228 C 0.86732 0.19719 0.47761
 C229 C 0.83732 0.14415 0.49080
 C230 C 0.83608 0.13382 0.46944
 C231 C 0.82269 0.11555 0.46631
 C232 C 0.81100 0.10711 0.48490
 C233 C 0.81240 0.11660 0.50646
 C234 C 0.82525 0.13536 0.50920
 H235 H 0.88654 0.21631 0.50067
 H236 H 0.85898 0.15811 0.52913
 H237 H 0.84640 0.17568 0.45911
 H238 H 0.84561 0.13976 0.45514
 H239 H 0.80004 0.09346 0.48235
 H240 H 0.82568 0.14308 0.52567
 C241 C 0.49531 0.88398 0.79980
 C242 C 0.47683 0.87882 0.81306
 C243 C 0.47842 0.86216 0.82933
 C244 C 0.49799 0.85019 0.83192
 C245 C 0.51637 0.85583 0.81855
 C246 C 0.51511 0.87272 0.80254
 C247 C 0.49876 0.83113 0.84761
 C248 C 0.51827 0.82541 0.85903
 C249 C 0.51899 0.80697 0.87318
 C250 C 0.50002 0.79426 0.87590
 C251 C 0.48046 0.79984 0.86494
 C252 C 0.47994 0.81813 0.85077
 H253 H 0.49426 0.89668 0.78702
 H254 H 0.46433 0.85857 0.83996
 H255 H 0.53143 0.84659 0.81984
 H256 H 0.53278 0.83546 0.85730
 H257 H 0.50040 0.77992 0.88665
 H258 H 0.46492 0.82177 0.84174
 C259 C 0.50540 0.11279 0.19762
 C260 C 0.48513 0.12300 0.19448
 C261 C 0.48440 0.14301 0.18288
 C262 C 0.50363 0.15218 0.17312
 C263 C 0.52369 0.14089 0.17591
 C264 C 0.52473 0.12157 0.18858
 C265 C 0.50288 0.17338 0.16024
 C266 C 0.52200 0.18626 0.15754
 C267 C 0.52164 0.20575 0.14505
 C268 C 0.50165 0.21327 0.13642
 C269 C 0.48236 0.20116 0.13917
 C270 C 0.48316 0.18099 0.15039
 H271 H 0.50622 0.09811 0.20784
 H272 H 0.46878 0.15118 0.18157
 H273 H 0.53867 0.14673 0.16811
 H274 H 0.53734 0.18151 0.16524
 H275 H 0.50119 0.22826 0.12667
 H276 H 0.46825 0.17149 0.15134
 C277 C 0.49903 0.12502 0.79940
 C278 C 0.51844 0.13687 0.80234
 C279 C 0.51763 0.15662 0.81419
 C280 C 0.49788 0.16399 0.82428
 C281 C 0.47877 0.15118 0.82165
 C282 C 0.47916 0.13202 0.80882
 C283 C 0.49712 0.18499 0.83723
 C284 C 0.47723 0.19660 0.83976
 C285 C 0.47644 0.21618 0.85188
 C286 C 0.49587 0.22484 0.86064
 C287 C 0.51587 0.21394 0.85813
 C288 C 0.51631 0.19378 0.84709
 H289 H 0.49926 0.11053 0.78899
 H290 H 0.53252 0.16609 0.81539
 H291 H 0.46348 0.15574 0.82967
 H292 H 0.46222 0.19084 0.83210
 H293 H 0.49534 0.23986 0.87019
 H294 H 0.53175 0.18521 0.84620
 C295 C 0.49955 0.88087 0.20128
 C296 C 0.51852 0.87549 0.18893
 C297 C 0.51772 0.85801 0.17370
 C298 C 0.49872 0.84503 0.17172
 C299 C 0.47986 0.85091 0.18421
 C300 C 0.48014 0.86888 0.19878
 C301 C 0.49915 0.82467 0.15794
 C302 C 0.47984 0.81619 0.14813
 C303 C 0.48019 0.79617 0.13677
 C304 C 0.50009 0.78511 0.13416
 C305 C 0.51958 0.79357 0.14298
 C306 C 0.51894 0.81302 0.15523
 H307 H 0.49993 0.89418 0.21326
 H308 H 0.53210 0.85449 0.16355
 H309 H 0.46516 0.84104 0.18355
 H310 H 0.46445 0.82486 0.14946
 H311 H 0.50048 0.77013 0.12452
 H312 H 0.53394 0.81867 0.16302
 C313 C 0.77051 0.50103 0.85764
 C314 C 0.77876 0.48149 0.84906
 C315 C 0.79750 0.48190 0.83513
 C316 C 0.80873 0.50159 0.83048
 C317 C 0.80048 0.52092 0.84020
 C318 C 0.78105 0.52080 0.85309
 C319 C 0.82848 0.50200 0.81507
 C320 C 0.83452 0.52113 0.80317
 C321 C 0.85260 0.52140 0.78832
 C322 C 0.86428 0.50216 0.78455
 C323 C 0.85866 0.48288 0.79596
 C324 C 0.84119 0.48309 0.81160
 H325 H 0.75606 0.50082 0.86844
 H326 H 0.80278 0.46679 0.82760
 H327 H 0.80880 0.53626 0.83763
 H328 H 0.82498 0.53584 0.80475
 H329 H 0.87782 0.50224 0.77256
 H330 H 0.83780 0.46841 0.82114
 C331 C 0.22435 0.50144 0.14371
 C332 C 0.21244 0.48241 0.14813
 C333 C 0.19283 0.48358 0.16066
 C334 C 0.18565 0.50351 0.16995
 C335 C 0.19816 0.52238 0.16543
 C336 C 0.21709 0.52154 0.15185
 C337 C 0.16546 0.50466 0.18452
 C338 C 0.15342 0.52419 0.18643
 C339 C 0.13524 0.52565 0.20103
 C340 C 0.12843 0.50726 0.21322
 C341 C 0.13991 0.48763 0.21148
 C342 C 0.15845 0.48646 0.19732
 H343 H 0.23889 0.50066 0.13308
 H344 H 0.18340 0.46885 0.16316
 H345 H 0.19355 0.53787 0.17262
 H346 H 0.15789 0.53840 0.17657
 H347 H 0.11433 0.50836 0.22446
 H348 H 0.16773 0.47149 0.19705
 C349 C 0.79586 0.50486 0.12738
 C350 C 0.80308 0.52357 0.13854
 C351 C 0.82113 0.52234 0.15317
 C352 C 0.83230 0.50250 0.15650
 C353 C 0.82510 0.48399 0.14449
 C354 C 0.80674 0.48499 0.13017
 C355 C 0.85094 0.50094 0.17289
 C356 C 0.85508 0.48127 0.18454
 C357 C 0.87215 0.47973 0.20032
 C358 C 0.88508 0.49798 0.20481
 C359 C 0.88137 0.51772 0.19353
 C360 C 0.86440 0.51910 0.17749
 H361 H 0.78164 0.50583 0.11641
 H362 H 0.82590 0.53677 0.16237
 H363 H 0.83387 0.46878 0.14594
 H364 H 0.84470 0.46721 0.18202
 H365 H 0.89807 0.49680 0.21730
 H366 H 0.86205 0.53428 0.16846
 C367 C 0.20263 0.49694 0.87349
 C368 C 0.19510 0.51665 0.86449
 C369 C 0.17573 0.51694 0.85163
 C370 C 0.16350 0.49770 0.84821
 C371 C 0.17087 0.47829 0.85863
 C372 C 0.19070 0.47776 0.87057
 C373 C 0.14400 0.49752 0.83277
 C374 C 0.13859 0.47850 0.82067
 C375 C 0.12103 0.47821 0.80542
 C376 C 0.10887 0.49716 0.80182
 C377 C 0.11382 0.51636 0.81349
 C378 C 0.13125 0.51641 0.82910
 H379 H 0.21768 0.49654 0.88327
 H380 H 0.17081 0.53207 0.84373
 H381 H 0.16162 0.46335 0.85708
 H382 H 0.14845 0.46397 0.82226
 H383 H 0.09561 0.49697 0.78958
 H384 H 0.13462 0.53115 0.83841
 C385 C 0.31041 0.38163 0.05708
 C386 C 0.30044 0.39535 0.07284
 C387 C 0.27969 0.39043 0.08194
 C388 C 0.26940 0.37090 0.07547
 C389 C 0.27943 0.35709 0.05965
 C390 C 0.29993 0.36247 0.05006
 C391 C 0.26968 0.40631 0.09783
 C392 C 0.24830 0.40695 0.10350
 C393 C 0.23873 0.42485 0.11725
 C394 C 0.21642 0.43007 0.11465
 C395 C 0.20745 0.44826 0.12551
 C396 C 0.22071 0.46153 0.13912
 C397 C 0.24264 0.45560 0.14282
 C398 C 0.25152 0.43734 0.13224
 H399 H 0.32624 0.38624 0.05015
 H400 H 0.30887 0.41015 0.07762
 H401 H 0.25369 0.36614 0.08251
 H402 H 0.27100 0.34236 0.05469
 H403 H 0.28038 0.41915 0.10366
 H404 H 0.23702 0.39531 0.09629
 H405 H 0.20611 0.42057 0.10348
 H406 H 0.19047 0.45252 0.12246
 H407 H 0.25303 0.46537 0.15365
 H408 H 0.26845 0.43331 0.13568
 C409 C 0.69579 0.61814 0.05527
 C410 C 0.70689 0.60483 0.07059
 C411 C 0.72731 0.61104 0.07942
 C412 C 0.73627 0.63124 0.07279
 C413 C 0.72507 0.64463 0.05739
 C414 C 0.70482 0.63810 0.04830
 C415 C 0.73875 0.59523 0.09437
 C416 C 0.75771 0.59879 0.10532
 C417 C 0.76917 0.58104 0.11760
 C418 C 0.79221 0.58074 0.11792
 C419 C 0.80344 0.56251 0.12616
 C420 C 0.79173 0.54438 0.13422
 C421 C 0.76877 0.54541 0.13564
 C422 C 0.75759 0.56364 0.12765
 H423 H 0.68017 0.61262 0.04870
 H424 H 0.69955 0.58941 0.07534
 H425 H 0.75201 0.63669 0.07895
 H426 H 0.73244 0.65995 0.05234
 H427 H 0.73140 0.57924 0.09546
 H428 H 0.76607 0.61422 0.10381
 H429 H 0.80151 0.59407 0.11060
 H430 H 0.82118 0.56204 0.12496
 H431 H 0.75946 0.53174 0.14224
 H432 H 0.73986 0.56377 0.12876
 C433 C 0.72730 0.35160 0.94665
 C434 C 0.73921 0.36348 0.93038
 C435 C 0.72922 0.38037 0.91805
 C436 C 0.70694 0.38498 0.92219
 C437 C 0.69511 0.37324 0.93849
 C438 C 0.70521 0.35664 0.95116
 C439 C 0.74287 0.39431 0.90290
 C440 C 0.73445 0.40620 0.88583
 C441 C 0.74662 0.42380 0.87386
 C442 C 0.73443 0.44074 0.86405
 C443 C 0.74491 0.45906 0.85506
 C444 C 0.76789 0.46072 0.85540
 C445 C 0.78023 0.44317 0.86378
 C446 C 0.76971 0.42486 0.87297
 H447 H 0.73558 0.33899 0.95622
 H448 H 0.75640 0.35977 0.92773
 H449 H 0.69875 0.39831 0.91370
 H450 H 0.67815 0.37759 0.94159
 H451 H 0.76011 0.39562 0.90700
 H452 H 0.71724 0.40445 0.88169
 H453 H 0.71665 0.44026 0.86424
 H454 H 0.73503 0.47223 0.84839
 H455 H 0.79798 0.44403 0.86416
 H456 H 0.77972 0.41184 0.87966
 C457 C 0.31048 0.60714 0.94326
 C458 C 0.29822 0.59418 0.92862
 C459 C 0.27695 0.60026 0.92208
 C460 C 0.26828 0.61993 0.93036
 C461 C 0.28061 0.63295 0.94505
 C462 C 0.30176 0.62658 0.95182
 C463 C 0.26433 0.58486 0.90778
 C464 C 0.24489 0.58905 0.89799
 C465 C 0.23227 0.57194 0.88604
 C466 C 0.20923 0.57251 0.88666
 C467 C 0.19693 0.55505 0.87833
 C468 C 0.20754 0.53681 0.86919
 C469 C 0.23048 0.53702 0.86693
 C470 C 0.24273 0.55447 0.87510
 H471 H 0.32674 0.60176 0.94807
 H472 H 0.30534 0.57913 0.92259
 H473 H 0.25188 0.62519 0.92612
 H474 H 0.27342 0.64784 0.95139
 H475 H 0.27129 0.56877 0.90604
 H476 H 0.23712 0.60469 0.90006
 H477 H 0.20077 0.58594 0.89468
 H478 H 0.17924 0.55525 0.88023
 H479 H 0.23898 0.52333 0.85946
 H480 H 0.26040 0.55395 0.87327
 C481 C 0.05635 0.26524 0.34374
 C482 C 0.07210 0.25295 0.35538
 C483 C 0.08365 0.26192 0.37372
 C484 C 0.07914 0.28344 0.38020
 C485 C 0.06333 0.29559 0.36875
 C486 C 0.05158 0.28658 0.35058
 C487 C 0.09841 0.24796 0.38742
 C488 C 0.11502 0.25610 0.39966
 C489 C 0.12595 0.24403 0.41828
 C490 C 0.13461 0.25606 0.43638
 C491 C 0.14213 0.24562 0.45594
 C492 C 0.14145 0.22288 0.45767
 C493 C 0.13434 0.21070 0.43895
 C494 C 0.12658 0.22118 0.41939
 H495 H 0.04747 0.25784 0.32986
 H496 H 0.07505 0.23630 0.35030
 H497 H 0.08704 0.29070 0.39475
 H498 H 0.06002 0.31197 0.37447
 H499 H 0.09423 0.23091 0.38866
 H500 H 0.11915 0.27315 0.39786
 H501 H 0.13453 0.27367 0.43587
 H502 H 0.14787 0.25534 0.47004
 H503 H 0.13377 0.19312 0.43987
 H504 H 0.12070 0.21134 0.40549
 C505 C 0.06387 0.71205 0.64769
 C506 C 0.07849 0.72573 0.63615
 C507 C 0.07582 0.74835 0.63681
 C508 C 0.05916 0.75716 0.65060
 C509 C 0.04477 0.74345 0.66255
 C510 C 0.04660 0.72076 0.66064
 C511 C 0.08997 0.76204 0.62204
 C512 C 0.08244 0.77980 0.61130
 C513 C 0.09468 0.79028 0.59239
 C514 C 0.08287 0.79841 0.57376
 C515 C 0.09385 0.80577 0.55429
 C516 C 0.11689 0.80560 0.55329
 C517 C 0.12875 0.79889 0.57251
 C518 C 0.11776 0.79119 0.59188
 H519 H 0.06575 0.69463 0.64603
 H520 H 0.09130 0.71857 0.62579
 H521 H 0.05703 0.77457 0.65186
 H522 H 0.03159 0.75058 0.67241
 H523 H 0.10588 0.75557 0.61737
 H524 H 0.06564 0.78490 0.61412
 H525 H 0.06509 0.79804 0.57383
 H526 H 0.08436 0.81101 0.53973
 H527 H 0.14653 0.79859 0.57212
 H528 H 0.12731 0.78554 0.60622
 C529 C 0.94792 0.68819 0.38030
 C530 C 0.93194 0.69723 0.39443
 C531 C 0.92345 0.71800 0.39001
 C532 C 0.93108 0.72948 0.37076
 C533 C 0.94715 0.72043 0.35660
 C534 C 0.95597 0.69981 0.36141
 C535 C 0.90828 0.72758 0.40700
 C536 C 0.89504 0.74462 0.40309
 C537 C 0.88214 0.75520 0.42145
 C538 C 0.87676 0.77731 0.41930
 C539 C 0.86712 0.78850 0.43744
 C540 C 0.86269 0.77772 0.45803
 C541 C 0.86658 0.75530 0.45963
 C542 C 0.87600 0.74408 0.44148
 H543 H 0.95431 0.67227 0.38451
 H544 H 0.92646 0.68806 0.40918
 H545 H 0.92540 0.74574 0.36701
 H546 H 0.95308 0.72983 0.34222
 H547 H 0.90881 0.72045 0.42383
 H548 H 0.89463 0.75205 0.38640
 H549 H 0.88100 0.78620 0.40395
 H550 H 0.86424 0.80581 0.43583
 H551 H 0.86286 0.74656 0.47521
 H552 H 0.87877 0.72683 0.44345
 C553 C 0.93836 0.29452 0.62470
 C554 C 0.92679 0.28103 0.61005
 C555 C 0.92422 0.25886 0.61496
 C556 C 0.93244 0.25062 0.63560
 C557 C 0.94414 0.26420 0.65035
 C558 C 0.94782 0.28613 0.64463
 C559 C 0.91531 0.24483 0.59684
 C560 C 0.90680 0.22493 0.59993
 C561 C 0.89954 0.21223 0.58003
 C562 C 0.87894 0.20202 0.57999
 C563 C 0.87073 0.19296 0.55990
 C564 C 0.88318 0.19381 0.53971
 C565 C 0.90455 0.20236 0.54043
 C566 C 0.91262 0.21151 0.56034
 H567 H 0.94074 0.31137 0.61986
 H568 H 0.92056 0.28780 0.59430
 H569 H 0.93102 0.23353 0.63977
 H570 H 0.95134 0.25726 0.66554
 H571 H 0.91575 0.25144 0.57971
 H572 H 0.90403 0.21849 0.61685
 H573 H 0.86872 0.20221 0.59510
 H574 H 0.85422 0.18643 0.55983
 H575 H 0.91475 0.20267 0.52531
 H576 H 0.92887 0.21869 0.56016
 C577 C 0.34530 0.05544 0.27059
 C578 C 0.35865 0.06975 0.25809
 C579 C 0.38129 0.07072 0.26219
 C580 C 0.39020 0.05802 0.27981
 C581 C 0.37685 0.04402 0.29250
 C582 C 0.35433 0.04226 0.28778
 C583 C 0.39557 0.08464 0.24779
 C584 C 0.41521 0.07753 0.24074
 C585 C 0.43070 0.09026 0.22653
 C586 C 0.44586 0.07882 0.21323
 C587 C 0.46268 0.08972 0.20182
 C588 C 0.46506 0.11236 0.20377
 C589 C 0.44928 0.12405 0.21620
 C590 C 0.43218 0.11308 0.22752
 H591 H 0.32796 0.05456 0.26668
 H592 H 0.35142 0.07954 0.24473
 H593 H 0.40753 0.05884 0.28371
 H594 H 0.38431 0.03419 0.30569
 H595 H 0.38932 0.10012 0.24188
 H596 H 0.42006 0.06107 0.24502
 H597 H 0.44502 0.06127 0.21212
 H598 H 0.47432 0.08031 0.19199
 H599 H 0.45079 0.14148 0.21814
 H600 H 0.42092 0.12234 0.23793
 C601 C 0.61014 0.05140 0.69263
 C602 C 0.59636 0.06387 0.70629
 C603 C 0.60424 0.07339 0.72625
 C604 C 0.62640 0.07056 0.73218
 C605 C 0.64018 0.05765 0.71867
 C606 C 0.63206 0.04771 0.69891
 C607 C 0.58829 0.08412 0.74145
 C608 C 0.59295 0.10110 0.75478
 C609 C 0.57564 0.11067 0.76928
 C610 C 0.57243 0.13325 0.76975
 C611 C 0.55425 0.14205 0.78114
 C612 C 0.53925 0.12836 0.79252
 C613 C 0.54353 0.10592 0.79335
 C614 C 0.56142 0.09717 0.78177
 H615 H 0.60331 0.04390 0.67760
 H616 H 0.57931 0.06574 0.70148
 H617 H 0.63279 0.07742 0.74773
 H618 H 0.65698 0.05504 0.72395
 H619 H 0.57152 0.07820 0.74091
 H620 H 0.60891 0.10882 0.75391
 H621 H 0.58334 0.14394 0.76034
 H622 H 0.55142 0.15939 0.78017
 H623 H 0.53269 0.09500 0.80255
 H624 H 0.56391 0.07974 0.78219
 C625 C 0.36966 0.95766 0.71500
 C626 C 0.38533 0.94663 0.72776
 C627 C 0.38135 0.94140 0.75060
 C628 C 0.36095 0.94680 0.76035
 C629 C 0.34521 0.95807 0.74755
 C630 C 0.34965 0.96403 0.72487
 C631 C 0.39964 0.93202 0.76384
 C632 C 0.39727 0.91969 0.78250
 C633 C 0.41676 0.91018 0.79368
 C634 C 0.41652 0.88836 0.80060
 C635 C 0.43586 0.87831 0.80794
 C636 C 0.45567 0.89008 0.80878
 C637 C 0.45540 0.91238 0.80355
 C638 C 0.43617 0.92232 0.79604
 H639 H 0.37364 0.96190 0.69757
 H640 H 0.40090 0.94262 0.71986
 H641 H 0.35751 0.94327 0.77805
 H642 H 0.32999 0.96285 0.75565
 H643 H 0.41603 0.93462 0.75709
 H644 H 0.38109 0.91489 0.78833
 H645 H 0.40167 0.87877 0.79907
 H646 H 0.43554 0.86109 0.81180
 H647 H 0.47023 0.92202 0.80465
 H648 H 0.43660 0.93939 0.79149
 C649 C 0.62738 0.95772 0.28316
 C650 C 0.61087 0.94784 0.27058
 C651 C 0.61481 0.94094 0.24828
 C652 C 0.63590 0.94381 0.23883
 C653 C 0.65250 0.95395 0.25143
 C654 C 0.64829 0.96127 0.27365
 C655 C 0.59609 0.93199 0.23537
 C656 C 0.59798 0.91796 0.21812
 C657 C 0.57828 0.90803 0.20774
 C658 C 0.57862 0.88600 0.20183
 C659 C 0.55938 0.87558 0.19485
 C660 C 0.53950 0.88713 0.19330
 C661 C 0.53960 0.90957 0.19771
 C662 C 0.55877 0.91991 0.20487
 H663 H 0.62350 0.96315 0.30019
 H664 H 0.59479 0.94582 0.27825
 H665 H 0.63938 0.93899 0.22152
 H666 H 0.66839 0.95659 0.24358
 H667 H 0.57982 0.93604 0.24153
 H668 H 0.61398 0.91192 0.21319
 H669 H 0.59351 0.87657 0.20375
 H670 H 0.55988 0.85826 0.19173
 H671 H 0.52472 0.91905 0.19608
 H672 H 0.55821 0.93712 0.20856
 C673 C 0.34723 0.27187 0.94709
 C674 C 0.35850 0.25944 0.93093
 C675 C 0.37582 0.26851 0.91824
 C676 C 0.38157 0.29037 0.92193
 C677 C 0.37046 0.30270 0.93817
 C678 C 0.35336 0.29353 0.95115
 C679 C 0.38909 0.25432 0.90320
 C680 C 0.40085 0.26197 0.88554
 C681 C 0.41820 0.24931 0.87379
 C682 C 0.43534 0.26082 0.86319
 C683 C 0.45376 0.24994 0.85487
 C684 C 0.45533 0.22724 0.85671
 C685 C 0.43745 0.21551 0.86565
 C686 C 0.41903 0.22643 0.87414
 H687 H 0.33420 0.26431 0.95689
 H688 H 0.35395 0.24257 0.92862
 H689 H 0.39528 0.29780 0.91312
 H690 H 0.37562 0.31933 0.94092
 H691 H 0.39010 0.23734 0.90792
 H692 H 0.39934 0.27894 0.88086
 H693 H 0.43501 0.27842 0.86240
 H694 H 0.46718 0.25934 0.84773
 H695 H 0.43823 0.19798 0.86719
 H696 H 0.40582 0.21690 0.88141
 C697 C 0.61820 0.70130 0.95258
 C698 C 0.60366 0.71465 0.94081
 C699 C 0.60883 0.73648 0.93647
 C700 C 0.62927 0.74461 0.94358
 C701 C 0.64387 0.73121 0.95556
 C702 C 0.63826 0.70951 0.96057
 C703 C 0.59159 0.75037 0.92636
 C704 C 0.59522 0.76905 0.91514
 C705 C 0.57662 0.78154 0.90558
 C706 C 0.57822 0.79078 0.88378
 C707 C 0.55972 0.80005 0.87348
 C708 C 0.53945 0.80041 0.88500
 C709 C 0.53841 0.79268 0.90749
 C710 C 0.55677 0.78335 0.91766
 H711 H 0.61334 0.68468 0.95606
 H712 H 0.58802 0.70800 0.93553
 H713 H 0.63362 0.76148 0.94086
 H714 H 0.65916 0.73803 0.96158
 H715 H 0.57488 0.74439 0.92766
 H716 H 0.61180 0.77440 0.91149
 H717 H 0.59345 0.78978 0.87428
 H718 H 0.56100 0.80593 0.85614
 H719 H 0.52318 0.79331 0.91702
 H720 H 0.55530 0.77707 0.93484
 C721 C 0.39177 0.68841 0.04568
 C722 C 0.40452 0.70055 0.06062
 C723 C 0.39699 0.72050 0.06907
 C724 C 0.37607 0.72791 0.06251
 C725 C 0.36326 0.71571 0.04750
 C726 C 0.37102 0.69586 0.03886
 C727 C 0.41146 0.73258 0.08483
 C728 C 0.40936 0.75373 0.08999
 C729 C 0.42567 0.76519 0.10430
 C730 C 0.42969 0.78742 0.10059
 C731 C 0.44676 0.79799 0.11202
 C732 C 0.46001 0.78642 0.12733
 C733 C 0.45504 0.76462 0.13217
 C734 C 0.43793 0.75415 0.12097
 H735 H 0.39824 0.67317 0.03942
 H736 H 0.42049 0.69437 0.06548
 H737 H 0.36938 0.74291 0.06904
 H738 H 0.34727 0.72181 0.04268
 H739 H 0.42547 0.72374 0.09132
 H740 H 0.39668 0.76339 0.08206
 H741 H 0.42026 0.79637 0.08809
 H742 H 0.45030 0.81485 0.10808
 H743 H 0.46479 0.75553 0.14428
 H744 H 0.43464 0.73731 0.12514
 C745 C 0.62035 0.31318 0.06112
 C746 C 0.60661 0.30289 0.07686
 C747 C 0.61144 0.28198 0.08506
 C748 C 0.63094 0.27185 0.07763
 C749 C 0.64476 0.28223 0.06185
 C750 C 0.63938 0.30284 0.05310
 C751 C 0.59481 0.27116 0.09988
 C752 C 0.59731 0.25180 0.11021
 C753 C 0.57895 0.24050 0.12209
 C754 C 0.57893 0.21769 0.12302
 C755 C 0.56075 0.20637 0.13160
 C756 C 0.54223 0.21766 0.13954
 C757 C 0.54284 0.24048 0.14006
 C758 C 0.56104 0.25179 0.13158
 H759 H 0.61573 0.32910 0.05483
 H760 H 0.59179 0.31116 0.08223
 H761 H 0.63537 0.25572 0.08324
 H762 H 0.65930 0.27381 0.05597
 H763 H 0.57913 0.27929 0.10121
 H764 H 0.61256 0.24300 0.10855
 H765 H 0.59260 0.20858 0.11610
 H766 H 0.56073 0.18878 0.13092
 H767 H 0.52900 0.24959 0.14659
 H768 H 0.56082 0.26935 0.13221
 C769 C 0.25725 0.05604 0.66403
 C770 C 0.24550 0.07110 0.65090
 C771 C 0.25537 0.08130 0.63205
 C772 C 0.27721 0.07607 0.62651
 C773 C 0.28884 0.06102 0.63948
 C774 C 0.27898 0.05068 0.65826
 C775 C 0.24206 0.09564 0.61717
 C776 C 0.25107 0.11104 0.60385
 C777 C 0.23927 0.12185 0.58496
 C778 C 0.25157 0.12876 0.56605
 C779 C 0.24115 0.13663 0.54661
 C780 C 0.21819 0.13811 0.54584
 C781 C 0.20587 0.13256 0.56526
 C782 C 0.21631 0.12441 0.58467
 H783 H 0.24918 0.04826 0.67834
 H784 H 0.22860 0.07461 0.65532
 H785 H 0.28518 0.08286 0.61163
 H786 H 0.30552 0.05720 0.63449
 H787 H 0.22464 0.09233 0.61627
 H788 H 0.26846 0.11439 0.60519
 H789 H 0.26928 0.12716 0.56592
 H790 H 0.25100 0.14109 0.53194
 H791 H 0.18813 0.13367 0.56505
 H792 H 0.20635 0.11986 0.59920
 C793 C 0.72239 0.04155 0.36402
 C794 C 0.73717 0.05156 0.37860
 C795 C 0.75857 0.05632 0.37143
 C796 C 0.76487 0.05139 0.34902
 C797 C 0.75011 0.04097 0.33438
 C798 C 0.72878 0.03549 0.34188
 C799 C 0.77406 0.06470 0.38853
 C800 C 0.79076 0.07824 0.38404
 C801 C 0.80363 0.08733 0.40304
 C802 C 0.80720 0.10982 0.40434
 C803 C 0.81497 0.11905 0.42451
 C804 C 0.81946 0.10583 0.44351
 C805 C 0.81800 0.08316 0.44127
 C806 C 0.81013 0.07400 0.42125
 H807 H 0.70616 0.03783 0.37054
 H808 H 0.73195 0.05526 0.39579
 H809 H 0.78141 0.05468 0.34316
 H810 H 0.75565 0.03665 0.31747
 H811 H 0.77048 0.06064 0.40613
 H812 H 0.79329 0.08451 0.36700
 H813 H 0.80244 0.12035 0.39041
 H814 H 0.81596 0.13658 0.42577
 H815 H 0.82188 0.07256 0.45545
 H816 H 0.80808 0.05653 0.42039
 C817 C 0.68784 0.95196 0.60837
 C818 C 0.69800 0.93580 0.59562
 C819 C 0.71670 0.92504 0.60377
 C820 C 0.72490 0.93072 0.62534
 C821 C 0.71466 0.94703 0.63817
 C822 C 0.69605 0.95786 0.62976
 C823 C 0.72678 0.90834 0.58884
 C824 C 0.74611 0.89844 0.59242
 C825 C 0.75607 0.88381 0.57520
 C826 C 0.77903 0.88258 0.57339
 C827 C 0.78886 0.87139 0.55535
 C828 C 0.77584 0.86122 0.53885
 C829 C 0.75296 0.86102 0.54163
 C830 C 0.74316 0.87199 0.55973
 H831 H 0.67351 0.95990 0.60135
 H832 H 0.69123 0.93180 0.57914
 H833 H 0.73906 0.92270 0.63250
 H834 H 0.72130 0.95113 0.65466
 H835 H 0.71817 0.90507 0.57315
 H836 H 0.75590 0.90252 0.60708
 H837 H 0.78936 0.89125 0.58527
 H838 H 0.80656 0.87174 0.55355
 H839 H 0.74262 0.85291 0.52935
 H840 H 0.72546 0.87159 0.56120
 C841 C 0.26103 0.95156 0.34897
 C842 C 0.24802 0.93791 0.36258
 C843 C 0.25716 0.92674 0.38112
 C844 C 0.27962 0.92953 0.38582
 C845 C 0.29255 0.94328 0.37238
 C846 C 0.28338 0.95461 0.35393
 C847 C 0.24267 0.91388 0.39644
 C848 C 0.25008 0.89699 0.40871
 C849 C 0.23767 0.88621 0.42741
 C850 C 0.24966 0.87389 0.44318
 C851 C 0.23950 0.86516 0.46243
 C852 C 0.21699 0.86833 0.46631
 C853 C 0.20460 0.87959 0.44998
 C854 C 0.21484 0.88852 0.43068
 H855 H 0.25344 0.96020 0.33498
 H856 H 0.23071 0.93625 0.35877
 H857 H 0.28714 0.92183 0.40041
 H858 H 0.30967 0.94537 0.37675
 H859 H 0.22585 0.91920 0.39811
 H860 H 0.26683 0.89165 0.40611
 H861 H 0.26718 0.87163 0.44104
 H862 H 0.24936 0.85624 0.47459
 H863 H 0.18719 0.88216 0.45257
 H864 H 0.20483 0.89737 0.41867
 C865 C 0.04786 0.37384 0.69321
 C866 C 0.06163 0.38866 0.70392
 C867 C 0.06674 0.38636 0.72702
 C868 C 0.05829 0.36838 0.73912
 C869 C 0.04441 0.35347 0.72835
 C870 C 0.03868 0.35635 0.70540
 C871 C 0.07903 0.40423 0.73799
 C872 C 0.08985 0.40248 0.75775
 C873 C 0.10006 0.42145 0.76919
 C874 C 0.10375 0.42044 0.79275
 C875 C 0.11139 0.43866 0.80449
 C876 C 0.11538 0.45824 0.79286
 C877 C 0.11282 0.45898 0.76919
 C878 C 0.10552 0.44073 0.75742
 H879 H 0.04390 0.37650 0.67548
 H880 H 0.06788 0.40235 0.69421
 H881 H 0.06144 0.36627 0.75707
 H882 H 0.03749 0.34021 0.73820
 H883 H 0.07837 0.41975 0.72936
 H884 H 0.09031 0.38701 0.76654
 H885 H 0.10000 0.40574 0.80221
 H886 H 0.11335 0.43773 0.82277
 H887 H 0.11631 0.47380 0.75984
 H888 H 0.10410 0.44201 0.73916
 C889 C 0.06882 0.63635 0.30001
 C890 C 0.08376 0.62480 0.28669
 C891 C 0.08358 0.62691 0.26294
 C892 C 0.06919 0.64190 0.25279
 C893 C 0.05456 0.65387 0.26620
 C894 C 0.05384 0.65071 0.28987
 C895 C 0.09779 0.61244 0.24934
 C896 C 0.09083 0.60309 0.23012
 C897 C 0.10270 0.58466 0.21972
 C898 C 0.09057 0.56710 0.21125
 C899 C 0.10119 0.54815 0.20423
 C900 C 0.12417 0.54668 0.20503
 C901 C 0.13640 0.56481 0.21200
 C902 C 0.12576 0.58362 0.21943
 H903 H 0.06867 0.63373 0.31824
 H904 H 0.09482 0.61344 0.29486
 H905 H 0.06902 0.64413 0.23452
 H906 H 0.04314 0.66483 0.25798
 H907 H 0.11293 0.60691 0.25705
 H908 H 0.07456 0.60677 0.22381
 H909 H 0.07280 0.56761 0.21118
 H910 H 0.09146 0.53438 0.19880
 H911 H 0.15414 0.56400 0.21279
 H912 H 0.13552 0.59713 0.22543
 C913 C 0.94957 0.37510 0.30753
 C914 C 0.93502 0.38972 0.29756
 C915 C 0.92818 0.38701 0.27502
 C916 C 0.93580 0.36890 0.26274
 C917 C 0.95046 0.35420 0.27277
 C918 C 0.95780 0.35741 0.29513
 C919 C 0.91486 0.40456 0.26469
 C920 C 0.90300 0.40262 0.24562
 C921 C 0.89211 0.42155 0.23475
 C922 C 0.88874 0.42144 0.21113
 C923 C 0.88112 0.44007 0.19994
 C924 C 0.87681 0.45909 0.21224
 C925 C 0.87874 0.45878 0.23598
 C926 C 0.88603 0.44013 0.24718
 H927 H 0.95479 0.37802 0.32483
 H928 H 0.92946 0.40352 0.30738
 H929 H 0.93131 0.36646 0.24517
 H930 H 0.95658 0.34075 0.26277
 H931 H 0.91569 0.42013 0.27309
 H932 H 0.90238 0.38724 0.23682
 H933 H 0.89296 0.40725 0.20120
 H934 H 0.87966 0.43998 0.18159
 H935 H 0.87501 0.47317 0.24581
 H936 H 0.88721 0.44056 0.26551
 C937 C 0.94565 0.62580 0.69176
 C938 C 0.93054 0.61064 0.70005
 C939 C 0.91984 0.61384 0.72093
 C940 C 0.92428 0.63298 0.73319
 C941 C 0.93947 0.64822 0.72485
 C942 C 0.95058 0.64461 0.70422
 C943 C 0.90567 0.59600 0.72974
 C944 C 0.89131 0.59781 0.74702
 C945 C 0.87912 0.57884 0.75649
 C946 C 0.87224 0.57928 0.77930
 C947 C 0.86267 0.56093 0.78944
 C948 C 0.85977 0.54177 0.77690
 C949 C 0.86541 0.54173 0.75373
 C950 C 0.87481 0.56009 0.74357
 H951 H 0.95384 0.62250 0.67578
 H952 H 0.92751 0.59609 0.69024
 H953 H 0.91678 0.63597 0.74956
 H954 H 0.94299 0.66250 0.73491
 H955 H 0.90789 0.58034 0.72178
 H956 H 0.88921 0.61323 0.75547
 H957 H 0.87506 0.59358 0.78957
 H958 H 0.85846 0.56138 0.80734
 H959 H 0.86285 0.52733 0.74355
 H960 H 0.87881 0.55937 0.72566
 C961 C 0.72800 0.65253 0.94945
 C962 C 0.74080 0.64055 0.93414
 C963 C 0.73253 0.62152 0.92427
 C964 C 0.71121 0.61464 0.93005
 C965 C 0.69853 0.62641 0.94542
 C966 C 0.70678 0.64540 0.95560
 C967 C 0.74687 0.60802 0.90962
 C968 C 0.73866 0.59538 0.89316
 C969 C 0.75092 0.57797 0.88120
 C970 C 0.73866 0.56299 0.86854
 C971 C 0.74864 0.54483 0.85896
 C972 C 0.77122 0.54123 0.86162
 C973 C 0.78383 0.55670 0.87324
 C974 C 0.77379 0.57491 0.88303
 H975 H 0.73500 0.66701 0.95693
 H976 H 0.75728 0.64603 0.93015
 H977 H 0.70453 0.59964 0.92345
 H978 H 0.68236 0.62023 0.94968
 H979 H 0.76422 0.60796 0.91338
 H980 H 0.72135 0.59675 0.88925
 H981 H 0.72109 0.56495 0.86666
 H982 H 0.73860 0.53333 0.84973
 H983 H 0.80131 0.55430 0.87545
 H984 H 0.78401 0.58619 0.89224
 C985 C 0.30031 0.38038 0.94934
 C986 C 0.28775 0.39359 0.93519
 C987 C 0.26604 0.38808 0.92988
 C988 C 0.25728 0.36854 0.93859
 C989 C 0.26993 0.35517 0.95280
 C990 C 0.29157 0.36106 0.95858
 C991 C 0.25360 0.40336 0.91520
 C992 C 0.23168 0.40355 0.91277
 C993 C 0.22029 0.42097 0.89981
 C994 C 0.19872 0.42674 0.90583
 C995 C 0.18852 0.44471 0.89563
 C996 C 0.19983 0.45715 0.87933
 C997 C 0.22082 0.45065 0.87234
 C998 C 0.23085 0.43260 0.88221
 H999 H 0.31689 0.38554 0.95315
 H1000 H 0.29501 0.40843 0.92861
 H1001 H 0.24080 0.36341 0.93447
 H1002 H 0.26265 0.34036 0.95941
 H1003 H 0.26314 0.41621 0.90734
 H1004 H 0.22165 0.39201 0.92205
 H1005 H 0.19009 0.41789 0.91908
 H1006 H 0.17224 0.44945 0.90115
 H1007 H 0.22961 0.45983 0.85944
 H1008 H 0.24700 0.42806 0.87620
 C1009 C 0.31956 0.61051 0.05392
 C1010 C 0.30976 0.59830 0.07117
 C1011 C 0.28962 0.60457 0.08066
 C1012 C 0.27960 0.62378 0.07271
 C1013 C 0.28946 0.63611 0.05538
 C1014 C 0.30945 0.62947 0.04553
 C1015 C 0.27939 0.58969 0.09757
 C1016 C 0.26121 0.59390 0.10972
 C1017 C 0.25047 0.57694 0.12387
 C1018 C 0.22752 0.57694 0.12590
 C1019 C 0.21664 0.55943 0.13620
 C1020 C 0.22859 0.54169 0.14475
 C1021 C 0.25162 0.54250 0.14432
 C1022 C 0.26247 0.56002 0.13413
 H1023 H 0.33501 0.60482 0.04699
 H1024 H 0.31788 0.58361 0.07690
 H1025 H 0.26396 0.62918 0.07926
 H1026 H 0.28117 0.65062 0.04944
 H1027 H 0.28689 0.57381 0.09917
 H1028 H 0.25283 0.60927 0.10791
 H1029 H 0.21792 0.58991 0.11840
 H1030 H 0.19887 0.55920 0.13630
 H1031 H 0.26120 0.52926 0.15130
 H1032 H 0.28023 0.55998 0.13386
 C1033 C 0.69895 0.38860 0.04576
 C1034 C 0.71203 0.40360 0.05716
 C1035 C 0.73300 0.39789 0.06487
 C1036 C 0.74053 0.37656 0.06133
 C1037 C 0.72745 0.36147 0.04983
 C1038 C 0.70662 0.36741 0.04151
 C1039 C 0.74680 0.41511 0.07505
 C1040 C 0.76429 0.41147 0.08834
 C1041 C 0.77710 0.42965 0.09804
 C1042 C 0.78602 0.42766 0.11992
 C1043 C 0.79645 0.44539 0.13014
 C1044 C 0.79832 0.46533 0.11851
 C1045 C 0.79063 0.46681 0.09606
 C1046 C 0.78016 0.44918 0.08593
 H1047 H 0.68303 0.39389 0.03977
 H1048 H 0.70584 0.41993 0.05965
 H1049 H 0.75677 0.37164 0.06662
 H1050 H 0.73399 0.34536 0.04690
 H1051 H 0.74173 0.43174 0.07201
 H1052 H 0.76843 0.39509 0.09352
 H1053 H 0.78412 0.41267 0.12945
 H1054 H 0.80219 0.44378 0.14747
 H1055 H 0.79240 0.48176 0.08644
 H1056 H 0.77429 0.45094 0.06867
 C1057 C 0.95978 0.70858 0.61935
 C1058 C 0.94809 0.72096 0.60362
 C1059 C 0.93733 0.74007 0.61020
 C1060 C 0.93837 0.74652 0.63310
 C1061 C 0.95018 0.73414 0.64894
 C1062 C 0.96127 0.71510 0.64222
 C1063 C 0.92626 0.75307 0.59234
 C1064 C 0.91050 0.76784 0.59619
 C1065 C 0.89928 0.77907 0.57714
 C1066 C 0.87678 0.78373 0.57878
 C1067 C 0.86530 0.79164 0.55987
 C1068 C 0.87624 0.79517 0.53910
 C1069 C 0.89907 0.79217 0.53807
 C1070 C 0.91049 0.78427 0.55688
 H1071 H 0.96799 0.69407 0.61338
 H1072 H 0.94759 0.71563 0.58609
 H1073 H 0.93066 0.76138 0.63875
 H1074 H 0.95096 0.73979 0.66634
 H1075 H 0.93060 0.74932 0.57491
 H1076 H 0.90430 0.77036 0.61324
 H1077 H 0.86785 0.78015 0.59432
 H1078 H 0.84770 0.79381 0.56113
 H1079 H 0.90800 0.79528 0.52243
 H1080 H 0.92802 0.78176 0.55537
 C1081 C 0.95259 0.26631 0.34397
 C1082 C 0.93751 0.25338 0.35587
 C1083 C 0.92967 0.25977 0.37726
 C1084 C 0.93736 0.27929 0.38668
 C1085 C 0.95258 0.29211 0.37495
 C1086 C 0.96053 0.28577 0.35346
 C1087 C 0.91512 0.24493 0.39027
 C1088 C 0.90069 0.25205 0.40583
 C1089 C 0.88922 0.23770 0.42237
 C1090 C 0.88132 0.24701 0.44254
 C1091 C 0.87313 0.23394 0.46008
 C1092 C 0.87252 0.21125 0.45776
 C1093 C 0.87891 0.20200 0.43697
 C1094 C 0.88715 0.21508 0.41939
 H1095 H 0.95830 0.26080 0.32751
 H1096 H 0.93203 0.23825 0.34841
 H1097 H 0.93231 0.28437 0.40349
 H1098 H 0.95828 0.30690 0.38295
 H1099 H 0.91731 0.22772 0.38746
 H1100 H 0.89852 0.26940 0.40793
 H1101 H 0.88240 0.26439 0.44518
 H1102 H 0.86789 0.24155 0.47576
 H1103 H 0.87854 0.18455 0.43469
 H1104 H 0.89226 0.20728 0.40383
 C1105 C 0.04309 0.26510 0.65519
 C1106 C 0.05787 0.25201 0.64313
 C1107 C 0.06584 0.25862 0.62179
 C1108 C 0.05839 0.27834 0.61247
 C1109 C 0.04359 0.29131 0.62435
 C1110 C 0.03566 0.28492 0.64588
 C1111 C 0.08088 0.24434 0.60881
 C1112 C 0.09596 0.25260 0.59450
 C1113 C 0.10902 0.23999 0.57780
 C1114 C 0.12323 0.25169 0.56343
 C1115 C 0.13381 0.24153 0.54535
 C1116 C 0.13060 0.21933 0.54127
 C1117 C 0.11740 0.20719 0.55626
 C1118 C 0.10656 0.21743 0.57434
 H1119 H 0.03730 0.25952 0.67165
 H1120 H 0.06315 0.23673 0.65050
 H1121 H 0.06350 0.28357 0.59567
 H1122 H 0.03821 0.30630 0.61641
 H1123 H 0.07907 0.22699 0.61100
 H1124 H 0.09824 0.27007 0.59419
 H1125 H 0.12557 0.26901 0.56567
 H1126 H 0.14416 0.25116 0.53417
 H1127 H 0.11471 0.19002 0.55337
 H1128 H 0.09583 0.20771 0.58492
 C1129 C 0.05159 0.69543 0.38703
 C1130 C 0.06441 0.70628 0.40295
 C1131 C 0.07145 0.72766 0.39904
 C1132 C 0.06552 0.73801 0.37856
 C1133 C 0.05252 0.72717 0.36256
 C1134 C 0.04515 0.70577 0.36670
 C1135 C 0.08363 0.73870 0.41749
 C1136 C 0.09664 0.75614 0.41464
 C1137 C 0.10792 0.76695 0.43394
 C1138 C 0.11396 0.78893 0.43189
 C1139 C 0.12313 0.80002 0.45032
 C1140 C 0.12639 0.78930 0.47116
 C1141 C 0.12145 0.76708 0.47287
 C1142 C 0.11253 0.75596 0.45445
 H1143 H 0.04641 0.67899 0.39097
 H1144 H 0.06867 0.69794 0.41859
 H1145 H 0.07022 0.75466 0.37512
 H1146 H 0.04791 0.73573 0.34717
 H1147 H 0.08146 0.73190 0.43434
 H1148 H 0.09860 0.76327 0.39791
 H1149 H 0.11093 0.79772 0.41621
 H1150 H 0.12688 0.81716 0.44859
 H1151 H 0.12432 0.75834 0.48862
 H1152 H 0.10928 0.73879 0.45649
 C1153 C 0.60876 0.95382 0.68513
 C1154 C 0.59448 0.93985 0.69666
 C1155 C 0.59980 0.93172 0.71827
 C1156 C 0.62001 0.93763 0.72803
 C1157 C 0.63433 0.95166 0.71646
 C1158 C 0.62872 0.96014 0.69502
 C1159 C 0.58301 0.91866 0.73050
 C1160 C 0.58699 0.90603 0.74870
 C1161 C 0.56915 0.89510 0.76164
 C1162 C 0.57210 0.89084 0.78491
 C1163 C 0.55480 0.88268 0.79814
 C1164 C 0.53426 0.87864 0.78826
 C1165 C 0.53171 0.88161 0.76475
 C1166 C 0.54900 0.88957 0.75152
 H1167 H 0.60393 0.96003 0.66864
 H1168 H 0.57900 0.93566 0.68879
 H1169 H 0.62457 0.93219 0.74486
 H1170 H 0.64955 0.95631 0.72457
 H1171 H 0.56636 0.92023 0.72438
 H1172 H 0.60348 0.90460 0.75526
 H1173 H 0.58755 0.89466 0.79305
 H1174 H 0.55716 0.88043 0.81624
 H1175 H 0.51618 0.87805 0.75667
 H1176 H 0.54638 0.89154 0.73346
 C1177 C 0.34438 0.94900 0.26214
 C1178 C 0.35747 0.93506 0.24905
 C1179 C 0.37617 0.92516 0.25843
 C1180 C 0.38135 0.92933 0.28130
 C1181 C 0.36834 0.94318 0.29430
 C1182 C 0.34992 0.95347 0.28482
 C1183 C 0.39106 0.91241 0.24350
 C1184 C 0.40598 0.89833 0.25157
 C1185 C 0.42402 0.88925 0.23763
 C1186 C 0.44408 0.88485 0.24835
 C1187 C 0.46219 0.87790 0.23575
 C1188 C 0.46047 0.87476 0.21222
 C1189 C 0.44015 0.87812 0.20157
 C1190 C 0.42205 0.88545 0.21414
 H1191 H 0.33035 0.95677 0.25431
 H1192 H 0.35323 0.93235 0.23142
 H1193 H 0.39597 0.92281 0.28912
 H1194 H 0.37317 0.94633 0.31168
 H1195 H 0.39050 0.91586 0.22544
 H1196 H 0.40643 0.89469 0.26957
 H1197 H 0.44596 0.88749 0.26644
 H1198 H 0.47763 0.87514 0.24437
 H1199 H 0.43847 0.87569 0.18343
 H1200 H 0.40666 0.88813 0.20546
 C1201 C 0.66884 0.05556 0.25440
 C1202 C 0.65590 0.06921 0.24079
 C1203 C 0.63383 0.07287 0.24642
 C1204 C 0.62533 0.06401 0.26666
 C1205 C 0.63829 0.05076 0.28042
 C1206 C 0.66000 0.04587 0.27413
 C1207 C 0.61944 0.08525 0.23089
 C1208 C 0.59939 0.07772 0.22588
 C1209 C 0.58283 0.08957 0.21231
 C1210 C 0.56562 0.07757 0.20276
 C1211 C 0.54747 0.08806 0.19343
 C1212 C 0.54597 0.11083 0.19372
 C1213 C 0.56386 0.12295 0.20184
 C1214 C 0.58217 0.11241 0.21111
 H1215 H 0.68555 0.05216 0.24918
 H1216 H 0.66281 0.07609 0.22536
 H1217 H 0.60847 0.06702 0.27162
 H1218 H 0.63098 0.04362 0.29551
 H1219 H 0.62564 0.09998 0.22304
 H1220 H 0.59464 0.06186 0.23235
 H1221 H 0.56578 0.05997 0.20340
 H1222 H 0.53408 0.07832 0.18695
 H1223 H 0.56305 0.14052 0.20245
 H1224 H 0.59500 0.12217 0.21863
 C1225 C 0.33662 0.06028 0.74531
 C1226 C 0.34982 0.07369 0.75878
 C1227 C 0.37217 0.07633 0.75366
 C1228 C 0.38083 0.06639 0.73413
 C1229 C 0.36763 0.05333 0.72051
 C1230 C 0.34549 0.04976 0.72617
 C1231 C 0.38639 0.08940 0.76867
 C1232 C 0.40688 0.08295 0.77343
 C1233 C 0.42309 0.09591 0.78628
 C1234 C 0.44146 0.08515 0.79517
 C1235 C 0.45905 0.09688 0.80399
 C1236 C 0.45878 0.11970 0.80388
 C1237 C 0.43984 0.13052 0.79631
 C1238 C 0.42213 0.11874 0.78752
 H1239 H 0.31958 0.05792 0.75001
 H1240 H 0.34276 0.08143 0.77360
 H1241 H 0.39788 0.06867 0.72941
 H1242 H 0.37496 0.04553 0.70586
 H1243 H 0.37968 0.10394 0.77629
 H1244 H 0.41229 0.06724 0.76732
 H1245 H 0.44259 0.06759 0.79447
 H1246 H 0.47331 0.08811 0.81002
 H1247 H 0.43929 0.14811 0.79582
 H1248 H 0.40842 0.12763 0.78047
 C1249 C 0.61985 0.68947 0.06102
 C1250 C 0.60627 0.69936 0.07703
 C1251 C 0.61086 0.72034 0.08499
 C1252 C 0.62989 0.73102 0.07700
 C1253 C 0.64356 0.72105 0.06095
 C1254 C 0.63845 0.70033 0.05251
 C1255 C 0.59437 0.73070 0.10008
 C1256 C 0.59688 0.74988 0.11054
 C1257 C 0.57836 0.76079 0.12225
 C1258 C 0.57748 0.78358 0.12219
 C1259 C 0.55878 0.79436 0.13008
 C1260 C 0.54067 0.78249 0.13826
 C1261 C 0.54222 0.75979 0.13994
 C1262 C 0.56094 0.74903 0.13218
 H1263 H 0.61551 0.67343 0.05499
 H1264 H 0.59179 0.69071 0.08285
 H1265 H 0.63404 0.74726 0.08236
 H1266 H 0.65778 0.72982 0.05469
 H1267 H 0.57872 0.72243 0.10144
 H1268 H 0.61204 0.75886 0.10889
 H1269 H 0.59080 0.79302 0.11490
 H1270 H 0.55800 0.81190 0.12861
 H1271 H 0.52868 0.75032 0.14673
 H1272 H 0.56146 0.73150 0.13355
 C1273 C 0.38374 0.30368 0.05119
 C1274 C 0.39761 0.29234 0.06580
 C1275 C 0.39178 0.27174 0.07419
 C1276 C 0.37134 0.26288 0.06796
 C1277 C 0.35733 0.27433 0.05330
 C1278 C 0.36349 0.29481 0.04464
 C1279 C 0.40757 0.26059 0.08945
 C1280 C 0.40743 0.23925 0.09437
 C1281 C 0.42513 0.22891 0.10798
 C1282 C 0.43053 0.20702 0.10414
 C1283 C 0.44862 0.19755 0.11500
 C1284 C 0.46157 0.20986 0.12986
 C1285 C 0.45541 0.23130 0.13473
 C1286 C 0.43727 0.24067 0.12413
 H1287 H 0.38900 0.31944 0.04495
 H1288 H 0.41316 0.29966 0.07039
 H1289 H 0.36597 0.24728 0.07445
 H1290 H 0.34178 0.26712 0.04864
 H1291 H 0.42097 0.27046 0.09564
 H1292 H 0.39532 0.22873 0.08672
 H1293 H 0.42127 0.19750 0.09204
 H1294 H 0.45305 0.18095 0.11103
 H1295 H 0.46490 0.24094 0.14653
 H1296 H 0.43302 0.25721 0.12845
 C1297 C 0.64545 0.26938 0.95764
 C1298 C 0.63269 0.25607 0.94365
 C1299 C 0.61462 0.26462 0.93192
 C1300 C 0.60932 0.28670 0.93473
 C1301 C 0.62191 0.29992 0.94881
 C1302 C 0.64007 0.29142 0.96048
 C1303 C 0.60059 0.25004 0.91820
 C1304 C 0.58942 0.25723 0.90005
 C1305 C 0.57220 0.24474 0.88798
 C1306 C 0.55809 0.25632 0.87354
 C1307 C 0.54024 0.24610 0.86338
 C1308 C 0.53612 0.22395 0.86726
 C1309 C 0.55080 0.21198 0.88074
 C1310 C 0.56869 0.22226 0.89107
 H1311 H 0.65926 0.26233 0.96655
 H1312 H 0.63691 0.23905 0.94200
 H1313 H 0.59503 0.29371 0.92666
 H1314 H 0.61723 0.31679 0.95074
 H1315 H 0.59913 0.23335 0.92381
 H1316 H 0.59199 0.27385 0.89447
 H1317 H 0.56047 0.27357 0.87064
 H1318 H 0.52938 0.25563 0.85273
 H1319 H 0.54800 0.19485 0.88394
 H1320 H 0.57940 0.21255 0.90159
 C1321 C 0.38399 0.68230 0.93427
 C1322 C 0.39700 0.69402 0.91903
 C1323 C 0.39276 0.71603 0.91461
 C1324 C 0.37448 0.72589 0.92509
 C1325 C 0.36135 0.71407 0.94035
 C1326 C 0.36636 0.69232 0.94553
 C1327 C 0.40920 0.72828 0.90106
 C1328 C 0.40602 0.74810 0.89206
 C1329 C 0.42423 0.76101 0.88198
 C1330 C 0.42289 0.78378 0.88237
 C1331 C 0.44088 0.79652 0.87583
 C1332 C 0.46051 0.78665 0.86883
 C1333 C 0.46142 0.76396 0.86701
 C1334 C 0.44338 0.75125 0.87325
 H1335 H 0.38819 0.66551 0.93774
 H1336 H 0.41093 0.68601 0.91122
 H1337 H 0.37082 0.74290 0.92252
 H1338 H 0.34791 0.72223 0.94885
 H1339 H 0.42520 0.72079 0.89968
 H1340 H 0.39021 0.75592 0.89367
 H1341 H 0.40826 0.79173 0.88873
 H1342 H 0.43982 0.81404 0.87728
 H1343 H 0.47625 0.75606 0.86111
 H1344 H 0.44474 0.73382 0.87151
 C1345 C 0.74024 0.94334 0.33344
 C1346 C 0.75169 0.92859 0.34717
 C1347 C 0.74191 0.91983 0.36683
 C1348 C 0.72031 0.92601 0.37238
 C1349 C 0.70896 0.94084 0.35879
 C1350 C 0.71888 0.94991 0.33935
 C1351 C 0.75518 0.90606 0.38234
 C1352 C 0.74611 0.89138 0.39649
 C1353 C 0.75785 0.88019 0.41530
 C1354 C 0.74509 0.86972 0.43199
 C1355 C 0.75480 0.86081 0.45133
 C1356 C 0.77760 0.86197 0.45443
 C1357 C 0.79062 0.87139 0.43727
 C1358 C 0.78087 0.88047 0.41787
 H1359 H 0.74841 0.95018 0.31866
 H1360 H 0.76838 0.92429 0.34266
 H1361 H 0.71242 0.92025 0.38778
 H1362 H 0.69258 0.94566 0.36390
 H1363 H 0.77267 0.90893 0.38249
 H1364 H 0.72865 0.88832 0.39526
 H1365 H 0.72738 0.86903 0.43044
 H1366 H 0.74440 0.85328 0.46411
 H1367 H 0.80826 0.87244 0.43923
 H1368 H 0.79146 0.88787 0.40527
 C1369 C 0.25954 0.95314 0.66480
 C1370 C 0.24812 0.93772 0.65199
 C1371 C 0.25788 0.92815 0.63284
 C1372 C 0.27931 0.93442 0.62665
 C1373 C 0.29063 0.94994 0.63931
 C1374 C 0.28085 0.95959 0.65844
 C1375 C 0.24474 0.91321 0.61856
 C1376 C 0.25386 0.89776 0.60553
 C1377 C 0.24181 0.88527 0.58798
 C1378 C 0.25407 0.87553 0.57053
 C1379 C 0.24362 0.86589 0.55204
 C1380 C 0.22062 0.86560 0.55066
 C1381 C 0.20827 0.87397 0.56883
 C1382 C 0.21874 0.88371 0.58735
 H1383 H 0.25150 0.96035 0.67938
 H1384 H 0.23153 0.93338 0.65694
 H1385 H 0.28713 0.92802 0.61156
 H1386 H 0.30698 0.95462 0.63389
 H1387 H 0.22721 0.91582 0.61831
 H1388 H 0.27142 0.89518 0.60649
 H1389 H 0.27184 0.87619 0.57069
 H1390 H 0.25355 0.85921 0.53846
 H1391 H 0.19050 0.87391 0.56823
 H1392 H 0.20862 0.89030 0.60077
 C1393 C 0.30047 0.04974 0.37847
 C1394 C 0.29009 0.06419 0.39313
 C1395 C 0.26905 0.07217 0.38831
 C1396 C 0.25880 0.06580 0.36794
 C1397 C 0.26927 0.05125 0.35317
 C1398 C 0.29012 0.04290 0.35844
 C1399 C 0.25887 0.08694 0.40518
 C1400 C 0.23759 0.09261 0.40575
 C1401 C 0.22827 0.10584 0.42452
 C1402 C 0.20592 0.10370 0.43015
 C1403 C 0.19717 0.11450 0.44906
 C1404 C 0.21074 0.12748 0.46263
 C1405 C 0.23275 0.13050 0.45639
 C1406 C 0.24137 0.12007 0.43737
 H1407 H 0.31657 0.04373 0.38304
 H1408 H 0.29849 0.06890 0.40856
 H1409 H 0.24282 0.07193 0.36327
 H1410 H 0.26093 0.04635 0.33778
 H1411 H 0.26946 0.09219 0.41882
 H1412 H 0.22630 0.08609 0.39339
 H1413 H 0.19538 0.09312 0.42035
 H1414 H 0.18008 0.11214 0.45355
 H1415 H 0.24332 0.14090 0.46637
 H1416 H 0.25834 0.12316 0.43298
 C1417 C 0.72143 0.05680 0.64338
 C1418 C 0.73592 0.06991 0.63085
 C1419 C 0.73266 0.07316 0.60750
 C1420 C 0.71394 0.06433 0.59715
 C1421 C 0.69931 0.05157 0.60969
 C1422 C 0.70317 0.04721 0.63279
 C1423 C 0.74924 0.08497 0.59383
 C1424 C 0.75558 0.07732 0.57358
 C1425 C 0.77202 0.08793 0.55874
 C1426 C 0.78407 0.07488 0.54378
 C1427 C 0.79798 0.08423 0.52763
 C1428 C 0.79978 0.10694 0.52568
 C1429 C 0.78831 0.12007 0.54123
 C1430 C 0.77456 0.11063 0.55768
 H1431 H 0.72471 0.05385 0.66121
 H1432 H 0.75017 0.07675 0.63916
 H1433 H 0.71081 0.06703 0.57924
 H1434 H 0.68536 0.04451 0.60106
 H1435 H 0.75725 0.09903 0.60109
 H1436 H 0.74894 0.06194 0.56782
 H1437 H 0.78242 0.05734 0.54433
 H1438 H 0.80697 0.07365 0.51626
 H1439 H 0.78916 0.13761 0.54002
 H1440 H 0.76514 0.12113 0.56875
 C1441 C 0.95567 0.65415 0.26572
 C1442 C 0.94303 0.64187 0.25058
 C1443 C 0.94067 0.61937 0.25371
 C1444 C 0.95030 0.60951 0.27283
 C1445 C 0.96268 0.62173 0.28802
 C1446 C 0.96576 0.64413 0.28452
 C1447 C 0.92773 0.60635 0.23740
 C1448 C 0.93352 0.58593 0.23221
 C1449 C 0.92018 0.57062 0.21860
 C1450 C 0.93017 0.55129 0.21139
 C1451 C 0.91772 0.53462 0.20191
 C1452 C 0.89492 0.53688 0.19947
 C1453 C 0.88503 0.55670 0.20532
 C1454 C 0.89752 0.57344 0.21491
 H1455 H 0.95764 0.67140 0.26266
 H1456 H 0.93548 0.64986 0.23614
 H1457 H 0.94815 0.59232 0.27618
 H1458 H 0.97008 0.61351 0.30239
 H1459 H 0.91363 0.61385 0.22947
 H1460 H 0.94889 0.57972 0.23882
 H1461 H 0.94757 0.54869 0.21396
 H1462 H 0.92578 0.51959 0.19730
 H1463 H 0.86744 0.55874 0.20379
 H1464 H 0.88911 0.58792 0.22054
 C1465 C 0.94629 0.37999 0.69855
 C1466 C 0.93475 0.39560 0.71084
 C1467 C 0.92720 0.39113 0.73290
 C1468 C 0.93105 0.37045 0.74238
 C1469 C 0.94283 0.35480 0.73011
 C1470 C 0.95085 0.35955 0.70818
 C1471 C 0.91683 0.40900 0.74580
 C1472 C 0.90253 0.40617 0.76293
 C1473 C 0.89207 0.42503 0.77411
 C1474 C 0.86975 0.42418 0.77994
 C1475 C 0.85901 0.44275 0.78795
 C1476 C 0.87053 0.46241 0.79060
 C1477 C 0.89324 0.46272 0.78630
 C1478 C 0.90388 0.44427 0.77810
 H1479 H 0.95225 0.38424 0.68174
 H1480 H 0.93203 0.41141 0.70318
 H1481 H 0.92581 0.36660 0.75953
 H1482 H 0.94620 0.33925 0.73804
 H1483 H 0.92036 0.42540 0.74002
 H1484 H 0.89697 0.39001 0.76748
 H1485 H 0.86038 0.40945 0.77720
 H1486 H 0.84149 0.44197 0.79103
 H1487 H 0.90272 0.47740 0.78882
 H1488 H 0.92131 0.44516 0.77451
 C1489 C 0.04389 0.65798 0.74653
 C1490 C 0.05571 0.64479 0.76168
 C1491 C 0.06017 0.62305 0.75628
 C1492 C 0.05362 0.61501 0.73503
 C1493 C 0.04220 0.62821 0.71981
 C1494 C 0.03689 0.64973 0.72549
 C1495 C 0.07183 0.60883 0.77263
 C1496 C 0.06589 0.58799 0.77543
 C1497 C 0.07799 0.57181 0.78926
 C1498 C 0.06697 0.55269 0.79564
 C1499 C 0.07841 0.53524 0.80506
 C1500 C 0.10124 0.53639 0.80810
 C1501 C 0.11212 0.55601 0.80313
 C1502 C 0.10061 0.57359 0.79373
 H1503 H 0.04015 0.67454 0.75132
 H1504 H 0.06085 0.65139 0.77786
 H1505 H 0.05738 0.59848 0.73013
 H1506 H 0.03712 0.62135 0.70373
 H1507 H 0.08495 0.61571 0.78267
 H1508 H 0.05135 0.58223 0.76675
 H1509 H 0.04956 0.55091 0.79244
 H1510 H 0.06954 0.52043 0.80905
 H1511 H 0.12975 0.55727 0.80511
 H1512 H 0.10973 0.58794 0.78870
 C1513 C 0.05504 0.35256 0.26821
 C1514 C 0.06946 0.36648 0.25663
 C1515 C 0.07732 0.38544 0.26702
 C1516 C 0.07040 0.39022 0.28932
 C1517 C 0.05602 0.37634 0.30086
 C1518 C 0.04802 0.35746 0.29039
 C1519 C 0.09117 0.40064 0.25355
 C1520 C 0.10409 0.41578 0.26296
 C1521 C 0.11500 0.43321 0.24967
 C1522 C 0.11856 0.45329 0.26024
 C1523 C 0.12710 0.47082 0.24795
 C1524 C 0.13259 0.46852 0.22488
 C1525 C 0.13012 0.44814 0.21454
 C1526 C 0.12134 0.43061 0.22680
 H1527 H 0.04912 0.33817 0.25964
 H1528 H 0.07432 0.36254 0.23940
 H1529 H 0.07533 0.40501 0.29773
 H1530 H 0.05081 0.38068 0.31787
 H1531 H 0.08984 0.39977 0.23523
 H1532 H 0.10553 0.41664 0.28126
 H1533 H 0.11404 0.45563 0.27790
 H1534 H 0.12920 0.48628 0.25641
 H1535 H 0.13435 0.44597 0.19679
 H1536 H 0.11948 0.41516 0.21830
   
