data_POSCAR
  _audit_creation_date              2014-09-24
  _audit_creation_method            'ToBaCCo'
  _symmetry_space_group_name_H-M    'P1'
  _symmetry_Int_Tables_number       1
  _symmetry_cell_setting            triclinic
  loop_
  _symmetry_equiv_pos_as_xyz
 x,y,z
_cell_length_a 57.8054
_cell_length_b 57.7562
_cell_length_c 57.8239
_cell_angle_alpha 90.003300
_cell_angle_beta 90.009000
_cell_angle_gamma 89.958600
loop_
  _atom_site_label
  _atom_site_type_symbol
  _atom_site_fract_x
  _atom_site_fract_y
  _atom_site_fract_z
C1 C 0.36911 1.35324 0.33493
 C2 C 0.36924 1.33610 0.35209
 C3 C 0.35233 1.33604 0.36908
 C4 C 0.33509 1.35313 0.36910
 C5 C 0.33495 1.37008 0.35213
 C6 C 0.35206 1.37014 0.33493
 C7 C 0.38278 1.35694 0.31578
 N8 N 0.37439 1.37562 0.30437
 C9 C 0.35564 1.38386 0.31577
 C10 C 0.31574 1.38373 0.35585
 N11 N 0.30445 1.37539 0.37461
 C12 C 0.31598 1.35672 0.38287
 C13 C 0.35612 1.31692 0.38279
 N14 N 0.37486 1.30557 0.37448
 C15 C 0.38305 1.31700 0.35575
 H16 H 0.39743 1.34659 0.31032
 H17 H 0.34517 1.39843 0.31030
 H18 H 0.31016 1.39830 0.34546
 H19 H 0.31062 1.34630 0.39750
 H20 H 0.34579 1.31140 0.39740
 H21 H 0.39764 1.31155 0.34533
 C22 C 0.36899 0.85327 0.83584
 C23 C 0.36905 0.83610 0.85298
 C24 C 0.35211 0.83604 0.86993
 C25 C 0.33490 0.85317 0.86994
 C26 C 0.33484 0.87015 0.85299
 C27 C 0.35199 0.87019 0.83583
 C28 C 0.38268 0.85696 0.81671
 N29 N 0.37434 0.87565 0.80529
 C30 C 0.35561 0.88391 0.81669
 C31 C 0.31566 0.88383 0.85666
 N32 N 0.30429 0.87550 0.87537
 C33 C 0.31575 0.85679 0.88366
 C34 C 0.35585 0.81688 0.88361
 N35 N 0.37459 0.80551 0.87530
 C36 C 0.38282 0.81697 0.85662
 H37 H 0.39730 0.84659 0.81122
 H38 H 0.34518 0.89848 0.81119
 H39 H 0.31014 0.89843 0.84626
 H40 H 0.31031 0.84637 0.89825
 H41 H 0.34548 0.81134 0.89819
 H42 H 0.39742 0.81152 0.84622
 C43 C 0.86834 1.35272 0.83418
 C44 C 0.86840 1.33559 0.85135
 C45 C 0.85145 1.33558 0.86830
 C46 C 0.83424 1.35269 0.86827
 C47 C 0.83416 1.36964 0.85129
 C48 C 0.85132 1.36965 0.83413
 C49 C 0.88212 1.35643 0.81511
 N50 N 0.87382 1.37515 0.80369
 C51 C 0.85503 1.38341 0.81501
 C52 C 0.81501 1.38337 0.85503
 N53 N 0.80371 1.37508 0.87381
 C54 C 0.81517 1.35637 0.88206
 C55 C 0.85523 1.31650 0.88208
 N56 N 0.87400 1.30513 0.87385
 C57 C 0.88222 1.31651 0.85510
 H58 H 0.89680 1.34609 0.80973
 H59 H 0.84464 1.39803 0.80953
 H60 H 0.80950 1.39799 0.84467
 H61 H 0.80982 1.34600 0.89672
 H62 H 0.84489 1.31104 0.89671
 H63 H 0.89685 1.31106 0.84476
 C64 C 0.87002 0.85317 0.33486
 C65 C 0.87014 0.83602 0.35203
 C66 C 0.85323 0.83599 0.36901
 C67 C 0.83601 0.85309 0.36904
 C68 C 0.83587 0.87003 0.35208
 C69 C 0.85298 0.87009 0.33488
 C70 C 0.88368 0.85687 0.31570
 N71 N 0.87528 0.87557 0.30430
 C72 C 0.85655 0.88381 0.31572
 C73 C 0.81666 0.88366 0.35579
 N74 N 0.80535 0.87532 0.37453
 C75 C 0.81689 0.85667 0.38279
 C76 C 0.85699 0.81687 0.38272
 N77 N 0.87570 0.80548 0.37441
 C78 C 0.88392 0.81690 0.35568
 H79 H 0.89832 0.84652 0.31022
 H80 H 0.84608 0.89839 0.31027
 H81 H 0.81105 0.89822 0.34541
 H82 H 0.81150 0.84625 0.39739
 H83 H 0.84664 0.81136 0.39733
 H84 H 0.89849 0.81142 0.34527
 C85 C 0.62971 0.64624 0.33528
 C86 C 0.62972 0.66338 0.35247
 C87 C 0.64671 0.66336 0.36937
 C88 C 0.66390 0.64622 0.36929
 C89 C 0.66390 0.62928 0.35231
 C90 C 0.64670 0.62929 0.33520
 C91 C 0.61595 0.64261 0.31618
 N92 N 0.62425 0.62392 0.30471
 C93 C 0.64302 0.61561 0.31604
 C94 C 0.68309 0.61560 0.35591
 N95 N 0.69452 0.62388 0.37460
 C96 C 0.68308 0.64256 0.38294
 C97 C 0.64306 0.68249 0.38310
 N98 N 0.62432 0.69392 0.37489
 C99 C 0.61600 0.68252 0.35619
 H100 H 0.60133 0.65303 0.31077
 H101 H 0.65343 0.60103 0.31050
 H102 H 0.68860 0.60102 0.34549
 H103 H 0.68857 0.65295 0.39753
 H104 H 0.65349 0.68798 0.39766
 H105 H 0.60138 0.68804 0.34585
 C106 C 0.63128 0.14721 0.83426
 C107 C 0.63124 0.16428 0.85150
 C108 C 0.64820 0.16421 0.86844
 C109 C 0.66539 0.14708 0.86835
 C110 C 0.66545 0.13020 0.85130
 C111 C 0.64829 0.13026 0.83415
 C112 C 0.61750 0.14357 0.81517
 N113 N 0.62579 0.12488 0.80369
 C114 C 0.64457 0.11657 0.81499
 C115 C 0.68459 0.11644 0.85497
 N116 N 0.69592 0.12466 0.87376
 C117 C 0.68448 0.14334 0.88211
 C118 C 0.64445 0.18323 0.88231
 N119 N 0.62569 0.19465 0.87413
 C120 C 0.61745 0.18335 0.85534
 H121 H 0.60283 0.15394 0.80982
 H122 H 0.65495 0.10197 0.80946
 H123 H 0.69009 0.10186 0.84454
 H124 H 0.68987 0.15366 0.89679
 H125 H 0.65480 0.18863 0.89695
 H126 H 0.60281 0.18886 0.84502
 C127 C 1.13079 0.64670 0.83619
 C128 C 1.13077 0.66384 0.85336
 C129 C 1.14776 0.66385 0.87028
 C130 C 1.16496 0.64671 0.87023
 C131 C 1.16498 0.62977 0.85324
 C132 C 1.14779 0.62977 0.83612
 C133 C 1.11707 0.64306 0.81707
 N134 N 1.12538 0.62439 0.80559
 C135 C 1.14413 0.61610 0.81695
 C136 C 1.18416 0.61608 0.85684
 N137 N 1.19558 0.62438 0.87555
 C138 C 1.18414 0.64307 0.88390
 C139 C 1.14407 0.68299 0.88400
 N140 N 1.12532 0.69439 0.87575
 C141 C 1.11703 0.68297 0.85706
 H142 H 1.10245 0.65345 0.81163
 H143 H 1.15454 0.60153 0.81140
 H144 H 1.18966 0.60151 0.84641
 H145 H 1.18961 0.65347 0.89850
 H146 H 1.15447 0.68850 0.89857
 H147 H 1.10242 0.68845 0.84669
 C148 C 1.13115 0.14701 0.33461
 C149 C 1.13114 0.16407 0.35186
 C150 C 1.14813 0.16401 0.36876
 C151 C 1.16533 0.14688 0.36862
 C152 C 1.16535 0.13000 0.35157
 C153 C 1.14815 0.13007 0.33446
 C154 C 1.11735 0.14341 0.31553
 N155 N 1.12563 0.12475 0.30401
 C156 C 1.14442 0.11642 0.31528
 C157 C 1.18452 0.11627 0.35517
 N158 N 1.19591 0.12449 0.37392
 C159 C 1.18447 0.14316 0.38231
 C160 C 1.14443 0.18306 0.38260
 N161 N 1.12567 0.19448 0.37445
 C162 C 1.11737 0.18316 0.35569
 H163 H 1.10268 0.15381 0.31020
 H164 H 1.15482 0.10184 0.30970
 H165 H 1.19001 0.10171 0.34471
 H166 H 1.18991 0.15349 0.39698
 H167 H 1.15483 0.18848 0.39721
 H168 H 1.10273 0.18868 0.34539
 C169 C 0.63029 1.35292 0.66545
 C170 C 0.63025 1.33583 0.64822
 C171 C 0.64717 1.33589 0.63126
 C172 C 0.66434 1.35303 0.63131
 C173 C 0.66440 1.36992 0.64834
 C174 C 0.64727 1.36987 0.66551
 C175 C 0.61659 1.35653 0.68460
 N176 N 0.62491 1.37520 0.69607
 C177 C 0.64362 1.38353 0.68470
 C178 C 0.68354 1.38362 0.64468
 N179 N 0.69490 1.37539 0.62591
 C180 C 0.68344 1.35673 0.61758
 C181 C 0.64347 1.31682 0.61745
 N182 N 0.62477 1.30538 0.62569
 C183 C 0.61652 1.31672 0.64447
 H184 H 0.60198 1.34613 0.69003
 H185 H 0.65403 1.39811 0.69022
 H186 H 0.68907 1.39818 0.65510
 H187 H 0.68888 1.34639 0.60293
 H188 H 0.65383 1.31139 0.60282
 H189 H 0.60193 1.31119 0.65483
 C190 C 0.62979 0.85328 1.16486
 C191 C 0.62982 0.83612 1.14770
 C192 C 0.64677 0.83614 1.13076
 C193 C 0.66391 0.85332 1.13078
 C194 C 0.66388 0.87028 1.14773
 C195 C 0.64673 0.87027 1.16487
 C196 C 0.61608 0.85692 1.18400
 N197 N 0.62436 0.87565 1.19541
 C198 C 0.64306 0.88397 1.18402
 C199 C 0.68302 0.88400 1.14409
 N200 N 0.69445 0.87571 1.12540
 C201 C 0.68305 0.85699 1.11710
 C202 C 0.64314 0.81699 1.11706
 N203 N 0.62446 0.80554 1.12533
 C204 C 0.61615 0.81695 1.14402
 H205 H 0.60151 0.84649 1.18947
 H206 H 0.65345 0.89857 1.18952
 H207 H 0.68850 0.89859 1.15448
 H208 H 0.68856 0.84660 1.10252
 H209 H 0.65355 0.81150 1.10248
 H210 H 0.60156 0.81144 1.15440
 C211 C 1.13014 1.35400 1.16340
 C212 C 1.13015 1.33687 1.14622
 C213 C 1.14714 1.33685 1.12932
 C214 C 1.16433 1.35397 1.12939
 C215 C 1.16432 1.37092 1.14638
 C216 C 1.14713 1.37092 1.16349
 C217 C 1.11643 1.35761 1.18253
 N218 N 1.12474 1.37626 1.19403
 C219 C 1.14347 1.38456 1.18268
 C220 C 1.18352 1.38457 1.14282
 N221 N 1.19496 1.37626 1.12414
 C222 C 1.18353 1.35759 1.11576
 C223 C 1.14348 1.31769 1.11562
 N224 N 1.12475 1.30629 1.12387
 C225 C 1.11644 1.31774 1.14254
 H226 H 1.10184 1.34721 1.18797
 H227 H 1.15389 1.39909 1.18827
 H228 H 1.18901 1.39913 1.15328
 H229 H 1.18903 1.34718 1.10118
 H230 H 1.15391 1.31215 1.10108
 H231 H 1.10184 1.31225 1.15291
 C232 C 1.12892 0.85433 0.66291
 C233 C 1.12897 0.83720 0.64573
 C234 C 1.14590 0.83728 0.62877
 C235 C 1.16300 0.85449 0.62880
 C236 C 1.16296 0.87142 0.64579
 C237 C 1.14582 0.87134 0.66294
 C238 C 1.11529 0.85785 0.68212
 N239 N 1.12355 0.87652 0.69361
 C240 C 1.14218 0.88494 0.68217
 C241 C 1.18212 0.88512 0.64221
 N242 N 1.19358 0.87684 0.62353
 C243 C 1.18218 0.85816 0.61518
 C244 C 1.14237 0.81807 0.61511
 N245 N 1.12376 0.80655 0.62342
 C246 C 1.11540 0.81795 0.64210
 H247 H 1.10078 0.84736 0.68763
 H248 H 1.15257 0.89951 0.68773
 H249 H 1.18763 0.89965 0.65267
 H250 H 1.18773 0.84775 0.60062
 H251 H 1.15282 0.81259 0.60056
 H252 H 1.10089 0.81235 0.65253
 C253 C 0.36957 0.64647 0.66389
 C254 C 0.36954 0.66363 0.64674
 C255 C 0.35255 0.66365 0.62983
 C256 C 0.33539 0.64650 0.62987
 C257 C 0.33542 0.62953 0.64683
 C258 C 0.35262 0.62952 0.66394
 C259 C 0.38332 0.64282 0.68299
 N260 N 0.37506 0.62412 0.69444
 C261 C 0.35633 0.61583 0.68309
 C262 C 0.31626 0.61583 0.64321
 N263 N 0.30483 0.62416 0.62452
 C264 C 0.31622 0.64287 0.61620
 C265 C 0.35619 0.68281 0.61614
 N266 N 0.37491 0.69422 0.62439
 C267 C 0.38324 0.68278 0.64306
 H268 H 0.39792 0.65322 0.68844
 H269 H 0.34595 0.60124 0.68863
 H270 H 0.31079 0.60124 0.65362
 H271 H 0.31073 0.65329 0.60162
 H272 H 0.34576 0.68833 0.60158
 H273 H 0.39785 0.68827 0.65342
 C274 C 0.36973 0.14592 1.16315
 C275 C 0.36972 0.16311 1.14604
 C276 C 0.35269 0.16322 1.12917
 C277 C 0.33548 0.14613 1.12921
 C278 C 0.33549 0.12912 1.14613
 C279 C 0.35272 0.12902 1.16320
 C280 C 0.38348 0.14223 1.18224
 N281 N 0.37518 0.12356 1.19369
 C282 C 0.35641 0.11531 1.18235
 C283 C 0.31626 0.11551 1.14254
 N284 N 0.30481 0.12391 1.12390
 C285 C 0.31625 0.14260 1.11559
 C286 C 0.35633 0.18244 1.11554
 N287 N 0.37509 0.19378 1.12381
 C288 C 0.38343 0.18225 1.14241
 H289 H 0.39809 0.15260 1.18769
 H290 H 0.34598 0.10078 1.18791
 H291 H 0.31077 0.10092 1.15294
 H292 H 0.31075 0.15307 1.10106
 H293 H 0.34587 0.18805 1.10105
 H294 H 0.39805 0.18769 1.15279
 C295 C 0.87094 0.64587 1.16325
 C296 C 0.87091 0.66311 1.14618
 C297 C 0.85392 0.66320 1.12926
 C298 C 0.83676 0.64604 1.12922
 C299 C 0.83681 0.62900 1.14610
 C300 C 0.85399 0.62892 1.16321
 C301 C 0.88461 0.64219 1.18240
 N302 N 0.87630 0.62347 1.19379
 C303 C 0.85762 0.61519 1.18234
 C304 C 0.81762 0.61537 1.14248
 N305 N 0.80612 0.62377 1.12388
 C306 C 0.81753 0.64249 1.11561
 C307 C 0.85751 0.68246 1.11570
 N308 N 0.87620 0.69386 1.12404
 C309 C 0.88455 0.68232 1.14263
 H310 H 0.89915 0.65260 1.18796
 H311 H 0.84719 0.60063 1.18783
 H312 H 0.81213 0.60076 1.15286
 H313 H 0.81197 0.65298 1.10111
 H314 H 0.84706 0.68807 1.10120
 H315 H 0.89912 0.68779 1.15305
 C316 C 0.86994 0.14682 0.66477
 C317 C 0.87000 0.16393 0.64757
 C318 C 0.85308 0.16394 0.63060
 C319 C 0.83589 0.14682 0.63061
 C320 C 0.83582 0.12990 0.64761
 C321 C 0.85294 0.12990 0.66479
 C322 C 0.88362 0.14317 0.68394
 N323 N 0.87527 0.12450 0.69537
 C324 C 0.85655 0.11622 0.68397
 C325 C 0.81664 0.11625 0.64394
 N326 N 0.80528 0.12453 0.62520
 C327 C 0.81676 0.14319 0.61689
 C328 C 0.85679 0.18305 0.61686
 N329 N 0.87550 0.19445 0.62515
 C330 C 0.88374 0.18305 0.64388
 H331 H 0.89823 0.15355 0.68940
 H332 H 0.84610 0.10166 0.68947
 H333 H 0.81109 0.10169 0.65435
 H334 H 0.81132 0.15356 0.60227
 H335 H 0.84643 0.18854 0.60225
 H336 H 0.89832 0.18854 0.65429
 C337 C 1.35390 0.36957 0.66378
 C338 C 1.33679 0.36966 0.64659
 C339 C 1.33679 0.35273 0.62960
 C340 C 1.35390 0.33551 0.62961
 C341 C 1.37081 0.33541 0.64661
 C342 C 1.37081 0.35255 0.66380
 C343 C 1.35751 0.38322 0.68297
 N344 N 1.37615 0.37484 0.69443
 C345 C 1.38444 0.35613 0.68301
 C346 C 1.38447 0.31620 0.64296
 N347 N 1.37617 0.30486 0.62420
 C348 C 1.35752 0.31637 0.61588
 C349 C 1.31767 0.35647 0.61589
 N350 N 1.30627 0.37519 0.62420
 C351 C 1.31767 0.38342 0.64293
 H352 H 1.34713 0.39784 0.68846
 H353 H 1.39898 0.34567 0.68854
 H354 H 1.39901 0.31062 0.65339
 H355 H 1.34713 0.31096 0.60126
 H356 H 1.31217 0.34610 0.60129
 H357 H 1.31217 0.39799 0.65336
 C358 C 1.35297 0.86907 1.16502
 C359 C 1.33587 0.86915 1.14781
 C360 C 1.33586 0.85220 1.13086
 C361 C 1.35295 0.83496 1.13090
 C362 C 1.36986 0.83486 1.14791
 C363 C 1.36987 0.85203 1.16507
 C364 C 1.35663 0.88281 1.18414
 N365 N 1.37529 0.87445 1.19559
 C366 C 1.38355 0.85567 1.18424
 C367 C 1.38354 0.81567 1.14423
 N368 N 1.37527 0.80434 1.12546
 C369 C 1.35660 0.81583 1.11715
 C370 C 1.31679 0.85597 1.11708
 N371 N 1.30543 0.87475 1.12533
 C372 C 1.31681 0.88297 1.14408
 H373 H 1.34628 0.89748 1.18955
 H374 H 1.39811 0.84522 1.18975
 H375 H 1.39811 0.81013 1.15464
 H376 H 1.34624 0.81044 1.10250
 H377 H 1.31131 0.84562 1.10246
 H378 H 1.31135 0.89760 1.15445
 C379 C 0.85280 0.36865 1.16569
 C380 C 0.83562 0.36874 1.14856
 C381 C 0.83564 0.35189 1.13150
 C382 C 0.85282 0.33475 1.13136
 C383 C 0.86980 0.33464 1.14830
 C384 C 0.86979 0.35169 1.16556
 C385 C 0.85649 0.38229 1.18488
 N386 N 0.87526 0.37396 1.19618
 C387 C 0.88356 0.35529 1.18468
 C388 C 0.88357 0.31554 1.14445
 N389 N 0.87527 0.30428 1.12565
 C390 C 0.85651 0.31572 1.11748
 C391 C 0.81651 0.35566 1.11780
 N392 N 0.80508 0.37432 1.12620
 C393 C 0.81648 0.38249 1.14496
 H394 H 0.84610 0.39688 1.19043
 H395 H 0.89821 0.34489 1.19004
 H396 H 0.89820 0.31001 1.15478
 H397 H 0.84611 0.31036 1.10285
 H398 H 0.81105 0.34537 1.10312
 H399 H 0.81098 0.39704 1.15542
 C400 C 0.85370 0.87081 0.66357
 C401 C 0.83653 0.87083 0.64643
 C402 C 0.83655 0.85389 0.62946
 C403 C 0.85373 0.83673 0.62942
 C404 C 0.87069 0.83671 0.64635
 C405 C 0.87067 0.85385 0.66353
 C406 C 0.85731 0.88444 0.68278
 N407 N 0.87600 0.87610 0.69419
 C408 C 0.88433 0.85744 0.68271
 C409 C 0.88436 0.81752 0.64270
 N410 N 0.87605 0.80610 0.62402
 C411 C 0.85735 0.81756 0.61574
 C412 C 0.81735 0.85751 0.61583
 N413 N 0.80589 0.87617 0.62418
 C414 C 0.81732 0.88448 0.64285
 H415 H 0.84687 0.89898 0.68834
 H416 H 0.89890 0.84700 0.68820
 H417 H 0.89893 0.81198 0.65311
 H418 H 0.84693 0.81205 0.60119
 H419 H 0.81184 0.84710 0.60127
 H420 H 0.81178 0.89902 0.65330
 C421 C 0.64651 0.62906 0.66374
 C422 C 0.66362 0.62903 0.64655
 C423 C 0.66357 0.64597 0.62958
 C424 C 0.64642 0.66315 0.62960
 C425 C 0.62951 0.66319 0.64658
 C426 C 0.62956 0.64604 0.66376
 C427 C 0.64294 0.61541 0.68294
 N428 N 0.62429 0.62376 0.69440
 C429 C 0.61595 0.64245 0.68296
 C430 C 0.61584 0.68239 0.64296
 N431 N 0.62411 0.69380 0.62426
 C432 C 0.64276 0.68233 0.61592
 C433 C 0.68271 0.64233 0.61589
 N434 N 0.69418 0.62365 0.62419
 C435 C 0.68280 0.61535 0.64290
 H436 H 0.65337 0.60084 0.68844
 H437 H 0.60140 0.65288 0.68850
 H438 H 0.60131 0.68794 0.65340
 H439 H 0.65314 0.68782 0.60133
 H440 H 0.68819 0.65274 0.60131
 H441 H 0.68836 0.60080 0.65332
 C442 C 0.64706 1.13098 1.16542
 C443 C 0.66422 1.13100 1.14828
 C444 C 0.66421 1.14799 1.13136
 C445 C 0.64703 1.16515 1.13137
 C446 C 0.63007 1.16513 1.14831
 C447 C 0.63008 1.14794 1.16544
 C448 C 0.64338 1.11719 1.18450
 N449 N 0.62464 1.12545 1.19589
 C450 C 0.61634 1.14421 1.18454
 C451 C 0.61631 1.18427 1.14463
 N452 N 0.62459 1.19568 1.12592
 C453 C 0.64334 1.18429 1.11764
 C454 C 0.68333 1.14431 1.11763
 N455 N 0.69475 1.12557 1.12588
 C456 C 0.68335 1.11727 1.14458
 H457 H 0.65379 1.10256 1.18994
 H458 H 0.60171 1.15459 1.19001
 H459 H 0.60168 1.18972 1.15500
 H460 H 0.65372 1.18977 1.10305
 H461 H 0.68880 1.15471 1.10304
 H462 H 0.68883 1.10263 1.15492
 C463 C 0.14731 0.63157 1.16570
 C464 C 0.16443 0.63152 1.14853
 C465 C 0.16446 0.64851 1.13162
 C466 C 0.14738 0.66576 1.13167
 C467 C 0.13045 0.66582 1.14865
 C468 C 0.13041 0.64862 1.16578
 C469 C 0.14360 0.61776 1.18476
 N470 N 0.12491 0.62608 1.19619
 C471 C 0.11668 0.64491 1.18489
 C472 C 0.11675 0.68501 1.14497
 N473 N 0.12504 0.69636 1.12622
 C474 C 0.14372 0.68489 1.11793
 C475 C 0.18353 0.64474 1.11783
 N476 N 0.19487 0.62593 1.12604
 C477 C 0.18348 0.61768 1.14477
 H478 H 0.15393 0.60306 1.19013
 H479 H 0.10209 0.65532 1.19039
 H480 H 0.10215 0.69052 1.15534
 H481 H 0.15409 0.69029 1.10329
 H482 H 0.18901 0.65511 1.10323
 H483 H 0.18891 0.60301 1.15509
 C484 C 0.14735 1.13116 0.66555
 C485 C 0.16445 1.13112 0.64835
 C486 C 0.16444 1.14810 0.63142
 C487 C 0.14733 1.16533 0.63149
 C488 C 0.13043 1.16538 0.64849
 C489 C 0.13043 1.14819 0.66562
 C490 C 0.14367 1.11737 0.68463
 N491 N 0.12498 1.12569 0.69607
 C492 C 0.11672 1.14449 0.68475
 C493 C 0.11672 1.18456 0.64482
 N494 N 0.12498 1.19592 0.62607
 C495 C 0.14366 1.18446 0.61775
 C496 C 0.18348 1.14436 0.61762
 N497 N 0.19487 1.12558 0.62582
 C498 C 0.18352 1.11731 0.64456
 H499 H 0.15401 1.10268 0.69002
 H500 H 0.10214 1.15491 0.69025
 H501 H 0.10213 1.19007 0.65523
 H502 H 0.15401 1.18987 0.60311
 H503 H 0.18892 1.15473 0.60301
 H504 H 0.18899 1.10265 0.65488
 C505 C 1.35271 0.63108 0.33472
 C506 C 1.33563 0.63106 0.35192
 C507 C 1.33565 0.64802 0.36887
 C508 C 1.35277 0.66521 0.36882
 C509 C 1.36967 0.66524 0.35181
 C510 C 1.36964 0.64807 0.33465
 C511 C 1.35635 0.61731 0.31560
 N512 N 1.37502 0.62561 0.30415
 C513 C 1.38331 0.64438 0.31549
 C514 C 1.38339 0.68440 0.35547
 N515 N 1.37514 0.69576 0.37423
 C516 C 1.35646 0.68433 0.38256
 C517 C 1.31659 0.64430 0.38266
 N518 N 1.30519 0.62556 0.37442
 C519 C 1.31655 0.61730 0.35567
 H520 H 1.34597 0.60267 0.31020
 H521 H 1.39789 0.65478 0.30997
 H522 H 1.39796 0.68989 0.34505
 H523 H 1.34612 0.68976 0.39721
 H524 H 1.31114 0.65468 0.39728
 H525 H 1.31106 0.60267 0.34532
 C526 C 1.35320 1.13061 0.83611
 C527 C 1.33608 1.13060 0.85329
 C528 C 1.33609 1.14755 0.87025
 C529 C 1.35324 1.16471 0.87024
 C530 C 1.37017 1.16473 0.85326
 C531 C 1.37014 1.14758 0.83610
 C532 C 1.35681 1.11692 0.81696
 N533 N 1.37547 1.12522 0.80550
 C534 C 1.38379 1.14392 0.81691
 C535 C 1.38387 1.18389 0.85692
 N536 N 1.37559 1.19528 0.87565
 C537 C 1.35690 1.18386 0.88396
 C538 C 1.31695 1.14387 0.88395
 N539 N 1.30554 1.12517 0.87564
 C540 C 1.31695 1.11689 0.85693
 H541 H 1.34640 1.10233 0.81147
 H542 H 1.39835 1.15432 0.81139
 H543 H 1.39844 1.18939 0.84650
 H544 H 1.34651 1.18932 0.89857
 H545 H 1.31145 1.15426 0.89854
 H546 H 1.31145 1.10232 0.84652
 C547 C 0.85364 0.62923 0.83667
 C548 C 0.83650 0.62922 0.85383
 C549 C 0.83653 0.64615 0.87082
 C550 C 0.85370 0.66329 0.87084
 C551 C 0.87063 0.66330 0.85388
 C552 C 0.87060 0.64617 0.83669
 C553 C 0.85724 0.61559 0.81746
 N554 N 0.87592 0.62391 0.80604
 C555 C 0.88425 0.64257 0.81751
 C556 C 0.88431 0.68247 0.85753
 N557 N 0.87603 0.69389 0.87623
 C558 C 0.85735 0.68245 0.88453
 C559 C 0.81737 0.64253 0.88449
 N560 N 0.80591 0.62387 0.87615
 C561 C 0.81732 0.61557 0.85745
 H562 H 0.84681 0.60105 0.81192
 H563 H 0.89881 0.65298 0.81202
 H564 H 0.89886 0.68800 0.84711
 H565 H 0.84695 0.68796 0.89910
 H566 H 0.81188 0.65293 0.89908
 H567 H 0.81177 0.60103 0.84701
 C568 C 0.85430 1.12846 0.33723
 C569 C 0.83709 1.12847 0.35431
 C570 C 0.83706 1.14540 0.37130
 C571 C 0.85424 1.16253 0.37139
 C572 C 0.87125 1.16252 0.35450
 C573 C 0.87128 1.14539 0.33733
 C574 C 0.85792 1.11487 0.31799
 N575 N 0.87663 1.12320 0.30663
 C576 C 0.88495 1.14182 0.31816
 C577 C 0.88490 1.18170 0.35816
 N578 N 0.87654 1.19316 0.37680
 C579 C 0.85783 1.18173 0.38505
 C580 C 0.81781 1.14182 0.38485
 N581 N 0.80635 1.12319 0.37644
 C582 C 0.81785 1.11486 0.35781
 H583 H 0.84747 1.10037 0.31237
 H584 H 0.89951 1.15226 0.31270
 H585 H 0.89948 1.18722 0.34778
 H586 H 0.84735 1.18728 0.39955
 H587 H 0.81224 1.15225 0.39939
 H588 H 0.81233 1.10034 0.34733
 C589 C 0.64691 0.37026 0.33529
 C590 C 0.66410 0.37023 0.35240
 C591 C 0.66409 0.35327 0.36936
 C592 C 0.64691 0.33615 0.36941
 C593 C 0.62992 0.33617 0.35250
 C594 C 0.62992 0.35333 0.33534
 C595 C 0.64322 0.38397 0.31614
 N596 N 0.62446 0.37569 0.30480
 C597 C 0.61617 0.35700 0.31624
 C598 C 0.61620 0.31704 0.35620
 N599 N 0.62452 0.30562 0.37489
 C600 C 0.64325 0.31701 0.38313
 C601 C 0.68325 0.35689 0.38304
 N602 N 0.69470 0.37557 0.37473
 C603 C 0.68328 0.38389 0.35604
 H604 H 0.65363 0.39855 0.31062
 H605 H 0.60154 0.34661 0.31081
 H606 H 0.60159 0.31156 0.34585
 H607 H 0.65367 0.31150 0.39769
 H608 H 0.68874 0.34649 0.39762
 H609 H 0.68879 0.39847 0.34565
 C610 C 0.64603 0.87088 0.83669
 C611 C 0.66319 0.87091 0.85382
 C612 C 0.66322 0.85396 0.87079
 C613 C 0.64608 0.83679 0.87083
 C614 C 0.62912 0.83676 0.85389
 C615 C 0.62909 0.85391 0.83672
 C616 C 0.64238 0.88452 0.81749
 N617 N 0.62370 0.87617 0.80608
 C618 C 0.61542 0.85749 0.81755
 C619 C 0.61549 0.81756 0.85754
 N620 N 0.62383 0.80614 0.87622
 C621 C 0.64250 0.81761 0.88450
 C622 C 0.68240 0.85760 0.88443
 N623 N 0.69383 0.87628 0.87609
 C624 C 0.68237 0.88458 0.85741
 H625 H 0.65278 0.89908 0.81194
 H626 H 0.60087 0.84705 0.81206
 H627 H 0.60093 0.81201 0.84714
 H628 H 0.65294 0.81211 0.89905
 H629 H 0.68794 0.84719 0.89899
 H630 H 0.68788 0.89914 0.84697
 C631 C 0.14656 0.37070 0.83555
 C632 C 0.16365 0.37063 0.85277
 C633 C 0.16354 0.35366 0.86971
 C634 C 0.14635 0.33655 0.86963
 C635 C 0.12946 0.33660 0.85262
 C636 C 0.12956 0.35378 0.83548
 C637 C 0.14304 0.38441 0.81638
 N638 N 0.12437 0.37615 0.80490
 C639 C 0.11596 0.35746 0.81626
 C640 C 0.11573 0.31745 0.85620
 N641 N 0.12394 0.30599 0.87491
 C642 C 0.14262 0.31738 0.88328
 C643 C 0.18267 0.35722 0.88345
 N644 N 0.19418 0.37589 0.87521
 C645 C 0.18284 0.38425 0.85649
 H646 H 0.15352 0.39896 0.81094
 H647 H 0.10139 0.34708 0.81071
 H648 H 0.10119 0.31198 0.84574
 H649 H 0.15297 0.31183 0.89788
 H650 H 0.18810 0.34678 0.89803
 H651 H 0.18843 0.39881 0.84611
 C652 C 0.14629 0.87082 0.33540
 C653 C 0.16341 0.87081 0.35257
 C654 C 0.16342 0.85382 0.36948
 C655 C 0.14630 0.83663 0.36943
 C656 C 0.12937 0.83662 0.35246
 C657 C 0.12936 0.85382 0.33534
 C658 C 0.14267 0.88454 0.31626
 N659 N 0.12401 0.87622 0.30480
 C660 C 0.11571 0.85748 0.31615
 C661 C 0.11573 0.81741 0.35607
 N662 N 0.12404 0.80597 0.37475
 C663 C 0.14269 0.81743 0.38308
 C664 C 0.18257 0.85745 0.38318
 N665 N 0.19398 0.87617 0.37492
 C666 C 0.18256 0.88450 0.35625
 H667 H 0.15308 0.89914 0.31081
 H668 H 0.10117 0.84703 0.31061
 H669 H 0.10118 0.81189 0.34565
 H670 H 0.15309 0.81193 0.39766
 H671 H 0.18808 0.84700 0.39773
 H672 H 0.18806 0.89910 0.34587
 O673 O 1.08356 1.02304 1.11530
 O674 O 1.11046 1.02314 1.14235
 C675 C 1.09164 1.03100 1.13412
 C676 C 1.07926 1.04993 1.14621
 C677 C 1.08677 1.05776 1.16795
 H678 H 1.10151 1.04959 1.17616
 O679 O 0.91650 0.97769 1.11540
 O680 O 0.88967 0.97771 1.14251
 C681 C 0.90846 0.96980 1.13426
 C682 C 0.92085 0.95088 1.14637
 C683 C 0.91333 0.94303 1.16810
 H684 H 0.89856 0.95117 1.17629
 O685 O 1.02253 1.11570 1.08325
 O686 O 1.02252 1.14286 1.11005
 C687 C 1.03040 1.13460 1.09126
 C688 C 1.04924 1.14671 1.07882
 C689 C 1.05704 1.16852 1.08624
 H690 H 1.04891 1.17678 1.10097
 O691 O 0.97767 0.88496 1.08364
 O692 O 0.97770 0.85787 1.11053
 C693 C 0.96981 0.86608 1.09172
 C694 C 0.95094 0.85393 1.07935
 C695 C 0.94324 0.83209 1.08678
 H696 H 0.95147 0.82384 1.10146
 O697 O 1.11509 1.08368 1.02232
 O698 O 1.14212 1.11061 1.02225
 C699 C 1.13393 1.09181 1.03018
 C700 C 1.14610 1.07951 1.04910
 C701 C 1.16791 1.08700 1.05674
 H702 H 1.17635 1.10131 1.04807
 O703 O 0.88479 0.91680 1.02288
 O704 O 0.85777 0.88986 1.02293
 C705 C 0.86596 0.90870 1.03078
 C706 C 0.85381 0.92106 1.04966
 C707 C 0.83205 0.91354 1.05740
 H708 H 0.82362 0.89916 1.04882
 O709 O 0.97754 1.08395 1.11499
 O710 O 0.97748 1.11093 1.14198
 C711 C 0.96967 1.09205 1.13384
 C712 C 0.95091 1.07961 1.14607
 C713 C 0.94343 1.08695 1.16798
 H714 H 0.95209 1.10127 1.17642
 O715 O 1.02269 0.91681 1.11527
 O716 O 1.02277 0.88990 1.14232
 C717 C 1.03059 0.90875 1.13412
 C718 C 1.04943 0.92115 1.14627
 C719 C 1.05714 0.91365 1.16805
 H720 H 1.04856 0.89928 1.17647
 O721 O 1.11528 0.97785 1.08371
 O722 O 1.14233 0.97789 1.11061
 C723 C 1.13415 0.96999 1.09180
 C724 C 1.14635 0.95112 1.07945
 C725 C 1.16811 0.94337 1.08703
 H726 H 1.17647 0.95193 1.10144
 O727 O 0.88476 1.02288 1.08378
 O728 O 0.85778 1.02298 1.11074
 C729 C 0.86593 1.03081 1.09189
 C730 C 0.85375 1.04967 1.07949
 C731 C 0.83203 1.05754 1.08707
 H732 H 0.82391 1.04948 1.10190
 O733 O 0.91622 1.11535 1.02245
 O734 O 0.88930 1.14242 1.02247
 C735 C 0.90813 1.13422 1.03032
 C736 C 0.92051 1.14642 1.04917
 C737 C 0.91293 1.16818 1.05692
 H738 H 0.89849 1.17657 1.04840
 O739 O 1.08392 0.88519 1.02284
 O740 O 1.11088 0.85816 1.02287
 C741 C 1.09206 0.86635 1.03075
 C742 C 1.07973 0.85420 1.04965
 C743 C 1.08736 0.83247 1.05749
 H744 H 1.10181 0.82408 1.04899
 O745 O 0.91660 1.02285 1.11529
 O746 O 0.88980 1.02294 1.14243
 C747 C 0.90860 1.03077 1.13416
 C748 C 0.92108 1.04962 1.14626
 C749 C 0.91383 1.05722 1.16816
 H750 H 0.89921 1.04896 1.17647
 O751 O 1.08359 0.97788 1.11536
 O752 O 1.11047 0.97791 1.14242
 C753 C 1.09167 0.97000 1.13422
 C754 C 1.07929 0.95112 1.14636
 C755 C 1.08677 0.94335 1.16814
 H756 H 1.10150 0.95152 1.17636
 O757 O 1.02282 0.88504 1.08367
 O758 O 1.02289 0.85798 1.11057
 C759 C 1.03077 0.86621 1.09177
 C760 C 1.04972 0.85410 1.07945
 C761 C 1.05761 0.83238 1.08704
 H762 H 1.04946 0.82420 1.10180
 O763 O 0.97740 1.11562 1.08330
 O764 O 0.97733 1.14277 1.11011
 C765 C 0.96945 1.13448 1.09134
 C766 C 0.95052 1.14657 1.07897
 C767 C 0.94267 1.16833 1.08649
 H768 H 0.95082 1.17654 1.10123
 O769 O 0.88457 1.08363 1.02255
 O770 O 0.85750 1.11056 1.02257
 C771 C 0.86575 1.09175 1.03047
 C772 C 0.85367 1.07946 1.04945
 C773 C 0.83196 1.08707 1.05726
 H774 H 0.82350 1.10143 1.04866
 O775 O 1.11556 0.91692 1.02272
 O776 O 1.14268 0.89004 1.02274
 C777 C 1.13443 0.90886 1.03060
 C778 C 1.14654 0.92126 1.04948
 C779 C 1.16829 0.91375 1.05731
 H780 H 1.17651 0.89899 1.04917
 O781 O 0.97757 0.91669 1.11528
 O782 O 0.97760 0.88977 1.14232
 C783 C 0.96968 0.90859 1.13412
 C784 C 0.95077 0.92093 1.14626
 C785 C 0.94301 0.91334 1.16799
 H786 H 0.95159 0.89893 1.17639
 O787 O 1.02264 1.08411 1.11504
 O788 O 1.02263 1.11112 1.14200
 C789 C 1.03053 1.09227 1.13386
 C790 C 1.04942 1.07994 1.14605
 C791 C 1.05715 1.08751 1.16780
 H792 H 1.04860 1.10195 1.17617
 O793 O 0.88476 0.97774 1.08380
 O794 O 0.85777 0.97777 1.11074
 C795 C 0.86593 0.96987 1.09191
 C796 C 0.85376 0.95100 1.07955
 C797 C 0.83200 0.94322 1.08706
 H798 H 0.82382 0.95138 1.10182
 O799 O 1.11518 1.02298 1.08359
 O800 O 1.14226 1.02309 1.11047
 C801 C 1.13403 1.03090 1.09163
 C802 C 1.14617 1.04972 1.07915
 C803 C 1.16797 1.05748 1.08655
 H804 H 1.17618 1.04936 1.10132
 O805 O 0.91655 0.88514 1.02288
 O806 O 0.88967 0.85805 1.02293
 C807 C 0.90850 0.86627 1.03076
 C808 C 0.92092 0.85407 1.04957
 C809 C 0.91348 0.83224 1.05722
 H810 H 0.89911 0.82382 1.04864
 O811 O 1.08340 1.11540 1.02225
 O812 O 1.11028 1.14248 1.02218
 C813 C 1.09148 1.13429 1.03008
 C814 C 1.07913 1.14652 1.04891
 C815 C 1.08667 1.16832 1.05656
 H816 H 1.10103 1.17671 1.04793
 Cu817 Cu 1.09670 1.00043 1.09681
 Cu818 Cu 1.12909 1.00051 1.12918
 Cu819 Cu 0.90334 1.00028 1.09687
 Cu820 Cu 0.87105 1.00037 1.12933
 Cu821 Cu 1.00004 1.09715 1.09645
 Cu822 Cu 0.99998 1.12965 1.12874
 Cu823 Cu 1.00018 0.90357 1.09676
 Cu824 Cu 1.00025 0.87117 1.12915
 C825 C 1.06045 1.06100 1.13551
 H826 H 1.05477 1.05525 1.11861
 C827 C 1.07581 1.07652 1.17890
 C828 C 0.93971 0.93984 1.13571
 H829 H 0.94541 0.94559 1.11881
 C830 C 0.92431 0.92428 1.17906
 C831 C 1.06028 1.13597 1.06001
 H832 H 1.05457 1.11902 1.05440
 C833 C 1.07574 1.17946 1.07521
 C834 C 0.93980 0.86466 1.06060
 H835 H 0.94544 0.88164 1.05498
 C836 C 0.92453 0.82110 1.07580
 C837 C 1.13548 1.06072 1.06028
 H838 H 1.11853 1.05504 1.05467
 C839 C 1.17900 1.07609 1.07544
 C840 C 0.86440 0.93994 1.06071
 H841 H 0.88132 0.94563 1.05502
 C842 C 0.82100 0.92451 1.07608
 C843 C 0.93976 1.06079 1.13546
 H844 H 0.94525 1.05522 1.11843
 C845 C 0.92492 1.07585 1.17918
 C846 C 1.06048 0.94003 1.13568
 H847 H 1.05482 0.94572 1.11875
 C848 C 1.07579 0.92463 1.17913
 C849 C 1.13583 0.94009 1.06053
 H850 H 1.11891 0.94578 1.05479
 C851 C 1.17922 0.92470 1.07607
 C852 C 0.86431 1.06062 1.06054
 H853 H 0.88120 1.05486 1.05480
 C854 C 0.82099 1.07622 1.07605
 C855 C 0.93946 1.13587 1.06016
 H856 H 0.94521 1.11895 1.05447
 C857 C 0.92390 1.17928 1.07557
 C858 C 1.06077 0.86475 1.06061
 H859 H 1.05499 0.88164 1.05486
 C860 C 1.07640 0.82141 1.07616
 O861 O 1.08324 0.97757 0.88460
 O862 O 1.11007 0.97749 0.85749
 C863 C 1.09128 0.96964 0.86575
 C864 C 1.07887 0.95074 0.85369
 C865 C 1.08617 0.94305 0.83182
 H866 H 1.10079 0.95131 0.82350
 O867 O 0.91629 1.02266 0.88474
 O868 O 0.88939 1.02254 0.85769
 C869 C 0.90818 1.03048 0.86588
 C870 C 0.92048 1.04938 0.85369
 C871 C 0.91291 1.05708 0.83193
 H872 H 0.89855 1.04846 0.82353
 O873 O 0.97705 1.11535 0.91627
 O874 O 0.97696 1.14245 0.88940
 C875 C 0.96912 1.13421 0.90821
 C876 C 0.95022 1.14634 0.92059
 C877 C 0.94233 1.16807 0.91303
 H878 H 0.95042 1.17624 0.89824
 O879 O 1.02271 0.88476 0.91690
 O880 O 1.02273 0.85760 0.89010
 C881 C 1.03063 0.86589 0.90886
 C882 C 1.04956 0.85380 0.92124
 C883 C 1.05739 0.83201 0.91379
 H884 H 1.04923 0.82375 0.89908
 O885 O 1.11542 0.91685 0.97757
 O886 O 1.14255 0.88998 0.97755
 C887 C 1.13426 0.90877 0.96963
 C888 C 1.14629 0.92109 0.95065
 C889 C 1.16803 0.91357 0.94281
 H890 H 1.17629 0.89886 0.95100
 O891 O 0.88446 1.08361 0.97741
 O892 O 0.85739 1.11054 0.97738
 C893 C 0.86561 1.09171 0.96951
 C894 C 0.85350 1.07937 0.95058
 C895 C 0.83179 1.08695 0.94273
 H896 H 0.82335 1.10136 0.95125
 O897 O 1.02221 1.08369 0.88457
 O898 O 1.02220 1.11065 0.85756
 C899 C 1.03010 1.09181 0.86575
 C900 C 1.04903 1.07950 0.85361
 C901 C 1.05686 1.08716 0.83194
 H902 H 1.04831 1.10160 0.82357
 O903 O 0.97747 0.91638 0.88528
 O904 O 0.97743 0.88938 0.85831
 C905 C 0.96956 0.90824 0.86647
 C906 C 0.95071 0.92062 0.85428
 C907 C 0.94312 0.91316 0.83244
 H908 H 0.95177 0.89880 0.82403
 O909 O 1.11495 1.02272 0.91617
 O910 O 1.14198 1.02269 0.88926
 C911 C 1.13380 1.03058 0.90808
 C912 C 1.14598 1.04944 0.92045
 C913 C 1.16777 1.05711 0.91297
 H914 H 1.17619 1.04852 0.89860
 O915 O 0.88470 0.97758 0.91657
 O916 O 0.85764 0.97741 0.88968
 C917 C 0.86585 0.96964 0.90853
 C918 C 0.85371 0.95084 0.92101
 C919 C 0.83187 0.94313 0.91364
 H920 H 0.82364 0.95128 0.89891
 O921 O 1.08331 1.11526 0.97715
 O922 O 1.11019 1.14234 0.97704
 C923 C 1.09136 1.13411 0.96922
 C924 C 1.07894 1.14627 0.95037
 C925 C 1.08641 1.16808 0.94267
 H926 H 1.10079 1.17651 0.95123
 O927 O 0.91650 0.88506 0.97780
 O928 O 0.88962 0.85798 0.97782
 C929 C 0.90844 0.86617 0.96996
 C930 C 0.92084 0.85393 0.95117
 C931 C 0.91338 0.83208 0.94357
 H932 H 0.89901 0.82368 0.95217
 O933 O 0.91643 0.97749 0.88497
 O934 O 0.88955 0.97731 0.85790
 C935 C 0.90838 0.96950 0.86615
 C936 C 0.92083 0.95060 0.85408
 C937 C 0.91347 0.94287 0.83225
 H938 H 0.89879 0.95108 0.82397
 O939 O 1.08328 1.02275 0.88449
 O940 O 1.11014 1.02273 0.85742
 C941 C 1.09134 1.03064 0.86564
 C942 C 1.07897 1.04957 0.85352
 C943 C 1.08657 1.05750 0.83184
 H944 H 1.10138 1.04941 0.82369
 O945 O 0.97758 0.88470 0.91696
 O946 O 0.97754 0.85753 0.89015
 C947 C 0.96969 0.86581 0.90894
 C948 C 0.95083 0.85370 0.92137
 C949 C 0.94311 0.83186 0.91399
 H950 H 0.95132 0.82357 0.89932
 O951 O 1.02218 1.11537 0.91625
 O952 O 1.02215 1.14249 0.88940
 C953 C 1.03005 1.13425 0.90819
 C954 C 1.04893 1.14638 0.92057
 C955 C 1.05667 1.16819 0.91310
 H956 H 1.04846 1.17641 0.89839
 O957 O 0.88480 0.91678 0.97776
 O958 O 0.85777 0.88985 0.97778
 C959 C 0.86596 0.90867 0.96989
 C960 C 0.85378 0.92101 0.95101
 C961 C 0.83195 0.91356 0.94341
 H962 H 0.82351 0.89925 0.95208
 O963 O 1.11510 1.08363 0.97719
 O964 O 1.14214 1.11055 0.97709
 C965 C 1.13394 1.09171 0.96927
 C966 C 1.14608 1.07929 0.95041
 C967 C 1.16787 1.08674 0.94268
 H968 H 1.17609 1.10147 0.95087
 O969 O 1.02256 0.91636 0.88512
 O970 O 1.02257 0.88936 0.85814
 C971 C 1.03039 0.90824 0.86626
 C972 C 1.04913 0.92067 0.85398
 C973 C 1.05666 0.91324 0.83211
 H974 H 1.04805 0.89885 0.82373
 O975 O 0.97709 1.08370 0.88454
 O976 O 0.97701 1.11062 0.85750
 C977 C 0.96918 1.09178 0.86570
 C978 C 0.95032 1.07935 0.85357
 C979 C 0.94249 1.08684 0.83181
 H980 H 0.95059 1.10161 0.82361
 O981 O 0.88463 1.02271 0.91643
 O982 O 0.85758 1.02261 0.88954
 C983 C 0.86577 1.03056 0.90833
 C984 C 0.85357 1.04945 0.92066
 C985 C 0.83186 1.05729 0.91304
 H986 H 0.82375 1.04917 0.89823
 O987 O 1.11495 0.97759 0.91624
 O988 O 1.14195 0.97749 0.88930
 C989 C 1.13379 0.96967 0.90815
 C990 C 1.14601 0.95083 0.92055
 C991 C 1.16776 0.94307 0.91297
 H992 H 1.17609 0.95158 0.89852
 O993 O 1.08381 0.88511 0.97774
 O994 O 1.11077 0.85808 0.97772
 C995 C 1.09192 0.86624 0.96988
 C996 C 1.07954 0.85401 0.95107
 C997 C 1.08711 0.83222 0.94339
 H998 H 1.10152 0.82385 0.95196
 O999 O 0.91616 1.11527 0.97733
 O1000 O 0.88924 1.14234 0.97732
 C1001 C 0.90805 1.13412 0.96944
 C1002 C 0.92035 1.14626 0.95052
 C1003 C 0.91272 1.16800 0.94272
 H1004 H 0.89831 1.17640 0.95128
 Cu1005 Cu 1.09640 1.00017 0.90306
 Cu1006 Cu 1.12874 1.00009 0.87065
 Cu1007 Cu 0.90321 1.00012 0.90337
 Cu1008 Cu 0.87083 0.99995 0.87098
 Cu1009 Cu 1.09654 1.09679 0.99973
 Cu1010 Cu 1.12889 1.12921 0.99963
 Cu1011 Cu 1.09699 0.90372 1.00022
 Cu1012 Cu 1.12944 0.87136 1.00022
 Cu1013 Cu 0.90304 1.09676 0.99993
 Cu1014 Cu 0.87064 1.12917 0.99994
 Cu1015 Cu 0.90335 0.90365 1.00032
 Cu1016 Cu 0.87099 0.87122 1.00037
 Cu1017 Cu 0.99963 1.09683 0.90310
 Cu1018 Cu 0.99957 1.12927 0.87076
 Cu1019 Cu 1.00009 0.90325 0.90376
 Cu1020 Cu 1.00006 0.87074 0.87148
 C1021 C 1.06021 0.93956 0.86451
 H1022 H 1.05468 0.94520 0.88150
 C1023 C 1.07515 0.92433 0.82088
 C1024 C 0.93933 1.06048 0.86425
 H1025 H 0.94507 1.05482 0.88116
 C1026 C 0.92380 1.07579 0.82084
 C1027 C 0.93925 1.13569 0.93948
 H1028 H 0.94503 1.11879 0.94520
 C1029 C 0.92359 1.17904 0.92400
 C1030 C 1.06062 0.86455 0.94002
 H1031 H 1.05489 0.88149 0.94566
 C1032 C 1.07615 0.82108 0.92477
 C1033 C 1.13553 0.93986 0.93953
 H1034 H 1.11862 0.94556 0.94528
 C1035 C 1.17891 0.92446 0.92399
 C1036 C 0.86413 1.06047 0.93957
 H1037 H 0.88102 1.05472 0.94534
 C1038 C 0.82082 1.07602 0.92398
 C1039 C 1.06006 1.06056 0.86415
 H1040 H 1.05431 1.05475 0.88100
 C1041 C 1.07562 1.07629 0.82091
 C1042 C 0.93959 0.93949 0.86485
 H1043 H 0.94516 0.94515 0.88182
 C1044 C 0.92454 0.92418 0.82128
 C1045 C 1.13539 1.06050 0.93932
 H1046 H 1.11844 1.05486 0.94498
 C1047 C 1.17887 1.07574 0.92399
 C1048 C 0.86441 0.93980 0.93984
 H1049 H 0.88138 0.94545 0.94542
 C1050 C 0.82085 0.92452 0.92475
 C1051 C 1.06006 1.13568 0.93935
 H1052 H 1.05440 1.11872 0.94501
 C1053 C 1.07538 1.17918 0.92405
 C1054 C 0.93971 0.86448 0.94010
 H1055 H 0.94536 0.88147 0.94568
 C1056 C 0.92441 0.82090 0.92500
 O1057 O 0.97765 0.41586 0.38490
 O1058 O 0.97767 0.38885 0.35794
 C1059 C 0.96976 0.40769 0.36608
 C1060 C 0.95086 0.42003 0.35390
 C1061 C 0.94299 0.41237 0.33222
 H1062 H 0.95109 0.39752 0.32412
 O1063 O 1.02289 0.58348 0.38464
 O1064 O 1.02283 0.61038 0.35757
 C1065 C 1.03075 0.59157 0.36578
 C1066 C 1.04963 0.57919 0.35363
 C1067 C 1.05748 0.58679 0.33193
 H1068 H 1.04937 0.60162 0.32380
 O1069 O 0.88515 0.47707 0.41643
 O1070 O 0.85809 0.47703 0.38954
 C1071 C 0.86629 0.46918 0.40837
 C1072 C 0.85412 0.45036 0.42081
 C1073 C 0.83234 0.44261 0.41334
 H1074 H 0.82417 0.45074 0.39856
 O1075 O 1.11534 0.52242 0.41639
 O1076 O 1.14237 0.52236 0.38948
 C1077 C 1.13418 0.53028 0.40829
 C1078 C 1.14634 0.54920 0.42059
 C1079 C 1.16805 0.55698 0.41298
 H1080 H 1.17643 0.54840 0.39858
 O1081 O 0.91680 0.38465 0.47773
 O1082 O 0.88995 0.35755 0.47777
 C1083 C 0.90876 0.36575 0.46990
 C1084 C 0.92116 0.35352 0.45110
 C1085 C 0.91374 0.33165 0.44355
 H1086 H 0.89941 0.32322 0.45220
 O1087 O 1.08381 0.61518 0.47726
 O1088 O 1.11067 0.64227 0.47721
 C1089 C 1.09186 0.63405 0.46935
 C1090 C 1.07947 0.64619 0.45049
 C1091 C 1.08691 0.66801 0.44278
 H1092 H 1.10126 0.67647 0.45135
 O1093 O 0.91687 0.52212 0.38471
 O1094 O 0.89000 0.52214 0.35763
 C1095 C 0.90882 0.53001 0.36585
 C1096 C 0.92123 0.54886 0.35370
 C1097 C 0.91383 0.55654 0.33186
 H1098 H 0.89914 0.54831 0.32362
 O1099 O 1.08360 0.47725 0.38481
 O1100 O 1.11046 0.47716 0.35773
 C1101 C 1.09165 0.46932 0.36597
 C1102 C 1.07923 0.45044 0.35386
 C1103 C 1.08660 0.44277 0.33201
 H1104 H 1.10127 0.45101 0.32376
 O1105 O 1.02289 0.38438 0.41668
 O1106 O 1.02297 0.35722 0.38987
 C1107 C 1.03084 0.36551 0.40865
 C1108 C 1.04975 0.35342 0.42105
 C1109 C 1.05762 0.33166 0.41356
 H1110 H 1.04949 0.32343 0.39881
 O1111 O 0.97772 0.61510 0.41632
 O1112 O 0.97760 0.64216 0.38942
 C1113 C 0.96978 0.63394 0.40824
 C1114 C 0.95090 0.64608 0.42062
 C1115 C 0.94312 0.66788 0.41314
 H1116 H 0.95128 0.67609 0.39841
 O1117 O 0.88506 0.58323 0.47722
 O1118 O 0.85797 0.61013 0.47718
 C1119 C 0.86621 0.59130 0.46932
 C1120 C 0.85408 0.57892 0.45045
 C1121 C 0.83229 0.58641 0.44272
 H1122 H 0.82383 0.60078 0.45130
 O1123 O 1.11566 0.41633 0.47749
 O1124 O 1.14275 0.38943 0.47749
 C1125 C 1.13450 0.40823 0.46958
 C1126 C 1.14657 0.42056 0.45063
 C1127 C 1.16828 0.41298 0.44272
 H1128 H 1.17650 0.39821 0.45084
 O1129 O 0.97779 0.58326 0.38479
 O1130 O 0.97767 0.61016 0.35772
 C1131 C 0.96987 0.59131 0.36594
 C1132 C 0.95105 0.57886 0.35379
 C1133 C 0.94343 0.58626 0.33195
 H1134 H 0.95203 0.60061 0.32350
 O1135 O 1.02275 0.41609 0.38502
 O1136 O 1.02284 0.38910 0.35804
 C1137 C 1.03065 0.40798 0.36619
 C1138 C 1.04944 0.42042 0.35399
 C1139 C 1.05704 0.41300 0.33214
 H1140 H 1.04845 0.39863 0.32371
 O1141 O 1.11537 0.47725 0.41641
 O1142 O 1.14238 0.47715 0.38948
 C1143 C 1.13420 0.46932 0.40831
 C1144 C 1.14637 0.45042 0.42066
 C1145 C 1.16808 0.44262 0.41303
 H1146 H 1.17643 0.45116 0.39859
 O1147 O 0.88511 0.52221 0.41629
 O1148 O 0.85806 0.52223 0.38938
 C1149 C 0.86626 0.53011 0.40819
 C1150 C 0.85408 0.54898 0.42056
 C1151 C 0.83229 0.55673 0.41307
 H1152 H 0.82412 0.54855 0.39832
 O1153 O 0.91671 0.61495 0.47721
 O1154 O 0.88976 0.64201 0.47717
 C1155 C 0.90860 0.63381 0.46932
 C1156 C 0.92095 0.64599 0.45046
 C1157 C 0.91342 0.66779 0.44275
 H1158 H 0.89904 0.67621 0.45132
 O1159 O 1.08396 0.38468 0.47762
 O1160 O 1.11089 0.35761 0.47764
 C1161 C 1.09205 0.36580 0.46977
 C1162 C 1.07970 0.35359 0.45092
 C1163 C 1.08730 0.33182 0.44319
 H1164 H 1.10172 0.32344 0.45176
 O1165 O 1.08374 0.52242 0.38464
 O1166 O 1.11063 0.52237 0.35759
 C1167 C 1.09183 0.53029 0.36579
 C1168 C 1.07952 0.54924 0.35365
 C1169 C 1.08712 0.55707 0.33195
 H1170 H 1.10153 0.54851 0.32354
 O1171 O 0.91678 0.47695 0.38472
 O1172 O 0.88988 0.47690 0.35768
 C1173 C 0.90868 0.46900 0.36591
 C1174 C 0.92099 0.45001 0.35384
 C1175 C 0.91337 0.44213 0.33216
 H1176 H 0.89898 0.45069 0.32373
 O1177 O 1.02284 0.61514 0.41635
 O1178 O 1.02277 0.64220 0.38945
 C1179 C 1.03068 0.63401 0.40826
 C1180 C 1.04952 0.64621 0.42063
 C1181 C 1.05722 0.66802 0.41315
 H1182 H 1.04902 0.67621 0.39842
 O1183 O 0.97776 0.38436 0.41677
 O1184 O 0.97778 0.35718 0.38998
 C1185 C 0.96991 0.36545 0.40877
 C1186 C 0.95108 0.35333 0.42123
 C1187 C 0.94340 0.33145 0.41390
 H1188 H 0.95159 0.32316 0.39922
 O1189 O 1.11550 0.58347 0.47729
 O1190 O 1.14253 0.61039 0.47722
 C1191 C 1.13433 0.59155 0.46937
 C1192 C 1.14644 0.57915 0.45049
 C1193 C 1.16815 0.58670 0.44261
 H1194 H 1.17633 0.60149 0.45071
 O1195 O 0.88508 0.41634 0.47764
 O1196 O 0.85807 0.38939 0.47765
 C1197 C 0.86625 0.40821 0.46974
 C1198 C 0.85412 0.42053 0.45081
 C1199 C 0.83234 0.41302 0.44310
 H1200 H 0.82389 0.39869 0.45172
 Cu1201 Cu 1.00025 0.40287 0.40353
 Cu1202 Cu 1.00033 0.37036 0.37126
 Cu1203 Cu 1.00032 0.59655 0.40322
 Cu1204 Cu 1.00020 0.62894 0.37082
 Cu1205 Cu 0.90368 0.49959 0.40323
 Cu1206 Cu 0.87130 0.49958 0.37084
 Cu1207 Cu 1.09681 0.49984 0.40326
 Cu1208 Cu 1.12917 0.49974 0.37086
 C1209 C 0.93987 0.43899 0.36445
 H1210 H 0.94564 0.44479 0.38131
 C1211 C 0.92426 0.42332 0.32121
 C1212 C 1.06063 0.56027 0.36423
 H1213 H 1.05487 0.55452 0.38110
 C1214 C 1.07620 0.57583 0.32094
 C1215 C 0.86476 0.43934 0.43969
 H1216 H 0.88169 0.44503 0.44535
 C1217 C 0.82130 0.42397 0.42439
 C1218 C 1.13579 0.56026 0.43949
 H1219 H 1.11891 0.55455 0.44526
 C1220 C 1.17910 0.57571 0.42387
 C1221 C 0.93998 0.36411 0.43998
 H1222 H 0.94560 0.38111 0.44552
 C1223 C 0.92475 0.32047 0.42497
 C1224 C 1.06063 0.63555 0.43944
 H1225 H 1.05499 0.61859 0.44510
 C1226 C 1.07588 0.67908 0.42413
 C1227 C 0.93999 0.56001 0.36441
 H1228 H 0.94559 0.55439 0.38139
 C1229 C 0.92484 0.57521 0.32084
 C1230 C 1.06051 0.43929 0.36459
 H1231 H 1.05493 0.44491 0.38157
 C1232 C 1.07560 0.42408 0.32101
 C1233 C 1.06078 0.36414 0.43988
 H1234 H 1.05502 0.38106 0.44555
 C1235 C 1.07637 0.32071 0.42453
 C1236 C 0.93983 0.63539 0.43942
 H1237 H 0.94553 0.61844 0.44508
 C1238 C 0.92441 0.67888 0.42412
 C1239 C 0.86472 0.56006 0.43939
 H1240 H 0.88166 0.55439 0.44506
 C1241 C 0.82124 0.57542 0.42406
 C1242 C 1.13588 0.43942 0.43960
 H1243 H 1.11900 0.44516 0.44539
 C1244 C 1.17917 0.42391 0.42393
 O1245 O 1.02298 0.41664 0.61535
 O1246 O 1.02306 0.38972 0.64240
 C1247 C 1.03090 0.40856 0.63419
 C1248 C 1.04977 0.42094 0.64632
 C1249 C 1.05748 0.41345 0.66810
 H1250 H 1.04888 0.39910 0.67655
 O1251 O 0.97768 0.58350 0.61506
 O1252 O 0.97762 0.61051 0.64203
 C1253 C 0.96979 0.59164 0.63389
 C1254 C 0.95096 0.57926 0.64610
 C1255 C 0.94335 0.58674 0.66792
 H1256 H 0.95197 0.60110 0.67633
 O1257 O 0.88514 0.52243 0.58359
 O1258 O 0.85807 0.52257 0.61046
 C1259 C 0.86628 0.53036 0.59162
 C1260 C 0.85411 0.54916 0.57913
 C1261 C 0.83227 0.55686 0.58649
 H1262 H 0.82406 0.54872 0.60123
 O1263 O 1.11556 0.47755 0.58355
 O1264 O 1.14264 0.47756 0.61043
 C1265 C 1.13443 0.46968 0.59162
 C1266 C 1.14660 0.45080 0.57924
 C1267 C 1.16842 0.44314 0.58671
 H1268 H 1.17685 0.45175 0.60106
 O1269 O 1.08404 0.38478 0.52274
 O1270 O 1.11098 0.35772 0.52282
 C1271 C 1.09216 0.36594 0.53068
 C1272 C 1.07983 0.35384 0.54962
 C1273 C 1.08742 0.33210 0.55745
 H1274 H 1.10182 0.32366 0.54892
 O1275 O 0.91672 0.61497 0.52231
 O1276 O 0.88977 0.64203 0.52231
 C1277 C 0.90861 0.63384 0.53018
 C1278 C 0.92096 0.64604 0.54902
 C1279 C 0.91347 0.66789 0.55663
 H1280 H 0.89912 0.67631 0.54799
 O1281 O 0.91676 0.47732 0.61539
 O1282 O 0.88986 0.47738 0.64243
 C1283 C 0.90867 0.46946 0.63424
 C1284 C 0.92104 0.45057 0.64640
 C1285 C 0.91342 0.44269 0.66808
 H1286 H 0.89859 0.45080 0.67619
 O1287 O 1.08388 0.52271 0.61521
 O1288 O 1.11079 0.52279 0.64226
 C1289 C 1.09195 0.53064 0.63405
 C1290 C 1.07952 0.54950 0.64618
 C1291 C 1.08697 0.55727 0.66796
 H1292 H 1.10171 0.54911 0.67617
 O1293 O 0.97792 0.38488 0.58368
 O1294 O 0.97796 0.35781 0.61057
 C1295 C 0.97006 0.36602 0.59176
 C1296 C 0.95117 0.35385 0.57944
 C1297 C 0.94348 0.33207 0.58699
 H1298 H 0.95210 0.32365 0.60134
 O1299 O 1.02275 0.61514 0.58328
 O1300 O 1.02272 0.64229 0.61010
 C1301 C 1.03060 0.63403 0.59131
 C1302 C 1.04944 0.64619 0.57891
 C1303 C 1.05703 0.66806 0.58632
 H1304 H 1.04838 0.67653 0.60062
 O1305 O 0.88503 0.41640 0.52277
 O1306 O 0.85802 0.38945 0.52283
 C1307 C 0.86620 0.40830 0.53067
 C1308 C 0.85405 0.42066 0.54956
 C1309 C 0.83229 0.41314 0.55731
 H1310 H 0.82386 0.39876 0.54873
 O1311 O 1.11552 0.58353 0.52241
 O1312 O 1.14253 0.61047 0.52241
 C1313 C 1.13435 0.59164 0.53030
 C1314 C 1.14650 0.57932 0.54921
 C1315 C 1.16828 0.58685 0.55692
 H1316 H 1.17670 0.60119 0.54829
 O1317 O 1.02280 0.58359 0.61510
 O1318 O 1.02278 0.61059 0.64207
 C1319 C 1.03068 0.59174 0.63392
 C1320 C 1.04957 0.57941 0.64609
 C1321 C 1.05725 0.58692 0.66788
 H1322 H 1.04862 0.60129 0.67630
 O1323 O 0.97784 0.41647 0.61547
 O1324 O 0.97788 0.38954 0.64251
 C1325 C 0.96996 0.40835 0.63430
 C1326 C 0.95099 0.42066 0.64642
 C1327 C 0.94313 0.41303 0.66810
 H1328 H 0.95167 0.39861 0.67651
 O1329 O 1.11558 0.52270 0.58357
 O1330 O 1.14265 0.52277 0.61044
 C1331 C 1.13443 0.53062 0.59162
 C1332 C 1.14656 0.54947 0.57919
 C1333 C 1.16834 0.55725 0.58666
 H1334 H 1.17653 0.54913 0.60143
 O1335 O 0.88506 0.47730 0.58376
 O1336 O 0.85799 0.47737 0.61062
 C1337 C 0.86619 0.46945 0.59183
 C1338 C 0.85403 0.45058 0.57946
 C1339 C 0.83227 0.44281 0.58698
 H1340 H 0.82411 0.45097 0.60174
 O1341 O 1.08378 0.61519 0.52235
 O1342 O 1.11062 0.64230 0.52236
 C1343 C 1.09181 0.63407 0.53022
 C1344 C 1.07937 0.64625 0.54904
 C1345 C 1.08673 0.66812 0.55670
 H1346 H 1.10143 0.67635 0.54852
 O1347 O 0.91679 0.38476 0.52283
 O1348 O 0.88995 0.35764 0.52291
 C1349 C 0.90876 0.36589 0.53075
 C1350 C 0.92120 0.35377 0.54961
 C1351 C 0.91373 0.33199 0.55742
 H1352 H 0.89896 0.32378 0.54932
 O1353 O 1.08399 0.47757 0.61531
 O1354 O 1.11089 0.47758 0.64236
 C1355 C 1.09207 0.46969 0.63417
 C1356 C 1.07968 0.45084 0.64634
 C1357 C 1.08717 0.44309 0.66813
 H1358 H 1.10192 0.45124 0.67631
 O1359 O 0.91676 0.52248 0.61532
 O1360 O 0.88987 0.52260 0.64237
 C1361 C 0.90869 0.53043 0.63414
 C1362 C 0.92111 0.54931 0.64625
 C1363 C 0.91372 0.55704 0.66807
 H1364 H 0.89903 0.54884 0.67632
 O1365 O 0.97763 0.61516 0.58334
 O1366 O 0.97756 0.64233 0.61015
 C1367 C 0.96971 0.63405 0.59136
 C1368 C 0.95086 0.64618 0.57892
 C1369 C 0.94311 0.66802 0.58631
 H1370 H 0.95127 0.67628 0.60101
 O1371 O 1.02306 0.38484 0.58376
 O1372 O 1.02313 0.35777 0.61066
 C1373 C 1.03099 0.36599 0.59185
 C1374 C 1.04990 0.35384 0.57949
 C1375 C 1.05774 0.33210 0.58708
 H1376 H 1.04961 0.32395 0.60186
 O1377 O 1.11568 0.41650 0.52261
 O1378 O 1.14279 0.38960 0.52267
 C1379 C 1.13456 0.40845 0.53050
 C1380 C 1.14670 0.42089 0.54933
 C1381 C 1.16852 0.41345 0.55705
 H1382 H 1.17675 0.39871 0.54888
 O1383 O 0.88510 0.58323 0.52234
 O1384 O 0.85801 0.61013 0.52233
 C1385 C 0.86624 0.59131 0.53022
 C1386 C 0.85411 0.57897 0.54911
 C1387 C 0.83227 0.58641 0.55671
 H1388 H 0.82378 0.60070 0.54803
 Cu1389 Cu 1.00045 0.40341 0.59687
 Cu1390 Cu 1.00052 0.37099 0.62924
 Cu1391 Cu 1.00021 0.59664 0.59651
 Cu1392 Cu 1.00017 0.62915 0.62879
 Cu1393 Cu 0.90361 0.40324 0.50024
 Cu1394 Cu 0.87128 0.37080 0.50029
 Cu1395 Cu 1.09714 0.40327 0.50011
 Cu1396 Cu 1.12956 0.37088 0.50016
 Cu1397 Cu 0.90360 0.59639 0.49977
 Cu1398 Cu 0.87116 0.62878 0.49975
 Cu1399 Cu 1.09696 0.59664 0.49983
 Cu1400 Cu 1.12930 0.62907 0.49980
 Cu1401 Cu 0.90363 0.49987 0.59683
 Cu1402 Cu 0.87123 0.50000 0.62919
 Cu1403 Cu 1.09705 0.50013 0.59672
 Cu1404 Cu 1.12946 0.50018 0.62908
 C1405 C 1.06084 0.43978 0.63570
 H1406 H 1.05518 0.44545 0.61876
 C1407 C 1.07616 0.42441 0.67915
 C1408 C 0.93987 0.56040 0.63552
 H1409 H 0.94546 0.55474 0.61855
 C1410 C 0.92476 0.57572 0.67906
 C1411 C 0.86478 0.56019 0.56029
 H1412 H 0.88177 0.55456 0.55471
 C1413 C 0.82119 0.57546 0.57537
 C1414 C 1.13600 0.43971 0.56040
 H1415 H 1.11904 0.44534 0.55475
 C1416 C 1.17952 0.42448 0.57572
 C1417 C 1.06093 0.36445 0.56062
 H1418 H 1.05518 0.38136 0.55487
 C1419 C 1.07647 0.32108 0.57616
 C1420 C 0.93980 0.63544 0.56013
 H1421 H 0.94547 0.61846 0.55454
 C1422 C 0.92444 0.67902 0.57525
 C1423 C 0.93997 0.43957 0.63583
 H1424 H 0.94574 0.44535 0.61897
 C1425 C 0.92436 0.42395 0.67908
 C1426 C 1.06069 0.56055 0.63550
 H1427 H 1.05505 0.55486 0.61856
 C1428 C 1.07592 0.57595 0.67896
 C1429 C 0.94006 0.36445 0.56060
 H1430 H 0.94571 0.38138 0.55488
 C1431 C 0.92478 0.32100 0.57610
 C1432 C 1.06058 0.63554 0.56013
 H1433 H 1.05500 0.61854 0.55451
 C1434 C 1.07565 0.67917 0.57532
 C1435 C 0.86466 0.43953 0.56060
 H1436 H 0.88158 0.44523 0.55491
 C1437 C 0.82125 0.42411 0.57600
 C1438 C 1.13590 0.56048 0.56032
 H1439 H 1.11897 0.55478 0.55467
 C1440 C 1.17934 0.57592 0.57562
 O1441 O 0.47730 0.91618 0.38458
 O1442 O 0.47734 0.88921 0.35757
 C1443 C 0.46944 0.90806 0.36574
 C1444 C 0.45057 0.92040 0.35354
 C1445 C 0.44280 0.91275 0.33184
 H1446 H 0.45135 0.89830 0.32350
 O1447 O 0.52260 1.08363 0.38454
 O1448 O 0.52266 1.11058 0.35752
 C1449 C 0.53052 1.09173 0.36571
 C1450 C 0.54939 1.07932 0.35358
 C1451 C 0.55724 1.08688 0.33187
 H1452 H 0.54915 1.10170 0.32371
 O1453 O 0.38479 0.97745 0.41593
 O1454 O 0.35775 0.97746 0.38902
 C1455 C 0.36592 0.96960 0.40785
 C1456 C 0.35372 0.95080 0.42029
 C1457 C 0.33190 0.94311 0.41284
 H1458 H 0.32372 0.95127 0.39809
 O1459 O 0.61499 1.02237 0.41633
 O1460 O 0.64211 1.02234 0.38951
 C1461 C 0.63388 1.03021 0.40831
 C1462 C 0.64607 1.04901 0.42078
 C1463 C 0.66793 1.05666 0.41341
 H1464 H 0.67615 1.04847 0.39870
 O1465 O 0.41627 0.88479 0.47707
 O1466 O 0.38929 0.85781 0.47706
 C1467 C 0.40813 0.86595 0.46920
 C1468 C 0.42046 0.85372 0.45034
 C1469 C 0.41285 0.83199 0.44255
 H1470 H 0.39841 0.82363 0.45108
 O1471 O 0.58345 1.11506 0.47741
 O1472 O 0.61039 1.14207 0.47738
 C1473 C 0.59156 1.13389 0.46951
 C1474 C 0.57922 1.14607 0.45062
 C1475 C 0.58674 1.16787 0.44294
 H1476 H 0.60111 1.17628 0.45154
 O1477 O 0.41661 1.02247 0.38430
 O1478 O 0.38977 1.02254 0.35719
 C1479 C 0.40858 1.03038 0.36544
 C1480 C 0.42102 1.04923 0.35332
 C1481 C 0.41365 1.05691 0.33148
 H1482 H 0.39898 1.04868 0.32323
 O1483 O 0.58331 0.97729 0.38459
 O1484 O 0.61023 0.97722 0.35758
 C1485 C 0.59140 0.96936 0.36577
 C1486 C 0.57903 0.95047 0.35363
 C1487 C 0.58653 0.94268 0.33187
 H1488 H 0.60126 0.95086 0.32366
 O1489 O 0.52239 0.88448 0.41635
 O1490 O 0.52247 0.85736 0.38950
 C1491 C 0.53030 0.86560 0.40831
 C1492 C 0.54915 0.85345 0.42074
 C1493 C 0.55693 0.83164 0.41330
 H1494 H 0.54878 0.82342 0.39857
 O1495 O 0.47743 1.11529 0.41618
 O1496 O 0.47742 1.14241 0.38933
 C1497 C 0.46953 1.13417 0.40811
 C1498 C 0.45063 1.14630 0.42048
 C1499 C 0.44282 1.16808 0.41297
 H1500 H 0.45097 1.17629 0.39823
 O1501 O 0.38470 1.08347 0.47700
 O1502 O 0.35766 1.11043 0.47693
 C1503 C 0.36588 1.09159 0.46906
 C1504 C 0.35379 1.07928 0.45011
 C1505 C 0.33206 1.08686 0.44229
 H1506 H 0.32361 1.10124 0.45087
 O1507 O 0.61503 0.91624 0.47735
 O1508 O 0.64211 0.88932 0.47739
 C1509 C 0.63389 0.90814 0.46948
 C1510 C 0.64601 0.92050 0.45058
 C1511 C 0.66776 0.91295 0.44274
 H1512 H 0.67596 0.89818 0.45088
 O1513 O 0.47750 1.08356 0.38454
 O1514 O 0.47750 1.11050 0.35752
 C1515 C 0.46964 1.09165 0.36569
 C1516 C 0.45084 1.07923 0.35347
 C1517 C 0.44324 1.08666 0.33162
 H1518 H 0.45183 1.10102 0.32320
 O1519 O 0.52241 0.91620 0.38469
 O1520 O 0.52251 0.88925 0.35768
 C1521 C 0.53034 0.90810 0.36587
 C1522 C 0.54920 0.92048 0.35373
 C1523 C 0.55692 0.91296 0.33196
 H1524 H 0.54836 0.89856 0.32355
 O1525 O 0.61490 0.97722 0.41635
 O1526 O 0.64198 0.97715 0.38948
 C1527 C 0.63375 0.96930 0.40829
 C1528 C 0.64589 0.95039 0.42065
 C1529 C 0.66762 0.94262 0.41308
 H1530 H 0.67602 0.95120 0.39870
 O1531 O 0.38484 1.02258 0.41586
 O1532 O 0.35782 1.02266 0.38893
 C1533 C 0.36601 1.03052 0.40775
 C1534 C 0.35385 1.04941 0.42013
 C1535 C 0.33211 1.05725 0.41256
 H1536 H 0.32398 1.04914 0.39775
 O1537 O 0.41637 1.11517 0.47707
 O1538 O 0.38947 1.14227 0.47700
 C1539 C 0.40830 1.13404 0.46917
 C1540 C 0.42068 1.14621 0.45032
 C1541 C 0.41313 1.16798 0.44258
 H1542 H 0.39872 1.17640 0.45113
 O1543 O 0.58329 0.88462 0.47736
 O1544 O 0.61021 0.85754 0.47741
 C1545 C 0.59139 0.86574 0.46951
 C1546 C 0.57905 0.85355 0.45065
 C1547 C 0.58657 0.83174 0.44298
 H1548 H 0.60093 0.82331 0.45159
 O1549 O 0.58337 1.02246 0.38459
 O1550 O 0.61033 1.02244 0.35761
 C1551 C 0.59151 1.03036 0.36578
 C1552 C 0.57923 1.04932 0.35363
 C1553 C 0.58683 1.05710 0.33192
 H1554 H 0.60121 1.04849 0.32351
 O1555 O 0.41643 0.97730 0.38424
 O1556 O 0.38957 0.97730 0.35715
 C1557 C 0.40835 0.96938 0.36540
 C1558 C 0.42070 0.95040 0.35333
 C1559 C 0.41316 0.94248 0.33163
 H1560 H 0.39840 0.95061 0.32341
 O1561 O 0.52255 1.11521 0.41632
 O1562 O 0.52261 1.14234 0.38947
 C1563 C 0.53046 1.13408 0.40828
 C1564 C 0.54932 1.14620 0.42071
 C1565 C 0.55710 1.16800 0.41326
 H1566 H 0.54896 1.17622 0.39852
 O1567 O 0.47726 0.88451 0.41627
 O1568 O 0.47729 0.85739 0.38942
 C1569 C 0.46938 0.86564 0.40819
 C1570 C 0.45045 0.85354 0.42053
 C1571 C 0.44259 0.83181 0.41298
 H1572 H 0.45073 0.82360 0.39823
 O1573 O 0.61505 1.08326 0.47748
 O1574 O 0.64216 1.11011 0.47745
 C1575 C 0.63392 1.09129 0.46959
 C1576 C 0.64606 1.07888 0.45074
 C1577 C 0.66791 1.08626 0.44315
 H1578 H 0.67639 1.10056 0.45181
 O1579 O 0.38469 0.91662 0.47703
 O1580 O 0.35756 0.88979 0.47704
 C1581 C 0.36582 0.90858 0.46915
 C1582 C 0.35370 0.92096 0.45026
 C1583 C 0.33188 0.91352 0.44259
 H1584 H 0.32341 0.89921 0.45123
 Cu1585 Cu 0.49984 0.90304 0.40317
 Cu1586 Cu 0.49991 0.87058 0.37083
 Cu1587 Cu 0.50002 1.09673 0.40309
 Cu1588 Cu 0.50005 1.12918 0.37076
 Cu1589 Cu 0.40336 0.99994 0.40277
 Cu1590 Cu 0.37102 1.00000 0.37035
 Cu1591 Cu 0.59644 0.99985 0.40315
 Cu1592 Cu 0.62888 0.99978 0.37083
 C1593 C 0.43955 0.93937 0.36403
 H1594 H 0.44526 0.94517 0.38090
 C1595 C 0.42410 0.92367 0.32074
 C1596 C 0.56036 1.06040 0.36421
 H1597 H 0.55461 1.05469 0.38109
 C1598 C 0.57594 1.07586 0.32089
 C1599 C 0.36436 0.93974 0.43914
 H1600 H 0.38132 0.94537 0.44477
 C1601 C 0.32084 0.92449 0.42391
 C1602 C 0.63539 1.06011 0.43958
 H1603 H 0.61840 1.05452 0.44516
 C1604 C 0.67900 1.07526 0.42451
 C1605 C 0.43941 0.86424 0.43935
 H1606 H 0.44517 0.88114 0.44506
 C1607 C 0.42381 0.82088 0.42389
 C1608 C 0.56036 1.13549 0.43954
 H1609 H 0.55466 1.11855 0.44518
 C1610 C 0.57579 1.17898 0.42428
 C1611 C 0.43976 1.06037 0.36407
 H1612 H 0.44533 1.05474 0.38105
 C1613 C 0.42467 1.07558 0.32048
 C1614 C 0.56022 0.93938 0.36431
 H1615 H 0.55455 0.94509 0.38123
 C1616 C 0.57557 0.92395 0.32089
 C1617 C 0.56019 0.86415 0.43956
 H1618 H 0.55450 0.88111 0.44519
 C1619 C 0.57561 0.82063 0.42433
 C1620 C 0.43958 1.13562 0.43930
 H1621 H 0.44530 1.11869 0.44498
 C1622 C 0.42408 1.17906 0.42392
 C1623 C 0.36443 1.06041 0.43905
 H1624 H 0.38133 1.05466 0.44478
 C1625 C 0.32107 1.07594 0.42354
 C1626 C 0.63533 0.93936 0.43954
 H1627 H 0.61843 0.94508 0.44527
 C1628 C 0.67870 0.92391 0.42400
 O1629 O 0.52209 0.91639 0.61500
 O1630 O 0.52208 0.88946 0.64203
 C1631 C 0.52995 0.90830 0.63385
 C1632 C 0.54877 0.92068 0.64606
 C1633 C 0.55635 0.91324 0.66790
 H1634 H 0.54772 0.89890 0.67632
 O1635 O 0.47730 1.08370 0.61499
 O1636 O 0.47723 1.11069 0.64197
 C1637 C 0.46938 1.09184 0.63380
 C1638 C 0.45050 1.07950 0.64595
 C1639 C 0.44279 1.08706 0.66770
 H1640 H 0.45140 1.10143 0.67611
 O1641 O 0.38462 1.02285 0.58338
 O1642 O 0.35752 1.02290 0.61022
 C1643 C 0.36575 1.03075 0.59141
 C1644 C 0.35360 1.04961 0.57898
 C1645 C 0.33187 1.05748 0.58651
 H1646 H 0.32372 1.04942 0.60133
 O1647 O 0.61478 0.97733 0.58362
 O1648 O 0.64182 0.97722 0.61053
 C1649 C 0.63362 0.96940 0.59169
 C1650 C 0.64580 0.95057 0.57925
 C1651 C 0.66764 0.94288 0.58665
 H1652 H 0.67585 0.95106 0.60138
 O1653 O 0.58329 0.88462 0.52245
 O1654 O 0.61020 0.85753 0.52256
 C1655 C 0.59136 0.86576 0.53038
 C1656 C 0.57893 0.85362 0.54921
 C1657 C 0.58637 0.83180 0.55698
 H1658 H 0.60113 0.82357 0.54886
 O1659 O 0.41634 1.11515 0.52217
 O1660 O 0.38946 1.14226 0.52214
 C1661 C 0.40827 1.13404 0.53004
 C1662 C 0.42062 1.14622 0.54890
 C1663 C 0.41313 1.16804 0.55656
 H1664 H 0.39876 1.17648 0.54795
 O1665 O 0.41622 0.97765 0.61509
 O1666 O 0.38928 0.97763 0.64208
 C1667 C 0.40810 0.96974 0.63390
 C1668 C 0.42044 0.95081 0.64602
 C1669 C 0.41294 0.94304 0.66779
 H1670 H 0.39822 0.95126 0.67599
 O1671 O 0.58319 1.02257 0.61531
 O1672 O 0.61007 1.02251 0.64238
 C1673 C 0.59129 1.03045 0.63415
 C1674 C 0.57897 1.04943 0.64625
 C1675 C 0.58656 1.05731 0.66794
 H1676 H 0.60133 1.04915 0.67612
 O1677 O 0.47704 0.88469 0.58328
 O1678 O 0.47698 0.85759 0.61014
 C1679 C 0.46914 0.86582 0.59133
 C1680 C 0.45029 0.85369 0.57890
 C1681 C 0.44248 0.83190 0.58636
 H1682 H 0.45060 0.82368 0.60112
 O1683 O 0.52245 1.11537 0.58336
 O1684 O 0.52241 1.14252 0.61018
 C1685 C 0.53032 1.13425 0.59141
 C1686 C 0.54922 1.14636 0.57905
 C1687 C 0.55703 1.16813 0.58656
 H1688 H 0.54888 1.17634 0.60130
 O1689 O 0.38473 0.91671 0.52215
 O1690 O 0.35760 0.88988 0.52218
 C1691 C 0.36585 0.90870 0.53004
 C1692 C 0.35371 0.92113 0.54888
 C1693 C 0.33185 0.91375 0.55646
 H1694 H 0.32337 0.89945 0.54781
 O1695 O 0.61509 1.08339 0.52260
 O1696 O 0.64220 1.11024 0.52261
 C1697 C 0.63395 1.09144 0.53050
 C1698 C 0.64604 1.07905 0.54941
 C1699 C 0.66780 1.08654 0.55725
 H1700 H 0.67603 1.10128 0.54911
 O1701 O 0.52242 1.08371 0.61508
 O1702 O 0.52240 1.11071 0.64206
 C1703 C 0.53029 1.09185 0.63391
 C1704 C 0.54917 1.07949 0.64610
 C1705 C 0.55700 1.08712 0.66780
 H1706 H 0.54850 1.10160 0.67615
 O1707 O 0.47699 0.91642 0.61493
 O1708 O 0.47693 0.88948 0.64195
 C1709 C 0.46908 0.90833 0.63376
 C1710 C 0.45023 0.92074 0.64592
 C1711 C 0.44250 0.91323 0.66768
 H1712 H 0.45104 0.89881 0.67609
 O1713 O 0.61481 1.02247 0.58361
 O1714 O 0.64185 1.02242 0.61053
 C1715 C 0.63367 1.03032 0.59171
 C1716 C 0.64587 1.04918 0.57936
 C1717 C 0.66762 1.05688 0.58694
 H1718 H 0.67599 1.04830 0.60134
 O1719 O 0.38470 0.97772 0.58328
 O1720 O 0.35758 0.97770 0.61010
 C1721 C 0.36582 0.96984 0.59129
 C1722 C 0.35367 0.95103 0.57882
 C1723 C 0.33181 0.94339 0.58617
 H1724 H 0.32357 0.95159 0.60087
 O1725 O 0.58343 1.11514 0.52252
 O1726 O 0.61038 1.14214 0.52253
 C1727 C 0.59154 1.13399 0.53039
 C1728 C 0.57919 1.14621 0.54923
 C1729 C 0.58675 1.16797 0.55697
 H1730 H 0.60117 1.17635 0.54843
 O1731 O 0.41627 0.88484 0.52218
 O1732 O 0.38928 0.85786 0.52221
 C1733 C 0.40812 0.86601 0.53007
 C1734 C 0.42044 0.85382 0.54896
 C1735 C 0.41289 0.83204 0.55664
 H1736 H 0.39853 0.82363 0.54802
 O1737 O 0.58305 0.97740 0.61524
 O1738 O 0.60992 0.97728 0.64232
 C1739 C 0.59109 0.96946 0.63409
 C1740 C 0.57864 0.95062 0.64621
 C1741 C 0.58600 0.94292 0.66805
 H1742 H 0.60069 0.95112 0.67631
 O1743 O 0.41628 1.02282 0.61507
 O1744 O 0.38935 1.02287 0.64208
 C1745 C 0.40818 1.03073 0.63390
 C1746 C 0.42057 1.04961 0.64604
 C1747 C 0.41309 1.05743 0.66780
 H1748 H 0.39834 1.04930 0.67601
 O1749 O 0.47732 1.11531 0.58323
 O1750 O 0.47723 1.14246 0.61005
 C1751 C 0.46940 1.13419 0.59125
 C1752 C 0.45054 1.14632 0.57880
 C1753 C 0.44278 1.16815 0.58622
 H1754 H 0.45094 1.17638 0.60095
 O1755 O 0.52216 0.88474 0.58328
 O1756 O 0.52215 0.85765 0.61016
 C1757 C 0.53005 0.86587 0.59137
 C1758 C 0.54895 0.85370 0.57904
 C1759 C 0.55663 0.83189 0.58654
 H1760 H 0.54799 0.82345 0.60087
 O1761 O 0.61487 0.91640 0.52247
 O1762 O 0.64194 0.88948 0.52256
 C1763 C 0.63371 0.90832 0.53040
 C1764 C 0.64582 0.92070 0.54928
 C1765 C 0.66767 0.91328 0.55691
 H1766 H 0.67616 0.89897 0.54826
 O1767 O 0.38459 1.08354 0.52215
 O1768 O 0.35756 1.11051 0.52211
 C1769 C 0.36575 1.09168 0.53002
 C1770 C 0.35361 1.07940 0.54895
 C1771 C 0.33188 1.08702 0.55672
 H1772 H 0.32346 1.10140 0.54811
 Cu1773 Cu 0.49957 0.90326 0.59642
 Cu1774 Cu 0.49953 0.87082 0.62878
 Cu1775 Cu 0.49989 1.09682 0.59648
 Cu1776 Cu 0.49981 1.12932 0.62877
 Cu1777 Cu 0.40320 0.90343 0.49960
 Cu1778 Cu 0.37071 0.87114 0.49963
 Cu1779 Cu 0.59643 0.90317 0.49990
 Cu1780 Cu 0.62883 0.87075 0.49999
 Cu1781 Cu 0.40319 1.09662 0.49960
 Cu1782 Cu 0.37082 1.12908 0.49954
 Cu1783 Cu 0.59656 1.09652 0.50001
 Cu1784 Cu 0.62900 1.12885 0.49998
 Cu1785 Cu 0.40316 1.00026 0.59652
 Cu1786 Cu 0.37072 1.00028 0.62883
 Cu1787 Cu 0.59626 0.99994 0.59676
 Cu1788 Cu 0.62862 0.99984 0.62916
 C1789 C 0.55988 0.93952 0.63547
 H1790 H 0.55431 0.94516 0.61849
 C1791 C 0.57494 0.92426 0.67904
 C1792 C 0.43942 1.06063 0.63537
 H1793 H 0.44509 1.05491 0.61845
 C1794 C 0.42411 1.07614 0.67878
 C1795 C 0.36421 1.06055 0.56006
 H1796 H 0.38111 1.05478 0.55436
 C1797 C 0.32086 1.07617 0.57548
 C1798 C 0.63514 0.93949 0.56042
 H1799 H 0.61816 0.94512 0.55481
 C1800 C 0.67872 0.92426 0.57557
 C1801 C 0.56008 0.86432 0.56023
 H1802 H 0.55444 0.88128 0.55454
 C1803 C 0.57531 0.82079 0.57563
 C1804 C 0.43948 1.13561 0.56000
 H1805 H 0.44516 1.11864 0.55438
 C1806 C 0.42410 1.17916 0.57520
 C1807 C 0.43923 0.93968 0.63535
 H1808 H 0.44491 0.94537 0.61843
 C1809 C 0.42387 0.92428 0.67877
 C1810 C 0.56013 1.06050 0.63559
 H1811 H 0.55439 1.05472 0.61872
 C1812 C 0.57568 1.07614 0.67887
 C1813 C 0.43928 0.86439 0.56005
 H1814 H 0.44500 0.88133 0.55441
 C1815 C 0.42380 0.82093 0.57532
 C1816 C 0.56027 1.13566 0.56024
 H1817 H 0.55455 1.11874 0.55456
 C1818 C 0.57578 1.17908 0.57562
 C1819 C 0.36438 0.93991 0.56003
 H1820 H 0.38137 0.94550 0.55447
 C1821 C 0.32075 0.92478 0.57508
 C1822 C 0.63533 1.06023 0.56046
 H1823 H 0.61842 1.05457 0.55472
 C1824 C 0.67873 1.07555 0.57600
 O1825 O 0.47762 0.41597 0.88531
 O1826 O 0.47761 0.38897 0.85834
 C1827 C 0.46976 0.40785 0.86647
 C1828 C 0.45095 0.42025 0.85423
 C1829 C 0.44331 0.41271 0.83244
 H1830 H 0.45190 0.39827 0.82410
 O1831 O 0.52263 0.58346 0.88529
 O1832 O 0.52274 0.61040 0.85827
 C1833 C 0.53056 0.59154 0.86647
 C1834 C 0.54939 0.57909 0.85431
 C1835 C 0.55706 0.58655 0.83251
 H1836 H 0.54849 0.60095 0.82409
 O1837 O 0.38503 0.47736 0.91638
 O1838 O 0.35806 0.47733 0.88939
 C1839 C 0.36619 0.46949 0.90826
 C1840 C 0.35394 0.45070 0.92064
 C1841 C 0.33215 0.44305 0.91310
 H1842 H 0.32380 0.45163 0.89868
 O1843 O 0.61509 0.52210 0.91680
 O1844 O 0.64214 0.52213 0.88991
 C1845 C 0.63394 0.52999 0.90873
 C1846 C 0.64611 0.54885 0.92112
 C1847 C 0.66791 0.55650 0.91365
 H1848 H 0.67634 0.54788 0.89930
 O1849 O 0.41624 0.38483 0.97762
 O1850 O 0.38928 0.35782 0.97757
 C1851 C 0.40814 0.36596 0.96975
 C1852 C 0.42055 0.35369 0.95097
 C1853 C 0.41299 0.33191 0.94326
 H1854 H 0.39853 0.32358 0.95178
 O1855 O 0.58357 0.61489 0.97780
 O1856 O 0.61052 0.64190 0.97782
 C1857 C 0.59168 0.63375 0.96995
 C1858 C 0.57930 0.64599 0.95113
 C1859 C 0.58676 0.66785 0.94355
 H1860 H 0.60111 0.67625 0.95217
 O1861 O 0.41681 0.52241 0.88473
 O1862 O 0.39001 0.52243 0.85759
 C1863 C 0.40879 0.53030 0.86586
 C1864 C 0.42118 0.54920 0.85377
 C1865 C 0.41376 0.55694 0.83196
 H1866 H 0.39909 0.54873 0.82370
 O1867 O 0.58348 0.47696 0.88508
 O1868 O 0.61037 0.47693 0.85803
 C1869 C 0.59157 0.46904 0.86624
 C1870 C 0.57923 0.45012 0.85414
 C1871 C 0.58673 0.44230 0.83239
 H1872 H 0.60145 0.45049 0.82417
 O1873 O 0.52269 0.38425 0.91709
 O1874 O 0.52273 0.35710 0.89026
 C1875 C 0.53060 0.36536 0.90905
 C1876 C 0.54951 0.35326 0.92143
 C1877 C 0.55741 0.33152 0.91388
 H1878 H 0.54929 0.32333 0.89911
 O1879 O 0.47743 0.61523 0.91680
 O1880 O 0.47746 0.64233 0.88994
 C1881 C 0.46954 0.63410 0.90871
 C1882 C 0.45060 0.64622 0.92103
 C1883 C 0.44275 0.66798 0.91349
 H1884 H 0.45092 0.67620 0.89877
 O1885 O 0.38462 0.58336 0.97750
 O1886 O 0.35752 0.61025 0.97738
 C1887 C 0.36579 0.59143 0.96953
 C1888 C 0.35375 0.57905 0.95058
 C1889 C 0.33199 0.58653 0.94274
 H1890 H 0.32372 0.60124 0.95092
 O1891 O 0.61536 0.41621 0.97794
 O1892 O 0.64243 0.38928 0.97800
 C1893 C 0.63421 0.40808 0.97006
 C1894 C 0.64630 0.42037 0.95108
 C1895 C 0.66801 0.41276 0.94324
 H1896 H 0.67646 0.39837 0.95179
 O1897 O 0.47755 0.58356 0.88509
 O1898 O 0.47759 0.61050 0.85806
 C1899 C 0.46972 0.59165 0.86622
 C1900 C 0.45094 0.57925 0.85398
 C1901 C 0.44329 0.58674 0.83217
 H1902 H 0.45185 0.60116 0.82379
 O1903 O 0.52272 0.41585 0.88532
 O1904 O 0.52275 0.38886 0.85834
 C1905 C 0.53061 0.40772 0.86649
 C1906 C 0.54945 0.42008 0.85430
 C1907 C 0.55718 0.41252 0.83255
 H1908 H 0.54864 0.39809 0.82417
 O1909 O 0.61515 0.47696 0.91676
 O1910 O 0.64220 0.47693 0.88987
 C1911 C 0.63401 0.46906 0.90869
 C1912 C 0.64620 0.45020 0.92108
 C1913 C 0.66791 0.44234 0.91348
 H1914 H 0.67600 0.45042 0.89864
 O1915 O 0.38509 0.52248 0.91635
 O1916 O 0.35812 0.52251 0.88936
 C1917 C 0.36626 0.53038 0.90821
 C1918 C 0.35403 0.54925 0.92056
 C1919 C 0.33227 0.55696 0.91298
 H1920 H 0.32392 0.54840 0.89855
 O1921 O 0.41629 0.61505 0.97757
 O1922 O 0.38934 0.64210 0.97745
 C1923 C 0.40820 0.63390 0.96965
 C1924 C 0.42058 0.64608 0.95081
 C1925 C 0.41301 0.66783 0.94306
 H1926 H 0.39858 0.67622 0.95159
 O1927 O 0.58372 0.38449 0.97798
 O1928 O 0.61063 0.35740 0.97805
 C1929 C 0.59182 0.36560 0.97014
 C1930 C 0.57949 0.35340 0.95127
 C1931 C 0.58712 0.33167 0.94348
 H1932 H 0.60157 0.32330 0.95200
 O1933 O 0.58345 0.52214 0.88511
 O1934 O 0.61033 0.52217 0.85805
 C1935 C 0.59152 0.53006 0.86627
 C1936 C 0.57916 0.54899 0.85416
 C1937 C 0.58659 0.55672 0.83236
 H1938 H 0.60127 0.54847 0.82411
 O1939 O 0.41680 0.47723 0.88482
 O1940 O 0.39000 0.47719 0.85767
 C1941 C 0.40877 0.46929 0.86597
 C1942 C 0.42116 0.45032 0.85393
 C1943 C 0.41375 0.44251 0.83215
 H1944 H 0.39907 0.45071 0.82385
 O1945 O 0.52257 0.61522 0.91690
 O1946 O 0.52266 0.64233 0.89005
 C1947 C 0.53049 0.63408 0.90886
 C1948 C 0.54934 0.64619 0.92130
 C1949 C 0.55705 0.66805 0.91394
 H1950 H 0.54884 0.67633 0.89926
 O1951 O 0.47754 0.38429 0.91700
 O1952 O 0.47752 0.35713 0.89018
 C1953 C 0.46962 0.36543 0.90894
 C1954 C 0.45066 0.35339 0.92128
 C1955 C 0.44284 0.33161 0.91380
 H1956 H 0.45104 0.32333 0.89913
 O1957 O 0.61521 0.58312 0.97780
 O1958 O 0.64232 0.60996 0.97780
 C1959 C 0.63408 0.59116 0.96992
 C1960 C 0.64621 0.57873 0.95106
 C1961 C 0.66802 0.58616 0.94333
 H1962 H 0.67625 0.60088 0.95151
 O1963 O 0.38458 0.41659 0.97753
 O1964 O 0.35748 0.38974 0.97748
 C1965 C 0.36574 0.40854 0.96960
 C1966 C 0.35367 0.42092 0.95068
 C1967 C 0.33189 0.41349 0.94288
 H1968 H 0.32361 0.39881 0.95107
 Cu1969 Cu 0.50014 0.40278 0.90388
 Cu1970 Cu 0.50015 0.37029 0.87158
 Cu1971 Cu 0.50003 0.59668 0.90373
 Cu1972 Cu 0.50013 0.62911 0.87137
 Cu1973 Cu 0.40363 0.49987 0.90326
 Cu1974 Cu 0.37135 0.49987 0.87078
 Cu1975 Cu 0.59659 0.49954 0.90362
 Cu1976 Cu 0.62897 0.49954 0.87125
 C1977 C 0.43991 0.43921 0.86472
 H1978 H 0.44552 0.44493 0.88165
 C1979 C 0.42473 0.42372 0.82126
 C1980 C 0.56041 0.56017 0.86489
 H1981 H 0.55478 0.55451 0.88183
 C1982 C 0.57563 0.57547 0.82138
 C1983 C 0.36444 0.43966 0.93957
 H1984 H 0.38138 0.44528 0.94528
 C1985 C 0.32098 0.42447 0.92411
 C1986 C 0.63551 0.55993 0.93997
 H1987 H 0.61856 0.55431 0.94563
 C1988 C 0.67902 0.57514 0.92464
 C1989 C 0.43953 0.36417 0.94000
 H1990 H 0.44526 0.38111 0.94566
 C1991 C 0.42402 0.32072 0.92470
 C1992 C 0.56045 0.63542 0.94004
 H1993 H 0.55480 0.61844 0.94561
 C1994 C 0.57573 0.67902 0.92497
 C1995 C 0.43991 0.56033 0.86452
 H1996 H 0.44552 0.55465 0.88147
 C1997 C 0.42473 0.57569 0.82101
 C1998 C 0.56045 0.43902 0.86484
 H1999 H 0.55477 0.44475 0.88175
 C2000 C 0.57580 0.42353 0.82144
 C2001 C 0.56054 0.36394 0.94027
 H2002 H 0.55475 0.38084 0.94599
 C2003 C 0.57619 0.32058 0.92480
 C2004 C 0.43952 0.63552 0.93983
 H2005 H 0.44526 0.61860 0.94553
 C2006 C 0.42397 0.67893 0.92441
 C2007 C 0.36452 0.56027 0.93950
 H2008 H 0.38144 0.55460 0.94525
 C2009 C 0.32110 0.57558 0.92396
 C2010 C 0.63565 0.43923 0.94003
 H2011 H 0.61878 0.44500 0.94578
 C2012 C 0.67897 0.42365 0.92446
 O2013 O 0.52217 0.41623 1.11553
 O2014 O 0.52214 0.38927 1.14254
 C2015 C 0.53002 0.40812 1.13439
 C2016 C 0.54886 0.42049 1.14659
 C2017 C 0.55655 0.41296 1.16837
 H2018 H 0.54798 0.39856 1.17676
 O2019 O 0.47708 0.58367 1.11526
 O2020 O 0.47706 0.61066 1.14224
 C2021 C 0.46918 0.59181 1.13407
 C2022 C 0.45029 0.57950 1.14625
 C2023 C 0.44250 0.58717 1.16794
 H2024 H 0.45106 0.60161 1.17629
 O2025 O 0.38450 0.52265 1.08385
 O2026 O 0.35743 0.52271 1.11071
 C2027 C 0.36564 0.53056 1.09190
 C2028 C 0.35350 0.54943 1.07947
 C2029 C 0.33179 0.55735 1.08703
 H2030 H 0.32364 0.54931 1.10186
 O2031 O 0.61486 0.47713 1.08415
 O2032 O 0.64182 0.47714 1.11114
 C2033 C 0.63369 0.46925 1.09230
 C2034 C 0.64592 0.45037 1.07999
 C2035 C 0.66764 0.44261 1.08764
 H2036 H 0.67596 0.45116 1.10209
 O2037 O 0.58358 0.38465 1.02307
 O2038 O 0.61050 0.35757 1.02321
 C2039 C 0.59165 0.36580 1.03102
 C2040 C 0.57925 0.35366 1.04988
 C2041 C 0.58683 0.33193 1.05771
 H2042 H 0.60128 0.32352 1.04923
 O2043 O 0.41615 0.61514 1.02266
 O2044 O 0.38922 0.64220 1.02259
 C2045 C 0.40803 0.63401 1.03051
 C2046 C 0.42036 0.64621 1.04938
 C2047 C 0.41278 0.66798 1.05713
 H2048 H 0.39835 0.67637 1.04859
 O2049 O 0.41618 0.47747 1.11552
 O2050 O 0.38927 0.47746 1.14255
 C2051 C 0.40808 0.46955 1.13435
 C2052 C 0.42042 0.45060 1.14646
 C2053 C 0.41288 0.44279 1.16819
 H2054 H 0.39814 0.45098 1.17638
 O2055 O 0.58309 0.52238 1.11565
 O2056 O 0.60990 0.52244 1.14278
 C2057 C 0.59112 0.53032 1.13450
 C2058 C 0.57871 0.54925 1.14656
 C2059 C 0.58615 0.55703 1.16835
 H2060 H 0.60086 0.54883 1.17660
 O2061 O 0.47716 0.38457 1.08371
 O2062 O 0.47706 0.35744 1.11054
 C2063 C 0.46924 0.36570 1.09173
 C2064 C 0.45037 0.35360 1.07928
 C2065 C 0.44260 0.33178 1.08667
 H2066 H 0.45075 0.32350 1.10137
 O2067 O 0.52229 0.61525 1.08360
 O2068 O 0.52231 0.64239 1.11043
 C2069 C 0.53021 0.63411 1.09166
 C2070 C 0.54916 0.64618 1.07932
 C2071 C 0.55695 0.66796 1.08680
 H2072 H 0.54875 0.67622 1.10148
 O2073 O 0.38454 0.41666 1.02267
 O2074 O 0.35746 0.38979 1.02265
 C2075 C 0.36568 0.40860 1.03054
 C2076 C 0.35354 0.42096 1.04943
 C2077 C 0.33174 0.41347 1.05710
 H2078 H 0.32330 0.39914 1.04846
 O2079 O 0.61516 0.58311 1.02292
 O2080 O 0.64228 0.60994 1.02297
 C2081 C 0.63402 0.59114 1.03083
 C2082 C 0.64612 0.57872 1.04971
 C2083 C 0.66798 0.58606 1.05738
 H2084 H 0.67626 0.60072 1.04913
 O2085 O 0.52219 0.58358 1.11531
 O2086 O 0.52222 0.61057 1.14230
 C2087 C 0.53007 0.59169 1.13415
 C2088 C 0.54889 0.57929 1.14637
 C2089 C 0.55656 0.58681 1.16815
 H2090 H 0.54799 0.60123 1.17653
 O2091 O 0.47706 0.41625 1.11540
 O2092 O 0.47697 0.38929 1.14241
 C2093 C 0.46912 0.40815 1.13422
 C2094 C 0.45023 0.42054 1.14636
 C2095 C 0.44245 0.41299 1.16809
 H2096 H 0.45097 0.39855 1.17649
 O2097 O 0.61485 0.52227 1.08406
 O2098 O 0.64183 0.52233 1.11103
 C2099 C 0.63369 0.53015 1.09216
 C2100 C 0.64592 0.54893 1.07974
 C2101 C 0.66778 0.55651 1.08716
 H2102 H 0.67619 0.54790 1.10153
 O2103 O 0.38452 0.47752 1.08384
 O2104 O 0.35743 0.47750 1.11069
 C2105 C 0.36565 0.46964 1.09188
 C2106 C 0.35350 0.45080 1.07943
 C2107 C 0.33170 0.44305 1.08687
 H2108 H 0.32351 0.45118 1.10163
 O2109 O 0.58352 0.61487 1.02288
 O2110 O 0.61048 0.64187 1.02295
 C2111 C 0.59162 0.63372 1.03078
 C2112 C 0.57923 0.64594 1.04959
 C2113 C 0.58676 0.66773 1.05730
 H2114 H 0.60119 0.67609 1.04877
 O2115 O 0.41620 0.38491 1.02270
 O2116 O 0.38927 0.35789 1.02269
 C2117 C 0.40810 0.36606 1.03057
 C2118 C 0.42045 0.35383 1.04940
 C2119 C 0.41294 0.33201 1.05701
 H2120 H 0.39858 0.32363 1.04838
 O2121 O 0.58309 0.47721 1.11573
 O2122 O 0.60990 0.47722 1.14287
 C2123 C 0.59111 0.46933 1.13461
 C2124 C 0.57871 0.45045 1.14673
 C2125 C 0.58617 0.44267 1.16851
 H2126 H 0.60089 0.45084 1.17673
 O2127 O 0.41616 0.52265 1.11554
 O2128 O 0.38925 0.52272 1.14258
 C2129 C 0.40806 0.53060 1.13436
 C2130 C 0.42042 0.54954 1.14644
 C2131 C 0.41286 0.55748 1.16814
 H2132 H 0.39810 0.54938 1.17634
 O2133 O 0.47714 0.61534 1.08355
 O2134 O 0.47712 0.64248 1.11038
 C2135 C 0.46924 0.63422 1.09159
 C2136 C 0.45034 0.64635 1.07921
 C2137 C 0.44250 0.66811 1.08673
 H2138 H 0.45065 0.67632 1.10147
 O2139 O 0.52231 0.38456 1.08383
 O2140 O 0.52227 0.35745 1.11068
 C2141 C 0.53021 0.36569 1.09191
 C2142 C 0.54917 0.35357 1.07962
 C2143 C 0.55702 0.33184 1.08721
 H2144 H 0.54884 0.32365 1.10195
 O2145 O 0.61534 0.41625 1.02309
 O2146 O 0.64242 0.38933 1.02321
 C2147 C 0.63417 0.40816 1.03105
 C2148 C 0.64621 0.42053 1.05000
 C2149 C 0.66793 0.41300 1.05791
 H2150 H 0.67618 0.39825 1.04979
 O2151 O 0.38452 0.58339 1.02265
 O2152 O 0.35745 0.61031 1.02257
 C2153 C 0.36566 0.59151 1.03050
 C2154 C 0.35353 0.57923 1.04944
 C2155 C 0.33182 0.58688 1.05722
 H2156 H 0.32342 0.60127 1.04862
 Cu2157 Cu 0.49968 0.40310 1.09692
 Cu2158 Cu 0.49960 0.37064 1.12925
 Cu2159 Cu 0.49968 0.59677 1.09673
 Cu2160 Cu 0.49968 0.62924 1.12904
 Cu2161 Cu 0.40308 0.40345 1.00012
 Cu2162 Cu 0.37065 0.37111 1.00010
 Cu2163 Cu 0.59682 0.40311 1.00051
 Cu2164 Cu 0.62921 0.37069 1.00063
 Cu2165 Cu 0.40308 0.59653 1.00011
 Cu2166 Cu 0.37066 0.62892 0.99998
 Cu2167 Cu 0.59667 0.59630 1.00034
 Cu2168 Cu 0.62912 0.62862 1.00039
 Cu2169 Cu 0.40304 0.50007 1.09701
 Cu2170 Cu 0.37064 0.50010 1.12935
 Cu2171 Cu 0.59628 0.49974 1.09720
 Cu2172 Cu 0.62856 0.49979 1.12968
 C2173 C 0.55991 0.43938 1.13603
 H2174 H 0.55426 0.44509 1.11910
 C2175 C 0.57518 0.42395 1.17948
 C2176 C 0.43927 0.56055 1.13575
 H2177 H 0.44499 0.55474 1.11888
 C2178 C 0.42381 0.57628 1.17903
 C2179 C 0.36411 0.56036 1.06054
 H2180 H 0.38099 0.55456 1.05482
 C2181 C 0.32081 0.57607 1.07600
 C2182 C 0.63546 0.43936 1.06103
 H2183 H 0.61858 0.44506 1.05523
 C2184 C 0.67879 0.42394 1.07672
 C2185 C 0.56028 0.36423 1.06081
 H2186 H 0.55453 0.38114 1.05506
 C2187 C 0.57583 0.32087 1.07636
 C2188 C 0.43929 0.63566 1.06039
 H2189 H 0.44504 0.61874 1.05470
 C2190 C 0.42374 0.67908 1.07578
 C2191 C 0.43924 0.43950 1.13580
 H2192 H 0.44496 0.44522 1.11890
 C2193 C 0.42379 0.42401 1.17916
 C2194 C 0.55994 0.56036 1.13583
 H2195 H 0.55431 0.55466 1.11889
 C2196 C 0.57517 0.57579 1.17929
 C2197 C 0.43931 0.36438 1.06051
 H2198 H 0.44500 0.38134 1.05491
 C2199 C 0.42390 0.32084 1.07563
 C2200 C 0.56028 0.63542 1.06057
 H2201 H 0.55457 0.61849 1.05491
 C2202 C 0.57573 0.67888 1.07588
 C2203 C 0.36416 0.43977 1.06057
 H2204 H 0.38111 0.44545 1.05494
 C2205 C 0.32068 0.42440 1.07580
 C2206 C 0.63535 0.56001 1.06087
 H2207 H 0.61836 0.55445 1.05525
 C2208 C 0.67896 0.57505 1.07607
 C2209 C 1.10097 1.10114 1.24441
 C2210 C 1.09444 1.11689 1.22722
 C2211 C 1.08613 1.10890 1.20597
 C2212 C 1.11733 1.11666 1.28422
 C2213 C 1.09078 1.06930 1.21906
 C2214 C 1.09909 1.07734 1.24031
 C2215 C 1.10983 1.10947 1.26614
 C2216 C 1.08425 1.08500 1.20163
 H2217 H 1.09592 1.13536 1.23018
 H2218 H 1.08156 1.12141 1.19279
 H2219 H 1.08929 1.05081 1.21632
 H2220 H 1.10406 1.06499 1.25352
 C2221 C 1.10068 0.60041 0.74468
 C2222 C 1.09892 0.57661 0.74048
 C2223 C 1.09077 0.56862 0.71915
 C2224 C 1.11674 0.61586 0.78462
 C2225 C 1.08603 0.60826 0.70619
 C2226 C 1.09419 0.61620 0.72751
 C2227 C 1.10937 0.60869 0.76648
 C2228 C 1.08426 0.58437 0.70175
 H2229 H 1.10386 0.56423 0.75367
 H2230 H 1.08935 0.55014 0.71634
 H2231 H 1.08148 0.62080 0.69303
 H2232 H 1.09558 0.63466 0.73055
 C2233 C 0.60108 1.10103 0.74420
 C2234 C 0.59918 1.07721 0.74021
 C2235 C 0.59082 1.06908 0.71901
 C2236 C 0.61748 1.11672 0.78393
 C2237 C 0.58614 1.10863 0.70577
 C2238 C 0.59451 1.11671 0.72696
 C2239 C 0.60996 1.10945 0.76588
 C2240 C 0.58423 1.08471 0.70153
 H2241 H 0.60418 1.06492 0.75345
 H2242 H 0.58931 1.05058 0.71635
 H2243 H 0.58153 1.12109 0.69255
 H2244 H 0.59599 1.13518 0.72984
 C2245 C 0.59997 0.60034 1.24496
 C2246 C 0.59812 0.57653 1.24083
 C2247 C 0.58996 0.56851 1.21952
 C2248 C 0.61606 0.61584 1.28488
 C2249 C 0.58539 0.60813 1.20643
 C2250 C 0.59356 0.61610 1.22774
 C2251 C 0.60867 0.60865 1.26675
 C2252 C 0.58353 0.58424 1.20206
 H2253 H 0.60301 0.56418 1.25406
 H2254 H 0.58848 0.55003 1.21675
 H2255 H 0.58091 0.62065 1.19324
 H2256 H 0.59502 0.63457 1.23073
 C2257 C 0.89939 0.89944 1.24459
 C2258 C 0.90112 0.92327 1.24051
 C2259 C 0.90929 0.93138 1.21924
 C2260 C 0.88340 0.88374 1.28447
 C2261 C 0.91410 0.89182 1.20608
 C2262 C 0.90592 0.88375 1.22734
 C2263 C 0.89073 0.89103 1.26636
 C2264 C 0.91586 0.91574 1.20177
 H2265 H 0.89614 0.93556 1.25376
 H2266 H 0.91069 0.94988 1.21653
 H2267 H 0.91869 0.87935 1.19287
 H2268 H 0.90456 0.86528 1.23028
 C2269 C 0.89870 0.39908 0.74432
 C2270 C 0.90054 0.42290 0.74029
 C2271 C 0.90901 0.43102 0.71914
 C2272 C 0.88216 0.38337 0.78397
 C2273 C 0.91392 0.39147 0.70600
 C2274 C 0.90545 0.38340 0.72715
 C2275 C 0.88972 0.39067 0.76596
 C2276 C 0.91576 0.41538 0.70173
 H2277 H 0.89542 0.43520 0.75349
 H2278 H 0.91046 0.44952 0.71646
 H2279 H 0.91866 0.37900 0.69283
 H2280 H 0.90402 0.36492 0.73005
 C2281 C 0.39898 0.89976 0.74441
 C2282 C 0.40083 0.92356 0.74027
 C2283 C 0.40901 0.93157 0.71896
 C2284 C 0.38295 0.88424 0.78433
 C2285 C 0.41358 0.89195 0.70589
 C2286 C 0.40539 0.88399 0.72719
 C2287 C 0.39030 0.89145 0.76620
 C2288 C 0.41546 0.91584 0.70152
 H2289 H 0.39595 0.93592 0.75349
 H2290 H 0.41050 0.95005 0.71619
 H2291 H 0.41807 0.87942 0.69270
 H2292 H 0.40393 0.86553 0.73018
 C2293 C 0.39867 0.39937 1.24468
 C2294 C 0.40053 0.42318 1.24058
 C2295 C 0.40879 0.43123 1.21932
 C2296 C 0.38254 0.38378 1.28455
 C2297 C 0.41343 0.39163 1.20621
 C2298 C 0.40516 0.38363 1.22747
 C2299 C 0.38992 0.39102 1.26644
 C2300 C 0.41531 0.41553 1.20188
 H2301 H 0.39559 0.43552 1.25381
 H2302 H 0.41029 0.44971 1.21659
 H2303 H 0.41798 0.37912 1.19302
 H2304 H 0.40370 0.36516 1.23042
 C2305 C 0.89901 1.10047 0.75519
 C2306 C 0.88333 1.09397 0.77243
 C2307 C 0.89138 1.08588 0.79374
 C2308 C 0.88337 1.11637 0.71523
 C2309 C 0.93091 1.09071 0.78063
 C2310 C 0.92281 1.09880 0.75931
 C2311 C 0.89061 1.10906 0.73338
 C2312 C 0.91528 1.08417 0.79810
 H2313 H 0.86487 1.09529 0.76946
 H2314 H 0.87892 1.08131 0.80695
 H2315 H 0.94940 1.08936 0.78338
 H2316 H 0.93510 1.10376 0.74607
 C2317 C 0.90049 0.59952 0.25492
 C2318 C 0.90226 0.57573 0.25917
 C2319 C 0.91023 0.56778 0.28059
 C2320 C 0.88480 0.61493 0.21482
 C2321 C 0.91475 0.60745 0.29353
 C2322 C 0.90676 0.61534 0.27212
 C2323 C 0.89201 0.60777 0.23302
 C2324 C 0.91656 0.58357 0.29801
 H2325 H 0.89746 0.56333 0.24595
 H2326 H 0.91167 0.54931 0.28345
 H2327 H 0.91915 0.62002 0.30670
 H2328 H 0.90536 0.63380 0.26904
 C2329 C 0.39993 1.09974 0.25464
 C2330 C 0.40630 1.11561 0.27178
 C2331 C 0.41448 1.10777 0.29313
 C2332 C 0.38382 1.11504 0.21467
 C2333 C 0.41002 1.06807 0.28026
 C2334 C 0.40185 1.07596 0.25890
 C2335 C 0.39121 1.10792 0.23282
 C2336 C 0.41638 1.08390 0.29764
 H2337 H 0.40480 1.13405 0.26869
 H2338 H 0.41892 1.12037 0.30627
 H2339 H 0.41154 1.04961 0.28313
 H2340 H 0.39701 1.06353 0.24574
 C2341 C 0.39989 0.60012 0.75531
 C2342 C 0.40182 0.57633 0.75946
 C2343 C 0.41000 0.56835 0.78078
 C2344 C 0.38374 0.61557 0.71539
 C2345 C 0.41445 0.60799 0.79383
 C2346 C 0.40626 0.61592 0.77251
 C2347 C 0.39115 0.60840 0.73352
 C2348 C 0.41638 0.58410 0.79822
 H2349 H 0.39696 0.56395 0.74625
 H2350 H 0.41153 0.54987 0.78357
 H2351 H 0.41890 0.62053 0.80701
 H2352 H 0.40475 0.63438 0.76951
 C2353 C 1.09932 0.90018 0.75483
 C2354 C 1.09746 0.92395 0.75912
 C2355 C 1.08952 0.93185 0.78056
 C2356 C 1.11504 0.88493 0.71468
 C2357 C 1.08519 0.89215 0.79347
 C2358 C 1.09314 0.88431 0.77203
 C2359 C 1.10781 0.89200 0.73291
 C2360 C 1.08332 0.91602 0.79799
 H2361 H 1.10217 0.93639 0.74591
 H2362 H 1.08802 0.95031 0.78345
 H2363 H 1.08087 0.87955 0.80664
 H2364 H 1.09460 0.86586 0.76893
 C2365 C 1.10017 0.39997 0.25510
 C2366 C 1.09827 0.42374 0.25938
 C2367 C 1.09018 0.43162 0.28077
 C2368 C 1.11614 0.38471 0.21505
 C2369 C 1.08576 0.39192 0.29363
 C2370 C 1.09386 0.38409 0.27224
 C2371 C 1.10881 0.39180 0.23324
 C2372 C 1.08386 0.41578 0.29815
 H2373 H 1.10308 0.43618 0.24621
 H2374 H 1.08867 0.45008 0.28366
 H2375 H 1.08136 0.37931 0.30676
 H2376 H 1.09535 0.36565 0.26914
 C2377 C 0.60030 0.89931 0.25522
 C2378 C 0.59851 0.92312 0.25935
 C2379 C 0.59040 0.93118 0.28068
 C2380 C 0.61623 0.88374 0.21527
 C2381 C 0.58579 0.89157 0.29377
 C2382 C 0.59390 0.88357 0.27246
 C2383 C 0.60891 0.89097 0.23341
 C2384 C 0.58396 0.91548 0.29814
 H2385 H 0.60339 0.93546 0.24611
 H2386 H 0.58895 0.94966 0.28344
 H2387 H 0.58130 0.87907 0.30697
 H2388 H 0.59532 0.86510 0.26947
 C2389 C 0.60068 0.39886 0.75583
 C2390 C 0.59883 0.42268 0.75993
 C2391 C 0.59066 0.43073 0.78123
 C2392 C 0.61673 0.38330 0.71591
 C2393 C 0.58609 0.39114 0.79436
 C2394 C 0.59427 0.38313 0.77307
 C2395 C 0.60937 0.39052 0.73404
 C2396 C 0.58422 0.41504 0.79870
 H2397 H 0.60372 0.43501 0.74669
 H2398 H 0.58917 0.44922 0.78397
 H2399 H 0.58160 0.37863 0.80756
 H2400 H 0.59573 0.36466 0.77010
 C2401 C 1.24484 1.10050 1.09997
 C2402 C 1.24058 1.07671 1.09832
 C2403 C 1.21921 1.06873 1.09026
 C2404 C 1.28489 1.11590 1.11583
 C2405 C 1.20631 1.10838 1.08538
 C2406 C 1.22767 1.11630 1.09345
 C2407 C 1.26669 1.10876 1.10854
 C2408 C 1.20182 1.08449 1.08373
 H2409 H 1.25376 1.06432 1.10329
 H2410 H 1.21635 1.05025 1.08894
 H2411 H 1.19316 1.12093 1.08081
 H2412 H 1.23075 1.13476 1.09475
 C2413 C 1.24502 0.60051 0.60041
 C2414 C 1.24085 0.57670 0.59871
 C2415 C 1.21953 0.56867 0.59056
 C2416 C 1.28497 0.61605 0.61639
 C2417 C 1.20651 0.60828 0.58572
 C2418 C 1.22782 0.61626 0.59387
 C2419 C 1.26682 0.60884 0.60906
 C2420 C 1.20211 0.58438 0.58400
 H2421 H 1.25406 0.56436 0.60369
 H2422 H 1.21675 0.55018 0.58919
 H2423 H 1.19334 0.62080 0.58112
 H2424 H 1.23083 0.63473 0.59520
 C2425 C 0.74437 1.10015 0.60086
 C2426 C 0.72705 1.09376 0.61652
 C2427 C 0.70575 1.08571 0.60844
 C2428 C 0.78431 1.11596 0.61658
 C2429 C 0.71898 1.09037 0.56894
 C2430 C 0.74030 1.09842 0.57706
 C2431 C 0.76617 1.10869 0.60929
 C2432 C 0.70146 1.08393 0.58455
 H2433 H 0.72998 1.09513 0.63498
 H2434 H 0.69249 1.08121 0.62088
 H2435 H 0.71628 1.08896 0.55046
 H2436 H 0.75360 1.10330 0.56480
 C2437 C 0.74494 0.59946 1.10017
 C2438 C 0.72777 0.59320 1.11603
 C2439 C 0.70636 0.58516 1.10821
 C2440 C 0.78506 0.61526 1.11542
 C2441 C 0.71924 0.58955 1.06855
 C2442 C 0.74066 0.59758 1.07643
 C2443 C 0.76684 0.60801 1.10834
 C2444 C 0.70183 0.58328 1.08437
 H2445 H 0.73088 0.59467 1.13445
 H2446 H 0.69320 0.58079 1.12080
 H2447 H 0.71635 0.58805 1.05011
 H2448 H 0.75385 0.60234 1.06400
 C2449 C 1.24451 0.89959 0.89919
 C2450 C 1.24048 0.90147 0.92298
 C2451 C 1.21918 0.90962 0.93108
 C2452 C 1.28444 0.88363 0.88352
 C2453 C 1.20590 0.91410 0.89157
 C2454 C 1.22719 0.90594 0.88352
 C2455 C 1.26631 0.89095 0.89078
 C2456 C 1.20164 0.91602 0.91546
 H2457 H 1.25379 0.89662 0.93526
 H2458 H 1.21651 0.91114 0.94956
 H2459 H 1.19263 0.91856 0.87912
 H2460 H 1.23009 0.90447 0.86506
 C2461 C 1.24469 0.39920 0.39875
 C2462 C 1.24073 0.40088 0.42257
 C2463 C 1.21944 0.40893 0.43080
 C2464 C 1.28461 0.38345 0.38283
 C2465 C 1.20602 0.41367 0.39137
 C2466 C 1.22730 0.40561 0.38318
 C2467 C 1.26648 0.39069 0.39020
 C2468 C 1.20185 0.41543 0.41528
 H2469 H 1.25409 0.39598 0.43477
 H2470 H 1.21682 0.41033 0.44929
 H2471 H 1.19271 0.41820 0.37898
 H2472 H 1.23014 0.40427 0.36471
 C2473 C 0.74435 0.89941 0.39901
 C2474 C 0.74031 0.90105 0.42282
 C2475 C 0.71897 0.90902 0.43100
 C2476 C 0.78435 0.88380 0.38319
 C2477 C 0.70566 0.91376 0.39152
 C2478 C 0.72699 0.90577 0.38340
 C2479 C 0.76619 0.89098 0.39052
 C2480 C 0.70141 0.91548 0.41542
 H2481 H 0.75365 0.89617 0.43506
 H2482 H 0.71629 0.91039 0.44948
 H2483 H 0.69238 0.91826 0.37910
 H2484 H 0.72989 0.90446 0.36493
 C2485 C 0.74428 0.39889 0.89878
 C2486 C 0.72717 0.38318 0.90557
 C2487 C 0.70599 0.39121 0.91406
 C2488 C 0.78397 0.38326 0.88217
 C2489 C 0.71900 0.43079 0.90909
 C2490 C 0.74018 0.42271 0.90060
 C2491 C 0.76594 0.39052 0.88976
 C2492 C 0.70165 0.41512 0.91587
 H2493 H 0.73013 0.36470 0.90415
 H2494 H 0.69287 0.37872 0.91882
 H2495 H 0.71626 0.44928 0.91052
 H2496 H 0.75333 0.43503 0.89544
 C2497 C 0.75535 0.89988 1.10086
 C2498 C 0.75949 0.92369 1.09913
 C2499 C 0.78080 0.93174 1.09100
 C2500 C 0.71541 0.88430 1.11680
 C2501 C 0.79389 0.89214 1.08627
 C2502 C 0.77259 0.88414 1.09440
 C2503 C 0.73355 0.89153 1.10948
 C2504 C 0.79826 0.91604 1.08449
 H2505 H 0.74625 0.93603 1.10406
 H2506 H 0.78356 0.95023 1.08960
 H2507 H 0.80709 0.87963 1.08172
 H2508 H 0.76960 0.86567 1.09577
 C2509 C 0.75568 0.39955 0.60106
 C2510 C 0.77287 0.38379 0.59451
 C2511 C 0.79414 0.39176 0.58626
 C2512 C 0.71582 0.38400 0.61724
 C2513 C 0.78110 0.43138 0.59102
 C2514 C 0.75982 0.42335 0.59927
 C2515 C 0.73392 0.39122 0.60982
 C2516 C 0.79852 0.41566 0.58445
 H2517 H 0.76988 0.36532 0.59591
 H2518 H 0.80731 0.37924 0.58166
 H2519 H 0.78387 0.44986 0.58959
 H2520 H 0.74662 0.43570 0.60426
 C2521 C 0.25476 0.90065 0.59938
 C2522 C 0.27192 0.88477 0.59304
 C2523 C 0.29334 0.89261 0.58505
 C2524 C 0.21463 0.88534 0.61507
 C2525 C 0.28050 0.93231 0.58969
 C2526 C 0.25907 0.92443 0.59766
 C2527 C 0.23285 0.89246 0.60786
 C2528 C 0.29789 0.91648 0.58331
 H2529 H 0.26879 0.86633 0.59439
 H2530 H 0.30648 0.88001 0.58060
 H2531 H 0.28341 0.95078 0.58830
 H2532 H 0.24589 0.93686 0.60250
 C2533 C 0.25489 0.39985 1.10032
 C2534 C 0.27210 0.38409 1.09384
 C2535 C 0.29346 0.39206 1.08580
 C2536 C 0.21486 0.38433 1.11609
 C2537 C 0.28046 0.43168 1.09065
 C2538 C 0.25910 0.42366 1.09869
 C2539 C 0.23304 0.39153 1.10884
 C2540 C 0.29789 0.41596 1.08413
 H2541 H 0.26907 0.36562 1.09513
 H2542 H 0.30663 0.37953 1.08124
 H2543 H 0.28328 0.45017 1.08932
 H2544 H 0.24588 0.43601 1.10363
 C2545 C 0.75545 1.10078 0.89845
 C2546 C 0.77261 1.11649 0.90513
 C2547 C 0.79381 1.10845 0.91355
 C2548 C 0.71569 1.11645 0.88204
 C2549 C 0.78074 1.06888 0.90869
 C2550 C 0.75954 1.07696 0.90028
 C2551 C 0.73375 1.10917 0.88954
 C2552 C 0.79814 1.08454 0.91539
 H2553 H 0.76965 1.13496 0.90371
 H2554 H 0.80696 1.12094 0.91825
 H2555 H 0.78347 1.05038 0.91015
 H2556 H 0.74635 1.06465 0.89520
 C2557 C 0.75551 0.59986 0.39919
 C2558 C 0.77267 0.61565 0.40567
 C2559 C 0.79400 0.60772 0.41385
 C2560 C 0.71552 0.61532 0.38319
 C2561 C 0.78107 0.56807 0.40914
 C2562 C 0.75973 0.57606 0.40098
 C2563 C 0.73368 0.60814 0.39053
 C2564 C 0.79846 0.58383 0.41565
 H2565 H 0.76961 0.63411 0.40427
 H2566 H 0.80714 0.62026 0.41840
 H2567 H 0.78390 0.54960 0.41058
 H2568 H 0.74655 0.56368 0.39604
 C2569 C 0.25558 1.10067 0.39831
 C2570 C 0.27274 1.11639 0.40495
 C2571 C 0.29399 1.10836 0.41326
 C2572 C 0.21573 1.11631 0.38211
 C2573 C 0.28096 1.06878 0.40837
 C2574 C 0.25971 1.07685 0.40007
 C2575 C 0.23383 1.10904 0.38952
 C2576 C 0.29836 1.08446 0.41503
 H2577 H 0.26976 1.13486 0.40358
 H2578 H 0.30714 1.12086 0.41793
 H2579 H 0.28372 1.05029 0.40977
 H2580 H 0.24652 1.06453 0.39501
 C2581 C 0.25541 0.60029 0.89923
 C2582 C 0.27271 0.59393 0.88354
 C2583 C 0.29403 0.58581 0.89157
 C2584 C 0.21545 0.61624 0.88364
 C2585 C 0.28082 0.59036 0.93110
 C2586 C 0.25949 0.59847 0.92302
 C2587 C 0.23360 0.60891 0.89086
 C2588 C 0.29834 0.58395 0.91545
 H2589 H 0.26976 0.59537 0.86509
 H2590 H 0.30727 0.58135 0.87910
 H2591 H 0.28354 0.58888 0.94957
 H2592 H 0.24621 0.60332 0.93532
 C2593 C 1.10052 1.24527 1.09957
 C2594 C 1.07672 1.24116 1.09791
 C2595 C 1.06861 1.21979 1.08995
 C2596 C 1.11618 1.28529 1.11530
 C2597 C 1.10815 1.20658 1.08523
 C2598 C 1.11620 1.22794 1.09320
 C2599 C 1.10892 1.26712 1.10806
 C2600 C 1.08426 1.20225 1.08351
 H2601 H 1.06443 1.25447 1.10279
 H2602 H 1.05013 1.21705 1.08859
 H2603 H 1.12061 1.19332 1.08074
 H2604 H 1.13466 1.23090 1.09452
 C2605 C 1.09982 0.74524 0.59957
 C2606 C 1.09351 0.72803 0.61538
 C2607 C 1.08560 0.70658 0.60751
 C2608 C 1.11535 0.78545 0.61493
 C2609 C 1.09024 0.71947 0.56788
 C2610 C 1.09815 0.74093 0.57581
 C2611 C 1.10821 0.76719 0.60779
 C2612 C 1.08388 0.70205 0.58366
 H2613 H 1.09484 0.73115 0.63381
 H2614 H 1.08116 0.69341 0.62007
 H2615 H 1.08887 0.71657 0.54943
 H2616 H 1.10296 0.75414 0.56341
 C2617 C 0.60051 1.24464 0.60070
 C2618 C 0.61621 1.22737 0.59420
 C2619 C 0.60818 1.20611 0.58594
 C2620 C 0.61614 1.28447 0.61695
 C2621 C 0.56863 1.21931 0.59060
 C2622 C 0.57671 1.24058 0.59885
 C2623 C 0.60889 1.26639 0.60949
 C2624 C 0.58429 1.20182 0.58408
 H2625 H 0.63467 1.23030 0.59565
 H2626 H 0.62065 1.19288 0.58138
 H2627 H 0.55016 1.21661 0.58912
 H2628 H 0.56441 1.25385 0.60380
 C2629 C 0.60035 0.74460 1.10068
 C2630 C 0.57656 0.74051 1.09880
 C2631 C 0.56852 0.71918 1.09066
 C2632 C 0.61590 0.78456 1.11669
 C2633 C 0.60808 0.70598 1.08617
 C2634 C 0.61608 0.72731 1.09432
 C2635 C 0.60869 0.76641 1.10933
 C2636 C 0.58420 0.70166 1.08427
 H2637 H 0.56424 0.75379 1.10365
 H2638 H 0.55005 0.71645 1.08916
 H2639 H 0.62058 0.69274 1.08172
 H2640 H 0.63453 0.73025 1.09579
 C2641 C 0.89856 1.24448 0.89883
 C2642 C 0.92238 1.24047 0.90060
 C2643 C 0.93056 1.21923 0.90887
 C2644 C 0.88273 1.28426 0.88259
 C2645 C 0.89107 1.20597 0.91369
 C2646 C 0.88294 1.22720 0.90542
 C2647 C 0.89007 1.26620 0.89004
 C2648 C 0.91498 1.20173 0.91549
 H2649 H 0.93462 1.25375 0.89557
 H2650 H 0.94905 1.21657 0.91029
 H2651 H 0.87866 1.19272 0.91832
 H2652 H 0.86447 1.23008 0.90403
 C2653 C 0.89988 0.74458 0.39917
 C2654 C 0.92366 0.74043 0.40102
 C2655 C 0.93168 0.71910 0.40923
 C2656 C 0.88434 0.78452 0.38305
 C2657 C 0.89209 0.70606 0.41385
 C2658 C 0.88413 0.72738 0.40563
 C2659 C 0.89157 0.76639 0.39044
 C2660 C 0.91597 0.70167 0.41571
 H2661 H 0.93601 0.75365 0.39610
 H2662 H 0.95014 0.71632 0.41071
 H2663 H 0.87958 0.69288 0.41838
 H2664 H 0.86568 0.73039 0.40418
 C2665 C 0.39927 1.24470 0.39906
 C2666 C 0.38360 1.22742 0.40550
 C2667 C 0.39166 1.20611 0.41366
 C2668 C 0.38355 1.28462 0.38309
 C2669 C 0.43119 1.21931 0.40900
 C2670 C 0.42308 1.24062 0.40085
 C2671 C 0.39086 1.26650 0.39042
 C2672 C 0.41555 1.20180 0.41548
 H2673 H 0.36514 1.23036 0.40409
 H2674 H 0.37920 1.19288 0.41818
 H2675 H 0.44967 1.21658 0.41044
 H2676 H 0.43536 1.25390 0.39593
 C2677 C 0.39904 0.74458 0.89970
 C2678 C 0.38340 0.72724 0.90607
 C2679 C 0.39150 0.70592 0.91415
 C2680 C 0.38326 0.78454 0.88388
 C2681 C 0.43100 0.71921 0.90954
 C2682 C 0.42285 0.74054 0.90147
 C2683 C 0.39058 0.76640 0.89115
 C2684 C 0.41540 0.70166 0.91598
 H2685 H 0.36493 0.73015 0.90467
 H2686 H 0.37907 0.69265 0.91864
 H2687 H 0.44949 0.71652 0.91098
 H2688 H 0.43511 0.75386 0.89660
 C2689 C 1.10100 0.75534 0.90021
 C2690 C 1.07719 0.75942 0.90196
 C2691 C 1.06907 0.78077 0.91001
 C2692 C 1.11670 0.71537 0.88435
 C2693 C 1.10859 0.79401 0.91461
 C2694 C 1.11666 0.77267 0.90656
 C2695 C 1.10942 0.73352 0.89165
 C2696 C 1.08469 0.79831 0.91641
 H2697 H 1.06492 0.74611 0.89711
 H2698 H 1.05059 0.78348 0.91144
 H2699 H 1.12104 0.80728 0.91908
 H2700 H 1.13512 0.76973 0.90517
 C2701 C 1.10128 0.25518 0.39951
 C2702 C 1.07747 0.25921 0.40133
 C2703 C 1.06933 0.28048 0.40956
 C2704 C 1.11701 0.21537 0.38324
 C2705 C 1.10884 0.29372 0.41426
 C2706 C 1.11693 0.27246 0.40602
 C2707 C 1.10972 0.23344 0.39071
 C2708 C 1.08494 0.29799 0.41609
 H2709 H 1.06521 0.24593 0.39636
 H2710 H 1.05085 0.28316 0.41101
 H2711 H 1.12128 0.30697 0.41882
 H2712 H 1.13540 0.26955 0.40458
 C2713 C 0.60021 0.75486 0.39959
 C2714 C 0.61594 0.77209 0.40606
 C2715 C 0.60795 0.79342 0.41420
 C2716 C 0.61575 0.71490 0.38355
 C2717 C 0.56838 0.78038 0.40948
 C2718 C 0.57642 0.75904 0.40135
 C2719 C 0.60854 0.73304 0.39092
 C2720 C 0.58407 0.79783 0.41597
 H2721 H 0.63439 0.76907 0.40468
 H2722 H 0.62046 0.80662 0.41874
 H2723 H 0.54991 0.78318 0.41089
 H2724 H 0.56409 0.74581 0.39641
 C2725 C 0.60120 0.25520 0.89944
 C2726 C 0.61682 0.27248 0.90602
 C2727 C 0.60870 0.29368 0.91439
 C2728 C 0.61698 0.21550 0.88298
 C2729 C 0.56922 0.28039 0.90967
 C2730 C 0.57738 0.25918 0.90132
 C2731 C 0.60966 0.23353 0.89053
 C2732 C 0.58480 0.29790 0.91627
 H2733 H 0.63529 0.26962 0.90455
 H2734 H 0.62112 0.30693 0.91900
 H2735 H 0.55073 0.28303 0.91116
 H2736 H 0.56514 0.24591 0.89630
 C2737 C 0.90014 0.75513 1.10007
 C2738 C 0.88435 0.77241 1.09382
 C2739 C 0.89228 0.79383 1.08589
 C2740 C 0.88470 0.71495 1.11561
 C2741 C 0.93189 0.78078 1.09040
 C2742 C 0.92391 0.75934 1.09833
 C2743 C 0.89186 0.73319 1.10846
 C2744 C 0.91615 0.79827 1.08409
 H2745 H 0.86591 0.76936 1.09520
 H2746 H 0.87974 0.80705 1.08149
 H2747 H 0.95035 0.78360 1.08897
 H2748 H 0.93628 0.74607 1.10310
 C2749 C 0.90010 0.25532 0.60087
 C2750 C 0.90179 0.25943 0.57708
 C2751 C 0.90989 0.28075 0.56898
 C2752 C 0.88414 0.21540 0.61653
 C2753 C 0.91468 0.29391 0.60850
 C2754 C 0.90658 0.27259 0.61655
 C2755 C 0.89148 0.23353 0.60927
 C2756 C 0.91641 0.29824 0.58462
 H2757 H 0.89684 0.24616 0.56479
 H2758 H 0.91126 0.28349 0.55051
 H2759 H 0.91924 0.30714 0.62096
 H2760 H 0.90524 0.26964 0.63501
 C2761 C 0.39908 0.75519 0.59991
 C2762 C 0.42288 0.75931 0.59823
 C2763 C 0.43096 0.78066 0.59017
 C2764 C 0.38348 0.71521 0.61579
 C2765 C 0.39141 0.79381 0.58539
 C2766 C 0.38338 0.77247 0.59346
 C2767 C 0.39071 0.73336 0.60849
 C2768 C 0.41530 0.79816 0.58367
 H2769 H 0.43519 0.74604 0.60316
 H2770 H 0.44944 0.78341 0.58881
 H2771 H 0.37893 0.80704 0.58085
 H2772 H 0.36493 0.76950 0.59479
 C2773 C 0.39923 0.25494 1.09978
 C2774 C 0.38352 0.27226 1.09350
 C2775 C 0.39154 0.29367 1.08560
 C2776 C 0.38364 0.21483 1.11534
 C2777 C 0.43109 0.28049 1.09022
 C2778 C 0.42303 0.25908 1.09812
 C2779 C 0.39087 0.23304 1.10818
 C2780 C 0.41542 0.29803 1.08388
 H2781 H 0.36507 0.26928 1.09483
 H2782 H 0.37905 0.30693 1.08118
 H2783 H 0.44957 0.28326 1.08885
 H2784 H 0.43534 0.24577 1.10292
 C2785 C 1.10070 1.10151 0.75559
 C2786 C 1.09411 1.11709 0.77291
 C2787 C 1.08589 1.10890 0.79411
 C2788 C 1.11678 1.11744 0.71583
 C2789 C 1.09080 1.06942 0.78075
 C2790 C 1.09901 1.07766 0.75954
 C2791 C 1.10940 1.11006 0.73389
 C2792 C 1.08416 1.08496 0.79828
 H2793 H 1.09544 1.13559 0.77007
 H2794 H 1.08124 1.12129 0.80737
 H2795 H 1.08943 1.05090 0.78336
 H2796 H 1.10405 1.06545 0.74624
 C2797 C 1.10103 0.60132 0.25563
 C2798 C 1.11670 0.59463 0.27282
 C2799 C 1.10865 0.58622 0.29400
 C2800 C 1.11672 0.61777 0.21593
 C2801 C 1.06912 0.59110 0.28085
 C2802 C 1.07723 0.59949 0.25967
 C2803 C 1.10943 0.61023 0.23396
 C2804 C 1.08475 0.58439 0.29828
 H2805 H 1.13517 0.59605 0.26991
 H2806 H 1.12110 0.58153 0.30719
 H2807 H 1.05064 0.58965 0.28354
 H2808 H 1.06494 0.60459 0.24646
 C2809 C 0.60079 1.10097 0.25545
 C2810 C 0.61646 1.09435 0.27267
 C2811 C 0.60839 1.08608 0.29390
 C2812 C 0.61648 1.11720 0.21566
 C2813 C 0.56887 1.09099 0.28075
 C2814 C 0.57698 1.09924 0.25951
 C2815 C 0.60920 1.10975 0.23373
 C2816 C 0.58449 1.08434 0.29820
 H2817 H 0.63492 1.09570 0.26974
 H2818 H 0.62084 1.08143 0.30710
 H2819 H 0.55038 1.08960 0.28345
 H2820 H 0.56470 1.10429 0.24628
 C2821 C 0.60008 0.59984 0.75553
 C2822 C 0.59381 0.61565 0.77276
 C2823 C 0.58580 0.60773 0.79414
 C2824 C 0.61579 0.61526 0.71544
 C2825 C 0.59026 0.56808 0.78112
 C2826 C 0.59827 0.57605 0.75973
 C2827 C 0.60857 0.60810 0.73364
 C2828 C 0.58395 0.58385 0.79857
 H2829 H 0.59524 0.63411 0.76972
 H2830 H 0.58140 0.62029 0.80733
 H2831 H 0.58879 0.54961 0.78394
 H2832 H 0.60305 0.56366 0.74650
 C2833 C 0.90026 0.89990 0.75533
 C2834 C 0.90656 0.88406 0.77253
 C2835 C 0.91454 0.89195 0.79394
 C2836 C 0.88452 0.88456 0.71523
 C2837 C 0.91000 0.93162 0.78101
 C2838 C 0.90202 0.92368 0.75959
 C2839 C 0.89176 0.89167 0.73344
 C2840 C 0.91632 0.91583 0.79843
 H2841 H 0.90516 0.86561 0.76945
 H2842 H 0.91895 0.87937 0.80711
 H2843 H 0.91142 0.95009 0.78387
 H2844 H 0.89722 0.93609 0.74638
 C2845 C 0.89928 0.39814 0.25582
 C2846 C 0.88365 0.40477 0.27307
 C2847 C 0.89177 0.41302 0.29429
 C2848 C 0.88348 0.38210 0.21599
 C2849 C 0.93126 0.40805 0.28110
 C2850 C 0.92310 0.39981 0.25986
 C2851 C 0.89082 0.38945 0.23408
 C2852 C 0.91567 0.41475 0.29856
 H2853 H 0.86518 0.40346 0.27015
 H2854 H 0.87934 0.41771 0.30750
 H2855 H 0.94975 0.40941 0.28378
 H2856 H 0.93535 0.39475 0.24662
 C2857 C 0.39934 0.89851 0.25527
 C2858 C 0.40579 0.88291 0.27262
 C2859 C 0.41390 0.89108 0.29387
 C2860 C 0.38344 0.88264 0.21540
 C2861 C 0.40913 0.93058 0.28050
 C2862 C 0.40104 0.92235 0.25924
 C2863 C 0.39075 0.88998 0.23351
 C2864 C 0.41565 0.91502 0.29807
 H2865 H 0.40445 0.86442 0.26977
 H2866 H 0.41845 0.87868 0.30716
 H2867 H 0.41052 0.94909 0.28313
 H2868 H 0.39610 0.93458 0.24591
 C2869 C 0.40039 0.39898 0.75548
 C2870 C 0.40666 0.38327 0.77280
 C2871 C 0.41463 0.39130 0.79415
 C2872 C 0.38468 0.38338 0.71545
 C2873 C 0.41011 0.43089 0.78095
 C2874 C 0.40215 0.42280 0.75958
 C2875 C 0.39191 0.39061 0.73363
 C2876 C 0.41644 0.41521 0.79848
 H2877 H 0.40526 0.36480 0.76984
 H2878 H 0.41904 0.37882 0.80741
 H2879 H 0.41155 0.44938 0.78368
 H2880 H 0.39735 0.43512 0.74628
 C2881 C 1.10027 0.89995 1.24488
 C2882 C 1.09856 0.92377 1.24073
 C2883 C 1.09057 0.93184 1.21937
 C2884 C 1.11596 0.88433 1.28491
 C2885 C 1.08592 0.89225 1.20626
 C2886 C 1.09392 0.88422 1.22761
 C2887 C 1.10875 0.89158 1.26673
 C2888 C 1.08415 0.91615 1.20189
 H2889 H 1.10342 0.93609 1.25400
 H2890 H 1.08916 0.95033 1.21660
 H2891 H 1.08145 0.87975 1.19304
 H2892 H 1.09528 0.86575 1.23060
 C2893 C 1.10069 0.39984 0.74493
 C2894 C 1.09429 0.38408 0.72771
 C2895 C 1.08626 0.39206 0.70635
 C2896 C 1.11637 0.38427 0.78499
 C2897 C 1.09100 0.43168 0.71936
 C2898 C 1.09902 0.42365 0.74073
 C2899 C 1.10918 0.39150 0.76680
 C2900 C 1.08453 0.41596 0.70193
 H2901 H 1.09561 0.36562 0.73074
 H2902 H 1.08174 0.37954 0.69317
 H2903 H 1.08963 0.45017 0.71655
 H2904 H 1.10392 0.43599 0.75396
 C2905 C 0.59932 0.89998 0.74497
 C2906 C 0.59300 0.88414 0.72779
 C2907 C 0.58498 0.89203 0.70639
 C2908 C 0.61514 0.88463 0.78505
 C2909 C 0.58954 0.93170 0.71930
 C2910 C 0.59755 0.92377 0.74070
 C2911 C 0.60787 0.89176 0.76685
 C2912 C 0.58319 0.91591 0.70189
 H2913 H 0.59440 0.86569 0.73088
 H2914 H 0.58055 0.87945 0.69324
 H2915 H 0.58811 0.95017 0.71643
 H2916 H 0.60238 0.93617 0.75390
 C2917 C 0.60011 0.39936 1.24510
 C2918 C 0.59827 0.42316 1.24096
 C2919 C 0.59006 0.43120 1.21967
 C2920 C 0.61626 0.38381 1.28498
 C2921 C 0.58543 0.39159 1.20660
 C2922 C 0.59365 0.38360 1.22789
 C2923 C 0.60885 0.39103 1.26687
 C2924 C 0.58358 0.41548 1.20223
 H2925 H 0.60320 0.43551 1.25418
 H2926 H 0.58859 0.44968 1.21690
 H2927 H 0.58090 0.37907 1.19342
 H2928 H 0.59509 0.36514 1.23088
 C2929 C 0.90085 1.09973 1.24534
 C2930 C 0.90268 1.07597 1.24095
 C2931 C 0.91061 1.06817 1.21947
 C2932 C 0.88513 1.11483 1.28554
 C2933 C 0.91498 1.10792 1.20674
 C2934 C 0.90704 1.11567 1.22822
 C2935 C 0.89236 1.10781 1.26729
 C2936 C 0.91681 1.08407 1.20211
 H2937 H 0.89795 1.06348 1.25411
 H2938 H 0.91208 1.04971 1.21650
 H2939 H 0.91930 1.12057 1.19363
 H2940 H 0.90560 1.13410 1.23141
 C2941 C 0.90030 0.60005 0.74494
 C2942 C 0.90208 0.57626 0.74069
 C2943 C 0.91012 0.56831 0.71930
 C2944 C 0.88446 0.61542 0.78501
 C2945 C 0.91469 0.60797 0.70638
 C2946 C 0.90664 0.61587 0.72776
 C2947 C 0.89173 0.60829 0.76681
 C2948 C 0.91649 0.58409 0.70189
 H2949 H 0.89725 0.56386 0.75389
 H2950 H 0.91156 0.54984 0.71645
 H2951 H 0.91913 0.62054 0.69322
 H2952 H 0.90523 0.63433 0.73084
 C2953 C 0.39967 1.10095 0.74449
 C2954 C 0.40132 1.07712 0.74037
 C2955 C 0.40929 1.06901 0.71902
 C2956 C 0.38399 1.11663 0.78450
 C2957 C 0.41405 1.10858 0.70587
 C2958 C 0.40606 1.11664 0.72721
 C2959 C 0.39121 1.10936 0.76634
 C2960 C 0.41575 1.08466 0.70152
 H2961 H 0.39643 1.06483 0.75364
 H2962 H 0.41065 1.05051 0.71626
 H2963 H 0.41855 1.12105 0.69264
 H2964 H 0.40475 1.13512 0.73018
 C2965 C 0.39903 0.60149 1.24448
 C2966 C 0.40073 0.57764 1.24052
 C2967 C 0.40883 0.56940 1.21925
 C2968 C 0.38315 0.61739 1.28434
 C2969 C 0.41359 0.60889 1.20588
 C2970 C 0.40548 0.61708 1.22713
 C2971 C 0.39045 0.61003 1.26624
 C2972 C 0.41535 0.58494 1.20169
 H2973 H 0.39580 0.56542 1.25385
 H2974 H 0.41022 0.55089 1.21663
 H2975 H 0.41814 0.62128 1.19259
 H2976 H 0.40413 0.63557 1.22997
 C2977 C 1.09984 1.24497 0.89933
 C2978 C 1.07606 1.24081 0.90114
 C2979 C 1.06807 1.21945 0.90925
 C2980 C 1.11535 1.28498 0.88345
 C2981 C 1.10766 1.20637 0.91382
 C2982 C 1.11561 1.22772 0.90570
 C2983 C 1.10814 1.26681 0.89073
 C2984 C 1.08379 1.20198 0.91567
 H2985 H 1.06371 1.25405 0.89628
 H2986 H 1.04960 1.21666 0.91072
 H2987 H 1.12019 1.19316 0.91830
 H2988 H 1.13405 1.23072 0.90427
 C2989 C 1.10016 0.74490 0.39931
 C2990 C 1.07639 0.74066 0.40110
 C2991 C 1.06846 0.71930 0.40926
 C2992 C 1.11553 0.78495 0.38333
 C2993 C 1.10810 0.70637 0.41394
 C2994 C 1.11598 0.72773 0.40577
 C2995 C 1.10839 0.76676 0.39066
 C2996 C 1.08424 0.70190 0.41574
 H2997 H 1.06400 0.75385 0.39618
 H2998 H 1.05001 0.71645 0.41069
 H2999 H 1.12066 0.69322 0.41847
 H3000 H 1.13442 0.73080 0.40437
 C3001 C 0.60039 1.24470 0.39954
 C3002 C 0.57660 1.24057 0.40130
 C3003 C 0.56856 1.21923 0.40942
 C3004 C 0.61594 1.28465 0.38353
 C3005 C 0.60813 1.20612 0.41413
 C3006 C 0.61612 1.22745 0.40600
 C3007 C 0.60872 1.26651 0.39088
 C3008 C 0.58425 1.20176 0.41591
 H3009 H 0.56427 1.25381 0.39637
 H3010 H 0.55009 1.21647 0.41084
 H3011 H 0.62064 1.19291 0.41867
 H3012 H 0.63457 1.23044 0.40461
 C3013 C 0.60002 0.74499 0.90060
 C3014 C 0.57625 0.74076 0.90238
 C3015 C 0.56831 0.71934 0.91039
 C3016 C 0.61537 0.78509 0.88478
 C3017 C 0.60795 0.70636 0.91493
 C3018 C 0.61583 0.72777 0.90692
 C3019 C 0.60825 0.76689 0.89205
 C3020 C 0.58409 0.70189 0.91673
 H3021 H 0.56386 0.75399 0.89756
 H3022 H 0.54986 0.71650 0.91182
 H3023 H 0.62051 0.69316 0.91936
 H3024 H 0.63427 0.73083 0.90551
 C3025 C 0.89909 1.24476 1.10085
 C3026 C 0.88341 1.22751 1.09432
 C3027 C 0.89147 1.20627 1.08598
 C3028 C 0.88343 1.28452 1.11729
 C3029 C 0.93099 1.21949 1.09059
 C3030 C 0.92289 1.24073 1.09892
 C3031 C 0.89070 1.26646 1.10975
 C3032 C 0.91536 1.20200 1.08406
 H3033 H 0.86496 1.23042 1.09583
 H3034 H 0.87901 1.19305 1.08142
 H3035 H 0.94947 1.21680 1.08907
 H3036 H 0.93518 1.25398 1.10390
 C3037 C 0.90000 0.74496 0.59966
 C3038 C 0.88423 0.72774 0.59329
 C3039 C 0.89217 0.70634 0.58527
 C3040 C 0.88456 0.78506 0.61547
 C3041 C 0.93177 0.71932 0.58992
 C3042 C 0.92378 0.74073 0.59793
 C3043 C 0.89172 0.76685 0.60820
 C3044 C 0.91604 0.70187 0.58352
 H3045 H 0.86578 0.73081 0.59465
 H3046 H 0.87963 0.69315 0.58080
 H3047 H 0.95023 0.71647 0.58852
 H3048 H 0.93614 0.75396 0.60279
 C3049 C 0.39966 1.24497 0.59997
 C3050 C 0.38388 1.22778 0.59351
 C3051 C 0.39182 1.20643 0.58534
 C3052 C 0.38422 1.28497 0.61603
 C3053 C 0.43142 1.21940 0.59001
 C3054 C 0.42344 1.24076 0.59817
 C3055 C 0.39139 1.26681 0.60866
 C3056 C 0.41569 1.20198 0.58354
 H3057 H 0.36544 1.23083 0.59492
 H3058 H 0.37929 1.19326 0.58082
 H3059 H 0.44989 1.21658 0.58857
 H3060 H 0.43580 1.25396 0.60309
 C3061 C 0.39901 0.74465 1.10095
 C3062 C 0.38331 0.72742 1.09441
 C3063 C 0.39134 0.70615 1.08612
 C3064 C 0.38340 0.78451 1.11722
 C3065 C 0.43088 0.71929 1.09080
 C3066 C 0.42280 0.74056 1.09908
 C3067 C 0.39064 0.76640 1.10976
 C3068 C 0.41522 0.70182 1.08425
 H3069 H 0.36485 0.73037 1.09587
 H3070 H 0.37886 0.69294 1.08154
 H3071 H 0.44935 0.71657 1.08932
 H3072 H 0.43511 0.75380 1.10406
 C3073 C 0.89999 0.75499 0.90059
 C3074 C 0.88421 0.77225 0.90689
 C3075 C 0.89214 0.79364 0.91490
 C3076 C 0.88455 0.71491 0.88479
 C3077 C 0.93175 0.78057 0.91040
 C3078 C 0.92377 0.75917 0.90239
 C3079 C 0.89172 0.73311 0.89205
 C3080 C 0.91601 0.79806 0.91673
 H3081 H 0.86577 0.76923 0.90546
 H3082 H 0.87961 0.80687 0.91932
 H3083 H 0.95021 0.78338 0.91186
 H3084 H 0.93614 0.74591 0.89759
 C3085 C 0.90039 0.25441 0.40089
 C3086 C 0.88460 0.27166 0.40716
 C3087 C 0.89251 0.29311 0.41505
 C3088 C 0.88500 0.21423 0.38529
 C3089 C 0.93213 0.28011 0.41046
 C3090 C 0.92417 0.25866 0.40258
 C3091 C 0.89214 0.23247 0.39248
 C3092 C 0.91638 0.29759 0.41678
 H3093 H 0.86616 0.26859 0.40582
 H3094 H 0.87996 0.30632 0.41945
 H3095 H 0.95059 0.28297 0.41184
 H3096 H 0.93655 0.24540 0.39779
 C3097 C 0.39899 0.75539 0.39870
 C3098 C 0.42279 0.75941 0.40057
 C3099 C 0.43089 0.78066 0.40885
 C3100 C 0.38331 0.71556 0.38247
 C3101 C 0.39137 0.79391 0.41352
 C3102 C 0.38331 0.77267 0.40523
 C3103 C 0.39058 0.73366 0.38991
 C3104 C 0.41526 0.79817 0.41540
 H3105 H 0.43507 0.74614 0.39560
 H3106 H 0.44937 0.78333 0.41034
 H3107 H 0.37891 0.80716 0.41810
 H3108 H 0.36485 0.76977 0.40377
 C3109 C 0.39931 0.25506 0.89986
 C3110 C 0.38361 0.27238 0.90621
 C3111 C 0.39163 0.29369 0.91438
 C3112 C 0.38371 0.21513 0.88382
 C3113 C 0.43118 0.28042 0.90993
 C3114 C 0.42311 0.25911 0.90177
 C3115 C 0.39095 0.23327 0.89119
 C3116 C 0.41552 0.29796 0.91630
 H3117 H 0.36516 0.26947 0.90471
 H3118 H 0.37916 0.30695 0.91882
 H3119 H 0.44965 0.28311 0.91146
 H3120 H 0.43541 0.24580 0.89693
 C3121 C 1.10122 0.75596 1.10156
 C3122 C 1.07742 0.76000 1.09966
 C3123 C 1.06931 0.78124 1.09129
 C3124 C 1.11688 0.71616 1.11794
 C3125 C 1.10884 0.79442 1.08662
 C3126 C 1.11689 0.77320 1.09499
 C3127 C 1.10961 0.73424 1.11044
 C3128 C 1.08494 0.79871 1.08471
 H3129 H 1.06513 0.74676 1.10466
 H3130 H 1.05083 0.78393 1.08978
 H3131 H 1.12130 0.80763 1.08201
 H3132 H 1.13535 0.77028 1.09648
 C3133 C 1.10120 0.25557 0.60150
 C3134 C 1.11690 0.27277 0.59490
 C3135 C 1.10887 0.29402 0.58654
 C3136 C 1.11682 0.21573 0.61782
 C3137 C 1.06933 0.28093 0.59132
 C3138 C 1.07740 0.25968 0.59966
 C3139 C 1.10957 0.23383 0.61035
 C3140 C 1.08499 0.29836 0.58469
 H3141 H 1.13536 0.26981 0.59633
 H3142 H 1.12135 0.30720 0.58190
 H3143 H 1.05085 0.28366 0.58985
 H3144 H 1.06510 0.24646 0.60469
 C3145 C 0.59978 0.75491 0.60020
 C3146 C 0.59335 0.77216 0.61593
 C3147 C 0.58533 0.79355 0.60795
 C3148 C 0.61556 0.71484 0.61572
 C3149 C 0.59012 0.78051 0.56838
 C3150 C 0.59813 0.75912 0.57641
 C3151 C 0.60830 0.73303 0.60852
 C3152 C 0.58364 0.79797 0.58407
 H3153 H 0.59466 0.76913 0.63437
 H3154 H 0.58080 0.80675 0.62045
 H3155 H 0.58877 0.78332 0.54992
 H3156 H 0.60305 0.74587 0.56408
 C3157 C 0.60068 0.25536 1.10155
 C3158 C 0.61634 0.27264 1.09509
 C3159 C 0.60827 0.29390 1.08682
 C3160 C 0.61640 0.21550 1.11771
 C3161 C 0.56876 0.28066 1.09141
 C3162 C 0.57688 0.25939 1.09967
 C3163 C 0.60910 0.23360 1.11030
 C3164 C 0.58438 0.29816 1.08490
 H3165 H 0.63481 0.26974 1.09657
 H3166 H 0.62072 0.30714 1.08228
 H3167 H 0.55028 0.28334 1.08989
 H3168 H 0.56460 0.24611 1.10460
 C3169 C 1.24461 1.10052 0.89961
 C3170 C 1.22742 1.09411 0.88382
 C3171 C 1.20609 1.08595 0.89174
 C3172 C 1.28457 1.11655 0.88418
 C3173 C 1.21908 1.09053 0.93134
 C3174 C 1.24042 1.09868 0.92338
 C3175 C 1.26642 1.10919 0.89135
 C3176 C 1.20166 1.08410 0.91560
 H3177 H 1.23045 1.09556 0.86539
 H3178 H 1.19292 1.08146 0.87920
 H3179 H 1.21627 1.08906 0.94980
 H3180 H 1.25362 1.10356 0.93574
 C3181 C 1.24453 0.60074 0.39890
 C3182 C 1.24052 0.59898 0.42271
 C3183 C 1.21928 0.59077 0.43087
 C3184 C 1.28431 0.61686 0.38312
 C3185 C 1.20601 0.58598 0.39139
 C3186 C 1.22724 0.59420 0.38327
 C3187 C 1.26625 0.60946 0.39044
 C3188 C 1.20178 0.58419 0.41528
 H3189 H 1.25380 0.60397 0.43495
 H3190 H 1.21662 0.58935 0.44935
 H3191 H 1.19277 0.58138 0.37897
 H3192 H 1.23013 0.59558 0.36481
 C3193 C 0.74504 1.09944 0.40035
 C3194 C 0.74070 1.07565 0.40198
 C3195 C 0.71925 1.06775 0.40989
 C3196 C 0.78525 1.11474 0.38484
 C3197 C 0.70643 1.10744 0.41461
 C3198 C 0.72787 1.11530 0.40669
 C3199 C 0.76699 1.10764 0.39197
 C3200 C 0.70186 1.08357 0.41628
 H3201 H 0.75389 1.06323 0.39714
 H3202 H 0.71633 1.04928 0.41122
 H3203 H 0.69329 1.12004 0.41907
 H3204 H 0.73101 1.13374 0.40540
 C3205 C 0.74484 0.59958 0.90017
 C3206 C 0.74065 0.59785 0.92394
 C3207 C 0.71927 0.58985 0.93194
 C3208 C 0.78489 0.61534 0.88468
 C3209 C 0.70624 0.58522 0.89236
 C3210 C 0.72761 0.59324 0.88441
 C3211 C 0.76671 0.60810 0.89187
 C3212 C 0.70182 0.58345 0.91623
 H3213 H 0.75389 0.60270 0.93629
 H3214 H 0.71646 0.58844 0.95040
 H3215 H 0.69304 0.58076 0.87984
 H3216 H 0.73064 0.59461 0.86597
 C3217 C 1.24473 0.89968 1.10094
 C3218 C 1.22745 0.90617 1.11659
 C3219 C 1.20619 0.91439 1.10851
 C3220 C 1.28454 0.88349 1.11666
 C3221 C 1.21944 0.90973 1.06901
 C3222 C 1.24071 0.90151 1.07714
 C3223 C 1.26647 0.89093 1.10937
 C3224 C 1.20193 0.91624 1.08462
 H3225 H 1.23035 0.90473 1.13505
 H3226 H 1.19295 0.91894 1.12095
 H3227 H 1.21676 0.91119 1.05054
 H3228 H 1.25398 0.89656 1.06487
 C3229 C 1.24531 0.39981 0.60018
 C3230 C 1.24112 0.40158 0.57640
 C3231 C 1.21976 0.40968 0.56841
 C3232 C 1.28529 0.38383 0.61566
 C3233 C 1.20675 0.41434 0.60799
 C3234 C 1.22810 0.40623 0.61594
 C3235 C 1.26714 0.39117 0.60847
 C3236 C 1.20232 0.41613 0.58413
 H3237 H 1.25434 0.39668 0.56405
 H3238 H 1.21694 0.41111 0.54995
 H3239 H 1.19357 0.41884 0.62052
 H3240 H 1.23113 0.40483 0.63438
 C3241 C 0.74469 0.90001 0.59996
 C3242 C 0.72755 0.88417 0.59356
 C3243 C 0.70614 0.89205 0.58555
 C3244 C 0.78482 0.88466 0.61569
 C3245 C 0.71894 0.93173 0.59028
 C3246 C 0.74037 0.92380 0.59828
 C3247 C 0.76660 0.89179 0.60846
 C3248 C 0.70158 0.91592 0.58384
 H3249 H 0.73069 0.86572 0.59488
 H3250 H 0.69301 0.87946 0.58105
 H3251 H 0.71603 0.95020 0.58892
 H3252 H 0.75353 0.93621 0.60317
 C3253 C 0.74430 0.39909 1.10179
 C3254 C 0.74033 0.40087 1.07798
 C3255 C 0.71906 0.40902 1.06979
 C3256 C 0.78415 0.38303 1.11758
 C3257 C 0.70569 0.41368 1.10925
 C3258 C 0.72695 0.40553 1.11739
 C3259 C 0.76606 0.39042 1.11028
 C3260 C 0.70149 0.41550 1.08534
 H3261 H 0.75366 0.39596 1.06575
 H3262 H 0.71642 0.41046 1.05130
 H3263 H 0.69240 0.41820 1.12165
 H3264 H 0.72981 0.40412 1.13586
 C3265 C 0.75550 1.10116 1.10109
 C3266 C 0.75960 1.07733 1.09945
 C3267 C 0.78086 1.06918 1.09124
 C3268 C 0.71567 1.11691 1.11720
 C3269 C 0.79397 1.10872 1.08622
 C3270 C 0.77272 1.11682 1.09444
 C3271 C 0.73376 1.10961 1.10980
 C3272 C 0.79830 1.08480 1.08454
 H3273 H 0.74638 1.06506 1.10453
 H3274 H 0.78359 1.05068 1.08991
 H3275 H 0.80715 1.12118 1.08153
 H3276 H 0.76976 1.13531 1.09573
 C3277 C 0.75527 0.59976 0.59979
 C3278 C 0.75958 0.57597 0.59812
 C3279 C 0.78098 0.56803 0.59009
 C3280 C 0.71521 0.61514 0.61563
 C3281 C 0.79380 0.60770 0.58532
 C3282 C 0.77241 0.61559 0.59335
 C3283 C 0.73340 0.60800 0.60835
 C3284 C 0.79835 0.58382 0.58363
 H3285 H 0.74641 0.56357 0.60304
 H3286 H 0.78388 0.54955 0.58874
 H3287 H 0.80693 0.62027 0.58080
 H3288 H 0.76929 0.63404 0.59468
 C3289 C 0.25545 1.10111 0.60069
 C3290 C 0.27265 1.11677 0.59401
 C3291 C 0.29387 1.10867 0.58570
 C3292 C 0.21572 1.11687 0.61703
 C3293 C 0.28074 1.06913 0.59066
 C3294 C 0.25951 1.07728 0.59896
 C3295 C 0.23376 1.10956 0.60954
 C3296 C 0.29817 1.08475 0.58396
 H3297 H 0.26973 1.13525 0.59536
 H3298 H 0.30706 1.12112 0.58101
 H3299 H 0.28345 1.05063 0.58929
 H3300 H 0.24630 1.06500 0.60406
 C3301 C 0.25545 0.60125 1.10111
 C3302 C 0.25945 0.57740 1.09945
 C3303 C 0.28067 0.56917 1.09121
 C3304 C 0.21572 0.61717 1.11730
 C3305 C 0.29393 0.60866 1.08620
 C3306 C 0.27272 0.61685 1.09444
 C3307 C 0.23376 0.60979 1.10986
 C3308 C 0.29815 0.58473 1.08451
 H3309 H 0.24618 0.56518 1.10453
 H3310 H 0.28332 0.55066 1.08987
 H3311 H 0.30716 0.62107 1.08150
 H3312 H 0.26984 0.63534 1.09575
 C3313 C 0.75494 0.90019 0.90037
 C3314 C 0.75921 0.92398 0.90203
 C3315 C 0.78061 0.93193 0.91004
 C3316 C 0.71486 0.88479 0.88460
 C3317 C 0.79350 0.89227 0.91481
 C3318 C 0.77211 0.88436 0.90679
 C3319 C 0.73306 0.89194 0.89184
 C3320 C 0.79801 0.91615 0.91650
 H3321 H 0.74602 0.93638 0.89713
 H3322 H 0.78348 0.95040 0.91139
 H3323 H 0.80666 0.87970 0.91933
 H3324 H 0.76902 0.86591 0.90548
 C3325 C 0.75561 0.39954 0.39947
 C3326 C 0.75983 0.42334 0.40121
 C3327 C 0.78114 0.43132 0.40941
 C3328 C 0.71568 0.38411 0.38337
 C3329 C 0.79407 0.39167 0.41425
 C3330 C 0.77276 0.38374 0.40604
 C3331 C 0.73381 0.39127 0.39075
 C3332 C 0.79852 0.41556 0.41600
 H3333 H 0.74666 0.43572 0.39621
 H3334 H 0.78397 0.44980 0.41080
 H3335 H 0.80721 0.37912 0.41886
 H3336 H 0.76971 0.36529 0.40468
 C3337 C 0.25501 0.90012 0.39935
 C3338 C 0.27219 0.88431 0.40580
 C3339 C 0.29355 0.89223 0.41387
 C3340 C 0.21498 0.88469 0.38350
 C3341 C 0.28064 0.93188 0.40907
 C3342 C 0.25926 0.92392 0.40102
 C3343 C 0.23316 0.89186 0.39078
 C3344 C 0.29803 0.91611 0.41557
 H3345 H 0.26911 0.86585 0.40448
 H3346 H 0.30670 0.87967 0.41841
 H3347 H 0.28349 0.95036 0.41043
 H3348 H 0.24607 0.93630 0.39609
 C3349 C 0.25521 0.40005 0.89943
 C3350 C 0.25931 0.40185 0.92322
 C3351 C 0.28068 0.40984 0.93129
 C3352 C 0.21518 0.38437 0.88382
 C3353 C 0.29388 0.41431 0.89175
 C3354 C 0.27252 0.40631 0.88373
 C3355 C 0.23336 0.39157 0.89107
 C3356 C 0.29820 0.41616 0.91563
 H3357 H 0.24601 0.39707 0.93553
 H3358 H 0.28341 0.41131 0.94976
 H3359 H 0.30713 0.41871 0.87927
 H3360 H 0.26956 0.40489 0.86528
   
