data_POSCAR
  _audit_creation_date              2014-09-24
  _audit_creation_method            'ToBaCCo'
  _symmetry_space_group_name_H-M    'P1'
  _symmetry_Int_Tables_number       1
  _symmetry_cell_setting            triclinic
  loop_
  _symmetry_equiv_pos_as_xyz
 x,y,z
_cell_length_a 42.7721
_cell_length_b 42.1941
_cell_length_c 40.7434
_cell_angle_alpha 90.625600
_cell_angle_beta 90.297600
_cell_angle_gamma 87.499300
loop_
  _atom_site_label
  _atom_site_type_symbol
  _atom_site_fract_x
  _atom_site_fract_y
  _atom_site_fract_z
Si1 Si 0.74868 0.63469 0.99284
 Si2 Si 0.74420 0.37348 0.50245
 Si3 Si 0.24269 -0.13424 0.01225
 Si4 Si 0.26213 0.11242 0.50707
 Si5 Si 0.10867 0.50551 0.27015
 Si6 Si -0.12279 0.01984 0.25153
 Si7 Si 0.37965 0.49145 0.77245
 Si8 Si 0.63420 0.98336 0.73265
 Si9 Si -0.01065 0.25941 -0.12797
 Si10 Si 0.49912 0.25378 0.11504
 Si11 Si 1.01355 0.76360 0.61206
 Si12 Si 0.49223 0.74958 0.38543
 C13 C 0.44744 -0.02978 0.27716
 H14 H 0.44962 -0.00662 0.28839
 C15 C 0.46518 -0.05582 0.28908
 H16 H 0.48102 -0.05274 0.30958
 C17 C 0.42166 -0.06284 0.23915
 H18 H 0.40377 -0.06583 0.22073
 C19 C 0.43862 -0.08943 0.25050
 H20 H 0.43377 -0.11266 0.24064
 N21 N 0.42571 -0.03390 0.25315
 C22 C 0.39458 0.05791 0.21581
 H23 H 0.36972 0.05477 0.21809
 C24 C 0.40515 0.08440 0.20002
 H25 H 0.38835 0.10186 0.19029
 C26 C 0.44673 0.03826 0.22481
 H27 H 0.46270 0.01976 0.23378
 C28 C 0.45839 0.06483 0.20954
 H29 H 0.48341 0.06681 0.20687
 Zn30 Zn 0.39636 -0.00062 0.24374
 N31 N 0.41528 0.03536 0.22744
 C32 C 0.37845 0.03924 0.29653
 N33 N 0.37499 0.00998 0.28311
 C34 C 0.35843 -0.01216 0.29867
 C35 C 0.34361 -0.00478 0.32850
 C36 C 0.36437 0.04749 0.32632
 C37 C 0.38249 -0.01788 0.18026
 C38 C 0.36483 -0.02704 0.15328
 C39 C 0.31924 -0.02687 0.18810
 C40 C 0.33782 -0.01742 0.21451
 N41 N 0.36894 -0.01358 0.21017
 H42 H 0.39264 0.05613 0.28447
 H43 H 0.35674 -0.03557 0.28788
 H44 H 0.32992 -0.02242 0.34017
 H45 H 0.36798 0.07077 0.33672
 H46 H 0.40724 -0.01437 0.17751
 H47 H 0.37627 -0.03102 0.12986
 H48 H 0.29453 -0.03007 0.19183
 H49 H 0.32738 -0.01318 0.23832
 C50 C 0.43735 0.08784 0.19642
 C51 C 0.45993 -0.08612 0.27637
 C52 C 0.33281 -0.03181 0.15703
 C53 C 0.34632 0.02553 0.34259
 C54 C 0.07321 1.04158 0.77905
 H55 H 0.06745 1.01948 0.79028
 C56 C 0.05527 1.06923 0.78628
 H57 H 0.03571 1.06803 0.80291
 C58 C 0.10565 1.06994 0.74405
 H59 H 0.12534 1.07038 0.72768
 C60 C 0.08839 1.09818 0.75066
 H61 H 0.09554 1.11996 0.73971
 N62 N 0.09872 1.04256 0.75931
 C63 C 0.12265 0.94137 0.74190
 H64 H 0.14734 0.94132 0.74743
 C65 C 0.10934 0.91313 0.73245
 H66 H 0.12430 0.89185 0.73054
 C67 C 0.07407 0.96972 0.73546
 H68 H 0.06049 0.99191 0.73616
 C69 C 0.05963 0.94178 0.72625
 H70 H 0.03487 0.94284 0.72055
 Zn71 Zn 0.12675 1.00588 0.75552
 N72 N 0.10512 0.96903 0.74305
 C73 C 0.17347 0.97850 0.79667
 N74 N 0.14661 0.99703 0.79661
 C75 C 0.13214 1.00559 0.82524
 C76 C 0.14315 0.99339 0.85502
 C77 C 0.18536 0.96579 0.82597
 C78 C 0.15863 0.99572 0.69527
 C79 C 0.17999 1.00201 0.67067
 C80 C 0.19982 1.04380 0.70476
 C81 C 0.17871 1.03602 0.72917
 N82 N 0.15795 1.01303 0.72363
 H83 H 0.18490 0.97228 0.77373
 H84 H 0.11125 1.02073 0.82514
 H85 H 0.13056 0.99947 0.87737
 H86 H 0.20569 0.94958 0.82527
 H87 H 0.14209 0.97746 0.69122
 H88 H 0.17998 0.98768 0.64850
 H89 H 0.21457 1.06362 0.70911
 H90 H 0.17789 1.04929 0.75204
 C91 C 0.07738 0.91292 0.72442
 C92 C 0.06345 1.09829 0.77293
 C93 C 0.20034 1.02710 0.67463
 C94 C 0.16939 0.97227 0.85546
 C95 C 0.58018 0.53103 0.28815
 H96 H 0.58295 0.50825 0.29998
 C97 C 0.56270 0.55568 0.30324
 H98 H 0.55232 0.55166 0.32692
 C99 C 0.59218 0.56428 0.24383
 H100 H 0.60417 0.56772 0.22098
 C101 C 0.57462 0.58950 0.25787
 H102 H 0.57277 0.61193 0.24522
 N103 N 0.59462 0.53577 0.25911
 C104 C 0.61237 0.44459 0.21140
 H105 H 0.63742 0.44544 0.20826
 C106 C 0.59647 0.41895 0.19892
 H107 H 0.60948 0.40032 0.18573
 C108 C 0.56502 0.46874 0.23137
 H109 H 0.55291 0.48834 0.24386
 C110 C 0.54817 0.44339 0.21943
 H111 H 0.52313 0.44354 0.22327
 Zn112 Zn 0.62069 0.50237 0.24250
 N113 N 0.59656 0.46873 0.22731
 C114 C 0.63972 0.45946 0.29053
 N115 N 0.64637 0.48801 0.27781
 C116 C 0.66669 0.50724 0.29322
 C117 C 0.68160 0.49760 0.32240
 C118 C 0.65337 0.44933 0.31983
 C119 C 0.62472 0.52046 0.17860
 C120 C 0.63649 0.53412 0.15063
 C121 C 0.68596 0.53921 0.17869
 C122 C 0.67322 0.52506 0.20628
 N123 N 0.64278 0.51690 0.20595
 H124 H 0.62245 0.44509 0.27899
 H125 H 0.67058 0.53047 0.28349
 H126 H 0.69793 0.51309 0.33407
 H127 H 0.64613 0.42724 0.32998
 H128 H 0.60065 0.51361 0.17895
 H129 H 0.62143 0.53714 0.12935
 H130 H 0.70973 0.54700 0.17973
 H131 H 0.68730 0.52169 0.22813
 C132 C 0.56392 0.41803 0.20294
 C133 C 0.55990 0.58549 0.28819
 C134 C 0.66714 0.54466 0.15074
 C135 C 0.67477 0.46832 0.33631
 C136 C 0.93011 0.48601 0.77721
 H137 H 0.93010 0.50880 0.78964
 C138 C 0.94564 0.45956 0.79130
 H139 H 0.95736 0.46241 0.81469
 C140 C 0.91275 0.45438 0.73298
 H141 H 0.89924 0.45204 0.71073
 C142 C 0.92829 0.42749 0.74591
 H143 H 0.92716 0.40518 0.73271
 N144 N 0.91375 0.48295 0.74872
 C145 C 0.89460 0.57462 0.70233
 H146 H 0.87011 0.57097 0.69758
 C147 C 0.90725 0.60316 0.69379
 H148 H 0.89251 0.62100 0.68163
 C149 C 0.94314 0.55583 0.72468
 H150 H 0.95670 0.53754 0.73745
 C151 C 0.95690 0.58424 0.71633
 H152 H 0.98120 0.58756 0.72249
 Zn153 Zn 0.88861 0.51816 0.73322
 N154 N 0.91231 0.55193 0.71807
 C155 C 0.86988 0.56425 0.77969
 N156 N 0.86357 0.53465 0.76863
 C157 C 0.84135 0.51760 0.78337
 C158 C 0.82358 0.53097 0.80933
 C159 C 0.85292 0.57833 0.80536
 C160 C 0.88026 0.49747 0.66902
 C161 C 0.86470 0.48729 0.64093
 C162 C 0.81574 0.49490 0.66981
 C163 C 0.83231 0.50492 0.69747
 N164 N 0.86409 0.50536 0.69679
 H165 H 0.88846 0.57711 0.76901
 H166 H 0.83727 0.49376 0.77486
 H167 H 0.80553 0.51743 0.82035
 H168 H 0.85879 0.60178 0.81375
 H169 H 0.90549 0.49855 0.66897
 H170 H 0.87827 0.47998 0.61959
 H171 H 0.79047 0.49447 0.67085
 H172 H 0.81975 0.51219 0.71940
 C173 C 0.93857 0.60861 0.70140
 C174 C 0.94455 0.42959 0.77585
 C175 C 0.83200 0.48554 0.64113
 C176 C 0.82906 0.56198 0.82028
 C177 C 0.26957 0.41609 -0.02062
 H178 H 0.28242 0.41602 0.00233
 C179 C 0.28176 0.43070 -0.04812
 H180 H 0.30406 0.44174 -0.04599
 C181 C 0.22663 0.39883 -0.05197
 H182 H 0.20592 0.38529 -0.05408
 C183 C 0.23765 0.41350 -0.07983
 H184 H 0.22456 0.41181 -0.10255
 N185 N 0.24288 0.39986 -0.02321
 C186 C 0.20835 0.37762 0.07398
 H187 H 0.20689 0.35235 0.06989
 C188 C 0.19931 0.39098 0.10400
 H189 H 0.19027 0.37582 0.12267
 C190 C 0.22149 0.42787 0.05401
 H191 H 0.23036 0.44198 0.03442
 C192 C 0.21266 0.44232 0.08390
 H193 H 0.21489 0.46762 0.08716
 Zn194 Zn 0.23247 0.37314 0.01185
 N195 N 0.21947 0.39599 0.04987
 C196 C 0.28349 0.35414 0.05141
 N197 N 0.26937 0.34848 0.02209
 C198 C 0.28331 0.32886 -0.00075
 C199 C 0.31252 0.31381 0.00574
 C200 C 0.31266 0.33998 0.05872
 C201 C 0.17127 0.36441 -0.00728
 C202 C 0.14578 0.34893 -0.02016
 C203 C 0.17599 0.29937 -0.01667
 C204 C 0.20126 0.31601 -0.00451
 N205 N 0.19871 0.34810 -0.00103
 H206 H 0.27284 0.37075 0.06879
 H207 H 0.27206 0.32544 -0.02429
 H208 H 0.32315 0.29814 -0.01265
 H209 H 0.32375 0.34603 0.08175
 H210 H 0.16977 0.38989 -0.00377
 H211 H 0.12512 0.36306 -0.02702
 H212 H 0.17860 0.27386 -0.01940
 H213 H 0.22298 0.30335 0.00159
 C214 C 0.20170 0.42368 0.10951
 C215 C 0.26618 0.42868 -0.07852
 C216 C 0.14797 0.31595 -0.02563
 C217 C 0.32771 0.31947 0.03582
 C218 C 0.78941 0.10674 1.03370
 H219 H 0.80531 0.11963 1.01891
 C220 C 0.80019 0.09299 1.06281
 H221 H 0.82451 0.09503 1.06971
 C222 C 0.73854 0.08865 1.04282
 H223 H 0.71439 0.08755 1.03501
 C224 C 0.74841 0.07443 1.07223
 H225 H 0.73170 0.06243 1.08702
 N226 N 0.75904 0.10449 1.02430
 C227 C 0.72520 0.11025 0.92338
 H228 H 0.72715 0.13546 0.91984
 C229 C 0.71482 0.09129 0.89772
 H230 H 0.70822 0.10238 0.87473
 C231 C 0.73045 0.06580 0.95833
 H232 H 0.73677 0.05601 0.98196
 C233 C 0.72041 0.04581 0.93313
 H234 H 0.71922 0.02066 0.93765
 Zn235 Zn 0.74496 0.12615 0.98605
 N236 N 0.73212 0.09747 0.95315
 C237 C 0.79991 0.13045 0.95105
 N238 N 0.77830 0.14839 0.96817
 C239 C 0.78054 0.18036 0.97136
 C240 C 0.80553 0.19543 0.95704
 C241 C 0.82482 0.14456 0.93592
 C242 C 0.68333 0.15356 0.98085
 C243 C 0.65767 0.17298 0.99037
 C244 C 0.68876 0.19338 1.03480
 C245 C 0.71401 0.17384 1.02413
 N246 N 0.71087 0.15432 0.99767
 H247 H 0.79758 0.10508 0.94895
 H248 H 0.76301 0.19421 0.98490
 H249 H 0.80709 0.22089 0.95955
 H250 H 0.84174 0.12992 0.92224
 H251 H 0.68087 0.13756 0.96029
 H252 H 0.63614 0.17206 0.97638
 H253 H 0.69152 0.20783 1.05665
 H254 H 0.73596 0.17361 1.03747
 C255 C 0.71214 0.05858 0.90237
 C256 C 0.77955 0.07690 1.08275
 C257 C 0.65995 0.19294 1.01800
 C258 C 0.82780 0.17743 0.93878
 C259 C 0.29096 0.57038 0.55244
 H260 H 0.30544 0.56647 0.53097
 C261 C 0.29974 0.55637 0.58219
 H262 H 0.32119 0.54184 0.58328
 C263 C 0.24700 0.59654 0.57753
 H264 H 0.22711 0.61311 0.57602
 C265 C 0.25468 0.58273 0.60763
 H266 H 0.23995 0.58821 0.62865
 N267 N 0.26535 0.59053 0.55082
 C268 C 0.24800 0.60445 0.44639
 H269 H 0.25290 0.62938 0.44582
 C270 C 0.23838 0.58920 0.41788
 H271 H 0.23584 0.60247 0.39534
 C272 C 0.24342 0.55746 0.47712
 H273 H 0.24475 0.54558 0.50050
 C274 C 0.23275 0.54145 0.44919
 H275 H 0.22597 0.51710 0.45105
 Zn276 Zn 0.25914 0.61419 0.51206
 N277 N 0.25040 0.58853 0.47519
 C278 C 0.31489 0.62443 0.47962
 N279 N 0.29627 0.63575 0.50439
 C280 C 0.30477 0.66064 0.52353
 C281 C 0.33167 0.67691 0.51606
 C282 C 0.34182 0.63974 0.47147
 C283 C 0.19633 0.62673 0.51944
 C284 C 0.16801 0.64387 0.52278
 C285 C 0.19571 0.69234 0.51838
 C286 C 0.22369 0.67413 0.51503
 N287 N 0.22350 0.64192 0.51634
 H288 H 0.30887 0.60348 0.46596
 H289 H 0.29030 0.66833 0.54405
 H290 H 0.33746 0.69761 0.53041
 H291 H 0.35596 0.63067 0.45118
 H292 H 0.19683 0.60108 0.51985
 H293 H 0.14688 0.63115 0.52646
 H294 H 0.19615 0.71796 0.51766
 H295 H 0.24535 0.68577 0.51134
 C296 C 0.23003 0.55755 0.41925
 C297 C 0.28188 0.56306 0.61053
 C298 C 0.16742 0.67713 0.52256
 C299 C 0.34996 0.66694 0.48906
 C300 C 0.76095 0.90526 0.43789
 H301 H 0.75251 0.91685 0.46010
 C302 C 0.76954 0.92356 0.41128
 H303 H 0.76705 0.94916 0.41315
 C304 C 0.77513 0.85797 0.40871
 H305 H 0.77761 0.83234 0.40817
 C306 C 0.78402 0.87532 0.38158
 H307 H 0.79369 0.86281 0.36036
 N308 N 0.76390 0.87307 0.43614
 C309 C 0.75237 0.86753 0.53881
 H310 H 0.77308 0.85230 0.54204
 C311 C 0.73788 0.88154 0.56631
 H312 H 0.74787 0.87707 0.59037
 C313 C 0.71255 0.88926 0.50404
 H314 H 0.70234 0.89131 0.47976
 C315 C 0.69743 0.90387 0.53080
 H316 H 0.67599 0.91790 0.52671
 Zn317 Zn 0.75473 0.84718 0.47224
 N318 N 0.73942 0.87140 0.50846
 C319 C 0.81618 0.84374 0.49273
 N320 N 0.79231 0.82503 0.48426
 C321 C 0.79571 0.79285 0.48535
 C322 C 0.82360 0.77841 0.49709
 C323 C 0.84429 0.83039 0.50463
 C324 C 0.70490 0.82612 0.43382
 C325 C 0.67685 0.81115 0.42868
 C326 C 0.68563 0.78263 0.47926
 C327 C 0.71328 0.79865 0.48381
 N328 N 0.72227 0.81999 0.46126
 H329 H 0.81285 0.86926 0.49136
 H330 H 0.77671 0.77838 0.47772
 H331 H 0.82578 0.75280 0.49838
 H332 H 0.86229 0.84595 0.51281
 H333 H 0.71180 0.84398 0.41684
 H334 H 0.66265 0.81701 0.40732
 H335 H 0.67822 0.76627 0.49769
 H336 H 0.72686 0.79515 0.50605
 C337 C 0.70972 0.89955 0.56258
 C338 C 0.78155 0.90861 0.38272
 C339 C 0.66679 0.78955 0.45183
 C340 C 0.84814 0.79731 0.50752
 C341 C -0.03363 0.29945 0.43494
 H342 H -0.02048 0.31608 0.42128
 C343 C -0.06043 0.31025 0.45157
 H344 H -0.06735 0.33524 0.45085
 C345 C -0.04176 0.24661 0.45098
 H346 H -0.03476 0.22168 0.44966
 C347 C -0.06898 0.25644 0.46787
 H348 H -0.08295 0.23896 0.47945
 N349 N -0.02527 0.26801 0.43421
 C350 C 0.06609 0.22642 0.40848
 H351 H 0.06409 0.22809 0.38207
 C352 C 0.09369 0.21434 0.42264
 H353 H 0.11297 0.20655 0.40696
 C354 C 0.04342 0.23525 0.46098
 H355 H 0.02376 0.24376 0.47568
 C356 C 0.07090 0.22356 0.47628
 H357 H 0.07215 0.22254 0.50280
 Zn358 Zn 0.00638 0.25326 0.40493
 N359 N 0.04153 0.23612 0.42764
 C360 C 0.03921 0.30744 0.39754
 N361 N 0.02068 0.28770 0.38041
 C362 C 0.01415 0.29253 0.34804
 C363 C 0.02631 0.31836 0.33181
 C364 C 0.05221 0.33304 0.38223
 C365 C 0.00044 0.19115 0.37856
 C366 C -0.01457 0.16730 0.36134
 C367 C -0.05270 0.20681 0.34214
 C368 C -0.03712 0.22985 0.35992
 N369 N -0.01106 0.22173 0.37769
 H370 H 0.04410 0.30303 0.42320
 H371 H -0.00023 0.27635 0.33468
 H372 H 0.02125 0.32194 0.30601
 H373 H 0.06715 0.34834 0.39621
 H374 H 0.02056 0.18489 0.39363
 H375 H -0.00567 0.14299 0.36343
 H376 H -0.07341 0.21387 0.32818
 H377 H -0.04627 0.25415 0.36024
 C378 C 0.09627 0.21262 0.45691
 C379 C -0.07914 0.28849 0.46719
 C380 C -0.04180 0.17489 0.34316
 C381 C 0.04589 0.33867 0.34897
 C382 C 1.01958 0.79507 0.09002
 H383 H 0.99641 0.80620 0.08770
 C384 C 1.04508 0.80885 0.07547
 H385 H 1.04125 0.83038 0.06151
 C386 C 1.05277 0.75415 0.11212
 H387 H 1.05585 0.73345 0.12735
 C388 C 1.07895 0.76711 0.09788
 H389 H 1.10192 0.75613 0.10229
 N390 N 1.02384 0.76842 0.10823
 C391 C 0.93113 0.73085 0.11844
 H392 H 0.93070 0.72973 0.14495
 C393 C 0.90635 0.71947 0.10012
 H394 H 0.88707 0.70931 0.11284
 C395 C 0.95786 0.74397 0.06998
 H396 H 0.97825 0.75308 0.05841
 C397 C 0.93344 0.73283 0.05060
 H398 H 0.93506 0.73395 0.02413
 Zn399 Zn 0.98886 0.75469 0.13176
 N400 N 0.95620 0.74279 0.10328
 C401 C 0.94694 0.80470 0.15096
 N402 N 0.97459 0.78935 0.15873
 C403 C 0.99351 0.80075 0.18268
 C404 C 0.98481 0.82868 0.19985
 C405 C 0.93759 0.83280 0.16714
 C406 C 1.00855 0.69200 0.13743
 C407 C 1.01589 0.66292 0.15206
 C408 C 1.00515 0.68719 0.20502
 C409 C 0.99797 0.71598 0.18927
 N410 N 1.00005 0.71785 0.15603
 H411 H 0.93260 0.79588 0.13128
 H412 H 1.01577 0.78861 0.18781
 H413 H 1.00033 0.83780 0.21842
 H414 H 0.91571 0.84489 0.16026
 H415 H 1.00959 0.69407 0.11101
 H416 H 1.02328 0.64292 0.13668
 H417 H 1.00323 0.68600 0.23145
 H418 H 0.99038 0.73661 0.20354
 C419 C 0.90727 0.72024 0.06569
 C420 C 1.07536 0.79522 0.07986
 C421 C 1.01420 0.66013 0.18630
 C422 C 0.95677 0.84534 0.19164
 C423 C 0.52843 0.28673 0.58276
 H424 H 0.50488 0.29715 0.58213
 C425 C 0.55229 0.30125 0.56616
 H426 H 0.54642 0.32210 0.55178
 C427 C 0.56455 0.24763 0.60339
 H428 H 0.56939 0.22732 0.61882
 C429 C 0.58928 0.26187 0.58782
 H430 H 0.61286 0.25223 0.59167
 N431 N 0.53494 0.26065 0.60126
 C432 C 0.44568 0.21882 0.62348
 H433 H 0.44940 0.21444 0.64934
 C434 C 0.41953 0.20697 0.60774
 H435 H 0.40326 0.19364 0.62176
 C436 C 0.46393 0.23897 0.57340
 H437 H 0.48163 0.25065 0.55985
 C438 C 0.43808 0.22752 0.55666
 H439 H 0.43595 0.23113 0.53046
 Zn440 Zn 0.50351 0.24664 0.62969
 N441 N 0.46723 0.23457 0.60629
 C442 C 0.46443 0.28465 0.67233
 N443 N 0.49358 0.28051 0.65935
 C444 C 0.51571 0.30226 0.66464
 C445 C 0.50839 0.33022 0.68211
 C446 C 0.45625 0.31209 0.69030
 C447 C 0.51943 0.18287 0.63490
 C448 C 0.53105 0.15489 0.64907
 C449 C 0.54244 0.18445 0.69855
 C450 C 0.53003 0.21193 0.68353
 N451 N 0.51917 0.21059 0.65215
 H452 H 0.44706 0.26736 0.66780
 H453 H 0.53881 0.29845 0.65432
 H454 H 0.52594 0.34778 0.68515
 H455 H 0.43254 0.31560 0.69925
 H456 H 0.51056 0.18257 0.61000
 H457 H 0.53042 0.13305 0.63495
 H458 H 0.55192 0.18607 0.72316
 H459 H 0.52964 0.23437 0.69663
 C460 C 0.41561 0.21097 0.57380
 C461 C 0.58348 0.28963 0.56958
 C462 C 0.54328 0.15543 0.68114
 C463 C 0.47813 0.33564 0.69460
 C464 C 0.44845 0.75749 0.91825
 H465 H 0.46509 0.74257 0.93161
 C466 C 0.41965 0.76626 0.93265
 H467 H 0.41447 0.75770 0.95688
 C468 C 0.43447 0.78604 0.87029
 H469 H 0.44029 0.79355 0.84586
 C470 C 0.40554 0.79541 0.88373
 H471 H 0.38961 0.81061 0.86962
 N472 N 0.45509 0.76700 0.88734
 C473 C 0.55329 0.75149 0.88969
 H474 H 0.55596 0.77156 0.87392
 C475 C 0.57977 0.73773 0.90491
 H476 H 0.60230 0.74762 0.90062
 C477 C 0.52149 0.71243 0.91165
 H478 H 0.49905 0.70166 0.91282
 C479 C 0.54738 0.69795 0.92740
 H480 H 0.54426 0.67681 0.94164
 Zn481 Zn 0.49167 0.75240 0.86427
 N482 N 0.52494 0.73837 0.89265
 C483 C 0.51060 0.81409 0.85317
 N484 N 0.50573 0.78571 0.83830
 C485 C 0.51319 0.78034 0.80627
 C486 C 0.52757 0.80361 0.78831
 C487 C 0.52497 0.83798 0.83615
 C488 C 0.45321 0.71845 0.82106
 C489 C 0.44324 0.69157 0.80445
 C490 C 0.49189 0.66407 0.81925
 C491 C 0.50097 0.69149 0.83548
 N492 N 0.48124 0.71766 0.83700
 H493 H 0.50458 0.81759 0.87875
 H494 H 0.50911 0.75757 0.79501
 H495 H 0.53397 0.79868 0.76303
 H496 H 0.53006 0.85979 0.84894
 H497 H 0.43799 0.73952 0.82223
 H498 H 0.42018 0.69219 0.79331
 H499 H 0.50754 0.64319 0.81906
 H500 H 0.52354 0.69155 0.84748
 C501 C 0.57721 0.71006 0.92333
 C502 C 0.39752 0.78511 0.91512
 C503 C 0.46234 0.66365 0.80419
 C504 C 0.53434 0.83261 0.80349
 C505 C 0.44773 -0.20437 0.36084
 C506 C 0.47939 -0.21463 0.36142
 C507 C 0.50148 -0.19665 0.34534
 C508 C 0.49185 -0.16921 0.32815
 C509 C 0.45969 -0.16010 0.32669
 C510 C 0.43789 -0.17771 0.34318
 C511 C 0.44980 -0.13313 0.30932
 C512 C 0.47158 -0.11455 0.29388
 C513 C 0.50359 -0.12300 0.29593
 C514 C 0.51369 -0.15043 0.31273
 H515 H 0.52613 -0.20334 0.34699
 H516 H 0.41324 -0.17057 0.34286
 H517 H 0.42509 -0.12619 0.30818
 H518 H 0.53847 -0.15684 0.31381
 H519 H 0.43026 -0.21640 0.37430
 H520 H 0.52061 -0.10862 0.28425
 C521 C 0.95316 0.28917 0.82111
 C522 C 0.97897 0.29172 0.84219
 C523 C 0.99490 0.32019 0.84305
 C524 C 0.98385 0.34652 0.82487
 C525 C 0.95682 0.34423 0.80511
 C526 C 0.94210 0.31521 0.80279
 C527 C 0.94450 0.37116 0.78871
 C528 C 0.95889 0.40053 0.79157
 C529 C 0.98645 0.40210 0.81046
 C530 C 0.99875 0.37543 0.82696
 H531 H 1.01528 0.32237 0.85860
 H532 H 0.92155 0.31286 0.78744
 H533 H 0.92303 0.36939 0.77472
 H534 H 1.01968 0.37755 0.84178
 H535 H 0.94082 0.26743 0.81949
 H536 H 0.99853 0.42405 0.81262
 C537 C 0.01028 1.19576 0.87479
 C538 C 0.00474 1.22133 0.85353
 C539 C 0.01061 1.21733 0.81983
 C540 C 0.02252 1.18782 0.80764
 C541 C 0.02832 1.16236 0.82948
 C542 C 0.02199 1.16656 0.86294
 C543 C 0.04083 1.13317 0.81773
 C544 C 0.04793 1.12873 0.78431
 C545 C 0.04179 1.15404 0.76263
 C546 C 0.02912 1.18327 0.77416
 H547 H 0.00621 1.23702 0.80336
 H548 H 0.02627 1.14731 0.88000
 H549 H 0.04600 1.11420 0.83491
 H550 H 0.02479 1.20238 0.75696
 H551 H 0.00572 1.19847 0.90082
 H552 H 0.04684 1.15123 0.73673
 C553 C 0.53576 0.72350 0.33869
 C554 C 0.50959 0.71776 0.35800
 C555 C 0.49820 0.68707 0.35862
 C556 C 0.51236 0.66252 0.33991
 C557 C 0.53888 0.66837 0.32081
 C558 C 0.55032 0.69901 0.32020
 C559 C 0.55398 0.64330 0.30343
 C560 C 0.54274 0.61245 0.30473
 C561 C 0.51571 0.60726 0.32305
 C562 C 0.50075 0.63201 0.34061
 H563 H 0.47898 0.68165 0.37438
 H564 H 0.57078 0.70392 0.30586
 H565 H 0.57503 0.64765 0.28981
 H566 H 0.48024 0.62723 0.35493
 H567 H 0.54564 0.74660 0.33860
 H568 H 0.50615 0.58395 0.32394
 C569 C 0.54500 0.27999 0.15664
 C570 C 0.51612 0.28557 0.14081
 C571 C 0.50147 0.31596 0.14225
 C572 C 0.51585 0.34077 0.15881
 C573 C 0.54506 0.33500 0.17448
 C574 C 0.55925 0.30443 0.17362
 C575 C 0.56007 0.36008 0.18983
 C576 C 0.54663 0.39112 0.18919
 C577 C 0.51727 0.39644 0.17405
 C578 C 0.50196 0.37148 0.15913
 H579 H 0.47949 0.32075 0.12959
 H580 H 0.58176 0.29963 0.18528
 H581 H 0.58243 0.35549 0.20190
 H582 H 0.47960 0.37633 0.14716
 H583 H 0.55706 0.25694 0.15498
 H584 H 0.50654 0.42012 0.17285
 C585 C 0.00254 0.82851 0.62996
 C586 C 0.01704 0.79938 0.63891
 C587 C 0.03675 0.79805 0.66652
 C588 C 0.04406 0.82603 0.68335
 C589 C 0.03113 0.85557 0.67264
 C590 C 0.00964 0.85642 0.64658
 C591 C 0.04090 0.88382 0.68717
 C592 C 0.06355 0.88307 0.71237
 C593 C 0.07469 0.85338 0.72419
 C594 C 0.06517 0.82518 0.70974
 H595 H 0.04771 0.77552 0.67374
 H596 H -0.00092 0.87877 0.63835
 H597 H 0.03212 0.90633 0.67751
 H598 H 0.07498 0.80275 0.71864
 H599 H -0.01341 0.83016 0.60939
 H600 H 0.09137 0.85190 0.74424
 C601 C 1.02626 0.70057 0.63446
 C602 C 1.00639 0.72786 0.63719
 C603 C 0.97980 0.72720 0.65711
 C604 C 0.97129 0.69861 0.67122
 C605 C 0.99039 0.67070 0.66654
 C606 C 1.01835 0.67223 0.64903
 C607 C 0.98053 0.64153 0.67810
 C608 C 0.95141 0.63977 0.69360
 C609 C 0.93331 0.66792 0.69944
 C610 C 0.94320 0.69707 0.68850
 H611 H 0.96473 0.74839 0.65981
 H612 H 1.03354 0.65124 0.64556
 H613 H 0.99462 0.62000 0.67337
 H614 H 0.92836 0.71820 0.69256
 H615 H 1.04750 0.70060 0.62025
 H616 H 0.91105 0.66724 0.71192
 C617 C 0.50396 0.21242 0.17059
 C618 C 0.49189 0.21743 0.13889
 C619 C 0.47226 0.19519 0.12492
 C620 C 0.46494 0.16801 0.14204
 C621 C 0.47751 0.16272 0.17377
 C622 C 0.49710 0.18506 0.18780
 C623 C 0.46945 0.13573 0.19118
 C624 C 0.44838 0.11464 0.17743
 C625 C 0.43629 0.12004 0.14580
 C626 C 0.44464 0.14640 0.12814
 H627 H 0.46175 0.19947 0.10104
 H628 H 0.50665 0.18165 0.21225
 H629 H 0.47855 0.13173 0.21574
 H630 H 0.43483 0.15016 0.10384
 H631 H 0.51836 0.22958 0.18239
 H632 H 0.42013 0.10385 0.13485
 C633 C 0.35327 0.50641 -0.16477
 C634 C 0.35250 0.48660 -0.19262
 C635 C 0.33166 0.46192 -0.19378
 C636 C 0.31371 0.45521 -0.16624
 C637 C 0.31568 0.47426 -0.13760
 C638 C 0.33494 0.50031 -0.13743
 C639 C 0.29909 0.46640 -0.10938
 C640 C 0.28103 0.43931 -0.10920
 C641 C 0.27883 0.42099 -0.13816
 C642 C 0.29479 0.42900 -0.16644
 H643 H 0.33060 0.44697 -0.21555
 H644 H 0.33647 0.51545 -0.11588
 H645 H 0.30075 0.48097 -0.08743
 H646 H 0.29313 0.41407 -0.18814
 H647 H 0.36832 0.52630 -0.16373
 H648 H 0.26565 0.39966 -0.13871
 C649 C 0.85678 1.01244 0.31735
 C650 C 0.85330 1.00239 0.28459
 C651 C 0.83451 0.97665 0.27759
 C652 C 0.81974 0.96089 0.30309
 C653 C 0.82366 0.97120 0.33591
 C654 C 0.84187 0.99723 0.34270
 C655 C 0.81032 0.95463 0.36159
 C656 C 0.79324 0.92753 0.35511
 C657 C 0.78891 0.91781 0.32231
 C658 C 0.80197 0.93437 0.29653
 H659 H 0.83257 0.96791 0.25263
 H660 H 0.84535 1.00528 0.36775
 H661 H 0.81438 0.96211 0.38673
 H662 H 0.79861 0.92612 0.27154
 H663 H 0.87184 1.03136 0.32392
 H664 H 0.77553 0.89724 0.31658
 C665 C 0.85990 0.07068 1.20893
 C666 C 0.85312 0.03984 1.21849
 C667 C 0.83086 0.02320 1.20046
 C668 C 0.81628 0.03693 1.17266
 C669 C 0.82377 0.06781 1.16321
 C670 C 0.84512 0.08466 1.18186
 C671 C 0.81076 0.08097 1.13457
 C672 C 0.79067 0.06359 1.11458
 C673 C 0.78253 0.03326 1.12459
 C674 C 0.79521 0.02004 1.15341
 H675 H 0.82599 -0.00085 1.20701
 H676 H 0.85126 0.10828 1.17480
 H677 H 0.81675 0.10464 1.12748
 H678 H 0.78913 -0.00366 1.16020
 H679 H 0.87758 0.08386 1.22136
 H680 H 0.76714 0.01936 1.10958
 C681 C 0.35649 0.47749 0.70842
 C682 C 0.35505 0.49870 0.73520
 C683 C 0.33558 0.52622 0.73344
 C684 C 0.32007 0.53412 0.70403
 C685 C 0.32289 0.51342 0.67658
 C686 C 0.34045 0.48475 0.67934
 C687 C 0.30901 0.52220 0.64656
 C688 C 0.29304 0.55187 0.64325
 C689 C 0.28975 0.57188 0.67103
 C690 C 0.30290 0.56297 0.70117
 H691 H 0.33390 0.54229 0.75436
 H692 H 0.34255 0.46838 0.65871
 H693 H 0.31133 0.50627 0.62559
 H694 H 0.30059 0.57917 0.72192
 H695 H 0.37033 0.45549 0.70958
 H696 H 0.27805 0.59507 0.66925
 C697 C 0.11855 0.51327 0.33786
 C698 C 0.13299 0.51321 0.30704
 C699 C 0.16487 0.51920 0.30475
 C700 C 0.18210 0.52601 0.33326
 C701 C 0.16730 0.52599 0.36427
 C702 C 0.13561 0.51928 0.36630
 C703 C 0.18402 0.53400 0.39262
 C704 C 0.21500 0.54324 0.39033
 C705 C 0.22974 0.54288 0.35960
 C706 C 0.21356 0.53389 0.33131
 H707 H 0.17599 0.51941 0.28093
 H708 H 0.12386 0.51934 0.38980
 H709 H 0.17239 0.53493 0.41622
 H710 H 0.22529 0.53414 0.30781
 H711 H 0.09391 0.50873 0.33992
 H712 H 0.25357 0.55029 0.35747
 C713 C 0.68026 0.02215 0.75905
 C714 C 0.65904 -0.00118 0.76616
 C715 C 0.65474 -0.01027 0.79878
 C716 C 0.67069 0.00480 0.82434
 C717 C 0.69172 0.02863 0.81700
 C718 C 0.69680 0.03670 0.78423
 C719 C 0.70643 0.04485 0.84256
 C720 C 0.69967 0.03845 0.87554
 C721 C 0.67930 0.01413 0.88253
 C722 C 0.66512 -0.00269 0.85717
 H723 H 0.63823 -0.02812 0.80447
 H724 H 0.71276 0.05498 0.77817
 H725 H 0.72258 0.06303 0.83670
 H726 H 0.64902 -0.02084 0.86325
 H727 H 0.68351 0.02964 0.73399
 H728 H 0.67336 0.00885 0.90762
 C729 C 0.69060 0.96201 0.70023
 C730 C 0.65781 0.96284 0.69982
 C731 C 0.64204 0.94917 0.67333
 C732 C 0.65873 0.93626 0.64655
 C733 C 0.69176 0.93645 0.64646
 C734 C 0.70751 0.94895 0.67366
 C735 C 0.70838 0.92448 0.61904
 C736 C 0.69237 0.91231 0.59170
 C737 C 0.65951 0.91182 0.59248
 C738 C 0.64286 0.92372 0.61959
 H739 H 0.61667 0.94958 0.67313
 H740 H 0.73283 0.94904 0.67419
 H741 H 0.73367 0.92521 0.61876
 H742 H 0.61755 0.92322 0.61940
 H743 H 0.70324 0.97186 0.72070
 H744 H 0.64660 0.90187 0.57219
 C745 C 0.12917 0.51537 0.20457
 C746 C 0.13286 0.49667 0.23276
 C747 C 0.15331 0.46979 0.23178
 C748 C 0.16780 0.46011 0.20230
 C749 C 0.16231 0.47793 0.17350
 C750 C 0.14366 0.50602 0.17514
 C751 C 0.17465 0.46679 0.14341
 C752 C 0.19215 0.43781 0.14170
 C753 C 0.19875 0.42118 0.17087
 C754 C 0.18671 0.43220 0.20085
 H755 H 0.15719 0.45573 0.25353
 H756 H 0.13960 0.52033 0.15348
 H757 H 0.16930 0.47984 0.12116
 H758 H 0.19148 0.41843 0.22275
 H759 H 0.11459 0.53690 0.20479
 H760 H 0.21282 0.39922 0.17040
 C761 C -0.20651 0.36112 0.45779
 C762 C -0.21844 0.35335 0.48859
 C763 C -0.20054 0.33322 0.50937
 C764 C -0.17092 0.32095 0.49922
 C765 C -0.15942 0.32917 0.46811
 C766 C -0.17748 0.34894 0.44754
 C767 C -0.12973 0.31810 0.45811
 C768 C -0.11077 0.29894 0.47868
 C769 C -0.12240 0.29004 0.50929
 C770 C -0.15224 0.30110 0.51957
 H771 H -0.20935 0.32771 0.53345
 H772 H -0.16882 0.35561 0.42374
 H773 H -0.12128 0.32445 0.43411
 H774 H -0.16058 0.29439 0.54346
 H775 H -0.21897 0.37746 0.44166
 H776 H -0.10817 0.27507 0.52543
 C777 C 0.30330 0.83661 1.01998
 C778 C 0.27723 0.84035 0.99911
 C779 C 0.27918 0.82886 0.96672
 C780 C 0.30766 0.81575 0.95458
 C781 C 0.33421 0.81334 0.97539
 C782 C 0.33152 0.82305 1.00829
 C783 C 0.36325 0.80243 0.96270
 C784 C 0.36631 0.79419 0.92928
 C785 C 0.33946 0.79569 0.90910
 C786 C 0.31045 0.80631 0.92162
 H787 H 0.25913 0.83185 0.95049
 H788 H 0.35153 0.82121 1.02468
 H789 H 0.38370 0.80167 0.97854
 H790 H 0.29034 0.80779 0.90533
 H791 H 0.30235 0.84512 1.04511
 H792 H 0.34092 0.78880 0.88346
 C793 C 1.20733 0.81019 0.01951
 C794 C 1.20814 0.84311 0.02407
 C795 C 1.18264 0.85967 0.03870
 C796 C 1.15620 0.84375 0.04824
 C797 C 1.15532 0.81055 0.04367
 C798 C 1.18106 0.79397 0.02926
 C799 C 1.12880 0.79465 0.05373
 C800 C 1.10313 0.81165 0.06801
 C801 C 1.10440 0.84470 0.07211
 C802 C 1.13066 0.86057 0.06238
 H803 H 1.18341 0.88510 0.04260
 H804 H 1.18088 0.76851 0.02556
 H805 H 1.12803 0.76918 0.05029
 H806 H 1.13105 0.88603 0.06610
 H807 H 1.22695 0.79705 0.00848
 H808 H 1.08527 0.85827 0.08357
 C809 C 0.71682 0.31431 0.51678
 C810 C 0.71322 0.34746 0.51669
 C811 C 0.68463 0.36219 0.52603
 C812 C 0.65984 0.34418 0.53611
 C813 C 0.66329 0.31074 0.53624
 C814 C 0.69193 0.29599 0.52645
 C815 C 0.63812 0.29281 0.54631
 C816 C 0.60979 0.30800 0.55685
 C817 C 0.60713 0.34139 0.55681
 C818 C 0.63172 0.35923 0.54627
 H819 H 0.68175 0.38786 0.52561
 H820 H 0.69507 0.27037 0.52632
 H821 H 0.64064 0.26716 0.54591
 H822 H 0.62890 0.38488 0.54658
 H823 H 0.73862 0.30261 0.50908
 H824 H 0.58624 0.35399 0.56571
 C825 C 0.28371 0.15753 0.55393
 C826 C 0.29043 0.14062 0.52479
 C827 C 0.31987 0.14308 0.51020
 C828 C 0.34263 0.16157 0.52478
 C829 C 0.33604 0.17795 0.55452
 C830 C 0.30631 0.17613 0.56868
 C831 C 0.35959 0.19500 0.56999
 C832 C 0.38968 0.19570 0.55613
 C833 C 0.39553 0.17994 0.52606
 C834 C 0.37225 0.16309 0.51052
 H835 H 0.32576 0.12986 0.48805
 H836 H 0.30082 0.18844 0.59154
 H837 H 0.35467 0.20731 0.59300
 H838 H 0.37765 0.15063 0.48771
 H839 H 0.26142 0.15541 0.56598
 H840 H 0.41854 0.17967 0.51508
 C841 C 0.77238 0.67976 0.03693
 C842 C 0.77938 0.66023 0.00969
 C843 C 0.80998 0.65834 -0.00269
 C844 C 0.83364 0.67534 0.01258
 C845 C 0.82646 0.69463 0.04034
 C846 C 0.79566 0.69706 0.05202
 C847 C 0.85036 0.71036 0.05662
 C848 C 0.88159 0.70661 0.04603
 C849 C 0.88831 0.68806 0.01784
 C850 C 0.86454 0.67265 0.00121
 H851 H 0.81568 0.64295 -0.02344
 H852 H 0.78975 0.71169 0.07330
 H853 H 0.84472 0.72501 0.07797
 H854 H 0.87047 0.65796 -0.02003
 H855 H 0.74894 0.68118 0.04694
 H856 H 0.91214 0.68449 0.00931
 C857 C 0.71221 0.69146 0.97918
 C858 C 0.71395 0.65824 0.97740
 C859 C 0.68860 0.64203 0.96463
 C860 C 0.66111 0.65873 0.95495
 C861 C 0.65917 0.69220 0.95735
 C862 C 0.68498 0.70836 0.96924
 C863 C 0.63153 0.70888 0.94774
 C864 C 0.60578 0.69253 0.93565
 C865 C 0.60809 0.65920 0.93356
 C866 C 0.63543 0.64248 0.94314
 H867 H 0.69002 0.61633 0.96307
 H868 H 0.68403 0.73402 0.97106
 H869 H 0.63006 0.73453 0.94976
 H870 H 0.63658 0.61683 0.94109
 H871 H 0.73170 0.70442 0.98847
 H872 H 0.58897 0.64599 0.92369
 C873 C 0.20712 0.11556 0.46924
 C874 C 0.22397 0.13122 0.49373
 C875 C 0.21158 0.15983 0.50722
 C876 C 0.18251 0.17263 0.49611
 C877 C 0.16617 0.15672 0.47104
 C878 C 0.17859 0.12820 0.45790
 C879 C 0.13778 0.16968 0.45912
 C880 C 0.12514 0.19844 0.47179
 C881 C 0.14086 0.21381 0.49736
 C882 C 0.16945 0.20106 0.50935
 H883 H 0.22432 0.17208 0.52610
 H884 H 0.16630 0.11570 0.43875
 H885 H 0.12549 0.15745 0.43972
 H886 H 0.18148 0.21358 0.52868
 H887 H 0.21612 0.09345 0.45848
 H888 H 0.13146 0.23609 0.50738
 C889 C 0.61684 0.02590 0.68125
 C890 C 0.61388 0.01924 0.71474
 C891 C 0.59785 0.04136 0.73528
 C892 C 0.58422 0.06944 0.72231
 C893 C 0.58726 0.07569 0.68853
 C894 C 0.60358 0.05380 0.66824
 C895 C 0.57427 0.10390 0.67556
 C896 C 0.55755 0.12596 0.69563
 C897 C 0.55456 0.11950 0.72926
 C898 C 0.56791 0.09156 0.74251
 H899 H 0.59674 0.03725 0.76141
 H900 H 0.60634 0.05838 0.64231
 H901 H 0.57759 0.10878 0.64978
 H902 H 0.56528 0.08716 0.76848
 H903 H 0.62992 0.01008 0.66492
 H904 H 0.54153 0.13583 0.74528
 C905 C 1.08800 0.56978 0.27994
 C906 C 1.08268 0.54150 0.26273
 C907 C 1.06086 0.54183 0.23688
 C908 C 1.04637 0.57059 0.22663
 C909 C 1.05317 0.59921 0.24303
 C910 C 1.07324 0.59837 0.27031
 C911 C 1.04121 0.62832 0.23082
 C912 C 1.02293 0.62930 0.20203
 C913 C 1.01504 0.60055 0.18692
 C914 C 1.02660 0.57149 0.19911
 H915 H 1.05702 0.52017 0.22318
 H916 H 1.07863 0.62003 0.28329
 H917 H 1.04769 0.65024 0.24263
 H918 H 1.02089 0.54980 0.18638
 H919 H 1.10475 0.57030 0.29989
 H920 H 1.00040 0.60055 0.16516
 C921 C 0.90255 0.98351 0.19819
 C922 C 0.90058 0.98620 0.23246
 C923 C 0.91328 0.96162 0.25206
 C924 C 0.92616 0.93367 0.23745
 C925 C 0.92663 0.93063 0.20286
 C926 C 0.91549 0.95597 0.18348
 C927 C 0.93741 0.90201 0.18818
 C928 C 0.94778 0.87621 0.20752
 C929 C 0.94840 0.87980 0.24184
 C930 C 0.93757 0.90827 0.25670
 H931 H 0.91186 0.96364 0.27856
 H932 H 0.91599 0.95415 0.15694
 H933 H 0.93734 0.89961 0.16165
 H934 H 0.93750 0.91018 0.28324
 H935 H 0.89337 1.00232 0.18258
 H936 H 0.95633 0.86022 0.25717
 C937 C 0.40141 0.42781 0.78478
 C938 C 0.40514 0.45508 0.76606
 C939 C 0.42681 0.45424 0.74034
 C940 C 0.44238 0.42558 0.73127
 C941 C 0.43671 0.39761 0.74869
 C942 C 0.41699 0.39920 0.77608
 C943 C 0.44979 0.36838 0.73764
 C944 C 0.46836 0.36673 0.70928
 C945 C 0.47520 0.39487 0.69317
 C946 C 0.46232 0.42407 0.70407
 H947 H 0.43009 0.47545 0.72620
 H948 H 0.41282 0.37814 0.79010
 H949 H 0.44470 0.34680 0.75040
 H950 H 0.46703 0.44528 0.69052
 H951 H 0.38579 0.42814 0.80553
 H952 H 0.48930 0.39411 0.67115
 C953 C 0.42552 0.52383 0.80800
 C954 C 0.40569 0.52489 0.78051
 C955 C 0.40475 0.55171 0.76043
 C956 C 0.42125 0.57848 0.76940
 C957 C 0.43984 0.57791 0.79818
 C958 C 0.44249 0.55018 0.81685
 C959 C 0.45450 0.60541 0.80847
 C960 C 0.45037 0.63371 0.79071
 C961 C 0.43271 0.63368 0.76152
 C962 C 0.41844 0.60624 0.75084
 H963 H 0.39053 0.55236 0.73843
 H964 H 0.45687 0.54921 0.83881
 H965 H 0.46775 0.60522 0.83122
 H966 H 0.40441 0.60702 0.72861
 H967 H 0.42696 0.50301 0.82335
 H968 H 0.42954 0.65509 0.74724
 C969 C -0.06510 0.04769 0.26969
 C970 C -0.09786 0.05037 0.27050
 C971 C -0.11271 0.07716 0.28521
 C972 C -0.09518 0.10115 0.29911
 C973 C -0.06216 0.09852 0.29829
 C974 C -0.04732 0.07164 0.28350
 C975 C -0.04469 0.12278 0.31228
 C976 C -0.05990 0.14953 0.32721
 C977 C -0.09281 0.15156 0.32783
 C978 C -0.11025 0.12771 0.31384
 H979 H -0.13806 0.07934 0.28566
 H980 H -0.02202 0.06917 0.28260
 H981 H -0.01936 0.12093 0.31135
 H982 H -0.13556 0.12993 0.31479
 H983 H -0.05329 0.02724 0.25828
 H984 H -0.10520 0.17137 0.33977
 C985 C 0.05525 0.46712 0.27756
 C986 C 0.08774 0.46919 0.28097
 C987 C 0.10522 0.44410 0.29538
 C988 C 0.09064 0.41729 0.30660
 C989 C 0.05790 0.41514 0.30318
 C990 C 0.04043 0.44011 0.28830
 C991 C 0.04327 0.38863 0.31577
 C992 C 0.06103 0.36493 0.33242
 C993 C 0.09357 0.36724 0.33516
 C994 C 0.10829 0.39306 0.32218
 H995 H 0.13012 0.44597 0.29935
 H996 H 0.01528 0.43907 0.28566
 H997 H 0.01809 0.38706 0.31388
 H998 H 0.13341 0.39441 0.32495
 H999 H 0.04120 0.48644 0.26715
 H1000 H 0.10760 0.34909 0.34773
 C1001 C 0.58014 0.96534 0.76750
 C1002 C 0.60623 0.95476 0.74905
 C1003 C 0.61208 0.92207 0.74415
 C1004 C 0.59212 0.90013 0.75745
 C1005 C 0.56599 0.91094 0.77618
 C1006 C 0.56010 0.94363 0.78089
 C1007 C 0.54661 0.88889 0.79039
 C1008 C 0.55312 0.85609 0.78630
 C1009 C 0.57893 0.84572 0.76713
 C1010 C 0.59820 0.86751 0.75281
 H1011 H 0.63251 0.91352 0.73059
 H1012 H 0.54024 0.95239 0.79525
 H1013 H 0.52663 0.89723 0.80484
 H1014 H 0.61817 0.85882 0.73856
 H1015 H 0.57529 0.99030 0.77199
 H1016 H 0.58483 0.82066 0.76400
 C1017 C 0.75785 0.58893 0.04323
 C1018 C 0.73646 0.61020 0.02789
 C1019 C 0.70625 0.61475 0.04070
 C1020 C 0.69706 0.59767 0.06796
 C1021 C 0.71835 0.57566 0.08295
 C1022 C 0.74879 0.57150 0.07039
 C1023 C 0.70879 0.55842 0.11023
 C1024 C 0.67819 0.56302 0.12251
 C1025 C 0.65760 0.58549 0.10760
 C1026 C 0.66688 0.60255 0.08057
 H1027 H 0.68986 0.63200 0.03004
 H1028 H 0.76560 0.55501 0.08170
 H1029 H 0.72488 0.54118 0.12151
 H1030 H 0.65041 0.61960 0.06953
 H1031 H 0.78159 0.58591 0.03427
 H1032 H 0.63420 0.59011 0.11704
 C1033 C 0.22737 1.06219 0.53076
 C1034 C 0.25229 1.08179 0.53751
 C1035 C 0.26579 1.08165 0.56901
 C1036 C 0.25222 1.06485 0.59447
 C1037 C 0.22529 1.04755 0.58806
 C1038 C 0.21384 1.04530 0.55586
 C1039 C 0.20931 1.03415 0.61408
 C1040 C 0.21992 1.03744 0.64672
 C1041 C 0.24808 1.05281 0.65241
 C1042 C 0.26396 1.06651 0.62659
 H1043 H 0.28562 1.09597 0.57429
 H1044 H 0.19356 1.03162 0.55037
 H1045 H 0.18757 1.02286 0.60885
 H1046 H 0.28489 1.07924 0.63191
 H1047 H 0.21708 1.06128 0.50651
 H1048 H 0.25760 1.05489 0.67695
 C1049 C 0.25591 0.90687 0.95977
 C1050 C 0.23222 0.89294 0.97761
 C1051 C 0.20092 0.89836 0.96806
 C1052 C 0.19325 0.91762 0.94114
 C1053 C 0.21723 0.93128 0.92300
 C1054 C 0.24852 0.92587 0.93265
 C1055 C 0.20947 0.94964 0.89530
 C1056 C 0.17800 0.95473 0.88578
 C1057 C 0.15441 0.94148 0.90447
 C1058 C 0.16195 0.92306 0.93182
 H1059 H 0.18238 0.88744 0.98111
 H1060 H 0.26726 0.93606 0.91906
 H1061 H 0.22782 0.95988 0.88113
 H1062 H 0.14330 0.91276 0.94546
 H1063 H 0.28026 0.90255 0.96639
 H1064 H 0.13005 0.94462 0.89735
 C1065 C 0.71766 0.37021 0.44023
 C1066 C 0.72605 0.39140 0.46517
 C1067 C 0.72248 0.42423 0.46018
 C1068 C 0.71130 0.43567 0.42972
 C1069 C 0.70416 0.41392 0.40441
 C1070 C 0.70715 0.38131 0.41000
 C1071 C 0.69388 0.42492 0.37382
 C1072 C 0.68884 0.45753 0.36810
 C1073 C 0.69585 0.47914 0.39344
 C1074 C 0.70727 0.46832 0.42385
 H1075 H 0.72878 0.44061 0.47951
 H1076 H 0.70149 0.36436 0.39093
 H1077 H 0.68968 0.40780 0.35446
 H1078 H 0.71246 0.48544 0.44290
 H1079 H 0.72030 0.34481 0.44376
 H1080 H 0.69186 0.50441 0.39011
 C1081 C 0.74364 0.39636 0.56810
 C1082 C 0.75469 0.40115 0.53624
 C1083 C 0.77676 0.42419 0.53101
 C1084 C 0.78855 0.44152 0.55767
 C1085 C 0.77781 0.43590 0.58977
 C1086 C 0.75489 0.41375 0.59460
 C1087 C 0.79111 0.45141 0.61671
 C1088 C 0.81540 0.47231 0.61222
 C1089 C 0.82514 0.47862 0.58007
 C1090 C 0.81181 0.46342 0.55306
 H1091 H 0.78574 0.42757 0.50652
 H1092 H 0.74646 0.40906 0.61903
 H1093 H 0.78362 0.44594 0.64130
 H1094 H 0.82023 0.46823 0.52865
 H1095 H 0.72721 0.37827 0.57301
 H1096 H 0.84343 0.49503 0.57583
 C1097 C 0.24905 -0.12286 0.08053
 C1098 C 0.25467 -0.11121 0.04908
 C1099 C 0.27233 -0.08425 0.04564
 C1100 C 0.28505 -0.06950 0.07336
 C1101 C 0.27978 -0.08172 0.10494
 C1102 C 0.26128 -0.10809 0.10829
 C1103 C 0.29418 -0.06826 0.13245
 C1104 C 0.31430 -0.04312 0.12873
 C1105 C 0.31854 -0.03048 0.09736
 C1106 C 0.30395 -0.04346 0.06993
 H1107 H 0.27717 -0.07539 0.02148
 H1108 H 0.25711 -0.11788 0.13227
 H1109 H 0.29103 -0.07840 0.15649
 H1110 H 0.30811 -0.03367 0.04594
 H1111 H 0.23607 -0.14405 0.08369
 H1112 H 0.33362 -0.01081 0.09400
 C1113 C 0.28071 0.11728 0.44180
 C1114 C 0.27912 0.09631 0.46814
 C1115 C 0.29005 0.06466 0.46433
 C1116 C 0.30302 0.05423 0.43418
 C1117 C 0.30444 0.07568 0.40784
 C1118 C 0.29306 0.10705 0.41184
 C1119 C 0.31764 0.06572 0.37795
 C1120 C 0.33040 0.03472 0.37385
 C1121 C 0.32862 0.01330 0.39996
 C1122 C 0.31493 0.02295 0.42984
 H1123 H 0.28884 0.04849 0.48471
 H1124 H 0.29404 0.12377 0.39191
 H1125 H 0.31811 0.08231 0.35785
 H1126 H 0.31413 0.00611 0.44968
 H1127 H 0.27237 0.14178 0.44445
 H1128 H 0.33846 -0.01068 0.39758
 C1129 C 0.76927 0.57801 0.95849
 C1130 C 0.76379 0.61098 0.95710
 C1131 C 0.76987 0.62694 0.92803
 C1132 C 0.78227 0.61037 0.90075
 C1133 C 0.78899 0.57732 0.90258
 C1134 C 0.78204 0.56129 0.93149
 C1135 C 0.80314 0.56112 0.87577
 C1136 C 0.81070 0.57768 0.84727
 C1137 C 0.80247 0.61028 0.84538
 C1138 C 0.78854 0.62647 0.87187
 H1139 H 0.76529 0.65238 0.92679
 H1140 H 0.78670 0.53593 0.93331
 H1141 H 0.80938 0.53603 0.87761
 H1142 H 0.78312 0.65171 0.86992
 H1143 H 0.76408 0.56512 0.98043
 H1144 H 0.80729 0.62346 0.82345
 C1145 C 0.07837 0.76956 0.59891
 C1146 C 0.05052 0.75586 0.58897
 C1147 C 0.05112 0.73334 0.56342
 C1148 C 0.07969 0.72246 0.54984
 C1149 C 0.10793 0.73478 0.56153
 C1150 C 0.10692 0.75909 0.58528
 C1151 C 0.13669 0.72135 0.55072
 C1152 C 0.13756 0.69536 0.52881
 C1153 C 0.10932 0.68471 0.51576
 C1154 C 0.08063 0.69816 0.52614
 H1155 H 0.02957 0.72286 0.55560
 H1156 H 0.12830 0.76907 0.59427
 H1157 H 0.15827 0.72968 0.56111
 H1158 H 0.05921 0.68871 0.51663
 H1159 H 0.07845 0.78737 0.61813
 H1160 H 0.10941 0.66519 0.49827
 C1161 C 0.52262 0.21467 1.06280
 C1162 C 0.52717 0.24212 1.08161
 C1163 C 0.55544 0.25759 1.07878
 C1164 C 0.58031 0.24363 1.06065
 C1165 C 0.57639 0.21451 1.04407
 C1166 C 0.54706 0.20092 1.04416
 C1167 C 0.60216 0.19875 1.02902
 C1168 C 0.63202 0.21158 1.03045
 C1169 C 0.63519 0.24143 1.04554
 C1170 C 0.60958 0.25733 1.06046
 H1171 H 0.55893 0.27944 1.09215
 H1172 H 0.54344 0.17888 1.03106
 H1173 H 0.59921 0.17565 1.01784
 H1174 H 0.61293 0.27982 1.07278
 H1175 H 0.50079 0.20283 1.06370
 H1176 H 0.65765 0.25230 1.04631
 C1177 C 0.94723 0.25452 0.92639
 C1178 C 0.95299 0.24765 0.89313
 C1179 C 0.93204 0.22916 0.87553
 C1180 C 0.90560 0.21767 0.89076
 C1181 C 0.89966 0.22502 0.92414
 C1182 C 0.92055 0.24364 0.94168
 C1183 C 0.87353 0.21275 0.93956
 C1184 C 0.85386 0.19258 0.92217
 C1185 C 0.85995 0.18563 0.88897
 C1186 C 0.88546 0.19823 0.87332
 H1187 H 0.93692 0.22258 0.85024
 H1188 H 0.91663 0.24920 0.96740
 H1189 H 0.86912 0.21790 0.96530
 H1190 H 0.88973 0.19236 0.84773
 H1191 H 0.96340 0.26776 0.94090
 H1192 H 0.84493 0.17029 0.87514
 C1193 C 0.43330 0.72340 0.38448
 C1194 C 0.45728 0.73349 0.40521
 C1195 C 0.45469 0.73016 0.43932
 C1196 C 0.42824 0.71620 0.45249
 C1197 C 0.40448 0.70588 0.43110
 C1198 C 0.40707 0.70988 0.39726
 C1199 C 0.37873 0.69097 0.44365
 C1200 C 0.37624 0.68543 0.47736
 C1201 C 0.39928 0.69649 0.49882
 C1202 C 0.42516 0.71177 0.48645
 H1203 H 0.47325 0.73783 0.45534
 H1204 H 0.38906 0.70205 0.38062
 H1205 H 0.36068 0.68315 0.42700
 H1206 H 0.44299 0.71958 0.50331
 H1207 H 0.43511 0.72564 0.35810
 H1208 H 0.39772 0.69249 0.52495
 C1209 C 0.52530 0.79320 0.42370
 C1210 C 0.52365 0.76131 0.41416
 C1211 C 0.54927 0.74015 0.41999
 C1212 C 0.57754 0.75145 0.43201
 C1213 C 0.57978 0.78418 0.43901
 C1214 C 0.55318 0.80459 0.43614
 C1215 C 0.60893 0.79619 0.44693
 C1216 C 0.63582 0.77594 0.44798
 C1217 C 0.63317 0.74323 0.44304
 C1218 C 0.60418 0.73103 0.43501
 H1219 H 0.54804 0.71543 0.41282
 H1220 H 0.55442 0.82966 0.44179
 H1221 H 0.61101 0.82145 0.45107
 H1222 H 0.60284 0.70587 0.42991
 H1223 H 0.50570 0.80980 0.41951
 H1224 H 0.65377 0.72738 0.44394
 C1225 C 0.01298 0.29968 -0.07791
 C1226 C 0.01975 0.27374 -0.09889
 C1227 C 0.05033 0.26023 -0.09974
 C1228 C 0.07393 0.27251 -0.07994
 C1229 C 0.06681 0.29829 -0.05850
 C1230 C 0.03616 0.31154 -0.05744
 C1231 C 0.09067 0.31117 -0.03942
 C1232 C 0.12198 0.29958 -0.04249
 C1233 C 0.12856 0.27364 -0.06378
 C1234 C 0.10476 0.26005 -0.08200
 H1235 H 0.05623 0.24092 -0.11660
 H1236 H 0.03035 0.33165 -0.04152
 H1237 H 0.08481 0.33064 -0.02272
 H1238 H 0.11066 0.24039 -0.09850
 H1239 H -0.01012 0.31125 -0.07785
 H1240 H 0.15231 0.26444 -0.06739
 C1241 C 0.43612 0.27103 0.12536
 C1242 C 0.45934 0.26743 0.10129
 C1243 C 0.45180 0.27335 0.06830
 C1244 C 0.42101 0.28330 0.05957
 C1245 C 0.39781 0.28668 0.08412
 C1246 C 0.40557 0.28034 0.11687
 C1247 C 0.36726 0.29694 0.07580
 C1248 C 0.35940 0.30517 0.04335
 C1249 C 0.38249 0.30135 0.01893
 C1250 C 0.41295 0.29032 0.02693
 H1251 H 0.46975 0.27051 0.04970
 H1252 H 0.38809 0.28290 0.13598
 H1253 H 0.34967 0.29892 0.09484
 H1254 H 0.43035 0.28796 0.00773
 H1255 H 0.44162 0.26646 0.15090
 H1256 H 0.37730 0.30778 -0.00622
 C1257 C 0.98532 0.79296 0.55649
 C1258 C 0.98174 0.77044 0.58109
 C1259 C 0.95382 0.75426 0.58267
 C1260 C 0.92868 0.76245 0.56175
 C1261 C 0.93187 0.78643 0.53822
 C1262 C 0.96059 0.80094 0.53518
 C1263 C 0.90599 0.79633 0.51904
 C1264 C 0.87665 0.78318 0.52365
 C1265 C 0.87416 0.75839 0.54617
 C1266 C 0.89998 0.74800 0.56490
 H1267 H 0.95103 0.73609 0.60074
 H1268 H 0.96358 0.81915 0.51705
 H1269 H 0.90843 0.81502 0.50132
 H1270 H 0.89716 0.72952 0.58278
 H1271 H 1.00698 0.80517 0.55448
 H1272 H 0.85187 0.74801 0.55048
   
