data_POSCAR
  _audit_creation_date              2014-09-24
  _audit_creation_method            'ToBaCCo'
  _symmetry_space_group_name_H-M    'P1'
  _symmetry_Int_Tables_number       1
  _symmetry_cell_setting            triclinic
  loop_
  _symmetry_equiv_pos_as_xyz
 x,y,z
_cell_length_a 67.6942
_cell_length_b 74.8965
_cell_length_c 75.4995
_cell_angle_alpha 90.007700
_cell_angle_beta 89.993700
_cell_angle_gamma 90.120100
loop_
  _atom_site_label
  _atom_site_type_symbol
  _atom_site_fract_x
  _atom_site_fract_y
  _atom_site_fract_z
C1 C 0.30903 0.30997 -0.00437
 C2 C 0.30735 0.30948 0.01363
 C3 C 0.29595 0.32334 0.02316
 C4 C 0.31790 0.29621 0.02484
 C5 C 0.32242 0.29786 -0.01437
 C6 C 0.29784 0.32324 -0.01508
 C7 C 0.30247 0.34112 0.02324
 C8 C 0.29192 0.35412 0.03250
 C9 C 0.27452 0.34957 0.04162
 C10 C 0.26798 0.33174 0.04142
 C11 C 0.27877 0.31868 0.03245
 C12 C 0.32926 0.30223 0.03920
 C13 C 0.34010 0.29023 0.04943
 C14 C 0.33992 0.27189 0.04551
 C15 C 0.32810 0.26576 0.03142
 C16 C 0.31702 0.27779 0.02130
 C17 C 0.31540 0.28920 -0.02958
 C18 C 0.32781 0.27828 -0.03958
 C19 C 0.34763 0.27546 -0.03447
 C20 C 0.35459 0.28427 -0.01913
 C21 C 0.34226 0.29562 -0.00947
 C22 C 0.27717 0.32433 -0.01406
 C23 C 0.26688 0.33682 -0.02427
 C24 C 0.27706 0.34825 -0.03592
 C25 C 0.29774 0.34692 -0.03708
 C26 C 0.30800 0.33455 -0.02677
 H27 H 0.31582 0.34486 0.01623
 H28 H 0.29727 0.36775 0.03240
 H29 H 0.25470 0.32785 0.04845
 H30 H 0.27365 0.30497 0.03257
 H31 H 0.33017 0.31633 0.04227
 H32 H 0.34901 0.29545 0.06017
 H33 H 0.30801 0.27278 0.01053
 H34 H 0.30021 0.29089 -0.03376
 H35 H 0.32164 0.27190 -0.05122
 H36 H 0.36972 0.28280 -0.01471
 H37 H 0.34828 0.30269 0.00182
 H38 H 0.26899 0.31544 -0.00544
 H39 H 0.25095 0.33737 -0.02316
 H40 H 0.30605 0.35551 -0.04590
 H41 H 0.32394 0.33386 -0.02783
 H42 H 0.32748 0.25169 0.02818
 C43 C 0.69106 0.68977 -0.01152
 C44 C 0.69187 0.68936 0.00649
 C45 C 0.70359 0.67566 0.01588
 C46 C 0.67992 0.70160 0.01771
 C47 C 0.67728 0.70181 -0.02089
 C48 C 0.70276 0.67731 -0.02270
 C49 C 0.69806 0.65762 0.01512
 C50 C 0.70878 0.64481 0.02448
 C51 C 0.72538 0.64981 0.03452
 C52 C 0.73100 0.66788 0.03507
 C53 C 0.72001 0.68074 0.02601
 C54 C 0.66765 0.69448 0.03093
 C55 C 0.65611 0.70567 0.04148
 C56 C 0.65656 0.72428 0.03904
 C57 C 0.66908 0.73144 0.02596
 C58 C 0.68077 0.72021 0.01550
 C59 C 0.68467 0.71584 -0.03123
 C60 C 0.67174 0.72721 -0.04018
 C61 C 0.65123 0.72437 -0.03931
 C62 C 0.64389 0.71013 -0.02912
 C63 C 0.65682 0.69901 -0.01985
 C64 C 0.72335 0.67593 -0.02090
 C65 C 0.73399 0.66372 -0.03116
 C66 C 0.72428 0.65284 -0.04363
 C67 C 0.70373 0.65460 -0.04570
 C68 C 0.69311 0.66670 -0.03536
 H69 H 0.68530 0.65355 0.00745
 H70 H 0.70415 0.63098 0.02380
 H71 H 0.74363 0.67212 0.04281
 H72 H 0.72437 0.69464 0.02677
 H73 H 0.66677 0.68019 0.03294
 H74 H 0.64666 0.69968 0.05141
 H75 H 0.69051 0.72605 0.00570
 H76 H 0.70045 0.71806 -0.03221
 H77 H 0.67778 0.73800 -0.04805
 H78 H 0.62815 0.70768 -0.02819
 H79 H 0.65094 0.68812 -0.01201
 H80 H 0.73118 0.68429 -0.01152
 H81 H 0.74982 0.66284 -0.02934
 H82 H 0.69576 0.64647 -0.05518
 H83 H 0.67725 0.66755 -0.03704
 H84 H 0.66993 0.74572 0.02385
 C85 C 0.69985 0.30717 1.00912
 C86 C 0.69891 0.30659 0.99113
 C87 C 0.71033 0.31918 0.97986
 C88 C 0.68496 0.29452 0.98187
 C89 C 0.68809 0.29485 1.02043
 C90 C 0.71115 0.32134 1.01834
 C91 C 0.70042 0.32972 0.96736
 C92 C 0.71080 0.34195 0.95696
 C93 C 0.73135 0.34393 0.95885
 C94 C 0.74133 0.33313 0.97117
 C95 C 0.73093 0.32077 0.98148
 C96 C 0.66453 0.29736 0.98308
 C97 C 0.65143 0.28650 0.97364
 C98 C 0.65854 0.27245 0.96310
 C99 C 0.67901 0.26948 0.96215
 C100 C 0.69213 0.28061 0.97127
 C101 C 0.68896 0.27626 1.01811
 C102 C 0.67705 0.26495 1.02828
 C103 C 0.66430 0.27200 1.04121
 C104 C 0.66396 0.29058 1.04389
 C105 C 0.67570 0.30186 1.03360
 C106 C 0.72830 0.31707 1.02777
 C107 C 0.73878 0.33037 1.03678
 C108 C 0.73190 0.34815 1.03701
 C109 C 0.71451 0.35224 1.02756
 C110 C 0.70438 0.33900 1.01818
 H111 H 0.68455 0.32870 0.96584
 H112 H 0.70263 0.35003 0.94761
 H113 H 0.75717 0.33419 0.97284
 H114 H 0.73894 0.31246 0.99075
 H115 H 0.65880 0.30816 0.99111
 H116 H 0.63573 0.28905 0.97464
 H117 H 0.70788 0.27835 0.97015
 H118 H 0.69878 0.27051 1.00833
 H119 H 0.67782 0.25069 1.02602
 H120 H 0.65433 0.29648 1.05372
 H121 H 0.67478 0.31614 1.03569
 H122 H 0.73363 0.30345 1.02804
 H123 H 0.75202 0.32658 1.04388
 H124 H 0.70870 0.36569 1.02727
 H125 H 0.69106 0.34244 1.01102
 H126 H 0.68489 0.25883 0.95402
 C127 C 0.30917 0.68790 1.00655
 C128 C 0.30836 0.68830 0.98852
 C129 C 0.29751 0.67459 0.97831
 C130 C 0.31922 0.70182 0.97803
 C131 C 0.32196 0.70040 1.01677
 C132 C 0.29761 0.67463 1.01698
 C133 C 0.30388 0.65679 0.97830
 C134 C 0.29378 0.64396 0.96834
 C135 C 0.27698 0.64871 0.95848
 C136 C 0.27060 0.66656 0.95862
 C137 C 0.28096 0.67944 0.96828
 C138 C 0.33573 0.69661 0.96809
 C139 C 0.34698 0.70936 0.95912
 C140 C 0.34139 0.72738 0.95934
 C141 C 0.32437 0.73251 0.96865
 C142 C 0.31348 0.71981 0.97817
 C143 C 0.31413 0.70977 1.03124
 C144 C 0.32612 0.72106 1.04135
 C145 C 0.34621 0.72349 1.03703
 C146 C 0.35399 0.71396 1.02253
 C147 C 0.34212 0.70227 1.01281
 C148 C 0.27709 0.67293 1.01487
 C149 C 0.26643 0.66054 1.02493
 C150 C 0.27601 0.64976 1.03761
 C151 C 0.29659 0.65176 1.03981
 C152 C 0.30721 0.66402 1.02962
 H153 H 0.31675 0.65290 0.98589
 H154 H 0.29898 0.63030 0.96850
 H155 H 0.25779 0.67061 0.95104
 H156 H 0.27595 0.69317 0.96811
 H157 H 0.34029 0.68276 0.96782
 H158 H 0.36002 0.70517 0.95192
 H159 H 0.30068 0.72398 0.98571
 H160 H 0.29869 0.70832 1.03473
 H161 H 0.31950 0.72806 1.05241
 H162 H 0.36942 0.71511 1.01891
 H163 H 0.34880 0.69450 1.00234
 H164 H 0.26928 0.68131 1.00554
 H165 H 0.25064 0.65960 1.02285
 H166 H 0.30462 0.64382 1.04938
 H167 H 0.32302 0.66520 1.03155
 H168 H 0.31988 0.74637 0.96896
 C169 C -0.01215 0.32063 0.31762
 C170 C 0.00792 0.31926 0.31643
 C171 C 0.01906 0.30781 0.32890
 C172 C 0.01987 0.32981 0.30359
 C173 C -0.02354 0.33402 0.30723
 C174 C -0.02369 0.30889 0.32976
 C175 C 0.01960 0.31196 0.34701
 C176 C 0.03006 0.30113 0.35876
 C177 C 0.03986 0.28581 0.35262
 C178 C 0.03930 0.28170 0.33446
 C179 C 0.02922 0.29278 0.32265
 C180 C 0.03614 0.33971 0.30967
 C181 C 0.04699 0.35040 0.29807
 C182 C 0.04183 0.35148 0.28006
 C183 C 0.02588 0.34115 0.27385
 C184 C 0.01513 0.33028 0.28547
 C185 C -0.04067 0.32874 0.29817
 C186 C -0.05146 0.34106 0.28823
 C187 C -0.04516 0.35896 0.28687
 C188 C -0.02819 0.36428 0.29633
 C189 C -0.01777 0.35203 0.30667
 C190 C -0.02185 0.29024 0.32900
 C191 C -0.03235 0.27936 0.34073
 C192 C -0.04537 0.28685 0.35327
 C193 C -0.04763 0.30557 0.35355
 C194 C -0.03687 0.31642 0.34197
 H195 H 0.01194 0.32362 0.35198
 H196 H 0.03021 0.30457 0.37269
 H197 H 0.04686 0.27005 0.32938
 H198 H 0.02900 0.28949 0.30868
 H199 H 0.04016 0.33952 0.32356
 H200 H 0.05918 0.35813 0.30332
 H201 H 0.00291 0.32245 0.28039
 H202 H -0.04559 0.31498 0.29861
 H203 H -0.06446 0.33637 0.28127
 H204 H -0.02299 0.37796 0.29595
 H205 H -0.00506 0.35662 0.31412
 H206 H -0.01224 0.28409 0.31930
 H207 H -0.03031 0.26505 0.33984
 H208 H -0.05750 0.31195 0.36288
 H209 H -0.03866 0.33078 0.34267
 H210 H 0.02164 0.34153 0.26003
 C211 C -0.00782 0.67954 0.68155
 C212 C 0.01221 0.67796 0.68014
 C213 C 0.02381 0.68812 0.66676
 C214 C 0.02345 0.66561 0.69184
 C215 C -0.01920 0.66725 0.69303
 C216 C -0.01950 0.69254 0.67093
 C217 C 0.01818 0.68837 0.64884
 C218 C 0.02867 0.69870 0.63663
 C219 C 0.04540 0.70844 0.64196
 C220 C 0.05159 0.70746 0.65969
 C221 C 0.04084 0.69745 0.67199
 C222 C 0.03597 0.65271 0.68440
 C223 C 0.04647 0.64096 0.69527
 C224 C 0.04464 0.64186 0.71381
 C225 C 0.03233 0.65500 0.72122
 C226 C 0.02202 0.66686 0.71035
 C227 C -0.02829 0.67362 0.70843
 C228 C -0.03875 0.66196 0.71945
 C229 C -0.04089 0.64378 0.71491
 C230 C -0.03205 0.63763 0.69913
 C231 C -0.02113 0.64922 0.68844
 C232 C -0.01429 0.71069 0.67011
 C233 C -0.02482 0.72245 0.65924
 C234 C -0.04110 0.71639 0.64922
 C235 C -0.04671 0.69832 0.65072
 C236 C -0.03603 0.68659 0.66139
 H237 H 0.00551 0.68077 0.64436
 H238 H 0.02376 0.69899 0.62298
 H239 H 0.06445 0.71481 0.66416
 H240 H 0.04560 0.69727 0.68568
 H241 H 0.03742 0.65162 0.67016
 H242 H 0.05583 0.63103 0.68912
 H243 H 0.01294 0.67706 0.71640
 H244 H -0.02697 0.68756 0.71206
 H245 H -0.04538 0.66731 0.73137
 H246 H -0.03325 0.62379 0.69512
 H247 H -0.01427 0.64417 0.67648
 H248 H -0.00188 0.71570 0.67769
 H249 H -0.02010 0.73626 0.65869
 H250 H -0.05915 0.69302 0.64339
 H251 H -0.04044 0.67269 0.66186
 H252 H 0.03077 0.65622 0.73544
 C253 C 1.01085 0.68276 0.31865
 C254 C 0.99064 0.68254 0.31832
 C255 C 0.97875 0.69498 0.32937
 C256 C 0.97932 0.66958 0.30724
 C257 C 1.02272 0.67179 0.30612
 C258 C 1.02217 0.69363 0.33178
 C259 C 0.96380 0.68816 0.34034
 C260 C 0.95305 0.69951 0.35137
 C261 C 0.95703 0.71794 0.35168
 C262 C 0.97164 0.72483 0.34031
 C263 C 0.98226 0.71347 0.32913
 C264 C 0.98373 0.65125 0.30751
 C265 C 0.97323 0.63932 0.29682
 C266 C 0.95763 0.64537 0.28614
 C267 C 0.95272 0.66358 0.28638
 C268 C 0.96353 0.67557 0.29675
 C269 C 1.01923 0.67234 0.28779
 C270 C 1.02980 0.66126 0.27631
 C271 C 1.04446 0.64965 0.28287
 C272 C 1.04843 0.64976 0.30120
 C273 C 1.03766 0.66065 0.31265
 C274 C 1.03836 0.70392 0.32618
 C275 C 1.04921 0.71406 0.33832
 C276 C 1.04391 0.71443 0.35637
 C277 C 1.02781 0.70386 0.36196
 C278 C 1.01738 0.69331 0.34988
 H279 H 0.96075 0.67396 0.34066
 H280 H 0.94188 0.69375 0.35992
 H281 H 0.97492 0.73898 0.34008
 H282 H 0.99343 0.71906 0.32047
 H283 H 0.99536 0.64617 0.31595
 H284 H 0.97714 0.62530 0.29709
 H285 H 0.95970 0.68960 0.29647
 H286 H 1.00810 0.68117 0.28241
 H287 H 1.02640 0.66181 0.26231
 H288 H 1.05962 0.64117 0.30687
 H289 H 1.04072 0.66013 0.32673
 H290 H 1.04253 0.70421 0.31233
 H291 H 1.06150 0.72191 0.33340
 H292 H 1.02339 0.70347 0.37574
 H293 H 1.00548 0.68495 0.35470
 H294 H 0.94076 0.66861 0.27828
 C295 C 1.01154 0.31302 0.68471
 C296 C 0.99152 0.31503 0.68416
 C297 C 0.97925 0.30391 0.67210
 C298 C 0.98092 0.32842 0.69523
 C299 C 1.02423 0.32273 0.69758
 C300 C 1.02183 0.30171 0.67150
 C301 C 0.96655 0.31206 0.65988
 C302 C 0.95528 0.30169 0.64825
 C303 C 0.95655 0.28295 0.64863
 C304 C 0.96897 0.27482 0.66117
 C305 C 0.98005 0.28520 0.67290
 C306 C 0.98719 0.34631 0.69601
 C307 C 0.97730 0.35859 0.70676
 C308 C 0.96053 0.35337 0.71645
 C309 C 0.95385 0.33565 0.71515
 C310 C 0.96399 0.32329 0.70471
 C311 C 1.01993 0.32274 0.71579
 C312 C 1.03121 0.33304 0.72750
 C313 C 1.04725 0.34321 0.72126
 C314 C 1.05206 0.34248 0.70316
 C315 C 1.04067 0.33236 0.69146
 C316 C 1.03061 0.28563 0.67668
 C317 C 1.04007 0.27484 0.66418
 C318 C 1.04154 0.28026 0.64632
 C319 C 1.03297 0.29667 0.64136
 C320 C 1.02303 0.30716 0.65379
 H321 H 0.96559 0.32648 0.65917
 H322 H 0.94582 0.30836 0.63878
 H323 H 0.97010 0.26043 0.66199
 H324 H 0.98932 0.27864 0.68260
 H325 H 0.99979 0.35077 0.68835
 H326 H 0.98261 0.37223 0.70729
 H327 H 0.95873 0.30963 0.70418
 H328 H 1.00760 0.31506 0.72088
 H329 H 1.02726 0.33315 0.74139
 H330 H 1.06433 0.35010 0.69789
 H331 H 1.04437 0.33250 0.67751
 H332 H 1.02984 0.28131 0.69035
 H333 H 1.04650 0.26240 0.66863
 H334 H 1.03367 0.30138 0.62781
 H335 H 1.01639 0.31962 0.64965
 H336 H 0.94096 0.33125 0.72246
 C337 C 0.30444 -0.00974 0.30904
 C338 C 0.30537 0.00841 0.30837
 C339 C 0.31947 0.01762 0.29648
 C340 C 0.29367 0.01990 0.32054
 C341 C 0.29301 -0.01893 0.32307
 C342 C 0.31620 -0.02125 0.29692
 C343 C 0.33986 0.01630 0.29944
 C344 C 0.35312 0.02540 0.28850
 C345 C 0.34619 0.03570 0.27425
 C346 C 0.32575 0.03684 0.27122
 C347 C 0.31247 0.02807 0.28243
 C348 C 0.30328 0.03294 0.33076
 C349 C 0.29264 0.04354 0.34259
 C350 C 0.27211 0.04136 0.34448
 C351 C 0.26243 0.02851 0.33399
 C352 C 0.27309 0.01799 0.32204
 C353 C 0.27663 -0.02947 0.31859
 C354 C 0.26599 -0.03837 0.33179
 C355 C 0.27193 -0.03724 0.34960
 C356 C 0.28849 -0.02679 0.35399
 C357 C 0.29886 -0.01761 0.34083
 C358 C 0.31559 -0.01891 0.27847
 C359 C 0.32743 -0.02933 0.26735
 C360 C 0.33986 -0.04264 0.27442
 C361 C 0.33983 -0.04532 0.29290
 C362 C 0.32820 -0.03474 0.30397
 H363 H 0.34544 0.00837 0.31034
 H364 H 0.36880 0.02426 0.29109
 H365 H 0.32003 0.04480 0.26041
 H366 H 0.29675 0.02926 0.28007
 H367 H 0.31912 0.03471 0.32982
 H368 H 0.30059 0.05330 0.35043
 H369 H 0.26528 0.00831 0.31398
 H370 H 0.27203 -0.03069 0.30490
 H371 H 0.25337 -0.04644 0.32803
 H372 H 0.29337 -0.02565 0.36760
 H373 H 0.31161 -0.00963 0.34445
 H374 H 0.30601 -0.00895 0.27266
 H375 H 0.32676 -0.02692 0.25322
 H376 H 0.34904 -0.05542 0.29897
 H377 H 0.32886 -0.03689 0.31814
 H378 H 0.24661 0.02659 0.33498
 C379 C 0.69077 -0.00890 0.68722
 C380 C 0.68911 0.00924 0.68654
 C381 C 0.67544 0.01936 0.69825
 C382 C 0.70056 0.01996 0.67346
 C383 C 0.70262 -0.01863 0.67386
 C384 C 0.67990 -0.02011 0.70030
 C385 C 0.65544 0.01457 0.69988
 C386 C 0.64286 0.02436 0.71088
 C387 C 0.64988 0.03948 0.71993
 C388 C 0.66973 0.04455 0.71788
 C389 C 0.68240 0.03454 0.70722
 C390 C 0.69061 0.03165 0.66204
 C391 C 0.70108 0.04193 0.64978
 C392 C 0.72178 0.04073 0.64866
 C393 C 0.73175 0.02910 0.66024
 C394 C 0.72125 0.01894 0.67262
 C395 C 0.71957 -0.02798 0.67904
 C396 C 0.73064 -0.03739 0.66652
 C397 C 0.72458 -0.03797 0.64872
 C398 C 0.70745 -0.02873 0.64362
 C399 C 0.69664 -0.01902 0.65608
 C400 C 0.68030 -0.01637 0.71853
 C401 C 0.66918 -0.02666 0.73040
 C402 C 0.65775 -0.04121 0.72434
 C403 C 0.65809 -0.04526 0.70611
 C404 C 0.66895 -0.03483 0.69430
 H405 H 0.64954 0.00329 0.69262
 H406 H 0.62754 0.02031 0.71203
 H407 H 0.67555 0.05614 0.72471
 H408 H 0.69770 0.03861 0.70601
 H409 H 0.67466 0.03273 0.66255
 H410 H 0.69292 0.05073 0.64109
 H411 H 0.72927 0.01034 0.68160
 H412 H 0.72428 -0.02787 0.69275
 H413 H 0.74369 -0.04450 0.67083
 H414 H 0.70248 -0.02891 0.62999
 H415 H 0.68346 -0.01198 0.65194
 H416 H 0.68903 -0.00534 0.72355
 H417 H 0.66955 -0.02316 0.74432
 H418 H 0.64966 -0.05633 0.70078
 H419 H 0.66846 -0.03808 0.68033
 H420 H 0.74769 0.02798 0.65986
 C421 C 0.30112 1.01276 0.69089
 C422 C 0.30221 0.99463 0.69148
 C423 C 0.31621 0.98557 0.70355
 C424 C 0.29089 0.98306 0.67906
 C425 C 0.28997 1.02195 0.67672
 C426 C 0.31256 1.02429 0.70326
 C427 C 0.33662 0.98708 0.70076
 C428 C 0.34982 0.97824 0.71192
 C429 C 0.34281 0.96802 0.72622
 C430 C 0.32234 0.96669 0.72906
 C431 C 0.30912 0.97520 0.71763
 C432 C 0.30084 0.97015 0.66901
 C433 C 0.29057 0.95945 0.65697
 C434 C 0.27007 0.96141 0.65472
 C435 C 0.26004 0.97415 0.66504
 C436 C 0.27034 0.98477 0.67719
 C437 C 0.27342 1.03230 0.68097
 C438 C 0.26311 1.04130 0.66767
 C439 C 0.26956 1.04047 0.64999
 C440 C 0.28628 1.03021 0.64582
 C441 C 0.29632 1.02091 0.65907
 C442 C 0.31131 1.02200 0.72169
 C443 C 0.32294 1.03237 0.73307
 C444 C 0.33575 1.04547 0.72624
 C445 C 0.33643 1.04814 0.70781
 C446 C 0.32499 1.03765 0.69647
 H447 H 0.34227 0.99496 0.68985
 H448 H 0.36552 0.97951 0.70947
 H449 H 0.31656 0.95878 0.73990
 H450 H 0.29338 0.97387 0.71986
 H451 H 0.31668 0.96853 0.67024
 H452 H 0.29878 0.94978 0.64928
 H453 H 0.26227 0.99435 0.68510
 H454 H 0.26846 1.03331 0.69457
 H455 H 0.25036 1.04922 0.67126
 H456 H 0.29153 1.02930 0.63230
 H457 H 0.30921 1.01309 0.65564
 H458 H 0.30143 1.01210 0.72727
 H459 H 0.32188 1.03011 0.74720
 H460 H 0.34611 1.05811 0.70208
 H461 H 0.32617 1.03973 0.68231
 H462 H 0.24423 0.97590 0.66376
 C463 C 0.69465 1.00734 0.31246
 C464 C 0.69298 0.98922 0.31333
 C465 C 0.67928 0.97898 0.30171
 C466 C 0.70443 0.97870 0.32653
 C467 C 0.70600 1.01730 0.32604
 C468 C 0.68408 1.01834 0.29905
 C469 C 0.65934 0.98388 0.29994
 C470 C 0.64673 0.97416 0.28889
 C471 C 0.65363 0.95896 0.27991
 C472 C 0.67338 0.95372 0.28216
 C473 C 0.68609 0.96368 0.29289
 C474 C 0.69455 0.96706 0.33809
 C475 C 0.70509 0.95703 0.35049
 C476 C 0.72578 0.95845 0.35159
 C477 C 0.73567 0.97002 0.33988
 C478 C 0.72511 0.97992 0.32737
 C479 C 0.72341 1.02625 0.32138
 C480 C 0.73383 1.03608 0.33405
 C481 C 0.72664 1.03764 0.35153
 C482 C 0.70901 1.02863 0.35602
 C483 C 0.69893 1.01844 0.34343
 C484 C 0.68493 1.01435 0.28087
 C485 C 0.67414 1.02449 0.26865
 C486 C 0.66266 1.03903 0.27437
 C487 C 0.66239 1.04329 0.29249
 C488 C 0.67293 1.03306 0.30466
 H489 H 0.65353 0.99524 0.30710
 H490 H 0.63150 0.97834 0.28760
 H491 H 0.67909 0.94207 0.27541
 H492 H 0.70133 0.95952 0.29422
 H493 H 0.67861 0.96584 0.33759
 H494 H 0.69699 0.94827 0.35929
 H495 H 0.73309 0.98848 0.31828
 H496 H 0.72896 1.02553 0.30794
 H497 H 0.74727 1.04279 0.32998
 H498 H 0.70296 1.02936 0.36928
 H499 H 0.68538 1.01168 0.34715
 H500 H 0.69378 1.00329 0.27616
 H501 H 0.67480 1.02096 0.25476
 H502 H 0.65371 1.05437 0.29739
 H503 H 0.67202 1.03647 0.31858
 H504 H 0.75160 0.97131 0.34024
 O505 O 0.84486 0.86366 0.51949
 O506 O 0.86991 0.83737 0.48488
 O507 O 0.84474 0.86364 0.48491
 O508 O 0.87000 0.83739 0.51951
 O509 O 0.84515 0.81822 0.51962
 O510 O 0.82015 0.84419 0.48489
 O511 O 0.84527 0.81797 0.48516
 O512 O 0.81993 0.84457 0.51914
 Cu513 Cu 0.85988 0.85245 0.50220
 Cu514 Cu 0.83018 0.82927 0.50224
 C515 C 0.82803 0.85866 0.52505
 C516 C 0.86182 0.82319 0.47914
 C517 C 0.82813 0.85837 0.47904
 C518 C 0.86182 0.82333 0.52546
 O519 O 0.13108 0.16282 0.47990
 O520 O 0.15601 0.13604 0.51414
 O521 O 0.13119 0.16237 0.51454
 O522 O 0.15593 0.13633 0.47953
 O523 O 0.18066 0.15564 0.47954
 O524 O 0.15599 0.18159 0.51453
 O525 O 0.18106 0.15500 0.51397
 O526 O 0.15577 0.18215 0.48035
 Cu527 Cu 0.14105 0.14746 0.49700
 Cu528 Cu 0.17090 0.17048 0.49713
 C529 C 0.13913 0.17712 0.47442
 C530 C 0.17281 0.14095 0.51983
 C531 C 0.13936 0.17645 0.52042
 C532 C 0.17251 0.14158 0.47358
 O533 O 0.13409 0.83621 0.51783
 O534 O 0.15776 0.86422 0.48377
 O535 O 0.13393 0.83676 0.48376
 O536 O 0.15776 0.86378 0.51851
 O537 O 0.18334 0.84552 0.51840
 O538 O 0.16002 0.81911 0.48287
 O539 O 0.18384 0.84653 0.48408
 O540 O 0.15980 0.81807 0.51745
 Cu541 Cu 0.14336 0.85215 0.50100
 Cu542 Cu 0.17434 0.83049 0.50064
 C543 C 0.14283 0.82226 0.52327
 C544 C 0.17489 0.86018 0.47822
 C545 C 0.14286 0.82329 0.47749
 C546 C 0.17454 0.85917 0.52446
 O547 O 0.86406 0.16567 0.51680
 O548 O 0.83964 0.13941 0.48188
 O549 O 0.86416 0.16611 0.48225
 O550 O 0.83933 0.13900 0.51647
 O551 O 0.81446 0.15806 0.51675
 O552 O 0.83903 0.18488 0.48231
 O553 O 0.81429 0.15795 0.48242
 O554 O 0.83921 0.18475 0.51671
 Cu555 Cu 0.85431 0.15065 0.49935
 Cu556 Cu 0.82424 0.17331 0.49954
 C557 C 0.85585 0.17972 0.52262
 C558 C 0.82275 0.14413 0.47632
 C559 C 0.85581 0.18012 0.47648
 C560 C 0.82265 0.14394 0.52243
 O561 O 0.47993 0.87473 0.84591
 O562 O 0.51746 0.84831 0.86973
 O563 O 0.51849 0.87281 0.84534
 O564 O 0.47921 0.85020 0.87070
 O565 O 0.47597 0.83030 0.84928
 O566 O 0.51740 0.85128 0.82535
 O567 O 0.51421 0.82680 0.84990
 O568 O 0.47942 0.85443 0.82468
 Cu569 Cu 0.49891 0.86365 0.85998
 Cu570 Cu 0.49658 0.83858 0.83526
 C571 C 0.47364 0.86920 0.83102
 C572 C 0.52191 0.83289 0.86400
 C573 C 0.52475 0.86579 0.83109
 C574 C 0.47085 0.83646 0.86426
 O575 O 0.52223 0.15271 0.12961
 O576 O 0.48458 0.12746 0.15464
 O577 O 0.48361 0.15222 0.13037
 O578 O 0.52316 0.12785 0.15385
 O579 O 0.52368 0.14887 0.17439
 O580 O 0.48368 0.17262 0.15151
 O581 O 0.48556 0.14786 0.17577
 O582 O 0.52205 0.17357 0.15032
 Cu583 Cu 0.50336 0.13798 0.14000
 Cu584 Cu 0.50373 0.16283 0.16505
 C585 C 0.52848 0.16749 0.13573
 C586 C 0.47889 0.13329 0.16959
 C587 C 0.47690 0.16656 0.13702
 C588 C 0.53012 0.13426 0.16813
 O589 O 0.51677 0.13195 0.84288
 O590 O 0.48121 0.15706 0.86997
 O591 O 0.47849 0.13317 0.84477
 O592 O 0.51948 0.15594 0.86794
 O593 O 0.51773 0.17810 0.84868
 O594 O 0.47914 0.15403 0.82409
 O595 O 0.47943 0.17772 0.84914
 O596 O 0.51757 0.15406 0.82353
 Cu597 Cu 0.49905 0.14236 0.85841
 Cu598 Cu 0.49848 0.16812 0.83432
 C599 C 0.52330 0.13878 0.82865
 C600 C 0.47414 0.17158 0.86408
 C601 C 0.47208 0.13962 0.83031
 C602 C 0.52520 0.17114 0.86247
 O603 O 0.48112 0.84286 0.13159
 O604 O 0.51774 0.86783 0.15782
 O605 O 0.51943 0.84356 0.13290
 O606 O 0.47938 0.86705 0.15653
 O607 O 0.47994 0.84634 0.17736
 O608 O 0.51809 0.82185 0.15268
 O609 O 0.51832 0.84601 0.17751
 O610 O 0.47961 0.82229 0.15253
 Cu611 Cu 0.49947 0.85747 0.14267
 Cu612 Cu 0.49897 0.83198 0.16705
 C613 C 0.47402 0.82841 0.13768
 C614 C 0.52432 0.86112 0.17209
 C615 C 0.52532 0.82854 0.13864
 C616 C 0.47307 0.86079 0.17113
 O617 O 0.86677 0.51810 0.83709
 O618 O 0.84382 0.48233 0.86363
 O619 O 0.86867 0.48342 0.83708
 O620 O 0.84212 0.51721 0.86340
 O621 O 0.81755 0.51649 0.84415
 O622 O 0.84318 0.48141 0.81891
 O623 O 0.81850 0.48176 0.84519
 O624 O 0.84246 0.51599 0.81766
 Cu625 Cu 0.85783 0.50035 0.85223
 Cu626 Cu 0.82789 0.49883 0.82961
 C627 C 0.85865 0.52290 0.82271
 C628 C 0.82717 0.47606 0.85896
 C629 C 0.86041 0.47663 0.82355
 C630 C 0.82541 0.52275 0.85812
 O631 O 0.15614 0.48452 0.13503
 O632 O 0.13152 0.51953 0.16134
 O633 O 0.15639 0.51939 0.13495
 O634 O 0.13111 0.48463 0.16118
 O635 O 0.15613 0.48431 0.17996
 O636 O 0.18111 0.51937 0.15406
 O637 O 0.15625 0.51904 0.18042
 O638 O 0.18122 0.48484 0.15376
 Cu639 Cu 0.14127 0.50205 0.14622
 Cu640 Cu 0.17114 0.50188 0.16898
 C641 C 0.17296 0.47885 0.13988
 C642 C 0.13970 0.52517 0.17541
 C643 C 0.17308 0.52524 0.14003
 C644 C 0.13938 0.47851 0.17499
 O645 O 0.84268 0.51895 0.13462
 O646 O 0.86661 0.48485 0.16242
 O647 O 0.84311 0.48391 0.13506
 O648 O 0.86637 0.51919 0.16192
 O649 O 0.84049 0.51932 0.17975
 O650 O 0.81696 0.48434 0.15257
 O651 O 0.84046 0.48439 0.17994
 O652 O 0.81680 0.51878 0.15246
 Cu653 Cu 0.85724 0.50174 0.14663
 Cu654 Cu 0.82611 0.50172 0.16801
 C655 C 0.82562 0.52461 0.13880
 C656 C 0.85764 0.47891 0.17596
 C657 C 0.82605 0.47819 0.13920
 C658 C 0.85751 0.52509 0.17553
 O659 O 0.13562 0.47845 0.83773
 O660 O 0.16017 0.51458 0.86255
 O661 O 0.13537 0.51329 0.83623
 O662 O 0.16043 0.47977 0.86403
 O663 O 0.18531 0.47912 0.84510
 O664 O 0.16034 0.51268 0.81740
 O665 O 0.18529 0.51366 0.84388
 O666 O 0.16053 0.47796 0.81882
 Cu667 Cu 0.14537 0.49660 0.85202
 Cu668 Cu 0.17534 0.49583 0.82938
 C669 C 0.14394 0.47205 0.82406
 C670 C 0.17700 0.52013 0.85752
 C671 C 0.14359 0.51866 0.82207
 C672 C 0.17714 0.47376 0.85928
 C673 C 0.24330 0.38849 0.06995
 N674 N 0.26289 0.39049 0.06671
 N675 N 0.27276 0.37818 0.05758
 C676 C 0.26345 0.36332 0.05150
 N677 N 0.24384 0.36131 0.05480
 N678 N 0.23392 0.37371 0.06379
 C679 C 0.23256 0.40202 0.08016
 N680 N 0.21250 0.40226 0.08037
 N681 N 0.20283 0.41457 0.08970
 C682 C 0.21289 0.42694 0.09929
 N683 N 0.23293 0.42665 0.09911
 N684 N 0.24259 0.41446 0.08965
 C685 C 0.20237 0.44037 0.10980
 N686 N 0.21212 0.44994 0.12232
 N687 N 0.20268 0.46212 0.13195
 C688 C 0.18317 0.46529 0.12931
 N689 N 0.17340 0.45578 0.11673
 N690 N 0.18282 0.44347 0.10720
 C691 C 0.75655 0.61181 0.06409
 N692 N 0.73728 0.60913 0.05987
 N693 N 0.72747 0.62111 0.05028
 C694 C 0.73649 0.63631 0.04470
 N695 N 0.75577 0.63899 0.04896
 N696 N 0.76565 0.62692 0.05840
 C697 C 0.76717 0.59873 0.07495
 N698 N 0.78719 0.59912 0.07613
 N699 N 0.79673 0.58729 0.08615
 C700 C 0.78657 0.57478 0.09547
 N701 N 0.76657 0.57444 0.09432
 N702 N 0.75705 0.58614 0.08418
 C703 C 0.79691 0.56189 0.10676
 N704 N 0.78677 0.55242 0.11911
 N705 N 0.79602 0.54068 0.12940
 C706 C 0.81571 0.53785 0.12762
 N707 N 0.82587 0.54726 0.11523
 N708 N 0.81665 0.55915 0.10504
 C709 C 0.76155 0.38236 0.92868
 N710 N 0.74239 0.37834 0.92520
 N711 N 0.73289 0.36608 0.93473
 C712 C 0.74216 0.35731 0.94809
 N713 N 0.76139 0.36130 0.95150
 N714 N 0.77090 0.37361 0.94200
 C715 C 0.77178 0.39611 0.91827
 N716 N 0.79050 0.40121 0.92234
 N717 N 0.79956 0.41389 0.91295
 C718 C 0.79021 0.42189 0.89916
 N719 N 0.77153 0.41674 0.89509
 N720 N 0.76247 0.40411 0.90449
 C721 C 0.79999 0.43593 0.88879
 N722 N 0.79078 0.44314 0.87453
 N723 N 0.79949 0.45591 0.86506
 C724 C 0.81771 0.46200 0.86953
 N725 N 0.82695 0.45482 0.88381
 N726 N 0.81824 0.44199 0.89327
 C727 C 0.24668 0.61048 0.92833
 N728 N 0.23720 0.62519 0.93444
 N729 N 0.24684 0.63736 0.94400
 C730 C 0.26627 0.63518 0.94796
 N731 N 0.27569 0.62038 0.94193
 N732 N 0.26610 0.60830 0.93222
 C733 C 0.23615 0.59717 0.91761
 N734 N 0.24631 0.58478 0.90820
 N735 N 0.23678 0.57275 0.89839
 C736 C 0.21674 0.57257 0.89777
 N737 N 0.20657 0.58492 0.90725
 N738 N 0.21611 0.59706 0.91693
 C739 C 0.20629 0.55917 0.88712
 N740 N 0.18669 0.55615 0.88954
 N741 N 0.17731 0.54373 0.88008
 C742 C 0.18716 0.53403 0.86773
 N743 N 0.20673 0.53715 0.86523
 N744 N 0.21614 0.54944 0.87481
 C745 C 0.07010 0.25284 0.38826
 N746 N 0.06233 0.24599 0.37313
 N747 N 0.05284 0.25649 0.36173
 C748 C 0.05058 0.27419 0.36512
 N749 N 0.05829 0.28099 0.38030
 N750 N 0.06797 0.27053 0.39161
 C751 C 0.08061 0.24134 0.40082
 N752 N 0.09240 0.24861 0.41346
 N753 N 0.10193 0.23822 0.42493
 C754 C 0.09984 0.22021 0.42430
 N755 N 0.08798 0.21293 0.41171
 N756 N 0.07861 0.22331 0.40011
 C757 C 0.11017 0.20886 0.43712
 N758 N 0.10453 0.19165 0.43971
 N759 N 0.11373 0.18149 0.45161
 C760 C 0.12904 0.18815 0.46120
 N761 N 0.13476 0.20531 0.45851
 N762 N 0.12543 0.21551 0.44675
 C763 C 0.07528 0.74177 0.60628
 N764 N 0.08484 0.73479 0.62048
 N765 N 0.07537 0.72413 0.63178
 C766 C 0.05606 0.71989 0.62921
 N767 N 0.04657 0.72677 0.61491
 N768 N 0.05598 0.73757 0.60370
 C769 C 0.08553 0.75386 0.59406
 N770 N 0.07511 0.76405 0.58251
 N771 N 0.08436 0.77520 0.57153
 C772 C 0.10436 0.77644 0.57160
 N773 N 0.11480 0.76618 0.58308
 N774 N 0.10553 0.75516 0.59418
 C775 C 0.11450 0.78858 0.55935
 N776 N 0.13418 0.78698 0.55629
 N777 N 0.14326 0.79777 0.54485
 C778 C 0.13302 0.81067 0.53621
 N779 N 0.11337 0.81236 0.53937
 N780 N 0.10426 0.80146 0.55068
 C781 C 0.92734 0.75094 0.38784
 N782 N 0.94317 0.75718 0.37869
 N783 N 0.95245 0.74680 0.36703
 C784 C 0.94630 0.72976 0.36411
 N785 N 0.93039 0.72360 0.37324
 N786 N 0.92108 0.73399 0.38485
 C787 C 0.91736 0.76212 0.40105
 N788 N 0.90094 0.75606 0.40944
 N789 N 0.89205 0.76598 0.42171
 C790 C 0.89930 0.78230 0.42608
 N791 N 0.91572 0.78839 0.41768
 N792 N 0.92458 0.77848 0.40536
 C793 C 0.88958 0.79305 0.43980
 N794 N 0.89750 0.80880 0.44523
 N795 N 0.88870 0.81842 0.45780
 C796 C 0.87164 0.81264 0.46536
 N797 N 0.86372 0.79691 0.45990
 N798 N 0.87255 0.78728 0.44738
 C799 C 0.92491 0.25173 0.61216
 N800 N 0.92059 0.26929 0.61431
 N801 N 0.93057 0.27919 0.62594
 C802 C 0.94520 0.27192 0.63591
 N803 N 0.94942 0.25432 0.63376
 N804 N 0.93950 0.24443 0.62210
 C805 C 0.91420 0.24086 0.59913
 N806 N 0.92005 0.22391 0.59559
 N807 N 0.91055 0.21410 0.58358
 C808 C 0.89480 0.22085 0.57472
 N809 N 0.88889 0.23778 0.57831
 N810 N 0.89845 0.24763 0.59028
 C811 C 0.88451 0.21009 0.56134
 N812 N 0.86768 0.21613 0.55363
 N813 N 0.85847 0.20640 0.54136
 C814 C 0.86581 0.19033 0.53631
 N815 N 0.88263 0.18430 0.54402
 N816 N 0.89179 0.19398 0.55634
 C817 C 0.38588 0.06389 0.24207
 N818 N 0.36832 0.05817 0.23547
 N819 N 0.35568 0.04921 0.24570
 C820 C 0.36022 0.04548 0.26283
 N821 N 0.37786 0.05110 0.26935
 N822 N 0.39040 0.06022 0.25919
 C823 C 0.39966 0.07411 0.23100
 N824 N 0.41436 0.08380 0.23859
 N825 N 0.42677 0.09328 0.22863
 C826 C 0.42509 0.09327 0.21072
 N827 N 0.41047 0.08348 0.20311
 N828 N 0.39790 0.07415 0.21308
 C829 C 0.43884 0.10374 0.19987
 N830 N 0.44089 0.10043 0.18228
 N831 N 0.45366 0.10983 0.17257
 C832 C 0.46463 0.12301 0.18008
 N833 N 0.46246 0.12639 0.19763
 N834 N 0.44987 0.11687 0.20736
 C835 C 0.61244 0.06936 0.75269
 N836 N 0.60870 0.05183 0.74954
 N837 N 0.62050 0.04236 0.73902
 C838 C 0.63660 0.05001 0.73140
 N839 N 0.64035 0.06754 0.73462
 N840 N 0.62845 0.07706 0.74500
 C841 C 0.59944 0.07981 0.76425
 N842 N 0.60046 0.09792 0.76437
 N843 N 0.58858 0.10742 0.77481
 C844 C 0.57542 0.09915 0.78562
 N845 N 0.57448 0.08104 0.78557
 N846 N 0.58622 0.07154 0.77501
 C847 C 0.56226 0.10958 0.79706
 N848 N 0.55216 0.10155 0.81040
 N849 N 0.53998 0.11094 0.82063
 C850 C 0.53734 0.12867 0.81781
 N851 N 0.54742 0.13671 0.80445
 N852 N 0.55975 0.12735 0.79432
 C853 C 0.38235 0.94040 0.75889
 N854 N 0.38699 0.94397 0.74177
 N855 N 0.37450 0.95293 0.73147
 C856 C 0.35679 0.95849 0.73784
 N857 N 0.35213 0.95487 0.75498
 N858 N 0.36473 0.94607 0.76534
 C859 C 0.39602 0.93020 0.77003
 N860 N 0.39420 0.93015 0.78794
 N861 N 0.40661 0.92071 0.79794
 C862 C 0.42112 0.91083 0.79034
 N863 N 0.42287 0.91084 0.77243
 N864 N 0.41062 0.92043 0.76247
 C865 C 0.43459 0.90005 0.80113
 N866 N 0.44511 0.88669 0.79353
 N867 N 0.45739 0.87681 0.80316
 C868 C 0.45978 0.88003 0.82071
 N869 N 0.44934 0.89345 0.82834
 N870 N 0.43685 0.90323 0.81873
 C871 C 0.61593 0.92957 0.24684
 N872 N 0.61248 0.94712 0.25002
 N873 N 0.62439 0.95644 0.26062
 C874 C 0.64030 0.94860 0.26830
 N875 N 0.64378 0.93104 0.26503
 N876 N 0.63176 0.92168 0.25457
 C877 C 0.60272 0.91927 0.23528
 N878 N 0.60332 0.90115 0.23521
 N879 N 0.59117 0.89180 0.22487
 C880 C 0.57812 0.90023 0.21410
 N881 N 0.57761 0.91835 0.21409
 N882 N 0.58963 0.92770 0.22455
 C883 C 0.56456 0.88995 0.20286
 N884 N 0.55445 0.89804 0.18958
 N885 N 0.54186 0.88878 0.17959
 C886 C 0.53880 0.87112 0.18262
 N887 N 0.54889 0.86303 0.19591
 N888 N 0.56162 0.87225 0.20579
 C889 C 0.38373 0.24340 0.93635
 N890 N 0.36521 0.24720 0.93069
 N891 N 0.35337 0.25753 0.94031
 C892 C 0.35961 0.26474 0.95590
 N893 N 0.37827 0.26091 0.96145
 N894 N 0.39003 0.25038 0.95194
 C895 C 0.39678 0.23214 0.92565
 N896 N 0.41260 0.22394 0.93309
 N897 N 0.42450 0.21378 0.92331
 C898 C 0.42114 0.21166 0.90571
 N899 N 0.40538 0.21993 0.89826
 N900 N 0.39333 0.22989 0.90808
 C901 C 0.43454 0.20090 0.89485
 N902 N 0.43541 0.20334 0.87705
 N903 N 0.44799 0.19393 0.86722
 C904 C 0.45993 0.18158 0.87481
 N905 N 0.45893 0.17901 0.89258
 N906 N 0.44653 0.18859 0.90245
 C907 C 0.61270 0.75735 0.93220
 N908 N 0.60763 0.74023 0.93600
 N909 N 0.61980 0.72981 0.94521
 C910 C 0.63759 0.73606 0.95080
 N911 N 0.64267 0.75318 0.94694
 N912 N 0.63041 0.76366 0.93789
 C913 C 0.59932 0.76876 0.92197
 N914 N 0.60183 0.78675 0.92169
 N915 N 0.58962 0.79708 0.91241
 C916 C 0.57461 0.78977 0.90293
 N917 N 0.57217 0.77178 0.90315
 N918 N 0.58424 0.76147 0.91257
 C919 C 0.56116 0.80108 0.89265
 N920 N 0.54937 0.79381 0.88002
 N921 N 0.53704 0.80401 0.87075
 C922 C 0.53591 0.82182 0.87391
 N923 N 0.54765 0.82910 0.88658
 N924 N 0.56015 0.81892 0.89573
 C925 C 0.38197 0.75675 0.06660
 N926 N 0.38852 0.74968 0.05114
 N927 N 0.37698 0.73892 0.04164
 C928 C 0.35832 0.73495 0.04707
 N929 N 0.35177 0.74222 0.06250
 N930 N 0.36340 0.75280 0.07214
 C931 C 0.39492 0.76823 0.07723
 N932 N 0.39168 0.77041 0.09484
 N933 N 0.40385 0.78040 0.10457
 C934 C 0.41954 0.78875 0.09698
 N935 N 0.42265 0.78670 0.07934
 N936 N 0.41063 0.77653 0.06966
 C937 C 0.43320 0.79946 0.10768
 N938 N 0.44513 0.81175 0.09989
 N939 N 0.45791 0.82119 0.10952
 C940 C 0.45940 0.81850 0.12725
 N941 N 0.44751 0.80618 0.13504
 N942 N 0.43454 0.79690 0.12544
 C943 C 0.62599 0.23905 0.07031
 N944 N 0.62881 0.25635 0.07500
 N945 N 0.64111 0.26672 0.06584
 C946 C 0.65114 0.26021 0.05167
 N947 N 0.64839 0.24283 0.04707
 N948 N 0.63603 0.23245 0.05620
 C949 C 0.61197 0.22788 0.08020
 N950 N 0.60755 0.21106 0.07474
 N951 N 0.59445 0.20118 0.08358
 C952 C 0.58534 0.20776 0.09822
 N953 N 0.58983 0.22454 0.10370
 N954 N 0.60287 0.23443 0.09484
 C955 C 0.57071 0.19709 0.10793
 N956 N 0.56255 0.20354 0.12305
 N957 N 0.54914 0.19405 0.13189
 C958 C 0.54331 0.17779 0.12590
 N959 N 0.55145 0.17131 0.11077
 N960 N 0.56493 0.18080 0.10194
 C961 C 0.24025 0.06958 0.61058
 N962 N 0.23043 0.06402 0.62526
 N963 N 0.23974 0.05476 0.63779
 C964 C 0.25915 0.05055 0.63602
 N965 N 0.26890 0.05602 0.62126
 N966 N 0.25965 0.06543 0.60881
 C967 C 0.23013 0.08007 0.59694
 N968 N 0.24066 0.08924 0.58462
 N969 N 0.23151 0.09896 0.57235
 C970 C 0.21149 0.09972 0.57185
 N971 N 0.20094 0.09047 0.58410
 N972 N 0.21010 0.08089 0.59648
 C973 C 0.20142 0.11041 0.55832
 N974 N 0.18187 0.10806 0.55507
 N975 N 0.17276 0.11774 0.54273
 C976 C 0.18284 0.13024 0.53334
 N977 N 0.20238 0.13265 0.53665
 N978 N 0.21152 0.12285 0.54886
 C979 C 0.75558 0.06901 0.38825
 N980 N 0.73764 0.06186 0.39199
 N981 N 0.72842 0.05156 0.38021
 C982 C 0.73663 0.04816 0.36412
 N983 N 0.75461 0.05542 0.36043
 N984 N 0.76395 0.06555 0.37229
 C985 C 0.76567 0.08043 0.40120
 N986 N 0.78540 0.08346 0.39999
 N987 N 0.79455 0.09376 0.41182
 C988 C 0.78424 0.10157 0.42515
 N989 N 0.76449 0.09863 0.42630
 N990 N 0.75539 0.08816 0.41459
 C991 C 0.79430 0.11287 0.43822
 N992 N 0.78388 0.12449 0.44836
 N993 N 0.79299 0.13463 0.46035
 C994 C 0.81281 0.13337 0.46277
 N995 N 0.82322 0.12170 0.45267
 N996 N 0.81414 0.11171 0.44053
 C997 C 0.75630 0.93178 0.61171
 N998 N 0.76541 0.93845 0.62630
 N999 N 0.75534 0.94808 0.63807
 C1000 C 0.73584 0.95154 0.63560
 N1001 N 0.72680 0.94495 0.62092
 N1002 N 0.73681 0.93519 0.60925
 C1003 C 0.76722 0.92088 0.59889
 N1004 N 0.75738 0.91088 0.58677
 N1005 N 0.76722 0.90083 0.57521
 C1006 C 0.78726 0.90056 0.57524
 N1007 N 0.79713 0.91064 0.58731
 N1008 N 0.78727 0.92055 0.59899
 C1009 C 0.79801 0.88955 0.56240
 N1010 N 0.81760 0.89216 0.55947
 N1011 N 0.82722 0.88231 0.54758
 C1012 C 0.81762 0.86939 0.53833
 N1013 N 0.79808 0.86670 0.54136
 N1014 N 0.78843 0.87666 0.55312
 C1015 C 0.24188 0.93381 0.38877
 N1016 N 0.26113 0.93839 0.39095
 N1017 N 0.27059 0.94777 0.37859
 C1018 C 0.26122 0.95277 0.36348
 N1019 N 0.24196 0.94813 0.36129
 N1020 N 0.23244 0.93890 0.37374
 C1021 C 0.23163 0.92321 0.40229
 N1022 N 0.21163 0.92176 0.40227
 N1023 N 0.20242 0.91198 0.41450
 C1024 C 0.21291 0.90317 0.42708
 N1025 N 0.23290 0.90459 0.42707
 N1026 N 0.24209 0.91450 0.41495
 C1027 C 0.20291 0.89209 0.44038
 N1028 N 0.21332 0.88005 0.45001
 N1029 N 0.20433 0.86984 0.46199
 C1030 C 0.18463 0.87141 0.46492
 N1031 N 0.17421 0.88352 0.45536
 N1032 N 0.18318 0.89362 0.44323
 C1033 C 0.07826 0.37826 0.75460
 N1034 N 0.06141 0.37024 0.76027
 N1035 N 0.05174 0.35883 0.74984
 C1036 C 0.05853 0.35505 0.73331
 N1037 N 0.07547 0.36301 0.72775
 N1038 N 0.08516 0.37436 0.73818
 C1039 C 0.08852 0.39146 0.76566
 N1040 N 0.10561 0.39903 0.75997
 N1041 N 0.11463 0.41150 0.76962
 C1042 C 0.10685 0.41691 0.78529
 N1043 N 0.08979 0.40929 0.79103
 N1044 N 0.08079 0.39678 0.78139
 C1045 C 0.11657 0.43103 0.79559
 N1046 N 0.10826 0.43740 0.81069
 N1047 N 0.11697 0.45047 0.81979
 C1048 C 0.13431 0.45762 0.81413
 N1049 N 0.14263 0.45122 0.79907
 N1050 N 0.13391 0.43818 0.78995
 C1051 C 0.07386 0.61479 0.24977
 N1052 N 0.07868 0.61594 0.26717
 N1053 N 0.06926 0.62727 0.27779
 C1054 C 0.05469 0.63800 0.27148
 N1055 N 0.05002 0.63689 0.25398
 N1056 N 0.05937 0.62548 0.24335
 C1057 C 0.08396 0.60193 0.23825
 N1058 N 0.07759 0.59895 0.22144
 N1059 N 0.08654 0.58694 0.21120
 C1060 C 0.10223 0.57753 0.21738
 N1061 N 0.10864 0.58059 0.23414
 N1062 N 0.09964 0.59252 0.24440
 C1063 C 0.11202 0.56411 0.20627
 N1064 N 0.12876 0.55601 0.21198
 N1065 N 0.13760 0.54367 0.20208
 C1066 C 0.12997 0.53891 0.18614
 N1067 N 0.11321 0.54699 0.18041
 N1068 N 0.10441 0.55941 0.19029
 C1069 C 0.92509 0.39452 0.25483
 N1070 N 0.91745 0.37810 0.25815
 N1071 N 0.92704 0.36663 0.26851
 C1072 C 0.94454 0.37118 0.27615
 N1073 N 0.95201 0.38773 0.27292
 N1074 N 0.94255 0.39913 0.26239
 C1075 C 0.91483 0.40698 0.24304
 N1076 N 0.92479 0.42068 0.23535
 N1077 N 0.91558 0.43186 0.22442
 C1078 C 0.89603 0.42988 0.22095
 N1079 N 0.88602 0.41625 0.22874
 N1080 N 0.89529 0.40493 0.23950
 C1081 C 0.88593 0.44232 0.20902
 N1082 N 0.86598 0.44410 0.20951
 N1083 N 0.85691 0.45572 0.19893
 C1084 C 0.86745 0.46579 0.18732
 N1085 N 0.88737 0.46388 0.18673
 N1086 N 0.89646 0.45243 0.19746
 C1087 C 0.92780 0.60925 0.74698
 N1088 N 0.93404 0.60399 0.73073
 N1089 N 0.94423 0.61512 0.72043
 C1090 C 0.94839 0.63203 0.72585
 N1091 N 0.94196 0.63727 0.74211
 N1092 N 0.93198 0.62606 0.75251
 C1093 C 0.91684 0.59687 0.75838
 N1094 N 0.91603 0.59949 0.77615
 N1095 N 0.90642 0.58798 0.78653
 C1096 C 0.89708 0.57360 0.77945
 N1097 N 0.89776 0.57107 0.76166
 N1098 N 0.90757 0.58244 0.75132
 C1099 C 0.88672 0.56079 0.79083
 N1100 N 0.87290 0.54963 0.78392
 N1101 N 0.86373 0.53774 0.79417
 C1102 C 0.86823 0.53644 0.81163
 N1103 N 0.88210 0.54756 0.81854
 N1104 N 0.89109 0.55961 0.80834
 C1105 C 0.75539 0.61487 0.92641
 N1106 N 0.76447 0.62386 0.93975
 N1107 N 0.75467 0.63600 0.94918
 C1108 C 0.73538 0.63960 0.94568
 N1109 N 0.72637 0.63059 0.93231
 N1110 N 0.73617 0.61849 0.92285
 C1111 C 0.76605 0.60132 0.91610
 N1112 N 0.75714 0.59301 0.90224
 N1113 N 0.76668 0.58060 0.89296
 C1114 C 0.78547 0.57598 0.89721
 N1115 N 0.79439 0.58429 0.91107
 N1116 N 0.78487 0.59674 0.92033
 C1117 C 0.79590 0.56218 0.88704
 N1118 N 0.81425 0.55676 0.89189
 N1119 N 0.82364 0.54418 0.88270
 C1120 C 0.81504 0.53658 0.86829
 N1121 N 0.79671 0.54201 0.86342
 N1122 N 0.78730 0.55456 0.87264
 C1123 C 0.24650 0.38558 0.93294
 N1124 N 0.23704 0.37652 0.94601
 N1125 N 0.24671 0.36465 0.95588
 C1126 C 0.26622 0.36142 0.95311
 N1127 N 0.27563 0.37054 0.94002
 N1128 N 0.26596 0.38236 0.93012
 C1129 C 0.23592 0.39866 0.92199
 N1130 N 0.24513 0.40668 0.90813
 N1131 N 0.23563 0.41856 0.89816
 C1132 C 0.21658 0.42291 0.90170
 N1133 N 0.20736 0.41491 0.91558
 N1134 N 0.21685 0.40298 0.92553
 C1135 C 0.20621 0.43606 0.89069
 N1136 N 0.18768 0.44153 0.89490
 N1137 N 0.17838 0.45355 0.88491
 C1138 C 0.18727 0.46048 0.87031
 N1139 N 0.20577 0.45498 0.86609
 N1140 N 0.21508 0.44302 0.87611
 C1141 C 0.24477 0.61353 0.06797
 N1142 N 0.23552 0.62324 0.05527
 N1143 N 0.24558 0.63495 0.04548
 C1144 C 0.26532 0.63739 0.04792
 N1145 N 0.27449 0.62757 0.06064
 N1146 N 0.26444 0.61592 0.07047
 C1147 C 0.23376 0.60061 0.07883
 N1148 N 0.24278 0.59209 0.09247
 N1149 N 0.23291 0.58033 0.10233
 C1150 C 0.21365 0.57661 0.09889
 N1151 N 0.20462 0.58512 0.08523
 N1152 N 0.21448 0.59694 0.07541
 C1153 C 0.20290 0.56347 0.10969
 N1154 N 0.18424 0.55840 0.10536
 N1155 N 0.17468 0.54627 0.11506
 C1156 C 0.18340 0.53884 0.12948
 N1157 N 0.20202 0.54398 0.13384
 N1158 N 0.21160 0.55604 0.12411
 C1159 C 0.76090 0.38693 0.06598
 N1160 N 0.74315 0.39038 0.05840
 N1161 N 0.73393 0.37793 0.04887
 C1162 C 0.74195 0.36143 0.04669
 N1163 N 0.75975 0.35805 0.05435
 N1164 N 0.76909 0.37057 0.06371
 C1165 C 0.77087 0.40058 0.07671
 N1166 N 0.79050 0.39945 0.08020
 N1167 N 0.79946 0.41185 0.09002
 C1168 C 0.78904 0.42568 0.09691
 N1169 N 0.76939 0.42675 0.09350
 N1170 N 0.76049 0.41449 0.08349
 C1171 C 0.79876 0.43923 0.10795
 N1172 N 0.78794 0.44970 0.11894
 N1173 N 0.79669 0.46200 0.12901
 C1174 C 0.81655 0.46442 0.12830
 N1175 N 0.82738 0.45401 0.11724
 N1176 N 0.81865 0.44155 0.10733
 C1177 C 0.92923 0.74975 0.61475
 N1178 N 0.92316 0.73268 0.61726
 N1179 N 0.93267 0.72200 0.62847
 C1180 C 0.94862 0.72794 0.63772
 N1181 N 0.95457 0.74513 0.63527
 N1182 N 0.94510 0.75581 0.62398
 C1183 C 0.91894 0.76126 0.60197
 N1184 N 0.92600 0.77774 0.59789
 N1185 N 0.91682 0.78790 0.58595
 C1186 C 0.90022 0.78196 0.57772
 N1187 N 0.89313 0.76552 0.58188
 N1188 N 0.90234 0.75535 0.59375
 C1189 C 0.89017 0.79293 0.56434
 N1190 N 0.87294 0.78729 0.55701
 N1191 N 0.86389 0.79703 0.54470
 C1192 C 0.87176 0.81276 0.53920
 N1193 N 0.88899 0.81843 0.54653
 N1194 N 0.89802 0.80871 0.55889
 C1195 C 0.92438 0.25484 0.38867
 N1196 N 0.92109 0.27269 0.38814
 N1197 N 0.93084 0.28301 0.37671
 C1198 C 0.94420 0.27591 0.36525
 N1199 N 0.94735 0.25798 0.36579
 N1200 N 0.93770 0.24767 0.37729
 C1201 C 0.91383 0.24350 0.40145
 N1202 N 0.91917 0.22620 0.40385
 N1203 N 0.90978 0.21600 0.41562
 C1204 C 0.89463 0.22268 0.42534
 N1205 N 0.88923 0.23995 0.42288
 N1206 N 0.89870 0.25019 0.41119
 C1207 C 0.88438 0.21149 0.43844
 N1208 N 0.86770 0.21739 0.44651
 N1209 N 0.85851 0.20733 0.45852
 C1210 C 0.86574 0.19104 0.46299
 N1211 N 0.88243 0.18514 0.45493
 N1212 N 0.89155 0.19516 0.44284
 C1213 C 0.07056 0.24911 0.60949
 N1214 N 0.06458 0.26586 0.60532
 N1215 N 0.05508 0.27585 0.61716
 C1216 C 0.05140 0.26960 0.63376
 N1217 N 0.05753 0.25282 0.63789
 N1218 N 0.06680 0.24273 0.62597
 C1219 C 0.08098 0.23812 0.59639
 N1220 N 0.08145 0.22006 0.59798
 N1221 N 0.09077 0.21012 0.58597
 C1222 C 0.10018 0.21790 0.57207
 N1223 N 0.09982 0.23595 0.57056
 N1224 N 0.09028 0.24587 0.58243
 C1225 C 0.11053 0.20701 0.55884
 N1226 N 0.12476 0.21436 0.54847
 N1227 N 0.13410 0.20455 0.53638
 C1228 C 0.12936 0.18708 0.53406
 N1229 N 0.11506 0.17974 0.54437
 N1230 N 0.10590 0.18949 0.55663
 C1231 C 0.07421 0.74625 0.39186
 N1232 N 0.08107 0.74395 0.37514
 N1233 N 0.07127 0.73371 0.36367
 C1234 C 0.05436 0.72516 0.36851
 N1235 N 0.04767 0.72740 0.38535
 N1236 N 0.05732 0.73782 0.39675
 C1237 C 0.08471 0.75785 0.40441
 N1238 N 0.07510 0.76480 0.41860
 N1239 N 0.08450 0.77548 0.42993
 C1240 C 0.10391 0.77942 0.42762
 N1241 N 0.11357 0.77238 0.41349
 N1242 N 0.10410 0.76187 0.40203
 C1243 C 0.11420 0.79108 0.44025
 N1244 N 0.13419 0.79066 0.44179
 N1245 N 0.14339 0.80095 0.45361
 C1246 C 0.13295 0.81222 0.46413
 N1247 N 0.11300 0.81275 0.46246
 N1248 N 0.10378 0.80230 0.45081
 C1249 C 0.62226 0.92952 0.75813
 N1250 N 0.62394 0.92499 0.74081
 N1251 N 0.63551 0.93437 0.73000
 C1252 C 0.64597 0.94866 0.73602
 N1253 N 0.64438 0.95306 0.75346
 N1254 N 0.63271 0.94371 0.76428
 C1255 C 0.60887 0.91943 0.76976
 N1256 N 0.60510 0.92498 0.78655
 N1257 N 0.59236 0.91608 0.79676
 C1258 C 0.58298 0.90129 0.79055
 N1259 N 0.58687 0.89570 0.77382
 N1260 N 0.59954 0.90461 0.76361
 C1261 C 0.56841 0.89176 0.80147
 N1262 N 0.55980 0.87656 0.79539
 N1263 N 0.54609 0.86817 0.80495
 C1264 C 0.54043 0.87469 0.82093
 N1265 N 0.54908 0.88986 0.82706
 N1266 N 0.56285 0.89823 0.81752
 C1267 C 0.37670 0.92764 0.24232
 N1268 N 0.36534 0.94080 0.23534
 N1269 N 0.35330 0.95029 0.24565
 C1270 C 0.35220 0.94709 0.26337
 N1271 N 0.36360 0.93387 0.27025
 N1272 N 0.37555 0.92432 0.25995
 C1273 C 0.39029 0.91731 0.23114
 N1274 N 0.40019 0.90318 0.23801
 N1275 N 0.41285 0.89395 0.22810
 C1276 C 0.41615 0.89856 0.21096
 N1277 N 0.40623 0.91269 0.20406
 N1278 N 0.39349 0.92188 0.21397
 C1279 C 0.43052 0.88856 0.20029
 N1280 N 0.43575 0.89421 0.18384
 N1281 N 0.44921 0.88532 0.17445
 C1282 C 0.45786 0.87043 0.18115
 N1283 N 0.45254 0.86475 0.19754
 N1284 N 0.43916 0.87367 0.20694
 C1285 C 0.62731 0.06860 0.23937
 N1286 N 0.63108 0.07462 0.25597
 N1287 N 0.64249 0.06531 0.26693
 C1288 C 0.65067 0.04961 0.26174
 N1289 N 0.64703 0.04366 0.24503
 N1290 N 0.63553 0.05296 0.23406
 C1291 C 0.61399 0.07870 0.22773
 N1292 N 0.60839 0.07220 0.21169
 N1293 N 0.59566 0.08121 0.20160
 C1294 C 0.58812 0.09704 0.20720
 N1295 N 0.59385 0.10356 0.22317
 N1296 N 0.60651 0.09455 0.23324
 C1297 C 0.57355 0.10684 0.19656
 N1298 N 0.56633 0.12263 0.20249
 N1299 N 0.55266 0.13140 0.19330
 C1300 C 0.54566 0.12470 0.17782
 N1301 N 0.55292 0.10892 0.17181
 N1302 N 0.56664 0.10014 0.18102
 C1303 C 0.37329 0.07507 0.75945
 N1304 N 0.37066 0.07984 0.74228
 N1305 N 0.35860 0.07054 0.73183
 C1306 C 0.34862 0.05612 0.73812
 N1307 N 0.35117 0.05143 0.75537
 N1308 N 0.36330 0.06071 0.76583
 C1309 C 0.38713 0.08508 0.77070
 N1310 N 0.39148 0.07946 0.78735
 N1311 N 0.40452 0.08834 0.79726
 C1312 C 0.41362 0.10318 0.79089
 N1313 N 0.40918 0.10884 0.77428
 N1314 N 0.39621 0.09994 0.76437
 C1315 C 0.42839 0.11281 0.80150
 N1316 N 0.43676 0.12800 0.79515
 N1317 N 0.45052 0.13659 0.80445
 C1318 C 0.45649 0.13030 0.82043
 N1319 N 0.44810 0.11512 0.82683
 N1320 N 0.43427 0.10654 0.81753
 C1321 C 0.62007 0.75721 0.06998
 N1322 N 0.62994 0.76400 0.05584
 N1323 N 0.64166 0.75362 0.04609
 C1324 C 0.64391 0.73603 0.05006
 N1325 N 0.63402 0.72931 0.06424
 N1326 N 0.62237 0.73969 0.07402
 C1327 C 0.60681 0.76844 0.08061
 N1328 N 0.59785 0.76166 0.09523
 N1329 N 0.58547 0.77161 0.10473
 C1330 C 0.58153 0.78871 0.09995
 N1331 N 0.59052 0.79553 0.08535
 N1332 N 0.60296 0.78558 0.07586
 C1333 C 0.56741 0.79940 0.11024
 N1334 N 0.56209 0.81601 0.10484
 N1335 N 0.54882 0.82541 0.11396
 C1336 C 0.54045 0.81855 0.12884
 N1337 N 0.54586 0.80199 0.13427
 N1338 N 0.55908 0.79260 0.12514
 C1339 C 0.37692 0.23751 0.07427
 N1340 N 0.37327 0.25433 0.08005
 N1341 N 0.36131 0.26508 0.07104
 C1342 C 0.35244 0.25947 0.05588
 N1343 N 0.35597 0.24255 0.05017
 N1344 N 0.36801 0.23178 0.05918
 C1345 C 0.39084 0.22608 0.08397
 N1346 N 0.39617 0.20982 0.07761
 N1347 N 0.40938 0.19988 0.08621
 C1348 C 0.41771 0.20584 0.10150
 N1349 N 0.41226 0.22203 0.10788
 N1350 N 0.39911 0.23197 0.09927
 C1351 C 0.43272 0.19526 0.11084
 N1352 N 0.44061 0.20138 0.12622
 N1353 N 0.45457 0.19214 0.13458
 C1354 C 0.46120 0.17645 0.12787
 N1355 N 0.45329 0.17028 0.11250
 N1356 N 0.43928 0.17952 0.10413
 C1357 C 0.61949 0.24108 0.93319
 N1358 N 0.61485 0.25816 0.93751
 N1359 N 0.62717 0.26803 0.94719
 C1360 C 0.64470 0.26128 0.95276
 N1361 N 0.64936 0.24419 0.94838
 N1362 N 0.63693 0.23425 0.93886
 C1363 C 0.60591 0.23034 0.92238
 N1364 N 0.60764 0.21229 0.92162
 N1365 N 0.59515 0.20261 0.91187
 C1366 C 0.58065 0.21067 0.90238
 N1367 N 0.57902 0.22872 0.90306
 N1368 N 0.59135 0.23836 0.91295
 C1369 C 0.56677 0.20015 0.89166
 N1370 N 0.55560 0.20824 0.87909
 N1371 N 0.54263 0.19888 0.86959
 C1372 C 0.54023 0.18112 0.87241
 N1373 N 0.55139 0.17300 0.88499
 N1374 N 0.56452 0.18233 0.89437
 C1375 C 0.37689 0.76441 0.93270
 N1376 N 0.35710 0.76389 0.92974
 N1377 N 0.34568 0.75234 0.93848
 C1378 C 0.35370 0.74071 0.95023
 N1379 N 0.37349 0.74119 0.95312
 N1380 N 0.38485 0.75293 0.94461
 C1381 C 0.38968 0.77674 0.92284
 N1382 N 0.40714 0.78219 0.92985
 N1383 N 0.41921 0.79278 0.92066
 C1384 C 0.41440 0.79806 0.90402
 N1385 N 0.39695 0.79258 0.89698
 N1386 N 0.38473 0.78222 0.90628
 C1387 C 0.42830 0.80885 0.89360
 N1388 N 0.42844 0.80784 0.87565
 N1389 N 0.44187 0.81679 0.86625
 C1390 C 0.45544 0.82729 0.87447
 N1391 N 0.45512 0.82849 0.89241
 N1392 N 0.44189 0.81932 0.90181
 C1393 C 0.75720 0.92849 0.38921
 N1394 N 0.76634 0.94160 0.37987
 N1395 N 0.75640 0.95108 0.36789
 C1396 C 0.73692 0.94787 0.36484
 N1397 N 0.72783 0.93475 0.37425
 N1398 N 0.73777 0.92523 0.38617
 C1399 C 0.76807 0.91799 0.40245
 N1400 N 0.75920 0.90407 0.41079
 N1401 N 0.76895 0.89455 0.42284
 C1402 C 0.78793 0.89863 0.42704
 N1403 N 0.79682 0.91256 0.41871
 N1404 N 0.78708 0.92206 0.40661
 C1405 C 0.79855 0.88814 0.44044
 N1406 N 0.81698 0.89291 0.44577
 N1407 N 0.82646 0.88343 0.45805
 C1408 C 0.81787 0.86880 0.46539
 N1409 N 0.79947 0.86401 0.46003
 N1410 N 0.78998 0.87351 0.44780
 C1411 C 0.24012 0.93026 0.61696
 N1412 N 0.23068 0.94374 0.62548
 N1413 N 0.24011 0.95356 0.63756
 C1414 C 0.25936 0.95031 0.64156
 N1415 N 0.26872 0.93679 0.63301
 N1416 N 0.25930 0.92696 0.62098
 C1417 C 0.22994 0.91953 0.60345
 N1418 N 0.23933 0.90565 0.59556
 N1419 N 0.23029 0.89599 0.58315
 C1420 C 0.21153 0.89986 0.57814
 N1421 N 0.20211 0.91373 0.58604
 N1422 N 0.21114 0.92338 0.59849
 C1423 C 0.20175 0.88925 0.56429
 N1424 N 0.18338 0.89358 0.55847
 N1425 N 0.17468 0.88400 0.54578
 C1426 C 0.18401 0.86974 0.53849
 N1427 N 0.20234 0.86541 0.54434
 N1428 N 0.21105 0.87500 0.55699
 C1429 C 0.24103 0.07205 0.38178
 N1430 N 0.26019 0.07573 0.37796
 N1431 N 0.26998 0.06605 0.36606
 C1432 C 0.26100 0.05232 0.35746
 N1433 N 0.24176 0.04870 0.36125
 N1434 N 0.23198 0.05836 0.37320
 C1435 C 0.23043 0.08259 0.39517
 N1436 N 0.21171 0.07825 0.40002
 N1437 N 0.20230 0.08770 0.41237
 C1438 C 0.21126 0.10185 0.42028
 N1439 N 0.22995 0.10620 0.41538
 N1440 N 0.23937 0.09674 0.40308
 C1441 C 0.20104 0.11222 0.43403
 N1442 N 0.20977 0.12682 0.44128
 N1443 N 0.20064 0.13619 0.45383
 C1444 C 0.18245 0.13128 0.45965
 N1445 N 0.17370 0.11667 0.45241
 N1446 N 0.18282 0.10732 0.43981
 C1447 C 0.75288 0.07159 0.61145
 N1448 N 0.73341 0.07453 0.61452
 N1449 N 0.72358 0.06472 0.62631
 C1450 C 0.73282 0.05162 0.63556
 N1451 N 0.75234 0.04872 0.63250
 N1452 N 0.76218 0.05850 0.62065
 C1453 C 0.76361 0.08242 0.59836
 N1454 N 0.78268 0.07872 0.59415
 N1455 N 0.79227 0.08853 0.58217
 C1456 C 0.78317 0.10243 0.57402
 N1457 N 0.76414 0.10614 0.57827
 N1458 N 0.75453 0.09631 0.59020
 C1459 C 0.79362 0.11325 0.56074
 N1460 N 0.78481 0.12782 0.55357
 N1461 N 0.79413 0.13762 0.54144
 C1462 C 0.81258 0.13319 0.53597
 N1463 N 0.82141 0.11861 0.54314
 N1464 N 0.81211 0.10884 0.55533
 C1465 C 0.92675 0.60983 0.25328
 N1466 N 0.91787 0.62483 0.25946
 N1467 N 0.92768 0.63613 0.26990
 C1468 C 0.94666 0.63278 0.27470
 N1469 N 0.95546 0.61771 0.26859
 N1470 N 0.94573 0.60650 0.25801
 C1471 C 0.91613 0.59749 0.24153
 N1472 N 0.92618 0.58517 0.23195
 N1473 N 0.91664 0.57401 0.22118
 C1474 C 0.89667 0.57464 0.21973
 N1475 N 0.88658 0.58691 0.22939
 N1476 N 0.89615 0.59820 0.24002
 C1477 C 0.88625 0.56215 0.20799
 N1478 N 0.86649 0.55940 0.20960
 N1479 N 0.85724 0.54767 0.19920
 C1480 C 0.86740 0.53843 0.18669
 N1481 N 0.88711 0.54131 0.18499
 N1482 N 0.89638 0.55289 0.19550
 C1483 C 0.93082 0.38988 0.74908
 N1484 N 0.92128 0.37538 0.74246
 N1485 N 0.93074 0.36378 0.73213
 C1486 C 0.95004 0.36632 0.72787
 N1487 N 0.95953 0.38089 0.73443
 N1488 N 0.95012 0.39241 0.74489
 C1489 C 0.92037 0.40260 0.76052
 N1490 N 0.93052 0.41493 0.77009
 N1491 N 0.92100 0.42645 0.78048
 C1492 C 0.90098 0.42615 0.78157
 N1493 N 0.89084 0.41386 0.77195
 N1494 N 0.90036 0.40224 0.76169
 C1495 C 0.89043 0.43905 0.79275
 N1496 N 0.87066 0.44141 0.79085
 N1497 N 0.86110 0.45334 0.80072
 C1498 C 0.87092 0.46322 0.81298
 N1499 N 0.89066 0.46077 0.81497
 N1500 N 0.90026 0.44895 0.80498
 C1501 C 0.07495 0.60567 0.74645
 N1502 N 0.07965 0.60723 0.72904
 N1503 N 0.07005 0.61871 0.71869
 C1504 C 0.05542 0.62915 0.72534
 N1505 N 0.05079 0.62759 0.74279
 N1506 N 0.06033 0.61606 0.75313
 C1507 C 0.08540 0.59289 0.75784
 N1508 N 0.07929 0.58993 0.77472
 N1509 N 0.08865 0.57823 0.78501
 C1510 C 0.10454 0.56910 0.77882
 N1511 N 0.11069 0.57210 0.76196
 N1512 N 0.10127 0.58375 0.75165
 C1513 C 0.11479 0.55611 0.79014
 N1514 N 0.13177 0.54826 0.78460
 N1515 N 0.14100 0.53640 0.79482
 C1516 C 0.13355 0.53190 0.81091
 N1517 N 0.11656 0.53974 0.81644
 N1518 N 0.10738 0.55166 0.80626
 C1519 C 0.07224 0.38708 0.24674
 N1520 N 0.05550 0.37886 0.24108
 N1521 N 0.04597 0.36736 0.25153
 C1522 C 0.05279 0.36366 0.26806
 N1523 N 0.06960 0.37186 0.27363
 N1524 N 0.07915 0.38330 0.26318
 C1525 C 0.08253 0.40019 0.23554
 N1526 N 0.09963 0.40781 0.24114
 N1527 N 0.10879 0.42002 0.23127
 C1528 C 0.10116 0.42511 0.21544
 N1529 N 0.08407 0.41747 0.20980
 N1530 N 0.07492 0.40522 0.21966
 C1531 C 0.11115 0.43885 0.20477
 N1532 N 0.10300 0.44486 0.18946
 N1533 N 0.11199 0.45749 0.17995
 C1534 C 0.12946 0.46455 0.18540
 N1535 N 0.13762 0.45850 0.20068
 N1536 N 0.12862 0.44591 0.21020
   
