data_POSCAR
  _audit_creation_date              2014-09-24
  _audit_creation_method            'ToBaCCo'
  _symmetry_space_group_name_H-M    'P1'
  _symmetry_Int_Tables_number       1
  _symmetry_cell_setting            triclinic
  loop_
  _symmetry_equiv_pos_as_xyz
 x,y,z
_cell_length_a 68.2831
_cell_length_b 67.9581
_cell_length_c 67.2578
_cell_angle_alpha 91.191800
_cell_angle_beta 90.022700
_cell_angle_gamma 92.963300
loop_
  _atom_site_label
  _atom_site_type_symbol
  _atom_site_fract_x
  _atom_site_fract_y
  _atom_site_fract_z
N1 N 0.17669 0.21863 0.22797
 N2 N 0.18198 0.20350 0.23815
 C3 C 0.16864 0.19969 0.25246
 C4 C 0.15417 0.21317 0.25120
 C5 C 0.15982 0.22498 0.23545
 H6 H 0.16951 0.18809 0.26312
 H7 H 0.15219 0.23719 0.22969
 Cu8 Cu 0.20573 0.19028 0.23163
 Cu9 Cu 0.19201 0.22893 0.20580
 Cu10 Cu 0.23478 0.20574 0.19415
 N11 N 0.22977 0.17755 0.22520
 N12 N 0.24108 0.18359 0.21053
 C13 C 0.25640 0.17196 0.20903
 C14 C 0.25459 0.15779 0.22357
 C15 C 0.23749 0.16190 0.23356
 H16 H 0.26778 0.17352 0.19793
 H17 H 0.23104 0.15402 0.24592
 N18 N 0.22574 0.22840 0.17944
 N19 N 0.20947 0.23715 0.18392
 C20 C 0.20710 0.25179 0.17114
 C21 C 0.22262 0.25236 0.15790
 C22 C 0.23416 0.23728 0.16364
 H23 H 0.19478 0.26113 0.17129
 H24 H 0.24768 0.23305 0.15684
 H25 H 0.20480 0.20291 0.19801
 H26 H 0.21881 0.21995 0.21561
 N27 N 0.68277 0.72272 0.72334
 N28 N 0.69030 0.71035 0.73561
 C29 C 0.67702 0.70552 0.74967
 C30 C 0.66024 0.71550 0.74609
 C31 C 0.66445 0.72630 0.72924
 H32 H 0.67955 0.69576 0.76179
 H33 H 0.65490 0.73596 0.72175
 Cu34 Cu 0.71683 0.70201 0.73249
 Cu35 Cu 0.69730 0.73321 0.70071
 Cu36 Cu 0.74189 0.71313 0.69076
 N37 N 0.73998 0.68841 0.72483
 N38 N 0.74970 0.69271 0.70851
 C39 C 0.76468 0.68072 0.70659
 C40 C 0.76433 0.66818 0.72259
 C41 C 0.74842 0.67354 0.73387
 H42 H 0.77496 0.68107 0.69438
 H43 H 0.74300 0.66682 0.74736
 N44 N 0.73129 0.73401 0.67472
 N45 N 0.71433 0.74172 0.67856
 C46 C 0.71113 0.75553 0.66506
 C47 C 0.72683 0.75656 0.65202
 C48 C 0.73933 0.74268 0.65865
 H49 H 0.69820 0.76402 0.66462
 H50 H 0.75332 0.73923 0.65234
 H51 H 0.71251 0.70782 0.69734
 H52 H 0.72552 0.72921 0.71058
 N53 N 0.31811 0.76990 0.74478
 N54 N 0.31482 0.78787 0.75105
 C55 C 0.32697 0.79285 0.76631
 C56 C 0.33838 0.77706 0.76991
 C57 C 0.33231 0.76272 0.75600
 H58 H 0.32758 0.80696 0.77408
 H59 H 0.33842 0.74849 0.75363
 Cu60 Cu 0.29538 0.80331 0.73845
 Cu61 Cu 0.30516 0.75821 0.72124
 Cu62 Cu 0.26573 0.78232 0.70291
 N63 N 0.27095 0.81454 0.73105
 N64 N 0.25936 0.80654 0.71719
 C65 C 0.24385 0.81782 0.71500
 C66 C 0.24577 0.83378 0.72834
 C67 C 0.26323 0.83100 0.73827
 H68 H 0.23213 0.81457 0.70445
 H69 H 0.27010 0.84027 0.74979
 N70 N 0.27493 0.75769 0.69073
 N71 N 0.29028 0.74885 0.69752
 C72 C 0.29434 0.73389 0.68503
 C73 C 0.28080 0.73307 0.66974
 C74 C 0.26861 0.74829 0.67387
 H75 H 0.30660 0.72458 0.68660
 H76 H 0.25677 0.75286 0.66463
 H77 H 0.29554 0.78346 0.70791
 H78 H 0.27942 0.77223 0.72765
 N79 N 0.81841 0.26440 0.23156
 N80 N 0.81530 0.28280 0.23643
 C81 C 0.82700 0.28860 0.25177
 C82 C 0.83805 0.27293 0.25707
 C83 C 0.83203 0.25775 0.24388
 H84 H 0.82712 0.30310 0.25868
 H85 H 0.83762 0.24318 0.24275
 Cu86 Cu 0.79602 0.29756 0.22275
 Cu87 Cu 0.80563 0.25114 0.20859
 Cu88 Cu 0.76695 0.27469 0.18813
 N89 N 0.77160 0.30832 0.21449
 N90 N 0.76028 0.29942 0.20091
 C91 C 0.74436 0.30994 0.19823
 C92 C 0.74569 0.32632 0.21090
 C93 C 0.76324 0.32476 0.22099
 H94 H 0.73251 0.30575 0.18808
 H95 H 0.76951 0.33478 0.23223
 N96 N 0.77606 0.24957 0.17744
 N97 N 0.79077 0.24047 0.18517
 C98 C 0.79376 0.22410 0.17413
 C99 C 0.78019 0.22281 0.15872
 C100 C 0.76926 0.23927 0.16138
 H101 H 0.80512 0.21401 0.17695
 H102 H 0.75755 0.24378 0.15197
 H103 H 0.79702 0.27554 0.19380
 H104 H 0.78041 0.26574 0.21390
 N105 N 0.80063 0.72637 0.26647
 N106 N 0.79710 0.70816 0.26001
 C107 C 0.81087 0.70360 0.24660
 C108 C 0.82383 0.71984 0.24455
 C109 C 0.81681 0.73401 0.25745
 H110 H 0.81140 0.68947 0.23900
 H111 H 0.82282 0.74887 0.25995
 Cu112 Cu 0.77490 0.69198 0.26957
 Cu113 Cu 0.78392 0.73881 0.28596
 Cu114 Cu 0.74035 0.71328 0.29713
 N115 N 0.74911 0.67921 0.27356
 N116 N 0.73540 0.68783 0.28371
 C117 C 0.71922 0.67564 0.28426
 C118 C 0.72308 0.65837 0.27406
 C119 C 0.74221 0.66118 0.26746
 H120 H 0.70594 0.67875 0.29221
 H121 H 0.75053 0.65084 0.25894
 N122 N 0.74818 0.73911 0.30931
 N123 N 0.76492 0.74875 0.30527
 C124 C 0.76668 0.76509 0.31696
 C125 C 0.75027 0.76578 0.32906
 C126 C 0.73887 0.74903 0.32368
 H127 H 0.77930 0.77536 0.31706
 H128 H 0.72513 0.74397 0.33023
 H129 H 0.77071 0.71378 0.29831
 H130 H 0.75946 0.72297 0.27506
 N131 N 0.30907 0.23602 -0.22684
 N132 N 0.30584 0.21838 -0.23487
 C133 C 0.32003 0.21501 -0.24822
 C134 C 0.33302 0.23146 -0.24860
 C135 C 0.32546 0.24447 -0.23472
 H136 H 0.32069 0.20153 -0.25694
 H137 H 0.33123 0.25910 -0.23065
 Cu138 Cu 0.28350 0.20129 -0.22717
 Cu139 Cu 0.29169 0.24682 -0.20693
 Cu140 Cu 0.24829 0.21992 -0.19834
 N141 N 0.25789 0.18774 -0.22422
 N142 N 0.24399 0.19534 -0.21347
 C143 C 0.22802 0.18286 -0.21383
 C144 C 0.23217 0.16644 -0.22530
 C145 C 0.25129 0.17007 -0.23166
 H146 H 0.21465 0.18519 -0.20571
 H147 H 0.25979 0.16054 -0.24095
 N148 N 0.25545 0.24503 -0.18436
 N149 N 0.27211 0.25518 -0.18742
 C150 C 0.27324 0.27090 -0.17486
 C151 C 0.25647 0.27066 -0.16322
 C152 C 0.24553 0.25400 -0.16977
 H153 H 0.28563 0.28142 -0.17392
 H154 H 0.23162 0.24845 -0.16400
 H155 H 0.27862 0.22073 -0.19684
 H156 H 0.26755 0.23160 -0.21934
 N157 N 0.68178 0.27604 -0.23786
 N158 N 0.68510 0.29447 -0.24292
 C159 C 0.67101 0.29952 -0.25553
 C160 C 0.65816 0.28328 -0.25886
 C161 C 0.66560 0.26859 -0.24737
 H162 H 0.67062 0.31383 -0.26220
 H163 H 0.65946 0.25376 -0.24554
 Cu164 Cu 0.70799 0.31020 -0.23372
 Cu165 Cu 0.69802 0.26372 -0.21823
 Cu166 Cu 0.74257 0.28800 -0.20802
 N167 N 0.73472 0.32126 -0.23160
 N168 N 0.74841 0.31215 -0.22227
 C169 C 0.76539 0.32306 -0.22312
 C170 C 0.76214 0.33999 -0.23342
 C171 C 0.74248 0.33835 -0.23859
 H172 H 0.77890 0.31934 -0.21605
 H173 H 0.73439 0.34881 -0.24677
 N174 N 0.73379 0.26354 -0.19494
 N175 N 0.71673 0.25420 -0.19866
 C176 C 0.71427 0.23912 -0.18603
 C177 C 0.73055 0.23909 -0.17368
 C178 C 0.74262 0.25475 -0.17990
 H179 H 0.70118 0.22952 -0.18521
 H180 H 0.75656 0.25981 -0.17353
 H181 H 0.71199 0.28869 -0.20586
 H182 H 0.72216 0.27868 -0.22981
 N183 N 0.18139 0.77105 0.26350
 N184 N 0.18739 0.78540 0.25184
 C185 C 0.17451 0.78653 0.23675
 C186 C 0.15962 0.77207 0.23910
 C187 C 0.16458 0.76257 0.25629
 H188 H 0.17581 0.79716 0.22504
 H189 H 0.15640 0.75062 0.26335
 Cu190 Cu 0.21121 0.80134 0.25810
 Cu191 Cu 0.19541 0.76464 0.28749
 Cu192 Cu 0.23814 0.79258 0.29857
 N193 N 0.23521 0.81696 0.26434
 N194 N 0.24568 0.81348 0.28016
 C195 C 0.26112 0.82660 0.28124
 C196 C 0.26035 0.83916 0.26522
 C197 C 0.24363 0.83242 0.25482
 H198 H 0.27185 0.82707 0.29307
 H199 H 0.23777 0.83843 0.24146
 N200 N 0.22793 0.77078 0.31528
 N201 N 0.21157 0.76035 0.31107
 C202 C 0.20825 0.74690 0.32523
 C203 C 0.22324 0.74886 0.33908
 C204 C 0.23551 0.76414 0.33225
 H205 H 0.19594 0.73626 0.32533
 H206 H 0.24882 0.77012 0.33926
 H207 H 0.20846 0.79244 0.29295
 H208 H 0.22290 0.77482 0.27804
 N209 N 0.47601 0.43165 0.48801
 N210 N 0.46209 0.43816 0.49949
 C211 C 0.45950 0.42607 0.51497
 C212 C 0.47253 0.41114 0.51322
 C213 C 0.48277 0.41520 0.49584
 H214 H 0.44874 0.42792 0.52653
 H215 H 0.49437 0.40693 0.48939
 Cu216 Cu 0.44826 0.46162 0.49327
 Cu217 Cu 0.48437 0.44521 0.46396
 Cu218 Cu 0.45921 0.48609 0.45126
 N219 N 0.43353 0.48384 0.48501
 N220 N 0.43762 0.49312 0.46845
 C221 C 0.42475 0.50723 0.46603
 C222 C 0.41191 0.50687 0.48197
 C223 C 0.41798 0.49184 0.49374
 H224 H 0.42477 0.51707 0.45360
 H225 H 0.41123 0.48679 0.50737
 N226 N 0.48147 0.47677 0.43568
 N227 N 0.49076 0.46093 0.44026
 C228 C 0.50483 0.45809 0.42659
 C229 C 0.50448 0.47295 0.41283
 C230 C 0.48950 0.48453 0.41911
 H231 H 0.51480 0.44626 0.42678
 H232 H 0.48461 0.49749 0.41192
 H233 H 0.47580 0.47284 0.47251
 H234 H 0.45739 0.45657 0.45856
 N235 N -0.01914 -0.06714 0.98676
 N236 N -0.03233 -0.05936 0.99829
 C237 C -0.03550 -0.07083 1.01415
 C238 C -0.02359 -0.08673 1.01257
 C239 C -0.01343 -0.08385 0.99493
 H240 H -0.04584 -0.06784 1.02584
 H241 H -0.00254 -0.09308 0.98854
 Cu242 Cu -0.04414 -0.03493 0.99166
 Cu243 Cu -0.01026 -0.05475 0.96225
 Cu244 Cu -0.03598 -0.01525 0.94665
 N245 N -0.06068 -0.01513 0.98128
 N246 N -0.05774 -0.00769 0.96358
 C247 C -0.07143 0.00542 0.96018
 C248 C -0.08357 0.00632 0.97669
 C249 C -0.07625 -0.00697 0.98977
 H250 H -0.07232 0.01387 0.94680
 H251 H -0.08199 -0.01067 1.00427
 N252 N -0.01336 -0.02519 0.93184
 N253 N -0.00355 -0.04018 0.93794
 C254 C 0.01139 -0.04304 0.92534
 C255 C 0.01109 -0.02920 0.91052
 C256 C -0.00490 -0.01816 0.91512
 H257 H 0.02178 -0.05437 0.92692
 H258 H -0.00972 -0.00563 0.90717
 H259 H -0.01811 -0.02608 0.96818
 H260 H -0.03747 -0.04358 0.95722
 N261 N 1.02918 0.58118 0.97736
 N262 N 1.04656 0.57895 0.98515
 C263 C 1.04908 0.59158 1.00085
 C264 C 1.03223 0.60203 1.00299
 C265 C 1.02005 0.59504 0.98775
 H266 H 1.06193 0.59270 1.01029
 H267 H 1.00556 0.59974 0.98442
 Cu268 Cu 1.06363 0.55908 0.97439
 Cu269 Cu 1.01914 0.56607 0.95455
 Cu270 Cu 1.04589 0.52755 0.93805
 N271 N 1.07691 0.53532 0.96658
 N272 N 1.06968 0.52311 0.95269
 C273 C 1.08095 0.50755 0.95104
 C274 C 1.09615 0.51001 0.96456
 C275 C 1.09323 0.52790 0.97414
 H276 H 1.07817 0.49521 0.94086
 H277 H 1.10187 0.53459 0.98620
 N278 N 1.02140 0.53451 0.92520
 N279 N 1.01120 0.54928 0.93162
 C280 C 0.99509 0.55027 0.92028
 C281 C 0.99504 0.53535 0.90596
 C282 C 1.01203 0.52566 0.90952
 H283 H 0.98427 0.56118 0.92224
 H284 H 1.01708 0.51297 0.90146
 H285 H 1.03401 0.54138 0.96233
 H286 H 1.04572 0.55753 0.94289
 N287 N 0.53856 0.08958 0.47052
 N288 N 0.55369 0.08384 0.48059
 C289 C 0.55829 0.09739 0.49501
 C290 C 0.54550 0.11248 0.49368
 C291 C 0.53325 0.10703 0.47793
 H292 H 0.56987 0.09627 0.50584
 H293 H 0.52074 0.11471 0.47293
 Cu294 Cu 0.56541 0.05895 0.47410
 Cu295 Cu 0.52533 0.07315 0.45009
 Cu296 Cu 0.54544 0.02869 0.43850
 N297 N 0.57737 0.03453 0.46621
 N298 N 0.56910 0.02266 0.45262
 C299 C 0.57974 0.00671 0.45026
 C300 C 0.59566 0.00863 0.46294
 C301 C 0.59377 0.02653 0.47283
 H302 H 0.57628 -0.00531 0.43985
 H303 H 0.60341 0.03303 0.48420
 N304 N 0.52161 0.03736 0.42572
 N305 N 0.51401 0.05440 0.42997
 C306 C 0.49794 0.05612 0.41865
 C307 C 0.49534 0.03938 0.40663
 C308 C 0.51065 0.02784 0.41156
 H309 H 0.48895 0.06874 0.41893
 H310 H 0.51357 0.01350 0.40534
 H311 H 0.53394 0.04658 0.46044
 H312 H 0.55001 0.05894 0.44142
 N313 N -0.03385 0.08522 0.53498
 N314 N -0.04909 0.07927 0.52408
 C315 C -0.05168 0.09236 0.50973
 C316 C -0.03736 0.10742 0.51165
 C317 C -0.02632 0.10245 0.52795
 H318 H -0.06304 0.09089 0.49853
 H319 H -0.01337 0.11039 0.53379
 Cu320 Cu -0.06392 0.05461 0.52848
 Cu321 Cu -0.02440 0.06944 0.55660
 Cu322 Cu -0.04853 0.02397 0.56308
 N323 N -0.07623 0.02845 0.53178
 N324 N -0.07005 0.01649 0.54522
 C325 C -0.08095 -0.00055 0.54421
 C326 C -0.09479 0.00072 0.52929
 C327 C -0.09133 0.01941 0.52173
 H328 H -0.07907 -0.01285 0.55384
 H329 H -0.09910 0.02589 0.50971
 N330 N -0.02649 0.03383 0.57985
 N331 N -0.01718 0.05113 0.57760
 C332 C -0.00245 0.05307 0.59104
 C333 C -0.00250 0.03607 0.60215
 C334 C -0.01803 0.02434 0.59463
 H335 H 0.00786 0.06565 0.59228
 H336 H -0.02280 0.00984 0.59952
 H337 H -0.03409 0.04318 0.54334
 H338 H -0.05055 0.05443 0.56215
 N339 N 0.47254 0.57799 0.03275
 N340 N 0.45817 0.57026 0.02162
 C341 C 0.45662 0.58095 0.00517
 C342 C 0.47067 0.59627 0.00594
 C343 C 0.48050 0.59407 0.02375
 H344 H 0.44607 0.57782 -0.00661
 H345 H 0.49295 0.60301 0.02932
 Cu346 Cu 0.44298 0.54676 0.02918
 Cu347 Cu 0.48061 0.56543 0.05720
 Cu348 Cu 0.45361 0.52285 0.07039
 N349 N 0.42775 0.52326 0.03682
 N350 N 0.43197 0.51390 0.05302
 C351 C 0.41935 0.49816 0.05482
 C352 C 0.40645 0.49766 0.03888
 C353 C 0.41227 0.51385 0.02777
 H354 H 0.41948 0.48796 0.06693
 H355 H 0.40581 0.51835 0.01403
 N356 N 0.47598 0.53412 0.08606
 N357 N 0.48629 0.55030 0.08125
 C358 C 0.50106 0.55342 0.09448
 C359 C 0.50003 0.53840 0.10818
 C360 C 0.48387 0.52657 0.10236
 H361 H 0.51218 0.56529 0.09377
 H362 H 0.47840 0.51320 0.10931
 H363 H 0.47066 0.53733 0.04903
 H364 H 0.45346 0.55252 0.06354
 N365 N 0.53203 -0.08152 0.02506
 N366 N 0.55056 -0.08304 0.02039
 C367 C 0.55224 -0.09843 0.00775
 C368 C 0.53368 -0.10703 0.00421
 C369 C 0.52119 -0.09580 0.01541
 H370 H 0.56591 -0.10269 0.00127
 H371 H 0.50544 -0.09788 0.01666
 Cu372 Cu 0.57054 -0.06419 0.03049
 Cu373 Cu 0.52354 -0.06092 0.04310
 Cu374 Cu 0.56066 -0.03551 0.06990
 N375 N 0.58688 -0.04082 0.03722
 N376 N 0.58344 -0.02966 0.05289
 C377 C 0.59697 -0.01447 0.05367
 C378 C 0.60931 -0.01613 0.03737
 C379 C 0.60245 -0.03311 0.02737
 H380 H 0.59729 -0.00271 0.06478
 H381 H 0.60819 -0.03936 0.01380
 N382 N 0.53308 -0.03704 0.07865
 N383 N 0.51894 -0.04581 0.06779
 C384 C 0.50182 -0.04455 0.07744
 C385 C 0.50526 -0.03459 0.09533
 C386 C 0.52529 -0.03001 0.09562
 H387 H 0.48802 -0.05129 0.07223
 H388 H 0.53361 -0.02226 0.10730
 H389 H 0.54759 -0.04077 0.04351
 H390 H 0.54869 -0.06307 0.05911
 N391 N 1.03989 0.42054 0.52639
 N392 N 1.05702 0.42532 0.51848
 C393 C 1.05965 0.41364 0.50235
 C394 C 1.04328 0.40079 0.50016
 C395 C 1.03108 0.40569 0.51570
 H396 H 1.07257 0.41435 0.49306
 H397 H 1.01672 0.39911 0.51892
 Cu398 Cu 1.07424 0.44625 0.53016
 Cu399 Cu 1.03013 0.43368 0.54990
 Cu400 Cu 1.05732 0.47434 0.56797
 N401 N 1.08764 0.47101 0.53861
 N402 N 1.08081 0.48203 0.55306
 C403 C 1.09235 0.49860 0.55510
 C404 C 1.10731 0.49794 0.54127
 C405 C 1.10389 0.48016 0.53109
 H406 H 1.09000 0.51031 0.56584
 H407 H 1.11223 0.47460 0.51871
 N408 N 1.03306 0.46406 0.58082
 N409 N 1.02255 0.44872 0.57360
 C410 C 1.00643 0.44575 0.58483
 C411 C 1.00679 0.45983 0.59994
 C412 C 1.02394 0.47117 0.59702
 H413 H 0.99521 0.43417 0.58222
 H414 H 1.02907 0.48399 0.60569
 H415 H 1.04482 0.46035 0.54331
 H416 H 1.05679 0.44453 0.56180
 C417 C 0.36567 0.02320 0.24000
 C418 C 0.35324 0.00386 0.24173
 C419 C 0.36366 -0.01204 0.24617
 C420 C 0.38583 -0.00721 0.24827
 C421 C 0.37713 0.02531 0.25955
 C422 C 0.38763 0.00949 0.26411
 C423 C 0.38106 0.01835 0.22424
 C424 C 0.39163 0.00255 0.22856
 H425 H 0.33749 0.00290 0.23963
 H426 H 0.39423 -0.02033 0.25143
 H427 H 0.37738 0.03873 0.26852
 H428 H 0.38285 0.02582 0.21029
 C429 C 0.13867 -0.02822 0.74112
 C430 C 0.15253 -0.00993 0.74407
 C431 C 0.14356 0.00694 0.74907
 C432 C 0.12100 0.00401 0.74998
 C433 C 0.12645 -0.02931 0.76019
 C434 C 0.11714 -0.01260 0.76491
 C435 C 0.12428 -0.02209 0.72509
 C436 C 0.11492 -0.00535 0.72969
 H437 H 0.16817 -0.01043 0.74169
 H438 H 0.11335 0.01753 0.75392
 H439 H 0.12462 -0.04266 0.76866
 H440 H 0.12228 -0.02948 0.71082
 C441 C 0.63766 0.46171 0.24566
 C442 C 0.64962 0.48093 0.25021
 C443 C 0.63883 0.49661 0.25512
 C444 C 0.61652 0.49170 0.25443
 C445 C 0.62437 0.45869 0.26379
 C446 C 0.61317 0.47417 0.26844
 C447 C 0.62362 0.46707 0.22899
 C448 C 0.61254 0.48266 0.23354
 H449 H 0.66544 0.48198 0.24898
 H450 H 0.60737 0.50429 0.25803
 H451 H 0.62399 0.44525 0.27219
 H452 H 0.62222 0.45948 0.21478
 C453 C 0.86709 0.52724 0.73802
 C454 C 0.85246 0.50987 0.74153
 C455 C 0.86073 0.49285 0.74650
 C456 C 0.88327 0.49469 0.74734
 C457 C 0.87966 0.52891 0.75696
 C458 C 0.88797 0.51191 0.76209
 C459 C 0.88109 0.51961 0.72207
 C460 C 0.88950 0.50267 0.72698
 H461 H 0.83682 0.51096 0.73954
 H462 H 0.89010 0.48081 0.75115
 H463 H 0.88225 0.54270 0.76510
 H464 H 0.88542 0.52739 0.70881
 C465 C 0.23409 0.37033 0.02271
 C466 C 0.23519 0.35921 0.00272
 C467 C 0.23976 0.37085 -0.01302
 C468 C 0.24274 0.39287 -0.00737
 C469 C 0.25377 0.38203 0.02467
 C470 C 0.25855 0.39371 0.00901
 C471 C 0.21911 0.38596 0.01897
 C472 C 0.22364 0.39776 0.00335
 H473 H 0.23270 0.34337 0.00126
 H474 H 0.24612 0.40229 -0.02032
 H475 H 0.26274 0.38152 0.03792
 H476 H 0.20557 0.38725 0.02706
 C477 C 0.74966 0.12958 -0.03309
 C478 C 0.75236 0.14195 -0.01389
 C479 C 0.75735 0.13158 0.00232
 C480 C 0.75941 0.10946 -0.00224
 C481 C 0.76881 0.11920 -0.03557
 C482 C 0.77393 0.10837 -0.01975
 C483 C 0.73440 0.11322 -0.02741
 C484 C 0.73946 0.10267 -0.01135
 H485 H 0.74962 0.15750 -0.01310
 H486 H 0.76342 0.10080 0.01082
 H487 H 0.77734 0.12014 -0.04912
 H488 H 0.71995 0.11140 -0.03397
 C489 C 0.25508 0.64239 0.47911
 C490 C 0.26083 0.65267 0.49887
 C491 C 0.26417 0.64021 0.51390
 C492 C 0.26180 0.61830 0.50780
 C493 C 0.27163 0.62852 0.47474
 C494 C 0.27529 0.61592 0.48964
 C495 C 0.23743 0.62831 0.48425
 C496 C 0.24097 0.61577 0.49922
 H497 H 0.26074 0.66850 0.50113
 H498 H 0.26454 0.60820 0.52014
 H499 H 0.27980 0.62886 0.46096
 H500 H 0.22391 0.62691 0.47590
 C501 C 0.73667 0.87049 0.51329
 C502 C 0.73712 0.85875 0.49361
 C503 C 0.74122 0.86990 0.47739
 C504 C 0.74440 0.89206 0.48227
 C505 C 0.75644 0.88216 0.51429
 C506 C 0.76069 0.89337 0.49814
 C507 C 0.72159 0.88602 0.50950
 C508 C 0.72567 0.89731 0.49342
 H509 H 0.73446 0.84291 0.49267
 H510 H 0.74739 0.90108 0.46895
 H511 H 0.76584 0.88207 0.52725
 H512 H 0.70819 0.88746 0.51779
 C513 C 0.01248 0.24203 0.35733
 C514 C -0.00661 0.24727 0.34722
 C515 C -0.02123 0.25156 0.36005
 C516 C -0.01556 0.25035 0.38209
 C517 C 0.01758 0.25949 0.37149
 C518 C 0.00300 0.26413 0.38432
 C519 C 0.00617 0.22505 0.37113
 C520 C -0.00827 0.22949 0.38412
 H521 H -0.00869 0.24663 0.33124
 H522 H -0.02773 0.25370 0.39234
 H523 H 0.03191 0.26709 0.37156
 H524 H 0.01219 0.21068 0.37096
 C525 C -0.02810 0.74875 0.14348
 C526 C -0.00908 0.75202 0.15551
 C527 C 0.00723 0.75588 0.14432
 C528 C 0.00310 0.75605 0.12187
 C529 C -0.02905 0.76705 0.13069
 C530 C -0.01285 0.77098 0.11938
 C531 C -0.02353 0.73203 0.12866
 C532 C -0.00725 0.73581 0.11734
 H533 H -0.00862 0.75111 0.17156
 H534 H 0.01637 0.75920 0.11274
 H535 H -0.04194 0.77567 0.13013
 H536 H -0.03103 0.71765 0.12840
 C537 C 0.47558 0.24489 0.64203
 C538 C 0.49395 0.25102 0.65430
 C539 C 0.51009 0.25574 0.64319
 C540 C 0.50652 0.25412 0.62065
 C541 C 0.47302 0.26203 0.62801
 C542 C 0.48913 0.26714 0.61694
 C543 C 0.48233 0.22796 0.62850
 C544 C 0.49838 0.23283 0.61729
 H545 H 0.49449 0.25017 0.67036
 H546 H 0.51985 0.25797 0.61183
 H547 H 0.45935 0.26936 0.62696
 H548 H 0.47598 0.21308 0.62840
 C549 C 0.51954 0.73654 0.85503
 C550 C 0.49997 0.74220 0.84626
 C551 C 0.48614 0.74628 0.86003
 C552 C 0.49299 0.74431 0.88160
 C553 C 0.52555 0.75357 0.86945
 C554 C 0.51178 0.75767 0.88336
 C555 C 0.51398 0.71922 0.86874
 C556 C 0.50026 0.72337 0.88271
 H557 H 0.49714 0.74233 0.83041
 H558 H 0.48156 0.74752 0.89277
 H559 H 0.53965 0.76158 0.86866
 H560 H 0.52121 0.70549 0.86890
 C561 C 0.13099 0.19940 0.27693
 C562 C 0.11460 0.20093 0.28916
 C563 C 0.10355 0.21765 0.28869
 C564 C 0.10898 0.23291 0.27572
 C565 C 0.12537 0.23142 0.26347
 C566 C 0.13662 0.21467 0.26398
 N567 N 0.08713 0.21890 0.30176
 N568 N 0.07647 0.23371 0.30217
 C569 C 0.06030 0.23497 0.31557
 C570 C 0.04935 0.25177 0.31556
 C571 C 0.03389 0.25368 0.32891
 C572 C 0.02895 0.23875 0.34254
 C573 C 0.04009 0.22184 0.34241
 C574 C 0.05553 0.21997 0.32902
 H575 H 0.13913 0.18620 0.27764
 H576 H 0.11052 0.18908 0.29910
 H577 H 0.10067 0.24603 0.27514
 H578 H 0.12930 0.24353 0.25383
 H579 H 0.05296 0.26350 0.30532
 H580 H 0.02584 0.26700 0.32877
 H581 H 0.03743 0.21007 0.35269
 H582 H 0.06389 0.20687 0.32939
 C583 C 0.63788 0.69995 0.77150
 C584 C 0.62119 0.70014 0.78347
 C585 C 0.60853 0.71560 0.78243
 C586 C 0.61246 0.73074 0.76887
 C587 C 0.62908 0.73052 0.75678
 C588 C 0.64211 0.71524 0.75814
 N589 N 0.59221 0.71591 0.79574
 N590 N 0.58106 0.73032 0.79670
 C591 C 0.56513 0.73085 0.81048
 C592 C 0.55465 0.74791 0.81213
 C593 C 0.53983 0.74934 0.82630
 C594 C 0.53506 0.73364 0.83910
 C595 C 0.54538 0.71627 0.83695
 C596 C 0.56028 0.71494 0.82283
 H597 H 0.64746 0.68783 0.77274
 H598 H 0.61827 0.68837 0.79384
 H599 H 0.60285 0.74286 0.76778
 H600 H 0.63193 0.74257 0.74675
 H601 H 0.55825 0.76029 0.80268
 H602 H 0.53223 0.76291 0.82752
 H603 H 0.54247 0.70367 0.84613
 H604 H 0.56817 0.70154 0.82176
 C605 C 0.36601 0.79352 0.78945
 C606 C 0.38253 0.79257 0.80160
 C607 C 0.38781 0.77452 0.80906
 C608 C 0.37623 0.75735 0.80440
 C609 C 0.35995 0.75821 0.79189
 C610 C 0.35479 0.77629 0.78416
 N611 N 0.40582 0.77373 0.81984
 N612 N 0.40973 0.75913 0.83043
 C613 C 0.42859 0.75775 0.83949
 C614 C 0.43104 0.74388 0.85430
 C615 C 0.44974 0.74087 0.86187
 C616 C 0.46622 0.75134 0.85427
 C617 C 0.46369 0.76559 0.83982
 C618 C 0.44501 0.76892 0.83261
 H619 H 0.36248 0.80763 0.78358
 H620 H 0.39145 0.80587 0.80494
 H621 H 0.38017 0.74320 0.80984
 H622 H 0.35148 0.74474 0.78812
 H623 H 0.41852 0.73511 0.85965
 H624 H 0.45144 0.72970 0.87292
 H625 H 0.47625 0.77385 0.83382
 H626 H 0.44352 0.77961 0.82107
 C627 C -0.14015 0.29045 0.28130
 C628 C -0.12483 0.29042 0.29509
 C629 C -0.11686 0.27276 0.30042
 C630 C -0.12440 0.25497 0.29180
 C631 C -0.13935 0.25498 0.27757
 C632 C -0.14739 0.27275 0.27196
 N633 N -0.10014 0.27337 0.31330
 N634 N -0.09540 0.25848 0.32305
 C635 C -0.07756 0.25867 0.33428
 C636 C -0.07517 0.24425 0.34855
 C637 C -0.05706 0.24275 0.35803
 C638 C -0.04103 0.25534 0.35289
 C639 C -0.04355 0.27013 0.33902
 C640 C -0.06175 0.27196 0.32995
 H641 H -0.14564 0.30452 0.27750
 H642 H -0.11901 0.30426 0.30151
 H643 H -0.11829 0.24115 0.29558
 H644 H -0.14455 0.24097 0.27110
 H645 H -0.08720 0.23386 0.35193
 H646 H -0.05527 0.23110 0.36853
 H647 H -0.03127 0.27989 0.33482
 H648 H -0.06319 0.28310 0.31884
 C649 C -0.15567 0.70751 0.21632
 C650 C -0.13930 0.70933 0.20389
 C651 C -0.12566 0.72529 0.20625
 C652 C -0.12858 0.73949 0.22129
 C653 C -0.14496 0.73771 0.23371
 C654 C -0.15873 0.72170 0.23138
 N655 N -0.10908 0.72672 0.19321
 N656 N -0.09609 0.74081 0.19464
 C657 C -0.07950 0.74230 0.18162
 C658 C -0.06572 0.75806 0.18429
 C659 C -0.04934 0.75993 0.17190
 C660 C -0.04623 0.74593 0.15661
 C661 C -0.06045 0.73031 0.15374
 C662 C -0.07682 0.72847 0.16619
 H663 H -0.16598 0.69506 0.21393
 H664 H -0.13723 0.69830 0.19234
 H665 H -0.11822 0.75196 0.22345
 H666 H -0.14667 0.74884 0.24522
 H667 H -0.06769 0.76894 0.19601
 H668 H -0.03900 0.77238 0.17426
 H669 H -0.05938 0.71957 0.14183
 H670 H -0.08744 0.71629 0.16366
 C671 C 0.36194 0.25190 0.74129
 C672 C 0.37868 0.25476 0.72955
 C673 C 0.38393 0.24030 0.71577
 C674 C 0.37223 0.22276 0.71389
 C675 C 0.35549 0.21980 0.72566
 C676 C 0.34999 0.23435 0.73956
 N677 N 0.40113 0.24382 0.70390
 N678 N 0.40641 0.23152 0.69068
 C679 C 0.42360 0.23501 0.67878
 C680 C 0.42810 0.22108 0.66414
 C681 C 0.44470 0.22398 0.65218
 C682 C 0.45740 0.24087 0.65484
 C683 C 0.45252 0.25501 0.66941
 C684 C 0.43589 0.25209 0.68132
 H685 H 0.35855 0.26356 0.75171
 H686 H 0.38761 0.26834 0.73116
 H687 H 0.37600 0.21133 0.70334
 H688 H 0.34695 0.20608 0.72364
 H689 H 0.41859 0.20797 0.66187
 H690 H 0.44708 0.21301 0.64075
 H691 H 0.46164 0.26840 0.67156
 H692 H 0.43264 0.26319 0.69244
 C693 C 0.63359 0.29933 0.72136
 C694 C 0.61663 0.29824 0.70968
 C695 C 0.60737 0.28001 0.70468
 C696 C 0.61505 0.26274 0.71181
 C697 C 0.63168 0.26379 0.72403
 C698 C 0.64131 0.28212 0.72892
 N699 N 0.58978 0.27943 0.69306
 N700 N 0.58424 0.26438 0.68254
 C701 C 0.56604 0.26348 0.67189
 C702 C 0.56331 0.25006 0.65593
 C703 C 0.54531 0.24819 0.64595
 C704 C 0.52964 0.25934 0.65224
 C705 C 0.53240 0.27288 0.66815
 C706 C 0.55055 0.27513 0.67777
 H707 H 0.64020 0.31379 0.72485
 H708 H 0.61073 0.31167 0.70440
 H709 H 0.60795 0.24848 0.70826
 H710 H 0.63708 0.25014 0.72928
 H711 H 0.57511 0.24093 0.65134
 H712 H 0.54338 0.23749 0.63385
 H713 H 0.52044 0.28156 0.67323
 H714 H 0.55229 0.28546 0.69019
 C715 C 0.12908 0.75159 0.23028
 C716 C 0.11189 0.74821 0.21924
 C717 C 0.10706 0.76107 0.20429
 C718 C 0.11982 0.77735 0.20021
 C719 C 0.13707 0.78082 0.21131
 C720 C 0.14182 0.76807 0.22664
 N721 N 0.08878 0.75753 0.19409
 N722 N 0.08331 0.76801 0.17984
 C723 C 0.06453 0.76430 0.17058
 C724 C 0.05942 0.77543 0.15424
 C725 C 0.04087 0.77253 0.14545
 C726 C 0.02710 0.75857 0.15306
 C727 C 0.03237 0.74725 0.16927
 C728 C 0.05090 0.75005 0.17793
 H729 H 0.13222 0.74127 0.24172
 H730 H 0.10216 0.73560 0.22248
 H731 H 0.11634 0.78753 0.18872
 H732 H 0.14644 0.79366 0.20804
 H733 H 0.06976 0.78648 0.14845
 H734 H 0.03713 0.78153 0.13304
 H735 H 0.02220 0.73613 0.17521
 H736 H 0.05446 0.74120 0.19049
 C737 C 0.26206 0.12661 0.24079
 C738 C 0.27407 0.11097 0.24398
 C739 C 0.29178 0.10975 0.23377
 C740 C 0.29752 0.12450 0.22033
 C741 C 0.28553 0.14020 0.21712
 C742 C 0.26759 0.14140 0.22724
 N743 N 0.30347 0.09327 0.23714
 N744 N 0.31948 0.09087 0.22796
 C745 C 0.33095 0.07421 0.23130
 C746 C 0.34816 0.07218 0.22040
 C747 C 0.35951 0.05591 0.22303
 C748 C 0.35363 0.04107 0.23647
 C749 C 0.33665 0.04367 0.24793
 C750 C 0.32532 0.05992 0.24525
 H751 H 0.24836 0.12686 0.24882
 H752 H 0.26949 0.09966 0.25436
 H753 H 0.31121 0.12389 0.21229
 H754 H 0.29039 0.15133 0.20671
 H755 H 0.35283 0.08331 0.20988
 H756 H 0.37299 0.05538 0.21472
 H757 H 0.33211 0.03305 0.25902
 H758 H 0.31221 0.06131 0.25410
 C759 C 0.77778 0.64317 0.74509
 C760 C 0.78978 0.62756 0.74847
 C761 C 0.80168 0.62050 0.73330
 C762 C 0.80169 0.62941 0.71465
 C763 C 0.78973 0.64506 0.71124
 C764 C 0.77751 0.65203 0.72638
 N765 N 0.81323 0.60402 0.73708
 N766 N 0.82399 0.59651 0.72380
 C767 C 0.83517 0.57975 0.72761
 C768 C 0.84629 0.57183 0.71225
 C769 C 0.85685 0.55507 0.71529
 C770 C 0.85660 0.54599 0.73397
 C771 C 0.84528 0.55408 0.74930
 C772 C 0.83475 0.57079 0.74622
 H773 H 0.76875 0.64826 0.75717
 H774 H 0.78969 0.62081 0.76292
 H775 H 0.81077 0.62418 0.70266
 H776 H 0.78983 0.65140 0.69662
 H777 H 0.84653 0.57852 0.69778
 H778 H 0.86470 0.54925 0.70278
 H779 H 0.84443 0.54727 0.76372
 H780 H 0.82613 0.57655 0.75831
 C781 C 0.79654 0.35419 0.76285
 C782 C 0.80984 0.37029 0.76024
 C783 C 0.80310 0.38925 0.75832
 C784 C 0.78282 0.39190 0.75849
 C785 C 0.76953 0.37581 0.76077
 C786 C 0.77625 0.35683 0.76319
 N787 N 0.81698 0.40564 0.75635
 N788 N 0.81173 0.42323 0.75864
 C789 C 0.82481 0.44014 0.75639
 C790 C 0.81815 0.45859 0.76175
 C791 C 0.83002 0.47561 0.75902
 C792 C 0.84879 0.47453 0.75056
 C793 C 0.85565 0.45591 0.74553
 C794 C 0.84375 0.43880 0.74846
 H795 H 0.80212 0.33969 0.76450
 H796 H 0.82542 0.36804 0.76003
 H797 H 0.77723 0.40640 0.75689
 H798 H 0.75401 0.37834 0.76111
 H799 H 0.80362 0.45976 0.76797
 H800 H 0.82444 0.48964 0.76352
 H801 H 0.86991 0.45458 0.73878
 H802 H 0.84915 0.42464 0.74413
 C803 C 0.26990 -0.13290 0.24411
 C804 C 0.28207 -0.11630 0.24019
 C805 C 0.29781 -0.11084 0.25271
 C806 C 0.30153 -0.12241 0.26920
 C807 C 0.28935 -0.13906 0.27322
 C808 C 0.27316 -0.14450 0.26085
 N809 N 0.30925 -0.09314 0.24863
 N810 N 0.32398 -0.08703 0.25906
 C811 C 0.33456 -0.06881 0.25486
 C812 C 0.35075 -0.06263 0.26662
 C813 C 0.36060 -0.04437 0.26349
 C814 C 0.35425 -0.03196 0.24861
 C815 C 0.33830 -0.03841 0.23652
 C816 C 0.32856 -0.05665 0.23959
 H817 H 0.25786 -0.13633 0.23399
 H818 H 0.27907 -0.10749 0.22741
 H819 H 0.31366 -0.11845 0.27911
 H820 H 0.29266 -0.14743 0.28618
 H821 H 0.35551 -0.07184 0.27846
 H822 H 0.37276 -0.03969 0.27312
 H823 H 0.33331 -0.02932 0.22470
 H824 H 0.31615 -0.06107 0.23020
 C825 C 0.23720 -0.13587 0.74595
 C826 C 0.22506 -0.12013 0.74855
 C827 C 0.20868 -0.11843 0.73643
 C828 C 0.20432 -0.13292 0.72167
 C829 C 0.21641 -0.14883 0.71907
 C830 C 0.23319 -0.15051 0.73110
 N831 N 0.19699 -0.10172 0.73943
 N832 N 0.18236 -0.09827 0.72853
 C833 C 0.17122 -0.08119 0.73197
 C834 C 0.15598 -0.07733 0.71896
 C835 C 0.14522 -0.06048 0.72165
 C836 C 0.14966 -0.04699 0.73747
 C837 C 0.16465 -0.05137 0.75082
 C838 C 0.17539 -0.06814 0.74806
 H839 H 0.24969 -0.13635 0.75576
 H840 H 0.22853 -0.10907 0.76002
 H841 H 0.19166 -0.13192 0.71212
 H842 H 0.21261 -0.15960 0.70747
 H843 H 0.15246 -0.08739 0.70663
 H844 H 0.13344 -0.05842 0.71136
 H845 H 0.16817 -0.04163 0.76341
 H846 H 0.18697 -0.07084 0.75849
 C847 C 0.71668 0.34416 0.19905
 C848 C 0.70325 0.35889 0.20141
 C849 C 0.70417 0.37153 0.21810
 C850 C 0.71876 0.36929 0.23250
 C851 C 0.73224 0.35464 0.23013
 C852 C 0.73137 0.34188 0.21337
 N853 N 0.69030 0.38658 0.22003
 N854 N 0.69005 0.39803 0.23524
 C855 C 0.67649 0.41333 0.23734
 C856 C 0.67696 0.42488 0.25476
 C857 C 0.66426 0.44018 0.25721
 C858 C 0.65080 0.44444 0.24219
 C859 C 0.65025 0.43253 0.22472
 C860 C 0.66298 0.41716 0.22235
 H861 H 0.71564 0.33474 0.18589
 H862 H 0.69210 0.36050 0.19018
 H863 H 0.71979 0.37887 0.24555
 H864 H 0.74320 0.35324 0.24155
 H865 H 0.68729 0.42206 0.26646
 H866 H 0.66502 0.44891 0.27088
 H867 H 0.64018 0.43480 0.21276
 H868 H 0.66232 0.40835 0.20874
 C869 C 0.68962 0.64123 0.27254
 C870 C 0.67750 0.62402 0.27075
 C871 C 0.68568 0.60561 0.26880
 C872 C 0.70619 0.60464 0.26823
 C873 C 0.71828 0.62182 0.26965
 C874 C 0.71014 0.64029 0.27196
 N875 N 0.67307 0.58809 0.26727
 N876 N 0.67984 0.57120 0.26963
 C877 C 0.66832 0.55308 0.26752
 C878 C 0.67689 0.53569 0.27268
 C879 C 0.66694 0.51749 0.26941
 C880 C 0.64824 0.51624 0.26051
 C881 C 0.63927 0.53382 0.25611
 C882 C 0.64925 0.55214 0.25955
 H883 H 0.68294 0.65529 0.27416
 H884 H 0.66172 0.62500 0.27111
 H885 H 0.71290 0.59061 0.26659
 H886 H 0.73402 0.62058 0.26933
 H887 H 0.69150 0.53625 0.27900
 H888 H 0.67409 0.50437 0.27368
 H889 H 0.62488 0.53347 0.24940
 H890 H 0.64234 0.56546 0.25547
 C891 C 0.19887 0.14912 0.77244
 C892 C 0.18685 0.13199 0.76949
 C893 C 0.19509 0.11389 0.76556
 C894 C 0.21559 0.11316 0.76418
 C895 C 0.22760 0.13031 0.76681
 C896 C 0.21938 0.14844 0.77114
 N897 N 0.18247 0.09649 0.76306
 N898 N 0.18923 0.07938 0.76307
 C899 C 0.17715 0.06168 0.76023
 C900 C 0.18545 0.04363 0.76323
 C901 C 0.17443 0.02597 0.76007
 C902 C 0.15485 0.02595 0.75340
 C903 C 0.14644 0.04421 0.75078
 C904 C 0.15747 0.06192 0.75419
 H905 H 0.19210 0.16289 0.77559
 H906 H 0.17108 0.13278 0.77051
 H907 H 0.22232 0.09937 0.76104
 H908 H 0.24333 0.12926 0.76586
 H909 H 0.20055 0.04324 0.76807
 H910 H 0.18135 0.01237 0.76299
 H911 H 0.13151 0.04496 0.74573
 H912 H 0.15075 0.07575 0.75177
 C913 C 0.24019 0.26251 0.12660
 C914 C 0.24283 0.27515 0.11057
 C915 C 0.23119 0.29134 0.10869
 C916 C 0.21690 0.29491 0.12314
 C917 C 0.21426 0.28234 0.13916
 C918 C 0.22580 0.26592 0.14106
 N919 N 0.23403 0.30386 0.09198
 N920 N 0.22350 0.31849 0.08930
 C921 C 0.22615 0.33112 0.07267
 C922 C 0.21395 0.34685 0.07075
 C923 C 0.21614 0.35957 0.05476
 C924 C 0.23059 0.35663 0.04016
 C925 C 0.24300 0.34088 0.04242
 C926 C 0.24076 0.32820 0.05841
 H927 H 0.24929 0.25000 0.12746
 H928 H 0.25390 0.27225 0.09951
 H929 H 0.20776 0.30739 0.12206
 H930 H 0.20318 0.28563 0.15004
 H931 H 0.20277 0.34935 0.08180
 H932 H 0.20666 0.37174 0.05433
 H933 H 0.25456 0.33845 0.03176
 H934 H 0.25050 0.31621 0.05965
 C935 C 0.74389 0.76587 0.62026
 C936 C 0.74627 0.77802 0.60384
 C937 C 0.73444 0.79400 0.60154
 C938 C 0.72013 0.79779 0.61592
 C939 C 0.71771 0.78566 0.63233
 C940 C 0.72953 0.76953 0.63469
 N941 N 0.73717 0.80610 0.58450
 N942 N 0.72688 0.82087 0.58168
 C943 C 0.72944 0.83302 0.56467
 C944 C 0.71773 0.84911 0.56275
 C945 C 0.71979 0.86133 0.54636
 C946 C 0.73354 0.85746 0.53131
 C947 C 0.74556 0.84142 0.53362
 C948 C 0.74348 0.82925 0.55004
 H949 H 0.75315 0.75352 0.62146
 H950 H 0.75733 0.77494 0.59282
 H951 H 0.71082 0.81011 0.61450
 H952 H 0.70665 0.78908 0.64320
 H953 H 0.70704 0.85229 0.57411
 H954 H 0.71075 0.87385 0.54597
 H955 H 0.75666 0.83832 0.52265
 H956 H 0.75286 0.81697 0.55129
 C957 C 0.72928 0.77822 0.35683
 C958 C 0.72628 0.79091 0.37300
 C959 C 0.74029 0.80588 0.37809
 C960 C 0.75729 0.80837 0.36648
 C961 C 0.76036 0.79564 0.35028
 C962 C 0.74652 0.78019 0.34541
 N963 N 0.73727 0.81752 0.39570
 N964 N 0.74898 0.83171 0.40138
 C965 C 0.74591 0.84223 0.41972
 C966 C 0.75881 0.85811 0.42526
 C967 C 0.75693 0.86763 0.44380
 C968 C 0.74224 0.86117 0.45711
 C969 C 0.72899 0.84562 0.45128
 C970 C 0.73077 0.83626 0.43277
 H971 H 0.71816 0.76670 0.35359
 H972 H 0.71312 0.78884 0.38186
 H973 H 0.76835 0.81985 0.37017
 H974 H 0.77376 0.79777 0.34186
 H975 H 0.77057 0.86283 0.41538
 H976 H 0.76740 0.87951 0.44800
 H977 H 0.71732 0.84058 0.46112
 H978 H 0.72055 0.82408 0.42887
 C979 C 0.23480 0.28088 -0.13503
 C980 C 0.23095 0.29299 -0.11862
 C981 C 0.24393 0.30878 -0.11328
 C982 C 0.26077 0.31264 -0.12482
 C983 C 0.26469 0.30050 -0.14127
 C984 C 0.25186 0.28428 -0.14645
 N985 N 0.24005 0.31993 -0.09556
 N986 N 0.25092 0.33461 -0.08947
 C987 C 0.24696 0.34468 -0.07107
 C988 C 0.25931 0.36072 -0.06478
 C989 C 0.25662 0.36976 -0.04613
 C990 C 0.24160 0.36270 -0.03347
 C991 C 0.22885 0.34704 -0.04010
 C992 C 0.23148 0.33813 -0.05871
 H993 H 0.22449 0.26868 -0.13843
 H994 H 0.21794 0.28986 -0.10980
 H995 H 0.27105 0.32478 -0.12095
 H996 H 0.27790 0.30375 -0.14970
 H997 H 0.27132 0.36591 -0.07413
 H998 H 0.26671 0.38172 -0.04131
 H999 H 0.21694 0.34153 -0.03080
 H1000 H 0.22164 0.32584 -0.06322
 C1001 C 0.74781 0.23224 -0.14186
 C1002 C 0.75075 0.22054 -0.12543
 C1003 C 0.73980 0.20281 -0.12315
 C1004 C 0.72569 0.19682 -0.13757
 C1005 C 0.72266 0.20856 -0.15405
 C1006 C 0.73373 0.22641 -0.15639
 N1007 N 0.74335 0.19135 -0.10602
 N1008 N 0.73424 0.17492 -0.10278
 C1009 C 0.73815 0.16383 -0.08545
 C1010 C 0.72800 0.14570 -0.08274
 C1011 C 0.73152 0.13454 -0.06599
 C1012 C 0.74508 0.14154 -0.05132
 C1013 C 0.75568 0.15952 -0.05453
 C1014 C 0.75215 0.17063 -0.07126
 H1015 H 0.75642 0.24597 -0.14293
 H1016 H 0.76160 0.22535 -0.11437
 H1017 H 0.71704 0.18312 -0.13610
 H1018 H 0.71179 0.20358 -0.16499
 H1019 H 0.71744 0.14012 -0.09376
 H1020 H 0.72383 0.12032 -0.06494
 H1021 H 0.76683 0.16499 -0.04406
 H1022 H 0.76042 0.18448 -0.07313
 C1023 C 0.20935 0.72593 0.36477
 C1024 C 0.21150 0.71416 0.38131
 C1025 C 0.22977 0.71310 0.39047
 C1026 C 0.24597 0.72427 0.38309
 C1027 C 0.24383 0.73615 0.36655
 C1028 C 0.22552 0.73695 0.35708
 N1029 N 0.23143 0.70025 0.40692
 N1030 N 0.24762 0.69777 0.41566
 C1031 C 0.24888 0.68448 0.43183
 C1032 C 0.26715 0.68170 0.44040
 C1033 C 0.26888 0.66830 0.45571
 C1034 C 0.25237 0.65715 0.46265
 C1035 C 0.23390 0.66059 0.45439
 C1036 C 0.23222 0.67398 0.43907
 H1037 H 0.19498 0.72638 0.35809
 H1038 H 0.19890 0.70567 0.38692
 H1039 H 0.26026 0.72367 0.38995
 H1040 H 0.25659 0.74437 0.36096
 H1041 H 0.28010 0.68984 0.43510
 H1042 H 0.28323 0.66648 0.46208
 H1043 H 0.22057 0.65329 0.45965
 H1044 H 0.21785 0.67610 0.43290
 C1045 C 0.29875 0.71462 0.64359
 C1046 C 0.29902 0.70316 0.62612
 C1047 C 0.28148 0.69659 0.61684
 C1048 C 0.26353 0.70181 0.62514
 C1049 C 0.26326 0.71377 0.64234
 C1050 C 0.28088 0.72022 0.65174
 N1051 N 0.28233 0.68564 0.59846
 N1052 N 0.26805 0.67448 0.59208
 C1053 C 0.26866 0.66473 0.57301
 C1054 C 0.25538 0.64879 0.56874
 C1055 C 0.25470 0.64000 0.54972
 C1056 C 0.26694 0.64745 0.53459
 C1057 C 0.28050 0.66318 0.53896
 C1058 C 0.28152 0.67162 0.55808
 H1059 H 0.31256 0.71958 0.65041
 H1060 H 0.31294 0.69939 0.61976
 H1061 H 0.24980 0.69708 0.61804
 H1062 H 0.24931 0.71788 0.64837
 H1063 H 0.24534 0.64339 0.58008
 H1064 H 0.24397 0.62804 0.54657
 H1065 H 0.29002 0.66916 0.52745
 H1066 H 0.29180 0.68401 0.56097
 C1067 C 0.79314 0.19478 0.13825
 C1068 C 0.79169 0.18171 0.12184
 C1069 C 0.77541 0.18154 0.10915
 C1070 C 0.76023 0.19415 0.11351
 C1071 C 0.76163 0.20711 0.12986
 C1072 C 0.77826 0.20790 0.14225
 N1073 N 0.77491 0.16930 0.09147
 N1074 N 0.76141 0.17074 0.07860
 C1075 C 0.76022 0.15967 0.06026
 C1076 C 0.74609 0.16454 0.04645
 C1077 C 0.74499 0.15516 0.02784
 C1078 C 0.75807 0.14060 0.02261
 C1079 C 0.77183 0.13513 0.03677
 C1080 C 0.77301 0.14471 0.05547
 H1081 H 0.80615 0.19493 0.14745
 H1082 H 0.80350 0.17207 0.11871
 H1083 H 0.74737 0.19422 0.10410
 H1084 H 0.74968 0.21663 0.13261
 H1085 H 0.73611 0.17597 0.05002
 H1086 H 0.73386 0.15935 0.01752
 H1087 H 0.78200 0.12390 0.03317
 H1088 H 0.78396 0.14063 0.06604
 C1089 C 0.46510 0.39424 0.54542
 C1090 C 0.46688 0.37855 0.55826
 C1091 C 0.47837 0.36282 0.55305
 C1092 C 0.48826 0.36297 0.53474
 C1093 C 0.48649 0.37870 0.52181
 C1094 C 0.47480 0.39451 0.52696
 N1095 N 0.47938 0.34687 0.56657
 N1096 N 0.48957 0.33197 0.56331
 C1097 C 0.48986 0.31619 0.57715
 C1098 C 0.50124 0.30005 0.57301
 C1099 C 0.50129 0.28422 0.58603
 C1100 C 0.48978 0.28419 0.60337
 C1101 C 0.47871 0.30066 0.60765
 C1102 C 0.47871 0.31645 0.59470
 H1103 H 0.45614 0.40613 0.55011
 H1104 H 0.45921 0.37860 0.57235
 H1105 H 0.49721 0.35093 0.53037
 H1106 H 0.49413 0.37831 0.50774
 H1107 H 0.50996 0.29967 0.55958
 H1108 H 0.51004 0.27189 0.58225
 H1109 H 0.47010 0.30149 0.62112
 H1110 H 0.46990 0.32881 0.59838
 C1111 C -0.03074 0.89804 0.04567
 C1112 C -0.02945 0.88266 0.05900
 C1113 C -0.01949 0.86587 0.05377
 C1114 C -0.01067 0.86460 0.03495
 C1115 C -0.01194 0.88001 0.02157
 C1116 C -0.02205 0.89692 0.02675
 N1117 N -0.01885 0.85032 0.06778
 N1118 N -0.01024 0.83443 0.06430
 C1119 C -0.01022 0.81905 0.07860
 C1120 C -0.00118 0.80152 0.07384
 C1121 C -0.00168 0.78598 0.08722
 C1122 C -0.01130 0.78775 0.10560
 C1123 C -0.01998 0.80553 0.11049
 C1124 C -0.01947 0.82101 0.09714
 H1125 H -0.03849 0.91082 0.05035
 H1126 H -0.03629 0.88381 0.07347
 H1127 H -0.00292 0.85171 0.03055
 H1128 H -0.00515 0.87852 0.00713
 H1129 H 0.00598 0.79979 0.05959
 H1130 H 0.00495 0.77241 0.08291
 H1131 H -0.02720 0.80750 0.12467
 H1132 H -0.02646 0.83443 0.10127
 C1133 C 0.00764 0.62010 0.02255
 C1134 C 0.00259 0.63506 0.03573
 C1135 C 0.01707 0.64740 0.04481
 C1136 C 0.03694 0.64428 0.04099
 C1137 C 0.04208 0.62911 0.02779
 C1138 C 0.02741 0.61710 0.01818
 N1139 N 0.01087 0.66307 0.05747
 N1140 N 0.02250 0.67575 0.06610
 C1141 C 0.01497 0.69114 0.07838
 C1142 C 0.02796 0.70432 0.08868
 C1143 C 0.02082 0.71912 0.10110
 C1144 C 0.00050 0.72094 0.10339
 C1145 C -0.01246 0.70793 0.09271
 C1146 C -0.00534 0.69319 0.08037
 H1147 H -0.00403 0.61091 0.01575
 H1148 H -0.01274 0.63725 0.03869
 H1149 H 0.04839 0.65365 0.04795
 H1150 H 0.05742 0.62714 0.02468
 H1151 H 0.04363 0.70294 0.08729
 H1152 H 0.03118 0.72875 0.10932
 H1153 H -0.02817 0.70915 0.09388
 H1154 H -0.01575 0.68335 0.07246
 C1155 C 0.53571 0.14692 0.50023
 C1156 C 0.53227 0.16260 0.51330
 C1157 C 0.53632 0.16121 0.53359
 C1158 C 0.54480 0.14424 0.54059
 C1159 C 0.54860 0.12866 0.52744
 C1160 C 0.54365 0.12969 0.50722
 N1161 N 0.53069 0.17671 0.54680
 N1162 N 0.53009 0.17474 0.56557
 C1163 C 0.52363 0.18999 0.57865
 C1164 C 0.51928 0.18547 0.59841
 C1165 C 0.51129 0.19949 0.61110
 C1166 C 0.50782 0.21838 0.60424
 C1167 C 0.51290 0.22317 0.58466
 C1168 C 0.52060 0.20904 0.57187
 H1169 H 0.53194 0.14817 0.48469
 H1170 H 0.52579 0.17561 0.50773
 H1171 H 0.54814 0.14288 0.55622
 H1172 H 0.55466 0.11552 0.53323
 H1173 H 0.52158 0.17087 0.60383
 H1174 H 0.50772 0.19555 0.62624
 H1175 H 0.51024 0.23757 0.57903
 H1176 H 0.52389 0.21289 0.55665
 C1177 C -0.02301 0.14138 0.50445
 C1178 C -0.02001 0.15721 0.49158
 C1179 C -0.02782 0.15616 0.47230
 C1180 C -0.03889 0.13914 0.46609
 C1181 C -0.04202 0.12345 0.47894
 C1182 C -0.03408 0.12433 0.49826
 N1183 N -0.02405 0.17223 0.45911
 N1184 N -0.02908 0.17089 0.44088
 C1185 C -0.02529 0.18642 0.42713
 C1186 C -0.02795 0.18226 0.40681
 C1187 C -0.02299 0.19653 0.39279
 C1188 C -0.01566 0.21533 0.39896
 C1189 C -0.01370 0.21980 0.41934
 C1190 C -0.01836 0.20539 0.43339
 H1191 H -0.01680 0.14258 0.51927
 H1192 H -0.01144 0.17024 0.49656
 H1193 H -0.04508 0.13790 0.45127
 H1194 H -0.05042 0.11049 0.47354
 H1195 H -0.03330 0.16771 0.40183
 H1196 H -0.02451 0.19282 0.37710
 H1197 H -0.00772 0.23411 0.42434
 H1198 H -0.01623 0.20893 0.44903
 C1199 C 0.47015 0.60579 0.97036
 C1200 C 0.47304 0.61955 0.95544
 C1201 C 0.48015 0.63873 0.96008
 C1202 C 0.48487 0.64395 0.97993
 C1203 C 0.48227 0.63003 0.99492
 C1204 C 0.47461 0.61089 0.99027
 N1205 N 0.48251 0.65238 0.94425
 N1206 N 0.48605 0.67078 0.94711
 C1207 C 0.48860 0.68382 0.93072
 C1208 C 0.49064 0.70416 0.93441
 C1209 C 0.49379 0.71713 0.91870
 C1210 C 0.49516 0.70985 0.89907
 C1211 C 0.49280 0.68946 0.89536
 C1212 C 0.48946 0.67655 0.91102
 H1213 H 0.46452 0.59108 0.96626
 H1214 H 0.46952 0.61534 0.94019
 H1215 H 0.49055 0.65870 0.98381
 H1216 H 0.48579 0.63432 1.01015
 H1217 H 0.49002 0.70996 0.94950
 H1218 H 0.49583 0.73277 0.92199
 H1219 H 0.49365 0.68351 0.88034
 H1220 H 0.48788 0.66089 0.90774
 C1221 C 0.50894 0.87196 0.98455
 C1222 C 0.50420 0.85616 0.97146
 C1223 C 0.51875 0.84398 0.96461
 C1224 C 0.53814 0.84754 0.97128
 C1225 C 0.54291 0.86331 0.98431
 C1226 C 0.52840 0.87583 0.99095
 N1227 N 0.51370 0.82850 0.95046
 N1228 N 0.52657 0.81735 0.94355
 C1229 C 0.52220 0.80212 0.92900
 C1230 C 0.53743 0.79075 0.92228
 C1231 C 0.53402 0.77622 0.90756
 C1232 C 0.51522 0.77284 0.89925
 C1233 C 0.49983 0.78406 0.90622
 C1234 C 0.50329 0.79866 0.92098
 H1235 H 0.49741 0.88132 0.98929
 H1236 H 0.48920 0.85357 0.96643
 H1237 H 0.54966 0.83826 0.96631
 H1238 H 0.55797 0.86564 0.98914
 H1239 H 0.55204 0.79327 0.92840
 H1240 H 0.54609 0.76755 0.90281
 H1241 H 0.48525 0.78189 0.89996
 H1242 H 0.49130 0.80734 0.92592
 C1243 C 0.05018 0.38498 0.46695
 C1244 C 0.04613 0.37034 0.45237
 C1245 C 0.03135 0.35565 0.45534
 C1246 C 0.02060 0.35571 0.47312
 C1247 C 0.02458 0.37033 0.48765
 C1248 C 0.03938 0.38517 0.48474
 N1249 N 0.02764 0.34079 0.44021
 N1250 N 0.01485 0.32668 0.44233
 C1251 C 0.01130 0.31171 0.42728
 C1252 C -0.00170 0.29567 0.43122
 C1253 C -0.00476 0.28036 0.41715
 C1254 C 0.00520 0.28086 0.39886
 C1255 C 0.01773 0.29739 0.39473
 C1256 C 0.02082 0.31260 0.40881
 H1257 H 0.06158 0.39623 0.46416
 H1258 H 0.05452 0.37044 0.43871
 H1259 H 0.00915 0.34447 0.47581
 H1260 H 0.01612 0.36981 0.50124
 H1261 H -0.00920 0.29486 0.44538
 H1262 H -0.01454 0.26798 0.42088
 H1263 H 0.02518 0.29865 0.38059
 H1264 H 0.03074 0.32498 0.40529
 C1265 C 0.38737 0.52209 0.50462
 C1266 C 0.37148 0.53399 0.50778
 C1267 C 0.36282 0.54318 0.49182
 C1268 C 0.37040 0.54048 0.47257
 C1269 C 0.38641 0.52880 0.46943
 C1270 C 0.39505 0.51942 0.48540
 N1271 N 0.34659 0.55535 0.49545
 N1272 N 0.33679 0.56198 0.48118
 C1273 C 0.32084 0.57463 0.48408
 C1274 C 0.31005 0.57969 0.46746
 C1275 C 0.29499 0.59270 0.46936
 C1276 C 0.29053 0.60114 0.48799
 C1277 C 0.30111 0.59571 0.50479
 C1278 C 0.31616 0.58254 0.50287
 H1279 H 0.39379 0.51522 0.51726
 H1280 H 0.36585 0.53599 0.52270
 H1281 H 0.36402 0.54747 0.45996
 H1282 H 0.39183 0.52693 0.45442
 H1283 H 0.31344 0.57360 0.45293
 H1284 H 0.28685 0.59614 0.45618
 H1285 H 0.29817 0.60207 0.51930
 H1286 H 0.32438 0.57887 0.51593
 C1287 C 0.89229 0.02265 -0.00100
 C1288 C 0.87616 0.03429 0.00184
 C1289 C 0.86664 0.04201 -0.01446
 C1290 C 0.87364 0.03809 -0.03374
 C1291 C 0.88987 0.02663 -0.03659
 C1292 C 0.89935 0.01870 -0.02026
 N1293 N 0.85000 0.05373 -0.01117
 N1294 N 0.83976 0.05927 -0.02564
 C1295 C 0.82314 0.07114 -0.02330
 C1296 C 0.81219 0.07488 -0.04020
 C1297 C 0.79612 0.08667 -0.03892
 C1298 C 0.79076 0.09530 -0.02063
 C1299 C 0.80160 0.09129 -0.00352
 C1300 C 0.81772 0.07928 -0.00483
 H1301 H 0.89935 0.01695 0.01193
 H1302 H 0.87098 0.03722 0.01678
 H1303 H 0.86659 0.04391 -0.04662
 H1304 H 0.89480 0.02377 -0.05161
 H1305 H 0.81613 0.06857 -0.05448
 H1306 H 0.78782 0.08886 -0.05233
 H1307 H 0.79792 0.09773 0.01075
 H1308 H 0.82602 0.07658 0.00846
 C1309 C 0.63124 -0.00212 0.01092
 C1310 C 0.64653 0.01065 0.00465
 C1311 C 0.65651 0.02336 0.01822
 C1312 C 0.65086 0.02337 0.03832
 C1313 C 0.63537 0.01066 0.04464
 C1314 C 0.62550 -0.00233 0.03099
 N1315 N 0.67197 0.03625 0.01089
 N1316 N 0.68285 0.04761 0.02198
 C1317 C 0.69782 0.06048 0.01356
 C1318 C 0.70978 0.07267 0.02608
 C1319 C 0.72380 0.08603 0.01806
 C1320 C 0.72593 0.08746 -0.00266
 C1321 C 0.71425 0.07487 -0.01515
 C1322 C 0.70037 0.06150 -0.00715
 H1323 H 0.62376 -0.01161 -0.00008
 H1324 H 0.65063 0.01067 -0.01091
 H1325 H 0.65833 0.03321 0.04905
 H1326 H 0.63129 0.01081 0.06019
 H1327 H 0.70799 0.07205 0.04205
 H1328 H 0.73247 0.09570 0.02802
 H1329 H 0.71576 0.07548 -0.03116
 H1330 H 0.69143 0.05219 -0.01720
 C1331 C 0.12012 0.53314 0.54267
 C1332 C 0.13469 0.54776 0.53883
 C1333 C 0.15247 0.54285 0.53021
 C1334 C 0.15553 0.52303 0.52533
 C1335 C 0.14083 0.50841 0.52887
 C1336 C 0.12298 0.51332 0.53761
 N1337 N 0.16687 0.55830 0.52607
 N1338 N 0.18441 0.55491 0.52122
 C1339 C 0.19844 0.57051 0.51642
 C1340 C 0.21824 0.56639 0.51456
 C1341 C 0.23218 0.58122 0.50938
 C1342 C 0.22640 0.60032 0.50561
 C1343 C 0.20653 0.60445 0.50753
 C1344 C 0.19267 0.58971 0.51301
 H1345 H 0.10647 0.53743 0.54923
 H1346 H 0.13212 0.56299 0.54256
 H1347 H 0.16914 0.51890 0.51855
 H1348 H 0.14349 0.49325 0.52492
 H1349 H 0.22286 0.55164 0.51707
 H1350 H 0.24737 0.57762 0.50780
 H1351 H 0.20175 0.61911 0.50484
 H1352 H 0.17744 0.59325 0.51427
 C1353 C 0.10727 0.47561 -0.03563
 C1354 C 0.12136 0.46196 -0.03208
 C1355 C 0.13980 0.46815 -0.02463
 C1356 C 0.14402 0.48829 -0.02046
 C1357 C 0.12976 0.50200 -0.02373
 C1358 C 0.11129 0.49577 -0.03148
 N1359 N 0.15361 0.45351 -0.02099
 N1360 N 0.17161 0.45759 -0.01701
 C1361 C 0.18464 0.44230 -0.01289
 C1362 C 0.20481 0.44690 -0.01121
 C1363 C 0.21769 0.43227 -0.00654
 C1364 C 0.21046 0.41292 -0.00319
 C1365 C 0.19027 0.40828 -0.00513
 C1366 C 0.17748 0.42279 -0.01003
 H1367 H 0.09311 0.47028 -0.04133
 H1368 H 0.11791 0.44647 -0.03519
 H1369 H 0.15818 0.49336 -0.01454
 H1370 H 0.13325 0.51745 -0.02046
 H1371 H 0.21053 0.46187 -0.01332
 H1372 H 0.23314 0.43623 -0.00485
 H1373 H 0.18439 0.39341 -0.00273
 H1374 H 0.16196 0.41881 -0.01121
 C1375 C 0.60687 0.97426 0.46068
 C1376 C 0.62123 0.96060 0.46281
 C1377 C 0.64004 0.96666 0.46936
 C1378 C 0.64436 0.98667 0.47405
 C1379 C 0.62987 1.00038 0.47220
 C1380 C 0.61101 0.99429 0.46539
 N1381 N 0.65415 0.95205 0.47171
 N1382 N 0.67224 0.95627 0.47502
 C1383 C 0.68569 0.94111 0.47809
 C1384 C 0.70578 0.94616 0.47982
 C1385 C 0.71902 0.93174 0.48402
 C1386 C 0.71224 0.91216 0.48681
 C1387 C 0.69217 0.90704 0.48466
 C1388 C 0.67901 0.92135 0.48024
 H1389 H 0.59242 0.96906 0.45565
 H1390 H 0.61771 0.94519 0.45932
 H1391 H 0.65880 0.99165 0.47930
 H1392 H 0.63349 1.01573 0.47584
 H1393 H 0.71112 0.96133 0.47827
 H1394 H 0.73438 0.93604 0.48594
 H1395 H 0.68666 0.89198 0.48670
 H1396 H 0.66356 0.91704 0.47901
 C1397 C 0.89046 0.96615 0.52990
 C1398 C 0.87549 0.95211 0.52501
 C1399 C 0.85963 0.95714 0.51337
 C1400 C 0.85906 0.97638 0.50622
 C1401 C 0.87405 0.99046 0.51108
 C1402 C 0.88981 0.98558 0.52321
 N1403 N 0.84387 0.94275 0.51000
 N1404 N 0.82876 0.94620 0.49981
 C1405 C 0.81269 0.93191 0.49766
 C1406 C 0.79599 0.93680 0.48716
 C1407 C 0.77930 0.92396 0.48660
 C1408 C 0.77901 0.90605 0.49673
 C1409 C 0.79621 0.90076 0.50637
 C1410 C 0.81285 0.91357 0.50689
 H1411 H 0.90244 0.96172 0.53904
 H1412 H 0.87606 0.93733 0.53062
 H1413 H 0.84688 0.98063 0.49724
 H1414 H 0.87298 1.00526 0.50571
 H1415 H 0.79570 0.95086 0.47991
 H1416 H 0.76648 0.92847 0.47887
 H1417 H 0.79677 0.88681 0.51377
 H1418 H 0.82565 0.90932 0.51492
 C1419 C 0.38868 0.46496 0.04432
 C1420 C 0.37297 0.45141 0.04048
 C1421 C 0.35828 0.45575 0.02699
 C1422 C 0.35956 0.47378 0.01714
 C1423 C 0.37528 0.48731 0.02090
 C1424 C 0.38997 0.48312 0.03463
 N1425 N 0.34200 0.44187 0.02406
 N1426 N 0.32771 0.44514 0.01266
 C1427 C 0.31123 0.43137 0.01042
 C1428 C 0.29503 0.43657 -0.00069
 C1429 C 0.27809 0.42409 -0.00173
 C1430 C 0.27707 0.40619 0.00842
 C1431 C 0.29380 0.40061 0.01873
 C1432 C 0.31065 0.41310 0.01981
 H1433 H 0.39981 0.46113 0.05480
 H1434 H 0.37212 0.43755 0.04817
 H1435 H 0.34833 0.47749 0.00669
 H1436 H 0.37569 0.50118 0.01327
 H1437 H 0.29534 0.45058 -0.00810
 H1438 H 0.26567 0.42886 -0.00994
 H1439 H 0.29388 0.38664 0.02615
 H1440 H 0.32309 0.40858 0.02825
 C1441 C 0.52033 0.49441 0.38677
 C1442 C 0.53249 0.49696 0.37015
 C1443 C 0.54149 0.48087 0.36144
 C1444 C 0.53837 0.46214 0.36975
 C1445 C 0.52646 0.45963 0.38651
 C1446 C 0.51725 0.47571 0.39516
 N1447 N 0.55378 0.48380 0.34434
 N1448 N 0.55980 0.46925 0.33428
 C1449 C 0.57246 0.47131 0.31739
 C1450 C 0.57634 0.45440 0.30622
 C1451 C 0.58918 0.45545 0.29012
 C1452 C 0.59871 0.47348 0.28497
 C1453 C 0.59453 0.49059 0.29599
 C1454 C 0.58147 0.48953 0.31208
 H1455 H 0.51359 0.50713 0.39319
 H1456 H 0.53481 0.51148 0.36397
 H1457 H 0.54521 0.44946 0.36338
 H1458 H 0.52427 0.44502 0.39249
 H1459 H 0.56939 0.44031 0.31007
 H1460 H 0.59159 0.44205 0.28169
 H1461 H 0.60172 0.50467 0.29254
 H1462 H 0.57872 0.50281 0.32058
 C1463 C 0.04312 -0.03592 0.89408
 C1464 C 0.05636 -0.03379 0.87836
 C1465 C 0.05206 -0.02237 0.86204
 C1466 C 0.03427 -0.01286 0.86166
 C1467 C 0.02097 -0.01494 0.87745
 C1468 C 0.02520 -0.02661 0.89382
 N1469 N 0.06590 -0.02110 0.84605
 N1470 N 0.06326 -0.01135 0.83040
 C1471 C 0.07738 -0.01087 0.81457
 C1472 C 0.07353 -0.00065 0.79725
 C1473 C 0.08664 -0.00079 0.78122
 C1474 C 0.10384 -0.01124 0.78229
 C1475 C 0.10788 -0.02109 0.79990
 C1476 C 0.09480 -0.02093 0.81586
 H1477 H 0.04709 -0.04481 0.90646
 H1478 H 0.07003 -0.04117 0.87885
 H1479 H 0.03061 -0.00396 0.84916
 H1480 H 0.00730 -0.00762 0.87667
 H1481 H 0.06015 0.00714 0.79602
 H1482 H 0.08298 0.00673 0.76780
 H1483 H 0.12116 -0.02900 0.80133
 H1484 H 0.09824 -0.02886 0.82910
 C1485 C 0.01241 0.01094 0.62332
 C1486 C 0.02512 0.00566 0.63829
 C1487 C 0.03701 0.01994 0.64832
 C1488 C 0.03618 0.03981 0.64312
 C1489 C 0.02343 0.04517 0.62800
 C1490 C 0.01132 0.03077 0.61800
 N1491 N 0.04988 0.01353 0.66340
 N1492 N 0.06097 0.02511 0.67405
 C1493 C 0.07372 0.01744 0.68866
 C1494 C 0.08593 0.03039 0.70015
 C1495 C 0.09905 0.02308 0.71387
 C1496 C 0.10025 0.00267 0.71618
 C1497 C 0.08763 -0.01024 0.70497
 C1498 C 0.07452 -0.00296 0.69137
 H1499 H 0.00365 -0.00065 0.61582
 H1500 H 0.02575 -0.00971 0.64208
 H1501 H 0.04534 0.05110 0.65066
 H1502 H 0.02293 0.06056 0.62430
 H1503 H 0.08547 0.04615 0.69827
 H1504 H 0.10863 0.03338 0.72218
 H1505 H 0.08788 -0.02603 0.70669
 H1506 H 0.06517 -0.01335 0.68284
 C1507 C 0.52714 0.54967 0.13194
 C1508 C 0.54024 0.54583 0.14728
 C1509 C 0.54039 0.52703 0.15543
 C1510 C 0.52707 0.51213 0.14818
 C1511 C 0.51397 0.51595 0.13300
 C1512 C 0.51385 0.53473 0.12461
 N1513 N 0.55434 0.52314 0.17066
 N1514 N 0.55575 0.50579 0.17710
 C1515 C 0.56950 0.50075 0.19200
 C1516 C 0.57116 0.48083 0.19610
 C1517 C 0.58496 0.47504 0.20981
 C1518 C 0.59727 0.48915 0.21986
 C1519 C 0.59522 0.50922 0.21623
 C1520 C 0.58150 0.51502 0.20225
 H1521 H 0.52737 0.56432 0.12591
 H1522 H 0.55042 0.55747 0.15270
 H1523 H 0.52685 0.49745 0.15414
 H1524 H 0.50419 0.50397 0.12766
 H1525 H 0.56192 0.46972 0.18838
 H1526 H 0.58603 0.45948 0.21255
 H1527 H 0.60459 0.52035 0.22369
 H1528 H 0.58041 0.53054 0.19935
 C1529 C 0.47060 -0.03079 0.10601
 C1530 C 0.45657 -0.02778 0.12067
 C1531 C 0.46216 -0.02489 0.14053
 C1532 C 0.48212 -0.02486 0.14567
 C1533 C 0.49625 -0.02771 0.13094
 C1534 C 0.49060 -0.03082 0.11097
 N1535 N 0.44725 -0.02149 0.15495
 N1536 N 0.45061 -0.02006 0.17355
 C1537 C 0.43529 -0.01592 0.18733
 C1538 C 0.43942 -0.01481 0.20774
 C1539 C 0.42500 -0.00947 0.22133
 C1540 C 0.40632 -0.00500 0.21462
 C1541 C 0.40204 -0.00667 0.19422
 C1542 C 0.41635 -0.01213 0.18070
 H1543 H 0.46575 -0.03290 0.09076
 H1544 H 0.44124 -0.02769 0.11654
 H1545 H 0.48677 -0.02256 0.16096
 H1546 H 0.51152 -0.02780 0.13524
 H1547 H 0.45396 -0.01766 0.21305
 H1548 H 0.42871 -0.00806 0.23692
 H1549 H 0.38764 -0.00353 0.18872
 H1550 H 0.41271 -0.01297 0.16503
 C1551 C 0.97207 0.45575 0.61154
 C1552 C 0.95752 0.45865 0.62570
 C1553 C 0.96217 0.46812 0.64386
 C1554 C 0.98165 0.47479 0.64775
 C1555 C 0.99621 0.47215 0.63345
 C1556 C 0.99155 0.46258 0.61521
 N1557 N 0.94670 0.47153 0.65763
 N1558 N 0.94994 0.47768 0.67538
 C1559 C 0.93425 0.48204 0.68860
 C1560 C 0.93856 0.48708 0.70847
 C1561 C 0.92376 0.49300 0.72129
 C1562 C 0.90451 0.49406 0.71431
 C1563 C 0.90009 0.48866 0.69453
 C1564 C 0.91481 0.48254 0.68177
 H1565 H 0.96795 0.44854 0.59754
 H1566 H 0.94253 0.45360 0.62249
 H1567 H 0.98555 0.48230 0.66166
 H1568 H 1.01111 0.47746 0.63672
 H1569 H 0.95349 0.48692 0.71386
 H1570 H 0.92755 0.49768 0.73632
 H1571 H 0.88530 0.48957 0.68888
 H1572 H 0.91112 0.47882 0.66645
 C1573 C 0.96192 0.53990 0.89120
 C1574 C 0.94807 0.53654 0.87611
 C1575 C 0.95193 0.52418 0.85990
 C1576 C 0.96979 0.51483 0.85905
 C1577 C 0.98374 0.51820 0.87416
 C1578 C 0.98005 0.53097 0.89031
 N1579 N 0.93783 0.52222 0.84418
 N1580 N 0.93988 0.51103 0.82900
 C1581 C 0.92588 0.51024 0.81310
 C1582 C 0.92857 0.49760 0.79678
 C1583 C 0.91592 0.49763 0.78041
 C1584 C 0.90050 0.51058 0.78002
 C1585 C 0.89743 0.52270 0.79682
 C1586 C 0.90999 0.52257 0.81317
 H1587 H 0.95835 0.54958 0.90349
 H1588 H 0.93433 0.54381 0.87692
 H1589 H 0.97312 0.50525 0.84658
 H1590 H 0.99752 0.51111 0.87292
 H1591 H 0.94072 0.48796 0.79658
 H1592 H 0.91865 0.48790 0.76794
 H1593 H 0.88535 0.53240 0.79737
 H1594 H 0.90745 0.53237 0.82569
 C1595 C 0.46289 0.04576 0.39115
 C1596 C 0.44869 0.04201 0.37639
 C1597 C 0.45128 0.02758 0.36164
 C1598 C 0.46813 0.01659 0.36198
 C1599 C 0.48230 0.02025 0.37676
 C1600 C 0.47994 0.03501 0.39141
 N1601 N 0.43701 0.02494 0.34609
 N1602 N 0.43905 0.01287 0.33160
 C1603 C 0.42513 0.01085 0.31568
 C1604 C 0.42921 -0.00116 0.29923
 C1605 C 0.41675 -0.00212 0.28270
 C1606 C 0.39996 0.00902 0.28233
 C1607 C 0.39545 0.02033 0.29935
 C1608 C 0.40795 0.02133 0.31581
 H1609 H 0.46046 0.05706 0.40230
 H1610 H 0.43575 0.05058 0.37627
 H1611 H 0.47047 0.00536 0.35071
 H1612 H 0.49527 0.01176 0.37639
 H1613 H 0.44238 -0.00938 0.29900
 H1614 H 0.42073 -0.01111 0.27008
 H1615 H 0.38231 0.02857 0.29999
 H1616 H 0.40433 0.03053 0.32848
   
