data_POSCAR
  _audit_creation_date              2014-09-24
  _audit_creation_method            'ToBaCCo'
  _symmetry_space_group_name_H-M    'P1'
  _symmetry_Int_Tables_number       1
  _symmetry_cell_setting            triclinic
  loop_
  _symmetry_equiv_pos_as_xyz
 x,y,z
_cell_length_a 66.3296
_cell_length_b 66.0694
_cell_length_c 69.3418
_cell_angle_alpha 90.275900
_cell_angle_beta 88.866400
_cell_angle_gamma 90.761900
loop_
  _atom_site_label
  _atom_site_type_symbol
  _atom_site_fract_x
  _atom_site_fract_y
  _atom_site_fract_z
C1 C 0.43068 0.00208 0.27661
 H2 H 0.43881 0.00364 0.26308
 C3 C 0.44154 0.00031 0.29360
 H4 H 0.45787 0.00083 0.29288
 C5 C 0.39981 -0.00158 0.29402
 H6 H 0.38355 -0.00283 0.29407
 C7 C 0.41009 -0.00372 0.31130
 H8 H 0.40158 -0.00605 0.32461
 N9 N 0.41014 0.00132 0.27707
 C10 C 0.41053 -0.01580 0.21910
 H11 H 0.39913 -0.02735 0.22166
 C12 C 0.42260 -0.01673 0.20237
 H13 H 0.42025 -0.02903 0.19226
 C14 C 0.42666 0.01477 0.22852
 H15 H 0.42793 0.02722 0.23863
 C16 C 0.43899 0.01446 0.21193
 H17 H 0.44993 0.02655 0.20959
 Zn18 Zn 0.39493 0.00165 0.25386
 N19 N 0.41267 -0.00018 0.23179
 C20 C 0.38193 0.03777 0.23595
 N21 N 0.37958 0.02612 0.25201
 C22 C 0.36662 0.03173 0.26648
 C23 C 0.35585 0.04979 0.26528
 C24 C 0.37176 0.05606 0.23431
 C25 C 0.38612 -0.03959 0.25835
 C26 C 0.37441 -0.05726 0.25989
 C27 C 0.34486 -0.03746 0.25426
 C28 C 0.35725 -0.02017 0.25277
 N29 N 0.37749 -0.02152 0.25481
 H30 H 0.39176 0.03302 0.22427
 H31 H 0.36453 0.02218 0.27897
 H32 H 0.34546 0.05366 0.27690
 H33 H 0.37464 0.06523 0.22164
 H34 H 0.40231 -0.04029 0.25986
 H35 H 0.38257 -0.07110 0.26174
 H36 H 0.32885 -0.03503 0.25336
 H37 H 0.35060 -0.00561 0.25019
 C38 C 0.43697 -0.00138 0.19851
 C39 C 0.43125 -0.00278 0.31123
 C40 C 0.35314 -0.05678 0.25795
 C41 C 0.35851 0.06248 0.24911
 C42 C 0.06986 -0.00325 0.72661
 H43 H 0.06253 -0.00311 0.74065
 C44 C 0.05814 -0.00495 0.71012
 H45 H 0.04188 -0.00587 0.71170
 C46 C 0.09986 -0.00341 0.70752
 H47 H 0.11617 -0.00312 0.70666
 C48 C 0.08872 -0.00527 0.69066
 H49 H 0.09659 -0.00596 0.67685
 N50 N 0.09035 -0.00246 0.72505
 C51 C 0.09074 -0.01852 0.78301
 H52 H 0.10065 -0.03111 0.78036
 C53 C 0.07904 -0.01797 0.79999
 H54 H 0.08019 -0.03021 0.81021
 C55 C 0.07821 0.01325 0.77357
 H56 H 0.07815 0.02546 0.76323
 C57 C 0.06621 0.01439 0.79034
 H58 H 0.05674 0.02744 0.79263
 Zn59 Zn 0.10658 -0.00287 0.74739
 N60 N 0.09002 -0.00311 0.77012
 C61 C 0.13536 0.02184 0.76503
 N62 N 0.12361 0.02050 0.74920
 C63 C 0.12341 0.03571 0.73605
 C64 C 0.13551 0.05305 0.73854
 C65 C 0.14773 0.03881 0.76802
 C66 C 0.11245 -0.04485 0.74431
 C67 C 0.12320 -0.06282 0.74219
 C68 C 0.15415 -0.04317 0.74179
 C69 C 0.14280 -0.02559 0.74404
 N70 N 0.12233 -0.02673 0.74547
 H71 H 0.13509 0.00964 0.77538
 H72 H 0.11365 0.03457 0.72378
 H73 H 0.13484 0.06510 0.72807
 H74 H 0.15719 0.03927 0.78056
 H75 H 0.09615 -0.04534 0.74511
 H76 H 0.11498 -0.07707 0.74182
 H77 H 0.17039 -0.04183 0.74044
 H78 H 0.15040 -0.01103 0.74435
 C79 C 0.06653 -0.00135 0.80387
 C80 C 0.06755 -0.00617 0.69183
 C81 C 0.14439 -0.06218 0.74093
 C82 C 0.14792 0.05481 0.75473
 C83 C 0.57623 0.51235 0.22321
 H84 H 0.57457 0.52417 0.23396
 C85 C 0.56372 0.51192 0.20718
 H86 H 0.55242 0.52345 0.20579
 C87 C 0.59293 0.48295 0.21209
 H88 H 0.60453 0.47183 0.21379
 C89 C 0.58082 0.48197 0.19586
 H90 H 0.58348 0.47020 0.18524
 N91 N 0.59036 0.49786 0.22549
 C92 C 0.60018 0.49459 0.28762
 H93 H 0.61648 0.49550 0.28781
 C94 C 0.58916 0.49332 0.30494
 H95 H 0.59719 0.49352 0.31838
 C96 C 0.57011 0.49395 0.26978
 H97 H 0.56271 0.49398 0.25606
 C98 C 0.55848 0.49249 0.28678
 H99 H 0.54224 0.49130 0.28585
 Zn100 Zn 0.60686 0.49850 0.24772
 N101 N 0.59058 0.49536 0.27050
 C102 C 0.61846 0.53644 0.26416
 N103 N 0.62111 0.52397 0.24863
 C104 C 0.63343 0.52961 0.23361
 C105 C 0.64417 0.54803 0.23417
 C106 C 0.62889 0.55491 0.26532
 C107 C 0.61646 0.45745 0.24836
 C108 C 0.62823 0.44016 0.24631
 C109 C 0.65743 0.46169 0.24078
 C110 C 0.64508 0.47862 0.24302
 N111 N 0.62491 0.47622 0.24640
 H112 H 0.60822 0.53217 0.27575
 H113 H 0.63498 0.51975 0.22118
 H114 H 0.65381 0.55219 0.22202
 H115 H 0.62683 0.56423 0.27807
 H116 H 0.60042 0.45592 0.25121
 H117 H 0.62110 0.42543 0.24801
 H118 H 0.67332 0.46397 0.23754
 H119 H 0.65163 0.49360 0.24171
 C120 C 0.56796 0.49238 0.30473
 C121 C 0.56592 0.49655 0.19321
 C122 C 0.64900 0.44207 0.24220
 C123 C 0.64208 0.56096 0.25027
 C124 C 0.92521 0.51110 0.77622
 H125 H 0.92561 0.52368 0.76633
 C126 C 0.93709 0.51191 0.79268
 H127 H 0.94704 0.52485 0.79423
 C128 C 0.91169 0.47936 0.78556
 H129 H 0.90142 0.46686 0.78318
 C130 C 0.92319 0.47953 0.80222
 H131 H 0.92082 0.46717 0.81219
 N132 N 0.91317 0.49476 0.77265
 C133 C 0.91268 0.47680 0.71381
 H134 H 0.89987 0.46665 0.71532
 C135 C 0.92511 0.47540 0.69736
 H136 H 0.92175 0.46407 0.68652
 C137 C 0.93184 0.50467 0.72525
 H138 H 0.93425 0.51636 0.73587
 C139 C 0.94452 0.50394 0.70893
 H140 H 0.95676 0.51486 0.70741
 Zn141 Zn 0.89810 0.49350 0.74930
 N142 N 0.91621 0.49124 0.72746
 C143 C 0.88573 0.52940 0.73080
 N144 N 0.88298 0.51783 0.74685
 C145 C 0.87006 0.52364 0.76124
 C146 C 0.85926 0.54165 0.75976
 C147 C 0.87557 0.54767 0.72889
 C148 C 0.88942 0.45160 0.75034
 C149 C 0.87771 0.43392 0.75184
 C150 C 0.84786 0.45438 0.75283
 C151 C 0.86017 0.47172 0.75117
 N152 N 0.88061 0.47009 0.75021
 H153 H 0.89599 0.52462 0.71944
 H154 H 0.86809 0.51426 0.77390
 H155 H 0.84877 0.54561 0.77126
 H156 H 0.87868 0.55678 0.71623
 H157 H 0.90568 0.45060 0.74943
 H158 H 0.88519 0.41946 0.75168
 H159 H 0.83169 0.45613 0.75407
 H160 H 0.85334 0.48647 0.75091
 C161 C 0.94121 0.48918 0.69469
 C162 C 0.93648 0.49586 0.80615
 C163 C 0.85660 0.43509 0.75333
 C164 C 0.86205 0.55415 0.74347
 C165 C 0.22588 0.39042 0.98719
 H166 H 0.23821 0.39197 0.97683
 C167 C 0.20796 0.40087 0.98441
 H168 H 0.20668 0.41061 0.97199
 C169 C 0.21223 0.37513 1.01547
 H170 H 0.21378 0.36472 1.02731
 C171 C 0.19390 0.38499 1.01302
 H172 H 0.18164 0.38244 1.02331
 N173 N 0.22776 0.37794 1.00259
 C174 C 0.29332 0.36830 1.00463
 H175 H 0.29343 0.35193 1.00464
 C176 C 0.31150 0.37919 1.00570
 H177 H 0.32550 0.37099 1.00602
 C178 C 0.27483 0.39868 1.00422
 H179 H 0.26049 0.40624 1.00415
 C180 C 0.29266 0.41017 1.00538
 H181 H 0.29171 0.42650 1.00610
 Zn182 Zn 0.25141 0.36190 1.00396
 N183 N 0.27546 0.37810 1.00372
 C184 C 0.26564 0.34276 0.96903
 N185 N 0.25053 0.34396 0.98253
 C186 C 0.23322 0.33289 0.98080
 C187 C 0.23051 0.32003 0.96502
 C188 C 0.26363 0.32993 0.95305
 C189 C 0.25235 0.35749 1.04398
 C190 C 0.25351 0.34743 1.06157
 C191 C 0.25293 0.31557 1.04436
 C192 C 0.25184 0.32626 1.02706
 N193 N 0.25142 0.34685 1.02719
 H194 H 0.27910 0.35199 0.97042
 H195 H 0.22137 0.33426 0.99166
 H196 H 0.21658 0.31141 0.96389
 H197 H 0.27561 0.32943 0.94224
 H198 H 0.25240 0.37386 1.04364
 H199 H 0.25451 0.35625 1.07472
 H200 H 0.25292 0.29918 1.04397
 H201 H 0.25153 0.31806 1.01355
 C202 C 0.31139 0.40047 1.00614
 C203 C 0.19158 0.39801 0.99729
 C204 C 0.25376 0.32615 1.06196
 C205 C 0.24579 0.31850 0.95082
 C206 C 0.77541 0.10930 0.98467
 H207 H 0.76318 0.10683 0.97480
 C208 C 0.79275 0.09751 0.98306
 H209 H 0.79341 0.08623 0.97173
 C210 C 0.78951 0.12821 1.01022
 H211 H 0.78830 0.14038 1.02064
 C212 C 0.80735 0.11721 1.00877
 H213 H 0.81916 0.12076 1.01883
 N214 N 0.77400 0.12418 0.99822
 C215 C 0.70943 0.13819 1.00123
 H216 H 0.71081 0.15451 1.00059
 C217 C 0.69041 0.12910 1.00346
 H218 H 0.67727 0.13861 1.00453
 C219 C 0.72511 0.10621 1.00147
 H220 H 0.73867 0.09735 1.00112
 C221 C 0.70631 0.09646 1.00370
 H222 H 0.70565 0.08010 1.00447
 Zn223 Zn 0.75122 0.14147 0.99843
 N224 N 0.72631 0.12674 1.00005
 C225 C 0.73821 0.15558 0.96204
 N226 N 0.75295 0.15688 0.97536
 C227 C 0.77016 0.16780 0.97182
 C228 C 0.77322 0.17765 0.95417
 C229 C 0.74062 0.16525 0.94425
 C230 C 0.74885 0.14863 1.03761
 C231 C 0.74610 0.15950 1.05470
 C232 C 0.74917 0.19056 1.03658
 C233 C 0.75172 0.17903 1.01969
 N234 N 0.75134 0.15844 1.02054
 H235 H 0.72480 0.14656 0.96491
 H236 H 0.78180 0.16832 0.98253
 H237 H 0.78734 0.18563 0.95141
 H238 H 0.72872 0.16390 0.93384
 H239 H 0.74842 0.13226 1.03782
 H240 H 0.74393 0.15135 1.06812
 H241 H 0.74900 0.20692 1.03569
 H242 H 0.75334 0.18652 1.00592
 C243 C 0.68859 0.10793 1.00464
 C244 C 0.80938 0.10151 0.99499
 C245 C 0.74588 0.18074 1.05431
 C246 C 0.75848 0.17617 0.93994
 C247 C 0.27333 0.61141 0.48137
 H248 H 0.26131 0.60988 0.47113
 C249 C 0.29062 0.59965 0.47922
 H250 H 0.29176 0.58894 0.46739
 C251 C 0.28684 0.62782 0.50878
 H252 H 0.28548 0.63910 0.52006
 C253 C 0.30457 0.61668 0.50691
 H254 H 0.31659 0.61920 0.51703
 N255 N 0.27164 0.62504 0.49609
 C256 C 0.20691 0.63827 0.49902
 H257 H 0.20796 0.65462 0.49904
 C258 C 0.18805 0.62871 0.50066
 H259 H 0.17469 0.63790 0.50195
 C260 C 0.22323 0.60662 0.49819
 H261 H 0.23698 0.59804 0.49764
 C262 C 0.20462 0.59641 0.49982
 H263 H 0.20430 0.58003 0.49997
 Zn264 Zn 0.24882 0.64225 0.49698
 N265 N 0.22404 0.62721 0.49763
 C266 C 0.23634 0.65801 0.46101
 N267 N 0.25078 0.65878 0.47465
 C268 C 0.26798 0.66993 0.47189
 C269 C 0.27136 0.68058 0.45472
 C270 C 0.23907 0.66847 0.44367
 C271 C 0.24625 0.64763 0.53653
 C272 C 0.24352 0.65778 0.55404
 C273 C 0.24621 0.68957 0.53708
 C274 C 0.24880 0.67876 0.51977
 N275 N 0.24863 0.65815 0.51983
 H276 H 0.22293 0.64879 0.46326
 H277 H 0.27940 0.67001 0.48283
 H278 H 0.28547 0.68876 0.45256
 H279 H 0.22743 0.66751 0.43296
 H280 H 0.24598 0.63126 0.53613
 H281 H 0.24155 0.64905 0.56714
 H282 H 0.24589 0.70595 0.53678
 H283 H 0.25030 0.68683 0.50629
 C284 C 0.18665 0.60747 0.50104
 C285 C 0.30662 0.60240 0.49196
 C286 C 0.24314 0.67902 0.55447
 C287 C 0.25695 0.67965 0.44015
 C288 C 0.72067 0.88834 0.48555
 H289 H 0.73247 0.89088 0.47481
 C290 C 0.70249 0.89875 0.48439
 H291 H 0.70047 0.90944 0.47281
 C292 C 0.70862 0.87072 0.51321
 H293 H 0.71089 0.85947 0.52419
 C294 C 0.69006 0.88049 0.51234
 H295 H 0.67834 0.87698 0.52294
 N296 N 0.72350 0.87475 0.49992
 C297 C 0.78927 0.86618 0.49916
 H298 H 0.78950 0.84981 0.49855
 C299 C 0.80739 0.87714 0.50021
 H300 H 0.82146 0.86903 0.49993
 C301 C 0.77053 0.89641 0.50034
 H302 H 0.75613 0.90386 0.50094
 C303 C 0.78832 0.90798 0.50150
 H304 H 0.78730 0.92427 0.50286
 Zn305 Zn 0.74759 0.85920 0.49945
 N306 N 0.77131 0.87587 0.49908
 C307 C 0.76106 0.84234 0.46328
 N308 N 0.74635 0.84233 0.47724
 C309 C 0.72937 0.83075 0.47548
 C310 C 0.72658 0.81866 0.45915
 C311 C 0.75898 0.83027 0.44679
 C312 C 0.75015 0.85304 0.53907
 C313 C 0.75257 0.84233 0.55616
 C314 C 0.75316 0.81126 0.53767
 C315 C 0.75068 0.82259 0.52090
 N316 N 0.74911 0.84309 0.52192
 H317 H 0.77425 0.85195 0.46471
 H318 H 0.71783 0.83115 0.48672
 H319 H 0.71289 0.80966 0.45796
 H320 H 0.77064 0.83074 0.43564
 H321 H 0.74930 0.86938 0.53942
 H322 H 0.75356 0.85060 0.56963
 H323 H 0.75414 0.79495 0.53662
 H324 H 0.75028 0.81499 0.50707
 C325 C 0.80713 0.89837 0.50150
 C326 C 0.68681 0.89470 0.49777
 C327 C 0.75409 0.82114 0.55563
 C328 C 0.74146 0.81838 0.44450
 C329 C 0.00982 0.28268 0.38418
 H330 H 0.02281 0.27354 0.38694
 C331 C 0.01040 0.30322 0.38857
 H332 H 0.02354 0.30951 0.39555
 C333 C -0.02287 0.28561 0.37137
 H334 H -0.03564 0.27884 0.36430
 C335 C -0.02294 0.30627 0.37551
 H336 H -0.03590 0.31515 0.37180
 N337 N -0.00683 0.27419 0.37620
 C338 C -0.02106 0.21597 0.39560
 H339 H -0.03082 0.21231 0.38381
 C340 C -0.02199 0.20397 0.41199
 H341 H -0.03250 0.19130 0.41207
 C342 C 0.00585 0.23529 0.40840
 H343 H 0.01684 0.24737 0.40689
 C344 C 0.00586 0.22327 0.42488
 H345 H 0.01662 0.22681 0.43597
 Zn346 Zn -0.00584 0.24630 0.37087
 N347 N -0.00733 0.23132 0.39405
 C348 C 0.03187 0.22792 0.36528
 N349 N 0.01890 0.24178 0.35842
 C350 C 0.02427 0.25452 0.34384
 C351 C 0.04375 0.25424 0.33607
 C352 C 0.05155 0.22713 0.35795
 C353 C -0.04621 0.24019 0.36247
 C354 C -0.06274 0.23468 0.35156
 C355 C -0.04001 0.22656 0.32499
 C356 C -0.02381 0.23182 0.33662
 N357 N -0.02723 0.23866 0.35491
 H358 H 0.02720 0.21797 0.37690
 H359 H 0.01359 0.26545 0.33881
 H360 H 0.04792 0.26471 0.32466
 H361 H 0.06199 0.21660 0.36409
 H362 H -0.04845 0.24569 0.37707
 H363 H -0.07780 0.23625 0.35766
 H364 H -0.03729 0.22153 0.31029
 H365 H -0.00857 0.23063 0.33097
 C366 C -0.00807 0.20711 0.42684
 C367 C -0.00624 0.31522 0.38446
 C368 C -0.05968 0.22795 0.33258
 C369 C 0.05778 0.24076 0.34348
 C370 C 0.02093 0.72279 0.11116
 H371 H 0.03466 0.73164 0.11268
 C372 C 0.02115 0.70486 0.10054
 H373 H 0.03506 0.70018 0.09353
 C374 C -0.01387 0.71822 0.11865
 H375 H -0.02735 0.72325 0.12611
 C376 C -0.01430 0.70009 0.10835
 H377 H -0.02819 0.69132 0.10802
 N378 N 0.00355 0.72918 0.11974
 C379 C 0.00905 0.79364 0.12863
 H380 H 0.00426 0.79433 0.14363
 C381 C 0.01203 0.81141 0.11825
 H382 H 0.00923 0.82576 0.12534
 C383 C 0.01701 0.77386 0.10095
 H384 H 0.01844 0.75922 0.09416
 C385 C 0.02040 0.79128 0.09005
 H386 H 0.02483 0.78982 0.07500
 Zn387 Zn 0.00469 0.75269 0.13484
 N388 N 0.01145 0.77539 0.11987
 C389 C 0.03874 0.76256 0.15661
 N390 N 0.02387 0.74862 0.15371
 C391 C 0.02284 0.73101 0.16378
 C392 C 0.03732 0.72679 0.17743
 C393 C 0.05336 0.75907 0.17024
 C394 C -0.03570 0.76278 0.13481
 C395 C -0.05468 0.76694 0.14263
 C396 C -0.04152 0.76122 0.17437
 C397 C -0.02283 0.75719 0.16586
 N398 N -0.02040 0.75770 0.14643
 H399 H 0.03948 0.77625 0.14819
 H400 H 0.01088 0.72016 0.16098
 H401 H 0.03654 0.71263 0.18523
 H402 H 0.06539 0.77011 0.17211
 H403 H -0.03306 0.76370 0.11939
 H404 H -0.06600 0.77167 0.13269
 H405 H -0.04271 0.75929 0.18981
 H406 H -0.01032 0.75343 0.17485
 C407 C 0.01761 0.81036 0.09864
 C408 C 0.00337 0.69321 0.09914
 C409 C -0.05822 0.76597 0.16284
 C410 C 0.05279 0.74095 0.18071
 C411 C 0.51591 0.22197 0.60542
 H412 H 0.53026 0.22995 0.60495
 C413 C 0.51291 0.20501 0.59382
 H414 H 0.52507 0.19988 0.58444
 C415 C 0.48304 0.21827 0.61921
 H416 H 0.47165 0.22324 0.62945
 C417 C 0.47946 0.20111 0.60797
 H418 H 0.46517 0.19309 0.60943
 N419 N 0.50106 0.22825 0.61773
 C420 C 0.51305 0.29108 0.63053
 H421 H 0.51247 0.29049 0.64612
 C422 C 0.51412 0.30967 0.62121
 H423 H 0.51409 0.32340 0.62979
 C424 C 0.51217 0.27372 0.60052
 H425 H 0.51089 0.25974 0.59252
 C426 C 0.51361 0.29196 0.59061
 H427 H 0.51391 0.29172 0.57500
 Zn428 Zn 0.50744 0.24986 0.63411
 N429 N 0.51182 0.27366 0.62012
 C430 C 0.54775 0.25418 0.64480
 N431 N 0.53073 0.24271 0.64692
 C432 C 0.53050 0.22507 0.65694
 C433 C 0.54797 0.21843 0.66562
 C434 C 0.56556 0.24803 0.65306
 C435 C 0.46896 0.26184 0.64399
 C436 C 0.45241 0.26591 0.65593
 C437 C 0.47195 0.25608 0.68338
 C438 C 0.48820 0.25230 0.67089
 N439 N 0.48623 0.25482 0.65158
 H440 H 0.54764 0.26792 0.63643
 H441 H 0.51677 0.21608 0.65797
 H442 H 0.54771 0.20432 0.67351
 H443 H 0.57903 0.25735 0.65137
 H444 H 0.46803 0.26399 0.62858
 H445 H 0.43852 0.27084 0.64960
 H446 H 0.47353 0.25372 0.69872
 H447 H 0.50228 0.24729 0.67664
 C448 C 0.51411 0.31027 0.60098
 C449 C 0.49459 0.19425 0.59523
 C450 C 0.45374 0.26277 0.67585
 C451 C 0.56577 0.22992 0.66353
 C452 C 0.51869 0.78308 0.88006
 H453 H 0.53081 0.77231 0.88049
 C454 C 0.52125 0.80230 0.88794
 H455 H 0.53542 0.80637 0.89451
 C456 C 0.48534 0.79076 0.87100
 H457 H 0.47140 0.78613 0.86439
 C458 C 0.48727 0.81020 0.87865
 H459 H 0.47459 0.82035 0.87823
 N460 N 0.50076 0.77754 0.87237
 C461 C 0.49248 0.71366 0.88024
 H462 H 0.48840 0.70956 0.86570
 C463 C 0.49184 0.69919 0.89470
 H464 H 0.48742 0.68376 0.89127
 C465 C 0.50345 0.73880 0.90242
 H466 H 0.50770 0.75430 0.90539
 C467 C 0.50342 0.72466 0.91727
 H468 H 0.50783 0.72924 0.93162
 Zn469 Zn 0.49834 0.75094 0.86358
 N470 N 0.49832 0.73297 0.88430
 C471 C 0.53328 0.73096 0.85128
 N472 N 0.52041 0.74612 0.84727
 C473 C 0.52438 0.75962 0.83293
 C474 C 0.54230 0.75849 0.82222
 C475 C 0.55136 0.72927 0.84095
 C476 C 0.45708 0.74680 0.86200
 C477 C 0.43848 0.74300 0.85374
 C478 C 0.45543 0.73948 0.82269
 C479 C 0.47375 0.74312 0.83159
 N480 N 0.47415 0.74693 0.85085
 H481 H 0.52999 0.72070 0.86303
 H482 H 0.51394 0.77171 0.83035
 H483 H 0.54550 0.76957 0.81108
 H484 H 0.56187 0.71767 0.84489
 H485 H 0.45801 0.74960 0.87734
 H486 H 0.42492 0.74322 0.86270
 H487 H 0.45518 0.73658 0.80730
 H488 H 0.48760 0.74284 0.82314
 C489 C 0.49752 0.70467 0.91337
 C490 C 0.50524 0.81592 0.88762
 C491 C 0.43758 0.73941 0.83386
 C492 C 0.55620 0.74342 0.82651
 C493 C -0.22629 0.66546 0.96698
 H494 H -0.21260 0.65792 0.97082
 C495 C -0.22693 0.67642 0.94975
 H496 H -0.21373 0.67701 0.94031
 C497 C -0.26033 0.67348 0.97422
 H498 H -0.27333 0.67225 0.98379
 C499 C -0.26169 0.68433 0.95710
 H500 H -0.27579 0.69141 0.95361
 N501 N -0.24300 0.66390 0.97862
 C502 C -0.25151 0.65507 1.04018
 H503 H -0.25449 0.63893 1.04050
 C504 C -0.25254 0.66633 1.05722
 H505 H -0.25585 0.65817 1.07040
 C506 C -0.24205 0.68424 1.02239
 H507 H -0.23789 0.69110 1.00873
 C508 C -0.24280 0.69615 1.03914
 H509 H -0.23983 0.71219 1.03768
 Zn510 Zn -0.24402 0.64735 1.00097
 N511 N -0.24627 0.66408 1.02324
 C512 C -0.20898 0.63317 1.01922
 N513 N -0.22006 0.63147 1.00293
 C514 C -0.21400 0.61909 0.98823
 C515 C -0.19658 0.60749 0.98981
 C516 C -0.19146 0.62194 1.02136
 C517 C -0.28537 0.63870 1.00662
 C518 C -0.30376 0.62849 1.00431
 C519 C -0.28609 0.60192 0.98736
 C520 C -0.26800 0.61268 0.98996
 N521 N -0.26791 0.63080 0.99940
 H522 H -0.21362 0.64329 1.03067
 H523 H -0.22250 0.61842 0.97509
 H524 H -0.19198 0.59789 0.97786
 H525 H -0.18315 0.62336 1.03459
 H526 H -0.28512 0.65323 1.01384
 H527 H -0.31739 0.63511 1.01025
 H528 H -0.28583 0.58774 0.97948
 H529 H -0.25415 0.60665 0.98408
 C530 C -0.24813 0.68734 1.05711
 C531 C -0.24496 0.68562 0.94446
 C532 C -0.30436 0.60991 0.99441
 C533 C -0.18506 0.60878 1.00660
 C534 C -0.24152 0.32630 0.52408
 H535 H -0.23010 0.32546 0.51275
 C536 C -0.24119 0.31343 0.53894
 H537 H -0.22961 0.30207 0.53883
 C538 C -0.27120 0.34224 0.53612
 H539 H -0.28269 0.35359 0.53525
 C540 C -0.27143 0.32846 0.55281
 H541 H -0.28290 0.33097 0.56381
 N542 N -0.25729 0.34088 0.52270
 C543 C -0.25959 0.35286 0.46094
 H544 H -0.25924 0.36923 0.46124
 C545 C -0.25921 0.34260 0.44330
 H546 H -0.25846 0.35131 0.43012
 C547 C -0.26003 0.32183 0.47792
 H548 H -0.26044 0.31378 0.49143
 C549 C -0.25977 0.31093 0.46056
 H550 H -0.26014 0.29455 0.46095
 Zn551 Zn -0.25745 0.35812 0.50073
 N552 N -0.25950 0.34243 0.47779
 C553 C -0.21886 0.36847 0.48540
 N554 N -0.23253 0.37310 0.49961
 C555 C -0.22819 0.38744 0.51311
 C556 C -0.20994 0.39837 0.51208
 C557 C -0.20039 0.37880 0.48399
 C558 C -0.29879 0.36600 0.50222
 C559 C -0.31645 0.37719 0.50420
 C560 C -0.29615 0.40771 0.50496
 C561 C -0.27885 0.39586 0.50308
 N562 N -0.28042 0.37535 0.50215
 H563 H -0.22202 0.35644 0.47528
 H564 H -0.23897 0.39053 0.52461
 H565 H -0.20714 0.41010 0.52267
 H566 H -0.18973 0.37441 0.47277
 H567 H -0.29971 0.34969 0.50097
 H568 H -0.33063 0.36896 0.50375
 H569 H -0.29399 0.42387 0.50652
 H570 H -0.26420 0.40316 0.50256
 C571 C -0.25909 0.32133 0.44291
 C572 C -0.25702 0.31430 0.55458
 C573 C -0.31554 0.39851 0.50584
 C574 C -0.19570 0.39417 0.49730
 C575 C 0.25424 -0.17239 0.02775
 H576 H 0.26719 -0.17541 0.01848
 C577 C 0.25144 -0.18294 0.04413
 H578 H 0.26274 -0.19384 0.04773
 C579 C 0.22459 -0.15330 0.03337
 H580 H 0.21419 -0.14164 0.02958
 C581 C 0.22060 -0.16481 0.05119
 H582 H 0.20665 -0.16151 0.05875
 N583 N 0.24041 -0.15683 0.02255
 C584 C 0.24476 -0.14765 -0.04015
 H585 H 0.24522 -0.13135 -0.04075
 C586 C 0.24487 -0.15880 -0.05729
 H587 H 0.24593 -0.15080 -0.07087
 C588 C 0.24269 -0.17772 -0.02176
 H589 H 0.24160 -0.18507 -0.00790
 C590 C 0.24269 -0.18950 -0.03862
 H591 H 0.24147 -0.20581 -0.03748
 Zn592 Zn 0.24418 -0.14055 -0.00021
 N593 N 0.24386 -0.15715 -0.02280
 C594 C 0.28392 -0.13042 0.01281
 N595 N 0.26934 -0.12574 0.00009
 C596 C 0.27268 -0.11106 -0.01337
 C597 C 0.29132 -0.10094 -0.01478
 C598 C 0.30284 -0.12080 0.01181
 C599 C 0.20402 -0.12998 -0.00664
 C600 C 0.18661 -0.11837 -0.00489
 C601 C 0.20692 -0.09068 0.00714
 C602 C 0.22392 -0.10297 0.00538
 N603 N 0.22215 -0.12230 -0.00121
 H604 H 0.28111 -0.14186 0.02359
 H605 H 0.26081 -0.10704 -0.02302
 H606 H 0.29342 -0.08921 -0.02549
 H607 H 0.31432 -0.12534 0.02172
 H608 H 0.20297 -0.14544 -0.01175
 H609 H 0.17261 -0.12511 -0.00965
 H610 H 0.20895 -0.07577 0.01334
 H611 H 0.23839 -0.09730 0.01008
 C612 C 0.24376 -0.18004 -0.05673
 C613 C 0.23363 -0.17893 0.05719
 C614 C 0.18761 -0.09839 0.00244
 C615 C 0.30688 -0.10591 -0.00224
 C616 C 0.26743 1.17726 0.48044
 H617 H 0.27898 1.17956 0.49106
 C618 C 0.26776 1.18885 0.46355
 H619 H 0.27964 1.20002 0.46119
 C620 C 0.23832 1.15944 0.47014
 H621 H 0.22700 1.14779 0.47247
 C622 C 0.23827 1.17040 0.45302
 H623 H 0.22677 1.16720 0.44252
 N624 N 0.25264 1.16308 0.48356
 C625 C 0.24715 1.15355 0.54578
 H626 H 0.24494 1.13730 0.54548
 C627 C 0.24760 1.16377 0.56340
 H628 H 0.24584 1.15515 0.57658
 C629 C 0.25305 1.18419 0.52887
 H630 H 0.25509 1.19212 0.51539
 C631 C 0.25369 1.19505 0.54625
 H632 H 0.25618 1.21128 0.54595
 Zn633 Zn 0.25168 1.14720 0.50647
 N634 N 0.25032 1.16372 0.52899
 C635 C 0.28807 1.13366 0.52259
 N636 N 0.27544 1.13105 0.50749
 C637 C 0.27989 1.11763 0.49313
 C638 C 0.29726 1.10580 0.49393
 C639 C 0.30553 1.12221 0.52395
 C640 C 0.21004 1.14131 0.50814
 C641 C 0.19150 1.13124 0.50658
 C642 C 0.20928 1.09992 0.50179
 C643 C 0.22755 1.11062 0.50351
 N644 N 0.22761 1.13102 0.50626
 H645 H 0.28475 1.14472 0.53366
 H646 H 0.26994 1.11609 0.48101
 H647 H 0.30055 1.09529 0.48230
 H648 H 0.31503 1.12436 0.53633
 H649 H 0.21048 1.15751 0.51044
 H650 H 0.17777 1.13982 0.50814
 H651 H 0.20959 1.08379 0.49901
 H652 H 0.24161 1.10263 0.50221
 C653 C 0.25117 1.18477 0.56384
 C654 C 0.25308 1.18533 0.44956
 C655 C 0.19088 1.11028 0.50307
 C656 C 0.31036 1.10797 0.50956
 C657 C 0.13559 0.47182 0.26676
 H658 H 0.13682 0.48420 0.27695
 C659 C 0.14585 0.45380 0.26998
 H660 H 0.15509 0.45251 0.28260
 C661 C 0.12151 0.45827 0.23828
 H662 H 0.11184 0.46000 0.22605
 C663 C 0.13122 0.43984 0.24115
 H664 H 0.12919 0.42762 0.23087
 N665 N 0.12375 0.47379 0.25108
 C666 C 0.11606 0.53985 0.24706
 H667 H 0.09976 0.54035 0.24711
 C668 C 0.12727 0.55782 0.24536
 H669 H 0.11935 0.57202 0.24473
 C670 C 0.14588 0.52064 0.24775
 H671 H 0.15310 0.50609 0.24825
 C672 C 0.15772 0.53830 0.24591
 H673 H 0.17397 0.53703 0.24508
 Zn674 Zn 0.10841 0.49793 0.24896
 N675 N 0.12540 0.52170 0.24835
 C676 C 0.08978 0.51498 0.28293
 N677 N 0.09061 0.49860 0.27097
 C678 C 0.07940 0.48164 0.27489
 C679 C 0.06628 0.48096 0.29091
 C680 C 0.07683 0.51497 0.29907
 C681 C 0.09929 0.51059 0.21140
 C682 C 0.08804 0.51266 0.19475
 C683 C 0.06457 0.48760 0.20720
 C684 C 0.07623 0.48624 0.22376
 N685 N 0.09313 0.49786 0.22573
 H686 H 0.09934 0.52803 0.28023
 H687 H 0.08092 0.46843 0.26576
 H688 H 0.05738 0.46738 0.29360
 H689 H 0.07663 0.52809 0.30848
 H690 H 0.11314 0.51921 0.21274
 H691 H 0.09432 0.52250 0.18372
 H692 H 0.05081 0.47869 0.20707
 H693 H 0.07144 0.47613 0.23517
 C694 C 0.14844 0.55729 0.24463
 C695 C 0.14357 0.43742 0.25719
 C696 C 0.07004 0.50125 0.19218
 C697 C 0.06478 0.49783 0.30322
 C698 C -0.13396 1.03114 0.27110
 H699 H -0.13448 1.02041 0.28284
 C700 C -0.14580 1.04850 0.27208
 H701 H -0.15573 1.05066 0.28447
 C702 C -0.12039 1.04109 0.24072
 H703 H -0.11016 1.03837 0.22869
 C704 C -0.13180 1.05875 0.24120
 H705 H -0.13007 1.06939 0.22946
 N706 N -0.12169 1.02767 0.25551
 C707 C -0.11064 0.96225 0.25610
 H708 H -0.09433 0.96218 0.25611
 C709 C -0.12142 0.94397 0.25454
 H710 H -0.11324 0.92990 0.25391
 C711 C -0.14097 0.98074 0.25644
 H712 H -0.14856 0.99509 0.25649
 C713 C -0.15233 0.96283 0.25489
 H714 H -0.16856 0.96373 0.25397
 Zn715 Zn -0.10475 1.00460 0.25578
 N716 N -0.12049 0.98018 0.25702
 C717 C -0.08676 0.99359 0.29150
 N718 N -0.08784 1.00787 0.27749
 C719 C -0.07833 1.02613 0.27935
 C720 C -0.06766 1.03086 0.29600
 C721 C -0.07595 0.99758 0.30829
 C722 C -0.10024 0.99806 0.21662
 C723 C -0.09064 0.99476 0.19885
 C724 C -0.05874 1.00237 0.21359
 C725 C -0.06904 1.00523 0.23125
 N726 N -0.08944 1.00302 0.23240
 H727 H -0.09474 0.97933 0.28998
 H728 H -0.07963 1.03732 0.26812
 H729 H -0.06056 1.04563 0.29739
 H730 H -0.07565 0.98625 0.31951
 H731 H -0.11647 0.99644 0.21791
 H732 H -0.10006 0.99142 0.18667
 H733 H -0.04247 1.00367 0.21341
 H734 H -0.06068 1.00887 0.24407
 C735 C -0.14258 0.94407 0.25376
 C736 C -0.14479 1.06270 0.25703
 C737 C -0.06944 0.99664 0.19694
 C738 C -0.06654 1.01657 0.31084
 C739 C 0.36430 0.52742 -0.22734
 H740 H 0.36591 0.51768 -0.21499
 C741 C 0.35293 0.54507 -0.22562
 H742 H 0.34591 0.54874 -0.21184
 C743 C 0.37262 0.53499 -0.25990
 H744 H 0.38062 0.53128 -0.27314
 C745 C 0.36130 0.55268 -0.25886
 H746 H 0.36038 0.56204 -0.27157
 N747 N 0.37401 0.52281 -0.24424
 C748 C 0.38795 0.45690 -0.24459
 H749 H 0.40426 0.45744 -0.24540
 C750 C 0.37817 0.43904 -0.24542
 H751 H 0.38711 0.42550 -0.24620
 C752 C 0.35741 0.47523 -0.24141
 H753 H 0.34932 0.48930 -0.24063
 C754 C 0.34595 0.45589 -0.24212
 H755 H 0.32971 0.45690 -0.24201
 Zn756 Zn 0.39172 0.50032 -0.24467
 N757 N 0.37700 0.47543 -0.24266
 C758 C 0.41182 0.48976 -0.21000
 N759 N 0.40936 0.50419 -0.22365
 C760 C 0.41804 0.52287 -0.22187
 C761 C 0.42932 0.52782 -0.20567
 C762 C 0.42324 0.49398 -0.19367
 C763 C 0.39582 0.49395 -0.28425
 C764 C 0.40534 0.49275 -0.30233
 C765 C 0.43672 0.50257 -0.28764
 C766 C 0.42657 0.50346 -0.26974
 N767 N 0.40641 0.49945 -0.26844
 H768 H 0.40448 0.47515 -0.21146
 H769 H 0.41564 0.53416 -0.23281
 H770 H 0.43578 0.54288 -0.20434
 H771 H 0.42464 0.48251 -0.18269
 H772 H 0.37987 0.49050 -0.28277
 H773 H 0.39655 0.48819 -0.31464
 H774 H 0.45264 0.50636 -0.28847
 H775 H 0.43480 0.50752 -0.25697
 C776 C 0.35563 0.43807 -0.24437
 C777 C 0.35152 0.55816 -0.24145
 C778 C 0.42604 0.49734 -0.30431
 C779 C 0.43187 0.51335 -0.19121
 C780 C 0.64109 -0.03634 -0.23668
 H781 H 0.64426 -0.02394 -0.22689
 C782 C 0.65084 -0.05385 -0.23497
 H783 H 0.66151 -0.05522 -0.22347
 C784 C 0.62143 -0.04885 -0.26262
 H785 H 0.60970 -0.04702 -0.27305
 C786 C 0.63149 -0.06865 -0.26100
 H787 H 0.62740 -0.08034 -0.27122
 N788 N 0.62616 -0.03390 -0.25120
 C789 C 0.62024 0.03229 -0.25498
 H790 H 0.60398 0.03325 -0.25387
 C791 C 0.63186 0.04994 -0.25747
 H792 H 0.62398 0.06414 -0.25742
 C793 C 0.64946 0.01227 -0.25554
 H794 H 0.65628 -0.00248 -0.25538
 C795 C 0.66172 0.02954 -0.25802
 H796 H 0.67774 0.02725 -0.25996
 Zn797 Zn 0.61150 -0.00917 -0.25152
 N798 N 0.62910 0.01393 -0.25383
 C799 C 0.59826 0.00751 -0.21543
 N800 N 0.59607 -0.00814 -0.22806
 C801 C 0.58340 -0.02399 -0.22394
 C802 C 0.57220 -0.02444 -0.20662
 C803 C 0.58734 0.00769 -0.19799
 C804 C 0.60321 -0.00701 -0.29084
 C805 C 0.59168 -0.00397 -0.30721
 C806 C 0.56172 -0.00392 -0.28686
 C807 C 0.57385 -0.00672 -0.27083
 N808 N 0.59422 -0.00819 -0.27307
 H809 H 0.60863 0.01980 -0.21872
 H810 H 0.58214 -0.03641 -0.23409
 H811 H 0.56250 -0.03736 -0.20351
 H812 H 0.58918 0.02044 -0.18829
 H813 H 0.61945 -0.00794 -0.29221
 H814 H 0.59914 -0.00300 -0.32121
 H815 H 0.54558 -0.00247 -0.28478
 H816 H 0.56699 -0.00719 -0.25658
 C817 C 0.65312 0.04900 -0.25903
 C818 C 0.64592 -0.07142 -0.24777
 C819 C 0.57065 -0.00224 -0.30533
 C820 C 0.57417 -0.00849 -0.19328
 C821 C 0.02631 0.24426 0.84347
 H822 H 0.01511 0.25173 0.83504
 C823 C 0.04481 0.23943 0.83502
 H824 H 0.04783 0.24354 0.82013
 C825 C 0.03629 0.23067 0.87338
 H826 H 0.03272 0.22737 0.88833
 C827 C 0.05500 0.22549 0.86548
 H828 H 0.06586 0.21809 0.87442
 N829 N 0.02253 0.24002 0.86235
 C830 C -0.02935 0.23800 0.84433
 H831 H -0.02655 0.22253 0.84829
 C832 C -0.04314 0.24199 0.83009
 H833 H -0.05123 0.22945 0.82357
 C834 C -0.02283 0.27310 0.84865
 H835 H -0.01467 0.28510 0.85588
 C836 C -0.03657 0.27781 0.83444
 H837 H -0.03913 0.29350 0.83091
 Zn838 Zn -0.00237 0.24695 0.87335
 N839 N -0.01990 0.25346 0.85357
 C840 C -0.01615 0.27887 0.89617
 N841 N 0.00073 0.26934 0.88975
 C842 C 0.01947 0.27644 0.89399
 C843 C 0.02174 0.29398 0.90497
 C844 C -0.01458 0.29659 0.90699
 C845 C -0.00836 0.20603 0.87933
 C846 C -0.01415 0.18851 0.88905
 C847 C -0.02920 0.20919 0.91419
 C848 C -0.02295 0.22640 0.90400
 N849 N -0.01262 0.22448 0.88697
 H850 H -0.03084 0.27306 0.89227
 H851 H 0.03269 0.26872 0.88862
 H852 H 0.03677 0.29940 0.90825
 H853 H -0.02820 0.30440 0.91129
 H854 H 0.00004 0.20493 0.86584
 H855 H -0.00977 0.17403 0.88305
 H856 H -0.03730 0.21093 0.92779
 H857 H -0.02610 0.24120 0.90987
 C858 C -0.04712 0.26212 0.82521
 C859 C 0.05946 0.23005 0.84610
 C860 C -0.02454 0.18994 0.90682
 C861 C 0.00458 0.30445 0.91136
 C862 C 0.47545 0.27660 0.13923
 H863 H 0.48611 0.28914 0.13923
 C864 C 0.45773 0.27760 0.15030
 H865 H 0.45489 0.29088 0.15910
 C866 C 0.46626 0.24397 0.12768
 H867 H 0.46936 0.23116 0.11842
 C868 C 0.44836 0.24436 0.13842
 H869 H 0.43787 0.23172 0.13739
 N870 N 0.47949 0.25980 0.12852
 C871 C 0.54397 0.26334 0.11932
 H872 H 0.54452 0.26239 0.10374
 C873 C 0.56176 0.26427 0.12953
 H874 H 0.57601 0.26455 0.12165
 C875 C 0.52453 0.26387 0.14840
 H876 H 0.50999 0.26304 0.15565
 C877 C 0.54200 0.26448 0.15924
 H878 H 0.54071 0.26419 0.17483
 Zn879 Zn 0.50327 0.25952 0.11358
 N880 N 0.52589 0.26331 0.12882
 C881 C 0.51488 0.29546 0.09449
 N882 N 0.50132 0.27989 0.09520
 C883 C 0.48530 0.27898 0.08328
 C884 C 0.48254 0.29414 0.06973
 C885 C 0.51281 0.31080 0.08108
 C886 C 0.50749 0.21817 0.11352
 C887 C 0.50940 0.19881 0.10583
 C888 C 0.51065 0.21342 0.07389
 C889 C 0.50843 0.23250 0.08221
 N890 N 0.50646 0.23439 0.10166
 H891 H 0.52705 0.29629 0.10457
 H892 H 0.47461 0.26652 0.08446
 H893 H 0.46968 0.29338 0.06035
 H894 H 0.52349 0.32335 0.08093
 H895 H 0.50629 0.22030 0.12898
 H896 H 0.50918 0.18600 0.11550
 H897 H 0.51218 0.21212 0.05836
 H898 H 0.50832 0.24574 0.07314
 C899 C 0.56091 0.26448 0.14977
 C900 C 0.44400 0.26126 0.15003
 C901 C 0.51076 0.19624 0.08575
 C902 C 0.49645 0.31024 0.06857
 C903 C -0.02441 0.77376 0.62941
 H904 H -0.01487 0.78715 0.62858
 C905 C -0.04114 0.77375 0.64044
 H906 H -0.04448 0.78721 0.64876
 C907 C -0.02984 0.73957 0.61940
 H908 H -0.02563 0.72645 0.61099
 C909 C -0.04837 0.73881 0.63130
 H910 H -0.05738 0.72508 0.63060
 N911 N -0.01863 0.75584 0.61906
 C912 C 0.04586 0.76204 0.61222
 H913 H 0.04737 0.76109 0.59668
 C914 C 0.06296 0.76252 0.62347
 H915 H 0.07768 0.76257 0.61644
 C916 C 0.02469 0.76225 0.64021
 H917 H 0.00976 0.76126 0.64664
 C918 C 0.04142 0.76244 0.65204
 H919 H 0.03914 0.76173 0.66752
 Zn920 Zn 0.00553 0.75653 0.60466
 N921 N 0.02724 0.76181 0.62071
 C922 C 0.01625 0.79224 0.58487
 N923 N 0.00315 0.77629 0.58575
 C924 C -0.01289 0.77480 0.57389
 C925 C -0.01638 0.78995 0.56049
 C926 C 0.01349 0.80755 0.57156
 C927 C 0.01323 0.71593 0.60632
 C928 C 0.01609 0.69631 0.59966
 C929 C 0.01476 0.70879 0.56696
 C930 C 0.01174 0.72821 0.57429
 N931 N 0.01049 0.73122 0.59367
 H932 H 0.02849 0.79347 0.59484
 H933 H -0.02321 0.76204 0.57520
 H934 H -0.02941 0.78887 0.55136
 H935 H 0.02371 0.82048 0.57140
 H936 H 0.01250 0.71896 0.62167
 H937 H 0.01711 0.68417 0.61001
 H938 H 0.01541 0.70649 0.55149
 H939 H 0.01015 0.74077 0.56454
 C940 C 0.06083 0.76210 0.64364
 C941 C -0.05403 0.75510 0.64185
 C942 C 0.01649 0.69248 0.57974
 C943 C -0.00310 0.80659 0.55935
 C944 C 0.52392 0.76457 0.35891
 H945 H 0.51574 0.77858 0.36038
 C946 C 0.54260 0.76438 0.34950
 H947 H 0.54892 0.77832 0.34368
 C948 C 0.52567 0.72930 0.36492
 H949 H 0.51899 0.71572 0.37104
 C950 C 0.54455 0.72846 0.35583
 H951 H 0.55229 0.71415 0.35473
 N952 N 0.51569 0.74712 0.36594
 C953 C 0.45146 0.75449 0.36545
 H954 H 0.44773 0.74979 0.38002
 C955 C 0.43624 0.75932 0.35287
 H956 H 0.42068 0.75801 0.35779
 C957 C 0.47637 0.76096 0.34115
 H958 H 0.49199 0.76124 0.33654
 C959 C 0.46160 0.76601 0.32807
 H960 H 0.46601 0.77046 0.31357
 Zn961 Zn 0.49024 0.74877 0.37767
 N962 N 0.47106 0.75566 0.35950
 C963 C 0.47813 0.78381 0.39753
 N964 N 0.49176 0.76864 0.39690
 C965 C 0.50770 0.76836 0.40893
 C966 C 0.51056 0.78403 0.42218
 C967 C 0.48026 0.79957 0.41068
 C968 C 0.47775 0.70875 0.37550
 C969 C 0.47272 0.68952 0.38230
 C970 C 0.47718 0.70188 0.41487
 C971 C 0.48194 0.72092 0.40744
 N972 N 0.48259 0.72380 0.38807
 H973 H 0.46589 0.78405 0.38755
 H974 H 0.51845 0.75623 0.40784
 H975 H 0.52349 0.78393 0.43147
 H976 H 0.46957 0.81183 0.41068
 H977 H 0.47816 0.71168 0.36016
 H978 H 0.46913 0.67762 0.37209
 H979 H 0.47771 0.69960 0.43030
 H980 H 0.48562 0.73321 0.41713
 C981 C 0.44126 0.76530 0.33396
 C982 C 0.55298 0.74611 0.34776
 C983 C 0.47280 0.68582 0.40221
 C984 C 0.49675 0.79989 0.42301
 Zr985 Zr 0.01507 -0.01221 1.02697
 O986 O 0.03377 0.00144 1.04786
 O987 O 0.01450 -0.04246 1.03569
 O988 O 0.00124 -0.01303 1.05485
 O989 O 0.05318 -0.01670 0.99242
 O990 O -0.03025 -0.00097 1.04974
 O991 O 0.04517 -0.02245 1.02410
 O992 O -0.00702 -0.05775 1.01471
 O993 O -0.01495 -0.02074 1.02198
 O994 O 0.01496 -0.02753 1.00050
 O995 O -0.00117 0.01493 1.02689
 O996 O 0.02802 0.00818 1.00671
 Zr997 Zr -0.01958 0.01158 0.97362
 Zr998 Zr -0.03079 0.00635 1.02037
 Zr999 Zr 0.02623 -0.00705 0.98017
 Zr1000 Zr -0.01492 -0.03500 0.99511
 O1001 O 0.05017 0.01227 0.97092
 O1002 O -0.04217 -0.04737 1.00675
 O1003 O -0.00338 -0.01571 0.97343
 O1004 O -0.03223 -0.00879 0.99386
 O1005 O -0.01966 0.02707 1.00000
 O1006 O 0.01038 0.01991 0.97873
 C1007 C 0.00482 -0.05794 1.02920
 C1008 C 0.05754 -0.02268 1.00946
 C1009 C -0.01666 -0.00812 1.06069
 O1010 O -0.05643 -0.01186 1.02714
 O1011 O -0.05664 0.01938 1.00879
 O1012 O -0.04875 0.02399 0.97691
 C1013 C -0.06071 0.02553 0.99174
 O1014 O 0.03141 0.04161 1.02723
 Zr1015 Zr 0.01036 0.03433 1.00546
 O1016 O -0.01922 0.04184 0.96501
 O1017 O -0.03806 0.03240 1.03683
 O1018 O -0.00286 0.05658 1.02368
 O1019 O 0.03611 0.04858 0.99264
 O1020 O -0.00039 0.05765 0.98789
 C1021 C -0.01161 0.05773 0.97295
 O1022 O -0.03957 -0.00167 0.95360
 O1023 O 0.03555 -0.03390 0.96598
 O1024 O -0.00660 0.01031 0.94543
 O1025 O 0.02384 -0.00437 0.95019
 O1026 O -0.00121 -0.05855 0.97884
 O1027 O -0.03310 -0.04318 0.97133
 C1028 C 0.01022 0.00278 0.93927
 H1029 H 0.02326 -0.03987 1.00036
 H1030 H -0.04629 -0.01242 0.99061
 H1031 H 0.01617 0.02882 0.96854
 H1032 H -0.00050 0.02182 1.03958
 H1033 H -0.04162 -0.06226 1.00509
 H1034 H -0.06494 -0.00399 1.03628
 H1035 H -0.05124 0.02958 1.04331
 H1036 H 0.00368 0.06975 1.02050
 H1037 H -0.00827 -0.07137 0.98234
 H1038 H 0.04860 -0.03079 0.95936
 H1039 H 0.05877 0.00423 0.96198
 H1040 H 0.03488 0.06334 0.99495
 H1041 H -0.03794 -0.05733 0.97286
 H1042 H -0.04359 0.00922 0.94471
 H1043 H 0.03798 -0.00945 1.05667
 H1044 H 0.03399 0.05641 1.02736
 Zr1045 Zr 0.51199 0.48692 0.52518
 O1046 O 0.53245 0.50160 0.54385
 O1047 O 0.51019 0.45789 0.53695
 O1048 O 0.49951 0.48951 0.55350
 O1049 O 0.54760 0.47617 0.48958
 O1050 O 0.46935 0.50481 0.54884
 O1051 O 0.54140 0.47494 0.52204
 O1052 O 0.48594 0.44221 0.51914
 O1053 O 0.48122 0.48005 0.52253
 O1054 O 0.50934 0.46877 0.50054
 O1055 O 0.49759 0.51500 0.52308
 O1056 O 0.52492 0.50404 0.50233
 Zr1057 Zr 0.47581 0.50703 0.47140
 Zr1058 Zr 0.46712 0.50787 0.51889
 Zr1059 Zr 0.52059 0.48609 0.47767
 Zr1060 Zr 0.47874 0.46289 0.49736
 O1061 O 0.54523 0.50248 0.46536
 O1062 O 0.45132 0.45372 0.51114
 O1063 O 0.49015 0.47878 0.47322
 O1064 O 0.46314 0.48996 0.49424
 O1065 O 0.47825 0.52538 0.49596
 O1066 O 0.50649 0.51381 0.47429
 C1067 C 0.49876 0.44269 0.53284
 C1068 C 0.55283 0.47230 0.50694
 C1069 C 0.48283 0.49732 0.55970
 O1070 O 0.44117 0.49208 0.52922
 O1071 O 0.44133 0.52081 0.50716
 O1072 O 0.44751 0.52132 0.47466
 C1073 C 0.43649 0.52509 0.48978
 O1074 O 0.53199 0.53914 0.51886
 Zr1075 Zr 0.50896 0.53109 0.49926
 O1076 O 0.47757 0.53602 0.45959
 O1077 O 0.46228 0.53628 0.53230
 O1078 O 0.49853 0.55599 0.51592
 O1079 O 0.53451 0.54236 0.48365
 O1080 O 0.49820 0.55306 0.48018
 C1081 C 0.48634 0.55219 0.46570
 O1082 O 0.45419 0.49273 0.45369
 O1083 O 0.52714 0.45721 0.46597
 O1084 O 0.48737 0.50266 0.44298
 O1085 O 0.51675 0.48592 0.44771
 O1086 O 0.49008 0.43668 0.48335
 O1087 O 0.45883 0.45335 0.47535
 C1088 C 0.50333 0.49349 0.43683
 H1089 H 0.51686 0.45597 0.50136
 H1090 H 0.44871 0.48690 0.49207
 H1091 H 0.51227 0.52123 0.46305
 H1092 H 0.49953 0.52320 0.53490
 H1093 H 0.45082 0.43872 0.51102
 H1094 H 0.43363 0.50159 0.53768
 H1095 H 0.44937 0.53514 0.53969
 H1096 H 0.50560 0.56830 0.51104
 H1097 H 0.48245 0.42486 0.48856
 H1098 H 0.53997 0.45861 0.45848
 H1099 H 0.55275 0.49289 0.45697
 H1100 H 0.53423 0.55733 0.48452
 H1101 H 0.45343 0.43966 0.47838
 H1102 H 0.45027 0.50279 0.44392
 H1103 H 0.53647 0.49147 0.55351
 H1104 H 0.53545 0.55369 0.51744
 Zr1105 Zr 0.47958 1.01399 0.53071
 O1106 O 0.45816 1.00456 0.55195
 O1107 O 0.48358 1.04450 0.53789
 O1108 O 0.49181 1.01477 0.55882
 O1109 O 0.44461 1.02084 0.49496
 O1110 O 0.52071 0.99651 0.55557
 O1111 O 0.45101 1.02728 0.52662
 O1112 O 0.50803 1.05549 0.51671
 O1113 O 0.51071 1.01813 0.52615
 O1114 O 0.48327 1.02735 0.50356
 O1115 O 0.49200 0.98494 0.53234
 O1116 O 0.46534 0.99413 0.51110
 Zr1117 Zr 0.51396 0.98199 0.47948
 Zr1118 Zr 0.52285 0.98902 0.52620
 Zr1119 Zr 0.47080 1.00708 0.48391
 Zr1120 Zr 0.51413 1.03044 0.49861
 O1121 O 0.44522 0.99038 0.47484
 O1122 O 0.54194 1.04004 0.51039
 O1123 O 0.50163 1.01124 0.47758
 O1124 O 0.52777 1.00208 0.49905
 O1125 O 0.51037 0.96852 0.50662
 O1126 O 0.48291 0.97811 0.48425
 C1127 C 0.49549 1.05820 0.53088
 C1128 C 0.43972 1.02807 0.51166
 C1129 C 0.50769 1.00646 0.56561
 O1130 O 0.54950 1.00487 0.53370
 O1131 O 0.54801 0.97302 0.51568
 O1132 O 0.54173 0.96729 0.48386
 C1133 C 0.55273 0.96579 0.49894
 O1134 O 0.45585 0.96336 0.53287
 Zr1135 Zr 0.47933 0.96583 0.51167
 O1136 O 0.51038 0.95110 0.47296
 O1137 O 0.52610 0.96262 0.54296
 O1138 O 0.48771 0.94344 0.53171
 O1139 O 0.45307 0.95390 0.49857
 O1140 O 0.48837 0.93995 0.49633
 C1141 C 0.50038 0.93704 0.48185
 O1142 O 0.53619 0.99107 0.45885
 O1143 O 0.46594 1.03401 0.46831
 O1144 O 0.50261 0.98259 0.45104
 O1145 O 0.47471 1.00232 0.45417
 O1146 O 0.50454 1.05423 0.48067
 O1147 O 0.53482 1.03466 0.47512
 C1148 C 0.48757 0.99220 0.44407
 H1149 H 0.47661 1.04062 0.50262
 H1150 H 0.54233 1.00383 0.49601
 H1151 H 0.47665 0.96925 0.47442
 H1152 H 0.48951 0.97893 0.54523
 H1153 H 0.54343 1.05477 0.50802
 H1154 H 0.55652 0.99637 0.54313
 H1155 H 0.53901 0.96412 0.54982
 H1156 H 0.47948 0.93112 0.52916
 H1157 H 0.51279 1.06640 0.48374
 H1158 H 0.45302 1.03221 0.46154
 H1159 H 0.43830 0.99890 0.46536
 H1160 H 0.45214 0.93933 0.50186
 H1161 H 0.54111 1.04830 0.47600
 H1162 H 0.53924 0.97906 0.45070
 H1163 H 0.45498 1.01658 0.56003
 H1164 H 0.45103 0.94913 0.53366
 Zr1165 Zr -0.01457 0.51603 1.02646
 O1166 O -0.03611 0.50557 1.04716
 O1167 O -0.01001 0.54600 1.03544
 O1168 O -0.00239 0.51500 1.05455
 O1169 O -0.04942 0.52515 0.99116
 O1170 O 0.02648 0.49694 1.05023
 O1171 O -0.04312 0.52971 1.02311
 O1172 O 0.01489 0.55766 1.01507
 O1173 O 0.01657 0.52016 1.02200
 O1174 O -0.01079 0.53097 1.00008
 O1175 O -0.00231 0.48680 1.02651
 O1176 O -0.02882 0.49733 1.00587
 Zr1177 Zr 0.01970 0.48686 0.97352
 Zr1178 Zr 0.02853 0.49104 1.02055
 Zr1179 Zr -0.02334 0.51188 0.97944
 Zr1180 Zr 0.02009 0.53404 0.99516
 O1181 O -0.04924 0.49611 0.96975
 O1182 O 0.04829 0.54266 1.00676
 O1183 O 0.00747 0.51623 0.97316
 O1184 O 0.03358 0.50564 0.99414
 O1185 O 0.01608 0.47173 0.99987
 O1186 O -0.01135 0.48289 0.97820
 C1187 C 0.00253 0.55970 1.02946
 C1188 C -0.05438 0.53135 1.00819
 C1189 C 0.01350 0.50630 1.06087
 O1190 O 0.05523 0.50632 1.02888
 O1191 O 0.05365 0.47568 1.00924
 O1192 O 0.04739 0.47163 0.97719
 C1193 C 0.05839 0.46938 0.99219
 O1194 O -0.03829 0.46497 1.02601
 Zr1195 Zr -0.01495 0.46892 1.00485
 O1196 O 0.01550 0.45669 0.96486
 O1197 O 0.03167 0.46370 1.03591
 O1198 O -0.00624 0.44533 1.02346
 O1199 O -0.04146 0.45809 0.99138
 O1200 O -0.00630 0.44402 0.98775
 C1201 C 0.00536 0.44216 0.97283
 O1202 O 0.04210 0.49696 0.95349
 O1203 O -0.02769 0.53968 0.96515
 O1204 O 0.00840 0.48936 0.94516
 O1205 O -0.01993 0.50817 0.94955
 O1206 O 0.01039 0.55924 0.97910
 O1207 O 0.04031 0.53945 0.97152
 C1208 C -0.00702 0.49886 0.93880
 H1209 H -0.01733 0.54435 0.99996
 H1210 H 0.04815 0.50749 0.99117
 H1211 H -0.01776 0.47471 0.96795
 H1212 H -0.00481 0.48005 1.03906
 H1213 H 0.04993 0.55748 1.00505
 H1214 H 0.06222 0.49724 1.03784
 H1215 H 0.04458 0.46474 1.04283
 H1216 H -0.01433 0.43312 1.02018
 H1217 H 0.01887 0.57104 0.98281
 H1218 H -0.04068 0.53850 0.95839
 H1219 H -0.05608 0.50520 0.96071
 H1220 H -0.04242 0.44332 0.99371
 H1221 H 0.04658 0.55306 0.97288
 H1222 H 0.04503 0.48545 0.94467
 H1223 H -0.03916 0.51712 1.05590
 H1224 H -0.04287 0.45064 1.02611
 Zr1225 Zr -0.02133 0.48450 0.47177
 O1226 O -0.04495 0.49692 0.45570
 O1227 O -0.01706 0.45689 0.45767
 O1228 O -0.01183 0.48966 0.44282
 O1229 O -0.05085 0.46561 0.50953
 O1230 O 0.01655 0.50926 0.44574
 O1231 O -0.04908 0.46884 0.47678
 O1232 O 0.01105 0.44455 0.47162
 O1233 O 0.01016 0.48251 0.47131
 O1234 O -0.01381 0.46558 0.49457
 O1235 O -0.01046 0.51441 0.47441
 O1236 O -0.03378 0.49805 0.49683
 Zr1237 Zr 0.01767 0.50738 0.52325
 Zr1238 Zr 0.02095 0.51203 0.47550
 Zr1239 Zr -0.02450 0.47974 0.51957
 Zr1240 Zr 0.01748 0.46452 0.49463
 O1241 O -0.05004 0.49098 0.53473
 O1242 O 0.04447 0.46049 0.47825
 O1243 O 0.00694 0.47722 0.52077
 O1244 O 0.02978 0.49361 0.49824
 O1245 O 0.01020 0.52639 0.50045
 O1246 O -0.01380 0.50925 0.52349
 C1247 C -0.00300 0.44384 0.45904
 C1248 C -0.05795 0.46290 0.49256
 C1249 C 0.00335 0.49974 0.43569
 O1250 O 0.04787 0.50148 0.46225
 O1251 O 0.04562 0.52884 0.48583
 O1252 O 0.04429 0.52495 0.51847
 C1253 C 0.05257 0.53194 0.50280
 O1254 O -0.04683 0.53244 0.48309
 Zr1255 Zr -0.02123 0.52715 0.50022
 O1256 O 0.01409 0.53573 0.53638
 O1257 O 0.02026 0.54130 0.46331
 O1258 O -0.01541 0.55441 0.48495
 O1259 O -0.04666 0.53317 0.51826
 O1260 O -0.01227 0.54920 0.52037
 C1261 C 0.00177 0.55005 0.53290
 O1262 O 0.04223 0.49550 0.53840
 O1263 O -0.02515 0.44970 0.53004
 O1264 O 0.00944 0.50043 0.55219
 O1265 O -0.01811 0.47972 0.54909
 O1266 O 0.01081 0.43594 0.50719
 O1267 O 0.04044 0.45697 0.51420
 C1268 C -0.00485 0.48906 0.55925
 H1269 H -0.01971 0.45180 0.49336
 H1270 H 0.04464 0.49271 0.49885
 H1271 H -0.01937 0.51519 0.53556
 H1272 H -0.01459 0.52272 0.46335
 H1273 H 0.04686 0.44574 0.47727
 H1274 H 0.05311 0.51251 0.45383
 H1275 H 0.03243 0.54268 0.45487
 H1276 H -0.02352 0.56515 0.49127
 H1277 H 0.01925 0.42582 0.50034
 H1278 H -0.03722 0.44842 0.53863
 H1279 H -0.05521 0.47988 0.54310
 H1280 H -0.04866 0.54801 0.51828
 H1281 H 0.04696 0.44427 0.50993
 H1282 H 0.04594 0.50562 0.54838
 H1283 H -0.04868 0.48671 0.44581
 H1284 H -0.05162 0.54640 0.48537
 Zr1285 Zr 0.48204 -0.01559 -0.02541
 O1286 O 0.45993 -0.00487 -0.04429
 O1287 O 0.48735 -0.04450 -0.03658
 O1288 O 0.49387 -0.01295 -0.05403
 O1289 O 0.44842 -0.02872 0.01136
 O1290 O 0.52223 0.00651 -0.05038
 O1291 O 0.45386 -0.03083 -0.02118
 O1292 O 0.51383 -0.05543 -0.01914
 O1293 O 0.51336 -0.01786 -0.02306
 O1294 O 0.48712 -0.03209 -0.00032
 O1295 O 0.49316 0.01437 -0.02453
 O1296 O 0.46784 0.00069 -0.00277
 Zr1297 Zr 0.51692 0.01211 0.02690
 Zr1298 Zr 0.52424 0.01185 -0.02070
 Zr1299 Zr 0.47464 -0.01524 0.02233
 Zr1300 Zr 0.51824 -0.03339 0.00246
 O1301 O 0.44861 -0.00206 0.03498
 O1302 O 0.54657 -0.03940 -0.01092
 O1303 O 0.50575 -0.01799 0.02634
 O1304 O 0.53078 -0.00423 0.00429
 O1305 O 0.51178 0.02881 0.00191
 O1306 O 0.48562 0.01435 0.02447
 C1307 C 0.50111 -0.05731 -0.03283
 C1308 C 0.44298 -0.03373 -0.00574
 C1309 C 0.50968 -0.00351 -0.06074
 O1310 O 0.55184 -0.00041 -0.03079
 O1311 O 0.54819 0.02940 -0.01009
 O1312 O 0.54410 0.02898 0.02261
 C1313 C 0.55373 0.03425 0.00701
 O1314 O 0.45677 0.03396 -0.02056
 Zr1315 Zr 0.48057 0.02987 -0.00092
 O1316 O 0.51253 0.04155 0.03723
 O1317 O 0.52529 0.03979 -0.03551
 O1318 O 0.48830 0.05542 -0.01807
 O1319 O 0.45375 0.03761 0.01442
 O1320 O 0.48810 0.05377 0.01789
 C1321 C 0.50087 0.05560 0.03153
 O1322 O 0.54000 0.00182 0.04494
 O1323 O 0.47185 -0.04433 0.03483
 O1324 O 0.50636 0.00770 0.05566
 O1325 O 0.47886 -0.01301 0.05219
 O1326 O 0.50977 -0.06051 0.01692
 O1327 O 0.53901 -0.03904 0.02469
 C1328 C 0.49151 -0.00306 0.06254
 H1329 H 0.48102 -0.04584 -0.00075
 H1330 H 0.54549 -0.00519 0.00617
 H1331 H 0.47923 0.02144 0.03557
 H1332 H 0.49014 0.02162 -0.03658
 H1333 H 0.54880 -0.05418 -0.01014
 H1334 H 0.55805 0.00966 -0.03972
 H1335 H 0.53814 0.04019 -0.04304
 H1336 H 0.47996 0.06685 -0.01343
 H1337 H 0.51863 -0.07135 0.01185
 H1338 H 0.45910 -0.04447 0.04253
 H1339 H 0.44242 -0.01231 0.04373
 H1340 H 0.45205 0.05242 0.01318
 H1341 H 0.54550 -0.05227 0.02237
 H1342 H 0.54294 0.01288 0.05425
 H1343 H 0.45696 -0.01600 -0.05351
 H1344 H 0.45198 0.04808 -0.01967
 Zr1345 Zr 0.51684 0.53006 -0.02566
 O1346 O 0.53603 0.52339 -0.04957
 O1347 O 0.51370 0.56146 -0.02851
 O1348 O 0.50279 0.53399 -0.05258
 O1349 O 0.55545 0.53038 0.00717
 O1350 O 0.47172 0.51929 -0.04816
 O1351 O 0.54662 0.54164 -0.02247
 O1352 O 0.49206 0.56996 -0.00391
 O1353 O 0.48652 0.53460 -0.01785
 O1354 O 0.51645 0.53967 0.00311
 O1355 O 0.50227 0.50193 -0.02986
 O1356 O 0.53132 0.50710 -0.01024
 Zr1357 Zr 0.48479 0.49266 0.02384
 Zr1358 Zr 0.47238 0.50627 -0.02063
 Zr1359 Zr 0.52927 0.51643 0.01863
 Zr1360 Zr 0.48631 0.54298 0.01122
 O1361 O 0.55439 0.49773 0.02315
 O1362 O 0.45807 0.55496 0.00358
 O1363 O 0.49945 0.52080 0.02826
 O1364 O 0.47059 0.51553 0.00825
 O1365 O 0.48507 0.48289 -0.00495
 O1366 O 0.51504 0.48827 0.01591
 C1367 C 0.50315 0.57429 -0.01876
 C1368 C 0.55934 0.53969 -0.00875
 C1369 C 0.48511 0.52875 -0.05844
 O1370 O 0.44555 0.52306 -0.02253
 O1371 O 0.44802 0.48821 -0.01080
 O1372 O 0.45597 0.47910 0.01976
 C1373 C 0.44417 0.47892 0.00515
 O1374 O 0.53641 0.47893 -0.03644
 Zr1375 Zr 0.51529 0.47965 -0.01300
 O1376 O 0.48738 0.46124 0.02651
 O1377 O 0.46634 0.48357 -0.04145
 O1378 O 0.50323 0.46046 -0.03463
 O1379 O 0.54191 0.46532 -0.00399
 O1380 O 0.50598 0.45229 -0.00009
 C1381 C 0.49544 0.44805 0.01515
 O1382 O 0.46443 0.49922 0.04687
 O1383 O 0.53743 0.54080 0.03697
 O1384 O 0.49807 0.49050 0.05147
 O1385 O 0.52788 0.50767 0.04752
 O1386 O 0.49910 0.56398 0.03088
 O1387 O 0.46843 0.54426 0.03696
 C1388 C 0.51473 0.49807 0.05793
 H1389 H 0.52408 0.55246 0.00509
 H1390 H 0.45642 0.51716 0.01269
 H1391 H 0.52152 0.47804 0.02404
 H1392 H 0.50310 0.49766 -0.04355
 H1393 H 0.45769 0.56917 0.00821
 H1394 H 0.43727 0.51637 -0.03252
 H1395 H 0.45281 0.48632 -0.04659
 H1396 H 0.51067 0.44756 -0.03437
 H1397 H 0.49111 0.57654 0.03037
 H1398 H 0.55084 0.53768 0.04218
 H1399 H 0.56275 0.50458 0.03297
 H1400 H 0.54149 0.45124 -0.00896
 H1401 H 0.46278 0.55799 0.03849
 H1402 H 0.46152 0.48631 0.05372
 H1403 H 0.53918 0.53635 -0.05624
 H1404 H 0.54003 0.46473 -0.03934
 Zr1405 Zr 0.01198 1.03204 0.47976
 O1406 O 0.03244 1.02742 0.45636
 O1407 O 0.00828 1.06351 0.47849
 O1408 O -0.00081 1.03682 0.45232
 O1409 O 0.04877 1.03169 0.51456
 O1410 O -0.03158 1.02101 0.45459
 O1411 O 0.04138 1.04375 0.48482
 O1412 O -0.01455 1.07015 0.50263
 O1413 O -0.01883 1.03532 0.48631
 O1414 O 0.00984 1.04003 0.50895
 O1415 O -0.00147 1.00377 0.47357
 O1416 O 0.02636 1.00875 0.49488
 Zr1417 Zr -0.02130 0.99103 0.52581
 Zr1418 Zr -0.03192 1.00675 0.48155
 Zr1419 Zr 0.02250 1.01641 0.52409
 Zr1420 Zr -0.02075 1.04210 0.51573
 O1421 O 0.04770 0.99802 0.52921
 O1422 O -0.04866 1.05390 0.50692
 O1423 O -0.00792 1.01935 0.53233
 O1424 O -0.03538 1.01438 0.51074
 O1425 O -0.01926 0.98291 0.49662
 O1426 O 0.00943 0.98801 0.51921
 C1427 C -0.00276 1.07562 0.48861
 C1428 C 0.05334 1.04164 0.49915
 C1429 C -0.01797 1.03130 0.44536
 O1430 O -0.05905 1.02295 0.47908
 O1431 O -0.05636 0.98772 0.48950
 O1432 O -0.04955 0.97723 0.51993
 C1433 C -0.06072 0.97762 0.50490
 O1434 O 0.03387 0.98254 0.46764
 Zr1435 Zr 0.01144 0.98106 0.48993
 O1436 O -0.01817 0.95951 0.52677
 O1437 O -0.03621 0.98488 0.45956
 O1438 O 0.00146 0.96274 0.46669
 O1439 O 0.03790 0.96692 0.49961
 O1440 O 0.00224 0.95274 0.50079
 C1441 C -0.00910 0.94726 0.51513
 O1442 O -0.04272 0.99592 0.54836
 O1443 O 0.02921 1.04010 0.54374
 O1444 O -0.00915 0.98704 0.55365
 O1445 O 0.01938 1.00678 0.55274
 O1446 O -0.00971 1.06191 0.53737
 O1447 O -0.04041 1.04164 0.54032
 C1448 C 0.00634 0.99545 0.56156
 H1449 H 0.01702 1.05286 0.51194
 H1450 H -0.04979 1.01540 0.51458
 H1451 H 0.01576 0.97750 0.52713
 H1452 H 0.00020 1.00025 0.45974
 H1453 H -0.04967 1.06785 0.51213
 H1454 H -0.06661 1.01656 0.46842
 H1455 H -0.04954 0.98747 0.45392
 H1456 H 0.00946 0.95017 0.46664
 H1457 H -0.01782 1.07439 0.53709
 H1458 H 0.04230 1.03691 0.54962
 H1459 H 0.05528 1.00459 0.53976
 H1460 H 0.03823 0.95319 0.49382
 H1461 H -0.04639 1.05518 0.54217
 H1462 H -0.04570 0.98259 0.55439
 H1463 H 0.03550 1.04085 0.45057
 H1464 H 0.03830 0.96870 0.46426
 Zr1465 Zr 0.73577 0.26818 0.22218
 O1466 O 0.74864 0.28744 0.20081
 O1467 O 0.70567 0.26653 0.21394
 O1468 O 0.73487 0.25466 0.19439
 O1469 O 0.73129 0.30598 0.25662
 O1470 O 0.74671 0.22290 0.19942
 O1471 O 0.72526 0.29827 0.22516
 O1472 O 0.69083 0.24530 0.23603
 O1473 O 0.72776 0.23791 0.22763
 O1474 O 0.72088 0.26762 0.24904
 O1475 O 0.76300 0.25223 0.22147
 O1476 O 0.75620 0.28129 0.24176
 Zr1477 Zr 0.76089 0.23325 0.27496
 Zr1478 Zr 0.75496 0.22234 0.22844
 Zr1479 Zr 0.74148 0.27898 0.26873
 Zr1480 Zr 0.71399 0.23748 0.25490
 O1481 O 0.76070 0.30297 0.27752
 O1482 O 0.70177 0.21010 0.24378
 O1483 O 0.73345 0.24909 0.27586
 O1484 O 0.74039 0.22046 0.25542
 O1485 O 0.77576 0.23364 0.24808
 O1486 O 0.76866 0.26349 0.26947
 C1487 C 0.69045 0.25667 0.22102
 C1488 C 0.72507 0.31053 0.23974
 C1489 C 0.73946 0.23667 0.18860
 O1490 O 0.73722 0.19623 0.22263
 O1491 O 0.76892 0.19671 0.23973
 O1492 O 0.77367 0.20422 0.27148
 C1493 C 0.77534 0.19247 0.25662
 O1494 O 0.78859 0.28600 0.22066
 Zr1495 Zr 0.78249 0.26390 0.24225
 O1496 O 0.79121 0.23429 0.28276
 O1497 O 0.78058 0.21571 0.21099
 O1498 O 0.80439 0.25201 0.22273
 O1499 O 0.79712 0.28912 0.25518
 O1500 O 0.80626 0.25200 0.25814
 C1501 C 0.80679 0.24117 0.27348
 O1502 O 0.74848 0.21264 0.29540
 O1503 O 0.71485 0.28821 0.28346
 O1504 O 0.75950 0.24580 0.30316
 O1505 O 0.74392 0.27598 0.29866
 O1506 O 0.69080 0.25090 0.27192
 O1507 O 0.70650 0.21885 0.27896
 C1508 C 0.75131 0.26225 0.30941
 H1509 H 0.70847 0.27577 0.24942
 H1510 H 0.73706 0.20625 0.25886
 H1511 H 0.77761 0.26925 0.27941
 H1512 H 0.76961 0.25312 0.20857
 H1513 H 0.68696 0.21043 0.24594
 H1514 H 0.74502 0.18791 0.21326
 H1515 H 0.77787 0.20247 0.20472
 H1516 H 0.81743 0.25884 0.22543
 H1517 H 0.67799 0.24379 0.26886
 H1518 H 0.71800 0.30120 0.29004
 H1519 H 0.75271 0.31141 0.28663
 H1520 H 0.81173 0.28794 0.25221
 H1521 H 0.69237 0.21400 0.27797
 H1522 H 0.75954 0.20876 0.30401
 H1523 H 0.73757 0.29152 0.19229
 H1524 H 0.80320 0.28928 0.22024
 Zr1525 Zr 0.77371 0.72824 0.71988
 O1526 O 0.76535 0.70631 0.69904
 O1527 O 0.80333 0.73501 0.71115
 O1528 O 0.77252 0.74062 0.69168
 O1529 O 0.78581 0.69432 0.75584
 O1530 O 0.75258 0.76831 0.69578
 O1531 O 0.78867 0.70026 0.72347
 O1532 O 0.81298 0.76036 0.73153
 O1533 O 0.77563 0.75963 0.72425
 O1534 O 0.78769 0.73276 0.74638
 O1535 O 0.74386 0.73858 0.71944
 O1536 O 0.75570 0.71241 0.74040
 Zr1537 Zr 0.74107 0.75997 0.77229
 Zr1538 Zr 0.74584 0.76967 0.72537
 Zr1539 Zr 0.76911 0.71865 0.76699
 Zr1540 Zr 0.78857 0.76379 0.75119
 O1541 O 0.75548 0.69088 0.77552
 O1542 O 0.79553 0.79270 0.73947
 O1543 O 0.77112 0.74973 0.77312
 O1544 O 0.75938 0.77539 0.75187
 O1545 O 0.72696 0.75556 0.74583
 O1546 O 0.73943 0.72867 0.76768
 C1547 C 0.81607 0.74834 0.71713
 C1548 C 0.79190 0.68964 0.73869
 C1549 C 0.76294 0.75603 0.68528
 O1550 O 0.75950 0.79747 0.71699
 O1551 O 0.72868 0.79377 0.73642
 O1552 O 0.72419 0.78671 0.76842
 C1553 C 0.72164 0.79783 0.75340
 O1554 O 0.72491 0.70116 0.71963
 Zr1555 Zr 0.72652 0.72434 0.74093
 O1556 O 0.71100 0.75367 0.78042
 O1557 O 0.71878 0.77122 0.70981
 O1558 O 0.70278 0.73182 0.72230
 O1559 O 0.71730 0.69671 0.75407
 O1560 O 0.70089 0.73051 0.75802
 C1561 C 0.69763 0.74215 0.77262
 O1562 O 0.74904 0.78282 0.79237
 O1563 O 0.79616 0.71713 0.78256
 O1564 O 0.74355 0.74862 0.80069
 O1565 O 0.76270 0.72036 0.79670
 O1566 O 0.81391 0.75570 0.76752
 O1567 O 0.79196 0.78411 0.77480
 C1568 C 0.75254 0.73289 0.80716
 H1569 H 0.80147 0.72722 0.74665
 H1570 H 0.76017 0.79006 0.75481
 H1571 H 0.73136 0.72149 0.77774
 H1572 H 0.73761 0.73577 0.70685
 H1573 H 0.81011 0.79533 0.74131
 H1574 H 0.75021 0.80398 0.70794
 H1575 H 0.71918 0.78424 0.70276
 H1576 H 0.69118 0.72274 0.72544
 H1577 H 0.82512 0.76510 0.76391
 H1578 H 0.79598 0.70390 0.78924
 H1579 H 0.76459 0.68462 0.78488
 H1580 H 0.70281 0.69460 0.75135
 H1581 H 0.80502 0.79146 0.77347
 H1582 H 0.73716 0.78489 0.80104
 H1583 H 0.77731 0.70411 0.69048
 H1584 H 0.71094 0.69576 0.71909
 Zr1585 Zr 0.24232 0.22452 0.78635
 O1586 O 0.25344 0.20534 0.80795
 O1587 O 0.21152 0.22473 0.79301
 O1588 O 0.23875 0.23768 0.81413
 O1589 O 0.24120 0.18691 0.75150
 O1590 O 0.24974 0.27025 0.80970
 O1591 O 0.23178 0.19434 0.78253
 O1592 O 0.19857 0.24543 0.77027
 O1593 O 0.23433 0.25447 0.78061
 O1594 O 0.23025 0.22467 0.75872
 O1595 O 0.26910 0.24170 0.78863
 O1596 O 0.26497 0.21243 0.76802
 Zr1597 Zr 0.27201 0.26100 0.73522
 Zr1598 Zr 0.26125 0.27125 0.78134
 Zr1599 Zr 0.25302 0.21424 0.74033
 Zr1600 Zr 0.22338 0.25449 0.75266
 O1601 O 0.27318 0.19057 0.73358
 O1602 O 0.20966 0.28125 0.76322
 O1603 O 0.24510 0.24380 0.73278
 O1604 O 0.24940 0.27272 0.75365
 O1605 O 0.28422 0.26109 0.76282
 O1606 O 0.27978 0.23108 0.74113
 C1607 C 0.19684 0.23384 0.78513
 C1608 C 0.23289 0.18225 0.76786
 C1609 C 0.24213 0.25592 0.82011
 O1610 O 0.24270 0.29670 0.78603
 O1611 O 0.27623 0.29737 0.77110
 O1612 O 0.28359 0.29076 0.73947
 C1613 C 0.28391 0.30229 0.75457
 O1614 O 0.29559 0.20979 0.79124
 Zr1615 Zr 0.29087 0.23110 0.76897
 O1616 O 0.30302 0.26118 0.72896
 O1617 O 0.28467 0.27879 0.80049
 O1618 O 0.31060 0.24477 0.78908
 O1619 O 0.30681 0.20605 0.75742
 O1620 O 0.31597 0.24307 0.75362
 C1621 C 0.31782 0.25409 0.73841
 O1622 O 0.26148 0.28123 0.71418
 O1623 O 0.22846 0.20474 0.72330
 O1624 O 0.27318 0.24863 0.70690
 O1625 O 0.26026 0.21673 0.71092
 O1626 O 0.20194 0.24039 0.73451
 O1627 O 0.21811 0.27280 0.72819
 C1628 C 0.26762 0.23111 0.70041
 H1629 H 0.21798 0.21611 0.75750
 H1630 H 0.24617 0.28680 0.75011
 H1631 H 0.28983 0.22567 0.73177
 H1632 H 0.27442 0.24104 0.80185
 H1633 H 0.19511 0.28026 0.76032
 H1634 H 0.24933 0.30524 0.79591
 H1635 H 0.28112 0.29192 0.80654
 H1636 H 0.32406 0.23868 0.78711
 H1637 H 0.18885 0.24712 0.73689
 H1638 H 0.23228 0.19174 0.71714
 H1639 H 0.26646 0.18181 0.72394
 H1640 H 0.32111 0.20775 0.76107
 H1641 H 0.20399 0.27747 0.72863
 H1642 H 0.27334 0.28558 0.70621
 H1643 H 0.24167 0.20079 0.81594
 H1644 H 0.31024 0.20769 0.79268
 Zr1645 Zr 0.26754 0.76847 0.27440
 O1646 O 0.25868 0.78617 0.29858
 O1647 O 0.29891 0.76890 0.27659
 O1648 O 0.27326 0.75394 0.30094
 O1649 O 0.26577 0.80792 0.24179
 O1650 O 0.26154 0.72171 0.29615
 O1651 O 0.27680 0.79911 0.27149
 O1652 O 0.30977 0.74889 0.25164
 O1653 O 0.27509 0.73891 0.26607
 O1654 O 0.27706 0.76987 0.24550
 O1655 O 0.24110 0.75107 0.27878
 O1656 O 0.24342 0.78140 0.25956
 Zr1657 Zr 0.23353 0.73459 0.22496
 Zr1658 Zr 0.24831 0.72199 0.26894
 Zr1659 Zr 0.25286 0.78115 0.23052
 Zr1660 Zr 0.28342 0.74044 0.23693
 O1661 O 0.23222 0.80505 0.22770
 O1662 O 0.29806 0.71333 0.24442
 O1663 O 0.26007 0.75206 0.22037
 O1664 O 0.25764 0.72204 0.23994
 O1665 O 0.22386 0.73300 0.25385
 O1666 O 0.22630 0.76410 0.23351
 C1667 C 0.31279 0.76035 0.26639
 C1668 C 0.27479 0.81193 0.25768
 C1669 C 0.26982 0.73557 0.30652
 O1670 O 0.26739 0.69663 0.27007
 O1671 O 0.23249 0.69636 0.25900
 O1672 O 0.22265 0.70447 0.22873
 C1673 C 0.22349 0.69223 0.24316
 O1674 O 0.21521 0.78288 0.28626
 Zr1675 Zr 0.21775 0.76258 0.26248
 O1676 O 0.20206 0.73419 0.22275
 O1677 O 0.22650 0.71313 0.29006
 O1678 O 0.19991 0.74803 0.28418
 O1679 O 0.20074 0.78795 0.25419
 O1680 O 0.19146 0.75101 0.24979
 C1681 C 0.18822 0.74061 0.23441
 O1682 O 0.24218 0.71578 0.20150
 O1683 O 0.27577 0.79160 0.21118
 O1684 O 0.22958 0.74860 0.19778
 O1685 O 0.24297 0.78025 0.20206
 O1686 O 0.30299 0.75551 0.21698
 O1687 O 0.28643 0.72328 0.21106
 C1688 C 0.23449 0.76650 0.19171
 H1689 H 0.28907 0.77868 0.24329
 H1690 H 0.26056 0.70819 0.23524
 H1691 H 0.21543 0.76989 0.22576
 H1692 H 0.23688 0.75103 0.29256
 H1693 H 0.31225 0.71451 0.23978
 H1694 H 0.26160 0.68748 0.28008
 H1695 H 0.23058 0.69974 0.29494
 H1696 H 0.18640 0.75425 0.28422
 H1697 H 0.31620 0.74869 0.21723
 H1698 H 0.27147 0.80492 0.20632
 H1699 H 0.23807 0.81438 0.21788
 H1700 H 0.18688 0.78599 0.25951
 H1701 H 0.30051 0.71862 0.20956
 H1702 H 0.22968 0.71174 0.19477
 H1703 H 0.27115 0.79044 0.30525
 H1704 H 0.20079 0.78498 0.28953
 Zr1705 Zr 0.22990 0.76254 0.72430
 O1706 O 0.24236 0.78296 0.70372
 O1707 O 0.20031 0.75943 0.71508
 O1708 O 0.23047 0.74967 0.69620
 O1709 O 0.22188 0.79886 0.75959
 O1710 O 0.24388 0.71851 0.70087
 O1711 O 0.21790 0.79199 0.72762
 O1712 O 0.18592 0.73660 0.73595
 O1713 O 0.22354 0.73174 0.72876
 O1714 O 0.21410 0.76033 0.75064
 O1715 O 0.25803 0.74828 0.72399
 O1716 O 0.24877 0.77621 0.74491
 Zr1717 Zr 0.25523 0.72760 0.77703
 Zr1718 Zr 0.25158 0.71783 0.73002
 Zr1719 Zr 0.23329 0.77222 0.77133
 Zr1720 Zr 0.20883 0.72970 0.75552
 O1721 O 0.25049 0.79728 0.78118
 O1722 O 0.19870 0.70195 0.74336
 O1723 O 0.22684 0.74173 0.77750
 O1724 O 0.23620 0.71426 0.75646
 O1725 O 0.27099 0.72971 0.75064
 O1726 O 0.26130 0.75838 0.77241
 C1727 C 0.18549 0.74839 0.72123
 C1728 C 0.21639 0.80372 0.74254
 C1729 C 0.23610 0.73207 0.69016
 O1730 O 0.23594 0.69063 0.72336
 O1731 O 0.26745 0.69328 0.74097
 O1732 O 0.26932 0.69916 0.77331
 C1733 C 0.27300 0.68849 0.75801
 O1734 O 0.28160 0.78332 0.72475
 Zr1735 Zr 0.27601 0.76045 0.74571
 O1736 O 0.28520 0.73011 0.78577
 O1737 O 0.27787 0.71345 0.71279
 O1738 O 0.29924 0.75003 0.72684
 O1739 O 0.28860 0.78632 0.75940
 O1740 O 0.29977 0.75003 0.76244
 C1741 C 0.30050 0.73872 0.77745
 O1742 O 0.24312 0.70609 0.79675
 O1743 O 0.20564 0.77895 0.78559
 O1744 O 0.25296 0.73964 0.80540
 O1745 O 0.23568 0.76891 0.80126
 O1746 O 0.18425 0.74127 0.77200
 O1747 O 0.20158 0.70998 0.77885
 C1748 C 0.24404 0.75562 0.81185
 H1749 H 0.20123 0.76775 0.75078
 H1750 H 0.23364 0.69980 0.75940
 H1751 H 0.26962 0.76447 0.78268
 H1752 H 0.26496 0.74992 0.71130
 H1753 H 0.18383 0.70135 0.74501
 H1754 H 0.24454 0.68313 0.71400
 H1755 H 0.27622 0.70021 0.70620
 H1756 H 0.31180 0.75748 0.73011
 H1757 H 0.17200 0.73355 0.76830
 H1758 H 0.20762 0.79197 0.79250
 H1759 H 0.24166 0.80495 0.79019
 H1760 H 0.30335 0.78616 0.75682
 H1761 H 0.18775 0.70445 0.77731
 H1762 H 0.25408 0.70253 0.80560
 H1763 H 0.23136 0.78663 0.69494
 H1764 H 0.29611 0.78706 0.72455
 Zr1765 Zr 0.27015 0.23688 0.22809
 O1766 O 0.26112 0.21444 0.20801
 O1767 O 0.29908 0.24427 0.21759
 O1768 O 0.26714 0.24889 0.19996
 O1769 O 0.28568 0.20427 0.26380
 O1770 O 0.24586 0.27542 0.20462
 O1771 O 0.28597 0.20932 0.23124
 O1772 O 0.30881 0.27083 0.23650
 O1773 O 0.27095 0.26840 0.23165
 O1774 O 0.28587 0.24277 0.25342
 O1775 O 0.23984 0.24585 0.22938
 O1776 O 0.25432 0.22100 0.25009
 Zr1777 Zr 0.23979 0.26872 0.28184
 Zr1778 Zr 0.24083 0.27711 0.23449
 Zr1779 Zr 0.26941 0.22861 0.27548
 Zr1780 Zr 0.28563 0.27394 0.25750
 O1781 O 0.25745 0.20097 0.28631
 O1782 O 0.29046 0.30265 0.24453
 O1783 O 0.27037 0.25988 0.28079
 O1784 O 0.25599 0.28418 0.25988
 O1785 O 0.22396 0.26293 0.25650
 O1786 O 0.23938 0.23727 0.27800
 C1787 C 0.31161 0.25831 0.22245
 C1788 C 0.29048 0.19915 0.24641
 C1789 C 0.25658 0.26374 0.19381
 O1790 O 0.25247 0.30528 0.22464
 O1791 O 0.22364 0.30085 0.24602
 O1792 O 0.22185 0.29492 0.27841
 C1793 C 0.21796 0.30547 0.26330
 O1794 O 0.22217 0.20800 0.23153
 Zr1795 Zr 0.22466 0.23160 0.25233
 O1796 O 0.21073 0.26113 0.29225
 O1797 O 0.21267 0.27686 0.22068
 O1798 O 0.19913 0.23794 0.23555
 O1799 O 0.21803 0.20372 0.26628
 O1800 O 0.20030 0.23650 0.27147
 C1801 C 0.19757 0.24831 0.28604
 O1802 O 0.24816 0.29234 0.30094
 O1803 O 0.29796 0.22820 0.28858
 O1804 O 0.24470 0.25812 0.31023
 O1805 O 0.26627 0.23190 0.30541
 O1806 O 0.31230 0.26738 0.27251
 O1807 O 0.28989 0.29531 0.28012
 C1808 C 0.25593 0.24376 0.31639
 H1809 H 0.29985 0.23770 0.25293
 H1810 H 0.25642 0.29894 0.26239
 H1811 H 0.23255 0.23000 0.28880
 H1812 H 0.23289 0.24248 0.21725
 H1813 H 0.30504 0.30595 0.24528
 H1814 H 0.24231 0.31102 0.21599
 H1815 H 0.21196 0.28966 0.21335
 H1816 H 0.18812 0.22858 0.23973
 H1817 H 0.32296 0.27694 0.26788
 H1818 H 0.29873 0.21528 0.29572
 H1819 H 0.26760 0.19548 0.29512
 H1820 H 0.20346 0.20080 0.26472
 H1821 H 0.30261 0.30299 0.27775
 H1822 H 0.23680 0.29410 0.31030
 H1823 H 0.27261 0.21243 0.19885
 H1824 H 0.20830 0.20227 0.23197
 Zr1825 Zr 0.73075 0.73568 0.27459
 O1826 O 0.74135 0.71364 0.29386
 O1827 O 0.70059 0.73820 0.28348
 O1828 O 0.73026 0.74645 0.30346
 O1829 O 0.72332 0.70206 0.23687
 O1830 O 0.74484 0.77786 0.30103
 O1831 O 0.71785 0.70670 0.26915
 O1832 O 0.68898 0.76375 0.26486
 O1833 O 0.72594 0.76685 0.27220
 O1834 O 0.71647 0.74014 0.24836
 O1835 O 0.75946 0.74945 0.27612
 O1836 O 0.75025 0.72333 0.25332
 Zr1837 Zr 0.76034 0.77418 0.22473
 Zr1838 Zr 0.75458 0.78039 0.27219
 Zr1839 Zr 0.73629 0.72949 0.22714
 Zr1840 Zr 0.71281 0.77119 0.24554
 O1841 O 0.75300 0.70503 0.21562
 O1842 O 0.70327 0.79838 0.25906
 O1843 O 0.73146 0.76049 0.22302
 O1844 O 0.74078 0.78622 0.24596
 O1845 O 0.77471 0.76987 0.25098
 O1846 O 0.76487 0.74301 0.22723
 C1847 C 0.68686 0.75048 0.27830
 C1848 C 0.71676 0.69605 0.25351
 C1849 C 0.73598 0.76360 0.31063
 O1850 O 0.73972 0.80728 0.28060
 O1851 O 0.77162 0.80570 0.26314
 O1852 O 0.77534 0.80211 0.23057
 C1853 C 0.77822 0.81177 0.24656
 O1854 O 0.78224 0.71475 0.27360
 Zr1855 Zr 0.77819 0.73872 0.25377
 O1856 O 0.79055 0.77183 0.21600
 O1857 O 0.78006 0.78294 0.28997
 O1858 O 0.80101 0.74809 0.27299
 O1859 O 0.78993 0.71318 0.23894
 O1860 O 0.80311 0.74907 0.23708
 C1861 C 0.80504 0.76170 0.22305
 O1862 O 0.75018 0.79733 0.20645
 O1863 O 0.70909 0.72427 0.21232
 O1864 O 0.75899 0.76438 0.19560
 O1865 O 0.74029 0.73514 0.19760
 O1866 O 0.68833 0.76118 0.22856
 O1867 O 0.70763 0.79233 0.22324
 C1868 C 0.74971 0.74908 0.18803
 H1869 H 0.70331 0.73297 0.24761
 H1870 H 0.73892 0.80090 0.24399
 H1871 H 0.77341 0.73752 0.21662
 H1872 H 0.76563 0.74678 0.28872
 H1873 H 0.68853 0.79939 0.25730
 H1874 H 0.74805 0.81389 0.29060
 H1875 H 0.77861 0.79570 0.29740
 H1876 H 0.81349 0.74084 0.26926
 H1877 H 0.67633 0.76895 0.23276
 H1878 H 0.71092 0.71182 0.20449
 H1879 H 0.74435 0.69825 0.20599
 H1880 H 0.80458 0.71279 0.24143
 H1881 H 0.69399 0.79805 0.22496
 H1882 H 0.76177 0.80136 0.19798
 H1883 H 0.72974 0.70946 0.30224
 H1884 H 0.79666 0.71110 0.27375
 Zr1885 Zr 0.77346 0.25757 0.77027
 O1886 O 0.76180 0.27587 0.79292
 O1887 O 0.80441 0.25834 0.77574
 O1888 O 0.77661 0.24400 0.79769
 O1889 O 0.77425 0.29586 0.73633
 O1890 O 0.76564 0.21152 0.79290
 O1891 O 0.78253 0.28831 0.76721
 O1892 O 0.81806 0.23879 0.75174
 O1893 O 0.78207 0.22785 0.76371
 O1894 O 0.78598 0.25811 0.74236
 O1895 O 0.74683 0.24001 0.77256
 O1896 O 0.75097 0.26956 0.75259
 Zr1897 Zr 0.74532 0.22151 0.71882
 Zr1898 Zr 0.75529 0.21068 0.76452
 Zr1899 Zr 0.76350 0.26843 0.72461
 Zr1900 Zr 0.79347 0.22848 0.73547
 O1901 O 0.74289 0.29152 0.71827
 O1902 O 0.80771 0.20234 0.74601
 O1903 O 0.77200 0.23912 0.71626
 O1904 O 0.76771 0.20982 0.73656
 O1905 O 0.73256 0.22080 0.74665
 O1906 O 0.73696 0.25120 0.72550
 C1907 C 0.81944 0.25041 0.76662
 C1908 C 0.78154 0.30063 0.75285
 C1909 C 0.77285 0.22578 0.80352
 O1910 O 0.77428 0.18558 0.76833
 O1911 O 0.74083 0.18449 0.75392
 O1912 O 0.73381 0.19166 0.72266
 C1913 C 0.73329 0.17988 0.73748
 O1914 O 0.71973 0.27141 0.77642
 Zr1915 Zr 0.72527 0.25056 0.75355
 O1916 O 0.71451 0.22066 0.71322
 O1917 O 0.73150 0.20234 0.78379
 O1918 O 0.70527 0.23627 0.77364
 O1919 O 0.70929 0.27561 0.74289
 O1920 O 0.70067 0.23851 0.73826
 C1921 C 0.69936 0.22750 0.72294
 O1922 O 0.75685 0.20189 0.69717
 O1923 O 0.78841 0.27909 0.70779
 O1924 O 0.74392 0.23446 0.69091
 O1925 O 0.75806 0.26583 0.69506
 O1926 O 0.81444 0.24284 0.71633
 O1927 O 0.79959 0.20982 0.71105
 C1928 C 0.75048 0.25172 0.68451
 H1929 H 0.79796 0.26711 0.74100
 H1930 H 0.77121 0.19584 0.73267
 H1931 H 0.72705 0.25657 0.71641
 H1932 H 0.74117 0.24039 0.78587
 H1933 H 0.82229 0.20365 0.74279
 H1934 H 0.76755 0.17675 0.77809
 H1935 H 0.73511 0.18916 0.78945
 H1936 H 0.69175 0.24217 0.77200
 H1937 H 0.82772 0.23647 0.71810
 H1938 H 0.78439 0.29203 0.70190
 H1939 H 0.74972 0.30050 0.70871
 H1940 H 0.69491 0.27364 0.74668
 H1941 H 0.81379 0.20538 0.71129
 H1942 H 0.74527 0.19739 0.68931
 H1943 H 0.77342 0.28061 0.80062
 H1944 H 0.70502 0.27326 0.77816
 C1945 C 0.46274 0.99193 0.36486
 C1946 C 0.44723 0.97815 0.36023
 C1947 C 0.43712 0.97975 0.34276
 C1948 C 0.44251 0.99496 0.32943
 C1949 C 0.45851 1.00828 0.33378
 C1950 C 0.46840 1.00687 0.35136
 C1951 C 0.47161 0.99193 0.38438
 C1952 C 0.47257 1.01007 0.39497
 C1953 C 0.47866 1.01009 0.41411
 C1954 C 0.48433 0.99206 0.42305
 C1955 C 0.48441 0.97402 0.41227
 C1956 C 0.47785 0.97391 0.39311
 H1957 H 0.42500 0.96914 0.33970
 H1958 H 0.46294 1.02019 0.32384
 H1959 H 0.47841 1.02418 0.42216
 H1960 H 0.48852 0.95991 0.41894
 H1961 H 0.48031 1.01768 0.35456
 H1962 H 0.46768 1.02412 0.38871
 H1963 H 0.44242 0.96662 0.37044
 H1964 H 0.47729 0.95973 0.38523
 C1965 C -0.03094 0.49749 0.85887
 C1966 C -0.03735 0.47900 0.85094
 C1967 C -0.04751 0.47838 0.83343
 C1968 C -0.05175 0.49631 0.82322
 C1969 C -0.04427 0.51474 0.83093
 C1970 C -0.03406 0.51527 0.84838
 C1971 C -0.02282 0.49853 0.87876
 C1972 C -0.02920 0.51400 0.89131
 C1973 C -0.02334 0.51434 0.91049
 C1974 C -0.01091 0.49921 0.91779
 C1975 C -0.00382 0.48408 0.90515
 C1976 C -0.00983 0.48368 0.88582
 H1977 H -0.05174 0.46361 0.82798
 H1978 H -0.04715 0.52914 0.82430
 H1979 H -0.02900 0.52632 0.91975
 H1980 H 0.00573 0.47220 0.91036
 H1981 H -0.02905 0.52979 0.85394
 H1982 H -0.03944 0.52549 0.88654
 H1983 H -0.03516 0.46498 0.85861
 H1984 H -0.00451 0.47164 0.87646
 C1985 C 0.03446 0.00103 0.85866
 C1986 C 0.03585 -0.01723 0.84826
 C1987 C 0.04566 -0.01786 0.83024
 C1988 C 0.05444 -0.00026 0.82220
 C1989 C 0.05227 0.01819 0.83226
 C1990 C 0.04234 0.01883 0.85026
 C1991 C 0.02667 0.00104 0.87890
 C1992 C 0.01365 0.01616 0.88596
 C1993 C 0.00752 0.01646 0.90547
 C1994 C 0.01470 0.00191 0.91827
 C1995 C 0.02740 -0.01333 0.91105
 C1996 C 0.03322 -0.01382 0.89165
 H1997 H 0.04659 -0.03222 0.82271
 H1998 H 0.05900 0.03201 0.82661
 H1999 H -0.00223 0.02841 0.91068
 H2000 H 0.03309 -0.02484 0.92052
 H2001 H 0.04169 0.03306 0.85804
 H2002 H 0.00834 0.02777 0.87640
 H2003 H 0.02966 -0.03114 0.85426
 H2004 H 0.04344 -0.02549 0.88673
 C2005 C 0.53392 0.49038 0.35864
 C2006 C 0.55236 0.48023 0.35646
 C2007 C 0.56311 0.48060 0.33895
 C2008 C 0.55593 0.49136 0.32312
 C2009 C 0.53743 0.50143 0.32520
 C2010 C 0.52654 0.50093 0.34274
 C2011 C 0.52299 0.49035 0.37767
 C2012 C 0.51310 0.50774 0.38469
 C2013 C 0.50523 0.50837 0.40362
 C2014 C 0.50736 0.49173 0.41589
 C2015 C 0.51614 0.47402 0.40855
 C2016 C 0.52364 0.47324 0.38963
 H2017 H 0.57711 0.47240 0.33785
 H2018 H 0.53152 0.51006 0.31340
 H2019 H 0.49868 0.52226 0.40905
 H2020 H 0.51780 0.46093 0.41771
 H2021 H 0.51235 0.50878 0.34382
 H2022 H 0.51241 0.52124 0.37597
 H2023 H 0.55878 0.47227 0.36843
 H2024 H 0.53051 0.45938 0.38457
 C2025 C 0.53534 0.49597 0.13887
 C2026 C 0.54045 0.51436 0.14796
 C2027 C 0.54956 0.51455 0.16595
 C2028 C 0.55375 0.49635 0.17536
 C2029 C 0.54747 0.47797 0.16681
 C2030 C 0.53831 0.47779 0.14875
 C2031 C 0.52940 0.49591 0.11832
 C2032 C 0.51333 0.48392 0.11143
 C2033 C 0.50830 0.48437 0.09178
 C2034 C 0.51953 0.49654 0.07875
 C2035 C 0.53576 0.50816 0.08584
 C2036 C 0.54056 0.50787 0.10524
 H2037 H 0.55426 0.52896 0.17198
 H2038 H 0.55013 0.46369 0.17384
 H2039 H 0.49573 0.47525 0.08683
 H2040 H 0.54483 0.51779 0.07641
 H2041 H 0.53456 0.46341 0.14207
 H2042 H 0.50454 0.47447 0.12125
 H2043 H 0.53812 0.52862 0.14076
 H2044 H 0.55328 0.51692 0.10999
 C2045 C 0.03344 0.98920 0.63952
 C2046 C 0.02704 1.00187 0.65474
 C2047 C 0.03783 1.00301 0.67185
 C2048 C 0.05539 0.99165 0.67410
 C2049 C 0.06144 0.97851 0.65910
 C2050 C 0.05053 0.97724 0.64204
 C2051 C 0.02362 0.99009 0.62043
 C2052 C 0.01984 0.97248 0.60944
 C2053 C 0.01269 0.97391 0.59055
 C2054 C 0.00961 0.99297 0.58236
 C2055 C 0.01270 1.01042 0.59357
 C2056 C 0.01945 1.00901 0.61242
 H2057 H 0.03281 1.01333 0.68309
 H2058 H 0.07473 0.96934 0.66051
 H2059 H 0.01067 0.96028 0.58202
 H2060 H 0.01060 1.02528 0.58743
 H2061 H 0.05595 0.96750 0.63050
 H2062 H 0.02287 0.95770 0.61530
 H2063 H 0.01386 1.01120 0.65325
 H2064 H 0.02245 1.02284 0.62036
 C2065 C -0.02580 0.48744 0.64049
 C2066 C -0.03128 0.50605 0.64888
 C2067 C -0.04133 0.50667 0.66680
 C2068 C -0.04623 0.48869 0.67670
 C2069 C -0.03998 0.47017 0.66874
 C2070 C -0.02980 0.46956 0.65090
 C2071 C -0.01787 0.48654 0.62025
 C2072 C -0.02490 0.47133 0.60775
 C2073 C -0.01967 0.47163 0.58818
 C2074 C -0.00728 0.48715 0.58048
 C2075 C 0.00068 0.50180 0.59309
 C2076 C -0.00462 0.50153 0.61278
 H2077 H -0.04611 0.52116 0.67250
 H2078 H -0.04322 0.45610 0.67621
 H2079 H -0.02602 0.46003 0.57892
 H2080 H 0.01023 0.51398 0.58761
 H2081 H -0.02543 0.45500 0.64506
 H2082 H -0.03532 0.45971 0.61286
 H2083 H -0.02870 0.52009 0.64117
 H2084 H 0.00126 0.51333 0.62208
 C2085 C 0.46881 -0.00247 0.14359
 C2086 C 0.46220 0.01594 0.15159
 C2087 C 0.45245 0.01640 0.16968
 C2088 C 0.44908 -0.00154 0.18019
 C2089 C 0.45648 -0.01979 0.17255
 C2090 C 0.46624 -0.02024 0.15450
 C2091 C 0.47662 -0.00343 0.12333
 C2092 C 0.47013 -0.01915 0.11114
 C2093 C 0.47568 -0.01932 0.09164
 C2094 C 0.48795 -0.00382 0.08373
 C2095 C 0.49518 0.01152 0.09601
 C2096 C 0.48946 0.01177 0.11562
 H2097 H 0.44676 0.03068 0.17506
 H2098 H 0.45450 -0.03380 0.18044
 H2099 H 0.46990 -0.03142 0.08263
 H2100 H 0.50459 0.02370 0.09034
 H2101 H 0.47148 -0.03461 0.14890
 H2102 H 0.46003 -0.03094 0.11649
 H2103 H 0.46371 0.02986 0.14348
 H2104 H 0.49484 0.02400 0.12469
 C2105 C 0.36765 0.43456 0.00834
 C2106 C 0.35123 0.44174 -0.00209
 C2107 C 0.33305 0.43081 -0.00267
 C2108 C 0.33065 0.41241 0.00728
 C2109 C 0.34691 0.40544 0.01809
 C2110 C 0.36516 0.41636 0.01860
 C2111 C 0.38741 0.44572 0.00786
 C2112 C 0.39958 0.44718 0.02426
 C2113 C 0.41806 0.45785 0.02352
 C2114 C 0.42476 0.46731 0.00637
 C2115 C 0.41261 0.46562 -0.01000
 C2116 C 0.39430 0.45497 -0.00928
 H2117 H 0.32099 0.43660 -0.01128
 H2118 H 0.34554 0.39152 0.02621
 H2119 H 0.42700 0.45881 0.03640
 H2120 H 0.41727 0.47247 -0.02356
 H2121 H 0.37748 0.41029 0.02669
 H2122 H 0.39469 0.44036 0.03775
 H2123 H 0.35244 0.45586 -0.00991
 H2124 H 0.38565 0.45378 -0.02232
 C2125 C -0.13681 0.93258 0.50477
 C2126 C -0.15322 0.94006 0.49452
 C2127 C -0.17137 0.92908 0.49358
 C2128 C -0.17367 0.91032 0.50292
 C2129 C -0.15738 0.90300 0.51344
 C2130 C -0.13920 0.91396 0.51434
 C2131 C -0.11719 0.94395 0.50501
 C2132 C -0.10537 0.94474 0.52166
 C2133 C -0.08699 0.95552 0.52170
 C2134 C -0.08002 0.96581 0.50509
 C2135 C -0.09181 0.96485 0.48844
 C2136 C -0.11007 0.95407 0.48840
 H2137 H -0.18348 0.93515 0.48521
 H2138 H -0.15868 0.88877 0.52108
 H2139 H -0.07835 0.95593 0.53478
 H2140 H -0.08693 0.97241 0.47531
 H2141 H -0.12687 0.90764 0.52224
 H2142 H -0.11047 0.93728 0.53477
 H2143 H -0.15207 0.95449 0.48722
 H2144 H -0.11849 0.95346 0.47519
 C2145 C -0.13607 0.06819 0.98938
 C2146 C -0.13572 0.08835 0.99573
 C2147 C -0.15361 0.09923 0.99776
 C2148 C -0.17242 0.09040 0.99301
 C2149 C -0.17248 0.07018 0.98618
 C2150 C -0.15459 0.05918 0.98469
 C2151 C -0.11722 0.05638 0.98853
 C2152 C -0.11570 0.03859 0.99935
 C2153 C -0.09742 0.02832 1.00000
 C2154 C -0.08045 0.03533 0.98942
 C2155 C -0.08219 0.05268 0.97799
 C2156 C -0.10035 0.06329 0.97775
 H2157 H -0.15241 0.11484 1.00240
 H2158 H -0.18641 0.06236 0.98282
 H2159 H -0.09646 0.01499 1.00896
 H2160 H -0.06928 0.05852 0.96991
 H2161 H -0.15522 0.04356 0.97989
 H2162 H -0.12848 0.03306 1.00785
 H2163 H -0.12157 0.09560 0.99946
 H2164 H -0.10120 0.07699 0.96932
 C2165 C 0.36135 0.56819 0.48602
 C2166 C 0.36214 0.58939 0.48758
 C2167 C 0.34436 0.60050 0.48952
 C2168 C 0.32544 0.59065 0.48954
 C2169 C 0.32464 0.56950 0.48743
 C2170 C 0.34242 0.55836 0.48590
 C2171 C 0.38019 0.55630 0.48578
 C2172 C 0.38247 0.54060 0.49909
 C2173 C 0.40066 0.53026 0.50004
 C2174 C 0.41684 0.53506 0.48741
 C2175 C 0.41438 0.55028 0.47360
 C2176 C 0.39627 0.56101 0.47296
 H2177 H 0.34538 0.61680 0.49098
 H2178 H 0.31025 0.56155 0.48745
 H2179 H 0.40215 0.51858 0.51080
 H2180 H 0.42668 0.55438 0.46382
 H2181 H 0.34143 0.54203 0.48471
 H2182 H 0.37038 0.53679 0.50921
 H2183 H 0.37654 0.59730 0.48788
 H2184 H 0.39484 0.57304 0.46255
 C2185 C 0.12845 0.57707 0.50479
 C2186 C 0.13119 0.59479 0.49384
 C2187 C 0.14997 0.60462 0.49273
 C2188 C 0.16658 0.59705 0.50258
 C2189 C 0.16379 0.57948 0.51379
 C2190 C 0.14494 0.56964 0.51493
 C2191 C 0.10872 0.56595 0.50480
 C2192 C 0.10051 0.55706 0.52168
 C2193 C 0.08209 0.54633 0.52127
 C2194 C 0.07158 0.54412 0.50394
 C2195 C 0.07980 0.55319 0.48716
 C2196 C 0.09805 0.56392 0.48759
 H2197 H 0.15157 0.61798 0.48382
 H2198 H 0.17618 0.57338 0.52176
 H2199 H 0.07622 0.53956 0.53446
 H2200 H 0.07224 0.55186 0.47351
 H2201 H 0.14339 0.55595 0.52337
 H2202 H 0.10828 0.55850 0.53521
 H2203 H 0.11877 0.60107 0.48603
 H2204 H 0.10405 0.57026 0.47427
 C2205 C 0.62980 0.07887 0.00928
 C2206 C 0.63291 0.09620 -0.00215
 C2207 C 0.65187 0.10560 -0.00352
 C2208 C 0.66831 0.09801 0.00657
 C2209 C 0.66514 0.08090 0.01833
 C2210 C 0.64609 0.07147 0.01971
 C2211 C 0.60995 0.06801 0.00931
 C2212 C 0.60128 0.05978 0.02629
 C2213 C 0.58275 0.04921 0.02583
 C2214 C 0.57267 0.04649 0.00832
 C2215 C 0.58134 0.05495 -0.00854
 C2216 C 0.59965 0.06552 -0.00805
 H2217 H 0.65375 0.11861 -0.01285
 H2218 H 0.67739 0.07480 0.02649
 H2219 H 0.57652 0.04289 0.03907
 H2220 H 0.57408 0.05324 -0.02232
 H2221 H 0.64424 0.05807 0.02853
 H2222 H 0.60878 0.06159 0.03993
 H2223 H 0.62064 0.10245 -0.01020
 H2224 H 0.60600 0.07136 -0.02145
 C2225 C 0.62962 0.92493 0.49476
 C2226 C 0.63033 0.90376 0.49635
 C2227 C 0.64889 0.89395 0.49738
 C2228 C 0.66711 0.90507 0.49643
 C2229 C 0.66639 0.92619 0.49434
 C2230 C 0.64784 0.93603 0.49372
 C2231 C 0.60998 0.93554 0.49521
 C2232 C 0.60685 0.95161 0.50818
 C2233 C 0.58827 0.96131 0.50928
 C2234 C 0.57243 0.95547 0.49717
 C2235 C 0.57563 0.93963 0.48388
 C2236 C 0.59417 0.92957 0.48309
 H2237 H 0.64903 0.87764 0.49883
 H2238 H 0.68019 0.93512 0.49363
 H2239 H 0.58632 0.97353 0.51960
 H2240 H 0.56368 0.93475 0.47443
 H2241 H 0.64771 0.95236 0.49244
 H2242 H 0.61871 0.95642 0.51777
 H2243 H 0.61652 0.89488 0.49732
 H2244 H 0.59624 0.91724 0.47293
 C2245 C 0.13508 0.42842 0.98959
 C2246 C 0.13539 0.40748 0.99300
 C2247 C 0.15372 0.39759 0.99547
 C2248 C 0.17213 0.40838 0.99423
 C2249 C 0.17182 0.42919 0.99022
 C2250 C 0.15349 0.43914 0.98811
 C2251 C 0.11564 0.43934 0.98905
 C2252 C 0.11277 0.45639 1.00086
 C2253 C 0.09425 0.46617 1.00151
 C2254 C 0.07820 0.45940 0.99010
 C2255 C 0.08116 0.44271 0.97778
 C2256 C 0.09968 0.43257 0.97746
 H2257 H 0.15353 0.38150 0.99837
 H2258 H 0.18576 0.43788 0.98923
 H2259 H 0.09242 0.47905 1.01109
 H2260 H 0.06900 0.43713 0.96893
 H2261 H 0.15367 0.45528 0.98547
 H2262 H 0.12473 0.46183 1.01004
 H2263 H 0.12141 0.39890 0.99437
 H2264 H 0.10155 0.41946 0.96820
 C2265 C -0.00539 0.37508 0.40798
 C2266 C -0.02336 0.36363 0.40813
 C2267 C -0.02393 0.34453 0.39957
 C2268 C -0.00653 0.33661 0.39066
 C2269 C 0.01107 0.34863 0.38944
 C2270 C 0.01166 0.36769 0.39810
 C2271 C -0.00397 0.39364 0.41973
 C2272 C 0.01229 0.39646 0.43215
 C2273 C 0.01272 0.41287 0.44482
 C2274 C -0.00309 0.42681 0.44524
 C2275 C -0.01907 0.42428 0.43236
 C2276 C -0.01953 0.40779 0.41977
 H2277 H -0.03763 0.33551 0.40092
 H2278 H 0.02457 0.34302 0.38230
 H2279 H 0.02530 0.41446 0.45446
 H2280 H -0.03141 0.43483 0.43221
 H2281 H 0.02559 0.37644 0.39757
 H2282 H 0.02434 0.38557 0.43255
 H2283 H -0.03664 0.36894 0.41585
 H2284 H -0.03215 0.40594 0.41022
 C2285 C 0.50677 -0.12834 -0.08086
 C2286 C 0.49962 -0.12879 -0.09980
 C2287 C 0.49954 -0.14683 -0.11032
 C2288 C 0.50672 -0.16463 -0.10208
 C2289 C 0.51432 -0.16406 -0.08335
 C2290 C 0.51429 -0.14610 -0.07281
 C2291 C 0.50565 -0.10969 -0.06915
 C2292 C 0.52134 -0.10445 -0.05671
 C2293 C 0.51978 -0.08750 -0.04481
 C2294 C 0.50257 -0.07538 -0.04523
 C2295 C 0.48701 -0.08043 -0.05790
 C2296 C 0.48851 -0.09749 -0.06971
 H2297 H 0.49377 -0.14693 -0.12482
 H2298 H 0.51960 -0.17770 -0.07658
 H2299 H 0.53215 -0.08382 -0.03539
 H2300 H 0.47355 -0.07137 -0.05853
 H2301 H 0.51953 -0.14629 -0.05813
 H2302 H 0.53486 -0.11343 -0.05622
 H2303 H 0.49402 -0.11522 -0.10643
 H2304 H 0.47606 -0.10137 -0.07895
 C2305 C 0.01713 -0.13438 1.06649
 C2306 C 0.01071 -0.15264 1.05801
 C2307 C 0.01151 -0.17072 1.06820
 C2308 C 0.01900 -0.17095 1.08700
 C2309 C 0.02642 -0.15287 1.09509
 C2310 C 0.02537 -0.13474 1.08499
 C2311 C 0.01428 -0.11492 1.05653
 C2312 C 0.02864 -0.09921 1.05803
 C2313 C 0.02544 -0.08060 1.04932
 C2314 C 0.00794 -0.07743 1.03874
 C2315 C -0.00632 -0.09318 1.03702
 C2316 C -0.00325 -0.11169 1.04595
 H2317 H 0.00550 -0.18435 1.06161
 H2318 H 0.03260 -0.15263 1.10943
 H2319 H 0.03680 -0.06878 1.05065
 H2320 H -0.01999 -0.09108 1.02902
 H2321 H 0.03033 -0.12092 1.09199
 H2322 H 0.04243 -0.10134 1.06583
 H2323 H 0.00467 -0.15291 1.04361
 H2324 H -0.01481 -0.12334 1.04488
 C2325 C 0.50880 0.36761 0.57283
 C2326 C 0.52093 0.36584 0.58910
 C2327 C 0.52318 0.34711 0.59794
 C2328 C 0.51313 0.32985 0.59082
 C2329 C 0.50124 0.33162 0.57440
 C2330 C 0.49925 0.35024 0.56541
 C2331 C 0.50595 0.38746 0.56360
 C2332 C 0.48718 0.39235 0.55592
 C2333 C 0.48475 0.41048 0.54615
 C2334 C 0.50093 0.42423 0.54422
 C2335 C 0.51948 0.41977 0.55249
 C2336 C 0.52202 0.40145 0.56198
 H2337 H 0.53267 0.34618 0.61041
 H2338 H 0.49301 0.31873 0.56871
 H2339 H 0.47024 0.41374 0.54008
 H2340 H 0.53223 0.43011 0.55103
 H2341 H 0.49015 0.35101 0.55265
 H2342 H 0.47436 0.38212 0.55738
 H2343 H 0.52838 0.37897 0.59524
 H2344 H 0.53673 0.39803 0.56752
 C2345 C 0.49093 1.13751 0.56545
 C2346 C 0.49772 1.15496 0.55566
 C2347 C 0.49833 1.17360 0.56516
 C2348 C 0.49202 1.17511 0.58454
 C2349 C 0.48459 1.15784 0.59413
 C2350 C 0.48410 1.13919 0.58469
 C2351 C 0.49175 1.11747 0.55597
 C2352 C 0.47627 1.10313 0.55919
 C2353 C 0.47755 1.08385 0.55108
 C2354 C 0.49429 1.07858 0.53946
 C2355 C 0.50962 1.09302 0.53597
 C2356 C 0.50841 1.11226 0.54421
 H2357 H 0.50393 1.18680 0.55745
 H2358 H 0.47995 1.15859 0.60918
 H2359 H 0.46534 1.07313 0.55381
 H2360 H 0.52272 1.08936 0.52711
 H2361 H 0.47909 1.12596 0.59269
 H2362 H 0.46311 1.10683 0.56793
 H2363 H 0.50272 1.15416 0.54072
 H2364 H 0.52073 1.12291 0.54174
 C2365 C 0.00305 0.63633 1.06911
 C2366 C 0.01984 0.64230 1.07982
 C2367 C 0.01996 0.66079 1.08956
 C2368 C 0.00336 0.67373 1.08857
 C2369 C -0.01336 0.66776 1.07767
 C2370 C -0.01355 0.64916 1.06811
 C2371 C 0.00289 0.61671 1.05899
 C2372 C -0.01384 0.60361 1.06081
 C2373 C -0.01391 0.58495 1.05133
 C2374 C 0.00266 0.57925 1.03970
 C2375 C 0.01935 0.59246 1.03784
 C2376 C 0.01950 0.61099 1.04750
 H2377 H 0.03289 0.66478 1.09814
 H2378 H -0.02622 0.67755 1.07638
 H2379 H -0.02701 0.57509 1.05296
 H2380 H 0.03235 0.58843 1.02902
 H2381 H -0.02655 0.64490 1.05971
 H2382 H -0.02675 0.60772 1.06974
 H2383 H 0.03271 0.63248 1.08093
 H2384 H 0.03250 0.62098 1.04583
 C2385 C 0.50085 0.65510 -0.04807
 C2386 C 0.48242 0.65988 -0.05641
 C2387 C 0.48106 0.67672 -0.06825
 C2388 C 0.49803 0.68913 -0.07165
 C2389 C 0.51611 0.68516 -0.06233
 C2390 C 0.51757 0.66810 -0.05070
 C2391 C 0.50299 0.63544 -0.03860
 C2392 C 0.51842 0.62239 -0.04462
 C2393 C 0.51872 0.60254 -0.03793
 C2394 C 0.50369 0.59555 -0.02498
 C2395 C 0.48879 0.60896 -0.01830
 C2396 C 0.48838 0.62871 -0.02516
 H2397 H 0.46701 0.67964 -0.07537
 H2398 H 0.52937 0.69458 -0.06494
 H2399 H 0.53050 0.59259 -0.04316
 H2400 H 0.47704 0.60402 -0.00826
 H2401 H 0.53189 0.66464 -0.04432
 H2402 H 0.52970 0.62726 -0.05518
 H2403 H 0.46941 0.64992 -0.05471
 H2404 H 0.47638 0.63860 -0.02035
 C2405 C -0.00368 1.15896 0.46591
 C2406 C 0.01331 1.17110 0.46173
 C2407 C 0.01164 1.18820 0.45016
 C2408 C -0.00705 1.19311 0.44210
 C2409 C -0.02433 1.18198 0.44810
 C2410 C -0.02265 1.16512 0.45986
 C2411 C -0.00151 1.13854 0.47396
 C2412 C -0.01538 1.13118 0.48782
 C2413 C -0.01548 1.11081 0.49289
 C2414 C -0.00178 1.09739 0.48407
 C2415 C 0.01266 1.10497 0.47080
 C2416 C 0.01282 1.12539 0.46583
 H2417 H 0.02542 1.19614 0.44607
 H2418 H -0.03920 1.18587 0.44327
 H2419 H -0.02668 1.10549 0.50331
 H2420 H 0.02355 1.09507 0.46393
 H2421 H -0.03604 1.15609 0.46305
 H2422 H -0.02652 1.14109 0.49429
 H2423 H 0.02807 1.16669 0.46650
 H2424 H 0.02348 1.13067 0.45488
 C2425 C 0.75034 0.71117 0.88775
 C2426 C 0.73533 0.69801 0.89510
 C2427 C 0.73662 0.69026 0.91373
 C2428 C 0.75314 0.69523 0.92529
 C2429 C 0.76801 0.70871 0.91807
 C2430 C 0.76651 0.71678 0.89950
 C2431 C 0.75003 0.71734 0.86726
 C2432 C 0.75144 0.73780 0.86181
 C2433 C 0.75151 0.74315 0.84222
 C2434 C 0.75077 0.72804 0.82790
 C2435 C 0.74928 0.70766 0.83348
 C2436 C 0.74871 0.70239 0.85292
 H2437 H 0.72505 0.67977 0.91885
 H2438 H 0.78084 0.71284 0.92675
 H2439 H 0.75277 0.75895 0.83825
 H2440 H 0.74859 0.69572 0.82273
 H2441 H 0.77835 0.72677 0.89403
 H2442 H 0.75244 0.74957 0.87268
 H2443 H 0.72276 0.69344 0.88626
 H2444 H 0.74773 0.68653 0.85677
 C2445 C 0.25456 0.21624 0.39506
 C2446 C 0.25553 0.22743 0.41229
 C2447 C 0.25531 0.21746 0.43013
 C2448 C 0.25367 0.19622 0.43092
 C2449 C 0.25234 0.18518 0.41364
 C2450 C 0.25292 0.19506 0.39593
 C2451 C 0.25631 0.22609 0.37598
 C2452 C 0.27133 0.21964 0.36298
 C2453 C 0.27171 0.22639 0.34401
 C2454 C 0.25691 0.23963 0.33739
 C2455 C 0.24248 0.24705 0.35071
 C2456 C 0.24223 0.24034 0.36994
 H2457 H 0.25623 0.22628 0.44329
 H2458 H 0.25119 0.16881 0.41385
 H2459 H 0.28328 0.22057 0.33432
 H2460 H 0.23091 0.25725 0.34608
 H2461 H 0.25214 0.18614 0.38280
 H2462 H 0.28245 0.20882 0.36740
 H2463 H 0.25691 0.24378 0.41190
 H2464 H 0.23049 0.24547 0.37979
 C2465 C 0.74459 0.29013 0.38801
 C2466 C 0.75473 0.28264 0.40404
 C2467 C 0.75337 0.29256 0.42193
 C2468 C 0.74187 0.31021 0.42418
 C2469 C 0.73163 0.31755 0.40817
 C2470 C 0.73308 0.30775 0.39035
 C2471 C 0.74602 0.28006 0.36876
 C2472 C 0.72921 0.27974 0.35674
 C2473 C 0.73095 0.27302 0.33773
 C2474 C 0.74940 0.26598 0.33033
 C2475 C 0.76593 0.26482 0.34256
 C2476 C 0.76429 0.27194 0.36165
 H2477 H 0.76164 0.28662 0.43391
 H2478 H 0.72243 0.33092 0.40939
 H2479 H 0.71793 0.27381 0.32858
 H2480 H 0.78034 0.25953 0.33706
 H2481 H 0.72537 0.31424 0.37828
 H2482 H 0.71475 0.28523 0.36187
 H2483 H 0.76363 0.26906 0.40278
 H2484 H 0.77756 0.27200 0.37050
 C2485 C 0.24269 0.78604 0.88975
 C2486 C 0.25321 0.77865 0.90562
 C2487 C 0.25344 0.78948 0.92308
 C2488 C 0.24324 0.80797 0.92502
 C2489 C 0.23266 0.81520 0.90917
 C2490 C 0.23249 0.80448 0.89180
 C2491 C 0.24247 0.77505 0.87092
 C2492 C 0.22503 0.77521 0.85973
 C2493 C 0.22542 0.76782 0.84087
 C2494 C 0.24310 0.75965 0.83280
 C2495 C 0.26015 0.75795 0.84433
 C2496 C 0.25987 0.76570 0.86325
 H2497 H 0.26188 0.78356 0.93496
 H2498 H 0.22439 0.82919 0.91018
 H2499 H 0.21200 0.76909 0.83232
 H2500 H 0.27400 0.75182 0.83835
 H2501 H 0.22455 0.81088 0.87982
 H2502 H 0.21118 0.78168 0.86534
 H2503 H 0.26115 0.76447 0.90458
 H2504 H 0.27358 0.76536 0.87145
 C2505 C 0.22731 0.79263 0.11250
 C2506 C 0.23952 0.78404 0.09796
 C2507 C 0.24122 0.79298 0.07965
 C2508 C 0.23079 0.81092 0.07529
 C2509 C 0.21790 0.81883 0.08996
 C2510 C 0.21611 0.80976 0.10803
 C2511 C 0.22759 0.78519 0.13275
 C2512 C 0.22818 0.79932 0.14793
 C2513 C 0.22955 0.79300 0.16696
 C2514 C 0.23047 0.77233 0.17152
 C2515 C 0.22929 0.75802 0.15648
 C2516 C 0.22799 0.76441 0.13722
 H2517 H 0.25069 0.78550 0.06907
 H2518 H 0.20982 0.83276 0.08829
 H2519 H 0.23035 0.80447 0.17814
 H2520 H 0.23008 0.74199 0.15954
 H2521 H 0.20631 0.81664 0.11881
 H2522 H 0.22827 0.81542 0.14508
 H2523 H 0.24835 0.77078 0.10092
 H2524 H 0.22743 0.75316 0.12583
 C2525 C 0.74555 0.27831 0.60550
 C2526 C 0.72711 0.28596 0.59950
 C2527 C 0.72606 0.29726 0.58253
 C2528 C 0.74350 0.30132 0.57096
 C2529 C 0.76171 0.29244 0.57662
 C2530 C 0.76269 0.28120 0.59360
 C2531 C 0.74743 0.26940 0.62503
 C2532 C 0.76356 0.27556 0.63656
 C2533 C 0.76468 0.26912 0.65559
 C2534 C 0.74979 0.25623 0.66366
 C2535 C 0.73403 0.24928 0.65200
 C2536 C 0.73276 0.25598 0.63286
 H2537 H 0.71138 0.30259 0.57858
 H2538 H 0.77573 0.29509 0.56880
 H2539 H 0.77709 0.27463 0.66417
 H2540 H 0.72234 0.23938 0.65791
 H2541 H 0.77712 0.27530 0.59776
 H2542 H 0.77494 0.28608 0.63113
 H2543 H 0.71360 0.28393 0.60834
 H2544 H 0.72019 0.25093 0.62425
 C2545 C 0.25956 0.21131 0.61996
 C2546 C 0.24360 0.19762 0.61669
 C2547 C 0.24029 0.18985 0.59828
 C2548 C 0.25294 0.19546 0.58268
 C2549 C 0.26820 0.21010 0.58571
 C2550 C 0.27145 0.21802 0.60422
 C2551 C 0.26448 0.21699 0.64004
 C2552 C 0.26677 0.23729 0.64589
 C2553 C 0.26899 0.24214 0.66552
 C2554 C 0.26905 0.22671 0.67943
 C2555 C 0.26818 0.20643 0.67321
 C2556 C 0.26587 0.20166 0.65382
 H2557 H 0.22809 0.17901 0.59636
 H2558 H 0.27826 0.21466 0.57399
 H2559 H 0.26963 0.25790 0.66987
 H2560 H 0.26854 0.19412 0.68346
 H2561 H 0.28385 0.22855 0.60642
 H2562 H 0.26586 0.24936 0.63545
 H2563 H 0.23398 0.19251 0.62855
 H2564 H 0.26463 0.18588 0.64962
 C2565 C 0.75007 0.72142 0.10968
 C2566 C 0.73867 0.70352 0.10763
 C2567 C 0.73908 0.69257 0.09041
 C2568 C 0.75108 0.69900 0.07446
 C2569 C 0.76236 0.71721 0.07657
 C2570 C 0.76194 0.72815 0.09396
 C2571 C 0.74972 0.73242 0.12847
 C2572 C 0.76758 0.74003 0.13668
 C2573 C 0.76748 0.74718 0.15579
 C2574 C 0.74956 0.74665 0.16690
 C2575 C 0.73156 0.74046 0.15824
 C2576 C 0.73160 0.73363 0.13921
 H2577 H 0.72936 0.67935 0.08965
 H2578 H 0.77231 0.72276 0.06519
 H2579 H 0.78156 0.75173 0.16228
 H2580 H 0.71754 0.74007 0.16653
 H2581 H 0.77093 0.74189 0.09510
 H2582 H 0.78179 0.73927 0.12878
 H2583 H 0.72950 0.69773 0.11952
 H2584 H 0.71751 0.72844 0.13315
 C2585 C 0.18262 0.61362 0.24053
 C2586 C 0.18992 0.59713 0.25100
 C2587 C 0.17904 0.57884 0.25210
 C2588 C 0.16061 0.57643 0.24263
 C2589 C 0.15364 0.59270 0.23163
 C2590 C 0.16445 0.61104 0.23064
 C2591 C 0.19345 0.63363 0.24070
 C2592 C 0.19415 0.64629 0.22438
 C2593 C 0.20394 0.66528 0.22499
 C2594 C 0.21333 0.67201 0.24192
 C2595 C 0.21266 0.65926 0.25815
 C2596 C 0.20284 0.64045 0.25756
 H2597 H 0.18488 0.56678 0.26080
 H2598 H 0.13973 0.59132 0.22380
 H2599 H 0.20414 0.67466 0.21223
 H2600 H 0.21953 0.66389 0.27153
 H2601 H 0.15825 0.62338 0.22255
 H2602 H 0.18725 0.64149 0.21108
 H2603 H 0.20404 0.59837 0.25851
 H2604 H 0.20226 0.63143 0.27056
 C2605 C 0.68924 0.10313 0.73540
 C2606 C 0.66906 0.10275 0.72970
 C2607 C 0.65731 0.08503 0.73127
 C2608 C 0.66531 0.06691 0.73863
 C2609 C 0.68584 0.06739 0.74383
 C2610 C 0.69752 0.08514 0.74226
 C2611 C 0.70132 0.12238 0.73511
 C2612 C 0.71417 0.12712 0.75041
 C2613 C 0.72482 0.14551 0.75084
 C2614 C 0.72300 0.15976 0.73597
 C2615 C 0.71046 0.15491 0.72043
 C2616 C 0.69970 0.13646 0.72004
 H2617 H 0.64204 0.08569 0.72619
 H2618 H 0.69296 0.05440 0.75005
 H2619 H 0.73430 0.14865 0.76307
 H2620 H 0.70862 0.16554 0.70877
 H2621 H 0.71309 0.08480 0.74663
 H2622 H 0.71558 0.11684 0.76240
 H2623 H 0.66214 0.11633 0.72437
 H2624 H 0.69009 0.13322 0.70794
 C2625 C 0.81972 0.11740 0.25917
 C2626 C 0.82736 0.10911 0.27615
 C2627 C 0.83886 0.09146 0.27549
 C2628 C 0.84294 0.08153 0.25784
 C2629 C 0.83525 0.08982 0.24090
 C2630 C 0.82396 0.10754 0.24154
 C2631 C 0.80745 0.13623 0.25967
 C2632 C 0.79171 0.13871 0.24662
 C2633 C 0.78106 0.15677 0.24602
 C2634 C 0.78556 0.17280 0.25868
 C2635 C 0.80069 0.17015 0.27231
 C2636 C 0.81161 0.15211 0.27272
 H2637 H 0.84474 0.08576 0.28882
 H2638 H 0.83779 0.08254 0.22707
 H2639 H 0.76931 0.15825 0.23551
 H2640 H 0.80462 0.18231 0.28214
 H2641 H 0.81873 0.11361 0.22809
 H2642 H 0.78762 0.12668 0.23673
 H2643 H 0.82429 0.11612 0.29002
 H2644 H 0.82374 0.15090 0.28285
 C2645 C 0.31908 0.61453 0.76210
 C2646 C 0.33713 0.61309 0.75127
 C2647 C 0.34772 0.59496 0.75041
 C2648 C 0.34048 0.57767 0.76023
 C2649 C 0.32265 0.57927 0.77149
 C2650 C 0.31211 0.59753 0.77247
 C2651 C 0.30714 0.63341 0.76154
 C2652 C 0.29874 0.64210 0.77839
 C2653 C 0.28774 0.66011 0.77746
 C2654 C 0.28467 0.66952 0.75962
 C2655 C 0.29298 0.66061 0.74283
 C2656 C 0.30409 0.64289 0.74380
 H2657 H 0.36167 0.59455 0.74205
 H2658 H 0.31652 0.56626 0.77913
 H2659 H 0.28154 0.66656 0.79065
 H2660 H 0.29104 0.66740 0.72882
 H2661 H 0.29815 0.59816 0.78081
 H2662 H 0.30093 0.63513 0.79228
 H2663 H 0.34306 0.62605 0.74339
 H2664 H 0.31014 0.63644 0.73055
 C2665 C 0.32407 0.38114 0.75208
 C2666 C 0.31476 0.39815 0.76036
 C2667 C 0.32495 0.41678 0.76144
 C2668 C 0.34494 0.41918 0.75421
 C2669 C 0.35402 0.40201 0.74557
 C2670 C 0.34374 0.38337 0.74451
 C2671 C 0.31354 0.36103 0.75218
 C2672 C 0.31497 0.34763 0.73635
 C2673 C 0.30517 0.32865 0.73686
 C2674 C 0.29383 0.32262 0.75327
 C2675 C 0.29242 0.33611 0.76900
 C2676 C 0.30212 0.35498 0.76846
 H2677 H 0.31716 0.42891 0.76879
 H2678 H 0.36892 0.40281 0.73904
 H2679 H 0.30664 0.31864 0.72452
 H2680 H 0.28390 0.33207 0.78193
 H2681 H 0.35140 0.37056 0.73806
 H2682 H 0.32354 0.35189 0.72352
 H2683 H 0.29953 0.39704 0.76619
 H2684 H 0.30096 0.36470 0.78104
 C2685 C 0.82311 0.88814 0.24797
 C2686 C 0.81590 0.90412 0.25957
 C2687 C 0.82697 0.92217 0.26138
 C2688 C 0.84557 0.92483 0.25159
 C2689 C 0.85266 0.90898 0.23971
 C2690 C 0.84154 0.89088 0.23789
 C2691 C 0.81177 0.86849 0.24715
 C2692 C 0.80993 0.85741 0.22984
 C2693 C 0.79902 0.83901 0.22943
 C2694 C 0.78983 0.83126 0.24636
 C2695 C 0.79189 0.84236 0.26363
 C2696 C 0.80267 0.86062 0.26401
 H2697 H 0.82109 0.93393 0.27076
 H2698 H 0.86677 0.91060 0.23172
 H2699 H 0.79781 0.83088 0.21590
 H2700 H 0.78517 0.83695 0.27703
 H2701 H 0.84760 0.87886 0.22893
 H2702 H 0.81668 0.86311 0.21657
 H2703 H 0.80163 0.90266 0.26733
 H2704 H 0.80410 0.86847 0.27767
 C2705 C 0.67698 0.87256 0.75703
 C2706 C 0.65716 0.87283 0.75041
 C2707 C 0.64693 0.89116 0.74869
 C2708 C 0.65609 0.90980 0.75403
 C2709 C 0.67587 0.90916 0.76122
 C2710 C 0.68621 0.89088 0.76242
 C2711 C 0.68855 0.85348 0.75701
 C2712 C 0.70637 0.85214 0.74588
 C2713 C 0.71704 0.83405 0.74493
 C2714 C 0.71043 0.81701 0.75548
 C2715 C 0.69289 0.81844 0.76708
 C2716 C 0.68184 0.83648 0.76760
 H2717 H 0.63159 0.89046 0.74371
 H2718 H 0.68397 0.92287 0.76503
 H2719 H 0.73055 0.83339 0.73593
 H2720 H 0.68743 0.80549 0.77525
 H2721 H 0.70159 0.89106 0.76740
 H2722 H 0.71178 0.86500 0.73754
 H2723 H 0.64975 0.85885 0.74611
 H2724 H 0.66813 0.83720 0.77629
 C2725 C 0.17457 0.38107 0.26571
 C2726 C 0.18480 0.39975 0.26747
 C2727 C 0.17464 0.41799 0.26510
 C2728 C 0.15408 0.41799 0.26055
 C2729 C 0.14377 0.39931 0.25904
 C2730 C 0.15387 0.38104 0.26179
 C2731 C 0.18592 0.36180 0.26630
 C2732 C 0.17945 0.34539 0.27787
 C2733 C 0.19018 0.32713 0.27765
 C2734 C 0.20716 0.32488 0.26542
 C2735 C 0.21358 0.34137 0.25401
 C2736 C 0.20324 0.35962 0.25459
 H2737 H 0.18300 0.43212 0.26628
 H2738 H 0.12789 0.39886 0.25572
 H2739 H 0.18487 0.31461 0.28650
 H2740 H 0.22667 0.34010 0.24451
 H2741 H 0.14568 0.36686 0.26017
 H2742 H 0.16613 0.34672 0.28705
 H2743 H 0.20076 0.40021 0.27047
 H2744 H 0.20848 0.37192 0.24543
 C2745 C 0.11815 0.22401 0.82033
 C2746 C 0.11602 0.22956 0.83981
 C2747 C 0.09693 0.23073 0.84843
 C2748 C 0.07968 0.22629 0.83771
 C2749 C 0.08190 0.21977 0.81848
 C2750 C 0.10100 0.21871 0.80984
 C2751 C 0.13810 0.22522 0.81071
 C2752 C 0.14037 0.23510 0.79291
 C2753 C 0.15945 0.23782 0.78450
 C2754 C 0.17658 0.23060 0.79372
 C2755 C 0.17419 0.22028 0.81133
 C2756 C 0.15512 0.21768 0.81977
 H2757 H 0.09564 0.23606 0.86318
 H2758 H 0.06884 0.21590 0.81002
 H2759 H 0.16078 0.24573 0.77088
 H2760 H 0.18708 0.21446 0.81876
 H2761 H 0.10237 0.21412 0.79486
 H2762 H 0.12744 0.24126 0.78579
 H2763 H 0.12905 0.23393 0.84812
 H2764 H 0.15367 0.20991 0.83345
 C2765 C 0.60977 0.74590 0.31763
 C2766 C 0.60772 0.73669 0.33580
 C2767 C 0.58912 0.73642 0.34552
 C2768 C 0.57240 0.74554 0.33728
 C2769 C 0.57434 0.75447 0.31904
 C2770 C 0.59284 0.75454 0.30923
 C2771 C 0.62958 0.74696 0.30760
 C2772 C 0.63546 0.76456 0.29759
 C2773 C 0.65405 0.76564 0.28798
 C2774 C 0.66722 0.74922 0.28840
 C2775 C 0.66147 0.73166 0.29856
 C2776 C 0.64275 0.73051 0.30800
 H2777 H 0.58789 0.72958 0.35966
 H2778 H 0.56149 0.76130 0.31234
 H2779 H 0.65821 0.77944 0.28044
 H2780 H 0.67131 0.71872 0.29897
 H2781 H 0.59387 0.76133 0.29506
 H2782 H 0.62580 0.77764 0.29737
 H2783 H 0.62058 0.73015 0.34271
 H2784 H 0.63849 0.71666 0.31540
 C2785 C 0.61562 0.26225 0.18145
 C2786 C 0.59940 0.27364 0.18858
 C2787 C 0.58158 0.27449 0.17827
 C2788 C 0.57969 0.26374 0.16084
 C2789 C 0.59590 0.25204 0.15401
 C2790 C 0.61375 0.25145 0.16415
 C2791 C 0.63462 0.26162 0.19190
 C2792 C 0.65291 0.26554 0.18206
 C2793 C 0.67106 0.26418 0.19165
 C2794 C 0.67120 0.25860 0.21116
 C2795 C 0.65285 0.25479 0.22103
 C2796 C 0.63465 0.25646 0.21148
 H2797 H 0.56942 0.28378 0.18378
 H2798 H 0.59474 0.24314 0.14092
 H2799 H 0.68501 0.26713 0.18370
 H2800 H 0.65259 0.25058 0.23611
 H2801 H 0.62605 0.24233 0.15861
 H2802 H 0.65311 0.26964 0.16695
 H2803 H 0.60068 0.28215 0.20189
 H2804 H 0.62063 0.25328 0.21923
 C2805 C 0.11277 0.75470 0.67847
 C2806 C 0.09696 0.76697 0.68504
 C2807 C 0.08006 0.76957 0.67369
 C2808 C 0.07871 0.75973 0.65573
 C2809 C 0.09441 0.74707 0.64949
 C2810 C 0.11134 0.74469 0.66070
 C2811 C 0.13120 0.75292 0.68965
 C2812 C 0.14996 0.75649 0.68057
 C2813 C 0.16758 0.75492 0.69092
 C2814 C 0.16674 0.74952 0.71048
 C2815 C 0.14797 0.74570 0.71954
 C2816 C 0.13025 0.74759 0.70920
 H2817 H 0.06824 0.77951 0.67880
 H2818 H 0.09355 0.73880 0.63600
 H2819 H 0.18189 0.75782 0.68358
 H2820 H 0.14700 0.74161 0.73464
 H2821 H 0.12334 0.73496 0.65554
 H2822 H 0.15094 0.76072 0.66550
 H2823 H 0.09795 0.77494 0.69869
 H2824 H 0.11585 0.74470 0.71636
 C2825 C 0.89234 0.75323 0.67617
 C2826 C 0.90288 0.73545 0.67212
 C2827 C 0.92062 0.73606 0.66111
 C2828 C 0.92835 0.75456 0.65371
 C2829 C 0.91792 0.77246 0.65844
 C2830 C 0.90013 0.77177 0.66951
 C2831 C 0.87287 0.75220 0.68674
 C2832 C 0.86834 0.76607 0.70154
 C2833 C 0.84989 0.76483 0.71151
 C2834 C 0.83564 0.74977 0.70674
 C2835 C 0.84021 0.73602 0.69181
 C2836 C 0.85863 0.73722 0.68194
 H2837 H 0.92846 0.72195 0.65899
 H2838 H 0.92270 0.78702 0.65283
 H2839 H 0.84680 0.77567 0.72292
 H2840 H 0.82956 0.72427 0.68771
 H2841 H 0.89209 0.78567 0.67230
 H2842 H 0.87918 0.77768 0.70554
 H2843 H 0.89741 0.72101 0.67758
 H2844 H 0.86168 0.72654 0.67038
 C2845 C 0.38794 0.26192 0.18170
 C2846 C 0.39947 0.24430 0.18083
 C2847 C 0.41790 0.24424 0.17089
 C2848 C 0.42506 0.26179 0.16153
 C2849 C 0.41371 0.27957 0.16276
 C2850 C 0.39530 0.27965 0.17283
 C2851 C 0.36809 0.26157 0.19157
 C2852 C 0.36270 0.27701 0.20455
 C2853 C 0.34421 0.27612 0.21445
 C2854 C 0.33076 0.25984 0.21140
 C2855 C 0.33604 0.24467 0.19803
 C2856 C 0.35456 0.24551 0.18826
 H2857 H 0.42655 0.23046 0.17051
 H2858 H 0.41879 0.29324 0.15550
 H2859 H 0.34054 0.28808 0.22461
 H2860 H 0.32601 0.23194 0.19530
 H2861 H 0.38654 0.29337 0.17325
 H2862 H 0.37299 0.28950 0.20736
 H2863 H 0.39423 0.23056 0.18789
 H2864 H 0.35833 0.23358 0.17809
 C2865 C 0.39154 0.77283 0.29661
 C2866 C 0.40931 0.76383 0.28958
 C2867 C 0.42598 0.76226 0.30140
 C2868 C 0.42515 0.76980 0.32036
 C2869 C 0.40798 0.78019 0.32682
 C2870 C 0.39129 0.78158 0.31512
 C2871 C 0.37257 0.77099 0.28590
 C2872 C 0.35819 0.78638 0.28710
 C2873 C 0.33882 0.78302 0.28035
 C2874 C 0.33364 0.76438 0.27190
 C2875 C 0.34835 0.74954 0.26935
 C2876 C 0.36764 0.75274 0.27646
 H2877 H 0.43906 0.75418 0.29607
 H2878 H 0.40714 0.78651 0.34125
 H2879 H 0.32777 0.79487 0.28201
 H2880 H 0.34464 0.73509 0.26278
 H2881 H 0.37780 0.78845 0.32108
 H2882 H 0.36170 0.80076 0.29388
 H2883 H 0.41003 0.75727 0.27525
 H2884 H 0.37829 0.74048 0.27553
 C2885 C 0.89960 0.26785 0.79262
 C2886 C 0.91463 0.25431 0.78658
 C2887 C 0.93286 0.25369 0.79613
 C2888 C 0.93628 0.26639 0.81204
 C2889 C 0.92206 0.28121 0.81693
 C2890 C 0.90388 0.28199 0.80723
 C2891 C 0.87888 0.26542 0.78541
 C2892 C 0.86228 0.26686 0.79825
 C2893 C 0.84288 0.26215 0.79213
 C2894 C 0.83979 0.25562 0.77314
 C2895 C 0.85628 0.25463 0.76017
 C2896 C 0.87562 0.25963 0.76620
 H2897 H 0.94379 0.24241 0.79183
 H2898 H 0.92431 0.29120 0.82914
 H2899 H 0.83039 0.26309 0.80239
 H2900 H 0.85422 0.25006 0.74530
 H2901 H 0.89275 0.29292 0.81185
 H2902 H 0.86432 0.27086 0.81325
 H2903 H 0.91182 0.24318 0.77541
 H2904 H 0.88806 0.25869 0.75590
 C2905 C 0.53580 1.00646 0.64349
 C2906 C 0.55341 1.01799 0.64656
 C2907 C 0.56454 1.01538 0.66329
 C2908 C 0.55819 1.00137 0.67743
 C2909 C 0.54012 0.99045 0.67472
 C2910 C 0.52913 0.99288 0.65788
 C2911 C 0.52571 1.00705 0.62454
 C2912 C 0.52101 0.98882 0.61506
 C2913 C 0.51409 0.98891 0.59620
 C2914 C 0.51130 1.00721 0.58649
 C2915 C 0.51490 1.02555 0.59618
 C2916 C 0.52225 1.02547 0.61505
 H2917 H 0.57826 1.02420 0.66510
 H2918 H 0.53488 0.97951 0.68533
 H2919 H 0.51159 0.97460 0.58887
 H2920 H 0.51310 1.03982 0.58882
 H2921 H 0.51557 0.98384 0.65593
 H2922 H 0.52375 0.97441 0.62185
 H2923 H 0.55904 1.02840 0.63564
 H2924 H 0.52570 1.03975 0.62206
 C2925 C 0.03767 0.50586 1.14040
 C2926 C 0.05033 0.52168 1.14639
 C2927 C 0.06074 0.52037 1.16369
 C2928 C 0.05879 0.50313 1.17581
 C2929 C 0.04495 0.48783 1.16998
 C2930 C 0.03478 0.48913 1.15255
 C2931 C 0.02925 0.50579 1.12069
 C2932 C 0.03149 0.48854 1.10903
 C2933 C 0.02574 0.48875 1.08982
 C2934 C 0.01732 0.50612 1.08180
 C2935 C 0.01417 0.52317 1.09359
 C2936 C 0.02033 0.52309 1.11287
 H2937 H 0.06986 0.53339 1.16752
 H2938 H 0.04278 0.47392 1.17791
 H2939 H 0.02823 0.47535 1.08107
 H2940 H 0.00778 0.53676 1.08769
 H2941 H 0.02502 0.47669 1.14828
 H2942 H 0.03851 0.47509 1.11454
 H2943 H 0.05278 0.53483 1.13734
 H2944 H 0.01840 0.53659 1.12160
 C2945 C -0.04209 -0.01173 1.14124
 C2946 C -0.03236 0.00013 1.15522
 C2947 C -0.04087 0.00236 1.17380
 C2948 C -0.05954 -0.00701 1.17884
 C2949 C -0.06843 -0.01988 1.16496
 C2950 C -0.05984 -0.02221 1.14659
 C2951 C -0.03498 -0.01189 1.12071
 C2952 C -0.04919 -0.01058 1.10605
 C2953 C -0.04309 -0.00990 1.08674
 C2954 C -0.02254 -0.01047 1.08137
 C2955 C -0.00821 -0.01217 1.09595
 C2956 C -0.01438 -0.01274 1.11548
 H2957 H -0.03336 0.01258 1.18363
 H2958 H -0.08198 -0.02860 1.16823
 H2959 H -0.05461 -0.00866 1.07597
 H2960 H 0.00773 -0.01258 1.09230
 H2961 H -0.06734 -0.03206 1.13638
 H2962 H -0.06513 -0.00953 1.10951
 H2963 H -0.01869 0.00850 1.15151
 H2964 H -0.00307 -0.01385 1.12646
 C2965 C 0.45478 0.49754 0.63911
 C2966 C 0.46523 0.49053 0.65517
 C2967 C 0.45600 0.49042 0.67357
 C2968 C 0.43610 0.49723 0.67627
 C2969 C 0.42570 0.50409 0.66014
 C2970 C 0.43485 0.50413 0.64186
 C2971 C 0.46434 0.49826 0.61948
 C2972 C 0.46021 0.51445 0.60718
 C2973 C 0.46697 0.51433 0.58804
 C2974 C 0.47836 0.49817 0.58067
 C2975 C 0.48370 0.48254 0.59317
 C2976 C 0.47666 0.48253 0.61243
 H2977 H 0.46437 0.48484 0.68563
 H2978 H 0.41050 0.50971 0.66166
 H2979 H 0.46292 0.52677 0.57883
 H2980 H 0.49243 0.46989 0.58781
 H2981 H 0.42618 0.50926 0.62980
 H2982 H 0.45134 0.52712 0.61225
 H2983 H 0.48061 0.48542 0.65357
 H2984 H 0.48011 0.46981 0.62152
 C2985 C 0.46002 0.52790 -0.13727
 C2986 C 0.46521 0.51018 -0.14742
 C2987 C 0.45635 0.50558 -0.16510
 C2988 C 0.44238 0.51877 -0.17314
 C2989 C 0.43779 0.53686 -0.16332
 C2990 C 0.44639 0.54129 -0.14551
 C2991 C 0.46734 0.53138 -0.11741
 C2992 C 0.45350 0.53577 -0.10244
 C2993 C 0.45961 0.53618 -0.08328
 C2994 C 0.47979 0.53261 -0.07868
 C2995 C 0.49394 0.52956 -0.09372
 C2996 C 0.48773 0.52872 -0.11292
 H2997 H 0.46024 0.49161 -0.17241
 H2998 H 0.42696 0.54722 -0.16910
 H2999 H 0.44838 0.53848 -0.07195
 H3000 H 0.50953 0.52652 -0.09054
 H3001 H 0.44215 0.55504 -0.13798
 H3002 H 0.43768 0.53773 -0.10545
 H3003 H 0.47550 0.49949 -0.14129
 H3004 H 0.49870 0.52540 -0.12423
 C3005 C -0.04019 1.03087 0.36576
 C3006 C -0.03531 1.01280 0.35606
 C3007 C -0.04361 1.00824 0.33810
 C3008 C -0.05667 1.02184 0.32931
 C3009 C -0.06096 1.04024 0.33871
 C3010 C -0.05296 1.04462 0.35682
 C3011 C -0.03345 1.03444 0.38583
 C3012 C -0.04765 1.03940 0.40033
 C3013 C -0.04220 1.03980 0.41970
 C3014 C -0.02233 1.03569 0.42498
 C3015 C -0.00777 1.03212 0.41042
 C3016 C -0.01334 1.03126 0.39101
 H3017 H -0.03998 0.99401 0.33114
 H3018 H -0.07110 1.05093 0.33236
 H3019 H -0.05375 1.04241 0.43066
 H3020 H 0.00757 1.02859 0.41414
 H3021 H -0.05697 1.05864 0.36399
 H3022 H -0.06327 1.04177 0.39679
 H3023 H -0.02570 1.00182 0.36273
 H3024 H -0.00209 1.02749 0.38008
 C3025 C 0.02874 0.49788 0.35574
 C3026 C 0.02956 0.51498 0.34376
 C3027 C 0.04073 0.51475 0.32645
 C3028 C 0.05136 0.49740 0.32069
 C3029 C 0.04976 0.47997 0.33223
 C3030 C 0.03857 0.48021 0.34956
 C3031 C 0.01952 0.49915 0.37544
 C3032 C 0.00836 0.48287 0.38350
 C3033 C 0.00184 0.48348 0.40288
 C3034 C 0.00665 0.50024 0.41454
 C3035 C 0.01702 0.51680 0.40622
 C3036 C 0.02329 0.51630 0.38692
 H3037 H 0.04128 0.52827 0.31769
 H3038 H 0.05790 0.46642 0.32831
 H3039 H -0.00599 0.47044 0.40898
 H3040 H 0.02091 0.52994 0.41485
 H3041 H 0.03846 0.46687 0.35858
 H3042 H 0.00511 0.46951 0.37495
 H3043 H 0.02189 0.52872 0.34797
 H3044 H 0.03204 0.52897 0.38128
 C3045 C 0.54191 -0.00801 -0.13843
 C3046 C 0.53260 -0.01588 -0.15494
 C3047 C 0.54305 -0.01625 -0.17275
 C3048 C 0.56305 -0.00886 -0.17436
 C3049 C 0.57245 -0.00161 -0.15767
 C3050 C 0.56204 -0.00117 -0.13999
 C3051 C 0.53086 -0.00627 -0.11961
 C3052 C 0.53327 0.01137 -0.10850
 C3053 C 0.52527 0.01250 -0.08982
 C3054 C 0.51450 -0.00393 -0.08169
 C3055 C 0.51081 -0.02113 -0.09317
 C3056 C 0.51896 -0.02229 -0.11204
 H3057 H 0.53532 -0.02185 -0.18534
 H3058 H 0.58798 0.00365 -0.15821
 H3059 H 0.52811 0.02609 -0.08143
 H3060 H 0.50265 -0.03404 -0.08722
 H3061 H 0.56980 0.00451 -0.12744
 H3062 H 0.54187 0.02417 -0.11409
 H3063 H 0.51710 -0.02120 -0.15418
 H3064 H 0.51682 -0.03607 -0.12031
 C3065 C 0.63848 0.57852 -0.01229
 C3066 C 0.63993 0.59962 -0.01454
 C3067 C 0.65848 0.60974 -0.01264
 C3068 C 0.67607 0.59902 -0.00852
 C3069 C 0.67471 0.57784 -0.00685
 C3070 C 0.65617 0.56774 -0.00870
 C3071 C 0.61847 0.56793 -0.01245
 C3072 C 0.61400 0.55280 0.00118
 C3073 C 0.59501 0.54347 0.00199
 C3074 C 0.57985 0.54893 -0.01086
 C3075 C 0.58438 0.56375 -0.02483
 C3076 C 0.60348 0.57323 -0.02556
 H3077 H 0.65904 0.62602 -0.01434
 H3078 H 0.68790 0.56911 -0.00359
 H3079 H 0.59215 0.53209 0.01293
 H3080 H 0.57306 0.56834 -0.03491
 H3081 H 0.65564 0.55144 -0.00712
 H3082 H 0.62503 0.54854 0.01168
 H3083 H 0.62660 0.60841 -0.01716
 H3084 H 0.60650 0.58473 -0.03634
 C3085 C 0.13310 1.07957 0.49789
 C3086 C 0.13632 1.09892 0.48999
 C3087 C 0.15510 1.10871 0.49140
 C3088 C 0.17117 1.09943 0.50078
 C3089 C 0.16809 1.07986 0.50825
 C3090 C 0.14934 1.07006 0.50679
 C3091 C 0.11272 1.06970 0.49773
 C3092 C 0.10567 1.05883 0.51391
 C3093 C 0.08655 1.04978 0.51419
 C3094 C 0.07375 1.05133 0.49831
 C3095 C 0.08072 1.06224 0.48207
 C3096 C 0.10000 1.07133 0.48179
 H3097 H 0.15700 1.12361 0.48515
 H3098 H 0.18003 1.07228 0.51566
 H3099 H 0.08177 1.04164 0.52704
 H3100 H 0.07131 1.06374 0.46958
 H3101 H 0.14754 1.05502 0.51276
 H3102 H 0.11481 1.05761 0.52661
 H3103 H 0.12416 1.10677 0.48316
 H3104 H 0.10501 1.07947 0.46902
 C3105 C 0.13414 -0.06352 1.01065
 C3106 C 0.13328 -0.08473 1.01105
 C3107 C 0.15075 -0.09613 1.00832
 C3108 C 0.16983 -0.08670 1.00532
 C3109 C 0.17055 -0.06528 1.00541
 C3110 C 0.15298 -0.05393 1.00787
 C3111 C 0.11528 -0.05156 1.01200
 C3112 C 0.11208 -0.03582 0.99892
 C3113 C 0.09361 -0.02588 0.99872
 C3114 C 0.07793 -0.03123 1.01176
 C3115 C 0.08144 -0.04630 1.02549
 C3116 C 0.09988 -0.05648 1.02551
 H3117 H 0.14912 -0.11240 1.00925
 H3118 H 0.18449 -0.05704 1.00269
 H3119 H 0.09141 -0.01433 0.98796
 H3120 H 0.06963 -0.05085 1.03563
 H3121 H 0.15412 -0.03757 1.00749
 H3122 H 0.12356 -0.03178 0.98825
 H3123 H 0.11896 -0.09258 1.01307
 H3124 H 0.10198 -0.06844 1.03587
 C3125 C 0.63033 0.43296 0.51119
 C3126 C 0.64829 0.44187 0.50406
 C3127 C 0.66608 0.43076 0.50259
 C3128 C 0.66655 0.41018 0.50808
 C3129 C 0.64845 0.40154 0.51572
 C3130 C 0.63072 0.41276 0.51727
 C3131 C 0.61102 0.44427 0.51112
 C3132 C 0.59684 0.44269 0.52645
 C3133 C 0.57818 0.45241 0.52556
 C3134 C 0.57324 0.46370 0.50921
 C3135 C 0.58765 0.46562 0.49414
 C3136 C 0.60627 0.45610 0.49510
 H3137 H 0.67910 0.43830 0.49617
 H3138 H 0.64784 0.38619 0.52104
 H3139 H 0.56739 0.45057 0.53737
 H3140 H 0.58442 0.47423 0.48134
 H3141 H 0.61713 0.40540 0.52281
 H3142 H 0.60013 0.43382 0.53906
 H3143 H 0.64854 0.45748 0.49934
 H3144 H 0.61670 0.45745 0.48295
 C3145 C -0.13726 0.42439 0.49348
 C3146 C -0.14733 0.41830 0.47672
 C3147 C -0.16639 0.40896 0.47794
 C3148 C -0.17588 0.40523 0.49596
 C3149 C -0.16597 0.41166 0.51269
 C3150 C -0.14704 0.42122 0.51146
 C3151 C -0.11655 0.43361 0.49240
 C3152 C -0.10263 0.42969 0.50691
 C3153 C -0.08358 0.43890 0.50660
 C3154 C -0.07766 0.45208 0.49162
 C3155 C -0.09115 0.45547 0.47664
 C3156 C -0.11045 0.44644 0.47709
 H3157 H -0.17367 0.40463 0.46468
 H3158 H -0.17259 0.40894 0.52684
 H3159 H -0.07343 0.43572 0.51823
 H3160 H -0.08705 0.46564 0.46496
 H3161 H -0.14005 0.42609 0.52470
 H3162 H -0.10642 0.41943 0.51859
 H3163 H -0.14031 0.42034 0.46263
 H3164 H -0.12076 0.44997 0.46572
 C3165 C 0.36511 -0.07525 -0.00616
 C3166 C 0.35419 -0.07962 -0.02289
 C3167 C 0.33542 -0.08965 -0.02167
 C3168 C 0.32704 -0.09553 -0.00368
 C3169 C 0.33811 -0.09135 0.01299
 C3170 C 0.35687 -0.08149 0.01176
 C3171 C 0.38475 -0.06387 -0.00710
 C3172 C 0.38959 -0.05001 0.00757
 C3173 C 0.40828 -0.04009 0.00761
 C3174 C 0.42271 -0.04347 -0.00714
 C3175 C 0.41771 -0.05667 -0.02232
 C3176 C 0.39893 -0.06685 -0.02226
 H3177 H 0.32754 -0.09288 -0.03487
 H3178 H 0.33216 -0.09539 0.02712
 H3179 H 0.41145 -0.02974 0.01936
 H3180 H 0.42851 -0.05962 -0.03387
 H3181 H 0.36496 -0.07878 0.02495
 H3182 H 0.37891 -0.04678 0.01915
 H3183 H 0.35995 -0.07497 -0.03692
 H3184 H 0.39577 -0.07747 -0.03378
 C3185 C 0.36432 1.07206 0.51359
 C3186 C 0.34632 1.06352 0.50659
 C3187 C 0.32888 1.07512 0.50526
 C3188 C 0.32895 1.09558 0.51092
 C3189 C 0.34691 1.10408 0.51809
 C3190 C 0.36434 1.09247 0.51943
 C3191 C 0.38319 1.06001 0.51394
 C3192 C 0.39686 1.06189 0.52917
 C3193 C 0.41499 1.05112 0.52884
 C3194 C 0.41991 1.03837 0.51319
 C3195 C 0.40603 1.03627 0.49819
 C3196 C 0.38796 1.04690 0.49857
 H3197 H 0.31526 1.06797 0.50001
 H3198 H 0.34764 1.11986 0.52231
 H3199 H 0.42534 1.05314 0.54060
 H3200 H 0.40922 1.02659 0.48589
 H3201 H 0.37801 1.09964 0.52457
 H3202 H 0.39355 1.07171 0.54133
 H3203 H 0.34566 1.04777 0.50223
 H3204 H 0.37798 1.04527 0.48648
 C3205 C -0.13075 0.57367 1.01167
 C3206 C -0.13151 0.59365 1.01869
 C3207 C -0.14913 0.60497 1.01722
 C3208 C -0.16645 0.59660 1.00867
 C3209 C -0.16582 0.57648 1.00204
 C3210 C -0.14824 0.56516 1.00357
 C3211 C -0.11154 0.56212 1.01165
 C3212 C -0.10621 0.55020 0.99558
 C3213 C -0.08795 0.53998 0.99484
 C3214 C -0.07434 0.54133 1.01013
 C3215 C -0.07974 0.55294 1.02644
 C3216 C -0.09813 0.56331 1.02715
 H3217 H -0.14902 0.62049 1.02230
 H3218 H -0.17898 0.56942 0.99576
 H3219 H -0.08442 0.53118 0.98202
 H3220 H -0.06962 0.55436 1.03844
 H3221 H -0.14835 0.54969 0.99834
 H3222 H -0.11593 0.54918 0.98324
 H3223 H -0.11826 0.60078 1.02476
 H3224 H -0.10186 0.57224 1.03982
 C3225 C 0.01316 0.63045 0.56188
 C3226 C 0.02629 0.63630 0.57658
 C3227 C 0.02815 0.65663 0.58185
 C3228 C 0.01683 0.67142 0.57255
 C3229 C 0.00436 0.66560 0.55733
 C3230 C 0.00263 0.64536 0.55199
 C3231 C 0.01003 0.60892 0.55693
 C3232 C -0.00938 0.60176 0.55255
 C3233 C -0.01222 0.58215 0.54567
 C3234 C 0.00427 0.56926 0.54331
 C3235 C 0.02348 0.57587 0.54892
 C3236 C 0.02637 0.59564 0.55562
 H3237 H 0.03811 0.66075 0.59345
 H3238 H -0.00472 0.67658 0.55002
 H3239 H -0.02722 0.57727 0.54165
 H3240 H 0.03645 0.56620 0.54707
 H3241 H -0.00722 0.64132 0.54027
 H3242 H -0.02233 0.61150 0.55399
 H3243 H 0.03462 0.62510 0.58440
 H3244 H 0.04149 0.60080 0.55887
 C3245 C 0.50881 0.13585 0.06293
 C3246 C 0.52011 0.14025 0.07938
 C3247 C 0.52138 0.16001 0.08642
 C3248 C 0.51117 0.17569 0.07728
 C3249 C 0.50033 0.17135 0.06054
 C3250 C 0.49929 0.15168 0.05337
 C3251 C 0.50656 0.11482 0.05592
 C3252 C 0.48804 0.10805 0.04859
 C3253 C 0.48608 0.08860 0.04103
 C3254 C 0.50249 0.07545 0.04096
 C3255 C 0.52079 0.08188 0.04892
 C3256 C 0.52286 0.10147 0.05623
 H3257 H 0.53013 0.16296 0.09917
 H3258 H 0.49211 0.18303 0.05328
 H3259 H 0.47175 0.08388 0.03515
 H3260 H 0.53372 0.07202 0.04883
 H3261 H 0.49085 0.14883 0.04041
 H3262 H 0.47506 0.11781 0.04864
 H3263 H 0.52754 0.12836 0.08710
 H3264 H 0.53736 0.10633 0.06161
 C3265 C -0.02886 0.13468 0.93854
 C3266 C -0.03349 0.13495 0.91886
 C3267 C -0.03359 0.15315 0.90883
 C3268 C -0.02871 0.17142 0.91819
 C3269 C -0.02552 0.17134 0.93815
 C3270 C -0.02573 0.15314 0.94825
 C3271 C -0.02541 0.11521 0.94833
 C3272 C -0.00956 0.11349 0.96137
 C3273 C -0.00513 0.09484 0.96945
 C3274 C -0.01626 0.07746 0.96444
 C3275 C -0.03218 0.07916 0.95150
 C3276 C -0.03684 0.09788 0.94368
 H3277 H -0.03657 0.15282 0.89354
 H3278 H -0.02167 0.18515 0.94578
 H3279 H 0.00727 0.09399 0.97933
 H3280 H -0.04112 0.06604 0.94745
 H3281 H -0.02262 0.15346 0.96352
 H3282 H -0.00013 0.12643 0.96491
 H3283 H -0.03591 0.12103 0.91089
 H3284 H -0.04931 0.09873 0.93390
 C3285 C 0.47047 0.62659 0.42667
 C3286 C 0.46052 0.64259 0.43600
 C3287 C 0.46022 0.66166 0.42753
 C3288 C 0.47009 0.66505 0.40970
 C3289 C 0.47907 0.64870 0.39992
 C3290 C 0.47917 0.62959 0.40831
 C3291 C 0.47357 0.60744 0.43681
 C3292 C 0.47022 0.58883 0.42753
 C3293 C 0.47437 0.57079 0.43692
 C3294 C 0.48224 0.57115 0.45559
 C3295 C 0.48559 0.58981 0.46482
 C3296 C 0.48118 0.60780 0.45554
 H3297 H 0.45282 0.67389 0.43519
 H3298 H 0.48704 0.65088 0.38630
 H3299 H 0.47163 0.55659 0.42949
 H3300 H 0.49147 0.59053 0.47927
 H3301 H 0.48708 0.61747 0.40097
 H3302 H 0.46438 0.58830 0.41306
 H3303 H 0.45349 0.64045 0.45009
 H3304 H 0.48416 0.62204 0.46282
 C3305 C 0.50423 0.85492 0.45453
 C3306 C 0.48587 0.84411 0.45562
 C3307 C 0.48379 0.82559 0.44620
 C3308 C 0.50002 0.81755 0.43559
 C3309 C 0.51872 0.82776 0.43535
 C3310 C 0.52079 0.84640 0.44471
 C3311 C 0.50537 0.87565 0.46241
 C3312 C 0.51414 0.89140 0.45143
 C3313 C 0.51288 0.91142 0.45783
 C3314 C 0.50276 0.91596 0.47527
 C3315 C 0.49472 0.90005 0.48655
 C3316 C 0.49605 0.88012 0.48020
 H3317 H 0.46927 0.81787 0.44662
 H3318 H 0.53138 0.82185 0.42710
 H3319 H 0.51934 0.92335 0.44890
 H3320 H 0.48715 0.90297 0.50025
 H3321 H 0.53513 0.85440 0.44385
 H3322 H 0.52124 0.88833 0.43755
 H3323 H 0.47281 0.85043 0.46294
 H3324 H 0.48945 0.86820 0.48905
 C3325 C 0.00865 0.36226 0.93959
 C3326 C -0.00626 0.34808 0.94527
 C3327 C -0.00721 0.32909 0.93650
 C3328 C 0.00656 0.32397 0.92170
 C3329 C 0.02170 0.33801 0.91625
 C3330 C 0.02280 0.35693 0.92517
 C3331 C 0.00897 0.38274 0.94828
 C3332 C 0.01338 0.39984 0.93688
 C3333 C 0.01259 0.41922 0.94491
 C3334 C 0.00711 0.42181 0.96439
 C3335 C 0.00305 0.40473 0.97586
 C3336 C 0.00412 0.38539 0.96792
 H3337 H -0.01887 0.31849 0.94120
 H3338 H 0.03239 0.33461 0.90473
 H3339 H 0.01572 0.43218 0.93576
 H3340 H -0.00089 0.40632 0.99102
 H3341 H 0.03463 0.36743 0.92069
 H3342 H 0.01688 0.39830 0.92163
 H3343 H -0.01754 0.35181 0.95616
 H3344 H 0.00110 0.37250 0.97717
 C3345 C 0.48944 0.36427 0.03635
 C3346 C 0.50783 0.35398 0.03558
 C3347 C 0.50976 0.33565 0.04509
 C3348 C 0.49334 0.32731 0.05548
 C3349 C 0.47455 0.33679 0.05505
 C3350 C 0.47262 0.35521 0.04558
 C3351 C 0.48870 0.38535 0.02961
 C3352 C 0.47983 0.40024 0.04142
 C3353 C 0.48170 0.42062 0.03657
 C3354 C 0.49250 0.42647 0.01984
 C3355 C 0.50062 0.41147 0.00763
 C3356 C 0.49873 0.39110 0.01248
 H3357 H 0.52433 0.32843 0.04510
 H3358 H 0.46170 0.33062 0.06304
 H3359 H 0.47512 0.43180 0.04620
 H3360 H 0.50879 0.41544 -0.00552
 H3361 H 0.45825 0.36279 0.04616
 H3362 H 0.47226 0.39620 0.05486
 H3363 H 0.52107 0.36072 0.02869
 H3364 H 0.50552 0.37986 0.00307
 C3365 C -0.01308 0.86196 0.53030
 C3366 C 0.00554 0.85223 0.52817
 C3367 C 0.00837 0.83338 0.53647
 C3368 C -0.00736 0.82397 0.54698
 C3369 C -0.02644 0.83288 0.54778
 C3370 C -0.02927 0.85182 0.53952
 C3371 C -0.01459 0.88348 0.52508
 C3372 C -0.02338 0.89725 0.53816
 C3373 C -0.02200 0.91801 0.53478
 C3374 C -0.01175 0.92534 0.51829
 C3375 C -0.00379 0.91148 0.50479
 C3376 C -0.00522 0.89075 0.50815
 H3377 H 0.02316 0.82664 0.53558
 H3378 H -0.03876 0.82589 0.55591
 H3379 H -0.02842 0.92830 0.54537
 H3380 H 0.00390 0.91661 0.49175
 H3381 H -0.04382 0.85895 0.54113
 H3382 H -0.03045 0.89203 0.55148
 H3383 H 0.01833 0.85977 0.52125
 H3384 H 0.00146 0.88041 0.49776
 C3385 C 0.25567 0.29445 0.11627
 C3386 C 0.26658 0.28725 0.10012
 C3387 C 0.26601 0.29748 0.08247
 C3388 C 0.25459 0.31517 0.08063
 C3389 C 0.24385 0.32238 0.09685
 C3390 C 0.24445 0.31223 0.11441
 C3391 C 0.25574 0.28370 0.13510
 C3392 C 0.23797 0.28263 0.14642
 C3393 C 0.23825 0.27511 0.16513
 C3394 C 0.25621 0.26815 0.17297
 C3395 C 0.27376 0.26778 0.16132
 C3396 C 0.27355 0.27559 0.14250
 H3397 H 0.27466 0.29165 0.07031
 H3398 H 0.23472 0.33580 0.09594
 H3399 H 0.22444 0.27529 0.17375
 H3400 H 0.28781 0.26257 0.16710
 H3401 H 0.23617 0.31844 0.12664
 H3402 H 0.22388 0.28814 0.14099
 H3403 H 0.27532 0.27358 0.10107
 H3404 H 0.28750 0.27621 0.13414
 C3405 C 0.75972 0.78758 0.60851
 C3406 C 0.77105 0.78208 0.59202
 C3407 C 0.76924 0.79288 0.57477
 C3408 C 0.75622 0.80950 0.57378
 C3409 C 0.74512 0.81506 0.59037
 C3410 C 0.74687 0.80429 0.60748
 C3411 C 0.76087 0.77612 0.62687
 C3412 C 0.74313 0.77239 0.63772
 C3413 C 0.74401 0.76460 0.65628
 C3414 C 0.76260 0.76004 0.66441
 C3415 C 0.78032 0.76220 0.65317
 C3416 C 0.77946 0.77026 0.63446
 H3417 H 0.77815 0.78836 0.56227
 H3418 H 0.73482 0.82763 0.59008
 H3419 H 0.73014 0.76287 0.66466
 H3420 H 0.79482 0.75890 0.65925
 H3421 H 0.73819 0.80915 0.62002
 H3422 H 0.72855 0.77621 0.63210
 H3423 H 0.78105 0.76927 0.59238
 H3424 H 0.79337 0.77296 0.62640
 C3425 C 0.23359 0.70748 0.60995
 C3426 C 0.22157 0.69096 0.60415
 C3427 C 0.22427 0.68224 0.58593
 C3428 C 0.23906 0.68982 0.57299
 C3429 C 0.25032 0.70708 0.57830
 C3430 C 0.24762 0.71583 0.59664
 C3431 C 0.23282 0.71444 0.63038
 C3432 C 0.23349 0.73512 0.63541
 C3433 C 0.23376 0.74112 0.65489
 C3434 C 0.23374 0.72651 0.66958
 C3435 C 0.23270 0.70593 0.66443
 C3436 C 0.23220 0.70000 0.64516
 H3437 H 0.21499 0.66929 0.58208
 H3438 H 0.26182 0.71325 0.56863
 H3439 H 0.23462 0.75708 0.65843
 H3440 H 0.23255 0.69427 0.67537
 H3441 H 0.25719 0.72847 0.60075
 H3442 H 0.23390 0.74658 0.62430
 H3443 H 0.21035 0.68445 0.61393
 H3444 H 0.23197 0.68397 0.64180
 C3445 C 0.73611 0.21096 0.10882
 C3446 C 0.75070 0.21849 0.09561
 C3447 C 0.75344 0.20923 0.07751
 C3448 C 0.74168 0.19225 0.07238
 C3449 C 0.72634 0.18554 0.08516
 C3450 C 0.72356 0.19481 0.10312
 C3451 C 0.73530 0.21830 0.12914
 C3452 C 0.73368 0.20415 0.14414
 C3453 C 0.73435 0.21036 0.16333
 C3454 C 0.73660 0.23094 0.16815
 C3455 C 0.73753 0.24529 0.15324
 C3456 C 0.73707 0.23900 0.13385
 H3457 H 0.76536 0.21471 0.06792
 H3458 H 0.71672 0.17281 0.08140
 H3459 H 0.73349 0.19891 0.17445
 H3460 H 0.73935 0.26124 0.15653
 H3461 H 0.71190 0.18894 0.11280
 H3462 H 0.73260 0.18809 0.14104
 H3463 H 0.76068 0.23084 0.09965
 H3464 H 0.73826 0.25025 0.12257
 C3465 C 0.77003 0.20010 0.88275
 C3466 C 0.75973 0.18156 0.88547
 C3467 C 0.75592 0.17400 0.90395
 C3468 C 0.76217 0.18479 0.92033
 C3469 C 0.77232 0.20347 0.91770
 C3470 C 0.77615 0.21108 0.89910
 C3471 C 0.77404 0.20774 0.86283
 C3472 C 0.77150 0.22827 0.85816
 C3473 C 0.77256 0.23463 0.83886
 C3474 C 0.77605 0.22054 0.82396
 C3475 C 0.77995 0.20036 0.82879
 C3476 C 0.77909 0.19408 0.84796
 H3477 H 0.74835 0.15944 0.90536
 H3478 H 0.77720 0.21225 0.93001
 H3479 H 0.76939 0.25025 0.83552
 H3480 H 0.78294 0.18921 0.81763
 H3481 H 0.78415 0.22538 0.89751
 H3482 H 0.76758 0.23917 0.86927
 H3483 H 0.75444 0.17288 0.87324
 H3484 H 0.78175 0.17831 0.85109
 C3485 C 0.26943 0.70629 0.38423
 C3486 C 0.25945 0.68745 0.38598
 C3487 C 0.25536 0.67900 0.40406
 C3488 C 0.26102 0.68916 0.42099
 C3489 C 0.27093 0.70808 0.41933
 C3490 C 0.27502 0.71659 0.40114
 C3491 C 0.27342 0.71504 0.36474
 C3492 C 0.27023 0.73568 0.36102
 C3493 C 0.27081 0.74298 0.34202
 C3494 C 0.27445 0.72971 0.32649
 C3495 C 0.27918 0.70950 0.33037
 C3496 C 0.27881 0.70230 0.34924
 H3497 H 0.24799 0.66429 0.40474
 H3498 H 0.27538 0.71637 0.43210
 H3499 H 0.26694 0.75859 0.33941
 H3500 H 0.28223 0.69898 0.31867
 H3501 H 0.28276 0.73110 0.40030
 H3502 H 0.26603 0.74590 0.37262
 H3503 H 0.25455 0.67926 0.37331
 H3504 H 0.28196 0.68647 0.35164
 C3505 C 0.73302 0.78721 0.39048
 C3506 C 0.75129 0.78558 0.40024
 C3507 C 0.75394 0.79533 0.41800
 C3508 C 0.73826 0.80665 0.42646
 C3509 C 0.71970 0.80750 0.41708
 C3510 C 0.71716 0.79799 0.39923
 C3511 C 0.73130 0.77967 0.37039
 C3512 C 0.72453 0.79277 0.35610
 C3513 C 0.72521 0.78699 0.33674
 C3514 C 0.73228 0.76785 0.33126
 C3515 C 0.73802 0.75422 0.34555
 C3516 C 0.73777 0.76020 0.36501
 H3517 H 0.76834 0.79429 0.42500
 H3518 H 0.70741 0.81623 0.42318
 H3519 H 0.72078 0.79776 0.32592
 H3520 H 0.74372 0.73946 0.34158
 H3521 H 0.70293 0.79946 0.39200
 H3522 H 0.71968 0.80792 0.35980
 H3523 H 0.76382 0.77753 0.39371
 H3524 H 0.74302 0.74983 0.37580
 C3525 C 0.23754 0.28433 0.89841
 C3526 C 0.25566 0.28304 0.90848
 C3527 C 0.25825 0.29382 0.92570
 C3528 C 0.24268 0.30589 0.93330
 C3529 C 0.22429 0.30649 0.92361
 C3530 C 0.22178 0.29591 0.90631
 C3531 C 0.23591 0.27547 0.87879
 C3532 C 0.22907 0.28752 0.86370
 C3533 C 0.23005 0.28055 0.84470
 C3534 C 0.23756 0.26125 0.84038
 C3535 C 0.24323 0.24863 0.85551
 C3536 C 0.24262 0.25579 0.87460
 H3537 H 0.27251 0.29294 0.93296
 H3538 H 0.21207 0.31577 0.92903
 H3539 H 0.22565 0.29057 0.83324
 H3540 H 0.24926 0.23377 0.85247
 H3541 H 0.20766 0.29712 0.89885
 H3542 H 0.22401 0.30280 0.86646
 H3543 H 0.26813 0.27441 0.90260
 H3544 H 0.24789 0.24619 0.88601
 C3545 C 0.82082 0.37977 0.75719
 C3546 C 0.81370 0.39673 0.74729
 C3547 C 0.82511 0.41470 0.74626
 C3548 C 0.84391 0.41629 0.75521
 C3549 C 0.85073 0.39955 0.76562
 C3550 C 0.83939 0.38154 0.76654
 C3551 C 0.80950 0.36005 0.75685
 C3552 C 0.80920 0.34692 0.77283
 C3553 C 0.79965 0.32786 0.77184
 C3554 C 0.79013 0.32147 0.75487
 C3555 C 0.78998 0.33486 0.73913
 C3556 C 0.79955 0.35379 0.74009
 H3557 H 0.81938 0.42716 0.73801
 H3558 H 0.86493 0.40029 0.77303
 H3559 H 0.80007 0.31800 0.78425
 H3560 H 0.78290 0.33054 0.72576
 H3561 H 0.84549 0.36880 0.77415
 H3562 H 0.81644 0.35133 0.78608
 H3563 H 0.79933 0.39609 0.74017
 H3564 H 0.79972 0.36324 0.72738
 C3565 C 0.31725 0.88946 0.26136
 C3566 C 0.30949 0.90730 0.25374
 C3567 C 0.32118 0.92510 0.25277
 C3568 C 0.34131 0.92589 0.25942
 C3569 C 0.34864 0.90776 0.26756
 C3570 C 0.33690 0.89001 0.26842
 C3571 C 0.30523 0.87015 0.26125
 C3572 C 0.30635 0.85616 0.27645
 C3573 C 0.29602 0.83752 0.27564
 C3574 C 0.28426 0.83240 0.25962
 C3575 C 0.28272 0.84664 0.24469
 C3576 C 0.29307 0.86520 0.24549
 H3577 H 0.31430 0.93774 0.24578
 H3578 H 0.36326 0.90695 0.27403
 H3579 H 0.29758 0.82697 0.28740
 H3580 H 0.27390 0.84328 0.23207
 H3581 H 0.34345 0.87655 0.27439
 H3582 H 0.31532 0.85957 0.28896
 H3583 H 0.29430 0.90753 0.24831
 H3584 H 0.29204 0.87540 0.23339
 C3585 C 0.17784 0.88203 0.73743
 C3586 C 0.15967 0.88402 0.72754
 C3587 C 0.14900 0.90218 0.72836
 C3588 C 0.15622 0.91881 0.73911
 C3589 C 0.17466 0.91695 0.74855
 C3590 C 0.18535 0.89886 0.74765
 C3591 C 0.18836 0.86223 0.73810
 C3592 C 0.19694 0.85589 0.75537
 C3593 C 0.20628 0.83717 0.75654
 C3594 C 0.20730 0.82407 0.74049
 C3595 C 0.19890 0.83041 0.72309
 C3596 C 0.18950 0.84928 0.72192
 H3597 H 0.13503 0.90315 0.72063
 H3598 H 0.18064 0.92930 0.75711
 H3599 H 0.21248 0.83289 0.77024
 H3600 H 0.19938 0.82072 0.71045
 H3601 H 0.19945 0.89801 0.75519
 H3602 H 0.19601 0.86521 0.76824
 H3603 H 0.15337 0.87134 0.71963
 H3604 H 0.18318 0.85377 0.70834
 C3605 C 0.68510 0.38813 0.23610
 C3606 C 0.69306 0.40581 0.24462
 C3607 C 0.68152 0.42334 0.24635
 C3608 C 0.66170 0.42372 0.23953
 C3609 C 0.65396 0.40623 0.23047
 C3610 C 0.66549 0.38868 0.22880
 C3611 C 0.69667 0.36888 0.23600
 C3612 C 0.69569 0.35508 0.22046
 C3613 C 0.70548 0.33639 0.22124
 C3614 C 0.71641 0.33106 0.23759
 C3615 C 0.71784 0.34516 0.25281
 C3616 C 0.70811 0.36373 0.25204
 H3617 H 0.68797 0.43642 0.25351
 H3618 H 0.63891 0.40605 0.22471
 H3619 H 0.70404 0.32592 0.20927
 H3620 H 0.72611 0.34168 0.26567
 H3621 H 0.65877 0.37533 0.22232
 H3622 H 0.68721 0.35866 0.20777
 H3623 H 0.70821 0.40607 0.25015
 H3624 H 0.70898 0.37376 0.26440
 C3625 C 0.67537 0.61778 0.25379
 C3626 C 0.65550 0.61614 0.26113
 C3627 C 0.64472 0.59781 0.25992
 C3628 C 0.65354 0.58057 0.25143
 C3629 C 0.67347 0.58219 0.24424
 C3630 C 0.68422 0.60053 0.24539
 C3631 C 0.68656 0.63754 0.25428
 C3632 C 0.69834 0.64377 0.23828
 C3633 C 0.70832 0.66254 0.23826
 C3634 C 0.70691 0.67565 0.25429
 C3635 C 0.69540 0.66931 0.27047
 C3636 C 0.68528 0.65051 0.27043
 H3637 H 0.62931 0.59727 0.26534
 H3638 H 0.68091 0.56918 0.23794
 H3639 H 0.71703 0.66683 0.22552
 H3640 H 0.69393 0.67902 0.28304
 H3641 H 0.69959 0.60117 0.23984
 H3642 H 0.69947 0.63433 0.22550
 H3643 H 0.64810 0.62919 0.26739
 H3644 H 0.67648 0.64608 0.28307
 C3645 C 0.18627 0.10763 0.76352
 C3646 C 0.18287 0.09997 0.74486
 C3647 C 0.17047 0.08295 0.74203
 C3648 C 0.16098 0.07313 0.75777
 C3649 C 0.16423 0.08088 0.77643
 C3650 C 0.17671 0.09788 0.77927
 C3651 C 0.19955 0.12583 0.76635
 C3652 C 0.19478 0.14069 0.78030
 C3653 C 0.20635 0.15857 0.78168
 C3654 C 0.22286 0.16203 0.76904
 C3655 C 0.22817 0.14677 0.75575
 C3656 C 0.21676 0.12890 0.75450
 H3657 H 0.16854 0.07735 0.72748
 H3658 H 0.15696 0.07393 0.78889
 H3659 H 0.20173 0.17011 0.79193
 H3660 H 0.24090 0.14887 0.74591
 H3661 H 0.17904 0.10324 0.79384
 H3662 H 0.18157 0.13894 0.78960
 H3663 H 0.18964 0.10726 0.73233
 H3664 H 0.22125 0.11760 0.74397
 C3665 C 0.32986 0.12117 0.24541
 C3666 C 0.33453 0.11272 0.26337
 C3667 C 0.34362 0.09378 0.26455
 C3668 C 0.34801 0.08240 0.24783
 C3669 C 0.34279 0.09057 0.22988
 C3670 C 0.33399 0.10970 0.22867
 C3671 C 0.32088 0.14185 0.24431
 C3672 C 0.30708 0.14690 0.22990
 C3673 C 0.29792 0.16597 0.22980
 C3674 C 0.30210 0.18024 0.24430
 C3675 C 0.31634 0.17550 0.25824
 C3676 C 0.32577 0.15673 0.25811
 H3677 H 0.34755 0.08830 0.27865
 H3678 H 0.34548 0.08221 0.21664
 H3679 H 0.28686 0.16919 0.21899
 H3680 H 0.32002 0.18632 0.26947
 H3681 H 0.33077 0.11561 0.21455
 H3682 H 0.30276 0.13589 0.21909
 H3683 H 0.33115 0.12070 0.27668
 H3684 H 0.33680 0.15387 0.26903
 C3685 C 0.83265 0.61240 0.73890
 C3686 C 0.83707 0.60412 0.75700
 C3687 C 0.84648 0.58537 0.75844
 C3688 C 0.85142 0.57397 0.74186
 C3689 C 0.84648 0.58198 0.72376
 C3690 C 0.83739 0.60095 0.72229
 C3691 C 0.82329 0.63289 0.73754
 C3692 C 0.80983 0.63765 0.72274
 C3693 C 0.80032 0.65654 0.72237
 C3694 C 0.80377 0.67087 0.73699
 C3695 C 0.81762 0.66641 0.75135
 C3696 C 0.82743 0.64785 0.75149
 H3697 H 0.85018 0.58005 0.77265
 H3698 H 0.84959 0.57360 0.71062
 H3699 H 0.78957 0.65957 0.71122
 H3700 H 0.82073 0.67730 0.76268
 H3701 H 0.83441 0.60673 0.70807
 H3702 H 0.80607 0.62658 0.71180
 H3703 H 0.83323 0.61207 0.77021
 H3704 H 0.83819 0.64523 0.76271
 C3705 C 0.88403 0.77107 0.18822
 C3706 C 0.90119 0.77441 0.19923
 C3707 C 0.92034 0.77344 0.19074
 C3708 C 0.92302 0.76887 0.17085
 C3709 C 0.90535 0.76668 0.15978
 C3710 C 0.88623 0.76772 0.16837
 C3711 C 0.86395 0.76970 0.19760
 C3712 C 0.84725 0.77878 0.18927
 C3713 C 0.82809 0.77635 0.19763
 C3714 C 0.82532 0.76467 0.21440
 C3715 C 0.84212 0.75582 0.22283
 C3716 C 0.86125 0.75834 0.21452
 H3717 H 0.93285 0.77689 0.19999
 H3718 H 0.90580 0.76252 0.14470
 H3719 H 0.81545 0.78344 0.19083
 H3720 H 0.84051 0.74680 0.23578
 H3721 H 0.87315 0.76485 0.15961
 H3722 H 0.84904 0.78772 0.17628
 H3723 H 0.89978 0.77765 0.21453
 H3724 H 0.87389 0.75096 0.22105
 C3725 C 0.39854 0.26625 0.70847
 C3726 C 0.41201 0.25041 0.71158
 C3727 C 0.43045 0.24985 0.70166
 C3728 C 0.43571 0.26506 0.68838
 C3729 C 0.42274 0.28143 0.68596
 C3730 C 0.40431 0.28205 0.69597
 C3731 C 0.37795 0.26523 0.71693
 C3732 C 0.36130 0.27005 0.70569
 C3733 C 0.34173 0.26688 0.71282
 C3734 C 0.33844 0.25868 0.73128
 C3735 C 0.35510 0.25453 0.74277
 C3736 C 0.37465 0.25784 0.73568
 H3737 H 0.44009 0.23695 0.70359
 H3738 H 0.42665 0.29348 0.67597
 H3739 H 0.32920 0.27027 0.70364
 H3740 H 0.35305 0.24850 0.75718
 H3741 H 0.39436 0.29461 0.69357
 H3742 H 0.36338 0.27549 0.69107
 H3743 H 0.40785 0.23786 0.72090
 H3744 H 0.38722 0.25430 0.74476
 C3745 C 0.37967 0.73300 0.80848
 C3746 C 0.39435 0.74614 0.80040
 C3747 C 0.41337 0.74776 0.80838
 C3748 C 0.41798 0.73647 0.82471
 C3749 C 0.40349 0.72314 0.83272
 C3750 C 0.38448 0.72133 0.82459
 C3751 C 0.35921 0.73228 0.80050
 C3752 C 0.34211 0.73130 0.81281
 C3753 C 0.32283 0.73273 0.80529
 C3754 C 0.32045 0.73548 0.78544
 C3755 C 0.33745 0.73571 0.77309
 C3756 C 0.35664 0.73393 0.78053
 H3757 H 0.42427 0.75835 0.80219
 H3758 H 0.40688 0.71419 0.84526
 H3759 H 0.30986 0.73251 0.81504
 H3760 H 0.33591 0.73740 0.75766
 H3761 H 0.37356 0.71089 0.83094
 H3762 H 0.34364 0.73024 0.82828
 H3763 H 0.39096 0.75568 0.78827
 H3764 H 0.36950 0.73418 0.77067
 C3765 C 0.88560 0.22386 0.30188
 C3766 C 0.88865 0.21114 0.31771
 C3767 C 0.90704 0.21147 0.32708
 C3768 C 0.92276 0.22419 0.32049
 C3769 C 0.92037 0.23561 0.30376
 C3770 C 0.90188 0.23557 0.29458
 C3771 C 0.86513 0.22659 0.29428
 C3772 C 0.86239 0.23045 0.27461
 C3773 C 0.84340 0.23528 0.26791
 C3774 C 0.82673 0.23602 0.28068
 C3775 C 0.82926 0.23146 0.30019
 C3776 C 0.84832 0.22696 0.30697
 H3777 H 0.90875 0.20247 0.33994
 H3778 H 0.93232 0.24568 0.29863
 H3779 H 0.84173 0.23834 0.25269
 H3780 H 0.81661 0.23192 0.31030
 H3781 H 0.90000 0.24572 0.28256
 H3782 H 0.87495 0.22991 0.26442
 H3783 H 0.87657 0.20156 0.32336
 H3784 H 0.84995 0.22449 0.32227
 C3785 C 0.11921 0.24318 0.32317
 C3786 C 0.10865 0.26109 0.32685
 C3787 C 0.08873 0.26026 0.33357
 C3788 C 0.07900 0.24152 0.33670
 C3789 C 0.08970 0.22360 0.33345
 C3790 C 0.10964 0.22443 0.32674
 C3791 C 0.13969 0.24403 0.31450
 C3792 C 0.14476 0.23084 0.29932
 C3793 C 0.16363 0.23216 0.29030
 C3794 C 0.17788 0.24674 0.29622
 C3795 C 0.17293 0.25979 0.31161
 C3796 C 0.15396 0.25845 0.32066
 H3797 H 0.08092 0.27431 0.33632
 H3798 H 0.08253 0.20896 0.33570
 H3799 H 0.16691 0.22184 0.27850
 H3800 H 0.18360 0.27114 0.31654
 H3801 H 0.11754 0.21040 0.32420
 H3802 H 0.13394 0.21981 0.29407
 H3803 H 0.11562 0.27573 0.32403
 H3804 H 0.15043 0.26869 0.33246
 C3805 C 0.61603 0.74311 0.80239
 C3806 C 0.60687 0.76148 0.80736
 C3807 C 0.58717 0.76161 0.81470
 C3808 C 0.57633 0.74337 0.81717
 C3809 C 0.58537 0.72504 0.81185
 C3810 C 0.60506 0.72491 0.80455
 C3811 C 0.63699 0.74288 0.79499
 C3812 C 0.64222 0.73023 0.77946
 C3813 C 0.66196 0.72987 0.77241
 C3814 C 0.67692 0.74222 0.78071
 C3815 C 0.67171 0.75487 0.79630
 C3816 C 0.65188 0.75519 0.80339
 H3817 H 0.58063 0.77592 0.81895
 H3818 H 0.57726 0.71080 0.81352
 H3819 H 0.66541 0.72000 0.76030
 H3820 H 0.68288 0.76457 0.80298
 H3821 H 0.61186 0.71053 0.80095
 H3822 H 0.63095 0.72081 0.77256
 H3823 H 0.61494 0.77572 0.80559
 H3824 H 0.64823 0.76491 0.81555
 C3825 C 0.62127 0.21630 0.69033
 C3826 C 0.60300 0.21418 0.70076
 C3827 C 0.58473 0.21761 0.69178
 C3828 C 0.58456 0.22336 0.67233
 C3829 C 0.60272 0.22432 0.66166
 C3830 C 0.62093 0.22078 0.67057
 C3831 C 0.64068 0.21637 0.70028
 C3832 C 0.65764 0.20732 0.69166
 C3833 C 0.67667 0.21041 0.69938
 C3834 C 0.67906 0.22267 0.71583
 C3835 C 0.66191 0.23079 0.72503
 C3836 C 0.64289 0.22766 0.71732
 H3837 H 0.57085 0.21681 0.70025
 H3838 H 0.60286 0.22848 0.64657
 H3839 H 0.68955 0.20367 0.69212
 H3840 H 0.66322 0.24015 0.73782
 H3841 H 0.63481 0.22271 0.66226
 H3842 H 0.65624 0.19837 0.67862
 H3843 H 0.60293 0.21059 0.71598
 H3844 H 0.63007 0.23500 0.72410
 C3845 C 0.10553 0.73118 0.21318
 C3846 C 0.09441 0.74893 0.21595
 C3847 C 0.07643 0.75156 0.20634
 C3848 C 0.06926 0.73647 0.19386
 C3849 C 0.07949 0.71806 0.19227
 C3850 C 0.09756 0.71545 0.20184
 C3851 C 0.12644 0.73045 0.21995
 C3852 C 0.14194 0.72411 0.20731
 C3853 C 0.16207 0.72683 0.21222
 C3854 C 0.16703 0.73600 0.22984
 C3855 C 0.15148 0.74128 0.24292
 C3856 C 0.13137 0.73851 0.23802
 H3857 H 0.06862 0.76580 0.20790
 H3858 H 0.07422 0.70624 0.18266
 H3859 H 0.17371 0.72244 0.20191
 H3860 H 0.15479 0.74806 0.25677
 H3861 H 0.10579 0.70154 0.19967
 H3862 H 0.13855 0.71808 0.19317
 H3863 H 0.10028 0.76138 0.22448
 H3864 H 0.11967 0.74328 0.24809
   
