data_POSCAR
  _audit_creation_date              2014-09-24
  _audit_creation_method            'ToBaCCo'
  _symmetry_space_group_name_H-M    'P1'
  _symmetry_Int_Tables_number       1
  _symmetry_cell_setting            triclinic
  loop_
  _symmetry_equiv_pos_as_xyz
 x,y,z
_cell_length_a 62.2567
_cell_length_b 62.4084
_cell_length_c 55.6827
_cell_angle_alpha 90.528700
_cell_angle_beta 89.958600
_cell_angle_gamma 89.789800
loop_
  _atom_site_label
  _atom_site_type_symbol
  _atom_site_fract_x
  _atom_site_fract_y
  _atom_site_fract_z
C1 C 0.37799 0.02008 0.27138
 H2 H 0.37853 0.02838 0.25442
 C3 C 0.39021 0.02748 0.29077
 H4 H 0.40032 0.04144 0.28878
 C5 C 0.36418 -0.00833 0.29477
 H6 H 0.35385 -0.02210 0.29636
 C7 C 0.37610 -0.00146 0.31459
 H8 H 0.37512 -0.01014 0.33131
 N9 N 0.36561 0.00226 0.27359
 C10 C 0.35992 -0.02237 0.20050
 H11 H 0.34263 -0.02304 0.19868
 C12 C 0.37307 -0.02877 0.18140
 H13 H 0.36594 -0.03413 0.16467
 C14 C 0.39042 -0.01439 0.22444
 H15 H 0.39713 -0.00907 0.24133
 C16 C 0.40415 -0.02064 0.20580
 H17 H 0.42139 -0.01968 0.20821
 Zn18 Zn 0.34982 -0.00684 0.24638
 N19 N 0.36874 -0.01499 0.22132
 C20 C 0.33505 0.02627 0.21559
 N21 N 0.33243 0.01656 0.23720
 C22 C 0.31880 0.02470 0.25409
 C23 C 0.30737 0.04354 0.24973
 C24 C 0.32394 0.04520 0.21052
 C25 C 0.34400 -0.04937 0.25894
 C26 C 0.33302 -0.06848 0.26269
 C27 C 0.29962 -0.04983 0.25501
 C28 C 0.31128 -0.03102 0.25143
 N29 N 0.33307 -0.03115 0.25345
 H30 H 0.34638 0.01989 0.20267
 H31 H 0.31738 0.01690 0.27129
 H32 H 0.29708 0.05027 0.26359
 H33 H 0.32665 0.05325 0.19364
 H34 H 0.36135 -0.04908 0.25998
 H35 H 0.34199 -0.08294 0.26670
 H36 H 0.28230 -0.04964 0.25295
 H37 H 0.30295 -0.01650 0.24647
 C38 C 0.39538 -0.02776 0.18405
 C39 C 0.38934 0.01650 0.31251
 C40 C 0.31062 -0.06877 0.26055
 C41 C 0.31019 0.05403 0.22788
 C42 C 0.12000 0.03168 0.72380
 H43 H 0.11966 0.04018 0.74081
 C44 C 0.10667 0.03824 0.70503
 H45 H 0.09593 0.05176 0.70757
 C46 C 0.13427 0.00350 0.69968
 H47 H 0.14517 -0.00988 0.69756
 C48 C 0.12127 0.00954 0.68049
 H49 H 0.12202 0.00060 0.66373
 N50 N 0.13310 0.01431 0.72097
 C51 C 0.14200 -0.00963 0.79351
 H52 H 0.15935 -0.00988 0.79455
 C53 C 0.12974 -0.01651 0.81296
 H54 H 0.13763 -0.02179 0.82921
 C55 C 0.11043 -0.00246 0.77108
 H56 H 0.10296 0.00265 0.75460
 C57 C 0.09758 -0.00921 0.79011
 H58 H 0.08025 -0.00882 0.78842
 Zn59 Zn 0.15003 0.00578 0.74743
 N60 N 0.13222 -0.00248 0.77324
 C61 C 0.16570 0.03903 0.77803
 N62 N 0.16743 0.02933 0.75611
 C63 C 0.18050 0.03728 0.73878
 C64 C 0.19240 0.05581 0.74311
 C65 C 0.17731 0.05766 0.78310
 C66 C 0.15610 -0.03674 0.73424
 C67 C 0.16720 -0.05588 0.73026
 C68 C 0.20056 -0.03708 0.73705
 C69 C 0.18881 -0.01820 0.74085
 N70 N 0.16697 -0.01842 0.73946
 H71 H 0.15481 0.03278 0.79133
 H72 H 0.18124 0.02947 0.72137
 H73 H 0.20235 0.06233 0.72900
 H74 H 0.17541 0.06566 0.80032
 H75 H 0.13873 -0.03652 0.73374
 H76 H 0.15836 -0.07048 0.72665
 H77 H 0.21788 -0.03696 0.73880
 H78 H 0.19711 -0.00361 0.74565
 C79 C 0.10733 -0.01621 0.81126
 C80 C 0.10721 0.02691 0.68326
 C81 C 0.18959 -0.05610 0.73190
 C82 C 0.19063 0.06620 0.76538
 C83 C 0.62012 0.52639 0.22412
 H84 H 0.61957 0.53460 0.24132
 C85 C 0.60684 0.53313 0.20539
 H86 H 0.59593 0.54649 0.20814
 C87 C 0.63492 0.49885 0.19949
 H88 H 0.64602 0.48567 0.19714
 C89 C 0.62198 0.50509 0.18032
 H90 H 0.62297 0.49649 0.16336
 N91 N 0.63349 0.50926 0.22101
 C92 C 0.64301 0.48411 0.29294
 H93 H 0.66037 0.48384 0.29365
 C94 C 0.63105 0.47701 0.31251
 H95 H 0.63919 0.47150 0.32851
 C96 C 0.61112 0.49171 0.27126
 H97 H 0.60341 0.49714 0.25505
 C98 C 0.59855 0.48475 0.29044
 H99 H 0.58120 0.48526 0.28913
 Zn100 Zn 0.65053 0.50055 0.24733
 N101 N 0.63293 0.49162 0.27302
 C102 C 0.66541 0.53342 0.27882
 N103 N 0.66751 0.52423 0.25666
 C104 C 0.68060 0.53278 0.23972
 C105 C 0.69209 0.55146 0.24469
 C106 C 0.67660 0.55215 0.28452
 C107 C 0.65724 0.45834 0.23334
 C108 C 0.66859 0.43936 0.22930
 C109 C 0.70166 0.45848 0.23674
 C110 C 0.68967 0.47720 0.24058
 N111 N 0.66785 0.47673 0.23894
 H112 H 0.65452 0.52671 0.29181
 H113 H 0.68164 0.52536 0.22212
 H114 H 0.70202 0.55848 0.23088
 H115 H 0.67437 0.55975 0.30192
 H116 H 0.63987 0.45836 0.23267
 H117 H 0.65995 0.42469 0.22546
 H118 H 0.71896 0.45876 0.23876
 H119 H 0.69774 0.49184 0.24568
 C120 C 0.60863 0.47746 0.31128
 C121 C 0.60769 0.52224 0.18336
 C122 C 0.69096 0.43937 0.23128
 C123 C 0.68990 0.56134 0.26721
 C124 C 0.88063 0.52155 0.77393
 H125 H 0.88109 0.52973 0.75690
 C126 C 0.89257 0.52936 0.79334
 H127 H 0.90235 0.54355 0.79123
 C128 C 0.86727 0.49305 0.79749
 H129 H 0.85721 0.47907 0.79912
 C130 C 0.87891 0.50032 0.81734
 H131 H 0.87796 0.49171 0.83413
 N132 N 0.86858 0.50351 0.77622
 C133 C 0.86357 0.47852 0.70323
 H134 H 0.84630 0.47768 0.70129
 C135 C 0.87690 0.47213 0.68429
 H136 H 0.86991 0.46662 0.66753
 C137 C 0.89385 0.48688 0.72737
 H138 H 0.90040 0.49234 0.74428
 C139 C 0.90775 0.48065 0.70887
 H140 H 0.92496 0.48177 0.71141
 Zn141 Zn 0.85305 0.49409 0.74897
 N142 N 0.87219 0.48606 0.72409
 C143 C 0.83803 0.52697 0.71797
 N144 N 0.83543 0.51727 0.73958
 C145 C 0.82163 0.52526 0.75638
 C146 C 0.80999 0.54395 0.75191
 C147 C 0.82670 0.54575 0.71279
 C148 C 0.84750 0.45151 0.76171
 C149 C 0.83662 0.43229 0.76519
 C150 C 0.80321 0.45059 0.75681
 C151 C 0.81473 0.46953 0.75350
 N152 N 0.83648 0.46962 0.75598
 H153 H 0.84949 0.52070 0.70512
 H154 H 0.82023 0.51748 0.77359
 H155 H 0.79955 0.55057 0.76570
 H156 H 0.82939 0.55381 0.69591
 H157 H 0.86482 0.45196 0.76308
 H158 H 0.84557 0.41787 0.76935
 H159 H 0.78595 0.45050 0.75436
 H160 H 0.80634 0.48395 0.74833
 C161 C 0.89918 0.47333 0.68711
 C162 C 0.89178 0.51856 0.81521
 C163 C 0.81430 0.43179 0.76255
 C164 C 0.81277 0.55444 0.73006
 C165 C 0.22318 0.42808 0.97694
 H166 H 0.23821 0.42945 0.96732
 C167 C 0.20546 0.44052 0.97018
 H168 H 0.20681 0.45159 0.95539
 C169 C 0.20277 0.41169 1.00766
 H170 H 0.20153 0.40018 1.02193
 C171 C 0.18477 0.42375 1.00151
 H172 H 0.16988 0.42163 1.01128
 N173 N 0.22159 0.41421 0.99561
 C174 C 0.28597 0.40364 1.02397
 H175 H 0.28559 0.38636 1.02533
 C176 C 0.30449 0.41480 1.03038
 H177 H 0.31849 0.40609 1.03657
 C178 C 0.26850 0.43602 1.01327
 H179 H 0.25448 0.44421 1.00652
 C180 C 0.28677 0.44782 1.01943
 H181 H 0.28688 0.46503 1.01709
 Zn182 Zn 0.24557 0.39714 1.00422
 N183 N 0.26869 0.41427 1.01498
 C184 C 0.27449 0.38262 0.96798
 N185 N 0.25413 0.38109 0.97677
 C186 C 0.23918 0.36859 0.96572
 C187 C 0.24460 0.35664 0.94526
 C188 C 0.28058 0.37093 0.94755
 C189 C 0.23350 0.38798 1.05130
 C190 C 0.22796 0.37540 1.07093
 C191 C 0.23233 0.34380 1.04596
 C192 C 0.23777 0.35698 1.02675
 N193 N 0.23807 0.37867 1.02969
 H194 H 0.28601 0.39302 0.97659
 H195 H 0.22302 0.36795 0.97284
 H196 H 0.23259 0.34676 0.93655
 H197 H 0.29677 0.37230 0.94061
 H198 H 0.23416 0.40523 1.05321
 H199 H 0.22446 0.38295 1.08810
 H200 H 0.23231 0.32655 1.04357
 H201 H 0.24193 0.34983 1.00964
 C202 C 0.30503 0.43703 1.02767
 C203 C 0.18611 0.43833 0.98269
 C204 C 0.22734 0.35312 1.06822
 C205 C 0.26551 0.35780 0.93614
 C206 C 0.77453 0.07849 0.97320
 H207 H 0.75942 0.07664 0.96383
 C208 C 0.79254 0.06662 0.96584
 H209 H 0.79130 0.05551 0.95084
 C210 C 0.79477 0.09538 1.00402
 H211 H 0.79581 0.10685 1.01858
 C212 C 0.81306 0.08394 0.99728
 H213 H 0.82795 0.08650 1.00697
 N214 N 0.77587 0.09225 0.99228
 C215 C 0.71149 0.09944 1.02218
 H216 H 0.71113 0.11669 1.02431
 C217 C 0.69363 0.08734 1.02856
 H218 H 0.67937 0.09529 1.03546
 C219 C 0.73023 0.06806 1.00979
 H220 H 0.74452 0.06062 1.00250
 C221 C 0.71265 0.05534 1.01589
 H222 H 0.71330 0.03817 1.01291
 Zn223 Zn 0.75142 0.10811 1.00243
 N224 N 0.72908 0.08976 1.01240
 C225 C 0.72165 0.12305 0.96761
 N226 N 0.74197 0.12505 0.97639
 C227 C 0.75633 0.13860 0.96618
 C228 C 0.75035 0.15105 0.94655
 C229 C 0.71502 0.13519 0.94799
 C230 C 0.76385 0.11516 1.04981
 C231 C 0.76972 0.12674 1.07030
 C232 C 0.76443 0.15953 1.04827
 C233 C 0.75867 0.14732 1.02812
 N234 N 0.75872 0.12553 1.02919
 H235 H 0.71062 0.11183 0.97552
 H236 H 0.77249 0.13961 0.97323
 H237 H 0.76193 0.16166 0.93840
 H238 H 0.69891 0.13333 0.94094
 H239 H 0.76350 0.09784 1.05021
 H240 H 0.77376 0.11834 1.08664
 H241 H 0.76428 0.17686 1.04737
 H242 H 0.75411 0.15528 1.01176
 C243 C 0.69408 0.06514 1.02501
 C244 C 0.81195 0.06931 0.97817
 C245 C 0.77009 0.14911 1.06949
 C246 C 0.72950 0.14931 0.93737
 C247 C 0.27815 0.58164 0.47306
 H248 H 0.26317 0.57938 0.46355
 C249 C 0.29658 0.57042 0.46575
 H250 H 0.29580 0.55933 0.45069
 C251 C 0.29769 0.59898 0.50414
 H252 H 0.29828 0.61038 0.51880
 C253 C 0.31640 0.58817 0.49741
 H254 H 0.33116 0.59107 0.50719
 N255 N 0.27894 0.59532 0.49225
 C256 C 0.21410 0.60104 0.52165
 H257 H 0.21367 0.61824 0.52424
 C258 C 0.19621 0.58877 0.52752
 H259 H 0.18191 0.59655 0.53454
 C260 C 0.23297 0.57001 0.50846
 H261 H 0.24729 0.56278 0.50097
 C262 C 0.21534 0.55711 0.51402
 H263 H 0.21604 0.54002 0.51051
 Zn264 Zn 0.25390 0.61049 0.50211
 N265 N 0.23178 0.59164 0.51172
 C266 C 0.22399 0.62462 0.46709
 N267 N 0.24422 0.62722 0.47596
 C268 C 0.25819 0.64120 0.46580
 C269 C 0.25187 0.65349 0.44617
 C270 C 0.21704 0.63659 0.44748
 C271 C 0.26575 0.61794 0.54966
 C272 C 0.27108 0.62973 0.57020
 C273 C 0.26498 0.66231 0.54804
 C274 C 0.25978 0.64990 0.52785
 N275 N 0.26049 0.62812 0.52896
 H276 H 0.21327 0.61308 0.47494
 H277 H 0.27428 0.64269 0.47292
 H278 H 0.26315 0.66446 0.43808
 H279 H 0.20101 0.63427 0.44040
 H280 H 0.26593 0.60061 0.55010
 H281 H 0.27525 0.62148 0.58660
 H282 H 0.26432 0.67963 0.54709
 H283 H 0.25511 0.65769 0.51142
 C284 C 0.19669 0.56667 0.52328
 C285 C 0.31584 0.57367 0.47818
 C286 C 0.27078 0.65210 0.56935
 C287 C 0.23111 0.65115 0.43693
 C288 C 0.72377 0.92364 0.47431
 H289 H 0.73872 0.92554 0.46466
 C290 C 0.70562 0.93548 0.46759
 H291 H 0.70656 0.94661 0.45282
 C292 C 0.70398 0.90656 0.50505
 H293 H 0.70316 0.89501 0.51931
 C294 C 0.68557 0.91800 0.49894
 H295 H 0.67079 0.91537 0.50876
 N296 N 0.72270 0.90973 0.49299
 C297 C 0.78742 0.90138 0.52140
 H298 H 0.78755 0.88410 0.52289
 C299 C 0.80556 0.91312 0.52790
 H300 H 0.81976 0.90487 0.53427
 C301 C 0.76904 0.93317 0.51040
 H302 H 0.75481 0.94090 0.50353
 C303 C 0.78691 0.94555 0.51664
 H304 H 0.78650 0.96275 0.51424
 Zn305 Zn 0.74725 0.89350 0.50175
 N306 N 0.76987 0.91144 0.51225
 C307 C 0.77654 0.87932 0.46568
 N308 N 0.75624 0.87735 0.47454
 C309 C 0.74163 0.86431 0.46371
 C310 C 0.74736 0.85229 0.44339
 C311 C 0.78291 0.86760 0.44539
 C312 C 0.73552 0.88472 0.54898
 C313 C 0.73009 0.87235 0.56881
 C314 C 0.73504 0.84047 0.54442
 C315 C 0.74036 0.85346 0.52500
 N316 N 0.74029 0.87518 0.52755
 H317 H 0.78778 0.89014 0.47413
 H318 H 0.72551 0.86330 0.47086
 H319 H 0.73560 0.84201 0.43483
 H320 H 0.79904 0.86935 0.43837
 H321 H 0.73586 0.90201 0.55058
 H322 H 0.72638 0.88009 0.58581
 H323 H 0.73524 0.82319 0.54232
 H324 H 0.74465 0.84614 0.50801
 C325 C 0.80543 0.93535 0.52511
 C326 C 0.68638 0.93264 0.48014
 C327 C 0.72978 0.85003 0.56648
 C328 C 0.76819 0.85394 0.43418
 C329 C 0.02048 0.27819 0.41362
 H330 H 0.03408 0.26736 0.41409
 C331 C 0.02043 0.29677 0.42786
 H332 H 0.03405 0.30031 0.43931
 C333 C -0.01377 0.28704 0.39785
 H334 H -0.02693 0.28342 0.38590
 C335 C -0.01445 0.30576 0.41177
 H336 H -0.02819 0.31640 0.41056
 N337 N 0.00342 0.27356 0.39920
 C338 C 0.00393 0.20408 0.38958
 H339 H 0.00335 0.20300 0.37019
 C340 C 0.00378 0.18545 0.40326
 H341 H 0.00317 0.16996 0.39432
 C342 C 0.00511 0.22560 0.42488
 H343 H 0.00528 0.24126 0.43327
 C344 C 0.00497 0.20734 0.43926
 H345 H 0.00527 0.20906 0.45865
 Zn346 Zn 0.00441 0.24804 0.38036
 N347 N 0.00484 0.22365 0.40049
 C348 C 0.04454 0.23304 0.36215
 N349 N 0.02950 0.24889 0.36096
 C350 C 0.03222 0.26599 0.34626
 C351 C 0.05040 0.26737 0.33160
 C352 C 0.06294 0.23380 0.34781
 C353 C -0.03963 0.24343 0.37224
 C354 C -0.05862 0.24167 0.35905
 C355 C -0.03787 0.24428 0.32251
 C356 C -0.01923 0.24599 0.33640
 N357 N -0.02047 0.24584 0.36082
 H358 H 0.04241 0.21985 0.37431
 H359 H 0.02018 0.27854 0.34590
 H360 H 0.05243 0.28102 0.31995
 H361 H 0.07483 0.22113 0.34892
 H362 H -0.04013 0.24301 0.39165
 H363 H -0.07381 0.23997 0.36832
 H364 H -0.03679 0.24459 0.30310
 H365 H -0.00385 0.24739 0.32761
 C366 C 0.00435 0.18707 0.42834
 C367 C 0.00275 0.31063 0.42698
 C368 C -0.05774 0.24220 0.33396
 C369 C 0.06587 0.25107 0.33233
 C370 C 0.00864 0.72570 0.08725
 H371 H 0.02282 0.73567 0.08726
 C372 C 0.00806 0.70710 0.07310
 H373 H 0.02183 0.70270 0.06219
 C374 C -0.02642 0.71891 0.10194
 H375 H -0.03968 0.72334 0.11350
 C376 C -0.02766 0.70017 0.08806
 H377 H -0.04191 0.69029 0.08892
 N378 N -0.00849 0.73132 0.10118
 C379 C -0.00273 0.80047 0.11186
 H380 H -0.00324 0.80147 0.13126
 C381 C -0.00105 0.81913 0.09834
 H382 H -0.00021 0.83457 0.10735
 C383 C -0.00342 0.77919 0.07637
 H384 H -0.00464 0.76364 0.06783
 C385 C -0.00175 0.79748 0.06217
 H386 H -0.00151 0.79592 0.04278
 Zn387 Zn -0.00594 0.75642 0.12051
 N388 N -0.00360 0.78097 0.10078
 C389 C 0.03554 0.76740 0.13827
 N390 N 0.01913 0.75309 0.13961
 C391 C 0.02064 0.73542 0.15368
 C392 C 0.03909 0.73175 0.16739
 C393 C 0.05424 0.76433 0.15168
 C394 C -0.04969 0.76411 0.12918
 C395 C -0.06847 0.76691 0.14264
 C396 C -0.04764 0.76231 0.17886
 C397 C -0.02923 0.75961 0.16469
 N398 N -0.03063 0.76021 0.14029
 H399 H 0.03433 0.78104 0.12657
 H400 H 0.00754 0.72409 0.15410
 H401 H 0.04019 0.71760 0.17844
 H402 H 0.06726 0.77574 0.15039
 H403 H -0.05031 0.76483 0.10978
 H404 H -0.08358 0.76964 0.13347
 H405 H -0.04634 0.76144 0.19825
 H406 H -0.01390 0.75698 0.17324
 C407 C -0.00047 0.81762 0.07327
 C408 C -0.01026 0.69421 0.07352
 C409 C -0.06749 0.76587 0.16774
 C410 C 0.05606 0.74635 0.16636
 C411 C 0.51269 0.21888 0.58497
 H412 H 0.52679 0.22896 0.58466
 C413 C 0.51182 0.20049 0.57051
 H414 H 0.52531 0.19632 0.55906
 C415 C 0.47805 0.21170 0.60066
 H416 H 0.46507 0.21590 0.61269
 C417 C 0.47654 0.19318 0.58650
 H418 H 0.46235 0.18323 0.58761
 N419 N 0.49587 0.22424 0.59950
 C420 C 0.50069 0.29342 0.61001
 H421 H 0.50067 0.29446 0.62942
 C422 C 0.50160 0.31208 0.59639
 H423 H 0.50237 0.32755 0.60532
 C424 C 0.49946 0.27204 0.57461
 H425 H 0.49829 0.25646 0.56615
 C426 C 0.50034 0.29032 0.56031
 H427 H 0.50008 0.28872 0.54092
 Zn428 Zn 0.49850 0.24930 0.61879
 N429 N 0.49992 0.27388 0.59901
 C430 C 0.53995 0.26114 0.63593
 N431 N 0.52394 0.24639 0.63727
 C432 C 0.52597 0.22872 0.65126
 C433 C 0.54448 0.22557 0.66501
 C434 C 0.55871 0.25860 0.64938
 C435 C 0.45489 0.25617 0.62868
 C436 C 0.43641 0.25866 0.64269
 C437 C 0.45814 0.25443 0.67828
 C438 C 0.47624 0.25201 0.66360
 N439 N 0.47426 0.25261 0.63924
 H440 H 0.53832 0.27480 0.62431
 H441 H 0.51315 0.21707 0.65171
 H442 H 0.54594 0.21147 0.67610
 H443 H 0.57138 0.27040 0.64817
 H444 H 0.45381 0.25692 0.60932
 H445 H 0.42103 0.26126 0.63410
 H446 H 0.45980 0.25374 0.69763
 H447 H 0.49180 0.24969 0.67172
 C448 C 0.50151 0.31051 0.57131
 C449 C 0.49355 0.18754 0.57126
 C450 C 0.43803 0.25767 0.66771
 C451 C 0.56098 0.24068 0.66409
 C452 C 0.51940 0.77780 0.91159
 H453 H 0.53304 0.76702 0.91221
 C454 C 0.51923 0.79644 0.92573
 H455 H 0.53278 0.80008 0.93725
 C456 C 0.48522 0.78650 0.89556
 H457 H 0.47213 0.78281 0.88354
 C458 C 0.48441 0.80527 0.90937
 H459 H 0.47065 0.81587 0.90801
 N460 N 0.50243 0.77306 0.89710
 C461 C 0.50305 0.70351 0.88785
 H462 H 0.50246 0.70231 0.86847
 C463 C 0.50303 0.68495 0.90167
 H464 H 0.50250 0.66939 0.89290
 C465 C 0.50420 0.72522 0.92301
 H466 H 0.50433 0.74092 0.93130
 C467 C 0.50419 0.70703 0.93751
 H468 H 0.50454 0.70880 0.95687
 Zn469 Zn 0.50351 0.74747 0.87838
 N470 N 0.50391 0.72315 0.89863
 C471 C 0.54369 0.73244 0.86034
 N472 N 0.52867 0.74830 0.85908
 C473 C 0.53149 0.76543 0.84445
 C474 C 0.54977 0.76683 0.82993
 C475 C 0.56218 0.73322 0.84614
 C476 C 0.45950 0.74288 0.87012
 C477 C 0.44049 0.74157 0.85692
 C478 C 0.46126 0.74455 0.82043
 C479 C 0.47992 0.74580 0.83434
 N480 N 0.47868 0.74531 0.85876
 H481 H 0.54148 0.71922 0.87245
 H482 H 0.51948 0.77799 0.84405
 H483 H 0.55188 0.78052 0.81835
 H484 H 0.57406 0.72054 0.84731
 H485 H 0.45899 0.74223 0.88953
 H486 H 0.42528 0.73995 0.86616
 H487 H 0.46233 0.74522 0.80103
 H488 H 0.49531 0.74724 0.82558
 C489 C 0.50367 0.68671 0.92672
 C490 C 0.50152 0.81025 0.92466
 C491 C 0.44136 0.74256 0.83185
 C492 C 0.56522 0.75053 0.83074
 C493 C -0.22761 0.63098 0.97765
 H494 H -0.21992 0.63148 0.99506
 C495 C -0.21967 0.64345 0.95891
 H496 H -0.20592 0.65372 0.96188
 C497 C -0.25484 0.61685 0.95234
 H498 H -0.26829 0.60623 0.94970
 C499 C -0.24741 0.62901 0.93317
 H500 H -0.25538 0.62792 0.91591
 N501 N -0.24508 0.61825 0.97415
 C502 C -0.27188 0.60925 1.04574
 H503 H -0.27248 0.59194 1.04627
 C504 C -0.27888 0.62135 1.06548
 H505 H -0.28466 0.61332 1.08139
 C506 C -0.26339 0.64086 1.02444
 H507 H -0.25758 0.64841 1.00833
 C508 C -0.27023 0.65358 1.04378
 H509 H -0.26927 0.67088 1.04262
 Zn510 Zn -0.25470 0.60144 1.00013
 N511 N -0.26396 0.61911 1.02594
 C512 C -0.22243 0.58573 1.03173
 N513 N -0.23130 0.58409 1.00944
 C514 C -0.22247 0.57127 0.99216
 C515 C -0.20383 0.55959 0.99691
 C516 C -0.20373 0.57433 1.03721
 C517 C -0.29670 0.59514 0.98488
 C518 C -0.31537 0.58387 0.97935
 C519 C -0.29621 0.55075 0.98634
 C520 C -0.27782 0.56267 0.99170
 N521 N -0.27842 0.58447 0.99088
 H522 H -0.22936 0.59643 1.04500
 H523 H -0.22962 0.57062 0.97447
 H524 H -0.19658 0.54989 0.98282
 H525 H -0.19635 0.57621 1.05471
 H526 H -0.29681 0.61248 0.98481
 H527 H -0.32996 0.59254 0.97504
 H528 H -0.29580 0.53344 0.98754
 H529 H -0.26331 0.55450 0.99710
 C530 C -0.27790 0.64373 1.06455
 C531 C -0.22974 0.64248 0.93650
 C532 C -0.31517 0.56150 0.98024
 C533 C -0.19425 0.56133 1.01953
 C534 C -0.21864 0.37378 0.53512
 H535 H -0.21008 0.37303 0.51821
 C536 C -0.21203 0.36197 0.55367
 H537 H -0.19814 0.35159 0.55176
 C538 C -0.24755 0.38919 0.55773
 H539 H -0.26118 0.39985 0.55936
 C540 C -0.24091 0.37641 0.57861
 H541 H -0.25022 0.37743 0.59505
 N542 N -0.23733 0.38731 0.53739
 C543 C -0.26145 0.39266 0.46417
 H544 H -0.26241 0.40991 0.46267
 C545 C -0.26781 0.37962 0.44497
 H546 H -0.27345 0.38682 0.42850
 C547 C -0.25295 0.36216 0.48747
 H548 H -0.24749 0.35540 0.50417
 C549 C -0.25915 0.34852 0.46868
 H550 H -0.25804 0.33132 0.47081
 Zn551 Zn -0.24630 0.40283 0.51007
 N552 N -0.25389 0.38381 0.48476
 C553 C -0.21315 0.41770 0.47933
 N554 N -0.22307 0.42048 0.50094
 C555 C -0.21533 0.43448 0.51766
 C556 C -0.19667 0.44613 0.51308
 C557 C -0.19444 0.42903 0.47404
 C558 C -0.28906 0.40763 0.52249
 C559 C -0.30867 0.41795 0.52633
 C560 C -0.29128 0.45187 0.51906
 C561 C -0.27189 0.44086 0.51542
 N562 N -0.27119 0.41912 0.51716
 H563 H -0.21921 0.40611 0.46654
 H564 H -0.22328 0.43605 0.53487
 H565 H -0.19026 0.45674 0.52678
 H566 H -0.18624 0.42622 0.45713
 H567 H -0.28809 0.39034 0.52334
 H568 H -0.32285 0.40854 0.53015
 H569 H -0.29183 0.46913 0.51714
 H570 H -0.25761 0.44963 0.51063
 C571 C -0.26657 0.35735 0.44721
 C572 C -0.22401 0.36313 0.57658
 C573 C -0.30985 0.44025 0.52442
 C574 C -0.18598 0.44317 0.49119
 C575 C 0.27836 -0.12373 0.03461
 H576 H 0.28680 -0.12476 0.01764
 C577 C 0.28477 -0.13564 0.05317
 H578 H 0.29837 -0.14639 0.05120
 C579 C 0.24999 -0.10749 0.05738
 H580 H 0.23665 -0.09650 0.05906
 C581 C 0.25643 -0.12037 0.07826
 H582 H 0.24723 -0.11906 0.09476
 N583 N 0.26003 -0.10973 0.03696
 C584 C 0.23542 -0.10404 -0.03601
 H585 H 0.23468 -0.08678 -0.03745
 C586 C 0.22891 -0.11695 -0.05525
 H587 H 0.22336 -0.10963 -0.07170
 C588 C 0.24368 -0.13471 -0.01287
 H589 H 0.24916 -0.14157 0.00377
 C590 C 0.23732 -0.14821 -0.03171
 H591 H 0.23833 -0.16544 -0.02968
 Zn592 Zn 0.25125 -0.09413 0.00963
 N593 N 0.24298 -0.11304 -0.01550
 C594 C 0.28428 -0.08011 -0.02174
 N595 N 0.27479 -0.07714 0.00008
 C596 C 0.28304 -0.06324 0.01660
 C597 C 0.30175 -0.05185 0.01155
 C598 C 0.30303 -0.06905 -0.02750
 C599 C 0.20873 -0.08791 0.02249
 C600 C 0.18951 -0.07691 0.02636
 C601 C 0.20796 -0.04367 0.01844
 C602 C 0.22694 -0.05535 0.01479
 N603 N 0.22692 -0.07708 0.01683
 H604 H 0.27782 -0.09162 -0.03437
 H605 H 0.27540 -0.06150 0.03396
 H606 H 0.30855 -0.04128 0.02506
 H607 H 0.31087 -0.07199 -0.04460
 H608 H 0.20913 -0.10521 0.02356
 H609 H 0.17504 -0.08580 0.03042
 H610 H 0.20796 -0.02644 0.01625
 H611 H 0.24145 -0.04711 0.00971
 C612 C 0.23000 -0.13924 -0.05314
 C613 C 0.27295 -0.13411 0.07616
 C614 C 0.18906 -0.05461 0.02413
 C615 C 0.31195 -0.05497 -0.01060
 C616 C 0.27459 1.12915 0.47531
 H617 H 0.28261 1.12963 0.49253
 C618 C 0.28249 1.14122 0.45624
 H619 H 0.29656 1.15115 0.45875
 C620 C 0.24644 1.11560 0.45089
 H621 H 0.23259 1.10540 0.44875
 C622 C 0.25381 1.12737 0.43139
 H623 H 0.24542 1.12641 0.41437
 N624 N 0.25666 1.11695 0.47243
 C625 C 0.23090 1.11110 0.54490
 H626 H 0.22999 1.09386 0.54642
 C627 C 0.22446 1.12421 0.56408
 H628 H 0.21881 1.11706 0.58057
 C629 C 0.23952 1.14155 0.52165
 H630 H 0.24511 1.14828 0.50499
 C631 C 0.23323 1.15523 0.54039
 H632 H 0.23442 1.17242 0.53827
 Zn633 Zn 0.24691 1.10112 0.49911
 N634 N 0.23861 1.11991 0.52438
 C635 C 0.27929 1.08515 0.53054
 N636 N 0.26995 1.08329 0.50851
 C637 C 0.27807 1.06983 0.49141
 C638 C 0.29645 1.05770 0.49604
 C639 C 0.29777 1.07333 0.53589
 C640 C 0.20446 1.09571 0.48483
 C641 C 0.18542 1.08485 0.47987
 C642 C 0.20373 1.05139 0.48757
 C643 C 0.22250 1.06290 0.49235
 N644 N 0.22251 1.08467 0.49088
 H645 H 0.27293 1.09635 0.54366
 H646 H 0.27057 1.06900 0.47391
 H647 H 0.30313 1.04749 0.48206
 H648 H 0.30554 1.07537 0.55316
 H649 H 0.20484 1.11303 0.48422
 H650 H 0.17104 1.09381 0.47545
 H651 H 0.20368 1.03411 0.48923
 H652 H 0.23684 1.05446 0.49777
 C653 C 0.22577 1.14647 0.56184
 C654 C 0.27190 1.14039 0.43412
 C655 C 0.18502 1.06251 0.48137
 C656 C 0.30653 1.05965 0.51837
 C657 C 0.17700 0.47081 0.27397
 H658 H 0.17830 0.48587 0.28363
 C659 C 0.18944 0.45319 0.28094
 H660 H 0.20043 0.45464 0.29592
 C661 C 0.16084 0.45024 0.24289
 H662 H 0.14943 0.44893 0.22838
 C663 C 0.17289 0.43234 0.24924
 H664 H 0.17086 0.41743 0.23939
 N665 N 0.16327 0.46911 0.25500
 C666 C 0.15322 0.53296 0.22605
 H667 H 0.13595 0.53246 0.22404
 C668 C 0.16443 0.55143 0.21999
 H669 H 0.15576 0.56527 0.21340
 C670 C 0.18552 0.51587 0.23809
 H671 H 0.19365 0.50203 0.24525
 C672 C 0.19737 0.53411 0.23232
 H673 H 0.21455 0.53437 0.23534
 Zn674 Zn 0.14638 0.49300 0.24587
 N675 N 0.16377 0.51591 0.23555
 C676 C 0.13142 0.52236 0.28144
 N677 N 0.12989 0.50194 0.27277
 C678 C 0.11700 0.48729 0.28350
 C679 C 0.10464 0.49312 0.30347
 C680 C 0.11934 0.52884 0.30138
 C681 C 0.13793 0.48065 0.19854
 C682 C 0.12562 0.47531 0.17845
 C683 C 0.09354 0.48016 0.20245
 C684 C 0.10649 0.48539 0.22212
 N685 N 0.12827 0.48540 0.21987
 H686 H 0.14213 0.53365 0.27311
 H687 H 0.11636 0.47108 0.27649
 H688 H 0.09445 0.48135 0.31195
 H689 H 0.12072 0.54508 0.30824
 H690 H 0.15526 0.48110 0.19719
 H691 H 0.13355 0.47175 0.16152
 H692 H 0.07621 0.48045 0.20439
 H693 H 0.09908 0.48970 0.23903
 C694 C 0.18662 0.55216 0.22359
 C695 C 0.18737 0.43382 0.26833
 C696 C 0.10321 0.47507 0.18040
 C697 C 0.10579 0.51410 0.31243
 C698 C -0.17777 1.02173 0.27425
 H699 H -0.17917 1.00685 0.28394
 C700 C -0.18999 1.03962 0.28131
 H701 H -0.20092 1.03853 0.29638
 C702 C -0.16137 1.04169 0.24324
 H703 H -0.14988 1.04276 0.22881
 C704 C -0.17322 1.05982 0.24965
 H705 H -0.17095 1.07458 0.23989
 N706 N -0.16393 1.02303 0.25534
 C707 C -0.15223 0.95845 0.22703
 H708 H -0.13494 0.95923 0.22534
 C709 C -0.16303 0.93970 0.22065
 H710 H -0.15403 0.92595 0.21410
 C711 C -0.18501 0.97520 0.23839
 H712 H -0.19350 0.98904 0.24537
 C713 C -0.19646 0.95670 0.23223
 H714 H -0.21371 0.95626 0.23473
 Zn715 Zn -0.14650 0.99917 0.24650
 N716 N -0.16323 0.97552 0.23626
 C717 C -0.13096 0.97110 0.28250
 N718 N -0.12991 0.99133 0.27359
 C719 C -0.11756 1.00661 0.28430
 C720 C -0.10527 1.00166 0.30450
 C721 C -0.11894 0.96549 0.30267
 C722 C -0.13835 1.01076 0.19918
 C723 C -0.12637 1.01718 0.17934
 C724 C -0.09418 1.01474 0.20345
 C725 C -0.10680 1.00838 0.22289
 N726 N -0.12851 1.00682 0.22050
 H727 H -0.14127 0.95931 0.27419
 H728 H -0.11731 1.02266 0.27713
 H729 H -0.09552 1.01393 0.31294
 H730 H -0.11994 0.94940 0.30971
 H731 H -0.15560 1.00916 0.19773
 H732 H -0.13442 1.02035 0.16248
 H733 H -0.07692 1.01595 0.20551
 H734 H -0.09922 1.00475 0.23980
 C735 C -0.18529 0.93870 0.22361
 C736 C -0.18765 1.05883 0.26882
 C737 C -0.10410 1.01931 0.18152
 C738 C -0.10595 0.98090 0.31372
 C739 C 0.32365 0.52735 -0.22439
 H740 H 0.32214 0.51232 -0.21502
 C741 C 0.31154 0.54519 -0.21696
 H742 H 0.30059 0.54392 -0.20193
 C743 C 0.34003 0.54766 -0.25514
 H744 H 0.35142 0.54882 -0.26967
 C745 C 0.32831 0.56576 -0.24833
 H746 H 0.33057 0.58064 -0.25788
 N747 N 0.33734 0.52883 -0.24341
 C748 C 0.34716 0.46360 -0.27391
 H749 H 0.36442 0.46394 -0.27613
 C750 C 0.33612 0.44609 -0.28015
 H751 H 0.34448 0.43222 -0.28740
 C752 C 0.31541 0.48237 -0.26161
 H753 H 0.30746 0.49636 -0.25426
 C754 C 0.30257 0.46328 -0.26805
 H755 H 0.28541 0.46338 -0.26474
 Zn756 Zn 0.35396 0.50474 -0.25320
 N757 N 0.33627 0.48190 -0.26370
 C758 C 0.36905 0.47551 -0.21813
 N759 N 0.37068 0.49584 -0.22663
 C760 C 0.38363 0.51052 -0.21576
 C761 C 0.39585 0.50487 -0.19575
 C762 C 0.38100 0.46920 -0.19815
 C763 C 0.36170 0.51702 -0.30040
 C764 C 0.37359 0.52308 -0.32046
 C765 C 0.40607 0.51896 -0.29718
 C766 C 0.39355 0.51299 -0.27750
 N767 N 0.37175 0.51235 -0.27939
 H768 H 0.35831 0.46420 -0.22658
 H769 H 0.38434 0.52667 -0.22260
 H770 H 0.40603 0.51669 -0.18713
 H771 H 0.37948 0.45305 -0.19140
 H772 H 0.34437 0.51614 -0.30148
 H773 H 0.36544 0.52670 -0.33713
 H774 H 0.42341 0.51931 -0.29562
 H775 H 0.40128 0.50881 -0.26083
 C776 C 0.31261 0.44573 -0.27655
 C777 C 0.31389 0.56453 -0.22918
 C778 C 0.39596 0.52413 -0.31881
 C779 C 0.39452 0.48401 -0.18688
 C780 C 0.67840 -0.02949 -0.22494
 H781 H 0.67999 -0.01451 -0.21517
 C782 C 0.69000 -0.04664 -0.21843
 H783 H 0.70103 -0.04552 -0.20344
 C784 C 0.66102 -0.04887 -0.25658
 H785 H 0.64951 -0.04996 -0.27099
 C786 C 0.67343 -0.06805 -0.25011
 H787 H 0.67104 -0.08276 -0.26026
 N788 N 0.66377 -0.03089 -0.24493
 C789 C 0.65482 0.03347 -0.27308
 H790 H 0.63754 0.03332 -0.27510
 C791 C 0.66639 0.05179 -0.27889
 H792 H 0.65795 0.06583 -0.28533
 C793 C 0.68676 0.01562 -0.26126
 H794 H 0.69460 0.00153 -0.25430
 C795 C 0.69899 0.03367 -0.26679
 H796 H 0.71618 0.03349 -0.26377
 Zn797 Zn 0.64724 -0.00663 -0.25378
 N798 N 0.66501 0.01611 -0.26381
 C799 C 0.63253 0.02260 -0.21789
 N800 N 0.63087 0.00226 -0.22676
 C801 C 0.61788 -0.01238 -0.21617
 C802 C 0.60551 -0.00662 -0.19618
 C803 C 0.62045 0.02902 -0.19792
 C804 C 0.63852 -0.01856 -0.30123
 C805 C 0.62610 -0.02416 -0.32116
 C806 C 0.59418 -0.01934 -0.29696
 C807 C 0.60720 -0.01384 -0.27744
 N808 N 0.62897 -0.01378 -0.27984
 H809 H 0.64331 0.03388 -0.22612
 H810 H 0.61712 -0.02854 -0.22333
 H811 H 0.59522 -0.01837 -0.18785
 H812 H 0.62191 0.04521 -0.19093
 H813 H 0.65584 -0.01811 -0.30271
 H814 H 0.63384 -0.02790 -0.33813
 H815 H 0.57686 -0.01925 -0.29498
 H816 H 0.59986 -0.00953 -0.26050
 C817 C 0.68862 0.05205 -0.27529
 C818 C 0.68743 -0.06702 -0.23188
 C819 C 0.60374 -0.02463 -0.31897
 C820 C 0.60677 0.01430 -0.18704
 C821 C 0.02867 0.26925 0.83656
 H822 H 0.01784 0.28285 0.83638
 C823 C 0.04699 0.26916 0.82203
 H824 H 0.05036 0.28275 0.81068
 C825 C 0.03774 0.23505 0.85182
 H826 H 0.03428 0.22190 0.86367
 C827 C 0.05622 0.23432 0.83760
 H828 H 0.06687 0.22057 0.83848
 N829 N 0.02425 0.25224 0.85086
 C830 C -0.04531 0.25313 0.86055
 H831 H -0.04635 0.25272 0.87994
 C832 C -0.06403 0.25334 0.84676
 H833 H -0.07956 0.25313 0.85554
 C834 C -0.02384 0.25372 0.82536
 H835 H -0.00818 0.25357 0.81704
 C836 C -0.04219 0.25393 0.81089
 H837 H -0.04058 0.25413 0.79152
 Zn838 Zn -0.00108 0.25344 0.86986
 N839 N -0.02571 0.25364 0.84975
 C840 C -0.01592 0.29377 0.88770
 N841 N 0.00003 0.27883 0.88890
 C842 C 0.01741 0.28182 0.90337
 C843 C 0.01896 0.30019 0.91784
 C844 C -0.01499 0.31234 0.90186
 C845 C -0.00531 0.20953 0.87905
 C846 C -0.00679 0.19099 0.89280
 C847 C -0.00413 0.21283 0.92872
 C848 C -0.00269 0.23099 0.91428
 N849 N -0.00299 0.22902 0.88989
 H850 H -0.02933 0.29142 0.87571
 H851 H 0.03002 0.26985 0.90372
 H852 H 0.03282 0.30242 0.92933
 H853 H -0.02775 0.32414 0.90078
 H854 H -0.00586 0.20843 0.85965
 H855 H -0.00841 0.17553 0.88399
 H856 H -0.00371 0.21452 0.94809
 H857 H -0.00139 0.24661 0.92264
 C858 C -0.06246 0.25385 0.82170
 C859 C 0.06085 0.25148 0.82249
 C860 C -0.00609 0.19264 0.91786
 C861 C 0.00256 0.31554 0.91714
 C862 C 0.47473 0.26453 0.16058
 H863 H 0.48479 0.27861 0.16128
 C864 C 0.45609 0.26363 0.17457
 H865 H 0.45175 0.27707 0.18605
 C866 C 0.46783 0.22992 0.14449
 H867 H 0.47222 0.21693 0.13251
 C868 C 0.44908 0.22838 0.15816
 H869 H 0.43921 0.21417 0.15673
 N870 N 0.48037 0.24771 0.14613
 C871 C 0.55009 0.25219 0.13818
 H872 H 0.55164 0.25193 0.11882
 C873 C 0.56845 0.25325 0.15258
 H874 H 0.58418 0.25388 0.14429
 C875 C 0.52778 0.25144 0.17268
 H876 H 0.51196 0.25039 0.18052
 C877 C 0.54573 0.25248 0.18773
 H878 H 0.54362 0.25246 0.20705
 Zn879 Zn 0.50594 0.25000 0.12767
 N880 N 0.53022 0.25160 0.14836
 C881 C 0.51850 0.29091 0.11001
 N882 N 0.50351 0.27511 0.10874
 C883 C 0.48596 0.27700 0.09432
 C884 C 0.48321 0.29512 0.08004
 C885 C 0.51636 0.30928 0.09602
 C886 C 0.51258 0.20623 0.11834
 C887 C 0.51442 0.18748 0.10457
 C888 C 0.51046 0.20861 0.06870
 C889 C 0.50870 0.22699 0.08315
 N890 N 0.50936 0.22545 0.10753
 H891 H 0.53208 0.28939 0.12193
 H892 H 0.47411 0.26437 0.09391
 H893 H 0.46920 0.29648 0.06862
 H894 H 0.52836 0.32178 0.09718
 H895 H 0.51334 0.20546 0.13772
 H896 H 0.51658 0.17222 0.11338
 H897 H 0.50957 0.20994 0.04934
 H898 H 0.50664 0.24241 0.07481
 C899 C 0.56625 0.25348 0.17759
 C900 C 0.44320 0.24534 0.17341
 C901 C 0.51315 0.18865 0.07953
 C902 C 0.49859 0.31139 0.08085
 C903 C -0.02707 0.76627 0.66144
 H904 H -0.01710 0.78044 0.66186
 C905 C -0.04476 0.76535 0.67509
 H906 H -0.04911 0.77881 0.68654
 C907 C -0.03301 0.73132 0.64491
 H908 H -0.02865 0.71827 0.63303
 C909 C -0.05267 0.72963 0.65961
 H910 H -0.06235 0.71526 0.65830
 N911 N -0.02110 0.74843 0.64623
 C912 C 0.04852 0.75316 0.63808
 H913 H 0.05005 0.75270 0.61872
 C914 C 0.06688 0.75453 0.65244
 H915 H 0.08260 0.75517 0.64412
 C916 C 0.02625 0.75270 0.67263
 H917 H 0.01044 0.75168 0.68049
 C918 C 0.04420 0.75405 0.68764
 H919 H 0.04211 0.75427 0.70696
 Zn920 Zn 0.00440 0.75079 0.62766
 N921 N 0.02867 0.75259 0.64830
 C922 C 0.01685 0.79169 0.61010
 N923 N 0.00190 0.77586 0.60870
 C924 C -0.01557 0.77774 0.59414
 C925 C -0.01826 0.79586 0.57986
 C926 C 0.01477 0.81007 0.59612
 C927 C 0.01147 0.70706 0.61850
 C928 C 0.01362 0.68831 0.60480
 C929 C 0.00942 0.70927 0.56885
 C930 C 0.00734 0.72767 0.58322
 N931 N 0.00801 0.72620 0.60761
 H932 H 0.03034 0.79021 0.62214
 H933 H -0.02739 0.76508 0.59363
 H934 H -0.03219 0.79721 0.56832
 H935 H 0.02673 0.82259 0.59739
 H936 H 0.01224 0.70637 0.63788
 H937 H 0.01602 0.67310 0.61367
 H938 H 0.00855 0.71053 0.54948
 H939 H 0.00509 0.74303 0.57482
 C940 C 0.06469 0.75508 0.67745
 C941 C -0.05827 0.74592 0.67421
 C942 C 0.01241 0.68939 0.57976
 C943 C -0.00290 0.81215 0.58080
 C944 C 0.52419 0.76280 0.33887
 H945 H 0.51370 0.77665 0.33887
 C946 C 0.54291 0.76274 0.32501
 H947 H 0.54689 0.77660 0.31433
 C948 C 0.53205 0.72794 0.35310
 H949 H 0.52794 0.71453 0.36430
 C950 C 0.55094 0.72724 0.33951
 H951 H 0.56126 0.71324 0.34023
 N952 N 0.51900 0.74548 0.35236
 C953 C 0.44932 0.74849 0.36006
 H954 H 0.44783 0.74772 0.37939
 C955 C 0.43093 0.74964 0.34579
 H956 H 0.41521 0.74980 0.35415
 C957 C 0.47157 0.74904 0.32549
 H958 H 0.48741 0.74852 0.31759
 C959 C 0.45357 0.75021 0.31054
 H960 H 0.45561 0.75076 0.29124
 Zn961 Zn 0.49324 0.74708 0.37062
 N962 N 0.46916 0.74852 0.34980
 C963 C 0.47952 0.78774 0.38861
 N964 N 0.49477 0.77212 0.39019
 C965 C 0.51186 0.77427 0.40525
 C966 C 0.51388 0.79250 0.41985
 C967 C 0.48093 0.80621 0.40288
 C968 C 0.48736 0.70313 0.37889
 C969 C 0.48469 0.68452 0.39233
 C970 C 0.48656 0.70596 0.42860
 C971 C 0.48919 0.72419 0.41449
 N972 N 0.48987 0.72244 0.39009
 H973 H 0.46635 0.78606 0.37615
 H974 H 0.52393 0.76177 0.40589
 H975 H 0.52755 0.79410 0.43175
 H976 H 0.46877 0.81859 0.40143
 H977 H 0.48758 0.70221 0.35948
 H978 H 0.48305 0.66919 0.38325
 H979 H 0.48634 0.70747 0.44800
 H980 H 0.49064 0.73968 0.42310
 C981 C 0.43307 0.75062 0.32081
 C982 C 0.55639 0.74477 0.32527
 C983 C 0.48439 0.68593 0.41742
 C984 C 0.49823 0.80859 0.41868
 B985 B -0.01503 0.01618 1.01564
 B986 B -0.02475 0.01120 0.98803
 B987 B -0.00562 0.02983 0.99186
 B988 B 0.01149 0.02143 1.01338
 B989 B 0.00275 -0.00298 1.02269
 B990 B -0.01990 -0.00932 1.00688
 B991 B 0.01327 -0.00618 0.97503
 B992 B 0.02298 -0.00117 1.00262
 B993 B 0.00385 -0.01981 0.99878
 B994 B -0.01328 -0.01141 0.97725
 B995 B -0.00451 0.01297 0.96794
 B996 B 0.01813 0.01934 0.98376
 B997 B 0.48512 0.50981 0.51435
 B998 B 0.47643 0.50523 0.48610
 B999 B 0.49573 0.52354 0.49140
 B1000 B 0.51183 0.51456 0.51349
 B1001 B 0.50229 0.49025 0.52204
 B1002 B 0.48021 0.48445 0.50503
 B1003 B 0.51450 0.48725 0.47485
 B1004 B 0.52329 0.49177 0.50297
 B1005 B 0.50397 0.47359 0.49796
 B1006 B 0.48782 0.48258 0.47569
 B1007 B 0.49747 0.50697 0.46721
 B1008 B 0.51961 0.51245 0.48426
 B1009 B 0.51136 0.98660 0.51579
 B1010 B 0.52124 0.99106 0.48823
 B1011 B 0.50173 0.97286 0.49194
 B1012 B 0.48474 0.98184 0.51349
 B1013 B 0.49394 1.00618 0.52295
 B1014 B 0.51675 1.01191 0.50719
 B1015 B 0.48359 1.00900 0.47528
 B1016 B 0.47372 1.00454 0.50285
 B1017 B 0.49322 1.02274 0.49912
 B1018 B 0.51022 1.01376 0.47756
 B1019 B 0.50101 0.98942 0.46811
 B1020 B 0.47821 0.98370 0.48387
 B1021 B 0.01183 0.49244 1.01765
 B1022 B 0.02169 0.49751 0.99023
 B1023 B 0.00234 0.47906 0.99346
 B1024 B -0.01473 0.48749 1.01521
 B1025 B -0.00575 0.51174 1.02525
 B1026 B 0.01701 0.51797 1.00966
 B1027 B -0.01613 0.51535 0.97765
 B1028 B -0.02593 0.51029 1.00512
 B1029 B -0.00661 0.52875 1.00180
 B1030 B 0.01048 0.52031 0.98007
 B1031 B 0.00150 0.49607 0.97005
 B1032 B -0.02127 0.48985 0.98565
 B1033 B 0.02069 0.51096 0.48245
 B1034 B 0.03154 0.50652 0.50957
 B1035 B 0.01205 0.52499 0.50664
 B1036 B -0.00579 0.51613 0.48598
 B1037 B 0.00288 0.49160 0.47628
 B1038 B 0.02622 0.48564 0.49099
 B1039 B -0.00572 0.48920 0.52441
 B1040 B -0.01657 0.49366 0.49732
 B1041 B 0.00294 0.47518 0.50024
 B1042 B 0.02077 0.48404 0.52092
 B1043 B 0.01208 0.50856 0.53062
 B1044 B -0.01123 0.51454 0.51590
 B1045 B 0.51914 0.01061 -0.01863
 B1046 B 0.52941 0.00586 0.00870
 B1047 B 0.51009 0.02445 0.00552
 B1048 B 0.49261 0.01589 -0.01568
 B1049 B 0.50135 -0.00861 -0.02546
 B1050 B 0.52436 -0.01482 -0.01025
 B1051 B 0.49180 -0.01142 0.02242
 B1052 B 0.48151 -0.00664 -0.00487
 B1053 B 0.50086 -0.02525 -0.00170
 B1054 B 0.51831 -0.01667 0.01951
 B1055 B 0.50955 0.00779 0.02929
 B1056 B 0.48658 0.01404 0.01408
 B1057 B 0.48119 0.48747 -0.01764
 B1058 B 0.47129 0.49237 0.00994
 B1059 B 0.49055 0.47373 0.00612
 B1060 B 0.50776 0.48220 -0.01525
 B1061 B 0.49890 0.50664 -0.02450
 B1062 B 0.47611 0.51296 -0.00879
 B1063 B 0.50911 0.50966 0.02325
 B1064 B 0.51901 0.50477 -0.00431
 B1065 B 0.49974 0.52339 -0.00051
 B1066 B 0.48256 0.51494 0.02089
 B1067 B 0.49141 0.49049 0.03014
 B1068 B 0.51419 0.48418 0.01442
 B1069 B -0.01896 0.98840 0.48277
 B1070 B -0.02913 0.99334 0.51022
 B1071 B -0.00966 0.97485 0.50670
 B1072 B 0.00762 0.98337 0.48543
 B1073 B -0.00137 1.00769 0.47596
 B1074 B -0.02433 1.01389 0.49141
 B1075 B 0.00844 1.01102 0.52378
 B1076 B 0.01860 1.00608 0.49635
 B1077 B -0.00086 1.02456 0.49985
 B1078 B -0.01813 1.01606 0.52115
 B1079 B -0.00914 0.99173 0.53062
 B1080 B 0.01381 0.98554 0.51515
 B1081 B 0.76297 0.23541 0.24000
 B1082 B 0.75810 0.22512 0.26721
 B1083 B 0.77708 0.24396 0.26404
 B1084 B 0.76873 0.26170 0.24328
 B1085 B 0.74403 0.25365 0.23375
 B1086 B 0.73741 0.23080 0.24868
 B1087 B 0.74154 0.26306 0.28183
 B1088 B 0.74643 0.27330 0.25459
 B1089 B 0.72742 0.25450 0.25775
 B1090 B 0.73575 0.23674 0.27857
 B1091 B 0.76050 0.24477 0.28809
 B1092 B 0.76711 0.26762 0.27314
 B1093 B 0.74259 0.76004 0.73228
 B1094 B 0.74750 0.77027 0.75971
 B1095 B 0.72925 0.75072 0.75637
 B1096 B 0.73794 0.73351 0.73484
 B1097 B 0.76215 0.74262 0.72502
 B1098 B 0.76808 0.76560 0.74054
 B1099 B 0.76584 0.73294 0.77273
 B1100 B 0.76091 0.72272 0.74528
 B1101 B 0.77917 0.74228 0.74866
 B1102 B 0.77047 0.75950 0.77019
 B1103 B 0.74628 0.75037 0.77999
 B1104 B 0.74034 0.72739 0.76448
 B1105 B 0.26065 0.27120 0.76606
 B1106 B 0.25604 0.28120 0.73864
 B1107 B 0.27467 0.26195 0.74219
 B1108 B 0.26594 0.24473 0.76328
 B1109 B 0.24135 0.25354 0.77261
 B1110 B 0.23520 0.27633 0.75724
 B1111 B 0.23883 0.24350 0.72470
 B1112 B 0.24344 0.23354 0.75213
 B1113 B 0.22481 0.25278 0.74857
 B1114 B 0.23352 0.27000 0.72745
 B1115 B 0.25813 0.26118 0.71813
 B1116 B 0.26429 0.23841 0.73352
 B1117 B 0.23270 0.73131 0.26526
 B1118 B 0.23891 0.71960 0.23887
 B1119 B 0.21967 0.73855 0.24010
 B1120 B 0.22691 0.75749 0.26035
 B1121 B 0.25113 0.74991 0.27168
 B1122 B 0.25866 0.72630 0.25827
 B1123 B 0.25604 0.75667 0.22351
 B1124 B 0.24954 0.76843 0.24983
 B1125 B 0.26892 0.74951 0.24870
 B1126 B 0.26176 0.73064 0.22831
 B1127 B 0.23738 0.73798 0.21709
 B1128 B 0.22998 0.76164 0.23026
 B1129 B 0.26160 0.73975 0.73931
 B1130 B 0.25682 0.72949 0.76656
 B1131 B 0.27566 0.74844 0.76333
 B1132 B 0.26721 0.76608 0.74252
 B1133 B 0.24254 0.75785 0.73302
 B1134 B 0.23609 0.73498 0.74801
 B1135 B 0.24000 0.76733 0.78107
 B1136 B 0.24482 0.77756 0.75382
 B1137 B 0.22594 0.75863 0.75703
 B1138 B 0.23440 0.74097 0.77789
 B1139 B 0.25908 0.74920 0.78738
 B1140 B 0.26555 0.77206 0.77238
 B1141 B 0.24237 0.26039 0.23185
 B1142 B 0.24757 0.27025 0.25938
 B1143 B 0.22919 0.25083 0.25594
 B1144 B 0.23760 0.23386 0.23404
 B1145 B 0.26178 0.24297 0.22411
 B1146 B 0.26796 0.26572 0.23992
 B1147 B 0.26582 0.23266 0.27160
 B1148 B 0.26061 0.22282 0.24405
 B1149 B 0.27900 0.24224 0.24756
 B1150 B 0.27056 0.25923 0.26945
 B1151 B 0.24641 0.25010 0.27936
 B1152 B 0.24022 0.22735 0.26355
 B1153 B 0.75765 0.76716 0.26575
 B1154 B 0.75222 0.77588 0.23782
 B1155 B 0.77078 0.75652 0.24204
 B1156 B 0.76246 0.74047 0.26436
 B1157 B 0.73833 0.75010 0.27416
 B1158 B 0.73196 0.77217 0.25771
 B1159 B 0.73402 0.73797 0.22700
 B1160 B 0.73936 0.72917 0.25481
 B1161 B 0.72095 0.74852 0.25086
 B1162 B 0.72926 0.76461 0.22836
 B1163 B 0.75349 0.75491 0.21863
 B1164 B 0.75954 0.73277 0.23518
 B1165 B 0.73649 0.22957 0.76597
 B1166 B 0.74302 0.21759 0.73983
 B1167 B 0.72380 0.23658 0.74052
 B1168 B 0.73079 0.25569 0.76067
 B1169 B 0.75487 0.24819 0.77248
 B1170 B 0.76254 0.22446 0.75946
 B1171 B 0.76039 0.25452 0.72430
 B1172 B 0.75357 0.26652 0.75040
 B1173 B 0.77294 0.24757 0.74977
 B1174 B 0.76602 0.22851 0.72949
 B1175 B 0.74179 0.23577 0.71781
 B1176 B 0.73426 0.25957 0.73058
 C1177 C 0.43695 1.01617 0.42968
 C1178 C 0.44627 1.02894 0.41212
 C1179 C 0.46688 1.03729 0.41572
 C1180 C 0.47840 1.03218 0.43655
 C1181 C 0.40238 1.02300 0.33257
 C1182 C 0.44843 1.01085 0.45020
 C1183 C 0.43537 1.03083 0.38949
 C1184 C 0.42543 1.03018 0.37095
 C1185 C 0.41317 1.02716 0.34993
 C1186 C 0.46944 1.01854 0.45389
 H1187 H 0.42112 1.00938 0.42697
 H1188 H 0.47437 1.04697 0.40203
 H1189 H 0.49465 1.03804 0.43840
 H1190 H 0.44101 0.99992 0.46267
 C1191 C -0.06285 0.52226 0.93217
 C1192 C -0.05338 0.53445 0.91419
 C1193 C -0.03274 0.54280 0.91762
 C1194 C -0.02132 0.53817 0.93866
 C1195 C -0.09623 0.52526 0.83427
 C1196 C -0.05145 0.51737 0.95287
 C1197 C -0.06405 0.53548 0.89134
 C1198 C -0.07376 0.53405 0.87270
 C1199 C -0.08572 0.53013 0.85163
 C1200 C -0.03037 0.52497 0.95638
 H1201 H -0.07868 0.51544 0.92959
 H1202 H -0.02513 0.55202 0.90362
 H1203 H -0.00501 0.54392 0.94035
 H1204 H -0.05892 0.50667 0.96553
 C1205 C 0.03060 -0.03510 0.91549
 C1206 C 0.05093 -0.02619 0.91172
 C1207 C 0.05994 -0.01284 0.92919
 C1208 C 0.04840 -0.00750 0.94979
 C1209 C 0.09442 -0.02176 0.83167
 C1210 C 0.01902 -0.02997 0.93639
 C1211 C 0.06182 -0.02827 0.88904
 C1212 C 0.07166 -0.02788 0.87043
 C1213 C 0.08377 -0.02533 0.84925
 C1214 C 0.02763 -0.01572 0.95362
 H1215 H 0.02336 -0.04528 0.90189
 H1216 H 0.07556 -0.00566 0.92636
 H1217 H 0.05555 0.00382 0.96222
 H1218 H 0.00298 -0.03630 0.93840
 C1219 C 0.53275 0.45832 0.41574
 C1220 C 0.55319 0.46711 0.41243
 C1221 C 0.56207 0.48023 0.43022
 C1222 C 0.55024 0.48553 0.45065
 C1223 C 0.59606 0.47186 0.33195
 C1224 C 0.52089 0.46344 0.43642
 C1225 C 0.56419 0.46524 0.38981
 C1226 C 0.57391 0.46570 0.37112
 C1227 C 0.58572 0.46827 0.34974
 C1228 C 0.52930 0.47754 0.45392
 H1229 H 0.52562 0.44833 0.40191
 H1230 H 0.57778 0.48731 0.42774
 H1231 H 0.55727 0.49669 0.46335
 H1232 H 0.50475 0.45725 0.43800
 C1233 C 0.52655 0.53913 0.08246
 C1234 C 0.54700 0.53031 0.08613
 C1235 C 0.55586 0.51652 0.06891
 C1236 C 0.54416 0.51082 0.04860
 C1237 C 0.59355 0.52791 0.16398
 C1238 C 0.51480 0.53362 0.06182
 C1239 C 0.55838 0.53314 0.10840
 C1240 C 0.56888 0.53332 0.12657
 C1241 C 0.58195 0.53128 0.14710
 C1242 C 0.52336 0.51912 0.04475
 H1243 H 0.51941 0.54963 0.09587
 H1244 H 0.57156 0.50939 0.07168
 H1245 H 0.55129 0.49930 0.03631
 H1246 H 0.49872 0.53997 0.05985
 C1247 C 0.02547 1.04144 0.58255
 C1248 C 0.04599 1.03288 0.58642
 C1249 C 0.05496 1.01880 0.56956
 C1250 C 0.04331 1.01264 0.54938
 C1251 C 0.09293 1.03230 0.66393
 C1252 C 0.01377 1.03545 0.56205
 C1253 C 0.05740 1.03629 0.60856
 C1254 C 0.06797 1.03694 0.62665
 C1255 C 0.08119 1.03536 0.64711
 C1256 C 0.02248 1.02074 0.54529
 H1257 H 0.01825 1.05214 0.59571
 H1258 H 0.07071 1.01186 0.57249
 H1259 H 0.05056 1.00097 0.53735
 H1260 H -0.00235 1.04163 0.55991
 C1261 C -0.05100 0.48238 0.57180
 C1262 C -0.04175 0.46829 0.58814
 C1263 C -0.02147 0.45941 0.58341
 C1264 C -0.01028 0.46512 0.56257
 C1265 C -0.08689 0.46865 0.66712
 C1266 C -0.03985 0.48825 0.55127
 C1267 C -0.05264 0.46505 0.61057
 C1268 C -0.06278 0.46445 0.62897
 C1269 C -0.07552 0.46591 0.64985
 C1270 C -0.01925 0.47985 0.54634
 H1271 H -0.06658 0.48953 0.57538
 H1272 H -0.01405 0.44867 0.59615
 H1273 H 0.00568 0.45867 0.55973
 H1274 H -0.04729 0.49990 0.53962
 C1275 C 0.44566 -0.01851 0.06870
 C1276 C 0.45463 -0.03267 0.08516
 C1277 C 0.47498 -0.04154 0.08080
 C1278 C 0.48652 -0.03574 0.06023
 C1279 C 0.40916 -0.03243 0.16394
 C1280 C 0.45715 -0.01255 0.04845
 C1281 C 0.44348 -0.03593 0.10742
 C1282 C 0.43323 -0.03655 0.12574
 C1283 C 0.42047 -0.03514 0.14661
 C1284 C 0.47783 -0.02092 0.04391
 H1285 H 0.43003 -0.01136 0.07202
 H1286 H 0.48220 -0.05232 0.09364
 H1287 H 0.50253 -0.04216 0.05773
 H1288 H 0.44993 -0.00081 0.03673
 C1289 C 0.41665 0.46201 0.01313
 C1290 C 0.40401 0.47589 0.02699
 C1291 C 0.41287 0.49485 0.03615
 C1292 C 0.43431 0.49996 0.03119
 C1293 C 0.32502 0.44817 0.03087
 C1294 C 0.43792 0.46707 0.00812
 C1295 C 0.38181 0.47060 0.03066
 C1296 C 0.36344 0.46477 0.03219
 C1297 C 0.34243 0.45644 0.03222
 C1298 C 0.44712 0.48617 0.01691
 H1299 H 0.40993 0.44734 0.00582
 H1300 H 0.40317 0.50578 0.04685
 H1301 H 0.44068 0.51484 0.03826
 H1302 H 0.44692 0.45609 -0.00317
 C1303 C -0.08795 0.99542 0.53541
 C1304 C -0.09648 0.97630 0.52627
 C1305 C -0.08349 0.96243 0.51282
 C1306 C -0.06220 0.96766 0.50815
 C1307 C -0.17497 0.94710 0.52859
 C1308 C -0.06647 1.00070 0.53080
 C1309 C -0.11868 0.97076 0.52953
 C1310 C -0.13697 0.96463 0.53068
 C1311 C -0.15781 0.95584 0.53028
 C1312 C -0.05331 0.98693 0.51691
 H1313 H -0.09792 1.00633 0.54581
 H1314 H -0.08994 0.94764 0.50552
 H1315 H -0.05296 0.95669 0.49711
 H1316 H -0.06036 1.01571 0.53782
 C1317 C -0.08311 0.00908 0.96157
 C1318 C -0.09196 0.02815 0.97066
 C1319 C -0.07933 0.04196 0.98448
 C1320 C -0.05812 0.03672 0.98959
 C1321 C -0.17008 0.05801 0.97212
 C1322 C -0.06166 0.00381 0.96660
 C1323 C -0.11421 0.03361 0.96739
 C1324 C -0.13252 0.03987 0.96679
 C1325 C -0.15323 0.04896 0.96856
 C1326 C -0.04889 0.01752 0.98089
 H1327 H -0.09282 -0.00181 0.95096
 H1328 H -0.08606 0.05668 0.99179
 H1329 H -0.04921 0.04764 1.00094
 H1330 H -0.05527 -0.01115 0.95961
 C1331 C 0.41398 0.50651 0.47963
 C1332 C 0.41074 0.52522 0.46650
 C1333 C 0.42840 0.53599 0.45691
 C1334 C 0.44925 0.52884 0.46178
 C1335 C 0.33512 0.56210 0.47189
 C1336 C 0.43480 0.49941 0.48455
 C1337 C 0.38957 0.53447 0.46512
 C1338 C 0.37203 0.54270 0.46566
 C1339 C 0.35187 0.55290 0.46817
 C1340 C 0.45274 0.51135 0.47713
 H1341 H 0.40042 0.49778 0.48677
 H1342 H 0.42610 0.55031 0.44636
 H1343 H 0.46258 0.53752 0.45416
 H1344 H 0.43671 0.48484 0.49469
 C1345 C 0.09086 0.50511 0.53335
 C1346 C 0.09920 0.52404 0.52385
 C1347 C 0.08597 0.53751 0.51048
 C1348 C 0.06462 0.53210 0.50633
 C1349 C 0.17731 0.55447 0.52626
 C1350 C 0.06933 0.49965 0.52923
 C1351 C 0.12138 0.52987 0.52687
 C1352 C 0.13960 0.53628 0.52796
 C1353 C 0.16030 0.54541 0.52767
 C1354 C 0.05590 0.51305 0.51550
 H1355 H 0.10100 0.49452 0.54371
 H1356 H 0.09225 0.55215 0.50293
 H1357 H 0.05518 0.54280 0.49540
 H1358 H 0.06335 0.48482 0.53658
 C1359 C 0.58808 0.00396 0.03422
 C1360 C 0.59672 0.02291 0.02513
 C1361 C 0.58389 0.03654 0.01150
 C1362 C 0.56265 0.03127 0.00664
 C1363 C 0.67473 0.05304 0.02837
 C1364 C 0.56664 -0.00137 0.02940
 C1365 C 0.61885 0.02857 0.02872
 C1366 C 0.63705 0.03491 0.03009
 C1367 C 0.65773 0.04400 0.02991
 C1368 C 0.55363 0.01219 0.01537
 H1369 H 0.59793 -0.00677 0.04476
 H1370 H 0.59044 0.05120 0.00425
 H1371 H 0.55353 0.04208 -0.00448
 H1372 H 0.56042 -0.01622 0.03643
 C1373 C 0.58008 0.99252 0.46303
 C1374 C 0.58859 0.97338 0.47193
 C1375 C 0.57553 0.95961 0.48502
 C1376 C 0.55422 0.96501 0.48967
 C1377 C 0.66716 0.94427 0.47411
 C1378 C 0.55857 0.99795 0.46759
 C1379 C 0.61093 0.96788 0.46925
 C1380 C 0.62930 0.96175 0.46894
 C1381 C 0.65013 0.95297 0.47077
 C1382 C 0.54536 0.98433 0.48123
 H1383 H 0.59012 1.00338 0.45298
 H1384 H 0.58197 0.94484 0.49219
 H1385 H 0.54500 0.95419 0.50059
 H1386 H 0.55248 1.01300 0.46084
 C1387 C 0.07613 0.46641 0.98661
 C1388 C 0.08917 0.48044 0.97385
 C1389 C 0.08062 0.49969 0.96532
 C1390 C 0.05906 0.50496 0.96990
 C1391 C 0.16728 0.45049 0.97649
 C1392 C 0.05481 0.47165 0.99128
 C1393 C 0.11152 0.47500 0.97118
 C1394 C 0.12983 0.46872 0.97097
 C1395 C 0.15049 0.45959 0.97297
 C1396 C 0.04588 0.49105 0.98319
 H1397 H 0.08261 0.45155 0.99350
 H1398 H 0.09065 0.51076 0.95553
 H1399 H 0.05291 0.52009 0.96343
 H1400 H 0.04561 0.46058 1.00193
 C1401 C -0.01194 0.42175 0.46770
 C1402 C -0.00128 0.40647 0.48149
 C1403 C 0.00929 0.41280 0.50258
 C1404 C 0.00971 0.43448 0.50940
 C1405 C 0.00243 0.33019 0.44094
 C1406 C -0.01144 0.44332 0.47436
 C1407 C -0.00002 0.38472 0.47267
 C1408 C 0.00093 0.36704 0.46377
 C1409 C 0.00186 0.34693 0.45194
 C1410 C -0.00041 0.45011 0.49518
 H1411 H -0.02008 0.41708 0.45128
 H1412 H 0.01775 0.40111 0.51332
 H1413 H 0.01872 0.43901 0.52524
 H1414 H -0.01924 0.45474 0.46270
 C1415 C 0.48654 -0.07843 -0.03508
 C1416 C 0.49679 -0.09383 -0.02106
 C1417 C 0.50687 -0.08765 0.00037
 C1418 C 0.50725 -0.06602 0.00734
 C1419 C 0.50104 -0.17014 -0.06147
 C1420 C 0.48699 -0.05689 -0.02826
 C1421 C 0.49813 -0.11556 -0.02993
 C1422 C 0.49921 -0.13323 -0.03880
 C1423 C 0.50032 -0.15337 -0.05055
 C1424 C 0.49754 -0.05027 -0.00707
 H1425 H 0.47878 -0.08298 -0.05176
 H1426 H 0.51501 -0.09944 0.01129
 H1427 H 0.51589 -0.06162 0.02347
 H1428 H 0.47951 -0.04537 -0.04006
 C1429 C -0.00153 -0.08226 0.99620
 C1430 C 0.00803 -0.08814 1.01794
 C1431 C 0.01791 -0.07256 1.03225
 C1432 C 0.01751 -0.05112 1.02547
 C1433 C 0.00139 -0.16324 1.05913
 C1434 C -0.00183 -0.06072 0.98924
 C1435 C 0.00634 -0.10965 1.02691
 C1436 C 0.00482 -0.12708 1.03596
 C1437 C 0.00298 -0.14684 1.04798
 C1438 C 0.00738 -0.04478 1.00402
 H1439 H -0.00938 -0.09418 0.98503
 H1440 H 0.02527 -0.07687 1.04917
 H1441 H 0.02463 -0.03946 1.03754
 H1442 H -0.01006 -0.05652 0.97284
 C1443 C 0.51688 0.42052 0.53131
 C1444 C 0.50746 0.40506 0.51648
 C1445 C 0.49828 0.41115 0.49459
 C1446 C 0.49806 0.43278 0.48794
 C1447 C 0.50260 0.32964 0.55707
 C1448 C 0.51654 0.44201 0.52484
 C1449 C 0.50600 0.38339 0.52502
 C1450 C 0.50485 0.36587 0.53390
 C1451 C 0.50359 0.34605 0.54587
 C1452 C 0.50697 0.44857 0.50315
 H1453 H 0.52392 0.41604 0.54835
 H1454 H 0.49077 0.39931 0.48303
 H1455 H 0.49019 0.43715 0.47137
 H1456 H 0.52337 0.45355 0.53727
 C1457 C 0.47950 1.07622 0.53240
 C1458 C 0.48880 1.09154 0.51757
 C1459 C 0.49820 1.08517 0.49577
 C1460 C 0.49879 1.06343 0.48919
 C1461 C 0.49261 1.16802 0.55732
 C1462 C 0.48019 1.05461 0.52599
 C1463 C 0.48987 1.11339 0.52598
 C1464 C 0.49076 1.13114 0.53467
 C1465 C 0.49178 1.15128 0.54636
 C1466 C 0.49002 1.04781 0.50439
 H1467 H 0.47227 1.08092 0.54937
 H1468 H 0.50560 1.09691 0.48421
 H1469 H 0.50679 1.05888 0.47266
 H1470 H 0.47336 1.04320 0.53835
 C1471 C -0.00335 0.59137 0.99894
 C1472 C -0.01234 0.59736 1.02109
 C1473 C -0.02068 0.58167 1.03615
 C1474 C -0.01952 0.56011 1.02956
 C1475 C -0.01082 0.67439 1.06001
 C1476 C -0.00227 0.56968 0.99219
 C1477 C -0.01197 0.61928 1.02947
 C1478 C -0.01164 0.63712 1.03800
 C1479 C -0.01122 0.65746 1.04939
 C1480 C -0.01012 0.55371 1.00758
 H1481 H 0.00328 0.60339 0.98717
 H1482 H -0.02762 0.58607 1.05337
 H1483 H -0.02572 0.54843 1.04202
 H1484 H 0.00531 0.56545 0.97531
 C1485 C 0.49542 0.58601 0.00289
 C1486 C 0.50524 0.59188 -0.01871
 C1487 C 0.51454 0.57616 -0.03341
 C1488 C 0.51347 0.55465 -0.02708
 C1489 C 0.50381 0.66763 -0.05891
 C1490 C 0.49445 0.56437 0.00940
 C1491 C 0.50468 0.61365 -0.02709
 C1492 C 0.50432 0.63126 -0.03583
 C1493 C 0.50400 0.65118 -0.04770
 C1494 C 0.50328 0.54835 -0.00566
 H1495 H 0.48800 0.59806 0.01434
 H1496 H 0.52209 0.58046 -0.05023
 H1497 H 0.52032 0.54294 -0.03936
 H1498 H 0.48614 0.56021 0.02575
 C1499 C 0.01405 1.07732 0.46700
 C1500 C 0.00473 1.09305 0.48166
 C1501 C -0.00530 1.08718 0.50314
 C1502 C -0.00638 1.06554 0.50960
 C1503 C 0.00426 1.16894 0.44182
 C1504 C 0.01288 1.05581 0.47328
 C1505 C 0.00440 1.11485 0.47339
 C1506 C 0.00426 1.13250 0.46474
 C1507 C 0.00422 1.15246 0.45297
 C1508 C 0.00256 1.04951 0.49462
 H1509 H 0.02175 1.08163 0.45027
 H1510 H -0.01275 1.09924 0.51455
 H1511 H -0.01483 1.06138 0.52587
 H1512 H 0.01981 1.04410 0.46106
 C1513 C 0.79410 0.71771 0.83288
 C1514 C 0.78580 0.69719 0.83672
 C1515 C 0.77340 0.68733 0.81896
 C1516 C 0.76825 0.69824 0.79807
 C1517 C 0.77754 0.65539 0.91686
 C1518 C 0.78919 0.72864 0.81167
 C1519 C 0.78717 0.68701 0.85973
 C1520 C 0.78601 0.67762 0.87849
 C1521 C 0.78232 0.66588 0.89961
 C1522 C 0.77574 0.71921 0.79420
 H1523 H 0.80351 0.72561 0.84669
 H1524 H 0.76666 0.67156 0.82184
 H1525 H 0.75745 0.69048 0.78554
 H1526 H 0.79493 0.74486 0.80965
 C1527 C 0.29466 0.21635 0.33106
 C1528 C 0.28635 0.19579 0.33458
 C1529 C 0.27368 0.18628 0.31683
 C1530 C 0.26830 0.19756 0.29627
 C1531 C 0.27897 0.15317 0.41428
 C1532 C 0.28951 0.22767 0.31017
 C1533 C 0.28798 0.18523 0.35735
 C1534 C 0.28703 0.17560 0.37596
 C1535 C 0.28357 0.16368 0.39700
 C1536 C 0.27584 0.21857 0.29271
 H1537 H 0.30426 0.22400 0.34488
 H1538 H 0.26691 0.17049 0.31948
 H1539 H 0.25731 0.19006 0.28375
 H1540 H 0.29527 0.24391 0.30842
 C1541 C 0.71390 0.27980 0.34235
 C1542 C 0.72345 0.29975 0.34677
 C1543 C 0.73681 0.30874 0.32948
 C1544 C 0.74150 0.29754 0.30841
 C1545 C 0.72824 0.34372 0.42704
 C1546 C 0.71840 0.26857 0.32095
 C1547 C 0.72170 0.31046 0.36970
 C1548 C 0.72225 0.32033 0.38841
 C1549 C 0.72482 0.33268 0.40958
 C1550 C 0.73264 0.27713 0.30389
 H1551 H 0.70365 0.27260 0.35574
 H1552 H 0.74442 0.32408 0.33276
 H1553 H 0.75281 0.30468 0.29611
 H1554 H 0.71153 0.25282 0.31836
 C1555 C 0.23467 0.81290 0.82878
 C1556 C 0.22118 0.80382 0.84589
 C1557 C 0.21178 0.78383 0.84131
 C1558 C 0.21655 0.77265 0.81997
 C1559 C 0.22494 0.84729 0.92654
 C1560 C 0.23962 0.80176 0.80774
 C1561 C 0.21914 0.81445 0.86883
 C1562 C 0.21943 0.82420 0.88761
 C1563 C 0.22171 0.83639 0.90893
 C1564 C 0.23091 0.78132 0.80309
 H1565 H 0.24218 0.82828 0.83218
 H1566 H 0.20144 0.77656 0.85457
 H1567 H 0.20979 0.75687 0.81728
 H1568 H 0.25099 0.80897 0.79556
 C1569 C 0.28762 0.79963 0.18691
 C1570 C 0.27916 0.79647 0.16388
 C1571 C 0.26563 0.77910 0.15939
 C1572 C 0.25947 0.76571 0.17803
 C1573 C 0.27765 0.85232 0.09445
 C1574 C 0.28163 0.78607 0.20564
 C1575 C 0.28194 0.81216 0.14539
 C1576 C 0.28228 0.82513 0.12950
 C1577 C 0.28061 0.83997 0.11064
 C1578 C 0.26668 0.76948 0.20169
 H1579 H 0.29810 0.81308 0.19062
 H1580 H 0.25897 0.77649 0.14162
 H1581 H 0.24825 0.75302 0.17388
 H1582 H 0.28786 0.78936 0.22340
 C1583 C 0.79180 0.29751 0.68759
 C1584 C 0.78358 0.29404 0.66450
 C1585 C 0.77044 0.27637 0.66002
 C1586 C 0.76434 0.26303 0.67874
 C1587 C 0.78098 0.34966 0.59488
 C1588 C 0.78589 0.28398 0.70639
 C1589 C 0.78611 0.30971 0.64595
 C1590 C 0.78620 0.32263 0.63000
 C1591 C 0.78421 0.33740 0.61110
 C1592 C 0.77122 0.26715 0.70245
 H1593 H 0.80200 0.31117 0.69129
 H1594 H 0.76397 0.27351 0.64222
 H1595 H 0.75338 0.25012 0.67458
 H1596 H 0.79190 0.28751 0.72419
 C1597 C 0.23261 0.19702 0.67828
 C1598 C 0.21892 0.20588 0.66119
 C1599 C 0.20992 0.22621 0.66522
 C1600 C 0.21518 0.23786 0.68606
 C1601 C 0.22092 0.16020 0.58204
 C1602 C 0.23804 0.20862 0.69881
 C1603 C 0.21629 0.19461 0.63873
 C1604 C 0.21612 0.18429 0.62034
 C1605 C 0.21796 0.17150 0.59941
 C1606 C 0.22960 0.22931 0.70299
 H1607 H 0.23985 0.18140 0.67526
 H1608 H 0.19947 0.23333 0.65193
 H1609 H 0.20868 0.25385 0.68833
 H1610 H 0.24948 0.20149 0.71100
 C1611 C 0.72615 0.69027 0.18251
 C1612 C 0.71301 0.69923 0.16494
 C1613 C 0.70446 0.71981 0.16841
 C1614 C 0.70980 0.73171 0.18902
 C1615 C 0.71706 0.65575 0.08432
 C1616 C 0.73169 0.70213 0.20285
 C1617 C 0.71094 0.68810 0.14233
 C1618 C 0.71124 0.67823 0.12363
 C1619 C 0.71363 0.66624 0.10220
 C1620 C 0.72390 0.72319 0.20630
 H1621 H 0.73308 0.67446 0.17990
 H1622 H 0.69447 0.72701 0.15473
 H1623 H 0.70382 0.74794 0.19068
 H1624 H 0.74293 0.69503 0.21528
 C1625 C 0.20943 0.66450 0.23663
 C1626 C 0.22415 0.65148 0.22438
 C1627 C 0.24349 0.66014 0.21622
 C1628 C 0.24812 0.68178 0.22050
 C1629 C 0.19767 0.57216 0.22079
 C1630 C 0.21401 0.68600 0.24096
 C1631 C 0.21925 0.62916 0.22117
 C1632 C 0.21375 0.61071 0.21978
 C1633 C 0.20576 0.58962 0.21965
 C1634 C 0.23346 0.69502 0.23308
 H1635 H 0.19446 0.65793 0.24319
 H1636 H 0.25505 0.65014 0.20677
 H1637 H 0.26328 0.68800 0.21416
 H1638 H 0.20239 0.69533 0.25103
 C1639 C 0.74727 0.15790 0.71770
 C1640 C 0.72781 0.14946 0.72582
 C1641 C 0.71319 0.16266 0.73795
 C1642 C 0.71794 0.18414 0.74217
 C1643 C 0.69952 0.07077 0.72222
 C1644 C 0.75208 0.17954 0.72189
 C1645 C 0.72258 0.12720 0.72260
 C1646 C 0.71667 0.10887 0.72122
 C1647 C 0.70811 0.08799 0.72110
 C1648 C 0.73749 0.19297 0.73430
 H1649 H 0.75875 0.14777 0.70833
 H1650 H 0.69812 0.15628 0.74445
 H1651 H 0.70634 0.19361 0.75208
 H1652 H 0.76731 0.18561 0.71556
 C1653 C 0.78766 0.16981 0.26784
 C1654 C 0.77342 0.15696 0.28058
 C1655 C 0.75454 0.16591 0.29004
 C1656 C 0.74985 0.18766 0.28640
 C1657 C 0.80074 0.07796 0.27553
 C1658 C 0.78300 0.19133 0.26411
 C1659 C 0.77822 0.13446 0.28241
 C1660 C 0.78388 0.11596 0.28204
 C1661 C 0.79224 0.09502 0.27947
 C1662 C 0.76397 0.20066 0.27315
 H1663 H 0.80224 0.16303 0.26024
 H1664 H 0.74331 0.15606 0.29984
 H1665 H 0.73499 0.19410 0.29358
 H1666 H 0.79418 0.20040 0.25343
 C1667 C 0.28694 0.67453 0.76782
 C1668 C 0.27307 0.66180 0.78119
 C1669 C 0.25417 0.67068 0.79069
 C1670 C 0.24913 0.69226 0.78654
 C1671 C 0.30201 0.58346 0.77756
 C1672 C 0.28193 0.69590 0.76359
 C1673 C 0.27829 0.63946 0.78364
 C1674 C 0.28433 0.62111 0.78367
 C1675 C 0.29316 0.60035 0.78139
 C1676 C 0.26291 0.70516 0.77272
 H1677 H 0.30153 0.66781 0.76020
 H1678 H 0.24323 0.66090 0.80097
 H1679 H 0.23431 0.69867 0.79384
 H1680 H 0.29289 0.70490 0.75256
 C1681 C 0.28670 0.33565 0.73668
 C1682 C 0.27302 0.34842 0.72302
 C1683 C 0.25409 0.33972 0.71359
 C1684 C 0.24882 0.31830 0.71809
 C1685 C 0.30188 0.42692 0.72049
 C1686 C 0.28148 0.31442 0.74123
 C1687 C 0.27856 0.37056 0.71978
 C1688 C 0.28466 0.38882 0.71862
 C1689 C 0.29332 0.40967 0.71893
 C1690 C 0.26241 0.30535 0.73215
 H1691 H 0.30135 0.34222 0.74419
 H1692 H 0.24332 0.34952 0.70303
 H1693 H 0.23397 0.31205 0.71082
 H1694 H 0.29232 0.30534 0.75238
 C1695 C 0.75115 0.83804 0.23028
 C1696 C 0.77024 0.84169 0.21780
 C1697 C 0.78217 0.82429 0.20896
 C1698 C 0.77575 0.80335 0.21397
 C1699 C 0.80377 0.91870 0.21965
 C1700 C 0.74477 0.81713 0.23533
 C1701 C 0.77852 0.86312 0.21604
 C1702 C 0.78594 0.88093 0.21597
 C1703 C 0.79525 0.90149 0.21735
 C1704 C 0.75782 0.79953 0.22873
 H1705 H 0.74153 0.85138 0.23682
 H1706 H 0.79676 0.82689 0.19880
 H1707 H 0.78519 0.79026 0.20668
 H1708 H 0.72996 0.81491 0.24515
 C1709 C 0.71568 0.82424 0.76309
 C1710 C 0.72949 0.83743 0.77620
 C1711 C 0.74886 0.82915 0.78497
 C1712 C 0.75443 0.80771 0.78030
 C1713 C 0.69888 0.91514 0.77394
 C1714 C 0.72122 0.80302 0.75832
 C1715 C 0.72376 0.85965 0.77903
 C1716 C 0.71731 0.87787 0.77937
 C1717 C 0.70805 0.89843 0.77746
 C1718 C 0.74074 0.79437 0.76667
 H1719 H 0.70074 0.83051 0.75601
 H1720 H 0.75976 0.83930 0.79504
 H1721 H 0.76963 0.80179 0.78699
 H1722 H 0.71031 0.79367 0.74744
 C1723 C 0.21603 0.32432 0.26371
 C1724 C 0.23008 0.33739 0.27664
 C1725 C 0.24951 0.32898 0.28506
 C1726 C 0.25492 0.30753 0.28019
 C1727 C 0.19964 0.41513 0.27460
 C1728 C 0.22140 0.30310 0.25874
 C1729 C 0.22451 0.35964 0.27958
 C1730 C 0.21812 0.37788 0.27996
 C1731 C 0.20885 0.39843 0.27809
 C1732 C 0.24098 0.29431 0.26672
 H1733 H 0.20103 0.33070 0.25689
 H1734 H 0.26061 0.33904 0.29498
 H1735 H 0.27018 0.30149 0.28658
 H1736 H 0.21031 0.29388 0.24794
 C1737 C 0.16215 0.25797 0.74570
 C1738 C 0.15607 0.24809 0.76714
 C1739 C 0.17163 0.23829 0.78140
 C1740 C 0.19321 0.23898 0.77485
 C1741 C 0.08016 0.25117 0.80821
 C1742 C 0.18386 0.25855 0.73896
 C1743 C 0.13430 0.24917 0.77587
 C1744 C 0.11668 0.24996 0.78486
 C1745 C 0.09672 0.25070 0.79694
 C1746 C 0.19975 0.24931 0.75365
 H1747 H 0.15024 0.26576 0.73458
 H1748 H 0.16716 0.23069 0.79808
 H1749 H 0.20480 0.23184 0.78686
 H1750 H 0.18821 0.26696 0.72278
 C1751 C 0.65807 0.75245 0.24924
 C1752 C 0.65258 0.74377 0.27154
 C1753 C 0.66866 0.73561 0.28636
 C1754 C 0.69011 0.73656 0.27937
 C1755 C 0.57611 0.74459 0.31167
 C1756 C 0.67967 0.75332 0.24208
 C1757 C 0.63077 0.74412 0.28026
 C1758 C 0.61306 0.74432 0.28910
 C1759 C 0.59291 0.74447 0.30084
 C1760 C 0.69603 0.74551 0.25716
 H1761 H 0.64575 0.75896 0.23765
 H1762 H 0.66465 0.72894 0.30369
 H1763 H 0.70208 0.73047 0.29165
 H1764 H 0.68354 0.76065 0.22510
 C1765 C 0.67489 0.27029 0.22429
 C1766 C 0.65912 0.25986 0.23757
 C1767 C 0.66476 0.24952 0.25892
 C1768 C 0.68628 0.24896 0.26639
 C1769 C 0.58504 0.25472 0.19269
 C1770 C 0.69629 0.26961 0.23155
 C1771 C 0.63774 0.25838 0.22775
 C1772 C 0.62054 0.25718 0.21783
 C1773 C 0.60112 0.25582 0.20473
 C1774 C 0.70244 0.25864 0.25251
 H1775 H 0.67079 0.27826 0.20769
 H1776 H 0.65268 0.24125 0.26930
 H1777 H 0.69033 0.24014 0.28241
 H1778 H 0.70810 0.27708 0.22011
 C1779 C 0.17319 0.77389 0.72372
 C1780 C 0.15757 0.76327 0.73704
 C1781 C 0.16337 0.75300 0.75837
 C1782 C 0.18491 0.75268 0.76578
 C1783 C 0.08348 0.75672 0.69248
 C1784 C 0.19461 0.77345 0.73092
 C1785 C 0.13621 0.76148 0.72728
 C1786 C 0.11900 0.75995 0.71744
 C1787 C 0.09958 0.75818 0.70445
 C1788 C 0.20092 0.76254 0.75185
 H1789 H 0.16896 0.78181 0.70713
 H1790 H 0.15142 0.74458 0.76877
 H1791 H 0.18908 0.74387 0.78177
 H1792 H 0.20632 0.78104 0.71946
 C1793 C 0.84169 0.74845 0.75077
 C1794 C 0.84774 0.73903 0.72884
 C1795 C 0.83226 0.72909 0.71448
 C1796 C 0.81075 0.72924 0.72143
 C1797 C 0.92336 0.74487 0.68750
 C1798 C 0.82007 0.74850 0.75789
 C1799 C 0.86936 0.74077 0.71983
 C1800 C 0.88688 0.74219 0.71073
 C1801 C 0.90679 0.74373 0.69867
 C1802 C 0.80423 0.73921 0.74308
 H1803 H 0.85354 0.75631 0.76200
 H1804 H 0.83671 0.72181 0.69744
 H1805 H 0.79917 0.72200 0.70938
 H1806 H 0.81573 0.75656 0.77448
 C1807 C 0.34159 0.24772 0.24963
 C1808 C 0.34751 0.23863 0.22749
 C1809 C 0.33189 0.22919 0.21289
 C1810 C 0.31039 0.22949 0.21985
 C1811 C 0.42361 0.24417 0.18713
 C1812 C 0.31998 0.24793 0.25675
 C1813 C 0.36919 0.24017 0.21860
 C1814 C 0.38681 0.24150 0.20972
 C1815 C 0.40688 0.24300 0.19799
 C1816 C 0.30401 0.23910 0.24175
 H1817 H 0.35354 0.25519 0.26104
 H1818 H 0.33625 0.22217 0.19568
 H1819 H 0.29870 0.22261 0.20767
 H1820 H 0.31576 0.25572 0.27354
 C1821 C 0.32201 0.75807 0.28455
 C1822 C 0.33774 0.75562 0.26689
 C1823 C 0.33165 0.75235 0.24292
 C1824 C 0.30980 0.75123 0.23681
 C1825 C 0.41416 0.75198 0.30600
 C1826 C 0.30036 0.75683 0.27858
 C1827 C 0.35988 0.75504 0.27434
 C1828 C 0.37772 0.75425 0.28274
 C1829 C 0.39774 0.75308 0.29459
 C1830 C 0.29380 0.75354 0.25460
 H1831 H 0.32650 0.76024 0.30322
 H1832 H 0.34372 0.75012 0.22910
 H1833 H 0.30550 0.74793 0.21832
 H1834 H 0.28890 0.75764 0.29315
 C1835 C 0.82565 0.25673 0.78619
 C1836 C 0.84155 0.25469 0.76865
 C1837 C 0.83569 0.25127 0.74463
 C1838 C 0.81391 0.24968 0.73834
 C1839 C 0.91830 0.25424 0.80734
 C1840 C 0.80407 0.25505 0.78002
 C1841 C 0.86367 0.25488 0.77620
 C1842 C 0.88154 0.25481 0.78455
 C1843 C 0.90169 0.25455 0.79620
 C1844 C 0.79774 0.25172 0.75597
 H1845 H 0.82997 0.25902 0.80489
 H1846 H 0.84790 0.24935 0.73091
 H1847 H 0.80981 0.24632 0.71980
 H1848 H 0.79249 0.25566 0.79447
 C1849 C 0.52753 0.95855 0.57562
 C1850 C 0.54802 0.96707 0.57954
 C1851 C 0.55753 0.97978 0.56204
 C1852 C 0.54632 0.98489 0.54126
 C1853 C 0.59070 0.97071 0.66034
 C1854 C 0.51628 0.96348 0.55456
 C1855 C 0.55862 0.96515 0.60235
 C1856 C 0.56823 0.96546 0.62112
 C1857 C 0.58012 0.96765 0.64254
 C1858 C 0.52538 0.97709 0.53729
 H1859 H 0.51990 0.94887 0.58922
 H1860 H 0.57329 0.98664 0.56498
 H1861 H 0.55385 0.99575 0.52881
 H1862 H 0.50009 0.95751 0.55249
 C1863 C 0.02828 0.46250 1.07622
 C1864 C 0.04866 0.47112 1.08058
 C1865 C 0.05797 0.48471 1.06379
 C1866 C 0.04668 0.49050 1.04328
 C1867 C 0.09144 0.47153 1.16136
 C1868 C 0.01696 0.46813 1.05545
 C1869 C 0.05935 0.46827 1.10320
 C1870 C 0.06898 0.46779 1.12194
 C1871 C 0.08087 0.46912 1.14343
 C1872 C 0.02588 0.48254 1.03889
 H1873 H 0.02081 0.45214 1.08928
 H1874 H 0.07364 0.49165 1.06708
 H1875 H 0.05407 0.50192 1.03135
 H1876 H 0.00087 0.46201 1.05306
 C1877 C -0.06107 0.02166 1.06238
 C1878 C -0.05144 0.03376 1.08057
 C1879 C -0.03115 0.04275 1.07681
 C1880 C -0.02011 0.03872 1.05527
 C1881 C -0.09217 0.02489 1.16206
 C1882 C -0.05005 0.01741 1.04110
 C1883 C -0.06155 0.03431 1.10380
 C1884 C -0.07068 0.03278 1.12279
 C1885 C -0.08202 0.02913 1.14430
 C1886 C -0.02921 0.02548 1.03735
 H1887 H -0.07667 0.01444 1.06516
 H1888 H -0.02344 0.05199 1.09092
 H1889 H -0.00401 0.04493 1.05332
 H1890 H -0.05756 0.00678 1.02817
 C1891 C 0.46713 0.54241 0.57127
 C1892 C 0.44849 0.53140 0.57784
 C1893 C 0.44041 0.51536 0.56281
 C1894 C 0.45138 0.50947 0.54201
 C1895 C 0.40845 0.52914 0.66023
 C1896 C 0.47809 0.53666 0.55011
 C1897 C 0.43863 0.53430 0.60102
 C1898 C 0.42965 0.53441 0.62020
 C1899 C 0.41847 0.53232 0.64209
 C1900 C 0.47059 0.51971 0.53546
 H1901 H 0.47364 0.55478 0.58290
 H1902 H 0.42615 0.50654 0.56785
 H1903 H 0.44531 0.49592 0.53204
 H1904 H 0.49288 0.54485 0.54583
 C1905 C 0.43553 0.48222 -0.06481
 C1906 C 0.44530 0.46998 -0.08288
 C1907 C 0.46555 0.46084 -0.07888
 C1908 C 0.47641 0.46485 -0.05724
 C1909 C 0.40623 0.47824 -0.16559
 C1910 C 0.44636 0.48644 -0.04344
 C1911 C 0.43540 0.46937 -0.10623
 C1912 C 0.42657 0.47077 -0.12542
 C1913 C 0.41577 0.47420 -0.14733
 C1914 C 0.46718 0.47823 -0.03947
 H1915 H 0.41995 0.48954 -0.06776
 H1916 H 0.47336 0.45148 -0.09286
 H1917 H 0.49248 0.45850 -0.05511
 H1918 H 0.43875 0.49713 -0.03059
 C1919 C -0.06439 0.98222 0.43545
 C1920 C -0.05452 0.96970 0.41770
 C1921 C -0.03419 0.96082 0.42190
 C1922 C -0.02338 0.96531 0.44345
 C1923 C -0.09405 0.97578 0.33507
 C1924 C -0.05361 0.98691 0.45672
 C1925 C -0.06446 0.96849 0.39441
 C1926 C -0.07338 0.96939 0.37525
 C1927 C -0.08435 0.97224 0.35335
 C1928 C -0.03275 0.97889 0.46093
 H1929 H -0.08002 0.98935 0.43232
 H1930 H -0.02630 0.95125 0.40815
 H1931 H -0.00727 0.95912 0.44575
 H1932 H -0.06134 0.99776 0.46933
 C1933 C 0.03469 0.53735 0.42107
 C1934 C 0.05497 0.52844 0.41642
 C1935 C 0.06516 0.51623 0.43394
 C1936 C 0.05477 0.51189 0.45546
 C1937 C 0.09386 0.52009 0.33360
 C1938 C 0.02428 0.53323 0.44289
 C1939 C 0.06454 0.52921 0.39295
 C1940 C 0.07329 0.52782 0.37369
 C1941 C 0.08417 0.52429 0.35178
 C1942 C 0.03400 0.52000 0.46017
 H1943 H 0.02655 0.54665 0.40748
 H1944 H 0.08075 0.50906 0.43046
 H1945 H 0.06274 0.50127 0.46788
 H1946 H 0.00820 0.53944 0.44556
 C1947 C 0.53440 0.03727 -0.07947
 C1948 C 0.55474 0.02834 -0.08369
 C1949 C 0.56457 0.01605 -0.06599
 C1950 C 0.55376 0.01164 -0.04474
 C1951 C 0.59474 0.02023 -0.16592
 C1952 C 0.52357 0.03308 -0.05794
 C1953 C 0.56473 0.02916 -0.10695
 C1954 C 0.57376 0.02783 -0.12605
 C1955 C 0.58490 0.02438 -0.14782
 C1956 C 0.53292 0.01976 -0.04049
 H1957 H 0.52653 0.04663 -0.09321
 H1958 H 0.58021 0.00885 -0.06914
 H1959 H 0.56146 0.00094 -0.03220
 H1960 H 0.50744 0.03930 -0.05563
 C1961 C 0.57774 0.50219 -0.02975
 C1962 C 0.58645 0.52125 -0.02064
 C1963 C 0.57361 0.53524 -0.00717
 C1964 C 0.55230 0.53019 -0.00245
 C1965 C 0.66508 0.54997 -0.02301
 C1966 C 0.55623 0.49709 -0.02508
 C1967 C 0.60868 0.52661 -0.02391
 C1968 C 0.62700 0.53266 -0.02503
 C1969 C 0.64786 0.54135 -0.02462
 C1970 C 0.54322 0.51099 -0.01116
 H1971 H 0.58761 0.49119 -0.04014
 H1972 H 0.58020 0.54997 0.00011
 H1973 H 0.54321 0.54124 0.00864
 H1974 H 0.54997 0.48213 -0.03206
 C1975 C 0.07758 1.00386 0.47156
 C1976 C 0.08608 1.02301 0.48066
 C1977 C 0.07302 1.03698 0.49388
 C1978 C 0.05169 1.03180 0.49838
 C1979 C 0.16497 1.05140 0.47844
 C1980 C 0.05606 0.99863 0.47601
 C1981 C 0.10833 1.02848 0.47761
 C1982 C 0.12667 1.03450 0.47659
 C1983 C 0.14761 1.04303 0.47697
 C1984 C 0.04282 1.01248 0.48969
 H1985 H 0.08761 0.99287 0.46134
 H1986 H 0.07944 1.05179 0.50115
 H1987 H 0.04243 1.04284 0.50930
 H1988 H 0.04998 0.98359 0.46905
 C1989 C 0.07801 -0.03123 1.00626
 C1990 C 0.09050 -0.01703 1.01974
 C1991 C 0.08139 0.00200 1.02859
 C1992 C 0.05986 0.00687 1.02365
 C1993 C 0.16990 -0.04411 1.02560
 C1994 C 0.05664 -0.02641 1.00128
 C1995 C 0.11277 -0.02211 1.02350
 C1996 C 0.13122 -0.02775 1.02533
 C1997 C 0.15236 -0.03589 1.02605
 C1998 C 0.04719 -0.00722 1.00974
 H1999 H 0.08491 -0.04597 0.99920
 H2000 H 0.09097 0.01315 1.03901
 H2001 H 0.05333 0.02183 1.03045
 H2002 H 0.04777 -0.03761 0.99024
 C2003 C 0.58134 0.49443 0.53001
 C2004 C 0.59051 0.47548 0.52105
 C2005 C 0.57806 0.46129 0.50749
 C2006 C 0.55670 0.46615 0.50241
 C2007 C 0.67064 0.45011 0.52603
 C2008 C 0.55982 0.49932 0.52498
 C2009 C 0.61289 0.47061 0.52456
 C2010 C 0.63147 0.46533 0.52616
 C2011 C 0.65284 0.45776 0.52664
 C2012 C 0.54723 0.48533 0.51084
 H2013 H 0.59087 0.50558 0.54049
 H2014 H 0.58502 0.44662 0.50034
 H2015 H 0.54793 0.45504 0.49115
 H2016 H 0.55328 0.51429 0.53176
 C2017 C -0.07144 0.46334 0.49731
 C2018 C -0.08493 0.47753 0.48524
 C2019 C -0.07653 0.49650 0.47591
 C2020 C -0.05473 0.50138 0.47906
 C2021 C -0.16530 0.45286 0.48745
 C2022 C -0.04981 0.46817 0.50052
 C2023 C -0.10748 0.47266 0.48370
 C2024 C -0.12610 0.46743 0.48376
 C2025 C -0.14748 0.46008 0.48521
 C2026 C -0.04106 0.48735 0.49166
 H2027 H -0.07776 0.44868 0.50476
 H2028 H -0.08687 0.50768 0.46660
 H2029 H -0.04878 0.51634 0.47204
 H2030 H -0.04020 0.45705 0.51072
 C2031 C 0.42649 -0.03655 -0.00632
 C2032 C 0.41321 -0.02198 -0.01810
 C2033 C 0.42185 -0.00295 -0.02696
 C2034 C 0.44367 0.00164 -0.02356
 C2035 C 0.33263 -0.04551 -0.01487
 C2036 C 0.44814 -0.03200 -0.00283
 C2037 C 0.39060 -0.02647 -0.01958
 C2038 C 0.37191 -0.03142 -0.01933
 C2039 C 0.35048 -0.03849 -0.01752
 C2040 C 0.45711 -0.01273 -0.01115
 H2041 H 0.41996 -0.05127 0.00080
 H2042 H 0.41166 0.00852 -0.03603
 H2043 H 0.44980 0.01669 -0.03015
 H2044 H 0.45754 -0.04336 0.00726
 C2045 C 0.41941 1.03599 0.50660
 C2046 C 0.40653 1.02225 0.51995
 C2047 C 0.41515 1.00313 0.52874
 C2048 C 0.43659 0.99768 0.52385
 C2049 C 0.32697 1.04941 0.52212
 C2050 C 0.44067 1.03058 0.50164
 C2051 C 0.38425 1.02774 0.52323
 C2052 C 0.36580 1.03355 0.52437
 C2053 C 0.34462 1.04161 0.52393
 C2054 C 0.44963 1.01127 0.51000
 H2055 H 0.41287 1.05076 0.49952
 H2056 H 0.40525 0.99230 0.53902
 H2057 H 0.44275 0.98265 0.53058
 H2058 H 0.44979 1.04140 0.49060
 C2059 C -0.08452 0.50747 1.03065
 C2060 C -0.09336 0.52669 1.02243
 C2061 C -0.08058 0.54101 1.00974
 C2062 C -0.05921 0.53605 1.00480
 C2063 C -0.17361 0.55161 1.02352
 C2064 C -0.06298 0.50247 1.02578
 C2065 C -0.11578 0.53159 1.02543
 C2066 C -0.13439 0.53688 1.02632
 C2067 C -0.15577 0.54432 1.02557
 C2068 C -0.05005 0.51662 1.01251
 H2069 H -0.09434 0.49619 1.04039
 H2070 H -0.08730 0.55586 1.00309
 H2071 H -0.05020 0.54726 0.99413
 H2072 H -0.05668 0.48732 1.03199
 C2073 C 0.00723 0.58752 0.50350
 C2074 C 0.01742 0.59378 0.52485
 C2075 C 0.02727 0.57835 0.53917
 C2076 C 0.02632 0.55675 0.53275
 C2077 C 0.01380 0.67002 0.56550
 C2078 C 0.00638 0.56578 0.49690
 C2079 C 0.01654 0.61562 0.53348
 C2080 C 0.01577 0.63332 0.54237
 C2081 C 0.01478 0.65339 0.55432
 C2082 C 0.01565 0.55004 0.51167
 H2083 H -0.00059 0.59933 0.49233
 H2084 H 0.03512 0.58295 0.55579
 H2085 H 0.03357 0.54527 0.54477
 H2086 H -0.00221 0.56131 0.48074
 C2087 C 0.52524 0.07740 0.03897
 C2088 C 0.51615 0.09308 0.02440
 C2089 C 0.50637 0.08710 0.00270
 C2090 C 0.50523 0.06540 -0.00403
 C2091 C 0.51413 0.16931 0.06520
 C2092 C 0.52401 0.05584 0.03242
 C2093 C 0.51568 0.11493 0.03303
 C2094 C 0.51528 0.13263 0.04195
 C2095 C 0.51474 0.15268 0.05396
 C2096 C 0.51380 0.04943 0.01094
 H2097 H 0.53277 0.08178 0.05585
 H2098 H 0.49912 0.09911 -0.00868
 H2099 H 0.49702 0.06116 -0.02050
 H2100 H 0.53074 0.04418 0.04459
 C2101 C -0.02006 0.08250 0.95845
 C2102 C -0.01102 0.09823 0.97322
 C2103 C -0.00168 0.09242 0.99512
 C2104 C -0.00086 0.07081 1.00182
 C2105 C -0.00728 0.17358 0.93223
 C2106 C -0.01914 0.06102 0.96496
 C2107 C -0.01005 0.11990 0.96457
 C2108 C -0.00922 0.13741 0.95561
 C2109 C -0.00821 0.15720 0.94353
 C2110 C -0.00930 0.05476 0.98661
 H2111 H -0.02726 0.08676 0.94142
 H2112 H 0.00551 0.10448 1.00666
 H2113 H 0.00705 0.06668 1.01844
 H2114 H -0.02574 0.04929 0.95261
 C2115 C 0.47172 0.58186 0.48809
 C2116 C 0.48700 0.59203 0.47369
 C2117 C 0.50551 0.58096 0.46670
 C2118 C 0.50848 0.55968 0.47318
 C2119 C 0.48273 0.66675 0.43155
 C2120 C 0.47476 0.56043 0.49485
 C2121 C 0.48366 0.61328 0.46444
 C2122 C 0.48228 0.63062 0.45511
 C2123 C 0.48204 0.65035 0.44283
 C2124 C 0.49296 0.54882 0.48694
 H2125 H 0.45723 0.59025 0.49354
 H2126 H 0.51745 0.58862 0.45554
 H2127 H 0.52278 0.55168 0.46659
 H2128 H 0.46231 0.55274 0.50517
 C2129 C 0.49642 0.91043 0.49497
 C2130 C 0.50590 0.90408 0.47320
 C2131 C 0.51540 0.91940 0.45853
 C2132 C 0.51483 0.94100 0.46505
 C2133 C 0.50025 0.82793 0.43283
 C2134 C 0.49595 0.93214 0.50167
 C2135 C 0.50456 0.88229 0.46458
 C2136 C 0.50333 0.86461 0.45576
 C2137 C 0.50175 0.84456 0.44391
 C2138 C 0.50490 0.94778 0.48661
 H2139 H 0.48885 0.89870 0.50639
 H2140 H 0.52267 0.91473 0.44157
 H2141 H 0.52178 0.95242 0.45280
 H2142 H 0.48787 0.93668 0.51816
 C2143 C -0.00235 0.41649 0.99478
 C2144 C 0.00742 0.41069 0.97299
 C2145 C 0.01679 0.42643 0.95878
 C2146 C 0.01587 0.44789 0.96583
 C2147 C 0.00395 0.33489 0.93137
 C2148 C -0.00317 0.43807 1.00201
 C2149 C 0.00661 0.38901 0.96392
 C2150 C 0.00588 0.37143 0.95477
 C2151 C 0.00491 0.35147 0.94263
 C2152 C 0.00574 0.45412 0.98747
 H2153 H -0.00984 0.40444 1.00585
 H2154 H 0.02428 0.42218 0.94181
 H2155 H 0.02277 0.45963 0.95393
 H2156 H -0.01146 0.44217 1.01850
 C2157 C 0.49658 0.41130 0.00348
 C2158 C 0.48714 0.40538 0.02527
 C2159 C 0.47700 0.42091 0.03954
 C2160 C 0.47709 0.44234 0.03271
 C2161 C 0.49587 0.33052 0.06681
 C2162 C 0.49655 0.43283 -0.00353
 C2163 C 0.48929 0.38392 0.03439
 C2164 C 0.49124 0.36656 0.04355
 C2165 C 0.49368 0.34688 0.05565
 C2166 C 0.48718 0.44874 0.01127
 H2167 H 0.50460 0.39941 -0.00768
 H2168 H 0.46972 0.41658 0.05649
 H2169 H 0.46981 0.45397 0.04477
 H2170 H 0.50469 0.43707 -0.01999
 C2171 C -0.00367 0.91239 0.50403
 C2172 C -0.01327 0.90645 0.52573
 C2173 C -0.02334 0.92200 0.54003
 C2174 C -0.02309 0.94346 0.53330
 C2175 C -0.00552 0.83130 0.56678
 C2176 C -0.00353 0.93396 0.49712
 C2177 C -0.01141 0.88492 0.53468
 C2178 C -0.00971 0.86749 0.54371
 C2179 C -0.00754 0.84772 0.55569
 C2180 C -0.01291 0.94986 0.51191
 H2181 H 0.00432 0.90050 0.49286
 H2182 H -0.03074 0.91766 0.55691
 H2183 H -0.03039 0.95509 0.54535
 H2184 H 0.00470 0.93820 0.48073
 C2185 C 0.23445 0.30645 0.18617
 C2186 C 0.22124 0.29699 0.16887
 C2187 C 0.21277 0.27656 0.17280
 C2188 C 0.21823 0.26533 0.19363
 C2189 C 0.22299 0.33992 0.08868
 C2190 C 0.24009 0.29526 0.20672
 C2191 C 0.21873 0.30761 0.14623
 C2192 C 0.21858 0.31725 0.12759
 C2193 C 0.22029 0.32923 0.10633
 C2194 C 0.23233 0.27439 0.21068
 H2195 H 0.24129 0.32216 0.18322
 H2196 H 0.20271 0.26898 0.15936
 H2197 H 0.21227 0.24919 0.19570
 H2198 H 0.25131 0.30275 0.21899
 C2199 C 0.71390 0.77510 0.67232
 C2200 C 0.72229 0.79553 0.66820
 C2201 C 0.73504 0.80539 0.68565
 C2202 C 0.74034 0.79457 0.70657
 C2203 C 0.72531 0.83707 0.58711
 C2204 C 0.71902 0.76425 0.69352
 C2205 C 0.72021 0.80573 0.64526
 C2206 C 0.72038 0.81503 0.62640
 C2207 C 0.72240 0.82665 0.60492
 C2208 C 0.73271 0.77368 0.71073
 H2209 H 0.70418 0.76721 0.65877
 H2210 H 0.74180 0.82110 0.68257
 H2211 H 0.75127 0.80234 0.71895
 H2212 H 0.71316 0.74809 0.69574
 C2213 C 0.26695 0.69466 0.69104
 C2214 C 0.27974 0.70430 0.67365
 C2215 C 0.28882 0.72441 0.67826
 C2216 C 0.28436 0.73520 0.69989
 C2217 C 0.27532 0.66441 0.59069
 C2218 C 0.26232 0.70542 0.71244
 C2219 C 0.28124 0.69432 0.65033
 C2220 C 0.28070 0.68537 0.63108
 C2221 C 0.27838 0.67431 0.60904
 C2222 C 0.27067 0.72600 0.71711
 H2223 H 0.25966 0.67919 0.68758
 H2224 H 0.29857 0.73213 0.66476
 H2225 H 0.29072 0.75115 0.70247
 H2226 H 0.25136 0.69787 0.72482
 C2227 C 0.76800 0.19055 0.19147
 C2228 C 0.78086 0.20020 0.17415
 C2229 C 0.79016 0.22017 0.17894
 C2230 C 0.78581 0.23085 0.20066
 C2231 C 0.77515 0.16121 0.09083
 C2232 C 0.76347 0.20120 0.21295
 C2233 C 0.78212 0.19045 0.15070
 C2234 C 0.78132 0.18171 0.13135
 C2235 C 0.77860 0.17090 0.10922
 C2236 C 0.77200 0.22169 0.21778
 H2237 H 0.76054 0.17519 0.18786
 H2238 H 0.79997 0.22790 0.16550
 H2239 H 0.79233 0.24672 0.20338
 H2240 H 0.75242 0.19368 0.22526
 C2241 C 0.70805 0.21775 0.82701
 C2242 C 0.71680 0.19768 0.83255
 C2243 C 0.72952 0.18691 0.81569
 C2244 C 0.73453 0.19650 0.79397
 C2245 C 0.72357 0.16098 0.91621
 C2246 C 0.71283 0.22735 0.80496
 C2247 C 0.71539 0.18893 0.85631
 C2248 C 0.71636 0.18074 0.87579
 C2249 C 0.71954 0.17035 0.89791
 C2250 C 0.72657 0.21703 0.78832
 H2251 H 0.69838 0.22637 0.84010
 H2252 H 0.73662 0.17150 0.81988
 H2253 H 0.74566 0.18816 0.78222
 H2254 H 0.70679 0.24332 0.80163
 C2255 C 0.20608 0.71920 0.32718
 C2256 C 0.21496 0.69908 0.33225
 C2257 C 0.22694 0.68828 0.31473
 C2258 C 0.23118 0.69793 0.29284
 C2259 C 0.22477 0.66272 0.41582
 C2260 C 0.21007 0.72885 0.30496
 C2261 C 0.21455 0.69036 0.35608
 C2262 C 0.21629 0.68224 0.37554
 C2263 C 0.22024 0.67198 0.39759
 C2264 C 0.22318 0.71855 0.28768
 H2265 H 0.19697 0.72784 0.34075
 H2266 H 0.23413 0.67283 0.31854
 H2267 H 0.24188 0.68960 0.28059
 H2268 H 0.20401 0.74488 0.30200
 C2269 C 0.76487 0.81277 0.31303
 C2270 C 0.77925 0.80364 0.32921
 C2271 C 0.78903 0.78397 0.32363
 C2272 C 0.78354 0.77302 0.30240
 C2273 C 0.77396 0.84240 0.41262
 C2274 C 0.75919 0.80181 0.29213
 C2275 C 0.78126 0.81341 0.35259
 C2276 C 0.78066 0.82218 0.37195
 C2277 C 0.77780 0.83293 0.39413
 C2278 C 0.76800 0.78154 0.28668
 H2279 H 0.75697 0.82784 0.31728
 H2280 H 0.80008 0.77664 0.33616
 H2281 H 0.79065 0.75744 0.29898
 H2282 H 0.74674 0.80875 0.28128
 C2283 C 0.26589 0.31669 0.81377
 C2284 C 0.27841 0.30703 0.83143
 C2285 C 0.28756 0.28683 0.82706
 C2286 C 0.28334 0.27594 0.80544
 C2287 C 0.27110 0.34619 0.91457
 C2288 C 0.26147 0.30583 0.79242
 C2289 C 0.27933 0.31698 0.85480
 C2290 C 0.27816 0.32585 0.87407
 C2291 C 0.27497 0.33668 0.89614
 C2292 C 0.26977 0.28510 0.78805
 H2293 H 0.25855 0.33222 0.81703
 H2294 H 0.29712 0.27909 0.84075
 H2295 H 0.28974 0.25993 0.80302
 H2296 H 0.25064 0.31339 0.77986
 C2297 C 0.77502 0.31951 0.77948
 C2298 C 0.76964 0.33463 0.76210
 C2299 C 0.75766 0.32840 0.74201
 C2300 C 0.75179 0.30699 0.73885
 C2301 C 0.80316 0.41170 0.76414
 C2302 C 0.76917 0.29806 0.77634
 C2303 C 0.77765 0.35617 0.76394
 C2304 C 0.78504 0.37398 0.76472
 C2305 C 0.79447 0.39450 0.76479
 C2306 C 0.75821 0.29134 0.75551
 H2307 H 0.78413 0.32420 0.79523
 H2308 H 0.75335 0.33998 0.72845
 H2309 H 0.74299 0.30263 0.72279
 H2310 H 0.77351 0.28682 0.79012
 C2311 C 0.27136 0.82129 0.27887
 C2312 C 0.26591 0.83645 0.26155
 C2313 C 0.25371 0.83031 0.24161
 C2314 C 0.24771 0.80894 0.23849
 C2315 C 0.30033 0.91310 0.26234
 C2316 C 0.26537 0.79987 0.27577
 C2317 C 0.27415 0.85791 0.26321
 C2318 C 0.28174 0.87564 0.26372
 C2319 C 0.29140 0.89603 0.26338
 C2320 C 0.25423 0.79323 0.25504
 H2321 H 0.28066 0.82592 0.29451
 H2322 H 0.24935 0.84192 0.22810
 H2323 H 0.23876 0.80464 0.22251
 H2324 H 0.26978 0.78859 0.28948
 C2325 C 0.24760 0.83582 0.72835
 C2326 C 0.22881 0.84499 0.73773
 C2327 C 0.21504 0.83270 0.75176
 C2328 C 0.22000 0.81142 0.75661
 C2329 C 0.20083 0.92377 0.73048
 C2330 C 0.25262 0.81438 0.73317
 C2331 C 0.22341 0.86707 0.73365
 C2332 C 0.21753 0.88535 0.73148
 C2333 C 0.20916 0.90633 0.73034
 C2334 C 0.23890 0.80187 0.74749
 H2335 H 0.25840 0.84523 0.71747
 H2336 H 0.20047 0.83966 0.75918
 H2337 H 0.20903 0.80261 0.76782
 H2338 H 0.26733 0.80775 0.72583
 C2339 C 0.74939 0.33145 0.22881
 C2340 C 0.73066 0.34074 0.23820
 C2341 C 0.71692 0.32860 0.25241
 C2342 C 0.72183 0.30733 0.25740
 C2343 C 0.70241 0.41934 0.23003
 C2344 C 0.75437 0.31004 0.23379
 C2345 C 0.72525 0.36278 0.23387
 C2346 C 0.71933 0.38103 0.23148
 C2347 C 0.71086 0.40196 0.23008
 C2348 C 0.74065 0.29765 0.24825
 H2349 H 0.76017 0.34076 0.21779
 H2350 H 0.70240 0.33564 0.25984
 H2351 H 0.71086 0.29861 0.26871
 H2352 H 0.76902 0.30330 0.22640
 C2353 C 0.70877 0.67490 0.26007
 C2354 C 0.72349 0.66215 0.27236
 C2355 C 0.74283 0.67100 0.28045
 C2356 C 0.74758 0.69249 0.27573
 C2357 C 0.69948 0.58195 0.27148
 C2358 C 0.71349 0.69620 0.25525
 C2359 C 0.71892 0.63971 0.27485
 C2360 C 0.71386 0.62111 0.27524
 C2361 C 0.70663 0.59975 0.27392
 C2362 C 0.73307 0.70535 0.26272
 H2363 H 0.69384 0.66817 0.25352
 H2364 H 0.75442 0.66120 0.28987
 H2365 H 0.76286 0.69879 0.28171
 H2366 H 0.70203 0.70512 0.24473
 C2367 C 0.21303 0.17894 0.75423
 C2368 C 0.22696 0.16617 0.76758
 C2369 C 0.24592 0.17494 0.77685
 C2370 C 0.25099 0.19642 0.77246
 C2371 C 0.20073 0.08667 0.76897
 C2372 C 0.21806 0.20024 0.74978
 C2373 C 0.22180 0.14391 0.77050
 C2374 C 0.21621 0.12548 0.77141
 C2375 C 0.20838 0.10431 0.77079
 C2376 C 0.23718 0.20936 0.75865
 H2377 H 0.19838 0.17229 0.74682
 H2378 H 0.25689 0.16514 0.78715
 H2379 H 0.26589 0.20271 0.77956
 H2380 H 0.20706 0.20930 0.73880
 C2381 C 0.29148 0.16831 0.23923
 C2382 C 0.27696 0.15543 0.22666
 C2383 C 0.25760 0.16419 0.21852
 C2384 C 0.25264 0.18572 0.22337
 C2385 C 0.30088 0.07492 0.22455
 C2386 C 0.28656 0.18969 0.24415
 C2387 C 0.28177 0.13301 0.22364
 C2388 C 0.28685 0.11438 0.22258
 C2389 C 0.29393 0.09289 0.22295
 C2390 C 0.26697 0.19874 0.23654
 H2391 H 0.30644 0.16166 0.24581
 H2392 H 0.24617 0.15431 0.20887
 H2393 H 0.23737 0.19193 0.21724
 H2394 H 0.29792 0.19880 0.25471
 C2395 C 0.79224 0.66841 0.74150
 C2396 C 0.77806 0.65536 0.72866
 C2397 C 0.75873 0.66391 0.72013
 C2398 C 0.75350 0.68540 0.72481
 C2399 C 0.80319 0.57520 0.72664
 C2400 C 0.78704 0.68975 0.74624
 C2401 C 0.78321 0.63301 0.72567
 C2402 C 0.78858 0.61445 0.72462
 C2403 C 0.79598 0.59307 0.72501
 C2404 C 0.76751 0.69860 0.73819
 H2405 H 0.80717 0.66193 0.74837
 H2406 H 0.74757 0.65389 0.71026
 H2407 H 0.73828 0.69146 0.71833
 H2408 H 0.79817 0.69902 0.75694
 C2409 C 0.82982 0.77882 0.23842
 C2410 C 0.83926 0.76429 0.22218
 C2411 C 0.82734 0.74699 0.21355
 C2412 C 0.80603 0.74439 0.22047
 C2413 C 0.91486 0.76738 0.18050
 C2414 C 0.80835 0.77617 0.24558
 C2415 C 0.86075 0.76715 0.21305
 C2416 C 0.87828 0.76822 0.20386
 C2417 C 0.89826 0.76822 0.19172
 C2418 C 0.79600 0.75905 0.23639
 H2419 H 0.83885 0.79241 0.24511
 H2420 H 0.83440 0.73567 0.20091
 H2421 H 0.79737 0.73105 0.21268
 H2422 H 0.80127 0.78808 0.25738
 C2423 C 0.33728 0.25662 0.74534
 C2424 C 0.34345 0.26629 0.72381
 C2425 C 0.32798 0.27614 0.70947
 C2426 C 0.30639 0.27563 0.71599
 C2427 C 0.41899 0.25978 0.68230
 C2428 C 0.31556 0.25622 0.75204
 C2429 C 0.36517 0.26469 0.71498
 C2430 C 0.38273 0.26325 0.70591
 C2431 C 0.40258 0.26143 0.69372
 C2432 C 0.29975 0.26541 0.73721
 H2433 H 0.34912 0.24880 0.75652
 H2434 H 0.33252 0.28357 0.69271
 H2435 H 0.29484 0.28276 0.70391
 H2436 H 0.31115 0.24796 0.76830
 C2437 C 0.32896 0.73226 0.79516
 C2438 C 0.34457 0.74108 0.78024
 C2439 C 0.33839 0.75107 0.75889
 C2440 C 0.31659 0.75267 0.75283
 C2441 C 0.42175 0.74189 0.81815
 C2442 C 0.30727 0.73394 0.78927
 C2443 C 0.36659 0.74111 0.78814
 C2444 C 0.38451 0.74124 0.79636
 C2445 C 0.40487 0.74151 0.80754
 C2446 C 0.30069 0.74432 0.76811
 H2447 H 0.33351 0.72459 0.81180
 H2448 H 0.35035 0.75813 0.74728
 H2449 H 0.31224 0.76107 0.73665
 H2450 H 0.29566 0.72740 0.80166
 C2451 C 0.83034 0.22797 0.29603
 C2452 C 0.84591 0.23731 0.28145
 C2453 C 0.83975 0.24734 0.26012
 C2454 C 0.81799 0.24857 0.25381
 C2455 C 0.92270 0.24079 0.32023
 C2456 C 0.80868 0.22929 0.28988
 C2457 C 0.86781 0.23797 0.28973
 C2458 C 0.88563 0.23871 0.29818
 C2459 C 0.90589 0.23975 0.30954
 C2460 C 0.80211 0.23982 0.26881
 H2461 H 0.83488 0.22027 0.31264
 H2462 H 0.85167 0.25479 0.24878
 H2463 H 0.81365 0.25710 0.23770
 H2464 H 0.79706 0.22246 0.30206
 C2465 C 0.17659 0.26485 0.29078
 C2466 C 0.16074 0.25566 0.27632
 C2467 C 0.16644 0.24615 0.25431
 C2468 C 0.18804 0.24539 0.24714
 C2469 C 0.08509 0.25233 0.31797
 C2470 C 0.19807 0.26399 0.28379
 C2471 C 0.13904 0.25483 0.28530
 C2472 C 0.12148 0.25412 0.29445
 C2473 C 0.10159 0.25322 0.30663
 C2474 C 0.20421 0.25410 0.26195
 H2475 H 0.17243 0.27216 0.30790
 H2476 H 0.15429 0.23883 0.24303
 H2477 H 0.19208 0.23735 0.23044
 H2478 H 0.20989 0.27077 0.29586
 C2479 C 0.66655 0.74574 0.75399
 C2480 C 0.66059 0.75541 0.77582
 C2481 C 0.67625 0.76482 0.79038
 C2482 C 0.69779 0.76402 0.78366
 C2483 C 0.58456 0.75184 0.81659
 C2484 C 0.68823 0.74504 0.74710
 C2485 C 0.63881 0.75451 0.78456
 C2486 C 0.62117 0.75374 0.79350
 C2487 C 0.60116 0.75278 0.80545
 C2488 C 0.70420 0.75395 0.76202
 H2489 H 0.65456 0.73825 0.74264
 H2490 H 0.67187 0.77226 0.80736
 H2491 H 0.70947 0.77097 0.79580
 H2492 H 0.69247 0.73687 0.73054
 C2493 C 0.66111 0.24024 0.74094
 C2494 C 0.65592 0.23021 0.71912
 C2495 C 0.67210 0.22044 0.70545
 C2496 C 0.69345 0.22147 0.71293
 C2497 C 0.58046 0.23764 0.67762
 C2498 C 0.68253 0.24121 0.74857
 C2499 C 0.63448 0.23153 0.70950
 C2500 C 0.61702 0.23309 0.70029
 C2501 C 0.59709 0.23537 0.68843
 C2502 C 0.69907 0.23225 0.73438
 H2503 H 0.64872 0.24797 0.75164
 H2504 H 0.66831 0.21268 0.68849
 H2505 H 0.70562 0.21434 0.70145
 H2506 H 0.68613 0.24978 0.76504
 C2507 C 0.15702 0.74253 0.24168
 C2508 C 0.15148 0.73300 0.21970
 C2509 C 0.16740 0.72329 0.20557
 C2510 C 0.18886 0.72396 0.21277
 C2511 C 0.07560 0.74262 0.17959
 C2512 C 0.17854 0.74314 0.24901
 C2513 C 0.12994 0.73482 0.21040
 C2514 C 0.11238 0.73688 0.20152
 C2515 C 0.09233 0.73979 0.19007
 C2516 C 0.19483 0.73433 0.23435
 H2517 H 0.14484 0.75019 0.25274
 H2518 H 0.16333 0.71591 0.18849
 H2519 H 0.20082 0.71695 0.20095
 H2520 H 0.18241 0.75135 0.26563
   
