data_POSCAR
  _audit_creation_date              2014-09-24
  _audit_creation_method            'ToBaCCo'
  _symmetry_space_group_name_H-M    'P1'
  _symmetry_Int_Tables_number       1
  _symmetry_cell_setting            triclinic
  loop_
  _symmetry_equiv_pos_as_xyz
 x,y,z
_cell_length_a 108.0928
_cell_length_b 108.1861
_cell_length_c 108.0193
_cell_angle_alpha 90.012100
_cell_angle_beta 90.040100
_cell_angle_gamma 90.019600
loop_
  _atom_site_label
  _atom_site_type_symbol
  _atom_site_fract_x
  _atom_site_fract_y
  _atom_site_fract_z
C1 C 0.31940 0.44631 0.93029
 C2 C 0.31439 0.45130 0.91940
 C3 C 0.30403 0.44583 0.91385
 C4 C 0.29852 0.43541 0.91920
 C5 C 0.30341 0.43029 0.93009
 C6 C 0.31390 0.43574 0.93567
 C7 C 0.32999 0.45150 0.93572
 C8 C 0.33514 0.44622 0.94639
 C9 C 0.32965 0.43579 0.95180
 C10 C 0.31906 0.43049 0.94648
 C11 C 0.31370 0.41983 0.95160
 C12 C 0.30335 0.41439 0.94600
 C13 C 0.29817 0.41964 0.93533
 H14 H 0.31865 0.45931 0.91513
 H15 H 0.29055 0.43119 0.91478
 H16 H 0.33434 0.45951 0.93152
 H17 H 0.33374 0.43169 0.96000
 H18 H 0.31770 0.41564 0.95980
 H19 H 0.29022 0.41531 0.93101
 C20 C 0.44623 0.81988 0.42943
 C21 C 0.45143 0.83055 0.43469
 C22 C 0.44623 0.83578 0.44536
 C23 C 0.43587 0.83030 0.45092
 C24 C 0.43057 0.81964 0.44578
 C25 C 0.43574 0.81440 0.43497
 C26 C 0.45117 0.81474 0.41858
 C27 C 0.44572 0.80426 0.41323
 C28 C 0.43535 0.79878 0.41875
 C29 C 0.43030 0.80379 0.42960
 C30 C 0.41975 0.79854 0.43504
 C31 C 0.41460 0.80380 0.44571
 C32 C 0.42002 0.81426 0.45110
 H33 H 0.45940 0.83488 0.43038
 H34 H 0.43183 0.83444 0.45913
 H35 H 0.45915 0.81895 0.41419
 H36 H 0.43115 0.79072 0.41450
 H37 H 0.41544 0.79049 0.43090
 H38 H 0.41591 0.81830 0.45932
 C39 C 0.94528 0.92926 0.82132
 C40 C 0.95034 0.91861 0.81593
 C41 C 0.94493 0.91343 0.80534
 C42 C 0.93447 0.91892 0.79999
 C43 C 0.92929 0.92959 0.80527
 C44 C 0.93470 0.93478 0.81599
 C45 C 0.95048 0.93435 0.83207
 C46 C 0.94519 0.94484 0.83755
 C47 C 0.93472 0.95037 0.83226
 C48 C 0.92941 0.94539 0.82149
 C49 C 0.91878 0.95069 0.81626
 C50 C 0.91340 0.94549 0.80567
 C51 C 0.91866 0.93501 0.80016
 H52 H 0.95839 0.91427 0.82007
 H53 H 0.93027 0.91482 0.79184
 H54 H 0.95854 0.93007 0.83626
 H55 H 0.93062 0.95844 0.83659
 H56 H 0.91459 0.95875 0.82050
 H57 H 0.91438 0.93101 0.79200
 C58 C 0.44537 -0.07044 0.31981
 C59 C 0.45021 -0.08126 0.31458
 C60 C 0.44449 -0.08667 0.30428
 C61 C 0.43392 -0.08126 0.29907
 C62 C 0.42895 -0.07042 0.30419
 C63 C 0.43469 -0.06498 0.31462
 C64 C 0.45087 -0.06512 0.33030
 C65 C 0.44579 -0.05446 0.33563
 C66 C 0.43525 -0.04898 0.33045
 C67 C 0.42963 -0.05419 0.31997
 C68 C 0.41889 -0.04895 0.31489
 C69 C 0.41318 -0.05440 0.30460
 C70 C 0.41822 -0.06507 0.29924
 H71 H 0.45833 -0.08558 0.31859
 H72 H 0.42951 -0.08557 0.29115
 H73 H 0.45898 -0.06934 0.33443
 H74 H 0.43135 -0.04077 0.33470
 H75 H 0.41488 -0.04074 0.31902
 H76 H 0.41368 -0.06926 0.29132
 C77 C 0.82148 0.30560 0.32080
 C78 C 0.81600 0.30072 0.33150
 C79 C 0.80542 0.30627 0.33654
 C80 C 0.80019 0.31667 0.33086
 C81 C 0.80556 0.32168 0.32015
 C82 C 0.81627 0.31614 0.31509
 C83 C 0.83223 0.30028 0.31584
 C84 C 0.83780 0.30540 0.30531
 C85 C 0.83262 0.31582 0.29961
 C86 C 0.82188 0.32126 0.30445
 C87 C 0.81677 0.33185 0.29897
 C88 C 0.80619 0.33736 0.30404
 C89 C 0.80058 0.33226 0.31455
 H90 H 0.82002 0.29272 0.33602
 H91 H 0.79205 0.32094 0.33487
 H92 H 0.83635 0.29227 0.32024
 H93 H 0.83706 0.31976 0.29151
 H94 H 0.82110 0.33591 0.29088
 H95 H 0.79243 0.33664 0.31844
 C96 C -0.19696 0.82104 0.81913
 C97 C -0.20181 0.83183 0.81381
 C98 C -0.19605 0.83720 0.80350
 C99 C -0.18548 0.83173 0.79835
 C100 C -0.18052 0.82093 0.80356
 C101 C -0.18626 0.81556 0.81400
 C102 C -0.20246 0.81578 0.82965
 C103 C -0.19736 0.80517 0.83507
 C104 C -0.18680 0.79968 0.82996
 C105 C -0.18118 0.80482 0.81945
 C106 C -0.17043 0.79957 0.81445
 C107 C -0.16470 0.80496 0.80415
 C108 C -0.16976 0.81556 0.79868
 H109 H -0.20995 0.83615 0.81779
 H110 H -0.18102 0.83596 0.79041
 H111 H -0.21059 0.82001 0.83373
 H112 H -0.18287 0.79153 0.83428
 H113 H -0.16639 0.79142 0.81867
 H114 H -0.16520 0.81970 0.79076
 C115 C 0.92976 0.32152 0.44566
 C116 C 0.93478 0.33233 0.45079
 C117 C 0.94513 0.33795 0.44536
 C118 C 0.95059 0.33275 0.43481
 C119 C 0.94568 0.32194 0.42956
 C120 C 0.93522 0.31629 0.43500
 C121 C 0.91923 0.31599 0.45085
 C122 C 0.91413 0.30536 0.44548
 C123 C 0.91957 0.30011 0.43496
 C124 C 0.93009 0.30552 0.42964
 C125 C 0.93541 0.30053 0.41891
 C126 C 0.94572 0.30621 0.41348
 C127 C 0.95088 0.31683 0.41881
 H128 H 0.93053 0.33646 0.45890
 H129 H 0.95854 0.33719 0.43060
 H130 H 0.91489 0.32004 0.45894
 H131 H 0.91550 0.29192 0.43082
 H132 H 0.93144 0.29236 0.41466
 H133 H 0.95880 0.32120 0.41448
 C134 C 0.42943 0.44432 0.82025
 C135 C 0.43476 0.44941 0.83094
 C136 C 0.44524 0.44395 0.83626
 C137 C 0.45055 0.43344 0.83088
 C138 C 0.44534 0.42822 0.82019
 C139 C 0.43472 0.43366 0.81484
 C140 C 0.41875 0.44951 0.81502
 C141 C 0.41332 0.44416 0.80454
 C142 C 0.41858 0.43364 0.79912
 C143 C 0.42926 0.42832 0.80422
 C144 C 0.43443 0.41760 0.79906
 C145 C 0.44491 0.41219 0.80442
 C146 C 0.45039 0.41751 0.81490
 H147 H 0.43066 0.45749 0.83524
 H148 H 0.45861 0.42923 0.83513
 H149 H 0.41454 0.45760 0.81920
 H150 H 0.41425 0.42951 0.79106
 H151 H 0.43021 0.41336 0.79100
 H152 H 0.45845 0.41319 0.81903
 C153 C 0.82193 0.92918 0.94441
 C154 C 0.81660 0.91856 0.94963
 C155 C 0.80616 0.91313 0.94416
 C156 C 0.80092 0.91833 0.93350
 C157 C 0.80612 0.92895 0.92817
 C158 C 0.81668 0.93440 0.93363
 C159 C 0.83255 0.93452 0.94964
 C160 C 0.83795 0.94497 0.94419
 C161 C 0.83271 0.95021 0.93354
 C162 C 0.82210 0.94498 0.92820
 C163 C 0.81696 0.94998 0.91738
 C164 C 0.80654 0.94452 0.91195
 C165 C 0.80111 0.93407 0.91734
 H166 H 0.82067 0.91443 0.95783
 H167 H 0.79289 0.91403 0.92926
 H168 H 0.83669 0.93046 0.95784
 H169 H 0.83698 0.95825 0.92933
 H170 H 0.82114 0.95803 0.91309
 H171 H 0.79309 0.92985 0.91301
 C172 C 0.32093 0.82177 0.30480
 C173 C 0.31579 0.83257 0.29978
 C174 C 0.30523 0.83787 0.30511
 C175 C 0.29966 0.83233 0.31543
 C176 C 0.30467 0.82152 0.32056
 C177 C 0.31536 0.81620 0.31524
 C178 C 0.33167 0.81655 0.29972
 C179 C 0.33688 0.80592 0.30498
 C180 C 0.33133 0.80034 0.31528
 C181 C 0.32058 0.80543 0.32048
 C182 C 0.31511 0.80009 0.33096
 C183 C 0.30454 0.80541 0.33625
 C184 C 0.29932 0.81606 0.33104
 H185 H 0.32011 0.83694 0.29183
 H186 H 0.29153 0.83652 0.31957
 H187 H 0.33608 0.82084 0.29179
 H188 H 0.33547 0.79216 0.31932
 H189 H 0.31913 0.79188 0.33510
 H190 H 0.29119 0.82015 0.33526
 C191 C 0.82146 0.42962 0.44483
 C192 C 0.81620 0.41909 0.45027
 C193 C 0.80566 0.41362 0.44507
 C194 C 0.80023 0.41869 0.43444
 C195 C 0.80536 0.42923 0.42888
 C196 C 0.81604 0.43473 0.43408
 C197 C 0.83219 0.43498 0.44979
 C198 C 0.83756 0.44531 0.44409
 C199 C 0.83215 0.45044 0.43347
 C200 C 0.82141 0.44520 0.42840
 C201 C 0.81609 0.45007 0.41760
 C202 C 0.80554 0.44457 0.41243
 C203 C 0.80017 0.43422 0.41808
 H204 H 0.82039 0.41503 0.45845
 H205 H 0.79213 0.41433 0.43043
 H206 H 0.83646 0.43101 0.45796
 H207 H 0.83639 0.45840 0.42906
 H208 H 0.82022 0.45803 0.41311
 H209 H 0.79206 0.42998 0.41396
 C210 C 0.94715 0.82010 -0.06889
 C211 C 0.95207 0.83088 -0.06360
 C212 C 0.94655 0.83612 -0.05310
 C213 C 0.93615 0.83055 -0.04774
 C214 C 0.93111 0.81978 -0.05291
 C215 C 0.93661 0.81451 -0.06355
 C216 C 0.95240 0.81497 -0.07960
 C217 C 0.94720 0.80438 -0.08501
 C218 C 0.93679 0.79878 -0.07966
 C219 C 0.93143 0.80380 -0.06896
 C220 C 0.92081 0.79847 -0.06373
 C221 C 0.91534 0.80376 -0.05324
 C222 C 0.92050 0.81433 -0.04781
 H223 H 0.96007 0.83531 -0.06772
 H224 H 0.93190 0.83472 -0.03966
 H225 H 0.96040 0.81931 -0.08383
 H226 H 0.93276 0.79064 -0.08394
 H227 H 0.91669 0.79033 -0.06791
 H228 H 0.91614 0.81841 -0.03974
 C229 C 0.32142 0.32079 0.80456
 C230 C 0.31649 0.33156 0.79927
 C231 C 0.30586 0.33702 0.80429
 C232 C 0.30002 0.33170 0.81456
 C233 C 0.30483 0.32093 0.81998
 C234 C 0.31559 0.31545 0.81498
 C235 C 0.33221 0.31540 0.79978
 C236 C 0.33722 0.30481 0.80532
 C237 C 0.33143 0.29947 0.81561
 C238 C 0.32063 0.30474 0.82051
 C239 C 0.31490 0.29962 0.83097
 C240 C 0.30427 0.30510 0.83594
 C241 C 0.29922 0.31569 0.83044
 H242 H 0.32098 0.33580 0.79136
 H243 H 0.29183 0.33603 0.81842
 H244 H 0.33681 0.31950 0.79186
 H245 H 0.33541 0.29132 0.81987
 H246 H 0.31879 0.29148 0.83535
 H247 H 0.29102 0.31990 0.83440
 C248 C 0.18032 0.55471 0.56938
 C249 C 0.16971 0.54947 0.56403
 C250 C 0.16431 0.55489 0.55356
 C251 C 0.16953 0.56550 0.54829
 C252 C 0.18012 0.57086 0.55352
 C253 C 0.18555 0.56546 0.56412
 C254 C 0.18562 0.54955 0.58005
 C255 C 0.19602 0.55505 0.58550
 C256 C 0.20126 0.56568 0.58028
 C257 C 0.19608 0.57096 0.56961
 C258 C 0.20106 0.58179 0.56448
 C259 C 0.19560 0.58715 0.55401
 C260 C 0.18522 0.58168 0.54851
 H261 H 0.16553 0.54131 0.56810
 H262 H 0.16521 0.56968 0.54024
 H263 H 0.18157 0.54138 0.58423
 H264 H 0.20925 0.56992 0.58463
 H265 H 0.20904 0.58615 0.56872
 H266 H 0.18102 0.58595 0.54046
 C267 C 0.57096 0.69483 0.07030
 C268 C 0.58176 0.69997 0.06527
 C269 C 0.58747 0.69445 0.05503
 C270 C 0.58238 0.68380 0.04968
 C271 C 0.57160 0.67853 0.05459
 C272 C 0.56585 0.68405 0.06495
 C273 C 0.56531 0.70012 0.08071
 C274 C 0.55468 0.69475 0.08582
 C275 C 0.54956 0.68410 0.08050
 C276 C 0.55509 0.67868 0.07009
 C277 C 0.55020 0.66786 0.06486
 C278 C 0.55595 0.66237 0.05463
 C279 C 0.56658 0.66771 0.04948
 H280 H 0.58582 0.70817 0.06939
 H281 H 0.58692 0.67955 0.04180
 H282 H 0.56925 0.70832 0.08495
 H283 H 0.54137 0.67997 0.08457
 H284 H 0.54202 0.66361 0.06882
 H285 H 0.57101 0.66334 0.04160
 C286 C 0.69703 0.17975 0.68029
 C287 C 0.70197 0.18485 0.66943
 C288 C 0.69632 0.19508 0.66385
 C289 C 0.68574 0.20036 0.66913
 C290 C 0.68066 0.19538 0.67999
 C291 C 0.68631 0.18502 0.68560
 C292 C 0.70245 0.16933 0.68579
 C293 C 0.69726 0.16413 0.69648
 C294 C 0.68667 0.16939 0.70181
 C295 C 0.68114 0.17981 0.69642
 C296 C 0.67037 0.18495 0.70150
 C297 C 0.66474 0.19517 0.69587
 C298 C 0.66989 0.20040 0.68519
 H299 H 0.71012 0.18077 0.66521
 H300 H 0.68138 0.20823 0.66469
 H301 H 0.71059 0.16517 0.68166
 H302 H 0.68265 0.16527 0.71004
 H303 H 0.66625 0.18091 0.70971
 H304 H 0.66541 0.20826 0.68086
 C305 C 1.06814 0.05239 0.18090
 C306 C 1.07898 0.04741 0.18601
 C307 C 1.08444 0.05291 0.19641
 C308 C 1.07904 0.06335 0.20186
 C309 C 1.06821 0.06846 0.19686
 C310 C 1.06272 0.06297 0.18632
 C311 C 1.06277 0.04715 0.17029
 C312 C 1.05213 0.05239 0.16505
 C313 C 1.04670 0.06285 0.17046
 C314 C 1.05195 0.06821 0.18107
 C315 C 1.04680 0.07888 0.18634
 C316 C 1.05231 0.08435 0.19673
 C317 C 1.06292 0.07912 0.20201
 H318 H 1.08329 0.03939 0.18181
 H319 H 1.08339 0.06759 0.20985
 H320 H 1.06698 0.03911 0.16601
 H321 H 1.03852 0.06692 0.16631
 H322 H 1.03864 0.08305 0.18226
 H323 H 1.06717 0.08349 0.21000
 C324 C 0.05351 0.17991 1.06959
 C325 C 0.04820 0.16940 1.06413
 C326 C 0.05357 0.16408 1.05359
 C327 C 0.06424 0.16929 1.04838
 C328 C 0.06967 0.17979 1.05372
 C329 C 0.06429 0.18514 1.06437
 C330 C 0.04838 0.18515 1.08030
 C331 C 0.05391 0.19549 1.08582
 C332 C 0.06454 0.20075 1.08061
 C333 C 0.06981 0.19562 1.06992
 C334 C 0.08065 0.20061 1.06482
 C335 C 0.08601 0.19523 1.05432
 C336 C 0.08052 0.18490 1.04875
 H337 H 0.03999 0.16527 1.06817
 H338 H 0.06840 0.16508 1.04026
 H339 H 0.04020 0.18109 1.08446
 H340 H 0.06880 0.20870 1.08499
 H341 H 0.08501 0.20857 1.06910
 H342 H 0.08479 0.18075 1.04067
 C343 C 0.17901 0.67948 0.69530
 C344 C 0.16815 0.68456 0.70024
 C345 C 0.16267 0.69490 0.69468
 C346 C 0.16806 0.70031 0.68421
 C347 C 0.17892 0.69534 0.67914
 C348 C 0.18444 0.68488 0.68470
 C349 C 0.18442 0.66895 0.70062
 C350 C 0.19511 0.66379 0.69543
 C351 C 0.20054 0.66916 0.68496
 C352 C 0.19525 0.67968 0.67953
 C353 C 0.20044 0.68495 0.66886
 C354 C 0.19493 0.69528 0.66333
 C355 C 0.18424 0.70050 0.66848
 H356 H 0.16386 0.68040 0.70830
 H357 H 0.16370 0.70827 0.67993
 H358 H 0.18024 0.66467 0.70867
 H359 H 0.20876 0.66504 0.68097
 H360 H 0.20867 0.68093 0.66476
 H361 H 0.17999 0.70845 0.66408
 C362 C 1.19710 0.18014 0.17998
 C363 C 1.20226 0.16940 0.18511
 C364 C 1.19701 0.16404 0.19570
 C365 C 1.18666 0.16947 0.20130
 C366 C 1.18139 0.18020 0.19628
 C367 C 1.18661 0.18557 0.18557
 C368 C 1.20205 0.18537 0.16918
 C369 C 1.19660 0.19588 0.16392
 C370 C 1.18625 0.20133 0.16949
 C371 C 1.18117 0.19622 0.18029
 C372 C 1.17058 0.20137 0.18572
 C373 C 1.16537 0.19596 0.19629
 C374 C 1.17079 0.18547 0.20160
 H375 H 1.21022 0.16510 0.18076
 H376 H 1.18258 0.16522 0.20944
 H377 H 1.21000 0.18116 0.16474
 H378 H 1.18204 0.20940 0.16529
 H379 H 1.16625 0.20943 0.18163
 H380 H 1.16662 0.18130 0.20972
 C381 C 0.67886 1.07160 0.55389
 C382 C 0.66814 1.06636 0.54877
 C383 C 0.66292 1.05573 0.55401
 C384 C 0.66844 1.05018 0.56435
 C385 C 0.67917 1.05528 0.56958
 C386 C 0.68441 1.06605 0.56435
 C387 C 0.68399 1.08241 0.54888
 C388 C 0.69454 1.08774 0.55425
 C389 C 0.70010 1.08220 0.56458
 C390 C 0.69509 1.07138 0.56970
 C391 C 0.70044 1.06591 0.58019
 C392 C 0.69521 1.05526 0.58539
 C393 C 0.68464 1.04994 0.58008
 H394 H 0.66375 1.07063 0.54081
 H395 H 0.66428 1.04199 0.56839
 H396 H 0.67968 1.08677 0.54092
 H397 H 0.70823 1.08640 0.56873
 H398 H 0.70857 1.07000 0.58442
 H399 H 0.68061 1.04174 0.58422
 C400 C 0.55293 0.56915 0.18064
 C401 C 0.54809 0.56383 0.16982
 C402 C 0.55382 0.55351 0.16449
 C403 C 0.56437 0.54836 0.16999
 C404 C 0.56933 0.55356 0.18081
 C405 C 0.56361 0.56401 0.18617
 C406 C 0.54746 0.57968 0.18586
 C407 C 0.55257 0.58512 0.19647
 C408 C 0.56310 0.58000 0.20202
 C409 C 0.56870 0.56946 0.19692
 C410 C 0.57946 0.56447 0.20218
 C411 C 0.58516 0.55416 0.19680
 C412 C 0.58008 0.54868 0.18620
 H413 H 0.53998 0.56780 0.16544
 H414 H 0.56879 0.54042 0.16574
 H415 H 0.53936 0.58377 0.18159
 H416 H 0.56704 0.58434 0.21017
 H417 H 0.58352 0.56870 0.21033
 H418 H 0.58463 0.54076 0.18205
 C419 C 0.68028 0.69634 0.17957
 C420 C 0.66954 0.70142 0.18479
 C421 C 0.66420 0.69603 0.19529
 C422 C 0.66961 0.68560 0.20074
 C423 C 0.68035 0.68040 0.19565
 C424 C 0.68572 0.68578 0.18501
 C425 C 0.68552 0.70147 0.16886
 C426 C 0.69606 0.69612 0.16354
 C427 C 0.70151 0.68569 0.16896
 C428 C 0.69639 0.68045 0.17967
 C429 C 0.70158 0.66982 0.18498
 C430 C 0.69621 0.66447 0.19549
 C431 C 0.68567 0.66977 0.20084
 H432 H 0.66522 0.70944 0.18059
 H433 H 0.66534 0.68144 0.20882
 H434 H 0.68132 0.70949 0.16454
 H435 H 0.70961 0.68157 0.16472
 H436 H 0.70969 0.66559 0.18085
 H437 H 0.68152 0.66550 0.20892
 C438 C 0.17992 0.05356 1.06952
 C439 C 0.16939 0.04834 1.06402
 C440 C 0.16403 0.05386 1.05358
 C441 C 0.16924 0.06459 1.04849
 C442 C 0.17977 0.06993 1.05389
 C443 C 0.18514 0.06442 1.06446
 C444 C 0.18518 0.04827 1.08014
 C445 C 0.19553 0.05372 1.08575
 C446 C 0.20076 0.06446 1.08071
 C447 C 0.19561 0.06988 1.07009
 C448 C 0.20060 0.08078 1.06513
 C449 C 0.19521 0.08626 1.05469
 C450 C 0.18488 0.08083 1.04905
 H451 H 0.16527 0.04008 1.06796
 H452 H 0.16500 0.06886 1.04045
 H453 H 0.18113 0.04000 1.08413
 H454 H 0.20873 0.06868 1.08514
 H455 H 0.20855 0.08510 1.06947
 H456 H 0.18073 0.08519 1.04101
 C457 C 0.57156 0.17831 0.55452
 C458 C 0.58236 0.18356 0.54962
 C459 C 0.58759 0.19407 0.55511
 C460 C 0.58201 0.19947 0.56549
 C461 C 0.57120 0.19435 0.57051
 C462 C 0.56593 0.18372 0.56502
 C463 C 0.56639 0.16764 0.54926
 C464 C 0.55574 0.16234 0.55438
 C465 C 0.55011 0.16771 0.56474
 C466 C 0.55515 0.17838 0.57013
 C467 C 0.54975 0.18368 0.58067
 C468 C 0.55502 0.19417 0.58614
 C469 C 0.56567 0.19952 0.58106
 H470 H 0.58680 0.17940 0.54164
 H471 H 0.58618 0.20756 0.56972
 H472 H 0.57073 0.16336 0.54128
 H473 H 0.54190 0.16348 0.56868
 H474 H 0.54154 0.17956 0.58472
 H475 H 0.56973 0.20760 0.58542
 C476 C 0.06921 0.55414 0.68142
 C477 C 0.07991 0.54904 0.68672
 C478 C 0.08537 0.55458 0.69709
 C479 C 0.08010 0.56519 0.70234
 C480 C 0.06941 0.57042 0.69717
 C481 C 0.06393 0.56489 0.68665
 C482 C 0.06390 0.54889 0.67080
 C483 C 0.05344 0.55428 0.66536
 C484 C 0.04813 0.56488 0.67058
 C485 C 0.05333 0.57026 0.68120
 C486 C 0.04830 0.58109 0.68629
 C487 C 0.05379 0.58659 0.69667
 C488 C 0.06427 0.58125 0.70213
 H489 H 0.08411 0.54089 0.68266
 H490 H 0.08446 0.56947 0.71031
 H491 H 0.06800 0.54074 0.66663
 H492 H 0.04010 0.56904 0.66623
 H493 H 0.04026 0.58535 0.68207
 H494 H 0.06851 0.58563 0.71010
 C495 C 0.67853 0.57164 0.05381
 C496 C 0.66786 0.56640 0.04861
 C497 C 0.66254 0.55583 0.05388
 C498 C 0.66792 0.55034 0.06432
 C499 C 0.67860 0.55546 0.06965
 C500 C 0.68394 0.56616 0.06439
 C501 C 0.68376 0.58240 0.04879
 C502 C 0.69424 0.58773 0.05425
 C503 C 0.69966 0.58229 0.06469
 C504 C 0.69456 0.57152 0.06983
 C505 C 0.69973 0.56616 0.08047
 C506 C 0.69439 0.55558 0.08570
 C507 C 0.68390 0.55022 0.08029
 H508 H 0.66358 0.57062 0.04057
 H509 H 0.66369 0.54220 0.06838
 H510 H 0.67958 0.58673 0.04076
 H511 H 0.70772 0.58653 0.06890
 H512 H 0.70780 0.57029 0.08478
 H513 H 0.67978 0.54208 0.08447
 C514 C 0.05478 0.68011 0.57125
 C515 C 0.04976 0.68535 0.58201
 C516 C 0.05535 0.69568 0.58747
 C517 C 0.06594 0.70094 0.58215
 C518 C 0.07108 0.69582 0.57138
 C519 C 0.06550 0.68534 0.56591
 C520 C 0.04943 0.66956 0.56590
 C521 C 0.05471 0.66421 0.55533
 C522 C 0.06529 0.66942 0.54997
 C523 C 0.07075 0.67997 0.55521
 C524 C 0.08152 0.68508 0.55009
 C525 C 0.08708 0.69542 0.55557
 C526 C 0.08185 0.70081 0.56614
 H527 H 0.04161 0.68130 0.58624
 H528 H 0.07024 0.70889 0.58650
 H529 H 0.04129 0.66541 0.57003
 H530 H 0.06935 0.66515 0.54185
 H531 H 0.08569 0.68093 0.54196
 H532 H 0.08628 0.70877 0.57036
 C533 C 0.55337 1.06885 0.67974
 C534 C 0.54849 1.06363 0.66890
 C535 C 0.55414 1.05328 0.66351
 C536 C 0.56467 1.04803 0.66899
 C537 C 0.56967 1.05316 0.67983
 C538 C 0.56400 1.06361 0.68525
 C539 C 0.54794 1.07937 0.68505
 C540 C 0.55304 1.08468 0.69573
 C541 C 0.56354 1.07946 0.70125
 C542 C 0.56910 1.06896 0.69605
 C543 C 0.57981 1.06385 0.70131
 C544 C 0.58546 1.05354 0.69587
 C545 C 0.58038 1.04817 0.68522
 H546 H 0.54039 1.06770 0.66458
 H547 H 0.56905 1.04007 0.66474
 H548 H 0.53986 1.08354 0.68081
 H549 H 0.56747 1.08369 0.70947
 H550 H 0.58386 1.06798 0.70951
 H551 H 0.58487 1.04024 0.68104
 C552 C 0.42998 0.31979 0.94567
 C553 C 0.43523 0.33037 0.95103
 C554 C 0.44575 0.33583 0.94577
 C555 C 0.45118 0.33066 0.93518
 C556 C 0.44603 0.32008 0.92969
 C557 C 0.43537 0.31462 0.93493
 C558 C 0.41925 0.31446 0.95066
 C559 C 0.41387 0.30410 0.94502
 C560 C 0.41924 0.29892 0.93442
 C561 C 0.42997 0.30413 0.92931
 C562 C 0.43522 0.29922 0.91850
 C563 C 0.44574 0.30469 0.91328
 C564 C 0.45117 0.31504 0.91889
 H565 H 0.43102 0.33447 0.95918
 H566 H 0.45926 0.33498 0.93110
 H567 H 0.41497 0.31846 0.95881
 H568 H 0.41495 0.29097 0.93007
 H569 H 0.43104 0.29126 0.91404
 H570 H 0.45926 0.31927 0.91472
 C571 C 0.92809 0.44379 0.32259
 C572 C 0.93331 0.44909 0.33324
 C573 C 0.94382 0.44381 0.33870
 C574 C 0.94925 0.43325 0.33349
 C575 C 0.94414 0.42784 0.32284
 C576 C 0.93351 0.43311 0.31736
 C577 C 0.91742 0.44885 0.31720
 C578 C 0.91213 0.44333 0.30673
 C579 C 0.91751 0.43278 0.30150
 C580 C 0.92818 0.42760 0.30676
 C581 C 0.93350 0.41689 0.30174
 C582 C 0.94401 0.41165 0.30722
 C583 C 0.94935 0.41712 0.31770
 H584 H 0.92911 0.45722 0.33735
 H585 H 0.95735 0.42916 0.33780
 H586 H 0.91314 0.45698 0.32122
 H587 H 0.91329 0.42853 0.29343
 H588 H 0.92939 0.41254 0.29368
 H589 H 0.95744 0.41295 0.32191
 C590 C 0.31963 0.94657 0.42962
 C591 C 0.31447 0.95141 0.41873
 C592 C 0.30391 0.94599 0.41351
 C593 C 0.29834 0.93577 0.41920
 C594 C 0.30338 0.93081 0.43009
 C595 C 0.31408 0.93621 0.43533
 C596 C 0.33039 0.95172 0.43474
 C597 C 0.33565 0.94660 0.44544
 C598 C 0.33011 0.93637 0.45116
 C599 C 0.31935 0.93111 0.44616
 C600 C 0.31391 0.92068 0.45164
 C601 C 0.30335 0.91531 0.44638
 C602 C 0.29806 0.92038 0.43569
 H603 H 0.31875 0.95927 0.41420
 H604 H 0.29022 0.93160 0.41505
 H605 H 0.33477 0.95958 0.43030
 H606 H 0.33428 0.93240 0.45939
 H607 H 0.31798 0.91663 0.45987
 H608 H 0.28994 0.91610 0.43164
 O609 O 0.24965 0.53322 0.73378
 O610 O 0.27071 0.52930 0.73550
 O611 O 0.23486 0.50081 0.71644
 O612 O 0.23451 0.48043 0.72001
 O613 O 0.21725 0.51592 0.74890
 O614 O 0.22170 0.51492 0.77047
 O615 O 0.26672 0.46798 0.75008
 O616 O 0.26439 0.47157 0.72903
 O617 O 0.28256 0.49929 0.76580
 O618 O 0.27818 0.52158 0.76507
 O619 O 0.25110 0.48404 0.78186
 O620 O 0.22896 0.48461 0.77741
 O621 O 0.25177 0.46779 0.76497
 O622 O 0.22882 0.47213 0.76355
 O623 O 0.26587 0.49904 0.78217
 O624 O 0.26441 0.52182 0.77764
 O625 O 0.28266 0.48431 0.75099
 O626 O 0.27876 0.48856 0.72858
 O627 O 0.23484 0.53320 0.74884
 O628 O 0.23567 0.52839 0.77078
 O629 O 0.21731 0.50112 0.73390
 O630 O 0.22243 0.47880 0.73577
 O631 O 0.24944 0.51603 0.71669
 O632 O 0.27173 0.51329 0.72174
 Zr633 Zr 0.25705 0.51528 0.73464
 O634 O 0.26890 0.50452 0.74575
 Zr635 Zr 0.23526 0.49354 0.73450
 O636 O 0.24640 0.48170 0.74523
 Zr637 Zr 0.23523 0.51519 0.75635
 O638 O 0.24602 0.50413 0.76824
 Zr639 Zr 0.26520 0.48577 0.74250
 O640 O 0.25410 0.49648 0.73043
 Zr641 Zr 0.26484 0.50725 0.76455
 O642 O 0.25403 0.51925 0.75351
 Zr643 Zr 0.24328 0.48533 0.76407
 O644 O 0.23115 0.49639 0.75334
 O645 O 0.23830 0.51221 0.73763
 O646 O 0.26206 0.48850 0.76134
 C647 C 0.24111 0.53844 0.74019
 C648 C 0.24102 0.50959 0.71133
 C649 C 0.21205 0.50968 0.74023
 C650 C 0.26069 0.46280 0.75890
 C651 C 0.28769 0.49040 0.75986
 C652 C 0.25985 0.49010 0.78712
 H653 H 0.27760 0.50654 0.74379
 H654 H 0.24388 0.50604 0.77693
 H655 H 0.23303 0.51750 0.73234
 H656 H 0.24462 0.47301 0.74306
 H657 H 0.26174 0.47553 0.72120
 H658 H 0.24079 0.47407 0.72188
 H659 H 0.25739 0.52031 0.78331
 H660 H 0.24376 0.53264 0.77019
 H661 H 0.28465 0.48154 0.72893
 H662 H 0.27098 0.51986 0.71538
 H663 H 0.22935 0.49232 0.78231
 H664 H 0.21792 0.50658 0.77026
 H665 H 0.27056 0.53262 0.74403
 H666 H 0.28332 0.52088 0.75753
 H667 H 0.21752 0.48019 0.74337
 H668 H 0.23050 0.46639 0.75662
 O669 O 0.21664 0.01565 0.24833
 O670 O 0.22044 0.01403 0.26948
 O671 O 0.24910 0.03304 0.23374
 O672 O 0.26947 0.02957 0.23337
 O673 O 0.23421 0.00037 0.21618
 O674 O 0.23530 -0.02111 0.22076
 O675 O 0.28197 -0.00007 0.26593
 O676 O 0.27822 0.02089 0.26348
 O677 O 0.25065 -0.01590 0.28171
 O678 O 0.22837 -0.01538 0.27718
 O679 O 0.26622 -0.03204 0.25043
 O680 O 0.26572 -0.02778 0.22826
 O681 O 0.28236 -0.01500 0.25104
 O682 O 0.27804 -0.01382 0.22804
 O683 O 0.25113 -0.03237 0.26511
 O684 O 0.22831 -0.02804 0.26351
 O685 O 0.26555 -0.00102 0.28182
 O686 O 0.26115 0.02130 0.27776
 O687 O 0.21684 0.00048 0.23363
 O688 O 0.22178 -0.02141 0.23470
 O689 O 0.24888 0.01550 0.21623
 O690 O 0.27124 0.01376 0.22148
 O691 O 0.23378 0.03280 0.24822
 O692 O 0.23635 0.02788 0.27055
 Zr693 Zr 0.23455 0.01491 0.25591
 O694 O 0.24534 0.00397 0.26789
 Zr695 Zr 0.25642 0.01504 0.23423
 O696 O 0.26829 0.00451 0.24552
 Zr697 Zr 0.23490 -0.00692 0.23421
 O698 O 0.24601 -0.01864 0.24513
 Zr699 Zr 0.26411 0.00733 0.26428
 O700 O 0.25336 0.01922 0.25304
 Zr701 Zr 0.24277 -0.01485 0.26393
 O702 O 0.23073 -0.00398 0.25298
 Zr703 Zr 0.26481 -0.01435 0.24248
 O704 O 0.25372 -0.00381 0.23021
 O705 O 0.23774 0.01182 0.23718
 O706 O 0.26154 -0.01152 0.26123
 C707 C 0.21151 0.00917 0.23977
 C708 C 0.24027 0.03814 0.23983
 C709 C 0.24041 0.00904 0.21096
 C710 C 0.28727 -0.00884 0.25995
 C711 C 0.25949 -0.00988 0.28687
 C712 C 0.26015 -0.03729 0.25917
 H713 H 0.24327 0.00597 0.27657
 H714 H 0.24418 -0.02734 0.24304
 H715 H 0.23245 0.01705 0.23185
 H716 H 0.27698 0.00674 0.24376
 H717 H 0.27421 0.02866 0.26076
 H718 H 0.27575 0.02787 0.23981
 H719 H 0.22991 -0.03375 0.25653
 H720 H 0.21750 -0.02078 0.24278
 H721 H 0.26816 0.02105 0.28368
 H722 H 0.22973 0.03418 0.26973
 H723 H 0.25802 -0.03272 0.22861
 H724 H 0.24368 -0.02091 0.21706
 H725 H 0.21712 0.00550 0.26928
 H726 H 0.22896 -0.00779 0.28225
 H727 H 0.26986 0.00618 0.21654
 H728 H 0.28373 -0.00685 0.22969
 O729 O 0.53254 0.73410 0.24788
 O730 O 0.52882 0.73572 0.26907
 O731 O 0.49984 0.71725 0.23326
 O732 O 0.47950 0.72097 0.23302
 O733 O 0.51507 0.74974 0.21581
 O734 O 0.51431 0.77126 0.22054
 O735 O 0.46750 0.75074 0.26565
 O736 O 0.47092 0.72973 0.26314
 O737 O 0.49910 0.76604 0.28147
 O738 O 0.52135 0.76518 0.27692
 O739 O 0.48371 0.78250 0.25027
 O740 O 0.48414 0.77831 0.22805
 O741 O 0.46732 0.76573 0.25081
 O742 O 0.47152 0.76460 0.22784
 O743 O 0.49885 0.78256 0.26492
 O744 O 0.52161 0.77785 0.26326
 O745 O 0.48397 0.75140 0.28152
 O746 O 0.48802 0.72902 0.27739
 O747 O 0.53252 0.74931 0.23324
 O748 O 0.52796 0.77122 0.23437
 O749 O 0.50017 0.73485 0.21585
 O750 O 0.47789 0.73688 0.22117
 O751 O 0.51518 0.71718 0.24773
 O752 O 0.51273 0.72205 0.27009
 Zr753 Zr 0.51467 0.73506 0.25551
 O754 O 0.50407 0.74611 0.26755
 Zr755 Zr 0.49273 0.73534 0.23387
 O756 O 0.48106 0.74602 0.24521
 Zr757 Zr 0.51458 0.75698 0.23389
 O758 O 0.50369 0.76882 0.24489
 Zr759 Zr 0.48524 0.74307 0.26396
 O760 O 0.49579 0.73105 0.25266
 Zr761 Zr 0.50692 0.76491 0.26366
 O762 O 0.51876 0.75390 0.25264
 Zr763 Zr 0.48482 0.76483 0.24223
 O764 O 0.49571 0.75415 0.22991
 O765 O 0.51147 0.73827 0.23680
 O766 O 0.48810 0.76188 0.26098
 C767 C 0.53773 0.74053 0.23934
 C768 C 0.50861 0.71199 0.23930
 C769 C 0.50871 0.74119 0.21057
 C770 C 0.46233 0.75962 0.25971
 C771 C 0.49017 0.76014 0.28660
 C772 C 0.48988 0.78762 0.25902
 H773 H 0.50613 0.74405 0.27623
 H774 H 0.50566 0.77750 0.24283
 H775 H 0.51666 0.73299 0.23142
 H776 H 0.47232 0.74393 0.24345
 H777 H 0.47480 0.72191 0.26037
 H778 H 0.47323 0.72277 0.23942
 H779 H 0.52010 0.78359 0.25630
 H780 H 0.53222 0.77054 0.24246
 H781 H 0.48104 0.72937 0.28334
 H782 H 0.51927 0.71567 0.26923
 H783 H 0.49186 0.78319 0.22850
 H784 H 0.50594 0.77116 0.21682
 H785 H 0.53232 0.74417 0.26883
 H786 H 0.52069 0.75755 0.28192
 H787 H 0.47934 0.74449 0.21629
 H788 H 0.46575 0.75768 0.22944
 O789 O -0.00042 0.76684 0.78364
 O790 O 0.02062 0.76522 0.77941
 O791 O -0.01582 0.78368 0.75128
 O792 O -0.01657 0.77993 0.73094
 O793 O -0.03292 0.75122 0.76699
 O794 O -0.02829 0.72973 0.76613
 O795 O 0.01574 0.75011 0.71818
 O796 O 0.01329 0.77114 0.72164
 O797 O 0.03223 0.73483 0.74938
 O798 O 0.02826 0.73570 0.77173
 O799 O 0.00062 0.71836 0.73478
 O800 O -0.02151 0.72262 0.73564
 O801 O 0.00092 0.73510 0.71835
 O802 O -0.02201 0.73638 0.72310
 O803 O 0.01565 0.71831 0.74954
 O804 O 0.01457 0.72305 0.77235
 O805 O 0.03196 0.74949 0.73426
 O806 O 0.02794 0.77187 0.73842
 O807 O -0.01509 0.75166 0.78400
 O808 O -0.01406 0.72970 0.77938
 O809 O -0.03326 0.76608 0.75206
 O810 O -0.02847 0.76405 0.72962
 O811 O -0.00097 0.78371 0.76625
 O812 O 0.02131 0.77881 0.76328
 Zr813 Zr 0.00675 0.76584 0.76558
 O814 O 0.01849 0.75476 0.75469
 Zr815 Zr -0.01543 0.76558 0.74417
 O816 O -0.00439 0.75488 0.73221
 Zr817 Zr -0.01489 0.74397 0.76603
 O818 O -0.00420 0.73210 0.75486
 Zr819 Zr 0.01445 0.75781 0.73595
 O820 O 0.00344 0.76985 0.74676
 Zr821 Zr 0.01464 0.73598 0.75764
 O822 O 0.00395 0.74701 0.76976
 Zr823 Zr -0.00730 0.73607 0.73605
 O824 O -0.01933 0.74677 0.74725
 O825 O -0.01203 0.76266 0.76284
 O826 O 0.01151 0.73900 0.73888
 C827 C -0.00884 0.76044 0.78906
 C828 C -0.00954 0.78892 0.75990
 C829 C -0.03832 0.75976 0.76075
 C830 C 0.00971 0.74119 0.71316
 C831 C 0.03716 0.74073 0.74034
 C832 C 0.00951 0.71323 0.74073
 H833 H 0.02721 0.75681 0.75655
 H834 H -0.00624 0.72342 0.75688
 H835 H -0.01727 0.76795 0.76816
 H836 H -0.00634 0.75696 0.72351
 H837 H 0.01065 0.77896 0.72559
 H838 H -0.01032 0.77812 0.72452
 H839 H 0.00756 0.71733 0.77101
 H840 H -0.00592 0.73046 0.78353
 H841 H 0.03371 0.77152 0.73130
 H842 H 0.02060 0.78523 0.76980
 H843 H -0.02101 0.71785 0.74343
 H844 H -0.03222 0.72983 0.75785
 H845 H 0.02052 0.75675 0.78289
 H846 H 0.03322 0.74334 0.77097
 H847 H -0.03334 0.75646 0.73119
 H848 H -0.02044 0.74320 0.71721
 O849 O 0.00081 0.03370 0.01552
 O850 O -0.02028 0.02973 0.01382
 O851 O 0.01552 0.00139 0.03315
 O852 O 0.01608 -0.01897 0.02971
 O853 O 0.03316 0.01627 0.00048
 O854 O 0.02867 0.01509 -0.02106
 O855 O -0.01625 -0.03176 -0.00011
 O856 O -0.01395 -0.02792 0.02087
 O857 O -0.03215 -0.00060 -0.01614
 O858 O -0.02782 0.02164 -0.01568
 O859 O -0.00067 -0.01596 -0.03210
 O860 O 0.02136 -0.01543 -0.02775
 O861 O -0.00132 -0.03208 -0.01501
 O862 O 0.02169 -0.02759 -0.01364
 O863 O -0.01545 -0.00099 -0.03255
 O864 O -0.01401 0.02184 -0.02820
 O865 O -0.03223 -0.01545 -0.00121
 O866 O -0.02831 -0.01093 0.02116
 O867 O 0.01557 0.03354 0.00042
 O868 O 0.01470 0.02850 -0.02147
 O869 O 0.03314 0.00164 0.01564
 O870 O 0.02801 -0.02072 0.01397
 O871 O 0.00096 0.01660 0.03280
 O872 O -0.02130 0.01392 0.02774
 Zr873 Zr -0.00662 0.01574 0.01483
 O874 O -0.01846 0.00485 0.00383
 Zr875 Zr 0.01519 -0.00597 0.01513
 O876 O 0.00403 -0.01794 0.00455
 Zr877 Zr 0.01518 0.01545 -0.00691
 O878 O 0.00439 0.00425 -0.01868
 Zr879 Zr -0.01476 -0.01388 0.00725
 O880 O -0.00365 -0.00302 0.01920
 Zr881 Zr -0.01443 0.00738 -0.01500
 O882 O -0.00362 0.01951 -0.00408
 Zr883 Zr 0.00714 -0.01450 -0.01433
 O884 O 0.01928 -0.00331 -0.00373
 O885 O 0.01214 0.01267 0.01185
 O886 O -0.01164 -0.01134 -0.01161
 C887 C 0.00933 0.03886 0.00904
 C888 C 0.00934 0.01016 0.03822
 C889 C 0.03839 0.01011 0.00918
 C890 C -0.01021 -0.03704 -0.00886
 C891 C -0.03728 -0.00945 -0.01013
 C892 C -0.00941 -0.00996 -0.03742
 H893 H -0.02717 0.00687 0.00577
 H894 H 0.00652 0.00607 -0.02738
 H895 H 0.01742 0.01800 0.01711
 H896 H 0.00584 -0.02661 0.00681
 H897 H -0.01130 -0.02388 0.02866
 H898 H 0.00964 -0.02524 0.02804
 H899 H -0.00700 0.02029 -0.03386
 H900 H 0.00662 0.03277 -0.02090
 H901 H -0.03420 -0.01796 0.02089
 H902 H -0.02054 0.02055 0.03405
 H903 H 0.02116 -0.00764 -0.03254
 H904 H 0.03251 0.00679 -0.02075
 H905 H -0.02006 0.03304 0.00528
 H906 H -0.03282 0.02114 -0.00804
 H907 H 0.03297 -0.01936 0.00639
 H908 H 0.01995 -0.03337 -0.00675
 O909 O 0.03264 0.51658 0.50133
 O910 O 0.02879 0.51495 0.48019
 O911 O 0.00005 0.53375 0.51595
 O912 O -0.02031 0.53008 0.51637
 O913 O 0.01526 0.50134 0.53356
 O914 O 0.01425 0.47977 0.52903
 O915 O -0.03257 0.50028 0.48383
 O916 O -0.02901 0.52127 0.48626
 O917 O -0.00119 0.48466 0.46808
 O918 O 0.02112 0.48546 0.47255
 O919 O -0.01651 0.46847 0.49940
 O920 O -0.01612 0.47271 0.52148
 O921 O -0.03281 0.48535 0.49873
 O922 O -0.02845 0.48669 0.52180
 O923 O -0.00142 0.46825 0.48472
 O924 O 0.02135 0.47285 0.48625
 O925 O -0.01619 0.49943 0.46797
 O926 O -0.01195 0.52179 0.47195
 O927 O 0.03258 0.50145 0.51605
 O928 O 0.02780 0.47955 0.51513
 O929 O 0.00043 0.51629 0.53348
 O930 O -0.02193 0.51429 0.52826
 O931 O 0.01539 0.53363 0.50149
 O932 O 0.01278 0.52865 0.47914
 Zr933 Zr 0.01471 0.51572 0.49380
 O934 O 0.00400 0.50466 0.48185
 Zr935 Zr -0.00713 0.51568 0.51550
 O936 O -0.01893 0.50502 0.50424
 Zr937 Zr 0.01457 0.49393 0.51555
 O938 O 0.00356 0.48209 0.50465
 Zr939 Zr -0.01479 0.50785 0.48547
 O940 O -0.00413 0.51987 0.49668
 Zr941 Zr 0.00674 0.48587 0.48584
 O942 O 0.01870 0.49687 0.49677
 Zr943 Zr -0.01528 0.48620 0.50731
 O944 O -0.00427 0.49687 0.51956
 O945 O 0.01157 0.51263 0.51253
 O946 O -0.01204 0.48903 0.48855
 C947 C 0.03783 0.51015 0.50987
 C948 C 0.00885 0.53892 0.50988
 C949 C 0.00900 0.50998 0.53876
 C950 C -0.03778 0.49144 0.48980
 C951 C -0.01010 0.49059 0.46294
 C952 C -0.01040 0.46326 0.49068
 H953 H 0.00605 0.50665 0.47315
 H954 H 0.00547 0.47341 0.50675
 H955 H 0.01683 0.51792 0.51784
 H956 H -0.02764 0.50717 0.50601
 H957 H -0.02506 0.52911 0.48889
 H958 H -0.02649 0.52841 0.50983
 H959 H 0.01985 0.46716 0.49326
 H960 H 0.03204 0.48014 0.50703
 H961 H -0.01897 0.52147 0.46604
 H962 H 0.01932 0.53504 0.47997
 H963 H -0.00826 0.46804 0.52130
 H964 H 0.00593 0.48002 0.53285
 H965 H 0.03217 0.50645 0.48036
 H966 H 0.02041 0.49300 0.46742
 H967 H -0.02047 0.50675 0.53323
 H968 H -0.03431 0.49350 0.52005
 O969 O 0.46669 -0.00158 0.48405
 O970 O 0.47069 0.01950 0.48542
 O971 O 0.49924 -0.01673 0.46731
 O972 O 0.51955 -0.01731 0.47110
 O973 O 0.48368 -0.03367 0.49997
 O974 O 0.48455 -0.02880 0.52149
 O975 O 0.53199 0.01547 0.50049
 O976 O 0.52848 0.01275 0.47949
 O977 O 0.50067 0.03180 0.51572
 O978 O 0.47840 0.02760 0.51497
 O979 O 0.51561 0.00055 0.53251
 O980 O 0.51502 -0.02151 0.52858
 O981 O 0.53201 0.00083 0.51568
 O982 O 0.52740 -0.02218 0.51466
 O983 O 0.50069 0.01538 0.53247
 O984 O 0.47787 0.01401 0.52770
 O985 O 0.51573 0.03152 0.50099
 O986 O 0.51160 0.02722 0.47865
 O987 O 0.46652 -0.01605 0.49943
 O988 O 0.47117 -0.01477 0.52140
 O989 O 0.49856 -0.03398 0.48506
 O990 O 0.52096 -0.02897 0.48714
 O991 O 0.48405 -0.00213 0.46712
 O992 O 0.48682 0.02024 0.47182
 Zr993 Zr 0.48467 0.00580 0.48495
 O994 O 0.49545 0.01778 0.49591
 Zr995 Zr 0.50630 -0.01610 0.48543
 O996 O 0.51816 -0.00482 0.49600
 Zr997 Zr 0.48449 -0.01558 0.50709
 O998 O 0.49556 -0.00464 0.51884
 Zr999 Zr 0.51421 0.01392 0.49286
 O1000 O 0.50350 0.00266 0.48094
 Zr1001 Zr 0.49259 0.01412 0.51477
 O1002 O 0.48057 0.00318 0.50385
 Zr1003 Zr 0.51439 -0.00755 0.51487
 O1004 O 0.50330 -0.01983 0.50432
 O1005 O 0.48762 -0.01289 0.48834
 O1006 O 0.51137 0.01117 0.51175
 C1007 C 0.46138 -0.00998 0.49057
 C1008 C 0.49054 -0.01064 0.46198
 C1009 C 0.48992 -0.03906 0.49143
 C1010 C 0.53710 0.00958 0.50945
 C1011 C 0.50963 0.03676 0.50972
 C1012 C 0.50955 0.00939 0.53759
 H1013 H 0.49350 0.02645 0.49377
 H1014 H 0.49358 -0.00659 0.52756
 H1015 H 0.48234 -0.01822 0.48309
 H1016 H 0.52686 -0.00670 0.49392
 H1017 H 0.52453 0.00997 0.47170
 H1018 H 0.52590 -0.01096 0.47282
 H1019 H 0.47933 0.00715 0.53357
 H1020 H 0.46699 -0.00667 0.52062
 H1021 H 0.51868 0.03305 0.47891
 H1022 H 0.48033 0.01937 0.46537
 H1023 H 0.50714 -0.02119 0.53321
 H1024 H 0.49284 -0.03268 0.52139
 H1025 H 0.46727 0.01949 0.49392
 H1026 H 0.47906 0.03245 0.50724
 H1027 H 0.51938 -0.03383 0.49474
 H1028 H 0.53332 -0.02058 0.50786
 O1029 O 0.46606 0.49856 -0.01531
 O1030 O 0.47008 0.51967 -0.01380
 O1031 O 0.49833 0.48351 -0.03253
 O1032 O 0.51875 0.48306 -0.02904
 O1033 O 0.48330 0.46639 0.00023
 O1034 O 0.48443 0.47114 0.02175
 O1035 O 0.53154 0.51557 0.00045
 O1036 O 0.52777 0.51300 -0.02054
 O1037 O 0.50045 0.53177 0.01619
 O1038 O 0.47810 0.52757 0.01556
 O1039 O 0.51552 0.50047 0.03259
 O1040 O 0.51479 0.47827 0.02837
 O1041 O 0.53175 0.50087 0.01557
 O1042 O 0.52731 0.47799 0.01459
 O1043 O 0.50055 0.51527 0.03280
 O1044 O 0.47776 0.51397 0.02829
 O1045 O 0.51534 0.53159 0.00129
 O1046 O 0.51087 0.52747 -0.02104
 O1047 O 0.46611 0.48397 -0.00005
 O1048 O 0.47100 0.48517 0.02189
 O1049 O 0.49801 0.46618 -0.01486
 O1050 O 0.52039 0.47122 -0.01313
 O1051 O 0.48317 0.49814 -0.03244
 O1052 O 0.48602 0.52044 -0.02770
 Zr1053 Zr 0.48404 0.50596 -0.01458
 O1054 O 0.49495 0.51789 -0.00369
 Zr1055 Zr 0.50570 0.48409 -0.01451
 O1056 O 0.51767 0.49531 -0.00400
 Zr1057 Zr 0.48415 0.48445 0.00743
 O1058 O 0.49534 0.49534 0.01911
 Zr1059 Zr 0.51368 0.51406 -0.00698
 O1060 O 0.50282 0.50287 -0.01884
 Zr1061 Zr 0.49231 0.51411 0.01518
 O1062 O 0.48017 0.50321 0.00435
 Zr1063 Zr 0.51413 0.49246 0.01490
 O1064 O 0.50294 0.48024 0.00439
 O1065 O 0.48705 0.48726 -0.01134
 O1066 O 0.51105 0.51119 0.01192
 C1067 C 0.46085 0.49009 -0.00881
 C1068 C 0.48956 0.48962 -0.03769
 C1069 C 0.48946 0.46105 -0.00840
 C1070 C 0.53676 0.50965 0.00933
 C1071 C 0.50936 0.53676 0.01015
 C1072 C 0.50948 0.50926 0.03779
 H1073 H 0.49298 0.52658 -0.00576
 H1074 H 0.49346 0.49333 0.02783
 H1075 H 0.48172 0.48193 -0.01655
 H1076 H 0.52635 0.49345 -0.00619
 H1077 H 0.52373 0.51030 -0.02831
 H1078 H 0.52514 0.48937 -0.02731
 H1079 H 0.47918 0.50695 0.03399
 H1080 H 0.46674 0.49324 0.02114
 H1081 H 0.51794 0.53331 -0.02082
 H1082 H 0.47937 0.51966 -0.03399
 H1083 H 0.50716 0.47883 0.03338
 H1084 H 0.49273 0.46729 0.02153
 H1085 H 0.46675 0.51957 -0.00527
 H1086 H 0.47877 0.53256 0.00792
 H1087 H 0.51901 0.46641 -0.00546
 H1088 H 0.53291 0.47943 0.00749
 O1089 O 0.76691 0.28297 0.49963
 O1090 O 0.76537 0.27879 0.52073
 O1091 O 0.78347 0.25042 0.48431
 O1092 O 0.77950 0.23013 0.48364
 O1093 O 0.75115 0.26639 0.46722
 O1094 O 0.72959 0.26560 0.47187
 O1095 O 0.74970 0.21779 0.51610
 O1096 O 0.77075 0.22106 0.51361
 O1097 O 0.73474 0.24919 0.53254
 O1098 O 0.73583 0.27151 0.52842
 O1099 O 0.71803 0.23458 0.50110
 O1100 O 0.72212 0.23538 0.47893
 O1101 O 0.73466 0.21803 0.50129
 O1102 O 0.73581 0.22272 0.47836
 O1103 O 0.71816 0.24943 0.51603
 O1104 O 0.72310 0.27215 0.51481
 O1105 O 0.74924 0.23393 0.53228
 O1106 O 0.77165 0.23785 0.52821
 O1107 O 0.75165 0.28340 0.48502
 O1108 O 0.72968 0.27895 0.48598
 O1109 O 0.76588 0.25133 0.46694
 O1110 O 0.76358 0.22895 0.47178
 O1111 O 0.78369 0.26550 0.49904
 O1112 O 0.77889 0.26258 0.52136
 Zr1113 Zr 0.76583 0.26496 0.50686
 O1114 O 0.75469 0.25424 0.51870
 Zr1115 Zr 0.76529 0.24349 0.48479
 O1116 O 0.75451 0.23170 0.49591
 Zr1117 Zr 0.74386 0.26551 0.48526
 O1118 O 0.73192 0.25453 0.49607
 Zr1119 Zr 0.75755 0.23547 0.51474
 O1120 O 0.76966 0.24612 0.50363
 Zr1121 Zr 0.73591 0.25734 0.51489
 O1122 O 0.74701 0.26928 0.50409
 Zr1123 Zr 0.73571 0.23569 0.49305
 O1124 O 0.74648 0.24671 0.48091
 O1125 O 0.76255 0.26217 0.48810
 O1126 O 0.73874 0.23857 0.51184
 C1127 C 0.76049 0.28841 0.49123
 C1128 C 0.78882 0.25904 0.49049
 C1129 C 0.75967 0.26009 0.46186
 C1130 C 0.74074 0.21282 0.51009
 C1131 C 0.74056 0.24012 0.53749
 C1132 C 0.71299 0.24063 0.50998
 H1133 H 0.75679 0.25611 0.52741
 H1134 H 0.72325 0.25661 0.49406
 H1135 H 0.76787 0.26744 0.48284
 H1136 H 0.75651 0.22299 0.49398
 H1137 H 0.77862 0.22493 0.51096
 H1138 H 0.77770 0.22381 0.49000
 H1139 H 0.71732 0.27083 0.50783
 H1140 H 0.73037 0.28302 0.49416
 H1141 H 0.77125 0.23076 0.53401
 H1142 H 0.78535 0.26906 0.52061
 H1143 H 0.71744 0.24322 0.47942
 H1144 H 0.72967 0.25733 0.46794
 H1145 H 0.75695 0.28237 0.52060
 H1146 H 0.74343 0.27064 0.53343
 H1147 H 0.75598 0.23059 0.46693
 H1148 H 0.74266 0.21684 0.47986
 O1149 O 0.76647 0.78369 -0.00107
 O1150 O 0.76495 0.77968 0.02011
 O1151 O 0.78312 0.75121 -0.01624
 O1152 O 0.77934 0.73089 -0.01663
 O1153 O 0.75049 0.76669 -0.03326
 O1154 O 0.72902 0.76597 -0.02840
 O1155 O 0.74971 0.71854 0.01600
 O1156 O 0.77072 0.72192 0.01337
 O1157 O 0.73463 0.74996 0.03229
 O1158 O 0.73557 0.77224 0.02803
 O1159 O 0.71786 0.73505 0.00104
 O1160 O 0.72194 0.73576 -0.02126
 O1161 O 0.73458 0.71859 0.00128
 O1162 O 0.73552 0.72303 -0.02162
 O1163 O 0.71797 0.75000 0.01586
 O1164 O 0.72277 0.77272 0.01446
 O1165 O 0.74925 0.73480 0.03207
 O1166 O 0.77162 0.73884 0.02782
 O1167 O 0.75116 0.78391 -0.01563
 O1168 O 0.72919 0.77940 -0.01439
 O1169 O 0.76534 0.75176 -0.03353
 O1170 O 0.76336 0.72946 -0.02846
 O1171 O 0.78331 0.76633 -0.00154
 O1172 O 0.77863 0.76361 0.02079
 Zr1173 Zr 0.76549 0.76575 0.00634
 O1174 O 0.75449 0.75503 0.01831
 Zr1175 Zr 0.76500 0.74413 -0.01558
 O1176 O 0.75434 0.73234 -0.00432
 Zr1177 Zr 0.74341 0.76600 -0.01514
 O1178 O 0.73160 0.75502 -0.00420
 Zr1179 Zr 0.75744 0.73626 0.01447
 O1180 O 0.76943 0.74692 0.00323
 Zr1181 Zr 0.73566 0.75800 0.01459
 O1182 O 0.74663 0.76994 0.00364
 Zr1183 Zr 0.73549 0.73619 -0.00711
 O1184 O 0.74614 0.74719 -0.01936
 O1185 O 0.76213 0.76281 -0.01239
 O1186 O 0.73860 0.73922 0.01165
 C1187 C 0.76002 0.78901 -0.00952
 C1188 C 0.78844 0.75988 -0.01009
 C1189 C 0.75896 0.76037 -0.03865
 C1190 C 0.74075 0.71348 0.01007
 C1191 C 0.74055 0.74096 0.03728
 C1192 C 0.71282 0.74113 0.00989
 H1193 H 0.75662 0.75698 0.02700
 H1194 H 0.72290 0.75704 -0.00618
 H1195 H 0.76739 0.76804 -0.01775
 H1196 H 0.75638 0.72363 -0.00620
 H1197 H 0.77855 0.72581 0.01064
 H1198 H 0.77753 0.72453 -0.01031
 H1199 H 0.71698 0.77134 0.00750
 H1200 H 0.72997 0.78356 -0.00626
 H1201 H 0.77130 0.73179 0.03368
 H1202 H 0.78501 0.77017 0.01999
 H1203 H 0.71702 0.74344 -0.02062
 H1204 H 0.72904 0.75765 -0.03222
 H1205 H 0.75653 0.78326 0.01992
 H1206 H 0.74322 0.77147 0.03299
 H1207 H 0.75565 0.73090 -0.03318
 H1208 H 0.74249 0.71729 -0.02019
 O1209 O 1.03392 0.23368 0.24962
 O1210 O 1.03011 0.23524 0.27078
 O1211 O 1.00133 0.21671 0.23486
 O1212 O 0.98094 0.22038 0.23464
 O1213 O 1.01653 0.24922 0.21748
 O1214 O 1.01565 0.27072 0.22214
 O1215 O 0.96875 0.25010 0.26712
 O1216 O 0.97230 0.22909 0.26468
 O1217 O 1.00026 0.26557 0.28302
 O1218 O 1.02250 0.26475 0.27862
 O1219 O 0.98491 0.28191 0.25184
 O1220 O 0.98546 0.27770 0.22956
 O1221 O 0.96856 0.26509 0.25228
 O1222 O 0.97284 0.26402 0.22935
 O1223 O 1.00005 0.28204 0.26649
 O1224 O 1.02286 0.27734 0.26486
 O1225 O 0.98514 0.25092 0.28304
 O1226 O 0.98933 0.22853 0.27902
 O1227 O 1.03389 0.24888 0.23496
 O1228 O 1.02921 0.27081 0.23607
 O1229 O 1.00166 0.23429 0.21745
 O1230 O 0.97936 0.23620 0.22268
 O1231 O 1.01663 0.21671 0.24938
 O1232 O 1.01401 0.22157 0.27175
 Zr1233 Zr 1.01601 0.23457 0.25717
 O1234 O 1.00535 0.24561 0.26916
 Zr1235 Zr 0.99415 0.23477 0.23545
 O1236 O 0.98240 0.24543 0.24675
 Zr1237 Zr 1.01592 0.25648 0.23554
 O1238 O 1.00496 0.26831 0.24648
 Zr1239 Zr 0.98653 0.24251 0.26552
 O1240 O 0.99715 0.23051 0.25426
 Zr1241 Zr 1.00816 0.26441 0.26526
 O1242 O 1.02006 0.25343 0.25430
 Zr1243 Zr 0.98611 0.26426 0.24378
 O1244 O 0.99707 0.25360 0.23150
 O1245 O 1.01286 0.23778 0.23845
 O1246 O 0.98935 0.26133 0.26252
 C1247 C 1.03911 0.24012 0.24109
 C1248 C 1.01012 0.21149 0.24092
 C1249 C 1.01023 0.24064 0.21222
 C1250 C 0.96355 0.25895 0.26115
 C1251 C 0.99130 0.25970 0.28811
 C1252 C 0.99105 0.28706 0.26060
 H1253 H 1.00738 0.24358 0.27786
 H1254 H 1.00691 0.27699 0.24443
 H1255 H 1.01809 0.23251 0.23310
 H1256 H 0.97369 0.24331 0.24496
 H1257 H 0.97624 0.22128 0.26197
 H1258 H 0.97464 0.22221 0.24100
 H1259 H 1.02131 0.28313 0.25795
 H1260 H 1.03353 0.27009 0.24413
 H1261 H 0.98233 0.22888 0.28494
 H1262 H 1.02054 0.21518 0.27091
 H1263 H 0.99314 0.28265 0.23007
 H1264 H 1.00729 0.27060 0.21840
 H1265 H 1.03354 0.24372 0.27062
 H1266 H 1.02187 0.25710 0.28359
 H1267 H 0.98075 0.24385 0.21784
 H1268 H 0.96718 0.25699 0.23085
 O1269 O 0.71780 1.01682 0.74836
 O1270 O 0.72167 1.01500 0.76945
 O1271 O 0.75057 1.03358 0.73369
 O1272 O 0.77085 1.02966 0.73320
 O1273 O 0.73485 1.00141 0.71597
 O1274 O 0.73549 0.97985 0.72042
 O1275 O 0.78285 0.99958 0.76545
 O1276 O 0.77952 1.02061 0.76322
 O1277 O 0.75127 0.98427 0.78132
 O1278 O 0.72900 0.98531 0.77694
 O1279 O 0.76632 0.96804 0.74988
 O1280 O 0.76585 0.97233 0.72782
 O1281 O 0.78285 0.98472 0.75048
 O1282 O 0.77834 0.98618 0.72745
 O1283 O 0.75128 0.96793 0.76461
 O1284 O 0.72852 0.97282 0.76313
 O1285 O 0.76651 0.99880 0.78142
 O1286 O 0.76254 1.02125 0.77758
 O1287 O 0.71756 1.00176 0.73356
 O1288 O 0.72200 0.97979 0.73438
 O1289 O 0.74989 1.01616 0.71604
 O1290 O 0.77221 1.01390 0.72119
 O1291 O 0.73535 1.03360 0.74828
 O1292 O 0.73788 1.02843 0.77058
 Zr1293 Zr 0.73573 1.01564 0.75582
 O1294 O 0.74633 1.00437 0.76766
 Zr1295 Zr 0.75748 1.01541 0.73401
 O1296 O 0.76917 1.00454 0.74517
 Zr1297 Zr 0.73547 0.99396 0.73396
 O1298 O 0.74637 0.98192 0.74474
 Zr1299 Zr 0.76514 1.00733 0.76398
 O1300 O 0.75461 1.01954 0.75287
 Zr1301 Zr 0.74332 0.98564 0.76358
 O1302 O 0.73147 0.99686 0.75277
 Zr1303 Zr 0.76525 0.98579 0.74202
 O1304 O 0.75433 0.99666 0.72988
 O1305 O 0.73874 1.01261 0.73705
 O1306 O 0.76214 0.98857 0.76081
 C1307 C 0.71247 1.01051 0.73981
 C1308 C 0.74192 1.03885 0.73989
 C1309 C 0.74124 1.00995 0.71076
 C1310 C 0.78794 0.99074 0.75939
 C1311 C 0.76029 0.99004 0.78645
 C1312 C 0.76018 0.96287 0.75862
 H1313 H 0.74435 1.00634 0.77638
 H1314 H 0.74433 0.97327 0.74260
 H1315 H 0.73355 1.01800 0.73177
 H1316 H 0.77790 1.00659 0.74338
 H1317 H 0.77566 1.02847 0.76055
 H1318 H 0.77712 1.02777 0.73958
 H1319 H 0.72994 0.96713 0.75610
 H1320 H 0.71780 0.98042 0.74250
 H1321 H 0.76955 1.02079 0.78349
 H1322 H 0.73148 1.03495 0.76978
 H1323 H 0.75794 0.96773 0.72803
 H1324 H 0.74382 0.97992 0.71664
 H1325 H 0.71812 1.00657 0.76920
 H1326 H 0.72973 0.99290 0.78200
 H1327 H 0.77065 1.00637 0.71621
 H1328 H 0.78428 0.99291 0.72919
 O1329 O 0.74976 0.53339 0.23362
 O1330 O 0.77085 0.52936 0.23531
 O1331 O 0.73486 0.50123 0.21600
 O1332 O 0.73444 0.48083 0.21933
 O1333 O 0.71731 0.51604 0.24862
 O1334 O 0.72178 0.51489 0.27017
 O1335 O 0.76661 0.46793 0.24931
 O1336 O 0.76432 0.47174 0.22831
 O1337 O 0.78253 0.49902 0.26539
 O1338 O 0.77830 0.52128 0.26488
 O1339 O 0.75104 0.48372 0.28124
 O1340 O 0.72886 0.48445 0.27674
 O1341 O 0.75165 0.46763 0.26417
 O1342 O 0.72874 0.47205 0.26283
 O1343 O 0.76581 0.49870 0.28174
 O1344 O 0.76444 0.52156 0.27735
 O1345 O 0.78261 0.48419 0.25043
 O1346 O 0.77876 0.48869 0.22805
 O1347 O 0.73492 0.53327 0.24865
 O1348 O 0.73580 0.52829 0.27057
 O1349 O 0.71732 0.50140 0.23346
 O1350 O 0.72240 0.47904 0.23511
 O1351 O 0.74951 0.51638 0.21638
 O1352 O 0.77180 0.51350 0.22142
 Zr1353 Zr 0.75713 0.51542 0.23433
 O1354 O 0.76892 0.50451 0.24535
 Zr1355 Zr 0.73525 0.49376 0.23398
 O1356 O 0.74635 0.48178 0.24459
 Zr1357 Zr 0.73529 0.51520 0.25604
 O1358 O 0.74602 0.50398 0.26782
 Zr1359 Zr 0.76517 0.48580 0.24192
 O1360 O 0.75411 0.49667 0.22994
 Zr1361 Zr 0.76485 0.50707 0.26418
 O1362 O 0.75411 0.51922 0.25324
 Zr1363 Zr 0.74322 0.48522 0.26346
 O1364 O 0.73114 0.49644 0.25283
 O1365 O 0.73836 0.51239 0.23729
 O1366 O 0.76201 0.48836 0.26078
 C1367 C 0.74121 0.53856 0.24004
 C1368 C 0.74104 0.51004 0.21097
 C1369 C 0.71208 0.50989 0.23990
 C1370 C 0.76056 0.46267 0.25806
 C1371 C 0.78764 0.49016 0.25939
 C1372 C 0.75978 0.48972 0.28658
 H1373 H 0.77764 0.50651 0.24343
 H1374 H 0.74388 0.50580 0.27653
 H1375 H 0.73309 0.51774 0.23205
 H1376 H 0.74454 0.47311 0.24232
 H1377 H 0.76173 0.47579 0.22050
 H1378 H 0.74076 0.47446 0.22110
 H1379 H 0.75743 0.52001 0.28302
 H1380 H 0.74390 0.53252 0.26999
 H1381 H 0.78462 0.48163 0.22833
 H1382 H 0.77105 0.52009 0.21508
 H1383 H 0.72936 0.49203 0.28183
 H1384 H 0.71802 0.50655 0.26995
 H1385 H 0.77065 0.53267 0.24385
 H1386 H 0.78335 0.52073 0.25727
 H1387 H 0.71750 0.48036 0.24274
 H1388 H 0.73037 0.46641 0.25581
 O1389 O 0.53304 0.23291 0.74858
 O1390 O 0.52950 0.23471 0.76975
 O1391 O 0.50015 0.21587 0.73444
 O1392 O 0.47984 0.21962 0.73434
 O1393 O 0.51530 0.24811 0.71645
 O1394 O 0.51458 0.26968 0.72089
 O1395 O 0.46815 0.24978 0.76668
 O1396 O 0.47157 0.22874 0.76444
 O1397 O 0.49992 0.26529 0.78202
 O1398 O 0.52210 0.26435 0.77732
 O1399 O 0.48426 0.28134 0.75080
 O1400 O 0.48446 0.27689 0.72862
 O1401 O 0.46783 0.26458 0.75166
 O1402 O 0.47185 0.26319 0.72867
 O1403 O 0.49955 0.28158 0.76528
 O1404 O 0.52231 0.27679 0.76345
 O1405 O 0.48475 0.25069 0.78239
 O1406 O 0.48880 0.22825 0.77856
 O1407 O 0.53288 0.24793 0.73374
 O1408 O 0.52831 0.26987 0.73462
 O1409 O 0.50037 0.23325 0.71680
 O1410 O 0.47812 0.23534 0.72232
 O1411 O 0.51564 0.21598 0.74876
 O1412 O 0.51339 0.22115 0.77111
 Zr1413 Zr 0.51523 0.23395 0.75633
 O1414 O 0.50475 0.24517 0.76832
 Zr1415 Zr 0.49310 0.23398 0.73489
 O1416 O 0.48153 0.24481 0.74620
 Zr1417 Zr 0.51495 0.25559 0.73443
 O1418 O 0.50417 0.26758 0.74538
 Zr1419 Zr 0.48588 0.24210 0.76495
 O1420 O 0.49631 0.22992 0.75371
 Zr1421 Zr 0.50758 0.26390 0.76417
 O1422 O 0.51931 0.25275 0.75319
 Zr1423 Zr 0.48528 0.26358 0.74295
 O1424 O 0.49604 0.25274 0.73066
 O1425 O 0.51186 0.23693 0.73761
 O1426 O 0.48873 0.26087 0.76170
 C1427 C 0.53816 0.23924 0.73992
 C1428 C 0.50897 0.21068 0.74047
 C1429 C 0.50889 0.23950 0.71138
 C1430 C 0.46292 0.25857 0.76067
 C1431 C 0.49101 0.25950 0.78730
 C1432 C 0.49052 0.28656 0.75942
 H1433 H 0.50689 0.24323 0.77701
 H1434 H 0.50613 0.27624 0.74320
 H1435 H 0.51700 0.23158 0.73226
 H1436 H 0.47278 0.24270 0.74455
 H1437 H 0.47544 0.22088 0.76179
 H1438 H 0.47370 0.22145 0.74086
 H1439 H 0.52071 0.28249 0.75647
 H1440 H 0.53268 0.26926 0.74265
 H1441 H 0.48187 0.22868 0.78456
 H1442 H 0.51986 0.21470 0.77024
 H1443 H 0.49221 0.28174 0.72890
 H1444 H 0.50618 0.26953 0.71722
 H1445 H 0.53297 0.24317 0.76945
 H1446 H 0.52153 0.25675 0.78238
 H1447 H 0.47951 0.24288 0.71732
 H1448 H 0.46613 0.25626 0.73038
 O1449 O 0.28308 0.75189 0.48421
 O1450 O 0.27909 0.73082 0.48554
 O1451 O 0.25052 0.76701 0.46736
 O1452 O 0.23018 0.76736 0.47106
 O1453 O 0.26593 0.78401 0.50005
 O1454 O 0.26508 0.77918 0.52154
 O1455 O 0.21783 0.73468 0.50061
 O1456 O 0.22129 0.73738 0.47958
 O1457 O 0.24923 0.71851 0.51582
 O1458 O 0.27151 0.72282 0.51505
 O1459 O 0.23418 0.74967 0.53257
 O1460 O 0.23479 0.77188 0.52853
 O1461 O 0.21778 0.74936 0.51575
 O1462 O 0.22219 0.77229 0.51478
 O1463 O 0.24916 0.73490 0.53250
 O1464 O 0.27194 0.73639 0.52781
 O1465 O 0.23414 0.71870 0.50111
 O1466 O 0.23823 0.72298 0.47875
 O1467 O 0.28320 0.76638 0.49957
 O1468 O 0.27852 0.76524 0.52150
 O1469 O 0.25100 0.78426 0.48516
 O1470 O 0.22869 0.77915 0.48703
 O1471 O 0.26572 0.75242 0.46721
 O1472 O 0.26299 0.73008 0.47188
 Zr1473 Zr 0.26510 0.74451 0.48503
 O1474 O 0.25437 0.73251 0.49599
 Zr1475 Zr 0.24340 0.76632 0.48546
 O1476 O 0.23159 0.75503 0.49605
 Zr1477 Zr 0.26522 0.76592 0.50716
 O1478 O 0.25420 0.75495 0.51891
 Zr1479 Zr 0.23558 0.73629 0.49295
 O1480 O 0.24626 0.74757 0.48101
 Zr1481 Zr 0.25724 0.73621 0.51484
 O1482 O 0.26921 0.74718 0.50393
 Zr1483 Zr 0.23536 0.75780 0.51493
 O1484 O 0.24639 0.77009 0.50435
 O1485 O 0.26211 0.76320 0.48840
 O1486 O 0.23846 0.73909 0.51182
 C1487 C 0.28838 0.76027 0.49077
 C1488 C 0.25922 0.76092 0.46205
 C1489 C 0.25960 0.78939 0.49156
 C1490 C 0.21271 0.74057 0.50956
 C1491 C 0.24027 0.71350 0.50985
 C1492 C 0.24026 0.74084 0.53763
 H1493 H 0.25635 0.72384 0.49386
 H1494 H 0.25618 0.75692 0.52763
 H1495 H 0.26738 0.76856 0.48317
 H1496 H 0.22288 0.75687 0.49397
 H1497 H 0.22521 0.74015 0.47178
 H1498 H 0.22380 0.76107 0.47287
 H1499 H 0.27046 0.74326 0.53366
 H1500 H 0.28270 0.75712 0.52079
 H1501 H 0.23119 0.71711 0.47903
 H1502 H 0.26951 0.73094 0.46547
 H1503 H 0.24254 0.77138 0.53338
 H1504 H 0.25676 0.78300 0.52144
 H1505 H 0.28251 0.73085 0.49404
 H1506 H 0.27080 0.71788 0.50737
 H1507 H 0.23009 0.78386 0.49477
 H1508 H 0.21642 0.77079 0.50783
 O1509 O 0.28237 0.25056 0.98297
 O1510 O 0.27844 0.22945 0.98466
 O1511 O 0.24964 0.26540 0.96632
 O1512 O 0.22934 0.26577 0.97021
 O1513 O 0.26535 0.28281 0.99865
 O1514 O 0.26471 0.27819 1.02022
 O1515 O 0.21730 0.23345 1.00020
 O1516 O 0.22060 0.23583 0.97914
 O1517 O 0.24889 0.21746 1.01537
 O1518 O 0.27121 0.22181 1.01422
 O1519 O 0.23395 0.24875 1.03187
 O1520 O 0.23447 0.27086 1.02766
 O1521 O 0.21738 0.24831 1.01518
 O1522 O 0.22186 0.27125 1.01392
 O1523 O 0.24899 0.23404 1.03184
 O1524 O 0.27168 0.23545 1.02693
 O1525 O 0.23362 0.21746 1.00084
 O1526 O 0.23754 0.22143 0.97838
 O1527 O 0.28263 0.26524 0.99815
 O1528 O 0.27821 0.26426 1.02015
 O1529 O 0.25027 0.28284 0.98391
 O1530 O 0.22795 0.27768 0.98606
 O1531 O 0.26486 0.25084 0.96617
 O1532 O 0.26222 0.22855 0.97112
 Zr1533 Zr 0.26443 0.24313 0.98409
 O1534 O 0.25382 0.23123 0.99530
 Zr1535 Zr 0.24269 0.26490 0.98450
 O1536 O 0.23101 0.25371 0.99533
 Zr1537 Zr 0.26473 0.26480 1.00597
 O1538 O 0.25386 0.25394 1.01796
 Zr1539 Zr 0.23500 0.23494 0.99240
 O1540 O 0.24554 0.24610 0.98023
 Zr1541 Zr 0.25688 0.23515 1.01408
 O1542 O 0.26872 0.24603 1.00292
 Zr1543 Zr 0.23497 0.25671 1.01413
 O1544 O 0.24587 0.26890 1.00330
 O1545 O 0.26143 0.26184 0.98728
 O1546 O 0.23806 0.23797 1.01121
 C1547 C 0.28771 0.25906 0.98935
 C1548 C 0.25831 0.25929 0.96100
 C1549 C 0.25893 0.28807 0.99014
 C1550 C 0.21225 0.23946 1.00911
 C1551 C 0.23985 0.21238 1.00958
 C1552 C 0.24012 0.24000 1.03698
 H1553 H 0.25579 0.22254 0.99325
 H1554 H 0.25592 0.25601 1.02663
 H1555 H 0.26662 0.26715 0.98193
 H1556 H 0.22228 0.25553 0.99330
 H1557 H 0.22445 0.23847 0.97126
 H1558 H 0.22307 0.25939 0.97207
 H1559 H 0.27033 0.24248 1.03262
 H1560 H 0.28239 0.25615 1.01947
 H1561 H 0.23049 0.21558 0.97879
 H1562 H 0.26870 0.22933 0.96467
 H1563 H 0.24231 0.27049 1.03237
 H1564 H 0.25638 0.28199 1.02016
 H1565 H 0.28200 0.22966 0.99310
 H1566 H 0.27035 0.21672 1.00666
 H1567 H 0.22947 0.28258 0.99365
 H1568 H 0.21597 0.26964 1.00709
 C1569 C 0.30121 0.34839 0.79917
 C1570 C 0.29746 0.35805 0.79505
 C1571 C 0.29315 0.36972 0.79032
 C1572 C 0.30148 0.37949 0.78876
 C1573 C 0.29731 0.39096 0.78451
 C1574 C 0.28472 0.39282 0.78178
 C1575 C 0.27642 0.38290 0.78326
 C1576 C 0.28062 0.37143 0.78752
 C1577 C 0.28025 0.40511 0.77758
 C1578 C 0.27130 0.40609 0.76816
 C1579 C 0.26716 0.41770 0.76423
 C1580 C 0.27189 0.42845 0.76967
 C1581 C 0.28076 0.42757 0.77907
 C1582 C 0.28491 0.41599 0.78300
 C1583 C 0.26771 0.44043 0.76565
 C1584 C 0.26439 0.45057 0.76245
 H1585 H 0.31120 0.37827 0.79088
 H1586 H 0.30395 0.39835 0.78330
 H1587 H 0.26666 0.38408 0.78137
 H1588 H 0.27408 0.36394 0.78874
 H1589 H 0.26763 0.39790 0.76372
 H1590 H 0.26031 0.41829 0.75693
 H1591 H 0.28445 0.43583 0.78338
 H1592 H 0.29166 0.41554 0.79040
 C1593 C 0.30061 -0.15135 0.30051
 C1594 C 0.29665 -0.14169 0.29659
 C1595 C 0.29212 -0.13001 0.29211
 C1596 C 0.29327 -0.11943 0.29948
 C1597 C 0.28913 -0.10801 0.29512
 C1598 C 0.28376 -0.10699 0.28329
 C1599 C 0.28254 -0.11769 0.27598
 C1600 C 0.28671 -0.12913 0.28037
 C1601 C 0.27954 -0.09479 0.27860
 C1602 C 0.26837 -0.09368 0.27199
 C1603 C 0.26435 -0.08213 0.26777
 C1604 C 0.27145 -0.07156 0.27008
 C1605 C 0.28261 -0.07258 0.27657
 C1606 C 0.28664 -0.08410 0.28080
 C1607 C 0.26726 -0.05961 0.26599
 C1608 C 0.26391 -0.04948 0.26276
 H1609 H 0.29741 -0.12002 0.30860
 H1610 H 0.29002 -0.09998 0.30104
 H1611 H 0.27856 -0.11719 0.26679
 H1612 H 0.28580 -0.13725 0.27457
 H1613 H 0.26264 -0.10171 0.27027
 H1614 H 0.25568 -0.08144 0.26279
 H1615 H 0.28819 -0.06445 0.27839
 H1616 H 0.29536 -0.08466 0.28570
 C1617 C 0.79956 0.84802 0.79877
 C1618 C 0.79583 0.85771 0.79471
 C1619 C 0.79159 0.86942 0.79002
 C1620 C 0.80018 0.87854 0.78679
 C1621 C 0.79613 0.89005 0.78254
 C1622 C 0.78341 0.89261 0.78147
 C1623 C 0.77484 0.88334 0.78463
 C1624 C 0.77891 0.87183 0.78890
 C1625 C 0.77912 0.90496 0.77725
 C1626 C 0.76899 0.90608 0.76912
 C1627 C 0.76499 0.91773 0.76519
 C1628 C 0.77104 0.92840 0.76933
 C1629 C 0.78110 0.92738 0.77742
 C1630 C 0.78512 0.91575 0.78136
 C1631 C 0.76696 0.94042 0.76534
 C1632 C 0.76374 0.95060 0.76216
 H1633 H 0.81001 0.87678 0.78761
 H1634 H 0.80296 0.89693 0.78000
 H1635 H 0.76499 0.88507 0.78405
 H1636 H 0.77218 0.86485 0.79143
 H1637 H 0.76427 0.89794 0.76569
 H1638 H 0.75720 0.91842 0.75891
 H1639 H 0.78582 0.93558 0.78072
 H1640 H 0.79282 0.91522 0.78775
 C1641 C 0.44924 0.90192 0.29935
 C1642 C 0.45317 0.89225 0.29546
 C1643 C 0.45780 0.88056 0.29111
 C1644 C 0.45991 0.87097 0.29953
 C1645 C 0.46419 0.85952 0.29537
 C1646 C 0.46641 0.85749 0.28270
 C1647 C 0.46436 0.86723 0.27430
 C1648 C 0.46007 0.87869 0.27849
 C1649 C 0.47072 0.84523 0.27829
 C1650 C 0.47980 0.84431 0.26899
 C1651 C 0.48388 0.83272 0.26494
 C1652 C 0.47893 0.82193 0.27009
 C1653 C 0.46988 0.82276 0.27931
 C1654 C 0.46580 0.83432 0.28338
 C1655 C 0.48305 0.80998 0.26596
 C1656 C 0.48629 0.79984 0.26268
 H1657 H 0.45822 0.87234 0.30932
 H1658 H 0.46585 0.85228 0.30208
 H1659 H 0.46585 0.86591 0.26448
 H1660 H 0.45844 0.88605 0.27189
 H1661 H 0.48387 0.85253 0.26499
 H1662 H 0.49091 0.83218 0.25782
 H1663 H 0.46595 0.81447 0.28333
 H1664 H 0.45867 0.83471 0.29040
 C1665 C -0.05038 0.90279 0.80053
 C1666 C -0.04627 0.89325 0.79649
 C1667 C -0.04145 0.88171 0.79196
 C1668 C -0.03492 0.88126 0.78078
 C1669 C -0.03027 0.87000 0.77644
 C1670 C -0.03207 0.85906 0.78325
 C1671 C -0.03863 0.85964 0.79449
 C1672 C -0.04328 0.87089 0.79880
 C1673 C -0.02726 0.84706 0.77867
 C1674 C -0.02195 0.83853 0.78693
 C1675 C -0.01790 0.82701 0.78273
 C1676 C -0.01908 0.82386 0.77023
 C1677 C -0.02417 0.83234 0.76188
 C1678 C -0.02822 0.84389 0.76606
 C1679 C -0.01550 0.81172 0.76614
 C1680 C -0.01268 0.80139 0.76307
 H1681 H -0.03342 0.88960 0.77544
 H1682 H -0.02514 0.86987 0.76783
 H1683 H -0.04033 0.85136 0.79986
 H1684 H -0.04834 0.87114 0.80745
 H1685 H -0.02092 0.84076 0.79665
 H1686 H -0.01397 0.82050 0.78927
 H1687 H -0.02518 0.82997 0.75219
 H1688 H -0.03239 0.85021 0.75950
 C1689 C -0.04874 -0.15248 -0.04809
 C1690 C -0.04498 -0.14281 -0.04401
 C1691 C -0.04066 -0.13114 -0.03927
 C1692 C -0.04785 -0.12453 -0.03078
 C1693 C -0.04388 -0.11299 -0.02651
 C1694 C -0.03265 -0.10790 -0.03068
 C1695 C -0.02543 -0.11468 -0.03913
 C1696 C -0.02943 -0.12621 -0.04340
 C1697 C -0.02860 -0.09548 -0.02643
 C1698 C -0.01608 -0.09314 -0.02368
 C1699 C -0.01227 -0.08138 -0.01989
 C1700 C -0.02090 -0.07180 -0.01880
 C1701 C -0.03337 -0.07404 -0.02147
 C1702 C -0.03720 -0.08579 -0.02525
 C1703 C -0.01697 -0.05963 -0.01513
 C1704 C -0.01380 -0.04936 -0.01218
 H1705 H -0.05657 -0.12825 -0.02752
 H1706 H -0.04957 -0.10807 -0.01989
 H1707 H -0.01683 -0.11095 -0.04264
 H1708 H -0.02382 -0.13123 -0.05002
 H1709 H -0.00926 -0.10044 -0.02437
 H1710 H -0.00259 -0.07975 -0.01784
 H1711 H -0.04012 -0.06668 -0.02072
 H1712 H -0.04687 -0.08724 -0.02747
 C1713 C -0.05040 0.34874 0.45010
 C1714 C -0.04661 0.35840 0.45420
 C1715 C -0.04232 0.37006 0.45896
 C1716 C -0.02969 0.37206 0.46102
 C1717 C -0.02555 0.38353 0.46536
 C1718 C -0.03401 0.39316 0.46764
 C1719 C -0.04669 0.39099 0.46565
 C1720 C -0.05080 0.37953 0.46133
 C1721 C -0.02963 0.40546 0.47190
 C1722 C -0.03493 0.41633 0.46708
 C1723 C -0.03085 0.42793 0.47105
 C1724 C -0.02141 0.42885 0.47988
 C1725 C -0.01605 0.41811 0.48472
 C1726 C -0.02012 0.40648 0.48075
 C1727 C -0.01730 0.44085 0.48392
 C1728 C -0.01403 0.45101 0.48712
 H1729 H -0.02304 0.36480 0.45918
 H1730 H -0.01572 0.38494 0.46668
 H1731 H -0.05344 0.39815 0.46750
 H1732 H -0.06060 0.37807 0.45979
 H1733 H -0.04212 0.41586 0.46012
 H1734 H -0.03503 0.43618 0.46721
 H1735 H -0.00875 0.41872 0.49157
 H1736 H -0.01595 0.39830 0.48473
 C1737 C 0.45090 -0.15350 0.45006
 C1738 C 0.45481 -0.14388 0.45414
 C1739 C 0.45916 -0.13223 0.45888
 C1740 C 0.45324 -0.12128 0.45535
 C1741 C 0.45729 -0.10993 0.45999
 C1742 C 0.46734 -0.10935 0.46825
 C1743 C 0.47328 -0.12040 0.47172
 C1744 C 0.46919 -0.13177 0.46707
 C1745 C 0.47159 -0.09725 0.47318
 C1746 C 0.48429 -0.09458 0.47425
 C1747 C 0.48823 -0.08300 0.47848
 C1748 C 0.47955 -0.07397 0.48172
 C1749 C 0.46690 -0.07661 0.48086
 C1750 C 0.46294 -0.08816 0.47663
 C1751 C 0.48352 -0.06184 0.48548
 C1752 C 0.48660 -0.05152 0.48836
 H1753 H 0.44548 -0.12153 0.44899
 H1754 H 0.45265 -0.10158 0.45698
 H1755 H 0.48096 -0.12026 0.47816
 H1756 H 0.47382 -0.14019 0.46990
 H1757 H 0.49116 -0.10133 0.47153
 H1758 H 0.49805 -0.08104 0.47904
 H1759 H 0.46010 -0.06969 0.48335
 H1760 H 0.45311 -0.08998 0.47608
 C1761 C 0.45036 0.34651 -0.04937
 C1762 C 0.45422 0.35611 -0.04522
 C1763 C 0.45853 0.36777 -0.04047
 C1764 C 0.45308 0.37875 -0.04460
 C1765 C 0.45713 0.39012 -0.04001
 C1766 C 0.46670 0.39069 -0.03119
 C1767 C 0.47216 0.37960 -0.02712
 C1768 C 0.46808 0.36821 -0.03173
 C1769 C 0.47096 0.40282 -0.02635
 C1770 C 0.48364 0.40521 -0.02461
 C1771 C 0.48763 0.41681 -0.02048
 C1772 C 0.47900 0.42613 -0.01801
 C1773 C 0.46637 0.42378 -0.01956
 C1774 C 0.46236 0.41221 -0.02368
 C1775 C 0.48304 0.43826 -0.01432
 C1776 C 0.48614 0.44859 -0.01147
 H1777 H 0.44571 0.37852 -0.05140
 H1778 H 0.45287 0.39849 -0.04348
 H1779 H 0.47946 0.37972 -0.02025
 H1780 H 0.47235 0.35976 -0.02844
 H1781 H 0.49049 0.39822 -0.02672
 H1782 H 0.49744 0.41855 -0.01938
 H1783 H 0.45961 0.43093 -0.01767
 H1784 H 0.45253 0.41061 -0.02476
 C1785 C 0.80073 0.40245 0.45035
 C1786 C 0.79681 0.39294 0.45465
 C1787 C 0.79238 0.38142 0.45961
 C1788 C 0.79949 0.37070 0.45820
 C1789 C 0.79523 0.35944 0.46286
 C1790 C 0.78378 0.35872 0.46901
 C1791 C 0.77669 0.36955 0.47039
 C1792 C 0.78098 0.38083 0.46572
 C1793 C 0.77923 0.34668 0.47379
 C1794 C 0.76673 0.34328 0.47242
 C1795 C 0.76261 0.33170 0.47643
 C1796 C 0.77091 0.32339 0.48189
 C1797 C 0.78330 0.32677 0.48347
 C1798 C 0.78744 0.33833 0.47947
 C1799 C 0.76688 0.31122 0.48542
 C1800 C 0.76380 0.30087 0.48819
 H1801 H 0.80830 0.37104 0.45344
 H1802 H 0.80081 0.35125 0.46147
 H1803 H 0.76790 0.36932 0.47518
 H1804 H 0.77541 0.38907 0.46688
 H1805 H 0.76022 0.34945 0.46797
 H1806 H 0.75301 0.32915 0.47510
 H1807 H 0.78981 0.32042 0.48769
 H1808 H 0.79708 0.34074 0.48081
 C1809 C 0.80138 0.90250 -0.05106
 C1810 C 0.79728 0.89296 -0.04700
 C1811 C 0.79258 0.88141 -0.04238
 C1812 C 0.79465 0.87054 -0.04908
 C1813 C 0.79030 0.85924 -0.04459
 C1814 C 0.78382 0.85864 -0.03332
 C1815 C 0.78168 0.86964 -0.02669
 C1816 C 0.78606 0.88095 -0.03120
 C1817 C 0.77941 0.84657 -0.02850
 C1818 C 0.76762 0.84545 -0.02307
 C1819 C 0.76342 0.83397 -0.01883
 C1820 C 0.77096 0.82351 -0.01992
 C1821 C 0.78274 0.82458 -0.02518
 C1822 C 0.78694 0.83601 -0.02943
 C1823 C 0.76665 0.81158 -0.01592
 C1824 C 0.76340 0.80138 -0.01284
 H1825 H 0.79965 0.87079 -0.05777
 H1826 H 0.79192 0.85097 -0.05000
 H1827 H 0.77683 0.86946 -0.01793
 H1828 H 0.78443 0.88931 -0.02593
 H1829 H 0.76157 0.85338 -0.02234
 H1830 H 0.75427 0.83323 -0.01481
 H1831 H 0.78866 0.81654 -0.02604
 H1832 H 0.79613 0.83662 -0.03338
 C1833 C 0.80022 0.30154 0.34785
 C1834 C 0.79606 0.29769 0.35746
 C1835 C 0.79133 0.29324 0.36908
 C1836 C 0.78461 0.28219 0.36962
 C1837 C 0.78030 0.27776 0.38100
 C1838 C 0.78270 0.28433 0.39199
 C1839 C 0.78938 0.29548 0.39132
 C1840 C 0.79366 0.29989 0.37995
 C1841 C 0.77841 0.27954 0.40414
 C1842 C 0.78611 0.28035 0.41461
 C1843 C 0.78206 0.27604 0.42610
 C1844 C 0.77027 0.27085 0.42730
 C1845 C 0.76255 0.26991 0.41694
 C1846 C 0.76660 0.27421 0.40541
 C1847 C 0.76612 0.26673 0.43927
 C1848 C 0.76297 0.26354 0.44948
 H1849 H 0.78279 0.27694 0.36127
 H1850 H 0.77530 0.26909 0.38124
 H1851 H 0.79121 0.30084 0.39959
 H1852 H 0.79883 0.30846 0.37964
 H1853 H 0.79532 0.28423 0.41390
 H1854 H 0.78812 0.27680 0.43407
 H1855 H 0.75338 0.26594 0.41778
 H1856 H 0.76042 0.27357 0.39755
 C1857 C 0.79731 0.80018 -0.15380
 C1858 C 0.79301 0.79613 -0.14433
 C1859 C 0.78808 0.79147 -0.13288
 C1860 C 0.78851 0.77881 -0.13026
 C1861 C 0.78415 0.77437 -0.11891
 C1862 C 0.77931 0.78256 -0.11002
 C1863 C 0.77880 0.79526 -0.11281
 C1864 C 0.78317 0.79967 -0.12415
 C1865 C 0.77513 0.77796 -0.09775
 C1866 C 0.76448 0.78287 -0.09210
 C1867 C 0.76087 0.77891 -0.08032
 C1868 C 0.76783 0.76998 -0.07405
 C1869 C 0.77834 0.76492 -0.07966
 C1870 C 0.78197 0.76886 -0.09143
 C1871 C 0.76448 0.76635 -0.06168
 C1872 C 0.76186 0.76350 -0.05122
 H1873 H 0.79230 0.77238 -0.13694
 H1874 H 0.78454 0.76453 -0.11710
 H1875 H 0.77530 0.80182 -0.10610
 H1876 H 0.78286 0.80950 -0.12605
 H1877 H 0.75894 0.78978 -0.09678
 H1878 H 0.75273 0.78290 -0.07606
 H1879 H 0.78385 0.75806 -0.07485
 H1880 H 0.79030 0.76503 -0.09545
 C1881 C 0.29938 0.45061 0.90232
 C1882 C 0.29565 0.45447 0.89253
 C1883 C 0.29139 0.45892 0.88072
 C1884 C 0.29968 0.45986 0.87082
 C1885 C 0.29557 0.46393 0.85926
 C1886 C 0.28309 0.46712 0.85743
 C1887 C 0.27483 0.46623 0.86746
 C1888 C 0.27897 0.46214 0.87903
 C1889 C 0.27870 0.47126 0.84507
 C1890 C 0.27019 0.48105 0.84398
 C1891 C 0.26616 0.48497 0.83232
 C1892 C 0.27054 0.47915 0.82161
 C1893 C 0.27897 0.46938 0.82261
 C1894 C 0.28302 0.46545 0.83425
 C1895 C 0.26652 0.48320 0.80958
 C1896 C 0.26335 0.48645 0.79939
 H1897 H 0.30933 0.45741 0.87204
 H1898 H 0.30219 0.46469 0.85177
 H1899 H 0.26514 0.46848 0.86630
 H1900 H 0.27246 0.46140 0.88662
 H1901 H 0.26681 0.48580 0.85213
 H1902 H 0.25967 0.49258 0.83165
 H1903 H 0.28240 0.46479 0.81438
 H1904 H 0.28943 0.45778 0.83478
 C1905 C 0.29905 -0.04939 0.40200
 C1906 C 0.29511 -0.04570 0.39224
 C1907 C 0.29055 -0.04151 0.38044
 C1908 C 0.28961 -0.04983 0.37057
 C1909 C 0.28546 -0.04577 0.35901
 C1910 C 0.28219 -0.03332 0.35717
 C1911 C 0.28307 -0.02505 0.36719
 C1912 C 0.28724 -0.02912 0.37875
 C1913 C 0.27803 -0.02898 0.34481
 C1914 C 0.26819 -0.02054 0.34370
 C1915 C 0.26430 -0.01650 0.33203
 C1916 C 0.27020 -0.02082 0.32134
 C1917 C 0.28002 -0.02918 0.32236
 C1918 C 0.28391 -0.03324 0.33400
 C1919 C 0.26622 -0.01675 0.30931
 C1920 C 0.26304 -0.01351 0.29912
 H1921 H 0.29213 -0.05945 0.37179
 H1922 H 0.28472 -0.05240 0.35153
 H1923 H 0.28075 -0.01538 0.36603
 H1924 H 0.28797 -0.02260 0.38632
 H1925 H 0.26339 -0.01720 0.35183
 H1926 H 0.25666 -0.01004 0.33133
 H1927 H 0.28468 -0.03255 0.31415
 H1928 H 0.29163 -0.03959 0.33456
 C1929 C -0.04997 -0.05059 -0.15175
 C1930 C -0.04576 -0.04671 -0.14217
 C1931 C -0.04086 -0.04229 -0.13060
 C1932 C -0.03520 -0.05054 -0.12240
 C1933 C -0.03080 -0.04638 -0.11097
 C1934 C -0.03201 -0.03388 -0.10759
 C1935 C -0.03758 -0.02561 -0.11596
 C1936 C -0.04200 -0.02981 -0.12739
 C1937 C -0.02770 -0.02954 -0.09528
 C1938 C -0.02155 -0.01815 -0.09403
 C1939 C -0.01762 -0.01406 -0.08239
 C1940 C -0.01981 -0.02129 -0.07187
 C1941 C -0.02591 -0.03264 -0.07304
 C1942 C -0.02983 -0.03675 -0.08465
 C1943 C -0.01594 -0.01707 -0.05985
 C1944 C -0.01286 -0.01372 -0.04967
 H1945 H -0.03425 -0.06022 -0.12481
 H1946 H -0.02640 -0.05293 -0.10479
 H1947 H -0.03878 -0.01597 -0.11356
 H1948 H -0.04641 -0.02335 -0.13365
 H1949 H -0.01967 -0.01246 -0.10206
 H1950 H -0.01288 -0.00526 -0.08159
 H1951 H -0.02770 -0.03828 -0.06495
 H1952 H -0.03470 -0.04547 -0.08530
 C1953 C -0.05146 0.44873 0.34931
 C1954 C -0.04743 0.45300 0.35880
 C1955 C -0.04280 0.45797 0.37026
 C1956 C -0.03080 0.45516 0.37422
 C1957 C -0.02647 0.45964 0.38557
 C1958 C -0.03412 0.46698 0.39312
 C1959 C -0.04613 0.46986 0.38899
 C1960 C -0.05043 0.46537 0.37764
 C1961 C -0.02969 0.47143 0.40535
 C1962 C -0.03764 0.47134 0.41567
 C1963 C -0.03346 0.47539 0.42722
 C1964 C -0.02129 0.47958 0.42863
 C1965 C -0.01331 0.47974 0.41844
 C1966 C -0.01748 0.47569 0.40686
 C1967 C -0.01705 0.48361 0.44059
 C1968 C -0.01372 0.48687 0.45073
 H1969 H -0.02483 0.44939 0.36861
 H1970 H -0.01724 0.45714 0.38856
 H1971 H -0.05218 0.47562 0.39451
 H1972 H -0.05973 0.46762 0.37465
 H1973 H -0.04703 0.46795 0.41485
 H1974 H -0.03969 0.47518 0.43506
 H1975 H -0.00388 0.48299 0.41943
 H1976 H -0.01119 0.47600 0.39907
 C1977 C 0.45113 -0.04946 0.34676
 C1978 C 0.45549 -0.04549 0.35623
 C1979 C 0.46054 -0.04100 0.36770
 C1980 C 0.45701 -0.02942 0.37229
 C1981 C 0.46146 -0.02534 0.38374
 C1982 C 0.46948 -0.03280 0.39077
 C1983 C 0.47311 -0.04435 0.38599
 C1984 C 0.46866 -0.04841 0.37454
 C1985 C 0.47376 -0.02873 0.40318
 C1986 C 0.47430 -0.03718 0.41306
 C1987 C 0.47802 -0.03332 0.42483
 C1988 C 0.48127 -0.02097 0.42690
 C1989 C 0.48085 -0.01249 0.41712
 C1990 C 0.47712 -0.01634 0.40533
 C1991 C 0.48477 -0.01702 0.43912
 C1992 C 0.48752 -0.01396 0.44950
 H1993 H 0.45068 -0.02364 0.36710
 H1994 H 0.45837 -0.01648 0.38723
 H1995 H 0.47940 -0.05024 0.39110
 H1996 H 0.47145 -0.05738 0.37108
 H1997 H 0.47160 -0.04674 0.41176
 H1998 H 0.47825 -0.03995 0.43235
 H1999 H 0.48335 -0.00291 0.41862
 H2000 H 0.47693 -0.00965 0.39788
 C2001 C 0.45022 0.44883 -0.15240
 C2002 C 0.45422 0.45274 -0.14274
 C2003 C 0.45876 0.45720 -0.13105
 C2004 C 0.45777 0.44975 -0.12052
 C2005 C 0.46188 0.45410 -0.10906
 C2006 C 0.46703 0.46599 -0.10797
 C2007 C 0.46809 0.47339 -0.11863
 C2008 C 0.46396 0.46901 -0.13010
 C2009 C 0.47115 0.47067 -0.09572
 C2010 C 0.48221 0.47745 -0.09453
 C2011 C 0.48613 0.48164 -0.08292
 C2012 C 0.47905 0.47914 -0.07237
 C2013 C 0.46799 0.47250 -0.07348
 C2014 C 0.46406 0.46830 -0.08506
 C2015 C 0.48311 0.48317 -0.06035
 C2016 C 0.48623 0.48628 -0.05010
 H2017 H 0.45378 0.44058 -0.12116
 H2018 H 0.46111 0.44812 -0.10106
 H2019 H 0.47190 0.48263 -0.11806
 H2020 H 0.46473 0.47487 -0.13820
 H2021 H 0.48792 0.47932 -0.10255
 H2022 H 0.49473 0.48675 -0.08215
 H2023 H 0.46242 0.47054 -0.06538
 H2024 H 0.45542 0.46327 -0.08569
 C2025 C 0.45049 0.79939 0.40179
 C2026 C 0.45432 0.79542 0.39209
 C2027 C 0.45871 0.79081 0.38039
 C2028 C 0.47108 0.79246 0.37696
 C2029 C 0.47523 0.78833 0.36542
 C2030 C 0.46703 0.78252 0.35713
 C2031 C 0.45463 0.78081 0.36072
 C2032 C 0.45051 0.78493 0.37226
 C2033 C 0.47132 0.77843 0.34473
 C2034 C 0.46382 0.78020 0.33423
 C2035 C 0.46785 0.77641 0.32255
 C2036 C 0.47943 0.77080 0.32117
 C2037 C 0.48698 0.76900 0.33155
 C2038 C 0.48297 0.77279 0.34326
 C2039 C 0.48349 0.76692 0.30910
 C2040 C 0.48668 0.76376 0.29888
 H2041 H 0.47750 0.79705 0.38316
 H2042 H 0.48479 0.78991 0.36287
 H2043 H 0.44814 0.77622 0.35462
 H2044 H 0.44091 0.78359 0.37483
 H2045 H 0.45490 0.78467 0.33503
 H2046 H 0.46195 0.77790 0.31457
 H2047 H 0.49595 0.76464 0.33059
 H2048 H 0.48890 0.77119 0.35118
 C2049 C -0.04803 0.79983 0.90424
 C2050 C -0.04394 0.79599 0.89459
 C2051 C -0.03923 0.79163 0.88292
 C2052 C -0.03898 0.79959 0.87271
 C2053 C -0.03461 0.79540 0.86129
 C2054 C -0.03043 0.78317 0.85990
 C2055 C -0.03069 0.77523 0.87022
 C2056 C -0.03506 0.77945 0.88166
 C2057 C -0.02595 0.77870 0.84769
 C2058 C -0.02916 0.76685 0.84338
 C2059 C -0.02530 0.76283 0.83169
 C2060 C -0.01815 0.77059 0.82419
 C2061 C -0.01478 0.78233 0.82845
 C2062 C -0.01865 0.78637 0.84012
 C2063 C -0.01464 0.76671 0.81194
 C2064 C -0.01188 0.76370 0.80156
 H2065 H -0.04225 0.80902 0.87356
 H2066 H -0.03472 0.80168 0.85348
 H2067 H -0.02741 0.76580 0.86949
 H2068 H -0.03520 0.77321 0.88950
 H2069 H -0.03491 0.76079 0.84891
 H2070 H -0.02802 0.75375 0.82845
 H2071 H -0.00926 0.78842 0.82272
 H2072 H -0.01589 0.79547 0.84323
 C2073 C 0.34822 0.80099 0.30006
 C2074 C 0.35785 0.79702 0.29607
 C2075 C 0.36949 0.79251 0.29146
 C2076 C 0.37146 0.77981 0.29000
 C2077 C 0.38290 0.77546 0.28579
 C2078 C 0.39252 0.78378 0.28303
 C2079 C 0.39040 0.79653 0.28445
 C2080 C 0.37897 0.80085 0.28864
 C2081 C 0.40478 0.77921 0.27883
 C2082 C 0.41572 0.78468 0.28329
 C2083 C 0.42727 0.78045 0.27932
 C2084 C 0.42805 0.77070 0.27086
 C2085 C 0.41724 0.76515 0.26639
 C2086 C 0.40566 0.76936 0.27036
 C2087 C 0.43999 0.76649 0.26675
 C2088 C 0.45012 0.76321 0.26345
 H2089 H 0.36421 0.77326 0.29221
 H2090 H 0.38430 0.76559 0.28493
 H2091 H 0.39756 0.80318 0.28224
 H2092 H 0.37754 0.81071 0.28973
 H2093 H 0.41536 0.79215 0.28995
 H2094 H 0.43558 0.78479 0.28286
 H2095 H 0.41774 0.75761 0.25980
 H2096 H 0.39741 0.76505 0.26666
 C2097 C -0.15332 0.79987 0.79950
 C2098 C -0.14364 0.79574 0.79581
 C2099 C -0.13193 0.79099 0.79164
 C2100 C -0.13138 0.78267 0.78173
 C2101 C -0.11995 0.77814 0.77770
 C2102 C -0.10892 0.78187 0.78356
 C2103 C -0.10960 0.79023 0.79351
 C2104 C -0.12102 0.79475 0.79752
 C2105 C -0.09674 0.77717 0.77929
 C2106 C -0.08749 0.77405 0.78792
 C2107 C -0.07587 0.77008 0.78392
 C2108 C -0.07330 0.76915 0.77126
 C2109 C -0.08248 0.77205 0.76259
 C2110 C -0.09414 0.77602 0.76657
 C2111 C -0.06112 0.76560 0.76724
 C2112 C -0.05077 0.76282 0.76412
 H2113 H -0.13978 0.77968 0.77714
 H2114 H -0.11974 0.77162 0.77009
 H2115 H -0.10128 0.79343 0.79809
 H2116 H -0.12134 0.80122 0.80517
 H2117 H -0.08927 0.77466 0.79776
 H2118 H -0.06884 0.76784 0.79071
 H2119 H -0.08059 0.77141 0.75277
 H2120 H -0.10101 0.77848 0.75970
 C2121 C 0.90294 0.30013 0.45045
 C2122 C 0.89342 0.29588 0.45440
 C2123 C 0.88188 0.29096 0.45885
 C2124 C 0.87128 0.29182 0.45147
 C2125 C 0.86000 0.28716 0.45573
 C2126 C 0.85917 0.28156 0.46745
 C2127 C 0.86988 0.28074 0.47482
 C2128 C 0.88117 0.28540 0.47053
 C2129 C 0.84713 0.27673 0.47198
 C2130 C 0.84344 0.27861 0.48433
 C2131 C 0.83186 0.27452 0.48841
 C2132 C 0.82385 0.26847 0.48022
 C2133 C 0.82752 0.26638 0.46797
 C2134 C 0.83908 0.27047 0.46388
 C2135 C 0.81167 0.26486 0.48417
 C2136 C 0.80131 0.26206 0.48721
 H2137 H 0.87171 0.29616 0.44244
 H2138 H 0.85189 0.28812 0.44992
 H2139 H 0.86957 0.27637 0.48383
 H2140 H 0.88933 0.28467 0.47632
 H2141 H 0.84937 0.28352 0.49075
 H2142 H 0.82908 0.27625 0.49789
 H2143 H 0.82139 0.26171 0.46155
 H2144 H 0.84172 0.26873 0.45437
 C2145 C 0.90407 0.79867 -0.04831
 C2146 C 0.89448 0.79465 -0.04427
 C2147 C 0.88288 0.79014 -0.03956
 C2148 C 0.87574 0.79761 -0.03177
 C2149 C 0.86421 0.79351 -0.02760
 C2150 C 0.85966 0.78185 -0.03118
 C2151 C 0.86699 0.77433 -0.03887
 C2152 C 0.87851 0.77847 -0.04305
 C2153 C 0.84720 0.77770 -0.02714
 C2154 C 0.84511 0.76536 -0.02358
 C2155 C 0.83331 0.76149 -0.01994
 C2156 C 0.82347 0.76988 -0.01983
 C2157 C 0.82546 0.78217 -0.02334
 C2158 C 0.83723 0.78606 -0.02697
 C2159 C 0.81126 0.76595 -0.01625
 C2160 C 0.80091 0.76298 -0.01336
 H2161 H 0.87903 0.80667 -0.02901
 H2162 H 0.85887 0.79944 -0.02155
 H2163 H 0.86368 0.76538 -0.04191
 H2164 H 0.88394 0.77263 -0.04912
 H2165 H 0.85263 0.75874 -0.02349
 H2166 H 0.83188 0.75195 -0.01722
 H2167 H 0.81788 0.78873 -0.02335
 H2168 H 0.83848 0.79557 -0.02985
 C2169 C -0.15143 -0.05021 -0.05103
 C2170 C -0.14191 -0.04601 -0.04699
 C2171 C -0.13041 -0.04111 -0.04242
 C2172 C -0.12273 -0.03431 -0.05031
 C2173 C -0.11133 -0.02993 -0.04606
 C2174 C -0.10744 -0.03230 -0.03386
 C2175 C -0.11531 -0.03901 -0.02594
 C2176 C -0.12671 -0.04340 -0.03022
 C2177 C -0.09513 -0.02801 -0.02950
 C2178 C -0.09361 -0.02317 -0.01750
 C2179 C -0.08197 -0.01924 -0.01342
 C2180 C -0.07171 -0.02013 -0.02127
 C2181 C -0.07313 -0.02493 -0.03321
 C2182 C -0.08475 -0.02884 -0.03731
 C2183 C -0.05968 -0.01621 -0.01710
 C2184 C -0.04950 -0.01305 -0.01381
 H2185 H -0.12551 -0.03247 -0.05977
 H2186 H -0.10557 -0.02464 -0.05232
 H2187 H -0.11253 -0.04110 -0.01654
 H2188 H -0.13258 -0.04870 -0.02405
 H2189 H -0.10145 -0.02229 -0.01132
 H2190 H -0.08097 -0.01553 -0.00416
 H2191 H -0.06524 -0.02571 -0.03934
 H2192 H -0.08558 -0.03271 -0.04652
 C2193 C -0.15167 0.45006 0.44862
 C2194 C -0.14202 0.45407 0.45253
 C2195 C -0.13034 0.45860 0.45705
 C2196 C -0.12938 0.47056 0.46190
 C2197 C -0.11796 0.47495 0.46614
 C2198 C -0.10736 0.46742 0.46556
 C2199 C -0.10846 0.45539 0.46072
 C2200 C -0.11987 0.45103 0.45650
 C2201 C -0.09518 0.47208 0.46990
 C2202 C -0.08433 0.46936 0.46323
 C2203 C -0.07284 0.47357 0.46739
 C2204 C -0.07201 0.48057 0.47826
 C2205 C -0.08273 0.48339 0.48493
 C2206 C -0.09426 0.47919 0.48078
 C2207 C -0.06010 0.48466 0.48258
 C2208 C -0.04998 0.48788 0.48600
 H2209 H -0.13742 0.47651 0.46233
 H2210 H -0.11738 0.48430 0.46968
 H2211 H -0.10051 0.44931 0.46032
 H2212 H -0.12052 0.44174 0.45280
 H2213 H -0.08475 0.46406 0.45474
 H2214 H -0.06460 0.47136 0.46214
 H2215 H -0.08218 0.48877 0.49338
 H2216 H -0.10241 0.48131 0.48619
 C2217 C 0.34644 -0.04875 0.44999
 C2218 C 0.35613 -0.04481 0.45388
 C2219 C 0.36787 -0.04037 0.45834
 C2220 C 0.37873 -0.04368 0.45215
 C2221 C 0.39020 -0.03964 0.45654
 C2222 C 0.39096 -0.03221 0.46721
 C2223 C 0.37997 -0.02883 0.47332
 C2224 C 0.36849 -0.03290 0.46891
 C2225 C 0.40319 -0.02812 0.47196
 C2226 C 0.40491 -0.01602 0.47642
 C2227 C 0.41654 -0.01215 0.48060
 C2228 C 0.42656 -0.02033 0.48042
 C2229 C 0.42490 -0.03243 0.47614
 C2230 C 0.41331 -0.03631 0.47195
 C2231 C 0.43865 -0.01634 0.48432
 C2232 C 0.44895 -0.01327 0.48733
 H2233 H 0.37835 -0.04942 0.44394
 H2234 H 0.39847 -0.04224 0.45152
 H2235 H 0.38026 -0.02323 0.48162
 H2236 H 0.36013 -0.03031 0.47378
 H2237 H 0.39733 -0.00947 0.47643
 H2238 H 0.41774 -0.00275 0.48386
 H2239 H 0.43259 -0.03885 0.47599
 H2240 H 0.41223 -0.04574 0.46876
 C2241 C 0.34585 0.45087 -0.04885
 C2242 C 0.35550 0.45483 -0.04488
 C2243 C 0.36722 0.45933 -0.04044
 C2244 C 0.36805 0.46552 -0.02909
 C2245 C 0.37954 0.46966 -0.02476
 C2246 C 0.39034 0.46761 -0.03173
 C2247 C 0.38937 0.46147 -0.04317
 C2248 C 0.37790 0.45736 -0.04748
 C2249 C 0.40260 0.47172 -0.02708
 C2250 C 0.41306 0.46411 -0.02854
 C2251 C 0.42466 0.46803 -0.02442
 C2252 C 0.42601 0.47960 -0.01879
 C2253 C 0.41567 0.48721 -0.01719
 C2254 C 0.40402 0.48329 -0.02129
 C2255 C 0.43810 0.48366 -0.01492
 C2256 C 0.44840 0.48677 -0.01196
 H2257 H 0.35984 0.46707 -0.02355
 H2258 H 0.38000 0.47426 -0.01586
 H2259 H 0.39748 0.45992 -0.04884
 H2260 H 0.37736 0.45261 -0.05630
 H2261 H 0.41224 0.45508 -0.03278
 H2262 H 0.43260 0.46205 -0.02568
 H2263 H 0.41661 0.49621 -0.01288
 H2264 H 0.39617 0.48941 -0.02015
 C2265 C 0.40202 0.44915 0.79961
 C2266 C 0.39241 0.45314 0.79560
 C2267 C 0.38077 0.45764 0.79098
 C2268 C 0.37870 0.47035 0.78975
 C2269 C 0.36723 0.47468 0.78561
 C2270 C 0.35768 0.46634 0.78268
 C2271 C 0.35991 0.45357 0.78382
 C2272 C 0.37138 0.44927 0.78795
 C2273 C 0.34538 0.47089 0.77861
 C2274 C 0.33451 0.46527 0.78303
 C2275 C 0.32291 0.46947 0.77918
 C2276 C 0.32201 0.47934 0.77087
 C2277 C 0.33276 0.48504 0.76645
 C2278 C 0.34438 0.48086 0.77031
 C2279 C 0.31003 0.48351 0.76685
 C2280 C 0.29989 0.48678 0.76359
 H2281 H 0.38590 0.47691 0.79211
 H2282 H 0.36575 0.48456 0.78494
 H2283 H 0.35281 0.44692 0.78146
 H2284 H 0.37290 0.43941 0.78884
 H2285 H 0.33496 0.45770 0.78959
 H2286 H 0.31464 0.46502 0.78269
 H2287 H 0.33216 0.49268 0.75998
 H2288 H 0.35259 0.48529 0.76665
 C2289 C 0.40186 -0.04928 0.29982
 C2290 C 0.39227 -0.04508 0.29597
 C2291 C 0.38070 -0.04018 0.29157
 C2292 C 0.37347 -0.03276 0.29933
 C2293 C 0.36204 -0.02831 0.29525
 C2294 C 0.35767 -0.03123 0.28332
 C2295 C 0.36507 -0.03860 0.27554
 C2296 C 0.37650 -0.04305 0.27966
 C2297 C 0.34536 -0.02682 0.27911
 C2298 C 0.34359 -0.02265 0.26690
 C2299 C 0.33192 -0.01871 0.26292
 C2300 C 0.32188 -0.01891 0.27108
 C2301 C 0.32355 -0.02298 0.28326
 C2302 C 0.33520 -0.02691 0.28726
 C2303 C 0.30979 -0.01516 0.26696
 C2304 C 0.29956 -0.01217 0.26366
 H2305 H 0.37664 -0.03048 0.30858
 H2306 H 0.35664 -0.02253 0.30139
 H2307 H 0.36189 -0.04115 0.26638
 H2308 H 0.38199 -0.04884 0.27360
 H2309 H 0.35125 -0.02234 0.26045
 H2310 H 0.33073 -0.01556 0.25347
 H2311 H 0.31582 -0.02323 0.28964
 H2312 H 0.33621 -0.03024 0.29666
 C2313 C 0.09677 0.54973 0.70198
 C2314 C 0.10648 0.54585 0.70585
 C2315 C 0.11826 0.54143 0.71020
 C2316 C 0.11898 0.53085 0.71762
 C2317 C 0.13050 0.52651 0.72164
 C2318 C 0.14144 0.53269 0.71824
 C2319 C 0.14059 0.54336 0.71085
 C2320 C 0.12908 0.54768 0.70686
 C2321 C 0.15372 0.52803 0.72229
 C2322 C 0.16382 0.52815 0.71408
 C2323 C 0.17544 0.52403 0.71792
 C2324 C 0.17716 0.51971 0.73001
 C2325 C 0.16716 0.51943 0.73823
 C2326 C 0.15550 0.52354 0.73440
 C2327 C 0.18928 0.51586 0.73396
 C2328 C 0.19960 0.51289 0.73699
 H2329 H 0.11066 0.52591 0.72024
 H2330 H 0.13087 0.51820 0.72722
 H2331 H 0.14882 0.54844 0.70824
 H2332 H 0.12863 0.55590 0.70114
 H2333 H 0.16271 0.53137 0.70466
 H2334 H 0.18312 0.52427 0.71148
 H2335 H 0.16840 0.51614 0.74762
 H2336 H 0.14794 0.52345 0.74097
 C2337 C 0.09594 0.04815 0.20118
 C2338 C 0.10571 0.04433 0.20497
 C2339 C 0.11754 0.03995 0.20925
 C2340 C 0.11825 0.03058 0.21816
 C2341 C 0.12979 0.02631 0.22219
 C2342 C 0.14076 0.03135 0.21732
 C2343 C 0.13993 0.04080 0.20842
 C2344 C 0.12840 0.04506 0.20442
 C2345 C 0.15305 0.02679 0.22147
 C2346 C 0.16271 0.02519 0.21290
 C2347 C 0.17437 0.02120 0.21681
 C2348 C 0.17654 0.01874 0.22934
 C2349 C 0.16697 0.02017 0.23794
 C2350 C 0.15529 0.02415 0.23404
 C2351 C 0.18871 0.01508 0.23333
 C2352 C 0.19904 0.01224 0.23642
 H2353 H 0.10990 0.02655 0.22195
 H2354 H 0.13013 0.01894 0.22896
 H2355 H 0.14820 0.04500 0.20464
 H2356 H 0.12796 0.05235 0.19756
 H2357 H 0.16123 0.02697 0.20314
 H2358 H 0.18170 0.02012 0.21007
 H2359 H 0.16858 0.01834 0.24767
 H2360 H 0.14808 0.02542 0.24088
 C2361 C 0.65280 0.70087 0.20017
 C2362 C 0.64310 0.70472 0.20408
 C2363 C 0.63134 0.70908 0.20855
 C2364 C 0.62087 0.70155 0.20743
 C2365 C 0.60937 0.70578 0.21151
 C2366 C 0.60816 0.71761 0.21677
 C2367 C 0.61876 0.72508 0.21796
 C2368 C 0.63028 0.72084 0.21385
 C2369 C 0.59587 0.72215 0.22087
 C2370 C 0.59460 0.72883 0.23198
 C2371 C 0.58295 0.73290 0.23589
 C2372 C 0.57245 0.73036 0.22874
 C2373 C 0.57364 0.72382 0.21763
 C2374 C 0.58525 0.71974 0.21372
 C2375 C 0.56039 0.73426 0.23280
 C2376 C 0.55013 0.73727 0.23594
 H2377 H 0.62160 0.69242 0.20337
 H2378 H 0.60142 0.69974 0.21063
 H2379 H 0.61811 0.73428 0.22184
 H2380 H 0.63832 0.72675 0.21473
 H2381 H 0.60257 0.73072 0.23775
 H2382 H 0.58212 0.73792 0.24453
 H2383 H 0.56557 0.72183 0.21201
 H2384 H 0.58595 0.71479 0.20503
 C2385 C 0.15122 0.69970 0.69948
 C2386 C 0.14151 0.70356 0.70337
 C2387 C 0.12979 0.70798 0.70786
 C2388 C 0.12897 0.71944 0.71382
 C2389 C 0.11753 0.72375 0.71804
 C2390 C 0.10675 0.71665 0.71632
 C2391 C 0.10769 0.70512 0.71036
 C2392 C 0.11913 0.70083 0.70616
 C2393 C 0.09455 0.72124 0.72066
 C2394 C 0.08391 0.71959 0.71333
 C2395 C 0.07240 0.72379 0.71745
 C2396 C 0.07136 0.72968 0.72893
 C2397 C 0.08189 0.73141 0.73628
 C2398 C 0.09342 0.72724 0.73217
 C2399 C 0.05943 0.73379 0.73317
 C2400 C 0.04933 0.73706 0.73655
 H2401 H 0.13716 0.72506 0.71515
 H2402 H 0.11707 0.73271 0.72247
 H2403 H 0.09960 0.69936 0.70905
 H2404 H 0.11967 0.69193 0.70159
 H2405 H 0.08450 0.71517 0.70436
 H2406 H 0.06431 0.72242 0.71168
 H2407 H 0.08117 0.73593 0.74520
 H2408 H 0.10142 0.72851 0.73807
 C2409 C 0.59897 0.19904 0.55033
 C2410 C 0.60862 0.20303 0.54644
 C2411 C 0.62029 0.20758 0.54193
 C2412 C 0.63082 0.20011 0.54268
 C2413 C 0.64224 0.20452 0.53853
 C2414 C 0.64328 0.21650 0.53356
 C2415 C 0.63261 0.22391 0.53275
 C2416 C 0.62120 0.21948 0.53693
 C2417 C 0.65546 0.22122 0.52933
 C2418 C 0.65646 0.22817 0.51837
 C2419 C 0.66801 0.23240 0.51432
 C2420 C 0.67867 0.22977 0.52119
 C2421 C 0.67774 0.22296 0.53216
 C2422 C 0.66623 0.21872 0.53621
 C2423 C 0.69061 0.23386 0.51697
 C2424 C 0.70075 0.23708 0.51364
 H2425 H 0.63022 0.19086 0.54650
 H2426 H 0.65023 0.19852 0.53910
 H2427 H 0.63314 0.23322 0.52909
 H2428 H 0.61310 0.22535 0.53633
 H2429 H 0.64836 0.23015 0.51281
 H2430 H 0.66862 0.23765 0.50580
 H2431 H 0.68593 0.22091 0.53758
 H2432 H 0.66574 0.21356 0.54479
 C2433 C 0.59885 0.69945 0.05027
 C2434 C 0.60850 0.70347 0.04641
 C2435 C 0.62018 0.70805 0.04196
 C2436 C 0.62108 0.71996 0.03698
 C2437 C 0.63250 0.72441 0.03282
 C2438 C 0.64317 0.71699 0.03363
 C2439 C 0.64213 0.70502 0.03860
 C2440 C 0.63072 0.70059 0.04273
 C2441 C 0.65535 0.72171 0.02938
 C2442 C 0.66612 0.71921 0.03624
 C2443 C 0.67763 0.72345 0.03217
 C2444 C 0.67854 0.73025 0.02119
 C2445 C 0.66787 0.73288 0.01433
 C2446 C 0.65633 0.72865 0.01840
 C2447 C 0.69047 0.73434 0.01695
 C2448 C 0.70060 0.73756 0.01360
 H2449 H 0.61298 0.72582 0.03637
 H2450 H 0.63303 0.73371 0.02916
 H2451 H 0.65013 0.69902 0.03918
 H2452 H 0.63012 0.69135 0.04655
 H2453 H 0.66565 0.71406 0.04483
 H2454 H 0.68583 0.72140 0.03757
 H2455 H 0.66847 0.73811 0.00581
 H2456 H 0.64822 0.73062 0.01286
 C2457 C 0.15347 0.04906 0.04864
 C2458 C 0.14400 0.04492 0.04443
 C2459 C 0.13255 0.04013 0.03961
 C2460 C 0.12539 0.03208 0.04677
 C2461 C 0.11402 0.02780 0.04233
 C2462 C 0.10964 0.03156 0.03065
 C2463 C 0.11697 0.03956 0.02346
 C2464 C 0.12835 0.04382 0.02792
 C2465 C 0.09735 0.02740 0.02614
 C2466 C 0.08936 0.03572 0.02012
 C2467 C 0.07760 0.03195 0.01629
 C2468 C 0.07366 0.01981 0.01840
 C2469 C 0.08158 0.01141 0.02425
 C2470 C 0.09335 0.01517 0.02809
 C2471 C 0.06134 0.01613 0.01495
 C2472 C 0.05091 0.01325 0.01222
 H2473 H 0.12853 0.02922 0.05586
 H2474 H 0.10852 0.02179 0.04815
 H2475 H 0.11392 0.04251 0.01438
 H2476 H 0.13382 0.05005 0.02230
 H2477 H 0.09209 0.04524 0.01863
 H2478 H 0.07151 0.03855 0.01184
 H2479 H 0.07863 0.00199 0.02592
 H2480 H 0.09935 0.00851 0.03257
 C2481 C 0.15302 0.54991 0.54856
 C2482 C 0.14339 0.54598 0.54453
 C2483 C 0.13169 0.54158 0.53994
 C2484 C 0.13040 0.52937 0.53585
 C2485 C 0.11889 0.52509 0.53175
 C2486 C 0.10853 0.53297 0.53174
 C2487 C 0.10999 0.54526 0.53574
 C2488 C 0.12149 0.54952 0.53981
 C2489 C 0.09620 0.52840 0.52778
 C2490 C 0.08552 0.53188 0.53435
 C2491 C 0.07386 0.52780 0.53056
 C2492 C 0.07270 0.52017 0.52016
 C2493 C 0.08326 0.51655 0.51361
 C2494 C 0.09496 0.52062 0.51741
 C2495 C 0.06059 0.51627 0.51621
 C2496 C 0.05028 0.51331 0.51317
 H2497 H 0.13824 0.52314 0.53595
 H2498 H 0.11802 0.51555 0.52884
 H2499 H 0.10224 0.55161 0.53566
 H2500 H 0.12240 0.55900 0.54293
 H2501 H 0.08619 0.53769 0.54249
 H2502 H 0.06575 0.53062 0.53572
 H2503 H 0.08245 0.51067 0.50553
 H2504 H 0.10300 0.51788 0.51210
 C2505 C 0.65160 0.05077 0.54905
 C2506 C 0.64198 0.04680 0.54501
 C2507 C 0.63036 0.04229 0.54033
 C2508 C 0.62758 0.02966 0.54079
 C2509 C 0.61611 0.02538 0.53657
 C2510 C 0.60727 0.03369 0.53186
 C2511 C 0.61021 0.04635 0.53134
 C2512 C 0.62167 0.05061 0.53556
 C2513 C 0.59496 0.02923 0.52770
 C2514 C 0.58421 0.03601 0.53052
 C2515 C 0.57261 0.03183 0.52665
 C2516 C 0.57156 0.02083 0.51992
 C2517 C 0.58218 0.01401 0.51706
 C2518 C 0.59381 0.01817 0.52093
 C2519 C 0.55955 0.01658 0.51604
 C2520 C 0.54937 0.01325 0.51294
 H2521 H 0.63421 0.02315 0.54453
 H2522 H 0.61407 0.01560 0.53723
 H2523 H 0.60367 0.05296 0.52762
 H2524 H 0.62373 0.06040 0.53515
 H2525 H 0.58476 0.04445 0.53587
 H2526 H 0.56444 0.03716 0.52896
 H2527 H 0.58147 0.00549 0.51182
 H2528 H 0.60192 0.01282 0.51850
 C2529 C 0.65125 0.55089 0.04882
 C2530 C 0.64167 0.54693 0.04469
 C2531 C 0.63009 0.54242 0.03990
 C2532 C 0.62186 0.55057 0.03412
 C2533 C 0.61042 0.54632 0.02983
 C2534 C 0.60705 0.53384 0.03128
 C2535 C 0.61544 0.52569 0.03698
 C2536 C 0.62688 0.52996 0.04128
 C2537 C 0.59473 0.52942 0.02708
 C2538 C 0.59343 0.51785 0.02126
 C2539 C 0.58178 0.51367 0.01746
 C2540 C 0.57129 0.52099 0.01944
 C2541 C 0.57249 0.53252 0.02520
 C2542 C 0.58412 0.53671 0.02899
 C2543 C 0.55925 0.51670 0.01570
 C2544 C 0.54905 0.51334 0.01271
 H2545 H 0.62426 0.56023 0.03300
 H2546 H 0.60424 0.55279 0.02534
 H2547 H 0.61305 0.51607 0.03837
 H2548 H 0.63315 0.52358 0.04579
 H2549 H 0.60143 0.51209 0.01954
 H2550 H 0.58095 0.50474 0.01298
 H2551 H 0.56443 0.53824 0.02682
 H2552 H 0.58478 0.54557 0.03361
 C2553 C 0.04734 0.04762 0.15440
 C2554 C 0.04325 0.04354 0.14485
 C2555 C 0.03859 0.03885 0.13328
 C2556 C 0.02683 0.04231 0.12910
 C2557 C 0.02254 0.03821 0.11759
 C2558 C 0.02998 0.03058 0.11011
 C2559 C 0.04171 0.02702 0.11448
 C2560 C 0.04598 0.03113 0.12598
 C2561 C 0.02568 0.02665 0.09765
 C2562 C 0.02803 0.01460 0.09332
 C2563 C 0.02436 0.01107 0.08141
 C2564 C 0.01830 0.01951 0.07369
 C2565 C 0.01582 0.03147 0.07795
 C2566 C 0.01947 0.03502 0.08985
 C2567 C 0.01495 0.01604 0.06127
 C2568 C 0.01230 0.01327 0.05079
 H2569 H 0.02103 0.04827 0.13468
 H2570 H 0.01341 0.04099 0.11456
 H2571 H 0.04772 0.02129 0.10888
 H2572 H 0.05512 0.02845 0.12910
 H2573 H 0.03266 0.00791 0.09915
 H2574 H 0.02633 0.00179 0.07820
 H2575 H 0.01120 0.03810 0.07202
 H2576 H 0.01769 0.04440 0.09284
 C2577 C 0.04855 0.54929 0.65401
 C2578 C 0.04468 0.54528 0.64433
 C2579 C 0.04034 0.54072 0.63258
 C2580 C 0.02830 0.53610 0.63135
 C2581 C 0.02407 0.53196 0.61982
 C2582 C 0.03183 0.53244 0.60937
 C2583 C 0.04394 0.53701 0.61075
 C2584 C 0.04815 0.54111 0.62227
 C2585 C 0.02732 0.52832 0.59704
 C2586 C 0.03044 0.53502 0.58633
 C2587 C 0.02640 0.53109 0.57469
 C2588 C 0.01918 0.52041 0.57357
 C2589 C 0.01593 0.51371 0.58417
 C2590 C 0.01996 0.51765 0.59585
 C2591 C 0.01526 0.51636 0.56150
 C2592 C 0.01225 0.51327 0.55120
 H2593 H 0.02216 0.53578 0.63927
 H2594 H 0.01466 0.52862 0.61903
 H2595 H 0.05020 0.53732 0.60294
 H2596 H 0.05750 0.54464 0.62313
 H2597 H 0.03592 0.54338 0.58695
 H2598 H 0.02894 0.53636 0.56655
 H2599 H 0.01037 0.50542 0.58341
 H2600 H 0.01751 0.51223 0.60390
 C2601 C 0.54962 0.04855 0.65272
 C2602 C 0.54572 0.04450 0.64308
 C2603 C 0.54118 0.03982 0.63146
 C2604 C 0.54810 0.03114 0.62481
 C2605 C 0.54392 0.02692 0.61331
 C2606 C 0.53275 0.03133 0.60829
 C2607 C 0.52579 0.03996 0.61511
 C2608 C 0.52999 0.04418 0.62661
 C2609 C 0.52849 0.02715 0.59590
 C2610 C 0.51590 0.02468 0.59367
 C2611 C 0.51190 0.02095 0.58193
 C2612 C 0.52043 0.01966 0.57226
 C2613 C 0.53297 0.02207 0.57440
 C2614 C 0.53699 0.02578 0.58613
 C2615 C 0.51634 0.01597 0.56013
 C2616 C 0.51312 0.01293 0.54988
 H2617 H 0.55677 0.02769 0.62848
 H2618 H 0.54941 0.02015 0.60837
 H2619 H 0.51723 0.04365 0.61144
 H2620 H 0.52459 0.05095 0.63165
 H2621 H 0.50916 0.02551 0.60103
 H2622 H 0.50218 0.01909 0.58038
 H2623 H 0.53964 0.02115 0.56697
 H2624 H 0.54671 0.02778 0.58749
 C2625 C 0.54915 0.54849 0.15306
 C2626 C 0.54537 0.54443 0.14337
 C2627 C 0.54101 0.53975 0.13168
 C2628 C 0.52863 0.54131 0.12822
 C2629 C 0.52451 0.53713 0.11668
 C2630 C 0.53275 0.53135 0.10843
 C2631 C 0.54515 0.52971 0.11205
 C2632 C 0.54924 0.53389 0.12359
 C2633 C 0.52850 0.52723 0.09601
 C2634 C 0.53603 0.52902 0.08554
 C2635 C 0.53203 0.52524 0.07383
 C2636 C 0.52045 0.51962 0.07241
 C2637 C 0.51288 0.51779 0.08275
 C2638 C 0.51686 0.52158 0.09448
 C2639 C 0.51638 0.51582 0.06030
 C2640 C 0.51313 0.51275 0.05007
 H2641 H 0.52219 0.54589 0.13439
 H2642 H 0.51495 0.53866 0.11411
 H2643 H 0.55167 0.52514 0.10598
 H2644 H 0.55884 0.53262 0.12618
 H2645 H 0.54494 0.53351 0.08637
 H2646 H 0.53794 0.52675 0.06588
 H2647 H 0.50391 0.51344 0.08175
 H2648 H 0.51091 0.51996 0.10237
 C2649 C 0.20100 0.55009 0.59682
 C2650 C 0.20502 0.54611 0.60644
 C2651 C 0.20962 0.54159 0.61809
 C2652 C 0.21780 0.53157 0.61848
 C2653 C 0.22225 0.52725 0.62986
 C2654 C 0.21857 0.53294 0.64098
 C2655 C 0.21032 0.54298 0.64047
 C2656 C 0.20588 0.54727 0.62910
 C2657 C 0.22328 0.52847 0.65310
 C2658 C 0.22659 0.53695 0.66241
 C2659 C 0.23061 0.53279 0.67397
 C2660 C 0.23140 0.52011 0.67640
 C2661 C 0.22830 0.51159 0.66715
 C2662 C 0.22429 0.51573 0.65555
 C2663 C 0.23503 0.51596 0.68853
 C2664 C 0.23787 0.51284 0.69885
 H2665 H 0.22077 0.52712 0.61000
 H2666 H 0.22868 0.51959 0.62995
 H2667 H 0.20716 0.54744 0.64887
 H2668 H 0.19951 0.55500 0.62891
 H2669 H 0.22610 0.54680 0.66074
 H2670 H 0.23300 0.53947 0.68106
 H2671 H 0.22883 0.50175 0.66896
 H2672 H 0.22170 0.50899 0.64862
 C2673 C 0.20025 0.04880 0.09636
 C2674 C 0.20426 0.04453 0.10586
 C2675 C 0.20885 0.03956 0.11733
 C2676 C 0.20054 0.03568 0.12646
 C2677 C 0.20494 0.03117 0.13776
 C2678 C 0.21773 0.03051 0.14009
 C2679 C 0.22602 0.03433 0.13080
 C2680 C 0.22160 0.03883 0.11950
 C2681 C 0.22237 0.02611 0.15226
 C2682 C 0.23232 0.03214 0.15812
 C2683 C 0.23637 0.02832 0.16980
 C2684 C 0.23056 0.01841 0.17576
 C2685 C 0.22077 0.01225 0.16995
 C2686 C 0.21669 0.01606 0.15827
 C2687 C 0.23432 0.01488 0.18804
 C2688 C 0.23725 0.01211 0.19844
 H2689 H 0.19065 0.03626 0.12490
 H2690 H 0.19832 0.02846 0.14477
 H2691 H 0.23591 0.03380 0.13226
 H2692 H 0.22811 0.04180 0.11249
 H2693 H 0.23677 0.04001 0.15382
 H2694 H 0.24390 0.03321 0.17426
 H2695 H 0.21619 0.00458 0.17449
 H2696 H 0.20912 0.01114 0.15394
 C2697 C 0.70114 0.19987 0.65240
 C2698 C 0.70507 0.20369 0.64268
 C2699 C 0.70964 0.20802 0.63095
 C2700 C 0.71070 0.22070 0.62862
 C2701 C 0.71484 0.22485 0.61708
 C2702 C 0.71795 0.21636 0.60772
 C2703 C 0.71694 0.20363 0.61020
 C2704 C 0.71281 0.19950 0.62173
 C2705 C 0.72207 0.22073 0.59536
 C2706 C 0.71785 0.21486 0.58453
 C2707 C 0.72170 0.21897 0.57289
 C2708 C 0.72982 0.22899 0.57190
 C2709 C 0.73407 0.23491 0.58261
 C2710 C 0.73022 0.23082 0.59427
 C2711 C 0.73375 0.23314 0.55988
 C2712 C 0.73693 0.23644 0.54971
 H2713 H 0.70822 0.22737 0.63567
 H2714 H 0.71539 0.23471 0.61541
 H2715 H 0.71942 0.19686 0.60324
 H2716 H 0.71205 0.18966 0.62345
 H2717 H 0.71144 0.20718 0.58505
 H2718 H 0.71831 0.21434 0.56466
 H2719 H 0.74039 0.24267 0.58195
 H2720 H 0.73374 0.23545 0.60244
 C2721 C 0.70101 0.70104 0.15220
 C2722 C 0.70505 0.70495 0.14257
 C2723 C 0.70973 0.70939 0.13093
 C2724 C 0.71634 0.70141 0.12317
 C2725 C 0.72054 0.70553 0.11166
 C2726 C 0.71818 0.71770 0.10773
 C2727 C 0.71164 0.72570 0.11565
 C2728 C 0.70743 0.72155 0.12717
 C2729 C 0.72235 0.72196 0.09535
 C2730 C 0.72730 0.73389 0.09375
 C2731 C 0.73114 0.73789 0.08206
 C2732 C 0.73007 0.73002 0.07182
 C2733 C 0.72517 0.71815 0.07332
 C2734 C 0.72134 0.71413 0.08500
 C2735 C 0.73391 0.73411 0.05975
 C2736 C 0.73701 0.73735 0.04954
 H2737 H 0.71818 0.69198 0.12599
 H2738 H 0.72569 0.69920 0.10584
 H2739 H 0.70954 0.73507 0.11283
 H2740 H 0.70227 0.72779 0.13307
 H2741 H 0.72832 0.74008 0.10157
 H2742 H 0.73494 0.74709 0.08100
 H2743 H 0.72426 0.71200 0.06545
 H2744 H 0.71740 0.70497 0.08589
 C2745 C 0.54926 0.69991 0.09682
 C2746 C 0.54482 0.70407 0.10617
 C2747 C 0.53967 0.70885 0.11747
 C2748 C 0.53599 0.70071 0.12683
 C2749 C 0.53133 0.70530 0.13798
 C2750 C 0.53029 0.71812 0.13994
 C2751 C 0.53391 0.72624 0.13042
 C2752 C 0.53858 0.72162 0.11926
 C2753 C 0.52575 0.72296 0.15197
 C2754 C 0.53148 0.73324 0.15755
 C2755 C 0.52761 0.73741 0.16917
 C2756 C 0.51796 0.73139 0.17535
 C2757 C 0.51206 0.72129 0.16979
 C2758 C 0.51592 0.71711 0.15817
 C2759 C 0.51447 0.73519 0.18762
 C2760 C 0.51174 0.73810 0.19804
 H2761 H 0.53686 0.69081 0.12557
 H2762 H 0.52880 0.69881 0.14518
 H2763 H 0.53310 0.73614 0.13158
 H2764 H 0.54139 0.72801 0.11207
 H2765 H 0.53917 0.73784 0.15309
 H2766 H 0.53229 0.74518 0.17343
 H2767 H 0.50459 0.71656 0.17450
 H2768 H 0.51122 0.70928 0.15406
 C2769 C 0.05047 0.70058 0.59885
 C2770 C 0.04647 0.70446 0.60852
 C2771 C 0.04181 0.70882 0.62020
 C2772 C 0.03872 0.72128 0.62178
 C2773 C 0.03441 0.72550 0.63324
 C2774 C 0.03317 0.71729 0.64327
 C2775 C 0.03621 0.70477 0.64154
 C2776 C 0.04050 0.70057 0.63009
 C2777 C 0.02886 0.72177 0.65553
 C2778 C 0.03442 0.71740 0.66646
 C2779 C 0.03035 0.72153 0.67802
 C2780 C 0.02068 0.73009 0.67882
 C2781 C 0.01509 0.73452 0.66800
 C2782 C 0.01916 0.73040 0.65642
 C2783 C 0.01654 0.73425 0.69077
 C2784 C 0.01329 0.73754 0.70092
 H2785 H 0.03973 0.72775 0.61419
 H2786 H 0.03227 0.73522 0.63432
 H2787 H 0.03518 0.69819 0.64903
 H2788 H 0.04283 0.69090 0.62896
 H2789 H 0.04201 0.71089 0.66608
 H2790 H 0.03477 0.71807 0.68633
 H2791 H 0.00757 0.74112 0.66852
 H2792 H 0.01460 0.73383 0.64817
 C2793 C 0.54732 0.59634 0.20132
 C2794 C 0.54305 0.60590 0.20516
 C2795 C 0.53813 0.61749 0.20947
 C2796 C 0.53111 0.62486 0.20148
 C2797 C 0.52678 0.63638 0.20541
 C2798 C 0.52944 0.64070 0.21741
 C2799 C 0.53637 0.63314 0.22544
 C2800 C 0.54070 0.62162 0.22148
 C2801 C 0.52527 0.65316 0.22142
 C2802 C 0.52082 0.65513 0.23351
 C2803 C 0.51714 0.66693 0.23730
 C2804 C 0.51787 0.67691 0.22908
 C2805 C 0.52222 0.67502 0.21703
 C2806 C 0.52590 0.66324 0.21322
 C2807 C 0.51437 0.68913 0.23299
 C2808 C 0.51162 0.69950 0.23602
 H2809 H 0.52906 0.62175 0.19216
 H2810 H 0.52134 0.64190 0.19906
 H2811 H 0.53871 0.63627 0.23467
 H2812 H 0.54619 0.61602 0.22772
 H2813 H 0.52010 0.64753 0.23999
 H2814 H 0.51378 0.66828 0.24665
 H2815 H 0.52288 0.68269 0.21061
 H2816 H 0.52945 0.66208 0.20392
 C2817 C 0.04900 0.59808 0.70141
 C2818 C 0.04519 0.60783 0.70524
 C2819 C 0.04088 0.61962 0.70967
 C2820 C 0.04926 0.62938 0.71113
 C2821 C 0.04512 0.64093 0.71516
 C2822 C 0.03253 0.64290 0.71780
 C2823 C 0.02419 0.63301 0.71639
 C2824 C 0.02834 0.62145 0.71233
 C2825 C 0.02814 0.65526 0.72189
 C2826 C 0.01924 0.65638 0.73133
 C2827 C 0.01527 0.66805 0.73526
 C2828 C 0.02011 0.67873 0.72979
 C2829 C 0.02890 0.67771 0.72035
 C2830 C 0.03290 0.66607 0.71642
 C2831 C 0.01615 0.69077 0.73385
 C2832 C 0.01301 0.70097 0.73710
 H2833 H 0.05899 0.62806 0.70912
 H2834 H 0.05180 0.64830 0.71633
 H2835 H 0.01442 0.63427 0.71821
 H2836 H 0.02177 0.61397 0.71119
 H2837 H 0.01551 0.64824 0.73582
 H2838 H 0.00847 0.66874 0.74260
 H2839 H 0.03268 0.68591 0.71601
 H2840 H 0.03961 0.66552 0.70901
 C2841 C 0.04864 0.15361 0.04862
 C2842 C 0.04440 0.14422 0.04434
 C2843 C 0.03950 0.13287 0.03942
 C2844 C 0.04305 0.12880 0.02764
 C2845 C 0.03871 0.11749 0.02310
 C2846 C 0.03076 0.11011 0.03029
 C2847 C 0.02713 0.11436 0.04205
 C2848 C 0.03149 0.12566 0.04658
 C2849 C 0.02657 0.09785 0.02573
 C2850 C 0.01437 0.09380 0.02782
 C2851 C 0.01061 0.08204 0.02398
 C2852 C 0.01897 0.07418 0.01801
 C2853 C 0.03108 0.07817 0.01575
 C2854 C 0.03485 0.08993 0.01956
 C2855 C 0.01532 0.06184 0.01461
 C2856 C 0.01246 0.05140 0.01196
 H2857 H 0.04925 0.13431 0.02202
 H2858 H 0.04155 0.11454 0.01395
 H2859 H 0.02117 0.10881 0.04788
 H2860 H 0.02874 0.12869 0.05573
 H2861 H 0.00774 0.09973 0.03241
 H2862 H 0.00122 0.07903 0.02578
 H2863 H 0.03765 0.07213 0.01120
 H2864 H 0.04435 0.09270 0.01798
 C2865 C 0.04954 0.65302 0.55031
 C2866 C 0.04535 0.64349 0.54631
 C2867 C 0.04050 0.63195 0.54181
 C2868 C 0.03480 0.63127 0.53019
 C2869 C 0.03021 0.61998 0.52585
 C2870 C 0.03125 0.60922 0.53311
 C2871 C 0.03699 0.61002 0.54478
 C2872 C 0.04157 0.62131 0.54909
 C2873 C 0.02651 0.59717 0.52853
 C2874 C 0.02045 0.58899 0.53663
 C2875 C 0.01642 0.57744 0.53248
 C2876 C 0.01837 0.57390 0.52017
 C2877 C 0.02422 0.58204 0.51198
 C2878 C 0.02825 0.59362 0.51612
 C2879 C 0.01478 0.56173 0.51615
 C2880 C 0.01196 0.55139 0.51310
 H2881 H 0.03390 0.63946 0.52449
 H2882 H 0.02572 0.61968 0.51689
 H2883 H 0.03811 0.60189 0.55050
 H2884 H 0.04602 0.62171 0.55807
 H2885 H 0.01881 0.59152 0.54619
 H2886 H 0.01190 0.57121 0.53890
 H2887 H 0.02584 0.57937 0.50245
 H2888 H 0.03301 0.59965 0.50969
 C2889 C 0.55081 0.15110 0.54922
 C2890 C 0.54681 0.14158 0.54503
 C2891 C 0.54222 0.13007 0.54018
 C2892 C 0.55003 0.12239 0.53329
 C2893 C 0.54576 0.11097 0.52900
 C2894 C 0.53361 0.10707 0.53157
 C2895 C 0.52578 0.11493 0.53837
 C2896 C 0.53007 0.12635 0.54266
 C2897 C 0.52922 0.09474 0.52741
 C2898 C 0.51716 0.09319 0.52274
 C2899 C 0.51301 0.08152 0.51901
 C2900 C 0.52086 0.07127 0.51991
 C2901 C 0.53287 0.07272 0.52451
 C2902 C 0.53703 0.08437 0.52823
 C2903 C 0.51662 0.05921 0.51620
 C2904 C 0.51329 0.04902 0.51319
 H2905 H 0.55944 0.12519 0.53130
 H2906 H 0.55195 0.10520 0.52365
 H2907 H 0.51643 0.11212 0.54062
 H2908 H 0.52397 0.13220 0.54803
 H2909 H 0.51097 0.10101 0.52187
 H2910 H 0.50370 0.08049 0.51544
 H2911 H 0.53900 0.06484 0.52529
 H2912 H 0.54630 0.08523 0.53196
 C2913 C 0.55118 0.65099 0.04966
 C2914 C 0.54731 0.64133 0.04564
 C2915 C 0.54284 0.62969 0.04100
 C2916 C 0.53013 0.62764 0.03963
 C2917 C 0.52580 0.61619 0.03545
 C2918 C 0.53416 0.60662 0.03263
 C2919 C 0.54693 0.60882 0.03395
 C2920 C 0.55122 0.62027 0.03811
 C2921 C 0.52959 0.59434 0.02850
 C2922 C 0.53515 0.58344 0.03292
 C2923 C 0.53084 0.57187 0.02910
 C2924 C 0.52092 0.57102 0.02081
 C2925 C 0.51531 0.58180 0.01636
 C2926 C 0.51961 0.59339 0.02018
 C2927 C 0.51658 0.55907 0.01690
 C2928 C 0.51315 0.54895 0.01374
 H2929 H 0.52355 0.63485 0.04189
 H2930 H 0.51592 0.61474 0.03468
 H2931 H 0.55360 0.60170 0.03169
 H2932 H 0.56108 0.62177 0.03913
 H2933 H 0.54273 0.58385 0.03948
 H2934 H 0.53523 0.56359 0.03263
 H2935 H 0.50765 0.58125 0.00991
 H2936 H 0.51523 0.60161 0.01651
 C2937 C 0.69913 0.09854 0.54967
 C2938 C 0.70305 0.10822 0.54574
 C2939 C 0.70754 0.11989 0.54119
 C2940 C 0.72020 0.12169 0.53915
 C2941 C 0.72455 0.13315 0.53501
 C2942 C 0.71628 0.14297 0.53289
 C2943 C 0.70357 0.14103 0.53490
 C2944 C 0.69924 0.12958 0.53902
 C2945 C 0.72088 0.15523 0.52875
 C2946 C 0.71591 0.16615 0.53378
 C2947 C 0.72017 0.17770 0.52987
 C2948 C 0.72946 0.17851 0.52089
 C2949 C 0.73450 0.16771 0.51585
 C2950 C 0.73026 0.15614 0.51976
 C2951 C 0.73371 0.19046 0.51685
 C2952 C 0.73705 0.20060 0.51365
 H2953 H 0.72672 0.11428 0.54086
 H2954 H 0.73440 0.13439 0.53368
 H2955 H 0.69695 0.14835 0.53319
 H2956 H 0.68942 0.12828 0.54055
 H2957 H 0.70881 0.16576 0.54084
 H2958 H 0.71623 0.18600 0.53386
 H2959 H 0.74167 0.16824 0.50886
 H2960 H 0.73417 0.14790 0.51562
 C2961 C 0.69917 0.59911 0.04940
 C2962 C 0.70312 0.60876 0.04548
 C2963 C 0.70762 0.62045 0.04097
 C2964 C 0.69953 0.63048 0.03994
 C2965 C 0.70388 0.64195 0.03589
 C2966 C 0.71643 0.64354 0.03280
 C2967 C 0.72448 0.63337 0.03375
 C2968 C 0.72010 0.62190 0.03783
 C2969 C 0.72108 0.65581 0.02874
 C2970 C 0.72966 0.65679 0.01900
 C2971 C 0.73392 0.66839 0.01514
 C2972 C 0.72967 0.67913 0.02098
 C2973 C 0.72118 0.67823 0.03072
 C2974 C 0.71691 0.66667 0.03458
 C2975 C 0.73386 0.69110 0.01695
 C2976 C 0.73714 0.70125 0.01372
 H2977 H 0.68984 0.62946 0.04233
 H2978 H 0.69741 0.64954 0.03508
 H2979 H 0.73421 0.63434 0.03157
 H2980 H 0.72646 0.61420 0.03864
 H2981 H 0.73293 0.64862 0.01424
 H2982 H 0.74045 0.66897 0.00757
 H2983 H 0.71785 0.68649 0.03532
 H2984 H 0.71045 0.66622 0.04221
 C2985 C 0.20027 0.65264 0.70054
 C2986 C 0.20452 0.64316 0.70456
 C2987 C 0.20949 0.63167 0.70905
 C2988 C 0.21063 0.62162 0.70098
 C2989 C 0.21529 0.61036 0.70526
 C2990 C 0.21890 0.60900 0.71771
 C2991 C 0.21776 0.61918 0.72575
 C2992 C 0.21309 0.63044 0.72144
 C2993 C 0.22361 0.59694 0.72227
 C2994 C 0.21991 0.59233 0.73388
 C2995 C 0.22388 0.58070 0.73789
 C2996 C 0.23164 0.57356 0.73038
 C2997 C 0.23554 0.57815 0.71892
 C2998 C 0.23157 0.58976 0.71489
 C2999 C 0.23519 0.56132 0.73417
 C3000 C 0.23799 0.55093 0.73708
 H3001 H 0.20782 0.62245 0.69138
 H3002 H 0.21587 0.60266 0.69888
 H3003 H 0.22058 0.61845 0.73535
 H3004 H 0.21226 0.63817 0.72776
 H3005 H 0.21367 0.59757 0.73970
 H3006 H 0.22075 0.57721 0.74675
 H3007 H 0.24154 0.57269 0.71304
 H3008 H 0.23473 0.59312 0.70600
 C3009 C 0.20163 0.15325 0.20024
 C3010 C 0.20550 0.14355 0.20415
 C3011 C 0.20981 0.13181 0.20868
 C3012 C 0.20302 0.12110 0.20613
 C3013 C 0.20709 0.10966 0.21051
 C3014 C 0.21803 0.10877 0.21752
 C3015 C 0.22482 0.11959 0.22000
 C3016 C 0.22072 0.13104 0.21562
 C3017 C 0.22230 0.09658 0.22215
 C3018 C 0.23491 0.09336 0.22173
 C3019 C 0.23883 0.08170 0.22572
 C3020 C 0.23022 0.07315 0.23021
 C3021 C 0.21769 0.07633 0.23082
 C3022 C 0.21375 0.08796 0.22683
 C3023 C 0.23410 0.06095 0.23383
 C3024 C 0.23708 0.05060 0.23668
 H3025 H 0.19458 0.12159 0.20073
 H3026 H 0.20175 0.10148 0.20827
 H3027 H 0.23321 0.11921 0.22548
 H3028 H 0.22603 0.13929 0.21767
 H3029 H 0.24169 0.09974 0.21805
 H3030 H 0.24855 0.07931 0.22516
 H3031 H 0.21095 0.06977 0.23428
 H3032 H 0.20402 0.09022 0.22743
 C3033 C 0.70225 1.15369 0.70143
 C3034 C 0.70654 1.14432 0.70568
 C3035 C 0.71149 1.13299 0.71056
 C3036 C 0.72336 1.12910 0.70718
 C3037 C 0.72795 1.11781 0.71148
 C3038 C 0.72070 1.11025 0.71921
 C3039 C 0.70884 1.11434 0.72269
 C3040 C 0.70427 1.12562 0.71838
 C3041 C 0.72530 1.09799 0.72331
 C3042 C 0.72301 1.09373 0.73540
 C3043 C 0.72686 1.08194 0.73904
 C3044 C 0.73305 1.07427 0.73066
 C3045 C 0.73553 1.07848 0.71867
 C3046 C 0.73170 1.09026 0.71501
 C3047 C 0.73644 1.06190 0.73416
 C3048 C 0.73907 1.05143 0.73689
 H3049 H 0.72902 1.13473 0.70112
 H3050 H 0.73717 1.11499 0.70876
 H3051 H 0.70297 1.10866 0.72849
 H3052 H 0.69504 1.12852 0.72099
 H3053 H 0.71824 1.09951 0.74204
 H3054 H 0.72488 1.07876 0.74835
 H3055 H 0.74025 1.07258 0.71208
 H3056 H 0.73345 1.09320 0.70559
 C3057 C 0.70122 0.65319 0.20046
 C3058 C 0.70531 0.64360 0.20440
 C3059 C 0.71005 0.63199 0.20882
 C3060 C 0.71499 0.63102 0.22077
 C3061 C 0.71948 0.61966 0.22504
 C3062 C 0.71910 0.60914 0.21738
 C3063 C 0.71414 0.61023 0.20539
 C3064 C 0.70965 0.62158 0.20115
 C3065 C 0.72372 0.59702 0.22189
 C3066 C 0.73041 0.58917 0.21396
 C3067 C 0.73435 0.57755 0.21803
 C3068 C 0.73167 0.57363 0.23007
 C3069 C 0.72516 0.58143 0.23810
 C3070 C 0.72122 0.59306 0.23405
 C3071 C 0.73522 0.56142 0.23398
 C3072 C 0.73805 0.55106 0.23694
 H3073 H 0.71536 0.63903 0.22678
 H3074 H 0.72337 0.61914 0.23426
 H3075 H 0.71354 0.60227 0.19934
 H3076 H 0.70580 0.62221 0.19191
 H3077 H 0.73263 0.59201 0.20461
 H3078 H 0.73937 0.57159 0.21174
 H3079 H 0.72298 0.57845 0.24742
 H3080 H 0.71597 0.59883 0.24032
 C3081 C 0.54775 0.09580 0.70076
 C3082 C 0.54343 0.10525 0.70480
 C3083 C 0.53844 0.11669 0.70941
 C3084 C 0.53413 0.12562 0.70110
 C3085 C 0.52967 0.13693 0.70547
 C3086 C 0.52950 0.13947 0.71825
 C3087 C 0.53373 0.13037 0.72655
 C3088 C 0.53818 0.11906 0.72214
 C3089 C 0.52525 0.15170 0.72285
 C3090 C 0.53165 0.15773 0.73246
 C3091 C 0.52800 0.16948 0.73641
 C3092 C 0.51789 0.17535 0.73085
 C3093 C 0.51135 0.16936 0.72140
 C3094 C 0.51499 0.15761 0.71743
 C3095 C 0.51452 0.18769 0.73451
 C3096 C 0.51189 0.19813 0.73737
 H3097 H 0.53436 0.12391 0.69121
 H3098 H 0.52665 0.14380 0.69884
 H3099 H 0.53357 0.13199 0.73644
 H3100 H 0.54149 0.11221 0.72866
 H3101 H 0.53969 0.15351 0.73670
 H3102 H 0.53318 0.17406 0.74368
 H3103 H 0.50351 0.17382 0.71702
 H3104 H 0.50978 0.15315 0.71012
 C3105 C 1.04739 0.09572 0.20160
 C3106 C 1.04343 0.10541 0.20544
 C3107 C 1.03888 0.11715 0.20975
 C3108 C 1.03614 0.12648 0.20121
 C3109 C 1.03216 0.13806 0.20532
 C3110 C 1.03088 0.14049 0.21805
 C3111 C 1.03351 0.13099 0.22657
 C3112 C 1.03750 0.11941 0.22243
 C3113 C 1.02704 0.15294 0.22240
 C3114 C 1.01872 0.15427 0.23234
 C3115 C 1.01512 0.16603 0.23635
 C3116 C 1.01980 0.17659 0.23051
 C3117 C 1.02811 0.17535 0.22066
 C3118 C 1.03171 0.16362 0.21663
 C3119 C 1.01612 0.18873 0.23452
 C3120 C 1.01325 0.19904 0.23761
 H3121 H 1.03716 0.12483 0.19137
 H3122 H 1.03004 0.14511 0.19853
 H3123 H 1.03275 0.13262 0.23643
 H3124 H 1.03965 0.11226 0.22913
 H3125 H 1.01487 0.14622 0.23688
 H3126 H 1.00867 0.16688 0.24397
 H3127 H 1.03182 0.18346 0.21610
 H3128 H 1.03827 0.16292 0.20909
 C3129 C 0.20036 0.59860 0.54918
 C3130 C 0.20414 0.60832 0.54524
 C3131 C 0.20842 0.62005 0.54067
 C3132 C 0.19989 0.62938 0.53794
 C3133 C 0.20399 0.64091 0.53379
 C3134 C 0.21671 0.64326 0.53232
 C3135 C 0.22521 0.63378 0.53499
 C3136 C 0.22108 0.62225 0.53914
 C3137 C 0.22106 0.65561 0.52820
 C3138 C 0.23087 0.65672 0.51971
 C3139 C 0.23494 0.66838 0.51586
 C3140 C 0.22927 0.67906 0.52046
 C3141 C 0.21953 0.67805 0.52892
 C3142 C 0.21544 0.66642 0.53277
 C3143 C 0.23339 0.69108 0.51654
 C3144 C 0.23665 0.70126 0.51340
 H3145 H 0.19006 0.62777 0.53906
 H3146 H 0.19720 0.64796 0.53165
 H3147 H 0.23506 0.63536 0.53409
 H3148 H 0.22777 0.61510 0.54127
 H3149 H 0.23529 0.64857 0.51593
 H3150 H 0.24247 0.66905 0.50929
 H3151 H 0.21510 0.68627 0.53257
 H3152 H 0.20800 0.66588 0.53945
 C3153 C 0.20000 0.09776 1.04999
 C3154 C 0.20381 0.10750 1.04615
 C3155 C 0.20813 0.11926 1.04165
 C3156 C 0.19959 0.12851 1.03863
 C3157 C 0.20371 0.14003 1.03448
 C3158 C 0.21644 0.14246 1.03328
 C3159 C 0.22495 0.13308 1.03627
 C3160 C 0.22081 0.12156 1.04044
 C3161 C 0.22081 0.15476 1.02901
 C3162 C 0.23076 0.15576 1.02067
 C3163 C 0.23479 0.16737 1.01662
 C3164 C 0.22895 0.17810 1.02086
 C3165 C 0.21907 0.17720 1.02918
 C3166 C 0.21502 0.16562 1.03323
 C3167 C 0.23302 0.19007 1.01670
 C3168 C 0.23625 0.20020 1.01335
 H3169 H 0.18975 0.12682 1.03951
 H3170 H 0.19693 0.14700 1.03209
 H3171 H 0.23481 0.13472 1.03559
 H3172 H 0.22750 0.11448 1.04280
 H3173 H 0.23531 0.14757 1.01715
 H3174 H 0.24243 0.16796 1.01016
 H3175 H 0.21451 0.18546 1.03256
 H3176 H 0.20746 0.16517 1.03979
 C3177 C 0.19999 0.70023 0.65205
 C3178 C 0.20413 0.70417 0.64248
 C3179 C 0.20894 0.70864 0.63090
 C3180 C 0.20720 0.72098 0.62743
 C3181 C 0.21151 0.72518 0.61598
 C3182 C 0.21761 0.71707 0.60783
 C3183 C 0.21942 0.70471 0.61146
 C3184 C 0.21511 0.70054 0.62292
 C3185 C 0.22186 0.72140 0.59550
 C3186 C 0.22041 0.71385 0.58499
 C3187 C 0.22430 0.71795 0.57336
 C3188 C 0.22970 0.72963 0.57206
 C3189 C 0.23122 0.73721 0.58245
 C3190 C 0.22732 0.73313 0.59410
 C3191 C 0.23357 0.73382 0.56003
 C3192 C 0.23671 0.73715 0.54986
 H3193 H 0.20238 0.72732 0.63352
 H3194 H 0.20984 0.73470 0.61338
 H3195 H 0.22423 0.69829 0.60547
 H3196 H 0.21653 0.69097 0.62551
 H3197 H 0.21608 0.70485 0.58572
 H3198 H 0.22303 0.71203 0.56536
 H3199 H 0.23541 0.74626 0.58155
 H3200 H 0.22870 0.73910 0.60204
 C3201 C 0.20128 0.20075 1.15245
 C3202 C 0.20499 0.20466 1.14268
 C3203 C 0.20918 0.20914 1.13086
 C3204 C 0.20108 0.20914 1.12075
 C3205 C 0.20514 0.21319 1.10916
 C3206 C 0.21738 0.21729 1.10752
 C3207 C 0.22543 0.21736 1.11777
 C3208 C 0.22135 0.21329 1.12936
 C3209 C 0.22173 0.22138 1.09513
 C3210 C 0.22945 0.23178 1.09389
 C3211 C 0.23339 0.23567 1.08219
 C3212 C 0.22968 0.22920 1.07159
 C3213 C 0.22208 0.21879 1.07274
 C3214 C 0.21813 0.21490 1.08442
 C3215 C 0.23358 0.23323 1.05951
 C3216 C 0.23666 0.23643 1.04928
 H3217 H 0.19163 0.20597 1.12182
 H3218 H 0.19867 0.21319 1.10151
 H3219 H 0.23494 0.22034 1.11676
 H3220 H 0.22771 0.21329 1.13712
 H3221 H 0.23228 0.23703 1.10195
 H3222 H 0.23926 0.24375 1.08140
 H3223 H 0.21919 0.21369 1.06461
 H3224 H 0.21235 0.20675 1.08508
 C3225 C 0.69941 0.55053 0.09697
 C3226 C 0.70349 0.54652 0.10655
 C3227 C 0.70820 0.54200 0.11816
 C3228 C 0.70298 0.54613 0.12926
 C3229 C 0.70759 0.54193 0.14059
 C3230 C 0.71751 0.53353 0.14099
 C3231 C 0.72266 0.52936 0.12978
 C3232 C 0.71804 0.53359 0.11844
 C3233 C 0.72244 0.52919 0.15307
 C3234 C 0.72573 0.51672 0.15483
 C3235 C 0.72998 0.51261 0.16636
 C3236 C 0.73102 0.52091 0.17625
 C3237 C 0.72794 0.53335 0.17453
 C3238 C 0.72369 0.53747 0.16304
 C3239 C 0.73487 0.51669 0.18828
 C3240 C 0.73784 0.51346 0.19855
 H3241 H 0.69534 0.55261 0.12916
 H3242 H 0.70329 0.54516 0.14905
 H3243 H 0.73039 0.52299 0.12978
 H3244 H 0.72218 0.53036 0.10990
 H3245 H 0.72476 0.51010 0.14737
 H3246 H 0.73229 0.50295 0.16760
 H3247 H 0.72874 0.53986 0.18212
 H3248 H 0.72142 0.54716 0.16193
 C3249 C 0.70047 1.05000 0.59644
 C3250 C 0.70476 1.04571 0.60581
 C3251 C 0.70973 1.04074 0.61714
 C3252 C 0.70246 1.03302 0.62456
 C3253 C 0.70708 1.02857 0.63580
 C3254 C 0.71905 1.03182 0.63979
 C3255 C 0.72634 1.03947 0.63219
 C3256 C 0.72170 1.04390 0.62094
 C3257 C 0.72374 1.02753 0.65199
 C3258 C 0.73040 1.03562 0.65972
 C3259 C 0.73437 1.03177 0.67142
 C3260 C 0.73177 1.01979 0.67556
 C3261 C 0.72528 1.01162 0.66788
 C3262 C 0.72129 1.01545 0.65617
 C3263 C 0.73534 1.01607 0.68785
 C3264 C 0.73815 1.01316 0.69825
 H3265 H 0.69316 1.03057 0.62173
 H3266 H 0.70118 1.02284 0.64151
 H3267 H 0.73564 1.04200 0.63493
 H3268 H 0.72742 1.04986 0.61527
 H3269 H 0.73227 1.04502 0.65686
 H3270 H 0.73930 1.03820 0.67732
 H3271 H 0.72320 1.00233 0.67099
 H3272 H 0.71631 1.00897 0.65038
 C3273 C 0.54972 0.19918 0.59728
 C3274 C 0.54537 0.20317 0.60675
 C3275 C 0.54029 0.20768 0.61820
 C3276 C 0.53665 0.22005 0.61933
 C3277 C 0.53193 0.22442 0.63056
 C3278 C 0.53078 0.21646 0.64080
 C3279 C 0.53441 0.20403 0.63953
 C3280 C 0.53913 0.19969 0.62831
 C3281 C 0.52605 0.22110 0.65284
 C3282 C 0.51808 0.21379 0.66008
 C3283 C 0.51411 0.21790 0.67169
 C3284 C 0.51803 0.22937 0.67620
 C3285 C 0.52579 0.23681 0.66900
 C3286 C 0.52977 0.23272 0.65738
 C3287 C 0.51453 0.23324 0.68846
 C3288 C 0.51182 0.23624 0.69886
 H3289 H 0.53749 0.22631 0.61155
 H3290 H 0.52909 0.23400 0.63121
 H3291 H 0.53382 0.19772 0.64728
 H3292 H 0.54197 0.19011 0.62755
 H3293 H 0.51492 0.20487 0.65678
 H3294 H 0.50811 0.21206 0.67719
 H3295 H 0.52895 0.24568 0.67244
 H3296 H 0.53602 0.23850 0.65210
 C3297 C 1.04898 0.20041 0.09717
 C3298 C 1.04509 0.20439 0.10684
 C3299 C 1.04072 0.20893 0.11857
 C3300 C 1.04480 0.20336 0.12952
 C3301 C 1.04077 0.20779 0.14098
 C3302 C 1.03259 0.21788 0.14164
 C3303 C 1.02846 0.22338 0.13058
 C3304 C 1.03253 0.21894 0.11911
 C3305 C 1.02843 0.22262 0.15386
 C3306 C 1.01603 0.22607 0.15579
 C3307 C 1.01210 0.23015 0.16744
 C3308 C 1.02052 0.23086 0.17727
 C3309 C 1.03290 0.22760 0.17538
 C3310 C 1.03684 0.22352 0.16377
 C3311 C 1.01650 0.23460 0.18940
 C3312 C 1.01345 0.23749 0.19973
 H3313 H 1.05111 0.19559 0.12921
 H3314 H 1.04395 0.20324 0.14932
 H3315 H 1.02226 0.23124 0.13080
 H3316 H 1.02935 0.22335 0.11068
 H3317 H 1.00932 0.22536 0.14838
 H3318 H 1.00248 0.23260 0.16882
 H3319 H 1.03950 0.22814 0.18291
 H3320 H 1.04648 0.22111 0.16252
 C3321 C 0.65333 0.19996 0.70076
 C3322 C 0.64362 0.20377 0.70469
 C3323 C 0.63185 0.20807 0.70917
 C3324 C 0.63078 0.21976 0.71462
 C3325 C 0.61925 0.22397 0.71872
 C3326 C 0.60865 0.21653 0.71736
 C3327 C 0.60986 0.20476 0.71196
 C3328 C 0.62138 0.20058 0.70789
 C3329 C 0.59634 0.22104 0.72145
 C3330 C 0.58577 0.21877 0.71419
 C3331 C 0.57414 0.22281 0.71809
 C3332 C 0.57289 0.22917 0.72929
 C3333 C 0.58334 0.23156 0.73656
 C3334 C 0.59501 0.22754 0.73266
 C3335 C 0.56081 0.23302 0.73335
 C3336 C 0.55055 0.23600 0.73650
 H3337 H 0.63883 0.22565 0.71562
 H3338 H 0.61858 0.23312 0.72272
 H3339 H 0.60191 0.19875 0.71096
 H3340 H 0.62212 0.19150 0.70372
 H3341 H 0.58651 0.21396 0.70543
 H3342 H 0.56611 0.22093 0.71238
 H3343 H 0.58247 0.23645 0.74527
 H3344 H 0.60295 0.22932 0.73851
 C3345 C 1.15405 0.20081 0.20133
 C3346 C 1.14439 0.20463 0.20536
 C3347 C 1.13266 0.20892 0.20995
 C3348 C 1.12227 0.20127 0.20912
 C3349 C 1.11077 0.20544 0.21327
 C3350 C 1.10951 0.21736 0.21833
 C3351 C 1.12004 0.22496 0.21924
 C3352 C 1.13155 0.22076 0.21505
 C3353 C 1.09722 0.22184 0.22250
 C3354 C 1.09602 0.22868 0.23352
 C3355 C 1.08438 0.23271 0.23749
 C3356 C 1.07383 0.22999 0.23048
 C3357 C 1.07496 0.22327 0.21947
 C3358 C 1.08656 0.21923 0.21550
 C3359 C 1.06178 0.23389 0.23457
 C3360 C 1.05152 0.23689 0.23771
 H3361 H 1.12303 0.19207 0.20521
 H3362 H 1.10288 0.19931 0.21261
 H3363 H 1.11933 0.23423 0.22296
 H3364 H 1.13953 0.22678 0.21570
 H3365 H 1.10404 0.23072 0.23917
 H3366 H 1.08360 0.23787 0.24605
 H3367 H 1.06685 0.22114 0.21396
 H3368 H 1.08721 0.21414 0.20689
 C3369 C 0.09845 0.70022 0.55059
 C3370 C 0.10810 0.70404 0.54651
 C3371 C 0.11976 0.70837 0.54175
 C3372 C 0.12169 0.72098 0.53963
 C3373 C 0.13313 0.72516 0.53526
 C3374 C 0.14280 0.71675 0.53299
 C3375 C 0.14072 0.70408 0.53507
 C3376 C 0.12928 0.69993 0.53942
 C3377 C 0.15507 0.72115 0.52865
 C3378 C 0.16600 0.71597 0.53347
 C3379 C 0.17756 0.72006 0.52941
 C3380 C 0.17838 0.72939 0.52047
 C3381 C 0.16758 0.73463 0.51562
 C3382 C 0.15599 0.73055 0.51969
 C3383 C 0.19034 0.73355 0.51636
 C3384 C 0.20049 0.73686 0.51313
 H3385 H 0.11439 0.72760 0.54144
 H3386 H 0.13450 0.73498 0.53389
 H3387 H 0.14791 0.69736 0.53324
 H3388 H 0.12787 0.69014 0.54100
 H3389 H 0.16561 0.70886 0.54052
 H3390 H 0.18586 0.71598 0.53326
 H3391 H 0.16811 0.74185 0.50869
 H3392 H 0.14775 0.73463 0.51572
 C3393 C 0.09746 0.20005 1.04953
 C3394 C 0.10718 0.20396 1.04570
 C3395 C 0.11891 0.20848 1.04134
 C3396 C 0.12073 0.21086 1.02874
 C3397 C 0.13225 0.21499 1.02452
 C3398 C 0.14210 0.21675 1.03286
 C3399 C 0.14013 0.21442 1.04552
 C3400 C 0.12861 0.21032 1.04972
 C3401 C 0.15442 0.22087 1.02840
 C3402 C 0.16528 0.21562 1.03330
 C3403 C 0.17689 0.21951 1.02917
 C3404 C 0.17782 0.22869 1.02010
 C3405 C 0.16709 0.23395 1.01513
 C3406 C 0.15545 0.23006 1.01924
 C3407 C 0.18983 0.23269 1.01598
 C3408 C 0.20001 0.23588 1.01273
 H3409 H 0.11330 0.20942 1.02217
 H3410 H 0.13352 0.21656 1.01470
 H3411 H 0.14747 0.21586 1.05220
 H3412 H 0.12730 0.20853 1.05950
 H3413 H 0.16479 0.20840 1.04023
 H3414 H 0.18514 0.21535 1.03306
 H3415 H 0.16771 0.24109 1.00813
 H3416 H 0.14726 0.23437 1.01540
 C3417 C 0.59661 0.54955 0.20180
 C3418 C 0.60636 0.54582 0.20574
 C3419 C 0.61817 0.54153 0.21013
 C3420 C 0.61888 0.53228 0.21916
 C3421 C 0.63041 0.52800 0.22319
 C3422 C 0.64139 0.53291 0.21820
 C3423 C 0.64056 0.54227 0.20919
 C3424 C 0.62904 0.54654 0.20519
 C3425 C 0.65366 0.52827 0.22227
 C3426 C 0.66321 0.52649 0.21360
 C3427 C 0.67485 0.52238 0.21741
 C3428 C 0.67713 0.51997 0.22992
 C3429 C 0.66768 0.52160 0.23863
 C3430 C 0.65600 0.52570 0.23483
 C3431 C 0.68929 0.51614 0.23378
 C3432 C 0.69962 0.51315 0.23673
 H3433 H 0.61052 0.52832 0.22302
 H3434 H 0.63075 0.52070 0.23003
 H3435 H 0.64883 0.54638 0.20531
 H3436 H 0.62860 0.55373 0.19823
 H3437 H 0.66165 0.52821 0.20384
 H3438 H 0.68210 0.52115 0.21059
 H3439 H 0.66937 0.51981 0.24835
 H3440 H 0.64889 0.52711 0.24173
 C3441 C 0.59682 1.04880 0.70095
 C3442 C 0.60647 1.04505 0.70510
 C3443 C 0.61814 1.04083 0.70990
 C3444 C 0.62153 1.02839 0.70884
 C3445 C 0.63308 1.02442 0.71313
 C3446 C 0.64140 1.03287 0.71851
 C3447 C 0.63785 1.04533 0.71965
 C3448 C 0.62630 1.04927 0.71536
 C3449 C 0.65385 1.02878 0.72266
 C3450 C 0.66430 1.03622 0.72046
 C3451 C 0.67605 1.03232 0.72418
 C3452 C 0.67753 1.02094 0.73015
 C3453 C 0.66720 1.01348 0.73244
 C3454 C 0.65543 1.01737 0.72872
 C3455 C 0.68970 1.01694 0.73378
 C3456 C 0.70003 1.01385 0.73664
 H3457 H 0.61531 1.02179 0.70457
 H3458 H 0.63560 1.01481 0.71197
 H3459 H 0.64397 1.05203 0.72388
 H3460 H 0.62377 1.05893 0.71623
 H3461 H 0.66343 1.04496 0.71566
 H3462 H 0.68399 1.03815 0.72232
 H3463 H 0.66825 1.00467 0.73708
 H3464 H 0.64755 1.01150 0.73068
 C3465 C 0.90087 0.44824 0.30160
 C3466 C 0.89130 0.45219 0.29744
 C3467 C 0.87974 0.45669 0.29265
 C3468 C 0.87878 0.46878 0.28812
 C3469 C 0.86744 0.47318 0.28371
 C3470 C 0.85690 0.46554 0.28381
 C3471 C 0.85799 0.45338 0.28829
 C3472 C 0.86933 0.44900 0.29268
 C3473 C 0.84477 0.47023 0.27938
 C3474 C 0.83385 0.46729 0.28581
 C3475 C 0.82241 0.47158 0.28160
 C3476 C 0.82171 0.47887 0.27093
 C3477 C 0.83253 0.48191 0.26449
 C3478 C 0.84400 0.47763 0.26869
 C3479 C 0.80986 0.48309 0.26660
 C3480 C 0.79978 0.48643 0.26318
 H3481 H 0.88678 0.47482 0.28809
 H3482 H 0.86685 0.48262 0.28044
 H3483 H 0.85010 0.44721 0.28832
 H3484 H 0.86998 0.43962 0.29613
 H3485 H 0.83416 0.46177 0.29416
 H3486 H 0.81409 0.46920 0.28668
 H3487 H 0.83209 0.48752 0.25619
 H3488 H 0.85223 0.47994 0.26348
 C3489 C 0.90216 0.95064 0.80073
 C3490 C 0.89261 0.95484 0.79676
 C3491 C 0.88108 0.95969 0.79221
 C3492 C 0.87792 0.95839 0.77971
 C3493 C 0.86652 0.96274 0.77540
 C3494 C 0.85811 0.96841 0.78356
 C3495 C 0.86145 0.96979 0.79608
 C3496 C 0.87285 0.96545 0.80037
 C3497 C 0.84580 0.97262 0.77912
 C3498 C 0.83518 0.97065 0.78637
 C3499 C 0.82356 0.97444 0.78216
 C3500 C 0.82238 0.98025 0.77065
 C3501 C 0.83289 0.98229 0.76336
 C3502 C 0.84454 0.97849 0.76756
 C3503 C 0.81037 0.98407 0.76637
 C3504 C 0.80019 0.98717 0.76303
 H3505 H 0.88420 0.95389 0.77333
 H3506 H 0.86416 0.96141 0.76575
 H3507 H 0.85525 0.97427 0.80256
 H3508 H 0.87521 0.96652 0.81006
 H3509 H 0.83582 0.96599 0.79522
 H3510 H 0.81548 0.97278 0.78786
 H3511 H 0.83209 0.98682 0.75446
 H3512 H 0.85256 0.98026 0.76183
 C3513 C 0.34857 0.29963 0.80068
 C3514 C 0.35819 0.29540 0.79694
 C3515 C 0.36979 0.29049 0.79263
 C3516 C 0.37263 0.29057 0.77999
 C3517 C 0.38406 0.28613 0.77588
 C3518 C 0.39282 0.28158 0.78437
 C3519 C 0.38982 0.28142 0.79705
 C3520 C 0.37838 0.28585 0.80114
 C3521 C 0.40513 0.27724 0.78008
 C3522 C 0.41587 0.28021 0.78683
 C3523 C 0.42748 0.27624 0.78277
 C3524 C 0.42853 0.26924 0.77193
 C3525 C 0.41792 0.26622 0.76515
 C3526 C 0.40628 0.27019 0.76919
 C3527 C 0.44054 0.26528 0.76777
 C3528 C 0.45070 0.26212 0.76443
 H3529 H 0.36606 0.29418 0.77333
 H3530 H 0.38615 0.28650 0.76608
 H3531 H 0.39629 0.27782 0.80380
 H3532 H 0.37628 0.28572 0.81094
 H3533 H 0.41531 0.28578 0.79514
 H3534 H 0.43564 0.27870 0.78806
 H3535 H 0.41863 0.26079 0.75675
 H3536 H 0.39818 0.26765 0.76386
 C3537 C 0.84910 0.30018 0.30062
 C3538 C 0.85869 0.29591 0.29685
 C3539 C 0.87027 0.29093 0.29257
 C3540 C 0.87350 0.29175 0.28005
 C3541 C 0.88494 0.28727 0.27599
 C3542 C 0.89331 0.28193 0.28443
 C3543 C 0.88991 0.28104 0.29697
 C3544 C 0.87847 0.28552 0.30100
 C3545 C 0.90563 0.27753 0.28023
 C3546 C 0.91622 0.27970 0.28749
 C3547 C 0.92785 0.27570 0.28350
 C3548 C 0.92906 0.26947 0.27222
 C3549 C 0.91859 0.26723 0.26493
 C3550 C 0.90694 0.27124 0.26889
 C3551 C 0.94110 0.26554 0.26811
 C3552 C 0.95129 0.26243 0.26483
 H3553 H 0.86724 0.29597 0.27345
 H3554 H 0.88734 0.28822 0.26631
 H3555 H 0.89607 0.27684 0.30366
 H3556 H 0.87606 0.28483 0.31071
 H3557 H 0.91556 0.28468 0.29616
 H3558 H 0.93590 0.27754 0.28919
 H3559 H 0.91942 0.26241 0.25618
 H3560 H 0.89895 0.26931 0.26316
 C3561 C 0.40344 0.79871 0.45088
 C3562 C 0.39396 0.79458 0.45506
 C3563 C 0.38251 0.78983 0.45989
 C3564 C 0.37505 0.78221 0.45254
 C3565 C 0.36369 0.77796 0.45703
 C3566 C 0.35963 0.78130 0.46894
 C3567 C 0.36726 0.78886 0.47631
 C3568 C 0.37862 0.79309 0.47181
 C3569 C 0.34734 0.77718 0.47351
 C3570 C 0.33967 0.78539 0.48008
 C3571 C 0.32792 0.78168 0.48400
 C3572 C 0.32368 0.76973 0.48143
 C3573 C 0.33129 0.76144 0.47504
 C3574 C 0.34305 0.76513 0.47110
 C3575 C 0.31135 0.76616 0.48496
 C3576 C 0.30092 0.76336 0.48773
 H3577 H 0.37794 0.77969 0.44327
 H3578 H 0.35796 0.77231 0.45106
 H3579 H 0.36445 0.79147 0.48557
 H3580 H 0.38432 0.79898 0.47758
 H3581 H 0.34263 0.79477 0.48193
 H3582 H 0.32207 0.78819 0.48888
 H3583 H 0.32810 0.75217 0.47300
 H3584 H 0.34879 0.75856 0.46620
 C3585 C 0.40250 0.29911 0.94980
 C3586 C 0.39283 0.29508 0.95362
 C3587 C 0.38112 0.29046 0.95796
 C3588 C 0.38058 0.28244 0.96811
 C3589 C 0.36915 0.27801 0.97227
 C3590 C 0.35813 0.28154 0.96630
 C3591 C 0.35879 0.28961 0.95612
 C3592 C 0.37021 0.29404 0.95198
 C3593 C 0.34596 0.27688 0.97067
 C3594 C 0.33679 0.27341 0.96210
 C3595 C 0.32519 0.26940 0.96616
 C3596 C 0.32259 0.26880 0.97883
 C3597 C 0.33169 0.27210 0.98745
 C3598 C 0.34332 0.27610 0.98340
 C3599 C 0.31045 0.26514 0.98289
 C3600 C 0.30014 0.26225 0.98601
 H3601 H 0.38898 0.27959 0.97278
 H3602 H 0.36895 0.27170 0.98005
 H3603 H 0.35047 0.29265 0.95144
 H3604 H 0.37052 0.30028 0.94415
 H3605 H 0.33860 0.27374 0.95224
 H3606 H 0.31822 0.26686 0.95941
 H3607 H 0.32975 0.27172 0.99728
 H3608 H 0.35014 0.27884 0.99022
 C3609 C 0.80049 0.44926 0.40103
 C3610 C 0.79637 0.45302 0.39137
 C3611 C 0.79157 0.45730 0.37970
 C3612 C 0.79014 0.46997 0.37747
 C3613 C 0.78574 0.47409 0.36601
 C3614 C 0.78274 0.46558 0.35661
 C3615 C 0.78412 0.45287 0.35899
 C3616 C 0.78851 0.44877 0.37045
 C3617 C 0.77839 0.46994 0.34431
 C3618 C 0.78263 0.46422 0.33341
 C3619 C 0.77864 0.46836 0.32183
 C3620 C 0.77036 0.47826 0.32096
 C3621 C 0.76606 0.48401 0.33174
 C3622 C 0.77005 0.47989 0.34335
 C3623 C 0.76639 0.48252 0.30897
 C3624 C 0.76325 0.48591 0.29882
 H3625 H 0.79253 0.47665 0.38455
 H3626 H 0.78492 0.48394 0.36442
 H3627 H 0.78173 0.44608 0.35202
 H3628 H 0.78956 0.43895 0.37209
 H3629 H 0.78918 0.45666 0.33383
 H3630 H 0.78206 0.46387 0.31354
 H3631 H 0.75964 0.49167 0.33117
 H3632 H 0.76651 0.48439 0.35157
 C3633 C 0.80168 0.94938 0.90054
 C3634 C 0.79777 0.95333 0.89086
 C3635 C 0.79330 0.95787 0.87917
 C3636 C 0.80081 0.95706 0.86865
 C3637 C 0.79646 0.96123 0.85721
 C3638 C 0.78451 0.96629 0.85613
 C3639 C 0.77706 0.96716 0.86678
 C3640 C 0.78144 0.96296 0.87822
 C3641 C 0.77984 0.97053 0.84392
 C3642 C 0.77295 0.98153 0.84290
 C3643 C 0.76871 0.98556 0.83136
 C3644 C 0.77126 0.97865 0.82070
 C3645 C 0.77803 0.96767 0.82164
 C3646 C 0.78229 0.96363 0.83316
 C3647 C 0.76712 0.98286 0.80877
 C3648 C 0.76387 0.98623 0.79864
 H3649 H 0.81003 0.95318 0.86929
 H3650 H 0.80248 0.96061 0.84923
 H3651 H 0.76779 0.97088 0.86621
 H3652 H 0.77554 0.96361 0.88630
 H3653 H 0.77104 0.98711 0.85100
 H3654 H 0.76351 0.99410 0.83073
 H3655 H 0.78003 0.96224 0.81345
 H3656 H 0.78741 0.95504 0.83366
 C3657 C 0.29930 0.80018 0.34732
 C3658 C 0.29502 0.79596 0.35671
 C3659 C 0.29007 0.79109 0.36807
 C3660 C 0.27830 0.79467 0.37210
 C3661 C 0.27371 0.79036 0.38340
 C3662 C 0.28085 0.78240 0.39084
 C3663 C 0.29261 0.77873 0.38662
 C3664 C 0.29718 0.78306 0.37532
 C3665 C 0.27624 0.77824 0.40311
 C3666 C 0.27832 0.76607 0.40720
 C3667 C 0.27443 0.76233 0.41896
 C3668 C 0.26841 0.77070 0.42678
 C3669 C 0.26615 0.78278 0.42274
 C3670 C 0.27002 0.78653 0.41098
 C3671 C 0.26492 0.76705 0.43911
 C3672 C 0.26220 0.76415 0.44953
 H3673 H 0.27272 0.80087 0.36655
 H3674 H 0.26457 0.79322 0.38632
 H3675 H 0.29840 0.77277 0.39220
 H3676 H 0.30633 0.78028 0.37232
 H3677 H 0.28295 0.75943 0.40130
 H3678 H 0.27623 0.75296 0.42200
 H3679 H 0.26155 0.78935 0.42875
 H3680 H 0.26843 0.79600 0.40818
 C3681 C 0.29876 0.30010 0.84698
 C3682 C 0.29426 0.29604 0.85635
 C3683 C 0.28907 0.29138 0.86769
 C3684 C 0.28556 0.29961 0.87704
 C3685 C 0.28090 0.29514 0.88824
 C3686 C 0.27968 0.28235 0.89025
 C3687 C 0.28311 0.27414 0.88074
 C3688 C 0.28778 0.27864 0.86953
 C3689 C 0.27518 0.27761 0.90234
 C3690 C 0.28079 0.26725 0.90788
 C3691 C 0.27693 0.26313 0.91953
 C3692 C 0.26741 0.26927 0.92577
 C3693 C 0.26164 0.27947 0.92026
 C3694 C 0.26548 0.28361 0.90863
 C3695 C 0.26393 0.26547 0.93805
 C3696 C 0.26124 0.26250 0.94846
 H3697 H 0.28658 0.30949 0.87573
 H3698 H 0.27851 0.30170 0.89543
 H3699 H 0.28215 0.26425 0.88194
 H3700 H 0.29045 0.27218 0.86235
 H3701 H 0.28838 0.26254 0.90338
 H3702 H 0.28152 0.25529 0.92374
 H3703 H 0.25426 0.28430 0.92503
 H3704 H 0.26087 0.29150 0.90454
 C3705 C 0.45066 0.29999 0.90183
 C3706 C 0.45458 0.29617 0.89211
 C3707 C 0.45902 0.29178 0.88035
 C3708 C 0.47101 0.28701 0.87924
 C3709 C 0.47531 0.28291 0.86774
 C3710 C 0.46768 0.28353 0.85720
 C3711 C 0.45563 0.28829 0.85844
 C3712 C 0.45134 0.29238 0.86993
 C3713 C 0.47224 0.27928 0.84495
 C3714 C 0.46934 0.28595 0.83414
 C3715 C 0.47344 0.28187 0.82258
 C3716 C 0.48050 0.27107 0.82164
 C3717 C 0.48351 0.26440 0.83233
 C3718 C 0.47942 0.26848 0.84392
 C3719 C 0.48446 0.26679 0.80967
 C3720 C 0.48757 0.26337 0.79952
 H3721 H 0.47704 0.28654 0.88724
 H3722 H 0.48468 0.27943 0.86706
 H3723 H 0.44946 0.28872 0.85055
 H3724 H 0.44203 0.29601 0.87070
 H3725 H 0.46399 0.29440 0.83464
 H3726 H 0.47108 0.28711 0.81437
 H3727 H 0.48893 0.25600 0.83170
 H3728 H 0.48168 0.26307 0.85204
 C3729 C 0.95067 0.30140 0.40209
 C3730 C 0.95459 0.29748 0.39241
 C3731 C 0.95902 0.29294 0.38070
 C3732 C 0.95176 0.29442 0.37007
 C3733 C 0.95601 0.29013 0.35864
 C3734 C 0.96760 0.28429 0.35767
 C3735 C 0.97481 0.28280 0.36842
 C3736 C 0.97054 0.28711 0.37986
 C3737 C 0.97213 0.27983 0.34548
 C3738 C 0.97833 0.26844 0.34448
 C3739 C 0.98244 0.26420 0.33295
 C3740 C 0.98041 0.27129 0.32231
 C3741 C 0.97431 0.28266 0.32323
 C3742 C 0.97020 0.28691 0.33473
 C3743 C 0.98445 0.26692 0.31041
 C3744 C 0.98768 0.26349 0.30030
 H3745 H 0.94281 0.29888 0.37062
 H3746 H 0.95016 0.29126 0.35057
 H3747 H 0.98383 0.27848 0.36795
 H3748 H 0.97624 0.28594 0.38803
 H3749 H 0.97983 0.26271 0.35256
 H3750 H 0.98712 0.25537 0.33233
 H3751 H 0.97272 0.28824 0.31505
 H3752 H 0.96562 0.29580 0.33522
 C3753 C 0.44975 0.40086 0.79943
 C3754 C 0.45362 0.39123 0.79538
 C3755 C 0.45801 0.37958 0.79071
 C3756 C 0.47057 0.37793 0.78801
 C3757 C 0.47484 0.36647 0.78379
 C3758 C 0.46659 0.35652 0.78226
 C3759 C 0.45397 0.35832 0.78489
 C3760 C 0.44973 0.36977 0.78909
 C3761 C 0.47113 0.34425 0.77812
 C3762 C 0.46651 0.33337 0.78356
 C3763 C 0.47071 0.32180 0.77964
 C3764 C 0.47957 0.32093 0.77025
 C3765 C 0.48427 0.33169 0.76481
 C3766 C 0.48009 0.34328 0.76872
 C3767 C 0.48371 0.30897 0.76620
 C3768 C 0.48696 0.29881 0.76299
 H3769 H 0.47706 0.38545 0.78927
 H3770 H 0.48462 0.36533 0.78198
 H3771 H 0.44737 0.35090 0.78362
 H3772 H 0.43999 0.37096 0.79112
 H3773 H 0.45976 0.33381 0.79094
 H3774 H 0.46704 0.31353 0.78395
 H3775 H 0.49112 0.33111 0.75751
 H3776 H 0.48373 0.35148 0.76427
 C3777 C 0.94906 0.40036 0.30231
 C3778 C 0.95309 0.39078 0.29829
 C3779 C 0.95766 0.37920 0.29360
 C3780 C 0.94998 0.36879 0.29367
 C3781 C 0.95437 0.35746 0.28931
 C3782 C 0.96655 0.35637 0.28482
 C3783 C 0.97418 0.36692 0.28470
 C3784 C 0.96976 0.37825 0.28909
 C3785 C 0.97126 0.34425 0.28043
 C3786 C 0.97867 0.34345 0.26975
 C3787 C 0.98293 0.33198 0.26557
 C3788 C 0.97988 0.32118 0.27203
 C3789 C 0.97260 0.32190 0.28271
 C3790 C 0.96832 0.33335 0.28689
 C3791 C 0.98408 0.30932 0.26771
 C3792 C 0.98738 0.29924 0.26432
 H3793 H 0.94058 0.36943 0.29711
 H3794 H 0.94822 0.34956 0.28934
 H3795 H 0.98362 0.36634 0.28143
 H3796 H 0.97579 0.38625 0.28903
 H3797 H 0.98098 0.35167 0.26451
 H3798 H 0.98854 0.33151 0.25727
 H3799 H 0.97022 0.31361 0.28780
 H3800 H 0.96280 0.33368 0.29524
 C3801 C 0.29820 0.90425 0.45169
 C3802 C 0.29402 0.89484 0.45598
 C3803 C 0.28921 0.88347 0.46093
 C3804 C 0.29288 0.87942 0.47268
 C3805 C 0.28862 0.86811 0.47726
 C3806 C 0.28063 0.86069 0.47014
 C3807 C 0.27687 0.86492 0.45841
 C3808 C 0.28115 0.87623 0.45384
 C3809 C 0.27651 0.84842 0.47475
 C3810 C 0.26432 0.84431 0.47272
 C3811 C 0.26064 0.83254 0.47661
 C3812 C 0.26908 0.82474 0.48257
 C3813 C 0.28117 0.82880 0.48477
 C3814 C 0.28487 0.84056 0.48091
 C3815 C 0.26550 0.81239 0.48600
 C3816 C 0.26270 0.80194 0.48866
 H3817 H 0.29913 0.88495 0.47824
 H3818 H 0.29156 0.86517 0.48638
 H3819 H 0.27087 0.85935 0.45263
 H3820 H 0.27830 0.87925 0.44471
 H3821 H 0.25764 0.85019 0.46814
 H3822 H 0.25126 0.82948 0.47485
 H3823 H 0.28779 0.82281 0.48932
 H3824 H 0.29436 0.84338 0.48244
 C3825 C 0.29835 0.40306 0.95086
 C3826 C 0.29431 0.39341 0.95471
 C3827 C 0.28964 0.38173 0.95905
 C3828 C 0.29136 0.37109 0.95189
 C3829 C 0.28696 0.35969 0.95605
 C3830 C 0.28075 0.35875 0.96746
 C3831 C 0.27906 0.36950 0.97461
 C3832 C 0.28348 0.38092 0.97041
 C3833 C 0.27618 0.34658 0.97188
 C3834 C 0.27741 0.34316 0.98440
 C3835 C 0.27351 0.33150 0.98842
 C3836 C 0.26831 0.32314 0.98002
 C3837 C 0.26688 0.32652 0.96760
 C3838 C 0.27077 0.33816 0.96355
 C3839 C 0.26480 0.31093 0.98396
 C3840 C 0.26203 0.30056 0.98696
 H3841 H 0.29616 0.37160 0.94310
 H3842 H 0.28858 0.35157 0.95042
 H3843 H 0.27421 0.36911 0.98336
 H3844 H 0.28208 0.38910 0.97603
 H3845 H 0.28166 0.34938 0.99100
 H3846 H 0.27472 0.32896 0.99805
 H3847 H 0.26286 0.32012 0.96101
 H3848 H 0.26953 0.34057 0.95390
 C3849 C 0.80136 0.34855 0.29870
 C3850 C 0.79746 0.35806 0.29438
 C3851 C 0.79299 0.36956 0.28938
 C3852 C 0.80127 0.37784 0.28387
 C3853 C 0.79707 0.38923 0.27943
 C3854 C 0.78451 0.39249 0.28045
 C3855 C 0.77622 0.38403 0.28585
 C3856 C 0.78045 0.37265 0.29030
 C3857 C 0.78013 0.40479 0.27615
 C3858 C 0.76873 0.40603 0.26997
 C3859 C 0.76460 0.41766 0.26609
 C3860 C 0.77180 0.42818 0.26834
 C3861 C 0.78316 0.42703 0.27445
 C3862 C 0.78730 0.41543 0.27833
 C3863 C 0.76755 0.44020 0.26451
 C3864 C 0.76422 0.45039 0.26147
 H3865 H 0.81099 0.37555 0.28310
 H3866 H 0.80364 0.39546 0.27517
 H3867 H 0.76653 0.38633 0.28691
 H3868 H 0.77397 0.36632 0.29460
 H3869 H 0.76306 0.39800 0.26804
 H3870 H 0.75580 0.41844 0.26135
 H3871 H 0.78878 0.43512 0.27629
 H3872 H 0.79603 0.41481 0.28322
   
