data_POSCAR
  _audit_creation_date              2014-09-24
  _audit_creation_method            'ToBaCCo'
  _symmetry_space_group_name_H-M    'P1'
  _symmetry_Int_Tables_number       1
  _symmetry_cell_setting            triclinic
  loop_
  _symmetry_equiv_pos_as_xyz
 x,y,z
_cell_length_a 49.0210
_cell_length_b 48.3777
_cell_length_c 51.5961
_cell_angle_alpha 88.954800
_cell_angle_beta 91.488900
_cell_angle_gamma 91.186000
loop_
  _atom_site_label
  _atom_site_type_symbol
  _atom_site_fract_x
  _atom_site_fract_y
  _atom_site_fract_z
C1 C 0.41775 0.01273 0.28104
 C2 C 0.39630 0.03539 0.27755
 C3 C 0.38030 0.03314 0.25557
 C4 C 0.38746 0.00825 0.23885
 C5 C 0.40145 -0.01435 0.27920
 C6 C 0.38553 -0.01701 0.25749
 C7 C 0.43380 0.01481 0.25606
 C8 C 0.41844 0.01232 0.23371
 H9 H 0.39530 0.05313 0.28988
 H10 H 0.37419 0.00579 0.22131
 H11 H 0.40129 -0.02956 0.29489
 H12 H 0.45535 0.02009 0.25644
 C13 C 0.08052 -0.00758 0.78088
 C14 C 0.09902 -0.03253 0.77725
 C15 C 0.11497 -0.03053 0.75594
 C16 C 0.11115 -0.00319 0.74033
 C17 C 0.10029 0.01720 0.78133
 C18 C 0.11598 0.02020 0.76016
 C19 C 0.06529 -0.00498 0.75650
 C20 C 0.08173 -0.00284 0.73385
 H21 H 0.09893 -0.05089 0.78941
 H22 H 0.12486 -0.00075 0.72370
 H23 H 0.10124 0.03170 0.79712
 H24 H 0.04338 -0.00816 0.75563
 C25 C 0.58099 0.49074 0.27762
 C26 C 0.60056 0.46657 0.27476
 C27 C 0.61781 0.46938 0.25446
 C28 C 0.61340 0.49629 0.23829
 C29 C 0.59966 0.51636 0.27855
 C30 C 0.61668 0.51955 0.25834
 C31 C 0.56605 0.49258 0.25133
 C32 C 0.58256 0.49564 0.23055
 H33 H 0.60012 0.44801 0.28665
 H34 H 0.62740 0.49896 0.22185
 H35 H 0.59914 0.53105 0.29413
 H36 H 0.54413 0.48983 0.24949
 C37 C 0.91785 0.51829 0.77864
 C38 C 0.89582 0.54046 0.77593
 C39 C 0.87882 0.53776 0.75469
 C40 C 0.88576 0.51302 0.73769
 C41 C 0.90210 0.49086 0.77746
 C42 C 0.88525 0.48779 0.75646
 C43 C 0.93275 0.52062 0.75294
 C44 C 0.91637 0.51783 0.73119
 H45 H 0.89507 0.55821 0.78829
 H46 H 0.87172 0.51019 0.72074
 H47 H 0.90294 0.47571 0.79319
 H48 H 0.95419 0.52626 0.75239
 C49 C 0.27867 0.37548 0.99130
 C50 C 0.27853 0.35270 1.01217
 C51 C 0.25614 0.33568 1.01171
 C52 C 0.23540 0.34288 0.98973
 C53 C 0.27433 0.36024 0.96564
 C54 C 0.25182 0.34317 0.96460
 C55 C 0.25154 0.39049 0.99455
 C56 C 0.22882 0.37358 0.99373
 H57 H 0.29408 0.35167 1.02745
 H58 H 0.21722 0.32883 0.98920
 H59 H 0.28775 0.36329 0.94944
 H60 H 0.24995 0.41271 0.99481
 C61 C 0.78051 0.12911 1.00366
 C62 C 0.77837 0.14578 0.97838
 C63 C 0.75650 0.16247 0.97626
 C64 C 0.73809 0.16079 1.00012
 C65 C 0.77959 0.15072 1.02504
 C66 C 0.75753 0.16742 1.02332
 C67 C 0.75447 0.11416 1.00553
 C68 C 0.73062 0.13126 1.00351
 H69 H 0.79369 0.14506 0.96363
 H70 H 0.72108 0.17535 0.99804
 H71 H 0.79407 0.15127 1.04125
 H72 H 0.75353 0.09296 1.01233
 C73 C 0.27586 0.62836 0.49991
 C74 C 0.27445 0.64550 0.47492
 C75 C 0.25291 0.66252 0.47262
 C76 C 0.23398 0.66090 0.49598
 C77 C 0.27459 0.64944 0.52167
 C78 C 0.25278 0.66644 0.51983
 C79 C 0.24795 0.61306 0.50100
 C80 C 0.22567 0.62986 0.49880
 H81 H 0.28982 0.64449 0.46024
 H82 H 0.21701 0.67555 0.49385
 H83 H 0.28837 0.64910 0.53843
 H84 H 0.24627 0.59130 0.50573
 C85 C 0.77841 0.87361 0.49203
 C86 C 0.77637 0.85453 0.51574
 C87 C 0.75344 0.83835 0.51647
 C88 C 0.73431 0.84220 0.49252
 C89 C 0.77526 0.85440 0.46878
 C90 C 0.75238 0.83788 0.46883
 C91 C 0.75161 0.88971 0.49131
 C92 C 0.72838 0.87351 0.49201
 H93 H 0.79153 0.85485 0.53142
 H94 H 0.71598 0.82841 0.49305
 H95 H 0.78879 0.85539 0.45252
 H96 H 0.75117 0.91199 0.48943
 C97 C 0.00706 0.28212 0.40007
 C98 C 0.02559 0.28308 0.37664
 C99 C 0.02152 0.26150 0.36051
 C100 C -0.00042 0.24061 0.36946
 C101 C -0.02045 0.27941 0.38956
 C102 C -0.02484 0.25680 0.37246
 C103 C 0.01331 0.25413 0.41302
 C104 C 0.00907 0.23198 0.39718
 H105 H 0.04258 0.29756 0.37458
 H106 H -0.00290 0.22378 0.35547
 H107 H -0.03658 0.29266 0.39556
 H108 H 0.02257 0.25261 0.43220
 C109 C -0.00246 0.76448 0.11490
 C110 C -0.01786 0.76519 0.14021
 C111 C -0.01746 0.74120 0.15427
 C112 C -0.00191 0.71819 0.14138
 C113 C 0.02608 0.75467 0.12256
 C114 C 0.02633 0.73069 0.13649
 C115 C -0.01552 0.73999 0.10023
 C116 C -0.01483 0.71566 0.11403
 H117 H -0.02993 0.78269 0.14533
 H118 H -0.00101 0.69850 0.15272
 H119 H 0.04449 0.76661 0.11854
 H120 H -0.02204 0.74072 0.08010
 C121 C 0.50016 0.26584 0.61137
 C122 C 0.48401 0.26746 0.63620
 C123 C 0.48410 0.24400 0.65107
 C124 C 0.50005 0.22056 0.63934
 C125 C 0.52852 0.25639 0.62010
 C126 C 0.52842 0.23300 0.63493
 C127 C 0.48758 0.24083 0.59721
 C128 C 0.48784 0.21705 0.61182
 H129 H 0.47187 0.28519 0.64044
 H130 H 0.50078 0.20123 0.65122
 H131 H 0.54694 0.26858 0.61674
 H132 H 0.48126 0.24089 0.57702
 C133 C 0.48962 0.78148 0.90295
 C134 C 0.51366 0.78580 0.88479
 C135 C 0.51634 0.76511 0.86770
 C136 C 0.49463 0.74211 0.87006
 C137 C 0.46462 0.77724 0.88498
 C138 C 0.46758 0.75714 0.86742
 C139 C 0.49379 0.75452 0.91515
 C140 C 0.49698 0.73264 0.89706
 H141 H 0.52849 0.80260 0.88684
 H142 H 0.49666 0.72637 0.85499
 H143 H 0.44657 0.78976 0.88542
 H144 H 0.49146 0.75053 0.93564
 C145 C -0.23629 0.66460 0.97168
 C146 C -0.21122 0.64612 0.97578
 C147 C -0.21273 0.62834 0.99663
 C148 C -0.23932 0.63082 1.01169
 C149 C -0.26058 0.64448 0.97060
 C150 C -0.26242 0.62665 0.99106
 C151 C -0.23838 0.67919 0.99766
 C152 C -0.23960 0.66182 1.01878
 H153 H -0.19325 0.64778 0.96413
 H154 H -0.24093 0.61644 1.02861
 H155 H -0.27531 0.64446 0.95456
 H156 H -0.23553 0.70135 0.99931
 C157 C -0.25734 0.33461 0.47160
 C158 C -0.28041 0.35558 0.47341
 C159 C -0.27791 0.37270 0.49413
 C160 C -0.25209 0.36710 0.51134
 C161 C -0.23128 0.35241 0.47183
 C162 C -0.22797 0.36923 0.49247
 C163 C -0.25724 0.32016 0.49645
 C164 C -0.25423 0.33752 0.51873
 H165 H -0.29855 0.35555 0.46111
 H166 H -0.24934 0.38176 0.52744
 H167 H -0.21661 0.35180 0.45650
 H168 H -0.26219 0.29830 0.49761
 C169 C 0.24924 -0.16221 -0.03074
 C170 C 0.22425 -0.14389 -0.02723
 C171 C 0.22556 -0.12813 -0.00547
 C172 C 0.25243 -0.13187 0.01063
 C173 C 0.27340 -0.14184 -0.03022
 C174 C 0.27578 -0.12623 -0.00868
 C175 C 0.25162 -0.17800 -0.00665
 C176 C 0.25312 -0.16180 0.01643
 H177 H 0.20645 -0.14390 -0.03993
 H178 H 0.25440 -0.11831 0.02766
 H179 H 0.28801 -0.14044 -0.04563
 H180 H 0.24866 -0.20023 -0.00637
 C181 C 0.26214 1.16173 0.46888
 C182 C 0.28619 1.14189 0.47239
 C183 C 0.28485 1.12486 0.49378
 C184 C 0.25943 1.12969 0.51011
 C185 C 0.23676 1.14313 0.46966
 C186 C 0.23516 1.12608 0.49068
 C187 C 0.26245 1.17744 0.49445
 C188 C 0.26113 1.16108 0.51639
 H189 H 0.30380 1.14260 0.46018
 H190 H 0.25767 1.11542 0.52702
 H191 H 0.22148 1.14297 0.45409
 H192 H 0.26638 1.19949 0.49479
 C193 C 0.12543 0.52688 0.25576
 C194 C 0.10400 0.52527 0.23381
 C195 C 0.08704 0.50273 0.23478
 C196 C 0.09301 0.48325 0.25813
 C197 C 0.10899 0.52452 0.28066
 C198 C 0.09177 0.50201 0.28204
 C199 C 0.14025 0.49914 0.25503
 C200 C 0.12349 0.47619 0.25590
 H201 H 0.10336 0.54023 0.21793
 H202 H 0.07885 0.46509 0.25885
 H203 H 0.11135 0.53921 0.29618
 H204 H 0.16221 0.49765 0.25547
 C205 C -0.12134 1.02412 0.24889
 C206 C -0.10465 1.02214 0.27416
 C207 C -0.08796 1.00014 0.27610
 C208 C -0.08963 0.98146 0.25213
 C209 C -0.10017 1.02341 0.22750
 C210 C -0.08342 1.00124 0.22909
 C211 C -0.13584 0.99762 0.24684
 C212 C -0.11874 0.97365 0.24878
 H213 H -0.10544 1.03759 0.28907
 H214 H -0.07514 0.96431 0.25410
 H215 H -0.09974 1.03819 0.21148
 H216 H -0.15684 0.99643 0.24007
 C217 C 0.37941 0.52594 -0.25282
 C218 C 0.39909 0.52541 -0.22946
 C219 C 0.41647 0.50396 -0.22859
 C220 C 0.41210 0.48383 -0.25121
 C221 C 0.39772 0.52421 -0.27636
 C222 C 0.41498 0.50247 -0.27560
 C223 C 0.36456 0.49757 -0.25202
 C224 C 0.38141 0.47525 -0.25107
 H225 H 0.39956 0.54136 -0.21496
 H226 H 0.42659 0.46653 -0.25024
 H227 H 0.39659 0.53872 -0.29259
 H228 H 0.34277 0.49531 -0.25496
 C229 C 0.62433 0.03190 -0.24269
 C230 C 0.60314 0.02970 -0.26482
 C231 C 0.58637 0.00703 -0.26363
 C232 C 0.59235 -0.01200 -0.23997
 C233 C 0.60767 0.02979 -0.21795
 C234 C 0.59070 0.00713 -0.21641
 C235 C 0.63947 0.00432 -0.24288
 C236 C 0.62294 -0.01879 -0.24181
 H237 H 0.60243 0.04446 -0.28087
 H238 H 0.57835 -0.03028 -0.23906
 H239 H 0.60964 0.04482 -0.20268
 H240 H 0.66143 0.00299 -0.24211
 C241 C 0.03022 0.24302 0.83982
 C242 C 0.03674 0.26521 0.86011
 C243 C 0.01698 0.26808 0.87784
 C244 C -0.00699 0.24742 0.87437
 C245 C 0.02576 0.21664 0.85620
 C246 C 0.00624 0.21893 0.87417
 C247 C 0.00357 0.24968 0.82904
 C248 C -0.01716 0.25230 0.84786
 H249 H 0.05507 0.27809 0.85984
 H250 H -0.02249 0.24824 0.88949
 H251 H 0.03830 0.19857 0.85569
 H252 H 0.00059 0.25466 0.80864
 C253 C 0.51781 0.27076 0.15321
 C254 C 0.52408 0.24874 0.13345
 C255 C 0.50243 0.24070 0.11832
 C256 C 0.47623 0.25584 0.12403
 C257 C 0.50530 0.29450 0.13732
 C258 C 0.48388 0.28650 0.12187
 C259 C 0.49379 0.25871 0.16849
 C260 C 0.47199 0.25102 0.15313
 H261 H 0.54428 0.24042 0.13172
 H262 H 0.45826 0.25010 0.11163
 H263 H 0.51332 0.31553 0.13735
 H264 H 0.49280 0.25917 0.18939
 C265 C 0.01025 0.75016 0.64802
 C266 C 0.01314 0.73509 0.62239
 C267 C -0.00995 0.73436 0.60723
 C268 C -0.03392 0.74910 0.61903
 C269 C 0.00026 0.77885 0.63946
 C270 C -0.02281 0.77818 0.62434
 C271 C -0.01408 0.73612 0.66104
 C272 C -0.03732 0.73590 0.64605
 H273 H 0.03169 0.72500 0.61725
 H274 H -0.05286 0.74936 0.60679
 H275 H 0.01264 0.79756 0.64080
 H276 H -0.01346 0.72931 0.68115
 C277 C 0.52795 0.74721 0.33856
 C278 C 0.53689 0.76700 0.36023
 C279 C 0.51826 0.76970 0.37901
 C280 C 0.49276 0.75120 0.37518
 C281 C 0.52190 0.71985 0.35303
 C282 C 0.50348 0.72198 0.37206
 C283 C 0.50002 0.75738 0.32907
 C284 C 0.48161 0.75937 0.34819
 H285 H 0.55590 0.77880 0.35998
 H286 H 0.47758 0.75287 0.39060
 H287 H 0.53273 0.70092 0.35050
 H288 H 0.49498 0.76126 0.30878
 Zr289 Zr 0.03093 -0.01837 1.04349
 O290 O 0.06064 -0.00354 1.07062
 O291 O 0.02582 -0.05981 1.05525
 O292 O 0.01573 -0.01911 1.08165
 O293 O 0.07683 -0.02882 0.99460
 O294 O -0.02512 0.00261 1.07710
 O295 O 0.06972 -0.03599 1.03782
 O296 O -0.00806 -0.07603 1.02793
 O297 O -0.01124 -0.02523 1.03839
 O298 O 0.02503 -0.03790 1.00789
 O299 O 0.01324 0.02091 1.04459
 O300 O 0.04861 0.00867 1.01570
 Zr301 Zr -0.01916 0.02142 0.97428
 Zr302 Zr -0.02863 0.01390 1.03772
 Zr303 Zr 0.04066 -0.01062 0.98013
 Zr304 Zr -0.01689 -0.04330 1.00220
 O305 O 0.07470 0.01272 0.96693
 O306 O -0.05405 -0.05707 1.01871
 O307 O -0.00123 -0.01779 0.97270
 O308 O -0.03638 -0.00533 1.00218
 O309 O -0.01349 0.04153 1.00967
 O310 O 0.02298 0.02824 0.97938
 C311 C 0.00911 -0.07861 1.04692
 C312 C 0.08415 -0.03774 1.01732
 C313 C -0.00660 -0.00987 1.09059
 O314 O -0.06464 -0.00780 1.04847
 O315 O -0.06293 0.03575 1.02403
 O316 O -0.05685 0.04081 0.98045
 C317 C -0.07040 0.04419 1.00124
 O318 O 0.06030 0.05319 1.04348
 Zr319 Zr 0.02860 0.04681 1.01520
 O320 O -0.01479 0.06273 0.96251
 O321 O -0.03214 0.04964 1.06033
 O322 O 0.01581 0.07813 1.04015
 O323 O 0.06404 0.06281 0.99703
 O324 O 0.01636 0.08075 0.99163
 C325 C -0.00036 0.08264 0.97208
 O326 O -0.05043 0.00738 0.94833
 O327 O 0.04676 -0.04764 0.95999
 O328 O -0.00591 0.01838 0.93567
 O329 O 0.03438 -0.00442 0.94011
 O330 O -0.00401 -0.07670 0.97976
 O331 O -0.04497 -0.05010 0.97077
 C332 C 0.01526 0.00697 0.92651
 H333 H 0.03423 -0.05589 1.00721
 H334 H -0.05618 -0.00829 0.99873
 H335 H 0.03085 0.03994 0.96539
 H336 H 0.01686 0.02959 1.06160
 H337 H -0.05598 -0.07720 1.01574
 H338 H -0.07375 0.00372 1.06123
 H339 H -0.04937 0.04745 1.06987
 H340 H 0.02596 0.09537 1.03552
 H341 H -0.01540 -0.09311 0.98445
 H342 H 0.06385 -0.04503 0.95031
 H343 H 0.08384 0.00116 0.95422
 H344 H 0.06509 0.08294 1.00025
 H345 H -0.05352 -0.06873 0.97262
 H346 H -0.05522 0.02318 0.93667
 H347 H 0.06569 -0.01939 1.08211
 H348 H 0.06552 0.07307 1.04383
 Zr349 Zr 0.52687 0.48260 0.53735
 O350 O 0.55644 0.49843 0.56411
 O351 O 0.52271 0.44125 0.54959
 O352 O 0.51194 0.48221 0.57556
 O353 O 0.57261 0.47202 0.48850
 O354 O 0.47074 0.50323 0.57095
 O355 O 0.56591 0.46559 0.53186
 O356 O 0.48900 0.42393 0.52268
 O357 O 0.48477 0.47493 0.53263
 O358 O 0.52106 0.46238 0.50209
 O359 O 0.50855 0.52159 0.53798
 O360 O 0.54396 0.50944 0.50909
 Zr361 Zr 0.47570 0.52041 0.46783
 Zr362 Zr 0.46677 0.51377 0.53144
 Zr363 Zr 0.53609 0.48943 0.47389
 Zr364 Zr 0.47919 0.45620 0.49673
 O365 O 0.56971 0.51308 0.46020
 O366 O 0.44248 0.44210 0.51390
 O367 O 0.49427 0.48148 0.46678
 O368 O 0.45909 0.49385 0.49623
 O369 O 0.48129 0.54116 0.50291
 O370 O 0.51777 0.52798 0.47263
 C371 C 0.50644 0.42196 0.54151
 C372 C 0.58024 0.46370 0.51132
 C373 C 0.48955 0.49129 0.58450
 O374 O 0.43116 0.49168 0.54268
 O375 O 0.43211 0.53492 0.51772
 O376 O 0.43776 0.53944 0.47404
 C377 C 0.42435 0.54297 0.49490
 O378 O 0.55509 0.55464 0.53612
 Zr379 Zr 0.52331 0.54721 0.50813
 O380 O 0.47935 0.56157 0.45535
 O381 O 0.46282 0.54980 0.55357
 O382 O 0.51017 0.57874 0.53267
 O383 O 0.55837 0.56349 0.48951
 O384 O 0.51032 0.58049 0.48414
 C385 C 0.49351 0.58183 0.46463
 O386 O 0.44447 0.50544 0.44232
 O387 O 0.54268 0.45221 0.45422
 O388 O 0.48883 0.51692 0.42919
 O389 O 0.52954 0.49489 0.43387
 O390 O 0.49234 0.42275 0.47450
 O391 O 0.45084 0.44839 0.46572
 C392 C 0.51021 0.50574 0.42017
 H393 H 0.53057 0.44456 0.50157
 H394 H 0.43931 0.49054 0.49296
 H395 H 0.52539 0.53957 0.45844
 H396 H 0.51214 0.53061 0.55483
 H397 H 0.44088 0.42188 0.51130
 H398 H 0.42197 0.50323 0.55537
 H399 H 0.44571 0.54746 0.56327
 H400 H 0.51998 0.59607 0.52770
 H401 H 0.48130 0.40620 0.47951
 H402 H 0.55972 0.45492 0.44448
 H403 H 0.57900 0.50144 0.44766
 H404 H 0.55908 0.58370 0.49238
 H405 H 0.44253 0.42970 0.46802
 H406 H 0.43935 0.52098 0.43046
 H407 H 0.56185 0.48289 0.57583
 H408 H 0.55998 0.57460 0.53610
 Zr409 Zr 0.47140 0.99911 0.54610
 O410 O 0.44231 0.98042 0.57083
 O411 O 0.47487 1.03916 0.56056
 O412 O 0.48734 0.99609 0.58460
 O413 O 0.42532 1.01539 0.49628
 O414 O 0.52828 0.97502 0.58039
 O415 O 0.43259 1.01740 0.54014
 O416 O 0.50794 1.05940 0.53572
 O417 O 0.51348 1.00707 0.54334
 O418 O 0.47677 1.02272 0.51220
 O419 O 0.48967 0.96013 0.54526
 O420 O 0.45363 0.97539 0.51587
 Zr421 Zr 0.52104 0.96838 0.47629
 Zr422 Zr 0.53143 0.96833 0.54044
 Zr423 Zr 0.46114 0.99876 0.48206
 Zr424 Zr 0.51850 1.02947 0.50886
 O425 O 0.42708 0.97664 0.46638
 O426 O 0.55500 1.04139 0.52899
 O427 O 0.50283 1.00745 0.47691
 O428 O 0.53838 0.99183 0.50667
 O429 O 0.51609 0.94418 0.51000
 O430 O 0.47913 0.96032 0.47931
 C431 C 0.49033 1.05957 0.55371
 C432 C 0.41827 1.02187 0.51915
 C433 C 0.50988 0.98615 0.59383
 O434 O 0.56753 0.98869 0.55395
 O435 O 0.56574 0.94837 0.52613
 O436 O 0.55897 0.94887 0.48214
 C437 C 0.57290 0.94297 0.50296
 O438 O 0.44232 0.92834 0.53979
 Zr439 Zr 0.47414 0.93774 0.51364
 O440 O 0.51743 0.92830 0.46200
 O441 O 0.53551 0.93007 0.56053
 O442 O 0.48684 0.90387 0.53735
 O443 O 0.43922 0.92307 0.49255
 O444 O 0.48745 0.90658 0.48921
 C445 C 0.50408 0.90702 0.47035
 O446 O 0.55165 0.98601 0.45251
 O447 O 0.45442 1.03778 0.46399
 O448 O 0.50718 0.97548 0.43749
 O449 O 0.46674 0.99730 0.44203
 O450 O 0.50574 1.06508 0.48764
 O451 O 0.54705 1.04052 0.47995
 C452 C 0.48573 0.98768 0.42838
 H453 H 0.46735 1.04062 0.51211
 H454 H 0.55811 0.99540 0.50419
 H455 H 0.47133 0.95011 0.46430
 H456 H 0.48635 0.94951 0.56150
 H457 H 0.55647 1.06184 0.52802
 H458 H 0.57685 0.97569 0.56613
 H459 H 0.55290 0.93122 0.57072
 H460 H 0.47667 0.88719 0.53127
 H461 H 0.51676 1.08105 0.49411
 H462 H 0.43715 1.03617 0.45365
 H463 H 0.41756 0.98948 0.45418
 H464 H 0.43855 0.90266 0.49461
 H465 H 0.55585 1.05853 0.48419
 H466 H 0.55656 0.97180 0.43991
 H467 H 0.43704 0.99471 0.58319
 H468 H 0.43699 0.90855 0.53851
 Zr469 Zr -0.02711 0.49987 1.04396
 O470 O -0.05630 0.48142 1.06873
 O471 O -0.02264 0.53964 1.05889
 O472 O -0.01090 0.49585 1.08229
 O473 O -0.07334 0.51820 0.99493
 O474 O 0.02937 0.47376 1.07741
 O475 O -0.06550 0.51900 1.03878
 O476 O 0.01049 0.55967 1.03398
 O477 O 0.01507 0.50691 1.04096
 O478 O -0.02155 0.52395 1.01035
 O479 O -0.00988 0.46047 1.04234
 O480 O -0.04578 0.47718 1.01348
 Zr481 Zr 0.02104 0.46910 0.97314
 Zr482 Zr 0.03196 0.46777 1.03728
 Zr483 Zr -0.03806 0.50095 0.97994
 Zr484 Zr 0.02027 0.52976 1.00675
 O485 O -0.07277 0.47995 0.96418
 O486 O 0.05710 0.54049 1.02692
 O487 O 0.00379 0.50862 0.97459
 O488 O 0.03915 0.49166 1.00378
 O489 O 0.01577 0.44448 1.00656
 O490 O -0.02104 0.46212 0.97643
 C491 C -0.00697 0.55991 1.05211
 C492 C -0.07996 0.52427 1.01807
 C493 C 0.01140 0.48514 1.09120
 O494 O 0.06862 0.48706 1.05082
 O495 O 0.06566 0.44733 1.02249
 O496 O 0.05864 0.44860 0.97853
 C497 C 0.07260 0.44213 0.99922
 O498 O -0.05792 0.42997 1.03688
 Zr499 Zr -0.02628 0.43908 1.01046
 O500 O 0.01606 0.42936 0.95820
 O501 O 0.03529 0.42903 1.05668
 O502 O -0.01407 0.40441 1.03335
 O503 O -0.06190 0.42581 0.98961
 O504 O -0.01437 0.40808 0.98523
 C505 C 0.00203 0.40837 0.96621
 O506 O 0.05188 0.48618 0.94932
 O507 O -0.04400 0.54045 0.96259
 O508 O 0.00701 0.47745 0.93453
 O509 O -0.03285 0.50012 0.93978
 O510 O 0.00821 0.56591 0.98596
 O511 O 0.04896 0.54057 0.97789
 C512 C -0.01420 0.49034 0.92577
 H513 H -0.03056 0.54205 1.01062
 H514 H 0.05893 0.49479 1.00120
 H515 H -0.02926 0.45241 0.96132
 H516 H -0.01330 0.44965 1.05844
 H517 H 0.05904 0.56092 1.02624
 H518 H 0.07771 0.47366 1.06279
 H519 H 0.05275 0.42959 1.06680
 H520 H -0.02477 0.38813 1.02715
 H521 H 0.01961 0.58155 0.99256
 H522 H -0.06144 0.53946 0.95245
 H523 H -0.08211 0.49328 0.95234
 H524 H -0.06316 0.40539 0.99136
 H525 H 0.05817 0.55832 0.98235
 H526 H 0.05624 0.47199 0.93648
 H527 H -0.06110 0.49561 1.08139
 H528 H -0.06370 0.41032 1.03539
 Zr529 Zr -0.02849 0.48597 0.46784
 O530 O -0.05571 0.49164 0.43574
 O531 O -0.01969 0.44402 0.46513
 O532 O -0.00918 0.48140 0.43161
 O533 O -0.07968 0.48038 0.51340
 O534 O 0.03002 0.50749 0.43587
 O535 O -0.06719 0.46619 0.47348
 O536 O 0.01113 0.43594 0.49827
 O537 O 0.01312 0.48432 0.47818
 O538 O -0.02613 0.47373 0.50694
 O539 O -0.01249 0.52603 0.46076
 O540 O -0.05059 0.51545 0.48799
 Zr541 Zr 0.01123 0.54252 0.53227
 Zr542 Zr 0.02859 0.52458 0.47288
 Zr543 Zr -0.04602 0.50387 0.52723
 Zr544 Zr 0.01506 0.47361 0.51760
 O545 O -0.08227 0.52586 0.53251
 O546 O 0.05469 0.46102 0.50804
 O547 O -0.00496 0.50244 0.53977
 O548 O 0.03269 0.51285 0.51205
 O549 O 0.00894 0.55510 0.49320
 O550 O -0.03034 0.54395 0.52194
 C551 C -0.00327 0.42864 0.47839
 C552 C -0.08396 0.46696 0.49240
 C553 C 0.01348 0.49170 0.42300
 O554 O 0.06613 0.50426 0.46960
 O555 O 0.06073 0.55087 0.48539
 O556 O 0.04947 0.56307 0.52624
 C557 C 0.06552 0.56348 0.50675
 O558 O -0.06138 0.55191 0.45134
 Zr559 Zr -0.03253 0.55483 0.48270
 O560 O 0.00360 0.58492 0.53398
 O561 O 0.03365 0.55676 0.44498
 O562 O -0.01896 0.58212 0.45285
 O563 O -0.07039 0.57034 0.49434
 O564 O -0.02438 0.59371 0.49881
 C565 C -0.01018 0.60106 0.51881
 O566 O 0.03946 0.53792 0.56377
 O567 O -0.05292 0.47024 0.55326
 O568 O -0.00659 0.54425 0.56946
 O569 O -0.04503 0.51694 0.56573
 O570 O 0.00057 0.44372 0.54479
 O571 O 0.03944 0.47535 0.55224
 C572 C -0.02811 0.53218 0.57871
 H573 H -0.03462 0.45529 0.51020
 H574 H 0.05207 0.51234 0.51791
 H575 H -0.04027 0.55713 0.53251
 H576 H -0.01449 0.53136 0.44221
 H577 H 0.05716 0.44208 0.51522
 H578 H 0.07646 0.51432 0.45599
 H579 H 0.05190 0.55457 0.43753
 H580 H -0.03090 0.59842 0.45250
 H581 H 0.01306 0.42788 0.54469
 H582 H -0.07122 0.47262 0.56055
 H583 H -0.09250 0.51579 0.54618
 H584 H -0.07221 0.58915 0.48663
 H585 H 0.04855 0.45745 0.55520
 H586 H 0.04164 0.55621 0.57208
 H587 H -0.05840 0.47338 0.42748
 H588 H -0.06795 0.57059 0.44656
 Zr589 Zr 0.47419 -0.00855 -0.02910
 O590 O 0.44683 0.00178 -0.06003
 O591 O 0.47933 -0.05083 -0.03456
 O592 O 0.49232 -0.01214 -0.06589
 O593 O 0.42424 -0.01534 0.01752
 O594 O 0.53305 0.01130 -0.06116
 O595 O 0.43466 -0.02658 -0.02383
 O596 O 0.51008 -0.06364 -0.00272
 O597 O 0.51583 -0.01358 -0.02026
 O598 O 0.47691 -0.02396 0.00899
 O599 O 0.49248 0.03092 -0.03384
 O600 O 0.45457 0.02056 -0.00635
 Zr601 Zr 0.51909 0.03996 0.03797
 Zr602 Zr 0.53365 0.02605 -0.02313
 Zr603 Zr 0.45943 0.00549 0.03184
 Zr604 Zr 0.51824 -0.02751 0.01827
 O605 O 0.42463 0.02898 0.03928
 O606 O 0.55612 -0.04185 0.00549
 O607 O 0.50058 0.00050 0.04309
 O608 O 0.53816 0.01094 0.01501
 O609 O 0.51656 0.05593 -0.00002
 O610 O 0.47750 0.04476 0.02896
 C611 C 0.49422 -0.06853 -0.02232
 C612 C 0.41864 -0.02678 -0.00430
 C613 C 0.51532 -0.00275 -0.07444
 O614 O 0.57004 0.00434 -0.02858
 O615 O 0.56724 0.05015 -0.00985
 O616 O 0.55773 0.05970 0.03211
 C617 C 0.57309 0.06117 0.01212
 O618 O 0.44575 0.06114 -0.04036
 Zr619 Zr 0.47500 0.05913 -0.00927
 O620 O 0.51396 0.08214 0.04373
 O621 O 0.53970 0.05957 -0.04942
 O622 O 0.49021 0.08809 -0.03695
 O623 O 0.43825 0.07563 0.00405
 O624 O 0.48544 0.09577 0.01038
 C625 C 0.50049 0.10032 0.03064
 O626 O 0.54799 0.03033 0.06783
 O627 O 0.45133 -0.02937 0.05606
 O628 O 0.50241 0.04020 0.07565
 O629 O 0.46211 0.01596 0.07097
 O630 O 0.50337 -0.05818 0.04452
 O631 O 0.54433 -0.03003 0.05175
 C632 C 0.48022 0.02915 0.08449
 H633 H 0.46732 -0.04199 0.01145
 H634 H 0.55763 0.00900 0.02019
 H635 H 0.46860 0.05755 0.04071
 H636 H 0.49035 0.03773 -0.05197
 H637 H 0.55756 -0.06148 0.01108
 H638 H 0.58040 0.01478 -0.04193
 H639 H 0.55764 0.05696 -0.05738
 H640 H 0.47968 0.10525 -0.03552
 H641 H 0.51482 -0.07469 0.04298
 H642 H 0.43343 -0.02648 0.06400
 H643 H 0.41423 0.01859 0.05264
 H644 H 0.43754 0.09517 -0.00198
 H645 H 0.55300 -0.04835 0.05257
 H646 H 0.55173 0.04752 0.07763
 H647 H 0.44253 -0.01550 -0.06950
 H648 H 0.44077 0.08064 -0.04369
 Zr649 Zr 0.53739 0.51491 -0.04039
 O650 O 0.56549 0.49718 -0.06541
 O651 O 0.53634 0.55583 -0.05451
 O652 O 0.52192 0.51349 -0.07924
 O653 O 0.58486 0.52470 0.01018
 O654 O 0.47869 0.49558 -0.07518
 O655 O 0.57783 0.53051 -0.03353
 O656 O 0.50533 0.57566 -0.02866
 O657 O 0.49622 0.52512 -0.03711
 O658 O 0.53434 0.53623 -0.00570
 O659 O 0.51531 0.47707 -0.04061
 O660 O 0.55256 0.48789 -0.01098
 Zr661 Zr 0.48456 0.48205 0.02860
 Zr662 Zr 0.47452 0.48747 -0.03545
 Zr663 Zr 0.54742 0.50906 0.02364
 Zr664 Zr 0.49339 0.54503 -0.00176
 O665 O 0.57945 0.48392 0.03797
 O666 O 0.45746 0.56067 -0.01995
 O667 O 0.50675 0.51983 0.02940
 O668 O 0.46969 0.50868 -0.00090
 O669 O 0.48729 0.46036 -0.00597
 O670 O 0.52553 0.47161 0.02511
 C671 C 0.52201 0.57614 -0.04741
 C672 C 0.59259 0.53237 -0.01246
 C673 C 0.49855 0.50512 -0.08860
 O674 O 0.44107 0.51148 -0.04834
 O675 O 0.43848 0.46833 -0.02203
 O676 O 0.44473 0.46512 0.02196
 C677 C 0.43066 0.46127 0.00078
 O678 O 0.56010 0.44255 -0.03557
 Zr679 Zr 0.52835 0.45144 -0.00990
 O680 O 0.48298 0.44079 0.04068
 O681 O 0.46623 0.45098 -0.05652
 O682 O 0.51357 0.42047 -0.03557
 O683 O 0.56055 0.43239 0.01156
 O684 O 0.50983 0.41925 0.01199
 C685 C 0.49294 0.41932 0.03064
 O686 O 0.45629 0.50005 0.05326
 O687 O 0.55738 0.54615 0.04321
 O688 O 0.49984 0.48388 0.06752
 O689 O 0.54225 0.50383 0.06360
 O690 O 0.51045 0.57853 0.01959
 O691 O 0.46693 0.55551 0.02839
 C692 C 0.52271 0.49351 0.07698
 H693 H 0.54537 0.55360 -0.00535
 H694 H 0.45037 0.51318 0.00176
 H695 H 0.53210 0.45956 0.03957
 H696 H 0.51769 0.46726 -0.05704
 H697 H 0.45801 0.58103 -0.01809
 H698 H 0.43024 0.50000 -0.06074
 H699 H 0.44912 0.45400 -0.06676
 H700 H 0.52203 0.40282 -0.03004
 H701 H 0.50089 0.59546 0.01372
 H702 H 0.57444 0.54289 0.05346
 H703 H 0.59019 0.49509 0.05067
 H704 H 0.55870 0.41221 0.00879
 H705 H 0.46050 0.57461 0.02547
 H706 H 0.44976 0.48519 0.06521
 H707 H 0.57188 0.51214 -0.07733
 H708 H 0.56398 0.42255 -0.03459
 Zr709 Zr 0.03638 1.01146 0.46398
 O710 O 0.06438 0.99224 0.43987
 O711 O 0.03594 1.05181 0.44854
 O712 O 0.02099 1.00910 0.42510
 O713 O 0.08341 1.02361 0.51446
 O714 O -0.02218 0.99126 0.42974
 O715 O 0.07679 1.02718 0.47052
 O716 O 0.00464 1.07288 0.47321
 O717 O -0.00477 1.02196 0.46659
 O718 O 0.03310 1.03433 0.49779
 O719 O 0.01427 0.97367 0.46506
 O720 O 0.05127 0.98574 0.49456
 Zr721 Zr -0.01704 0.98188 0.53376
 Zr722 Zr -0.02648 0.98444 0.46957
 Zr723 Zr 0.04591 1.00849 0.52825
 Zr724 Zr -0.00785 1.04346 0.50106
 O725 O 0.07798 0.98405 0.54365
 O726 O -0.04349 1.05837 0.48176
 O727 O 0.00522 1.01964 0.53329
 O728 O -0.03162 1.00721 0.50315
 O729 O -0.01408 0.95855 0.50018
 O730 O 0.02396 0.97121 0.53094
 C731 C 0.02172 1.07253 0.45480
 C732 C 0.09133 1.03014 0.49159
 C733 C -0.00246 1.00057 0.41604
 O734 O -0.06001 1.00779 0.45568
 O735 O -0.06255 0.96587 0.48329
 O736 O -0.05679 0.96453 0.52738
 C737 C -0.07060 0.95976 0.50621
 O738 O 0.05851 0.93882 0.47156
 Zr739 Zr 0.02700 0.94939 0.49689
 O740 O -0.01854 0.94140 0.54788
 O741 O -0.03455 0.94718 0.44964
 O742 O 0.01158 0.91730 0.47281
 O743 O 0.05952 0.93147 0.51880
 O744 O 0.00902 0.91849 0.52078
 C745 C -0.00797 0.91952 0.53931
 O746 O -0.04549 1.00122 0.55730
 O747 O 0.05557 1.04639 0.54655
 O748 O -0.00203 0.98510 0.57264
 O749 O 0.04052 1.00462 0.56834
 O750 O 0.00900 1.07782 0.52131
 O751 O -0.03471 1.05542 0.53034
 C752 C 0.02090 0.99478 0.58191
 H753 H 0.04416 1.05167 0.49761
 H754 H -0.05097 1.01185 0.50546
 H755 H 0.03053 0.95979 0.54585
 H756 H 0.01670 0.96320 0.44900
 H757 H -0.04288 1.07881 0.48276
 H758 H -0.07066 0.99585 0.44354
 H759 H -0.05158 0.94980 0.43918
 H760 H 0.01975 0.89980 0.47919
 H761 H -0.00042 1.09454 0.51466
 H762 H 0.07257 1.04358 0.55702
 H763 H 0.08860 0.99577 0.55599
 H764 H 0.05769 0.91115 0.51699
 H765 H -0.04109 1.07438 0.52654
 H766 H -0.05221 0.98695 0.56976
 H767 H 0.07102 1.00661 0.42747
 H768 H 0.06182 0.91872 0.47307
 Zr769 Zr 0.73606 0.27898 0.21154
 O770 O 0.75296 0.30836 0.18528
 O771 O 0.69500 0.27741 0.19960
 O772 O 0.73506 0.26377 0.17322
 O773 O 0.72599 0.32527 0.26072
 O774 O 0.75495 0.22158 0.17761
 O775 O 0.72006 0.31880 0.21716
 O776 O 0.67644 0.24428 0.22637
 O777 O 0.72715 0.23654 0.21559
 O778 O 0.71600 0.27353 0.24663
 O779 O 0.77397 0.25936 0.21119
 O780 O 0.76282 0.29564 0.24027
 Zr781 Zr 0.77154 0.22613 0.28111
 Zr782 Zr 0.76505 0.21725 0.21725
 Zr783 Zr 0.74278 0.28811 0.27521
 Zr784 Zr 0.70845 0.23134 0.25125
 O785 O 0.76700 0.32169 0.28902
 O786 O 0.69354 0.19560 0.23189
 O787 O 0.73363 0.24593 0.28174
 O788 O 0.74508 0.20998 0.25218
 O789 O 0.79229 0.23125 0.24629
 O790 O 0.78022 0.26854 0.27674
 C791 C 0.67501 0.26280 0.20830
 C792 C 0.71790 0.33307 0.23787
 C793 C 0.74361 0.24094 0.16412
 O794 O 0.74257 0.18158 0.20561
 O795 O 0.78530 0.18178 0.23101
 O796 O 0.78982 0.18750 0.27478
 C797 C 0.79318 0.17388 0.25385
 O798 O 0.80798 0.30539 0.21366
 Zr799 Zr 0.79946 0.27364 0.24148
 O800 O 0.81204 0.22903 0.29453
 O801 O 0.80049 0.21233 0.19537
 O802 O 0.83040 0.25907 0.21754
 O803 O 0.81635 0.30893 0.26024
 O804 O 0.83156 0.25992 0.26616
 C805 C 0.83232 0.24312 0.28575
 O806 O 0.75570 0.19469 0.30589
 O807 O 0.70638 0.29572 0.29488
 O808 O 0.76806 0.23943 0.31987
 O809 O 0.74793 0.28150 0.31522
 O810 O 0.67617 0.24447 0.27438
 O811 O 0.69964 0.20160 0.28087
 C812 C 0.75780 0.26152 0.32893
 H813 H 0.69878 0.28373 0.24750
 H814 H 0.74132 0.19001 0.25519
 H815 H 0.79171 0.27604 0.29113
 H816 H 0.78303 0.26275 0.19447
 H817 H 0.67349 0.19474 0.23387
 H818 H 0.75377 0.17206 0.19293
 H819 H 0.79781 0.19499 0.18559
 H820 H 0.84775 0.26847 0.22285
 H821 H 0.65946 0.23396 0.26901
 H822 H 0.70945 0.31303 0.30462
 H823 H 0.75581 0.33147 0.30152
 H824 H 0.83632 0.30906 0.25767
 H825 H 0.68138 0.19314 0.27741
 H826 H 0.77075 0.18910 0.31798
 H827 H 0.73790 0.31446 0.17345
 H828 H 0.82785 0.30954 0.21379
 Zr829 Zr 0.74718 0.72123 0.70708
 O830 O 0.72875 0.69170 0.68204
 O831 O 0.78649 0.72523 0.69265
 O832 O 0.74369 0.73759 0.66873
 O833 O 0.76478 0.67462 0.75628
 O834 O 0.72207 0.77852 0.67366
 O835 O 0.76582 0.68220 0.71245
 O836 O 0.80633 0.75884 0.71785
 O837 O 0.75440 0.76394 0.71034
 O838 O 0.77083 0.72688 0.74100
 O839 O 0.70843 0.73901 0.70831
 O840 O 0.72457 0.70263 0.73727
 Zr841 Zr 0.71694 0.77060 0.77774
 Zr842 Zr 0.71589 0.78137 0.71367
 Zr843 Zr 0.74792 0.71050 0.77112
 Zr844 Zr 0.77687 0.76923 0.74479
 O845 O 0.72694 0.67548 0.78646
 O846 O 0.78778 0.80633 0.72478
 O847 O 0.75582 0.75285 0.77671
 O848 O 0.73940 0.78867 0.74742
 O849 O 0.69272 0.76526 0.74405
 O850 O 0.70972 0.72801 0.77419
 C851 C 0.80655 0.74097 0.69975
 C852 C 0.77084 0.66771 0.73324
 C853 C 0.73334 0.76030 0.65988
 O854 O 0.73516 0.81837 0.70048
 O855 O 0.69579 0.81567 0.72838
 O856 O 0.69691 0.80874 0.77232
 C857 C 0.69062 0.82281 0.75162
 O858 O 0.67799 0.69053 0.71329
 Zr859 Zr 0.68712 0.72268 0.73988
 O860 O 0.67768 0.76601 0.79224
 O861 O 0.67779 0.78492 0.69380
 O862 O 0.65308 0.73522 0.71667
 O863 O 0.67358 0.68681 0.76044
 O864 O 0.65664 0.73519 0.76483
 C865 C 0.65696 0.75187 0.78391
 O866 O 0.73412 0.80177 0.80179
 O867 O 0.78678 0.70440 0.78895
 O868 O 0.72459 0.75640 0.81639
 O869 O 0.74673 0.71583 0.81129
 O870 O 0.81241 0.75691 0.76590
 O871 O 0.78770 0.79842 0.77378
 C872 C 0.73701 0.73479 0.82524
 H873 H 0.78863 0.71762 0.74095
 H874 H 0.74261 0.80870 0.75010
 H875 H 0.69999 0.71979 0.78914
 H876 H 0.69780 0.73556 0.69207
 H877 H 0.80795 0.80810 0.72561
 H878 H 0.72204 0.82760 0.68840
 H879 H 0.67851 0.80255 0.68373
 H880 H 0.63689 0.72458 0.72271
 H881 H 0.82795 0.76828 0.75944
 H882 H 0.78566 0.68679 0.79903
 H883 H 0.73997 0.66598 0.79843
 H884 H 0.65342 0.68574 0.75847
 H885 H 0.80528 0.80761 0.76949
 H886 H 0.72015 0.80643 0.81450
 H887 H 0.74277 0.68661 0.66956
 H888 H 0.65852 0.68492 0.71448
 Zr889 Zr 0.23203 0.22169 0.77870
 O890 O 0.23717 0.19504 0.81140
 O891 O 0.19034 0.22989 0.77984
 O892 O 0.22680 0.24209 0.81445
 O893 O 0.22706 0.16881 0.73375
 O894 O 0.25313 0.28138 0.81045
 O895 O 0.21280 0.18234 0.77330
 O896 O 0.18272 0.26005 0.74592
 O897 O 0.23068 0.26370 0.76802
 O898 O 0.22063 0.22336 0.73933
 O899 O 0.27157 0.23773 0.78639
 O900 O 0.26124 0.19864 0.75936
 Zr901 Zr 0.28899 0.26025 0.71503
 Zr902 Zr 0.27056 0.27913 0.77386
 Zr903 Zr 0.25045 0.20259 0.71987
 Zr904 Zr 0.22075 0.26495 0.72839
 O905 O 0.27223 0.16576 0.71525
 O906 O 0.20803 0.30487 0.73853
 O907 O 0.24940 0.24402 0.70701
 O908 O 0.25959 0.28264 0.73445
 O909 O 0.30076 0.25854 0.75435
 O910 O 0.29004 0.21830 0.72574
 C911 C 0.17504 0.24533 0.76543
 C912 C 0.21370 0.16495 0.75464
 C913 C 0.23710 0.26507 0.82307
 O914 O 0.25101 0.31757 0.77620
 O915 O 0.29737 0.31100 0.76179
 O916 O 0.30997 0.29867 0.72136
 C917 C 0.31045 0.31518 0.74080
 O918 O 0.29651 0.18799 0.79668
 Zr919 Zr 0.30013 0.21673 0.76523
 O920 O 0.33081 0.25201 0.71420
 O921 O 0.30181 0.28446 0.80252
 O922 O 0.32668 0.23065 0.79562
 O923 O 0.31547 0.17813 0.75413
 O924 O 0.33880 0.22469 0.75009
 C925 C 0.34645 0.23855 0.73009
 O926 O 0.28523 0.28859 0.68342
 O927 O 0.21750 0.19499 0.69341
 O928 O 0.29053 0.24175 0.67785
 O929 O 0.26341 0.20297 0.68151
 O930 O 0.19231 0.25040 0.69984
 O931 O 0.22297 0.28999 0.69419
 C932 C 0.27843 0.21992 0.66854
 H933 H 0.20256 0.21461 0.73559
 H934 H 0.25940 0.30220 0.72847
 H935 H 0.30312 0.20798 0.71548
 H936 H 0.27652 0.23602 0.80506
 H937 H 0.18935 0.30732 0.73117
 H938 H 0.26075 0.32809 0.79004
 H939 H 0.29971 0.30313 0.80972
 H940 H 0.34262 0.21837 0.79646
 H941 H 0.17661 0.26299 0.69941
 H942 H 0.21987 0.17624 0.68646
 H943 H 0.26237 0.15514 0.70156
 H944 H 0.33392 0.17633 0.76224
 H945 H 0.20554 0.29970 0.69132
 H946 H 0.30339 0.29039 0.67541
 H947 H 0.21899 0.19237 0.81921
 H948 H 0.31479 0.18111 0.80180
 Zr949 Zr 0.26418 0.78667 0.28467
 O950 O 0.24508 0.81503 0.30875
 O951 O 0.30392 0.78619 0.30052
 O952 O 0.26175 0.77096 0.32334
 O953 O 0.27660 0.83443 0.23493
 O954 O 0.24424 0.72721 0.31807
 O955 O 0.28023 0.82742 0.27881
 O956 O 0.32499 0.75482 0.27562
 O957 O 0.27456 0.74499 0.28173
 O958 O 0.28678 0.78346 0.25103
 O959 O 0.22688 0.76429 0.28302
 O960 O 0.23885 0.80199 0.25409
 Zr961 Zr 0.23501 0.73296 0.21392
 Zr962 Zr 0.23751 0.72302 0.27811
 Zr963 Zr 0.26133 0.79667 0.22054
 Zr964 Zr 0.29584 0.74202 0.24743
 O965 O 0.23720 0.82934 0.20560
 O966 O 0.31038 0.70590 0.26666
 O967 O 0.27234 0.75546 0.21511
 O968 O 0.25999 0.71801 0.24461
 O969 O 0.21206 0.73582 0.24742
 O970 O 0.22450 0.77448 0.21721
 C971 C 0.32452 0.77205 0.29426
 C972 C 0.28340 0.84216 0.25791
 C973 C 0.25335 0.74716 0.33208
 O974 O 0.26044 0.68888 0.29168
 O975 O 0.21892 0.68666 0.26382
 O976 O 0.21769 0.69267 0.21977
 C977 C 0.21280 0.67864 0.24076
 O978 O 0.19267 0.80942 0.27657
 Zr979 Zr 0.20299 0.77739 0.25115
 O980 O 0.19496 0.73131 0.19960
 O981 O 0.20072 0.71484 0.29769
 O982 O 0.17130 0.76203 0.27501
 O983 O 0.18512 0.81015 0.22923
 O984 O 0.17247 0.75879 0.22723
 C985 C 0.17336 0.74163 0.20852
 O986 O 0.25412 0.70432 0.19016
 O987 O 0.29869 0.80645 0.20248
 O988 O 0.23821 0.74865 0.17521
 O989 O 0.25748 0.79169 0.18038
 O990 O 0.32976 0.75904 0.22751
 O991 O 0.30777 0.71481 0.21808
 C992 C 0.24777 0.77201 0.16638
 H993 H 0.30396 0.79457 0.25144
 H994 H 0.26452 0.69841 0.24211
 H995 H 0.21321 0.78120 0.20230
 H996 H 0.21654 0.76668 0.29902
 H997 H 0.33057 0.70653 0.26600
 H998 H 0.24866 0.67811 0.30366
 H999 H 0.20328 0.69755 0.30800
 H1000 H 0.15405 0.77036 0.26858
 H1001 H 0.34627 0.74953 0.23426
 H1002 H 0.29599 0.82383 0.19235
 H1003 H 0.24876 0.84025 0.19351
 H1004 H 0.16508 0.80817 0.23088
 H1005 H 0.32641 0.70820 0.22214
 H1006 H 0.24002 0.69761 0.17752
 H1007 H 0.25919 0.82171 0.32141
 H1008 H 0.17288 0.81297 0.27483
 Zr1009 Zr 0.22612 0.77431 0.70914
 O1010 O 0.23712 0.80356 0.68000
 O1011 O 0.18445 0.76749 0.70075
 O1012 O 0.22376 0.75752 0.67143
 O1013 O 0.21902 0.82332 0.75669
 O1014 O 0.24649 0.71687 0.67597
 O1015 O 0.20834 0.81341 0.71447
 O1016 O 0.17153 0.73485 0.73084
 O1017 O 0.22073 0.73172 0.71623
 O1018 O 0.21023 0.76990 0.74624
 O1019 O 0.26507 0.75726 0.70610
 O1020 O 0.25460 0.79443 0.73423
 Zr1021 Zr 0.27237 0.72841 0.77741
 Zr1022 Zr 0.25974 0.71510 0.71498
 Zr1023 Zr 0.23900 0.78794 0.77135
 Zr1024 Zr 0.20640 0.72766 0.75393
 O1025 O 0.26236 0.82358 0.78144
 O1026 O 0.19228 0.68900 0.73954
 O1027 O 0.23356 0.74580 0.78093
 O1028 O 0.24416 0.70880 0.75208
 O1029 O 0.28880 0.73264 0.74043
 O1030 O 0.27771 0.77092 0.77018
 C1031 C 0.16692 0.75116 0.71149
 C1032 C 0.20808 0.82916 0.73439
 C1033 C 0.23336 0.73506 0.66252
 O1034 O 0.23790 0.67799 0.70672
 O1035 O 0.28290 0.68145 0.72858
 O1036 O 0.29159 0.69020 0.77140
 C1037 C 0.29334 0.67536 0.75099
 O1038 O 0.29518 0.80626 0.70348
 Zr1039 Zr 0.29256 0.77504 0.73289
 O1040 O 0.31402 0.73395 0.78556
 O1041 O 0.29345 0.71062 0.69070
 O1042 O 0.32128 0.76221 0.70576
 O1043 O 0.30945 0.81175 0.74913
 O1044 O 0.32833 0.76365 0.75352
 C1045 C 0.33241 0.74779 0.77342
 O1046 O 0.26171 0.69805 0.80567
 O1047 O 0.20421 0.79461 0.79373
 O1048 O 0.27228 0.74408 0.81562
 O1049 O 0.24849 0.78411 0.81103
 O1050 O 0.17543 0.74101 0.77850
 O1051 O 0.20325 0.70057 0.78666
 C1052 C 0.26122 0.76580 0.82464
 H1053 H 0.19242 0.77889 0.74790
 H1054 H 0.24197 0.68889 0.75648
 H1055 H 0.29031 0.77979 0.78299
 H1056 H 0.27225 0.76032 0.68850
 H1057 H 0.17282 0.68673 0.74404
 H1058 H 0.24845 0.66819 0.69372
 H1059 H 0.29083 0.69269 0.68189
 H1060 H 0.33827 0.77330 0.70864
 H1061 H 0.15921 0.72876 0.77565
 H1062 H 0.20718 0.81257 0.80242
 H1063 H 0.25186 0.83343 0.79444
 H1064 H 0.32890 0.81296 0.74435
 H1065 H 0.18511 0.69117 0.78631
 H1066 H 0.27842 0.69423 0.81631
 H1067 H 0.22038 0.80759 0.66949
 H1068 H 0.31444 0.81243 0.70175
 Zr1069 Zr 0.25372 0.21964 0.20275
 O1070 O 0.23879 0.19044 0.17553
 O1071 O 0.29400 0.22585 0.19128
 O1072 O 0.25195 0.23711 0.16473
 O1073 O 0.26834 0.17152 0.25156
 O1074 O 0.22851 0.27705 0.16923
 O1075 O 0.27304 0.18097 0.20831
 O1076 O 0.31038 0.25903 0.21891
 O1077 O 0.25909 0.26237 0.20783
 O1078 O 0.27434 0.22465 0.23843
 O1079 O 0.21426 0.23600 0.20171
 O1080 O 0.22936 0.19907 0.23056
 Zr1081 Zr 0.21573 0.26487 0.27242
 Zr1082 Zr 0.21970 0.27831 0.20889
 Zr1083 Zr 0.24953 0.20635 0.26624
 Zr1084 Zr 0.27845 0.26694 0.24401
 O1085 O 0.22844 0.17033 0.27928
 O1086 O 0.28964 0.30532 0.22640
 O1087 O 0.25535 0.24862 0.27366
 O1088 O 0.24009 0.28490 0.24449
 O1089 O 0.19464 0.26012 0.23686
 O1090 O 0.21041 0.22231 0.26706
 C1091 C 0.31277 0.24214 0.20023
 C1092 C 0.27649 0.16569 0.22888
 C1093 C 0.24113 0.25954 0.15572
 O1094 O 0.23906 0.31611 0.19802
 O1095 O 0.19769 0.31160 0.22323
 O1096 O 0.19524 0.30274 0.26677
 C1097 C 0.19046 0.31763 0.24623
 O1098 O 0.18579 0.18609 0.20296
 Zr1099 Zr 0.19101 0.21759 0.23095
 O1100 O 0.17521 0.25826 0.28322
 O1101 O 0.18283 0.28162 0.18691
 O1102 O 0.15853 0.22934 0.20538
 O1103 O 0.17710 0.18069 0.24961
 O1104 O 0.15771 0.22816 0.25317
 C1105 C 0.15570 0.24404 0.27259
 O1106 O 0.22914 0.29554 0.29891
 O1107 O 0.28730 0.20061 0.28628
 O1108 O 0.22136 0.24955 0.31110
 O1109 O 0.24556 0.21020 0.30635
 O1110 O 0.31270 0.25477 0.26713
 O1111 O 0.28584 0.29502 0.27474
 C1112 C 0.23426 0.22830 0.32017
 H1113 H 0.29246 0.21599 0.23930
 H1114 H 0.24245 0.30486 0.24805
 H1115 H 0.19977 0.21325 0.28100
 H1116 H 0.20501 0.23281 0.18471
 H1117 H 0.30966 0.30774 0.22880
 H1118 H 0.22655 0.32550 0.18546
 H1119 H 0.18376 0.29960 0.17742
 H1120 H 0.14239 0.21758 0.20960
 H1121 H 0.32835 0.26690 0.26224
 H1122 H 0.28600 0.18260 0.29570
 H1123 H 0.24090 0.16076 0.29175
 H1124 H 0.15722 0.17883 0.24590
 H1125 H 0.30354 0.30482 0.27222
 H1126 H 0.21383 0.29892 0.31060
 H1127 H 0.25406 0.18646 0.16401
 H1128 H 0.16659 0.17931 0.20267
 Zr1129 Zr 0.72915 0.72338 0.27974
 O1130 O 0.73282 0.69647 0.31244
 O1131 O 0.68766 0.73289 0.28039
 O1132 O 0.72458 0.74359 0.31566
 O1133 O 0.72348 0.67062 0.23473
 O1134 O 0.75196 0.78220 0.31216
 O1135 O 0.70913 0.68443 0.27415
 O1136 O 0.68131 0.76312 0.24632
 O1137 O 0.72905 0.76545 0.26911
 O1138 O 0.71831 0.72531 0.24027
 O1139 O 0.76903 0.73833 0.28789
 O1140 O 0.75803 0.69955 0.26080
 Zr1141 Zr 0.78798 0.76028 0.21683
 Zr1142 Zr 0.76927 0.77980 0.27544
 Zr1143 Zr 0.74787 0.70374 0.22120
 Zr1144 Zr 0.71971 0.76690 0.22934
 O1145 O 0.76857 0.66620 0.21694
 O1146 O 0.70794 0.80721 0.23929
 O1147 O 0.74808 0.74517 0.20829
 O1148 O 0.75891 0.78349 0.23589
 O1149 O 0.79920 0.75836 0.25629
 O1150 O 0.78777 0.71833 0.22759
 C1151 C 0.67295 0.74870 0.26574
 C1152 C 0.70993 0.66701 0.25551
 C1153 C 0.73564 0.76604 0.32465
 O1154 O 0.75036 0.81856 0.27783
 O1155 O 0.79672 0.81120 0.26335
 O1156 O 0.80961 0.79827 0.22317
 C1157 C 0.81008 0.81499 0.24243
 O1158 O 0.79257 0.68805 0.29864
 Zr1159 Zr 0.79732 0.71655 0.26715
 O1160 O 0.82960 0.75096 0.21657
 O1161 O 0.80058 0.78454 0.30413
 O1162 O 0.82390 0.72996 0.29772
 O1163 O 0.81160 0.67740 0.25640
 O1164 O 0.83635 0.72314 0.25234
 C1165 C 0.84464 0.73685 0.23248
 O1166 O 0.78522 0.78849 0.18503
 O1167 O 0.71513 0.69722 0.19426
 O1168 O 0.78989 0.74142 0.17985
 O1169 O 0.76163 0.70345 0.18316
 O1170 O 0.69130 0.75308 0.20044
 O1171 O 0.72307 0.79185 0.19518
 C1172 C 0.77746 0.71982 0.17045
 H1173 H 0.70007 0.71704 0.23633
 H1174 H 0.75924 0.80304 0.22988
 H1175 H 0.80070 0.70760 0.21754
 H1176 H 0.77380 0.73642 0.30658
 H1177 H 0.68945 0.81019 0.23167
 H1178 H 0.76030 0.82890 0.29167
 H1179 H 0.79886 0.80328 0.31129
 H1180 H 0.83950 0.71725 0.29878
 H1181 H 0.67597 0.76614 0.19977
 H1182 H 0.71700 0.67838 0.18736
 H1183 H 0.75862 0.65584 0.20312
 H1184 H 0.82987 0.67505 0.26472
 H1185 H 0.70594 0.80202 0.19207
 H1186 H 0.80352 0.78982 0.17722
 H1187 H 0.71445 0.69440 0.31998
 H1188 H 0.81062 0.68081 0.30408
 Zr1189 Zr 0.76528 0.29056 0.78996
 O1190 O 0.74765 0.31881 0.81516
 O1191 O 0.80547 0.28891 0.80473
 O1192 O 0.76368 0.27400 0.82846
 O1193 O 0.77666 0.33906 0.74053
 O1194 O 0.74510 0.23073 0.82286
 O1195 O 0.78180 0.33120 0.78420
 O1196 O 0.82479 0.25750 0.77859
 O1197 O 0.77465 0.24874 0.78589
 O1198 O 0.78664 0.28760 0.75552
 O1199 O 0.72752 0.26891 0.78897
 O1200 O 0.73928 0.30688 0.76034
 Zr1201 Zr 0.73281 0.23881 0.71908
 Zr1202 Zr 0.73711 0.22754 0.78299
 Zr1203 Zr 0.76047 0.30182 0.72595
 Zr1204 Zr 0.79471 0.24607 0.75088
 O1205 O 0.73654 0.33516 0.71215
 O1206 O 0.80918 0.20921 0.76881
 O1207 O 0.77052 0.26056 0.71948
 O1208 O 0.75841 0.22278 0.74875
 O1209 O 0.71096 0.24140 0.75328
 O1210 O 0.72318 0.28042 0.72337
 C1211 C 0.82540 0.27428 0.79760
 C1212 C 0.78437 0.34629 0.76341
 C1213 C 0.75505 0.25018 0.83699
 O1214 O 0.75983 0.19278 0.79538
 O1215 O 0.71759 0.19174 0.76848
 O1216 O 0.71512 0.19873 0.72457
 C1217 C 0.71073 0.18429 0.74541
 O1218 O 0.69404 0.31473 0.78439
 Zr1219 Zr 0.70287 0.28307 0.75803
 O1220 O 0.69237 0.23831 0.70592
 O1221 O 0.70081 0.21961 0.80342
 O1222 O 0.67171 0.26774 0.78253
 O1223 O 0.68507 0.31668 0.73728
 O1224 O 0.67121 0.26568 0.73459
 C1225 C 0.67127 0.24891 0.71552
 O1226 O 0.75051 0.21027 0.69421
 O1227 O 0.79743 0.31133 0.70708
 O1228 O 0.73512 0.25499 0.68054
 O1229 O 0.75531 0.29760 0.68573
 O1230 O 0.82836 0.26295 0.73047
 O1231 O 0.80510 0.21939 0.72054
 C1232 C 0.74486 0.27826 0.67174
 H1233 H 0.80401 0.29839 0.75565
 H1234 H 0.76250 0.20316 0.74576
 H1235 H 0.71159 0.28763 0.70888
 H1236 H 0.71776 0.27117 0.80533
 H1237 H 0.82932 0.20948 0.76752
 H1238 H 0.74818 0.18190 0.80740
 H1239 H 0.70332 0.20203 0.81328
 H1240 H 0.65445 0.27654 0.77679
 H1241 H 0.84483 0.25294 0.73655
 H1242 H 0.79472 0.32889 0.69724
 H1243 H 0.74790 0.34604 0.69988
 H1244 H 0.66508 0.31511 0.73949
 H1245 H 0.82375 0.21243 0.72382
 H1246 H 0.73592 0.20408 0.68182
 H1247 H 0.76232 0.32490 0.82751
 H1248 H 0.67428 0.31864 0.78334
 C1249 C 0.46394 1.00335 0.35336
 C1250 C 0.44320 1.02278 0.35137
 C1251 C 0.42908 1.02724 0.32784
 C1252 C 0.43571 1.01246 0.30566
 C1253 C 0.45736 0.99365 0.30775
 C1254 C 0.47133 0.98912 0.33139
 C1255 C 0.47514 0.99631 0.37866
 C1256 C 0.48177 0.99139 0.40091
 H1257 H 0.43704 1.03364 0.36838
 H1258 H 0.41217 1.04116 0.32775
 H1259 H 0.46258 0.98141 0.29129
 H1260 H 0.48710 0.97375 0.33274
 C1261 C -0.03596 0.50805 0.85088
 C1262 C -0.05799 0.52600 0.84950
 C1263 C -0.07188 0.53103 0.82595
 C1264 C -0.06373 0.51851 0.80301
 C1265 C -0.04080 0.50126 0.80450
 C1266 C -0.02704 0.49609 0.82821
 C1267 C -0.02482 0.50025 0.87609
 C1268 C -0.01825 0.49474 0.89830
 H1269 H -0.06536 0.53510 0.86698
 H1270 H -0.08994 0.54339 0.82637
 H1271 H -0.03447 0.49050 0.78752
 H1272 H -0.01024 0.48187 0.82901
 C1273 C 0.03415 -0.00114 0.85108
 C1274 C 0.04854 -0.02523 0.84681
 C1275 C 0.06246 -0.02842 0.82381
 C1276 C 0.06229 -0.00738 0.80453
 C1277 C 0.04628 0.01608 0.80850
 C1278 C 0.03254 0.01928 0.83164
 C1279 C 0.02422 0.00361 0.87661
 C1280 C 0.01852 0.00623 0.89900
 H1281 H 0.05001 -0.04114 0.86182
 H1282 H 0.07396 -0.04698 0.82204
 H1283 H 0.04556 0.03263 0.79409
 H1284 H 0.02162 0.03812 0.83476
 C1285 C 0.53144 0.49642 0.34571
 C1286 C 0.54889 0.47412 0.34353
 C1287 C 0.56401 0.47106 0.32123
 C1288 C 0.56181 0.49031 0.30048
 C1289 C 0.54309 0.51196 0.30248
 C1290 C 0.52815 0.51508 0.32494
 C1291 C 0.52013 0.50164 0.37058
 C1292 C 0.51368 0.50464 0.39272
 H1293 H 0.55185 0.45973 0.35966
 H1294 H 0.57819 0.45434 0.32121
 H1295 H 0.54108 0.52732 0.28704
 H1296 H 0.51497 0.53264 0.32650
 C1297 C 0.54741 0.49357 0.15295
 C1298 C 0.57416 0.48481 0.15780
 C1299 C 0.58595 0.48629 0.18276
 C1300 C 0.57112 0.49636 0.20342
 C1301 C 0.54449 0.50594 0.19809
 C1302 C 0.53275 0.50448 0.17312
 C1303 C 0.53583 0.49263 0.12694
 C1304 C 0.52813 0.49246 0.10450
 H1305 H 0.58594 0.47676 0.14224
 H1306 H 0.60643 0.47900 0.18582
 H1307 H 0.53263 0.51471 0.21319
 H1308 H 0.51228 0.51192 0.16956
 C1309 C 0.04583 0.99444 0.65782
 C1310 C 0.07325 0.98774 0.66199
 C1311 C 0.08530 0.98897 0.68685
 C1312 C 0.07009 0.99688 0.70830
 C1313 C 0.04243 1.00382 0.70359
 C1314 C 0.03052 1.00261 0.67868
 C1315 C 0.03409 0.99395 0.63186
 C1316 C 0.02635 0.99397 0.60943
 H1317 H 0.08539 0.98143 0.64595
 H1318 H 0.10622 0.98256 0.68902
 H1319 H 0.02988 1.01105 0.71889
 H1320 H 0.00940 1.00832 0.67567
 C1321 C -0.05164 0.53089 0.65408
 C1322 C -0.07963 0.53300 0.65825
 C1323 C -0.09009 0.52822 0.68300
 C1324 C -0.07277 0.52143 0.70430
 C1325 C -0.04464 0.51874 0.69963
 C1326 C -0.03424 0.52350 0.67485
 C1327 C -0.04138 0.53389 0.62807
 C1328 C -0.03415 0.53461 0.60579
 H1329 H -0.09350 0.53807 0.64225
 H1330 H -0.11176 0.53002 0.68516
 H1331 H -0.03048 0.51254 0.71495
 H1332 H -0.01264 0.52102 0.67185
 C1333 C 0.45486 0.02592 0.15884
 C1334 C 0.42667 0.02831 0.16152
 C1335 C 0.41471 0.02314 0.18551
 C1336 C 0.43075 0.01577 0.20749
 C1337 C 0.45907 0.01257 0.20426
 C1338 C 0.47097 0.01770 0.18022
 C1339 C 0.46652 0.02943 0.13356
 C1340 C 0.47438 0.03068 0.11157
 H1341 H 0.41381 0.03391 0.14492
 H1342 H 0.39294 0.02512 0.18655
 H1343 H 0.47225 0.00575 0.22012
 H1344 H 0.49269 0.01492 0.17827
 C1345 C 0.35617 0.42118 -0.00087
 C1346 C 0.33197 0.43368 0.00607
 C1347 C 0.30680 0.41954 0.00322
 C1348 C 0.30530 0.39264 -0.00702
 C1349 C 0.32993 0.38027 -0.01363
 C1350 C 0.35500 0.39442 -0.01075
 C1351 C 0.38220 0.43582 0.00142
 C1352 C 0.40423 0.44764 0.00211
 H1353 H 0.33255 0.45433 0.01387
 H1354 H 0.28886 0.42967 0.00969
 H1355 H 0.32980 0.35937 -0.02079
 H1356 H 0.37352 0.38439 -0.01616
 C1357 C -0.14472 0.91950 0.50249
 C1358 C -0.16893 0.93013 0.51165
 C1359 C -0.19384 0.91588 0.50754
 C1360 C -0.19515 0.89099 0.49362
 C1361 C -0.17048 0.88031 0.48498
 C1362 C -0.14565 0.89457 0.48912
 C1363 C -0.11893 0.93422 0.50610
 C1364 C -0.09698 0.94611 0.50748
 H1365 H -0.16854 0.94928 0.52222
 H1366 H -0.21192 0.92410 0.51588
 H1367 H -0.17014 0.86054 0.47556
 H1368 H -0.12707 0.88593 0.48210
 C1369 C -0.14331 0.08420 1.00054
 C1370 C -0.14330 0.11230 1.00638
 C1371 C -0.16792 0.12621 1.00802
 C1372 C -0.19328 0.11227 1.00432
 C1373 C -0.19300 0.08397 0.99806
 C1374 C -0.16825 0.07007 0.99644
 C1375 C -0.11768 0.06996 0.99931
 C1376 C -0.09606 0.05827 0.99932
 H1377 H -0.12421 0.12359 1.00946
 H1378 H -0.16709 0.14816 1.01177
 H1379 H -0.21169 0.07256 0.99372
 H1380 H -0.16858 0.04833 0.99171
 C1381 C 0.35145 0.58287 0.49567
 C1382 C 0.35175 0.61066 0.50268
 C1383 C 0.32729 0.62470 0.50495
 C1384 C 0.30180 0.61120 0.50066
 C1385 C 0.30175 0.58318 0.49347
 C1386 C 0.32635 0.56913 0.49122
 C1387 C 0.37697 0.56856 0.49366
 C1388 C 0.39859 0.55690 0.49318
 H1389 H 0.37095 0.62163 0.50613
 H1390 H 0.32832 0.64647 0.50948
 H1391 H 0.28292 0.57219 0.48876
 H1392 H 0.32578 0.54764 0.48567
 C1393 C 0.14213 0.59887 0.50651
 C1394 C 0.14804 0.62721 0.50794
 C1395 C 0.17487 0.63731 0.50510
 C1396 C 0.19660 0.61926 0.50094
 C1397 C 0.19010 0.59076 0.49899
 C1398 C 0.16328 0.58076 0.50184
 C1399 C 0.11436 0.58819 0.50841
 C1400 C 0.09161 0.57788 0.50871
 H1401 H 0.13186 0.64160 0.51112
 H1402 H 0.17814 0.65933 0.50629
 H1403 H 0.20548 0.57590 0.49488
 H1404 H 0.15901 0.55879 0.50014
 C1405 C 0.64931 0.09806 0.01205
 C1406 C 0.65409 0.12667 0.01204
 C1407 C 0.68060 0.13774 0.00909
 C1408 C 0.70331 0.12042 0.00617
 C1409 C 0.69780 0.09153 0.00594
 C1410 C 0.67132 0.08063 0.00889
 C1411 C 0.62184 0.08636 0.01381
 C1412 C 0.59929 0.07550 0.01404
 H1413 H 0.63726 0.14054 0.01419
 H1414 H 0.68269 0.15993 0.00955
 H1415 H 0.71358 0.07684 0.00275
 H1416 H 0.66798 0.05844 0.00833
 C1417 C 0.64773 0.90773 0.49659
 C1418 C 0.67071 0.92257 0.50568
 C1419 C 0.69676 0.91148 0.50420
 C1420 C 0.70044 0.88526 0.49344
 C1421 C 0.67711 0.87036 0.48461
 C1422 C 0.65102 0.88154 0.48609
 C1423 C 0.62090 0.91944 0.49834
 C1424 C 0.59881 0.92986 0.50020
 H1425 H 0.66850 0.94275 0.51408
 H1426 H 0.71391 0.92339 0.51197
 H1427 H 0.67882 0.85018 0.47631
 H1428 H 0.63341 0.86973 0.47905
 C1429 C 0.14750 0.40639 0.99501
 C1430 C 0.16887 0.41858 1.00960
 C1431 C 0.19512 0.40773 1.00942
 C1432 C 0.20057 0.38440 0.99462
 C1433 C 0.17892 0.37203 0.98023
 C1434 C 0.15261 0.38298 0.98040
 C1435 C 0.12052 0.41811 0.99530
 C1436 C 0.09839 0.42868 0.99645
 H1437 H 0.16526 0.43658 1.02112
 H1438 H 0.21114 0.41755 1.02104
 H1439 H 0.18240 0.35431 0.96833
 H1440 H 0.13631 0.37329 0.96901
 C1441 C 0.00717 0.35459 0.44678
 C1442 C 0.00171 0.32884 0.45832
 C1443 C 0.00292 0.30506 0.44357
 C1444 C 0.00999 0.30695 0.41727
 C1445 C 0.01532 0.33321 0.40608
 C1446 C 0.01427 0.35677 0.42085
 C1447 C 0.00328 0.37939 0.46034
 C1448 C 0.00002 0.40146 0.46958
 H1449 H -0.00439 0.32724 0.47833
 H1450 H -0.00282 0.28545 0.45247
 H1451 H 0.01912 0.33583 0.38562
 H1452 H 0.01791 0.37683 0.41173
 C1453 C 0.48836 -0.14451 -0.05240
 C1454 C 0.49692 -0.16890 -0.04010
 C1455 C 0.49650 -0.19350 -0.05385
 C1456 C 0.48724 -0.19372 -0.07996
 C1457 C 0.47869 -0.16881 -0.09183
 C1458 C 0.47899 -0.14452 -0.07808
 C1459 C 0.49086 -0.11870 -0.03983
 C1460 C 0.49267 -0.09601 -0.03116
 H1461 H 0.50467 -0.16873 -0.02024
 H1462 H 0.50452 -0.21172 -0.04423
 H1463 H 0.47263 -0.16790 -0.11215
 H1464 H 0.47278 -0.12551 -0.08777
 C1465 C 0.00522 -0.15440 1.08010
 C1466 C -0.00723 -0.17550 1.06561
 C1467 C -0.01036 -0.20192 1.07648
 C1468 C -0.00095 -0.20730 1.10203
 C1469 C 0.01126 -0.18560 1.11638
 C1470 C 0.01434 -0.15934 1.10548
 C1471 C 0.00793 -0.12739 1.06912
 C1472 C 0.00928 -0.10482 1.05946
 H1473 H -0.01453 -0.17152 1.04591
 H1474 H -0.01999 -0.21768 1.06468
 H1475 H 0.01866 -0.18914 1.13611
 H1476 H 0.02381 -0.14295 1.11682
 C1477 C 0.50625 0.34625 0.57491
 C1478 C 0.49430 0.32456 0.56083
 C1479 C 0.49202 0.29827 0.57212
 C1480 C 0.50178 0.29361 0.59768
 C1481 C 0.51374 0.31582 0.61152
 C1482 C 0.51597 0.34195 0.60020
 C1483 C 0.50753 0.37324 0.56376
 C1484 C 0.50771 0.39581 0.55405
 H1485 H 0.48655 0.32805 0.54120
 H1486 H 0.48252 0.28211 0.56072
 H1487 H 0.52132 0.31285 0.63127
 H1488 H 0.52507 0.35880 0.61121
 C1489 C 0.48192 1.13551 0.58275
 C1490 C 0.47120 1.14100 0.60687
 C1491 C 0.47170 1.16801 0.61580
 C1492 C 0.48298 1.18959 0.60070
 C1493 C 0.49266 1.18394 0.57600
 C1494 C 0.49210 1.15699 0.56708
 C1495 C 0.48402 1.10782 0.57430
 C1496 C 0.48672 1.08523 0.56583
 H1497 H 0.46319 1.12438 0.61900
 H1498 H 0.46388 1.17184 0.63471
 H1499 H 0.50200 1.20003 0.56414
 H1500 H 0.50048 1.15275 0.54837
 C1501 C -0.01691 0.63517 1.08244
 C1502 C -0.02813 0.63931 1.10661
 C1503 C -0.02906 0.66596 1.11630
 C1504 C -0.01875 0.68856 1.10188
 C1505 C -0.00862 0.68424 1.07708
 C1506 C -0.00773 0.65763 1.06742
 C1507 C -0.01364 0.60790 1.07324
 C1508 C -0.01045 0.58554 1.06440
 H1509 H -0.03542 0.62194 1.11823
 H1510 H -0.03710 0.66871 1.13532
 H1511 H 0.00005 0.70114 1.06574
 H1512 H 0.00099 0.65446 1.04864
 C1513 C 0.51963 0.65190 -0.08035
 C1514 C 0.52422 0.67378 -0.06347
 C1515 C 0.51652 0.70037 -0.07083
 C1516 C 0.50413 0.70555 -0.09539
 C1517 C 0.49993 0.68312 -0.11231
 C1518 C 0.50757 0.65653 -0.10476
 C1519 C 0.52335 0.62434 -0.07089
 C1520 C 0.52415 0.60173 -0.06115
 H1521 H 0.53318 0.67019 -0.04431
 H1522 H 0.52104 0.71678 -0.05734
 H1523 H 0.48951 0.68539 -0.13089
 H1524 H 0.50317 0.63943 -0.11760
 C1525 C 0.02405 1.14835 0.42213
 C1526 C 0.02222 1.16911 0.44034
 C1527 C 0.01726 1.19614 0.43227
 C1528 C 0.01436 1.20297 0.40567
 C1529 C 0.01615 1.18160 0.38754
 C1530 C 0.02101 1.15451 0.39575
 C1531 C 0.02564 1.12044 0.43115
 C1532 C 0.02498 1.09780 0.44081
 H1533 H 0.02380 1.16425 0.46092
 H1534 H 0.01496 1.21126 0.44715
 H1535 H 0.01358 1.18517 0.36700
 H1536 H 0.02175 1.13829 0.38159
 C1537 C 0.75293 0.71249 0.90031
 C1538 C 0.77306 0.69241 0.90225
 C1539 C 0.77790 0.67802 0.92559
 C1540 C 0.76297 0.68376 0.94779
 C1541 C 0.74326 0.70465 0.94576
 C1542 C 0.73832 0.71891 0.92226
 C1543 C 0.74573 0.72382 0.87502
 C1544 C 0.74079 0.73058 0.85276
 H1545 H 0.78417 0.68687 0.88528
 H1546 H 0.79224 0.66140 0.92551
 H1547 H 0.73064 0.70898 0.96206
 H1548 H 0.72235 0.73406 0.92096
 C1549 C 0.24948 0.20587 0.39555
 C1550 C 0.26725 0.18359 0.39728
 C1551 C 0.27284 0.17043 0.42113
 C1552 C 0.26118 0.17959 0.44407
 C1553 C 0.24371 0.20247 0.44215
 C1554 C 0.23801 0.21555 0.41815
 C1555 C 0.24201 0.21696 0.37014
 C1556 C 0.23722 0.22374 0.34780
 H1557 H 0.27598 0.17559 0.37992
 H1558 H 0.28513 0.15216 0.42111
 H1559 H 0.23335 0.20942 0.45905
 H1560 H 0.22394 0.23253 0.41711
 C1561 C 0.74846 0.28389 0.40330
 C1562 C 0.76663 0.28049 0.42437
 C1563 C 0.76352 0.29583 0.44681
 C1564 C 0.74238 0.31513 0.44851
 C1565 C 0.72360 0.31742 0.42745
 C1566 C 0.72665 0.30190 0.40517
 C1567 C 0.75362 0.27204 0.37851
 C1568 C 0.75662 0.26519 0.35641
 H1569 H 0.78379 0.26687 0.42309
 H1570 H 0.77846 0.29363 0.46251
 H1571 H 0.70717 0.33187 0.42726
 H1572 H 0.71260 0.30493 0.38884
 C1573 C 0.25634 0.78968 0.89925
 C1574 C 0.27673 0.78910 0.91867
 C1575 C 0.27354 0.80370 0.94153
 C1576 C 0.25008 0.81952 0.94531
 C1577 C 0.22925 0.81896 0.92595
 C1578 C 0.23244 0.80421 0.90320
 C1579 C 0.26052 0.77801 0.87417
 C1580 C 0.26223 0.77073 0.85202
 H1581 H 0.29541 0.77810 0.91583
 H1582 H 0.28994 0.80352 0.95601
 H1583 H 0.21071 0.83027 0.92758
 H1584 H 0.21653 0.80491 0.88823
 C1585 C 0.24856 0.79949 0.09122
 C1586 C 0.24197 0.82738 0.08777
 C1587 C 0.24390 0.84042 0.06337
 C1588 C 0.25240 0.82574 0.04166
 C1589 C 0.25937 0.79766 0.04570
 C1590 C 0.25745 0.78478 0.07013
 C1591 C 0.24743 0.78668 0.11676
 C1592 C 0.24709 0.77807 0.13893
 H1593 H 0.23520 0.83912 0.10401
 H1594 H 0.23759 0.86164 0.06169
 H1595 H 0.26714 0.78549 0.03027
 H1596 H 0.26318 0.76336 0.07257
 C1597 C 0.74375 0.30362 0.59578
 C1598 C 0.74794 0.28661 0.57479
 C1599 C 0.74894 0.29783 0.54963
 C1600 C 0.74561 0.32654 0.54463
 C1601 C 0.74195 0.34346 0.56629
 C1602 C 0.74093 0.33208 0.59145
 C1603 C 0.74334 0.29225 0.62191
 C1604 C 0.74357 0.28434 0.64430
 H1605 H 0.75071 0.26462 0.57785
 H1606 H 0.75317 0.28364 0.53441
 H1607 H 0.73910 0.36543 0.56428
 H1608 H 0.73789 0.34559 0.60761
 C1609 C 0.27539 0.19511 0.59321
 C1610 C 0.26723 0.21225 0.57242
 C1611 C 0.26194 0.20120 0.54779
 C1612 C 0.26484 0.17265 0.54325
 C1613 C 0.27225 0.15559 0.56465
 C1614 C 0.27757 0.16671 0.58922
 C1615 C 0.27910 0.20599 0.61913
 C1616 C 0.28038 0.21359 0.64140
 H1617 H 0.26464 0.23416 0.57528
 H1618 H 0.25525 0.21524 0.53251
 H1619 H 0.27413 0.13361 0.56278
 H1620 H 0.28316 0.15299 0.60524
 C1621 C 0.77529 0.69480 0.09526
 C1622 C 0.78547 0.66895 0.08894
 C1623 C 0.78006 0.65785 0.06434
 C1624 C 0.76430 0.67240 0.04565
 C1625 C 0.75392 0.69820 0.05230
 C1626 C 0.75933 0.70924 0.07686
 C1627 C 0.77901 0.70534 0.12127
 C1628 C 0.78000 0.71308 0.14349
 H1629 H 0.79751 0.65731 0.10307
 H1630 H 0.78877 0.63819 0.05980
 H1631 H 0.74148 0.70986 0.03852
 H1632 H 0.75083 0.72897 0.08158
 C1633 C 0.17171 0.60410 0.24384
 C1634 C 0.14584 0.60401 0.25474
 C1635 C 0.13149 0.57908 0.25907
 C1636 C 0.14283 0.55348 0.25305
 C1637 C 0.16873 0.55389 0.24161
 C1638 C 0.18308 0.57892 0.23731
 C1639 C 0.18673 0.63001 0.24038
 C1640 C 0.19888 0.65207 0.23917
 H1641 H 0.13666 0.62329 0.25983
 H1642 H 0.11122 0.57987 0.26684
 H1643 H 0.17785 0.53513 0.23528
 H1644 H 0.20300 0.57861 0.22872
 C1645 C 0.66977 0.10974 0.74674
 C1646 C 0.68236 0.08471 0.74188
 C1647 C 0.66823 0.05947 0.74557
 C1648 C 0.64128 0.05876 0.75467
 C1649 C 0.62878 0.08422 0.75902
 C1650 C 0.64291 0.10935 0.75529
 C1651 C 0.68460 0.13581 0.74413
 C1652 C 0.69670 0.15788 0.74349
 H1653 H 0.70310 0.08467 0.73514
 H1654 H 0.67848 0.04082 0.74068
 H1655 H 0.60783 0.08466 0.76515
 H1656 H 0.63284 0.12853 0.75911
 C1657 C 0.83310 0.10037 0.25345
 C1658 C 0.86049 0.10091 0.24651
 C1659 C 0.87462 0.07626 0.24433
 C1660 C 0.86157 0.05034 0.24856
 C1661 C 0.83401 0.05010 0.25595
 C1662 C 0.81989 0.07488 0.25811
 C1663 C 0.81866 0.12605 0.25523
 C1664 C 0.80696 0.14782 0.25556
 H1665 H 0.87107 0.12045 0.24300
 H1666 H 0.89605 0.07754 0.23982
 H1667 H 0.82341 0.03097 0.26079
 H1668 H 0.79874 0.07413 0.26370
 C1669 C 0.33420 0.60238 0.75148
 C1670 C 0.36169 0.60273 0.74491
 C1671 C 0.37567 0.57797 0.74298
 C1672 C 0.36243 0.55217 0.74726
 C1673 C 0.33472 0.55208 0.75406
 C1674 C 0.32074 0.57697 0.75597
 C1675 C 0.31981 0.62811 0.75286
 C1676 C 0.30787 0.64976 0.75291
 H1677 H 0.37242 0.62218 0.74140
 H1678 H 0.39713 0.57899 0.73850
 H1679 H 0.32379 0.53307 0.75858
 H1680 H 0.29946 0.57638 0.76115
 C1681 C 0.34879 0.39128 0.74248
 C1682 C 0.37588 0.39735 0.73607
 C1683 C 0.38674 0.42431 0.73875
 C1684 C 0.37065 0.44590 0.74767
 C1685 C 0.34367 0.43918 0.75481
 C1686 C 0.33291 0.41230 0.75213
 C1687 C 0.33710 0.36357 0.74004
 C1688 C 0.32583 0.34101 0.73930
 H1689 H 0.38863 0.38128 0.72893
 H1690 H 0.40763 0.42803 0.73346
 H1691 H 0.33070 0.45458 0.76269
 H1692 H 0.31207 0.40792 0.75767
 C1693 C 0.84866 0.89102 0.24190
 C1694 C 0.83153 0.91329 0.24541
 C1695 C 0.84225 0.94020 0.24776
 C1696 C 0.87068 0.94590 0.24655
 C1697 C 0.88775 0.92296 0.24322
 C1698 C 0.87684 0.89598 0.24088
 C1699 C 0.83698 0.86322 0.24060
 C1700 C 0.82563 0.84068 0.24059
 H1701 H 0.80969 0.90983 0.24671
 H1702 H 0.82785 0.95619 0.25133
 H1703 H 0.90958 0.92530 0.24188
 H1704 H 0.89048 0.87895 0.23836
 C1705 C 0.65552 0.89872 0.75641
 C1706 C 0.66906 0.92097 0.74428
 C1707 C 0.65835 0.94755 0.74468
 C1708 C 0.63385 0.95256 0.75737
 C1709 C 0.62012 0.92994 0.76915
 C1710 C 0.63092 0.90328 0.76874
 C1711 C 0.66699 0.87137 0.75577
 C1712 C 0.67738 0.84895 0.75443
 H1713 H 0.68794 0.91777 0.73440
 H1714 H 0.66922 0.96409 0.73471
 H1715 H 0.60128 0.93275 0.77905
 H1716 H 0.62010 0.88627 0.77811
 C1717 C 0.15507 0.39338 0.25188
 C1718 C 0.16856 0.41576 0.23988
 C1719 C 0.15819 0.44244 0.24103
 C1720 C 0.13406 0.44744 0.25434
 C1721 C 0.12036 0.42472 0.26597
 C1722 C 0.13083 0.39795 0.26483
 C1723 C 0.16640 0.36597 0.25071
 C1724 C 0.17685 0.34359 0.24909
 H1725 H 0.18720 0.41259 0.22959
 H1726 H 0.16902 0.45909 0.23117
 H1727 H 0.10182 0.42754 0.27636
 H1728 H 0.12007 0.38087 0.27416
 C1729 C 0.09690 0.24383 0.78747
 C1730 C 0.08623 0.21840 0.79602
 C1731 C 0.06345 0.21754 0.81157
 C1732 C 0.05161 0.24230 0.81920
 C1733 C 0.06072 0.26746 0.80788
 C1734 C 0.08355 0.26826 0.79243
 C1735 C 0.12371 0.24509 0.77765
 C1736 C 0.14702 0.24562 0.77140
 H1737 H 0.09639 0.19935 0.79187
 H1738 H 0.05597 0.19752 0.81803
 H1739 H 0.05118 0.28674 0.81238
 H1740 H 0.09168 0.28803 0.78566
 C1741 C 0.59407 0.74882 0.28582
 C1742 C 0.58138 0.77333 0.29186
 C1743 C 0.55833 0.77236 0.30706
 C1744 C 0.54840 0.74690 0.31708
 C1745 C 0.55940 0.72227 0.30810
 C1746 C 0.58236 0.72330 0.29278
 C1747 C 0.62127 0.74972 0.27680
 C1748 C 0.64479 0.74972 0.27119
 H1749 H 0.59029 0.79319 0.28632
 H1750 H 0.54951 0.79163 0.31271
 H1751 H 0.55135 0.70214 0.31353
 H1752 H 0.59196 0.70421 0.28775
 C1753 C 0.59759 0.27865 0.18648
 C1754 C 0.59059 0.29464 0.16471
 C1755 C 0.56371 0.29446 0.15552
 C1756 C 0.54354 0.27839 0.16817
 C1757 C 0.55071 0.26387 0.19115
 C1758 C 0.57763 0.26417 0.20030
 C1759 C 0.62548 0.27411 0.19284
 C1760 C 0.64851 0.26907 0.19891
 H1761 H 0.60614 0.30566 0.15385
 H1762 H 0.55931 0.30491 0.13722
 H1763 H 0.53630 0.25036 0.20090
 H1764 H 0.58318 0.25155 0.21712
 C1765 C 0.08838 0.74984 0.68698
 C1766 C 0.07672 0.72510 0.67816
 C1767 C 0.05041 0.72492 0.66744
 C1768 C 0.03599 0.74971 0.66473
 C1769 C 0.04690 0.77375 0.67645
 C1770 C 0.07319 0.77385 0.68719
 C1771 C 0.11627 0.75080 0.69501
 C1772 C 0.13968 0.75135 0.70192
 H1773 H 0.08827 0.70623 0.67870
 H1774 H 0.04193 0.70576 0.65990
 H1775 H 0.03571 0.79271 0.67690
 H1776 H 0.08194 0.79284 0.69492
 C1777 C 0.88178 0.73028 0.67283
 C1778 C 0.88755 0.71955 0.64872
 C1779 C 0.91444 0.71951 0.64064
 C1780 C 0.93555 0.73033 0.65660
 C1781 C 0.92960 0.73965 0.68141
 C1782 C 0.90278 0.73960 0.68946
 C1783 C 0.85433 0.73345 0.68030
 C1784 C 0.83196 0.73692 0.68812
 H1785 H 0.87127 0.71213 0.63587
 H1786 H 0.91853 0.71193 0.62161
 H1787 H 0.94534 0.74861 0.69394
 H1788 H 0.89831 0.74792 0.70821
 C1789 C 0.39031 0.23999 0.17693
 C1790 C 0.40812 0.25747 0.19080
 C1791 C 0.43529 0.25992 0.18399
 C1792 C 0.44483 0.24480 0.16322
 C1793 C 0.42706 0.22635 0.15008
 C1794 C 0.39978 0.22397 0.15692
 C1795 C 0.36221 0.23955 0.18310
 C1796 C 0.33913 0.24042 0.18987
 H1797 H 0.40079 0.26988 0.20635
 H1798 H 0.44836 0.27475 0.19405
 H1799 H 0.43411 0.21437 0.13413
 H1800 H 0.38600 0.21026 0.14627
 C1801 C 0.39847 0.77686 0.32997
 C1802 C 0.41916 0.79178 0.31746
 C1803 C 0.44640 0.78688 0.32405
 C1804 C 0.45306 0.76692 0.34315
 C1805 C 0.43211 0.75303 0.35652
 C1806 C 0.40490 0.75794 0.34987
 C1807 C 0.37134 0.77726 0.31932
 C1808 C 0.34936 0.77574 0.30869
 H1809 H 0.41429 0.80620 0.30178
 H1810 H 0.46224 0.79811 0.31377
 H1811 H 0.43670 0.73726 0.37105
 H1812 H 0.38895 0.74592 0.35927
 C1813 C 0.90164 0.27254 0.82740
 C1814 C 0.91881 0.26220 0.80894
 C1815 C 0.94556 0.25581 0.81566
 C1816 C 0.95583 0.25967 0.84116
 C1817 C 0.93830 0.27082 0.85950
 C1818 C 0.91133 0.27707 0.85264
 C1819 C 0.87366 0.27607 0.82010
 C1820 C 0.85087 0.27659 0.81121
 H1821 H 0.91123 0.25827 0.78939
 H1822 H 0.95749 0.24655 0.80092
 H1823 H 0.94520 0.27551 0.87901
 H1824 H 0.89805 0.28514 0.86702
 C1825 C 0.53465 0.99261 0.66956
 C1826 C 0.53587 1.01870 0.68082
 C1827 C 0.55135 1.02293 0.70357
 C1828 C 0.56595 1.00113 0.71539
 C1829 C 0.56325 0.97457 0.70497
 C1830 C 0.54781 0.97038 0.68205
 C1831 C 0.52330 0.98977 0.64362
 C1832 C 0.51587 0.98805 0.62119
 H1833 H 0.52596 1.03611 0.67134
 H1834 H 0.55282 1.04356 0.71138
 H1835 H 0.57446 0.95750 0.71355
 H1836 H 0.54727 0.95013 0.67339
 C1837 C 0.03609 0.48979 1.16718
 C1838 C 0.04915 0.46729 1.17934
 C1839 C 0.06426 0.47095 1.20255
 C1840 C 0.06671 0.49723 1.21360
 C1841 C 0.05219 0.51926 1.20209
 C1842 C 0.03704 0.51556 1.17905
 C1843 C 0.02497 0.48756 1.14108
 C1844 C 0.01758 0.48637 1.11859
 H1845 H 0.04879 0.44728 1.17023
 H1846 H 0.07543 0.45372 1.21087
 H1847 H 0.05352 0.53968 1.21035
 H1848 H 0.02719 0.53316 1.16985
 C1849 C -0.03083 -0.01128 1.16533
 C1850 C -0.03202 0.01472 1.17668
 C1851 C -0.04800 0.01843 1.19833
 C1852 C -0.06308 -0.00383 1.20901
 C1853 C -0.06054 -0.03025 1.19853
 C1854 C -0.04465 -0.03391 1.17667
 C1855 C -0.01930 -0.01329 1.13997
 C1856 C -0.01195 -0.01291 1.11779
 H1857 H -0.02170 0.03247 1.16798
 H1858 H -0.04938 0.03896 1.20616
 H1859 H -0.07216 -0.04766 1.20616
 H1860 H -0.04429 -0.05405 1.16786
 C1861 C 0.46609 0.49085 0.65934
 C1862 C 0.46396 0.51704 0.67010
 C1863 C 0.44829 0.52057 0.69198
 C1864 C 0.43446 0.49791 0.70346
 C1865 C 0.43784 0.47144 0.69340
 C1866 C 0.45342 0.46795 0.67134
 C1867 C 0.47740 0.48865 0.63396
 C1868 C 0.48452 0.48871 0.61174
 H1869 H 0.47338 0.53500 0.66086
 H1870 H 0.44631 0.54117 0.69950
 H1871 H 0.42720 0.45374 0.70158
 H1872 H 0.45450 0.44764 0.66296
 C1873 C 0.47332 0.50273 -0.16416
 C1874 C 0.47000 0.52688 -0.17908
 C1875 C 0.45282 0.52671 -0.20110
 C1876 C 0.43854 0.50241 -0.20846
 C1877 C 0.44343 0.47776 -0.19452
 C1878 C 0.46060 0.47798 -0.17233
 C1879 C 0.48577 0.50438 -0.13856
 C1880 C 0.49344 0.50547 -0.11616
 H1881 H 0.47949 0.54618 -0.17294
 H1882 H 0.44973 0.54593 -0.21178
 H1883 H 0.43261 0.45885 -0.19976
 H1884 H 0.46275 0.45920 -0.16077
 C1885 C -0.03501 0.99813 0.34352
 C1886 C -0.06313 1.00138 0.34574
 C1887 C -0.08036 1.00045 0.32389
 C1888 C -0.06984 0.99625 0.29925
 C1889 C -0.04172 0.99181 0.29706
 C1890 C -0.02430 0.99282 0.31917
 C1891 C -0.01834 0.99988 0.36694
 C1892 C -0.00843 1.00095 0.38860
 H1893 H -0.07178 1.00507 0.36446
 H1894 H -0.10197 1.00372 0.32614
 H1895 H -0.03314 0.98879 0.27821
 H1896 H -0.00260 0.98995 0.31722
 C1897 C 0.04265 0.48909 0.34979
 C1898 C 0.05351 0.46636 0.33739
 C1899 C 0.06864 0.47029 0.31475
 C1900 C 0.07350 0.49705 0.30445
 C1901 C 0.06172 0.51956 0.31659
 C1902 C 0.04650 0.51560 0.33897
 C1903 C 0.03007 0.48634 0.37490
 C1904 C 0.02119 0.48694 0.39661
 H1905 H 0.05099 0.44573 0.34560
 H1906 H 0.07747 0.45256 0.30600
 H1907 H 0.06457 0.54039 0.30897
 H1908 H 0.03840 0.53344 0.34831
 C1909 C 0.54210 -0.00506 -0.14848
 C1910 C 0.55359 -0.02785 -0.16024
 C1911 C 0.56845 -0.02420 -0.18304
 C1912 C 0.57239 0.00233 -0.19410
 C1913 C 0.55989 0.02486 -0.18266
 C1914 C 0.54493 0.02118 -0.16011
 C1915 C 0.53027 -0.00741 -0.12307
 C1916 C 0.52213 -0.00683 -0.10113
 H1917 H 0.55187 -0.04825 -0.15134
 H1918 H 0.57790 -0.04190 -0.19123
 H1919 H 0.56211 0.04550 -0.19091
 H1920 H 0.53635 0.03905 -0.15123
 C1921 C 0.66754 0.57160 -0.01038
 C1922 C 0.67616 0.58395 0.01298
 C1923 C 0.70002 0.60057 0.01410
 C1924 C 0.71536 0.60523 -0.00822
 C1925 C 0.70730 0.59158 -0.03117
 C1926 C 0.68360 0.57500 -0.03225
 C1927 C 0.64154 0.55685 -0.01237
 C1928 C 0.61939 0.54526 -0.01342
 H1929 H 0.66395 0.58148 0.03010
 H1930 H 0.70565 0.61093 0.03195
 H1931 H 0.71892 0.59447 -0.04862
 H1932 H 0.67738 0.56552 -0.05038
 C1933 C 0.16577 1.07025 0.49194
 C1934 C 0.17463 1.08345 0.51480
 C1935 C 0.19823 1.10049 0.51503
 C1936 C 0.21299 1.10472 0.49230
 C1937 C 0.20465 1.09030 0.46985
 C1938 C 0.18125 1.07330 0.46967
 C1939 C 0.14001 1.05505 0.49078
 C1940 C 0.11802 1.04316 0.49025
 H1941 H 0.16284 1.08126 0.53221
 H1942 H 0.20413 1.11139 0.53251
 H1943 H 0.21588 1.09281 0.45213
 H1944 H 0.17480 1.06319 0.45191
 C1945 C 0.15523 -0.08107 1.01490
 C1946 C 0.18171 -0.07037 1.01982
 C1947 C 0.20476 -0.08591 1.01407
 C1948 C 0.20160 -0.11217 1.00293
 C1949 C 0.17495 -0.12299 0.99890
 C1950 C 0.15211 -0.10762 1.00477
 C1951 C 0.13104 -0.06464 1.01820
 C1952 C 0.10996 -0.05192 1.01905
 H1953 H 0.18457 -0.04981 1.02755
 H1954 H 0.22495 -0.07701 1.01744
 H1955 H 0.17167 -0.14339 0.99097
 H1956 H 0.13190 -0.11630 1.00084
 C1957 C 0.65363 0.42450 0.50900
 C1958 C 0.66731 0.41097 0.52970
 C1959 C 0.69054 0.39522 0.52522
 C1960 C 0.70022 0.39256 0.49996
 C1961 C 0.68692 0.40704 0.47954
 C1962 C 0.66394 0.42281 0.48402
 C1963 C 0.62818 0.43877 0.51249
 C1964 C 0.60646 0.45036 0.51324
 H1965 H 0.65961 0.41193 0.54914
 H1966 H 0.70005 0.38408 0.54128
 H1967 H 0.69396 0.40566 0.45989
 H1968 H 0.65373 0.43311 0.46778
 C1969 C -0.15490 0.42037 0.49344
 C1970 C -0.17979 0.43150 0.50074
 C1971 C -0.20355 0.41468 0.50187
 C1972 C -0.20265 0.38658 0.49555
 C1973 C -0.17735 0.37547 0.48926
 C1974 C -0.15380 0.39217 0.48819
 C1975 C -0.13025 0.43738 0.49169
 C1976 C -0.10919 0.45096 0.49099
 H1977 H -0.18093 0.45324 0.50515
 H1978 H -0.22273 0.42381 0.50660
 H1979 H -0.17590 0.35381 0.48463
 H1980 H -0.13473 0.38311 0.48292
 C1981 C 0.34748 -0.07320 -0.00474
 C1982 C 0.32211 -0.06295 0.00231
 C1983 C 0.29873 -0.08043 0.00253
 C1984 C 0.30051 -0.10827 -0.00445
 C1985 C 0.32626 -0.11850 -0.01045
 C1986 C 0.34942 -0.10118 -0.01061
 C1987 C 0.37185 -0.05562 -0.00572
 C1988 C 0.39295 -0.04205 -0.00598
 H1989 H 0.32030 -0.04140 0.00719
 H1990 H 0.27917 -0.07198 0.00707
 H1991 H 0.32837 -0.13993 -0.01563
 H1992 H 0.36884 -0.10958 -0.01573
 C1993 C 0.34935 1.06765 0.51264
 C1994 C 0.33548 1.08029 0.53250
 C1995 C 0.31408 1.09839 0.52647
 C1996 C 0.30640 1.10435 0.50051
 C1997 C 0.32013 1.09105 0.48076
 C1998 C 0.34136 1.07294 0.48679
 C1999 C 0.37280 1.05053 0.51811
 C2000 C 0.39320 1.03688 0.52028
 H2001 H 0.34150 1.07660 0.55259
 H2002 H 0.30427 1.10833 0.54214
 H2003 H 0.31452 1.09469 0.46058
 H2004 H 0.35187 1.06336 0.47117
 C2005 C -0.14673 0.57350 1.01636
 C2006 C -0.14133 0.60056 1.00756
 C2007 C -0.16272 0.61850 1.00175
 C2008 C -0.19005 0.60973 1.00458
 C2009 C -0.19539 0.58283 1.01428
 C2010 C -0.17386 0.56476 1.01997
 C2011 C -0.12431 0.55457 1.01947
 C2012 C -0.10453 0.53994 1.02012
 H2013 H -0.12050 0.60765 1.00462
 H2014 H -0.15782 0.63925 0.99488
 H2015 H -0.21620 0.57543 1.01656
 H2016 H -0.17841 0.54383 1.02658
 C2017 C -0.01297 0.67879 0.54469
 C2018 C 0.01096 0.69420 0.54949
 C2019 C 0.01140 0.71442 0.56838
 C2020 C -0.01197 0.71881 0.58292
 C2021 C -0.03660 0.70530 0.57586
 C2022 C -0.03705 0.68529 0.55685
 C2023 C -0.01151 0.65263 0.53270
 C2024 C -0.01062 0.62937 0.52536
 H2025 H 0.02972 0.68916 0.54014
 H2026 H 0.03045 0.72528 0.57270
 H2027 H -0.05498 0.70825 0.58638
 H2028 H -0.05561 0.67321 0.55334
 C2029 C 0.50466 0.17406 0.06540
 C2030 C 0.52253 0.17469 0.08687
 C2031 C 0.52213 0.19664 0.10381
 C2032 C 0.50388 0.21837 0.09936
 C2033 C 0.48638 0.21785 0.07732
 C2034 C 0.48674 0.19569 0.06042
 C2035 C 0.50289 0.14953 0.05059
 C2036 C 0.50166 0.12756 0.04032
 H2037 H 0.53611 0.15768 0.09105
 H2038 H 0.53537 0.19591 0.12090
 H2039 H 0.47221 0.23427 0.07320
 H2040 H 0.47261 0.19508 0.04393
 C2041 C -0.00454 0.15231 0.92810
 C2042 C -0.00344 0.17944 0.93703
 C2043 C -0.00123 0.20149 0.91928
 C2044 C 0.00014 0.19636 0.89266
 C2045 C -0.00204 0.16912 0.88388
 C2046 C -0.00441 0.14721 0.90154
 C2047 C -0.00371 0.12928 0.94578
 C2048 C -0.00229 0.10859 0.95885
 H2049 H -0.00339 0.18348 0.95761
 H2050 H 0.00081 0.22230 0.92644
 H2051 H -0.00122 0.16480 0.86339
 H2052 H -0.00524 0.12622 0.89452
 C2053 C 0.48939 0.65256 0.42208
 C2054 C 0.49180 0.67898 0.43251
 C2055 C 0.49513 0.70194 0.41605
 C2056 C 0.49632 0.69848 0.38916
 C2057 C 0.49269 0.67199 0.37882
 C2058 C 0.48924 0.64912 0.39524
 C2059 C 0.48976 0.62861 0.43862
 C2060 C 0.49115 0.60765 0.45127
 H2061 H 0.49215 0.68172 0.45331
 H2062 H 0.49823 0.72209 0.42443
 H2063 H 0.49323 0.66892 0.35810
 H2064 H 0.48744 0.62866 0.38707
 C2065 C 0.51625 0.83724 0.43079
 C2066 C 0.50534 0.81154 0.43836
 C2067 C 0.50717 0.78903 0.42204
 C2068 C 0.51987 0.79212 0.39802
 C2069 C 0.53165 0.81789 0.39112
 C2070 C 0.52985 0.84030 0.40746
 C2071 C 0.51185 0.86109 0.44582
 C2072 C 0.50809 0.88182 0.45743
 H2073 H 0.49475 0.80911 0.45646
 H2074 H 0.49806 0.76950 0.42802
 H2075 H 0.54100 0.82126 0.37252
 H2076 H 0.53817 0.86026 0.40144
 C2077 C 0.01140 0.33826 0.92625
 C2078 C 0.00062 0.31274 0.93454
 C2079 C 0.00310 0.28956 0.91914
 C2080 C 0.01643 0.29179 0.89539
 C2081 C 0.02752 0.31756 0.88751
 C2082 C 0.02505 0.34062 0.90290
 C2083 C 0.00774 0.36244 0.94106
 C2084 C 0.00491 0.38328 0.95279
 H2085 H -0.01001 0.31085 0.95266
 H2086 H -0.00560 0.27009 0.92580
 H2087 H 0.03723 0.32026 0.86901
 H2088 H 0.03326 0.36043 0.89632
 C2089 C 0.46935 0.34869 0.06654
 C2090 C 0.47688 0.32265 0.05827
 C2091 C 0.47838 0.30078 0.07613
 C2092 C 0.47263 0.30520 0.10217
 C2093 C 0.46238 0.33053 0.10972
 C2094 C 0.46064 0.35229 0.09182
 C2095 C 0.47663 0.37261 0.05169
 C2096 C 0.48417 0.39354 0.04124
 H2097 H 0.48402 0.31992 0.03880
 H2098 H 0.48697 0.28151 0.07028
 H2099 H 0.45818 0.33415 0.12987
 H2100 H 0.45508 0.37253 0.09834
 C2101 C -0.03030 0.85015 0.57816
 C2102 C -0.03297 0.82440 0.56645
 C2103 C -0.03344 0.80048 0.58186
 C2104 C -0.03085 0.80245 0.60892
 C2105 C -0.03073 0.82842 0.62052
 C2106 C -0.03045 0.85228 0.60512
 C2107 C -0.02319 0.87396 0.56309
 C2108 C -0.01608 0.89442 0.55161
 H2109 H -0.03276 0.82275 0.54554
 H2110 H -0.03329 0.78059 0.57257
 H2111 H -0.02883 0.83019 0.64140
 H2112 H -0.02837 0.87225 0.61421
 C2113 C 0.24576 0.28493 0.07992
 C2114 C 0.27070 0.28558 0.06733
 C2115 C 0.27351 0.30054 0.04406
 C2116 C 0.25143 0.31522 0.03304
 C2117 C 0.22597 0.31305 0.04488
 C2118 C 0.22320 0.29810 0.06827
 C2119 C 0.24426 0.27373 0.10604
 C2120 C 0.24312 0.26615 0.12847
 H2121 H 0.28833 0.27560 0.07609
 H2122 H 0.29332 0.30162 0.03524
 H2123 H 0.20871 0.32436 0.03701
 H2124 H 0.20381 0.29795 0.07788
 C2125 C 0.73934 0.79134 0.58652
 C2126 C 0.73323 0.77928 0.56244
 C2127 C 0.73675 0.79477 0.53934
 C2128 C 0.74664 0.82224 0.54027
 C2129 C 0.75176 0.83425 0.56458
 C2130 C 0.74819 0.81895 0.58739
 C2131 C 0.73671 0.77640 0.61086
 C2132 C 0.73514 0.76714 0.63270
 H2133 H 0.72612 0.75797 0.56150
 H2134 H 0.73266 0.78509 0.52084
 H2135 H 0.75884 0.85555 0.56595
 H2136 H 0.75264 0.82867 0.60583
 C2137 C 0.23554 0.71359 0.58687
 C2138 C 0.26173 0.71446 0.57663
 C2139 C 0.26703 0.70033 0.55396
 C2140 C 0.24616 0.68512 0.54116
 C2141 C 0.21961 0.68552 0.55078
 C2142 C 0.21434 0.69956 0.57358
 C2143 C 0.23180 0.72346 0.61274
 C2144 C 0.23097 0.72988 0.63521
 H2145 H 0.27840 0.72496 0.58685
 H2146 H 0.28766 0.70042 0.54694
 H2147 H 0.20332 0.67353 0.54174
 H2148 H 0.19410 0.69829 0.58151
 C2149 C 0.74366 0.21855 0.08855
 C2150 C 0.72169 0.20441 0.07650
 C2151 C 0.72576 0.18912 0.05413
 C2152 C 0.75193 0.18751 0.04382
 C2153 C 0.77352 0.20298 0.05523
 C2154 C 0.76940 0.21837 0.07741
 C2155 C 0.74127 0.22933 0.11429
 C2156 C 0.74120 0.23611 0.13672
 H2157 H 0.70177 0.20399 0.08512
 H2158 H 0.70888 0.17713 0.04599
 H2159 H 0.79385 0.20228 0.04758
 H2160 H 0.78665 0.22895 0.08665
 C2161 C 0.75413 0.21616 0.90910
 C2162 C 0.75825 0.18780 0.90677
 C2163 C 0.75750 0.17031 0.92849
 C2164 C 0.75263 0.18078 0.95312
 C2165 C 0.74740 0.20911 0.95539
 C2166 C 0.74819 0.22680 0.93342
 C2167 C 0.75541 0.23315 0.88579
 C2168 C 0.75603 0.24349 0.86430
 H2169 H 0.76240 0.17918 0.88807
 H2170 H 0.76135 0.14854 0.92612
 H2171 H 0.74385 0.21770 0.97422
 H2172 H 0.74462 0.24866 0.93546
 C2173 C 0.25097 0.71489 0.40469
 C2174 C 0.25442 0.68639 0.40278
 C2175 C 0.25356 0.66935 0.42479
 C2176 C 0.24923 0.68046 0.44926
 C2177 C 0.24461 0.70896 0.45112
 C2178 C 0.24555 0.72618 0.42885
 C2179 C 0.25261 0.73136 0.38114
 C2180 C 0.25365 0.74115 0.35947
 H2181 H 0.25820 0.67729 0.38420
 H2182 H 0.25691 0.64744 0.42278
 H2183 H 0.24145 0.71798 0.46983
 H2184 H 0.24253 0.74818 0.43055
 C2185 C 0.73476 0.79178 0.39950
 C2186 C 0.76057 0.79077 0.41177
 C2187 C 0.76579 0.80459 0.43501
 C2188 C 0.74527 0.81969 0.44656
 C2189 C 0.71900 0.81953 0.43490
 C2190 C 0.71382 0.80582 0.41141
 C2191 C 0.73138 0.78112 0.37348
 C2192 C 0.73146 0.77339 0.35126
 H2193 H 0.77705 0.78020 0.40279
 H2194 H 0.78619 0.80422 0.44358
 H2195 H 0.70293 0.83130 0.44306
 H2196 H 0.69383 0.80710 0.40206
 C2197 C 0.23246 0.29890 0.89440
 C2198 C 0.22829 0.28601 0.91862
 C2199 C 0.23353 0.30066 0.94163
 C2200 C 0.24347 0.32816 0.94062
 C2201 C 0.24668 0.34109 0.91622
 C2202 C 0.24122 0.32662 0.89342
 C2203 C 0.23064 0.28382 0.87035
 C2204 C 0.23182 0.27365 0.84912
 H2205 H 0.22174 0.26451 0.91976
 H2206 H 0.23093 0.29017 0.96014
 H2207 H 0.25378 0.36239 0.91474
 H2208 H 0.24464 0.33691 0.87492
 C2209 C 0.83048 0.41747 0.76036
 C2210 C 0.85850 0.41444 0.76499
 C2211 C 0.87640 0.43704 0.76214
 C2212 C 0.86665 0.46323 0.75461
 C2213 C 0.83863 0.46601 0.74892
 C2214 C 0.82061 0.44322 0.75182
 C2215 C 0.81250 0.39358 0.76339
 C2216 C 0.79887 0.37247 0.76476
 H2217 H 0.86653 0.39459 0.77112
 H2218 H 0.89792 0.43423 0.76647
 H2219 H 0.83055 0.48599 0.74338
 H2220 H 0.79901 0.44577 0.74778
 C2221 C 0.32986 0.91319 0.25719
 C2222 C 0.35745 0.90986 0.26384
 C2223 C 0.37572 0.93232 0.26249
 C2224 C 0.36679 0.95866 0.25449
 C2225 C 0.33927 0.96177 0.24683
 C2226 C 0.32087 0.93912 0.24821
 C2227 C 0.31150 0.88946 0.25886
 C2228 C 0.29773 0.86841 0.25949
 H2229 H 0.36483 0.88988 0.27037
 H2230 H 0.39686 0.92923 0.26828
 H2231 H 0.33180 0.98187 0.24085
 H2232 H 0.29963 0.94192 0.24267
 C2233 C 0.16330 0.89971 0.73584
 C2234 C 0.17368 0.92676 0.73215
 C2235 C 0.15770 0.94966 0.73773
 C2236 C 0.13132 0.94575 0.74745
 C2237 C 0.12082 0.91856 0.75015
 C2238 C 0.13664 0.89585 0.74445
 C2239 C 0.18016 0.87569 0.73299
 C2240 C 0.19331 0.85474 0.73247
 H2241 H 0.19433 0.93013 0.72562
 H2242 H 0.16632 0.97032 0.73543
 H2243 H 0.10036 0.91479 0.75700
 H2244 H 0.12824 0.87517 0.74740
 C2245 C 0.67463 0.40433 0.24081
 C2246 C 0.66290 0.41899 0.21976
 C2247 C 0.64522 0.44089 0.22404
 C2248 C 0.63871 0.44819 0.24940
 C2249 C 0.65141 0.43393 0.27033
 C2250 C 0.66910 0.41226 0.26606
 C2251 C 0.69093 0.38009 0.23715
 C2252 C 0.70380 0.35902 0.23620
 H2253 H 0.66690 0.41310 0.20009
 H2254 H 0.63593 0.45132 0.20752
 H2255 H 0.64745 0.43932 0.29013
 H2256 H 0.67803 0.40125 0.28256
 C2257 C 0.66706 0.59341 0.25690
 C2258 C 0.65504 0.58349 0.23376
 C2259 C 0.63972 0.55861 0.23378
 C2260 C 0.63611 0.54351 0.25699
 C2261 C 0.64921 0.55310 0.27985
 C2262 C 0.66448 0.57781 0.27980
 C2263 C 0.68181 0.61964 0.25733
 C2264 C 0.69436 0.64145 0.25731
 H2265 H 0.65703 0.59527 0.21583
 H2266 H 0.62975 0.55182 0.21596
 H2267 H 0.64718 0.54169 0.29798
 H2268 H 0.67387 0.58499 0.29775
 C2269 C 0.16730 0.09345 0.75599
 C2270 C 0.14027 0.09493 0.76370
 C2271 C 0.12348 0.07127 0.76394
 C2272 C 0.13337 0.04550 0.75654
 C2273 C 0.16023 0.04422 0.74783
 C2274 C 0.17715 0.06809 0.74765
 C2275 C 0.18442 0.11823 0.75644
 C2276 C 0.19796 0.13946 0.75639
 H2277 H 0.13220 0.11437 0.76983
 H2278 H 0.10271 0.07308 0.77027
 H2279 H 0.16837 0.02469 0.74210
 H2280 H 0.19798 0.06669 0.74136
 C2281 C 0.32256 0.09666 0.23541
 C2282 C 0.33678 0.08380 0.21592
 C2283 C 0.35490 0.06250 0.22231
 C2284 C 0.35927 0.05393 0.24828
 C2285 C 0.34428 0.06649 0.26759
 C2286 C 0.32614 0.08763 0.26119
 C2287 C 0.30564 0.12028 0.22977
 C2288 C 0.29195 0.14076 0.22760
 H2289 H 0.33438 0.09066 0.19590
 H2290 H 0.36620 0.05360 0.20703
 H2291 H 0.34678 0.06015 0.28773
 H2292 H 0.31530 0.09736 0.27651
 C2293 C 0.81788 0.59914 0.73776
 C2294 C 0.83140 0.58685 0.71747
 C2295 C 0.85057 0.56621 0.72283
 C2296 C 0.85673 0.55777 0.74854
 C2297 C 0.84241 0.56970 0.76867
 C2298 C 0.82322 0.59017 0.76331
 C2299 C 0.80012 0.62236 0.73311
 C2300 C 0.78610 0.64266 0.73158
 H2301 H 0.82767 0.59370 0.69762
 H2302 H 0.86129 0.55775 0.70692
 H2303 H 0.84628 0.56343 0.78866
 H2304 H 0.81298 0.59948 0.77924
 C2305 C 0.92321 0.73376 0.21198
 C2306 C 0.93880 0.75816 0.21015
 C2307 C 0.96039 0.75980 0.19314
 C2308 C 0.96606 0.73715 0.17756
 C2309 C 0.95242 0.71180 0.18199
 C2310 C 0.93091 0.71016 0.19906
 C2311 C 0.89633 0.73470 0.22166
 C2312 C 0.87288 0.73574 0.22734
 H2313 H 0.93289 0.77654 0.22013
 H2314 H 0.97125 0.77936 0.19076
 H2315 H 0.95645 0.69393 0.17065
 H2316 H 0.91879 0.69121 0.20035
 C2317 C 0.42495 0.23789 0.70920
 C2318 C 0.43937 0.26281 0.70578
 C2319 C 0.46082 0.26427 0.68862
 C2320 C 0.46749 0.24089 0.67441
 C2321 C 0.45505 0.21528 0.68050
 C2322 C 0.43370 0.21383 0.69774
 C2323 C 0.39812 0.23821 0.71900
 C2324 C 0.37467 0.23847 0.72478
 H2325 H 0.43266 0.28153 0.71468
 H2326 H 0.47084 0.28409 0.68516
 H2327 H 0.45993 0.19680 0.67044
 H2328 H 0.42251 0.19446 0.70030
 C2329 C 0.40673 0.74756 0.80827
 C2330 C 0.41718 0.72402 0.82084
 C2331 C 0.43818 0.72687 0.83945
 C2332 C 0.44821 0.75331 0.84573
 C2333 C 0.43869 0.77659 0.83195
 C2334 C 0.41802 0.77370 0.81326
 C2335 C 0.38161 0.74598 0.79389
 C2336 C 0.35945 0.74627 0.78366
 H2337 H 0.40819 0.70375 0.81725
 H2338 H 0.44547 0.70877 0.84993
 H2339 H 0.44666 0.79710 0.83627
 H2340 H 0.40982 0.79199 0.80373
 C2341 C 0.90230 0.24469 0.32852
 C2342 C 0.90829 0.27026 0.33950
 C2343 C 0.93200 0.27404 0.35445
 C2344 C 0.95035 0.25220 0.35863
 C2345 C 0.94356 0.22620 0.34787
 C2346 C 0.91970 0.22255 0.33287
 C2347 C 0.87816 0.24181 0.31274
 C2348 C 0.85743 0.24142 0.29996
 H2349 H 0.89482 0.28752 0.33613
 H2350 H 0.93629 0.29463 0.36146
 H2351 H 0.95603 0.20829 0.35143
 H2352 H 0.91485 0.20252 0.32468
 C2353 C 0.08248 0.24995 0.30542
 C2354 C 0.07018 0.27566 0.30675
 C2355 C 0.04882 0.27907 0.32357
 C2356 C 0.03987 0.25676 0.33917
 C2357 C 0.05123 0.23066 0.33646
 C2358 C 0.07251 0.22726 0.31961
 C2359 C 0.10765 0.24775 0.29267
 C2360 C 0.12952 0.24600 0.28324
 H2361 H 0.07804 0.29334 0.29587
 H2362 H 0.04019 0.29935 0.32537
 H2363 H 0.04521 0.21343 0.34871
 H2364 H 0.08226 0.20740 0.31886
 C2365 C 0.58674 0.75908 0.82195
 C2366 C 0.57519 0.73532 0.83323
 C2367 C 0.55189 0.73729 0.84779
 C2368 C 0.54000 0.76310 0.85111
 C2369 C 0.55152 0.78686 0.83939
 C2370 C 0.57488 0.78483 0.82481
 C2371 C 0.61135 0.75698 0.80822
 C2372 C 0.63221 0.75476 0.79703
 H2373 H 0.58448 0.71537 0.83116
 H2374 H 0.54373 0.71877 0.85707
 H2375 H 0.54251 0.80692 0.84159
 H2376 H 0.58386 0.80329 0.81605
 C2377 C 0.60110 0.22599 0.67891
 C2378 C 0.57621 0.22316 0.69138
 C2379 C 0.55199 0.22228 0.67665
 C2380 C 0.55286 0.22466 0.64954
 C2381 C 0.57798 0.22482 0.63719
 C2382 C 0.60211 0.22548 0.65190
 C2383 C 0.62519 0.23352 0.69323
 C2384 C 0.64589 0.24084 0.70400
 H2385 H 0.57542 0.22361 0.71233
 H2386 H 0.53272 0.22242 0.68644
 H2387 H 0.57886 0.22658 0.61626
 H2388 H 0.62142 0.22763 0.64221
 C2389 C 0.10211 0.71841 0.17388
 C2390 C 0.07836 0.71530 0.18818
 C2391 C 0.05297 0.71615 0.17545
 C2392 C 0.05154 0.72053 0.14853
 C2393 C 0.07541 0.72074 0.13412
 C2394 C 0.10071 0.71971 0.14683
 C2395 C 0.12725 0.72540 0.18672
 C2396 C 0.14827 0.73281 0.19687
 H2397 H 0.07944 0.71444 0.20919
 H2398 H 0.03469 0.71617 0.18680
 H2399 H 0.07450 0.72396 0.11328
 H2400 H 0.11909 0.72217 0.13571
   
