data_POSCAR
  _audit_creation_date              2014-09-24
  _audit_creation_method            'ToBaCCo'
  _symmetry_space_group_name_H-M    'P1'
  _symmetry_Int_Tables_number       1
  _symmetry_cell_setting            triclinic
  loop_
  _symmetry_equiv_pos_as_xyz
 x,y,z
_cell_length_a 59.9317
_cell_length_b 60.4189
_cell_length_c 61.3772
_cell_angle_alpha 90.205000
_cell_angle_beta 90.221500
_cell_angle_gamma 90.159600
loop_
  _atom_site_label
  _atom_site_type_symbol
  _atom_site_fract_x
  _atom_site_fract_y
  _atom_site_fract_z
C1 C 0.33037 0.32950 -0.00750
 C2 C 0.32942 0.32822 0.01463
 C3 C 0.31641 0.34429 0.02783
 C4 C 0.34187 0.31088 0.02672
 C5 C 0.34565 0.31521 -0.02028
 C6 C 0.31647 0.34521 -0.02020
 C7 C 0.32009 0.36715 0.02592
 C8 C 0.30812 0.38208 0.03879
 C9 C 0.29222 0.37447 0.05377
 C10 C 0.28885 0.35152 0.05594
 C11 C 0.30089 0.33660 0.04311
 C12 C 0.35714 0.31696 0.04307
 C13 C 0.36934 0.30083 0.05417
 C14 C 0.36627 0.27824 0.04928
 C15 C 0.35084 0.27221 0.03303
 C16 C 0.33860 0.28835 0.02198
 C17 C 0.33665 0.30000 -0.03511
 C18 C 0.35017 0.28637 -0.04769
 C19 C 0.37585 0.28759 -0.04645
 C20 C 0.38364 0.30498 -0.03003
 C21 C 0.36875 0.31759 -0.01787
 C22 C 0.29315 0.34550 -0.01811
 C23 C 0.28022 0.35957 -0.03106
 C24 C 0.29043 0.37352 -0.04647
 C25 C 0.31377 0.37336 -0.04822
 C26 C 0.32664 0.35925 -0.03538
 H27 H 0.33239 0.37342 0.01462
 H28 H 0.31128 0.39964 0.03702
 H29 H 0.27732 0.34496 0.06781
 H30 H 0.29808 0.31901 0.04509
 H31 H 0.35995 0.33427 0.04690
 H32 H 0.38153 0.30618 0.06612
 H33 H 0.32663 0.28329 0.00967
 H34 H 0.31871 0.29852 -0.03682
 H35 H 0.34224 0.27484 -0.05881
 H36 H 0.40137 0.30755 -0.02763
 H37 H 0.37537 0.32967 -0.00646
 H38 H 0.28495 0.33461 -0.00666
 H39 H 0.26236 0.35940 -0.02880
 H40 H 0.32211 0.38397 -0.05984
 H41 H 0.34460 0.35926 -0.03729
 H42 H 0.34819 0.25495 0.02891
 C43 C 0.67293 0.67238 -0.01546
 C44 C 0.67222 0.67402 0.00665
 C45 C 0.68702 0.66058 0.02083
 C46 C 0.65673 0.68952 0.01779
 C47 C 0.66035 0.68774 -0.02964
 C48 C 0.68648 0.65538 -0.02679
 C49 C 0.67779 0.64806 0.03776
 C50 C 0.69154 0.63582 0.05158
 C51 C 0.71479 0.63587 0.04882
 C52 C 0.72406 0.64875 0.03204
 C53 C 0.71027 0.66099 0.01819
 C54 C 0.63374 0.68915 0.01327
 C55 C 0.61932 0.70353 0.02416
 C56 C 0.62752 0.71814 0.04014
 C57 C 0.65054 0.71844 0.04471
 C58 C 0.66496 0.70418 0.03370
 C59 C 0.66543 0.71042 -0.02981
 C60 C 0.65431 0.72458 -0.04415
 C61 C 0.63768 0.71633 -0.05815
 C62 C 0.63266 0.69359 -0.05797
 C63 C 0.64409 0.67939 -0.04397
 C64 C 0.70126 0.66185 -0.04325
 C65 C 0.71339 0.64606 -0.05481
 C66 C 0.71099 0.62341 -0.05009
 C67 C 0.69595 0.61693 -0.03381
 C68 C 0.68380 0.63277 -0.02223
 H69 H 0.65991 0.64772 0.04022
 H70 H 0.68396 0.62624 0.06450
 H71 H 0.74190 0.64988 0.02978
 H72 H 0.71776 0.67106 0.00560
 H73 H 0.62692 0.67758 0.00148
 H74 H 0.60166 0.70298 0.02037
 H75 H 0.68262 0.70468 0.03748
 H76 H 0.67823 0.71704 -0.01910
 H77 H 0.65855 0.74202 -0.04419
 H78 H 0.62028 0.68671 -0.06897
 H79 H 0.64026 0.66186 -0.04426
 H80 H 0.70331 0.67918 -0.04725
 H81 H 0.72416 0.65169 -0.06777
 H82 H 0.69356 0.59958 -0.03010
 H83 H 0.67206 0.62740 -0.00995
 H84 H 0.65752 0.72988 0.05651
 C85 C 0.66909 0.32694 1.00837
 C86 C 0.67011 0.32691 0.98626
 C87 C 0.68496 0.34249 0.97471
 C88 C 0.65621 0.31194 0.97252
 C89 C 0.65296 0.31304 1.02052
 C90 C 0.68425 0.34107 1.02151
 C91 C 0.68055 0.36526 0.97505
 C92 C 0.69419 0.37988 0.96360
 C93 C 0.71252 0.37199 0.95175
 C94 C 0.71680 0.34910 0.95132
 C95 C 0.70305 0.33447 0.96269
 C96 C 0.64265 0.32089 0.95613
 C97 C 0.62908 0.30717 0.94336
 C98 C 0.62896 0.28415 0.94646
 C99 C 0.64283 0.27513 0.96275
 C100 C 0.65640 0.28892 0.97556
 C101 C 0.66084 0.29892 1.03683
 C102 C 0.64648 0.28534 1.04847
 C103 C 0.62174 0.28504 1.04419
 C104 C 0.61474 0.30100 1.02678
 C105 C 0.63009 0.31427 1.01593
 C106 C 0.70609 0.33420 1.02591
 C107 C 0.72007 0.34712 1.03910
 C108 C 0.71273 0.36751 1.04757
 C109 C 0.69074 0.37440 1.04283
 C110 C 0.67660 0.36112 1.03015
 H111 H 0.66634 0.37163 0.98392
 H112 H 0.69034 0.39739 0.96390
 H113 H 0.73032 0.34236 0.94177
 H114 H 0.70643 0.31688 0.96206
 H115 H 0.64228 0.33859 0.95345
 H116 H 0.61857 0.31462 0.93101
 H117 H 0.66697 0.28163 0.98794
 H118 H 0.67854 0.29807 1.04037
 H119 H 0.65345 0.27442 1.06063
 H120 H 0.59723 0.30223 1.02253
 H121 H 0.62404 0.32559 1.00364
 H122 H 0.71215 0.31866 1.01941
 H123 H 0.73681 0.34125 1.04244
 H124 H 0.68396 0.38953 1.04948
 H125 H 0.65965 0.36647 1.02705
 H126 H 0.64309 0.25758 0.96601
 C127 C 0.32477 0.67730 1.01258
 C128 C 0.32257 0.68072 0.99076
 C129 C 0.30735 0.66698 0.97717
 C130 C 0.33555 0.69823 0.97938
 C131 C 0.34103 0.69005 1.02585
 C132 C 0.31122 0.66069 1.02452
 C133 C 0.30941 0.64384 0.97652
 C134 C 0.29476 0.63109 0.96388
 C135 C 0.27794 0.64132 0.95143
 C136 C 0.27604 0.66446 0.95205
 C137 C 0.29073 0.67719 0.96464
 C138 C 0.34908 0.69257 0.96162
 C139 C 0.36189 0.70870 0.95115
 C140 C 0.36119 0.73093 0.95809
 C141 C 0.34746 0.73656 0.97575
 C142 C 0.33459 0.72043 0.98615
 C143 C 0.33338 0.70393 1.04252
 C144 C 0.34846 0.71598 1.05530
 C145 C 0.37166 0.71409 1.05185
 C146 C 0.37918 0.69967 1.03538
 C147 C 0.36401 0.68792 1.02237
 C148 C 0.28784 0.66165 1.02459
 C149 C 0.27539 0.64666 1.03699
 C150 C 0.28616 0.63034 1.04965
 C151 C 0.30963 0.62946 1.04927
 C152 C 0.32198 0.64450 1.03698
 H153 H 0.32229 0.63567 0.98592
 H154 H 0.29641 0.61328 0.96427
 H155 H 0.26316 0.67272 0.94271
 H156 H 0.28892 0.69502 0.96490
 H157 H 0.35009 0.67554 0.95617
 H158 H 0.37271 0.70352 0.93804
 H159 H 0.32397 0.72525 0.99957
 H160 H 0.31566 0.70549 1.04556
 H161 H 0.34167 0.72612 1.06818
 H162 H 0.39686 0.69761 1.03238
 H163 H 0.37017 0.67702 1.00972
 H164 H 0.27924 0.67430 1.01536
 H165 H 0.25748 0.64839 1.03668
 H166 H 0.31859 0.61724 1.05875
 H167 H 0.34002 0.64355 1.03724
 H168 H 0.34666 0.75351 0.98148
 C169 C -0.01412 0.32242 0.32188
 C170 C 0.00856 0.32312 0.32342
 C171 C 0.02113 0.31024 0.33988
 C172 C 0.02218 0.33671 0.30835
 C173 C -0.02613 0.33473 0.30451
 C174 C -0.02824 0.30968 0.33740
 C175 C 0.03577 0.32129 0.35413
 C176 C 0.04837 0.30944 0.36924
 C177 C 0.04695 0.28627 0.37017
 C178 C 0.03213 0.27518 0.35595
 C179 C 0.01937 0.28710 0.34090
 C180 C 0.02039 0.35987 0.30814
 C181 C 0.03338 0.37243 0.29383
 C182 C 0.04828 0.36196 0.27946
 C183 C 0.04993 0.33880 0.27969
 C184 C 0.03720 0.32631 0.29420
 C185 C -0.02190 0.33030 0.28251
 C186 C -0.03280 0.34175 0.26595
 C187 C -0.05002 0.35940 0.27065
 C188 C -0.05373 0.36257 0.29505
 C189 C -0.04202 0.35046 0.31052
 C190 C -0.04499 0.29562 0.32926
 C191 C -0.05907 0.28420 0.34341
 C192 C -0.05680 0.28645 0.36614
 C193 C -0.04007 0.30080 0.37429
 C194 C -0.02610 0.31239 0.36004
 H195 H 0.03738 0.33914 0.35356
 H196 H 0.05955 0.31840 0.38005
 H197 H 0.03013 0.25741 0.35646
 H198 H 0.00826 0.27829 0.32992
 H199 H 0.00891 0.36816 0.31901
 H200 H 0.03136 0.39022 0.29371
 H201 H 0.03876 0.30845 0.29414
 H202 H -0.00989 0.31772 0.27807
 H203 H -0.02882 0.33788 0.24918
 H204 H -0.06564 0.37469 0.30072
 H205 H -0.04524 0.35361 0.32761
 H206 H -0.04719 0.29347 0.31186
 H207 H -0.07176 0.27345 0.33646
 H208 H -0.03788 0.30376 0.39153
 H209 H -0.01384 0.32376 0.36672
 H210 H 0.06119 0.33037 0.26870
 C211 C -0.01116 0.67900 0.68099
 C212 C 0.01144 0.67710 0.67931
 C213 C 0.02481 0.69165 0.66490
 C214 C 0.02403 0.66042 0.69219
 C215 C -0.02372 0.66585 0.69723
 C216 C -0.02453 0.69386 0.66672
 C217 C 0.03978 0.68217 0.65008
 C218 C 0.05273 0.69557 0.63662
 C219 C 0.05099 0.71871 0.63769
 C220 C 0.03622 0.72824 0.65282
 C221 C 0.02329 0.71480 0.66634
 C222 C 0.01845 0.63785 0.69111
 C223 C 0.02973 0.62250 0.70406
 C224 C 0.04715 0.62933 0.71789
 C225 C 0.05304 0.65188 0.71860
 C226 C 0.04163 0.66724 0.70578
 C227 C -0.01908 0.66787 0.71955
 C228 C -0.03026 0.65461 0.73459
 C229 C -0.04632 0.63900 0.72768
 C230 C -0.05124 0.63751 0.70517
 C231 C -0.04013 0.65091 0.69022
 C232 C -0.04082 0.70758 0.67594
 C233 C -0.05385 0.72130 0.66281
 C234 C -0.05078 0.72187 0.64011
 C235 C -0.03468 0.70769 0.63083
 C236 C -0.02190 0.69372 0.64399
 H237 H 0.04134 0.66436 0.64884
 H238 H 0.06410 0.68782 0.62525
 H239 H 0.03494 0.74600 0.65464
 H240 H 0.01226 0.72244 0.67808
 H241 H 0.00518 0.63216 0.68043
 H242 H 0.02484 0.60524 0.70326
 H243 H 0.04617 0.68458 0.70685
 H244 H -0.00660 0.67954 0.72526
 H245 H -0.02604 0.65638 0.75170
 H246 H -0.06348 0.62616 0.69865
 H247 H -0.04397 0.64925 0.67302
 H248 H -0.04340 0.70778 0.69339
 H249 H -0.06620 0.73175 0.67055
 H250 H -0.03215 0.70670 0.61344
 H251 H -0.01007 0.68263 0.63639
 H252 H 0.06598 0.65785 0.72949
 C253 C 1.00443 0.67191 0.32618
 C254 C 0.98175 0.67361 0.32539
 C255 C 0.96888 0.68832 0.34022
 C256 C 0.96852 0.66105 0.30904
 C257 C 1.01666 0.65641 0.31161
 C258 C 1.01827 0.68560 0.34122
 C259 C 0.97171 0.68759 0.36295
 C260 C 0.95922 0.70146 0.37653
 C261 C 0.94341 0.71607 0.36758
 C262 C 0.94024 0.71635 0.34495
 C263 C 0.95288 0.70271 0.33141
 C264 C 0.95377 0.64446 0.31589
 C265 C 0.94109 0.63263 0.30065
 C266 C 0.94263 0.63757 0.27835
 C267 C 0.95700 0.65457 0.27158
 C268 C 0.97005 0.66609 0.28680
 C269 C 1.03361 0.66449 0.29810
 C270 C 1.04533 0.65023 0.28431
 C271 C 1.04043 0.62735 0.28383
 C272 C 1.02342 0.61938 0.29754
 C273 C 1.01184 0.63368 0.31140
 C274 C 1.01664 0.70876 0.34150
 C275 C 1.02984 0.72138 0.35573
 C276 C 1.04521 0.71104 0.36993
 C277 C 1.04708 0.68784 0.36910
 C278 C 1.03381 0.67530 0.35494
 H279 H 0.98344 0.67613 0.37020
 H280 H 0.96158 0.70033 0.39397
 H281 H 0.92804 0.72730 0.33768
 H282 H 0.95022 0.70346 0.31397
 H283 H 0.95223 0.64061 0.33304
 H284 H 0.92973 0.61996 0.30636
 H285 H 0.98114 0.67910 0.28132
 H286 H 1.03760 0.68199 0.29805
 H287 H 1.05782 0.65755 0.27395
 H288 H 1.01915 0.60194 0.29771
 H289 H 0.99915 0.62697 0.32204
 H290 H 1.00517 0.71709 0.33061
 H291 H 1.02797 0.73912 0.35509
 H292 H 1.05877 0.67925 0.37958
 H293 H 1.03552 0.65745 0.35482
 H294 H 0.95827 0.65877 0.25449
 C295 C 1.00983 0.32953 0.66986
 C296 C 0.98741 0.32625 0.67119
 C297 C 0.97627 0.30765 0.65946
 C298 C 0.97286 0.34134 0.68387
 C299 C 1.02185 0.34594 0.68370
 C300 C 1.02352 0.31684 0.65414
 C301 C 0.95798 0.31182 0.64576
 C302 C 0.94754 0.29451 0.63451
 C303 C 0.95506 0.27261 0.63696
 C304 C 0.97329 0.26845 0.65073
 C305 C 0.98366 0.28576 0.66205
 C306 C 0.97311 0.36425 0.68009
 C307 C 0.95876 0.37821 0.69156
 C308 C 0.94397 0.36956 0.70703
 C309 C 0.94346 0.34656 0.71053
 C310 C 0.95777 0.33260 0.69901
 C311 C 1.01972 0.34578 0.70646
 C312 C 1.03217 0.36044 0.71937
 C313 C 1.04721 0.37541 0.70970
 C314 C 1.04897 0.37573 0.68689
 C315 C 1.03652 0.36109 0.67404
 C316 C 1.04082 0.30330 0.66162
 C317 C 1.05353 0.29100 0.64692
 C318 C 1.04940 0.29238 0.62429
 C319 C 1.03244 0.30663 0.61693
 C320 C 1.01949 0.31854 0.63171
 H321 H 0.95205 0.32857 0.64348
 H322 H 0.93395 0.29842 0.62354
 H323 H 0.97941 0.25174 0.65286
 H324 H 0.99750 0.28211 0.67285
 H325 H 0.98425 0.37126 0.66808
 H326 H 0.95926 0.39583 0.68838
 H327 H 0.95708 0.31494 0.70188
 H328 H 1.00866 0.33405 0.71428
 H329 H 1.02986 0.35987 0.73679
 H330 H 1.06029 0.38713 0.67897
 H331 H 1.03840 0.36153 0.65650
 H332 H 1.04431 0.30206 0.67891
 H333 H 1.06681 0.28099 0.65351
 H334 H 1.02893 0.30832 0.59969
 H335 H 1.00633 0.32918 0.62568
 H336 H 0.93178 0.33920 0.72178
 C337 C 0.31707 -0.01776 0.31999
 C338 C 0.31944 0.00463 0.32118
 C339 C 0.33677 0.01681 0.30894
 C340 C 0.30447 0.01830 0.33484
 C341 C 0.29887 -0.02915 0.33187
 C342 C 0.33250 -0.03203 0.30727
 C343 C 0.35195 0.03027 0.32034
 C344 C 0.36779 0.04270 0.30912
 C345 C 0.36846 0.04226 0.28628
 C346 C 0.35340 0.02852 0.27484
 C347 C 0.33764 0.01592 0.28612
 C348 C 0.30431 0.01600 0.35757
 C349 C 0.28971 0.02862 0.37021
 C350 C 0.27508 0.04372 0.36026
 C351 C 0.27531 0.04595 0.33753
 C352 C 0.29011 0.03356 0.32493
 C353 C 0.27642 -0.02397 0.32784
 C354 C 0.25953 -0.03383 0.34011
 C355 C 0.26478 -0.04935 0.35628
 C356 C 0.28729 -0.05485 0.35996
 C357 C 0.30415 -0.04492 0.34775
 C358 C 0.32370 -0.04810 0.29309
 C359 C 0.33781 -0.06208 0.28140
 C360 C 0.36113 -0.06028 0.28344
 C361 C 0.36993 -0.04433 0.29802
 C362 C 0.35574 -0.03053 0.30991
 H363 H 0.35153 0.03112 0.33796
 H364 H 0.37928 0.05303 0.31830
 H365 H 0.35380 0.02729 0.25727
 H366 H 0.32597 0.00566 0.27708
 H367 H 0.31536 0.00432 0.36545
 H368 H 0.28955 0.02616 0.38767
 H369 H 0.29006 0.03552 0.30739
 H370 H 0.27203 -0.01205 0.31542
 H371 H 0.24234 -0.02929 0.33701
 H372 H 0.29203 -0.06626 0.37270
 H373 H 0.32140 -0.04905 0.35111
 H374 H 0.30582 -0.04979 0.29101
 H375 H 0.33038 -0.07424 0.27053
 H376 H 0.38764 -0.04267 0.30092
 H377 H 0.36292 -0.01887 0.32141
 H378 H 0.26408 0.05738 0.32952
 C379 C 0.67408 -0.00918 0.67421
 C380 C 0.67429 0.01333 0.67505
 C381 C 0.66119 0.02520 0.69181
 C382 C 0.68706 0.02736 0.65955
 C383 C 0.68849 -0.02202 0.65914
 C384 C 0.65885 -0.02199 0.68846
 C385 C 0.64164 0.03638 0.68592
 C386 C 0.62953 0.04804 0.70158
 C387 C 0.63707 0.04899 0.72329
 C388 C 0.65679 0.03797 0.72907
 C389 C 0.66864 0.02592 0.71348
 C390 C 0.68510 0.02442 0.63689
 C391 C 0.69609 0.03876 0.62257
 C392 C 0.70907 0.05643 0.63068
 C393 C 0.71081 0.05941 0.65330
 C394 C 0.70000 0.04503 0.66756
 C395 C 0.71164 -0.01845 0.65839
 C396 C 0.72499 -0.03074 0.64414
 C397 C 0.71543 -0.04707 0.63054
 C398 C 0.69228 -0.05059 0.63142
 C399 C 0.67899 -0.03834 0.64566
 C400 C 0.66738 -0.03460 0.70567
 C401 C 0.65298 -0.04634 0.71938
 C402 C 0.62966 -0.04586 0.71590
 C403 C 0.62137 -0.03343 0.69828
 C404 C 0.63577 -0.02152 0.68482
 H405 H 0.63582 0.03605 0.66919
 H406 H 0.61462 0.05678 0.69660
 H407 H 0.66294 0.03862 0.74568
 H408 H 0.68382 0.01748 0.71818
 H409 H 0.67466 0.01136 0.63027
 H410 H 0.69379 0.03632 0.60524
 H411 H 0.70164 0.04781 0.68493
 H412 H 0.71938 -0.00612 0.66883
 H413 H 0.74264 -0.02708 0.64368
 H414 H 0.68444 -0.06296 0.62110
 H415 H 0.66118 -0.04142 0.64597
 H416 H 0.68520 -0.03520 0.70858
 H417 H 0.66041 -0.05601 0.73225
 H418 H 0.60361 -0.03275 0.69495
 H419 H 0.62894 -0.01197 0.67148
 H420 H 0.72055 0.07297 0.65998
 C421 C 0.33354 1.00788 0.66308
 C422 C 0.33542 0.98546 0.66163
 C423 C 0.35089 0.97284 0.67579
 C424 C 0.32159 0.97220 0.64623
 C425 C 0.31607 1.02004 0.65083
 C426 C 0.34866 1.02137 0.67712
 C427 C 0.36606 0.95801 0.66642
 C428 C 0.37982 0.94507 0.67958
 C429 C 0.37865 0.94664 0.70237
 C430 C 0.36333 0.96147 0.71176
 C431 C 0.34958 0.97444 0.69856
 C432 C 0.32236 0.97605 0.62370
 C433 C 0.30965 0.96303 0.60939
 C434 C 0.29582 0.94612 0.61736
 C435 C 0.29536 0.94210 0.63992
 C436 C 0.30818 0.95499 0.65418
 C437 C 0.29343 1.01454 0.65308
 C438 C 0.27717 1.02603 0.64138
 C439 C 0.28318 1.04347 0.62753
 C440 C 0.30589 1.04907 0.62542
 C441 C 0.32214 1.03753 0.63710
 C442 C 0.33961 1.03621 0.69231
 C443 C 0.35355 1.04928 0.70539
 C444 C 0.37689 1.04778 0.70350
 C445 C 0.38590 1.03321 0.68798
 C446 C 0.37193 1.02012 0.67491
 H447 H 0.36717 0.95641 0.64887
 H448 H 0.39135 0.93369 0.67192
 H449 H 0.36136 0.96271 0.72922
 H450 H 0.33756 0.98538 0.70610
 H451 H 0.33294 0.98900 0.61723
 H452 H 0.31050 0.96625 0.59206
 H453 H 0.30759 0.95160 0.67148
 H454 H 0.28837 1.00134 0.66391
 H455 H 0.25981 1.02137 0.64323
 H456 H 0.31126 1.06196 0.61444
 H457 H 0.33954 1.04200 0.63516
 H458 H 0.32170 1.03763 0.69407
 H459 H 0.34590 1.06078 0.71663
 H460 H 0.40380 1.03191 0.68601
 H461 H 0.37926 1.00912 0.66297
 H462 H 0.28546 0.92876 0.64658
 C463 C 0.67972 1.00996 0.32896
 C464 C 0.67798 0.98747 0.32814
 C465 C 0.66172 0.97613 0.31360
 C466 C 0.69228 0.97287 0.34173
 C467 C 0.69590 1.02119 0.34369
 C468 C 0.66558 1.02459 0.31524
 C469 C 0.63877 0.98061 0.31475
 C470 C 0.62385 0.96984 0.30069
 C471 C 0.63155 0.95412 0.28561
 C472 C 0.65453 0.94961 0.28460
 C473 C 0.66942 0.96042 0.29857
 C474 C 0.68224 0.95745 0.35563
 C475 C 0.69529 0.94371 0.36872
 C476 C 0.71867 0.94510 0.36821
 C477 C 0.72877 0.96016 0.35378
 C478 C 0.71566 0.97387 0.34062
 C479 C 0.71184 1.03556 0.33489
 C480 C 0.72764 1.04586 0.34829
 C481 C 0.72772 1.04215 0.37101
 C482 C 0.71145 1.02786 0.37971
 C483 C 0.69561 1.01764 0.36625
 C484 C 0.66530 1.02273 0.29242
 C485 C 0.65168 1.03657 0.27988
 C486 C 0.63816 1.05261 0.29000
 C487 C 0.63895 1.05471 0.31278
 C488 C 0.65252 1.04090 0.32526
 H489 H 0.63246 0.99243 0.32649
 H490 H 0.60623 0.97364 0.30172
 H491 H 0.66116 0.93810 0.27276
 H492 H 0.68707 0.95679 0.29743
 H493 H 0.66423 0.95625 0.35655
 H494 H 0.68707 0.93213 0.37949
 H495 H 0.72374 0.98524 0.32954
 H496 H 0.71229 1.03849 0.31750
 H497 H 0.73978 1.05633 0.34044
 H498 H 0.71087 1.02461 0.39706
 H499 H 0.68319 1.00685 0.37340
 H500 H 0.67569 1.01061 0.28433
 H501 H 0.65214 1.03486 0.26236
 H502 H 0.62889 1.06703 0.32101
 H503 H 0.65265 1.04276 0.34282
 H504 H 0.74670 0.96119 0.35226
 O505 O 0.88547 0.85078 0.48321
 O506 O 0.85571 0.88306 0.52500
 O507 O 0.88556 0.85155 0.52523
 O508 O 0.85579 0.88233 0.48250
 O509 O 0.82880 0.85738 0.48271
 O510 O 0.85859 0.82657 0.52567
 O511 O 0.82869 0.85815 0.52523
 O512 O 0.85856 0.82572 0.48350
 Cu513 Cu 0.87325 0.86951 0.50398
 Cu514 Cu 0.84089 0.83951 0.50431
 C515 C 0.87729 0.83257 0.47653
 C516 C 0.83711 0.87618 0.53217
 C517 C 0.87739 0.83362 0.53242
 C518 C 0.83725 0.87515 0.47533
 O519 O 0.17462 0.13820 0.51907
 O520 O 0.13735 0.16020 0.47665
 O521 O 0.17357 0.13602 0.47686
 O522 O 0.13875 0.16203 0.51901
 O523 O 0.15981 0.19332 0.51650
 O524 O 0.19469 0.16598 0.47523
 O525 O 0.15846 0.19009 0.47435
 O526 O 0.19524 0.16848 0.51739
 Cu527 Cu 0.15404 0.14617 0.49798
 Cu528 Cu 0.17904 0.18241 0.49558
 C529 C 0.19127 0.14957 0.52546
 C530 C 0.14146 0.17898 0.46839
 C531 C 0.19026 0.14635 0.46921
 C532 C 0.14266 0.18282 0.52590
 O533 O 0.12136 0.84818 0.52020
 O534 O 0.15758 0.86929 0.47640
 O535 O 0.12186 0.84488 0.47797
 O536 O 0.15632 0.87381 0.51867
 O537 O 0.17842 0.84472 0.52118
 O538 O 0.14289 0.81509 0.48119
 O539 O 0.17866 0.83949 0.47918
 O540 O 0.14334 0.81910 0.52344
 Cu541 Cu 0.13715 0.86203 0.49802
 Cu542 Cu 0.16297 0.82662 0.50159
 C543 C 0.12627 0.82997 0.52927
 C544 C 0.17423 0.85787 0.47030
 C545 C 0.12636 0.82508 0.47271
 C546 C 0.17330 0.86435 0.52672
 O547 O 0.86046 0.16591 0.52499
 O548 O 0.83799 0.13745 0.47623
 O549 O 0.86766 0.16857 0.48345
 O550 O 0.83238 0.13347 0.51784
 O551 O 0.80503 0.15779 0.51562
 O552 O 0.84089 0.19353 0.48137
 O553 O 0.81146 0.16266 0.47393
 O554 O 0.83307 0.19021 0.52292
 Cu555 Cu 0.85234 0.14888 0.50083
 Cu556 Cu 0.81989 0.17851 0.49828
 C557 C 0.85057 0.18304 0.53213
 C558 C 0.82078 0.14529 0.46687
 C559 C 0.86048 0.18703 0.47668
 C560 C 0.81270 0.13944 0.52244
 O561 O 0.48035 0.87247 0.84211
 O562 O 0.52039 0.83801 0.87187
 O563 O 0.52374 0.87149 0.84494
 O564 O 0.47746 0.83797 0.86749
 O565 O 0.47997 0.81533 0.83927
 O566 O 0.52531 0.84901 0.81655
 O567 O 0.52316 0.81563 0.84347
 O568 O 0.48222 0.84978 0.81389
 Cu569 Cu 0.50032 0.85729 0.85941
 Cu570 Cu 0.50290 0.83016 0.82548
 C571 C 0.47448 0.86707 0.82296
 C572 C 0.52839 0.82087 0.86291
 C573 C 0.53213 0.86610 0.82668
 C574 C 0.47105 0.82075 0.85722
 O575 O 0.52080 0.16669 0.14013
 O576 O 0.47681 0.13163 0.16326
 O577 O 0.47763 0.16814 0.14077
 O578 O 0.52026 0.13040 0.16319
 O579 O 0.52125 0.15016 0.19351
 O580 O 0.47905 0.18797 0.17105
 O581 O 0.47784 0.15145 0.19355
 O582 O 0.52235 0.18627 0.17057
 Cu583 Cu 0.49879 0.14720 0.14880
 Cu584 Cu 0.50021 0.17091 0.18524
 C585 C 0.52893 0.18253 0.15127
 C586 C 0.46983 0.13556 0.18235
 C587 C 0.47125 0.18461 0.15207
 C588 C 0.52797 0.13385 0.18221
 O589 O 0.47365 0.15020 0.87542
 O590 O 0.51561 0.11723 0.84621
 O591 O 0.51711 0.14727 0.87719
 O592 O 0.47264 0.12052 0.84480
 O593 O 0.47580 0.14657 0.81983
 O594 O 0.51997 0.17361 0.85251
 O595 O 0.51899 0.14374 0.82174
 O596 O 0.47677 0.17665 0.85086
 Cu597 Cu 0.49455 0.13123 0.86345
 Cu598 Cu 0.49816 0.16281 0.83377
 C599 C 0.46808 0.16903 0.86814
 C600 C 0.52422 0.12473 0.82887
 C601 C 0.52600 0.16508 0.87046
 C602 C 0.46685 0.12882 0.82669
 O603 O 0.52807 0.85644 0.17357
 O604 O 0.48266 0.83338 0.13986
 O605 O 0.48566 0.86313 0.17061
 O606 O 0.52556 0.82681 0.14254
 O607 O 0.52034 0.80105 0.16746
 O608 O 0.47959 0.83701 0.19500
 O609 O 0.47756 0.80695 0.16412
 O610 O 0.52226 0.83056 0.19826
 Cu611 Cu 0.50606 0.84750 0.15411
 Cu612 Cu 0.49928 0.81626 0.18366
 C613 C 0.53267 0.84760 0.19179
 C614 C 0.47256 0.81608 0.14615
 C615 C 0.47602 0.85635 0.18771
 C616 C 0.52982 0.80780 0.15026
 O617 O 0.86927 0.51932 0.83309
 O618 O 0.84566 0.47754 0.87032
 O619 O 0.87228 0.47655 0.83700
 O620 O 0.84383 0.52046 0.86749
 O621 O 0.81410 0.51659 0.84641
 O622 O 0.84329 0.47355 0.81483
 O623 O 0.81669 0.47390 0.84823
 O624 O 0.83941 0.51628 0.81207
 Cu625 Cu 0.86074 0.49885 0.85414
 Cu626 Cu 0.82543 0.49473 0.82820
 C627 C 0.85825 0.52490 0.81625
 C628 C 0.82705 0.46862 0.86551
 C629 C 0.86276 0.46767 0.82068
 C630 C 0.82406 0.52582 0.86236
 O631 O 0.13468 0.52254 0.17202
 O632 O 0.16038 0.47790 0.13955
 O633 O 0.13592 0.47970 0.17464
 O634 O 0.15862 0.52087 0.13647
 O635 O 0.18939 0.52332 0.15624
 O636 O 0.16636 0.48256 0.19485
 O637 O 0.19095 0.48049 0.15960
 O638 O 0.16555 0.52543 0.19161
 Cu639 Cu 0.14435 0.49999 0.15365
 Cu640 Cu 0.18113 0.50315 0.17757
 C641 C 0.14573 0.53149 0.18744
 C642 C 0.18011 0.47171 0.14396
 C643 C 0.14713 0.47434 0.19140
 C644 C 0.17790 0.52900 0.13975
 O645 O 0.86266 0.47396 0.15906
 O646 O 0.84464 0.52065 0.12463
 O647 O 0.87120 0.51593 0.15824
 O648 O 0.83653 0.47854 0.12485
 O649 O 0.80827 0.48340 0.14736
 O650 O 0.84241 0.52252 0.17966
 O651 O 0.81571 0.52580 0.14622
 O652 O 0.83440 0.48026 0.18121
 Cu653 Cu 0.85662 0.49664 0.13948
 Cu654 Cu 0.82232 0.50358 0.16580
 C655 C 0.85178 0.46948 0.17624
 C656 C 0.82688 0.53096 0.12945
 C657 C 0.86274 0.52556 0.17462
 C658 C 0.81653 0.47465 0.13036
 O659 O 0.17171 0.52391 0.86155
 O660 O 0.13277 0.48315 0.83768
 O661 O 0.16312 0.48233 0.86825
 O662 O 0.14116 0.52475 0.83096
 O663 O 0.16683 0.51596 0.80672
 O664 O 0.18846 0.47322 0.84379
 O665 O 0.15810 0.47433 0.81312
 O666 O 0.19714 0.51471 0.83721
 Cu667 Cu 0.14964 0.50448 0.85205
 Cu668 Cu 0.18016 0.49361 0.82275
 C669 C 0.19114 0.52607 0.85358
 C670 C 0.13876 0.47194 0.82119
 C671 C 0.17966 0.47068 0.86243
 C672 C 0.15017 0.52748 0.81245
 C673 C 0.28022 0.39082 0.06744
 C674 C 0.25966 0.38651 0.07727
 C675 C 0.24794 0.40279 0.09124
 C676 C 0.22474 0.40097 0.09383
 C677 C 0.21314 0.41594 0.10701
 C678 C 0.22461 0.43298 0.11806
 C679 C 0.24788 0.43441 0.11593
 C680 C 0.25944 0.41956 0.10264
 C681 C 0.21310 0.44917 0.13230
 C682 C 0.19047 0.45438 0.13046
 H683 H 0.25112 0.37112 0.07367
 H684 H 0.21554 0.38795 0.08555
 H685 H 0.19532 0.41382 0.10876
 H686 H 0.25716 0.44715 0.12455
 H687 H 0.27740 0.42105 0.10169
 H688 H 0.22321 0.45839 0.14389
 H689 H 0.28738 0.40723 0.06881
 H690 H 0.18027 0.44661 0.11801
 C691 C 0.72863 0.62292 0.06420
 C692 C 0.75076 0.61688 0.06030
 C693 C 0.76387 0.60332 0.07578
 C694 C 0.78149 0.59037 0.06788
 C695 C 0.79355 0.57661 0.08189
 C696 C 0.78835 0.57577 0.10422
 C697 C 0.77117 0.58926 0.11219
 C698 C 0.75915 0.60300 0.09820
 C699 C 0.79927 0.56018 0.11946
 C700 C 0.81889 0.54864 0.11499
 H701 H 0.75828 0.62063 0.04475
 H702 H 0.78555 0.59044 0.05069
 H703 H 0.80639 0.56626 0.07495
 H704 H 0.76690 0.58904 0.12933
 H705 H 0.74625 0.61335 0.10507
 H706 H 0.79108 0.55729 0.13491
 H707 H 0.72048 0.61680 0.07869
 H708 H 0.82831 0.55198 0.10038
 C709 C 0.72589 0.38789 0.93903
 C710 C 0.74782 0.38393 0.93252
 C711 C 0.76012 0.39943 0.91835
 C712 C 0.78349 0.40036 0.91952
 C713 C 0.79547 0.41478 0.90611
 C714 C 0.78418 0.42834 0.89113
 C715 C 0.76087 0.42694 0.88960
 C716 C 0.74893 0.41270 0.90308
 C717 C 0.79592 0.44367 0.87637
 C718 C 0.81724 0.45220 0.88027
 H719 H 0.75659 0.36960 0.93865
 H720 H 0.79248 0.38998 0.93090
 H721 H 0.81347 0.41492 0.90728
 H722 H 0.75183 0.43695 0.87794
 H723 H 0.73100 0.41184 0.90118
 H724 H 0.78671 0.44957 0.86232
 H725 H 0.71834 0.40369 0.93528
 H726 H 0.82645 0.44771 0.89478
 C727 C 0.26167 0.62843 0.93829
 C728 C 0.26589 0.60714 0.93042
 C729 C 0.24940 0.59412 0.91769
 C730 C 0.25700 0.57706 0.90407
 C731 C 0.24193 0.56408 0.89216
 C732 C 0.21883 0.56785 0.89372
 C733 C 0.21120 0.58465 0.90764
 C734 C 0.22629 0.59770 0.91948
 C735 C 0.20225 0.55391 0.88205
 C736 C 0.20728 0.54147 0.86352
 H737 H 0.28233 0.60009 0.93261
 H738 H 0.27469 0.57372 0.90270
 H739 H 0.24848 0.55080 0.88224
 H740 H 0.19349 0.58762 0.90944
 H741 H 0.21972 0.61017 0.93037
 H742 H 0.18534 0.55358 0.88823
 H743 H 0.24629 0.63657 0.93372
 H744 H 0.22361 0.54262 0.85617
 C745 C 0.06113 0.27456 0.38621
 C746 C 0.06712 0.25227 0.38446
 C747 C 0.08285 0.24144 0.39974
 C748 C 0.08221 0.21833 0.40193
 C749 C 0.09698 0.20752 0.41600
 C750 C 0.11280 0.21969 0.42816
 C751 C 0.11381 0.24272 0.42550
 C752 C 0.09903 0.25351 0.41148
 C753 C 0.12870 0.20917 0.44347
 C754 C 0.12604 0.18791 0.45194
 H755 H 0.06016 0.24220 0.37151
 H756 H 0.07018 0.20860 0.39277
 H757 H 0.09609 0.18969 0.41697
 H758 H 0.12608 0.25245 0.43434
 H759 H 0.10074 0.27122 0.40963
 H760 H 0.14259 0.21915 0.44928
 H761 H 0.06782 0.28433 0.39952
 H762 H 0.11180 0.17786 0.44743
 C763 C 0.06544 0.73216 0.62339
 C764 C 0.06112 0.75417 0.61795
 C765 C 0.07576 0.76694 0.60320
 C766 C 0.06666 0.78429 0.59095
 C767 C 0.07990 0.79611 0.57627
 C768 C 0.10263 0.79089 0.57379
 C769 C 0.11181 0.77391 0.58650
 C770 C 0.09860 0.76215 0.60115
 C771 C 0.11713 0.80179 0.55753
 C772 C 0.11177 0.82126 0.54652
 H773 H 0.04575 0.76182 0.62322
 H774 H 0.04913 0.78836 0.59233
 H775 H 0.07204 0.80882 0.56660
 H776 H 0.12929 0.76964 0.58503
 H777 H 0.10640 0.74942 0.61089
 H778 H 0.13295 0.79394 0.55400
 H779 H 0.07939 0.72385 0.61580
 H780 H 0.09679 0.83035 0.55038
 C781 C 0.92938 0.73060 0.38129
 C782 C 0.93618 0.73877 0.40156
 C783 C 0.92228 0.75408 0.41460
 C784 C 0.93274 0.76915 0.42879
 C785 C 0.92011 0.78392 0.44123
 C786 C 0.89667 0.78372 0.43991
 C787 C 0.88618 0.76821 0.42619
 C788 C 0.89882 0.75361 0.41355
 C789 C 0.88276 0.79861 0.45341
 C790 C 0.89023 0.81913 0.46105
 H791 H 0.95290 0.73529 0.40731
 H792 H 0.95077 0.76958 0.43015
 H793 H 0.92876 0.79509 0.45220
 H794 H 0.86815 0.76742 0.42521
 H795 H 0.89017 0.74173 0.40332
 H796 H 0.86594 0.79332 0.45724
 H797 H 0.91384 0.73642 0.37435
 H798 H 0.90636 0.82538 0.45608
 C799 C 0.94477 0.25400 0.62477
 C800 C 0.92252 0.25421 0.61797
 C801 C 0.91219 0.23666 0.60436
 C802 C 0.88884 0.23511 0.60363
 C803 C 0.87830 0.21987 0.58984
 C804 C 0.89095 0.20611 0.57612
 C805 C 0.91431 0.20717 0.57732
 C806 C 0.92488 0.22236 0.59120
 C807 C 0.88041 0.19119 0.55986
 C808 C 0.85943 0.19539 0.55090
 H809 H 0.91188 0.26761 0.62331
 H810 H 0.87868 0.24587 0.61366
 H811 H 0.86028 0.21904 0.58998
 H812 H 0.92442 0.19673 0.56692
 H813 H 0.94289 0.22331 0.59093
 H814 H 0.89038 0.17794 0.55304
 H815 H 0.95481 0.23941 0.62200
 H816 H 0.84990 0.20952 0.55634
 C817 C 0.38510 0.05631 0.27518
 C818 C 0.38238 0.06421 0.25398
 C819 C 0.39831 0.07967 0.24366
 C820 C 0.39915 0.08068 0.22086
 C821 C 0.41394 0.09510 0.21050
 C822 C 0.42823 0.10882 0.22283
 C823 C 0.42685 0.10834 0.24562
 C824 C 0.41206 0.09394 0.25597
 C825 C 0.44456 0.12395 0.21262
 C826 C 0.45244 0.12121 0.19144
 H827 H 0.36813 0.05893 0.24440
 H828 H 0.38841 0.07019 0.21100
 H829 H 0.41383 0.09556 0.19290
 H830 H 0.43735 0.11905 0.25549
 H831 H 0.41124 0.09439 0.27356
 H832 H 0.45167 0.13700 0.22265
 H833 H 0.39954 0.06140 0.28458
 H834 H 0.44658 0.10764 0.18140
 C835 C 0.62519 0.06218 0.73984
 C836 C 0.60201 0.06374 0.74015
 C837 C 0.59009 0.07756 0.75616
 C838 C 0.56936 0.07044 0.76402
 C839 C 0.55743 0.08353 0.77870
 C840 C 0.56581 0.10425 0.78533
 C841 C 0.58634 0.11157 0.77713
 C842 C 0.59855 0.09821 0.76287
 C843 C 0.55274 0.11891 0.79968
 C844 C 0.53973 0.11068 0.81660
 H845 H 0.59222 0.05354 0.72911
 H846 H 0.56242 0.05471 0.75880
 H847 H 0.54135 0.07773 0.78434
 H848 H 0.59292 0.12762 0.78180
 H849 H 0.61428 0.10431 0.75664
 H850 H 0.55365 0.13661 0.79706
 H851 H 0.63486 0.06986 0.75278
 H852 H 0.54059 0.09328 0.82071
 C853 C 0.39288 0.93184 0.71562
 C854 C 0.39770 0.93549 0.73762
 C855 C 0.41168 0.92036 0.75074
 C856 C 0.42222 0.92860 0.76954
 C857 C 0.43555 0.91486 0.78238
 C858 C 0.43832 0.89242 0.77682
 C859 C 0.42769 0.88416 0.75807
 C860 C 0.41439 0.89791 0.74522
 C861 C 0.45267 0.87737 0.78965
 C862 C 0.45884 0.88144 0.81122
 H863 H 0.39219 0.95062 0.74535
 H864 H 0.42039 0.94582 0.77415
 H865 H 0.44395 0.92209 0.79631
 H866 H 0.42955 0.86695 0.75345
 H867 H 0.40603 0.89074 0.73122
 H868 H 0.45835 0.86230 0.78185
 H869 H 0.40062 0.91804 0.70733
 H870 H 0.45239 0.89566 0.81986
 C871 C 0.61542 0.94316 0.27078
 C872 C 0.61920 0.92224 0.26179
 C873 C 0.60349 0.91130 0.24656
 C874 C 0.60363 0.88813 0.24494
 C875 C 0.58915 0.87720 0.23059
 C876 C 0.57436 0.88932 0.21743
 C877 C 0.57470 0.91251 0.21856
 C878 C 0.58903 0.92343 0.23306
 C879 C 0.55863 0.87835 0.20224
 C880 C 0.54998 0.85725 0.20592
 H881 H 0.63362 0.91289 0.26704
 H882 H 0.61490 0.87845 0.25490
 H883 H 0.58984 0.85934 0.22964
 H884 H 0.56368 0.92219 0.20834
 H885 H 0.58900 0.94134 0.23335
 H886 H 0.55223 0.88791 0.18868
 H887 H 0.59963 0.95130 0.26788
 H888 H 0.55467 0.84819 0.22039
 C889 C 0.39236 0.27369 0.94041
 C890 C 0.38588 0.25641 0.92672
 C891 C 0.40232 0.24341 0.91422
 C892 C 0.39648 0.22218 0.90678
 C893 C 0.41175 0.20941 0.89508
 C894 C 0.43302 0.21786 0.89023
 C895 C 0.43867 0.23931 0.89715
 C896 C 0.42357 0.25190 0.90928
 C897 C 0.44935 0.20478 0.87766
 C898 C 0.45130 0.18193 0.88004
 H899 H 0.36850 0.25146 0.92588
 H900 H 0.38012 0.21538 0.91020
 H901 H 0.40677 0.19310 0.88952
 H902 H 0.45491 0.24621 0.89342
 H903 H 0.42843 0.26835 0.91456
 H904 H 0.46122 0.21353 0.86754
 H905 H 0.38308 0.28039 0.94675
 H906 H 0.44119 0.17342 0.89197
 C907 C 0.62614 0.73152 0.92683
 C908 C 0.60361 0.72899 0.92169
 C909 C 0.59172 0.74459 0.90742
 C910 C 0.56970 0.75036 0.91242
 C911 C 0.55809 0.76528 0.89933
 C912 C 0.56814 0.77420 0.88066
 C913 C 0.58987 0.76782 0.87518
 C914 C 0.60175 0.75335 0.88865
 C915 C 0.55587 0.78984 0.86672
 C916 C 0.54308 0.80665 0.87585
 H917 H 0.59393 0.71639 0.92992
 H918 H 0.56161 0.74357 0.92667
 H919 H 0.54113 0.76960 0.90361
 H920 H 0.59777 0.77433 0.86070
 H921 H 0.61858 0.74873 0.88422
 H922 H 0.55749 0.78858 0.84918
 H923 H 0.63507 0.74595 0.92104
 H924 H 0.54355 0.80926 0.89332
 C925 C 0.38754 0.72554 0.06455
 C926 C 0.38252 0.74294 0.07881
 C927 C 0.39966 0.75355 0.09271
 C928 C 0.39781 0.77614 0.09769
 C929 C 0.41361 0.78651 0.11109
 C930 C 0.43130 0.77431 0.12008
 C931 C 0.43280 0.75159 0.11557
 C932 C 0.41724 0.74130 0.10185
 C933 C 0.44800 0.78466 0.13464
 C934 C 0.45503 0.80652 0.13223
 H935 H 0.36610 0.75029 0.07881
 H936 H 0.38418 0.78580 0.09109
 H937 H 0.41169 0.80394 0.11474
 H938 H 0.44614 0.74182 0.12257
 H939 H 0.41871 0.72371 0.09880
 H940 H 0.45622 0.77429 0.14658
 H941 H 0.40495 0.72116 0.06260
 H942 H 0.44868 0.81640 0.11890
 C943 C 0.60361 0.26852 0.05708
 C944 C 0.60901 0.25841 0.07667
 C945 C 0.59360 0.24290 0.08748
 C946 C 0.59813 0.23626 0.10890
 C947 C 0.58400 0.22142 0.11950
 C948 C 0.56514 0.21282 0.10872
 C949 C 0.56084 0.21911 0.08714
 C950 C 0.57480 0.23418 0.07665
 C951 C 0.54984 0.19703 0.11931
 C952 C 0.54589 0.19705 0.14167
 H953 H 0.62483 0.26216 0.08444
 H954 H 0.61266 0.24260 0.11748
 H955 H 0.58809 0.21641 0.13595
 H956 H 0.54650 0.21251 0.07846
 H957 H 0.57096 0.23880 0.06003
 H958 H 0.53997 0.18623 0.10890
 H959 H 0.61298 0.27674 0.05075
 H960 H 0.55411 0.20902 0.15215
 C961 C 0.26552 0.05483 0.61495
 C962 C 0.26799 0.07617 0.60660
 C963 C 0.25089 0.08705 0.59289
 C964 C 0.25121 0.11018 0.59103
 C965 C 0.23590 0.12103 0.57758
 C966 C 0.22007 0.10886 0.56548
 C967 C 0.21959 0.08574 0.56755
 C968 C 0.23491 0.07490 0.58097
 C969 C 0.20391 0.11946 0.55050
 C970 C 0.20656 0.14072 0.54204
 H971 H 0.28266 0.08573 0.61091
 H972 H 0.26334 0.11992 0.60006
 H973 H 0.23652 0.13889 0.57694
 H974 H 0.20759 0.07595 0.55841
 H975 H 0.23447 0.05702 0.58147
 H976 H 0.19001 0.10948 0.54474
 H977 H 0.24970 0.04635 0.61307
 H978 H 0.22075 0.15080 0.54660
 C979 C 0.74329 0.05202 0.38533
 C980 C 0.75918 0.06792 0.37938
 C981 C 0.77441 0.07848 0.39534
 C982 C 0.78148 0.10029 0.39168
 C983 C 0.79505 0.11118 0.40685
 C984 C 0.80200 0.10033 0.42591
 C985 C 0.79597 0.07813 0.42902
 C986 C 0.78216 0.06729 0.41394
 C987 C 0.81489 0.11203 0.44299
 C988 C 0.81100 0.13423 0.44778
 H989 H 0.75946 0.07455 0.36308
 H990 H 0.77606 0.10911 0.37726
 H991 H 0.80002 0.12810 0.40367
 H992 H 0.80144 0.06935 0.44344
 H993 H 0.77767 0.05020 0.41686
 H994 H 0.82555 0.10245 0.45367
 H995 H 0.74235 0.04758 0.40239
 H996 H 0.79852 0.14326 0.43863
 C997 C 0.72868 0.93960 0.61490
 C998 C 0.75181 0.93674 0.61629
 C999 C 0.76484 0.92313 0.60069
 C1000 C 0.78797 0.92657 0.59927
 C1001 C 0.80096 0.91405 0.58491
 C1002 C 0.79105 0.89772 0.57160
 C1003 C 0.76801 0.89394 0.57338
 C1004 C 0.75502 0.90645 0.58774
 C1005 C 0.80404 0.88402 0.55604
 C1006 C 0.82531 0.88961 0.54854
 H1007 H 0.76104 0.94499 0.62914
 H1008 H 0.79604 0.93906 0.60928
 H1009 H 0.81873 0.91709 0.58463
 H1010 H 0.75997 0.88125 0.56358
 H1011 H 0.73744 0.90262 0.58882
 H1012 H 0.79603 0.86937 0.54938
 H1013 H 0.71952 0.93146 0.60194
 H1014 H 0.83334 0.90470 0.55396
 C1015 C 0.24665 0.94134 0.36973
 C1016 C 0.24838 0.92091 0.38010
 C1017 C 0.23124 0.91215 0.39505
 C1018 C 0.23034 0.88928 0.39872
 C1019 C 0.21520 0.88043 0.41357
 C1020 C 0.20092 0.89439 0.42546
 C1021 C 0.20151 0.91723 0.42148
 C1022 C 0.21659 0.92609 0.40652
 C1023 C 0.18547 0.88579 0.44220
 C1024 C 0.18889 0.86573 0.45286
 H1025 H 0.26255 0.91043 0.37660
 H1026 H 0.24142 0.87821 0.39006
 H1027 H 0.21474 0.86266 0.41554
 H1028 H 0.19067 0.92833 0.43040
 H1029 H 0.21716 0.94386 0.40451
 H1030 H 0.17175 0.89622 0.44728
 H1031 H 0.23123 0.95057 0.37081
 H1032 H 0.20320 0.85562 0.44900
 C1033 C 0.06153 0.39078 0.72249
 C1034 C 0.06530 0.38917 0.74492
 C1035 C 0.08120 0.40373 0.75674
 C1036 C 0.07824 0.40740 0.77913
 C1037 C 0.09314 0.42081 0.79083
 C1038 C 0.11141 0.43074 0.78030
 C1039 C 0.11470 0.42653 0.75806
 C1040 C 0.09978 0.41322 0.74636
 C1041 C 0.12757 0.44522 0.79187
 C1042 C 0.12282 0.45631 0.81128
 H1043 H 0.05634 0.37708 0.75444
 H1044 H 0.06429 0.39994 0.78758
 H1045 H 0.09045 0.42299 0.80811
 H1046 H 0.12886 0.43364 0.74965
 H1047 H 0.10316 0.41008 0.72934
 H1048 H 0.14341 0.44839 0.78400
 H1049 H 0.07005 0.40365 0.71352
 H1050 H 0.10665 0.45460 0.81885
 C1051 C 0.05154 0.61218 0.27016
 C1052 C 0.07007 0.61718 0.25716
 C1053 C 0.08079 0.60070 0.24266
 C1054 C 0.10342 0.60332 0.23740
 C1055 C 0.11408 0.58820 0.22366
 C1056 C 0.10222 0.57017 0.21474
 C1057 C 0.07944 0.56793 0.21947
 C1058 C 0.06881 0.58297 0.23334
 C1059 C 0.11292 0.55375 0.20018
 C1060 C 0.13568 0.54894 0.20096
 H1061 H 0.07813 0.63313 0.25842
 H1062 H 0.11292 0.61707 0.24404
 H1063 H 0.13146 0.59092 0.21982
 H1064 H 0.06984 0.55440 0.21252
 H1065 H 0.05117 0.58086 0.23637
 H1066 H 0.10226 0.54401 0.18952
 H1067 H 0.04571 0.59519 0.27020
 H1068 H 0.14632 0.55716 0.21278
 C1069 C 0.93773 0.37269 0.25171
 C1070 C 0.92139 0.38841 0.25584
 C1071 C 0.91060 0.40132 0.23834
 C1072 C 0.89397 0.41655 0.24396
 C1073 C 0.88371 0.42948 0.22802
 C1074 C 0.88984 0.42738 0.20600
 C1075 C 0.90657 0.41221 0.20037
 C1076 C 0.91680 0.39919 0.21635
 C1077 C 0.88007 0.44169 0.18889
 C1078 C 0.85950 0.45219 0.19122
 H1079 H 0.91632 0.39160 0.27248
 H1080 H 0.88907 0.41869 0.26081
 H1081 H 0.87150 0.44151 0.23321
 H1082 H 0.91179 0.41047 0.18357
 H1083 H 0.92969 0.38769 0.21149
 H1084 H 0.88961 0.44437 0.17417
 H1085 H 0.94359 0.36629 0.26191
 H1086 H 0.84909 0.44861 0.20513
 C1087 C 0.94352 0.62552 0.74353
 C1088 C 0.92816 0.60855 0.73906
 C1089 C 0.91824 0.59403 0.75590
 C1090 C 0.89944 0.58137 0.75020
 C1091 C 0.88968 0.56701 0.76517
 C1092 C 0.89842 0.56511 0.78639
 C1093 C 0.91747 0.57745 0.79201
 C1094 C 0.92734 0.59174 0.77695
 C1095 C 0.88869 0.54988 0.80269
 C1096 C 0.86713 0.54130 0.80097
 H1097 H 0.92255 0.60557 0.72259
 H1098 H 0.89230 0.58247 0.73399
 H1099 H 0.87563 0.55718 0.75975
 H1100 H 0.92480 0.57597 0.80810
 H1101 H 0.94229 0.60049 0.78187
 H1102 H 0.89880 0.54542 0.81667
 H1103 H 0.94804 0.62858 0.76035
 H1104 H 0.85623 0.54636 0.78785
 C1105 C 0.72314 0.60624 0.93751
 C1106 C 0.74317 0.61051 0.92674
 C1107 C 0.75489 0.59393 0.91324
 C1108 C 0.77773 0.59685 0.90924
 C1109 C 0.78936 0.58181 0.89625
 C1110 C 0.77828 0.56355 0.88688
 C1111 C 0.75531 0.56095 0.89038
 C1112 C 0.74370 0.57592 0.90350
 C1113 C 0.79007 0.54725 0.87309
 C1114 C 0.81278 0.54286 0.87536
 H1115 H 0.75126 0.62639 0.92902
 H1116 H 0.78663 0.61084 0.91619
 H1117 H 0.80689 0.58480 0.89331
 H1118 H 0.74635 0.54721 0.88304
 H1119 H 0.72595 0.57355 0.90559
 H1120 H 0.78027 0.53740 0.86177
 H1121 H 0.71652 0.58956 0.93767
 H1122 H 0.82248 0.55122 0.88783
 C1123 C 0.27767 0.38840 0.93892
 C1124 C 0.25471 0.38684 0.93504
 C1125 C 0.24299 0.40110 0.91910
 C1126 C 0.22012 0.40522 0.92177
 C1127 C 0.20858 0.41864 0.90703
 C1128 C 0.21974 0.42814 0.88921
 C1129 C 0.24242 0.42340 0.88616
 C1130 C 0.25395 0.41006 0.90091
 C1131 C 0.20844 0.44280 0.87334
 C1132 C 0.18887 0.45442 0.87780
 H1133 H 0.24471 0.37512 0.94402
 H1134 H 0.21120 0.39814 0.93540
 H1135 H 0.19094 0.42125 0.90956
 H1136 H 0.25132 0.43018 0.87237
 H1137 H 0.27131 0.40652 0.89774
 H1138 H 0.21679 0.44580 0.85799
 H1139 H 0.28713 0.40089 0.93034
 H1140 H 0.18080 0.45280 0.89344
 C1141 C 0.27475 0.61521 0.06309
 C1142 C 0.25153 0.61383 0.06551
 C1143 C 0.24065 0.59846 0.08106
 C1144 C 0.21843 0.59203 0.07739
 C1145 C 0.20756 0.57772 0.09179
 C1146 C 0.21871 0.56959 0.11036
 C1147 C 0.24080 0.57641 0.11420
 C1148 C 0.25164 0.59071 0.09983
 C1149 C 0.20822 0.55415 0.12616
 C1150 C 0.18687 0.54500 0.12395
 H1151 H 0.24061 0.62357 0.05534
 H1152 H 0.20948 0.59800 0.06323
 H1153 H 0.19049 0.57327 0.08816
 H1154 H 0.24975 0.57070 0.12847
 H1155 H 0.26845 0.59592 0.10377
 H1156 H 0.21811 0.54937 0.14019
 H1157 H 0.28483 0.60362 0.07223
 H1158 H 0.17641 0.54906 0.11018
 C1159 C 0.72730 0.37985 0.06093
 C1160 C 0.72424 0.40212 0.06637
 C1161 C 0.73988 0.41389 0.08096
 C1162 C 0.74743 0.43507 0.07530
 C1163 C 0.76214 0.44657 0.08899
 C1164 C 0.76890 0.43733 0.10892
 C1165 C 0.76086 0.41640 0.11488
 C1166 C 0.74675 0.40457 0.10081
 C1167 C 0.78368 0.44975 0.12384
 C1168 C 0.80269 0.46048 0.11628
 H1169 H 0.71165 0.41186 0.05819
 H1170 H 0.74212 0.44260 0.06016
 H1171 H 0.76785 0.46288 0.08427
 H1172 H 0.76574 0.40914 0.13028
 H1173 H 0.74079 0.38838 0.10564
 H1174 H 0.78005 0.44968 0.14112
 H1175 H 0.74249 0.37198 0.06661
 H1176 H 0.80767 0.45831 0.09945
 C1177 C 0.93584 0.73627 0.62770
 C1178 C 0.93926 0.74122 0.60570
 C1179 C 0.92466 0.75663 0.59362
 C1180 C 0.93389 0.76978 0.57716
 C1181 C 0.92054 0.78446 0.56540
 C1182 C 0.89755 0.78601 0.56967
 C1183 C 0.88818 0.77240 0.58570
 C1184 C 0.90163 0.75797 0.59773
 C1185 C 0.88294 0.80077 0.55681
 C1186 C 0.89057 0.82065 0.54805
 H1187 H 0.95402 0.73544 0.59742
 H1188 H 0.95152 0.76876 0.57347
 H1189 H 0.92816 0.79417 0.55264
 H1190 H 0.87045 0.77300 0.58897
 H1191 H 0.89390 0.74756 0.60990
 H1192 H 0.86571 0.79589 0.55429
 H1193 H 0.92255 0.74498 0.63601
 H1194 H 0.90718 0.82653 0.55203
 C1195 C 0.92839 0.27455 0.37955
 C1196 C 0.92994 0.27297 0.40227
 C1197 C 0.91392 0.25978 0.41523
 C1198 C 0.92138 0.24926 0.43423
 C1199 C 0.90681 0.23628 0.44656
 C1200 C 0.88432 0.23388 0.44030
 C1201 C 0.87663 0.24515 0.42181
 C1202 C 0.89130 0.25783 0.40925
 C1203 C 0.86863 0.22005 0.45297
 C1204 C 0.87554 0.20091 0.46366
 H1205 H 0.94417 0.27978 0.41085
 H1206 H 0.93862 0.25082 0.43939
 H1207 H 0.91311 0.22839 0.46113
 H1208 H 0.85929 0.24386 0.41688
 H1209 H 0.88485 0.26631 0.39507
 H1210 H 0.85107 0.22429 0.45283
 H1211 H 0.91522 0.26516 0.37161
 H1212 H 0.89267 0.19549 0.46208
 C1213 C 0.06176 0.28046 0.60880
 C1214 C 0.07625 0.26310 0.61376
 C1215 C 0.08917 0.25159 0.59677
 C1216 C 0.09309 0.22881 0.59870
 C1217 C 0.10520 0.21753 0.58274
 C1218 C 0.11408 0.22904 0.56487
 C1219 C 0.11064 0.25191 0.56327
 C1220 C 0.09817 0.26309 0.57898
 C1221 C 0.12737 0.21781 0.54796
 C1222 C 0.12683 0.19503 0.54520
 H1223 H 0.07693 0.25629 0.62999
 H1224 H 0.08651 0.21969 0.61243
 H1225 H 0.10781 0.19991 0.58457
 H1226 H 0.11755 0.26115 0.54975
 H1227 H 0.09590 0.28080 0.57741
 H1228 H 0.13725 0.22774 0.53693
 H1229 H 0.05915 0.28434 0.59172
 H1230 H 0.13454 0.18896 0.53575
 C1231 C 0.05892 0.72275 0.38475
 C1232 C 0.05783 0.74556 0.38878
 C1233 C 0.07261 0.75702 0.40466
 C1234 C 0.06518 0.77672 0.41431
 C1235 C 0.07858 0.78814 0.42928
 C1236 C 0.10000 0.78027 0.43466
 C1237 C 0.10743 0.76056 0.42498
 C1238 C 0.09398 0.74909 0.41004
 C1239 C 0.11480 0.79187 0.45047
 C1240 C 0.11192 0.81394 0.45663
 H1241 H 0.04490 0.75543 0.38137
 H1242 H 0.04879 0.78317 0.41047
 H1243 H 0.07182 0.80286 0.43676
 H1244 H 0.12383 0.75411 0.42882
 H1245 H 0.10057 0.73430 0.40250
 H1246 H 0.12885 0.78283 0.45711
 H1247 H 0.07068 0.71322 0.39427
 H1248 H 0.09878 0.82374 0.44943
 C1249 C 0.61432 0.94236 0.72885
 C1250 C 0.61949 0.93144 0.74834
 C1251 C 0.60276 0.91814 0.76034
 C1252 C 0.60447 0.91618 0.78308
 C1253 C 0.58912 0.90334 0.79472
 C1254 C 0.57195 0.89192 0.78371
 C1255 C 0.57055 0.89354 0.76094
 C1256 C 0.58568 0.90658 0.74937
 C1257 C 0.55574 0.87752 0.79513
 C1258 C 0.54967 0.88006 0.81696
 H1259 H 0.63568 0.93352 0.75588
 H1260 H 0.61769 0.92466 0.79186
 H1261 H 0.59106 0.90200 0.81219
 H1262 H 0.55768 0.88466 0.75204
 H1263 H 0.58426 0.90715 0.73180
 H1264 H 0.54708 0.86516 0.78541
 H1265 H 0.59702 0.94225 0.72366
 H1266 H 0.55671 0.89334 0.82668
 C1267 C 0.37453 0.92523 0.27117
 C1268 C 0.39773 0.92685 0.26921
 C1269 C 0.41075 0.91091 0.25612
 C1270 C 0.42996 0.91825 0.24532
 C1271 C 0.44247 0.90363 0.23264
 C1272 C 0.43615 0.88126 0.23080
 C1273 C 0.41739 0.87375 0.24222
 C1274 C 0.40468 0.88845 0.25464
 C1275 C 0.44934 0.86533 0.21786
 C1276 C 0.46114 0.87159 0.19934
 H1277 H 0.40660 0.94101 0.27570
 H1278 H 0.43517 0.93539 0.24656
 H1279 H 0.45729 0.90979 0.22465
 H1280 H 0.41248 0.85649 0.24138
 H1281 H 0.39036 0.88214 0.26336
 H1282 H 0.44927 0.84811 0.22273
 H1283 H 0.36619 0.91238 0.26182
 H1284 H 0.45979 0.88835 0.19330
 C1285 C 0.62351 0.06785 0.27761
 C1286 C 0.61651 0.06426 0.25611
 C1287 C 0.60117 0.07946 0.24445
 C1288 C 0.58864 0.07136 0.22675
 C1289 C 0.57362 0.08508 0.21568
 C1290 C 0.57101 0.10733 0.22201
 C1291 C 0.58381 0.11550 0.23948
 C1292 C 0.59884 0.10183 0.25048
 C1293 C 0.55461 0.12233 0.21158
 C1294 C 0.54476 0.11860 0.19122
 H1295 H 0.62109 0.04907 0.24792
 H1296 H 0.59014 0.05422 0.22172
 H1297 H 0.56380 0.07798 0.20260
 H1298 H 0.58222 0.13259 0.24464
 H1299 H 0.60868 0.10898 0.26353
 H1300 H 0.55038 0.13737 0.22030
 H1301 H 0.61687 0.08187 0.28645
 H1302 H 0.54950 0.10447 0.18144
 C1303 C 0.39222 0.06160 0.71688
 C1304 C 0.38626 0.07063 0.73704
 C1305 C 0.40158 0.08414 0.75069
 C1306 C 0.39765 0.08555 0.77318
 C1307 C 0.41174 0.09800 0.78669
 C1308 C 0.43008 0.10945 0.77793
 C1309 C 0.43357 0.10869 0.75534
 C1310 C 0.41954 0.09611 0.74183
 C1311 C 0.44569 0.12240 0.79180
 C1312 C 0.44976 0.11729 0.81362
 H1313 H 0.37020 0.06645 0.74392
 H1314 H 0.38369 0.07682 0.78036
 H1315 H 0.40803 0.09883 0.80391
 H1316 H 0.44736 0.11766 0.74814
 H1317 H 0.42265 0.09608 0.72448
 H1318 H 0.45561 0.13519 0.78415
 H1319 H 0.40918 0.06356 0.71119
 H1320 H 0.44143 0.10331 0.82101
 C1321 C 0.61178 0.73306 0.05144
 C1322 C 0.61554 0.74097 0.07256
 C1323 C 0.59972 0.75560 0.08411
 C1324 C 0.59953 0.75558 0.10697
 C1325 C 0.58486 0.76922 0.11845
 C1326 C 0.57020 0.78334 0.10722
 C1327 C 0.57087 0.78385 0.08439
 C1328 C 0.58538 0.77004 0.07290
 C1329 C 0.55451 0.79809 0.11880
 C1330 C 0.54586 0.79319 0.13930
 H1331 H 0.62988 0.73506 0.08159
 H1332 H 0.61070 0.74488 0.11598
 H1333 H 0.58535 0.76893 0.13607
 H1334 H 0.56001 0.79487 0.07540
 H1335 H 0.58559 0.77103 0.05530
 H1336 H 0.54857 0.81265 0.11034
 H1337 H 0.59607 0.73661 0.04345
 H1338 H 0.55014 0.77781 0.14724
 C1339 C 0.37944 0.26068 0.06010
 C1340 C 0.38927 0.26327 0.08064
 C1341 C 0.40320 0.24605 0.09109
 C1342 C 0.40582 0.24634 0.11381
 C1343 C 0.41940 0.23080 0.12422
 C1344 C 0.43101 0.21479 0.11201
 C1345 C 0.42823 0.21442 0.08929
 C1346 C 0.41459 0.22991 0.07890
 C1347 C 0.44613 0.19833 0.12217
 C1348 C 0.45490 0.20038 0.14321
 H1349 H 0.38585 0.27809 0.08999
 H1350 H 0.39722 0.25859 0.12358
 H1351 H 0.42050 0.23140 0.14178
 H1352 H 0.43697 0.20233 0.07946
 H1353 H 0.41349 0.22949 0.06131
 H1354 H 0.45157 0.18455 0.11217
 H1355 H 0.38049 0.24480 0.05196
 H1356 H 0.45065 0.21440 0.15333
 C1357 C 0.61375 0.27054 0.93268
 C1358 C 0.61463 0.24745 0.93088
 C1359 C 0.59900 0.23445 0.91702
 C1360 C 0.59536 0.21203 0.92183
 C1361 C 0.58051 0.19928 0.90934
 C1362 C 0.56902 0.20873 0.89163
 C1363 C 0.57322 0.23096 0.88643
 C1364 C 0.58804 0.24369 0.89891
 C1365 C 0.55283 0.19614 0.87800
 C1366 C 0.54324 0.17595 0.88396
 H1367 H 0.62666 0.23827 0.94036
 H1368 H 0.60391 0.20439 0.93543
 H1369 H 0.57836 0.18208 0.91358
 H1370 H 0.56491 0.23858 0.87268
 H1371 H 0.59104 0.26061 0.89404
 H1372 H 0.54736 0.20373 0.86293
 H1373 H 0.60117 0.27937 0.92354
 H1374 H 0.54754 0.16823 0.89925
 C1375 C 0.37513 0.74839 0.94794
 C1376 C 0.38365 0.74680 0.92681
 C1377 C 0.39847 0.76368 0.91687
 C1378 C 0.40058 0.76413 0.89412
 C1379 C 0.41506 0.77911 0.88407
 C1380 C 0.42807 0.79384 0.89665
 C1381 C 0.42571 0.79361 0.91940
 C1382 C 0.41120 0.77863 0.92945
 C1383 C 0.44428 0.80946 0.88674
 C1384 C 0.45339 0.80639 0.86603
 H1385 H 0.37858 0.73301 0.91663
 H1386 H 0.39095 0.75284 0.88403
 H1387 H 0.41580 0.77912 0.86648
 H1388 H 0.43551 0.80475 0.92949
 H1389 H 0.41051 0.77849 0.94705
 H1390 H 0.45042 0.82303 0.89669
 H1391 H 0.37790 0.76342 0.95721
 H1392 H 0.44861 0.79219 0.85630
 C1393 C 0.73170 0.93034 0.38269
 C1394 C 0.75372 0.93457 0.38916
 C1395 C 0.76635 0.92047 0.40464
 C1396 C 0.78968 0.92251 0.40546
 C1397 C 0.80227 0.91006 0.42019
 C1398 C 0.79172 0.89542 0.43469
 C1399 C 0.76843 0.89322 0.43374
 C1400 C 0.75583 0.90569 0.41903
 C1401 C 0.80433 0.88216 0.45085
 C1402 C 0.82558 0.88792 0.45841
 H1403 H 0.76228 0.94890 0.38275
 H1404 H 0.79824 0.93374 0.39457
 H1405 H 0.82022 0.91181 0.41993
 H1406 H 0.75988 0.88208 0.44473
 H1407 H 0.73789 0.90397 0.41947
 H1408 H 0.79602 0.86801 0.45801
 H1409 H 0.72314 0.91597 0.38899
 H1410 H 0.83368 0.90277 0.45260
 C1411 C 0.28261 0.93255 0.60185
 C1412 C 0.26249 0.92245 0.60760
 C1413 C 0.24901 0.90896 0.59228
 C1414 C 0.22588 0.90760 0.59540
 C1415 C 0.21256 0.89503 0.58128
 C1416 C 0.22220 0.88330 0.56390
 C1417 C 0.24543 0.88400 0.56123
 C1418 C 0.25874 0.89686 0.57517
 C1419 C 0.20840 0.87014 0.54856
 C1420 C 0.18689 0.87660 0.54269
 H1421 H 0.25549 0.92580 0.62351
 H1422 H 0.21806 0.91646 0.60870
 H1423 H 0.19477 0.89429 0.58419
 H1424 H 0.25325 0.87481 0.54815
 H1425 H 0.27661 0.89701 0.57273
 H1426 H 0.21590 0.85606 0.54046
 H1427 H 0.28815 0.93171 0.58509
 H1428 H 0.18016 0.89192 0.54905
 C1429 C 0.25897 0.05678 0.37305
 C1430 C 0.26332 0.06385 0.39430
 C1431 C 0.24714 0.07698 0.40697
 C1432 C 0.25504 0.09216 0.42252
 C1433 C 0.24012 0.10475 0.43480
 C1434 C 0.21697 0.10203 0.43200
 C1435 C 0.20907 0.08639 0.41689
 C1436 C 0.22399 0.07410 0.40432
 C1437 C 0.20081 0.11435 0.44546
 C1438 C 0.20522 0.13543 0.45370
 H1439 H 0.27965 0.06103 0.40134
 H1440 H 0.27280 0.09434 0.42511
 H1441 H 0.24675 0.11617 0.44682
 H1442 H 0.19131 0.08372 0.41479
 H1443 H 0.21740 0.06202 0.39292
 H1444 H 0.18478 0.10669 0.44868
 H1445 H 0.24387 0.06226 0.36495
 H1446 H 0.22031 0.14405 0.44907
 C1447 C 0.72030 0.07261 0.61626
 C1448 C 0.72637 0.06805 0.59476
 C1449 C 0.73876 0.08413 0.58117
 C1450 C 0.75298 0.07618 0.56484
 C1451 C 0.76558 0.09083 0.55228
 C1452 C 0.76398 0.11383 0.55561
 C1453 C 0.74896 0.12183 0.57122
 C1454 C 0.73657 0.10715 0.58401
 C1455 C 0.77757 0.12966 0.54287
 C1456 C 0.79890 0.12436 0.53551
 H1457 H 0.72382 0.05155 0.58828
 H1458 H 0.75462 0.05855 0.56202
 H1459 H 0.77639 0.08411 0.53984
 H1460 H 0.74709 0.13948 0.57378
 H1461 H 0.72519 0.11388 0.59594
 H1462 H 0.77119 0.14621 0.54026
 H1463 H 0.72538 0.08823 0.62344
 H1464 H 0.80608 0.10851 0.53972
 C1465 C 0.92885 0.62573 0.26206
 C1466 C 0.92409 0.60321 0.26387
 C1467 C 0.91011 0.59126 0.24783
 C1468 C 0.91517 0.56922 0.24269
 C1469 C 0.90198 0.55739 0.22786
 C1470 C 0.88313 0.56726 0.21833
 C1471 C 0.87772 0.58913 0.22389
 C1472 C 0.89126 0.60117 0.23831
 C1473 C 0.86851 0.55467 0.20334
 C1474 C 0.87710 0.53977 0.18819
 H1475 H 0.93206 0.59372 0.27664
 H1476 H 0.92945 0.56120 0.25009
 H1477 H 0.90621 0.54036 0.22426
 H1478 H 0.86309 0.59692 0.21694
 H1479 H 0.88669 0.61799 0.24241
 H1480 H 0.85071 0.55775 0.20372
 H1481 H 0.92355 0.63458 0.24762
 H1482 H 0.89499 0.53845 0.18619
 C1483 C 0.92894 0.38484 0.71879
 C1484 C 0.92016 0.38011 0.73931
 C1485 C 0.90605 0.39582 0.75153
 C1486 C 0.90595 0.39480 0.77435
 C1487 C 0.89331 0.40974 0.78652
 C1488 C 0.88034 0.42590 0.77603
 C1489 C 0.87965 0.42631 0.75320
 C1490 C 0.89248 0.41149 0.74101
 C1491 C 0.86745 0.44241 0.78851
 C1492 C 0.87475 0.45042 0.80864
 H1493 H 0.92532 0.36518 0.74758
 H1494 H 0.91594 0.38261 0.78281
 H1495 H 0.89359 0.40848 0.80410
 H1496 H 0.86947 0.43838 0.74478
 H1497 H 0.89156 0.41223 0.72342
 H1498 H 0.85287 0.44970 0.78094
 H1499 H 0.92606 0.40099 0.71174
 H1500 H 0.89042 0.44474 0.81539
 C1501 C 0.05806 0.61278 0.73208
 C1502 C 0.07967 0.61535 0.74034
 C1503 C 0.08995 0.59936 0.75555
 C1504 C 0.11327 0.59748 0.75632
 C1505 C 0.12350 0.58275 0.77075
 C1506 C 0.11053 0.56980 0.78491
 C1507 C 0.08725 0.57213 0.78454
 C1508 C 0.07702 0.58666 0.76995
 C1509 C 0.12067 0.55420 0.80060
 C1510 C 0.14123 0.54399 0.79720
 H1511 H 0.08988 0.62897 0.73469
 H1512 H 0.12361 0.60740 0.74567
 H1513 H 0.14152 0.58190 0.77104
 H1514 H 0.07692 0.56260 0.79553
 H1515 H 0.05905 0.58824 0.77033
 H1516 H 0.11089 0.54945 0.81465
 H1517 H 0.04903 0.59762 0.73539
 H1518 H 0.15043 0.54705 0.78238
 C1519 C 0.06159 0.37456 0.26345
 C1520 C 0.06895 0.39621 0.26708
 C1521 C 0.08193 0.40877 0.25076
 C1522 C 0.09678 0.42534 0.25780
 C1523 C 0.10885 0.43784 0.24271
 C1524 C 0.10601 0.43420 0.22021
 C1525 C 0.09090 0.41787 0.21319
 C1526 C 0.07908 0.40517 0.22827
 C1527 C 0.11733 0.44804 0.20371
 C1528 C 0.13761 0.45888 0.20741
 H1529 H 0.06622 0.40381 0.28285
 H1530 H 0.09900 0.42864 0.27503
 H1531 H 0.11986 0.45073 0.24871
 H1532 H 0.08814 0.41501 0.19595
 H1533 H 0.06728 0.39299 0.22225
 H1534 H 0.10947 0.44949 0.18785
 H1535 H 0.06689 0.36596 0.24885
 H1536 H 0.14668 0.45623 0.22245
   
