data_POSCAR
  _audit_creation_date              2014-09-24
  _audit_creation_method            'ToBaCCo'
  _symmetry_space_group_name_H-M    'P1'
  _symmetry_Int_Tables_number       1
  _symmetry_cell_setting            triclinic
  loop_
  _symmetry_equiv_pos_as_xyz
 x,y,z
_cell_length_a 46.9156
_cell_length_b 46.8986
_cell_length_c 46.9032
_cell_angle_alpha 89.826500
_cell_angle_beta 90.221800
_cell_angle_gamma 89.787600
loop_
  _atom_site_label
  _atom_site_type_symbol
  _atom_site_fract_x
  _atom_site_fract_y
  _atom_site_fract_z
C1 C 0.24094 0.96651 0.00687
 C2 C 0.24858 0.96603 -0.02241
 C3 C 0.25337 0.99240 -0.03626
 C4 C 0.25052 1.01886 -0.02225
 C5 C 0.24382 1.01866 0.00720
 C6 C 0.23864 0.99270 0.02096
 H7 H 0.23469 0.99276 0.04375
 H8 H 0.25667 0.99245 -0.05910
 C9 C 0.75242 0.46518 0.50629
 C10 C 0.74872 0.46559 0.47640
 C11 C 0.74876 0.49200 0.46206
 C12 C 0.75153 0.51786 0.47686
 C13 C 0.75393 0.51726 0.50686
 C14 C 0.75468 0.49098 0.52104
 H15 H 0.75697 0.49059 0.54408
 H16 H 0.74651 0.49244 0.43904
 C17 C 0.73768 1.00664 0.96420
 C18 C 0.74879 0.97841 0.96432
 C19 C 0.75194 0.96383 0.99044
 C20 C 0.74451 0.97625 1.01676
 C21 C 0.73426 1.00475 1.01653
 C22 C 0.73028 1.01895 0.99052
 H23 H 0.72391 1.04119 0.99122
 H24 H 0.75845 0.94165 0.98982
 C25 C 0.24070 0.50680 0.46578
 C26 C 0.24911 0.47784 0.46653
 C27 C 0.25136 0.46396 0.49307
 C28 C 0.24583 0.47828 0.51873
 C29 C 0.23804 0.50739 0.51786
 C30 C 0.23527 0.52106 0.49142
 H31 H 0.23007 0.54362 0.49084
 H32 H 0.25674 0.44146 0.49372
 C33 C 0.96670 0.24607 0.02131
 C34 C 0.96703 0.23799 -0.00784
 C35 C 0.99360 0.23521 -0.02150
 C36 C 1.01958 0.24148 -0.00784
 C37 C 1.01896 0.24913 0.02139
 C38 C 0.99265 0.25138 0.03535
 H39 H 0.99246 0.25591 0.05801
 H40 H 0.99385 0.23134 -0.04426
 C41 C 0.46524 0.75248 0.49486
 C42 C 0.46625 0.74876 0.52473
 C43 C 0.49290 0.74901 0.53858
 C44 C 0.51845 0.75178 0.52328
 C45 C 0.51730 0.75370 0.49326
 C46 C 0.49074 0.75447 0.47957
 H47 H 0.48990 0.75660 0.45654
 H48 H 0.49380 0.74693 0.56160
 C49 C 0.00628 0.73627 -0.01688
 C50 C -0.02237 0.74677 -0.01767
 C51 C -0.03572 0.75354 0.00843
 C52 C -0.02202 0.74981 0.03487
 C53 C 0.00616 0.73935 0.03548
 C54 C 0.01951 0.73218 0.00985
 H55 H 0.04178 0.72592 0.01080
 H56 H -0.05796 0.75989 0.00851
 C57 C 0.47806 0.25350 0.53399
 C58 C 0.50796 0.24998 0.53456
 C59 C 0.52285 0.24780 0.50884
 C60 C 0.50876 0.24838 0.48249
 C61 C 0.47876 0.25053 0.48179
 C62 C 0.46384 0.25329 0.50755
 H63 H 0.44081 0.25538 0.50700
 H64 H 0.54589 0.24567 0.50935
 C65 C 1.03484 0.02392 0.24829
 C66 C 1.03531 -0.00536 0.24061
 C67 C 1.00966 -0.02052 0.23876
 C68 C 0.98311 -0.00799 0.24483
 C69 C 0.98238 0.02150 0.25138
 C70 C 1.00803 0.03671 0.25342
 H71 H 1.00669 0.05949 0.25703
 H72 H 1.01091 -0.04330 0.23505
 C73 C 0.53484 0.52485 0.74918
 C74 C 0.53550 0.49477 0.74977
 C75 C 0.51002 0.47966 0.75286
 C76 C 0.48366 0.49364 0.75443
 C77 C 0.48264 0.52364 0.75196
 C78 C 0.50829 0.53886 0.74977
 H79 H 0.50758 0.56195 0.74860
 H80 H 0.51072 0.45655 0.75393
 C81 C 1.02364 0.98397 0.74598
 C82 C 0.99512 0.98393 0.73648
 C83 C 0.98085 1.00989 0.73249
 C84 C 0.99357 1.03630 0.73899
 C85 C 1.02209 1.03620 0.74946
 C86 C 1.03664 1.01004 0.75249
 H87 H 1.05885 1.01005 0.75900
 H88 H 0.95853 1.00913 0.72646
 C89 C 0.52331 0.48250 0.25029
 C90 C 0.49354 0.48253 0.25466
 C91 C 0.47929 0.50849 0.25854
 C92 C 0.49373 0.53458 0.25776
 C93 C 0.52346 0.53476 0.25305
 C94 C 0.53783 0.50863 0.24944
 H95 H 0.56078 0.50858 0.24681
 H96 H 0.45631 0.50847 0.26105
 O97 O 0.26685 0.17718 0.19426
 O98 O 0.29975 0.16934 0.23365
 O99 O 0.19349 0.21099 0.23693
 O100 O 0.18362 0.24826 0.26507
 O101 O 0.22628 0.25201 0.16064
 O102 O 0.26612 0.28303 0.15223
 O103 O 0.26812 0.29092 0.30743
 O104 O 0.23545 0.25180 0.31523
 O105 O 0.34140 0.25137 0.27251
 O106 O 0.34905 0.21862 0.23194
 O107 O 0.30668 0.32418 0.23484
 O108 O 0.26515 0.33256 0.20143
 O109 O 0.26789 0.32489 0.27269
 O110 O 0.23602 0.33383 0.23265
 O111 O 0.34084 0.28960 0.23424
 O112 O 0.34900 0.24921 0.20165
 O113 O 0.30768 0.25324 0.30722
 O114 O 0.27378 0.22112 0.31753
 O115 O 0.26603 0.21169 0.15997
 O116 O 0.29733 0.25081 0.15148
 O117 O 0.19265 0.25101 0.19553
 O118 O 0.18624 0.28366 0.23539
 O119 O 0.22800 0.17678 0.23514
 O120 O 0.26951 0.16765 0.26480
 Zr121 Zr 0.26635 0.19975 0.23312
 O122 O 0.29298 0.22427 0.25958
 Zr123 Zr 0.21606 0.24970 0.23391
 O124 O 0.24084 0.27663 0.25994
 Zr125 Zr 0.26524 0.25000 0.18299
 O126 O 0.29239 0.27643 0.20695
 Zr127 Zr 0.26879 0.25204 0.28496
 O128 O 0.24167 0.22456 0.26139
 Zr129 Zr 0.31791 0.25132 0.23419
 O130 O 0.29333 0.22462 0.20745
 Zr131 Zr 0.26781 0.30173 0.23443
 O132 O 0.24033 0.27737 0.20820
 O133 O 0.23926 0.22341 0.20701
 O134 O 0.29503 0.27845 0.26095
 C135 C 0.26669 0.18559 0.16816
 C136 C 0.20196 0.18489 0.23706
 C137 C 0.20037 0.25228 0.16933
 C138 C 0.26785 0.31697 0.29886
 C139 C 0.33361 0.25247 0.29867
 C140 C 0.33274 0.31569 0.23480
 H141 H 0.30468 0.21138 0.27162
 H142 H 0.30399 0.28813 0.19387
 H143 H 0.22677 0.21126 0.19515
 H144 H 0.22810 0.28834 0.27193
 H145 H 0.22313 0.23533 0.31063
 H146 H 0.19082 0.25840 0.28207
 H147 H 0.34468 0.26440 0.18760
 H148 H 0.31264 0.23782 0.15819
 H149 H 0.26407 0.20378 0.31073
 H150 H 0.25401 0.17102 0.27865
 H151 H 0.28165 0.32979 0.18866
 H152 H 0.25296 0.29806 0.15906
 H153 H 0.31380 0.17561 0.21927
 H154 H 0.34520 0.20484 0.24745
 H155 H 0.19189 0.29755 0.22054
 H156 H 0.22135 0.32899 0.24694
 O157 O 0.75003 0.84064 0.22588
 O158 O 0.71877 0.84954 0.26556
 O159 O 0.82445 0.80638 0.26775
 O160 O 0.83385 0.77003 0.29792
 O161 O 0.79039 0.76510 0.19355
 O162 O 0.75005 0.73400 0.18602
 O163 O 0.74958 0.72902 0.34159
 O164 O 0.78341 0.76718 0.34793
 O165 O 0.67689 0.76785 0.30662
 O166 O 0.66887 0.80085 0.26521
 O167 O 0.70974 0.69459 0.26846
 O168 O 0.75130 0.68512 0.23658
 O169 O 0.74819 0.69443 0.30769
 O170 O 0.78020 0.68404 0.26803
 O171 O 0.67598 0.72955 0.26781
 O172 O 0.66743 0.76973 0.23590
 O173 O 0.71130 0.76714 0.34095
 O174 O 0.74569 0.79917 0.34960
 O175 O 0.75031 0.80566 0.19229
 O176 O 0.71919 0.76638 0.18449
 O177 O 0.82441 0.76569 0.22833
 O178 O 0.83080 0.73369 0.26855
 O179 O 0.79030 0.84097 0.26546
 O180 O 0.74971 0.85089 0.29640
 Zr181 Zr 0.75160 0.81854 0.26508
 O182 O 0.72509 0.79480 0.29228
 Zr183 Zr 0.80134 0.76797 0.26661
 O184 O 0.77661 0.74179 0.29341
 Zr185 Zr 0.75151 0.76755 0.21600
 O186 O 0.72434 0.74192 0.24079
 Zr187 Zr 0.74950 0.76728 0.31804
 O188 O 0.77656 0.79399 0.29365
 Zr189 Zr 0.69943 0.76759 0.26778
 O190 O 0.72397 0.79351 0.24019
 Zr191 Zr 0.74889 0.71665 0.26870
 O192 O 0.77634 0.74021 0.24170
 O193 O 0.77802 0.79414 0.23929
 O194 O 0.72243 0.74069 0.29495
 C195 C 0.74955 0.83189 0.19996
 C196 C 0.81629 0.83255 0.26688
 C197 C 0.81644 0.76446 0.20218
 C198 C 0.74878 0.70286 0.33367
 C199 C 0.68524 0.76749 0.33273
 C200 C 0.68376 0.70333 0.26797
 H201 H 0.71375 0.80801 0.30414
 H202 H 0.71246 0.73025 0.22792
 H203 H 0.79028 0.80594 0.22687
 H204 H 0.78930 0.73008 0.30563
 H205 H 0.79600 0.78332 0.34289
 H206 H 0.82736 0.75893 0.31463
 H207 H 0.67217 0.75541 0.22121
 H208 H 0.70396 0.77948 0.19097
 H209 H 0.75649 0.81579 0.34262
 H210 H 0.76604 0.84793 0.30950
 H211 H 0.73562 0.68870 0.22285
 H212 H 0.76365 0.71926 0.19281
 H213 H 0.70390 0.84289 0.25214
 H214 H 0.67240 0.81408 0.28121
 H215 H 0.82434 0.71935 0.25451
 H216 H 0.79485 0.68880 0.28245
 O217 O 0.75061 0.17570 0.78748
 O218 O 0.72189 0.16733 0.74799
 O219 O 0.82535 0.21359 0.74957
 O220 O 0.83701 0.25194 0.72574
 O221 O 0.78754 0.24929 0.82622
 O222 O 0.74864 0.27877 0.83503
 O223 O 0.74950 0.29053 0.67687
 O224 O 0.78128 0.25464 0.66794
 O225 O 0.67663 0.25297 0.71165
 O226 O 0.66602 0.22250 0.74949
 O227 O 0.71209 0.32547 0.75048
 O228 O 0.75023 0.33532 0.78055
 O229 O 0.74956 0.32483 0.71109
 O230 O 0.78422 0.33108 0.75405
 O231 O 0.67735 0.29177 0.74989
 O232 O 0.67018 0.24854 0.78367
 O233 O 0.71055 0.25349 0.67711
 O234 O 0.75164 0.21880 0.66973
 O235 O 0.74849 0.20854 0.82310
 O236 O 0.71561 0.24947 0.83060
 O237 O 0.82293 0.25087 0.79318
 O238 O 0.82884 0.28689 0.75269
 O239 O 0.79215 0.17829 0.74877
 O240 O 0.75164 0.17156 0.71542
 Zr241 Zr 0.75254 0.20017 0.75019
 O242 O 0.72487 0.22499 0.72475
 Zr243 Zr 0.80148 0.25108 0.75327
 O244 O 0.77724 0.27694 0.72535
 Zr245 Zr 0.75020 0.24845 0.80182
 O246 O 0.72484 0.27667 0.77749
 Zr247 Zr 0.74965 0.25241 0.69984
 O248 O 0.77772 0.22629 0.72401
 Zr249 Zr 0.69967 0.25238 0.74983
 O250 O 0.72374 0.22380 0.77550
 Zr251 Zr 0.74999 0.30202 0.75026
 O252 O 0.77560 0.27737 0.77850
 O253 O 0.77786 0.22323 0.77819
 O254 O 0.72312 0.27916 0.72334
 C255 C 0.74871 0.18275 0.81375
 C256 C 0.81801 0.18738 0.74828
 C257 C 0.81379 0.25031 0.81902
 C258 C 0.74939 0.31654 0.68494
 C259 C 0.68451 0.25349 0.68559
 C260 C 0.68599 0.31777 0.75017
 H261 H 0.71291 0.21224 0.71303
 H262 H 0.71321 0.28847 0.79048
 H263 H 0.78999 0.21065 0.79016
 H264 H 0.79013 0.28855 0.71343
 H265 H 0.79753 0.24295 0.67478
 H266 H 0.82967 0.25739 0.70670
 H267 H 0.67096 0.26627 0.79502
 H268 H 0.70265 0.23377 0.82517
 H269 H 0.73404 0.20736 0.67127
 H270 H 0.76718 0.17728 0.70239
 H271 H 0.74047 0.32804 0.79773
 H272 H 0.76021 0.29518 0.82863
 H273 H 0.70528 0.17402 0.75911
 H274 H 0.67299 0.20545 0.73927
 H275 H 0.82522 0.29778 0.77037
 H276 H 0.79491 0.33092 0.73591
 O277 O 0.23571 0.80602 0.79318
 O278 O 0.26653 0.81450 0.75306
 O279 O 0.16011 0.77430 0.75101
 O280 O 0.14937 0.73831 0.72180
 O281 O 0.19380 0.73179 0.82558
 O282 O 0.23327 0.69922 0.83282
 O283 O 0.23351 0.69515 0.67744
 O284 O 0.19999 0.73382 0.67093
 O285 O 0.30665 0.73232 0.71183
 O286 O 0.31590 0.76351 0.75386
 O287 O 0.27163 0.65886 0.75004
 O288 O 0.23043 0.65070 0.78218
 O289 O 0.23327 0.66035 0.71137
 O290 O 0.20090 0.65124 0.75122
 O291 O 0.30637 0.69258 0.75004
 O292 O 0.31645 0.73204 0.78252
 O293 O 0.27210 0.73340 0.67766
 O294 O 0.23436 0.76563 0.66892
 O295 O 0.23506 0.77079 0.82670
 O296 O 0.26502 0.73049 0.83413
 O297 O 0.15957 0.73377 0.79105
 O298 O 0.15235 0.70162 0.75121
 O299 O 0.19501 0.80789 0.75296
 O300 O 0.23450 0.81634 0.72214
 Zr301 Zr 0.23322 0.78427 0.75388
 O302 O 0.25919 0.75995 0.72661
 Zr303 Zr 0.18233 0.73525 0.75262
 O304 O 0.20625 0.70865 0.72551
 Zr305 Zr 0.23251 0.73302 0.80288
 O306 O 0.25880 0.70663 0.77791
 Zr307 Zr 0.23392 0.73346 0.70078
 O308 O 0.20763 0.76056 0.72553
 Zr309 Zr 0.28423 0.73161 0.75080
 O310 O 0.26049 0.75820 0.77849
 Zr311 Zr 0.23336 0.68247 0.75017
 O312 O 0.20680 0.70665 0.77742
 O313 O 0.20640 0.76060 0.77981
 O314 O 0.26037 0.70575 0.72369
 C315 C 0.23644 0.79703 0.81909
 C316 C 0.16882 0.80022 0.75143
 C317 C 0.16772 0.73212 0.81712
 C318 C 0.23331 0.66893 0.68542
 C319 C 0.29821 0.73311 0.68574
 C320 C 0.29781 0.66665 0.75001
 H321 H 0.27109 0.77298 0.71517
 H322 H 0.27044 0.69442 0.79066
 H323 H 0.19452 0.77285 0.79220
 H324 H 0.19326 0.69743 0.71332
 H325 H 0.18649 0.74889 0.67703
 H326 H 0.15495 0.72644 0.70533
 H327 H 0.31165 0.71736 0.79689
 H328 H 0.28072 0.74279 0.82734
 H329 H 0.24647 0.78138 0.67582
 H330 H 0.22110 0.81040 0.70694
 H331 H 0.24610 0.65382 0.79598
 H332 H 0.21918 0.68503 0.82616
 H333 H 0.28150 0.80729 0.76618
 H334 H 0.31243 0.77756 0.73845
 H335 H 0.15836 0.68737 0.76567
 H336 H 0.18664 0.65627 0.73644
 O337 O 0.24973 0.34078 0.72761
 O338 O 0.21862 0.34843 0.76766
 O339 O 0.32478 0.30650 0.76809
 O340 O 0.33473 0.26965 0.79757
 O341 O 0.29067 0.26594 0.69339
 O342 O 0.25038 0.23510 0.68534
 O343 O 0.25181 0.22680 0.84083
 O344 O 0.28475 0.26555 0.84776
 O345 O 0.17795 0.26498 0.80720
 O346 O 0.16932 0.29934 0.76682
 O347 O 0.21115 0.19344 0.76742
 O348 O 0.25256 0.18506 0.73489
 O349 O 0.25017 0.19286 0.80628
 O350 O 0.28174 0.18358 0.76604
 O351 O 0.17709 0.22812 0.76739
 O352 O 0.16802 0.26901 0.73658
 O353 O 0.21262 0.26379 0.84125
 O354 O 0.24631 0.29654 0.85041
 O355 O 0.25033 0.30657 0.69325
 O356 O 0.21940 0.26725 0.68478
 O357 O 0.32491 0.26627 0.72795
 O358 O 0.33201 0.23393 0.76756
 O359 O 0.29024 0.34074 0.76685
 O360 O 0.24985 0.34951 0.79829
 Zr361 Zr 0.25182 0.31786 0.76627
 O362 O 0.22572 0.29327 0.79315
 Zr363 Zr 0.30208 0.26783 0.76638
 O364 O 0.27782 0.24080 0.79273
 Zr365 Zr 0.25191 0.26793 0.71610
 O366 O 0.22517 0.24149 0.74050
 Zr367 Zr 0.25064 0.26549 0.81810
 O368 O 0.27724 0.29300 0.79413
 Zr369 Zr 0.20022 0.26632 0.76822
 O370 O 0.22428 0.29307 0.74103
 Zr371 Zr 0.25015 0.21587 0.76771
 O372 O 0.27718 0.24031 0.74107
 O373 O 0.27832 0.29431 0.73975
 O374 O 0.22370 0.23909 0.79464
 C375 C 0.24929 0.33261 0.70152
 C376 C 0.31633 0.33259 0.76792
 C377 C 0.31677 0.26524 0.70185
 C378 C 0.25117 0.20081 0.83240
 C379 C 0.18650 0.26380 0.83322
 C380 C 0.18507 0.20197 0.76714
 H381 H 0.21431 0.30604 0.80541
 H382 H 0.21331 0.22998 0.72747
 H383 H 0.29043 0.30643 0.72749
 H384 H 0.29076 0.22899 0.80457
 H385 H 0.29691 0.28211 0.84301
 H386 H 0.32836 0.25832 0.81416
 H387 H 0.17281 0.25513 0.72149
 H388 H 0.20415 0.28016 0.69160
 H389 H 0.25643 0.31365 0.84361
 H390 H 0.26629 0.34642 0.81122
 H391 H 0.23659 0.18863 0.72151
 H392 H 0.26389 0.22015 0.69183
 H393 H 0.20368 0.34184 0.75428
 H394 H 0.17259 0.31195 0.78337
 H395 H 0.32553 0.21965 0.75348
 H396 H 0.29648 0.18817 0.78043
 O397 O 0.77051 0.67721 0.69237
 O398 O 0.80197 0.66951 0.73293
 O399 O 0.69552 0.71083 0.73306
 O400 O 0.68478 0.74818 0.76079
 O401 O 0.73020 0.75132 0.65749
 O402 O 0.76995 0.78307 0.65031
 O403 O 0.76810 0.79124 0.80533
 O404 O 0.73506 0.75217 0.81220
 O405 O 0.84221 0.75173 0.77275
 O406 O 0.85112 0.71888 0.73246
 O407 O 0.80845 0.82439 0.73275
 O408 O 0.76722 0.83238 0.69908
 O409 O 0.76895 0.82510 0.77051
 O410 O 0.73800 0.83404 0.73009
 O411 O 0.84269 0.78989 0.73366
 O412 O 0.85201 0.74926 0.70221
 O413 O 0.80749 0.75319 0.80647
 O414 O 0.77322 0.72148 0.81582
 O415 O 0.77053 0.71168 0.65805
 O416 O 0.80141 0.75105 0.65025
 O417 O 0.69567 0.75049 0.69149
 O418 O 0.68809 0.78348 0.73088
 O419 O 0.73015 0.67671 0.73209
 O420 O 0.77071 0.66773 0.76298
 Zr421 Zr 0.76850 0.69980 0.73120
 O422 O 0.79427 0.72448 0.75838
 Zr423 Zr 0.71804 0.74960 0.73049
 O424 O 0.74203 0.77670 0.75712
 Zr425 Zr 0.76857 0.74996 0.68097
 O426 O 0.79500 0.77644 0.70562
 Zr427 Zr 0.76933 0.75227 0.78299
 O428 O 0.74298 0.72463 0.75873
 Zr429 Zr 0.81987 0.75154 0.73369
 O430 O 0.79610 0.72475 0.70627
 Zr431 Zr 0.76964 0.80181 0.73232
 O432 O 0.74290 0.77732 0.70541
 O433 O 0.74206 0.72329 0.70431
 O434 O 0.79623 0.77875 0.75972
 C435 C 0.77124 0.68561 0.66627
 C436 C 0.70404 0.68475 0.73338
 C437 C 0.70405 0.75148 0.66548
 C438 C 0.76817 0.81726 0.79669
 C439 C 0.83366 0.75250 0.79870
 C440 C 0.83452 0.81597 0.73318
 H441 H 0.80563 0.71163 0.77077
 H442 H 0.80690 0.78806 0.69275
 H443 H 0.73003 0.71100 0.69212
 H444 H 0.72896 0.78842 0.76874
 H445 H 0.72287 0.73569 0.80729
 H446 H 0.69136 0.75871 0.77780
 H447 H 0.84777 0.76398 0.68763
 H448 H 0.81669 0.73825 0.65737
 H449 H 0.76390 0.70406 0.80869
 H450 H 0.75487 0.67119 0.77642
 H451 H 0.78371 0.82934 0.68635
 H452 H 0.75596 0.79765 0.65640
 H453 H 0.81649 0.67582 0.71904
 H454 H 0.84694 0.70522 0.74797
 H455 H 0.69418 0.79733 0.71616
 H456 H 0.72272 0.82884 0.74358
 O457 O 0.24994 0.67583 0.28877
 O458 O 0.22145 0.66670 0.24912
 O459 O 0.32496 0.71278 0.25074
 O460 O 0.33665 0.75042 0.22573
 O461 O 0.28691 0.75019 0.32619
 O462 O 0.24784 0.77986 0.33418
 O463 O 0.24902 0.78861 0.17603
 O464 O 0.28120 0.75279 0.16781
 O465 O 0.17637 0.75101 0.21109
 O466 O 0.16573 0.72160 0.24985
 O467 O 0.21164 0.82473 0.24872
 O468 O 0.24982 0.83498 0.27903
 O469 O 0.24917 0.82343 0.20972
 O470 O 0.28365 0.83056 0.25245
 O471 O 0.17692 0.79101 0.24820
 O472 O 0.16951 0.74873 0.28311
 O473 O 0.21043 0.75074 0.17668
 O474 O 0.25188 0.71673 0.17005
 O475 O 0.24788 0.70933 0.32377
 O476 O 0.21495 0.75023 0.33037
 O477 O 0.32240 0.75128 0.29324
 O478 O 0.32851 0.78617 0.25194
 O479 O 0.29171 0.67752 0.25059
 O480 O 0.25172 0.67016 0.21685
 Zr481 Zr 0.25216 0.69951 0.25100
 O482 O 0.22462 0.72380 0.22497
 Zr483 Zr 0.30109 0.75042 0.25325
 O484 O 0.27692 0.77578 0.22480
 Zr485 Zr 0.24961 0.74878 0.30169
 O486 O 0.22426 0.77646 0.27672
 Zr487 Zr 0.24945 0.75079 0.19961
 O488 O 0.27744 0.72509 0.22438
 Zr489 Zr 0.19925 0.75163 0.24939
 O490 O 0.22326 0.72362 0.27573
 Zr491 Zr 0.24955 0.80128 0.24917
 O492 O 0.27511 0.77719 0.27789
 O493 O 0.27735 0.72312 0.27866
 O494 O 0.22279 0.77793 0.22251
 C495 C 0.24806 0.68338 0.31490
 C496 C 0.31759 0.68654 0.25021
 C497 C 0.31318 0.75129 0.31906
 C498 C 0.24888 0.81475 0.18372
 C499 C 0.18434 0.75068 0.18505
 C500 C 0.18554 0.81702 0.24812
 H501 H 0.21277 0.71075 0.21347
 H502 H 0.21253 0.78849 0.28940
 H503 H 0.28942 0.71084 0.29099
 H504 H 0.28981 0.78721 0.21271
 H505 H 0.29750 0.74129 0.17489
 H506 H 0.32948 0.75611 0.20670
 H507 H 0.17022 0.76674 0.29400
 H508 H 0.20188 0.73460 0.32497
 H509 H 0.23474 0.70473 0.17225
 H510 H 0.26735 0.67566 0.20385
 H511 H 0.23935 0.82826 0.29600
 H512 H 0.25949 0.79609 0.32750
 H513 H 0.20487 0.67350 0.26021
 H514 H 0.17261 0.70448 0.23969
 H515 H 0.32467 0.79759 0.26924
 H516 H 0.29453 0.82989 0.23443
 O517 O 0.73516 0.30583 0.28960
 O518 O 0.76635 0.31413 0.24965
 O519 O 0.66008 0.27301 0.24695
 O520 O 0.64997 0.23653 0.21820
 O521 O 0.69376 0.23161 0.32230
 O522 O 0.73353 0.19935 0.33002
 O523 O 0.73401 0.19362 0.17490
 O524 O 0.70061 0.23279 0.16802
 O525 O 0.80725 0.23196 0.20918
 O526 O 0.81599 0.26382 0.25038
 O527 O 0.77284 0.15871 0.24795
 O528 O 0.73156 0.15054 0.28027
 O529 O 0.73436 0.15924 0.20924
 O530 O 0.70225 0.15018 0.24908
 O531 O 0.80722 0.19281 0.24786
 O532 O 0.81648 0.23301 0.28004
 O533 O 0.77286 0.23166 0.17485
 O534 O 0.73869 0.26354 0.16561
 O535 O 0.73469 0.27089 0.32342
 O536 O 0.76489 0.23103 0.33137
 O537 O 0.65973 0.23294 0.28754
 O538 O 0.65298 0.20047 0.24769
 O539 O 0.69458 0.30696 0.24928
 O540 O 0.73559 0.31621 0.21902
 Zr541 Zr 0.73312 0.28380 0.25040
 O542 O 0.75928 0.25933 0.22338
 Zr543 Zr 0.68275 0.23428 0.24924
 O544 O 0.70704 0.20747 0.22269
 Zr545 Zr 0.73261 0.23294 0.29985
 O546 O 0.75935 0.20661 0.27531
 Zr547 Zr 0.73460 0.23219 0.19781
 O548 O 0.70796 0.25961 0.22197
 Zr549 Zr 0.78461 0.23158 0.24801
 O550 O 0.76048 0.25818 0.27537
 Zr551 Zr 0.73427 0.18184 0.24777
 O552 O 0.70726 0.20611 0.27452
 O553 O 0.70639 0.26009 0.27638
 O554 O 0.76119 0.20506 0.22117
 C555 C 0.73584 0.29708 0.31561
 C556 C 0.66849 0.29902 0.24737
 C557 C 0.66773 0.23168 0.31368
 C558 C 0.73408 0.16750 0.18319
 C559 C 0.79894 0.23196 0.18305
 C560 C 0.79894 0.16679 0.24800
 H561 H 0.77078 0.27231 0.21144
 H562 H 0.77107 0.19469 0.28824
 H563 H 0.69430 0.27233 0.28858
 H564 H 0.69416 0.19601 0.21060
 H565 H 0.68834 0.24929 0.17290
 H566 H 0.65655 0.22581 0.20132
 H567 H 0.81208 0.21811 0.29431
 H568 H 0.78059 0.24327 0.32450
 H569 H 0.72912 0.28083 0.17283
 H570 H 0.71964 0.31326 0.20550
 H571 H 0.74737 0.15380 0.29387
 H572 H 0.71946 0.18507 0.32351
 H573 H 0.78113 0.30722 0.26314
 H574 H 0.81195 0.27785 0.23510
 H575 H 0.65888 0.18642 0.26237
 H576 H 0.68778 0.15508 0.23446
 C577 C 0.22804 0.07314 0.06437
 C578 C 0.25368 0.08825 0.06531
 C579 C 0.27541 0.08190 0.04594
 C580 C 0.27179 0.05993 0.02619
 C581 C 0.24636 0.04419 0.02563
 C582 C 0.22440 0.05119 0.04467
 C583 C 0.25800 0.10938 0.08701
 C584 C 0.26114 0.12671 0.10563
 C585 C 0.26409 0.14688 0.12764
 C586 C 0.26581 0.16432 0.14635
 H587 H 0.21111 0.07790 0.07928
 H588 H 0.29536 0.09343 0.04657
 H589 H 0.28914 0.05459 0.01198
 H590 H 0.20468 0.03925 0.04462
 C591 C 0.78221 0.58452 0.54112
 C592 C 0.76249 0.58822 0.56318
 C593 C 0.73904 0.57004 0.56533
 C594 C 0.73575 0.54767 0.54613
 C595 C 0.75584 0.54327 0.52446
 C596 C 0.77889 0.56208 0.52176
 C597 C 0.76661 0.60970 0.58457
 C598 C 0.76913 0.62707 0.60324
 C599 C 0.77097 0.64710 0.62549
 C600 C 0.77161 0.66439 0.64440
 H601 H 0.80046 0.59848 0.53932
 H602 H 0.72366 0.57273 0.58230
 H603 H 0.71789 0.53330 0.54855
 H604 H 0.79476 0.55878 0.50538
 C605 C 0.76871 0.92166 0.07014
 C606 C 0.74789 0.92449 0.09118
 C607 C 0.72627 0.94483 0.08793
 C608 C 0.72531 0.96215 0.06364
 C609 C 0.74612 0.95958 0.04207
 C610 C 0.76783 0.93891 0.04580
 C611 C 0.74813 0.90576 0.11555
 C612 C 0.74829 0.88960 0.13557
 C613 C 0.74851 0.87010 0.15855
 C614 C 0.74885 0.85294 0.17773
 H615 H 0.78558 0.90597 0.07246
 H616 H 0.70978 0.94691 0.10391
 H617 H 0.70737 0.97651 0.06124
 H618 H 0.78466 0.93645 0.03027
 C619 C 0.22417 0.44467 0.58893
 C620 C 0.24800 0.42763 0.59501
 C621 C 0.27154 0.42805 0.57678
 C622 C 0.27109 0.44506 0.55228
 C623 C 0.24708 0.46189 0.54578
 C624 C 0.22368 0.46170 0.56441
 C625 C 0.24781 0.40859 0.61910
 C626 C 0.24778 0.39198 0.63874
 C627 C 0.24795 0.37186 0.66115
 C628 C 0.24837 0.35417 0.67982
 H629 H 0.20576 0.44435 0.60280
 H630 H 0.29005 0.41487 0.58124
 H631 H 0.28934 0.44490 0.53821
 H632 H 0.20478 0.47416 0.55960
 C633 C 0.71544 0.06605 0.91618
 C634 C 0.73897 0.06796 0.89818
 C635 C 0.76030 0.04701 0.89942
 C636 C 0.75892 0.02515 0.91983
 C637 C 0.73632 0.02427 0.93960
 C638 C 0.71408 0.04447 0.93661
 C639 C 0.74189 0.09266 0.88012
 C640 C 0.74385 0.11393 0.86576
 C641 C 0.74572 0.13889 0.84895
 C642 C 0.74712 0.15960 0.83373
 H643 H 0.69862 0.08192 0.91519
 H644 H 0.77865 0.04832 0.88555
 H645 H 0.77686 0.01068 0.92165
 H646 H 0.69582 0.04405 0.95068
 C647 C 0.26563 0.55144 0.40392
 C648 C 0.24136 0.56829 0.39895
 C649 C 0.21584 0.56190 0.41286
 C650 C 0.21502 0.53995 0.43299
 C651 C 0.23971 0.52412 0.43940
 C652 C 0.26480 0.52936 0.42406
 C653 C 0.24307 0.59351 0.38150
 C654 C 0.24426 0.61500 0.36741
 C655 C 0.24552 0.64000 0.35065
 C656 C 0.24661 0.66059 0.33526
 H657 H 0.28550 0.55623 0.39327
 H658 H 0.19694 0.57477 0.40917
 H659 H 0.19556 0.53637 0.44481
 H660 H 0.28418 0.51772 0.42906
 C661 C 0.26842 0.91512 0.91982
 C662 C 0.24758 0.89419 0.92293
 C663 C 0.22850 0.89567 0.94575
 C664 C 0.22959 0.91861 0.96479
 C665 C 0.24971 0.94066 0.96114
 C666 C 0.26951 0.93806 0.93865
 C667 C 0.24485 0.87238 0.90153
 C668 C 0.24273 0.85488 0.88286
 C669 C 0.24043 0.83487 0.86052
 C670 C 0.23857 0.81779 0.84143
 H671 H 0.28345 0.91410 0.90236
 H672 H 0.21210 0.87966 0.94824
 H673 H 0.21323 0.92001 0.98091
 H674 H 0.28596 0.95388 0.93546
 C675 C 0.72023 0.41490 0.42086
 C676 C 0.74163 0.39407 0.42019
 C677 C 0.76428 0.39530 0.43974
 C678 C 0.76599 0.41785 0.45922
 C679 C 0.74507 0.43937 0.45922
 C680 C 0.72194 0.43741 0.44020
 C681 C 0.74096 0.37255 0.39831
 C682 C 0.74009 0.35518 0.37939
 C683 C 0.73879 0.33520 0.35691
 C684 C 0.73751 0.31805 0.33782
 H685 H 0.70262 0.41421 0.40586
 H686 H 0.78103 0.37935 0.43936
 H687 H 0.78423 0.41918 0.47336
 H688 H 0.70562 0.45380 0.43980
 C689 C 0.07339 0.27593 0.07482
 C690 C 0.09332 0.25365 0.07479
 C691 C 0.08938 0.23027 0.05674
 C692 C 0.06542 0.22901 0.03901
 C693 C 0.04519 0.25120 0.03907
 C694 C 0.04941 0.27471 0.05709
 C695 C 0.11715 0.25416 0.09417
 C696 C 0.13676 0.25423 0.11082
 C697 C 0.15932 0.25392 0.13078
 C698 C 0.17825 0.25334 0.14819
 H699 H 0.07618 0.29406 0.08881
 H700 H 0.10458 0.21282 0.05670
 H701 H 0.06237 0.21048 0.02563
 H702 H 0.03407 0.29201 0.05749
 C703 C 0.59242 0.73289 0.55065
 C704 C 0.59582 0.75310 0.57233
 C705 C 0.57430 0.77319 0.57733
 C706 C 0.54936 0.77290 0.56101
 C707 C 0.54565 0.75257 0.53941
 C708 C 0.56742 0.73259 0.53425
 C709 C 0.62064 0.75261 0.59046
 C710 C 0.64077 0.75240 0.60652
 C711 C 0.66356 0.75223 0.62626
 C712 C 0.68239 0.75200 0.64382
 H713 H 0.60886 0.71711 0.54674
 H714 H 0.57663 0.78884 0.59412
 H715 H 0.53282 0.78847 0.56531
 H716 H 0.56482 0.71648 0.51797
 C717 C 0.06348 0.70985 0.93479
 C718 C 0.06348 0.73100 0.91380
 C719 C 0.04313 0.75287 0.91453
 C720 C 0.02336 0.75407 0.93675
 C721 C 0.02370 0.73336 0.95865
 C722 C 0.04387 0.71099 0.95701
 C723 C 0.08547 0.73103 0.89257
 C724 C 0.10443 0.73104 0.87535
 C725 C 0.12685 0.73114 0.85546
 C726 C 0.14581 0.73142 0.83825
 H727 H 0.07909 0.69276 0.93434
 H728 H 0.04313 0.76950 0.89845
 H729 H 0.00899 0.77216 0.93759
 H730 H 0.04451 0.69429 0.97301
 C731 C 0.56712 0.26365 0.42972
 C732 C 0.56490 0.24034 0.41133
 C733 C 0.54292 0.22052 0.41499
 C734 C 0.52369 0.22363 0.43754
 C735 C 0.52642 0.24657 0.45652
 C736 C 0.54804 0.26673 0.45221
 C737 C 0.58613 0.23644 0.38968
 C738 C 0.60468 0.23404 0.37216
 C739 C 0.62682 0.23223 0.35203
 C740 C 0.64572 0.23152 0.33475
 H741 H 0.58404 0.27909 0.42708
 H742 H 0.54107 0.20238 0.40087
 H743 H 0.50735 0.20770 0.44076
 H744 H 0.55049 0.28451 0.46670
 C745 C 0.92475 0.78146 0.08644
 C746 C 0.92168 0.75912 0.10603
 C747 C 0.93914 0.73493 0.10394
 C748 C 0.95877 0.73258 0.08166
 C749 C 0.96111 0.75442 0.06121
 C750 C 0.94433 0.77914 0.06417
 C751 C 0.89936 0.76027 0.12704
 C752 C 0.88022 0.76111 0.14414
 C753 C 0.85763 0.76210 0.16397
 C754 C 0.83854 0.76305 0.18112
 H755 H 0.91137 0.80028 0.08783
 H756 H 0.93689 0.71746 0.11892
 H757 H 0.97108 0.71312 0.07958
 H758 H 0.94573 0.79623 0.04865
 C759 C 0.44097 0.23762 0.60389
 C760 C 0.42136 0.26022 0.60504
 C761 C 0.42214 0.28172 0.58432
 C762 C 0.44167 0.28014 0.56199
 C763 C 0.46074 0.25706 0.56010
 C764 C 0.46063 0.23605 0.58152
 C765 C 0.39932 0.26074 0.62635
 C766 C 0.38030 0.26147 0.64358
 C767 C 0.35778 0.26261 0.66348
 C768 C 0.33876 0.26375 0.68068
 H769 H 0.44050 0.22081 0.61977
 H770 H 0.40710 0.29929 0.58496
 H771 H 0.44136 0.29652 0.54566
 H772 H 0.47483 0.21784 0.58023
 C773 C 0.89907 0.25759 0.95545
 C774 C 0.89973 0.23865 0.93243
 C775 C 0.92015 0.21696 0.93178
 C776 C 0.94109 0.21540 0.95286
 C777 C 0.94215 0.23562 0.97510
 C778 C 0.91998 0.25597 0.97682
 C779 C 0.88117 0.24253 0.90823
 C780 C 0.86649 0.24533 0.88726
 C781 C 0.84941 0.24796 0.86256
 C782 C 0.83399 0.24950 0.84201
 H783 H 0.88328 0.27448 0.95614
 H784 H 0.92065 0.20194 0.91427
 H785 H 0.95712 0.19879 0.95125
 H786 H 0.92019 0.27236 0.99301
 C787 C 0.41162 0.77862 0.44131
 C788 C 0.39764 0.75327 0.43433
 C789 C 0.40290 0.72851 0.45038
 C790 C 0.42332 0.72874 0.47226
 C791 C 0.43858 0.75373 0.47810
 C792 C 0.43203 0.77884 0.46303
 C793 C 0.37985 0.75236 0.40925
 C794 C 0.36555 0.75202 0.38783
 C795 C 0.34867 0.75188 0.36283
 C796 C 0.33333 0.75173 0.34214
 H797 H 0.40777 0.79788 0.42904
 H798 H 0.39224 0.70875 0.44510
 H799 H 0.42853 0.70907 0.48331
 H800 H 0.44395 0.79817 0.46699
 C801 C 0.08379 0.08347 0.26791
 C802 C 0.10493 0.08085 0.24722
 C803 C 0.10416 0.05794 0.22818
 C804 C 0.08178 0.03826 0.22922
 C805 C 0.05958 0.04130 0.24927
 C806 C 0.06140 0.06400 0.26897
 C807 C 0.12636 0.10264 0.24475
 C808 C 0.14368 0.12151 0.24285
 C809 C 0.16364 0.14390 0.24078
 C810 C 0.18084 0.16288 0.23908
 H811 H 0.08426 0.10098 0.28293
 H812 H 0.12034 0.05581 0.21189
 H813 H 0.08095 0.02205 0.21289
 H814 H 0.04548 0.06678 0.28539
 C815 C 0.60288 0.55989 0.72341
 C816 C 0.60618 0.58146 0.74379
 C817 C 0.58739 0.58301 0.76683
 C818 C 0.56492 0.56372 0.76906
 C819 C 0.56095 0.54253 0.74832
 C820 C 0.58035 0.54046 0.72567
 C821 C 0.62782 0.60298 0.74063
 C822 C 0.64534 0.62164 0.73848
 C823 C 0.66554 0.64384 0.73642
 C824 C 0.68288 0.66273 0.73494
 H825 H 0.61724 0.55855 0.70543
 H826 H 0.58969 0.59958 0.78271
 H827 H 0.55016 0.56572 0.78665
 H828 H 0.57741 0.52459 0.70920
 C829 C 0.95376 0.10188 0.76033
 C830 C 0.93261 0.10263 0.73916
 C831 C 0.93429 0.08405 0.71605
 C832 C 0.95579 0.06353 0.71501
 C833 C 0.97615 0.06102 0.73716
 C834 C 0.97557 0.08137 0.75926
 C835 C 0.90791 0.12073 0.74187
 C836 C 0.88661 0.13508 0.74363
 C837 C 0.86164 0.15189 0.74532
 C838 C 0.84097 0.16717 0.74664
 H839 H 0.95263 0.11621 0.77836
 H840 H 0.91827 0.08466 0.69935
 H841 H 0.95599 0.04897 0.69711
 H842 H 0.99020 0.07994 0.77709
 C843 C 0.43560 0.58445 0.28142
 C844 C 0.43210 0.60143 0.25707
 C845 C 0.45166 0.59929 0.23465
 C846 C 0.47365 0.57903 0.23589
 C847 C 0.47610 0.56073 0.25953
 C848 C 0.45745 0.56420 0.28264
 C849 C 0.40720 0.61930 0.25442
 C850 C 0.38591 0.63368 0.25259
 C851 C 0.36105 0.65070 0.25100
 C852 C 0.34049 0.66619 0.25024
 H853 H 0.42065 0.58594 0.29890
 H854 H 0.44913 0.61233 0.21570
 H855 H 0.48750 0.57635 0.21767
 H856 H 0.45886 0.55010 0.30093
 C857 C 0.05947 0.91454 0.72521
 C858 C 0.07565 0.90852 0.74963
 C859 C 0.07426 0.92675 0.77318
 C860 C 0.05698 0.95110 0.77219
 C861 C 0.04086 0.95741 0.74765
 C862 C 0.04221 0.93887 0.72418
 C863 C 0.09457 0.88431 0.75009
 C864 C 0.11088 0.86440 0.75031
 C865 C 0.13051 0.84154 0.75053
 C866 C 0.14775 0.82243 0.75082
 H867 H 0.06054 0.90069 0.70679
 H868 H 0.08678 0.92234 0.79215
 H869 H 0.05626 0.96508 0.79051
 H870 H 0.03034 0.94355 0.70486
 C871 C 0.57648 0.42753 0.22426
 C872 C 0.57447 0.40661 0.24550
 C873 C 0.55498 0.41000 0.26777
 C874 C 0.53788 0.43444 0.26905
 C875 C 0.54003 0.45570 0.24799
 C876 C 0.55939 0.45197 0.22551
 C877 C 0.59344 0.38241 0.24520
 C878 C 0.60988 0.36261 0.24526
 C879 C 0.62974 0.33993 0.24567
 C880 C 0.64719 0.32101 0.24629
 H881 H 0.59158 0.42518 0.20700
 H882 H 0.55341 0.39404 0.28444
 H883 H 0.52347 0.43708 0.28684
 H884 H 0.56141 0.46810 0.20907
 C885 C 0.93361 0.93139 0.23099
 C886 C 0.91421 0.93458 0.25326
 C887 C 0.91637 0.95790 0.27161
 C888 C 0.93843 0.97758 0.26823
 C889 C 0.95879 0.97419 0.24637
 C890 C 0.95568 0.95092 0.22757
 C891 C 0.89288 0.91315 0.25777
 C892 C 0.87545 0.89467 0.26108
 C893 C 0.85523 0.87277 0.26419
 C894 C 0.83772 0.85417 0.26599
 H895 H 0.93197 0.91350 0.21652
 H896 H 0.90152 0.96043 0.28907
 H897 H 0.94049 0.99429 0.28394
 H898 H 0.97025 0.94782 0.20998
 C899 C 0.43429 0.43792 0.78433
 C900 C 0.41325 0.43664 0.76317
 C901 C 0.41408 0.45554 0.73998
 C902 C 0.43641 0.47510 0.73755
 C903 C 0.45802 0.47583 0.75833
 C904 C 0.45656 0.45737 0.78191
 C905 C 0.39193 0.41475 0.76459
 C906 C 0.37467 0.39585 0.76583
 C907 C 0.35473 0.37348 0.76710
 C908 C 0.33750 0.35453 0.76780
 H909 H 0.43388 0.42337 0.80231
 H910 H 0.39795 0.45461 0.72343
 H911 H 0.43740 0.48892 0.71904
 H912 H 0.47311 0.45759 0.79808
 C913 C 0.07125 0.22539 0.93405
 C914 C 0.09014 0.24818 0.93662
 C915 C 0.08718 0.26742 0.95914
 C916 C 0.06471 0.26451 0.97844
 C917 C 0.04469 0.24229 0.97541
 C918 C 0.04877 0.22245 0.95318
 C919 C 0.11138 0.25255 0.91506
 C920 C 0.12855 0.25589 0.89634
 C921 C 0.14836 0.25931 0.87408
 C922 C 0.16547 0.26171 0.85516
 H923 H 0.07348 0.21024 0.91679
 H924 H 0.10162 0.28529 0.96118
 H925 H 0.06196 0.28090 0.99439
 H926 H 0.03446 0.20458 0.95045
 C927 C 0.58464 0.77998 0.45758
 C928 C 0.58772 0.75968 0.43592
 C929 C 0.56897 0.73663 0.43437
 C930 C 0.54671 0.73427 0.45383
 C931 C 0.54299 0.75489 0.47514
 C932 C 0.56231 0.77760 0.47717
 C933 C 0.60920 0.76283 0.41438
 C934 C 0.62660 0.76476 0.39567
 C935 C 0.64667 0.76630 0.37344
 C936 C 0.66400 0.76709 0.35458
 H937 H 0.59903 0.79794 0.45890
 H938 H 0.57116 0.72082 0.41772
 H939 H 0.53195 0.71666 0.45192
 H940 H 0.55954 0.79388 0.49326
 C941 C 0.92385 0.77136 0.92837
 C942 C 0.92622 0.75017 0.90763
 C943 C 0.94588 0.72798 0.91135
 C944 C 0.96306 0.72690 0.93578
 C945 C 0.96100 0.74817 0.95695
 C946 C 0.94094 0.77036 0.95281
 C947 C 0.90767 0.75077 0.88309
 C948 C 0.89158 0.75133 0.86299
 C949 C 0.87207 0.75194 0.83999
 C950 C 0.85484 0.75233 0.82085
 H951 H 0.90868 0.78865 0.92573
 H952 H 0.94761 0.71122 0.89559
 H953 H 0.97714 0.70876 0.93851
 H954 H 0.93888 0.78747 0.96813
 C955 C 0.45048 0.27062 0.40853
 C956 C 0.42841 0.25082 0.40532
 C957 C 0.42352 0.23052 0.42665
 C958 C 0.44031 0.23021 0.45127
 C959 C 0.46227 0.25016 0.45482
 C960 C 0.46735 0.27031 0.43321
 C961 C 0.40983 0.25191 0.38088
 C962 C 0.39339 0.25246 0.36108
 C963 C 0.37327 0.25274 0.33867
 C964 C 0.35545 0.25273 0.32011
 H965 H 0.45432 0.28654 0.39222
 H966 H 0.40645 0.21518 0.42442
 H967 H 0.43606 0.21453 0.46770
 H968 H 0.48392 0.28613 0.43572
 C969 C 0.06282 0.71649 0.08795
 C970 C 0.06927 0.74251 0.10095
 C971 C 0.05202 0.76642 0.09565
 C972 C 0.02949 0.76474 0.07608
 C973 C 0.02412 0.73914 0.06157
 C974 C 0.04038 0.71480 0.06838
 C975 C 0.09474 0.74502 0.11802
 C976 C 0.11633 0.74684 0.13194
 C977 C 0.14135 0.74861 0.14871
 C978 C 0.16184 0.74977 0.16427
 H979 H 0.07594 0.69783 0.09195
 H980 H 0.05680 0.78666 0.10562
 H981 H 0.01757 0.78387 0.07080
 H982 H 0.03672 0.69492 0.05727
 C983 C 0.55281 0.27566 0.59588
 C984 C 0.56963 0.25139 0.60101
 C985 C 0.56308 0.22572 0.58741
 C986 C 0.54099 0.22472 0.56744
 C987 C 0.52513 0.24935 0.56096
 C988 C 0.53056 0.27465 0.57591
 C989 C 0.59491 0.25306 0.61841
 C990 C 0.61644 0.25383 0.63250
 C991 C 0.64144 0.25412 0.64933
 C992 C 0.66195 0.25399 0.66489
 H993 H 0.55773 0.29565 0.60629
 H994 H 0.57592 0.20682 0.59121
 H995 H 0.53734 0.20517 0.55576
 H996 H 0.51889 0.29396 0.57074
 C997 C 0.90140 0.21873 0.06006
 C998 C 0.89604 0.24119 0.07896
 C999 C 0.91229 0.26610 0.07729
 C1000 C 0.93441 0.26820 0.05753
 C1001 C 0.94055 0.24541 0.03912
 C1002 C 0.92354 0.22082 0.04023
 C1003 C 0.87493 0.23828 0.10103
 C1004 C 0.85768 0.23617 0.11994
 C1005 C 0.83762 0.23414 0.14227
 C1006 C 0.82025 0.23286 0.16115
 H1007 H 0.88901 0.19932 0.06119
 H1008 H 0.90836 0.28362 0.09177
 H1009 H 0.94727 0.28733 0.05710
 H1010 H 0.92813 0.20281 0.02658
 C1011 C 0.41678 0.71879 0.58054
 C1012 C 0.39554 0.73976 0.58165
 C1013 C 0.39622 0.76275 0.56247
 C1014 C 0.41856 0.76518 0.54286
 C1015 C 0.44042 0.74463 0.54235
 C1016 C 0.43907 0.72121 0.56106
 C1017 C 0.37411 0.73831 0.60355
 C1018 C 0.35676 0.73693 0.62244
 C1019 C 0.33671 0.73532 0.64480
 C1020 C 0.31942 0.73412 0.66375
 H1021 H 0.41653 0.70094 0.59526
 H1022 H 0.37994 0.77918 0.56321
 H1023 H 0.41940 0.78363 0.52896
 H1024 H 0.45574 0.70517 0.56106
 C1025 C 0.27284 0.07090 0.92153
 C1026 C 0.25425 0.09362 0.92671
 C1027 C 0.23519 0.09215 0.94948
 C1028 C 0.23436 0.06783 0.96676
 C1029 C 0.25269 0.04444 0.96161
 C1030 C 0.27207 0.04654 0.93871
 C1031 C 0.25380 0.11776 0.90772
 C1032 C 0.25324 0.13749 0.89121
 C1033 C 0.25247 0.16004 0.87126
 C1034 C 0.25183 0.17887 0.85374
 H1035 H 0.28774 0.07185 0.90396
 H1036 H 0.22041 0.10948 0.95343
 H1037 H 0.21815 0.06683 0.98306
 H1038 H 0.28705 0.02953 0.93425
 C1039 C 0.77082 0.57321 0.42147
 C1040 C 0.75078 0.59468 0.42687
 C1041 C 0.73127 0.59138 0.44917
 C1042 C 0.73166 0.56655 0.46582
 C1043 C 0.75162 0.54484 0.46031
 C1044 C 0.77122 0.54843 0.43805
 C1045 C 0.74972 0.61945 0.40868
 C1046 C 0.74915 0.63957 0.39262
 C1047 C 0.74878 0.66239 0.37292
 C1048 C 0.74869 0.68124 0.35537
 H1049 H 0.78594 0.57548 0.40421
 H1050 H 0.71555 0.60778 0.45342
 H1051 H 0.71608 0.56403 0.48260
 H1052 H 0.78676 0.53195 0.43345
 C1053 C 0.75563 0.04556 0.08268
 C1054 C 0.73147 0.06262 0.08693
 C1055 C 0.70734 0.05895 0.06971
 C1056 C 0.70772 0.03902 0.04764
 C1057 C 0.73224 0.02251 0.04261
 C1058 C 0.75604 0.02560 0.06061
 C1059 C 0.73199 0.08503 0.10777
 C1060 C 0.73252 0.10419 0.12481
 C1061 C 0.73316 0.12670 0.14465
 C1062 C 0.73365 0.14566 0.16191
 H1063 H 0.77444 0.04831 0.09584
 H1064 H 0.68856 0.07207 0.07280
 H1065 H 0.68921 0.03704 0.03392
 H1066 H 0.77531 0.01342 0.05682
 C1067 C 0.25642 0.54686 0.58563
 C1068 C 0.23268 0.56484 0.58833
 C1069 C 0.20969 0.56222 0.56944
 C1070 C 0.21084 0.54244 0.54729
 C1071 C 0.23501 0.52502 0.54383
 C1072 C 0.25760 0.52704 0.56346
 C1073 C 0.23261 0.58711 0.60931
 C1074 C 0.23269 0.60616 0.62647
 C1075 C 0.23289 0.62853 0.64647
 C1076 C 0.23309 0.64734 0.66390
 H1077 H 0.27437 0.54880 0.60008
 H1078 H 0.19124 0.57605 0.57133
 H1079 H 0.19326 0.54127 0.53231
 H1080 H 0.27662 0.51416 0.56090
 C1081 C 0.73487 0.93871 0.89537
 C1082 C 0.75987 0.92244 0.89299
 C1083 C 0.78219 0.92657 0.91241
 C1084 C 0.77914 0.94601 0.93473
 C1085 C 0.75371 0.96162 0.93793
 C1086 C 0.73179 0.95822 0.91772
 C1087 C 0.76199 0.90023 0.87187
 C1088 C 0.76370 0.88115 0.85473
 C1089 C 0.76555 0.85858 0.83486
 C1090 C 0.76691 0.83947 0.81772
 H1091 H 0.71740 0.93564 0.88053
 H1092 H 0.80161 0.91412 0.91083
 H1093 H 0.79627 0.94822 0.95011
 H1094 H 0.71185 0.96967 0.91998
 C1095 C 0.23647 0.43933 0.39673
 C1096 C 0.26067 0.42177 0.39547
 C1097 C 0.28215 0.42452 0.41604
 C1098 C 0.27899 0.44392 0.43837
 C1099 C 0.25430 0.46085 0.44041
 C1100 C 0.23329 0.45880 0.41908
 C1101 C 0.26271 0.39966 0.37427
 C1102 C 0.26429 0.38065 0.35707
 C1103 C 0.26591 0.35814 0.33715
 C1104 C 0.26700 0.33909 0.31996
 H1105 H 0.21964 0.43730 0.38099
 H1106 H 0.30095 0.41106 0.41532
 H1107 H 0.29544 0.44511 0.45459
 H1108 H 0.21387 0.47128 0.42045
 C1109 C 0.26509 0.90366 0.05138
 C1110 C 0.24187 0.90070 0.06986
 C1111 C 0.21704 0.91665 0.06511
 C1112 C 0.21596 0.93661 0.04299
 C1113 C 0.23971 0.94082 0.02532
 C1114 C 0.26402 0.92364 0.02915
 C1115 C 0.24404 0.88286 0.09482
 C1116 C 0.24558 0.86837 0.11605
 C1117 C 0.24708 0.85112 0.14074
 C1118 C 0.24807 0.83538 0.16110
 H1119 H 0.28442 0.89142 0.05489
 H1120 H 0.19894 0.91451 0.07922
 H1121 H 0.19713 0.94984 0.04051
 H1122 H 0.28271 0.92689 0.01607
 C1123 C 0.72685 0.40509 0.55272
 C1124 C 0.75138 0.39988 0.56914
 C1125 C 0.77712 0.41286 0.56169
 C1126 C 0.77797 0.43231 0.53914
 C1127 C 0.75311 0.43891 0.52368
 C1128 C 0.72771 0.42455 0.53001
 C1129 C 0.74995 0.38304 0.59483
 C1130 C 0.74931 0.36934 0.61663
 C1131 C 0.74906 0.35281 0.64186
 C1132 C 0.74912 0.33736 0.66246
 H1133 H 0.70681 0.39517 0.55831
 H1134 H 0.79622 0.40901 0.57420
 H1135 H 0.79760 0.44360 0.53484
 H1136 H 0.70822 0.42985 0.51870
 C1137 C 0.07460 0.08770 0.78222
 C1138 C 0.07892 0.10684 0.75971
 C1139 C 0.06246 0.10452 0.73482
 C1140 C 0.04259 0.08247 0.73202
 C1141 C 0.03905 0.06249 0.75411
 C1142 C 0.05483 0.06567 0.77944
 C1143 C 0.10150 0.12755 0.76157
 C1144 C 0.12087 0.14436 0.76313
 C1145 C 0.14371 0.16389 0.76484
 C1146 C 0.16294 0.18089 0.76607
 H1147 H 0.08719 0.08925 0.80157
 H1148 H 0.06567 0.11916 0.71721
 H1149 H 0.03100 0.08018 0.71215
 H1150 H 0.05251 0.05046 0.79670
 C1151 C 0.55931 0.60216 0.27910
 C1152 C 0.57957 0.60652 0.25766
 C1153 C 0.57965 0.58894 0.23361
 C1154 C 0.56033 0.56645 0.23147
 C1155 C 0.54062 0.56126 0.25336
 C1156 C 0.53990 0.57964 0.27697
 C1157 C 0.60136 0.62786 0.26089
 C1158 C 0.62019 0.64516 0.26324
 C1159 C 0.64255 0.66515 0.26550
 C1160 C 0.66157 0.68234 0.26694
 H1161 H 0.55911 0.61558 0.29786
 H1162 H 0.59520 0.59209 0.21689
 H1163 H 0.56130 0.55252 0.21311
 H1164 H 0.52522 0.57579 0.29431
 C1165 C 0.08616 0.93780 0.21580
 C1166 C 0.10151 0.93232 0.24087
 C1167 C 0.09822 0.95032 0.26444
 C1168 C 0.07835 0.97266 0.26352
 C1169 C 0.06158 0.97706 0.23902
 C1170 C 0.06629 0.96002 0.21488
 C1171 C 0.11880 0.90695 0.24295
 C1172 C 0.13280 0.88537 0.24447
 C1173 C 0.14953 0.86031 0.24600
 C1174 C 0.16497 0.83972 0.24709
 H1175 H 0.08854 0.92406 0.19743
 H1176 H 0.11000 0.94626 0.28396
 H1177 H 0.07467 0.98522 0.28251
 H1178 H 0.05331 0.96288 0.19592
 C1179 C 0.58625 0.43931 0.72295
 C1180 C 0.60175 0.43303 0.74774
 C1181 C 0.59850 0.45017 0.77197
 C1182 C 0.57856 0.47247 0.77190
 C1183 C 0.56183 0.47770 0.74759
 C1184 C 0.56632 0.46148 0.72290
 C1185 C 0.61913 0.40768 0.74882
 C1186 C 0.63318 0.38610 0.74943
 C1187 C 0.64995 0.36104 0.74987
 C1188 C 0.66542 0.34046 0.75008
 H1189 H 0.58854 0.42619 0.70412
 H1190 H 0.61035 0.44544 0.79130
 H1191 H 0.57487 0.48438 0.79130
 H1192 H 0.55314 0.46490 0.70418
 C1193 C 0.92548 0.07401 0.27475
 C1194 C 0.90611 0.07242 0.25204
 C1195 C 0.91112 0.05342 0.22963
 C1196 C 0.93564 0.03639 0.22971
 C1197 C 0.95537 0.03812 0.25228
 C1198 C 0.95001 0.05699 0.27486
 C1199 C 0.88187 0.09129 0.25109
 C1200 C 0.86206 0.10771 0.25022
 C1201 C 0.83945 0.12762 0.24923
 C1202 C 0.82066 0.14520 0.24853
 H1203 H 0.92187 0.08872 0.29214
 H1204 H 0.89636 0.05216 0.21186
 H1205 H 0.93954 0.02232 0.21187
 H1206 H 0.96494 0.05869 0.29244
 C1207 C 0.42465 0.57466 0.72828
 C1208 C 0.40538 0.57282 0.75089
 C1209 C 0.41097 0.55423 0.77370
 C1210 C 0.43593 0.53779 0.77401
 C1211 C 0.45547 0.53980 0.75146
 C1212 C 0.44956 0.55830 0.72857
 C1213 C 0.38070 0.59112 0.75111
 C1214 C 0.36069 0.60731 0.75095
 C1215 C 0.33802 0.62717 0.75056
 C1216 C 0.31931 0.64484 0.75022
 H1217 H 0.42062 0.58906 0.71059
 H1218 H 0.39629 0.55281 0.79142
 H1219 H 0.44028 0.52394 0.79204
 H1220 H 0.46435 0.56015 0.71099
 C1221 C 0.95640 0.91604 0.75565
 C1222 C 0.93921 0.91229 0.73149
 C1223 C 0.94236 0.93033 0.70790
 C1224 C 0.96180 0.95279 0.70890
 C1225 C 0.97831 0.95740 0.73351
 C1226 C 0.97586 0.93851 0.75668
 C1227 C 0.91699 0.89128 0.73165
 C1228 C 0.89791 0.87418 0.73200
 C1229 C 0.87541 0.85435 0.73250
 C1230 C 0.85643 0.83715 0.73289
 H1231 H 0.95403 0.90226 0.77406
 H1232 H 0.92913 0.92762 0.68913
 H1233 H 0.96330 0.96718 0.69087
 H1234 H 0.98800 0.94196 0.77604
 C1235 C 0.45664 0.41702 0.22586
 C1236 C 0.43682 0.41173 0.24748
 C1237 C 0.43728 0.42803 0.27241
 C1238 C 0.45677 0.45025 0.27530
 C1239 C 0.47607 0.45635 0.25331
 C1240 C 0.47621 0.43927 0.22875
 C1241 C 0.41491 0.39076 0.24360
 C1242 C 0.39600 0.37370 0.24074
 C1243 C 0.37363 0.35394 0.23794
 C1244 C 0.35467 0.33679 0.23614
 H1245 H 0.45638 0.40456 0.20646
 H1246 H 0.42203 0.42411 0.28925
 H1247 H 0.45629 0.46325 0.29435
 H1248 H 0.49062 0.44391 0.21137
   
