data_POSCAR
  _audit_creation_date              2014-09-24
  _audit_creation_method            'ToBaCCo'
  _symmetry_space_group_name_H-M    'P1'
  _symmetry_Int_Tables_number       1
  _symmetry_cell_setting            triclinic
  loop_
  _symmetry_equiv_pos_as_xyz
 x,y,z
_cell_length_a 35.7175
_cell_length_b 35.1351
_cell_length_c 29.7272
_cell_angle_alpha 90.213200
_cell_angle_beta 89.898600
_cell_angle_gamma 89.966300
loop_
  _atom_site_label
  _atom_site_type_symbol
  _atom_site_fract_x
  _atom_site_fract_y
  _atom_site_fract_z
C1 C 0.00159 -0.01476 0.14407
 C2 C 0.00172 0.01489 -0.14961
 C3 C -0.08514 -0.06748 0.05827
 C4 C -0.08449 0.05982 0.06940
 C5 C -0.08481 -0.05953 -0.07401
 C6 C 0.08857 -0.05746 -0.07721
 C7 C 0.08821 0.06375 -0.06806
 C8 C 0.08750 -0.06439 0.06286
 C9 C -0.08483 0.06733 -0.06233
 C10 C 0.08807 0.05579 0.07309
 O11 O -0.05049 -0.06661 -0.08560
 O12 O -0.09500 -0.03382 -0.04548
 O13 O -0.05052 0.07651 -0.07135
 O14 O -0.09498 0.03900 -0.03786
 O15 O 0.05383 0.06228 0.08521
 O16 O 0.09810 0.03235 0.04180
 O17 O 0.00130 0.04467 -0.12446
 O18 O 0.00181 -0.01966 -0.13435
 O19 O 0.00153 0.01966 0.12874
 O20 O 0.00111 -0.04480 0.11938
 O21 O 0.05425 -0.06408 -0.08923
 O22 O 0.09824 -0.03300 -0.04690
 O23 O -0.05085 -0.07675 0.06711
 O24 O -0.09513 -0.03924 0.03346
 O25 O 0.05318 -0.07367 0.07153
 O26 O 0.09773 -0.03796 0.03556
 O27 O 0.05385 0.07313 -0.07662
 O28 O 0.09803 0.03711 -0.04081
 O29 O 0.00292 0.09892 0.08352
 O30 O 0.00347 0.11166 -0.05508
 O31 O 0.00257 -0.09899 -0.09032
 O32 O 0.00276 -0.11212 0.04940
 O33 O -0.03052 -0.04978 -0.00925
 O34 O -0.03039 0.04945 0.00401
 O35 O 0.03289 -0.04962 -0.00893
 O36 O -0.03294 -0.00515 0.05753
 O37 O -0.09481 0.03429 0.04067
 O38 O -0.05018 0.06642 0.08102
 O39 O 0.03589 -0.00553 0.05771
 O40 O 0.03620 0.00495 -0.06314
 O41 O 0.03315 0.04914 0.00373
 O42 O -0.03270 0.00486 -0.06251
 Zr43 Zr 0.00159 0.04161 0.06212
 Zr44 Zr 0.00170 -0.04204 -0.06756
 Zr45 Zr -0.06242 -0.00011 -0.00240
 Zr46 Zr 0.00115 -0.05210 0.04948
 Zr47 Zr 0.00158 0.05165 -0.05463
 Zr48 Zr 0.06540 -0.00033 -0.00264
 H49 H 0.04763 -0.07342 -0.01071
 H50 H -0.04996 -0.00688 0.08376
 H51 H 0.04803 0.07282 0.00575
 H52 H -0.04967 0.00675 -0.08870
 H53 H 0.00446 0.11412 0.05559
 H54 H -0.00269 0.11958 -0.02395
 H55 H -0.00305 -0.11978 0.01811
 H56 H 0.00359 -0.11467 -0.06272
 C57 C 0.25077 0.26554 0.10205
 C58 C 0.24948 0.23486 0.39552
 C59 C 0.16375 0.31794 0.18822
 C60 C 0.16399 0.19059 0.17651
 C61 C 0.16338 0.30989 0.32048
 C62 C 0.33601 0.30647 0.32478
 C63 C 0.33555 0.18522 0.31387
 C64 C 0.33642 0.31441 0.18508
 C65 C 0.16283 0.18277 0.30861
 C66 C 0.33668 0.19315 0.17391
 O67 O 0.19765 0.31633 0.33242
 O68 O 0.15312 0.28452 0.29153
 O69 O 0.19709 0.17344 0.31748
 O70 O 0.15281 0.21112 0.28404
 O71 O 0.30249 0.18688 0.16149
 O72 O 0.34654 0.21690 0.20495
 O73 O 0.24893 0.20498 0.37058
 O74 O 0.24951 0.26937 0.38042
 O75 O 0.25059 0.23099 0.11721
 O76 O 0.25029 0.29529 0.12726
 O77 O 0.30172 0.31293 0.33677
 O78 O 0.34616 0.28266 0.29390
 O79 O 0.19813 0.32709 0.17973
 O80 O 0.15337 0.28958 0.21261
 O81 O 0.30217 0.32383 0.17628
 O82 O 0.34645 0.28745 0.21164
 O83 O 0.30118 0.17593 0.32231
 O84 O 0.34588 0.21209 0.28727
 O85 O 0.25121 0.15145 0.16151
 O86 O 0.25056 0.13802 0.30068
 O87 O 0.25058 0.34878 0.33590
 O88 O 0.25158 0.36208 0.19707
 O89 O 0.21774 0.29971 0.25559
 O90 O 0.21771 0.20064 0.24180
 O91 O 0.28125 0.29925 0.25565
 O92 O 0.21566 0.25535 0.18869
 O93 O 0.15347 0.21610 0.20520
 O94 O 0.19836 0.18398 0.16496
 O95 O 0.28465 0.25545 0.18864
 O96 O 0.28397 0.24452 0.30946
 O97 O 0.28115 0.20066 0.24244
 O98 O 0.21502 0.24495 0.30867
 Zr99 Zr 0.25016 0.20854 0.18380
 Zr100 Zr 0.24957 0.29163 0.31387
 Zr101 Zr 0.18566 0.25024 0.24852
 Zr102 Zr 0.24990 0.30206 0.19716
 Zr103 Zr 0.24921 0.19805 0.30064
 Zr104 Zr 0.31369 0.24986 0.24923
 H105 H 0.29598 0.32301 0.25784
 H106 H 0.19885 0.25730 0.16235
 H107 H 0.29583 0.17684 0.24043
 H108 H 0.19796 0.24312 0.33485
 H109 H 0.25227 0.13592 0.18922
 H110 H 0.24505 0.13034 0.26932
 H111 H 0.24564 0.36983 0.22831
 H112 H 0.25198 0.36422 0.30814
 C113 C 0.50025 -0.01516 0.14696
 C114 C 0.50085 0.01238 -0.14581
 C115 C 0.58792 0.05789 0.07225
 C116 C 0.58811 -0.06785 0.06344
 C117 C 0.58841 0.06489 -0.06250
 C118 C 0.41544 0.06279 -0.06462
 C119 C 0.41498 -0.05838 -0.07411
 C120 C 0.41506 0.05624 0.07527
 C121 C 0.58823 -0.06183 -0.07040
 C122 C 0.41486 -0.06585 0.06623
 O123 O 0.55400 0.07398 -0.07124
 O124 O 0.59824 0.03732 -0.03639
 O125 O 0.55382 -0.06867 -0.08184
 O126 O 0.59827 -0.03590 -0.04207
 O127 O 0.44925 -0.07519 0.07495
 O128 O 0.40515 -0.03890 0.03926
 O129 O 0.50121 -0.02200 -0.13033
 O130 O 0.50139 0.04252 -0.12145
 O131 O 0.50085 -0.04541 0.12275
 O132 O 0.50065 0.01914 0.13133
 O133 O 0.44978 0.07202 -0.07353
 O134 O 0.40533 0.03607 -0.03766
 O135 O 0.55359 0.06478 0.08387
 O136 O 0.59819 0.03257 0.04325
 O137 O 0.44932 0.06283 0.08714
 O138 O 0.40505 0.03199 0.04484
 O139 O 0.44925 -0.06527 -0.08596
 O140 O 0.40500 -0.03429 -0.04347
 O141 O 0.50055 -0.11318 0.05323
 O142 O 0.50065 -0.10110 -0.08533
 O143 O 0.50085 0.11012 -0.05205
 O144 O 0.50085 0.09821 0.08594
 O145 O 0.53389 0.04827 0.00663
 O146 O 0.53371 -0.05127 -0.00543
 O147 O 0.47016 0.04797 0.00638
 O148 O 0.53574 -0.00613 0.06042
 O149 O 0.59806 -0.04041 0.03726
 O150 O 0.55368 -0.07692 0.07230
 O151 O 0.46700 -0.00627 0.06107
 O152 O 0.46727 0.00335 -0.05964
 O153 O 0.47001 -0.05092 -0.00519
 O154 O 0.53603 0.00298 -0.05943
 Zr155 Zr 0.50157 -0.05314 0.05316
 Zr156 Zr 0.50197 0.05008 -0.05191
 Zr157 Zr 0.56568 -0.00155 0.00050
 Zr158 Zr 0.50149 0.04084 0.06474
 Zr159 Zr 0.50162 -0.04386 -0.06363
 Zr160 Zr 0.43766 -0.00141 0.00074
 H161 H 0.45549 0.07181 0.00816
 H162 H 0.55250 -0.00763 0.08683
 H163 H 0.45522 -0.07466 -0.00697
 H164 H 0.55293 0.00439 -0.08580
 H165 H 0.50784 -0.12087 0.02238
 H166 H 0.49905 -0.11640 -0.05748
 H167 H 0.49973 0.11336 0.05795
 H168 H 0.50850 0.11787 -0.02138
 C169 C 0.75250 0.26473 0.10475
 C170 C 0.75142 0.23401 0.39706
 C171 C 0.66507 0.31669 0.18934
 C172 C 0.66546 0.19048 0.17796
 C173 C 0.66468 0.30801 0.32310
 C174 C 0.83762 0.30540 0.32698
 C175 C 0.83777 0.18502 0.31667
 C176 C 0.83759 0.31392 0.18583
 C177 C 0.66489 0.18204 0.31129
 C178 C 0.83832 0.19341 0.17496
 O179 O 0.69896 0.31487 0.33483
 O180 O 0.65459 0.28288 0.29386
 O181 O 0.69919 0.17284 0.32024
 O182 O 0.65478 0.20999 0.28613
 O183 O 0.80409 0.18693 0.16290
 O184 O 0.84826 0.21679 0.20634
 O185 O 0.75108 0.20406 0.37230
 O186 O 0.75123 0.26850 0.38196
 O187 O 0.75233 0.23024 0.11982
 O188 O 0.75182 0.29467 0.12948
 O189 O 0.80330 0.31183 0.33890
 O190 O 0.84786 0.28199 0.29575
 O191 O 0.69942 0.32591 0.18069
 O192 O 0.65491 0.28870 0.21453
 O193 O 0.80327 0.32322 0.17734
 O194 O 0.84782 0.28727 0.21287
 O195 O 0.80335 0.17565 0.32498
 O196 O 0.84776 0.21166 0.28939
 O197 O 0.75290 0.15056 0.16422
 O198 O 0.75300 0.13719 0.30185
 O199 O 0.75201 0.34808 0.33759
 O200 O 0.75277 0.36151 0.20008
 O201 O 0.71907 0.29904 0.25760
 O202 O 0.71939 0.19969 0.24393
 O203 O 0.78288 0.29871 0.25751
 O204 O 0.71729 0.25456 0.19087
 O205 O 0.65505 0.21563 0.20710
 O206 O 0.69984 0.18370 0.16649
 O207 O 0.78604 0.25486 0.19077
 O208 O 0.78571 0.24393 0.31113
 O209 O 0.78319 0.19996 0.24435
 O210 O 0.71693 0.24404 0.31049
 Zr211 Zr 0.75178 0.20776 0.18606
 Zr212 Zr 0.75114 0.29091 0.31565
 Zr213 Zr 0.68733 0.24934 0.25056
 Zr214 Zr 0.75127 0.30148 0.19922
 Zr215 Zr 0.75126 0.19721 0.30252
 Zr216 Zr 0.81546 0.24938 0.25100
 H217 H 0.79762 0.32247 0.25970
 H218 H 0.70050 0.25641 0.16451
 H219 H 0.79807 0.17626 0.24228
 H220 H 0.69994 0.24216 0.33674
 H221 H 0.75435 0.13521 0.19202
 H222 H 0.74549 0.12965 0.27106
 H223 H 0.74489 0.36896 0.23081
 H224 H 0.75357 0.36347 0.30983
 C225 C 0.00033 0.48543 0.14544
 C226 C -0.00076 0.51601 -0.14804
 C227 C -0.08625 0.43248 0.05981
 C228 C -0.08661 0.55984 0.07127
 C229 C -0.08660 0.44056 -0.07242
 C230 C 0.08623 0.44510 -0.07740
 C231 C 0.08527 0.56516 -0.06652
 C232 C 0.08619 0.43639 0.06343
 C233 C -0.08736 0.56787 -0.06057
 C234 C 0.08624 0.55705 0.07429
 O235 O -0.05229 0.43406 -0.08441
 O236 O -0.09693 0.46605 -0.04361
 O237 O -0.05310 0.57722 -0.06947
 O238 O -0.09739 0.53943 -0.03610
 O239 O 0.05198 0.56349 0.08652
 O240 O 0.09619 0.53354 0.04301
 O241 O -0.00130 0.54575 -0.12278
 O242 O -0.00068 0.48145 -0.13288
 O243 O 0.00005 0.51992 0.13034
 O244 O -0.00011 0.45552 0.12055
 O245 O 0.05199 0.43850 -0.08937
 O246 O 0.09623 0.46854 -0.04619
 O247 O -0.05186 0.42347 0.06823
 O248 O -0.09672 0.46077 0.03535
 O249 O 0.05194 0.42694 0.07218
 O250 O 0.09619 0.46310 0.03638
 O251 O 0.05091 0.57437 -0.07496
 O252 O 0.09565 0.53863 -0.03951
 O253 O 0.00065 0.59935 0.08586
 O254 O 0.00045 0.61258 -0.05280
 O255 O 0.00104 0.40196 -0.08836
 O256 O 0.00176 0.38855 0.05040
 O257 O -0.03226 0.45088 -0.00780
 O258 O -0.03268 0.54996 0.00596
 O259 O 0.03124 0.45138 -0.00796
 O260 O -0.03461 0.49524 0.05907
 O261 O -0.09695 0.53422 0.04270
 O262 O -0.05228 0.56664 0.08272
 O263 O 0.03428 0.49527 0.05909
 O264 O 0.03385 0.50616 -0.06161
 O265 O 0.03090 0.55005 0.00530
 O266 O -0.03511 0.50566 -0.06088
 Zr267 Zr -0.00031 0.54219 0.06385
 Zr268 Zr -0.00042 0.45906 -0.06621
 Zr269 Zr -0.06453 0.50026 -0.00067
 Zr270 Zr -0.00021 0.44856 0.05063
 Zr271 Zr -0.00102 0.55256 -0.05284
 Zr272 Zr 0.06349 0.50082 -0.00140
 H273 H 0.04615 0.42771 -0.01018
 H274 H -0.05148 0.49330 0.08542
 H275 H 0.04561 0.57384 0.00734
 H276 H -0.05215 0.50749 -0.08701
 H277 H 0.00194 0.61478 0.05810
 H278 H -0.00556 0.62027 -0.02156
 H279 H -0.00442 0.38087 0.01923
 H280 H 0.00274 0.38651 -0.06065
 C281 C 0.25155 0.76659 0.10338
 C282 C 0.25098 0.73517 0.39557
 C283 C 0.16470 0.81871 0.18943
 C284 C 0.16457 0.69148 0.17725
 C285 C 0.16440 0.81048 0.32129
 C286 C 0.33713 0.80715 0.32514
 C287 C 0.33668 0.68571 0.31396
 C288 C 0.33776 0.81571 0.18511
 C289 C 0.16416 0.68314 0.31003
 C290 C 0.33728 0.69414 0.17404
 O291 O 0.19872 0.81714 0.33292
 O292 O 0.15411 0.78491 0.29263
 O293 O 0.19847 0.67391 0.31865
 O294 O 0.15404 0.71146 0.28532
 O295 O 0.30303 0.68794 0.16188
 O296 O 0.34741 0.71785 0.20498
 O297 O 0.25045 0.70530 0.37074
 O298 O 0.25085 0.76970 0.38059
 O299 O 0.25119 0.73207 0.11835
 O300 O 0.25123 0.79648 0.12819
 O301 O 0.30284 0.81357 0.33716
 O302 O 0.34732 0.78336 0.29426
 O303 O 0.19907 0.82789 0.18082
 O304 O 0.15433 0.79034 0.21381
 O305 O 0.30344 0.82524 0.17643
 O306 O 0.34746 0.78854 0.21172
 O307 O 0.30232 0.67646 0.32243
 O308 O 0.34700 0.71271 0.28748
 O309 O 0.25186 0.65245 0.16181
 O310 O 0.25178 0.63862 0.30033
 O311 O 0.25163 0.84927 0.33707
 O312 O 0.25262 0.86312 0.19842
 O313 O 0.21877 0.80041 0.25630
 O314 O 0.21852 0.70124 0.24246
 O315 O 0.28246 0.80013 0.25623
 O316 O 0.21659 0.75633 0.18962
 O317 O 0.15423 0.71697 0.20607
 O318 O 0.19893 0.68478 0.16564
 O319 O 0.28551 0.75632 0.18919
 O320 O 0.28509 0.74520 0.30975
 O321 O 0.28219 0.70149 0.24280
 O322 O 0.21620 0.74556 0.30934
 Zr323 Zr 0.25084 0.70941 0.18453
 Zr324 Zr 0.25069 0.79231 0.31437
 Zr325 Zr 0.18662 0.75087 0.24944
 Zr326 Zr 0.25105 0.80310 0.19791
 Zr327 Zr 0.25036 0.69865 0.30098
 Zr328 Zr 0.31481 0.75071 0.24954
 H329 H 0.29721 0.82388 0.25836
 H330 H 0.19970 0.75826 0.16336
 H331 H 0.29683 0.67765 0.24065
 H332 H 0.19921 0.74371 0.33558
 H333 H 0.25317 0.63676 0.18938
 H334 H 0.24546 0.63116 0.26912
 H335 H 0.24638 0.87065 0.22966
 H336 H 0.25325 0.86494 0.30950
 C337 C 0.49888 0.48410 0.14630
 C338 C 0.49878 0.51576 -0.14586
 C339 C 0.58604 0.55855 0.07274
 C340 C 0.58625 0.43242 0.06092
 C341 C 0.58590 0.56757 -0.06049
 C342 C 0.41329 0.56497 -0.06385
 C343 C 0.41327 0.44324 -0.07511
 C344 C 0.41327 0.55641 0.07602
 C345 C 0.58608 0.44162 -0.07259
 C346 C 0.41359 0.43522 0.06447
 O347 O 0.55157 0.57676 -0.06905
 O348 O 0.59619 0.53950 -0.03559
 O349 O 0.55177 0.43482 -0.08411
 O350 O 0.59640 0.46670 -0.04345
 O351 O 0.44790 0.42583 0.07295
 O352 O 0.40334 0.46223 0.03808
 O353 O 0.49897 0.48124 -0.13090
 O354 O 0.49944 0.54564 -0.12101
 O355 O 0.49956 0.45425 0.12141
 O356 O 0.49907 0.51864 0.13138
 O357 O 0.44760 0.57441 -0.07244
 O358 O 0.40321 0.53786 -0.03741
 O359 O 0.55171 0.56530 0.08445
 O360 O 0.59634 0.53348 0.04349
 O361 O 0.44752 0.56270 0.08810
 O362 O 0.40314 0.53270 0.04508
 O363 O 0.44754 0.43688 -0.08728
 O364 O 0.40318 0.46711 -0.04426
 O365 O 0.49868 0.38770 0.05083
 O366 O 0.49905 0.40161 -0.08733
 O367 O 0.49829 0.61226 -0.05059
 O368 O 0.49888 0.59836 0.08770
 O369 O 0.53181 0.54962 0.00718
 O370 O 0.53197 0.45034 -0.00692
 O371 O 0.46813 0.54931 0.00708
 O372 O 0.53410 0.49457 0.06002
 O373 O 0.59633 0.46048 0.03580
 O374 O 0.55193 0.42319 0.06970
 O375 O 0.46528 0.49432 0.06047
 O376 O 0.46513 0.50562 -0.06004
 O377 O 0.46826 0.45068 -0.00646
 O378 O 0.53396 0.50543 -0.05963
 Zr379 Zr 0.50002 0.44773 0.05164
 Zr380 Zr 0.49972 0.55223 -0.05121
 Zr381 Zr 0.56381 0.50000 0.00013
 Zr382 Zr 0.49967 0.54134 0.06521
 Zr383 Zr 0.49965 0.45861 -0.06474
 Zr384 Zr 0.43572 0.49999 0.00029
 H385 H 0.45343 0.57311 0.00930
 H386 H 0.55095 0.49262 0.08631
 H387 H 0.45363 0.42685 -0.00861
 H388 H 0.55079 0.50741 -0.08601
 H389 H 0.50560 0.38028 0.01976
 H390 H 0.49800 0.38597 -0.05971
 H391 H 0.49765 0.61396 0.06006
 H392 H 0.50489 0.61975 -0.01948
 C393 C 0.75012 0.76629 0.10351
 C394 C 0.75032 0.73497 0.39572
 C395 C 0.66259 0.81739 0.18831
 C396 C 0.66334 0.69166 0.17728
 C397 C 0.66319 0.80906 0.32242
 C398 C 0.83610 0.80638 0.32535
 C399 C 0.83593 0.68604 0.31441
 C400 C 0.83551 0.81539 0.18428
 C401 C 0.66345 0.68282 0.31078
 C402 C 0.83621 0.69494 0.17320
 O403 O 0.69750 0.81589 0.33393
 O404 O 0.65291 0.78390 0.29330
 O405 O 0.69781 0.67370 0.31934
 O406 O 0.65316 0.71085 0.28576
 O407 O 0.80195 0.68836 0.16133
 O408 O 0.84625 0.71836 0.20445
 O409 O 0.74983 0.70506 0.37090
 O410 O 0.75003 0.76948 0.38070
 O411 O 0.74998 0.73177 0.11851
 O412 O 0.74951 0.79620 0.12830
 O413 O 0.80183 0.81286 0.33745
 O414 O 0.84618 0.78303 0.29401
 O415 O 0.69691 0.82676 0.17944
 O416 O 0.65277 0.78957 0.21396
 O417 O 0.80115 0.82474 0.17583
 O418 O 0.84571 0.78869 0.21125
 O419 O 0.80164 0.67662 0.32300
 O420 O 0.84602 0.71275 0.28733
 O421 O 0.75077 0.65204 0.16241
 O422 O 0.75133 0.63829 0.30016
 O423 O 0.75048 0.84911 0.33656
 O424 O 0.75029 0.86288 0.19937
 O425 O 0.71718 0.80014 0.25664
 O426 O 0.71752 0.70082 0.24273
 O427 O 0.78100 0.79997 0.25613
 O428 O 0.71517 0.75583 0.18991
 O429 O 0.65300 0.71672 0.20654
 O430 O 0.69768 0.68500 0.16551
 O431 O 0.78389 0.75626 0.18930
 O432 O 0.78408 0.74503 0.30964
 O433 O 0.78129 0.70122 0.24276
 O434 O 0.71532 0.74510 0.30950
 Zr435 Zr 0.74967 0.70912 0.18469
 Zr436 Zr 0.74957 0.79199 0.31444
 Zr437 Zr 0.68545 0.75038 0.24980
 Zr438 Zr 0.74911 0.80286 0.19803
 Zr439 Zr 0.74959 0.69831 0.30110
 Zr440 Zr 0.81355 0.75066 0.24935
 H441 H 0.79575 0.82372 0.25833
 H442 H 0.69830 0.75760 0.16363
 H443 H 0.79616 0.67753 0.24050
 H444 H 0.69847 0.74316 0.33587
 H445 H 0.75233 0.63654 0.19009
 H446 H 0.74390 0.63086 0.26930
 H447 H 0.74184 0.87013 0.22994
 H448 H 0.75204 0.86456 0.30884
 C449 C -0.00056 0.01636 0.35299
 C450 C -0.00059 -0.01568 0.64618
 C451 C -0.08801 0.06810 0.43897
 C452 C -0.08699 -0.05879 0.42741
 C453 C -0.08746 0.05950 0.57197
 C454 C 0.08538 0.05642 0.57562
 C455 C 0.08540 -0.06364 0.56387
 C456 C 0.08475 0.06569 0.43461
 C457 C -0.08730 -0.06744 0.55922
 C458 C 0.08586 -0.05472 0.42315
 O459 O -0.05318 0.06613 0.58379
 O460 O -0.09770 0.03420 0.54298
 O461 O -0.05296 -0.07663 0.56784
 O462 O -0.09757 -0.03900 0.53494
 O463 O 0.05163 -0.06139 0.41116
 O464 O 0.09570 -0.03124 0.45444
 O465 O -0.00117 -0.04529 0.62078
 O466 O -0.00081 0.01899 0.63137
 O467 O -0.00061 -0.01816 0.36798
 O468 O -0.00130 0.04623 0.37797
 O469 O 0.05112 0.06279 0.58784
 O470 O 0.09542 0.03324 0.54408
 O471 O -0.05369 0.07743 0.43012
 O472 O -0.09784 0.03987 0.46397
 O473 O 0.05041 0.07497 0.42611
 O474 O 0.09501 0.03902 0.46154
 O475 O 0.05113 -0.07317 0.57248
 O476 O 0.09543 -0.03687 0.53693
 O477 O 0.00054 -0.09768 0.41186
 O478 O 0.00088 -0.11165 0.55018
 O479 O -0.00019 0.09885 0.58740
 O480 O -0.00032 0.11303 0.44887
 O481 O -0.03332 0.05015 0.50675
 O482 O -0.03294 -0.04893 0.49236
 O483 O 0.03014 0.05009 0.50633
 O484 O -0.03548 0.00601 0.43957
 O485 O -0.09743 -0.03339 0.45624
 O486 O -0.05264 -0.06534 0.41565
 O487 O 0.03333 0.00655 0.43911
 O488 O 0.03343 -0.00499 0.55969
 O489 O 0.03067 -0.04857 0.49251
 O490 O -0.03547 -0.00498 0.55947
 Zr491 Zr -0.00079 -0.04065 0.43431
 Zr492 Zr -0.00116 0.04185 0.56486
 Zr493 Zr -0.06513 0.00054 0.49953
 Zr494 Zr -0.00158 0.05300 0.44796
 Zr495 Zr -0.00106 -0.05163 0.55085
 Zr496 Zr 0.06281 0.00092 0.49931
 H497 H 0.04488 0.07384 0.50864
 H498 H -0.05241 0.00787 0.41333
 H499 H 0.04559 -0.07222 0.49021
 H500 H -0.05239 -0.00706 0.58575
 H501 H 0.00214 -0.11324 0.43949
 H502 H -0.00552 -0.11916 0.51901
 H503 H -0.00713 0.12038 0.48000
 H504 H 0.00122 0.11445 0.55978
 C505 C 0.25000 0.23343 0.89853
 C506 C 0.24994 0.26441 0.60515
 C507 C 0.16267 0.18171 0.81211
 C508 C 0.16332 0.30868 0.82370
 C509 C 0.16318 0.18989 0.67980
 C510 C 0.33592 0.19255 0.67608
 C511 C 0.33563 0.31398 0.68707
 C512 C 0.33574 0.18406 0.81581
 C513 C 0.16312 0.31700 0.69165
 C514 C 0.33605 0.30577 0.82698
 O515 O 0.19749 0.18315 0.66805
 O516 O 0.15291 0.21535 0.70867
 O517 O 0.19745 0.32613 0.68287
 O518 O 0.15291 0.28868 0.71623
 O519 O 0.30180 0.31211 0.83926
 O520 O 0.34608 0.28193 0.79607
 O521 O 0.24947 0.29428 0.63012
 O522 O 0.24972 0.22989 0.62023
 O523 O 0.24985 0.26799 0.88348
 O524 O 0.24941 0.20367 0.87339
 O525 O 0.30168 0.18623 0.66399
 O526 O 0.34602 0.21628 0.70702
 O527 O 0.19699 0.17241 0.82094
 O528 O 0.15276 0.21002 0.78740
 O529 O 0.30142 0.17467 0.82454
 O530 O 0.34582 0.21117 0.78937
 O531 O 0.30131 0.32332 0.67859
 O532 O 0.34581 0.28697 0.71361
 O533 O 0.25054 0.34750 0.83959
 O534 O 0.25079 0.36122 0.70031
 O535 O 0.25045 0.15048 0.66462
 O536 O 0.25051 0.13690 0.80326
 O537 O 0.21733 0.19956 0.74492
 O538 O 0.21750 0.29870 0.75880
 O539 O 0.28085 0.19981 0.74508
 O540 O 0.21504 0.24383 0.81183
 O541 O 0.15295 0.28314 0.79507
 O542 O 0.19762 0.31527 0.83539
 O543 O 0.28400 0.24347 0.81212
 O544 O 0.28399 0.25458 0.69134
 O545 O 0.28091 0.29837 0.75840
 O546 O 0.21505 0.25445 0.69182
 Zr547 Zr 0.24958 0.29052 0.81692
 Zr548 Zr 0.24946 0.20760 0.68676
 Zr549 Zr 0.18542 0.24923 0.75184
 Zr550 Zr 0.24920 0.19693 0.80350
 Zr551 Zr 0.24931 0.30120 0.70007
 Zr552 Zr 0.31342 0.24908 0.75165
 H553 H 0.29554 0.17601 0.74287
 H554 H 0.19811 0.24197 0.83813
 H555 H 0.29561 0.32215 0.76046
 H556 H 0.19812 0.25639 0.66560
 H557 H 0.25178 0.36316 0.81200
 H558 H 0.24517 0.36882 0.73170
 H559 H 0.24429 0.12931 0.77207
 H560 H 0.25174 0.13501 0.69235
 C561 C 0.49887 0.01729 0.35422
 C562 C 0.49839 -0.01717 0.64593
 C563 C 0.58584 -0.05767 0.42679
 C564 C 0.58589 0.06818 0.44049
 C565 C 0.58562 -0.06776 0.55967
 C566 C 0.41305 -0.06511 0.56339
 C567 C 0.41270 0.05598 0.57634
 C568 C 0.41311 -0.05558 0.42371
 C569 C 0.58546 0.05801 0.57359
 C570 C 0.41317 0.06562 0.43654
 O571 O 0.55130 -0.07711 0.56817
 O572 O 0.59587 -0.03947 0.53512
 O573 O 0.55112 0.06469 0.58529
 O574 O 0.59582 0.03322 0.54405
 O575 O 0.44749 0.07513 0.42815
 O576 O 0.40297 0.03841 0.46272
 O577 O 0.49853 0.01754 0.63149
 O578 O 0.49902 -0.04675 0.62061
 O579 O 0.49942 0.04699 0.37937
 O580 O 0.49903 -0.01733 0.36882
 O581 O 0.44734 -0.07460 0.57178
 O582 O 0.40287 -0.03790 0.53723
 O583 O 0.55155 -0.06437 0.41509
 O584 O 0.59605 -0.03278 0.45624
 O585 O 0.44739 -0.06180 0.41155
 O586 O 0.40290 -0.03207 0.45489
 O587 O 0.44692 0.06217 0.58862
 O588 O 0.40267 0.03256 0.54505
 O589 O 0.49818 0.11299 0.45070
 O590 O 0.49827 0.09776 0.58893
 O591 O 0.49801 -0.11250 0.54928
 O592 O 0.49877 -0.09735 0.41131
 O593 O 0.53157 -0.04936 0.49240
 O594 O 0.53144 0.04981 0.50780
 O595 O 0.46784 -0.04902 0.49263
 O596 O 0.53377 0.00620 0.44033
 O597 O 0.59598 0.03994 0.46519
 O598 O 0.55161 0.07753 0.43179
 O599 O 0.46498 0.00643 0.43986
 O600 O 0.46471 -0.00598 0.56020
 O601 O 0.46781 0.04950 0.50745
 O602 O 0.53353 -0.00576 0.55984
 Zr603 Zr 0.49959 0.05297 0.44927
 Zr604 Zr 0.49942 -0.05248 0.55075
 Zr605 Zr 0.56337 0.00024 0.50011
 Zr606 Zr 0.49945 -0.04056 0.43461
 Zr607 Zr 0.49912 0.04097 0.56562
 Zr608 Zr 0.43536 0.00026 0.50000
 H609 H 0.45319 -0.07281 0.49014
 H610 H 0.55070 0.00838 0.41406
 H611 H 0.45310 0.07327 0.50994
 H612 H 0.55035 -0.00798 0.58614
 H613 H 0.50477 0.12016 0.48191
 H614 H 0.49720 0.11364 0.56151
 H615 H 0.49752 -0.11323 0.43872
 H616 H 0.50486 -0.11968 0.51811
 C617 C 0.75041 0.23332 0.89721
 C618 C 0.74875 0.26505 0.60505
 C619 C 0.66264 0.18150 0.81355
 C620 C 0.66261 0.30746 0.82454
 C621 C 0.66228 0.19054 0.67912
 C622 C 0.83512 0.19404 0.67418
 C623 C 0.83444 0.31428 0.68564
 C624 C 0.83558 0.18505 0.81473
 C625 C 0.66195 0.31654 0.69119
 C626 C 0.83553 0.30531 0.82650
 O627 O 0.69657 0.18395 0.66712
 O628 O 0.65202 0.21544 0.70860
 O629 O 0.69620 0.32586 0.68235
 O630 O 0.65189 0.28843 0.71628
 O631 O 0.80131 0.31175 0.83882
 O632 O 0.84544 0.28190 0.79512
 O633 O 0.74807 0.29492 0.62994
 O634 O 0.74875 0.23052 0.62000
 O635 O 0.74999 0.26785 0.88226
 O636 O 0.74971 0.20343 0.87239
 O637 O 0.80084 0.18731 0.66253
 O638 O 0.84521 0.21745 0.70538
 O639 O 0.69708 0.17238 0.82198
 O640 O 0.65251 0.20937 0.78810
 O641 O 0.80137 0.17548 0.82374
 O642 O 0.84544 0.21182 0.78776
 O643 O 0.80007 0.32358 0.67735
 O644 O 0.84475 0.28756 0.71249
 O645 O 0.74975 0.34758 0.83866
 O646 O 0.74948 0.36158 0.70071
 O647 O 0.74968 0.15081 0.66403
 O648 O 0.75058 0.13683 0.80132
 O649 O 0.71662 0.19942 0.74440
 O650 O 0.71647 0.29871 0.75853
 O651 O 0.78039 0.20002 0.74410
 O652 O 0.71474 0.24368 0.81130
 O653 O 0.65220 0.28233 0.79550
 O654 O 0.69697 0.31431 0.83586
 O655 O 0.78346 0.24361 0.81101
 O656 O 0.78287 0.25504 0.69063
 O657 O 0.78020 0.29880 0.75770
 O658 O 0.71413 0.25460 0.69173
 Zr659 Zr 0.74902 0.29057 0.81615
 Zr660 Zr 0.74861 0.20791 0.68621
 Zr661 Zr 0.68462 0.24898 0.75180
 Zr662 Zr 0.74890 0.19685 0.80263
 Zr663 Zr 0.74820 0.30155 0.69976
 Zr664 Zr 0.81263 0.24954 0.75055
 H665 H 0.79528 0.17636 0.74162
 H666 H 0.69805 0.24173 0.83781
 H667 H 0.79493 0.32257 0.75982
 H668 H 0.69716 0.25650 0.66555
 H669 H 0.75100 0.36318 0.81103
 H670 H 0.74246 0.36894 0.73177
 H671 H 0.74218 0.12951 0.77079
 H672 H 0.75138 0.13534 0.69173
 C673 C 0.00046 0.51560 0.35461
 C674 C -0.00040 0.48440 0.64793
 C675 C -0.08632 0.56813 0.44054
 C676 C -0.08616 0.44078 0.42896
 C677 C -0.08647 0.55968 0.57294
 C678 C 0.08641 0.55563 0.57718
 C679 C 0.08573 0.43534 0.56619
 C680 C 0.08615 0.56480 0.43601
 C681 C -0.08698 0.43259 0.56097
 C682 C 0.08654 0.44411 0.42503
 O683 O -0.05217 0.56626 0.58474
 O684 O -0.09677 0.53424 0.54416
 O685 O -0.05269 0.42327 0.56978
 O686 O -0.09701 0.46100 0.53647
 O687 O 0.05229 0.43777 0.41295
 O688 O 0.09656 0.46743 0.45642
 O689 O -0.00082 0.45467 0.62269
 O690 O -0.00043 0.51898 0.63292
 O691 O 0.00024 0.48109 0.36965
 O692 O -0.00000 0.54548 0.37956
 O693 O 0.05214 0.56212 0.58929
 O694 O 0.09650 0.53228 0.54583
 O695 O -0.05196 0.57726 0.43192
 O696 O -0.09661 0.53982 0.46514
 O697 O 0.05185 0.57418 0.42753
 O698 O 0.09625 0.53803 0.46300
 O699 O 0.05138 0.42608 0.57470
 O700 O 0.09602 0.46199 0.53917
 O701 O 0.00123 0.40160 0.41394
 O702 O 0.00102 0.38794 0.55221
 O703 O 0.00107 0.59852 0.58867
 O704 O 0.00157 0.61234 0.45025
 O705 O -0.03216 0.54974 0.50808
 O706 O -0.03229 0.45067 0.49408
 O707 O 0.03139 0.54936 0.50792
 O708 O -0.03441 0.50556 0.44110
 O709 O -0.09660 0.46631 0.45766
 O710 O -0.05181 0.43413 0.41733
 O711 O 0.03449 0.50567 0.44082
 O712 O 0.03418 0.49444 0.56141
 O713 O 0.03132 0.45075 0.49444
 O714 O -0.03478 0.49483 0.56099
 Zr715 Zr 0.00002 0.45872 0.43609
 Zr716 Zr -0.00021 0.54147 0.56629
 Zr717 Zr -0.06428 0.50030 0.50095
 Zr718 Zr -0.00016 0.55232 0.44949
 Zr719 Zr -0.00059 0.44796 0.55273
 Zr720 Zr 0.06385 0.50001 0.50110
 H721 H 0.04623 0.57305 0.51013
 H722 H -0.05130 0.50749 0.41484
 H723 H 0.04610 0.42700 0.49222
 H724 H -0.05180 0.49293 0.58721
 H725 H 0.00272 0.38613 0.44165
 H726 H -0.00547 0.38040 0.52109
 H727 H -0.00509 0.61981 0.48138
 H728 H 0.00276 0.61405 0.56102
 C729 C 0.24866 0.73560 0.89577
 C730 C 0.25055 0.76603 0.60345
 C731 C 0.16228 0.68353 0.80906
 C732 C 0.16248 0.81143 0.81970
 C733 C 0.16330 0.69134 0.67746
 C734 C 0.33595 0.69360 0.67480
 C735 C 0.33590 0.81491 0.68553
 C736 C 0.33492 0.68573 0.81481
 C737 C 0.16326 0.81853 0.68884
 C738 C 0.33559 0.80683 0.82556
 O739 O 0.19766 0.68453 0.66602
 O740 O 0.15286 0.71701 0.70595
 O741 O 0.19764 0.82770 0.68035
 O742 O 0.15289 0.79019 0.71324
 O743 O 0.30127 0.81371 0.83725
 O744 O 0.34566 0.78293 0.79478
 O745 O 0.24988 0.79597 0.62819
 O746 O 0.25027 0.73154 0.61853
 O747 O 0.24861 0.77009 0.88068
 O748 O 0.24817 0.70566 0.87106
 O749 O 0.30174 0.68736 0.66250
 O750 O 0.34593 0.71739 0.70573
 O751 O 0.19652 0.67419 0.81791
 O752 O 0.15225 0.71196 0.78467
 O753 O 0.30052 0.67653 0.82326
 O754 O 0.34526 0.71260 0.78819
 O755 O 0.30167 0.82438 0.67678
 O756 O 0.34591 0.78802 0.71225
 O757 O 0.25013 0.84943 0.83741
 O758 O 0.25114 0.86275 0.69809
 O759 O 0.25046 0.65203 0.66238
 O760 O 0.24999 0.63877 0.80157
 O761 O 0.21705 0.70125 0.74267
 O762 O 0.21717 0.80048 0.75615
 O763 O 0.28063 0.70125 0.74332
 O764 O 0.21443 0.74579 0.80937
 O765 O 0.15245 0.78522 0.79174
 O766 O 0.19679 0.81810 0.83160
 O767 O 0.28330 0.74534 0.81014
 O768 O 0.28405 0.75599 0.68954
 O769 O 0.28083 0.79998 0.75633
 O770 O 0.21518 0.75599 0.68945
 Zr771 Zr 0.24893 0.79256 0.81441
 Zr772 Zr 0.24953 0.70907 0.68483
 Zr773 Zr 0.18518 0.75096 0.74919
 Zr774 Zr 0.24863 0.69880 0.80137
 Zr775 Zr 0.24943 0.80273 0.69791
 Zr776 Zr 0.31316 0.75045 0.75001
 H777 H 0.29526 0.67739 0.74138
 H778 H 0.19723 0.74408 0.83544
 H779 H 0.29562 0.82370 0.75847
 H780 H 0.19837 0.75789 0.66311
 H781 H 0.25201 0.86518 0.80993
 H782 H 0.24528 0.87040 0.72939
 H783 H 0.24462 0.63103 0.77020
 H784 H 0.25155 0.63644 0.69004
 C785 C 0.49891 0.51486 0.35418
 C786 C 0.49812 0.48431 0.64647
 C787 C 0.58597 0.44065 0.42802
 C788 C 0.58594 0.56677 0.43939
 C789 C 0.58538 0.43208 0.56172
 C790 C 0.41295 0.43481 0.56487
 C791 C 0.41273 0.55646 0.57556
 C792 C 0.41305 0.44288 0.42473
 C793 C 0.58555 0.55832 0.57290
 C794 C 0.41339 0.56440 0.43555
 O795 O 0.55102 0.42298 0.57026
 O796 O 0.59576 0.46002 0.53658
 O797 O 0.55119 0.56515 0.58442
 O798 O 0.59592 0.53311 0.54383
 O799 O 0.44775 0.57368 0.42710
 O800 O 0.40307 0.53744 0.46209
 O801 O 0.49841 0.51879 0.63136
 O802 O 0.49873 0.45436 0.62174
 O803 O 0.49953 0.54478 0.37894
 O804 O 0.49905 0.48036 0.36925
 O805 O 0.44725 0.42547 0.57342
 O806 O 0.40281 0.46179 0.53827
 O807 O 0.55167 0.43386 0.41634
 O808 O 0.59614 0.46578 0.45723
 O809 O 0.44736 0.43643 0.41275
 O810 O 0.40287 0.46672 0.45557
 O811 O 0.44697 0.56278 0.58768
 O812 O 0.40266 0.53263 0.54470
 O813 O 0.49837 0.61160 0.44915
 O814 O 0.49837 0.59831 0.58718
 O815 O 0.49790 0.38748 0.55151
 O816 O 0.49880 0.40077 0.41341
 O817 O 0.53155 0.44984 0.49359
 O818 O 0.53159 0.54915 0.50720
 O819 O 0.46780 0.45024 0.49372
 O820 O 0.53387 0.50467 0.44056
 O821 O 0.59609 0.53877 0.46455
 O822 O 0.55164 0.57597 0.43066
 O823 O 0.46503 0.50497 0.44002
 O824 O 0.46465 0.49418 0.56053
 O825 O 0.46783 0.54889 0.50679
 O826 O 0.53351 0.49431 0.56023
 Zr827 Zr 0.49971 0.55156 0.44868
 Zr828 Zr 0.49931 0.44751 0.55199
 Zr829 Zr 0.56351 0.49945 0.50047
 Zr830 Zr 0.49949 0.45789 0.43553
 Zr831 Zr 0.49916 0.54117 0.56508
 Zr832 Zr 0.43528 0.49960 0.50022
 H833 H 0.45311 0.42645 0.49163
 H834 H 0.55079 0.50653 0.41424
 H835 H 0.45317 0.57272 0.50883
 H836 H 0.55027 0.49244 0.58662
 H837 H 0.50526 0.61914 0.48015
 H838 H 0.49722 0.61377 0.55944
 H839 H 0.49749 0.38530 0.44115
 H840 H 0.50490 0.37993 0.52052
 C841 C 0.74921 0.73516 0.89592
 C842 C 0.74975 0.76608 0.60367
 C843 C 0.66255 0.68322 0.81064
 C844 C 0.66222 0.80988 0.82180
 C845 C 0.66281 0.69173 0.67729
 C846 C 0.83572 0.69485 0.67389
 C847 C 0.83518 0.81500 0.68492
 C848 C 0.83498 0.68611 0.81482
 C849 C 0.66261 0.81782 0.68912
 C850 C 0.83550 0.80615 0.82587
 O851 O 0.69716 0.68499 0.66562
 O852 O 0.65248 0.71686 0.70648
 O853 O 0.69693 0.82710 0.68049
 O854 O 0.65237 0.78978 0.71410
 O855 O 0.80122 0.81303 0.83775
 O856 O 0.84548 0.78266 0.79467
 O857 O 0.74907 0.79599 0.62849
 O858 O 0.74962 0.73157 0.61869
 O859 O 0.74898 0.76968 0.88094
 O860 O 0.74873 0.70525 0.87113
 O861 O 0.80150 0.68824 0.66187
 O862 O 0.84564 0.71828 0.70515
 O863 O 0.69686 0.67402 0.81926
 O864 O 0.65233 0.71126 0.78565
 O865 O 0.80066 0.67679 0.82340
 O866 O 0.84519 0.71273 0.78777
 O867 O 0.80089 0.82437 0.67633
 O868 O 0.84531 0.78840 0.71201
 O869 O 0.74983 0.84930 0.83715
 O870 O 0.75036 0.86274 0.69889
 O871 O 0.75023 0.65192 0.66289
 O872 O 0.75034 0.63850 0.80086
 O873 O 0.71681 0.70092 0.74291
 O874 O 0.71671 0.80024 0.75672
 O875 O 0.78054 0.70120 0.74318
 O876 O 0.71449 0.74539 0.80971
 O877 O 0.65222 0.78430 0.79302
 O878 O 0.69656 0.81675 0.83343
 O879 O 0.78321 0.74518 0.81006
 O880 O 0.78347 0.75609 0.68963
 O881 O 0.78047 0.80002 0.75653
 O882 O 0.71473 0.75586 0.69002
 Zr883 Zr 0.74879 0.79226 0.81474
 Zr884 Zr 0.74913 0.70905 0.68495
 Zr885 Zr 0.68487 0.75056 0.74985
 Zr886 Zr 0.74870 0.69852 0.80139
 Zr887 Zr 0.74884 0.80271 0.69829
 Zr888 Zr 0.81283 0.75058 0.74986
 H889 H 0.79537 0.67747 0.74101
 H890 H 0.69751 0.74355 0.83597
 H891 H 0.79530 0.82372 0.75870
 H892 H 0.69788 0.75773 0.66371
 H893 H 0.75154 0.86484 0.80950
 H894 H 0.74338 0.87025 0.72990
 H895 H 0.74331 0.63094 0.76991
 H896 H 0.75165 0.63648 0.69064
 C897 C 0.00170 -0.02165 0.19309
 C898 C 0.00112 0.00581 0.22427
 C899 C 0.00081 -0.00386 0.27274
 C900 C -0.00008 0.02352 0.30401
 H901 H 0.00069 0.03542 0.21413
 H902 H 0.00123 -0.03348 0.28281
 H903 H 0.00202 -0.05109 0.20398
 H904 H -0.00046 0.05299 0.29326
 C905 C 0.25106 0.27225 1.05748
 C906 C 0.25102 0.24423 1.02401
 C907 C 0.25083 0.25430 0.97833
 C908 C 0.25045 0.22634 0.94490
 H909 H 0.25094 0.21442 1.03336
 H910 H 0.25086 0.28408 0.96886
 H911 H 0.25110 0.30175 1.04665
 H912 H 0.25042 0.19679 0.95543
 C913 C 0.11804 0.07804 0.09478
 C914 C 0.11098 0.11028 0.11740
 C915 C 0.14158 0.13418 0.13493
 C916 C 0.13430 0.16689 0.15649
 H917 H 0.08235 0.11985 0.12189
 H918 H 0.17026 0.12472 0.13054
 H919 H 0.14679 0.06928 0.08917
 H920 H 0.10548 0.17560 0.16165
 C921 C 0.36661 0.33593 0.16361
 C922 C 0.35970 0.36435 0.13529
 C923 C 0.39053 0.38522 0.11437
 C924 C 0.38353 0.41364 0.08609
 H925 H 0.33113 0.37234 0.12737
 H926 H 0.41912 0.37724 0.12222
 H927 H 0.39529 0.32815 0.17126
 H928 H 0.35482 0.42139 0.07856
 C929 C 0.36686 0.17030 0.15308
 C930 C 0.36037 0.13680 0.13282
 C931 C 0.39146 0.11280 0.11609
 C932 C 0.38494 0.07921 0.09603
 H933 H 0.33191 0.12643 0.12955
 H934 H 0.41991 0.12319 0.11926
 H935 H 0.39548 0.17980 0.15766
 H936 H 0.35632 0.06966 0.09166
 C937 C 0.13374 0.34072 0.16793
 C938 C 0.14063 0.36810 0.13803
 C939 C 0.10971 0.38878 0.11669
 C940 C 0.11644 0.41532 0.08570
 H941 H 0.16917 0.37483 0.12848
 H942 H 0.08117 0.38201 0.12627
 H943 H 0.10505 0.33391 0.17676
 H944 H 0.14509 0.42205 0.07658
 C945 C 0.36563 0.16379 0.33577
 C946 C 0.35879 0.13585 0.36487
 C947 C 0.38977 0.11527 0.38606
 C948 C 0.38299 0.08719 0.41498
 H949 H 0.33023 0.12808 0.37316
 H950 H 0.41832 0.12308 0.37776
 H951 H 0.39433 0.17136 0.32785
 H952 H 0.35432 0.07952 0.42288
 C953 C 0.13348 0.33357 0.34039
 C954 C 0.14050 0.36606 0.36249
 C955 C 0.10971 0.38986 0.38010
 C956 C 0.11659 0.42190 0.40318
 H957 H 0.16914 0.37543 0.36732
 H958 H 0.08111 0.38036 0.37531
 H959 H 0.10471 0.32495 0.33481
 H960 H 0.14532 0.43056 0.40901
 C961 C 0.13256 0.16026 0.32878
 C962 C 0.13916 0.13330 0.35924
 C963 C 0.10814 0.11288 0.38072
 C964 C 0.11487 0.08681 0.41220
 H965 H 0.16763 0.12674 0.36921
 H966 H 0.07964 0.11937 0.37083
 H967 H 0.10396 0.16699 0.31952
 H968 H 0.14352 0.08036 0.42152
 C969 C 0.36595 0.32923 0.34595
 C970 C 0.35914 0.36267 0.36621
 C971 C 0.38996 0.38664 0.38333
 C972 C 0.38313 0.42008 0.40358
 H973 H 0.33063 0.37300 0.36922
 H974 H 0.41847 0.37632 0.38032
 H975 H 0.39463 0.31974 0.34166
 H976 H 0.35445 0.42956 0.40785
 C977 C 0.49952 -0.02162 0.19581
 C978 C 0.49903 0.00623 0.22632
 C979 C 0.49873 -0.00302 0.27465
 C980 C 0.49859 0.02457 0.30550
 H981 H 0.49905 0.03573 0.21575
 H982 H 0.49886 -0.03258 0.28501
 H983 H 0.49950 -0.05094 0.20714
 H984 H 0.49852 0.05401 0.29463
 C985 C 0.75292 0.27175 1.05598
 C986 C 0.75247 0.24419 1.02511
 C987 C 0.75212 0.25373 0.97684
 C988 C 0.75125 0.22620 0.94595
 H989 H 0.75204 0.21461 1.03537
 H990 H 0.75237 0.28332 0.96660
 H991 H 0.75324 0.30118 1.04505
 H992 H 0.75104 0.19676 0.95683
 C993 C 0.61800 0.08079 0.09268
 C994 C 0.61126 0.11264 0.11606
 C995 C 0.64227 0.13587 0.13379
 C996 C 0.63547 0.16767 0.15724
 H997 H 0.58269 0.12202 0.12163
 H998 H 0.67084 0.12649 0.12826
 H999 H 0.64670 0.07213 0.08647
 H1000 H 0.60675 0.17629 0.16340
 C1001 C -0.13241 0.33512 0.16319
 C1002 C -0.13952 0.36151 0.13212
 C1003 C -0.10889 0.38236 0.11035
 C1004 C -0.11609 0.40961 0.08038
 H1005 H -0.16815 0.36802 0.12278
 H1006 H -0.08026 0.37586 0.11968
 H1007 H -0.10367 0.32864 0.17205
 H1008 H -0.14486 0.41622 0.07175
 C1009 C 0.88560 0.08342 0.08947
 C1010 C 0.89256 0.11581 0.11184
 C1011 C 0.86170 0.13943 0.12965
 C1012 C 0.86846 0.17134 0.15304
 H1013 H 0.92118 0.12519 0.11678
 H1014 H 0.83312 0.12991 0.12470
 H1015 H 0.85684 0.07478 0.08387
 H1016 H 0.89716 0.18003 0.15900
 C1017 C 0.63486 0.33882 0.16820
 C1018 C 0.64129 0.36434 0.13584
 C1019 C 0.61012 0.38467 0.11420
 C1020 C 0.61651 0.41023 0.08188
 H1021 H 0.66968 0.37000 0.12478
 H1022 H 0.58174 0.37900 0.12530
 H1023 H 0.60629 0.33291 0.17844
 H1024 H 0.64506 0.41615 0.07159
 C1025 C -0.13457 0.16622 0.33749
 C1026 C -0.14075 0.13718 0.36867
 C1027 C -0.11080 0.11865 0.38922
 C1028 C -0.11695 0.08906 0.41956
 H1029 H -0.16911 0.12864 0.37702
 H1030 H -0.08242 0.12696 0.38077
 H1031 H -0.10587 0.17421 0.32999
 H1032 H -0.14554 0.08100 0.42740
 C1033 C 0.63443 0.33074 0.34361
 C1034 C 0.64090 0.36272 0.36680
 C1035 C 0.60966 0.38588 0.38433
 C1036 C 0.61616 0.41786 0.40750
 H1037 H 0.66938 0.37231 0.37227
 H1038 H 0.58117 0.37631 0.37887
 H1039 H 0.60580 0.32192 0.33745
 H1040 H 0.64481 0.42666 0.41363
 C1041 C 0.63465 0.15999 0.33216
 C1042 C 0.64098 0.13531 0.36528
 C1043 C 0.60980 0.11521 0.38689
 C1044 C 0.61614 0.09038 0.41986
 H1045 H 0.66927 0.13023 0.37702
 H1046 H 0.58151 0.12033 0.37518
 H1047 H 0.60618 0.16542 0.32129
 H1048 H 0.64461 0.08487 0.43066
 C1049 C -0.13248 0.32768 0.34876
 C1050 C -0.13949 0.36021 0.37079
 C1051 C -0.10880 0.38411 0.38812
 C1052 C -0.11594 0.41710 0.40909
 H1053 H -0.16810 0.37002 0.37484
 H1054 H -0.08017 0.37440 0.38407
 H1055 H -0.10374 0.31872 0.34354
 H1056 H -0.14472 0.42605 0.41399
 C1057 C 0.00069 0.47824 0.19441
 C1058 C 0.00081 0.50552 0.22582
 C1059 C 0.00084 0.49558 0.27422
 C1060 C 0.00078 0.52283 0.30564
 H1061 H 0.00075 0.53518 0.21591
 H1062 H 0.00078 0.46591 0.28411
 H1063 H 0.00074 0.44875 0.20506
 H1064 H 0.00082 0.55234 0.29502
 C1065 C 0.25182 0.77375 1.05464
 C1066 C 0.25054 0.74632 1.02367
 C1067 C 0.25031 0.75599 0.97544
 C1068 C 0.24883 0.72853 0.94452
 H1069 H 0.24947 0.71673 1.03383
 H1070 H 0.25136 0.78557 0.96526
 H1071 H 0.25272 0.80320 1.04382
 H1072 H 0.24793 0.69910 0.95540
 C1073 C 0.11648 0.57923 0.09579
 C1074 C 0.11002 0.61168 0.11830
 C1075 C 0.14116 0.63521 0.13560
 C1076 C 0.13454 0.66805 0.15722
 H1077 H 0.08154 0.62167 0.12289
 H1078 H 0.16968 0.62532 0.13104
 H1079 H 0.14511 0.57009 0.09011
 H1080 H 0.10585 0.67715 0.16254
 C1081 C 0.38681 0.91490 0.08593
 C1082 C 0.39217 0.88482 0.11592
 C1083 C 0.36163 0.86597 0.13509
 C1084 C 0.36701 0.83583 0.16489
 H1085 H 0.42031 0.87583 0.12452
 H1086 H 0.33344 0.87486 0.12660
 H1087 H 0.35827 0.92318 0.07805
 H1088 H 0.39546 0.82736 0.17286
 C1089 C 0.36708 0.67105 0.15309
 C1090 C 0.35997 0.63745 0.13349
 C1091 C 0.39055 0.61302 0.11668
 C1092 C 0.38345 0.57942 0.09706
 H1093 H 0.33139 0.62731 0.13083
 H1094 H 0.41912 0.62317 0.11932
 H1095 H 0.39582 0.68035 0.15713
 H1096 H 0.35472 0.57010 0.09304
 C1097 C 0.11760 0.91471 0.08550
 C1098 C 0.11072 0.88881 0.11714
 C1099 C 0.14159 0.86836 0.13878
 C1100 C 0.13468 0.84142 0.16917
 H1101 H 0.08217 0.88240 0.12700
 H1102 H 0.17013 0.87481 0.12893
 H1103 H 0.14628 0.92109 0.07616
 H1104 H 0.10600 0.83480 0.17826
 C1105 C 0.36669 0.66397 0.33572
 C1106 C 0.35965 0.63551 0.36411
 C1107 C 0.39042 0.61451 0.38527
 C1108 C 0.38338 0.58608 0.41370
 H1109 H 0.33103 0.62760 0.37191
 H1110 H 0.41904 0.62242 0.37748
 H1111 H 0.39543 0.67165 0.32822
 H1112 H 0.35464 0.57840 0.42119
 C1113 C 0.13436 -0.16597 0.34113
 C1114 C 0.14096 -0.13290 0.36217
 C1115 C 0.10979 -0.10934 0.37938
 C1116 C 0.11617 -0.07669 0.40144
 H1117 H 0.16946 -0.12290 0.36636
 H1118 H 0.08135 -0.11951 0.37521
 H1119 H 0.10568 -0.17518 0.33614
 H1120 H 0.14475 -0.06737 0.40677
 C1121 C 0.13397 0.66053 0.33061
 C1122 C 0.14066 0.63325 0.36080
 C1123 C 0.10966 0.61261 0.38244
 C1124 C 0.11636 0.58600 0.41347
 H1125 H 0.16917 0.62650 0.37036
 H1126 H 0.08113 0.61941 0.37299
 H1127 H 0.10532 0.66738 0.32173
 H1128 H 0.14502 0.57925 0.42241
 C1129 C 0.36692 -0.16991 0.34618
 C1130 C 0.35985 -0.13628 0.36582
 C1131 C 0.39043 -0.11200 0.38275
 C1132 C 0.38334 -0.07843 0.40251
 H1133 H 0.33128 -0.12602 0.36844
 H1134 H 0.41899 -0.12225 0.38011
 H1135 H 0.39565 -0.17933 0.34219
 H1136 H 0.35460 -0.06904 0.40654
 C1137 C 0.49837 0.47687 0.19505
 C1138 C 0.49827 0.50427 0.22613
 C1139 C 0.49824 0.49453 0.27438
 C1140 C 0.49851 0.52198 0.30541
 H1141 H 0.49841 0.53390 0.21605
 H1142 H 0.49818 0.46491 0.28449
 H1143 H 0.49827 0.44739 0.20580
 H1144 H 0.49859 0.55144 0.29460
 C1145 C 0.75050 0.77341 1.05477
 C1146 C 0.75026 0.74591 1.02383
 C1147 C 0.75015 0.75553 0.97560
 C1148 C 0.74959 0.72804 0.94467
 H1149 H 0.74993 0.71631 1.03402
 H1150 H 0.75042 0.78513 0.96541
 H1151 H 0.75075 0.80286 1.04392
 H1152 H 0.74935 0.69859 0.95552
 C1153 C 0.61606 0.58140 0.09326
 C1154 C 0.60924 0.61340 0.11627
 C1155 C 0.64020 0.63676 0.13378
 C1156 C 0.63335 0.66876 0.15679
 H1157 H 0.58066 0.62286 0.12158
 H1158 H 0.66878 0.62732 0.12845
 H1159 H 0.64478 0.57269 0.08723
 H1160 H 0.60463 0.67744 0.16283
 C1161 C 0.88446 0.91013 0.07861
 C1162 C 0.89073 0.88308 0.10913
 C1163 C 0.85941 0.86280 0.13051
 C1164 C 0.86580 0.83645 0.16185
 H1165 H 0.91914 0.87629 0.11914
 H1166 H 0.83098 0.86961 0.12066
 H1167 H 0.85591 0.91704 0.06930
 H1168 H 0.89439 0.82970 0.17112
 C1169 C 0.88349 0.58342 0.09122
 C1170 C 0.89041 0.61650 0.11204
 C1171 C 0.85953 0.64025 0.12941
 C1172 C 0.86629 0.67284 0.15135
 H1173 H 0.91897 0.62638 0.11593
 H1174 H 0.83100 0.63025 0.12548
 H1175 H 0.85476 0.57429 0.08649
 H1176 H 0.89496 0.68199 0.15647
 C1177 C 0.61583 0.91275 0.08337
 C1178 C 0.60973 0.88407 0.11503
 C1179 C 0.63972 0.86623 0.13630
 C1180 C 0.63363 0.83767 0.16799
 H1181 H 0.58139 0.87576 0.12378
 H1182 H 0.66809 0.87440 0.12758
 H1183 H 0.64451 0.92060 0.07557
 H1184 H 0.60504 0.82969 0.17603
 C1185 C -0.13385 0.66496 0.33691
 C1186 C -0.14057 0.63857 0.36816
 C1187 C -0.10962 0.61798 0.38975
 C1188 C -0.11640 0.59083 0.42006
 H1189 H -0.16911 0.63188 0.37780
 H1190 H -0.08108 0.62460 0.38004
 H1191 H -0.10519 0.67161 0.32778
 H1192 H -0.14507 0.58410 0.42905
 C1193 C 0.63317 -0.16806 0.34301
 C1194 C 0.64000 -0.13590 0.36566
 C1195 C 0.60906 -0.11251 0.38327
 C1196 C 0.61589 -0.08042 0.40605
 H1197 H 0.66857 -0.12636 0.37061
 H1198 H 0.58050 -0.12205 0.37828
 H1199 H 0.60446 -0.17685 0.33731
 H1200 H 0.64459 -0.07166 0.41184
 C1201 C 0.63343 0.66051 0.33195
 C1202 C 0.64022 0.63499 0.36415
 C1203 C 0.60935 0.61447 0.38601
 C1204 C 0.61606 0.58897 0.41825
 H1205 H 0.66869 0.62950 0.37496
 H1206 H 0.58089 0.61999 0.37517
 H1207 H 0.60481 0.66626 0.32195
 H1208 H 0.64467 0.58318 0.42831
 C1209 C -0.13385 -0.17153 0.34706
 C1210 C -0.14066 -0.13903 0.36919
 C1211 C -0.10982 -0.11531 0.38645
 C1212 C -0.11682 -0.08235 0.40752
 H1213 H -0.16921 -0.12911 0.37338
 H1214 H -0.08123 -0.12511 0.38229
 H1215 H -0.10516 -0.18061 0.34170
 H1216 H -0.14557 -0.07333 0.41251
 C1217 C 0.00162 0.02169 0.80580
 C1218 C 0.00129 -0.00607 0.77200
 C1219 C 0.00070 0.00445 0.72640
 C1220 C 0.00002 -0.02314 0.69252
 H1221 H 0.00129 -0.03595 0.78102
 H1222 H 0.00069 0.03432 0.71733
 H1223 H 0.00150 0.05124 0.79516
 H1224 H 0.00003 -0.05279 0.70268
 C1225 C 0.24962 0.22758 0.44453
 C1226 C 0.25007 0.25472 0.47613
 C1227 C 0.25004 0.24458 0.52454
 C1228 C 0.25027 0.27171 0.55615
 H1229 H 0.25039 0.28442 0.46639
 H1230 H 0.24970 0.21487 0.53427
 H1231 H 0.24932 0.19805 0.45505
 H1232 H 0.25055 0.30124 0.54564
 C1233 C 0.11552 0.07833 0.59751
 C1234 C 0.10889 0.11049 0.62042
 C1235 C 0.13991 0.13390 0.63795
 C1236 C 0.13316 0.16657 0.65980
 H1237 H 0.08038 0.12037 0.62509
 H1238 H 0.16845 0.12411 0.63330
 H1239 H 0.14418 0.06932 0.59175
 H1240 H 0.10446 0.17560 0.66519
 C1241 C 0.36574 0.33563 0.66523
 C1242 C 0.35884 0.36397 0.63661
 C1243 C 0.38970 0.38487 0.61536
 C1244 C 0.38281 0.41320 0.58672
 H1245 H 0.33025 0.37186 0.62869
 H1246 H 0.41828 0.37698 0.62330
 H1247 H 0.39445 0.32795 0.67283
 H1248 H 0.35411 0.42088 0.57909
 C1249 C 0.36584 0.16968 0.65498
 C1250 C 0.35892 0.13622 0.63490
 C1251 C 0.38966 0.11210 0.61783
 C1252 C 0.38276 0.07871 0.59762
 H1253 H 0.33038 0.12601 0.63199
 H1254 H 0.41819 0.12232 0.62077
 H1255 H 0.39454 0.17905 0.65919
 H1256 H 0.35407 0.06934 0.59332
 C1257 C 0.13301 0.33973 0.67138
 C1258 C 0.13983 0.36700 0.64127
 C1259 C 0.10893 0.38769 0.61979
 C1260 C 0.11580 0.41413 0.58869
 H1261 H 0.16837 0.37364 0.63161
 H1262 H 0.08037 0.38104 0.62936
 H1263 H 0.10434 0.33298 0.68036
 H1264 H 0.14450 0.42071 0.57964
 C1265 C 0.38504 0.08418 0.91379
 C1266 C 0.39132 0.11290 0.88553
 C1267 C 0.35990 0.13357 0.86509
 C1268 C 0.36617 0.16245 0.83705
 H1269 H 0.41975 0.12134 0.87748
 H1270 H 0.33148 0.12512 0.87312
 H1271 H 0.35647 0.07607 0.92159
 H1272 H 0.39473 0.17063 0.82931
 C1273 C 0.11631 0.42289 0.90101
 C1274 C 0.10957 0.38989 0.88000
 C1275 C 0.14043 0.36590 0.86319
 C1276 C 0.13347 0.33244 0.84332
 H1277 H 0.08106 0.37971 0.87653
 H1278 H 0.16899 0.37592 0.86662
 H1279 H 0.14497 0.43222 0.90579
 H1280 H 0.10474 0.32320 0.83892
 C1281 C 0.11599 0.08261 0.91152
 C1282 C 0.10991 0.11185 0.88074
 C1283 C 0.13991 0.13064 0.86081
 C1284 C 0.13376 0.16053 0.83106
 H1285 H 0.08159 0.12042 0.87232
 H1286 H 0.16828 0.12231 0.86928
 H1287 H 0.14465 0.07461 0.91918
 H1288 H 0.10517 0.16859 0.82322
 C1289 C 0.38332 0.42025 0.90406
 C1290 C 0.39011 0.38660 0.88424
 C1291 C 0.35926 0.36240 0.86759
 C1292 C 0.36603 0.32876 0.84776
 H1293 H 0.41862 0.37627 0.88129
 H1294 H 0.33074 0.37272 0.87058
 H1295 H 0.35464 0.42973 0.90833
 H1296 H 0.39471 0.31927 0.84344
 C1297 C 0.50024 0.01932 0.80537
 C1298 C 0.49918 -0.00800 0.77424
 C1299 C 0.49882 0.00211 0.72607
 C1300 C 0.49805 -0.02495 0.69460
 H1301 H 0.49868 -0.03766 0.78418
 H1302 H 0.49947 0.03182 0.71634
 H1303 H 0.50066 0.04879 0.79458
 H1304 H 0.49754 -0.05453 0.70492
 C1305 C 0.75152 0.22696 0.44588
 C1306 C 0.75063 0.25444 0.47689
 C1307 C 0.75032 0.24478 0.52519
 C1308 C 0.74914 0.27222 0.55624
 H1309 H 0.74995 0.28403 0.46672
 H1310 H 0.75101 0.21518 0.53534
 H1311 H 0.75208 0.19752 0.45674
 H1312 H 0.74852 0.30167 0.54544
 C1313 C 0.61539 0.08068 0.59446
 C1314 C 0.60841 0.11250 0.61772
 C1315 C 0.63926 0.13583 0.63543
 C1316 C 0.63230 0.16769 0.65863
 H1317 H 0.57981 0.12187 0.62303
 H1318 H 0.66787 0.12650 0.63004
 H1319 H 0.64413 0.07208 0.58842
 H1320 H 0.60356 0.17628 0.66475
 C1321 C -0.13540 0.33546 0.66321
 C1322 C -0.14202 0.36206 0.63227
 C1323 C -0.11085 0.38259 0.61102
 C1324 C -0.11731 0.41000 0.58104
 H1325 H -0.17051 0.36893 0.62272
 H1326 H -0.08240 0.37570 0.62074
 H1327 H -0.10676 0.32868 0.67222
 H1328 H -0.14590 0.41699 0.57199
 C1329 C 0.88258 0.08287 0.59199
 C1330 C 0.88942 0.11593 0.61285
 C1331 C 0.85849 0.13952 0.63027
 C1332 C 0.86519 0.17213 0.65214
 H1333 H 0.91795 0.12591 0.61671
 H1334 H 0.82999 0.12939 0.62648
 H1335 H 0.85388 0.07367 0.58722
 H1336 H 0.89384 0.18141 0.65711
 C1337 C 0.63187 0.33873 0.67008
 C1338 C 0.63880 0.36406 0.63768
 C1339 C 0.60816 0.38457 0.61556
 C1340 C 0.61524 0.40983 0.58314
 H1341 H 0.66732 0.36940 0.62684
 H1342 H 0.57962 0.37928 0.62633
 H1343 H 0.60323 0.33304 0.68014
 H1344 H 0.64394 0.41540 0.57319
 C1345 C 0.88487 0.08996 0.91809
 C1346 C 0.89122 0.11733 0.88816
 C1347 C 0.85986 0.13772 0.86755
 C1348 C 0.86610 0.16416 0.83644
 H1349 H 0.91960 0.12420 0.87801
 H1350 H 0.83149 0.13083 0.87772
 H1351 H 0.85633 0.08302 0.92750
 H1352 H 0.89461 0.17099 0.82678
 C1353 C 0.61601 0.41870 0.90683
 C1354 C 0.60900 0.38632 0.88477
 C1355 C 0.63978 0.36275 0.86727
 C1356 C 0.63274 0.33038 0.84523
 H1357 H 0.58040 0.37670 0.88028
 H1358 H 0.66838 0.37238 0.87171
 H1359 H 0.64474 0.42756 0.91218
 H1360 H 0.60399 0.32151 0.83996
 C1361 C 0.61618 0.08447 0.91764
 C1362 C 0.61014 0.11355 0.88636
 C1363 C 0.64010 0.13187 0.86528
 C1364 C 0.63387 0.16084 0.83402
 H1365 H 0.58179 0.12189 0.87781
 H1366 H 0.66851 0.12372 0.87373
 H1367 H 0.64486 0.07657 0.92531
 H1368 H 0.60522 0.16873 0.82628
 C1369 C 0.88344 0.41687 0.90800
 C1370 C 0.89022 0.38384 0.88693
 C1371 C 0.85918 0.36008 0.87002
 C1372 C 0.86574 0.32748 0.84793
 H1373 H 0.91877 0.37400 0.88251
 H1374 H 0.83067 0.37007 0.87442
 H1375 H 0.85473 0.42592 0.91324
 H1376 H 0.89438 0.31834 0.84236
 C1377 C -0.00062 0.52276 0.80734
 C1378 C -0.00033 0.49485 0.77369
 C1379 C -0.00028 0.50507 0.72799
 C1380 C -0.00028 0.47722 0.69435
 H1381 H -0.00022 0.46502 0.78291
 H1382 H -0.00035 0.53487 0.71866
 H1383 H -0.00078 0.55229 0.79661
 H1384 H -0.00029 0.44764 0.70476
 C1385 C 0.25127 0.72799 0.44434
 C1386 C 0.25145 0.75541 0.47539
 C1387 C 0.25131 0.74569 0.52365
 C1388 C 0.25116 0.77314 0.55467
 H1389 H 0.25153 0.78503 0.46529
 H1390 H 0.25113 0.71607 0.53377
 H1391 H 0.25117 0.69852 0.45511
 H1392 H 0.25129 0.80260 0.54385
 C1393 C 0.11644 0.57777 0.59883
 C1394 C 0.10963 0.61057 0.62034
 C1395 C 0.14046 0.63441 0.63738
 C1396 C 0.13348 0.66771 0.65769
 H1397 H 0.08110 0.62067 0.62410
 H1398 H 0.16903 0.62440 0.63372
 H1399 H 0.14512 0.56853 0.59381
 H1400 H 0.10474 0.67694 0.66224
 C1401 C 0.38298 0.91321 0.58494
 C1402 C 0.38998 0.88505 0.61364
 C1403 C 0.35917 0.86429 0.63483
 C1404 C 0.36609 0.83629 0.66377
 H1405 H 0.41857 0.87730 0.62176
 H1406 H 0.33059 0.87204 0.62663
 H1407 H 0.35427 0.92081 0.57721
 H1408 H 0.39477 0.82871 0.67165
 C1409 C 0.36591 0.67054 0.65397
 C1410 C 0.35899 0.63716 0.63368
 C1411 C 0.38973 0.61288 0.61679
 C1412 C 0.38280 0.57949 0.59651
 H1413 H 0.33042 0.62710 0.63043
 H1414 H 0.41830 0.62294 0.61999
 H1415 H 0.39463 0.67976 0.65850
 H1416 H 0.35408 0.57026 0.59205
 C1417 C 0.11567 0.91537 0.58611
 C1418 C 0.10900 0.88898 0.61724
 C1419 C 0.14000 0.86847 0.63856
 C1420 C 0.13321 0.84121 0.66859
 H1421 H 0.08049 0.88223 0.62696
 H1422 H 0.16852 0.87518 0.62887
 H1423 H 0.14430 0.92209 0.57689
 H1424 H 0.10454 0.83440 0.67755
 C1425 C 0.38298 0.58653 0.91462
 C1426 C 0.38953 0.61503 0.88614
 C1427 C 0.35839 0.63575 0.86521
 C1428 C 0.36506 0.66417 0.83664
 H1429 H 0.41804 0.62317 0.87806
 H1430 H 0.32987 0.62766 0.87324
 H1431 H 0.35435 0.57861 0.92239
 H1432 H 0.39373 0.67199 0.82894
 C1433 C 0.11634 0.92169 0.90461
 C1434 C 0.11035 0.89022 0.87653
 C1435 C 0.14009 0.86684 0.86314
 C1436 C 0.13381 0.83448 0.83674
 H1437 H 0.08213 0.88285 0.86628
 H1438 H 0.16837 0.87409 0.87323
 H1439 H 0.14486 0.92788 0.91492
 H1440 H 0.10530 0.82791 0.82681
 C1441 C 0.11522 0.58629 0.91095
 C1442 C 0.10818 0.61268 0.88000
 C1443 C 0.13898 0.63337 0.85863
 C1444 C 0.13211 0.66086 0.82898
 H1445 H 0.07960 0.61933 0.87058
 H1446 H 0.16752 0.62658 0.86808
 H1447 H 0.14394 0.57975 0.91987
 H1448 H 0.10345 0.66779 0.82019
 C1449 C 0.38472 0.91930 0.90478
 C1450 C 0.39090 0.88577 0.88452
 C1451 C 0.35958 0.86251 0.86732
 C1452 C 0.36579 0.82902 0.84699
 H1453 H 0.41921 0.87490 0.88152
 H1454 H 0.33127 0.87341 0.87026
 H1455 H 0.35620 0.92932 0.90901
 H1456 H 0.39431 0.81899 0.84282
 C1457 C 0.49827 0.52288 0.80537
 C1458 C 0.49776 0.49535 0.77444
 C1459 C 0.49772 0.50488 0.72615
 C1460 C 0.49757 0.47732 0.69526
 H1461 H 0.49757 0.46576 0.78467
 H1462 H 0.49805 0.53446 0.71589
 H1463 H 0.49846 0.55232 0.79449
 H1464 H 0.49730 0.44789 0.70620
 C1465 C 0.75073 0.72787 0.44453
 C1466 C 0.75066 0.75535 0.47555
 C1467 C 0.75061 0.74571 0.52384
 C1468 C 0.75021 0.77319 0.55486
 H1469 H 0.75043 0.78495 0.46538
 H1470 H 0.75073 0.71610 0.53401
 H1471 H 0.75091 0.69841 0.45536
 H1472 H 0.75008 0.80264 0.54402
 C1473 C 0.61554 0.58125 0.59344
 C1474 C 0.60870 0.61333 0.61632
 C1475 C 0.63965 0.63673 0.63387
 C1476 C 0.63281 0.66880 0.65679
 H1477 H 0.58012 0.62282 0.62152
 H1478 H 0.66823 0.62726 0.62864
 H1479 H 0.64426 0.57251 0.58754
 H1480 H 0.60409 0.67752 0.66274
 C1481 C 0.88264 0.90978 0.57934
 C1482 C 0.88946 0.88266 0.60953
 C1483 C 0.85855 0.86211 0.63102
 C1484 C 0.86534 0.83600 0.66244
 H1485 H 0.91798 0.87614 0.61932
 H1486 H 0.83002 0.86861 0.62124
 H1487 H 0.85398 0.91645 0.57030
 H1488 H 0.89400 0.82952 0.67170
 C1489 C 0.88357 0.58326 0.59271
 C1490 C 0.89035 0.61640 0.61341
 C1491 C 0.85934 0.64010 0.63047
 C1492 C 0.86592 0.67280 0.65223
 H1493 H 0.91889 0.62636 0.61739
 H1494 H 0.83086 0.62999 0.62649
 H1495 H 0.85487 0.57409 0.58786
 H1496 H 0.89454 0.68207 0.65742
 C1497 C 0.61560 0.90994 0.58051
 C1498 C 0.60873 0.88499 0.61320
 C1499 C 0.63949 0.86471 0.63516
 C1500 C 0.63261 0.83990 0.66800
 H1501 H 0.58027 0.87991 0.62445
 H1502 H 0.66794 0.86977 0.62389
 H1503 H 0.64422 0.91543 0.57015
 H1504 H 0.60400 0.83447 0.67841
 C1505 C 0.88242 0.59052 0.91945
 C1506 C 0.88916 0.61793 0.88957
 C1507 C 0.85823 0.63856 0.86826
 C1508 C 0.86508 0.66502 0.83724
 H1509 H 0.91767 0.62473 0.87994
 H1510 H 0.82968 0.63182 0.87782
 H1511 H 0.85378 0.58359 0.92841
 H1512 H 0.89376 0.67167 0.82817
 C1513 C 0.61582 0.91678 0.91198
 C1514 C 0.60971 0.88557 0.88358
 C1515 C 0.63957 0.86311 0.86857
 C1516 C 0.63342 0.83184 0.84040
 H1517 H 0.58145 0.87818 0.87351
 H1518 H 0.66788 0.87045 0.87845
 H1519 H 0.64442 0.92317 0.92177
 H1520 H 0.60489 0.82519 0.83063
 C1521 C 0.61584 0.58987 0.91840
 C1522 C 0.60886 0.61518 0.88610
 C1523 C 0.63954 0.63570 0.86412
 C1524 C 0.63258 0.66099 0.83178
 H1525 H 0.58035 0.62047 0.87526
 H1526 H 0.66804 0.63040 0.87496
 H1527 H 0.64449 0.58426 0.92841
 H1528 H 0.60393 0.66660 0.82174
 C1529 C 0.88496 0.91730 0.90630
 C1530 C 0.89119 0.88388 0.88598
 C1531 C 0.85976 0.86074 0.86904
 C1532 C 0.86585 0.82779 0.84763
 H1533 H 0.91955 0.87329 0.88223
 H1534 H 0.83145 0.87147 0.87276
 H1535 H 0.85641 0.92709 0.91093
 H1536 H 0.89435 0.81794 0.84269
   
