data_POSCAR
  _audit_creation_date              2014-09-24
  _audit_creation_method            'ToBaCCo'
  _symmetry_space_group_name_H-M    'P1'
  _symmetry_Int_Tables_number       1
  _symmetry_cell_setting            triclinic
  loop_
  _symmetry_equiv_pos_as_xyz
 x,y,z
_cell_length_a 46.1128
_cell_length_b 46.3134
_cell_length_c 46.2010
_cell_angle_alpha 90.090400
_cell_angle_beta 89.939300
_cell_angle_gamma 90.013000
loop_
  _atom_site_label
  _atom_site_type_symbol
  _atom_site_fract_x
  _atom_site_fract_y
  _atom_site_fract_z
C1 C 0.36562 0.32975 0.33152
 C2 C 0.35375 0.35420 0.31819
 C3 C 0.32880 0.36739 0.32952
 C4 C 0.31591 0.35608 0.35459
 C5 C 0.32766 0.33164 0.36813
 C6 C 0.35259 0.31868 0.35658
 H7 H 0.36371 0.36244 0.29867
 H8 H 0.29645 0.36606 0.36307
 H9 H 0.36134 0.29961 0.36687
 C10 C 0.37291 0.83205 -0.16667
 C11 C 0.36153 0.85686 -0.17992
 C12 C 0.33657 0.87027 -0.16883
 C13 C 0.32322 0.85889 -0.14406
 C14 C 0.33429 0.83413 -0.13067
 C15 C 0.35922 0.82090 -0.14191
 H16 H 0.37186 0.86515 -0.19925
 H17 H 0.30374 0.86899 -0.13575
 H18 H 0.36731 0.80154 -0.13163
 C19 C 0.86928 0.33197 -0.16683
 C20 C 0.85545 0.32081 -0.14225
 C21 C 0.83060 0.33420 -0.13103
 C22 C 0.81978 0.35915 -0.14437
 C23 C 0.83344 0.37057 -0.16902
 C24 C 0.85833 0.35691 -0.18000
 H25 H 0.86348 0.30133 -0.13213
 H26 H 0.80037 0.36939 -0.13608
 H27 H 0.86899 0.36508 -0.19919
 C28 C 0.86734 0.83195 0.33017
 C29 C 0.85533 0.85619 0.31656
 C30 C 0.83014 0.86926 0.32765
 C31 C 0.81730 0.85799 0.35280
 C32 C 0.82922 0.83379 0.36655
 C33 C 0.85430 0.82098 0.35524
 H34 H 0.86538 0.86424 0.29700
 H35 H 0.79768 0.86774 0.36120
 H36 H 0.86313 0.80207 0.36575
 C37 C 0.63111 0.66832 0.33361
 C38 C 0.64451 0.67976 0.35830
 C39 C 0.66973 0.66710 0.36943
 C40 C 0.68136 0.64257 0.35588
 C41 C 0.66812 0.63093 0.33117
 C42 C 0.64290 0.64381 0.32022
 H43 H 0.63588 0.69893 0.36859
 H44 H 0.70106 0.63283 0.36402
 H45 H 0.63269 0.63531 0.30093
 C46 C 0.63234 0.16683 -0.17092
 C47 C 0.64625 0.14254 -0.18258
 C48 C 0.67136 0.13139 -0.16954
 C49 C 0.68220 0.14462 -0.14439
 C50 C 0.66839 0.16892 -0.13262
 C51 C 0.64339 0.17980 -0.14587
 H52 H 0.63807 0.13267 -0.20220
 H53 H 0.70174 0.13667 -0.13421
 H54 H 0.63279 0.19881 -0.13725
 C55 C 0.13243 0.66809 -0.16951
 C56 C 0.14449 0.68085 -0.14474
 C57 C 0.16906 0.66881 -0.13161
 C58 C 0.18131 0.64361 -0.14317
 C59 C 0.16952 0.63066 -0.16796
 C60 C 0.14494 0.64291 -0.18091
 H61 H 0.13521 0.70057 -0.13611
 H62 H 0.20041 0.63456 -0.13327
 H63 H 0.13609 0.63312 -0.20027
 C64 C 0.12855 0.16611 0.33549
 C65 C 0.14122 0.14139 0.32336
 C66 C 0.16631 0.12938 0.33553
 C67 C 0.17856 0.14217 0.36024
 C68 C 0.16604 0.16689 0.37254
 C69 C 0.14093 0.17862 0.36020
 H70 H 0.13195 0.13190 0.30400
 H71 H 0.19818 0.13345 0.36960
 H72 H 0.13148 0.19788 0.36937
 C73 C 0.63198 0.33379 0.66916
 C74 C 0.64487 0.35832 0.68145
 C75 C 0.66971 0.37061 0.66895
 C76 C 0.68145 0.35830 0.64375
 C77 C 0.66868 0.33376 0.63124
 C78 C 0.64385 0.32174 0.64400
 H79 H 0.63595 0.36741 0.70106
 H80 H 0.70088 0.36744 0.63423
 H81 H 0.63396 0.30260 0.63489
 C82 C 0.62675 0.82856 1.16840
 C83 C 0.63929 0.81666 1.14338
 C84 C 0.66389 0.82931 1.13083
 C85 C 0.67579 0.85427 1.14322
 C86 C 0.66351 0.86650 1.16821
 C87 C 0.63886 0.85359 1.18057
 H88 H 0.63042 0.79721 1.13404
 H89 H 0.69508 0.86377 1.13376
 H90 H 0.62931 0.86243 1.20006
 C91 C 0.12666 0.32862 1.17074
 C92 C 0.13882 0.31586 1.14596
 C93 C 0.16338 0.32796 1.13275
 C94 C 0.17560 0.35320 1.14428
 C95 C 0.16363 0.36620 1.16895
 C96 C 0.13908 0.35394 1.18196
 H97 H 0.12948 0.29614 1.13748
 H98 H 0.19486 0.36236 1.13444
 H99 H 0.13011 0.36376 1.20116
 C100 C 0.13449 0.83359 0.67008
 C101 C 0.14753 0.85836 0.68193
 C102 C 0.17259 0.87018 0.66937
 C103 C 0.18438 0.85723 0.64456
 C104 C 0.17166 0.83250 0.63255
 C105 C 0.14665 0.82088 0.64525
 H106 H 0.13875 0.86824 0.70129
 H107 H 0.20384 0.86590 0.63496
 H108 H 0.13707 0.80150 0.63617
 C109 C 0.37166 0.66907 0.67068
 C110 C 0.35868 0.68029 0.64564
 C111 C 0.33392 0.66720 0.63388
 C112 C 0.32237 0.64255 0.64711
 C113 C 0.33509 0.63118 0.67212
 C114 C 0.35984 0.64440 0.68377
 H115 H 0.36727 0.69955 0.63556
 H116 H 0.30305 0.63246 0.63850
 H117 H 0.36962 0.63603 0.70332
 C118 C 0.36593 0.16500 1.17023
 C119 C 0.35367 0.14025 1.18268
 C120 C 0.32865 0.12768 1.17083
 C121 C 0.31618 0.13991 1.14601
 C122 C 0.32827 0.16466 1.13334
 C123 C 0.35323 0.17703 1.14548
 H124 H 0.36327 0.13124 1.20193
 H125 H 0.29667 0.13044 1.13709
 H126 H 0.36238 0.19641 1.13604
 C127 C 0.86921 0.66957 1.16601
 C128 C 0.85584 0.68110 1.14135
 C129 C 0.83102 0.66802 1.12970
 C130 C 0.81980 0.64305 1.14269
 C131 C 0.83300 0.63137 1.16735
 C132 C 0.85779 0.64462 1.17881
 H133 H 0.86418 0.70062 1.13155
 H134 H 0.80041 0.63299 1.13419
 H135 H 0.86792 0.63607 1.19809
 C136 C 0.87013 0.17268 0.66626
 C137 C 0.85746 0.14770 0.67800
 C138 C 0.83259 0.13546 0.66541
 C139 C 0.82062 0.14832 0.64063
 C140 C 0.83307 0.17319 0.62870
 C141 C 0.85786 0.18517 0.64145
 H142 H 0.86661 0.13814 0.69737
 H143 H 0.80127 0.13955 0.63075
 H144 H 0.86711 0.20455 0.63236
 C145 C 0.33323 0.37078 0.66894
 C146 C 0.35813 0.35818 0.68075
 C147 C 0.37017 0.33330 0.66834
 C148 C 0.35733 0.32124 0.64361
 C149 C 0.33240 0.33373 0.63154
 C150 C 0.32057 0.35863 0.64422
 H151 H 0.36767 0.36732 0.70001
 H152 H 0.36628 0.30172 0.63422
 H153 H 0.30109 0.36825 0.63548
 C154 C 0.33054 0.86792 0.17047
 C155 C 0.35521 0.85516 0.18282
 C156 C 0.36773 0.83059 0.17024
 C157 C 0.35569 0.81900 0.14494
 C158 C 0.33105 0.83149 0.13241
 C159 C 0.31864 0.85604 0.14518
 H160 H 0.36438 0.86378 0.20257
 H161 H 0.36510 0.79990 0.13539
 H162 H 0.29933 0.86551 0.13581
 C163 C 0.83242 0.36800 0.16859
 C164 C 0.85692 0.35473 0.18071
 C165 C 0.86863 0.32975 0.16817
 C166 C 0.85595 0.31825 0.14316
 C167 C 0.83143 0.33123 0.13088
 C168 C 0.81984 0.35619 0.14359
 H169 H 0.86659 0.36328 0.20026
 H170 H 0.86471 0.29881 0.13372
 H171 H 0.80061 0.36605 0.13443
 C172 C 0.83474 0.87232 0.66471
 C173 C 0.85953 0.86055 0.67770
 C174 C 0.87233 0.83545 0.66647
 C175 C 0.86038 0.82233 0.64186
 C176 C 0.83556 0.83388 0.62873
 C177 C 0.82294 0.85896 0.64014
 H178 H 0.86829 0.87067 0.69692
 H179 H 0.87007 0.80273 0.63353
 H180 H 0.80354 0.86753 0.63019
 C181 C 0.67230 0.63206 0.66795
 C182 C 0.64756 0.64363 0.68131
 C183 C 0.63420 0.66839 0.67007
 C184 C 0.64555 0.68137 0.64512
 C185 C 0.67029 0.66999 0.63162
 C186 C 0.68348 0.64525 0.64303
 H187 H 0.63926 0.63363 0.70078
 H188 H 0.63541 0.70070 0.63677
 H189 H 0.70280 0.63681 0.63276
 C190 C 0.66664 0.12980 0.16518
 C191 C 0.67829 0.14336 0.14065
 C192 C 0.66546 0.16845 0.12952
 C193 C 0.64066 0.17979 0.14295
 C194 C 0.62889 0.16646 0.16751
 C195 C 0.64186 0.14136 0.17843
 H196 H 0.69766 0.13491 0.13048
 H197 H 0.63078 0.19937 0.13486
 H198 H 0.63320 0.13108 0.19759
 C199 C 0.16828 0.63142 0.16550
 C200 C 0.14352 0.64348 0.17845
 C201 C 0.13081 0.66847 0.16699
 C202 C 0.14283 0.68118 0.14223
 C203 C 0.16757 0.66944 0.12915
 C204 C 0.18014 0.64446 0.14076
 H205 H 0.13454 0.63379 0.19783
 H206 H 0.13337 0.70059 0.13350
 H207 H 0.19949 0.63572 0.13079
 C208 C 0.16950 0.12969 0.67133
 C209 C 0.14449 0.14220 0.68314
 C210 C 0.13234 0.16699 0.67073
 C211 C 0.14524 0.17907 0.64603
 C212 C 0.17026 0.16667 0.63396
 C213 C 0.18219 0.14187 0.64665
 H214 H 0.13492 0.13302 0.70236
 H215 H 0.13618 0.19849 0.63660
 H216 H 0.20172 0.13230 0.63788
 C217 C 0.32958 0.62695 0.33231
 C218 C 0.35446 0.63927 0.32003
 C219 C 0.36725 0.66378 0.33255
 C220 C 0.35514 0.67571 0.35772
 C221 C 0.33029 0.66351 0.37020
 C222 C 0.31772 0.63902 0.35751
 H223 H 0.36326 0.63010 0.30035
 H224 H 0.36464 0.69493 0.36720
 H225 H 0.29834 0.62982 0.36680
 C226 C 0.33448 0.13109 0.83300
 C227 C 0.32135 0.14268 0.85780
 C228 C 0.33245 0.16776 0.87077
 C229 C 0.35710 0.18103 0.85893
 C230 C 0.37039 0.16955 0.83411
 C231 C 0.35909 0.14450 0.82138
 H232 H 0.30212 0.13244 0.86642
 H233 H 0.36538 0.20061 0.86870
 H234 H 0.36917 0.13600 0.80200
 C235 C 0.83385 0.63378 0.83151
 C236 C 0.82172 0.64650 0.85632
 C237 C 0.83399 0.67146 0.86835
 C238 C 0.85875 0.68355 0.85561
 C239 C 0.87107 0.67113 0.83079
 C240 C 0.85862 0.64614 0.81892
 H241 H 0.80239 0.63751 0.86605
 H242 H 0.86799 0.70298 0.86464
 H243 H 0.86783 0.63668 0.79950
 C244 C 0.82605 0.12781 0.33075
 C245 C 0.85123 0.13955 0.31853
 C246 C 0.86404 0.16428 0.33050
 C247 C 0.85164 0.17708 0.35509
 C248 C 0.82644 0.16553 0.36751
 C249 C 0.81382 0.14077 0.35534
 H250 H 0.86031 0.12966 0.29932
 H251 H 0.86122 0.19646 0.36416
 H252 H 0.79418 0.13201 0.36455
 C253 C 0.66574 0.37065 0.32897
 C254 C 0.67823 0.35872 0.35384
 C255 C 0.66630 0.33396 0.36663
 C256 C 0.64144 0.32136 0.35449
 C257 C 0.62874 0.33316 0.32959
 C258 C 0.64091 0.35792 0.31705
 H259 H 0.69763 0.36847 0.36265
 H260 H 0.63239 0.30196 0.36401
 H261 H 0.63151 0.36689 0.29767
 C262 C 0.67334 0.87307 0.82995
 C263 C 0.68509 0.86063 0.85497
 C264 C 0.67238 0.83604 0.86730
 C265 C 0.64752 0.82410 0.85461
 C266 C 0.63553 0.83633 0.82960
 C267 C 0.64845 0.86093 0.81743
 H268 H 0.70444 0.86969 0.86447
 H269 H 0.63787 0.80485 0.86384
 H270 H 0.63968 0.87038 0.79791
 C271 C 0.16934 0.36912 0.83333
 C272 C 0.18138 0.35657 0.85815
 C273 C 0.16907 0.33166 0.87026
 C274 C 0.14431 0.31950 0.85750
 C275 C 0.13205 0.33191 0.83268
 C276 C 0.14460 0.35683 0.82080
 H277 H 0.20064 0.36581 0.86763
 H278 H 0.13496 0.30001 0.86652
 H279 H 0.13567 0.36644 0.80144
 C280 C 0.16746 0.86696 0.33513
 C281 C 0.18025 0.85479 0.35978
 C282 C 0.16863 0.82978 0.37229
 C283 C 0.14380 0.81714 0.36025
 C284 C 0.13080 0.82914 0.33560
 C285 C 0.14265 0.85414 0.32324
 H286 H 0.19958 0.86435 0.36879
 H287 H 0.13519 0.79760 0.36975
 H288 H 0.13297 0.86321 0.30391
 O289 O 0.24811 1.02659 0.21363
 O290 O 0.20865 0.97009 0.25357
 O291 O 0.20889 1.02664 0.25400
 O292 O 0.24856 0.97010 0.21389
 O293 O 0.28256 0.97029 0.24760
 O294 O 0.24309 1.02662 0.28750
 O295 O 0.24278 0.97033 0.28716
 O296 O 0.28221 1.02654 0.24725
 Cu297 Cu 0.22509 0.99835 0.23038
 Cu298 Cu 0.26608 0.99846 0.27076
 C299 C 0.27171 1.03630 0.22386
 C300 C 0.21925 0.96043 0.27697
 C301 C 0.21951 1.03641 0.27740
 C302 C 0.27216 0.96045 0.22418
 O303 O 0.28594 0.47240 0.74752
 O304 O 0.24589 0.52841 0.78728
 O305 O 0.24631 0.47214 0.78728
 O306 O 0.28688 0.52857 0.74899
 O307 O 0.25352 0.52915 0.71464
 O308 O 0.21280 0.47240 0.75309
 O309 O 0.21246 0.52887 0.75301
 O310 O 0.25247 0.47281 0.71328
 Cu311 Cu 0.26961 0.50031 0.77125
 Cu312 Cu 0.22941 0.50086 0.73004
 C313 C 0.27583 0.46295 0.72379
 C314 C 0.22259 0.53838 0.77668
 C315 C 0.22293 0.46247 0.77660
 C316 C 0.27698 0.53862 0.72550
 O317 O 0.74950 -0.03116 0.28269
 O318 O 0.70985 0.02542 0.24313
 O319 O 0.70960 -0.03104 0.24318
 O320 O 0.74913 0.02512 0.28309
 O321 O 0.78310 0.02544 0.24927
 O322 O 0.74363 -0.03127 0.20943
 O323 O 0.74376 0.02529 0.20925
 O324 O 0.78356 -0.03090 0.24898
 Cu325 Cu 0.72606 -0.00295 0.26639
 Cu326 Cu 0.76691 -0.00287 0.22579
 C327 C 0.77318 -0.04070 0.27242
 C328 C 0.72033 0.03521 0.21970
 C329 C 0.72007 -0.04097 0.21981
 C330 C 0.77262 0.03502 0.27282
 O331 O 0.71742 0.52937 0.74662
 O332 O 0.75673 0.47301 0.78646
 O333 O 0.75743 0.52948 0.78588
 O334 O 0.71776 0.47304 0.74608
 O335 O 0.75187 0.47270 0.71241
 O336 O 0.79143 0.52943 0.75211
 O337 O 0.79090 0.47287 0.75286
 O338 O 0.75136 0.52914 0.71278
 Cu339 Cu 0.73393 0.50123 0.76967
 Cu340 Cu 0.77485 0.50101 0.72916
 C341 C 0.72785 0.53901 0.72313
 C342 C 0.78026 0.46314 0.77625
 C343 C 0.78092 0.53933 0.77549
 C344 C 0.72822 0.46311 0.72267
 O345 O 0.24969 0.47001 0.28365
 O346 O 0.21094 0.52712 0.24405
 O347 O 0.21069 0.47063 0.24338
 O348 O 0.25089 0.52625 0.28348
 O349 O 0.28491 0.52613 0.24971
 O350 O 0.24481 0.47007 0.20972
 O351 O 0.24490 0.52666 0.21025
 O352 O 0.28388 0.46977 0.25005
 Cu353 Cu 0.22708 0.49855 0.26698
 Cu354 Cu 0.26803 0.49813 0.22649
 C355 C 0.27322 0.46008 0.27346
 C356 C 0.22153 0.53682 0.22065
 C357 C 0.22117 0.46057 0.22004
 C358 C 0.27458 0.53578 0.27327
 O359 O 0.75118 1.03198 0.78393
 O360 O 0.79119 0.97608 0.74369
 O361 O 0.79090 1.03266 0.74412
 O362 O 0.75136 0.97570 0.78331
 O363 O 0.71740 0.97570 0.74956
 O364 O 0.75695 1.03258 0.71037
 O365 O 0.75721 0.97611 0.70996
 O366 O 0.71723 1.03204 0.75016
 Cu367 Cu 0.77462 1.00411 0.76713
 Cu368 Cu 0.73381 1.00414 0.72658
 C369 C 0.72755 1.04162 0.77375
 C370 C 0.78074 0.96633 0.72023
 C371 C 0.78038 1.04252 0.72077
 C372 C 0.72784 0.96589 0.77296
 O373 O 0.78709 0.47197 0.24559
 O374 O 0.74777 0.52872 0.28527
 O375 O 0.74728 0.47237 0.28521
 O376 O 0.78749 0.52838 0.24551
 O377 O 0.75363 0.52858 0.21166
 O378 O 0.71346 0.47264 0.25130
 O379 O 0.71391 0.52891 0.25142
 O380 O 0.75327 0.47211 0.21169
 Cu381 Cu 0.77085 0.50035 0.26879
 Cu382 Cu 0.73018 0.50059 0.22808
 C383 C 0.77666 0.46217 0.22214
 C384 C 0.72430 0.53858 0.27494
 C385 C 0.72368 0.46284 0.27480
 C386 C 0.77719 0.53820 0.22206
 O387 O 0.25709 -0.02894 0.78796
 O388 O 0.21666 0.02721 0.74884
 O389 O 0.21645 -0.02908 0.74928
 O390 O 0.25606 0.02744 0.78876
 O391 O 0.28978 0.02779 0.75469
 O392 O 0.25007 -0.02866 0.71511
 O393 O 0.25040 0.02764 0.71479
 O394 O 0.29074 -0.02851 0.75382
 Cu395 Cu 0.23317 -0.00088 0.77218
 Cu396 Cu 0.27366 -0.00042 0.73116
 C397 C 0.28062 -0.03844 0.77732
 C398 C 0.22686 0.03713 0.72534
 C399 C 0.22668 -0.03860 0.72564
 C400 C 0.27942 0.03741 0.77827
 O401 O 0.25245 0.21196 0.97337
 O402 O 0.21136 0.25066 1.02971
 O403 O 0.21184 0.25067 0.97313
 O404 O 0.25135 0.21129 1.02988
 O405 O 0.28493 0.24537 1.03068
 O406 O 0.24532 0.28484 0.97399
 O407 O 0.24493 0.28475 1.03054
 O408 O 0.28593 0.24613 0.97408
 Cu409 Cu 0.22838 0.22770 1.00146
 Cu410 Cu 0.26865 0.26872 1.00240
 C411 C 0.27597 0.22267 0.96395
 C412 C 0.22136 0.27410 1.03988
 C413 C 0.22208 0.27429 0.96373
 C414 C 0.27463 0.22177 1.04009
 O415 O 0.24785 0.78341 0.47374
 O416 O 0.28855 0.74490 0.53010
 O417 O 0.28792 0.74419 0.47354
 O418 O 0.24818 0.78377 0.53007
 O419 O 0.21449 0.74979 0.53076
 O420 O 0.25426 0.71018 0.47424
 O421 O 0.25490 0.71088 0.53076
 O422 O 0.21418 0.74941 0.47429
 Cu423 Cu 0.27153 0.76750 0.50180
 Cu424 Cu 0.23109 0.72659 0.50257
 C425 C 0.22429 0.77286 0.46431
 C426 C 0.27841 0.72154 0.54022
 C427 C 0.27758 0.72062 0.46408
 C428 C 0.22478 0.77341 0.54014
 O429 O 0.21238 0.75067 -0.02937
 O430 O 0.25168 0.78977 0.02774
 O431 O 0.25330 0.78919 -0.02883
 O432 O 0.21327 0.74890 0.02712
 O433 O 0.24737 0.71534 0.02696
 O434 O 0.28712 0.75536 -0.02894
 O435 O 0.28570 0.75613 0.02753
 O436 O 0.24625 0.71688 -0.02937
 Cu437 Cu 0.22923 0.77305 -0.00084
 Cu438 Cu 0.27005 0.73256 -0.00102
 C439 C 0.22274 0.72726 -0.03915
 C440 C 0.27512 0.77940 0.03754
 C441 C 0.27690 0.77886 -0.03855
 C442 C 0.22376 0.72544 0.03672
 O443 O 0.21322 0.24555 0.47441
 O444 O 0.25341 0.28617 0.52992
 O445 O 0.25166 0.28637 0.47340
 O446 O 0.21348 0.24673 0.53090
 O447 O 0.24774 0.21334 0.53042
 O448 O 0.28607 0.25314 0.47291
 O449 O 0.28771 0.25282 0.52954
 O450 O 0.24763 0.21231 0.47390
 Cu451 Cu 0.22949 0.26956 0.50221
 Cu452 Cu 0.27077 0.22957 0.50167
 C453 C 0.22379 0.22222 0.46453
 C454 C 0.27721 0.27617 0.53937
 C455 C 0.27511 0.27632 0.46316
 C456 C 0.22423 0.22346 0.54055
 O457 O 0.74697 0.78823 0.97159
 O458 O 0.78591 0.74808 1.02802
 O459 O 0.78647 0.74846 0.97157
 O460 O 0.74610 0.78759 1.02813
 O461 O 0.71217 0.75386 1.02711
 O462 O 0.75253 0.71473 0.97068
 O463 O 0.75202 0.71431 1.02717
 O464 O 0.71303 0.75451 0.97052
 Cu465 Cu 0.76977 0.77150 0.99991
 Cu466 Cu 0.72899 0.73097 0.99881
 C467 C 0.72365 0.77802 0.96123
 C468 C 0.77544 0.72453 1.03733
 C469 C 0.77620 0.72515 0.96136
 C470 C 0.72242 0.77713 1.03741
 O471 O 0.74490 0.28869 0.46926
 O472 O 0.78562 0.24974 0.52540
 O473 O 0.78479 0.24915 0.46890
 O474 O 0.74671 0.29006 0.52586
 O475 O 0.71245 0.25667 0.52692
 O476 O 0.75066 0.21565 0.47034
 O477 O 0.75136 0.21635 0.52679
 O478 O 0.71080 0.25514 0.47035
 Cu479 Cu 0.76893 0.27281 0.49719
 Cu480 Cu 0.72785 0.23261 0.49872
 C481 C 0.72116 0.27832 0.46003
 C482 C 0.77521 0.22662 0.53584
 C483 C 0.77406 0.22558 0.45986
 C484 C 0.72333 0.28006 0.53630
 O485 O 0.78483 0.25514 -0.02873
 O486 O 0.74542 0.21491 0.02757
 O487 O 0.74579 0.21498 -0.02891
 O488 O 0.78429 0.25535 0.02771
 O489 O 0.74988 0.28861 0.02775
 O490 O 0.71134 0.24818 -0.02909
 O491 O 0.71099 0.24812 0.02745
 O492 O 0.75048 0.28844 -0.02881
 Cu493 Cu 0.76856 0.23176 -0.00055
 Cu494 Cu 0.72718 0.27168 -0.00070
 C495 C 0.77420 0.27843 -0.03851
 C496 C 0.72166 0.22485 0.03723
 C497 C 0.72219 0.22493 -0.03882
 C498 C 0.77352 0.27860 0.03752
 O499 O 0.75402 0.78803 0.52765
 O500 O 0.71417 0.74753 0.47168
 O501 O 0.71448 0.74818 0.52819
 O502 O 0.75280 0.78815 0.47115
 O503 O 0.78718 0.75488 0.47062
 O504 O 0.74892 0.71496 0.52797
 O505 O 0.74856 0.71427 0.47147
 O506 O 0.78844 0.75480 0.52711
 Cu507 Cu 0.73038 0.77132 0.49973
 Cu508 Cu 0.77175 0.73138 0.49927
 C509 C 0.77788 0.77810 0.53701
 C510 C 0.72481 0.72419 0.46190
 C511 C 0.72531 0.72499 0.53795
 C512 C 0.77628 0.77812 0.46097
 O513 O 1.02599 0.28217 0.24887
 O514 O 0.96881 0.24307 0.28824
 O515 O 1.02547 0.24252 0.28845
 O516 O 0.96955 0.28308 0.24916
 O517 O 0.96939 0.24954 0.21503
 O518 O 1.02546 0.20894 0.25438
 O519 O 0.96876 0.20947 0.25419
 O520 O 1.02589 0.24855 0.21482
 Cu521 Cu 0.99752 0.26606 0.27216
 Cu522 Cu 0.99732 0.22570 0.23119
 C523 C 1.03573 0.27191 0.22530
 C524 C 0.95884 0.21981 0.27764
 C525 C 1.03520 0.21912 0.27795
 C526 C 0.95986 0.27304 0.22552
 O527 O 0.47281 0.24721 0.78616
 O528 O 0.52920 0.28624 0.74604
 O529 O 0.47272 0.28563 0.74541
 O530 O 0.52933 0.24605 0.78493
 O531 O 0.52889 0.21218 0.75114
 O532 O 0.47241 0.25176 0.71162
 O533 O 0.52909 0.25244 0.71218
 O534 O 0.47227 0.21329 0.75243
 Cu535 Cu 0.50103 0.26970 0.76903
 Cu536 Cu 0.50062 0.22898 0.72844
 C537 C 0.46278 0.22382 0.77601
 C538 C 0.53893 0.27589 0.72255
 C539 C 0.46282 0.27526 0.72196
 C540 C 0.53890 0.22253 0.77451
 O541 O 0.02880 0.25185 0.78813
 O542 O -0.02816 0.21311 0.74783
 O543 O 0.02854 0.21340 0.74726
 O544 O -0.02788 0.25263 0.78769
 O545 O -0.02769 0.28673 0.75425
 O546 O 0.02899 0.24769 0.71402
 O547 O -0.02765 0.24724 0.71442
 O548 O 0.02891 0.28610 0.75485
 Cu549 Cu 0.00030 0.22928 0.77108
 Cu550 Cu 0.00065 0.27039 0.73103
 C551 C 0.03868 0.27539 0.77815
 C552 C -0.03773 0.22379 0.72445
 C553 C 0.03858 0.22407 0.72402
 C554 C -0.03756 0.27620 0.77760
 O555 O 0.46927 0.28533 0.25254
 O556 O 0.52609 0.24583 0.21291
 O557 O 0.46941 0.24588 0.21276
 O558 O 0.52590 0.28529 0.25283
 O559 O 0.52604 0.25149 0.28658
 O560 O 0.46941 0.21218 0.24661
 O561 O 0.52600 0.21204 0.24666
 O562 O 0.46938 0.25166 0.28642
 Cu563 Cu 0.49771 0.26900 0.22936
 Cu564 Cu 0.49770 0.22843 0.26997
 C565 C 0.45948 0.27501 0.27602
 C566 C 0.53584 0.22238 0.22321
 C567 C 0.45960 0.22249 0.22314
 C568 C 0.53574 0.27496 0.27627
 O569 O 0.97482 0.75519 0.71096
 O570 O 1.03086 0.71512 0.75100
 O571 O 0.97425 0.71473 0.74974
 O572 O 1.03159 0.75461 0.71123
 O573 O 1.03118 0.78811 0.74538
 O574 O 0.97406 0.74818 0.78393
 O575 O 1.03062 0.74869 0.78509
 O576 O 0.97458 0.78863 0.74517
 Cu577 Cu 1.00292 0.73156 0.72726
 Cu578 Cu 1.00255 0.77178 0.76832
 C579 C 0.96498 0.77855 0.72150
 C580 C 1.04042 0.72528 0.77468
 C581 C 0.96430 0.72486 0.77326
 C582 C 1.04132 0.77792 0.72196
 O583 O 0.52669 0.71248 0.25584
 O584 O 0.46975 0.75232 0.21713
 O585 O 0.52615 0.75206 0.21636
 O586 O 0.47008 0.71207 0.25603
 O587 O 0.46998 0.74555 0.29020
 O588 O 0.52651 0.78559 0.25049
 O589 O 0.46988 0.78586 0.25124
 O590 O 0.52671 0.74591 0.29006
 Cu591 Cu 0.49813 0.72884 0.23292
 Cu592 Cu 0.49828 0.76909 0.27399
 C593 C 0.53659 0.72267 0.27935
 C594 C 0.46005 0.77571 0.22771
 C595 C 0.53603 0.77541 0.22678
 C596 C 0.46027 0.72216 0.27961
 O597 O 0.02754 0.75215 0.28791
 O598 O -0.02885 0.71339 0.24707
 O599 O 0.02775 0.71209 0.24861
 O600 O -0.02909 0.75289 0.28691
 O601 O -0.02791 0.78654 0.25303
 O602 O 0.02886 0.74583 0.21480
 O603 O -0.02761 0.74711 0.21327
 O604 O 0.02874 0.78587 0.25411
 Cu605 Cu -0.00080 0.72924 0.27106
 Cu606 Cu 0.00069 0.76974 0.23040
 C607 C 0.03789 0.77542 0.27776
 C608 C -0.03798 0.72385 0.22340
 C609 C 0.03808 0.72224 0.22529
 C610 C -0.03837 0.77639 0.27629
 O611 O 0.47475 0.78782 0.75471
 O612 O 0.53137 0.74795 0.71507
 O613 O 0.47474 0.74780 0.71543
 O614 O 0.53143 0.78843 0.75388
 O615 O 0.53216 0.75519 0.78817
 O616 O 0.47505 0.71466 0.74982
 O617 O 0.53172 0.71468 0.74933
 O618 O 0.47543 0.75470 0.78912
 Cu619 Cu 0.50302 0.77135 0.73132
 Cu620 Cu 0.50365 0.73147 0.77258
 C621 C 0.46529 0.77781 0.77848
 C622 C 0.54131 0.72469 0.72564
 C623 C 0.46506 0.72455 0.72624
 C624 C 0.54166 0.77853 0.77732
 C625 C 0.43624 0.30172 0.32236
 C626 C 0.42063 0.32950 0.31201
 C627 C 0.39121 0.31493 0.31787
 C628 C 0.40652 0.28731 0.32841
 C629 C 0.39035 0.30316 0.28671
 C630 C 0.42001 0.31757 0.28068
 C631 C 0.43525 0.29001 0.29125
 C632 C 0.40588 0.27545 0.29708
 H633 H 0.45542 0.30102 0.33684
 H634 H 0.42649 0.35188 0.31833
 H635 H 0.40133 0.27449 0.34800
 H636 H 0.37124 0.30380 0.27214
 H637 H 0.42574 0.32994 0.26093
 H638 H 0.40002 0.25307 0.29071
 C639 C 0.41181 0.77828 0.79979
 C640 C 0.41256 0.79024 0.83109
 C641 C 0.39715 0.81780 0.82049
 C642 C 0.39617 0.80591 0.78937
 C643 C 0.42652 0.83242 0.81446
 C644 C 0.44223 0.80469 0.82483
 C645 C 0.44112 0.79288 0.79376
 C646 C 0.42578 0.82037 0.78317
 H647 H 0.40597 0.75587 0.79351
 H648 H 0.40765 0.77736 0.85072
 H649 H 0.37701 0.80642 0.77484
 H650 H 0.43242 0.85483 0.82066
 H651 H 0.46148 0.80410 0.83922
 H652 H 0.43139 0.83267 0.76334
 C653 C -0.09130 0.27722 0.79846
 C654 C -0.09064 0.28865 0.82995
 C655 C -0.10532 0.31671 0.81968
 C656 C -0.10619 0.30537 0.78836
 C657 C -0.07558 0.33077 0.81422
 C658 C -0.06059 0.30255 0.82429
 C659 C -0.06161 0.29129 0.79301
 C660 C -0.07623 0.31928 0.78273
 H661 H -0.09754 0.25505 0.79173
 H662 H -0.09627 0.27573 0.84936
 H663 H -0.12519 0.30658 0.77367
 H664 H -0.06932 0.35295 0.82088
 H665 H -0.04153 0.30128 0.83888
 H666 H -0.07014 0.33181 0.76318
 C667 C -0.09222 0.77742 0.29645
 C668 C -0.09193 0.78943 0.32771
 C669 C -0.10693 0.81709 0.31682
 C670 C -0.10743 0.80515 0.28571
 C671 C -0.07735 0.83146 0.31130
 C672 C -0.06206 0.80364 0.32202
 C673 C -0.06268 0.79176 0.29097
 C674 C -0.07759 0.81935 0.28002
 H675 H -0.09813 0.75504 0.29012
 H676 H -0.09740 0.77668 0.34727
 H677 H -0.12633 0.80583 0.27086
 H678 H -0.07146 0.85384 0.31758
 H679 H -0.04309 0.80290 0.33677
 H680 H -0.07149 0.83156 0.26028
 C681 C 0.56027 0.69598 0.32531
 C682 C 0.57588 0.66824 0.31472
 C683 C 0.60530 0.68293 0.32028
 C684 C 0.58998 0.71050 0.33106
 C685 C 0.60583 0.69468 0.28914
 C686 C 0.57618 0.68015 0.28341
 C687 C 0.56094 0.70766 0.29422
 C688 C 0.59031 0.72233 0.29976
 H689 H 0.54121 0.69661 0.34000
 H690 H 0.57018 0.64584 0.32105
 H691 H 0.59527 0.72337 0.35063
 H692 H 0.62482 0.69409 0.27436
 H693 H 0.57031 0.66776 0.26368
 H694 H 0.59602 0.74473 0.29337
 C695 C 0.59245 0.20160 0.77490
 C696 C 0.60774 0.21159 0.80295
 C697 C 0.60682 0.18034 0.81420
 C698 C 0.59175 0.17018 0.78624
 C699 C 0.57729 0.18593 0.82871
 C700 C 0.57800 0.21735 0.81731
 C701 C 0.56298 0.20717 0.78942
 C702 C 0.56191 0.17596 0.80059
 H703 H 0.59846 0.20830 0.75262
 H704 H 0.62685 0.22614 0.80397
 H705 H 0.59710 0.15079 0.77316
 H706 H 0.57128 0.17928 0.85100
 H707 H 0.57216 0.23687 0.83000
 H708 H 0.54273 0.16151 0.79952
 C709 C 1.09371 0.70360 0.77589
 C710 C 1.10894 0.71355 0.80402
 C711 C 1.10733 0.68241 0.81553
 C712 C 1.09230 0.67232 0.78749
 C713 C 1.07777 0.68865 0.82970
 C714 C 1.07913 0.71996 0.81802
 C715 C 1.06420 0.70980 0.79004
 C716 C 1.06247 0.67874 0.80151
 H717 H 1.10007 0.70998 0.75362
 H718 H 1.12829 0.72777 0.80511
 H719 H 1.09727 0.65279 0.77447
 H720 H 1.07142 0.68233 0.85199
 H721 H 1.07352 0.73970 0.83048
 H722 H 1.04306 0.66460 0.80037
 C723 C 1.05779 0.19289 0.32451
 C724 C 1.07379 0.16503 0.31485
 C725 C 1.10298 0.17997 0.32091
 C726 C 1.08725 0.20767 0.33073
 C727 C 1.10428 0.19112 0.28957
 C728 C 1.07481 0.17638 0.28332
 C729 C 1.05921 0.20402 0.29325
 C730 C 1.08838 0.21890 0.29926
 H731 H 1.03836 0.19371 0.33870
 H732 H 1.06801 0.14273 0.32146
 H733 H 1.09178 0.22107 0.35013
 H734 H 1.12365 0.19035 0.27530
 H735 H 1.06947 0.16363 0.26368
 H736 H 1.09418 0.24119 0.29262
 C737 C 0.59224 0.29713 0.72228
 C738 C 0.60791 0.28783 0.69417
 C739 C 0.60658 0.31926 0.68343
 C740 C 0.59111 0.32870 0.71146
 C741 C 0.57725 0.31341 0.66865
 C742 C 0.57833 0.28181 0.67956
 C743 C 0.56296 0.29132 0.70753
 C744 C 0.56151 0.32268 0.69684
 H745 H 0.59821 0.29018 0.74448
 H746 H 0.62726 0.27362 0.69303
 H747 H 0.59592 0.34791 0.72499
 H748 H 0.57130 0.32032 0.64644
 H749 H 0.57287 0.26239 0.66655
 H750 H 0.54210 0.33681 0.69801
 C751 C 0.55777 0.80162 0.17982
 C752 C 0.57377 0.82959 0.18914
 C753 C 0.60293 0.81481 0.18249
 C754 C 0.58720 0.78700 0.17297
 C755 C 0.60489 0.80368 0.21382
 C756 C 0.57545 0.81826 0.22065
 C757 C 0.55982 0.79052 0.21106
 C758 C 0.58894 0.77580 0.20444
 H759 H 0.53808 0.80069 0.16605
 H760 H 0.56768 0.85184 0.18265
 H761 H 0.59136 0.77356 0.15351
 H762 H 0.62449 0.80453 0.22772
 H763 H 0.57040 0.83099 0.24040
 H764 H 0.59499 0.75355 0.21101
 C765 C 1.08896 0.29373 0.22449
 C766 C 1.10456 0.28385 0.19651
 C767 C 1.10286 0.31496 0.18495
 C768 C 1.08747 0.32501 0.21287
 C769 C 1.07349 0.30851 0.17051
 C770 C 1.07493 0.27722 0.18225
 C771 C 1.05965 0.28732 0.21009
 C772 C 1.05784 0.31836 0.19858
 H773 H 1.09511 0.28741 0.24683
 H774 H 1.12400 0.26972 0.19563
 H775 H 1.09195 0.34451 0.22610
 H776 H 1.06729 0.31477 0.14817
 H777 H 1.06957 0.25743 0.16979
 H778 H 1.03832 0.33235 0.19953
 C779 C 1.08149 0.78319 0.67980
 C780 C 1.08093 0.81465 0.66843
 C781 C 1.11008 0.82034 0.68363
 C782 C 1.11089 0.78906 0.69482
 C783 C 1.09424 0.83036 0.71129
 C784 C 1.06481 0.82445 0.69626
 C785 C 1.06574 0.79323 0.70739
 C786 C 1.09484 0.79891 0.72255
 H787 H 1.07604 0.76366 0.66694
 H788 H 1.07537 0.82130 0.64604
 H789 H 1.13006 0.77457 0.69422
 H790 H 1.09888 0.84964 0.72479
 H791 H 1.04555 0.83881 0.69693
 H792 H 1.10035 0.79219 0.74494
 C793 C 0.41146 0.72354 0.70536
 C794 C 0.41232 0.71166 0.67405
 C795 C 0.39710 0.68396 0.68455
 C796 C 0.39605 0.69574 0.71572
 C797 C 0.42658 0.66957 0.69050
 C798 C 0.44208 0.69744 0.68017
 C799 C 0.44090 0.70917 0.71127
 C800 C 0.42578 0.68153 0.72183
 H801 H 0.40544 0.74588 0.71170
 H802 H 0.40718 0.72447 0.65444
 H803 H 0.37687 0.69500 0.73024
 H804 H 0.43260 0.64722 0.68421
 H805 H 0.46131 0.69822 0.66572
 H806 H 0.43150 0.66922 0.74162
 C807 C 0.41984 0.21703 0.18047
 C808 C 0.42074 0.18553 0.16911
 C809 C 0.39153 0.17962 0.18413
 C810 C 0.39036 0.21093 0.19530
 C811 C 0.40726 0.16989 0.21188
 C812 C 0.43673 0.17596 0.19701
 C813 C 0.43544 0.20719 0.20816
 C814 C 0.40627 0.20133 0.22312
 H815 H 0.42524 0.23656 0.16766
 H816 H 0.42647 0.17885 0.14674
 H817 H 0.37105 0.22521 0.19455
 H818 H 0.40269 0.15061 0.22535
 H819 H 0.45610 0.16176 0.19780
 H820 H 0.40051 0.20805 0.24548
 C821 C -0.07724 0.68133 0.21754
 C822 C -0.10683 0.69572 0.21133
 C823 C -0.10546 0.68441 0.18001
 C824 C -0.07608 0.66987 0.18605
 C825 C -0.09010 0.71223 0.17008
 C826 C -0.09126 0.72364 0.20157
 C827 C -0.06194 0.70909 0.20759
 C828 C -0.06041 0.69785 0.17632
 H829 H -0.07178 0.66869 0.23718
 H830 H -0.12618 0.69480 0.22563
 H831 H -0.07004 0.64760 0.17948
 H832 H -0.09509 0.72524 0.15056
 H833 H -0.09728 0.74590 0.20820
 H834 H -0.04100 0.69883 0.16212
 C835 C -0.07780 0.18152 0.71814
 C836 C -0.10713 0.19657 0.71193
 C837 C -0.10570 0.18579 0.68042
 C838 C -0.07666 0.17055 0.68644
 C839 C -0.08965 0.21351 0.67112
 C840 C -0.09089 0.22435 0.70278
 C841 C -0.06189 0.20917 0.70875
 C842 C -0.06036 0.19841 0.67733
 H843 H -0.07271 0.16848 0.73762
 H844 H -0.12657 0.19581 0.72610
 H845 H -0.07096 0.14828 0.67954
 H846 H -0.09376 0.22732 0.65196
 H847 H -0.09655 0.24660 0.70974
 H848 H -0.04083 0.19923 0.66328
 C849 C 0.29402 0.40653 0.27466
 C850 C 0.32544 0.40734 0.28637
 C851 C 0.31493 0.39258 0.31437
 C852 C 0.28367 0.39157 0.30275
 C853 C 0.30918 0.42215 0.32851
 C854 C 0.31950 0.43718 0.30035
 C855 C 0.28830 0.43604 0.28879
 C856 C 0.27775 0.42137 0.31673
 H857 H 0.28756 0.40030 0.25236
 H858 H 0.34501 0.40197 0.27346
 H859 H 0.26902 0.37258 0.30380
 H860 H 0.31558 0.42838 0.35082
 H861 H 0.33408 0.45623 0.29927
 H862 H 0.25801 0.42733 0.32914
 C863 C 0.32752 -0.06094 0.80356
 C864 C 0.31750 -0.07652 0.83153
 C865 C 0.32356 -0.10578 0.81688
 C866 C 0.33381 -0.09050 0.78907
 C867 C 0.29226 -0.10703 0.80538
 C868 C 0.28604 -0.07755 0.81988
 C869 C 0.29627 -0.06233 0.79214
 C870 C 0.30233 -0.09152 0.77749
 H871 H 0.34180 -0.04166 0.80271
 H872 H 0.32393 -0.07052 0.85390
 H873 H 0.35338 -0.09535 0.77595
 H874 H 0.27783 -0.12621 0.80613
 H875 H 0.26627 -0.07204 0.83245
 H876 H 0.29582 -0.09746 0.75513
 C877 C 0.82623 0.43961 0.80339
 C878 C 0.81539 0.42425 0.83120
 C879 C 0.82100 0.39485 0.81665
 C880 C 0.83207 0.40991 0.78901
 C881 C 0.78990 0.39432 0.80461
 C882 C 0.78411 0.42396 0.81899
 C883 C 0.79518 0.43895 0.79142
 C884 C 0.80078 0.40960 0.77690
 H885 H 0.84098 0.45854 0.80279
 H886 H 0.82154 0.43011 0.85368
 H887 H 0.85171 0.40471 0.77614
 H888 H 0.77500 0.37548 0.80513
 H889 H 0.76426 0.42992 0.83123
 H890 H 0.79455 0.40379 0.75443
 C891 C 0.82004 -0.06250 0.29913
 C892 C 0.81018 -0.07779 0.32732
 C893 C 0.81660 -0.10719 0.31309
 C894 C 0.82668 -0.09218 0.28507
 C895 C 0.78532 -0.10897 0.30159
 C896 C 0.77873 -0.07933 0.31564
 C897 C 0.78882 -0.06439 0.28769
 C898 C 0.79522 -0.09372 0.27348
 H899 H 0.83411 -0.04309 0.29803
 H900 H 0.81651 -0.07139 0.34960
 H901 H 0.84630 -0.09692 0.27199
 H902 H 0.77111 -0.12830 0.30261
 H903 H 0.75889 -0.07386 0.32811
 H904 H 0.78882 -0.10007 0.25120
 C905 C 0.28333 0.57782 0.68301
 C906 C 0.28934 0.60727 0.69765
 C907 C 0.32089 0.60595 0.68680
 C908 C 0.31504 0.57672 0.67202
 C909 C 0.33043 0.59063 0.71478
 C910 C 0.29871 0.59173 0.72573
 C911 C 0.29288 0.56256 0.71093
 C912 C 0.32438 0.56110 0.70016
 H913 H 0.26383 0.57238 0.67003
 H914 H 0.27504 0.62652 0.69658
 H915 H 0.32198 0.57075 0.64979
 H916 H 0.34978 0.59565 0.72811
 H917 H 0.29172 0.59768 0.74795
 H918 H 0.33858 0.54178 0.70128
 C919 C 0.27711 1.07578 0.18115
 C920 C 0.28357 1.10512 0.19591
 C921 C 0.31492 1.10368 0.18449
 C922 C 0.30863 1.07463 0.16953
 C923 C 0.32485 1.08800 0.21218
 C924 C 0.29336 1.08924 0.22367
 C925 C 0.28711 1.06023 0.20877
 C926 C 0.31837 1.05868 0.19738
 H927 H 0.25733 1.07054 0.16851
 H928 H 0.26934 1.12444 0.19530
 H929 H 0.31511 1.06878 0.14712
 H930 H 0.34434 1.09231 0.22558
 H931 H 0.28683 1.09504 0.24608
 H932 H 0.33247 1.03928 0.19807
 C933 C 0.82378 0.56112 0.19547
 C934 C 0.81355 0.57657 0.16753
 C935 C 0.81933 0.60591 0.18211
 C936 C 0.82976 0.59076 0.20989
 C937 C 0.78805 0.60682 0.19374
 C938 C 0.78210 0.57726 0.17931
 C939 C 0.79256 0.56218 0.20703
 C940 C 0.79832 0.59147 0.22160
 H941 H 0.83828 0.54201 0.19630
 H942 H 0.82000 0.57067 0.14514
 H943 H 0.84933 0.59595 0.22283
 H944 H 0.77346 0.62586 0.19297
 H945 H 0.76237 0.57152 0.16683
 H946 H 0.79182 0.59738 0.24398
 C947 C 0.82279 1.08250 0.71583
 C948 C 0.83430 1.08205 0.68429
 C949 C 0.81909 1.11111 0.67871
 C950 C 0.80778 1.11183 0.71007
 C951 C 0.79140 1.09538 0.66859
 C952 C 0.80645 1.06605 0.67437
 C953 C 0.79518 1.06687 0.70566
 C954 C 0.78003 1.09589 0.70010
 H955 H 0.83561 1.07700 0.73538
 H956 H 0.85676 1.07652 0.67762
 H957 H 0.80833 1.13086 0.72470
 H958 H 0.77789 1.10000 0.64930
 H959 H 0.80583 1.04693 0.65987
 H960 H 0.75757 1.10138 0.70684
 C961 C 0.67782 0.56112 0.30195
 C962 C 0.68808 0.57634 0.33005
 C963 C 0.68203 0.60580 0.31592
 C964 C 0.67159 0.59086 0.28797
 C965 C 0.71325 0.60705 0.30416
 C966 C 0.71947 0.57736 0.31814
 C967 C 0.70899 0.56250 0.29025
 C968 C 0.70297 0.59190 0.27612
 H969 H 0.66343 0.54193 0.30093
 H970 H 0.68178 0.57014 0.35239
 H971 H 0.65192 0.59605 0.27518
 H972 H 0.72773 0.62618 0.30512
 H973 H 0.73930 0.57164 0.33046
 H974 H 0.70933 0.59810 0.25379
 C975 C 0.72609 1.09461 0.79588
 C976 C 0.69786 1.10966 0.78591
 C977 C 0.68619 1.10787 0.81709
 C978 C 0.71433 1.09306 0.82724
 C979 C 0.67219 1.07838 0.81066
 C980 C 0.68403 1.07993 0.77931
 C981 C 0.71210 1.06518 0.78946
 C982 C 0.70050 1.06328 0.82059
 H983 H 0.74839 1.10107 0.78954
 H984 H 0.69676 1.12895 0.77171
 H985 H 0.72729 1.09795 0.84686
 H986 H 0.64989 1.07186 0.81692
 H987 H 0.67167 1.07435 0.75947
 H988 H 0.70169 1.04390 0.83464
 C989 C 0.22261 0.59135 0.79808
 C990 C 0.19508 0.60737 0.78777
 C991 C 0.18317 0.60634 0.81888
 C992 C 0.21064 0.59052 0.82935
 C993 C 0.16803 0.57737 0.81267
 C994 C 0.18014 0.57813 0.78137
 C995 C 0.20753 0.56242 0.79189
 C996 C 0.19567 0.56127 0.82293
 H997 H 0.24520 0.59687 0.79183
 H998 H 0.19482 0.62655 0.77338
 H999 H 0.22380 0.59491 0.84896
 H1000 H 0.14544 0.57181 0.81885
 H1001 H 0.16772 0.57280 0.76150
 H1002 H 0.19602 0.54199 0.83716
 C1003 C 0.21950 1.08959 0.29877
 C1004 C 0.19140 1.10523 0.28945
 C1005 C 0.18057 1.10403 0.32097
 C1006 C 0.20859 1.08859 0.33043
 C1007 C 0.16568 1.07483 0.31518
 C1008 C 0.17668 1.07578 0.28349
 C1009 C 0.20464 1.06044 0.29301
 C1010 C 0.19386 1.05912 0.32446
 H1011 H 0.24177 1.09547 0.29177
 H1012 H 0.19035 1.12444 0.27516
 H1013 H 0.22211 1.09345 0.34967
 H1014 H 0.14340 1.06897 0.32213
 H1015 H 0.16364 1.07033 0.26405
 H1016 H 0.19495 1.03985 0.33868
 C1017 C 0.68135 0.44076 0.69651
 C1018 C 0.69082 0.42499 0.66841
 C1019 C 0.68466 0.39582 0.68313
 C1020 C 0.67504 0.41134 0.71108
 C1021 C 0.71611 0.39435 0.69418
 C1022 C 0.72245 0.42378 0.67965
 C1023 C 0.71272 0.43917 0.70754
 C1024 C 0.70662 0.41004 0.72221
 H1025 H 0.66722 0.46013 0.69756
 H1026 H 0.68413 0.43095 0.64613
 H1027 H 0.65563 0.40679 0.72454
 H1028 H 0.73032 0.37502 0.69317
 H1029 H 0.74210 0.42911 0.66682
 H1030 H 0.71335 0.40407 0.74448
 C1031 C 0.69893 -0.09407 0.22025
 C1032 C 0.66730 -0.09330 0.20916
 C1033 C 0.67711 -0.10920 0.18149
 C1034 C 0.70859 -0.11018 0.19250
 C1035 C 0.68292 -0.08026 0.16619
 C1036 C 0.67332 -0.06409 0.19403
 C1037 C 0.70473 -0.06517 0.20502
 C1038 C 0.71459 -0.08095 0.17741
 H1039 H 0.70577 -0.09955 0.24261
 H1040 H 0.64800 -0.09770 0.22281
 H1041 H 0.72302 -0.12935 0.19188
 H1042 H 0.67615 -0.07475 0.14382
 H1043 H 0.65902 -0.04482 0.19473
 H1044 H 0.73417 -0.07566 0.16446
 C1045 C 0.17443 0.43732 0.19433
 C1046 C 0.18402 0.42086 0.16666
 C1047 C 0.17820 0.39207 0.18223
 C1048 C 0.16845 0.40827 0.20974
 C1049 C 0.20968 0.39123 0.19324
 C1050 C 0.21569 0.42029 0.17786
 C1051 C 0.20582 0.43635 0.20532
 C1052 C 0.20006 0.40759 0.22082
 H1053 H 0.16011 0.45658 0.19485
 H1054 H 0.17722 0.42609 0.14423
 H1055 H 0.14914 0.40393 0.22339
 H1056 H 0.22408 0.37202 0.19276
 H1057 H 0.23526 0.42547 0.16486
 H1058 H 0.20689 0.40231 0.24324
 C1059 C 0.19989 -0.06097 0.67917
 C1060 C 0.21442 -0.09042 0.67264
 C1061 C 0.18659 -0.10586 0.68285
 C1062 C 0.17191 -0.07668 0.68917
 C1063 C 0.19824 -0.10727 0.71403
 C1064 C 0.22613 -0.09162 0.70398
 C1065 C 0.21150 -0.06249 0.71027
 C1066 C 0.18375 -0.07782 0.72052
 H1067 H 0.20067 -0.04162 0.66504
 H1068 H 0.22766 -0.09488 0.65308
 H1069 H 0.14946 -0.07071 0.68290
 H1070 H 0.19754 -0.12653 0.72829
 H1071 H 0.24858 -0.09754 0.71032
 H1072 H 0.17126 -0.07242 0.74036
 C1073 C 0.31722 0.28154 0.42312
 C1074 C 0.30224 0.28678 0.39366
 C1075 C 0.31323 0.31817 0.39400
 C1076 C 0.32835 0.31309 0.42324
 C1077 C 0.28541 0.32820 0.40952
 C1078 C 0.27432 0.29665 0.40940
 C1079 C 0.28945 0.29159 0.43859
 C1080 C 0.30037 0.32293 0.43907
 H1081 H 0.33024 0.26224 0.42888
 H1082 H 0.30303 0.27200 0.37473
 H1083 H 0.35072 0.32004 0.42873
 H1084 H 0.27203 0.34738 0.40421
 H1085 H 0.25196 0.28964 0.40392
 H1086 H 0.29953 0.33762 0.45806
 C1087 C 0.32048 0.78347 -0.07688
 C1088 C 0.30681 0.78959 -0.10679
 C1089 C 0.31876 0.82060 -0.10551
 C1090 C 0.33259 0.81464 -0.07582
 C1091 C 0.29066 0.83125 -0.09087
 C1092 C 0.27862 0.80008 -0.09195
 C1093 C 0.29245 0.79415 -0.06231
 C1094 C 0.30433 0.82510 -0.06088
 H1095 H 0.33266 0.76367 -0.07095
 H1096 H 0.30790 0.77508 -0.12590
 H1097 H 0.35494 0.82079 -0.06940
 H1098 H 0.27799 0.85088 -0.09623
 H1099 H 0.25628 0.79387 -0.09836
 H1100 H 0.30318 0.83952 -0.04170
 C1101 C 0.81747 0.28354 -0.07715
 C1102 C 0.80354 0.28947 -0.10699
 C1103 C 0.81512 0.32063 -0.10583
 C1104 C 0.82918 0.31486 -0.07620
 C1105 C 0.78699 0.33097 -0.09106
 C1106 C 0.77532 0.29963 -0.09200
 C1107 C 0.78940 0.29389 -0.06243
 C1108 C 0.80089 0.32500 -0.06113
 H1109 H 0.82993 0.26391 -0.07128
 H1110 H 0.80469 0.27494 -0.12610
 H1111 H 0.85149 0.32130 -0.06990
 H1112 H 0.77413 0.35046 -0.09648
 H1113 H 0.75302 0.29314 -0.09829
 H1114 H 0.79970 0.33944 -0.04196
 C1115 C 0.81864 0.78358 0.42131
 C1116 C 0.80383 0.78885 0.39177
 C1117 C 0.81471 0.82027 0.39229
 C1118 C 0.82966 0.81516 0.42161
 C1119 C 0.78675 0.83016 0.40764
 C1120 C 0.77578 0.79857 0.40734
 C1121 C 0.79073 0.79348 0.43660
 C1122 C 0.80153 0.82486 0.43727
 H1123 H 0.83167 0.76429 0.42711
 H1124 H 0.80482 0.77413 0.37280
 H1125 H 0.85196 0.82218 0.42726
 H1126 H 0.77333 0.84931 0.40231
 H1127 H 0.75349 0.79149 0.40169
 H1128 H 0.80050 0.83947 0.45631
 C1129 C 0.71939 0.32288 0.57604
 C1130 C 0.68789 0.33454 0.57601
 C1131 C 0.68254 0.31970 0.60533
 C1132 C 0.71387 0.30824 0.60563
 C1133 C 0.67202 0.29208 0.58991
 C1134 C 0.67751 0.30676 0.56033
 C1135 C 0.70876 0.29532 0.56075
 C1136 C 0.70347 0.28054 0.59004
 H1137 H 0.73902 0.33545 0.57011
 H1138 H 0.68130 0.35691 0.57046
 H1139 H 0.72874 0.30889 0.62451
 H1140 H 0.65262 0.27888 0.59506
 H1141 H 0.66272 0.30607 0.54140
 H1142 H 0.71010 0.25819 0.59562
 C1143 C 0.70067 0.77673 1.09049
 C1144 C 0.71009 0.80450 1.10658
 C1145 C 0.67861 0.81547 1.10529
 C1146 C 0.66904 0.78778 1.08938
 C1147 C 0.68469 0.83057 1.07625
 C1148 C 0.71636 0.81943 1.07729
 C1149 C 0.70671 0.79179 1.06150
 C1150 C 0.67530 0.80273 1.06008
 H1151 H 0.70748 0.75445 1.09615
 H1152 H 0.72430 0.80527 1.12595
 H1153 H 0.64967 0.77430 1.09383
 H1154 H 0.67793 0.85286 1.07061
 H1155 H 0.73596 0.83234 1.07211
 H1156 H 0.66118 0.80192 1.04065
 C1157 C 0.19975 0.27437 1.09321
 C1158 C 0.20925 0.30248 1.10866
 C1159 C 0.17775 0.31338 1.10742
 C1160 C 0.16808 0.28537 1.09217
 C1161 C 0.18356 0.32789 1.07802
 C1162 C 0.21523 0.31683 1.07903
 C1163 C 0.20552 0.28887 1.06387
 C1164 C 0.17408 0.29972 1.06250
 H1165 H 0.20664 0.25222 1.09926
 H1166 H 0.22363 0.30367 1.12789
 H1167 H 0.14872 0.27205 1.09719
 H1168 H 0.17671 0.35005 1.07198
 H1169 H 0.23476 0.32969 1.07345
 H1170 H 0.15979 0.29849 1.04321
 C1171 C 0.22466 0.79547 0.59300
 C1172 C 0.21342 0.82687 0.59141
 C1173 C 0.18558 0.81742 0.60729
 C1174 C 0.19674 0.78615 0.60904
 C1175 C 0.17058 0.81091 0.57825
 C1176 C 0.19857 0.82020 0.56213
 C1177 C 0.20973 0.78902 0.56401
 C1178 C 0.18194 0.77945 0.57974
 H1179 H 0.24704 0.78888 0.59886
 H1180 H 0.22692 0.84626 0.59558
 H1181 H 0.19593 0.77226 0.62859
 H1182 H 0.14819 0.81746 0.57241
 H1183 H 0.19942 0.83400 0.54253
 H1184 H 0.16912 0.75979 0.57471
 C1185 C 0.27941 0.70129 0.59383
 C1186 C 0.29124 0.67005 0.59333
 C1187 C 0.31912 0.68070 0.60830
 C1188 C 0.30738 0.71180 0.60900
 C1189 C 0.33355 0.68621 0.57877
 C1190 C 0.30550 0.67573 0.56352
 C1191 C 0.29381 0.70677 0.56435
 C1192 C 0.32164 0.71748 0.57922
 H1193 H 0.25700 0.70772 0.59982
 H1194 H 0.27828 0.65058 0.59868
 H1195 H 0.30821 0.72654 0.62795
 H1196 H 0.35598 0.67983 0.57280
 H1197 H 0.30462 0.66108 0.54450
 H1198 H 0.33404 0.73713 0.57321
 C1199 C 0.30094 0.17524 1.06280
 C1200 C 0.32885 0.18505 1.07872
 C1201 C 0.31392 0.17898 1.10790
 C1202 C 0.28616 0.16899 1.09225
 C1203 C 0.30250 0.21018 1.10917
 C1204 C 0.31725 0.21643 1.07974
 C1205 C 0.28955 0.20638 1.06419
 C1206 C 0.27465 0.20034 1.09333
 H1207 H 0.30021 0.16105 1.04343
 H1208 H 0.35129 0.17858 1.07292
 H1209 H 0.27295 0.14953 1.09695
 H1210 H 0.30319 0.22445 1.12849
 H1211 H 0.32995 0.23608 1.07440
 H1212 H 0.25222 0.20686 1.09914
 C1213 C 0.80221 0.67796 1.05964
 C1214 C 0.83026 0.68811 1.07510
 C1215 C 0.81589 0.68190 1.10452
 C1216 C 0.78800 0.67155 1.08935
 C1217 C 0.80410 0.71296 1.10596
 C1218 C 0.81832 0.71934 1.07632
 C1219 C 0.79049 0.70897 1.06122
 C1220 C 0.77612 0.70278 1.09058
 H1221 H 0.80132 0.66376 1.04029
 H1222 H 0.85269 0.68191 1.06895
 H1223 H 0.77517 0.65192 1.09436
 H1224 H 0.80494 0.72726 1.12525
 H1225 H 0.83072 0.73913 1.07080
 H1226 H 0.75370 0.70905 1.09673
 C1227 C 0.79716 0.22668 0.58889
 C1228 C 0.78736 0.19896 0.60477
 C1229 C 0.81868 0.18757 0.60333
 C1230 C 0.82864 0.21520 0.58764
 C1231 C 0.81240 0.17271 0.57417
 C1232 C 0.78090 0.18427 0.57539
 C1233 C 0.79091 0.21184 0.55980
 C1234 C 0.82217 0.20049 0.55821
 H1235 H 0.79065 0.24902 0.59475
 H1236 H 0.77314 0.19829 0.62416
 H1237 H 0.84823 0.22834 0.59223
 H1238 H 0.81885 0.15036 0.56832
 H1239 H 0.76112 0.17163 0.57015
 H1240 H 0.83630 0.20122 0.53876
 C1241 C 0.68151 0.71826 0.42330
 C1242 C 0.69566 0.71248 0.39348
 C1243 C 0.68473 0.68109 0.39466
 C1244 C 0.67043 0.68670 0.42426
 C1245 C 0.71300 0.67139 0.40949
 C1246 C 0.72402 0.70294 0.40851
 C1247 C 0.70972 0.70853 0.43805
 C1248 C 0.69887 0.67719 0.43938
 H1249 H 0.66864 0.73766 0.42915
 H1250 H 0.69429 0.72689 0.37435
 H1251 H 0.64824 0.67982 0.43053
 H1252 H 0.72628 0.65214 0.40411
 H1253 H 0.74620 0.70987 0.40224
 H1254 H 0.70029 0.66288 0.45857
 C1255 C 0.71861 0.18210 -0.07802
 C1256 C 0.68744 0.16967 -0.07755
 C1257 C 0.68158 0.18398 -0.10701
 C1258 C 0.71259 0.19626 -0.10771
 C1259 C 0.67040 0.21152 -0.09191
 C1260 C 0.67644 0.19737 -0.06216
 C1261 C 0.70739 0.20958 -0.06300
 C1262 C 0.70157 0.22388 -0.09240
 H1263 H 0.73858 0.17010 -0.07212
 H1264 H 0.68145 0.14721 -0.07168
 H1265 H 0.72736 0.19573 -0.12669
 H1266 H 0.65059 0.22401 -0.09722
 H1267 H 0.66176 0.19795 -0.04310
 H1268 H 0.70761 0.24632 -0.09829
 C1269 C 0.19615 0.68079 -0.06127
 C1270 C 0.16821 0.69036 -0.07727
 C1271 C 0.18310 0.68383 -0.10638
 C1272 C 0.21090 0.67410 -0.09062
 C1273 C 0.19454 0.71501 -0.10807
 C1274 C 0.17984 0.72173 -0.07868
 C1275 C 0.20757 0.71188 -0.06308
 C1276 C 0.22241 0.70541 -0.09215
 H1277 H 0.19691 0.66691 -0.04173
 H1278 H 0.14577 0.68398 -0.07136
 H1279 H 0.22428 0.65465 -0.09488
 H1280 H 0.19381 0.72897 -0.12757
 H1281 H 0.16720 0.74148 -0.07354
 H1282 H 0.24484 0.71183 -0.09808
 C1283 C 0.21854 0.17910 0.42550
 C1284 C 0.18718 0.16717 0.42699
 C1285 C 0.18058 0.18154 0.39772
 C1286 C 0.21176 0.19330 0.39598
 C1287 C 0.17039 0.20928 0.41317
 C1288 C 0.17716 0.19506 0.44270
 C1289 C 0.20827 0.20678 0.44083
 C1290 C 0.20171 0.22112 0.41161
 H1291 H 0.23849 0.16679 0.43078
 H1292 H 0.18102 0.14482 0.43311
 H1293 H 0.22589 0.19251 0.37652
 H1294 H 0.15066 0.22220 0.40862
 H1295 H 0.16312 0.19589 0.46221
 H1296 H 0.20791 0.24345 0.40547
 C1297 C 0.28134 0.42418 0.68059
 C1298 C 0.31290 0.42532 0.66914
 C1299 C 0.31891 0.39600 0.68354
 C1300 C 0.28752 0.39460 0.69482
 C1301 C 0.32883 0.41114 0.71157
 C1302 C 0.32265 0.44074 0.69732
 C1303 C 0.29134 0.43921 0.70855
 C1304 C 0.29730 0.40993 0.72292
 H1305 H 0.26166 0.42975 0.66798
 H1306 H 0.31952 0.43142 0.64686
 H1307 H 0.27319 0.37537 0.69373
 H1308 H 0.34829 0.40627 0.72478
 H1309 H 0.33689 0.46004 0.69847
 H1310 H 0.29063 0.40383 0.74519
 C1311 C 0.27814 0.92121 0.18115
 C1312 C 0.30986 0.92235 0.17009
 C1313 C 0.31580 0.89314 0.18479
 C1314 C 0.28426 0.89174 0.19567
 C1315 C 0.32530 0.90854 0.21281
 C1316 C 0.31919 0.93802 0.19827
 C1317 C 0.28772 0.93651 0.20911
 C1318 C 0.29363 0.90734 0.22378
 H1319 H 0.25861 0.92661 0.16823
 H1320 H 0.31674 0.92832 0.14786
 H1321 H 0.27001 0.87245 0.19457
 H1322 H 0.34463 0.90378 0.22625
 H1323 H 0.33337 0.95736 0.19941
 H1324 H 0.28670 0.90136 0.24600
 C1325 C 0.78161 0.42267 0.17942
 C1326 C 0.81326 0.42296 0.16813
 C1327 C 0.81853 0.39368 0.18293
 C1328 C 0.78706 0.39314 0.19405
 C1329 C 0.82865 0.40896 0.21080
 C1330 C 0.82320 0.43853 0.19616
 C1331 C 0.79178 0.43787 0.20724
 C1332 C 0.79703 0.40863 0.22201
 H1333 H 0.76213 0.42851 0.16660
 H1334 H 0.82012 0.42864 0.14581
 H1335 H 0.77229 0.37423 0.19313
 H1336 H 0.84795 0.40375 0.22411
 H1337 H 0.83788 0.45750 0.19711
 H1338 H 0.79011 0.40293 0.24431
 C1339 C 0.82347 0.92698 0.71530
 C1340 C 0.80883 0.89745 0.70967
 C1341 C 0.82023 0.89802 0.67835
 C1342 C 0.83504 0.92731 0.68381
 C1343 C 0.79240 0.91328 0.66806
 C1344 C 0.78092 0.91291 0.69954
 C1345 C 0.79570 0.94216 0.70497
 C1346 C 0.80704 0.94287 0.67371
 H1347 H 0.83617 0.93280 0.73485
 H1348 H 0.80960 0.87853 0.72437
 H1349 H 0.85745 0.93302 0.67716
 H1350 H 0.77924 0.90802 0.64867
 H1351 H 0.75851 0.90719 0.70624
 H1352 H 0.80621 0.96186 0.65910
 C1353 C 0.68490 0.57796 0.71854
 C1354 C 0.69915 0.60761 0.71262
 C1355 C 0.68737 0.60669 0.68147
 C1356 C 0.67298 0.57727 0.68723
 C1357 C 0.71526 0.59168 0.67085
 C1358 C 0.72712 0.59239 0.70216
 C1359 C 0.71273 0.56302 0.70789
 C1360 C 0.70102 0.56196 0.67680
 H1361 H 0.67250 0.57214 0.73829
 H1362 H 0.69832 0.62661 0.72727
 H1363 H 0.65055 0.57127 0.68092
 H1364 H 0.72812 0.59697 0.65125
 H1365 H 0.74954 0.59839 0.70853
 H1366 H 0.70190 0.54289 0.66225
 C1367 C 0.67782 0.07481 0.21517
 C1368 C 0.69259 0.10431 0.20978
 C1369 C 0.68119 0.10398 0.17848
 C1370 C 0.66626 0.07471 0.18370
 C1371 C 0.70895 0.08868 0.16799
 C1372 C 0.72044 0.08879 0.19945
 C1373 C 0.70553 0.05957 0.20465
 C1374 C 0.69419 0.05911 0.17340
 H1375 H 0.66509 0.06893 0.23469
 H1376 H 0.69190 0.12314 0.22466
 H1377 H 0.64383 0.06913 0.17705
 H1378 H 0.72210 0.09405 0.14861
 H1379 H 0.74286 0.09438 0.20617
 H1380 H 0.69493 0.04020 0.15861
 C1381 C 0.17921 0.57668 0.21604
 C1382 C 0.19409 0.60610 0.21045
 C1383 C 0.18262 0.60564 0.17917
 C1384 C 0.16758 0.57646 0.18460
 C1385 C 0.21030 0.59013 0.16874
 C1386 C 0.22186 0.59039 0.20017
 C1387 C 0.20684 0.56125 0.20556
 C1388 C 0.19542 0.56066 0.17434
 H1389 H 0.16649 0.57097 0.23562
 H1390 H 0.19350 0.62502 0.22522
 H1391 H 0.14511 0.57093 0.17803
 H1392 H 0.22350 0.59525 0.14932
 H1393 H 0.24432 0.59592 0.20679
 H1394 H 0.19606 0.54169 0.15964
 C1395 C 0.22142 0.07629 0.68266
 C1396 C 0.18992 0.07519 0.67108
 C1397 C 0.18380 0.10440 0.68579
 C1398 C 0.21511 0.10574 0.69720
 C1399 C 0.17373 0.08900 0.71360
 C1400 C 0.18005 0.05952 0.69905
 C1401 C 0.21129 0.06100 0.71041
 C1402 C 0.20521 0.09015 0.72509
 H1403 H 0.24118 0.07086 0.67004
 H1404 H 0.18345 0.06927 0.64872
 H1405 H 0.22943 0.12500 0.69638
 H1406 H 0.15419 0.09376 0.72679
 H1407 H 0.16582 0.04020 0.69992
 H1408 H 0.21173 0.09609 0.74745
 C1409 C 0.31799 0.57451 0.27931
 C1410 C 0.30373 0.60400 0.28609
 C1411 C 0.31497 0.60204 0.31739
 C1412 C 0.32941 0.57280 0.31079
 C1413 C 0.28688 0.58674 0.32699
 C1414 C 0.27555 0.58852 0.29555
 C1415 C 0.28996 0.55933 0.28900
 C1416 C 0.30116 0.55724 0.32022
 H1417 H 0.33066 0.56927 0.25955
 H1418 H 0.30483 0.62349 0.27217
 H1419 H 0.35171 0.56654 0.31727
 H1420 H 0.27360 0.59128 0.34650
 H1421 H 0.25326 0.59479 0.28903
 H1422 H 0.30001 0.53770 0.33406
 C1423 C 0.29989 0.09091 0.77887
 C1424 C 0.28960 0.10611 0.80688
 C1425 C 0.32095 0.10551 0.81827
 C1426 C 0.33139 0.09051 0.79034
 C1427 C 0.31556 0.07609 0.83275
 C1428 C 0.28405 0.07645 0.82120
 C1429 C 0.29453 0.06154 0.79333
 C1430 C 0.32582 0.06080 0.80466
 H1431 H 0.29320 0.09678 0.75656
 H1432 H 0.27481 0.12499 0.80785
 H1433 H 0.35083 0.09591 0.77726
 H1434 H 0.32220 0.07023 0.85507
 H1435 H 0.26444 0.07047 0.83380
 H1436 H 0.34052 0.04185 0.80364
 C1437 C 0.82346 0.57916 0.78042
 C1438 C 0.80854 0.60856 0.78609
 C1439 C 0.81977 0.60802 0.81745
 C1440 C 0.83486 0.57887 0.81196
 C1441 C 0.79202 0.59245 0.82758
 C1442 C 0.78070 0.59280 0.79608
 C1443 C 0.79576 0.56369 0.79063
 C1444 C 0.80695 0.56303 0.82192
 H1445 H 0.83631 0.57350 0.76090
 H1446 H 0.80923 0.62753 0.77144
 H1447 H 0.85729 0.57335 0.81866
 H1448 H 0.77863 0.59746 0.84691
 H1449 H 0.75829 0.59835 0.78933
 H1450 H 0.80622 0.54401 0.83650
 C1451 C 0.81547 0.07430 0.27878
 C1452 C 0.80081 0.10374 0.28484
 C1453 C 0.81169 0.10249 0.31630
 C1454 C 0.82652 0.07329 0.31042
 C1455 C 0.78366 0.08708 0.32587
 C1456 C 0.77270 0.08813 0.29426
 C1457 C 0.78751 0.05898 0.28841
 C1458 C 0.79834 0.05760 0.31981
 H1459 H 0.82845 0.06884 0.25928
 H1460 H 0.80186 0.12298 0.27057
 H1461 H 0.84881 0.06740 0.31728
 H1462 H 0.77019 0.09192 0.34518
 H1463 H 0.75042 0.09403 0.28735
 H1464 H 0.79724 0.03831 0.33399
 C1465 C 0.71789 0.42386 0.31770
 C1466 C 0.68630 0.42509 0.32910
 C1467 C 0.68017 0.39586 0.31446
 C1468 C 0.71157 0.39438 0.30323
 C1469 C 0.67037 0.41118 0.28655
 C1470 C 0.67669 0.44069 0.30103
 C1471 C 0.70803 0.43908 0.28985
 C1472 C 0.70193 0.40989 0.27523
 H1473 H 0.73757 0.42928 0.33040
 H1474 H 0.67968 0.43113 0.35141
 H1475 H 0.72581 0.37508 0.30419
 H1476 H 0.65089 0.40640 0.27331
 H1477 H 0.66255 0.46006 0.30002
 H1478 H 0.70861 0.40384 0.25294
 C1479 C 0.68487 0.92664 0.77818
 C1480 C 0.69932 0.89712 0.78428
 C1481 C 0.68793 0.89835 0.81559
 C1482 C 0.67330 0.92762 0.80966
 C1483 C 0.71587 0.91367 0.82561
 C1484 C 0.72734 0.91263 0.79415
 C1485 C 0.71274 0.94185 0.78827
 C1486 C 0.70139 0.94320 0.81951
 H1487 H 0.67221 0.93217 0.75853
 H1488 H 0.69842 0.87793 0.76988
 H1489 H 0.65093 0.93359 0.81622
 H1490 H 0.72909 0.90881 0.84504
 H1491 H 0.74971 0.90666 0.78754
 H1492 H 0.70234 0.96245 0.83382
 C1493 C 0.18007 0.42287 0.78162
 C1494 C 0.19488 0.39352 0.78771
 C1495 C 0.18355 0.39461 0.81905
 C1496 C 0.16856 0.42370 0.81314
 C1497 C 0.21131 0.41023 0.82902
 C1498 C 0.22272 0.40932 0.79755
 C1499 C 0.20778 0.43838 0.79168
 C1500 C 0.19648 0.43959 0.82295
 H1501 H 0.16734 0.42829 0.76199
 H1502 H 0.19418 0.37431 0.77332
 H1503 H 0.14613 0.42940 0.81976
 H1504 H 0.22462 0.40552 0.84843
 H1505 H 0.24514 0.40360 0.79088
 H1506 H 0.19722 0.45886 0.83726
 C1507 C 0.17678 0.92054 0.28288
 C1508 C 0.19193 0.89135 0.28890
 C1509 C 0.18106 0.89252 0.32039
 C1510 C 0.16572 0.92145 0.31456
 C1511 C 0.20883 0.90846 0.32986
 C1512 C 0.21978 0.90745 0.29823
 C1513 C 0.20450 0.93634 0.29244
 C1514 C 0.19365 0.93764 0.32386
 H1515 H 0.16371 0.92573 0.26341
 H1516 H 0.19118 0.87205 0.27463
 H1517 H 0.14334 0.92698 0.32147
 H1518 H 0.22252 0.90404 0.34908
 H1519 H 0.24215 0.90189 0.29128
 H1520 H 0.19444 0.95699 0.33804
 C1521 C 0.42335 0.28075 0.67914
 C1522 C 0.39388 0.28734 0.69377
 C1523 C 0.39551 0.31851 0.68239
 C1524 C 0.42471 0.31211 0.66757
 C1525 C 0.41121 0.32834 0.71016
 C1526 C 0.40975 0.29704 0.72162
 C1527 C 0.43891 0.29069 0.70685
 C1528 C 0.44067 0.32177 0.69549
 H1529 H 0.42857 0.26102 0.66651
 H1530 H 0.37438 0.27329 0.69300
 H1531 H 0.43064 0.31850 0.64518
 H1532 H 0.40683 0.34781 0.72348
 H1533 H 0.40380 0.29061 0.74400
 H1534 H 0.46021 0.33574 0.69630
 C1535 C 0.42082 0.81872 0.22264
 C1536 C 0.42224 0.83050 0.19130
 C1537 C 0.39290 0.81603 0.18482
 C1538 C 0.39122 0.80443 0.21598
 C1539 C 0.40835 0.78827 0.17470
 C1540 C 0.43794 0.80258 0.18135
 C1541 C 0.43615 0.79102 0.21243
 C1542 C 0.40686 0.77659 0.20600
 H1543 H 0.42616 0.83112 0.24251
 H1544 H 0.42835 0.85282 0.18507
 H1545 H 0.37175 0.80525 0.23012
 H1546 H 0.40376 0.77523 0.15508
 H1547 H 0.45747 0.80172 0.16730
 H1548 H 0.40073 0.75427 0.21229
 C1549 C 0.92155 0.31669 0.22036
 C1550 C 0.92319 0.32847 0.18904
 C1551 C 0.89355 0.31463 0.18259
 C1552 C 0.89167 0.30302 0.21373
 C1553 C 0.90840 0.28656 0.17241
 C1554 C 0.93830 0.30026 0.17903
 C1555 C 0.93629 0.28869 0.21010
 C1556 C 0.90670 0.27487 0.20370
 H1557 H 0.92717 0.32896 0.24023
 H1558 H 0.92975 0.35068 0.18282
 H1559 H 0.87224 0.30423 0.22790
 H1560 H 0.90350 0.27367 0.15275
 H1561 H 0.95778 0.29900 0.16495
 H1562 H 0.90013 0.25267 0.20996
 C1563 C 0.92595 0.78397 0.67849
 C1564 C 0.89625 0.79023 0.69277
 C1565 C 0.89763 0.82141 0.68135
 C1566 C 0.92710 0.81532 0.66691
 C1567 C 0.91283 0.83148 0.70929
 C1568 C 0.91165 0.80014 0.72079
 C1569 C 0.94108 0.79408 0.70636
 C1570 C 0.94259 0.82521 0.69501
 H1571 H 0.93152 0.76430 0.66590
 H1572 H 0.87694 0.77594 0.69180
 H1573 H 0.93325 0.82176 0.64460
 H1574 H 0.90778 0.85098 0.72232
 H1575 H 0.90550 0.79365 0.74309
 H1576 H 0.96197 0.83940 0.69604
 C1577 C 0.55817 0.32160 0.30252
 C1578 C 0.57410 0.31215 0.33050
 C1579 C 0.60334 0.31830 0.31562
 C1580 C 0.58765 0.32790 0.28779
 C1581 C 0.60480 0.28700 0.30445
 C1582 C 0.57529 0.28067 0.31914
 C1583 C 0.55975 0.29039 0.29137
 C1584 C 0.58895 0.29648 0.27655
 H1585 H 0.53870 0.33566 0.30164
 H1586 H 0.56820 0.31879 0.35284
 H1587 H 0.59214 0.34722 0.27435
 H1588 H 0.62422 0.27287 0.30530
 H1589 H 0.56999 0.26109 0.33192
 H1590 H 0.59487 0.28980 0.25422
 C1591 C 0.58151 0.78473 0.81958
 C1592 C 0.61099 0.79053 0.80466
 C1593 C 0.60994 0.82198 0.81544
 C1594 C 0.58070 0.81635 0.83052
 C1595 C 0.59428 0.83145 0.78759
 C1596 C 0.59512 0.79984 0.77671
 C1597 C 0.56592 0.79424 0.79178
 C1598 C 0.56475 0.82564 0.80251
 H1599 H 0.57608 0.76538 0.83266
 H1600 H 0.63025 0.77619 0.80557
 H1601 H 0.57498 0.82333 0.85280
 H1602 H 0.59918 0.85062 0.77407
 H1603 H 0.60085 0.79280 0.75445
 H1604 H 0.54543 0.83989 0.80155
 C1605 C 0.07814 0.28021 0.82115
 C1606 C 0.10777 0.28642 0.80666
 C1607 C 0.10660 0.31758 0.81824
 C1608 C 0.07723 0.31155 0.83291
 C1609 C 0.09115 0.32773 0.79049
 C1610 C 0.09214 0.29643 0.77882
 C1611 C 0.06281 0.29045 0.79345
 C1612 C 0.06152 0.32154 0.80500
 H1613 H 0.07259 0.26052 0.83365
 H1614 H 0.12704 0.27207 0.80739
 H1615 H 0.07130 0.31795 0.85531
 H1616 H 0.09599 0.34720 0.77739
 H1617 H 0.09808 0.28998 0.75643
 H1618 H 0.04220 0.33581 0.80423
 C1619 C 0.07731 0.81793 0.28368
 C1620 C 0.07613 0.82933 0.31520
 C1621 C 0.10543 0.81465 0.32127
 C1622 C 0.10685 0.80342 0.28993
 C1623 C 0.08991 0.78686 0.33109
 C1624 C 0.06032 0.80138 0.32482
 C1625 C 0.06187 0.79020 0.29354
 C1626 C 0.09113 0.77553 0.29958
 H1627 H 0.07194 0.83063 0.26405
 H1628 H 0.07017 0.85161 0.32181
 H1629 H 0.12623 0.80431 0.27569
 H1630 H 0.09471 0.77371 0.35055
 H1631 H 0.04088 0.80044 0.33898
 H1632 H 0.09709 0.75327 0.29292
 C1633 C 0.59489 0.70364 0.72466
 C1634 C 0.59401 0.67219 0.71333
 C1635 C 0.60888 0.68220 0.68520
 C1636 C 0.60998 0.71349 0.69645
 C1637 C 0.57923 0.68783 0.67101
 C1638 C 0.56406 0.67800 0.69930
 C1639 C 0.56530 0.70924 0.71048
 C1640 C 0.58011 0.71928 0.68241
 H1641 H 0.60113 0.71039 0.74687
 H1642 H 0.59940 0.65284 0.72639
 H1643 H 0.62911 0.72800 0.69522
 H1644 H 0.57300 0.68114 0.64879
 H1645 H 0.54487 0.66359 0.70058
 H1646 H 0.57423 0.73878 0.66977
 C1647 C 0.58931 0.20102 0.22236
 C1648 C 0.58832 0.16978 0.21044
 C1649 C 0.60352 0.18021 0.18264
 C1650 C 0.60473 0.21128 0.19446
 C1651 C 0.57405 0.18629 0.16828
 C1652 C 0.55855 0.17605 0.19625
 C1653 C 0.55989 0.20707 0.20801
 C1654 C 0.57503 0.21752 0.18026
 H1655 H 0.59538 0.20732 0.24474
 H1656 H 0.59345 0.15018 0.22321
 H1657 H 0.62397 0.22568 0.19367
 H1658 H 0.56798 0.18005 0.14589
 H1659 H 0.53925 0.16175 0.19709
 H1660 H 0.56939 0.23729 0.16793
 C1661 C 0.06050 0.69596 0.17876
 C1662 C 0.09014 0.71040 0.17269
 C1663 C 0.10551 0.68238 0.18212
 C1664 C 0.07610 0.66780 0.18805
 C1665 C 0.10695 0.69323 0.21360
 C1666 C 0.09142 0.72132 0.20428
 C1667 C 0.06205 0.70682 0.21014
 C1668 C 0.07724 0.67886 0.21973
 H1669 H 0.04111 0.69717 0.16460
 H1670 H 0.09474 0.72402 0.15349
 H1671 H 0.07001 0.64564 0.18119
 H1672 H 0.12630 0.69206 0.22782
 H1673 H 0.09754 0.74347 0.21118
 H1674 H 0.07170 0.66603 0.23923
 C1675 C 0.07853 0.21909 0.68137
 C1676 C 0.10791 0.21272 0.69621
 C1677 C 0.10671 0.18156 0.68463
 C1678 C 0.07760 0.18775 0.66959
 C1679 C 0.09078 0.17151 0.71220
 C1680 C 0.09182 0.20279 0.72386
 C1681 C 0.06275 0.20892 0.70888
 C1682 C 0.06142 0.17785 0.69731
 H1683 H 0.07326 0.23881 0.66880
 H1684 H 0.12727 0.22696 0.69571
 H1685 H 0.07197 0.18137 0.64711
 H1686 H 0.09519 0.15205 0.72544
 H1687 H 0.09748 0.20921 0.74632
 H1688 H 0.04201 0.16369 0.69785
 C1689 C 0.40701 0.70073 0.27969
 C1690 C 0.40818 0.66913 0.29040
 C1691 C 0.39265 0.67844 0.31844
 C1692 C 0.39129 0.70990 0.30782
 C1693 C 0.42195 0.68427 0.33329
 C1694 C 0.43776 0.67513 0.30508
 C1695 C 0.43627 0.70652 0.29449
 C1696 C 0.42084 0.71591 0.32248
 H1697 H 0.40106 0.70775 0.25750
 H1698 H 0.40341 0.64995 0.27679
 H1699 H 0.37192 0.72408 0.30898
 H1700 H 0.42788 0.67729 0.35548
 H1701 H 0.45718 0.66102 0.30387
 H1702 H 0.42625 0.73529 0.33557
 C1703 C 0.44054 0.19810 0.82319
 C1704 C 0.41083 0.21242 0.82950
 C1705 C 0.39556 0.18443 0.81987
 C1706 C 0.42498 0.16995 0.81375
 C1707 C 0.39402 0.19540 0.78847
 C1708 C 0.40951 0.22348 0.79793
 C1709 C 0.43887 0.20899 0.79184
 C1710 C 0.42366 0.18106 0.78218
 H1711 H 0.46000 0.19929 0.83727
 H1712 H 0.40582 0.22559 0.84895
 H1713 H 0.43115 0.14778 0.82047
 H1714 H 0.37463 0.19425 0.77430
 H1715 H 0.40336 0.24564 0.79116
 H1716 H 0.42912 0.16825 0.76259
 C1717 C 0.94158 0.69848 0.81965
 C1718 C 0.91202 0.71304 0.82589
 C1719 C 0.89649 0.68522 0.81603
 C1720 C 0.92581 0.67053 0.80995
 C1721 C 0.89518 0.69642 0.78470
 C1722 C 0.91089 0.72431 0.79443
 C1723 C 0.94017 0.70967 0.78841
 C1724 C 0.92478 0.68192 0.77844
 H1725 H 0.96096 0.69942 0.83386
 H1726 H 0.90739 0.72640 0.84529
 H1727 H 0.93174 0.64825 0.81652
 H1728 H 0.87585 0.69551 0.77043
 H1729 H 0.90494 0.74657 0.78783
 H1730 H 0.93025 0.66923 0.75878
 C1731 C 0.90518 0.19931 0.27735
 C1732 C 0.90555 0.16792 0.28872
 C1733 C 0.88990 0.17813 0.31639
 C1734 C 0.88933 0.20938 0.30510
 C1735 C 0.91915 0.18363 0.33145
 C1736 C 0.93508 0.17359 0.30362
 C1737 C 0.93438 0.20477 0.29237
 C1738 C 0.91883 0.21505 0.31999
 H1739 H 0.89965 0.20599 0.25495
 H1740 H 0.90053 0.14859 0.27542
 H1741 H 0.87027 0.22399 0.30576
 H1742 H 0.92467 0.17699 0.35385
 H1743 H 0.95421 0.15905 0.30291
 H1744 H 0.92450 0.23457 0.33276
 C1745 C 0.30373 0.32295 0.56154
 C1746 C 0.28955 0.32914 0.59131
 C1747 C 0.31769 0.31932 0.60635
 C1748 C 0.33203 0.31330 0.57685
 C1749 C 0.30644 0.28806 0.60779
 C1750 C 0.27822 0.29773 0.59256
 C1751 C 0.29253 0.29175 0.56311
 C1752 C 0.32061 0.28186 0.57805
 H1753 H 0.30251 0.33711 0.54222
 H1754 H 0.27632 0.34852 0.59632
 H1755 H 0.35432 0.31989 0.57060
 H1756 H 0.30762 0.27381 0.62705
 H1757 H 0.25595 0.29110 0.59883
 H1758 H 0.33329 0.26227 0.57240
 C1759 C 0.32142 0.80542 0.06128
 C1760 C 0.31138 0.83306 0.07743
 C1761 C 0.31693 0.81783 0.10648
 C1762 C 0.32713 0.79034 0.09060
 C1763 C 0.28554 0.80653 0.10705
 C1764 C 0.27981 0.82157 0.07773
 C1765 C 0.29012 0.79414 0.06198
 C1766 C 0.29562 0.77897 0.09099
 H1767 H 0.33599 0.80487 0.04215
 H1768 H 0.31804 0.85546 0.07208
 H1769 H 0.34651 0.77696 0.09531
 H1770 H 0.27088 0.80703 0.12612
 H1771 H 0.26020 0.83431 0.07220
 H1772 H 0.28891 0.75658 0.09637
 C1773 C 0.82005 0.30481 0.06019
 C1774 C 0.81051 0.33264 0.07629
 C1775 C 0.81656 0.31761 0.10535
 C1776 C 0.82625 0.28992 0.08949
 C1777 C 0.78511 0.30654 0.10664
 C1778 C 0.77886 0.32136 0.07729
 C1779 C 0.78869 0.29374 0.06160
 C1780 C 0.79468 0.27878 0.09063
 H1781 H 0.83423 0.30401 0.04078
 H1782 H 0.81722 0.35495 0.07061
 H1783 H 0.84562 0.27642 0.09384
 H1784 H 0.77085 0.30730 0.12601
 H1785 H 0.75922 0.33416 0.07204
 H1786 H 0.78793 0.25648 0.09634
 C1787 C 0.82474 0.80488 0.55885
 C1788 C 0.81491 0.83301 0.57423
 C1789 C 0.82126 0.81885 0.60367
 C1790 C 0.83127 0.79089 0.58857
 C1791 C 0.78996 0.80741 0.60538
 C1792 C 0.78343 0.82139 0.57571
 C1793 C 0.79350 0.79349 0.56068
 C1794 C 0.79982 0.77935 0.59007
 H1795 H 0.83885 0.80375 0.53940
 H1796 H 0.82131 0.85523 0.56792
 H1797 H 0.85092 0.77798 0.59348
 H1798 H 0.77576 0.80849 0.62477
 H1799 H 0.76362 0.83384 0.57024
 H1800 H 0.79336 0.75714 0.59639
 C1801 C 0.27732 0.69933 0.41090
 C1802 C 0.30508 0.70909 0.39486
 C1803 C 0.31638 0.67784 0.39590
 C1804 C 0.28870 0.66794 0.41176
 C1805 C 0.33156 0.68382 0.42495
 C1806 C 0.32007 0.71525 0.42418
 C1807 C 0.29244 0.70527 0.43991
 C1808 C 0.30371 0.67409 0.44108
 H1809 H 0.25487 0.70595 0.40533
 H1810 H 0.30569 0.72338 0.37560
 H1811 H 0.27532 0.64856 0.40718
 H1812 H 0.35402 0.67724 0.43050
 H1813 H 0.33287 0.73485 0.42950
 H1814 H 0.30306 0.65989 0.46041
 C1815 C 0.27740 0.20190 0.91040
 C1816 C 0.30537 0.21245 0.89524
 C1817 C 0.31734 0.18144 0.89619
 C1818 C 0.28946 0.17074 0.91115
 C1819 C 0.33156 0.18737 0.92573
 C1820 C 0.31942 0.21855 0.92503
 C1821 C 0.29159 0.20779 0.93990
 C1822 C 0.30351 0.17684 0.94098
 H1823 H 0.25497 0.20810 0.90429
 H1824 H 0.30618 0.22701 0.87619
 H1825 H 0.27669 0.15113 0.90587
 H1826 H 0.35400 0.18122 0.93183
 H1827 H 0.33165 0.23835 0.93092
 H1828 H 0.30265 0.16237 0.96009
 C1829 C 0.82316 0.69907 0.93879
 C1830 C 0.81344 0.67114 0.92298
 C1831 C 0.81955 0.68583 0.89375
 C1832 C 0.82945 0.71362 0.90928
 C1833 C 0.78818 0.69710 0.89244
 C1834 C 0.78189 0.68257 0.92192
 C1835 C 0.79186 0.71029 0.93735
 C1836 C 0.79793 0.72496 0.90817
 H1837 H 0.83736 0.69999 0.95816
 H1838 H 0.82001 0.64885 0.92886
 H1839 H 0.84895 0.72684 0.90457
 H1840 H 0.77389 0.69623 0.87313
 H1841 H 0.76219 0.66989 0.92731
 H1842 H 0.79131 0.74724 0.90228
 C1843 C 0.77360 0.20314 0.40698
 C1844 C 0.80162 0.21209 0.39088
 C1845 C 0.81243 0.18070 0.39270
 C1846 C 0.78450 0.17160 0.40861
 C1847 C 0.82751 0.18712 0.42171
 C1848 C 0.81653 0.21869 0.42014
 C1849 C 0.78866 0.20952 0.43595
 C1850 C 0.79943 0.17820 0.43788
 H1851 H 0.75129 0.20998 0.40112
 H1852 H 0.80257 0.22592 0.37130
 H1853 H 0.77088 0.15231 0.40434
 H1854 H 0.84983 0.18033 0.42756
 H1855 H 0.82961 0.23821 0.42508
 H1856 H 0.79845 0.16444 0.45752
 C1857 C 0.69455 0.32447 0.43693
 C1858 C 0.70887 0.33008 0.40714
 C1859 C 0.68081 0.31993 0.39212
 C1860 C 0.66633 0.31448 0.42164
 C1861 C 0.69208 0.28866 0.39126
 C1862 C 0.72022 0.29867 0.40646
 C1863 C 0.70578 0.29327 0.43595
 C1864 C 0.67778 0.28303 0.42105
 H1865 H 0.69565 0.33903 0.45601
 H1866 H 0.72216 0.34936 0.40192
 H1867 H 0.64401 0.32116 0.42768
 H1868 H 0.69102 0.27403 0.37224
 H1869 H 0.74253 0.29195 0.40041
 H1870 H 0.66510 0.26354 0.42698
 C1871 C 0.72464 0.79946 0.90814
 C1872 C 0.69693 0.79007 0.89182
 C1873 C 0.68597 0.82144 0.89297
 C1874 C 0.71360 0.83097 0.90911
 C1875 C 0.67044 0.81552 0.92187
 C1876 C 0.68159 0.78397 0.92098
 C1877 C 0.70916 0.79358 0.93701
 C1878 C 0.69823 0.82489 0.93828
 H1879 H 0.74707 0.79262 0.90269
 H1880 H 0.69636 0.77585 0.87246
 H1881 H 0.72722 0.85023 0.90473
 H1882 H 0.64801 0.82232 0.92730
 H1883 H 0.66852 0.76449 0.92607
 H1884 H 0.69884 0.83902 0.95770
 C1885 C 0.22227 0.29578 0.91059
 C1886 C 0.19458 0.28592 0.89448
 C1887 C 0.18305 0.31708 0.89577
 C1888 C 0.21066 0.32708 0.91171
 C1889 C 0.16790 0.31085 0.92480
 C1890 C 0.17961 0.27951 0.92377
 C1891 C 0.20717 0.28960 0.93958
 C1892 C 0.19566 0.32069 0.94099
 H1893 H 0.24477 0.28936 0.90493
 H1894 H 0.19409 0.27171 0.87511
 H1895 H 0.22395 0.34656 0.90731
 H1896 H 0.14539 0.31723 0.93044
 H1897 H 0.16694 0.25980 0.92895
 H1898 H 0.19619 0.33482 0.96041
 C1899 C 0.22308 0.79421 0.41114
 C1900 C 0.19497 0.78428 0.39583
 C1901 C 0.18345 0.81544 0.39741
 C1902 C 0.21146 0.82550 0.41253
 C1903 C 0.16910 0.80922 0.42684
 C1904 C 0.18081 0.77789 0.42552
 C1905 C 0.20877 0.78804 0.44053
 C1906 C 0.19728 0.81912 0.44223
 H1907 H 0.24542 0.78779 0.40489
 H1908 H 0.19397 0.77006 0.37649
 H1909 H 0.22455 0.84501 0.40768
 H1910 H 0.14675 0.81560 0.43308
 H1911 H 0.16833 0.75817 0.43107
 H1912 H 0.19833 0.83326 0.46163
 C1913 C 0.70468 0.72430 0.59157
 C1914 C 0.67328 0.71253 0.59101
 C1915 C 0.68387 0.68483 0.60609
 C1916 C 0.71511 0.69650 0.60687
 C1917 C 0.68959 0.67035 0.57663
 C1918 C 0.67918 0.69821 0.56126
 C1919 C 0.71037 0.70983 0.56216
 C1920 C 0.72100 0.68219 0.57716
 H1921 H 0.71114 0.74663 0.59750
 H1922 H 0.65368 0.72538 0.59633
 H1923 H 0.72979 0.69575 0.62588
 H1924 H 0.68318 0.64800 0.57070
 H1925 H 0.66459 0.69902 0.54218
 H1926 H 0.74076 0.66980 0.57128
 C1927 C 0.70035 0.22339 0.09068
 C1928 C 0.66896 0.21162 0.08960
 C1929 C 0.67939 0.18368 0.10437
 C1930 C 0.71062 0.19535 0.10565
 C1931 C 0.68543 0.16968 0.07473
 C1932 C 0.67518 0.19778 0.05968
 C1933 C 0.70636 0.20940 0.06109
 C1934 C 0.71683 0.18152 0.07578
 H1935 H 0.70672 0.24563 0.09704
 H1936 H 0.64931 0.22439 0.09489
 H1937 H 0.72511 0.19430 0.12480
 H1938 H 0.67911 0.14743 0.06837
 H1939 H 0.66079 0.19888 0.04047
 H1940 H 0.73665 0.16922 0.06992
 C1941 C 0.20262 0.72400 0.09010
 C1942 C 0.17123 0.71229 0.08908
 C1943 C 0.18164 0.68433 0.10389
 C1944 C 0.21288 0.69596 0.10509
 C1945 C 0.18757 0.67028 0.07426
 C1946 C 0.17734 0.69838 0.05919
 C1947 C 0.20850 0.70997 0.06053
 C1948 C 0.21899 0.68208 0.07522
 H1949 H 0.20903 0.74624 0.09641
 H1950 H 0.15165 0.72524 0.09424
 H1951 H 0.22741 0.69490 0.12421
 H1952 H 0.18121 0.64802 0.06797
 H1953 H 0.16290 0.69950 0.04001
 H1954 H 0.23878 0.66976 0.06932
 C1955 C 0.19822 0.17686 0.56358
 C1956 C 0.21276 0.17095 0.59318
 C1957 C 0.18480 0.18091 0.60855
 C1958 C 0.17011 0.18663 0.57922
 C1959 C 0.19605 0.21219 0.60963
 C1960 C 0.22410 0.20239 0.59406
 C1961 C 0.20943 0.20807 0.56478
 C1962 C 0.18153 0.21808 0.58005
 H1963 H 0.19922 0.16250 0.54434
 H1964 H 0.22605 0.15162 0.59815
 H1965 H 0.14776 0.17999 0.57331
 H1966 H 0.19509 0.22663 0.62881
 H1967 H 0.24645 0.20909 0.59996
 H1968 H 0.16876 0.23761 0.57447
   
