data_POSCAR
  _audit_creation_date              2014-09-24
  _audit_creation_method            'ToBaCCo'
  _symmetry_space_group_name_H-M    'P1'
  _symmetry_Int_Tables_number       1
  _symmetry_cell_setting            triclinic
  loop_
  _symmetry_equiv_pos_as_xyz
 x,y,z
_cell_length_a 51.1650
_cell_length_b 51.1157
_cell_length_c 51.0081
_cell_angle_alpha 89.940000
_cell_angle_beta 89.978500
_cell_angle_gamma 89.965300
loop_
  _atom_site_label
  _atom_site_type_symbol
  _atom_site_fract_x
  _atom_site_fract_y
  _atom_site_fract_z
N1 N 0.36905 1.35175 0.29713
 N2 N 0.35070 1.36982 0.29728
 C3 C 0.35473 1.38631 0.27700
 C4 C 0.37672 1.37798 0.26372
 C5 C 0.38536 1.35608 0.27687
 H6 H 0.34270 1.40307 0.27226
 H7 H 0.40226 1.34427 0.27212
 Cu8 Cu 0.32357 1.36976 0.32417
 Cu9 Cu 0.37071 1.32406 0.32334
 Cu10 Cu 0.32269 1.32395 0.37142
 N11 N 0.29669 1.36973 0.35133
 N12 N 0.29651 1.35163 0.36971
 C13 C 0.27624 1.35594 0.38601
 C14 C 0.26314 1.37784 0.37732
 C15 C 0.27645 1.38620 0.35531
 H16 H 0.27145 1.34409 0.40293
 H17 H 0.27176 1.40296 0.34323
 N18 N 0.35086 1.29762 0.36982
 N19 N 0.36914 1.29768 0.35150
 C20 C 0.38558 1.27753 0.35580
 C21 C 0.37720 1.26433 0.37778
 C22 C 0.35522 1.27740 0.38624
 H23 H 0.40245 1.27279 0.34393
 H24 H 0.34340 1.27255 0.40314
 H25 H 0.33116 1.32323 0.33181
 H26 H 0.35209 1.34442 0.35288
 N27 N 0.36927 0.85164 0.79763
 N28 N 0.35083 0.86959 0.79765
 C29 C 0.35497 0.88619 0.77753
 C30 C 0.37711 0.87807 0.76444
 C31 C 0.38573 0.85616 0.77755
 H32 H 0.34291 0.90291 0.77275
 H33 H 0.40272 0.84447 0.77287
 Cu34 Cu 0.32338 0.86948 0.82410
 Cu35 Cu 0.37083 0.82394 0.82370
 Cu36 Cu 0.32286 0.82381 0.87168
 N37 N 0.29692 0.86949 0.85152
 N38 N 0.29682 0.85153 0.87001
 C39 C 0.27670 0.85604 0.88642
 C40 C 0.26367 0.87795 0.87770
 C41 C 0.27684 0.88609 0.85557
 H42 H 0.27195 0.84432 0.90344
 H43 H 0.27213 0.90281 0.84345
 N44 N 0.35090 0.79745 0.87001
 N45 N 0.36918 0.79752 0.85171
 C46 C 0.38559 0.77734 0.85594
 C47 C 0.37716 0.76413 0.87788
 C48 C 0.35521 0.77720 0.88639
 H49 H 0.40245 0.77261 0.84408
 H50 H 0.34339 0.77234 0.90328
 H51 H 0.33125 0.82307 0.83210
 H52 H 0.35202 0.84461 0.85305
 N53 N 0.86959 1.35156 0.79684
 N54 N 0.85113 1.36951 0.79685
 C55 C 0.85520 1.38606 0.77664
 C56 C 0.87732 1.37787 0.76351
 C57 C 0.88601 1.35601 0.77668
 H58 H 0.84316 1.40281 0.77190
 H59 H 0.90302 1.34431 0.77205
 Cu60 Cu 0.82415 1.36946 0.82383
 Cu61 Cu 0.87128 1.32389 0.82310
 Cu62 Cu 0.82323 1.32383 0.87117
 N63 N 0.79719 1.36946 0.85081
 N64 N 0.79710 1.35150 0.86933
 C65 C 0.77697 1.35597 0.88571
 C66 C 0.76388 1.37784 0.87697
 C67 C 0.77705 1.38601 0.85484
 H68 H 0.77228 1.34430 0.90277
 H69 H 0.77237 1.40276 0.84276
 N70 N 0.85137 1.29753 0.86960
 N71 N 0.86966 1.29755 0.85130
 C72 C 0.88604 1.27735 0.85561
 C73 C 0.87758 1.26419 0.87758
 C74 C 0.85564 1.27731 0.88603
 H75 H 0.90289 1.27255 0.84375
 H76 H 0.84378 1.27247 0.90289
 H77 H 0.83179 1.32306 0.83171
 H78 H 0.85266 1.34438 0.85272
 N79 N 0.86999 0.85167 0.29712
 N80 N 0.85174 0.86984 0.29738
 C81 C 0.85577 0.88640 0.27717
 C82 C 0.87767 0.87802 0.26380
 C83 C 0.88625 0.85602 0.27681
 H84 H 0.84380 0.90323 0.27254
 H85 H 0.90307 0.84413 0.27195
 Cu86 Cu 0.82466 0.86977 0.32427
 Cu87 Cu 0.87158 0.82390 0.32324
 Cu88 Cu 0.82352 0.82377 0.37131
 N89 N 0.79777 0.86972 0.35133
 N90 N 0.79745 0.85153 0.36962
 C91 C 0.77713 0.85585 0.38584
 C92 C 0.76415 0.87785 0.37720
 C93 C 0.77759 0.88623 0.35531
 H94 H 0.77220 0.84396 0.40268
 H95 H 0.77300 0.90306 0.34330
 N96 N 0.85162 0.79738 0.36964
 N97 N 0.86991 0.79744 0.35134
 C98 C 0.88633 0.77727 0.35563
 C99 C 0.87791 0.76407 0.37759
 C100 C 0.85595 0.77716 0.38606
 H101 H 0.90320 0.77253 0.34378
 H102 H 0.84412 0.77231 0.40295
 H103 H 0.83201 0.82319 0.33173
 H104 H 0.85301 0.84419 0.35291
 N105 N 0.63052 0.64879 0.29729
 N106 N 0.64899 0.63086 0.29732
 C107 C 0.64494 0.61432 0.27716
 C108 C 0.62284 0.62246 0.26402
 C109 C 0.61413 0.64431 0.27715
 H110 H 0.65699 0.59758 0.27244
 H111 H 0.59710 0.65596 0.27249
 Cu112 Cu 0.67596 0.63087 0.32424
 Cu113 Cu 0.62879 0.67643 0.32349
 Cu114 Cu 0.67686 0.67642 0.37152
 N115 N 0.70292 0.63082 0.35117
 N116 N 0.70303 0.64873 0.36969
 C117 C 0.72321 0.64420 0.38602
 C118 C 0.73629 0.62234 0.37722
 C119 C 0.72306 0.61426 0.35512
 H120 H 0.72795 0.65584 0.40307
 H121 H 0.72771 0.59754 0.34301
 N122 N 0.64869 0.70275 0.36995
 N123 N 0.63040 0.70274 0.35165
 C124 C 0.61401 0.72293 0.35593
 C125 C 0.62244 0.73609 0.37788
 C126 C 0.64439 0.72297 0.38634
 H127 H 0.59716 0.72773 0.34406
 H128 H 0.65625 0.72781 0.40319
 H129 H 0.66822 0.67726 0.33201
 H130 H 0.64736 0.65592 0.35306
 N131 N 0.63040 0.14856 0.79700
 N132 N 0.64884 0.13059 0.79704
 C133 C 0.64474 0.11403 0.77688
 C134 C 0.62262 0.12221 0.76375
 C135 C 0.61397 0.14410 0.77688
 H136 H 0.65683 0.09733 0.77212
 H137 H 0.59700 0.15584 0.77219
 Cu138 Cu 0.67628 0.13070 0.82357
 Cu139 Cu 0.62887 0.17626 0.82313
 Cu140 Cu 0.67684 0.17636 0.87109
 N141 N 0.70280 0.13069 0.85100
 N142 N 0.70288 0.14867 0.86945
 C143 C 0.72299 0.14422 0.88587
 C144 C 0.73609 0.12234 0.87722
 C145 C 0.72294 0.11415 0.85510
 H146 H 0.72771 0.15596 0.90285
 H147 H 0.72768 0.09743 0.84303
 N148 N 0.64880 0.20272 0.86944
 N149 N 0.63051 0.20269 0.85116
 C150 C 0.61414 0.22290 0.85545
 C151 C 0.62260 0.23607 0.87739
 C152 C 0.64454 0.22294 0.88583
 H153 H 0.59727 0.22768 0.84362
 H154 H 0.65639 0.22775 0.90270
 H155 H 0.66848 0.17713 0.83156
 H156 H 0.64770 0.15559 0.85255
 N157 N 1.13073 0.64879 0.79743
 N158 N 1.14919 0.63087 0.79750
 C159 C 1.14512 0.61427 0.77739
 C160 C 1.12300 0.62237 0.76424
 C161 C 1.11432 0.64426 0.77732
 H162 H 1.15721 0.59757 0.77266
 H163 H 1.09732 0.65594 0.77260
 Cu164 Cu 1.17659 0.63098 0.82399
 Cu165 Cu 1.12912 0.67649 0.82350
 Cu166 Cu 1.17706 0.67660 0.87150
 N167 N 1.20305 0.63096 0.85140
 N168 N 1.20312 0.64891 0.86988
 C169 C 1.22323 0.64441 0.88629
 C170 C 1.23630 0.62251 0.87759
 C171 C 1.22315 0.61438 0.85548
 H172 H 1.22797 0.65611 0.90329
 H173 H 1.22788 0.59768 0.84338
 N174 N 1.14901 0.70296 0.86981
 N175 N 1.13074 0.70291 0.85151
 C176 C 1.11435 0.72310 0.85574
 C177 C 1.12277 0.73628 0.87767
 C178 C 1.14471 0.72319 0.88617
 H179 H 1.09749 0.72785 0.84388
 H180 H 1.15653 0.72803 0.90305
 H181 H 1.16868 0.67738 0.83192
 H182 H 1.14790 0.65582 0.85289
 N183 N 1.13078 0.14857 0.29720
 N184 N 1.14923 0.13061 0.29728
 C185 C 1.14519 0.11408 0.27710
 C186 C 1.12312 0.12226 0.26395
 C187 C 1.11442 0.14411 0.27705
 H188 H 1.15720 0.09731 0.27242
 H189 H 1.09738 0.15576 0.27238
 Cu190 Cu 1.17609 0.13043 0.32427
 Cu191 Cu 1.12900 0.17617 0.32337
 Cu192 Cu 1.17699 0.17618 0.37140
 N193 N 1.20308 0.13060 0.35115
 N194 N 1.20318 0.14856 0.36962
 C195 C 1.22334 0.14411 0.38597
 C196 C 1.23645 0.12225 0.37724
 C197 C 1.22325 0.11408 0.35515
 H198 H 1.22804 0.15577 0.40301
 H199 H 1.22792 0.09733 0.34309
 N200 N 1.14883 0.20246 0.36983
 N201 N 1.13056 0.20244 0.35153
 C202 C 1.11416 0.22262 0.35579
 C203 C 1.12258 0.23577 0.37773
 C204 C 1.14452 0.22267 0.38622
 H205 H 1.09733 0.22742 0.34390
 H206 H 1.15637 0.22752 0.40308
 H207 H 1.16842 0.17683 0.33184
 H208 H 1.14747 0.15561 0.35295
 N209 N 0.63046 1.35140 0.70242
 N210 N 0.64883 1.36941 0.70223
 C211 C 0.64478 1.38601 0.72233
 C212 C 0.62279 1.37784 0.73562
 C213 C 0.61412 1.35589 0.72263
 H214 H 0.65677 1.40282 0.72695
 H215 H 0.59720 1.34418 0.72743
 Cu216 Cu 0.67574 1.36940 0.67526
 Cu217 Cu 0.62876 1.32368 0.67635
 Cu218 Cu 0.67679 1.32356 0.62825
 N219 N 0.70268 1.36930 0.64832
 N220 N 0.70286 1.35126 0.62993
 C221 C 0.72308 1.35568 0.61360
 C222 C 0.73606 1.37762 0.62229
 C223 C 0.72277 1.38585 0.64428
 H224 H 0.72789 1.34393 0.59666
 H225 H 0.72738 1.40265 0.65630
 N226 N 0.64870 1.29725 0.62996
 N227 N 0.63043 1.29730 0.64828
 C228 C 0.61405 1.27712 0.64406
 C229 C 0.62249 1.26394 0.62213
 C230 C 0.64442 1.27702 0.61361
 H231 H 0.59719 1.27236 0.65593
 H232 H 0.65625 1.27217 0.59673
 H233 H 0.66820 1.32295 0.66777
 H234 H 0.64722 1.34410 0.64664
 N235 N 0.63038 0.85138 1.20266
 N236 N 0.64885 0.86930 1.20262
 C237 C 0.64479 0.88585 1.22278
 C238 C 0.62267 0.87772 1.23592
 C239 C 0.61398 0.85588 1.22280
 H240 H 0.65682 0.90258 1.22749
 H241 H 0.59695 0.84425 1.22746
 Cu242 Cu 0.67581 0.86926 1.17570
 Cu243 Cu 0.62866 0.82376 1.17647
 Cu244 Cu 0.67674 0.82370 1.12842
 N245 N 0.70276 0.86926 1.14877
 N246 N 0.70288 0.85135 1.13026
 C247 C 0.72304 0.85585 1.11391
 C248 C 0.73610 0.87770 1.12270
 C249 C 0.72288 0.88581 1.14481
 H250 H 0.72779 0.84421 1.09686
 H251 H 0.72754 0.90253 1.15690
 N252 N 0.64858 0.79742 1.13001
 N253 N 0.63029 0.79746 1.14831
 C254 C 0.61390 0.77730 1.14404
 C255 C 0.62234 0.76414 1.12209
 C256 C 0.64429 0.77722 1.11361
 H257 H 0.59705 0.77252 1.15591
 H258 H 0.65615 0.77237 1.09675
 H259 H 0.66813 0.82289 1.16791
 H260 H 0.64727 0.84425 1.14687
 N261 N 1.13067 1.35105 1.20254
 N262 N 1.14911 1.36897 1.20244
 C263 C 1.14511 1.38550 1.22262
 C264 C 1.12305 1.37739 1.23582
 C265 C 1.11432 1.35554 1.22273
 H266 H 1.15716 1.40224 1.22730
 H267 H 1.09730 1.34391 1.22744
 Cu268 Cu 1.17610 1.36914 1.17555
 Cu269 Cu 1.12893 1.32347 1.17637
 Cu270 Cu 1.17689 1.32342 1.12826
 N271 N 1.20292 1.36895 1.14849
 N272 N 1.20303 1.35103 1.12999
 C273 C 1.22319 1.35553 1.11363
 C274 C 1.23626 1.37738 1.12241
 C275 C 1.22305 1.38548 1.14451
 H276 H 1.22793 1.34389 1.09658
 H277 H 1.22772 1.40220 1.15662
 N278 N 1.14876 1.29716 1.12989
 N279 N 1.13050 1.29719 1.14822
 C280 C 1.11411 1.27702 1.14398
 C281 C 1.12252 1.26388 1.12203
 C282 C 1.14445 1.27695 1.11351
 H283 H 1.09728 1.27224 1.15589
 H284 H 1.15628 1.27210 1.09663
 H285 H 1.16839 1.32270 1.16781
 H286 H 1.14746 1.34403 1.14679
 N287 N 1.13030 0.85139 0.70243
 N288 N 1.14874 0.86932 0.70236
 C289 C 1.14463 0.88592 0.72247
 C290 C 1.12252 0.87781 0.73560
 C291 C 1.11387 0.85592 0.72253
 H292 H 1.15669 0.90263 0.72720
 H293 H 1.09689 0.84424 0.72726
 Cu294 Cu 1.17615 0.86925 0.67590
 Cu295 Cu 1.12874 0.82371 0.67636
 Cu296 Cu 1.17674 0.82366 0.62838
 N297 N 1.20264 0.86930 0.64850
 N298 N 1.20276 0.85136 0.63002
 C299 C 1.22290 0.85588 0.61363
 C300 C 1.23592 0.87777 0.62235
 C301 C 1.22273 0.88588 0.64446
 H302 H 1.22768 0.84418 0.59663
 H303 H 1.22742 0.90257 0.65658
 N304 N 1.14872 0.79729 0.63004
 N305 N 1.13043 0.79732 0.64833
 C306 C 1.11406 0.77713 0.64409
 C307 C 1.12252 0.76396 0.62215
 C308 C 1.14445 0.77707 0.61366
 H309 H 1.09720 0.77237 0.65595
 H310 H 1.15630 0.77224 0.59678
 H311 H 1.16827 0.82284 0.66799
 H312 H 1.14748 0.84441 0.64703
 N313 N 0.36926 0.64878 0.70244
 N314 N 0.35085 0.63083 0.70241
 C315 C 0.35498 0.61424 0.72255
 C316 C 0.37708 0.62238 0.73566
 C317 C 0.38570 0.64428 0.72254
 H318 H 0.34293 0.59752 0.72732
 H319 H 0.40266 0.65598 0.72724
 Cu320 Cu 0.32345 0.63093 0.67593
 Cu321 Cu 0.37081 0.67647 0.67636
 Cu322 Cu 0.32291 0.67659 0.62833
 N323 N 0.29702 0.63090 0.64850
 N324 N 0.29691 0.64886 0.63000
 C325 C 0.27681 0.64432 0.61359
 C326 C 0.26381 0.62240 0.62233
 C327 C 0.27697 0.61429 0.64446
 H328 H 0.27205 0.65602 0.59656
 H329 H 0.27229 0.59758 0.65659
 N330 N 0.35093 0.70296 0.63003
 N331 N 0.36917 0.70288 0.64835
 C332 C 0.38556 0.72306 0.64415
 C333 C 0.37718 0.73628 0.62221
 C334 C 0.35525 0.72322 0.61366
 H335 H 0.40240 0.72778 0.65604
 H336 H 0.34346 0.72809 0.59676
 H337 H 0.33123 0.67734 0.66790
 H338 H 0.35206 0.65580 0.64697
 N339 N 0.36953 0.14873 1.20251
 N340 N 0.35109 0.13080 1.20248
 C341 C 0.35519 0.11423 1.22265
 C342 C 0.37728 0.12236 1.23578
 C343 C 0.38594 0.14423 1.22264
 H344 H 0.34313 0.09752 1.22743
 H345 H 0.40291 0.15592 1.22733
 Cu346 Cu 0.32372 0.13088 1.17597
 Cu347 Cu 0.37115 0.17640 1.17639
 Cu348 Cu 0.32324 0.17647 1.12835
 N349 N 0.29726 0.13083 1.14854
 N350 N 0.29717 0.14878 1.13002
 C351 C 0.27706 0.14427 1.11362
 C352 C 0.26399 0.12239 1.12237
 C353 C 0.27716 0.11427 1.14451
 H354 H 0.27231 0.15598 1.09660
 H355 H 0.27244 0.09758 1.15667
 N356 N 0.35129 0.20283 1.12999
 N357 N 0.36954 0.20277 1.14831
 C358 C 0.38595 0.22293 1.14405
 C359 C 0.37758 0.23611 1.12208
 C360 C 0.35563 0.22305 1.11358
 H361 H 0.40279 0.22766 1.15594
 H362 H 0.34384 0.22790 1.09667
 H363 H 0.33163 0.17728 1.16797
 H364 H 0.35245 0.15571 1.14708
 N365 N 0.86969 0.64858 1.20253
 N366 N 0.85127 0.63064 1.20251
 C367 C 0.85540 0.61404 1.22265
 C368 C 0.87751 0.62217 1.23575
 C369 C 0.88613 0.64407 1.22263
 H370 H 0.84336 0.59732 1.22742
 H371 H 0.90311 0.65576 1.22731
 Cu372 Cu 0.82386 0.63073 1.17603
 Cu373 Cu 0.87126 0.67628 1.17644
 Cu374 Cu 0.82327 0.67638 1.12847
 N375 N 0.79735 0.63071 1.14864
 N376 N 0.79722 0.64867 1.13014
 C377 C 0.77708 0.64416 1.11377
 C378 C 0.76405 0.62225 1.12252
 C379 C 0.77726 0.61413 1.14463
 H380 H 0.77231 0.65588 1.09676
 H381 H 0.77258 0.59742 1.15678
 N382 N 0.85130 0.70275 1.13011
 N383 N 0.86958 0.70268 1.14841
 C384 C 0.88596 0.72286 1.14416
 C385 C 0.87754 0.73607 1.12222
 C386 C 0.85560 0.72300 1.11373
 H387 H 0.90282 0.72760 1.15602
 H388 H 0.84378 0.72786 1.09684
 H389 H 0.83172 0.67715 1.16808
 H390 H 0.85253 0.65562 1.14713
 N391 N 0.86928 0.14863 0.70238
 N392 N 0.85085 0.13070 0.70237
 C393 C 0.85498 0.11412 0.72253
 C394 C 0.87710 0.12226 0.73562
 C395 C 0.88572 0.14413 0.72247
 H396 H 0.84292 0.09742 0.72733
 H397 H 0.90270 0.15583 0.72714
 Cu398 Cu 0.82343 0.13083 0.67590
 Cu399 Cu 0.87086 0.17630 0.67628
 Cu400 Cu 0.82295 0.17646 0.62827
 N401 N 0.79700 0.13082 0.64846
 N402 N 0.79692 0.14878 0.62995
 C403 C 0.77682 0.14429 0.61353
 C404 C 0.76378 0.12240 0.62226
 C405 C 0.77691 0.11426 0.64440
 H406 H 0.77209 0.15601 0.59651
 H407 H 0.77219 0.09755 0.65653
 N408 N 0.85100 0.20279 0.62993
 N409 N 0.86925 0.20270 0.64825
 C410 C 0.88567 0.22284 0.64401
 C411 C 0.87729 0.23605 0.62205
 C412 C 0.85534 0.22302 0.61354
 H413 H 0.90252 0.22755 0.65588
 H414 H 0.84355 0.22788 0.59664
 H415 H 0.83126 0.17722 0.66782
 H416 H 0.85206 0.15564 0.64690
 N417 N 1.35150 0.36906 0.70239
 N418 N 1.36963 0.35079 0.70218
 C419 C 1.38609 0.35484 0.72241
 C420 C 1.37771 0.37675 0.73575
 C421 C 1.35579 0.38533 0.72267
 H422 H 1.40294 0.34292 0.72704
 H423 H 1.34396 0.40221 0.72747
 Cu424 Cu 1.37004 0.32392 0.67509
 Cu425 Cu 1.32390 0.37075 0.67623
 Cu426 Cu 1.32385 0.32272 0.62826
 N427 N 1.36962 0.29678 0.64828
 N428 N 1.35148 0.29650 0.62998
 C429 C 1.35576 0.27614 0.61379
 C430 C 1.37768 0.26310 0.62248
 C431 C 1.38608 0.27653 0.64436
 H432 H 1.34391 0.27128 0.59693
 H433 H 1.40290 0.27196 0.65635
 N434 N 1.29755 0.35090 0.62983
 N435 N 1.29760 0.36919 0.64812
 C436 C 1.27746 0.38564 0.64385
 C437 C 1.26429 0.37724 0.62191
 C438 C 1.27735 0.35525 0.61344
 H439 H 1.27271 0.40250 0.65572
 H440 H 1.27250 0.34341 0.59657
 H441 H 1.32350 0.33120 0.66790
 H442 H 1.34434 0.35235 0.64659
 N443 N 1.35175 0.86929 1.20277
 N444 N 1.36984 0.85098 1.20260
 C445 C 1.38636 0.85507 1.22279
 C446 C 1.37801 0.87704 1.23608
 C447 C 1.35607 0.88562 1.22301
 H448 H 1.40318 0.84309 1.22745
 H449 H 1.34422 0.90250 1.22778
 Cu450 Cu 1.37003 0.82386 1.17570
 Cu451 Cu 1.32408 0.87087 1.17664
 Cu452 Cu 1.32404 0.82286 1.12863
 N453 N 1.36982 0.79696 1.14861
 N454 N 1.35172 0.79674 1.13027
 C455 C 1.35607 0.77649 1.11396
 C456 C 1.37802 0.76346 1.12261
 C457 C 1.38635 0.77679 1.14457
 H458 H 1.34423 0.77167 1.09708
 H459 H 1.40316 0.77218 1.15657
 N460 N 1.29768 0.85095 1.13027
 N461 N 1.29771 0.86924 1.14857
 C462 C 1.27753 0.88564 1.14430
 C463 C 1.26437 0.87722 1.12236
 C464 C 1.27746 0.85526 1.11389
 H465 H 1.27276 0.90251 1.15616
 H466 H 1.27264 0.84343 1.09701
 H467 H 1.32353 0.83129 1.16821
 H468 H 1.34458 0.85235 1.14703
 N469 N 0.85165 0.36944 1.20315
 N470 N 0.86956 0.35095 1.20310
 C471 C 0.88612 0.35495 1.22327
 C472 C 0.87799 0.37708 1.23642
 C473 C 0.85614 0.38584 1.22330
 H474 H 0.90284 0.34287 1.22796
 H475 H 0.84449 0.40288 1.22796
 Cu476 Cu 0.86950 0.32397 1.17616
 Cu477 Cu 0.82399 0.37118 1.17693
 Cu478 Cu 0.82390 0.32310 1.12889
 N479 N 0.86947 0.29702 1.14921
 N480 N 0.85154 0.29694 1.13072
 C481 C 0.85601 0.27679 1.11435
 C482 C 0.87786 0.26370 1.12309
 C483 C 0.88600 0.27687 1.14520
 H484 H 0.84436 0.27210 1.09730
 H485 H 0.90274 0.27219 1.15726
 N486 N 0.79763 0.35128 1.13047
 N487 N 0.79766 0.36958 1.14876
 C488 C 0.77747 0.38597 1.14445
 C489 C 0.76432 0.37751 1.12251
 C490 C 0.77743 0.35556 1.11407
 H491 H 0.77267 0.40283 1.15631
 H492 H 0.77259 0.34368 1.09723
 H493 H 0.82314 0.33166 1.16836
 H494 H 0.84443 0.35256 1.14730
 N495 N 0.85128 0.86964 0.70258
 N496 N 0.86920 0.85117 0.70252
 C497 C 0.88577 0.85525 0.72266
 C498 C 0.87765 0.87736 0.73579
 C499 C 0.85578 0.88605 0.72269
 H500 H 0.90246 0.84316 0.72741
 H501 H 0.84410 0.90305 0.72741
 Cu502 Cu 0.86914 0.82377 0.67603
 Cu503 Cu 0.82361 0.87127 0.67649
 Cu504 Cu 0.82358 0.82330 0.62850
 N505 N 0.86919 0.79727 0.64863
 N506 N 0.85126 0.79719 0.63015
 C507 C 0.85576 0.77705 0.61375
 C508 C 0.87763 0.76396 0.62247
 C509 C 0.88575 0.77714 0.64459
 H510 H 0.84407 0.77231 0.59675
 H511 H 0.90243 0.77241 0.65671
 N512 N 0.79721 0.85138 0.63013
 N513 N 0.79724 0.86966 0.64843
 C514 C 0.77706 0.88607 0.64418
 C515 C 0.76389 0.87766 0.62223
 C516 C 0.77699 0.85570 0.61375
 H517 H 0.77230 0.90293 0.65605
 H518 H 0.77216 0.84387 0.59687
 H519 H 0.82277 0.83172 0.66812
 H520 H 0.84428 0.85255 0.64717
 N521 N 0.64872 0.63039 0.70254
 N522 N 0.63081 0.64887 0.70246
 C523 C 0.61422 0.64480 0.72258
 C524 C 0.62229 0.62267 0.73573
 C525 C 0.64417 0.61396 0.72267
 H526 H 0.59753 0.65690 0.72732
 H527 H 0.65582 0.59694 0.72740
 Cu528 Cu 0.63088 0.67627 0.67597
 Cu529 Cu 0.67639 0.62877 0.67644
 Cu530 Cu 0.67643 0.67681 0.62841
 N531 N 0.63083 0.70279 0.64858
 N532 N 0.64874 0.70290 0.63007
 C533 C 0.64420 0.72305 0.61367
 C534 C 0.62232 0.73610 0.62243
 C535 C 0.61425 0.72289 0.64456
 H536 H 0.65587 0.72783 0.59664
 H537 H 0.59756 0.72759 0.65671
 N538 N 0.70278 0.64872 0.63005
 N539 N 0.70275 0.63042 0.64837
 C540 C 0.72292 0.61401 0.64411
 C541 C 0.73609 0.62245 0.62215
 C542 C 0.72299 0.64442 0.61366
 H543 H 0.72768 0.59714 0.65599
 H544 H 0.72782 0.65627 0.59676
 H545 H 0.67724 0.66833 0.66803
 H546 H 0.65572 0.64752 0.64711
 N547 N 0.64852 1.13037 1.20329
 N548 N 0.63060 1.14887 1.20318
 C549 C 0.61401 1.14487 1.22335
 C550 C 0.62213 1.12276 1.23657
 C551 C 0.64400 1.11400 1.22348
 H552 H 0.59729 1.15696 1.22800
 H553 H 0.65565 1.09696 1.22820
 Cu554 Cu 0.63068 1.17584 1.17619
 Cu555 Cu 0.67622 1.12865 1.17708
 Cu556 Cu 0.67630 1.17673 1.12893
 N557 N 0.63069 1.20279 1.14918
 N558 N 0.64863 1.20290 1.13068
 C559 C 0.64414 1.22306 1.11428
 C560 C 0.62227 1.23614 1.12302
 C561 C 0.61414 1.22294 1.14515
 H562 H 0.65580 1.22779 1.09724
 H563 H 0.59741 1.22761 1.15722
 N564 N 0.70261 1.14857 1.13057
 N565 N 0.70258 1.13026 1.14889
 C566 C 0.72279 1.11388 1.14463
 C567 C 0.73596 1.12235 1.12267
 C568 C 0.72284 1.14430 1.11419
 H569 H 0.72759 1.09703 1.15652
 H570 H 0.72768 1.15618 1.09732
 H571 H 0.67705 1.16813 1.16845
 H572 H 0.65579 1.14722 1.14744
 N573 N 0.14838 0.63063 1.20295
 N574 N 0.13043 0.64909 1.20292
 C575 C 0.11393 0.64500 1.22316
 C576 C 0.12215 0.62286 1.23631
 C577 C 0.14398 0.61419 1.22312
 H578 H 0.09720 0.65705 1.22790
 H579 H 0.15569 0.59718 1.22776
 Cu580 Cu 0.13045 0.67614 1.17591
 Cu581 Cu 0.17601 0.62895 1.17670
 Cu582 Cu 0.17605 0.67707 1.12860
 N583 N 0.13044 0.70318 1.14890
 N584 N 0.14838 0.70330 1.13038
 C585 C 0.14393 0.72351 1.11401
 C586 C 0.12209 0.73662 1.12279
 C587 C 0.11392 0.72338 1.14491
 H588 H 0.15562 0.72823 1.09698
 H589 H 0.09720 0.72805 1.15703
 N590 N 0.20236 0.64886 1.13019
 N591 N 0.20232 0.63056 1.14851
 C592 C 0.22250 0.61414 1.14425
 C593 C 0.23567 0.62257 1.12228
 C594 C 0.22258 0.64455 1.11379
 H595 H 0.22728 0.59729 1.15614
 H596 H 0.22744 0.65641 1.09692
 H597 H 0.17682 0.66845 1.16810
 H598 H 0.15555 0.64756 1.14709
 N599 N 0.14805 1.13066 0.70311
 N600 N 0.13012 1.14914 0.70304
 C601 C 0.11356 1.14507 0.72323
 C602 C 0.12173 1.12294 0.73638
 C603 C 0.14359 1.11424 0.72327
 H604 H 0.09682 1.15711 0.72792
 H605 H 0.15526 1.09720 0.72795
 Cu606 Cu 0.13016 1.17615 0.67605
 Cu607 Cu 0.17571 1.12891 0.67692
 Cu608 Cu 0.17572 1.17700 0.62878
 N609 N 0.13011 1.20314 0.64901
 N610 N 0.14806 1.20322 0.63050
 C611 C 0.14361 1.22339 0.61408
 C612 C 0.12176 1.23652 0.62282
 C613 C 0.11358 1.22333 0.64497
 H614 H 0.15531 1.22808 0.59705
 H615 H 0.09686 1.22801 0.65707
 N616 N 0.20205 1.14882 0.63040
 N617 N 0.20203 1.13052 0.64873
 C618 C 0.22222 1.11413 0.64446
 C619 C 0.23538 1.12257 0.62249
 C620 C 0.22226 1.14453 0.61400
 H621 H 0.22702 1.09727 0.65636
 H622 H 0.22709 1.15639 0.59712
 H623 H 0.17653 1.16833 0.66835
 H624 H 0.15524 1.14742 0.64737
 N625 N 1.35164 0.63084 0.29773
 N626 N 1.36956 0.64929 0.29775
 C627 C 1.38610 0.64517 0.27759
 C628 C 1.37796 0.62305 0.26447
 C629 C 1.35611 0.61441 0.27762
 H630 H 1.40280 0.65723 0.27279
 H631 H 1.34441 0.59743 0.27294
 Cu632 Cu 1.36947 0.67670 0.32429
 Cu633 Cu 1.32400 0.62921 0.32383
 Cu634 Cu 1.32390 0.67715 0.37185
 N635 N 1.36950 0.70322 0.35172
 N636 N 1.35156 0.70329 0.37022
 C637 C 1.35602 0.72343 0.38663
 C638 C 1.37789 0.73652 0.37787
 C639 C 1.38604 0.72336 0.35574
 H640 H 1.34430 0.72816 0.40363
 H641 H 1.40272 0.72808 0.34359
 N642 N 1.29757 0.64905 0.37020
 N643 N 1.29765 0.63080 0.35188
 C644 C 1.27751 0.61435 0.35610
 C645 C 1.26431 0.62271 0.37805
 C646 C 1.27735 0.64467 0.38658
 H647 H 1.27280 0.59751 0.34421
 H648 H 1.27248 0.65647 0.40348
 H649 H 1.32311 0.66876 0.33223
 H650 H 1.34465 0.64791 0.35316
 N651 N 1.35134 1.13044 0.79728
 N652 N 1.36927 1.14888 0.79733
 C653 C 1.38587 1.14476 0.77722
 C654 C 1.37775 1.12264 0.76412
 C655 C 1.35587 1.11400 0.77719
 H656 H 1.40258 1.15681 0.77247
 H657 H 1.34419 1.09701 0.77249
 Cu658 Cu 1.36921 1.17627 0.82378
 Cu659 Cu 1.32368 1.12883 0.82334
 Cu660 Cu 1.32366 1.17678 0.87134
 N661 N 1.36927 1.20273 0.85119
 N662 N 1.35134 1.20283 0.86969
 C663 C 1.35587 1.22294 0.88610
 C664 C 1.37775 1.23598 0.87736
 C665 C 1.38585 1.22281 0.85523
 H666 H 1.34419 1.22769 0.90312
 H667 H 1.40254 1.22751 0.84310
 N668 N 1.29730 1.14876 0.86969
 N669 N 1.29733 1.13050 0.85139
 C670 C 1.27716 1.11411 0.85564
 C671 C 1.26401 1.12254 0.87759
 C672 C 1.27710 1.14447 0.88609
 H673 H 1.27240 1.09726 0.84377
 H674 H 1.27227 1.15629 0.90298
 H675 H 1.32285 1.16835 0.83169
 H676 H 1.34438 1.14748 0.85262
 N677 N 0.85138 0.63051 0.79742
 N678 N 0.86928 0.64898 0.79747
 C679 C 0.88586 0.64492 0.77731
 C680 C 0.87772 0.62282 0.76416
 C681 C 0.85588 0.61412 0.77729
 H682 H 0.90259 0.65695 0.77259
 H683 H 0.84424 0.59710 0.77262
 Cu684 Cu 0.86925 0.67593 0.82440
 Cu685 Cu 0.82373 0.62877 0.82361
 Cu686 Cu 0.82365 0.67681 0.87166
 N687 N 0.86922 0.70287 0.85134
 N688 N 0.85130 0.70298 0.86985
 C689 C 0.85579 0.72313 0.88621
 C690 C 0.87764 0.73620 0.87743
 C691 C 0.88578 0.72300 0.85533
 H692 H 0.84413 0.72786 0.90325
 H693 H 0.90250 0.72766 0.84324
 N694 N 0.79738 0.64866 0.87006
 N695 N 0.79743 0.63038 0.85176
 C696 C 0.77726 0.61398 0.85602
 C697 C 0.76409 0.62241 0.87797
 C698 C 0.77716 0.64436 0.88645
 H699 H 0.77249 0.59714 0.84414
 H700 H 0.77230 0.65621 0.90331
 H701 H 0.82290 0.66823 0.83215
 H702 H 0.84418 0.64729 0.85319
 N703 N 0.85142 1.13026 0.29738
 N704 N 0.86934 1.14871 0.29745
 C705 C 0.88596 1.14461 0.27736
 C706 C 0.87788 1.12250 0.26424
 C707 C 0.85597 1.11383 0.27728
 H708 H 0.90268 1.15667 0.27264
 H709 H 0.84431 1.09684 0.27256
 Cu710 Cu 0.86926 1.17609 0.32391
 Cu711 Cu 0.82373 1.12864 0.32343
 Cu712 Cu 0.82368 1.17660 0.37143
 N713 N 0.86930 1.20253 0.35132
 N714 N 0.85136 1.20264 0.36981
 C715 C 0.85589 1.22274 0.38622
 C716 C 0.87778 1.23576 0.37750
 C717 C 0.88589 1.22260 0.35537
 H718 H 0.84419 1.22749 0.40323
 H719 H 0.90259 1.22730 0.34325
 N720 N 0.79732 1.14859 0.36977
 N721 N 0.79735 1.13032 0.35146
 C722 C 0.77717 1.11394 0.35571
 C723 C 0.76401 1.12238 0.37766
 C724 C 0.77710 1.14431 0.38615
 H725 H 0.77241 1.09709 0.34385
 H726 H 0.77227 1.15614 0.40303
 H727 H 0.82289 1.16817 0.33178
 H728 H 0.84440 1.14730 0.35272
 N729 N 0.64829 0.36913 0.29709
 N730 N 0.63035 0.35068 0.29716
 C731 C 0.61380 0.35476 0.27699
 C732 C 0.62197 0.37688 0.26381
 C733 C 0.64382 0.38556 0.27693
 H734 H 0.59706 0.34273 0.27231
 H735 H 0.65551 0.40257 0.27224
 Cu736 Cu 0.63042 0.32365 0.32416
 Cu737 Cu 0.67596 0.37078 0.32328
 Cu738 Cu 0.67604 0.32269 0.37142
 N739 N 0.63040 0.29667 0.35118
 N740 N 0.64834 0.29653 0.36968
 C741 C 0.64384 0.27637 0.38609
 C742 C 0.62196 0.26333 0.37734
 C743 C 0.61383 0.27655 0.35521
 H744 H 0.65552 0.27163 0.40312
 H745 H 0.59709 0.27193 0.34313
 N746 N 0.70237 0.35084 0.36975
 N747 N 0.70231 0.36914 0.35142
 C748 C 0.72251 0.38552 0.35562
 C749 C 0.73571 0.37708 0.37756
 C750 C 0.72261 0.35513 0.38610
 H751 H 0.72727 0.40236 0.34371
 H752 H 0.72748 0.34327 0.40297
 H753 H 0.67680 0.33128 0.33193
 H754 H 0.65553 0.35220 0.35295
 N755 N 0.64871 0.86977 0.79750
 N756 N 0.63061 0.85149 0.79777
 C757 C 0.61412 0.85549 0.77756
 C758 C 0.62245 0.87737 0.76416
 C759 C 0.64437 0.88601 0.77717
 H760 H 0.59729 0.84356 0.77298
 H761 H 0.65615 0.90289 0.77231
 Cu762 Cu 0.63021 0.82467 0.82486
 Cu763 Cu 0.67631 0.87146 0.82365
 Cu764 Cu 0.67637 0.82340 0.87170
 N765 N 0.63065 0.79757 0.85166
 N766 N 0.64876 0.79725 0.86997
 C767 C 0.64443 0.77689 0.88617
 C768 C 0.62250 0.76392 0.87748
 C769 C 0.61417 0.77738 0.85560
 H770 H 0.65623 0.77198 0.90306
 H771 H 0.59734 0.77284 0.84361
 N772 N 0.70263 0.85154 0.87010
 N773 N 0.70259 0.86984 0.85179
 C774 C 0.72272 0.88627 0.85606
 C775 C 0.73586 0.87784 0.87803
 C776 C 0.72281 0.85586 0.88652
 H777 H 0.72748 0.90314 0.84418
 H778 H 0.72765 0.84400 0.90340
 H779 H 0.67674 0.83189 0.83205
 H780 H 0.65588 0.85305 0.85332
 N781 N 0.14840 0.36930 0.79766
 N782 N 0.13035 0.35098 0.79788
 C783 C 0.11375 0.35512 0.77777
 C784 C 0.12200 0.37712 0.76448
 C785 C 0.14397 0.38567 0.77746
 H786 H 0.09696 0.34316 0.77313
 H787 H 0.15576 0.40255 0.77261
 Cu788 Cu 0.13039 0.32368 0.82452
 Cu789 Cu 0.17612 0.37086 0.82368
 Cu790 Cu 0.17618 0.32282 0.87176
 N791 N 0.13036 0.29702 0.85183
 N792 N 0.14842 0.29676 0.87020
 C793 C 0.14399 0.27651 0.88653
 C794 C 0.12201 0.26358 0.87786
 C795 C 0.11376 0.27693 0.85587
 H796 H 0.15580 0.27161 0.90342
 H797 H 0.09699 0.27235 0.84381
 N798 N 0.20258 0.35088 0.87002
 N799 N 0.20252 0.36916 0.85169
 C800 C 0.22269 0.38557 0.85588
 C801 C 0.23589 0.37715 0.87783
 C802 C 0.22281 0.35520 0.88637
 H803 H 0.22741 0.40244 0.84398
 H804 H 0.22766 0.34338 0.90328
 H805 H 0.17685 0.33134 0.83212
 H806 H 0.15558 0.35230 0.85317
 N807 N 0.14853 0.86891 0.29778
 N808 N 0.13043 0.85064 0.29800
 C809 C 0.11397 0.85471 0.27776
 C810 C 0.12233 0.87664 0.26443
 C811 C 0.14424 0.88521 0.27749
 H812 H 0.09713 0.84279 0.27313
 H813 H 0.15603 0.90209 0.27269
 Cu814 Cu 0.13005 0.82377 0.32508
 Cu815 Cu 0.17611 0.87055 0.32393
 Cu816 Cu 0.17624 0.82249 0.37196
 N817 N 0.13050 0.79663 0.35189
 N818 N 0.14862 0.79631 0.37021
 C819 C 0.14430 0.77594 0.38642
 C820 C 0.12238 0.76297 0.37769
 C821 C 0.11403 0.77642 0.35580
 H822 H 0.15610 0.77105 0.40333
 H823 H 0.09722 0.77189 0.34379
 N824 N 0.20249 0.85068 0.37034
 N825 N 0.20239 0.86897 0.35201
 C826 C 0.22249 0.88545 0.35623
 C827 C 0.23568 0.87708 0.37818
 C828 C 0.22269 0.85507 0.38672
 H829 H 0.22719 0.90231 0.34433
 H830 H 0.22758 0.84324 0.40361
 H831 H 0.17657 0.83092 0.33237
 H832 H 0.15570 0.85205 0.35366
 O833 O 0.97457 0.90559 0.86955
 O834 O 0.97462 0.87511 0.83898
 C835 C 0.96553 0.89627 0.84833
 C836 C 0.94357 0.90964 0.83496
 C837 C 0.93285 0.89916 0.81189
 H838 H 0.94126 0.88178 0.80310
 O839 O 1.02560 1.09495 0.86909
 O840 O 1.02543 1.12546 0.83849
 C841 C 1.03456 1.10428 0.84782
 C842 C 1.05646 1.09091 0.83437
 C843 C 1.06716 1.10140 0.81127
 H844 H 1.05874 1.11879 0.80249
 O845 O 0.86967 0.97451 0.90537
 O846 O 0.83919 0.97456 0.87481
 C847 C 0.84848 0.96551 0.89606
 C848 C 0.83506 0.94366 0.90958
 C849 C 0.81197 0.93298 0.89924
 H850 H 0.80316 0.94135 0.88181
 O851 O 1.13017 1.02596 0.90498
 O852 O 1.16074 1.02587 0.87448
 C853 C 1.15140 1.03493 0.89570
 C854 C 1.16482 1.05672 0.90921
 C855 C 1.18793 1.06740 0.89885
 H856 H 1.19672 1.05908 0.88140
 O857 O 0.90545 0.86988 0.97437
 O858 O 0.87504 0.83933 0.97440
 C859 C 0.89618 0.84869 0.96530
 C860 C 0.90965 0.83532 0.94334
 C861 C 0.89929 0.81225 0.93257
 H862 H 0.88188 0.80347 0.94091
 O863 O 1.09472 1.13055 0.97394
 O864 O 1.12520 1.16104 0.97397
 C865 C 1.10405 1.15173 0.96483
 C866 C 1.09068 1.16514 0.94280
 C867 C 1.10107 1.18824 0.93203
 H868 H 1.11845 1.19700 0.94041
 O869 O 0.90564 1.02560 0.86960
 O870 O 0.87521 1.02564 0.83899
 C871 C 0.89636 1.03469 0.84836
 C872 C 0.90972 1.05665 0.83497
 C873 C 0.89924 1.06732 0.81186
 H874 H 0.88189 1.05886 0.80309
 O875 O 1.09431 0.97494 0.86921
 O876 O 1.12482 0.97482 0.83866
 C877 C 1.10364 0.96581 0.84802
 C878 C 1.09027 0.94386 0.83470
 C879 C 1.10072 0.93312 0.81162
 H880 H 1.11807 0.94152 0.80279
 O881 O 1.02572 0.86987 0.90543
 O882 O 1.02580 0.83935 0.87491
 C883 C 1.03482 0.84869 0.89613
 C884 C 1.05671 0.83533 0.90960
 C885 C 1.06750 0.81230 0.89914
 H886 H 1.05921 0.80356 0.88167
 O887 O 0.97460 1.13061 0.90523
 O888 O 0.97440 1.16117 0.87469
 C889 C 0.96545 1.15178 0.89595
 C890 C 0.94354 1.16507 0.90948
 C891 C 0.93275 1.18814 0.89908
 H892 H 0.94106 1.19698 0.88164
 O893 O 0.86974 1.09464 0.97446
 O894 O 0.83927 1.12517 0.97445
 C895 C 0.84859 1.10399 0.96536
 C896 C 0.83525 1.09058 0.94335
 C897 C 0.81220 1.10098 0.93255
 H898 H 0.80339 1.11837 0.94090
 O899 O 1.13001 0.90552 0.97470
 O900 O 1.16057 0.87508 0.97450
 C901 C 1.15116 0.89629 0.96549
 C902 C 1.16442 0.90982 0.94347
 C903 C 1.18754 0.89951 0.93273
 H904 H 1.19640 0.88216 0.94114
 O905 O 0.97450 1.09489 0.86933
 O906 O 0.97427 1.12539 0.83873
 C907 C 0.96531 1.10418 0.84814
 C908 C 0.94339 1.09068 0.83485
 C909 C 0.93253 1.10103 0.81173
 H910 H 0.94078 1.11845 0.80287
 O911 O 1.02567 0.90565 0.86950
 O912 O 1.02575 0.87517 0.83894
 C913 C 1.03474 0.89637 0.84827
 C914 C 1.05659 0.90986 0.83483
 C915 C 1.06737 0.89945 0.81174
 H916 H 1.05910 0.88201 0.80298
 O917 O 1.12988 0.97482 0.90521
 O918 O 1.16044 0.97470 0.87472
 C919 C 1.15105 0.96568 0.89596
 C920 C 1.16436 0.94374 0.90950
 C921 C 1.18748 0.93308 0.89913
 H922 H 1.19629 0.94149 0.88172
 O923 O 0.86982 1.02565 0.90538
 O924 O 0.83934 1.02571 0.87481
 C925 C 0.84866 1.03475 0.89604
 C926 C 0.83531 1.05669 0.90947
 C927 C 0.81225 1.06739 0.89902
 H928 H 0.80348 1.05898 0.88162
 O929 O 0.90559 1.13032 0.97447
 O930 O 0.87517 1.16090 0.97452
 C931 C 0.89632 1.15155 0.96542
 C932 C 0.90974 1.16495 0.94346
 C933 C 0.89930 1.18804 0.93274
 H934 H 0.88192 1.19680 0.94116
 O935 O 1.09445 0.86958 0.97485
 O936 O 1.12496 0.83909 0.97467
 C937 C 1.10378 0.84846 0.96567
 C938 C 1.09042 0.83520 0.94364
 C939 C 1.10088 0.81219 0.93284
 H940 H 1.11824 0.80338 0.94124
 O941 O 1.09447 1.02612 0.86903
 O942 O 1.12498 1.02605 0.83849
 C943 C 1.10382 1.03517 0.84780
 C944 C 1.09041 1.05713 0.83436
 C945 C 1.10082 1.06798 0.81126
 H946 H 1.11825 1.05970 0.80247
 O947 O 0.90549 0.97441 0.86953
 O948 O 0.87506 0.97443 0.83893
 C949 C 0.89620 0.96535 0.84831
 C950 C 0.90963 0.94340 0.83495
 C951 C 0.89922 0.93258 0.81188
 H952 H 0.88179 0.94088 0.80309
 O953 O 1.02575 1.13074 0.90491
 O954 O 1.02560 1.16131 0.87437
 C955 C 1.03477 1.15194 0.89554
 C956 C 1.05677 1.16526 0.90891
 C957 C 1.06750 1.18835 0.89848
 H958 H 1.05910 1.19719 0.88109
 O959 O 0.97460 0.86980 0.90541
 O960 O 0.97466 0.83927 0.87490
 C961 C 0.96557 0.84862 0.89610
 C962 C 0.94362 0.83526 0.90953
 C963 C 0.93295 0.81218 0.89911
 H964 H 0.94139 0.80337 0.88174
 O965 O 1.13032 1.09460 0.97418
 O966 O 1.16086 1.12503 0.97421
 C967 C 1.15152 1.10386 0.96515
 C968 C 1.16489 1.09043 0.94324
 C969 C 1.18799 1.10078 0.93257
 H970 H 1.19682 1.11810 0.94102
 O971 O 0.86967 0.90568 0.97449
 O972 O 0.83921 0.87518 0.97455
 C973 C 0.84849 0.89638 0.96548
 C974 C 0.83507 0.90985 0.94357
 C975 C 0.81198 0.89949 0.93292
 H976 H 0.80319 0.88213 0.94137
 Cu977 Cu 1.00014 0.89079 0.89054
 Cu978 Cu 1.00022 0.85416 0.85387
 Cu979 Cu 1.00013 1.10975 0.89020
 Cu980 Cu 0.99990 1.14640 0.85351
 Cu981 Cu 0.89071 1.00002 0.89053
 Cu982 Cu 0.85416 1.00010 0.85381
 Cu983 Cu 1.10914 1.00050 0.89015
 Cu984 Cu 1.14580 1.00034 0.85352
 C985 C 0.93198 0.93193 0.84618
 H986 H 0.93988 0.93987 0.86420
 C987 C 0.91078 0.91057 0.80043
 C988 C 1.06806 1.06859 0.84560
 H989 H 1.06016 1.06064 0.86362
 C990 C 1.08924 1.09002 0.79979
 C991 C 0.84630 0.93213 0.93194
 H992 H 0.86433 0.93998 0.93980
 C993 C 0.80050 0.91100 0.91086
 C994 C 1.15361 1.06822 0.93159
 H995 H 1.13556 1.06038 0.93945
 C996 C 1.19943 1.08932 0.91049
 C997 C 0.93199 0.84653 0.93182
 H998 H 0.93984 0.86455 0.93972
 C999 C 0.91088 0.80076 0.91056
 C1000 C 1.06836 1.15397 0.93124
 H1001 H 1.06046 1.13596 0.93917
 C1002 C 1.08954 1.19978 0.90998
 C1003 C 0.93198 1.06830 0.84617
 H1004 H 0.93992 1.06045 0.86422
 C1005 C 0.91056 1.08939 0.80033
 C1006 C 1.06802 0.93225 0.84601
 H1007 H 1.06011 0.94015 0.86404
 C1008 C 1.08933 0.91103 0.80022
 C1009 C 1.06816 0.84649 0.93203
 H1010 H 1.06025 0.86448 0.93996
 C1011 C 1.08948 0.80082 0.91071
 C1012 C 0.93205 1.15377 0.93185
 H1013 H 0.93997 1.13574 0.93972
 C1014 C 0.91074 1.19954 0.91066
 C1015 C 0.84651 1.06826 0.93181
 H1016 H 0.86450 1.06037 0.93974
 C1017 C 0.80077 1.08942 0.91049
 C1018 C 1.15312 0.93212 0.93186
 H1019 H 1.13508 0.93995 0.93973
 C1020 C 1.19898 0.91108 0.91067
 O1021 O 1.02550 0.90543 1.13084
 O1022 O 1.02546 0.87491 1.16144
 C1023 C 1.03453 0.89610 1.15207
 C1024 C 1.05647 0.90946 1.16542
 C1025 C 1.06718 0.89897 1.18850
 H1026 H 1.05873 0.88163 1.19734
 O1027 O 0.97482 1.09426 1.13050
 O1028 O 0.97484 1.12472 1.16110
 C1029 C 0.96579 1.10356 1.15174
 C1030 C 0.94390 1.09016 1.16516
 C1031 C 0.93320 1.10064 1.18825
 H1032 H 0.94159 1.11803 1.19701
 O1033 O 0.86983 1.02558 1.09503
 O1034 O 0.83933 1.02564 1.12559
 C1035 C 0.84867 1.03469 1.10436
 C1036 C 0.83531 1.05663 1.09088
 C1037 C 0.81223 1.06736 1.10128
 H1038 H 0.80344 1.05898 1.11871
 O1039 O 1.13065 0.97414 1.09477
 O1040 O 1.16115 0.97414 1.12531
 C1041 C 1.15184 0.96510 1.10409
 C1042 C 1.16522 0.94322 1.09062
 C1043 C 1.18830 0.93248 1.10100
 H1044 H 1.19711 0.94083 1.11840
 O1045 O 1.09466 0.86943 1.02619
 O1046 O 1.12516 0.83894 1.02605
 C1047 C 1.10402 0.84824 1.03525
 C1048 C 1.09067 0.83484 1.05733
 C1049 C 1.10109 0.81175 1.06813
 H1050 H 1.11846 0.80296 1.05974
 O1051 O 0.90558 1.13028 1.02574
 O1052 O 0.87516 1.16086 1.02582
 C1053 C 0.89632 1.15147 1.03485
 C1054 C 0.90982 1.16478 1.05681
 C1055 C 0.89947 1.18784 1.06765
 H1056 H 0.88207 1.19667 1.05935
 O1057 O 0.90550 0.97425 1.13086
 O1058 O 0.87506 0.97435 1.16148
 C1059 C 0.89618 0.96520 1.15211
 C1060 C 0.90951 0.94320 1.16553
 C1061 C 0.89899 0.93248 1.18862
 H1062 H 0.88163 0.94093 1.19738
 O1063 O 1.09471 1.02514 1.13057
 O1064 O 1.12515 1.02516 1.16116
 C1065 C 1.10398 1.03418 1.15180
 C1066 C 1.09055 1.05607 1.16518
 C1067 C 1.10099 1.06679 1.18826
 H1068 H 1.11837 1.05839 1.19705
 O1069 O 0.97457 0.86966 1.09487
 O1070 O 0.97445 0.83908 1.12540
 C1071 C 0.96548 0.84847 1.10415
 C1072 C 0.94362 0.83516 1.09060
 C1073 C 0.93287 0.81206 1.10096
 H1074 H 0.94119 0.80319 1.11837
 O1075 O 1.02585 1.13012 1.09461
 O1076 O 1.02589 1.16060 1.12517
 C1077 C 1.03488 1.15130 1.10391
 C1078 C 1.05669 1.16473 1.09038
 C1079 C 1.06741 1.18779 1.10079
 H1080 H 1.05912 1.19653 1.11828
 O1081 O 0.86973 0.90559 1.02574
 O1082 O 0.83927 0.87508 1.02582
 C1083 C 0.84858 0.89627 1.03487
 C1084 C 0.83523 0.90971 1.05684
 C1085 C 0.81213 0.89938 1.06758
 H1086 H 0.80331 0.88203 1.05919
 O1087 O 1.13025 1.09467 1.02545
 O1088 O 1.16078 1.12511 1.02550
 C1089 C 1.15140 1.10394 1.03460
 C1090 C 1.16472 1.09047 1.05663
 C1091 C 1.18778 1.10084 1.06740
 H1092 H 1.19657 1.11823 1.05901
 O1093 O 1.02590 1.09428 1.13049
 O1094 O 1.02595 1.12473 1.16109
 C1095 C 1.03496 1.10354 1.15173
 C1096 C 1.05682 1.09004 1.16514
 C1097 C 1.06761 1.10044 1.18822
 H1098 H 1.05933 1.11789 1.19699
 O1099 O 0.97436 0.90510 1.13106
 O1100 O 0.97428 0.87459 1.16165
 C1101 C 0.96523 0.89577 1.15227
 C1102 C 0.94324 0.90921 1.16562
 C1103 C 0.93237 0.89879 1.18870
 H1104 H 0.94065 0.88136 1.19753
 O1105 O 1.13037 1.02533 1.09464
 O1106 O 1.16086 1.02537 1.12517
 C1107 C 1.15149 1.03446 1.10396
 C1108 C 1.16477 1.05650 1.09053
 C1109 C 1.18782 1.06721 1.10095
 H1110 H 1.19663 1.05879 1.11834
 O1111 O 0.86985 0.97443 1.09491
 O1112 O 0.83936 0.97447 1.12548
 C1113 C 0.84866 0.96542 1.10424
 C1114 C 0.83526 0.94356 1.09076
 C1115 C 0.81216 0.93291 1.10116
 H1116 H 0.80337 0.94130 1.11857
 O1117 O 1.09446 1.13042 1.02522
 O1118 O 1.12493 1.16091 1.02528
 C1119 C 1.10375 1.15157 1.03432
 C1120 C 1.09035 1.16488 1.05629
 C1121 C 1.10074 1.18793 1.06701
 H1122 H 1.11807 1.19677 1.05856
 O1123 O 0.90564 0.86994 1.02564
 O1124 O 0.87522 0.83938 1.02569
 C1125 C 0.89639 0.84873 1.03472
 C1126 C 0.90983 0.83532 1.05664
 C1127 C 0.89943 0.81222 1.06732
 H1128 H 0.88206 0.80347 1.05890
 O1129 O 1.09477 0.97402 1.13057
 O1130 O 1.12522 0.97399 1.16115
 C1131 C 1.10404 0.96496 1.15182
 C1132 C 1.09054 0.94309 1.16528
 C1133 C 1.10093 0.93225 1.18838
 H1134 H 1.11838 0.94048 1.19714
 O1135 O 0.90574 1.02542 1.13071
 O1136 O 0.87530 1.02555 1.16132
 C1137 C 0.89648 1.03453 1.15193
 C1138 C 0.90997 1.05642 1.16526
 C1139 C 0.89959 1.06725 1.18833
 H1140 H 0.88216 1.05899 1.19715
 O1141 O 0.97475 1.13010 1.09467
 O1142 O 0.97478 1.16059 1.12523
 C1143 C 0.96570 1.15128 1.10402
 C1144 C 0.94377 1.16468 1.09062
 C1145 C 0.93309 1.18774 1.10112
 H1146 H 0.94152 1.19648 1.11853
 O1147 O 1.02571 0.86937 1.09530
 O1148 O 1.02563 0.83881 1.12583
 C1149 C 1.03477 0.84817 1.10465
 C1150 C 1.05678 0.83482 1.09126
 C1151 C 1.06752 0.81173 1.10172
 H1152 H 1.05911 0.80292 1.11912
 O1153 O 1.13043 0.90523 1.02595
 O1154 O 1.16098 0.87478 1.02577
 C1155 C 1.15167 0.89595 1.03488
 C1156 C 1.16514 0.90938 1.05673
 C1157 C 1.18823 0.89898 1.06739
 H1158 H 1.19700 0.88159 1.05898
 O1159 O 0.86978 1.09455 1.02576
 O1160 O 0.83931 1.12507 1.02579
 C1161 C 0.84863 1.10388 1.03487
 C1162 C 0.83528 1.09046 1.05688
 C1163 C 0.81221 1.10085 1.06760
 H1164 H 0.80339 1.11822 1.05917
 Cu1165 Cu 1.00003 0.89044 1.10996
 Cu1166 Cu 0.99995 0.85379 1.14664
 Cu1167 Cu 1.00034 1.10913 1.10950
 Cu1168 Cu 1.00037 1.14572 1.14622
 Cu1169 Cu 0.89067 0.89083 1.00005
 Cu1170 Cu 0.85414 0.85418 1.00012
 Cu1171 Cu 1.10932 0.89048 1.00046
 Cu1172 Cu 1.14597 0.85391 1.00023
 Cu1173 Cu 0.89071 1.10938 1.00010
 Cu1174 Cu 0.85417 1.14606 1.00015
 Cu1175 Cu 1.10938 1.10951 0.99969
 Cu1176 Cu 1.14600 1.14608 0.99974
 Cu1177 Cu 0.89078 0.99991 1.10981
 Cu1178 Cu 0.85421 1.00001 1.14654
 Cu1179 Cu 1.10958 0.99964 1.10956
 Cu1180 Cu 1.14616 0.99966 1.14626
 C1181 C 1.06812 0.93171 1.15411
 H1182 H 1.06024 0.93966 1.13608
 C1183 C 1.08930 0.91028 1.19990
 C1184 C 0.93231 1.06786 1.15397
 H1185 H 0.94019 1.05991 1.13594
 C1186 C 0.91115 1.08925 1.19974
 C1187 C 0.84654 1.06817 1.06850
 H1188 H 0.86456 1.06029 1.06062
 C1189 C 0.80075 1.08936 1.08970
 C1190 C 1.15394 0.93169 1.06831
 H1191 H 1.13592 0.93958 1.06046
 C1192 C 1.19974 0.91047 1.08942
 C1193 C 1.06836 0.84606 1.06890
 H1194 H 1.06046 0.86407 1.06098
 C1195 C 1.08957 0.80025 1.09024
 C1196 C 0.93215 1.15350 1.06829
 H1197 H 0.94001 1.13550 1.06034
 C1198 C 0.91105 1.19923 1.08970
 C1199 C 0.93180 0.93159 1.15434
 H1200 H 0.93978 0.93949 1.13632
 C1201 C 0.91034 0.91038 1.20014
 C1202 C 1.06827 1.06766 1.15392
 H1203 H 1.06036 1.05978 1.13590
 C1204 C 1.08960 1.08887 1.19968
 C1205 C 0.93211 0.84650 1.06826
 H1206 H 0.93999 0.86455 1.06041
 C1207 C 0.91088 0.80068 1.08936
 C1208 C 1.06814 1.15358 1.06794
 H1209 H 1.06027 1.13556 1.06005
 C1210 C 1.08933 1.19930 1.08915
 C1211 C 0.84649 0.93198 1.06842
 H1212 H 0.86453 0.93982 1.06053
 C1213 C 0.80068 0.91092 1.08964
 C1214 C 1.15350 1.06813 1.06820
 H1215 H 1.13551 1.06026 1.06030
 C1216 C 1.19926 1.08927 1.08945
 O1217 O 0.97452 0.40507 0.36892
 O1218 O 0.97470 0.37455 0.33839
 C1219 C 0.96552 0.39569 0.34770
 C1220 C 0.94351 0.40898 0.33430
 C1221 C 0.93275 0.39845 0.31126
 H1222 H 0.94118 0.38107 0.30249
 O1223 O 1.02605 0.59456 0.36911
 O1224 O 1.02585 0.62503 0.33847
 C1225 C 1.03504 0.60391 0.34785
 C1226 C 1.05706 0.59061 0.33445
 C1227 C 1.06777 0.60115 0.31137
 H1228 H 1.05930 0.61851 0.30259
 O1229 O 0.86964 0.47382 0.40487
 O1230 O 0.83919 0.47400 0.37429
 C1231 C 0.84844 0.46487 0.39552
 C1232 C 0.83500 0.44300 0.40901
 C1233 C 0.81194 0.43226 0.39862
 H1234 H 0.80317 0.44059 0.38116
 O1235 O 1.13069 0.52551 0.40521
 O1236 O 1.16123 0.52552 0.37470
 C1237 C 1.15189 0.53455 0.39593
 C1238 C 1.16521 0.55645 0.40944
 C1239 C 1.18833 0.56718 0.39912
 H1240 H 1.19721 0.55883 0.38174
 O1241 O 0.90551 0.36965 0.47407
 O1242 O 0.87512 0.33907 0.47416
 C1243 C 0.89627 0.34843 0.46505
 C1244 C 0.90975 0.33503 0.44312
 C1245 C 0.89941 0.31193 0.43241
 H1246 H 0.88202 0.30315 0.44078
 O1247 O 1.09469 0.63045 0.47407
 O1248 O 1.12516 0.66094 0.47408
 C1249 C 1.10402 0.65163 0.46497
 C1250 C 1.09064 0.66502 0.44295
 C1251 C 1.10105 0.68808 0.43215
 H1252 H 1.11841 0.69687 0.44056
 O1253 O 0.90586 0.52490 0.36931
 O1254 O 0.87545 0.52512 0.33868
 C1255 C 0.89661 0.53409 0.34811
 C1256 C 0.91003 0.55609 0.33482
 C1257 C 0.89956 0.56688 0.31176
 H1258 H 0.88221 0.55848 0.30295
 O1259 O 1.09472 0.47456 0.36939
 O1260 O 1.12521 0.47449 0.33881
 C1261 C 1.10402 0.46547 0.34818
 C1262 C 1.09061 0.44353 0.33482
 C1263 C 1.10110 0.43279 0.31175
 H1264 H 1.11849 0.44117 0.30298
 O1265 O 1.02568 0.36952 0.40506
 O1266 O 1.02584 0.33896 0.37458
 C1267 C 1.03479 0.34832 0.39582
 C1268 C 1.05664 0.33496 0.40939
 C1269 C 1.06741 0.31188 0.39901
 H1270 H 1.05913 0.30311 0.38154
 O1271 O 0.97485 0.63021 0.40509
 O1272 O 0.97468 0.66074 0.37452
 C1273 C 0.96572 0.65139 0.39579
 C1274 C 0.94383 0.66474 0.40932
 C1275 C 0.93312 0.68788 0.39897
 H1276 H 0.94148 0.69673 0.38156
 O1277 O 0.87002 0.59426 0.47414
 O1278 O 0.83952 0.62475 0.47404
 C1279 C 0.84887 0.60357 0.46498
 C1280 C 0.83555 0.59013 0.44297
 C1281 C 0.81245 0.60051 0.43223
 H1282 H 0.80366 0.61789 0.44062
 O1283 O 1.13051 0.40486 0.47421
 O1284 O 1.16098 0.37433 0.47420
 C1285 C 1.15166 0.39551 0.46506
 C1286 C 1.16500 0.40895 0.44297
 C1287 C 1.18805 0.39853 0.43210
 H1288 H 1.19682 0.38109 0.44042
 O1289 O 0.97486 0.59431 0.36934
 O1290 O 0.97464 0.62479 0.33872
 C1291 C 0.96568 0.60358 0.34814
 C1292 C 0.94374 0.59010 0.33484
 C1293 C 0.93289 0.60055 0.31178
 H1294 H 0.94113 0.61801 0.30299
 O1295 O 1.02569 0.40544 0.36926
 O1296 O 1.02591 0.37492 0.33873
 C1297 C 1.03488 0.39614 0.34809
 C1298 C 1.05683 0.40961 0.33477
 C1299 C 1.06768 0.39920 0.31171
 H1300 H 1.05940 0.38179 0.30290
 O1301 O 1.13063 0.47428 0.40508
 O1302 O 1.16117 0.47426 0.37456
 C1303 C 1.15178 0.46513 0.39575
 C1304 C 1.16506 0.44303 0.40914
 C1305 C 1.18809 0.43228 0.39865
 H1306 H 1.19690 0.44076 0.38128
 O1307 O 0.86990 0.52500 0.40496
 O1308 O 0.83944 0.52521 0.37439
 C1309 C 0.84878 0.53420 0.39563
 C1310 C 0.83549 0.55621 0.40908
 C1311 C 0.81241 0.56694 0.39870
 H1312 H 0.80358 0.55853 0.38132
 O1313 O 0.90580 0.63005 0.47430
 O1314 O 0.87534 0.66059 0.47421
 C1315 C 0.89653 0.65126 0.46520
 C1316 C 0.91001 0.66468 0.44328
 C1317 C 0.89965 0.68781 0.43260
 H1318 H 0.88229 0.69661 0.44103
 O1319 O 1.09445 0.36937 0.47451
 O1320 O 1.12487 0.33879 0.47451
 C1321 C 1.10372 0.34817 0.46544
 C1322 C 1.09031 0.33486 0.44347
 C1323 C 1.10074 0.31180 0.43275
 H1324 H 1.11807 0.30297 0.44120
 O1325 O 1.09517 0.52577 0.36908
 O1326 O 1.12565 0.52575 0.33851
 C1327 C 1.10450 0.53487 0.34784
 C1328 C 1.09109 0.55689 0.33444
 C1329 C 1.10149 0.56779 0.31134
 H1330 H 1.11891 0.55952 0.30254
 O1331 O 0.90541 0.47369 0.36896
 O1332 O 0.87500 0.47387 0.33833
 C1333 C 0.89612 0.46469 0.34770
 C1334 C 0.90951 0.44271 0.33430
 C1335 C 0.89907 0.43185 0.31125
 H1336 H 0.88163 0.44013 0.30248
 O1337 O 1.02597 0.63038 0.40492
 O1338 O 1.02582 0.66090 0.37433
 C1339 C 1.03494 0.65160 0.39555
 C1340 C 1.05684 0.66501 0.40898
 C1341 C 1.06759 0.68807 0.39851
 H1342 H 1.05923 0.69686 0.38106
 O1343 O 0.97458 0.36954 0.40506
 O1344 O 0.97472 0.33897 0.37459
 C1345 C 0.96560 0.34832 0.39578
 C1346 C 0.94368 0.33496 0.40925
 C1347 C 0.93301 0.31185 0.39888
 H1348 H 0.94144 0.30302 0.38151
 O1349 O 1.13034 0.59451 0.47422
 O1350 O 1.16086 0.62496 0.47426
 C1351 C 1.15155 0.60377 0.46520
 C1352 C 1.16502 0.59030 0.44334
 C1353 C 1.18813 0.60069 0.43272
 H1354 H 1.19686 0.61807 0.44115
 O1355 O 0.86953 0.40525 0.47409
 O1356 O 0.83910 0.37472 0.47422
 C1357 C 0.84837 0.39589 0.46507
 C1358 C 0.83497 0.40926 0.44308
 C1359 C 0.81191 0.39884 0.43239
 H1360 H 0.80312 0.38149 0.44087
 Cu1361 Cu 1.00010 0.39046 0.39011
 Cu1362 Cu 1.00032 0.35380 0.35351
 Cu1363 Cu 1.00046 0.60931 0.39017
 Cu1364 Cu 1.00022 0.64591 0.35343
 Cu1365 Cu 0.89074 0.49930 0.39009
 Cu1366 Cu 0.85423 0.49958 0.35335
 Cu1367 Cu 1.10976 0.50006 0.39024
 Cu1368 Cu 1.14637 0.49999 0.35359
 C1369 C 0.93189 0.43127 0.34551
 H1370 H 0.93980 0.43924 0.36350
 C1371 C 0.91064 0.40981 0.29980
 C1372 C 1.06871 0.56832 0.34568
 H1373 H 1.06082 0.56033 0.36370
 C1374 C 1.08987 0.58983 0.29987
 C1375 C 0.84620 0.43151 0.43141
 H1376 H 0.86420 0.43939 0.43929
 C1377 C 0.80046 0.41028 0.41027
 C1378 C 1.15386 0.56800 0.43173
 H1379 H 1.13581 0.56013 0.43955
 C1380 C 1.19970 0.58920 0.41073
 C1381 C 0.93207 0.34624 0.43156
 H1382 H 0.93992 0.36427 0.43943
 C1383 C 0.91099 0.30042 0.41040
 C1384 C 1.06836 0.65380 0.43137
 H1385 H 1.06046 0.63580 0.43932
 C1386 C 1.08959 0.69953 0.41003
 C1387 C 0.93230 0.56769 0.34608
 H1388 H 0.94024 0.55976 0.36410
 C1389 C 0.91091 0.58899 0.30032
 C1390 C 1.06830 0.43195 0.34604
 H1391 H 1.06036 0.43983 0.36407
 C1392 C 1.08971 0.41074 0.30029
 C1393 C 1.06808 0.34615 0.43180
 H1394 H 1.06018 0.36417 0.43968
 C1395 C 1.08935 0.30039 0.41064
 C1396 C 0.93229 0.65344 0.43167
 H1397 H 0.94015 0.63538 0.43952
 C1398 C 0.91114 0.69934 0.41055
 C1399 C 0.84677 0.56780 0.43139
 H1400 H 0.86480 0.55993 0.43926
 C1401 C 0.80096 0.58899 0.41019
 C1402 C 1.15381 0.43136 0.43146
 H1403 H 1.13584 0.43927 0.43942
 C1404 C 1.19953 0.41013 0.41003
 O1405 O 1.02534 0.40536 0.63059
 O1406 O 1.02535 0.37485 0.66119
 C1407 C 1.03439 0.39604 0.65182
 C1408 C 1.05631 0.40943 0.66516
 C1409 C 1.06701 0.39897 0.68827
 H1410 H 1.05858 0.38162 0.69711
 O1411 O 0.97474 0.59431 0.63052
 O1412 O 0.97470 0.62478 0.66110
 C1413 C 0.96567 0.60360 0.65175
 C1414 C 0.94374 0.59020 0.66514
 C1415 C 0.93302 0.60068 0.68822
 H1416 H 0.94143 0.61805 0.69700
 O1417 O 0.86980 0.52545 0.59484
 O1418 O 0.83924 0.52551 0.62535
 C1419 C 0.84860 0.53453 0.60411
 C1420 C 0.83525 0.55642 0.59056
 C1421 C 0.81217 0.56718 0.60090
 H1422 H 0.80336 0.55887 0.61835
 O1423 O 1.13040 0.47414 0.59462
 O1424 O 1.16091 0.47406 0.62514
 C1425 C 1.15158 0.46505 0.60391
 C1426 C 1.16496 0.44316 0.59041
 C1427 C 1.18809 0.43247 0.60074
 H1428 H 1.19692 0.44085 0.61812
 O1429 O 1.09479 0.36920 0.52585
 O1430 O 1.12521 0.33862 0.52589
 C1431 C 1.10407 0.34801 0.53502
 C1432 C 1.09064 0.33469 0.55712
 C1433 C 1.10098 0.31158 0.56798
 H1434 H 1.11835 0.30274 0.55963
 O1435 O 0.90557 0.63005 0.52560
 O1436 O 0.87511 0.66058 0.52553
 C1437 C 0.89624 0.65123 0.53468
 C1438 C 0.90963 0.66459 0.55670
 C1439 C 0.89922 0.68767 0.56745
 H1440 H 0.88183 0.69646 0.55908
 O1441 O 0.90548 0.47421 0.63079
 O1442 O 0.87498 0.47428 0.66135
 C1443 C 0.89612 0.46515 0.65202
 C1444 C 0.90943 0.44314 0.66542
 C1445 C 0.89891 0.43241 0.68851
 H1446 H 0.88156 0.44087 0.69728
 O1447 O 1.09467 0.52533 0.63050
 O1448 O 1.12513 0.52523 0.66108
 C1449 C 1.10399 0.53436 0.65172
 C1450 C 1.09066 0.55635 0.66510
 C1451 C 1.10116 0.56710 0.68814
 H1452 H 1.11855 0.55869 0.69691
 O1453 O 0.97444 0.36953 0.59466
 O1454 O 0.97433 0.33898 0.62521
 C1455 C 0.96536 0.34834 0.60395
 C1456 C 0.94351 0.33502 0.59041
 C1457 C 0.93274 0.31195 0.60080
 H1458 H 0.94101 0.30313 0.61826
 O1459 O 1.02574 0.63024 0.59464
 O1460 O 1.02573 0.66077 0.62516
 C1461 C 1.03476 0.65144 0.60393
 C1462 C 1.05662 0.66484 0.59042
 C1463 C 1.06735 0.68790 0.60081
 H1464 H 1.05903 0.69668 0.61826
 O1465 O 0.86978 0.40544 0.52539
 O1466 O 0.83935 0.37491 0.52554
 C1467 C 0.84866 0.39611 0.53456
 C1468 C 0.83534 0.40954 0.55657
 C1469 C 0.81223 0.39921 0.56730
 H1470 H 0.80340 0.38188 0.55888
 O1471 O 1.13027 0.59456 0.52546
 O1472 O 1.16078 0.62501 0.52552
 C1473 C 1.15143 0.60383 0.53458
 C1474 C 1.16476 0.59033 0.55656
 C1475 C 1.18780 0.60070 0.56733
 H1476 H 1.19658 0.61811 0.55897
 O1477 O 1.02587 0.59446 0.63056
 O1478 O 1.02587 0.62493 0.66113
 C1479 C 1.03495 0.60376 0.65177
 C1480 C 1.05690 0.59032 0.66513
 C1481 C 1.06775 0.60074 0.68818
 H1482 H 1.05945 0.61817 0.69698
 O1483 O 0.97420 0.40497 0.63086
 O1484 O 0.97416 0.37447 0.66146
 C1485 C 0.96509 0.39565 0.65210
 C1486 C 0.94312 0.40909 0.66547
 C1487 C 0.93224 0.39868 0.68856
 H1488 H 0.94050 0.38123 0.69738
 O1489 O 1.13030 0.52532 0.59453
 O1490 O 1.16081 0.52526 0.62507
 C1491 C 1.15147 0.53437 0.60386
 C1492 C 1.16479 0.55635 0.59042
 C1493 C 1.18784 0.56705 0.60086
 H1494 H 1.19664 0.55863 0.61826
 O1495 O 0.86993 0.47430 0.59475
 O1496 O 0.83937 0.47432 0.62525
 C1497 C 0.84873 0.46526 0.60404
 C1498 C 0.83538 0.44336 0.59054
 C1499 C 0.81226 0.43271 0.60091
 H1500 H 0.80345 0.44110 0.61831
 O1501 O 1.09450 0.63035 0.52535
 O1502 O 1.12497 0.66085 0.52539
 C1503 C 1.10380 0.65152 0.53444
 C1504 C 1.09038 0.66487 0.55640
 C1505 C 1.10077 0.68794 0.56711
 H1506 H 1.11812 0.69674 0.55867
 O1507 O 0.90558 0.36968 0.52532
 O1508 O 0.87519 0.33911 0.52543
 C1509 C 0.89634 0.34848 0.53444
 C1510 C 0.90979 0.33511 0.55638
 C1511 C 0.89938 0.31202 0.56708
 H1512 H 0.88203 0.30324 0.55864
 O1513 O 1.09452 0.47414 0.63042
 O1514 O 1.12498 0.47402 0.66099
 C1515 C 1.10379 0.46502 0.65165
 C1516 C 1.09030 0.44313 0.66506
 C1517 C 1.10068 0.43232 0.68818
 H1518 H 1.11811 0.44057 0.69695
 O1519 O 0.90564 0.52542 0.63064
 O1520 O 0.87514 0.52553 0.66119
 C1521 C 0.89633 0.53454 0.65183
 C1522 C 0.90978 0.55647 0.66518
 C1523 C 0.89937 0.56732 0.68825
 H1524 H 0.88194 0.55906 0.69705
 O1525 O 0.97462 0.63015 0.59470
 O1526 O 0.97457 0.66068 0.62522
 C1527 C 0.96551 0.65132 0.60402
 C1528 C 0.94353 0.66464 0.59058
 C1529 C 0.93280 0.68773 0.60098
 H1530 H 0.94120 0.69655 0.61836
 O1531 O 1.02559 0.36932 0.59503
 O1532 O 1.02552 0.33876 0.62557
 C1533 C 1.03466 0.34812 0.60438
 C1534 C 1.05668 0.33476 0.59100
 C1535 C 1.06736 0.31166 0.60150
 H1536 H 1.05891 0.30288 0.61889
 O1537 O 1.13037 0.40517 0.52553
 O1538 O 1.16085 0.37465 0.52556
 C1539 C 1.15155 0.39587 0.53459
 C1540 C 1.16493 0.40933 0.55648
 C1541 C 1.18805 0.39896 0.56714
 H1542 H 1.19684 0.38160 0.55872
 O1543 O 0.86985 0.59424 0.52546
 O1544 O 0.83934 0.62473 0.52536
 C1545 C 0.84866 0.60355 0.53449
 C1546 C 0.83527 0.59016 0.55647
 C1547 C 0.81219 0.60059 0.56714
 H1548 H 0.80341 0.61796 0.55867
 Cu1549 Cu 0.99988 0.39035 0.60973
 Cu1550 Cu 0.99984 0.35370 0.64642
 Cu1551 Cu 1.00026 0.60924 0.60955
 Cu1552 Cu 1.00021 0.64584 0.64622
 Cu1553 Cu 0.89063 0.39058 0.49969
 Cu1554 Cu 0.85414 0.35389 0.49985
 Cu1555 Cu 1.10949 0.39020 0.50003
 Cu1556 Cu 1.14602 0.35354 0.50005
 Cu1557 Cu 0.89086 0.60909 0.49988
 Cu1558 Cu 0.85427 0.64572 0.49977
 Cu1559 Cu 1.10938 0.60943 0.49976
 Cu1560 Cu 1.14600 0.64600 0.49981
 Cu1561 Cu 0.89077 0.49985 0.60971
 Cu1562 Cu 0.85413 0.49991 0.64635
 Cu1563 Cu 1.10942 0.49973 0.60946
 Cu1564 Cu 1.14601 0.49962 0.64613
 C1565 C 1.06793 0.43170 0.65386
 H1566 H 1.06005 0.43964 0.63582
 C1567 C 1.08907 0.41035 0.69970
 C1568 C 0.93214 0.56791 0.65392
 H1569 H 0.94003 0.55997 0.63590
 C1570 C 0.91095 0.58932 0.69968
 C1571 C 0.84650 0.56789 0.56816
 H1572 H 0.86452 0.55999 0.56031
 C1573 C 0.80072 0.58916 0.58925
 C1574 C 1.15368 0.43161 0.56810
 H1575 H 1.13563 0.43945 0.56027
 C1576 C 1.19955 0.41047 0.58915
 C1577 C 1.06832 0.34597 0.56866
 H1578 H 1.06047 0.36399 0.56070
 C1579 C 1.08941 0.30014 0.59007
 C1580 C 0.93195 0.65338 0.56826
 H1581 H 0.93985 0.63536 0.56038
 C1582 C 0.91075 0.69917 0.58949
 C1583 C 0.93170 0.43149 0.65421
 H1584 H 0.93966 0.43938 0.63618
 C1585 C 0.91023 0.41029 0.70001
 C1586 C 1.06835 0.56795 0.65389
 H1587 H 1.06039 0.56005 0.63589
 C1588 C 1.08977 0.58918 0.69961
 C1589 C 0.93204 0.34632 0.56802
 H1590 H 0.93993 0.36435 0.56014
 C1591 C 0.91078 0.30054 0.58917
 C1592 C 1.06812 0.65362 0.56803
 H1593 H 1.06025 0.63560 0.56015
 C1594 C 1.08932 0.69937 0.58920
 C1595 C 0.84662 0.43179 0.56820
 H1596 H 0.86467 0.43962 0.56034
 C1597 C 0.80077 0.41074 0.58935
 C1598 C 1.15355 0.56798 0.56809
 H1599 H 1.13555 0.56011 0.56017
 C1600 C 1.19926 0.58912 0.58937
 O1601 O 0.59458 1.02598 0.63097
 O1602 O 0.62510 1.02583 0.66148
 C1603 C 0.60397 1.03501 0.65218
 C1604 C 0.59071 1.05705 0.66558
 C1605 C 0.60124 1.06778 0.68863
 H1606 H 0.61859 1.05932 0.69740
 O1607 O 0.40526 0.97473 0.63044
 O1608 O 0.37486 0.97472 0.66110
 C1609 C 0.39602 0.96569 0.65172
 C1610 C 0.40946 0.94381 0.66515
 C1611 C 0.39904 0.93314 0.68828
 H1612 H 0.38167 0.94155 0.69707
 O1613 O 0.52559 1.13047 0.59460
 O1614 O 0.52558 1.16102 0.62510
 C1615 C 0.53460 1.15168 0.60386
 C1616 C 0.55645 1.16504 0.59031
 C1617 C 0.56721 1.18808 0.60071
 H1618 H 0.55891 1.19687 0.61817
 O1619 O 0.47423 0.86994 0.59476
 O1620 O 0.47420 0.83939 0.62532
 C1621 C 0.46518 0.84874 0.60408
 C1622 C 0.44332 0.83537 0.59059
 C1623 C 0.43256 0.81231 0.60103
 H1624 H 0.44083 0.80355 0.61853
 O1625 O 0.63012 1.09481 0.52536
 O1626 O 0.66066 1.12523 0.52540
 C1627 C 0.65129 1.10406 0.53447
 C1628 C 0.66462 1.09057 0.55647
 C1629 C 0.68772 1.10088 0.56719
 H1630 H 0.69655 1.11824 0.55877
 O1631 O 0.36967 0.90535 0.52543
 O1632 O 0.33917 0.87490 0.52564
 C1633 C 0.34853 0.89609 0.53464
 C1634 C 0.33523 0.90958 0.55662
 C1635 C 0.31213 0.89926 0.56740
 H1636 H 0.30331 0.88189 0.55905
 O1637 O 0.47479 1.09446 0.63057
 O1638 O 0.47467 1.12495 0.66113
 C1639 C 0.46569 1.10374 0.65178
 C1640 C 0.44376 1.09031 0.66511
 C1641 C 0.43304 1.10072 0.68821
 H1642 H 0.44148 1.11803 0.69707
 O1643 O 0.52529 0.90572 0.63058
 O1644 O 0.52530 0.87522 0.66119
 C1645 C 0.53434 0.89641 0.65182
 C1646 C 0.55624 0.90981 0.66520
 C1647 C 0.56701 0.89928 0.68825
 H1648 H 0.55867 0.88185 0.69702
 O1649 O 0.63009 0.97468 0.59497
 O1650 O 0.66066 0.97455 0.62543
 C1651 C 0.65128 0.96555 0.60422
 C1652 C 0.66461 0.94364 0.59069
 C1653 C 0.68772 0.93290 0.60101
 H1654 H 0.69655 0.94123 0.61843
 O1655 O 0.36923 1.02583 0.59473
 O1656 O 0.33879 1.02579 0.62534
 C1657 C 0.34806 1.03486 0.60410
 C1658 C 0.33464 1.05675 0.59065
 C1659 C 0.31156 1.06747 0.60106
 H1660 H 0.30278 1.05910 0.61849
 O1661 O 0.40526 1.13041 0.52605
 O1662 O 0.37475 1.16090 0.52592
 C1663 C 0.39589 1.15157 0.53513
 C1664 C 0.40921 1.16493 0.55721
 C1665 C 0.39874 1.18797 0.56803
 H1666 H 0.38132 1.19671 0.55967
 O1667 O 0.59442 0.87003 0.52562
 O1668 O 0.62486 0.83946 0.52569
 C1669 C 0.60369 0.84883 0.53475
 C1670 C 0.59024 0.83546 0.55674
 C1671 C 0.60061 0.81235 0.56750
 H1672 H 0.61798 0.80355 0.55912
 O1673 O 0.40537 1.02585 0.63023
 O1674 O 0.37497 1.02585 0.66089
 C1675 C 0.39614 1.03488 0.65150
 C1676 C 0.40968 1.05670 0.66493
 C1677 C 0.39929 1.06746 0.68804
 H1678 H 0.38182 1.05922 0.69679
 O1679 O 0.59418 0.97477 0.63071
 O1680 O 0.62471 0.97458 0.66122
 C1681 C 0.60350 0.96561 0.65189
 C1682 C 0.59008 0.94365 0.66524
 C1683 C 0.60053 0.93277 0.68828
 H1684 H 0.61794 0.94106 0.69706
 O1685 O 0.52534 0.86995 0.59476
 O1686 O 0.52535 0.83939 0.62532
 C1687 C 0.53441 0.84875 0.60409
 C1688 C 0.55635 0.83541 0.59064
 C1689 C 0.56704 0.81230 0.60105
 H1690 H 0.55864 0.80347 0.61845
 O1691 O 0.47443 1.13063 0.59510
 O1692 O 0.47438 1.16118 0.62559
 C1693 C 0.46527 1.15178 0.60443
 C1694 C 0.44317 1.16504 0.59107
 C1695 C 0.43236 1.18808 0.60152
 H1696 H 0.44076 1.19691 0.61889
 O1697 O 0.36934 1.09477 0.52583
 O1698 O 0.33879 1.12522 0.52565
 C1699 C 0.34810 1.10405 0.53479
 C1700 C 0.33465 1.09061 0.55670
 C1701 C 0.31156 1.10100 0.56740
 H1702 H 0.30277 1.11838 0.55898
 O1703 O 0.63012 0.90586 0.52555
 O1704 O 0.66060 0.87534 0.52559
 C1705 C 0.65127 0.89653 0.53466
 C1706 C 0.66461 0.90991 0.55665
 C1707 C 0.68771 0.89950 0.56731
 H1708 H 0.69651 0.88216 0.55885
 O1709 O 0.47420 0.90570 0.63061
 O1710 O 0.47416 0.87521 0.66123
 C1711 C 0.46513 0.89641 0.65186
 C1712 C 0.44324 0.90989 0.66523
 C1713 C 0.43247 0.89952 0.68837
 H1714 H 0.44078 0.88211 0.69721
 O1715 O 0.52593 1.09513 0.63098
 O1716 O 0.52586 1.12562 0.66153
 C1717 C 0.53500 1.10448 0.65220
 C1718 C 0.55700 1.09108 0.66559
 C1719 C 0.56788 1.10150 0.68865
 H1720 H 0.55960 1.11894 0.69744
 O1721 O 0.36963 0.97465 0.59448
 O1722 O 0.33920 0.97458 0.62510
 C1723 C 0.34852 0.96552 0.60386
 C1724 C 0.33521 0.94354 0.59046
 C1725 C 0.31213 0.93287 0.60089
 H1726 H 0.30332 0.94131 0.61827
 O1727 O 0.62998 1.02583 0.59474
 O1728 O 0.66055 1.02573 0.62520
 C1729 C 0.65119 1.03482 0.60399
 C1730 C 0.66457 1.05670 0.59045
 C1731 C 0.68766 1.06735 0.60083
 H1732 H 0.69644 1.05895 0.61825
 O1733 O 0.40556 0.86971 0.52530
 O1734 O 0.37510 0.83920 0.52551
 C1735 C 0.39627 0.84856 0.53449
 C1736 C 0.40968 0.83528 0.55650
 C1737 C 0.39926 0.81223 0.56725
 H1738 H 0.38195 0.80340 0.55881
 O1739 O 0.59430 1.13053 0.52524
 O1740 O 0.62479 1.16101 0.52528
 C1741 C 0.60361 1.15169 0.53433
 C1742 C 0.59021 1.16503 0.55630
 C1743 C 0.60065 1.18805 0.56704
 H1744 H 0.61803 1.19682 0.55863
 Cu1745 Cu 0.60914 1.00033 0.60981
 Cu1746 Cu 0.64581 1.00016 0.64640
 Cu1747 Cu 0.39041 1.00029 0.60939
 Cu1748 Cu 0.35390 1.00023 0.64618
 Cu1749 Cu 0.50021 1.10963 0.60977
 Cu1750 Cu 0.50012 1.14625 0.64640
 Cu1751 Cu 0.49976 0.89088 0.60961
 Cu1752 Cu 0.49975 0.85424 0.64634
 C1753 C 0.56843 1.06869 0.65437
 H1754 H 0.56045 1.06078 0.63639
 C1755 C 0.58990 1.08990 0.70012
 C1756 C 0.43175 0.93222 0.65392
 H1757 H 0.43965 0.94009 0.63586
 C1758 C 0.41047 0.91111 0.69981
 C1759 C 0.56793 1.15381 0.56792
 H1760 H 0.56003 1.13580 0.56004
 C1761 C 0.58921 1.19949 0.58913
 C1762 C 0.43188 0.84657 0.56814
 H1763 H 0.43976 0.86459 0.56023
 C1764 C 0.41064 0.80083 0.58940
 C1765 C 0.65334 1.06829 0.56809
 H1766 H 0.63532 1.06045 0.56022
 C1767 C 0.69915 1.08933 0.58926
 C1768 C 0.34648 0.93190 0.56816
 H1769 H 0.36450 0.93973 0.56025
 C1770 C 0.30067 0.91085 0.58942
 C1771 C 0.43210 1.06810 0.65376
 H1772 H 0.43999 1.06021 0.63572
 C1773 C 0.41093 1.08936 0.69958
 C1774 C 0.56775 0.93217 0.65400
 H1775 H 0.55983 0.94015 0.63599
 C1776 C 0.58905 0.91070 0.69969
 C1777 C 0.65335 0.93215 0.56833
 H1778 H 0.63531 0.94003 0.56050
 C1779 C 0.69918 0.91093 0.58939
 C1780 C 0.34587 1.06830 0.56829
 H1781 H 0.36389 1.06042 0.56041
 C1782 C 0.30009 1.08949 0.58948
 C1783 C 0.43158 1.15377 0.56876
 H1784 H 0.43953 1.13579 0.56083
 C1785 C 0.41024 1.19948 0.59009
 C1786 C 0.56793 0.84669 0.56831
 H1787 H 0.56007 0.86473 0.56041
 C1788 C 0.58907 0.80085 0.58954
 O1789 O 0.59414 0.97481 0.36946
 O1790 O 0.62455 0.97475 0.33882
 C1791 C 0.60340 0.96571 0.34824
 C1792 C 0.59001 0.94374 0.33491
 C1793 C 0.60051 0.93302 0.31185
 H1794 H 0.61788 0.94144 0.30306
 O1795 O 0.40572 1.02502 0.36931
 O1796 O 0.37522 1.02530 0.33878
 C1797 C 0.39640 1.03427 0.34816
 C1798 C 0.40976 1.05632 0.33490
 C1799 C 0.39928 1.06710 0.31184
 H1800 H 0.38195 1.05867 0.30301
 O1801 O 0.47439 1.13060 0.40531
 O1802 O 0.47417 1.16111 0.37472
 C1803 C 0.46521 1.15175 0.39599
 C1804 C 0.44327 1.16506 0.40950
 C1805 C 0.43249 1.18815 0.39909
 H1806 H 0.44081 1.19697 0.38166
 O1807 O 0.52513 0.86960 0.40519
 O1808 O 0.52543 0.83904 0.37471
 C1809 C 0.53435 0.84845 0.39595
 C1810 C 0.55631 0.83521 0.40949
 C1811 C 0.56713 0.81214 0.39916
 H1812 H 0.55880 0.80326 0.38178
 O1813 O 0.63027 0.90568 0.47422
 O1814 O 0.66074 0.87516 0.47425
 C1815 C 0.65143 0.89633 0.46512
 C1816 C 0.66478 0.90973 0.44307
 C1817 C 0.68784 0.89933 0.43228
 H1818 H 0.69664 0.88194 0.44069
 O1819 O 0.36990 1.09445 0.47456
 O1820 O 0.33934 1.12490 0.47435
 C1821 C 0.34875 1.10370 0.46534
 C1822 C 0.33548 1.09019 0.44334
 C1823 C 0.31238 1.10052 0.43258
 H1824 H 0.30354 1.11789 0.44094
 O1825 O 0.52560 1.09500 0.36929
 O1826 O 0.52539 1.12547 0.33865
 C1827 C 0.53458 1.10434 0.34802
 C1828 C 0.55656 1.09101 0.33461
 C1829 C 0.56731 1.10153 0.31153
 H1830 H 0.55892 1.11894 0.30276
 O1831 O 0.47399 0.90505 0.36893
 O1832 O 0.47428 0.87455 0.33839
 C1833 C 0.46507 0.89569 0.34768
 C1834 C 0.44310 0.90899 0.33421
 C1835 C 0.43237 0.89846 0.31117
 H1836 H 0.44079 0.88107 0.30243
 O1837 O 0.63017 1.02581 0.40514
 O1838 O 0.66064 1.02579 0.37455
 C1839 C 0.65136 1.03482 0.39581
 C1840 C 0.66477 1.05664 0.40931
 C1841 C 0.68790 1.06729 0.39897
 H1842 H 0.69673 1.05891 0.38157
 O1843 O 0.36961 0.97394 0.40493
 O1844 O 0.33905 0.97416 0.37445
 C1845 C 0.34836 0.96503 0.39566
 C1846 C 0.33492 0.94321 0.40922
 C1847 C 0.31181 0.93249 0.39891
 H1848 H 0.30302 0.94079 0.38144
 O1849 O 0.59457 1.13076 0.47395
 O1850 O 0.62506 1.16123 0.47395
 C1851 C 0.60389 1.15194 0.46485
 C1852 C 0.59047 1.16536 0.44286
 C1853 C 0.60085 1.18842 0.43202
 H1854 H 0.61826 1.19718 0.44033
 O1855 O 0.40514 0.86938 0.47400
 O1856 O 0.37467 0.83888 0.47418
 C1857 C 0.39580 0.84819 0.46498
 C1858 C 0.40916 0.83479 0.44295
 C1859 C 0.39878 0.81170 0.43220
 H1860 H 0.38140 0.80292 0.44060
 O1861 O 0.40519 0.97378 0.36881
 O1862 O 0.37469 0.97401 0.33829
 C1863 C 0.39582 0.96480 0.34758
 C1864 C 0.40916 0.94278 0.33415
 C1865 C 0.39871 0.93191 0.31110
 H1866 H 0.38129 0.94020 0.30232
 O1867 O 0.59454 1.02604 0.36915
 O1868 O 0.62496 1.02601 0.33851
 C1869 C 0.60385 1.03514 0.34791
 C1870 C 0.59047 1.05718 0.33456
 C1871 C 0.60091 1.06805 0.31149
 H1872 H 0.61831 1.05974 0.30269
 O1873 O 0.47397 0.86937 0.40495
 O1874 O 0.47423 0.83882 0.37447
 C1875 C 0.46502 0.84815 0.39563
 C1876 C 0.44305 0.83476 0.40903
 C1877 C 0.43234 0.81168 0.39861
 H1878 H 0.44075 0.80288 0.38121
 O1879 O 0.52555 1.13081 0.40511
 O1880 O 0.52535 1.16132 0.37451
 C1881 C 0.53452 1.15202 0.39571
 C1882 C 0.55649 1.16541 0.40906
 C1883 C 0.56720 1.18848 0.39855
 H1884 H 0.55877 1.19728 0.38115
 O1885 O 0.36956 0.90538 0.47419
 O1886 O 0.33905 0.87493 0.47437
 C1887 C 0.34834 0.89610 0.46524
 C1888 C 0.33492 0.90952 0.44333
 C1889 C 0.31181 0.89915 0.43274
 H1890 H 0.30301 0.88182 0.44127
 O1891 O 0.63013 1.09473 0.47412
 O1892 O 0.66068 1.12515 0.47413
 C1893 C 0.65135 1.10397 0.46509
 C1894 C 0.66476 1.09047 0.44323
 C1895 C 0.68788 1.10078 0.43258
 H1896 H 0.69669 1.11814 0.44099
 O1897 O 0.52513 0.90547 0.36936
 O1898 O 0.52547 0.87497 0.33882
 C1899 C 0.53437 0.89620 0.34820
 C1900 C 0.55631 0.90973 0.33489
 C1901 C 0.56717 0.89936 0.31182
 H1902 H 0.55893 0.88193 0.30300
 O1903 O 0.47443 1.09470 0.36955
 O1904 O 0.47420 1.12517 0.33891
 C1905 C 0.46526 1.10395 0.34833
 C1906 C 0.44337 1.09042 0.33500
 C1907 C 0.43252 1.10086 0.31193
 H1908 H 0.44073 1.11834 0.30315
 O1909 O 0.36995 1.02509 0.40514
 O1910 O 0.33939 1.02534 0.37467
 C1911 C 0.34880 1.03430 0.39590
 C1912 C 0.33551 1.05626 0.40943
 C1913 C 0.31241 1.06695 0.39905
 H1914 H 0.30359 1.05854 0.38167
 O1915 O 0.63020 0.97467 0.40500
 O1916 O 0.66066 0.97463 0.37440
 C1917 C 0.65136 0.96557 0.39565
 C1918 C 0.66473 0.94362 0.40910
 C1919 C 0.68780 0.93290 0.39867
 H1920 H 0.69658 0.94131 0.38125
 O1921 O 0.59430 0.87008 0.47434
 O1922 O 0.62474 0.83952 0.47440
 C1923 C 0.60358 0.84886 0.46532
 C1924 C 0.59015 0.83542 0.44341
 C1925 C 0.60061 0.81234 0.43276
 H1926 H 0.61801 0.80361 0.44118
 O1927 O 0.40540 1.13049 0.47468
 O1928 O 0.37490 1.16099 0.47453
 C1929 C 0.39609 1.15166 0.46552
 C1930 C 0.40950 1.16501 0.44351
 C1931 C 0.39905 1.18808 0.43276
 H1932 H 0.38167 1.19685 0.44118
 Cu1933 Cu 0.60921 1.00035 0.39024
 Cu1934 Cu 0.64574 1.00028 0.35349
 Cu1935 Cu 0.39069 0.99939 0.39008
 Cu1936 Cu 0.35404 0.99975 0.35348
 Cu1937 Cu 0.60922 1.10967 0.49965
 Cu1938 Cu 0.64585 1.14622 0.49969
 Cu1939 Cu 0.60924 0.89098 0.49992
 Cu1940 Cu 0.64579 0.85431 0.49999
 Cu1941 Cu 0.39054 1.10950 0.50031
 Cu1942 Cu 0.35390 1.14606 0.50008
 Cu1943 Cu 0.39054 0.89050 0.49969
 Cu1944 Cu 0.35395 0.85391 0.49995
 Cu1945 Cu 0.50002 1.10973 0.39038
 Cu1946 Cu 0.49974 1.14632 0.35363
 Cu1947 Cu 0.49951 0.89042 0.39016
 Cu1948 Cu 0.49990 0.85379 0.35354
 C1949 C 0.56774 0.93210 0.34616
 H1950 H 0.55979 0.93997 0.36419
 C1951 C 0.58917 0.91094 0.30039
 C1952 C 0.43198 1.06797 0.34621
 H1953 H 0.43992 1.06006 0.36423
 C1954 C 0.41058 1.08925 0.30044
 C1955 C 0.43178 1.15379 0.43189
 H1956 H 0.43969 1.13577 0.43979
 C1957 C 0.41049 1.19958 0.41068
 C1958 C 0.56781 0.84657 0.43180
 H1959 H 0.55988 0.86459 0.43963
 C1960 C 0.58917 0.80078 0.41074
 C1961 C 0.65353 0.93205 0.43149
 H1962 H 0.63554 0.93995 0.43941
 C1963 C 0.69929 0.91086 0.41019
 C1964 C 0.34677 1.06787 0.43175
 H1965 H 0.36480 1.06003 0.43963
 C1966 C 0.30094 1.08897 0.41053
 C1967 C 0.56814 1.06867 0.34583
 H1968 H 0.56024 1.06070 0.36384
 C1969 C 0.58939 1.09013 0.30004
 C1970 C 0.43152 0.93132 0.34538
 H1971 H 0.43944 0.93930 0.36336
 C1972 C 0.41028 0.90984 0.29966
 C1973 C 0.65351 1.06821 0.43164
 H1974 H 0.63545 1.06039 0.43948
 C1975 C 0.69937 1.08925 0.41056
 C1976 C 0.34615 0.93174 0.43162
 H1977 H 0.36418 0.93961 0.43944
 C1978 C 0.30033 0.91056 0.41065
 C1979 C 0.56811 1.15417 0.43138
 H1980 H 0.56024 1.13617 0.43935
 C1981 C 0.58928 1.19992 0.40996
 C1982 C 0.43147 0.84600 0.43136
 H1983 H 0.43935 0.86400 0.43927
 C1984 C 0.41031 0.80020 0.41013
 O1985 O 0.59434 0.52508 1.13070
 O1986 O 0.62479 0.52517 1.16129
 C1987 C 0.60363 0.53422 1.15187
 C1988 C 0.59027 0.55627 1.16513
 C1989 C 0.60074 0.56703 1.18818
 H1990 H 0.61807 0.55859 1.19702
 O1991 O 0.40523 0.47437 1.13104
 O1992 O 0.37469 0.47445 1.16156
 C1993 C 0.39584 0.46532 1.15226
 C1994 C 0.40911 0.44329 1.16571
 C1995 C 0.39846 0.43248 1.18869
 H1996 H 0.38103 0.44087 1.19736
 O1997 O 0.52540 0.63055 1.09458
 O1998 O 0.52553 0.66098 1.12520
 C1999 C 0.53450 0.65170 1.10392
 C2000 C 0.55637 0.66506 1.09041
 C2001 C 0.56710 0.68814 1.10078
 H2002 H 0.55874 0.69698 1.11818
 O2003 O 0.47434 0.37003 1.09521
 O2004 O 0.47427 0.33930 1.12558
 C2005 C 0.46531 0.34875 1.10436
 C2006 C 0.44355 0.33538 1.09069
 C2007 C 0.43284 0.31223 1.10099
 H2008 H 0.44109 0.30341 1.11846
 O2009 O 0.63017 0.59438 1.02588
 O2010 O 0.66065 0.62487 1.02587
 C2011 C 0.65132 0.60369 1.03498
 C2012 C 0.66468 0.59024 1.05699
 C2013 C 0.68777 0.60061 1.06770
 H2014 H 0.69654 0.61800 1.05929
 O2015 O 0.36985 0.40555 1.02548
 O2016 O 0.33944 0.37500 1.02563
 C2017 C 0.34873 0.39621 1.03465
 C2018 C 0.33537 0.40965 1.05663
 C2019 C 0.31227 0.39928 1.06735
 H2020 H 0.30348 0.38192 1.05893
 O2021 O 0.47440 0.59461 1.13044
 O2022 O 0.47450 0.62499 1.16111
 C2023 C 0.46540 0.60386 1.15172
 C2024 C 0.44348 0.59047 1.16513
 C2025 C 0.43280 0.60096 1.18822
 H2026 H 0.44121 0.61834 1.19696
 O2027 O 0.52538 0.40553 1.13143
 O2028 O 0.52533 0.37485 1.16186
 C2029 C 0.53446 0.39604 1.15259
 C2030 C 0.55653 0.40925 1.16594
 C2031 C 0.56729 0.39864 1.18897
 H2032 H 0.55882 0.38130 1.19777
 O2033 O 0.63034 0.47400 1.09499
 O2034 O 0.66084 0.47404 1.12552
 C2035 C 0.65155 0.46500 1.10429
 C2036 C 0.66498 0.44317 1.09076
 C2037 C 0.68808 0.43247 1.10112
 H2038 H 0.69686 0.44080 1.11856
 O2039 O 0.36956 0.52562 1.09504
 O2040 O 0.33897 0.52564 1.12551
 C2041 C 0.34835 0.53468 1.10429
 C2042 C 0.33499 0.55660 1.09077
 C2043 C 0.31186 0.56730 1.10110
 H2044 H 0.30302 0.55892 1.11850
 O2045 O 0.40525 0.63079 1.02610
 O2046 O 0.37471 0.66125 1.02602
 C2047 C 0.39588 0.65197 1.03515
 C2048 C 0.40927 0.66536 1.05715
 C2049 C 0.39886 0.68842 1.06800
 H2050 H 0.38146 0.69721 1.05967
 O2051 O 0.59447 0.36989 1.02581
 O2052 O 0.62486 0.33928 1.02588
 C2053 C 0.60371 0.34869 1.03496
 C2054 C 0.59024 0.33539 1.05700
 C2055 C 0.60056 0.31225 1.06775
 H2056 H 0.61791 0.30340 1.05935
 O2057 O 0.40546 0.52559 1.13077
 O2058 O 0.37493 0.52571 1.16129
 C2059 C 0.39612 0.53473 1.15195
 C2060 C 0.40956 0.55670 1.16526
 C2061 C 0.39919 0.56755 1.18835
 H2062 H 0.38179 0.55927 1.19720
 O2063 O 0.59478 0.47385 1.13114
 O2064 O 0.62523 0.47389 1.16172
 C2065 C 0.60409 0.46478 1.15239
 C2066 C 0.59066 0.44282 1.16582
 C2067 C 0.60111 0.43187 1.18886
 H2068 H 0.61860 0.44005 1.19759
 O2069 O 0.52543 0.37004 1.09531
 O2070 O 0.52539 0.33931 1.12569
 C2071 C 0.53448 0.34878 1.10451
 C2072 C 0.55639 0.33544 1.09098
 C2073 C 0.56706 0.31230 1.10136
 H2074 H 0.55867 0.30348 1.11877
 O2075 O 0.47427 0.63074 1.09488
 O2076 O 0.47438 0.66116 1.12551
 C2077 C 0.46524 0.65191 1.10430
 C2078 C 0.44324 0.66533 1.09097
 C2079 C 0.43251 0.68838 1.10147
 H2080 H 0.44095 0.69714 1.11886
 O2081 O 0.36974 0.59473 1.02595
 O2082 O 0.33914 0.62513 1.02583
 C2083 C 0.34850 0.60396 1.03493
 C2084 C 0.33507 0.59047 1.05683
 C2085 C 0.31195 0.60084 1.06747
 H2086 H 0.30317 0.61822 1.05903
 O2087 O 0.63051 0.40539 1.02571
 O2088 O 0.66097 0.37484 1.02573
 C2089 C 0.65168 0.39604 1.03479
 C2090 C 0.66505 0.40944 1.05674
 C2091 C 0.68816 0.39906 1.06742
 H2092 H 0.69699 0.38173 1.05897
 O2093 O 0.47415 0.40546 1.13145
 O2094 O 0.47404 0.37478 1.16187
 C2095 C 0.46498 0.39601 1.15259
 C2096 C 0.44290 0.40934 1.16590
 C2097 C 0.43189 0.39883 1.18889
 H2098 H 0.44015 0.38138 1.19771
 O2099 O 0.52555 0.59466 1.13041
 O2100 O 0.52567 0.62504 1.16107
 C2101 C 0.53469 0.60388 1.15164
 C2102 C 0.55661 0.59036 1.16499
 C2103 C 0.56745 0.60078 1.18805
 H2104 H 0.55921 0.61826 1.19680
 O2105 O 0.36983 0.47445 1.09483
 O2106 O 0.33924 0.47445 1.12530
 C2107 C 0.34864 0.46540 1.10410
 C2108 C 0.33532 0.44348 1.09059
 C2109 C 0.31222 0.43278 1.10095
 H2110 H 0.30340 0.44115 1.11835
 O2111 O 0.63033 0.52516 1.09509
 O2112 O 0.66083 0.52524 1.12563
 C2113 C 0.65148 0.53429 1.10440
 C2114 C 0.66477 0.55629 1.09092
 C2115 C 0.68786 0.56700 1.10128
 H2116 H 0.69670 0.55858 1.11866
 O2117 O 0.40577 0.36990 1.02541
 O2118 O 0.37539 0.33930 1.02551
 C2119 C 0.39654 0.34869 1.03453
 C2120 C 0.40997 0.33535 1.05651
 C2121 C 0.39962 0.31220 1.06713
 H2122 H 0.38235 0.30336 1.05861
 O2123 O 0.59446 0.63027 1.02566
 O2124 O 0.62490 0.66080 1.02562
 C2125 C 0.60372 0.65149 1.03467
 C2126 C 0.59024 0.66493 1.05653
 C2127 C 0.60064 0.68801 1.06720
 H2128 H 0.61803 0.69676 1.05881
 Cu2129 Cu 0.60939 0.49949 1.10994
 Cu2130 Cu 0.64596 0.49959 1.14661
 Cu2131 Cu 0.39059 0.50001 1.10988
 Cu2132 Cu 0.35391 0.50007 1.14648
 Cu2133 Cu 0.49990 0.60961 1.10950
 Cu2134 Cu 0.50004 0.64608 1.14630
 Cu2135 Cu 0.49982 0.39087 1.11035
 Cu2136 Cu 0.49975 0.35400 1.14681
 C2137 C 0.56803 0.56793 1.15381
 H2138 H 0.56011 0.56003 1.13580
 C2139 C 0.58941 0.58918 1.19955
 C2140 C 0.43149 0.43174 1.15462
 H2141 H 0.43955 0.43972 1.13668
 C2142 C 0.40976 0.41035 1.20022
 C2143 C 0.56792 0.65377 1.06809
 H2144 H 0.56004 0.63574 1.06023
 C2145 C 0.58913 0.69954 1.08921
 C2146 C 0.43213 0.34665 1.06826
 H2147 H 0.43997 0.36473 1.06045
 C2148 C 0.41098 0.30073 1.08926
 C2149 C 0.65349 0.56790 1.06859
 H2150 H 0.63548 0.56003 1.06072
 C2151 C 0.69928 0.58905 1.08974
 C2152 C 0.34660 0.43193 1.06825
 H2153 H 0.36464 0.43978 1.06039
 C2154 C 0.30079 0.41078 1.08940
 C2155 C 0.43189 0.56816 1.15395
 H2156 H 0.43976 0.56021 1.13592
 C2157 C 0.41077 0.58958 1.19975
 C2158 C 0.56821 0.43149 1.15468
 H2159 H 0.56029 0.43951 1.13669
 C2160 C 0.58948 0.40987 1.20037
 C2161 C 0.65378 0.43169 1.06838
 H2162 H 0.63575 0.43956 1.06051
 C2163 C 0.69959 0.41052 1.08951
 C2164 C 0.34629 0.56817 1.06845
 H2165 H 0.36434 0.56031 1.06062
 C2166 C 0.30042 0.58933 1.08950
 C2167 C 0.43164 0.65416 1.06863
 H2168 H 0.43955 0.63618 1.06066
 C2169 C 0.41044 0.69987 1.09005
 C2170 C 0.56798 0.34670 1.06862
 H2171 H 0.56015 0.36476 1.06074
 C2172 C 0.58904 0.30079 1.08983
 O2173 O 0.59453 0.47464 0.86950
 O2174 O 0.62497 0.47473 0.83888
 C2175 C 0.60383 0.46563 0.84825
 C2176 C 0.59046 0.44372 0.83484
 C2177 C 0.60094 0.43306 0.81173
 H2178 H 0.61830 0.44148 0.80295
 O2179 O 0.40548 0.52537 0.86941
 O2180 O 0.37503 0.52548 0.83883
 C2181 C 0.39618 0.53450 0.84820
 C2182 C 0.40955 0.55648 0.83485
 C2183 C 0.39909 0.56722 0.81177
 H2184 H 0.38175 0.55880 0.80296
 O2185 O 0.47420 0.63046 0.90537
 O2186 O 0.47417 0.66102 0.87482
 C2187 C 0.46515 0.65167 0.89607
 C2188 C 0.44330 0.66505 0.90959
 C2189 C 0.43252 0.68811 0.89916
 H2190 H 0.44079 0.69689 0.88168
 O2191 O 0.52576 0.36976 0.90526
 O2192 O 0.52587 0.33925 0.87473
 C2193 C 0.53487 0.34859 0.89596
 C2194 C 0.55677 0.33523 0.90945
 C2195 C 0.56752 0.31217 0.89902
 H2196 H 0.55918 0.30339 0.88159
 O2197 O 0.63040 0.40550 0.97444
 O2198 O 0.66085 0.37495 0.97442
 C2199 C 0.65155 0.39616 0.96534
 C2200 C 0.66490 0.40964 0.94333
 C2201 C 0.68796 0.39928 0.93250
 H2202 H 0.69678 0.38188 0.94084
 O2203 O 0.36991 0.59477 0.97466
 O2204 O 0.33932 0.62519 0.97452
 C2205 C 0.34875 0.60403 0.96548
 C2206 C 0.33549 0.59056 0.94345
 C2207 C 0.31242 0.60092 0.93267
 H2208 H 0.30360 0.61831 0.94102
 O2209 O 0.52523 0.59463 0.86950
 O2210 O 0.52524 0.62514 0.83890
 C2211 C 0.53429 0.60395 0.84827
 C2212 C 0.55621 0.59054 0.83490
 C2213 C 0.56692 0.60099 0.81179
 H2214 H 0.55852 0.61836 0.80296
 O2215 O 0.47461 0.40550 0.86934
 O2216 O 0.47472 0.37503 0.83876
 C2217 C 0.46559 0.39618 0.84812
 C2218 C 0.44361 0.40952 0.83475
 C2219 C 0.43287 0.39900 0.81171
 H2220 H 0.44130 0.38162 0.80294
 O2221 O 0.63029 0.52572 0.90534
 O2222 O 0.66077 0.52581 0.87476
 C2223 C 0.65146 0.53479 0.89601
 C2224 C 0.66484 0.55662 0.90953
 C2225 C 0.68794 0.56732 0.89917
 H2226 H 0.69674 0.55900 0.88173
 O2227 O 0.36950 0.47426 0.90514
 O2228 O 0.33899 0.47437 0.87462
 C2229 C 0.34830 0.46528 0.89584
 C2230 C 0.33492 0.44338 0.90934
 C2231 C 0.31184 0.43264 0.89899
 H2232 H 0.30300 0.44100 0.88158
 O2233 O 0.59446 0.63011 0.97441
 O2234 O 0.62490 0.66063 0.97435
 C2235 C 0.60375 0.65129 0.96528
 C2236 C 0.59031 0.66467 0.94329
 C2237 C 0.60071 0.68774 0.93251
 H2238 H 0.61810 0.69650 0.94086
 O2239 O 0.40555 0.36977 0.97413
 O2240 O 0.37517 0.33919 0.97422
 C2241 C 0.39629 0.34856 0.96508
 C2242 C 0.40973 0.33519 0.94312
 C2243 C 0.39936 0.31212 0.93235
 H2244 H 0.38196 0.30335 0.94070
 O2245 O 0.40543 0.47420 0.86939
 O2246 O 0.37497 0.47426 0.83882
 C2247 C 0.39613 0.46516 0.84816
 C2248 C 0.40958 0.44322 0.83476
 C2249 C 0.39916 0.43235 0.81171
 H2250 H 0.38171 0.44061 0.80294
 O2251 O 0.59439 0.52579 0.86961
 O2252 O 0.62483 0.52589 0.83899
 C2253 C 0.60365 0.53489 0.84837
 C2254 C 0.59017 0.55679 0.83497
 C2255 C 0.60056 0.56758 0.81186
 H2256 H 0.61798 0.55928 0.80308
 O2257 O 0.47465 0.36967 0.90517
 O2258 O 0.47472 0.33916 0.87464
 C2259 C 0.46562 0.34848 0.89585
 C2260 C 0.44368 0.33513 0.90927
 C2261 C 0.43299 0.31206 0.89885
 H2262 H 0.44141 0.30324 0.88147
 O2263 O 0.52531 0.63036 0.90535
 O2264 O 0.52533 0.66092 0.87480
 C2265 C 0.53440 0.65153 0.89601
 C2266 C 0.55638 0.66481 0.90944
 C2267 C 0.56711 0.68789 0.89900
 H2268 H 0.55871 0.69674 0.88161
 O2269 O 0.36968 0.40548 0.97422
 O2270 O 0.33926 0.37494 0.97435
 C2271 C 0.34850 0.39614 0.96523
 C2272 C 0.33504 0.40955 0.94332
 C2273 C 0.31197 0.39913 0.93267
 H2274 H 0.30323 0.38174 0.94112
 O2275 O 0.63033 0.59442 0.97458
 O2276 O 0.66081 0.62490 0.97456
 C2277 C 0.65150 0.60372 0.96551
 C2278 C 0.66487 0.59032 0.94356
 C2279 C 0.68796 0.60070 0.93289
 H2280 H 0.69677 0.61803 0.94134
 O2281 O 0.52573 0.40555 0.86936
 O2282 O 0.52587 0.37509 0.83877
 C2283 C 0.53485 0.39628 0.84814
 C2284 C 0.55674 0.40978 0.83478
 C2285 C 0.56755 0.39943 0.81167
 H2286 H 0.55928 0.38202 0.80284
 O2287 O 0.47414 0.59469 0.86951
 O2288 O 0.47409 0.62519 0.83891
 C2289 C 0.46507 0.60400 0.84828
 C2290 C 0.44319 0.59052 0.83489
 C2291 C 0.43238 0.60093 0.81179
 H2292 H 0.44064 0.61839 0.80299
 O2293 O 0.36991 0.52544 0.90543
 O2294 O 0.33939 0.52559 0.87490
 C2295 C 0.34877 0.53461 0.89612
 C2296 C 0.33549 0.55661 0.90957
 C2297 C 0.31242 0.56733 0.89916
 H2298 H 0.30361 0.55892 0.88178
 O2299 O 0.63024 0.47458 0.90538
 O2300 O 0.66072 0.47465 0.87480
 C2301 C 0.65141 0.46555 0.89603
 C2302 C 0.66481 0.44361 0.90946
 C2303 C 0.68787 0.43295 0.89898
 H2304 H 0.69662 0.44139 0.88156
 O2305 O 0.59467 0.36970 0.97449
 O2306 O 0.62506 0.33909 0.97453
 C2307 C 0.60394 0.34849 0.96542
 C2308 C 0.59055 0.33517 0.94342
 C2309 C 0.60098 0.31212 0.93265
 H2310 H 0.61835 0.30331 0.94105
 O2311 O 0.40558 0.63059 0.97481
 O2312 O 0.37504 0.66106 0.97469
 C2313 C 0.39624 0.65174 0.96567
 C2314 C 0.40962 0.66509 0.94367
 C2315 C 0.39918 0.68815 0.93294
 H2316 H 0.38184 0.69695 0.94138
 Cu2317 Cu 0.60931 0.50018 0.89053
 Cu2318 Cu 0.64587 0.50028 0.85378
 Cu2319 Cu 0.39063 0.49978 0.89040
 Cu2320 Cu 0.35404 0.49995 0.85373
 Cu2321 Cu 0.60931 0.60923 1.00014
 Cu2322 Cu 0.64587 0.64585 1.00010
 Cu2323 Cu 0.60947 0.39068 1.00011
 Cu2324 Cu 0.64597 0.35396 1.00015
 Cu2325 Cu 0.39068 0.60968 1.00041
 Cu2326 Cu 0.35399 0.64620 1.00025
 Cu2327 Cu 0.39075 0.39074 0.99978
 Cu2328 Cu 0.35427 0.35404 0.99995
 Cu2329 Cu 0.49971 0.60948 0.89049
 Cu2330 Cu 0.49970 0.64614 0.85379
 Cu2331 Cu 0.50018 0.39067 0.89034
 Cu2332 Cu 0.50031 0.35408 0.85366
 C2333 C 0.56819 0.43211 0.84606
 H2334 H 0.56025 0.43996 0.86411
 C2335 C 0.58955 0.41102 0.80023
 C2336 C 0.43178 0.56811 0.84612
 H2337 H 0.43971 0.56020 0.86415
 C2338 C 0.41043 0.58933 0.80031
 C2339 C 0.43186 0.65383 0.93202
 H2340 H 0.43976 0.63580 0.93991
 C2341 C 0.41056 0.69957 0.91080
 C2342 C 0.56827 0.34644 0.93182
 H2343 H 0.56038 0.36444 0.93972
 C2344 C 0.58952 0.30069 0.91057
 C2345 C 0.65363 0.43198 0.93181
 H2346 H 0.63563 0.43984 0.93975
 C2347 C 0.69937 0.41089 0.91043
 C2348 C 0.34675 0.56823 0.93189
 H2349 H 0.36477 0.56036 0.93979
 C2350 C 0.30097 0.58937 0.91063
 C2351 C 0.56781 0.56826 0.84620
 H2352 H 0.55993 0.56034 0.86424
 C2353 C 0.58899 0.58956 0.80036
 C2354 C 0.43199 0.43181 0.84596
 H2355 H 0.43991 0.43979 0.86395
 C2356 C 0.41075 0.41033 0.80027
 C2357 C 0.65361 0.56810 0.93191
 H2358 H 0.63557 0.56024 0.93976
 C2359 C 0.69941 0.58926 0.91080
 C2360 C 0.34620 0.43185 0.93168
 H2361 H 0.36422 0.43974 0.93952
 C2362 C 0.30044 0.41061 0.91061
 C2363 C 0.56797 0.65350 0.93175
 H2364 H 0.56008 0.63549 0.93967
 C2365 C 0.58918 0.69927 0.91047
 C2366 C 0.43207 0.34639 0.93158
 H2367 H 0.43994 0.36440 0.93949
 C2368 C 0.41093 0.30063 0.91033
 C2369 C 1.11129 1.11031 1.24145
 C2370 C 1.10132 1.10044 1.22250
 C2371 C 1.11130 0.61049 0.74161
 C2372 C 1.10143 0.60069 0.72254
 C2373 C 0.61151 1.11106 0.74224
 C2374 C 0.60160 1.10135 0.72312
 C2375 C 0.61106 0.61055 1.24144
 C2376 C 0.60112 0.60073 1.22244
 C2377 C 0.88874 0.88919 1.24227
 C2378 C 0.89864 0.89892 1.22314
 C2379 C 0.88849 0.38907 0.74206
 C2380 C 0.89848 0.39882 0.72298
 C2381 C 0.38888 0.88991 0.74183
 C2382 C 0.39881 0.89965 0.72276
 C2383 C 0.38788 0.38913 1.24223
 C2384 C 0.39792 0.39885 1.22314
 C2385 C 0.88888 1.11047 0.75828
 C2386 C 0.89884 1.10079 0.77736
 C2387 C 0.88928 0.61031 0.25836
 C2388 C 0.89922 0.60052 0.27741
 C2389 C 0.38901 1.11052 0.25843
 C2390 C 0.39891 1.10075 0.27750
 C2391 C 0.38884 0.61055 0.75830
 C2392 C 0.39876 0.60081 0.77737
 C2393 C 1.11081 0.88969 0.75822
 C2394 C 1.10095 0.89951 0.77728
 C2395 C 1.11132 0.38933 0.25840
 C2396 C 1.10141 0.39918 0.27741
 C2397 C 0.61088 0.88963 0.25849
 C2398 C 0.60091 0.89943 0.27750
 C2399 C 0.61109 0.38974 0.75824
 C2400 C 0.60121 0.39954 0.77729
 C2401 C 1.24132 1.11054 1.11076
 C2402 C 1.22223 1.10075 1.10100
 C2403 C 1.24121 0.61049 0.61071
 C2404 C 1.22218 0.60064 0.60094
 C2405 C 0.74116 1.11056 0.61061
 C2406 C 0.72210 1.10079 0.60081
 C2407 C 0.74137 0.61038 1.11095
 C2408 C 0.72227 0.60056 1.10124
 C2409 C 1.24103 0.88982 0.88933
 C2410 C 1.22195 0.89962 0.89912
 C2411 C 1.24162 0.38897 0.38840
 C2412 C 1.22251 0.39867 0.39832
 C2413 C 0.74141 0.88964 0.38881
 C2414 C 0.72228 0.89939 0.39861
 C2415 C 0.74130 0.38970 0.88875
 C2416 C 0.72227 0.39944 0.89871
 C2417 C 0.75870 0.88961 1.11105
 C2418 C 0.77774 0.89943 1.10123
 C2419 C 0.75871 0.38947 0.61065
 C2420 C 0.77780 0.39927 0.60088
 C2421 C 0.25859 0.88962 0.61075
 C2422 C 0.27769 0.89940 0.60098
 C2423 C 0.25884 0.38933 1.11076
 C2424 C 0.27787 0.39922 1.10097
 C2425 C 0.75874 1.11057 0.88895
 C2426 C 0.77782 1.10086 0.89885
 C2427 C 0.75893 0.61040 0.38885
 C2428 C 0.77800 0.60053 0.39863
 C2429 C 0.25902 1.11033 0.38899
 C2430 C 0.27803 1.10050 0.39888
 C2431 C 0.25894 0.61066 0.88925
 C2432 C 0.27801 0.60086 0.89906
 C2433 C 1.11075 1.24125 1.11037
 C2434 C 1.10089 1.22220 1.10064
 C2435 C 1.11075 0.74134 0.61045
 C2436 C 1.10089 0.72229 0.60070
 C2437 C 0.61070 1.24136 0.61042
 C2438 C 0.60082 1.22235 0.60065
 C2439 C 0.61057 0.74151 1.11041
 C2440 C 0.60070 0.72246 1.10068
 C2441 C 0.88932 1.24154 0.88934
 C2442 C 0.89915 1.22247 0.89914
 C2443 C 0.88972 0.74141 0.38932
 C2444 C 0.89957 0.72232 0.39907
 C2445 C 0.38901 1.24166 0.38947
 C2446 C 0.39889 1.22256 0.39919
 C2447 C 0.38901 0.74152 0.88957
 C2448 C 0.39893 0.72247 0.89930
 C2449 C 1.11096 0.75890 0.88938
 C2450 C 1.10109 0.77794 0.89915
 C2451 C 1.11080 0.25841 0.38941
 C2452 C 1.10094 0.27748 0.39915
 C2453 C 0.61067 0.75875 0.38957
 C2454 C 0.60079 0.77783 0.39929
 C2455 C 0.61087 0.25871 0.88916
 C2456 C 0.60107 0.27777 0.89900
 C2457 C 0.88936 0.75869 1.11053
 C2458 C 0.89927 0.77775 1.10082
 C2459 C 0.88917 0.25863 0.61037
 C2460 C 0.89913 0.27765 0.60065
 C2461 C 0.38904 0.75889 0.61057
 C2462 C 0.39900 0.77794 0.60089
 C2463 C 0.38943 0.25873 1.11039
 C2464 C 0.39936 0.27778 1.10070
 C2465 C 1.11050 1.11176 0.75780
 C2466 C 1.10073 1.10177 0.77685
 C2467 C 1.11100 0.61165 0.25778
 C2468 C 1.10131 0.60162 0.27689
 C2469 C 0.61082 1.11169 0.25801
 C2470 C 0.60095 1.10181 0.27709
 C2471 C 0.61038 0.61099 0.75836
 C2472 C 0.60052 0.60117 0.77742
 C2473 C 0.88950 0.88906 0.75843
 C2474 C 0.89929 0.89893 0.77750
 C2475 C 0.88926 0.38819 0.25784
 C2476 C 0.89909 0.39810 0.27688
 C2477 C 0.38913 0.88817 0.25758
 C2478 C 0.39883 0.89812 0.27669
 C2479 C 0.38951 0.38856 0.75837
 C2480 C 0.39925 0.39856 0.77739
 C2481 C 1.11052 0.88849 1.24182
 C2482 C 1.10078 0.89851 1.22279
 C2483 C 1.11021 0.38883 0.74180
 C2484 C 1.10050 0.39872 0.72269
 C2485 C 0.61053 0.88910 0.74156
 C2486 C 0.60065 0.89899 0.72255
 C2487 C 0.61075 0.38807 1.24237
 C2488 C 0.60098 0.39807 1.22330
 C2489 C 0.88980 1.11079 1.24166
 C2490 C 0.89964 1.10091 1.22263
 C2491 C 0.88963 0.61102 0.74159
 C2492 C 0.89943 0.60105 0.72257
 C2493 C 0.38963 1.11090 0.74153
 C2494 C 0.39942 1.10100 0.72250
 C2495 C 0.38971 0.61127 1.24180
 C2496 C 0.39937 0.60130 1.22271
 C2497 C 1.11081 1.24202 0.88878
 C2498 C 1.10102 1.22284 0.89848
 C2499 C 1.11110 0.74152 0.38868
 C2500 C 1.10119 0.72246 0.39845
 C2501 C 0.61067 1.24191 0.38842
 C2502 C 0.60082 1.22286 0.39829
 C2503 C 0.61060 0.74126 0.88910
 C2504 C 0.60073 0.72220 0.89888
 C2505 C 0.88976 1.24113 1.11134
 C2506 C 0.89956 1.22212 1.10142
 C2507 C 0.88948 0.74127 0.61084
 C2508 C 0.89926 0.72216 0.60104
 C2509 C 0.38888 1.24157 0.61149
 C2510 C 0.39869 1.22245 0.60169
 C2511 C 0.38919 0.74197 1.11156
 C2512 C 0.39896 0.72285 1.10170
 C2513 C 0.88955 0.75880 0.88911
 C2514 C 0.89937 0.77784 0.89895
 C2515 C 0.88967 0.25839 0.38912
 C2516 C 0.89949 0.27746 0.39888
 C2517 C 0.38906 0.75804 0.38885
 C2518 C 0.39883 0.77718 0.39860
 C2519 C 0.38963 0.25861 0.88899
 C2520 C 0.39944 0.27768 0.89877
 C2521 C 1.11086 0.75812 1.11173
 C2522 C 1.10107 0.77724 1.10187
 C2523 C 1.11057 0.25800 0.61170
 C2524 C 1.10084 0.27712 0.60178
 C2525 C 0.61042 0.75877 0.61084
 C2526 C 0.60057 0.77787 0.60108
 C2527 C 0.61037 0.25876 1.11130
 C2528 C 0.60054 0.27783 1.10144
 C2529 C 1.24140 1.11074 0.88928
 C2530 C 1.22235 1.10088 0.89901
 C2531 C 1.24170 0.61081 0.38968
 C2532 C 1.22264 0.60085 0.39932
 C2533 C 0.74138 1.11061 0.38935
 C2534 C 0.72232 1.10078 0.39908
 C2535 C 0.74144 0.61065 0.88963
 C2536 C 0.72236 0.60081 0.89934
 C2537 C 1.24173 0.88902 1.11065
 C2538 C 1.22267 0.89888 1.10091
 C2539 C 1.24163 0.38905 0.61026
 C2540 C 1.22253 0.39892 0.60059
 C2541 C 0.74123 0.88947 0.61055
 C2542 C 0.72215 0.89934 0.60084
 C2543 C 0.74165 0.38923 1.11078
 C2544 C 0.72256 0.39901 1.10100
 C2545 C 0.75867 1.11065 1.11097
 C2546 C 0.77777 1.10087 1.10120
 C2547 C 0.75872 0.61065 0.61045
 C2548 C 0.77778 0.60077 0.60072
 C2549 C 0.25805 1.11083 0.61078
 C2550 C 0.27713 1.10102 0.60100
 C2551 C 0.25835 0.61077 1.11063
 C2552 C 0.27744 0.60090 1.10094
 C2553 C 0.75849 0.88961 0.88971
 C2554 C 0.77756 0.89946 0.89941
 C2555 C 0.75840 0.38885 0.38918
 C2556 C 0.77750 0.39871 0.39884
 C2557 C 0.25831 0.88896 0.38973
 C2558 C 0.27738 0.89893 0.39930
 C2559 C 0.25849 0.38902 0.88948
 C2560 C 0.27753 0.39897 0.89917
   
