data_POSCAR
  _audit_creation_date              2014-09-24
  _audit_creation_method            'ToBaCCo'
  _symmetry_space_group_name_H-M    'P1'
  _symmetry_Int_Tables_number       1
  _symmetry_cell_setting            triclinic
  loop_
  _symmetry_equiv_pos_as_xyz
 x,y,z
_cell_length_a 61.9665
_cell_length_b 62.5899
_cell_length_c 66.2032
_cell_angle_alpha 90.499800
_cell_angle_beta 91.425500
_cell_angle_gamma 92.414000
loop_
  _atom_site_label
  _atom_site_type_symbol
  _atom_site_fract_x
  _atom_site_fract_y
  _atom_site_fract_z
C1 C 0.41585 0.01692 0.26700
 C2 C 0.39825 0.03331 0.26414
 C3 C 0.38469 0.02931 0.24796
 C4 C 0.39001 0.00928 0.23576
 C5 C 0.40356 -0.00474 0.26745
 C6 C 0.39006 -0.00895 0.25128
 C7 C 0.42734 0.01715 0.24668
 C8 C 0.41393 0.01307 0.23029
 H9 H 0.39754 0.04785 0.27301
 H10 H 0.37887 0.00621 0.22258
 H11 H 0.40497 -0.01552 0.28009
 H12 H 0.44455 0.02032 0.24544
 C13 C 0.08532 -0.01392 0.77443
 C14 C 0.10167 -0.03150 0.77205
 C15 C 0.11387 -0.02969 0.75529
 C16 C 0.10825 -0.01041 0.74209
 C17 C 0.09872 0.00705 0.77323
 C18 C 0.11076 0.00914 0.75645
 C19 C 0.07248 -0.01521 0.75568
 C20 C 0.08490 -0.01326 0.73756
 H21 H 0.10241 -0.04509 0.78202
 H22 H 0.11886 -0.00906 0.72896
 H23 H 0.09913 0.01897 0.78523
 H24 H 0.05517 -0.01774 0.75555
 C25 C 0.58366 0.48928 0.27734
 C26 C 0.59861 0.47076 0.27354
 C27 C 0.61083 0.47302 0.25683
 C28 C 0.60688 0.49367 0.24512
 C29 C 0.59852 0.50933 0.27747
 C30 C 0.61084 0.51173 0.26092
 C31 C 0.57019 0.49045 0.25755
 C32 C 0.58227 0.49263 0.24062
 H33 H 0.59881 0.45662 0.28285
 H34 H 0.61708 0.49542 0.23164
 H35 H 0.59915 0.52080 0.28986
 H36 H 0.55279 0.48848 0.25678
 C37 C 0.91704 0.52722 0.78243
 C38 C 0.89899 0.54327 0.78027
 C39 C 0.88616 0.54030 0.76338
 C40 C 0.89253 0.52147 0.75000
 C41 C 0.90535 0.50527 0.78096
 C42 C 0.89248 0.50202 0.76419
 C43 C 0.92921 0.52953 0.76261
 C44 C 0.91654 0.52647 0.74561
 H45 H 0.89764 0.55708 0.79002
 H46 H 0.88209 0.51915 0.73623
 H47 H 0.90635 0.49370 0.79300
 H48 H 0.94635 0.53353 0.76212
 C49 C 0.27681 0.37021 1.00349
 C50 C 0.27275 0.35575 1.02164
 C51 C 0.25531 0.34190 1.01952
 C52 C 0.24267 0.34434 0.99936
 C53 C 0.27731 0.35485 0.98538
 C54 C 0.25967 0.34125 0.98319
 C55 C 0.25548 0.38170 1.00053
 C56 C 0.23754 0.36829 0.99824
 H57 H 0.28306 0.35649 1.03510
 H58 H 0.22843 0.33309 0.99748
 H59 H 0.29061 0.35492 0.97507
 H60 H 0.25430 0.39883 1.00106
 C61 C 0.77072 0.13220 0.99592
 C62 C 0.77072 0.14600 0.97682
 C63 C 0.75362 0.15895 0.97491
 C64 C 0.73773 0.15646 0.99246
 C65 C 0.76898 0.14825 1.01339
 C66 C 0.75163 0.16086 1.01177
 C67 C 0.74985 0.12048 0.99485
 C68 C 0.73149 0.13365 0.99311
 H69 H 0.78350 0.14573 0.96601
 H70 H 0.72411 0.16725 0.99147
 H71 H 0.77962 0.14838 1.02663
 H72 H 0.74834 0.10336 0.99253
 C73 C 0.27328 0.63493 0.50516
 C74 C 0.27431 0.64627 0.48484
 C75 C 0.25772 0.65921 0.48077
 C76 C 0.24123 0.65977 0.49775
 C77 C 0.27128 0.65315 0.52075
 C78 C 0.25452 0.66608 0.51692
 C79 C 0.25089 0.62331 0.50502
 C80 C 0.23402 0.63623 0.50128
 H81 H 0.28781 0.64483 0.47489
 H82 H 0.22778 0.67051 0.49463
 H83 H 0.27989 0.65406 0.53512
 H84 H 0.24870 0.60646 0.50831
 C85 C 0.77610 0.87226 0.49169
 C86 C 0.77465 0.85644 0.50913
 C87 C 0.75662 0.84330 0.50873
 C88 C 0.74125 0.84719 0.49065
 C89 C 0.77338 0.85835 0.47255
 C90 C 0.75538 0.84500 0.47192
 C91 C 0.75490 0.88420 0.49245
 C92 C 0.73663 0.87119 0.49210
 H93 H 0.78649 0.85660 0.52145
 H94 H 0.72663 0.83635 0.49043
 H95 H 0.78466 0.85948 0.46033
 H96 H 0.75406 0.90138 0.49239
 C97 C -0.00549 0.27446 0.40174
 C98 C 0.00951 0.27559 0.38368
 C99 C 0.00808 0.25800 0.37151
 C100 C -0.00804 0.24057 0.37867
 C101 C -0.02690 0.26953 0.39317
 C102 C -0.02852 0.25115 0.38009
 C103 C 0.00083 0.25396 0.41266
 C104 C -0.00061 0.23624 0.40052
 H105 H 0.02104 0.28879 0.38133
 H106 H -0.00820 0.22620 0.36883
 H107 H -0.04064 0.27855 0.39738
 H108 H 0.00622 0.25317 0.42825
 C109 C 0.01052 0.76324 0.11196
 C110 C -0.01241 0.76256 0.12017
 C111 C -0.01620 0.74706 0.13401
 C112 C 0.00319 0.73338 0.13832
 C113 C 0.02548 0.76478 0.13075
 C114 C 0.02153 0.74933 0.14459
 C115 C 0.01338 0.74050 0.10367
 C116 C 0.00930 0.72497 0.11754
 H117 H -0.02438 0.77386 0.11571
 H118 H 0.00016 0.72057 0.14950
 H119 H 0.03874 0.77657 0.13243
 H120 H 0.01734 0.73666 0.08830
 C121 C 0.49188 0.24751 0.60353
 C122 C 0.47460 0.23644 0.61643
 C123 C 0.48261 0.22673 0.63314
 C124 C 0.50730 0.22860 0.63533
 C125 C 0.50492 0.26242 0.61815
 C126 C 0.51328 0.25261 0.63461
 C127 C 0.50715 0.22958 0.59862
 C128 C 0.51512 0.21968 0.61531
 H129 H 0.45750 0.23627 0.61267
 H130 H 0.51399 0.22035 0.64872
 H131 H 0.50828 0.27916 0.61495
 H132 H 0.50921 0.22340 0.58350
 C133 C 0.49844 0.76155 0.88608
 C134 C 0.51204 0.76594 0.86740
 C135 C 0.51282 0.74903 0.85444
 C136 C 0.49966 0.72921 0.86134
 C137 C 0.47619 0.75374 0.87762
 C138 C 0.47681 0.73694 0.86451
 C139 C 0.50750 0.74266 0.89510
 C140 C 0.50834 0.72475 0.88150
 H141 H 0.52197 0.78046 0.86582
 H142 H 0.49996 0.71590 0.85030
 H143 H 0.46143 0.76157 0.88102
 H144 H 0.51050 0.74091 0.91110
 C145 C -0.23022 0.66421 0.97177
 C146 C -0.20863 0.65354 0.97537
 C147 C -0.20787 0.64082 0.99200
 C148 C -0.22915 0.63994 1.00365
 C149 C -0.24722 0.64582 0.97138
 C150 C -0.24689 0.63311 0.98789
 C151 C -0.23362 0.67621 0.99174
 C152 C -0.23316 0.66363 1.00850
 H153 H -0.19500 0.65618 0.96566
 H154 H -0.22889 0.62936 1.01698
 H155 H -0.25938 0.64385 0.95939
 H156 H -0.23393 0.69341 0.99287
 C157 C -0.26020 0.33795 0.47283
 C158 C -0.28040 0.35084 0.47636
 C159 C -0.27918 0.36329 0.49337
 C160 C -0.25770 0.36161 0.50544
 C161 C -0.24140 0.35454 0.47325
 C162 C -0.23986 0.36702 0.49016
 C163 C -0.25772 0.32588 0.49136
 C164 C -0.25653 0.33863 0.50959
 H165 H -0.29498 0.34915 0.46703
 H166 H -0.25700 0.37240 0.51877
 H167 H -0.22978 0.35568 0.46130
 H168 H -0.25777 0.30865 0.49129
 C169 C 0.23309 -0.16602 -0.02268
 C170 C 0.21708 -0.14807 -0.02011
 C171 C 0.22090 -0.13571 -0.00326
 C172 C 0.24034 -0.14260 0.00979
 C173 C 0.25533 -0.15454 -0.02172
 C174 C 0.25924 -0.14195 -0.00507
 C175 C 0.23159 -0.17788 -0.00402
 C176 C 0.23548 -0.16533 0.01408
 H177 H 0.20298 -0.14607 -0.02974
 H178 H 0.24324 -0.13197 0.02313
 H179 H 0.26662 -0.15551 -0.03390
 H180 H 0.22812 -0.19495 -0.00402
 C181 C 0.26884 1.16713 0.47713
 C182 C 0.28822 1.15262 0.47763
 C183 C 0.28798 1.13796 0.49280
 C184 C 0.26799 1.13914 0.50617
 C185 C 0.24900 1.15187 0.47654
 C186 C 0.24827 1.13734 0.49158
 C187 C 0.26923 1.17717 0.49846
 C188 C 0.26868 1.16258 0.51371
 H189 H 0.30199 1.15530 0.46809
 H190 H 0.26741 1.12704 0.51831
 H191 H 0.23615 1.15289 0.46521
 H192 H 0.27034 1.19421 0.50133
 C193 C 0.12237 0.51712 0.25955
 C194 C 0.10546 0.51398 0.24247
 C195 C 0.09181 0.49660 0.24433
 C196 C 0.09630 0.48354 0.26343
 C197 C 0.10928 0.51712 0.27894
 C198 C 0.09557 0.49968 0.28109
 C199 C 0.13389 0.49574 0.26028
 C200 C 0.12028 0.47815 0.26230
 H201 H 0.10526 0.52412 0.22929
 H202 H 0.08518 0.46932 0.26484
 H203 H 0.11067 0.53012 0.28986
 H204 H 0.15121 0.49447 0.26056
 C205 C -0.11948 1.02264 0.25150
 C206 C -0.10568 1.02182 0.27084
 C207 C -0.09421 1.00390 0.27289
 C208 C -0.09771 0.98802 0.25495
 C209 C -0.10351 1.01944 0.23441
 C210 C -0.09208 1.00138 0.23616
 C211 C -0.13283 1.00300 0.25127
 C212 C -0.12121 0.98369 0.25334
 H213 H -0.10444 1.03495 0.28165
 H214 H -0.08778 0.97384 0.25673
 H215 H -0.10288 1.02903 0.22091
 H216 H -0.14987 1.00309 0.24733
 C217 C 0.37186 0.51741 -0.24330
 C218 C 0.39031 0.52084 -0.22776
 C219 C 0.40536 0.50568 -0.22797
 C220 C 0.40056 0.48800 -0.24403
 C221 C 0.38296 0.51517 -0.26361
 C222 C 0.39836 0.50019 -0.26414
 C223 C 0.36255 0.49474 -0.23938
 C224 C 0.37740 0.47925 -0.23978
 H225 H 0.39088 0.53396 -0.21694
 H226 H 0.41283 0.47563 -0.24392
 H227 H 0.37792 0.52399 -0.27677
 H228 H 0.34544 0.49086 -0.23843
 C229 C 0.62315 0.03122 -0.24629
 C230 C 0.60768 0.02904 -0.26460
 C231 C 0.59689 0.00973 -0.26667
 C232 C 0.60161 -0.00560 -0.24910
 C233 C 0.60842 0.02639 -0.22844
 C234 C 0.59733 0.00709 -0.22959
 C235 C 0.63746 0.01181 -0.24769
 C236 C 0.62633 -0.00750 -0.24901
 H237 H 0.60548 0.04197 -0.27510
 H238 H 0.59253 -0.02121 -0.25043
 H239 H 0.60580 0.03769 -0.21643
 H240 H 0.65493 0.01335 -0.24701
 C241 C 0.02060 0.24511 0.85867
 C242 C 0.01656 0.26725 0.86763
 C243 C 0.00024 0.26725 0.88093
 C244 C -0.01084 0.24521 0.88382
 C245 C 0.02381 0.23064 0.87697
 C246 C 0.00730 0.23055 0.89010
 C247 C -0.00021 0.23797 0.84970
 C248 C -0.01775 0.23819 0.86349
 H249 H 0.02575 0.28164 0.86363
 H250 H -0.02360 0.24534 0.89518
 H251 H 0.03709 0.22000 0.87834
 H252 H -0.00319 0.23710 0.83357
 C253 C 0.50522 0.26349 0.13080
 C254 C 0.50691 0.24612 0.11458
 C255 C 0.48852 0.24200 0.10331
 C256 C 0.46965 0.25563 0.10961
 C257 C 0.49691 0.28286 0.11961
 C258 C 0.47840 0.27880 0.10863
 C259 C 0.48599 0.25567 0.14343
 C260 C 0.46737 0.25177 0.13236
 H261 H 0.52123 0.23693 0.11323
 H262 H 0.45445 0.25286 0.10058
 H263 H 0.50487 0.29860 0.12058
 H264 H 0.48633 0.25427 0.15965
 C265 C 0.01961 0.79218 0.63027
 C266 C 0.02366 0.76915 0.62370
 C267 C 0.00686 0.75922 0.61333
 C268 C -0.01260 0.77322 0.61027
 C269 C 0.01308 0.80359 0.61080
 C270 C -0.00357 0.79347 0.60037
 C271 C -0.00145 0.79037 0.64214
 C272 C -0.01818 0.78046 0.63157
 H273 H 0.03830 0.76116 0.62775
 H274 H -0.02637 0.76543 0.60156
 H275 H 0.02030 0.81877 0.60617
 H276 H -0.00389 0.79793 0.65659
 C277 C 0.52453 0.73588 0.38129
 C278 C 0.52241 0.75780 0.39136
 C279 C 0.50456 0.75923 0.40270
 C280 C 0.49031 0.73873 0.40305
 C281 C 0.52316 0.71978 0.39847
 C282 C 0.50524 0.72112 0.40977
 C283 C 0.50305 0.73238 0.36923
 C284 C 0.48517 0.73396 0.38065
 H285 H 0.53293 0.77156 0.38814
 H286 H 0.47591 0.74007 0.41255
 H287 H 0.53443 0.70712 0.40022
 H288 H 0.50175 0.73210 0.35294
 Zr289 Zr 0.02150 -0.01177 1.03612
 O290 O 0.04364 0.00123 1.05829
 O291 O 0.01929 -0.04397 1.04413
 O292 O 0.00840 -0.01305 1.06532
 O293 O 0.05962 -0.01798 0.99951
 O294 O -0.02478 0.00096 1.06096
 O295 O 0.05264 -0.02371 1.03273
 O296 O -0.00556 -0.05878 1.02161
 O297 O -0.01153 -0.01912 1.03119
 O298 O 0.01847 -0.02722 1.00801
 O299 O 0.00649 0.01770 1.03719
 O300 O 0.03588 0.00955 1.01536
 Zr301 Zr -0.01665 0.01656 0.98159
 Zr302 Zr -0.02624 0.01040 1.03057
 Zr303 Zr 0.03103 -0.00574 0.98718
 Zr304 Zr -0.01438 -0.03345 1.00267
 O305 O 0.05747 0.01380 0.97763
 O306 O -0.04321 -0.04554 1.01579
 O307 O -0.00174 -0.01310 0.98042
 O308 O -0.03067 -0.00479 1.00239
 O309 O -0.01379 0.03220 1.00964
 O310 O 0.01634 0.02361 0.98669
 C311 C 0.00808 -0.05993 1.03652
 C312 C 0.06486 -0.02464 1.01727
 C313 C -0.01003 -0.00757 1.07187
 O314 O -0.05519 -0.00716 1.03688
 O315 O -0.05285 0.02690 1.01924
 O316 O -0.04648 0.03101 0.98571
 C317 C -0.05791 0.03367 1.00150
 O318 O 0.04365 0.04382 1.03782
 Zr319 Zr 0.01918 0.03808 1.01512
 O320 O -0.01375 0.04871 0.97317
 O321 O -0.03036 0.03743 1.04928
 O322 O 0.00814 0.06177 1.03503
 O323 O 0.04700 0.05231 1.00183
 O324 O 0.00868 0.06376 0.99762
 C325 C -0.00382 0.06487 0.98189
 O326 O -0.04056 0.00437 0.96064
 O327 O 0.03817 -0.03411 0.97147
 O328 O -0.00514 0.01467 0.95178
 O329 O 0.02637 -0.00258 0.95586
 O330 O -0.00329 -0.05823 0.98403
 O331 O -0.03662 -0.04041 0.97830
 C332 C 0.01151 0.00561 0.94484
 H333 H 0.02637 -0.04060 1.00726
 H334 H -0.04620 -0.00771 0.99909
 H335 H 0.02262 0.03291 0.97613
 H336 H 0.00859 0.02450 1.05069
 H337 H -0.04394 -0.06125 1.01365
 H338 H -0.06285 0.00129 1.04698
 H339 H -0.04437 0.03507 1.05598
 H340 H 0.01613 0.07538 1.03207
 H341 H -0.01158 -0.07157 0.98737
 H342 H 0.05191 -0.03120 0.96444
 H343 H 0.06542 0.00509 0.96796
 H344 H 0.04716 0.06783 1.00495
 H345 H -0.04314 -0.05499 0.97991
 H346 H -0.04442 0.01632 0.95166
 H347 H 0.04784 -0.01069 1.06716
 H348 H 0.04758 0.05931 1.03858
 Zr349 Zr 0.50418 0.46212 0.53477
 O350 O 0.52591 0.46817 0.55957
 O351 O 0.49594 0.42960 0.53859
 O352 O 0.48910 0.45922 0.56306
 O353 O 0.54494 0.45871 0.50022
 O354 O 0.45849 0.47783 0.55879
 O355 O 0.53422 0.44760 0.53126
 O356 O 0.47166 0.42172 0.51287
 O357 O 0.47118 0.45978 0.52695
 O358 O 0.50194 0.45137 0.50478
 O359 O 0.49283 0.49302 0.53905
 O360 O 0.52252 0.48471 0.51809
 Zr361 Zr 0.47453 0.50324 0.48297
 Zr362 Zr 0.46026 0.49082 0.52975
 Zr363 Zr 0.51847 0.47449 0.48795
 Zr364 Zr 0.46926 0.45028 0.49666
 O365 O 0.54742 0.49215 0.48186
 O366 O 0.43763 0.44013 0.50492
 O367 O 0.48592 0.47227 0.47841
 O368 O 0.45654 0.48056 0.49965
 O369 O 0.47678 0.51411 0.51297
 O370 O 0.50747 0.50539 0.49077
 C371 C 0.48270 0.41675 0.52871
 C372 C 0.54804 0.44890 0.51697
 C373 C 0.47128 0.46649 0.56942
 O374 O 0.42950 0.47527 0.53252
 O375 O 0.43634 0.51118 0.51936
 O376 O 0.44570 0.51954 0.48722
 C377 C 0.43320 0.52074 0.50247
 O378 O 0.53252 0.51428 0.54533
 Zr379 Zr 0.50957 0.51498 0.52097
 O380 O 0.48164 0.53613 0.47992
 O381 O 0.45743 0.51580 0.55115
 O382 O 0.49997 0.53669 0.54349
 O383 O 0.53985 0.52742 0.51111
 O384 O 0.50368 0.54432 0.50719
 C385 C 0.49263 0.54948 0.49143
 O386 O 0.45166 0.49759 0.45900
 O387 O 0.52369 0.44745 0.46953
 O388 O 0.48838 0.50427 0.45400
 O389 O 0.51684 0.48248 0.45730
 O390 O 0.47975 0.42684 0.47620
 O391 O 0.44958 0.44987 0.46988
 C392 C 0.50421 0.49408 0.44678
 H393 H 0.50822 0.43722 0.50292
 H394 H 0.44117 0.47988 0.49516
 H395 H 0.51563 0.51544 0.48202
 H396 H 0.49459 0.49766 0.55335
 H397 H 0.43514 0.42514 0.50021
 H398 H 0.42188 0.48317 0.54305
 H399 H 0.44282 0.51405 0.55682
 H400 H 0.50981 0.54957 0.54302
 H401 H 0.46962 0.41420 0.47700
 H402 H 0.53814 0.44971 0.46363
 H403 H 0.55505 0.48387 0.47163
 H404 H 0.54166 0.54233 0.51623
 H405 H 0.44191 0.43573 0.46832
 H406 H 0.45017 0.51129 0.45176
 H407 H 0.52764 0.45442 0.56668
 H408 H 0.53849 0.52895 0.54820
 Zr409 Zr 0.49506 1.01761 0.52417
 O410 O 0.46854 1.01159 0.54319
 O411 O 0.50864 1.04623 0.53679
 O412 O 0.50516 1.01204 0.55429
 O413 O 0.46554 1.03917 0.48480
 O414 O 0.52954 0.98589 0.55172
 O415 O 0.46953 1.03873 0.51915
 O416 O 0.53945 1.05188 0.51917
 O417 O 0.52830 1.01311 0.52291
 O418 O 0.50584 1.03366 0.49851
 O419 O 0.49838 0.98426 0.52314
 O420 O 0.47670 1.00390 0.49970
 Zr421 Zr 0.52547 0.98165 0.47032
 Zr422 Zr 0.53155 0.98007 0.52045
 Zr423 Zr 0.48907 1.01909 0.47406
 Zr424 Zr 0.53860 1.02811 0.49664
 O425 O 0.45878 1.01122 0.45982
 O426 O 0.56920 1.02828 0.51175
 O427 O 0.52225 1.01509 0.47097
 O428 O 0.54356 0.99537 0.49478
 O429 O 0.51478 0.96526 0.49593
 O430 O 0.49231 0.98617 0.47169
 C431 C 0.52654 1.05659 0.53325
 C432 C 0.46013 1.04480 0.50265
 C433 C 0.51869 0.99910 0.56201
 O434 O 0.56297 0.98701 0.53268
 O435 O 0.55301 0.95763 0.50966
 O436 O 0.54916 0.95877 0.47535
 C437 C 0.55807 0.95185 0.49172
 O438 O 0.45549 0.97193 0.51750
 Zr439 Zr 0.48194 0.97099 0.49771
 O440 O 0.51272 0.95269 0.45829
 O441 O 0.52448 0.95071 0.53495
 O442 O 0.48253 0.94286 0.51530
 O443 O 0.45236 0.96880 0.48084
 O444 O 0.48352 0.94485 0.47756
 C445 C 0.49647 0.94060 0.46330
 O446 O 0.55294 0.98714 0.45237
 O447 O 0.49475 1.04967 0.46135
 O448 O 0.51703 0.98860 0.43999
 O449 O 0.49420 1.01606 0.44295
 O450 O 0.53784 1.05785 0.48158
 O451 O 0.56253 1.02918 0.47417
 C452 C 0.50504 1.00305 0.43246
 H453 H 0.50328 1.04916 0.49908
 H454 H 0.55920 0.99336 0.49330
 H455 H 0.48410 0.98036 0.45970
 H456 H 0.49275 0.97742 0.53548
 H457 H 0.57571 1.04298 0.51103
 H458 H 0.56635 0.97520 0.54197
 H459 H 0.53741 0.94754 0.54331
 H460 H 0.47087 0.93288 0.50996
 H461 H 0.54999 1.06706 0.48717
 H462 H 0.48192 1.05258 0.45274
 H463 H 0.45562 1.02307 0.45052
 H464 H 0.44639 0.95394 0.48201
 H465 H 0.57284 1.04143 0.47694
 H466 H 0.55322 0.97515 0.44247
 H467 H 0.46825 1.02374 0.55290
 H468 H 0.44687 0.95827 0.51645
 Zr469 Zr -0.01133 0.50528 1.03833
 O470 O -0.03861 0.49518 1.05496
 O471 O -0.00104 0.53328 1.05403
 O472 O -0.00263 0.49720 1.06824
 O473 O -0.03994 0.52921 0.99974
 O474 O 0.02434 0.47388 1.06467
 O475 O -0.03787 0.52528 1.03392
 O476 O 0.03066 0.54292 1.03920
 O477 O 0.02234 0.50324 1.03863
 O478 O -0.00004 0.52481 1.01506
 O479 O -0.00549 0.47262 1.03447
 O480 O -0.02723 0.49330 1.01180
 Zr481 Zr 0.02505 0.47781 0.98340
 Zr482 Zr 0.02816 0.47103 1.03325
 Zr483 Zr -0.01429 0.51208 0.98856
 Zr484 Zr 0.03324 0.52175 1.01466
 O485 O -0.04317 0.50390 0.97200
 O486 O 0.06272 0.52210 1.03167
 O487 O 0.01939 0.51065 0.98705
 O488 O 0.04067 0.48986 1.00994
 O489 O 0.01392 0.45800 1.00664
 O490 O -0.00854 0.47998 0.98336
 C491 C 0.01621 0.54528 1.05256
 C492 C -0.04675 0.53256 1.01765
 C493 C 0.01178 0.48490 1.07549
 O494 O 0.05866 0.47830 1.04732
 O495 O 0.05137 0.45089 1.02164
 O496 O 0.05002 0.45602 0.98758
 C497 C 0.05801 0.44750 1.00366
 O498 O -0.04702 0.45797 1.02547
 Zr499 Zr -0.01945 0.46130 1.00711
 O500 O 0.01496 0.44971 0.96792
 O501 O 0.02204 0.44013 1.04505
 O502 O -0.01760 0.43138 1.02168
 O503 O -0.04805 0.45916 0.98879
 O504 O -0.01510 0.43816 0.98445
 C505 C -0.00106 0.43640 0.97059
 O506 O 0.05324 0.48722 0.96776
 O507 O -0.00993 0.54416 0.97912
 O508 O 0.01781 0.48749 0.95351
 O509 O -0.00714 0.51286 0.95775
 O510 O 0.03151 0.55283 1.00239
 O511 O 0.05867 0.52703 0.99408
 C512 C 0.00515 0.50179 0.94674
 H513 H -0.00374 0.53993 1.01685
 H514 H 0.05654 0.48898 1.00918
 H515 H -0.01568 0.47509 0.97050
 H516 H -0.01134 0.46410 1.04577
 H517 H 0.06817 0.53718 1.03290
 H518 H 0.06217 0.46587 1.05579
 H519 H 0.03474 0.43692 1.05371
 H520 H -0.02819 0.42131 1.01477
 H521 H 0.04256 0.56213 1.00962
 H522 H -0.02247 0.54720 0.97018
 H523 H -0.04664 0.51650 0.96376
 H524 H -0.05308 0.44392 0.98820
 H525 H 0.06806 0.53936 0.99881
 H526 H 0.05500 0.47651 0.95683
 H527 H -0.04047 0.50607 1.06570
 H528 H -0.05446 0.44389 1.02276
 Zr529 Zr -0.02860 0.50142 0.47745
 O530 O -0.05143 0.51098 0.45536
 O531 O -0.02317 0.47013 0.46812
 O532 O -0.01486 0.50270 0.44837
 O533 O -0.06604 0.48823 0.51383
 O534 O 0.01523 0.52457 0.45337
 O535 O -0.05884 0.48468 0.48038
 O536 O 0.00358 0.45981 0.48971
 O537 O 0.00479 0.49991 0.48248
 O538 O -0.02431 0.48579 0.50497
 O539 O -0.01659 0.53337 0.47778
 O540 O -0.04465 0.51963 0.49903
 Zr541 Zr 0.00682 0.53476 0.53355
 Zr542 Zr 0.01648 0.53173 0.48436
 Zr543 Zr -0.03855 0.50451 0.52662
 Zr544 Zr 0.00883 0.48532 0.51044
 O545 O -0.06685 0.51867 0.53664
 O546 O 0.03908 0.47873 0.49801
 O547 O -0.00541 0.50271 0.53349
 O548 O 0.02234 0.51649 0.51186
 O549 O 0.00250 0.55077 0.50617
 O550 O -0.02657 0.53609 0.52835
 C551 C -0.00969 0.45657 0.47462
 C552 C -0.07099 0.48163 0.49577
 C553 C 0.00217 0.51297 0.44208
 O554 O 0.04618 0.51882 0.47645
 O555 O 0.04209 0.55113 0.49640
 O556 O 0.03644 0.55276 0.53025
 C557 C 0.04756 0.55728 0.51445
 O558 O -0.05519 0.55370 0.47778
 Zr559 Zr -0.03079 0.55087 0.50064
 O560 O 0.00125 0.56604 0.54296
 O561 O 0.01849 0.56045 0.46776
 O562 O -0.02129 0.57706 0.48230
 O563 O -0.06023 0.55901 0.51383
 O564 O -0.02373 0.57729 0.51999
 C565 C -0.01108 0.58020 0.53559
 O566 O 0.03087 0.52595 0.55481
 O567 O -0.04237 0.47468 0.54123
 O568 O -0.00539 0.53085 0.56305
 O569 O -0.03514 0.50851 0.55801
 O570 O -0.00055 0.45798 0.52732
 O571 O 0.03092 0.48149 0.53510
 C572 C -0.02164 0.51943 0.56946
 H573 H -0.03094 0.47112 0.50497
 H574 H 0.03801 0.51591 0.51500
 H575 H -0.03384 0.54393 0.53912
 H576 H -0.01930 0.54023 0.46459
 H577 H 0.04130 0.46326 0.49974
 H578 H 0.05320 0.52902 0.46703
 H579 H 0.03248 0.56073 0.46081
 H580 H -0.03025 0.58921 0.48590
 H581 H 0.00893 0.44632 0.52348
 H582 H -0.05636 0.47470 0.54817
 H583 H -0.07393 0.50837 0.54592
 H584 H -0.06193 0.57451 0.51174
 H585 H 0.03820 0.46781 0.53350
 H586 H 0.03359 0.53828 0.56419
 H587 H -0.05441 0.49857 0.44613
 H588 H -0.06012 0.56854 0.47765
 Zr589 Zr 0.47191 -0.01274 -0.03511
 O590 O 0.44823 -0.00399 -0.05674
 O591 O 0.47653 -0.04452 -0.04334
 O592 O 0.48430 -0.01249 -0.06481
 O593 O 0.43585 -0.02351 0.00313
 O594 O 0.51506 0.00884 -0.06152
 O595 O 0.44165 -0.02898 -0.03038
 O596 O 0.50375 -0.05438 -0.02205
 O597 O 0.50544 -0.01463 -0.03104
 O598 O 0.47696 -0.02699 -0.00702
 O599 O 0.48456 0.01896 -0.03649
 O600 O 0.45698 0.00684 -0.01386
 Zr601 Zr 0.50970 0.02272 0.01848
 Zr602 Zr 0.51782 0.01705 -0.03078
 Zr603 Zr 0.46384 -0.00691 0.01425
 Zr604 Zr 0.51019 -0.02790 -0.00256
 O605 O 0.43607 0.00824 0.02421
 O606 O 0.53982 -0.03561 -0.01562
 O607 O 0.49709 -0.00909 0.02020
 O608 O 0.52424 0.00308 -0.00279
 O609 O 0.50479 0.03736 -0.00949
 O610 O 0.47628 0.02453 0.01417
 C611 C 0.48993 -0.05805 -0.03665
 C612 C 0.43014 -0.03109 -0.01442
 C613 C 0.50112 -0.00262 -0.07202
 O614 O 0.54680 0.00296 -0.03907
 O615 O 0.54427 0.03654 -0.02009
 O616 O 0.53929 0.03991 0.01378
 C617 C 0.55012 0.04350 -0.00234
 O618 O 0.44597 0.03960 -0.03614
 Zr619 Zr 0.47138 0.03785 -0.01413
 O620 O 0.50540 0.05480 0.02628
 O621 O 0.51996 0.04504 -0.04846
 O622 O 0.48022 0.06266 -0.03431
 O623 O 0.44294 0.04764 -0.00015
 O624 O 0.48018 0.06533 0.00322
 C625 C 0.49352 0.06894 0.01819
 O626 O 0.53413 0.01435 0.03955
 O627 O 0.46022 -0.03578 0.03048
 O628 O 0.49841 0.02096 0.04842
 O629 O 0.46822 -0.00106 0.04536
 O630 O 0.50100 -0.05421 0.01576
 O631 O 0.53307 -0.03103 0.02158
 C632 C 0.48219 0.01036 0.05588
 H633 H 0.47015 -0.04154 -0.00617
 H634 H 0.53996 0.00235 0.00000
 H635 H 0.46960 0.03319 0.02473
 H636 H 0.48145 0.02526 -0.04986
 H637 H 0.54182 -0.05105 -0.01341
 H638 H 0.55373 0.01260 -0.04904
 H639 H 0.53370 0.04467 -0.05579
 H640 H 0.47153 0.07513 -0.03110
 H641 H 0.51009 -0.06625 0.01212
 H642 H 0.44654 -0.03514 0.03786
 H643 H 0.42921 -0.00134 0.03425
 H644 H 0.44151 0.06303 -0.00305
 H645 H 0.54007 -0.04489 0.02028
 H646 H 0.53749 0.02708 0.04830
 H647 H 0.44473 -0.01680 -0.06533
 H648 H 0.44112 0.05445 -0.03682
 Zr649 Zr 0.53800 0.51078 -0.03282
 O650 O 0.55844 0.49650 -0.05374
 O651 O 0.53882 0.54264 -0.04254
 O652 O 0.52444 0.51025 -0.06264
 O653 O 0.57774 0.51698 0.00490
 O654 O 0.49052 0.49543 -0.05868
 O655 O 0.57056 0.52188 -0.02867
 O656 O 0.51684 0.55892 -0.02057
 O657 O 0.50607 0.51953 -0.02893
 O658 O 0.53770 0.52727 -0.00522
 O659 O 0.51947 0.48182 -0.03292
 O660 O 0.55013 0.48965 -0.01090
 Zr661 Zr 0.49769 0.48609 0.02195
 Zr662 Zr 0.48788 0.49063 -0.02754
 Zr663 Zr 0.54802 0.50606 0.01668
 Zr664 Zr 0.50590 0.53491 -0.00081
 O665 O 0.57251 0.48599 0.02704
 O666 O 0.47810 0.54781 -0.01453
 O667 O 0.51648 0.51503 0.02249
 O668 O 0.48606 0.50712 -0.00003
 O669 O 0.49792 0.46931 -0.00551
 O670 O 0.52957 0.47741 0.01796
 C671 C 0.52960 0.55912 -0.03561
 C672 C 0.58328 0.52291 -0.01290
 C673 C 0.50591 0.50287 -0.06958
 O674 O 0.46243 0.51007 -0.03683
 O675 O 0.45887 0.47768 -0.01617
 O676 O 0.46537 0.47410 0.01767
 C677 C 0.45306 0.47225 0.00166
 O678 O 0.55365 0.45420 -0.03115
 Zr679 Zr 0.52994 0.46181 -0.00987
 O680 O 0.49521 0.45390 0.03036
 O681 O 0.47873 0.46218 -0.04363
 O682 O 0.51619 0.43803 -0.02991
 O683 O 0.55569 0.44692 0.00541
 O684 O 0.51533 0.43712 0.00717
 C685 C 0.50215 0.43703 0.02190
 O686 O 0.47674 0.50028 0.04247
 O687 O 0.55864 0.53461 0.03196
 O688 O 0.51075 0.48781 0.05192
 O689 O 0.54430 0.50342 0.04796
 O690 O 0.52092 0.55993 0.01701
 O691 O 0.48556 0.54362 0.02303
 C692 C 0.52894 0.49599 0.05896
 H693 H 0.54717 0.54040 -0.00480
 H694 H 0.47110 0.51108 0.00269
 H695 H 0.53475 0.46810 0.02892
 H696 H 0.52053 0.47410 -0.04595
 H697 H 0.47944 0.56356 -0.01280
 H698 H 0.45303 0.50132 -0.04631
 H699 H 0.46508 0.46486 -0.05113
 H700 H 0.52243 0.42422 -0.02624
 H701 H 0.51411 0.57340 0.01317
 H702 H 0.57229 0.53159 0.03932
 H703 H 0.58174 0.49459 0.03676
 H704 H 0.55356 0.43131 0.00308
 H705 H 0.48105 0.55846 0.02106
 H706 H 0.47143 0.48885 0.05162
 H707 H 0.56370 0.50795 -0.06289
 H708 H 0.55599 0.43865 -0.03084
 Zr709 Zr 0.03761 1.01440 0.46874
 O710 O 0.05580 1.00280 0.44463
 O711 O 0.04047 1.04756 0.46434
 O712 O 0.02298 1.02016 0.44007
 O713 O 0.07935 1.00916 0.50399
 O714 O -0.01275 1.01182 0.44488
 O715 O 0.07107 1.02213 0.47277
 O716 O 0.02115 1.06108 0.49000
 O717 O 0.00738 1.02532 0.47661
 O718 O 0.04057 1.02498 0.49878
 O719 O 0.01575 0.98796 0.46457
 O720 O 0.04823 0.98792 0.48534
 Zr721 Zr -0.00221 0.98287 0.52070
 Zr722 Zr -0.01403 0.99871 0.47389
 Zr723 Zr 0.04946 0.99852 0.51551
 Zr724 Zr 0.01034 1.03462 0.50693
 O725 O 0.07203 0.97439 0.51959
 O726 O -0.01703 1.05234 0.49915
 O727 O 0.01977 1.00925 0.52525
 O728 O -0.01252 1.00919 0.50402
 O729 O -0.00538 0.97225 0.49068
 O730 O 0.02794 0.97199 0.51278
 C731 C 0.03241 1.06313 0.47400
 C732 C 0.08449 1.01864 0.48750
 C733 C 0.00302 1.01841 0.43399
 O734 O -0.03809 1.02160 0.47130
 O735 O -0.04327 0.98528 0.48435
 O736 O -0.03541 0.97409 0.51629
 C737 C -0.04848 0.97626 0.50103
 O738 O 0.04682 0.95750 0.45895
 Zr739 Zr 0.02498 0.96249 0.48262
 O740 O -0.00744 0.94980 0.52348
 O741 O -0.02655 0.97579 0.45252
 O742 O 0.00826 0.94469 0.45925
 O743 O 0.04871 0.94160 0.49328
 O744 O 0.00760 0.93640 0.49525
 C745 C -0.00404 0.93449 0.51103
 O746 O -0.02073 0.99445 0.54458
 O747 O 0.06368 1.02217 0.53529
 O748 O 0.01227 0.97781 0.54962
 O749 O 0.04749 0.98877 0.54566
 O750 O 0.02945 1.05494 0.52670
 O751 O -0.00622 1.03978 0.53416
 C752 C 0.03185 0.98143 0.55637
 H753 H 0.05125 1.03707 0.50077
 H754 H -0.02673 1.01375 0.50859
 H755 H 0.03248 0.96005 0.52140
 H756 H 0.01509 0.98308 0.45030
 H757 H -0.01390 1.06731 0.50367
 H758 H -0.04871 1.01611 0.46087
 H759 H -0.04015 0.98133 0.44686
 H760 H 0.01320 0.92984 0.45981
 H761 H 0.02366 1.06944 0.52579
 H762 H 0.07720 1.01639 0.54091
 H763 H 0.08272 0.97982 0.52999
 H764 H 0.04448 0.92711 0.48803
 H765 H -0.00919 1.05514 0.53554
 H766 H -0.02667 0.98181 0.55186
 H767 H 0.06164 1.01543 0.43725
 H768 H 0.04788 0.94197 0.45643
 Zr769 Zr 0.73195 0.27131 0.21554
 O770 O 0.74329 0.29577 0.19609
 O771 O 0.69929 0.26772 0.20658
 O772 O 0.73120 0.26095 0.18492
 O773 O 0.72490 0.30478 0.25630
 O774 O 0.74697 0.22865 0.18620
 O775 O 0.71863 0.30120 0.22234
 O776 O 0.68667 0.23984 0.22553
 O777 O 0.72662 0.23804 0.21678
 O778 O 0.71695 0.26482 0.24290
 O779 O 0.76266 0.25836 0.21350
 O780 O 0.75319 0.28444 0.23830
 Zr781 Zr 0.76372 0.23034 0.26626
 Zr782 Zr 0.75728 0.22527 0.21635
 Zr783 Zr 0.73843 0.27621 0.26548
 Zr784 Zr 0.71273 0.23176 0.24455
 O785 O 0.75664 0.30240 0.27854
 O786 O 0.70209 0.20356 0.22862
 O787 O 0.73290 0.24313 0.26857
 O788 O 0.74259 0.21740 0.24355
 O789 O 0.77908 0.23658 0.23900
 O790 O 0.76890 0.26352 0.26490
 C791 C 0.68425 0.25442 0.21217
 C792 C 0.71778 0.31162 0.23923
 C793 C 0.73747 0.24357 0.17669
 O794 O 0.74115 0.19644 0.20644
 O795 O 0.77549 0.19909 0.22495
 O796 O 0.77940 0.20199 0.25919
 C797 C 0.78249 0.19253 0.24218
 O798 O 0.78783 0.29569 0.21719
 Zr799 Zr 0.78306 0.26973 0.23729
 O800 O 0.79613 0.23412 0.27562
 O801 O 0.78450 0.22458 0.19771
 O802 O 0.80742 0.26123 0.21714
 O803 O 0.79552 0.29712 0.25348
 O804 O 0.80971 0.26005 0.25496
 C805 C 0.81166 0.24627 0.26918
 O806 O 0.75278 0.20462 0.28444
 O807 O 0.70946 0.27999 0.28121
 O808 O 0.76241 0.23929 0.29712
 O809 O 0.74264 0.26925 0.29619
 O810 O 0.68711 0.23999 0.26339
 O811 O 0.70724 0.20772 0.26654
 C812 C 0.75256 0.25458 0.30566
 H813 H 0.70298 0.27175 0.24415
 H814 H 0.74049 0.20173 0.24501
 H815 H 0.77808 0.26938 0.27627
 H816 H 0.76924 0.26198 0.20043
 H817 H 0.68631 0.20163 0.23044
 H818 H 0.75002 0.19030 0.19576
 H819 H 0.78289 0.21125 0.18953
 H820 H 0.82091 0.26930 0.22135
 H821 H 0.67406 0.23139 0.25884
 H822 H 0.71164 0.29296 0.28983
 H823 H 0.74752 0.30873 0.28891
 H824 H 0.81125 0.29844 0.25111
 H825 H 0.69264 0.20095 0.26429
 H826 H 0.76517 0.20065 0.29321
 H827 H 0.73080 0.29990 0.18753
 H828 H 0.80337 0.30008 0.21714
 Zr829 Zr 0.75981 0.73853 0.71486
 O830 O 0.74821 0.71469 0.69395
 O831 O 0.79154 0.74407 0.70550
 O832 O 0.75799 0.75048 0.68508
 O833 O 0.77135 0.70328 0.75313
 O834 O 0.73911 0.78079 0.68821
 O835 O 0.77496 0.70909 0.71942
 O836 O 0.80397 0.77206 0.72547
 O837 O 0.76368 0.77184 0.71818
 O838 O 0.77650 0.74421 0.74233
 O839 O 0.72840 0.75011 0.71407
 O840 O 0.74083 0.72314 0.73691
 Zr841 Zr 0.72963 0.77504 0.76867
 Zr842 Zr 0.73240 0.78318 0.71907
 Zr843 Zr 0.75706 0.73063 0.76440
 Zr844 Zr 0.77929 0.77720 0.74611
 O845 O 0.74088 0.70303 0.77585
 O846 O 0.78748 0.80700 0.73268
 O847 O 0.76125 0.76366 0.76961
 O848 O 0.74870 0.79009 0.74658
 O849 O 0.71280 0.76957 0.74116
 O850 O 0.72586 0.74185 0.76510
 C851 C 0.80605 0.75829 0.71117
 C852 C 0.77750 0.69777 0.73548
 C853 C 0.74911 0.76710 0.67771
 O854 O 0.74732 0.81243 0.70996
 O855 O 0.71481 0.80885 0.72993
 O856 O 0.71310 0.80353 0.76389
 C857 C 0.70902 0.81426 0.74777
 O858 O 0.70629 0.71075 0.71607
 Zr859 Zr 0.71029 0.73644 0.73722
 O860 O 0.69744 0.77000 0.77722
 O861 O 0.70309 0.78410 0.70207
 O862 O 0.68439 0.74345 0.71713
 O863 O 0.69949 0.70852 0.75255
 O864 O 0.68394 0.74518 0.75436
 C865 C 0.68187 0.75839 0.76910
 O866 O 0.74064 0.79973 0.78895
 O867 O 0.78731 0.72750 0.77944
 O868 O 0.73326 0.76422 0.79883
 O869 O 0.75460 0.73561 0.79555
 O870 O 0.80693 0.76892 0.76340
 O871 O 0.78536 0.79973 0.77001
 C872 C 0.74454 0.74909 0.80618
 H873 H 0.79091 0.73795 0.74278
 H874 H 0.75038 0.80569 0.74911
 H875 H 0.71752 0.73515 0.77611
 H876 H 0.72100 0.74677 0.70093
 H877 H 0.80332 0.80952 0.73436
 H878 H 0.73728 0.81885 0.70007
 H879 H 0.70367 0.79766 0.69444
 H880 H 0.67171 0.73424 0.72081
 H881 H 0.81919 0.77837 0.75913
 H882 H 0.78637 0.71401 0.78716
 H883 H 0.75105 0.69653 0.78556
 H884 H 0.68370 0.70667 0.74993
 H885 H 0.79962 0.80713 0.76824
 H886 H 0.72855 0.80266 0.79799
 H887 H 0.76030 0.71162 0.68495
 H888 H 0.69119 0.70490 0.71619
 Zr889 Zr 0.24433 0.21868 0.78262
 O890 O 0.25239 0.19590 0.80472
 O891 O 0.21270 0.22510 0.79004
 O892 O 0.24444 0.23233 0.81206
 O893 O 0.23174 0.18191 0.74429
 O894 O 0.26672 0.26207 0.80950
 O895 O 0.22694 0.18911 0.77766
 O896 O 0.20369 0.25154 0.76831
 O897 O 0.24380 0.25176 0.77836
 O898 O 0.22995 0.22315 0.75414
 O899 O 0.27676 0.22993 0.78522
 O900 O 0.26331 0.20223 0.76206
 Zr901 Zr 0.28148 0.25255 0.73032
 Zr902 Zr 0.27619 0.26269 0.77930
 Zr903 Zr 0.24956 0.20852 0.73353
 Zr904 Zr 0.23050 0.25595 0.74952
 O905 O 0.26333 0.17986 0.72398
 O906 O 0.22398 0.28620 0.76212
 O907 O 0.24889 0.24133 0.72743
 O908 O 0.26232 0.26858 0.75086
 O909 O 0.29621 0.24816 0.75872
 O910 O 0.28169 0.21951 0.73479
 C911 C 0.19966 0.23881 0.78306
 C912 C 0.22421 0.17717 0.76170
 C913 C 0.25429 0.24931 0.81952
 O914 O 0.26365 0.29262 0.78670
 O915 O 0.29711 0.28746 0.76938
 O916 O 0.30048 0.28114 0.73568
 C917 C 0.30448 0.29232 0.75195
 O918 O 0.29637 0.19157 0.78627
 Zr919 Zr 0.29516 0.21520 0.76345
 O920 O 0.31302 0.24545 0.72272
 O921 O 0.30408 0.26405 0.79844
 O922 O 0.32110 0.22472 0.78348
 O923 O 0.30313 0.18537 0.75083
 O924 O 0.32257 0.22043 0.74573
 C925 C 0.32632 0.23226 0.73031
 O926 O 0.27443 0.27668 0.70921
 O927 O 0.22025 0.20581 0.71641
 O928 O 0.27877 0.24060 0.70030
 O929 O 0.25589 0.21127 0.70261
 O930 O 0.20350 0.24715 0.73047
 O931 O 0.22832 0.27770 0.72515
 C932 C 0.26778 0.22447 0.69248
 H933 H 0.21500 0.21696 0.75293
 H934 H 0.26232 0.28408 0.74801
 H935 H 0.28981 0.21187 0.72448
 H936 H 0.28288 0.22722 0.79887
 H937 H 0.20851 0.28873 0.75932
 H938 H 0.27352 0.29935 0.79716
 H939 H 0.30432 0.27801 0.80563
 H940 H 0.33328 0.21547 0.78066
 H941 H 0.19178 0.25682 0.73371
 H942 H 0.22015 0.19190 0.70913
 H943 H 0.25323 0.17314 0.71371
 H944 H 0.31853 0.18316 0.75426
 H945 H 0.21460 0.28520 0.72586
 H946 H 0.28733 0.27891 0.70076
 H947 H 0.23941 0.19330 0.81297
 H948 H 0.31134 0.18677 0.78785
 Zr949 Zr 0.27414 0.77254 0.27830
 O950 O 0.26589 0.79466 0.30092
 O951 O 0.30674 0.76811 0.28557
 O952 O 0.27578 0.75927 0.30764
 O953 O 0.28030 0.81075 0.24121
 O954 O 0.25914 0.72623 0.30334
 O955 O 0.28882 0.80337 0.27402
 O956 O 0.31648 0.74307 0.26269
 O957 O 0.27758 0.73985 0.27278
 O958 O 0.28697 0.76976 0.24952
 O959 O 0.24299 0.75823 0.28072
 O960 O 0.25215 0.78735 0.25856
 Zr961 Zr 0.23672 0.73611 0.22496
 Zr962 Zr 0.24643 0.72590 0.27368
 Zr963 Zr 0.26452 0.78277 0.22973
 Zr964 Zr 0.28915 0.73725 0.24361
 O965 O 0.24679 0.80954 0.22113
 O966 O 0.29913 0.70736 0.25448
 O967 O 0.26798 0.75045 0.22236
 O968 O 0.25868 0.72161 0.24480
 O969 O 0.22392 0.73882 0.25382
 O970 O 0.23339 0.76876 0.23057
 C971 C 0.32034 0.75540 0.27813
 C972 C 0.28904 0.81577 0.25851
 C973 C 0.26951 0.74067 0.31407
 O974 O 0.26149 0.69664 0.27879
 O975 O 0.22543 0.70072 0.26357
 O976 O 0.22040 0.70605 0.22974
 C977 C 0.21722 0.69542 0.24613
 O978 O 0.22057 0.79585 0.28199
 Zr979 Zr 0.22170 0.77137 0.25964
 O980 O 0.20366 0.73887 0.21894
 O981 O 0.22081 0.72214 0.29410
 O982 O 0.19893 0.76108 0.28129
 O983 O 0.20851 0.79883 0.24639
 O984 O 0.19303 0.76058 0.24432
 C985 C 0.18914 0.74809 0.22899
 O986 O 0.24477 0.71325 0.20294
 O987 O 0.29253 0.78931 0.21278
 O988 O 0.23646 0.74892 0.19522
 O989 O 0.25772 0.77947 0.19877
 O990 O 0.31434 0.74906 0.22510
 O991 O 0.29174 0.71682 0.21806
 C992 C 0.24652 0.76564 0.18807
 H993 H 0.30129 0.77723 0.24847
 H994 H 0.25978 0.70627 0.24140
 H995 H 0.22357 0.77527 0.22057
 H996 H 0.23752 0.76018 0.29451
 H997 H 0.31461 0.70626 0.25137
 H998 H 0.25310 0.68897 0.28924
 H999 H 0.22232 0.70808 0.30063
 H1000 H 0.18573 0.76924 0.27902
 H1001 H 0.32708 0.74036 0.22784
 H1002 H 0.29055 0.80311 0.20589
 H1003 H 0.25552 0.81750 0.21111
 H1004 H 0.19315 0.79897 0.25019
 H1005 H 0.30620 0.71065 0.21823
 H1006 H 0.23147 0.70984 0.19468
 H1007 H 0.27919 0.79818 0.30916
 H1008 H 0.20549 0.80025 0.28327
 Zr1009 Zr 0.23375 0.77001 0.72126
 O1010 O 0.25098 0.79252 0.70343
 O1011 O 0.20206 0.77263 0.71029
 O1012 O 0.23333 0.76042 0.69053
 O1013 O 0.22873 0.80421 0.76198
 O1014 O 0.24314 0.72571 0.69179
 O1015 O 0.22486 0.80153 0.72768
 O1016 O 0.18296 0.74746 0.72799
 O1017 O 0.22248 0.73797 0.72119
 O1018 O 0.21581 0.76585 0.74737
 O1019 O 0.26159 0.75196 0.72078
 O1020 O 0.25493 0.77936 0.74553
 Zr1021 Zr 0.25349 0.72342 0.77262
 Zr1022 Zr 0.25025 0.72005 0.72240
 Zr1023 Zr 0.23690 0.77343 0.77145
 Zr1024 Zr 0.20564 0.73381 0.74780
 O1025 O 0.25837 0.79618 0.78599
 O1026 O 0.19155 0.70837 0.72994
 O1027 O 0.22547 0.74144 0.77326
 O1028 O 0.23239 0.71441 0.74836
 O1029 O 0.27166 0.72739 0.74661
 O1030 O 0.26447 0.75550 0.77249
 C1031 C 0.18437 0.76267 0.71503
 C1032 C 0.22404 0.81198 0.74451
 C1033 C 0.23714 0.74232 0.68218
 O1034 O 0.23030 0.69421 0.71098
 O1035 O 0.26331 0.69109 0.73154
 O1036 O 0.26507 0.69290 0.76594
 C1037 C 0.26810 0.68334 0.74896
 O1038 O 0.29209 0.78505 0.72718
 Zr1039 Zr 0.28155 0.75957 0.74606
 O1040 O 0.28503 0.72139 0.78422
 O1041 O 0.27806 0.71495 0.70538
 O1042 O 0.30550 0.74768 0.72712
 O1043 O 0.29753 0.78400 0.76392
 O1044 O 0.30444 0.74457 0.76465
 C1045 C 0.30287 0.73043 0.77863
 O1046 O 0.23669 0.69946 0.78913
 O1047 O 0.20814 0.78191 0.78559
 O1048 O 0.25128 0.73206 0.80346
 O1049 O 0.23743 0.76528 0.80212
 O1050 O 0.18061 0.74558 0.76552
 O1051 O 0.19431 0.71023 0.76834
 C1052 C 0.24372 0.74880 0.81173
 H1053 H 0.20326 0.77508 0.74803
 H1054 H 0.22757 0.69917 0.74930
 H1055 H 0.27361 0.75951 0.78452
 H1056 H 0.26967 0.75463 0.70827
 H1057 H 0.17566 0.70930 0.73057
 H1058 H 0.23873 0.68679 0.70072
 H1059 H 0.27477 0.70210 0.69683
 H1060 H 0.31973 0.75339 0.73239
 H1061 H 0.16671 0.73940 0.75992
 H1062 H 0.21192 0.79431 0.79459
 H1063 H 0.24978 0.80396 0.79585
 H1064 H 0.31327 0.78254 0.76243
 H1065 H 0.17921 0.70571 0.76461
 H1066 H 0.24734 0.69319 0.79856
 H1067 H 0.24032 0.79900 0.69416
 H1068 H 0.30802 0.78696 0.72831
 Zr1069 Zr 0.24682 0.22178 0.21803
 O1070 O 0.23674 0.19874 0.19577
 O1071 O 0.27930 0.22768 0.21105
 O1072 O 0.24743 0.23487 0.18860
 O1073 O 0.25492 0.18512 0.25576
 O1074 O 0.22870 0.26527 0.19162
 O1075 O 0.26156 0.19211 0.22271
 O1076 O 0.29081 0.25360 0.23370
 O1077 O 0.25088 0.25487 0.22282
 O1078 O 0.26115 0.22608 0.24679
 O1079 O 0.21562 0.23377 0.21551
 O1080 O 0.22569 0.20585 0.23807
 Zr1081 Zr 0.21274 0.25682 0.27073
 Zr1082 Zr 0.21969 0.26652 0.22189
 Zr1083 Zr 0.23963 0.21193 0.26682
 Zr1084 Zr 0.26415 0.25886 0.25194
 O1085 O 0.22248 0.18358 0.27529
 O1086 O 0.27413 0.28878 0.23971
 O1087 O 0.24397 0.24469 0.27352
 O1088 O 0.23382 0.27227 0.25056
 O1089 O 0.19796 0.25258 0.24207
 O1090 O 0.20875 0.22380 0.26573
 C1091 C 0.29381 0.24082 0.21879
 C1092 C 0.26270 0.18025 0.23856
 C1093 C 0.23924 0.25189 0.18129
 O1094 O 0.23582 0.29589 0.21484
 O1095 O 0.20157 0.29192 0.23210
 O1096 O 0.19710 0.28590 0.26566
 C1097 C 0.19453 0.29707 0.24952
 O1098 O 0.19188 0.19554 0.21398
 Zr1099 Zr 0.19533 0.21962 0.23681
 O1100 O 0.18012 0.25095 0.27742
 O1101 O 0.19194 0.26865 0.20285
 O1102 O 0.17092 0.22904 0.21611
 O1103 O 0.18379 0.19048 0.24957
 O1104 O 0.16802 0.22652 0.25354
 C1105 C 0.16521 0.23888 0.26879
 O1106 O 0.22184 0.28097 0.29227
 O1107 O 0.26820 0.20846 0.28448
 O1108 O 0.21509 0.24542 0.30079
 O1109 O 0.23305 0.21449 0.29757
 O1110 O 0.28987 0.24969 0.27129
 O1111 O 0.26832 0.28065 0.27668
 C1112 C 0.22366 0.22858 0.30806
 H1113 H 0.27541 0.21962 0.24817
 H1114 H 0.23555 0.28777 0.25362
 H1115 H 0.19956 0.21660 0.27587
 H1116 H 0.20922 0.23108 0.20183
 H1117 H 0.28981 0.29100 0.24275
 H1118 H 0.22673 0.30289 0.20453
 H1119 H 0.19331 0.28255 0.19583
 H1120 H 0.15772 0.22006 0.21860
 H1121 H 0.30262 0.25920 0.26847
 H1122 H 0.26670 0.19445 0.29128
 H1123 H 0.23164 0.17646 0.28546
 H1124 H 0.16817 0.18871 0.24608
 H1125 H 0.28268 0.28814 0.27603
 H1126 H 0.20906 0.28341 0.30062
 H1127 H 0.24950 0.19596 0.18752
 H1128 H 0.17653 0.19053 0.21267
 Zr1129 Zr 0.73145 0.72666 0.27072
 O1130 O 0.74240 0.70265 0.29034
 O1131 O 0.70031 0.73079 0.28099
 O1132 O 0.73402 0.73779 0.30107
 O1133 O 0.71666 0.69273 0.23069
 O1134 O 0.75500 0.76857 0.29912
 O1135 O 0.71516 0.69663 0.26490
 O1136 O 0.68806 0.75819 0.26201
 O1137 O 0.72888 0.75988 0.26904
 O1138 O 0.71443 0.73254 0.24380
 O1139 O 0.76339 0.73950 0.27160
 O1140 O 0.74936 0.71292 0.24760
 Zr1141 Zr 0.76204 0.76635 0.21824
 Zr1142 Zr 0.76065 0.77251 0.26823
 Zr1143 Zr 0.73286 0.72061 0.22074
 Zr1144 Zr 0.71292 0.76552 0.24161
 O1145 O 0.74698 0.69321 0.20870
 O1146 O 0.70610 0.79427 0.25691
 O1147 O 0.72991 0.75363 0.21705
 O1148 O 0.74409 0.77977 0.24137
 O1149 O 0.77931 0.76066 0.24513
 O1150 O 0.76445 0.73321 0.22035
 C1151 C 0.68597 0.74415 0.27603
 C1152 C 0.71110 0.68615 0.24823
 C1153 C 0.74435 0.75424 0.30903
 O1154 O 0.74696 0.80070 0.27900
 O1155 O 0.77935 0.79902 0.25840
 O1156 O 0.78066 0.79504 0.22420
 C1157 C 0.78552 0.80518 0.24089
 O1158 O 0.78442 0.70175 0.26776
 Zr1159 Zr 0.78052 0.72755 0.24751
 O1160 O 0.79328 0.76238 0.20809
 O1161 O 0.79029 0.77438 0.28487
 O1162 O 0.80728 0.73619 0.26691
 O1163 O 0.78962 0.69999 0.23148
 O1164 O 0.80639 0.73707 0.22913
 C1165 C 0.80829 0.75046 0.21456
 O1166 O 0.75134 0.79131 0.19962
 O1167 O 0.70257 0.71805 0.20524
 O1168 O 0.75826 0.75599 0.18768
 O1169 O 0.73714 0.72542 0.18977
 O1170 O 0.68473 0.75679 0.22411
 O1171 O 0.70750 0.78890 0.21915
 C1172 C 0.74793 0.73952 0.17969
 H1173 H 0.69973 0.72571 0.24325
 H1174 H 0.74314 0.79541 0.23966
 H1175 H 0.77232 0.72689 0.20908
 H1176 H 0.77092 0.73601 0.28444
 H1177 H 0.69033 0.79613 0.25556
 H1178 H 0.75750 0.80734 0.28892
 H1179 H 0.79042 0.78771 0.29308
 H1180 H 0.81967 0.72798 0.26247
 H1181 H 0.67293 0.76559 0.22892
 H1182 H 0.70245 0.70473 0.19702
 H1183 H 0.73646 0.68673 0.19865
 H1184 H 0.80539 0.69873 0.23369
 H1185 H 0.69360 0.79562 0.22153
 H1186 H 0.76328 0.79510 0.19042
 H1187 H 0.73033 0.69875 0.29936
 H1188 H 0.79963 0.69748 0.26781
 Zr1189 Zr 0.76444 0.28780 0.78033
 O1190 O 0.75600 0.31106 0.80182
 O1191 O 0.79503 0.27972 0.79127
 O1192 O 0.76172 0.27426 0.80943
 O1193 O 0.78046 0.32389 0.74379
 O1194 O 0.73785 0.24581 0.80445
 O1195 O 0.78306 0.31688 0.77746
 O1196 O 0.80358 0.25223 0.77054
 O1197 O 0.76368 0.25463 0.77577
 O1198 O 0.78049 0.28243 0.75347
 O1199 O 0.73150 0.27796 0.77928
 O1200 O 0.74756 0.30473 0.75794
 Zr1201 Zr 0.72958 0.25475 0.72379
 Zr1202 Zr 0.73099 0.24508 0.77323
 Zr1203 Zr 0.76292 0.29759 0.73099
 Zr1204 Zr 0.77869 0.24957 0.74842
 O1205 O 0.75089 0.32649 0.71984
 O1206 O 0.78301 0.21880 0.76069
 O1207 O 0.76262 0.26469 0.72460
 O1208 O 0.74650 0.23827 0.74631
 O1209 O 0.71316 0.26008 0.75058
 O1210 O 0.73040 0.28789 0.72851
 C1211 C 0.80733 0.26476 0.78585
 C1212 C 0.78693 0.32869 0.76192
 C1213 C 0.75043 0.25796 0.81573
 O1214 O 0.74192 0.21490 0.78212
 O1215 O 0.71033 0.22069 0.76091
 O1216 O 0.71005 0.22627 0.72691
 C1217 C 0.70462 0.21543 0.74267
 O1218 O 0.71357 0.31740 0.77813
 Zr1219 Zr 0.71526 0.29309 0.75567
 O1220 O 0.69878 0.26261 0.71324
 O1221 O 0.70161 0.24508 0.78885
 O1222 O 0.68794 0.28528 0.77324
 O1223 O 0.70936 0.32285 0.74194
 O1224 O 0.68867 0.28808 0.73552
 C1225 C 0.68531 0.27593 0.71988
 O1226 O 0.73701 0.23044 0.70295
 O1227 O 0.79354 0.29928 0.71747
 O1228 O 0.73490 0.26653 0.69426
 O1229 O 0.75931 0.29444 0.69956
 O1230 O 0.80752 0.25739 0.73300
 O1231 O 0.78166 0.22796 0.72380
 C1232 C 0.74758 0.28185 0.68797
 H1233 H 0.79569 0.28800 0.75405
 H1234 H 0.74623 0.22272 0.74341
 H1235 H 0.72327 0.29564 0.71740
 H1236 H 0.72457 0.28112 0.79222
 H1237 H 0.79843 0.21555 0.75935
 H1238 H 0.73100 0.20859 0.79127
 H1239 H 0.70027 0.23127 0.79602
 H1240 H 0.67637 0.29495 0.76916
 H1241 H 0.81843 0.24718 0.73742
 H1242 H 0.79466 0.31309 0.71028
 H1243 H 0.76195 0.33274 0.71080
 H1244 H 0.69387 0.32563 0.74358
 H1245 H 0.79514 0.22016 0.72556
 H1246 H 0.72459 0.22866 0.69324
 H1247 H 0.76847 0.31311 0.81143
 H1248 H 0.69892 0.32315 0.77783
 C1249 C 0.42304 1.03008 0.30323
 C1250 C 0.43544 1.03084 0.32110
 C1251 C 0.45531 1.02098 0.32238
 C1252 C 0.46288 1.01076 0.30509
 C1253 C 0.45049 1.01011 0.28708
 C1254 C 0.43048 1.02002 0.28577
 C1255 C 0.46714 1.02159 0.34214
 C1256 C 0.48195 1.00764 0.34790
 C1257 C 0.49096 1.00731 0.36891
 C1258 C 0.49740 0.98789 0.37716
 C1259 C 0.50326 0.98659 0.39769
 C1260 C 0.50269 1.00473 0.41028
 C1261 C 0.49775 1.02443 0.40170
 C1262 C 0.49220 1.02578 0.38122
 H1263 H 0.40727 1.03679 0.30351
 H1264 H 0.42909 1.03863 0.33423
 H1265 H 0.47823 1.00316 0.30538
 H1266 H 0.45637 1.00139 0.27430
 H1267 H 0.46181 1.03305 0.35309
 H1268 H 0.48596 0.99482 0.33778
 H1269 H 0.49690 0.97349 0.36793
 H1270 H 0.50706 0.97121 0.40393
 H1271 H 0.49766 1.03877 0.41097
 H1272 H 0.48845 1.04126 0.37525
 C1273 C -0.07594 0.53854 0.81935
 C1274 C -0.06364 0.53811 0.83728
 C1275 C -0.04403 0.52771 0.83820
 C1276 C -0.03663 0.51816 0.82049
 C1277 C -0.04894 0.51863 0.80249
 C1278 C -0.06869 0.52902 0.80155
 C1279 C -0.03231 0.52701 0.85801
 C1280 C -0.01716 0.51302 0.86283
 C1281 C -0.00812 0.51125 0.88374
 C1282 C -0.00098 0.49145 0.89048
 C1283 C 0.00484 0.48857 0.91085
 C1284 C 0.00354 0.50549 0.92476
 C1285 C -0.00201 0.52568 0.91771
 C1286 C -0.00752 0.52862 0.89741
 H1287 H -0.09147 0.54570 0.81986
 H1288 H -0.06985 0.54544 0.85071
 H1289 H -0.02148 0.51023 0.82041
 H1290 H -0.04318 0.51041 0.78935
 H1291 H -0.03789 0.53750 0.86967
 H1292 H -0.01277 0.50113 0.85190
 H1293 H -0.00095 0.47789 0.88019
 H1294 H 0.00907 0.47284 0.91591
 H1295 H -0.00273 0.53911 0.92808
 H1296 H -0.01181 0.54440 0.89265
 C1297 C 0.08534 -0.01959 0.81217
 C1298 C 0.07610 -0.01854 0.83107
 C1299 C 0.05489 -0.01209 0.83315
 C1300 C 0.04290 -0.00696 0.81565
 C1301 C 0.05217 -0.00815 0.79652
 C1302 C 0.07349 -0.01488 0.79445
 C1303 C 0.04638 -0.01128 0.85390
 C1304 C 0.02906 -0.00071 0.85961
 C1305 C 0.02266 0.00009 0.88114
 C1306 C 0.01205 0.01785 0.88864
 C1307 C 0.00763 0.01959 0.90930
 C1308 C 0.01395 0.00364 0.92275
 C1309 C 0.02349 -0.01456 0.91504
 C1310 C 0.02750 -0.01648 0.89452
 H1311 H 0.10212 -0.02364 0.81153
 H1312 H 0.08585 -0.02238 0.84426
 H1313 H 0.02645 -0.00200 0.81660
 H1314 H 0.04274 -0.00322 0.78357
 H1315 H 0.05599 -0.01893 0.86539
 H1316 H 0.02033 0.00873 0.84878
 H1317 H 0.00779 0.03068 0.87861
 H1318 H 0.00006 0.03370 0.91487
 H1319 H 0.02794 -0.02741 0.92497
 H1320 H 0.03455 -0.03098 0.88928
 C1321 C 0.58382 0.48237 0.31478
 C1322 C 0.57445 0.48228 0.33367
 C1323 C 0.55298 0.48790 0.33586
 C1324 C 0.54087 0.49331 0.31852
 C1325 C 0.55026 0.49325 0.29943
 C1326 C 0.57187 0.48753 0.29727
 C1327 C 0.54408 0.48718 0.35644
 C1328 C 0.52656 0.49724 0.36244
 C1329 C 0.51928 0.49593 0.38365
 C1330 C 0.50871 0.51303 0.39245
 C1331 C 0.50319 0.51250 0.41292
 C1332 C 0.50827 0.49486 0.42485
 C1333 C 0.51786 0.47740 0.41571
 C1334 C 0.52305 0.47780 0.39540
 H1335 H 0.60070 0.47870 0.31391
 H1336 H 0.58421 0.47811 0.34674
 H1337 H 0.52417 0.49750 0.31957
 H1338 H 0.54064 0.49819 0.28662
 H1339 H 0.55339 0.47865 0.36757
 H1340 H 0.51820 0.50758 0.35215
 H1341 H 0.50528 0.52704 0.38364
 H1342 H 0.49558 0.52607 0.41953
 H1343 H 0.52137 0.46327 0.42433
 H1344 H 0.53009 0.46383 0.38898
 C1345 C 0.55400 0.47901 0.21505
 C1346 C 0.54555 0.47772 0.19524
 C1347 C 0.55545 0.48932 0.17970
 C1348 C 0.57432 0.50192 0.18437
 C1349 C 0.58278 0.50315 0.20415
 C1350 C 0.57273 0.49179 0.21975
 C1351 C 0.54642 0.48714 0.15870
 C1352 C 0.54937 0.50241 0.14482
 C1353 C 0.54289 0.50021 0.12312
 C1354 C 0.55367 0.51361 0.10948
 C1355 C 0.54892 0.51216 0.08884
 C1356 C 0.53297 0.49741 0.08115
 C1357 C 0.52161 0.48431 0.09478
 C1358 C 0.52660 0.48559 0.11562
 H1359 H 0.54611 0.46957 0.22657
 H1360 H 0.53123 0.46761 0.19203
 H1361 H 0.58298 0.51048 0.17276
 H1362 H 0.59722 0.51308 0.20715
 H1363 H 0.53741 0.47247 0.15470
 H1364 H 0.55800 0.51718 0.14925
 H1365 H 0.56615 0.52512 0.11479
 H1366 H 0.55781 0.52274 0.07886
 H1367 H 0.50915 0.47289 0.08933
 H1368 H 0.51757 0.47532 0.12571
 C1369 C 0.05423 0.97681 0.71408
 C1370 C 0.04520 0.97503 0.69449
 C1371 C 0.05712 0.98139 0.67773
 C1372 C 0.07811 0.99030 0.68105
 C1373 C 0.08716 0.99222 0.70060
 C1374 C 0.07555 0.98528 0.71763
 C1375 C 0.04703 0.97934 0.65710
 C1376 C 0.05872 0.97623 0.64059
 C1377 C 0.05021 0.97543 0.61931
 C1378 C 0.06522 0.97315 0.60400
 C1379 C 0.05894 0.97417 0.58368
 C1380 C 0.03733 0.97736 0.57794
 C1381 C 0.02194 0.97859 0.59311
 C1382 C 0.02830 0.97774 0.61363
 H1383 H 0.04441 0.97076 0.72618
 H1384 H 0.02890 0.96826 0.69241
 H1385 H 0.08748 0.99637 0.66860
 H1386 H 0.10301 0.99998 0.70201
 H1387 H 0.02966 0.97997 0.65584
 H1388 H 0.07593 0.97440 0.64267
 H1389 H 0.08214 0.97119 0.60776
 H1390 H 0.07121 0.97295 0.57240
 H1391 H 0.00519 0.98112 0.58915
 H1392 H 0.01607 0.97941 0.62481
 C1393 C -0.05853 0.54406 0.72081
 C1394 C -0.04996 0.54558 0.70150
 C1395 C -0.05721 0.53140 0.68603
 C1396 C -0.07389 0.51615 0.69008
 C1397 C -0.08261 0.51475 0.70935
 C1398 C -0.07482 0.52850 0.72498
 C1399 C -0.04758 0.53334 0.66577
 C1400 C -0.04607 0.51652 0.65327
 C1401 C -0.03808 0.51771 0.63231
 C1402 C -0.04378 0.50061 0.61918
 C1403 C -0.03785 0.50108 0.59903
 C1404 C -0.02577 0.51860 0.59141
 C1405 C -0.01914 0.53540 0.60468
 C1406 C -0.02530 0.53503 0.62497
 H1407 H -0.05252 0.55519 0.73244
 H1408 H -0.03741 0.55769 0.69871
 H1409 H -0.08046 0.50543 0.67835
 H1410 H -0.09516 0.50264 0.71211
 H1411 H -0.04149 0.54901 0.66133
 H1412 H -0.05182 0.50092 0.65831
 H1413 H -0.05337 0.48697 0.62441
 H1414 H -0.04301 0.48773 0.58930
 H1415 H -0.00976 0.54907 0.59924
 H1416 H -0.02005 0.54828 0.63472
 C1417 C 0.41161 -0.00151 0.19491
 C1418 C 0.41885 -0.00220 0.17510
 C1419 C 0.43642 0.01097 0.16910
 C1420 C 0.44646 0.02515 0.18341
 C1421 C 0.43917 0.02586 0.20326
 C1422 C 0.42169 0.01249 0.20924
 C1423 C 0.44316 0.00954 0.14774
 C1424 C 0.46211 0.01724 0.14070
 C1425 C 0.46812 0.01472 0.11922
 C1426 C 0.48273 0.02963 0.11061
 C1427 C 0.48794 0.02803 0.09014
 C1428 C 0.47865 0.01142 0.07795
 C1429 C 0.46481 -0.00398 0.08686
 C1430 C 0.45974 -0.00247 0.10720
 H1431 H 0.39834 -0.01226 0.19905
 H1432 H 0.41077 -0.01327 0.16444
 H1433 H 0.45965 0.03601 0.17940
 H1434 H 0.44702 0.03717 0.21381
 H1435 H 0.43174 0.00142 0.13736
 H1436 H 0.47353 0.02593 0.15065
 H1437 H 0.48971 0.04282 0.11961
 H1438 H 0.49873 0.04010 0.08376
 H1439 H 0.45773 -0.01728 0.07804
 H1440 H 0.44932 -0.01491 0.11341
 C1441 C 0.31714 0.37261 0.01008
 C1442 C 0.33705 0.38369 0.01269
 C1443 C 0.33866 0.40599 0.01101
 C1444 C 0.31970 0.41704 0.00705
 C1445 C 0.29966 0.40593 0.00455
 C1446 C 0.29805 0.38346 0.00608
 C1447 C 0.36035 0.41694 0.01350
 C1448 C 0.36566 0.43565 0.00481
 C1449 C 0.38800 0.44529 0.00511
 C1450 C 0.39418 0.45828 -0.01106
 C1451 C 0.41519 0.46709 -0.01197
 C1452 C 0.43056 0.46346 0.00349
 C1453 C 0.42423 0.45106 0.02011
 C1454 C 0.40317 0.44196 0.02088
 H1455 H 0.31661 0.35534 0.01122
 H1456 H 0.35134 0.37474 0.01574
 H1457 H 0.32019 0.43430 0.00609
 H1458 H 0.28570 0.41517 0.00136
 H1459 H 0.37281 0.40831 0.02125
 H1460 H 0.35375 0.44332 -0.00455
 H1461 H 0.38281 0.46128 -0.02330
 H1462 H 0.41939 0.47678 -0.02488
 H1463 H 0.43562 0.44812 0.03232
 H1464 H 0.39880 0.43248 0.03387
 C1465 C -0.18311 0.87448 0.49077
 C1466 C -0.16298 0.88516 0.49348
 C1467 C -0.16145 0.90702 0.49833
 C1468 C -0.18064 0.91798 0.50054
 C1469 C -0.20085 0.90726 0.49793
 C1470 C -0.20243 0.88529 0.49293
 C1471 C -0.13966 0.91751 0.50167
 C1472 C -0.13544 0.93853 0.49932
 C1473 C -0.11331 0.94851 0.50108
 C1474 C -0.10816 0.96626 0.48909
 C1475 C -0.08725 0.97552 0.48948
 C1476 C -0.07104 0.96754 0.50223
 C1477 C -0.07641 0.95039 0.51498
 C1478 C -0.09732 0.94085 0.51434
 H1479 H -0.18363 0.85750 0.48737
 H1480 H -0.14850 0.87624 0.49187
 H1481 H -0.18017 0.93468 0.50493
 H1482 H -0.21496 0.91630 0.50052
 H1483 H -0.12639 0.90724 0.50489
 H1484 H -0.14823 0.94857 0.49416
 H1485 H -0.12023 0.97263 0.47894
 H1486 H -0.08371 0.98885 0.47959
 H1487 H -0.06432 0.94395 0.52502
 H1488 H -0.10092 0.92755 0.52421
 C1489 C -0.21048 0.09803 1.00688
 C1490 C -0.19206 0.08592 1.00877
 C1491 C -0.17191 0.09404 1.00248
 C1492 C -0.17037 0.11504 0.99512
 C1493 C -0.18875 0.12722 0.99336
 C1494 C -0.20932 0.11864 0.99841
 C1495 C -0.15278 0.08058 1.00474
 C1496 C -0.13508 0.08295 0.99349
 C1497 C -0.11590 0.06953 0.99572
 C1498 C -0.10182 0.06800 0.97951
 C1499 C -0.08322 0.05610 0.98120
 C1500 C -0.07811 0.04560 0.99928
 C1501 C -0.09218 0.04720 1.01555
 C1502 C -0.11080 0.05902 1.01383
 H1503 H -0.22551 0.09118 1.01235
 H1504 H -0.19361 0.07005 1.01512
 H1505 H -0.15494 0.12234 0.99112
 H1506 H -0.18680 0.14348 0.98807
 H1507 H -0.15393 0.06761 1.01541
 H1508 H -0.13484 0.09463 0.98152
 H1509 H -0.10521 0.07608 0.96545
 H1510 H -0.07270 0.05540 0.96841
 H1511 H -0.08871 0.03948 1.02978
 H1512 H -0.12079 0.06029 1.02691
 C1513 C 0.30871 0.62370 0.52273
 C1514 C 0.32645 0.61065 0.52374
 C1515 C 0.32856 0.59398 0.50976
 C1516 C 0.31207 0.59008 0.49507
 C1517 C 0.29411 0.60295 0.49422
 C1518 C 0.29216 0.62010 0.50792
 C1519 C 0.34787 0.58078 0.51142
 C1520 C 0.35646 0.57076 0.49569
 C1521 C 0.37617 0.55810 0.49771
 C1522 C 0.38945 0.55574 0.48100
 C1523 C 0.40810 0.54383 0.48247
 C1524 C 0.41371 0.53377 0.50067
 C1525 C 0.40020 0.53594 0.51729
 C1526 C 0.38169 0.54787 0.51583
 H1527 H 0.30859 0.63676 0.53342
 H1528 H 0.33889 0.61394 0.53527
 H1529 H 0.31287 0.57701 0.48434
 H1530 H 0.28180 0.59975 0.48256
 H1531 H 0.35605 0.58052 0.52605
 H1532 H 0.34959 0.57276 0.48066
 H1533 H 0.38548 0.56329 0.46680
 H1534 H 0.41803 0.54243 0.46934
 H1535 H 0.40383 0.52830 0.53152
 H1536 H 0.37154 0.54867 0.52885
 C1537 C 0.19505 0.63825 0.49043
 C1538 C 0.17323 0.63191 0.49198
 C1539 C 0.16659 0.61615 0.50577
 C1540 C 0.18247 0.60670 0.51792
 C1541 C 0.20434 0.61304 0.51635
 C1542 C 0.21090 0.62890 0.50257
 C1543 C 0.14324 0.60931 0.50594
 C1544 C 0.13378 0.59750 0.52045
 C1545 C 0.11083 0.58921 0.51903
 C1546 C 0.10036 0.58218 0.53657
 C1547 C 0.07939 0.57265 0.53543
 C1548 C 0.06853 0.56974 0.51664
 C1549 C 0.07885 0.57730 0.49922
 C1550 C 0.09965 0.58673 0.50035
 H1551 H 0.19950 0.65026 0.47946
 H1552 H 0.16147 0.63931 0.48222
 H1553 H 0.17826 0.59417 0.52842
 H1554 H 0.21607 0.60569 0.52615
 H1555 H 0.13341 0.61464 0.49338
 H1556 H 0.14298 0.59367 0.53393
 H1557 H 0.10859 0.58371 0.55117
 H1558 H 0.07202 0.56690 0.54913
 H1559 H 0.07109 0.57536 0.48444
 H1560 H 0.10712 0.59120 0.48633
 C1561 C 0.69273 0.13707 -0.01567
 C1562 C 0.67140 0.12873 -0.01601
 C1563 C 0.66629 0.10855 -0.00798
 C1564 C 0.68312 0.09656 -0.00004
 C1565 C 0.70452 0.10471 0.00005
 C1566 C 0.70979 0.12524 -0.00759
 C1567 C 0.64354 0.10001 -0.00920
 C1568 C 0.63511 0.08605 0.00408
 C1569 C 0.61265 0.07674 0.00229
 C1570 C 0.60230 0.06936 0.01970
 C1571 C 0.58168 0.05925 0.01837
 C1572 C 0.57110 0.05593 -0.00051
 C1573 C 0.58140 0.06354 -0.01791
 C1574 C 0.60188 0.07382 -0.01655
 H1575 H 0.69564 0.15245 -0.02259
 H1576 H 0.65879 0.13812 -0.02262
 H1577 H 0.67988 0.08069 0.00583
 H1578 H 0.71675 0.09499 0.00678
 H1579 H 0.63324 0.10612 -0.02108
 H1580 H 0.64479 0.08161 0.01710
 H1581 H 0.61029 0.07125 0.03439
 H1582 H 0.57432 0.05348 0.03206
 H1583 H 0.57379 0.06122 -0.03272
 H1584 H 0.60950 0.07875 -0.03038
 C1585 C 0.71129 0.89795 0.50544
 C1586 C 0.69071 0.90606 0.50688
 C1587 C 0.67289 0.89625 0.49647
 C1588 C 0.67604 0.87769 0.48495
 C1589 C 0.69666 0.86945 0.48365
 C1590 C 0.71459 0.87961 0.49368
 C1591 C 0.65137 0.90554 0.49860
 C1592 C 0.63500 0.90294 0.48497
 C1593 C 0.61425 0.91379 0.48701
 C1594 C 0.60256 0.91945 0.46955
 C1595 C 0.58382 0.93112 0.47099
 C1596 C 0.57622 0.93715 0.48998
 C1597 C 0.58730 0.93037 0.50745
 C1598 C 0.60603 0.91882 0.50599
 H1599 H 0.72459 0.90592 0.51379
 H1600 H 0.68873 0.92020 0.51610
 H1601 H 0.66263 0.86929 0.47716
 H1602 H 0.69851 0.85529 0.47458
 H1603 H 0.64954 0.91619 0.51137
 H1604 H 0.63735 0.89406 0.47116
 H1605 H 0.60836 0.91549 0.45473
 H1606 H 0.57567 0.93593 0.45721
 H1607 H 0.58184 0.93445 0.52235
 H1608 H 0.61410 0.91400 0.51980
 C1609 C 0.21230 0.39573 0.98491
 C1610 C 0.19169 0.40386 0.98264
 C1611 C 0.17353 0.39298 0.99049
 C1612 C 0.17642 0.37320 0.99998
 C1613 C 0.19708 0.36503 1.00220
 C1614 C 0.21536 0.37636 0.99503
 C1615 C 0.15211 0.40291 0.98842
 C1616 C 0.13534 0.39825 1.00036
 C1617 C 0.11485 0.40994 0.99996
 C1618 C 0.10241 0.40978 1.01739
 C1619 C 0.08370 0.42144 1.01832
 C1620 C 0.07668 0.43343 1.00170
 C1621 C 0.08857 0.43286 0.98388
 C1622 C 0.10746 0.42126 0.98300
 H1623 H 0.22583 0.40466 0.97862
 H1624 H 0.19000 0.41894 0.97498
 H1625 H 0.16283 0.36388 1.00566
 H1626 H 0.19868 0.35003 1.00991
 H1627 H 0.15085 0.41578 0.97771
 H1628 H 0.13720 0.38664 1.01221
 H1629 H 0.10750 0.40104 1.03060
 H1630 H 0.07491 0.42131 1.03226
 H1631 H 0.08360 0.44181 0.97076
 H1632 H 0.11616 0.42127 0.96904
 C1633 C -0.00114 0.29689 0.43456
 C1634 C -0.00062 0.31679 0.44434
 C1635 C -0.00380 0.33550 0.43336
 C1636 C -0.00712 0.33406 0.41233
 C1637 C -0.00786 0.31430 0.40264
 C1638 C -0.00464 0.29542 0.41349
 C1639 C -0.00295 0.35630 0.44405
 C1640 C -0.01274 0.37336 0.43671
 C1641 C -0.01139 0.39457 0.44659
 C1642 C -0.02715 0.40919 0.44161
 C1643 C -0.02644 0.42948 0.45046
 C1644 C -0.00985 0.43555 0.46446
 C1645 C 0.00623 0.42108 0.46910
 C1646 C 0.00556 0.40083 0.46017
 H1647 H 0.00096 0.28294 0.44372
 H1648 H 0.00208 0.31756 0.46057
 H1649 H -0.00882 0.34813 0.40316
 H1650 H -0.01076 0.31373 0.38643
 H1651 H 0.00535 0.35721 0.45862
 H1652 H -0.02292 0.37172 0.42322
 H1653 H -0.04020 0.40481 0.43097
 H1654 H -0.03907 0.44027 0.44655
 H1655 H 0.01938 0.42540 0.47963
 H1656 H 0.01851 0.39035 0.46377
 C1657 C 0.50657 -0.21606 -0.08136
 C1658 C 0.50603 -0.19661 -0.07091
 C1659 C 0.49649 -0.17894 -0.07978
 C1660 C 0.48754 -0.18106 -0.09944
 C1661 C 0.48787 -0.20048 -0.10978
 C1662 C 0.49736 -0.21830 -0.10100
 C1663 C 0.49742 -0.15833 -0.06861
 C1664 C 0.48491 -0.14207 -0.07340
 C1665 C 0.48668 -0.12083 -0.06340
 C1666 C 0.46978 -0.10690 -0.06647
 C1667 C 0.47092 -0.08645 -0.05793
 C1668 C 0.48902 -0.07950 -0.04607
 C1669 C 0.50603 -0.09334 -0.04309
 C1670 C 0.50498 -0.11374 -0.05179
 H1671 H 0.51470 -0.22885 -0.07399
 H1672 H 0.51338 -0.19529 -0.05591
 H1673 H 0.48086 -0.16772 -0.10732
 H1674 H 0.48113 -0.20145 -0.12504
 H1675 H 0.50864 -0.15683 -0.05586
 H1676 H 0.47234 -0.14432 -0.08494
 H1677 H 0.45560 -0.11187 -0.07551
 H1678 H 0.45749 -0.07618 -0.06044
 H1679 H 0.52030 -0.08831 -0.03422
 H1680 H 0.51875 -0.12359 -0.04962
 C1681 C 0.01739 -0.21947 1.07734
 C1682 C 0.01908 -0.20106 1.06553
 C1683 C 0.01765 -0.18078 1.07443
 C1684 C 0.01412 -0.17915 1.09522
 C1685 C 0.01240 -0.19734 1.10691
 C1686 C 0.01400 -0.21777 1.09824
 C1687 C 0.01801 -0.16151 1.06182
 C1688 C 0.02500 -0.14250 1.06939
 C1689 C 0.02117 -0.12194 1.05961
 C1690 C 0.03305 -0.10377 1.06676
 C1691 C 0.02860 -0.08362 1.05945
 C1692 C 0.01203 -0.08120 1.04487
 C1693 C 0.00011 -0.09940 1.03767
 C1694 C 0.00456 -0.11959 1.04502
 H1695 H 0.01830 -0.23477 1.06985
 H1696 H 0.02134 -0.20264 1.04942
 H1697 H 0.01190 -0.16386 1.10247
 H1698 H 0.00927 -0.19550 1.12285
 H1699 H 0.01177 -0.16301 1.04644
 H1700 H 0.03326 -0.14180 1.08403
 H1701 H 0.04572 -0.10516 1.07819
 H1702 H 0.03822 -0.06995 1.06521
 H1703 H -0.01276 -0.09806 1.02644
 H1704 H -0.00546 -0.13313 1.03966
 C1705 C 0.49586 0.26377 0.56870
 C1706 C 0.49089 0.27997 0.55519
 C1707 C 0.47360 0.29302 0.55886
 C1708 C 0.45986 0.28819 0.57484
 C1709 C 0.46480 0.27213 0.58834
 C1710 C 0.48323 0.26005 0.58583
 C1711 C 0.47240 0.31354 0.54831
 C1712 C 0.46986 0.33150 0.55898
 C1713 C 0.47310 0.35303 0.55064
 C1714 C 0.48122 0.36947 0.56357
 C1715 C 0.48475 0.39012 0.55634
 C1716 C 0.47978 0.39475 0.53611
 C1717 C 0.47138 0.37833 0.52318
 C1718 C 0.46815 0.35758 0.53036
 H1719 H 0.51058 0.25544 0.56652
 H1720 H 0.50172 0.28356 0.54296
 H1721 H 0.44622 0.29794 0.57779
 H1722 H 0.45507 0.27043 0.60161
 H1723 H 0.47703 0.31433 0.53266
 H1724 H 0.46775 0.33050 0.57516
 H1725 H 0.48504 0.36627 0.57929
 H1726 H 0.49100 0.40252 0.56668
 H1727 H 0.46735 0.38151 0.50751
 H1728 H 0.46147 0.34525 0.52017
 C1729 C 0.51952 1.18197 0.62538
 C1730 C 0.52719 1.16179 0.62132
 C1731 C 0.54184 1.15902 0.60581
 C1732 C 0.55061 1.17718 0.59601
 C1733 C 0.54268 1.19728 0.59985
 C1734 C 0.52644 1.19960 0.61394
 C1735 C 0.54489 1.13705 0.59840
 C1736 C 0.54904 1.13299 0.57903
 C1737 C 0.54487 1.11192 0.56935
 C1738 C 0.55588 1.10735 0.55174
 C1739 C 0.55013 1.08918 0.54027
 C1740 C 0.53295 1.07532 0.54602
 C1741 C 0.52216 1.07962 0.56391
 C1742 C 0.52807 1.09778 0.57550
 H1743 H 0.50701 1.18343 0.63638
 H1744 H 0.52039 1.14812 0.62924
 H1745 H 0.56281 1.17587 0.58472
 H1746 H 0.54859 1.21089 0.59127
 H1747 H 0.54033 1.12394 0.60820
 H1748 H 0.55371 1.14585 0.56904
 H1749 H 0.56864 1.11819 0.54658
 H1750 H 0.55882 1.08633 0.52658
 H1751 H 0.50894 1.06919 0.56876
 H1752 H 0.51875 1.10120 0.58866
 C1753 C 0.02553 0.69332 1.10171
 C1754 C 0.02545 0.67134 1.09803
 C1755 C 0.00884 0.65779 1.10550
 C1756 C -0.00777 0.66658 1.11637
 C1757 C -0.00755 0.68849 1.12024
 C1758 C 0.00910 0.70198 1.11295
 C1759 C 0.00749 0.63477 1.10079
 C1760 C 0.02502 0.62337 1.09826
 C1761 C 0.02367 0.60166 1.08945
 C1762 C 0.04060 0.59540 1.07742
 C1763 C 0.03852 0.57659 1.06605
 C1764 C 0.01949 0.56357 1.06665
 C1765 C 0.00326 0.56897 1.07998
 C1766 C 0.00534 0.58785 1.09135
 H1767 H 0.03850 0.70351 1.09597
 H1768 H 0.03807 0.66511 1.08894
 H1769 H -0.02091 0.65646 1.12190
 H1770 H -0.02059 0.69494 1.12867
 H1771 H -0.00851 0.62741 1.09855
 H1772 H 0.04093 0.63096 1.10057
 H1773 H 0.05498 0.60567 1.07596
 H1774 H 0.05153 0.57269 1.05622
 H1775 H -0.01139 0.55903 1.08111
 H1776 H -0.00763 0.59179 1.10118
 C1777 C 0.51077 0.68588 -0.12320
 C1778 C 0.51867 0.66643 -0.11688
 C1779 C 0.53282 0.66559 -0.10012
 C1780 C 0.54002 0.68477 -0.09050
 C1781 C 0.53196 0.70419 -0.09661
 C1782 C 0.51688 0.70508 -0.11285
 C1783 C 0.53818 0.64443 -0.09214
 C1784 C 0.54217 0.64141 -0.07243
 C1785 C 0.54107 0.62011 -0.06313
 C1786 C 0.53367 0.61867 -0.04336
 C1787 C 0.53011 0.59884 -0.03448
 C1788 C 0.53421 0.57997 -0.04509
 C1789 C 0.54264 0.58137 -0.06457
 C1790 C 0.54599 0.60133 -0.07358
 H1791 H 0.49884 0.68534 -0.13539
 H1792 H 0.51289 0.65185 -0.12455
 H1793 H 0.55175 0.68489 -0.07811
 H1794 H 0.53806 0.71854 -0.08880
 H1795 H 0.53546 0.63073 -0.10212
 H1796 H 0.54285 0.65497 -0.06215
 H1797 H 0.52992 0.63293 -0.03498
 H1798 H 0.52399 0.59832 -0.01931
 H1799 H 0.54619 0.56707 -0.07297
 H1800 H 0.55228 0.60198 -0.08868
 C1801 C -0.00930 1.19729 0.40293
 C1802 C -0.00505 1.17718 0.41059
 C1803 C 0.01351 1.17429 0.42263
 C1804 C 0.02788 1.19182 0.42688
 C1805 C 0.02341 1.21202 0.41950
 C1806 C 0.00470 1.21488 0.40763
 C1807 C 0.01627 1.15342 0.43214
 C1808 C 0.03553 1.14564 0.43680
 C1809 C 0.03675 1.12531 0.44765
 C1810 C 0.05030 1.10947 0.44100
 C1811 C 0.04950 1.08928 0.44993
 C1812 C 0.03545 1.08493 0.46590
 C1813 C 0.02300 1.10139 0.47332
 C1814 C 0.02359 1.12133 0.46424
 H1815 H -0.02391 1.19925 0.39396
 H1816 H -0.01643 1.16391 0.40736
 H1817 H 0.04206 1.19013 0.43651
 H1818 H 0.03446 1.22544 0.42317
 H1819 H 0.00171 1.14391 0.43528
 H1820 H 0.05031 1.15369 0.43198
 H1821 H 0.06072 1.11241 0.42833
 H1822 H 0.05945 1.07697 0.44403
 H1823 H 0.01213 1.09870 0.48568
 H1824 H 0.01339 1.13356 0.46990
 C1825 C 0.77576 0.66789 0.93430
 C1826 C 0.77393 0.67849 0.91593
 C1827 C 0.76440 0.69839 0.91478
 C1828 C 0.75685 0.70759 0.93259
 C1829 C 0.75875 0.69696 0.95107
 C1830 C 0.76860 0.67706 0.95227
 C1831 C 0.76322 0.70887 0.89475
 C1832 C 0.75045 0.72500 0.88987
 C1833 C 0.74970 0.73388 0.86910
 C1834 C 0.73049 0.74219 0.86127
 C1835 C 0.72890 0.74846 0.84097
 C1836 C 0.74653 0.74642 0.82828
 C1837 C 0.76611 0.73952 0.83652
 C1838 C 0.76777 0.73357 0.85670
 H1839 H 0.78266 0.65228 0.93441
 H1840 H 0.77979 0.67092 0.90247
 H1841 H 0.74956 0.72298 0.93242
 H1842 H 0.75202 0.70431 0.96418
 H1843 H 0.77278 0.70200 0.88307
 H1844 H 0.73924 0.73083 0.90068
 H1845 H 0.71644 0.74296 0.87062
 H1846 H 0.71365 0.75378 0.83495
 H1847 H 0.78010 0.73825 0.82715
 H1848 H 0.78318 0.72837 0.86240
 C1849 C 0.25842 0.20227 0.46046
 C1850 C 0.25323 0.21367 0.44299
 C1851 C 0.25661 0.20493 0.42382
 C1852 C 0.26683 0.18539 0.42242
 C1853 C 0.27219 0.17411 0.43979
 C1854 C 0.26782 0.18215 0.45913
 C1855 C 0.24853 0.21570 0.40541
 C1856 C 0.23907 0.20422 0.39016
 C1857 C 0.23184 0.21260 0.37028
 C1858 C 0.22260 0.19773 0.35625
 C1859 C 0.21845 0.20354 0.33632
 C1860 C 0.22313 0.22447 0.32992
 C1861 C 0.23085 0.23990 0.34414
 C1862 C 0.23532 0.23401 0.36421
 H1863 H 0.25388 0.20879 0.47483
 H1864 H 0.24539 0.22874 0.44442
 H1865 H 0.27011 0.17846 0.40783
 H1866 H 0.27873 0.15846 0.43800
 H1867 H 0.24970 0.23296 0.40495
 H1868 H 0.23690 0.18709 0.39215
 H1869 H 0.21957 0.18120 0.36043
 H1870 H 0.21252 0.19136 0.32559
 H1871 H 0.23482 0.25609 0.33942
 H1872 H 0.24235 0.24602 0.37449
 C1873 C 0.72879 0.33265 0.43578
 C1874 C 0.72916 0.32161 0.41742
 C1875 C 0.74053 0.30282 0.41558
 C1876 C 0.75168 0.29528 0.43267
 C1877 C 0.75132 0.30637 0.45113
 C1878 C 0.73928 0.32490 0.45316
 C1879 C 0.74007 0.29193 0.39555
 C1880 C 0.75301 0.27631 0.39001
 C1881 C 0.75214 0.26738 0.36913
 C1882 C 0.77104 0.26025 0.36037
 C1883 C 0.77109 0.25454 0.33982
 C1884 C 0.75221 0.25597 0.32785
 C1885 C 0.73301 0.26150 0.33696
 C1886 C 0.73288 0.26684 0.35741
 H1887 H 0.72054 0.34752 0.43616
 H1888 H 0.72070 0.32803 0.40445
 H1889 H 0.76070 0.28090 0.43199
 H1890 H 0.76079 0.30051 0.46368
 H1891 H 0.72896 0.29808 0.38437
 H1892 H 0.76557 0.27110 0.40022
 H1893 H 0.78601 0.26016 0.36917
 H1894 H 0.78608 0.25030 0.33304
 H1895 H 0.71816 0.26234 0.32805
 H1896 H 0.71774 0.27111 0.36384
 C1897 C 0.21958 0.82788 0.94073
 C1898 C 0.21872 0.81605 0.92276
 C1899 C 0.22903 0.79659 0.92126
 C1900 C 0.24006 0.78901 0.93840
 C1901 C 0.24093 0.80088 0.95645
 C1902 C 0.23035 0.82034 0.95807
 C1903 C 0.22799 0.78536 0.90139
 C1904 C 0.24014 0.76900 0.89612
 C1905 C 0.23975 0.76035 0.87513
 C1906 C 0.25846 0.75166 0.86739
 C1907 C 0.25947 0.74633 0.84681
 C1908 C 0.24177 0.74975 0.83379
 C1909 C 0.22259 0.75686 0.84179
 C1910 C 0.22144 0.76176 0.86229
 H1911 H 0.21235 0.84326 0.94055
 H1912 H 0.21035 0.82248 0.90976
 H1913 H 0.24817 0.77407 0.93803
 H1914 H 0.25022 0.79496 0.96911
 H1915 H 0.21751 0.79211 0.89003
 H1916 H 0.25205 0.76308 0.90663
 H1917 H 0.27267 0.75006 0.87702
 H1918 H 0.27442 0.74085 0.84087
 H1919 H 0.20864 0.75925 0.83200
 H1920 H 0.20634 0.76724 0.86783
 C1921 C 0.22155 0.80631 0.03653
 C1922 C 0.21991 0.79707 0.05558
 C1923 C 0.23037 0.80665 0.07250
 C1924 C 0.24184 0.82633 0.07008
 C1925 C 0.24330 0.83581 0.05100
 C1926 C 0.23351 0.82578 0.03371
 C1927 C 0.22877 0.79577 0.09233
 C1928 C 0.24463 0.79735 0.10648
 C1929 C 0.24444 0.78640 0.12639
 C1930 C 0.26375 0.78718 0.13790
 C1931 C 0.26444 0.77916 0.15744
 C1932 C 0.24583 0.77001 0.16613
 C1933 C 0.22663 0.76809 0.15442
 C1934 C 0.22587 0.77634 0.13470
 H1935 H 0.21268 0.79826 0.02423
 H1936 H 0.21059 0.78214 0.05705
 H1937 H 0.24964 0.83454 0.08292
 H1938 H 0.25290 0.85055 0.04994
 H1939 H 0.21485 0.78514 0.09457
 H1940 H 0.25912 0.80680 0.10313
 H1941 H 0.27834 0.79464 0.13197
 H1942 H 0.27951 0.78077 0.16609
 H1943 H 0.21200 0.76134 0.16088
 H1944 H 0.21057 0.77551 0.12649
 C1945 C 0.73610 0.30802 0.53211
 C1946 C 0.73482 0.29929 0.55142
 C1947 C 0.74071 0.31160 0.56856
 C1948 C 0.74758 0.33308 0.56601
 C1949 C 0.74877 0.34192 0.54670
 C1950 C 0.74302 0.32961 0.52926
 C1951 C 0.73892 0.30174 0.58882
 C1952 C 0.75151 0.30823 0.60464
 C1953 C 0.75041 0.29910 0.62524
 C1954 C 0.76764 0.30419 0.63877
 C1955 C 0.76693 0.29776 0.65883
 C1956 C 0.74889 0.28605 0.66603
 C1957 C 0.73187 0.28019 0.65240
 C1958 C 0.73254 0.28675 0.63218
 H1959 H 0.73065 0.29774 0.51968
 H1960 H 0.72917 0.28278 0.55296
 H1961 H 0.75176 0.34330 0.57890
 H1962 H 0.75476 0.35831 0.54580
 H1963 H 0.72771 0.28816 0.59028
 H1964 H 0.76392 0.32061 0.60235
 H1965 H 0.78161 0.31360 0.63391
 H1966 H 0.78043 0.30240 0.66886
 H1967 H 0.71769 0.27134 0.65757
 H1968 H 0.71873 0.28278 0.62236
 C1969 C 0.25758 0.15622 0.54935
 C1970 C 0.25762 0.16210 0.56977
 C1971 C 0.26900 0.18071 0.57681
 C1972 C 0.28075 0.19314 0.56289
 C1973 C 0.28071 0.18724 0.54244
 C1974 C 0.26903 0.16877 0.53543
 C1975 C 0.26823 0.18614 0.59869
 C1976 C 0.27406 0.20534 0.60689
 C1977 C 0.27206 0.21027 0.62877
 C1978 C 0.28545 0.22653 0.63781
 C1979 C 0.28401 0.23144 0.65844
 C1980 C 0.26898 0.22025 0.67042
 C1981 C 0.25520 0.20439 0.66118
 C1982 C 0.25663 0.19954 0.64066
 H1983 H 0.24820 0.14206 0.54444
 H1984 H 0.24847 0.15216 0.58011
 H1985 H 0.29027 0.20724 0.56761
 H1986 H 0.29012 0.19700 0.53218
 H1987 H 0.26218 0.17357 0.60842
 H1988 H 0.28065 0.21796 0.59756
 H1989 H 0.29728 0.23526 0.62895
 H1990 H 0.29484 0.24378 0.66503
 H1991 H 0.24319 0.19564 0.66981
 H1992 H 0.24533 0.18758 0.63418
 C1993 C 0.77539 0.66253 0.04586
 C1994 C 0.77390 0.67082 0.06544
 C1995 C 0.76282 0.68953 0.06899
 C1996 C 0.75291 0.69966 0.05258
 C1997 C 0.75407 0.69117 0.03303
 C1998 C 0.76537 0.67250 0.02938
 C1999 C 0.76048 0.69704 0.09008
 C2000 C 0.75838 0.71760 0.09539
 C2001 C 0.75481 0.72400 0.11663
 C2002 C 0.76421 0.74320 0.12459
 C2003 C 0.76163 0.74876 0.14498
 C2004 C 0.74922 0.73537 0.15760
 C2005 C 0.73900 0.71671 0.14917
 C2006 C 0.74179 0.71109 0.12903
 H2007 H 0.78463 0.64845 0.04373
 H2008 H 0.78156 0.66265 0.07789
 H2009 H 0.74367 0.71373 0.05488
 H2010 H 0.74571 0.69907 0.02084
 H2011 H 0.76104 0.68506 0.10179
 H2012 H 0.76004 0.73002 0.08418
 H2013 H 0.77407 0.75355 0.11520
 H2014 H 0.76969 0.76325 0.15092
 H2015 H 0.72913 0.70604 0.15826
 H2016 H 0.73372 0.69657 0.12317
 C2017 C 0.15777 0.53835 0.25118
 C2018 C 0.16883 0.55780 0.24708
 C2019 C 0.15842 0.57726 0.24821
 C2020 C 0.13648 0.57679 0.25324
 C2021 C 0.12546 0.55743 0.25737
 C2022 C 0.13587 0.53787 0.25655
 C2023 C 0.17070 0.59760 0.24369
 C2024 C 0.16527 0.61669 0.25096
 C2025 C 0.17822 0.63695 0.24834
 C2026 C 0.17737 0.65266 0.26347
 C2027 C 0.18968 0.67174 0.26228
 C2028 C 0.20285 0.67590 0.24568
 C2029 C 0.20307 0.66067 0.22997
 C2030 C 0.19098 0.64121 0.23136
 H2031 H 0.16646 0.52389 0.24960
 H2032 H 0.18563 0.55762 0.24296
 H2033 H 0.12751 0.59123 0.25353
 H2034 H 0.10848 0.55767 0.26080
 H2035 H 0.18542 0.59656 0.23532
 H2036 H 0.15174 0.61741 0.26093
 H2037 H 0.16753 0.64994 0.27658
 H2038 H 0.18906 0.68327 0.27454
 H2039 H 0.21311 0.66350 0.21703
 H2040 H 0.19157 0.62962 0.21918
 C2041 C 0.63912 0.06513 0.77197
 C2042 C 0.64881 0.08571 0.77140
 C2043 C 0.65581 0.09453 0.75314
 C2044 C 0.65427 0.08166 0.73561
 C2045 C 0.64476 0.06097 0.73622
 C2046 C 0.63600 0.05274 0.75418
 C2047 C 0.66488 0.11694 0.75332
 C2048 C 0.66579 0.12966 0.73703
 C2049 C 0.67397 0.15240 0.73812
 C2050 C 0.68284 0.16210 0.72093
 C2051 C 0.69181 0.18309 0.72192
 C2052 C 0.69197 0.19482 0.74014
 C2053 C 0.68190 0.18552 0.75694
 C2054 C 0.67293 0.16468 0.75593
 H2055 H 0.63414 0.05918 0.78645
 H2056 H 0.65045 0.09497 0.78529
 H2057 H 0.66043 0.08740 0.72142
 H2058 H 0.64371 0.05154 0.72241
 H2059 H 0.67041 0.12334 0.76787
 H2060 H 0.66065 0.12337 0.72234
 H2061 H 0.68349 0.15316 0.70689
 H2062 H 0.69945 0.18975 0.70871
 H2063 H 0.68137 0.19420 0.77113
 H2064 H 0.66529 0.15829 0.76923
 C2065 C 0.85032 0.04488 0.26435
 C2066 C 0.83902 0.06371 0.26536
 C2067 C 0.84474 0.08124 0.25329
 C2068 C 0.86240 0.07968 0.24048
 C2069 C 0.87372 0.06085 0.23946
 C2070 C 0.86762 0.04295 0.25110
 C2071 C 0.83253 0.10106 0.25509
 C2072 C 0.83131 0.11551 0.24030
 C2073 C 0.81862 0.13505 0.24156
 C2074 C 0.81185 0.14451 0.22350
 C2075 C 0.80008 0.16302 0.22378
 C2076 C 0.79496 0.17277 0.24218
 C2077 C 0.80200 0.16349 0.26034
 C2078 C 0.81372 0.14482 0.26005
 H2079 H 0.84567 0.03181 0.27415
 H2080 H 0.82577 0.06458 0.27566
 H2081 H 0.86800 0.09318 0.23165
 H2082 H 0.88765 0.06084 0.22999
 H2083 H 0.82332 0.10309 0.26860
 H2084 H 0.83885 0.11241 0.22606
 H2085 H 0.81556 0.13744 0.20907
 H2086 H 0.79508 0.16974 0.20947
 H2087 H 0.79851 0.17066 0.27477
 H2088 H 0.81921 0.13838 0.27429
 C2089 C 0.33694 0.53430 0.76813
 C2090 C 0.32375 0.55189 0.76951
 C2091 C 0.32959 0.57132 0.76031
 C2092 C 0.34930 0.57305 0.75026
 C2093 C 0.36253 0.55560 0.74903
 C2094 C 0.35634 0.53574 0.75745
 C2095 C 0.31546 0.58981 0.76208
 C2096 C 0.31422 0.60468 0.74767
 C2097 C 0.30080 0.62373 0.74880
 C2098 C 0.29475 0.63352 0.73069
 C2099 C 0.28358 0.65242 0.73083
 C2100 C 0.27839 0.66228 0.74917
 C2101 C 0.28418 0.65233 0.76739
 C2102 C 0.29525 0.63322 0.76723
 H2103 H 0.33204 0.51984 0.77589
 H2104 H 0.30892 0.55031 0.77780
 H2105 H 0.35486 0.58806 0.74380
 H2106 H 0.37787 0.55775 0.74167
 H2107 H 0.30525 0.59060 0.77508
 H2108 H 0.32291 0.60250 0.73385
 H2109 H 0.29891 0.62664 0.71630
 H2110 H 0.27948 0.65955 0.71647
 H2111 H 0.28057 0.65953 0.78179
 H2112 H 0.30008 0.62638 0.78151
 C2113 C 0.35462 0.44942 0.77493
 C2114 C 0.34742 0.42795 0.77545
 C2115 C 0.35618 0.41267 0.76271
 C2116 C 0.37297 0.41926 0.74994
 C2117 C 0.38026 0.44076 0.74954
 C2118 C 0.37099 0.45614 0.76181
 C2119 C 0.34759 0.39014 0.76361
 C2120 C 0.34904 0.37563 0.74863
 C2121 C 0.33910 0.35359 0.74965
 C2122 C 0.33291 0.34256 0.73168
 C2123 C 0.32233 0.32230 0.73224
 C2124 C 0.31783 0.31259 0.75083
 C2125 C 0.32502 0.32322 0.76874
 C2126 C 0.33559 0.34335 0.76817
 H2127 H 0.34731 0.46080 0.78479
 H2128 H 0.33468 0.42333 0.78565
 H2129 H 0.38059 0.40792 0.74029
 H2130 H 0.39271 0.44536 0.73918
 H2131 H 0.33843 0.38587 0.77679
 H2132 H 0.35637 0.38034 0.73460
 H2133 H 0.33570 0.34992 0.71718
 H2134 H 0.31710 0.31456 0.71816
 H2135 H 0.32222 0.31611 0.78335
 H2136 H 0.34094 0.35081 0.78233
 C2137 C 0.84575 0.96079 0.25663
 C2138 C 0.83483 0.94083 0.25586
 C2139 C 0.84565 0.92233 0.25121
 C2140 C 0.86797 0.92409 0.24796
 C2141 C 0.87912 0.94410 0.24912
 C2142 C 0.86813 0.96302 0.25304
 C2143 C 0.83324 0.90151 0.25116
 C2144 C 0.83785 0.88450 0.23979
 C2145 C 0.82455 0.86414 0.24012
 C2146 C 0.82231 0.85117 0.22268
 C2147 C 0.80953 0.83208 0.22270
 C2148 C 0.79902 0.82542 0.24031
 C2149 C 0.80172 0.83826 0.25784
 C2150 C 0.81429 0.85729 0.25777
 H2151 H 0.83644 0.97429 0.26078
 H2152 H 0.81771 0.93988 0.25891
 H2153 H 0.87694 0.91000 0.24491
 H2154 H 0.89621 0.94442 0.24637
 H2155 H 0.81882 0.90071 0.26010
 H2156 H 0.85090 0.88581 0.22924
 H2157 H 0.83024 0.85597 0.20894
 H2158 H 0.80799 0.82251 0.20900
 H2159 H 0.79406 0.83365 0.27176
 H2160 H 0.81619 0.86644 0.27169
 C2161 C 0.65645 0.96988 0.73950
 C2162 C 0.66628 0.95021 0.73808
 C2163 C 0.65716 0.93181 0.74709
 C2164 C 0.63771 0.93357 0.75745
 C2165 C 0.62782 0.95327 0.75880
 C2166 C 0.63706 0.97166 0.74983
 C2167 C 0.66798 0.91115 0.74456
 C2168 C 0.66492 0.89407 0.75652
 C2169 C 0.67611 0.87364 0.75381
 C2170 C 0.67862 0.86006 0.77043
 C2171 C 0.68914 0.84077 0.76852
 C2172 C 0.69722 0.83442 0.74982
 C2173 C 0.69425 0.84779 0.73307
 C2174 C 0.68382 0.86710 0.73501
 H2175 H 0.66385 0.98362 0.73214
 H2176 H 0.68111 0.94935 0.72983
 H2177 H 0.62981 0.91976 0.76421
 H2178 H 0.61300 0.95409 0.76703
 H2179 H 0.67972 0.91048 0.73276
 H2180 H 0.65470 0.89528 0.76946
 H2181 H 0.67264 0.86453 0.78505
 H2182 H 0.69098 0.83087 0.78173
 H2183 H 0.70008 0.84341 0.71838
 H2184 H 0.68159 0.87665 0.72164
 C2185 C 0.11748 0.44083 0.27610
 C2186 C 0.12455 0.41989 0.27726
 C2187 C 0.14202 0.41349 0.26588
 C2188 C 0.15273 0.42877 0.25377
 C2189 C 0.14575 0.44972 0.25270
 C2190 C 0.12795 0.45598 0.26374
 C2191 C 0.14898 0.39104 0.26726
 C2192 C 0.15843 0.38116 0.25193
 C2193 C 0.16581 0.35882 0.25228
 C2194 C 0.17023 0.34914 0.23374
 C2195 C 0.17878 0.32890 0.23297
 C2196 C 0.18336 0.31766 0.25078
 C2197 C 0.17842 0.32702 0.26942
 C2198 C 0.16977 0.34743 0.27019
 H2199 H 0.10399 0.44523 0.28511
 H2200 H 0.11618 0.40856 0.28692
 H2201 H 0.16670 0.42472 0.24526
 H2202 H 0.15415 0.46096 0.24299
 H2203 H 0.14517 0.38227 0.28081
 H2204 H 0.16032 0.38964 0.23786
 H2205 H 0.16736 0.35745 0.21970
 H2206 H 0.18222 0.32227 0.21829
 H2207 H 0.18184 0.31889 0.28344
 H2208 H 0.16695 0.35443 0.28483
 C2209 C 0.04033 0.23604 0.82598
 C2210 C 0.05929 0.23627 0.81498
 C2211 C 0.07856 0.24539 0.82334
 C2212 C 0.07849 0.25500 0.84255
 C2213 C 0.05967 0.25478 0.85350
 C2214 C 0.04026 0.24544 0.84542
 C2215 C 0.09865 0.24447 0.81203
 C2216 C 0.11772 0.24239 0.82156
 C2217 C 0.13826 0.24137 0.81104
 C2218 C 0.15520 0.23081 0.82045
 C2219 C 0.17510 0.22989 0.81129
 C2220 C 0.17854 0.23982 0.79262
 C2221 C 0.16165 0.25069 0.78331
 C2222 C 0.14165 0.25146 0.79243
 H2223 H 0.02612 0.22800 0.81927
 H2224 H 0.05908 0.22876 0.80017
 H2225 H 0.09297 0.26270 0.84920
 H2226 H 0.06031 0.26186 0.86851
 H2227 H 0.09750 0.24420 0.79568
 H2228 H 0.11830 0.24029 0.83780
 H2229 H 0.15298 0.22315 0.83491
 H2230 H 0.18786 0.22155 0.81894
 H2231 H 0.16387 0.25858 0.76896
 H2232 H 0.12908 0.26030 0.78509
 C2233 C 0.56500 0.74047 0.37976
 C2234 C 0.58440 0.74023 0.36957
 C2235 C 0.58454 0.73392 0.34925
 C2236 C 0.56516 0.72664 0.33958
 C2237 C 0.54577 0.72672 0.34979
 C2238 C 0.54532 0.73436 0.36984
 C2239 C 0.60512 0.73475 0.33862
 C2240 C 0.60617 0.73882 0.31885
 C2241 C 0.62677 0.74016 0.30822
 C2242 C 0.62856 0.75317 0.29116
 C2243 C 0.64787 0.75471 0.28075
 C2244 C 0.66562 0.74299 0.28711
 C2245 C 0.66366 0.72975 0.30406
 C2246 C 0.64443 0.72828 0.31447
 H2247 H 0.56529 0.74576 0.39539
 H2248 H 0.59927 0.74544 0.37744
 H2249 H 0.56497 0.72064 0.32419
 H2250 H 0.53142 0.72056 0.34181
 H2251 H 0.61983 0.73341 0.34763
 H2252 H 0.59164 0.74247 0.31036
 H2253 H 0.61504 0.76228 0.28599
 H2254 H 0.64881 0.76493 0.26766
 H2255 H 0.67698 0.72041 0.30930
 H2256 H 0.64336 0.71755 0.32716
 C2257 C 0.54445 0.27510 0.12952
 C2258 C 0.56508 0.27833 0.13812
 C2259 C 0.56863 0.27501 0.15878
 C2260 C 0.55093 0.26996 0.17098
 C2261 C 0.53026 0.26672 0.16240
 C2262 C 0.52685 0.26860 0.14140
 C2263 C 0.59101 0.27586 0.16691
 C2264 C 0.59712 0.26325 0.18204
 C2265 C 0.61977 0.26140 0.18894
 C2266 C 0.62521 0.24296 0.19943
 C2267 C 0.64628 0.24046 0.20651
 C2268 C 0.66239 0.25645 0.20331
 C2269 C 0.65702 0.27490 0.19269
 C2270 C 0.63587 0.27744 0.18566
 H2271 H 0.54229 0.27709 0.11337
 H2272 H 0.57844 0.28257 0.12848
 H2273 H 0.55302 0.26823 0.18716
 H2274 H 0.51738 0.26250 0.17242
 H2275 H 0.60295 0.28520 0.15875
 H2276 H 0.58527 0.25241 0.18869
 H2277 H 0.61309 0.23040 0.20217
 H2278 H 0.64988 0.22605 0.21465
 H2279 H 0.66901 0.28766 0.19028
 H2280 H 0.63219 0.29216 0.17814
 C2281 C 0.05832 0.80578 0.62957
 C2282 C 0.07832 0.80987 0.63923
 C2283 C 0.07995 0.81018 0.66033
 C2284 C 0.06105 0.80907 0.67160
 C2285 C 0.04105 0.80489 0.66200
 C2286 C 0.03955 0.80223 0.64086
 C2287 C 0.10137 0.80801 0.67004
 C2288 C 0.10385 0.79436 0.68531
 C2289 C 0.12488 0.78668 0.69231
 C2290 C 0.12506 0.76713 0.70250
 C2291 C 0.14445 0.75892 0.70925
 C2292 C 0.16411 0.77016 0.70601
 C2293 C 0.16398 0.78970 0.69568
 C2294 C 0.14454 0.79796 0.68898
 H2295 H 0.05776 0.80375 0.61330
 H2296 H 0.09271 0.81085 0.63026
 H2297 H 0.06189 0.80993 0.68795
 H2298 H 0.02731 0.80228 0.67148
 H2299 H 0.11528 0.81456 0.66229
 H2300 H 0.08965 0.78637 0.69146
 H2301 H 0.11011 0.75813 0.70524
 H2302 H 0.14399 0.74390 0.71727
 H2303 H 0.17883 0.79896 0.69328
 H2304 H 0.14503 0.81333 0.68163
 C2305 C 0.94233 0.78477 0.62715
 C2306 C 0.92147 0.78358 0.63462
 C2307 C 0.91784 0.77560 0.65400
 C2308 C 0.93540 0.76926 0.66604
 C2309 C 0.95630 0.77091 0.65875
 C2310 C 0.95984 0.77860 0.63925
 C2311 C 0.89585 0.77501 0.66181
 C2312 C 0.88844 0.75902 0.67330
 C2313 C 0.86696 0.75916 0.68222
 C2314 C 0.85474 0.73994 0.68382
 C2315 C 0.83459 0.73972 0.69279
 C2316 C 0.82674 0.75865 0.70081
 C2317 C 0.83910 0.77784 0.69938
 C2318 C 0.85900 0.77814 0.69003
 H2319 H 0.94486 0.79096 0.61213
 H2320 H 0.90813 0.78874 0.62524
 H2321 H 0.93302 0.76350 0.68124
 H2322 H 0.96969 0.76610 0.66825
 H2323 H 0.88535 0.78771 0.65751
 H2324 H 0.89809 0.74519 0.67582
 H2325 H 0.86076 0.72514 0.67804
 H2326 H 0.82540 0.72468 0.69392
 H2327 H 0.83338 0.79262 0.70549
 H2328 H 0.86840 0.79309 0.68938
 C2329 C 0.43066 0.23365 0.13271
 C2330 C 0.41038 0.23068 0.14121
 C2331 C 0.40548 0.24162 0.15898
 C2332 C 0.42114 0.25586 0.16795
 C2333 C 0.44138 0.25875 0.15948
 C2334 C 0.44633 0.24765 0.14181
 C2335 C 0.38360 0.23878 0.16709
 C2336 C 0.37939 0.24221 0.18656
 C2337 C 0.35734 0.24128 0.19445
 C2338 C 0.35319 0.25375 0.21147
 C2339 C 0.33252 0.25374 0.21926
 C2340 C 0.31560 0.24103 0.21029
 C2341 C 0.31985 0.22825 0.19341
 C2342 C 0.34054 0.22833 0.18557
 H2343 H 0.43405 0.22491 0.11910
 H2344 H 0.39848 0.21982 0.13391
 H2345 H 0.41769 0.26537 0.18111
 H2346 H 0.45291 0.27023 0.16643
 H2347 H 0.37065 0.23403 0.15651
 H2348 H 0.39238 0.24684 0.19713
 H2349 H 0.36593 0.26376 0.21862
 H2350 H 0.32985 0.26367 0.23237
 H2351 H 0.30723 0.21810 0.18627
 H2352 H 0.34333 0.21799 0.17280
 C2353 C 0.44875 0.74958 0.37932
 C2354 C 0.42886 0.75226 0.36957
 C2355 C 0.42336 0.74088 0.35175
 C2356 C 0.43746 0.72575 0.34447
 C2357 C 0.45728 0.72295 0.35429
 C2358 C 0.46330 0.73518 0.37154
 C2359 C 0.40299 0.74532 0.34099
 C2360 C 0.40107 0.74444 0.32081
 C2361 C 0.38085 0.74876 0.30968
 C2362 C 0.37706 0.73908 0.29070
 C2363 C 0.35764 0.74174 0.28015
 C2364 C 0.34171 0.75436 0.28832
 C2365 C 0.34596 0.76491 0.30690
 C2366 C 0.36537 0.76219 0.31748
 H2367 H 0.45302 0.75946 0.39243
 H2368 H 0.41811 0.76386 0.37551
 H2369 H 0.43326 0.71611 0.33118
 H2370 H 0.46802 0.71141 0.34825
 H2371 H 0.38964 0.75009 0.34998
 H2372 H 0.41462 0.73976 0.31200
 H2373 H 0.38891 0.72892 0.28428
 H2374 H 0.35497 0.73353 0.26577
 H2375 H 0.33411 0.77492 0.31352
 H2376 H 0.36813 0.77062 0.33169
 C2377 C 0.95492 0.22349 0.83920
 C2378 C 0.93362 0.22203 0.83185
 C2379 C 0.91739 0.23218 0.84210
 C2380 C 0.92239 0.24241 0.86064
 C2381 C 0.94361 0.24384 0.86807
 C2382 C 0.96043 0.23496 0.85715
 C2383 C 0.89582 0.23305 0.83242
 C2384 C 0.88396 0.25037 0.83398
 C2385 C 0.86418 0.25339 0.82169
 C2386 C 0.84921 0.26789 0.82843
 C2387 C 0.83078 0.27184 0.81674
 C2388 C 0.82710 0.26140 0.79803
 C2389 C 0.84228 0.24713 0.79117
 C2390 C 0.86067 0.24325 0.80280
 H2391 H 0.96699 0.21554 0.83069
 H2392 H 0.92998 0.21370 0.81768
 H2393 H 0.91003 0.24984 0.86920
 H2394 H 0.94659 0.25323 0.88167
 H2395 H 0.89069 0.21998 0.82238
 H2396 H 0.88930 0.26341 0.84401
 H2397 H 0.85178 0.27613 0.84281
 H2398 H 0.81936 0.28291 0.82244
 H2399 H 0.84008 0.23902 0.77670
 H2400 H 0.87227 0.23271 0.79663
 C2401 C 0.56618 0.98933 0.71469
 C2402 C 0.55405 0.98480 0.69681
 C2403 C 0.55936 0.99513 0.67873
 C2404 C 0.57758 1.00918 0.67856
 C2405 C 0.58980 1.01340 0.69615
 C2406 C 0.58402 1.00399 0.71460
 C2407 C 0.54665 0.99067 0.65979
 C2408 C 0.54285 1.00630 0.64656
 C2409 C 0.53384 1.00273 0.62581
 C2410 C 0.52393 1.01966 0.61598
 C2411 C 0.51808 1.01811 0.59546
 C2412 C 0.52249 0.99973 0.58421
 C2413 C 0.53187 0.98252 0.59418
 C2414 C 0.53740 0.98395 0.61480
 H2415 H 0.56135 0.98169 0.72856
 H2416 H 0.54027 0.97358 0.69719
 H2417 H 0.58265 1.01667 0.66467
 H2418 H 0.60401 1.02395 0.69514
 H2419 H 0.54069 0.97444 0.65667
 H2420 H 0.54716 1.02269 0.65092
 H2421 H 0.52124 1.03439 0.62408
 H2422 H 0.51100 1.03169 0.58822
 H2423 H 0.53544 0.96813 0.58593
 H2424 H 0.54547 0.97079 0.62176
 C2425 C 0.07294 0.46901 1.22171
 C2426 C 0.06066 0.46382 1.20416
 C2427 C 0.05079 0.47984 1.19286
 C2428 C 0.05268 0.50108 1.20009
 C2429 C 0.06491 0.50621 1.21757
 C2430 C 0.07575 0.49037 1.22817
 C2431 C 0.04112 0.47428 1.17260
 C2432 C 0.02854 0.48730 1.16192
 C2433 C 0.02278 0.48424 1.14012
 C2434 C 0.00663 0.49665 1.13151
 C2435 C 0.00251 0.49637 1.11063
 C2436 C 0.01457 0.48372 1.09780
 C2437 C 0.03029 0.47079 1.10647
 C2438 C 0.03443 0.47110 1.12732
 H2439 H 0.08127 0.45650 1.22950
 H2440 H 0.05961 0.44736 1.19892
 H2441 H 0.04584 0.51409 1.19184
 H2442 H 0.06663 0.52280 1.22235
 H2443 H 0.04541 0.45920 1.16604
 H2444 H 0.02260 0.50138 1.16914
 H2445 H -0.00247 0.50706 1.14094
 H2446 H -0.00970 0.50656 1.10452
 H2447 H 0.03995 0.46088 1.09707
 H2448 H 0.04741 0.46170 1.13308
 C2449 C -0.08088 -0.02604 1.21125
 C2450 C -0.07018 -0.03133 1.19364
 C2451 C -0.05607 -0.01638 1.18451
 C2452 C -0.05232 0.00382 1.19377
 C2453 C -0.06325 0.00918 1.21121
 C2454 C -0.07795 -0.00555 1.21986
 C2455 C -0.04796 -0.02117 1.16413
 C2456 C -0.03019 -0.01163 1.15650
 C2457 C -0.02496 -0.01323 1.13481
 C2458 C -0.00336 -0.01121 1.12889
 C2459 C 0.00170 -0.01038 1.10837
 C2460 C -0.01484 -0.01094 1.09344
 C2461 C -0.03642 -0.01333 1.09938
 C2462 C -0.04143 -0.01455 1.11979
 H2463 H -0.09247 -0.03749 1.21734
 H2464 H -0.07356 -0.04689 1.18668
 H2465 H -0.04200 0.01596 1.18694
 H2466 H -0.06084 0.02514 1.21756
 H2467 H -0.05753 -0.03251 1.15482
 H2468 H -0.01937 -0.00190 1.16622
 H2469 H 0.00959 -0.00991 1.14019
 H2470 H 0.01845 -0.00839 1.10423
 H2471 H -0.04952 -0.01383 1.08822
 H2472 H -0.05828 -0.01552 1.12377
 C2473 C 0.41312 0.51200 0.70249
 C2474 C 0.42245 0.50765 0.68404
 C2475 C 0.43030 0.48744 0.67990
 C2476 C 0.42954 0.47188 0.69509
 C2477 C 0.42011 0.47626 0.71365
 C2478 C 0.41093 0.49610 0.71730
 C2479 C 0.43724 0.48303 0.65906
 C2480 C 0.44938 0.46685 0.65343
 C2481 C 0.45435 0.46361 0.63184
 C2482 C 0.47509 0.45807 0.62616
 C2483 C 0.48050 0.45772 0.60568
 C2484 C 0.46512 0.46272 0.59064
 C2485 C 0.44392 0.46653 0.59640
 C2486 C 0.43860 0.46692 0.61671
 H2487 H 0.40738 0.52788 0.70490
 H2488 H 0.42311 0.52006 0.67274
 H2489 H 0.43536 0.45608 0.69246
 H2490 H 0.41952 0.46377 0.72473
 H2491 H 0.43208 0.49411 0.64758
 H2492 H 0.45661 0.45666 0.66460
 H2493 H 0.48740 0.45511 0.63758
 H2494 H 0.49694 0.45463 0.60171
 H2495 H 0.43153 0.47000 0.58522
 H2496 H 0.42223 0.47040 0.62060
 C2497 C 0.43404 0.52615 -0.20762
 C2498 C 0.44949 0.52742 -0.19189
 C2499 C 0.45542 0.50901 -0.18156
 C2500 C 0.44610 0.48903 -0.18802
 C2501 C 0.43064 0.48779 -0.20388
 C2502 C 0.42400 0.50641 -0.21342
 C2503 C 0.46943 0.51178 -0.16301
 C2504 C 0.47871 0.49570 -0.15330
 C2505 C 0.48826 0.49794 -0.13257
 C2506 C 0.48633 0.48025 -0.11983
 C2507 C 0.49277 0.48197 -0.09955
 C2508 C 0.50186 0.50126 -0.09160
 C2509 C 0.50514 0.51871 -0.10449
 C2510 C 0.49820 0.51714 -0.12486
 H2511 H 0.42951 0.54077 -0.21494
 H2512 H 0.45634 0.54299 -0.18735
 H2513 H 0.44973 0.47440 -0.18036
 H2514 H 0.42302 0.47239 -0.20789
 H2515 H 0.47086 0.52768 -0.15639
 H2516 H 0.47732 0.47971 -0.15963
 H2517 H 0.47891 0.46527 -0.12536
 H2518 H 0.49026 0.46824 -0.08990
 H2519 H 0.51216 0.53372 -0.09863
 H2520 H 0.50042 0.53094 -0.13443
 C2521 C -0.05846 0.99397 0.28841
 C2522 C -0.04360 0.99497 0.30484
 C2523 C -0.04944 1.00350 0.32355
 C2524 C -0.07085 1.00947 0.32595
 C2525 C -0.08559 1.00840 0.30970
 C2526 C -0.07940 1.00130 0.29059
 C2527 C -0.03342 1.00576 0.34062
 C2528 C -0.03395 1.02200 0.35402
 C2529 C -0.02158 1.02335 0.37352
 C2530 C -0.03014 1.03532 0.38923
 C2531 C -0.02105 1.03497 0.40871
 C2532 C -0.00278 1.02313 0.41282
 C2533 C 0.00693 1.01247 0.39688
 C2534 C -0.00248 1.01245 0.37734
 H2535 H -0.05328 0.98843 0.27384
 H2536 H -0.02733 0.98983 0.30273
 H2537 H -0.07626 1.01508 0.34041
 H2538 H -0.10181 1.01360 0.31198
 H2539 H -0.02165 0.99358 0.34234
 H2540 H -0.04560 1.03419 0.35146
 H2541 H -0.04471 1.04402 0.38671
 H2542 H -0.02889 1.04315 0.42081
 H2543 H 0.02088 1.00300 0.39980
 H2544 H 0.00490 1.00349 0.36550
 C2545 C 0.06107 0.48624 0.29705
 C2546 C 0.04755 0.48459 0.31373
 C2547 C 0.05411 0.49368 0.33247
 C2548 C 0.07493 0.50346 0.33447
 C2549 C 0.08842 0.50500 0.31793
 C2550 C 0.08154 0.49680 0.29889
 C2551 C 0.03929 0.49284 0.34981
 C2552 C 0.03905 0.50905 0.36322
 C2553 C 0.02621 0.50954 0.38190
 C2554 C 0.02643 0.52894 0.39268
 C2555 C 0.01743 0.53009 0.41170
 C2556 C 0.00775 0.51189 0.42050
 C2557 C 0.00621 0.49265 0.40935
 C2558 C 0.01550 0.49141 0.39020
 H2559 H 0.05520 0.47981 0.28262
 H2560 H 0.03170 0.47675 0.31184
 H2561 H 0.08090 0.50984 0.34890
 H2562 H 0.10434 0.51257 0.32012
 H2563 H 0.02814 0.47917 0.35101
 H2564 H 0.04920 0.52319 0.36042
 H2565 H 0.03440 0.54320 0.38672
 H2566 H 0.01872 0.54518 0.41989
 H2567 H -0.00100 0.47834 0.41592
 H2568 H 0.01509 0.47611 0.38248
 C2569 C 0.56413 -0.01317 -0.21696
 C2570 C 0.55012 -0.01859 -0.20122
 C2571 C 0.55476 -0.01123 -0.18140
 C2572 C 0.57431 0.00039 -0.17739
 C2573 C 0.58828 0.00560 -0.19295
 C2574 C 0.58312 -0.00052 -0.21305
 C2575 C 0.53926 -0.01527 -0.16491
 C2576 C 0.53571 0.00019 -0.15134
 C2577 C 0.52258 -0.00203 -0.13292
 C2578 C 0.51754 0.01688 -0.12288
 C2579 C 0.50895 0.01630 -0.10365
 C2580 C 0.50497 -0.00322 -0.09392
 C2581 C 0.50851 -0.02236 -0.10434
 C2582 C 0.51735 -0.02180 -0.12375
 H2583 H 0.55972 -0.01825 -0.23223
 H2584 H 0.53529 -0.02783 -0.20463
 H2585 H 0.57879 0.00558 -0.16215
 H2586 H 0.60316 0.01460 -0.18918
 H2587 H 0.53057 -0.03060 -0.16431
 H2588 H 0.54334 0.01585 -0.15371
 H2589 H 0.52132 0.03231 -0.12951
 H2590 H 0.50644 0.03126 -0.09586
 H2591 H 0.50589 -0.03759 -0.09695
 H2592 H 0.52126 -0.03670 -0.13091
 C2593 C 0.72665 0.61266 0.00931
 C2594 C 0.70890 0.59820 0.01103
 C2595 C 0.70059 0.58649 -0.00587
 C2596 C 0.71133 0.58861 -0.02428
 C2597 C 0.72894 0.60313 -0.02601
 C2598 C 0.73645 0.61569 -0.00938
 C2599 C 0.68066 0.57257 -0.00376
 C2600 C 0.66752 0.56639 -0.01944
 C2601 C 0.64658 0.55402 -0.01755
 C2602 C 0.63184 0.55351 -0.03406
 C2603 C 0.61157 0.54290 -0.03283
 C2604 C 0.60551 0.53245 -0.01501
 C2605 C 0.62055 0.53232 0.00129
 C2606 C 0.64085 0.54286 0.00003
 H2607 H 0.73205 0.62217 0.02237
 H2608 H 0.70117 0.59670 0.02548
 H2609 H 0.70622 0.57923 -0.03747
 H2610 H 0.73653 0.60477 -0.04051
 H2611 H 0.67603 0.56872 0.01146
 H2612 H 0.67141 0.57177 -0.03445
 H2613 H 0.63583 0.56175 -0.04789
 H2614 H 0.60046 0.54337 -0.04569
 H2615 H 0.61656 0.52425 0.01519
 H2616 H 0.65186 0.54214 0.01289
 C2617 C 0.20838 1.13097 0.49163
 C2618 C 0.19003 1.11733 0.49053
 C2619 C 0.19173 1.09508 0.49163
 C2620 C 0.21240 1.08683 0.49480
 C2621 C 0.23090 1.10065 0.49603
 C2622 C 0.22903 1.12278 0.49386
 C2623 C 0.17154 1.08159 0.48841
 C2624 C 0.16956 1.06039 0.49122
 C2625 C 0.14846 1.04838 0.48840
 C2626 C 0.14359 1.03103 0.50097
 C2627 C 0.12311 1.02071 0.50005
 C2628 C 0.10712 1.02729 0.48623
 C2629 C 0.11248 1.04376 0.47271
 C2630 C 0.13292 1.05421 0.47379
 H2631 H 0.20648 1.14802 0.49016
 H2632 H 0.17442 1.12423 0.48829
 H2633 H 0.21456 1.06982 0.49564
 H2634 H 0.24670 1.09399 0.49763
 H2635 H 0.15722 1.08990 0.48397
 H2636 H 0.18304 1.05180 0.49718
 H2637 H 0.15536 1.02601 0.51215
 H2638 H 0.11960 1.00797 0.51059
 H2639 H 0.10060 1.04919 0.46185
 H2640 H 0.13640 1.06705 0.46335
 C2641 C 0.20165 -0.10330 0.98632
 C2642 C 0.18700 -0.08745 0.98989
 C2643 C 0.17707 -0.08586 1.00862
 C2644 C 0.18308 -0.09981 1.02420
 C2645 C 0.19816 -0.11550 1.02071
 C2646 C 0.20712 -0.11768 1.00156
 C2647 C 0.16033 -0.06974 1.01082
 C2648 C 0.14329 -0.07211 1.02288
 C2649 C 0.12447 -0.05800 1.02201
 C2650 C 0.11020 -0.05794 1.03819
 C2651 C 0.09125 -0.04645 1.03708
 C2652 C 0.08600 -0.03491 1.01962
 C2653 C 0.10051 -0.03462 1.00361
 C2654 C 0.11939 -0.04604 1.00473
 H2655 H 0.20852 -0.10454 0.97149
 H2656 H 0.18285 -0.07683 0.97769
 H2657 H 0.17615 -0.09869 1.03899
 H2658 H 0.20221 -0.12642 1.03269
 H2659 H 0.16136 -0.05628 1.00072
 H2660 H 0.14239 -0.08547 1.03314
 H2661 H 0.11352 -0.06716 1.05160
 H2662 H 0.08039 -0.04720 1.04965
 H2663 H 0.09699 -0.02604 0.98986
 H2664 H 0.12937 -0.04610 0.99157
 C2665 C 0.70502 0.39592 0.50844
 C2666 C 0.68712 0.40749 0.51387
 C2667 C 0.66606 0.39828 0.51198
 C2668 C 0.66330 0.37716 0.50465
 C2669 C 0.68113 0.36573 0.49899
 C2670 C 0.70214 0.37509 0.50056
 C2671 C 0.64730 0.41168 0.51578
 C2672 C 0.62770 0.40364 0.52077
 C2673 C 0.60820 0.41668 0.52133
 C2674 C 0.59072 0.41013 0.53329
 C2675 C 0.57136 0.42101 0.53257
 C2676 C 0.56896 0.43837 0.51949
 C2677 C 0.58659 0.44507 0.50777
 C2678 C 0.60594 0.43442 0.50869
 H2679 H 0.72103 0.40352 0.50972
 H2680 H 0.68969 0.42380 0.51928
 H2681 H 0.64734 0.36966 0.50249
 H2682 H 0.67844 0.34958 0.49320
 H2683 H 0.64980 0.42880 0.51416
 H2684 H 0.62566 0.38685 0.52436
 H2685 H 0.59195 0.39637 0.54299
 H2686 H 0.55805 0.41539 0.54169
 H2687 H 0.58532 0.45840 0.49755
 H2688 H 0.61875 0.43961 0.49881
 C2689 C -0.21180 0.38654 0.51233
 C2690 C -0.19348 0.40038 0.51462
 C2691 C -0.18493 0.41139 0.49798
 C2692 C -0.19585 0.40904 0.47914
 C2693 C -0.21405 0.39517 0.47685
 C2694 C -0.22199 0.38343 0.49331
 C2695 C -0.16489 0.42524 0.50094
 C2696 C -0.15187 0.43138 0.48586
 C2697 C -0.13144 0.44471 0.48872
 C2698 C -0.11658 0.44564 0.47298
 C2699 C -0.09710 0.45781 0.47502
 C2700 C -0.09200 0.46939 0.49291
 C2701 C -0.10707 0.46879 0.50850
 C2702 C -0.12655 0.45675 0.50642
 H2703 H -0.21746 0.37769 0.52527
 H2704 H -0.18563 0.40207 0.52939
 H2705 H -0.19052 0.41787 0.46608
 H2706 H -0.22190 0.39356 0.46208
 H2707 H -0.16029 0.42943 0.51637
 H2708 H -0.15563 0.42567 0.47066
 H2709 H -0.11994 0.43672 0.45908
 H2710 H -0.08591 0.45787 0.46271
 H2711 H -0.10386 0.47772 0.52241
 H2712 H -0.13769 0.45722 0.51869
 C2713 C 0.29002 -0.12344 0.01475
 C2714 C 0.30908 -0.11045 0.01540
 C2715 C 0.31699 -0.10072 -0.00222
 C2716 C 0.30483 -0.10357 -0.02033
 C2717 C 0.28596 -0.11658 -0.02099
 C2718 C 0.27853 -0.12701 -0.00358
 C2719 C 0.33748 -0.08731 -0.00104
 C2720 C 0.34949 -0.08232 -0.01719
 C2721 C 0.36989 -0.06875 -0.01627
 C2722 C 0.38392 -0.06913 -0.03267
 C2723 C 0.40329 -0.05664 -0.03242
 C2724 C 0.40906 -0.04342 -0.01573
 C2725 C 0.39473 -0.04266 0.00044
 C2726 C 0.37541 -0.05503 0.00015
 H2727 H 0.28461 -0.13116 0.02841
 H2728 H 0.31788 -0.10827 0.02966
 H2729 H 0.30960 -0.09564 -0.03406
 H2730 H 0.27706 -0.11840 -0.03523
 H2731 H 0.34312 -0.08219 0.01388
 H2732 H 0.34478 -0.08905 -0.03182
 H2733 H 0.38000 -0.07933 -0.04567
 H2734 H 0.41390 -0.05765 -0.04512
 H2735 H 0.39844 -0.03246 0.01347
 H2736 H 0.36484 -0.05351 0.01278
 C2737 C 0.31279 1.11985 0.51745
 C2738 C 0.33163 1.10887 0.52173
 C2739 C 0.34505 1.10267 0.50612
 C2740 C 0.33857 1.10666 0.48602
 C2741 C 0.31975 1.11751 0.48174
 C2742 C 0.30682 1.12462 0.49739
 C2743 C 0.36542 1.09176 0.51104
 C2744 C 0.38291 1.09398 0.49950
 C2745 C 0.40332 1.08242 0.50218
 C2746 C 0.41789 1.08336 0.48629
 C2747 C 0.43663 1.07179 0.48695
 C2748 C 0.44159 1.05905 0.50367
 C2749 C 0.42765 1.05881 0.52012
 C2750 C 0.40860 1.07031 0.51937
 H2751 H 0.30336 1.12523 0.52991
 H2752 H 0.33607 1.10575 0.53733
 H2753 H 0.34792 1.10129 0.47350
 H2754 H 0.31535 1.12038 0.46610
 H2755 H 0.36584 1.08207 0.52446
 H2756 H 0.38212 1.10457 0.48667
 H2757 H 0.41448 1.09265 0.47295
 H2758 H 0.44710 1.07252 0.47409
 H2759 H 0.43103 1.04911 0.53320
 H2760 H 0.39809 1.06942 0.53214
 C2761 C -0.16748 0.64007 0.99521
 C2762 C -0.14853 0.62956 0.99958
 C2763 C -0.14925 0.60886 1.00756
 C2764 C -0.16958 0.59909 1.01164
 C2765 C -0.18868 0.60969 1.00721
 C2766 C -0.18784 0.63011 0.99849
 C2767 C -0.12855 0.59769 1.00951
 C2768 C -0.12532 0.58016 1.02060
 C2769 C -0.10461 0.56886 1.02024
 C2770 C -0.09761 0.55738 1.03719
 C2771 C -0.07850 0.54605 1.03674
 C2772 C -0.06622 0.54564 1.01916
 C2773 C -0.07332 0.55714 1.00224
 C2774 C -0.09220 0.56852 1.00275
 H2775 H -0.16614 0.65602 0.98902
 H2776 H -0.13317 0.63755 0.99633
 H2777 H -0.17087 0.58301 1.01746
 H2778 H -0.20410 0.60153 1.00982
 H2779 H -0.11509 0.60460 1.00132
 H2780 H -0.13782 0.57407 1.03040
 H2781 H -0.10697 0.55718 1.05079
 H2782 H -0.07362 0.53723 1.04998
 H2783 H -0.06440 0.55717 0.98838
 H2784 H -0.09734 0.57652 0.98914
 C2785 C 0.02598 0.72822 0.59924
 C2786 C 0.02580 0.70714 0.59218
 C2787 C 0.00664 0.69440 0.59198
 C2788 C -0.01219 0.70280 0.59973
 C2789 C -0.01200 0.72385 0.60677
 C2790 C 0.00700 0.73681 0.60637
 C2791 C 0.00680 0.67249 0.58362
 C2792 C -0.01070 0.66290 0.57470
 C2793 C -0.01047 0.64156 0.56513
 C2794 C -0.02529 0.63659 0.54928
 C2795 C -0.02545 0.61670 0.53964
 C2796 C -0.01091 0.60126 0.54584
 C2797 C 0.00367 0.60610 0.56200
 C2798 C 0.00387 0.62604 0.57159
 H2799 H 0.04083 0.73792 0.59870
 H2800 H 0.04053 0.70092 0.58643
 H2801 H -0.02702 0.69313 0.60055
 H2802 H -0.02669 0.72988 0.61277
 H2803 H 0.02214 0.66484 0.58345
 H2804 H -0.02540 0.67154 0.57302
 H2805 H -0.03662 0.64824 0.54419
 H2806 H -0.03701 0.61344 0.52735
 H2807 H 0.01495 0.59450 0.56727
 H2808 H 0.01504 0.62909 0.58420
 C2809 C 0.46704 0.21360 0.08360
 C2810 C 0.46606 0.19567 0.07088
 C2811 C 0.48485 0.18844 0.06224
 C2812 C 0.50437 0.20039 0.06518
 C2813 C 0.50533 0.21839 0.07778
 C2814 C 0.48683 0.22474 0.08777
 C2815 C 0.48372 0.16801 0.05093
 C2816 C 0.50005 0.15464 0.05132
 C2817 C 0.49832 0.13295 0.04232
 C2818 C 0.51142 0.11717 0.05026
 C2819 C 0.50985 0.09633 0.04253
 C2820 C 0.49522 0.09093 0.02655
 C2821 C 0.48241 0.10689 0.01834
 C2822 C 0.48399 0.12769 0.02608
 H2823 H 0.45243 0.21804 0.09073
 H2824 H 0.45077 0.18685 0.06854
 H2825 H 0.51897 0.19572 0.05798
 H2826 H 0.52069 0.22709 0.07991
 H2827 H 0.46828 0.16294 0.04408
 H2828 H 0.51463 0.15894 0.06005
 H2829 H 0.52269 0.12090 0.06269
 H2830 H 0.52008 0.08447 0.04910
 H2831 H 0.47116 0.10336 0.00586
 H2832 H 0.47414 0.13960 0.01912
 C2833 C 0.02412 0.20914 0.91762
 C2834 C 0.02259 0.19300 0.93199
 C2835 C 0.00255 0.18279 0.93583
 C2836 C -0.01618 0.19007 0.92619
 C2837 C -0.01464 0.20610 0.91178
 C2838 C 0.00558 0.21540 0.90699
 C2839 C 0.00196 0.16382 0.94889
 C2840 C -0.01265 0.14762 0.94593
 C2841 C -0.01124 0.12687 0.95617
 C2842 C -0.02068 0.10861 0.94656
 C2843 C -0.01847 0.08845 0.95496
 C2844 C -0.00681 0.08621 0.97324
 C2845 C 0.00195 0.10461 0.98325
 C2846 C -0.00034 0.12476 0.97487
 H2847 H 0.03985 0.21638 0.91451
 H2848 H 0.03719 0.18786 0.93947
 H2849 H -0.03199 0.18309 0.92935
 H2850 H -0.02923 0.21044 0.90378
 H2851 H 0.01543 0.16211 0.95938
 H2852 H -0.02479 0.14859 0.93397
 H2853 H -0.02934 0.10987 0.93223
 H2854 H -0.02561 0.07462 0.94697
 H2855 H 0.01065 0.10348 0.99756
 H2856 H 0.00644 0.13856 0.98311
 C2857 C 0.47767 0.69709 0.42583
 C2858 C 0.47244 0.67941 0.43770
 C2859 C 0.48858 0.66920 0.44872
 C2860 C 0.50999 0.67769 0.44841
 C2861 C 0.51518 0.69539 0.43661
 C2862 C 0.49920 0.70481 0.42474
 C2863 C 0.48306 0.64836 0.45799
 C2864 C 0.49604 0.63890 0.47132
 C2865 C 0.49325 0.61619 0.47687
 C2866 C 0.50385 0.60925 0.49439
 C2867 C 0.50350 0.58762 0.49916
 C2868 C 0.49262 0.57240 0.48641
 C2869 C 0.48178 0.57935 0.46895
 C2870 C 0.48218 0.60102 0.46415
 H2871 H 0.46506 0.70387 0.41662
 H2872 H 0.45588 0.67309 0.43754
 H2873 H 0.52310 0.67013 0.45623
 H2874 H 0.53188 0.70120 0.43615
 H2875 H 0.46820 0.64014 0.45281
 H2876 H 0.50972 0.64781 0.47812
 H2877 H 0.51270 0.62059 0.50428
 H2878 H 0.51196 0.58284 0.51279
 H2879 H 0.47331 0.56804 0.45879
 H2880 H 0.47445 0.60560 0.45012
 C2881 C 0.49136 0.78259 0.42993
 C2882 C 0.48505 0.80256 0.43664
 C2883 C 0.48409 0.81977 0.42321
 C2884 C 0.48821 0.81628 0.40266
 C2885 C 0.49490 0.79651 0.39609
 C2886 C 0.49702 0.77977 0.40978
 C2887 C 0.48007 0.84127 0.43133
 C2888 C 0.48732 0.85918 0.42231
 C2889 C 0.48772 0.88049 0.43202
 C2890 C 0.50324 0.89581 0.42578
 C2891 C 0.50575 0.91550 0.43566
 C2892 C 0.49263 0.92037 0.45193
 C2893 C 0.47633 0.90544 0.45755
 C2894 C 0.47384 0.88568 0.44765
 H2895 H 0.49249 0.76959 0.44054
 H2896 H 0.48163 0.80476 0.45248
 H2897 H 0.48651 0.82873 0.39159
 H2898 H 0.49840 0.79424 0.38028
 H2899 H 0.47339 0.84215 0.44624
 H2900 H 0.49579 0.85808 0.40828
 H2901 H 0.51398 0.89227 0.41364
 H2902 H 0.51828 0.92673 0.43076
 H2903 H 0.46575 0.90884 0.46985
 H2904 H 0.46117 0.87455 0.45238
 C2905 C -0.01211 0.28637 0.91139
 C2906 C -0.01707 0.30523 0.92130
 C2907 C -0.01655 0.32469 0.91095
 C2908 C -0.01240 0.32479 0.89017
 C2909 C -0.00731 0.30599 0.88032
 C2910 C -0.00661 0.28676 0.89098
 C2911 C -0.01917 0.34462 0.92248
 C2912 C -0.00917 0.36310 0.91735
 C2913 C -0.00823 0.38225 0.93050
 C2914 C 0.00939 0.39687 0.92888
 C2915 C 0.01170 0.41452 0.94184
 C2916 C -0.00370 0.41795 0.95662
 C2917 C -0.02174 0.40367 0.95780
 C2918 C -0.02405 0.38604 0.94480
 H2919 H -0.01170 0.27168 0.91989
 H2920 H -0.02044 0.30476 0.93727
 H2921 H -0.01282 0.33937 0.88153
 H2922 H -0.00380 0.30649 0.86438
 H2923 H -0.02726 0.34335 0.93675
 H2924 H 0.00075 0.36367 0.90412
 H2925 H 0.02168 0.39436 0.91785
 H2926 H 0.02568 0.42531 0.94039
 H2927 H -0.03410 0.40607 0.96878
 H2928 H -0.03826 0.37551 0.94599
 C2929 C 0.46436 0.31524 0.10754
 C2930 C 0.45853 0.33297 0.09646
 C2931 C 0.45631 0.33155 0.07538
 C2932 C 0.45743 0.31150 0.06576
 C2933 C 0.46289 0.29359 0.07697
 C2934 C 0.46760 0.29576 0.09770
 C2935 C 0.45603 0.35166 0.06402
 C2936 C 0.46840 0.35462 0.04787
 C2937 C 0.47571 0.37597 0.04057
 C2938 C 0.49375 0.37726 0.02815
 C2939 C 0.50259 0.39706 0.02234
 C2940 C 0.49364 0.41607 0.02893
 C2941 C 0.47533 0.41481 0.04102
 C2942 C 0.46630 0.39502 0.04661
 H2943 H 0.46754 0.31701 0.12365
 H2944 H 0.45755 0.34823 0.10418
 H2945 H 0.45523 0.30993 0.04954
 H2946 H 0.46502 0.27853 0.06925
 H2947 H 0.44933 0.36512 0.07158
 H2948 H 0.47619 0.34098 0.04156
 H2949 H 0.50133 0.36288 0.02324
 H2950 H 0.51651 0.39746 0.01276
 H2951 H 0.46775 0.42915 0.04599
 H2952 H 0.45201 0.39492 0.05563
 C2953 C -0.01114 0.79302 0.56338
 C2954 C -0.01828 0.80337 0.54599
 C2955 C -0.02832 0.82298 0.54755
 C2956 C -0.03185 0.83164 0.56686
 C2957 C -0.02439 0.82151 0.58410
 C2958 C -0.01351 0.80253 0.58237
 C2959 C -0.03057 0.83633 0.52943
 C2960 C -0.04383 0.85263 0.52900
 C2961 C -0.03617 0.87374 0.52176
 C2962 C -0.04050 0.89165 0.53359
 C2963 C -0.02987 0.91128 0.53023
 C2964 C -0.01495 0.91351 0.51468
 C2965 C -0.01156 0.89585 0.50204
 C2966 C -0.02207 0.87610 0.50555
 H2967 H -0.00275 0.77825 0.56199
 H2968 H -0.01505 0.79662 0.53130
 H2969 H -0.03883 0.84707 0.56874
 H2970 H -0.02634 0.82889 0.59878
 H2971 H -0.01748 0.83578 0.51893
 H2972 H -0.05720 0.85244 0.53927
 H2973 H -0.05124 0.89019 0.54622
 H2974 H -0.03315 0.92462 0.54005
 H2975 H -0.00054 0.89717 0.48962
 H2976 H -0.01874 0.86264 0.49591
 C2977 C 0.22904 0.31972 0.03979
 C2978 C 0.22476 0.30602 0.05597
 C2979 C 0.24171 0.29756 0.06749
 C2980 C 0.26310 0.30243 0.06190
 C2981 C 0.26733 0.31607 0.04578
 C2982 C 0.25040 0.32542 0.03494
 C2983 C 0.23647 0.28595 0.08637
 C2984 C 0.25077 0.27523 0.09758
 C2985 C 0.24645 0.26803 0.11849
 C2986 C 0.25858 0.25176 0.12710
 C2987 C 0.25608 0.24604 0.14739
 C2988 C 0.24161 0.25676 0.15953
 C2989 C 0.22942 0.27291 0.15079
 C2990 C 0.23184 0.27852 0.13064
 H2991 H 0.21566 0.32657 0.03175
 H2992 H 0.20812 0.30263 0.05994
 H2993 H 0.27674 0.29661 0.07035
 H2994 H 0.28401 0.31971 0.04209
 H2995 H 0.22018 0.28718 0.09166
 H2996 H 0.26645 0.27205 0.09172
 H2997 H 0.27019 0.24365 0.11816
 H2998 H 0.26578 0.23360 0.15367
 H2999 H 0.21810 0.28156 0.15961
 H3000 H 0.22277 0.29168 0.12495
 C3001 C 0.73102 0.82561 0.53278
 C3002 C 0.72738 0.81398 0.55043
 C3003 C 0.74452 0.80460 0.56094
 C3004 C 0.76529 0.80628 0.55280
 C3005 C 0.76890 0.81786 0.53518
 C3006 C 0.75196 0.82821 0.52535
 C3007 C 0.74048 0.79552 0.58126
 C3008 C 0.75478 0.78439 0.59204
 C3009 C 0.75206 0.77923 0.61371
 C3010 C 0.76329 0.76235 0.62226
 C3011 C 0.76224 0.75813 0.64299
 C3012 C 0.75012 0.77093 0.65564
 C3013 C 0.73891 0.78783 0.64701
 C3014 C 0.73991 0.79198 0.62639
 H3015 H 0.71769 0.83355 0.52564
 H3016 H 0.71122 0.81305 0.55635
 H3017 H 0.77910 0.79964 0.56034
 H3018 H 0.78517 0.81933 0.52961
 H3019 H 0.72520 0.79896 0.58788
 H3020 H 0.76924 0.77906 0.58510
 H3021 H 0.77303 0.75248 0.61290
 H3022 H 0.77113 0.74503 0.64912
 H3023 H 0.72947 0.79812 0.65624
 H3024 H 0.73169 0.80565 0.62064
 C3025 C 0.22545 0.68203 0.53698
 C3026 C 0.21907 0.69375 0.55372
 C3027 C 0.23440 0.70541 0.56584
 C3028 C 0.25622 0.70584 0.56036
 C3029 C 0.26261 0.69394 0.54374
 C3030 C 0.24738 0.68146 0.53224
 C3031 C 0.22770 0.71403 0.58554
 C3032 C 0.23894 0.72938 0.59604
 C3033 C 0.23536 0.73351 0.61776
 C3034 C 0.24060 0.75381 0.62620
 C3035 C 0.24001 0.75715 0.64716
 C3036 C 0.23479 0.74005 0.66000
 C3037 C 0.22903 0.71993 0.65149
 C3038 C 0.22922 0.71670 0.63064
 H3039 H 0.21338 0.67237 0.52855
 H3040 H 0.20222 0.69297 0.55774
 H3041 H 0.26859 0.71420 0.56955
 H3042 H 0.27961 0.69380 0.54034
 H3043 H 0.21353 0.70647 0.59214
 H3044 H 0.25184 0.73853 0.58895
 H3045 H 0.24564 0.76693 0.61661
 H3046 H 0.24469 0.77278 0.65337
 H3047 H 0.22493 0.70647 0.66104
 H3048 H 0.22568 0.70070 0.62478
 C3049 C 0.72353 0.17563 0.03382
 C3050 C 0.71769 0.18715 0.05089
 C3051 C 0.73336 0.19876 0.06265
 C3052 C 0.75503 0.19896 0.05674
 C3053 C 0.76092 0.18718 0.03982
 C3054 C 0.74526 0.17514 0.02838
 C3055 C 0.72708 0.20802 0.08223
 C3056 C 0.73798 0.22435 0.09167
 C3057 C 0.73435 0.23012 0.11307
 C3058 C 0.73915 0.25111 0.12007
 C3059 C 0.73866 0.25608 0.14078
 C3060 C 0.73393 0.23995 0.15478
 C3061 C 0.72844 0.21917 0.14771
 C3062 C 0.72853 0.21431 0.12712
 H3063 H 0.71115 0.16626 0.02548
 H3064 H 0.70095 0.18650 0.05526
 H3065 H 0.76764 0.20727 0.06571
 H3066 H 0.77778 0.18710 0.03592
 H3067 H 0.71323 0.20052 0.08943
 H3068 H 0.75049 0.23330 0.08383
 H3069 H 0.74390 0.26351 0.10957
 H3070 H 0.74321 0.27215 0.14592
 H3071 H 0.72486 0.20643 0.15825
 H3072 H 0.72530 0.19786 0.12243
 C3073 C 0.73965 0.19287 0.95997
 C3074 C 0.73767 0.20715 0.94390
 C3075 C 0.74762 0.20329 0.92550
 C3076 C 0.75900 0.18454 0.92320
 C3077 C 0.76058 0.17005 0.93905
 C3078 C 0.75114 0.17409 0.95778
 C3079 C 0.74474 0.21811 0.90841
 C3080 C 0.76028 0.22225 0.89506
 C3081 C 0.75673 0.23434 0.87618
 C3082 C 0.77432 0.24510 0.86716
 C3083 C 0.77200 0.25414 0.84796
 C3084 C 0.75217 0.25204 0.83726
 C3085 C 0.73442 0.24188 0.84657
 C3086 C 0.73661 0.23324 0.86585
 H3087 H 0.73244 0.19684 0.97415
 H3088 H 0.72861 0.22140 0.94594
 H3089 H 0.76618 0.18073 0.90894
 H3090 H 0.76896 0.15552 0.93639
 H3091 H 0.72945 0.22579 0.90689
 H3092 H 0.77621 0.21619 0.89781
 H3093 H 0.79003 0.24597 0.87474
 H3094 H 0.78600 0.26167 0.84103
 H3095 H 0.71895 0.23999 0.83861
 H3096 H 0.72284 0.22465 0.87210
 C3097 C 0.24967 0.69307 0.46222
 C3098 C 0.25088 0.70565 0.44479
 C3099 C 0.25940 0.69749 0.42696
 C3100 C 0.26552 0.67610 0.42659
 C3101 C 0.26430 0.66361 0.44390
 C3102 C 0.25681 0.67205 0.46203
 C3103 C 0.26105 0.71112 0.40872
 C3104 C 0.27610 0.70827 0.39480
 C3105 C 0.27627 0.71867 0.37476
 C3106 C 0.28493 0.70745 0.35863
 C3107 C 0.28366 0.71530 0.33902
 C3108 C 0.27427 0.73488 0.33515
 C3109 C 0.26681 0.74691 0.35135
 C3110 C 0.26763 0.73879 0.37106
 H3111 H 0.24384 0.70003 0.47598
 H3112 H 0.24566 0.72193 0.44537
 H3113 H 0.27108 0.66882 0.41289
 H3114 H 0.26929 0.64726 0.44307
 H3115 H 0.24928 0.72325 0.40660
 H3116 H 0.28799 0.69633 0.39738
 H3117 H 0.29182 0.69202 0.36107
 H3118 H 0.28942 0.70574 0.32670
 H3119 H 0.25934 0.76198 0.34861
 H3120 H 0.26129 0.74809 0.38324
 C3121 C 0.72909 0.82430 0.44865
 C3122 C 0.72470 0.81109 0.43171
 C3123 C 0.74158 0.80267 0.42079
 C3124 C 0.76301 0.80770 0.42732
 C3125 C 0.76736 0.82092 0.44416
 C3126 C 0.75049 0.82974 0.45485
 C3127 C 0.73643 0.79044 0.40176
 C3128 C 0.75020 0.77720 0.39334
 C3129 C 0.74764 0.76891 0.37234
 C3130 C 0.76644 0.76632 0.36139
 C3131 C 0.76515 0.76076 0.34095
 C3132 C 0.74503 0.75701 0.33114
 C3133 C 0.72611 0.75827 0.34224
 C3134 C 0.72738 0.76440 0.36272
 H3135 H 0.71569 0.83073 0.45641
 H3136 H 0.70806 0.80769 0.42694
 H3137 H 0.77660 0.80218 0.41910
 H3138 H 0.78406 0.82439 0.44867
 H3139 H 0.72132 0.79351 0.39396
 H3140 H 0.76520 0.77398 0.40121
 H3141 H 0.78222 0.76957 0.36844
 H3142 H 0.77993 0.75986 0.33262
 H3143 H 0.71043 0.75551 0.33486
 H3144 H 0.71259 0.76581 0.37089
 C3145 C 0.27623 0.31358 0.96186
 C3146 C 0.27554 0.29955 0.94537
 C3147 C 0.25658 0.29627 0.93350
 C3148 C 0.23788 0.30668 0.93918
 C3149 C 0.23855 0.32067 0.95592
 C3150 C 0.25793 0.32469 0.96702
 C3151 C 0.25811 0.28373 0.91444
 C3152 C 0.24162 0.27823 0.90162
 C3153 C 0.24544 0.26945 0.88113
 C3154 C 0.23000 0.25548 0.87147
 C3155 C 0.23306 0.24815 0.85165
 C3156 C 0.25142 0.25508 0.84104
 C3157 C 0.26681 0.26899 0.85081
 C3158 C 0.26386 0.27610 0.87050
 H3159 H 0.29128 0.31605 0.97040
 H3160 H 0.29018 0.29176 0.94148
 H3161 H 0.22297 0.30482 0.93041
 H3162 H 0.22423 0.32910 0.95960
 H3163 H 0.27422 0.27949 0.91034
 H3164 H 0.22511 0.28050 0.90580
 H3165 H 0.21553 0.25034 0.87923
 H3166 H 0.22081 0.23762 0.84444
 H3167 H 0.28111 0.27472 0.84310
 H3168 H 0.27576 0.28744 0.87707
 C3169 C 0.85816 0.48240 0.75218
 C3170 C 0.84476 0.46378 0.75109
 C3171 C 0.85173 0.44443 0.75912
 C3172 C 0.87278 0.44389 0.76744
 C3173 C 0.88616 0.46242 0.76844
 C3174 C 0.87889 0.48201 0.76118
 C3175 C 0.83707 0.42500 0.75776
 C3176 C 0.83845 0.40827 0.77032
 C3177 C 0.82453 0.38836 0.76821
 C3178 C 0.82167 0.37494 0.78498
 C3179 C 0.80931 0.35565 0.78321
 C3180 C 0.79976 0.34925 0.76452
 C3181 C 0.80278 0.36270 0.74777
 C3182 C 0.81502 0.38188 0.74955
 H3183 H 0.85199 0.49721 0.74656
 H3184 H 0.82873 0.46458 0.74431
 H3185 H 0.87912 0.42914 0.77299
 H3186 H 0.90228 0.46139 0.77495
 H3187 H 0.82425 0.42496 0.74636
 H3188 H 0.84988 0.40924 0.78296
 H3189 H 0.82904 0.37940 0.79950
 H3190 H 0.80743 0.34568 0.79639
 H3191 H 0.79584 0.35836 0.73305
 H3192 H 0.81739 0.39126 0.73609
 C3193 C 0.35534 0.97092 0.24145
 C3194 C 0.34208 0.95220 0.24149
 C3195 C 0.34960 0.93321 0.24980
 C3196 C 0.37103 0.93311 0.25731
 C3197 C 0.38423 0.95175 0.25726
 C3198 C 0.37645 0.97096 0.24966
 C3199 C 0.33508 0.91368 0.24964
 C3200 C 0.33752 0.89727 0.26239
 C3201 C 0.32388 0.87710 0.26156
 C3202 C 0.32380 0.86346 0.27835
 C3203 C 0.31218 0.84373 0.27769
 C3204 C 0.30047 0.83713 0.26011
 C3205 C 0.30043 0.85091 0.24340
 C3206 C 0.31202 0.87053 0.24406
 H3207 H 0.34883 0.98546 0.23557
 H3208 H 0.32576 0.95265 0.23532
 H3209 H 0.37781 0.91863 0.26300
 H3210 H 0.40064 0.95109 0.26317
 H3211 H 0.32155 0.91331 0.23899
 H3212 H 0.34983 0.89863 0.27427
 H3213 H 0.33295 0.86800 0.29199
 H3214 H 0.31267 0.83352 0.29080
 H3215 H 0.29174 0.84640 0.22952
 H3216 H 0.31210 0.88008 0.23054
 C3217 C 0.13199 0.94723 0.73001
 C3218 C 0.14552 0.93049 0.72555
 C3219 C 0.15745 0.92066 0.74096
 C3220 C 0.15564 0.92809 0.76096
 C3221 C 0.14207 0.94467 0.76540
 C3222 C 0.12982 0.95421 0.75006
 C3223 C 0.17007 0.90163 0.73606
 C3224 C 0.18672 0.89534 0.74765
 C3225 C 0.19751 0.87467 0.74531
 C3226 C 0.20981 0.86743 0.76178
 C3227 C 0.21896 0.84742 0.76124
 C3228 C 0.21628 0.83413 0.74407
 C3229 C 0.20482 0.84171 0.72716
 C3230 C 0.19550 0.86175 0.72775
 H3231 H 0.12256 0.95409 0.71790
 H3232 H 0.14640 0.92496 0.71006
 H3233 H 0.16394 0.92062 0.77342
 H3234 H 0.14086 0.94980 0.78098
 H3235 H 0.16478 0.89229 0.72290
 H3236 H 0.19213 0.90527 0.76041
 H3237 H 0.21183 0.87704 0.77544
 H3238 H 0.22783 0.84221 0.77448
 H3239 H 0.20249 0.83190 0.71366
 H3240 H 0.18666 0.86686 0.71450
 C3241 C 0.62642 0.44935 0.23050
 C3242 C 0.63930 0.43231 0.22529
 C3243 C 0.65196 0.42229 0.24007
 C3244 C 0.65231 0.43055 0.25997
 C3245 C 0.63923 0.44724 0.26519
 C3246 C 0.62589 0.45656 0.25062
 C3247 C 0.66460 0.40344 0.23438
 C3248 C 0.67117 0.38924 0.24808
 C3249 C 0.68455 0.37068 0.24389
 C3250 C 0.69707 0.36314 0.25999
 C3251 C 0.70844 0.34459 0.25798
 C3252 C 0.70743 0.33267 0.23983
 C3253 C 0.69542 0.34051 0.22334
 C3254 C 0.68408 0.35944 0.22533
 H3255 H 0.61630 0.45636 0.21898
 H3256 H 0.63896 0.42659 0.20980
 H3257 H 0.66268 0.42434 0.27169
 H3258 H 0.63953 0.45291 0.28071
 H3259 H 0.66829 0.40117 0.21863
 H3260 H 0.66698 0.39130 0.26370
 H3261 H 0.69779 0.37150 0.27441
 H3262 H 0.71762 0.33931 0.27101
 H3263 H 0.69423 0.33170 0.20918
 H3264 H 0.67431 0.36468 0.21269
 C3265 C 0.63903 0.53680 0.27666
 C3266 C 0.65233 0.55534 0.27623
 C3267 C 0.65373 0.56753 0.25862
 C3268 C 0.64253 0.55995 0.24098
 C3269 C 0.62928 0.54124 0.24140
 C3270 C 0.62693 0.52984 0.25941
 C3271 C 0.66685 0.58797 0.25949
 C3272 C 0.66353 0.60433 0.24700
 C3273 C 0.67607 0.62505 0.24817
 C3274 C 0.67787 0.63707 0.23051
 C3275 C 0.68921 0.65678 0.23070
 C3276 C 0.69883 0.66526 0.24868
 C3277 C 0.69668 0.65349 0.26656
 C3278 C 0.68547 0.63351 0.26631
 H3279 H 0.63793 0.52805 0.29067
 H3280 H 0.66105 0.56053 0.28991
 H3281 H 0.64382 0.56841 0.22686
 H3282 H 0.62027 0.53617 0.22788
 H3283 H 0.67910 0.58981 0.27140
 H3284 H 0.65130 0.60258 0.23509
 H3285 H 0.67059 0.63108 0.21640
 H3286 H 0.69029 0.66547 0.21666
 H3287 H 0.70379 0.65963 0.28067
 H3288 H 0.68386 0.62498 0.28037
 C3289 C 0.14589 0.02632 0.74534
 C3290 C 0.16033 0.04416 0.74467
 C3291 C 0.15454 0.06415 0.75220
 C3292 C 0.13357 0.06621 0.75939
 C3293 C 0.11919 0.04847 0.76001
 C3294 C 0.12532 0.02823 0.75343
 C3295 C 0.17038 0.08264 0.75181
 C3296 C 0.16997 0.09935 0.76472
 C3297 C 0.18497 0.11851 0.76401
 C3298 C 0.18730 0.13207 0.78105
 C3299 C 0.20033 0.15092 0.78059
 C3300 C 0.21119 0.15673 0.76294
 C3301 C 0.20892 0.14305 0.74594
 C3302 C 0.19596 0.12427 0.74642
 H3303 H 0.15111 0.01094 0.74024
 H3304 H 0.17627 0.04222 0.73874
 H3305 H 0.12811 0.08151 0.76443
 H3306 H 0.10322 0.05059 0.76581
 H3307 H 0.18317 0.08189 0.74104
 H3308 H 0.15841 0.09893 0.77671
 H3309 H 0.17887 0.12814 0.79476
 H3310 H 0.20161 0.16108 0.79392
 H3311 H 0.21692 0.14698 0.73201
 H3312 H 0.19416 0.11474 0.73274
 C3313 C 0.36512 0.05176 0.22275
 C3314 C 0.35028 0.06755 0.21842
 C3315 C 0.33734 0.07563 0.23365
 C3316 C 0.33877 0.06656 0.25306
 C3317 C 0.35381 0.05118 0.25743
 C3318 C 0.36738 0.04392 0.24245
 C3319 C 0.32275 0.09343 0.22894
 C3320 C 0.31483 0.10589 0.24337
 C3321 C 0.29990 0.12348 0.23991
 C3322 C 0.28639 0.12858 0.25572
 C3323 C 0.27369 0.14635 0.25466
 C3324 C 0.27431 0.15991 0.23781
 C3325 C 0.28725 0.15444 0.22150
 C3326 C 0.29995 0.13631 0.22252
 H3327 H 0.37543 0.04632 0.21094
 H3328 H 0.34933 0.07389 0.20327
 H3329 H 0.32840 0.07118 0.26508
 H3330 H 0.35496 0.04499 0.27263
 H3331 H 0.31876 0.09648 0.21324
 H3332 H 0.31911 0.10313 0.25902
 H3333 H 0.28598 0.11896 0.26925
 H3334 H 0.26383 0.14979 0.26747
 H3335 H 0.28818 0.16456 0.20834
 H3336 H 0.31046 0.13297 0.21017
 C3337 C 0.85502 0.56192 0.77300
 C3338 C 0.83987 0.57723 0.76871
 C3339 C 0.83855 0.58655 0.74953
 C3340 C 0.85213 0.57941 0.73433
 C3341 C 0.86710 0.56369 0.73856
 C3342 C 0.86895 0.55516 0.75807
 C3343 C 0.82295 0.60368 0.74643
 C3344 C 0.82558 0.61994 0.73342
 C3345 C 0.81187 0.63899 0.73350
 C3346 C 0.81088 0.65215 0.71639
 C3347 C 0.79930 0.67099 0.71664
 C3348 C 0.78864 0.67719 0.73413
 C3349 C 0.78955 0.66389 0.75114
 C3350 C 0.80105 0.64521 0.75089
 H3351 H 0.85600 0.55545 0.78811
 H3352 H 0.82951 0.58228 0.78065
 H3353 H 0.85123 0.58588 0.71925
 H3354 H 0.87770 0.55872 0.72680
 H3355 H 0.80953 0.60358 0.75656
 H3356 H 0.83875 0.61993 0.72299
 H3357 H 0.81929 0.64795 0.70286
 H3358 H 0.79910 0.68091 0.70332
 H3359 H 0.78171 0.66810 0.76497
 H3360 H 0.80198 0.63622 0.76472
 C3361 C 0.96280 0.73748 0.16445
 C3362 C 0.94329 0.73531 0.17439
 C3363 C 0.92394 0.74002 0.16438
 C3364 C 0.92414 0.74593 0.14397
 C3365 C 0.94361 0.74792 0.13398
 C3366 C 0.96312 0.74405 0.14424
 C3367 C 0.90385 0.73891 0.17563
 C3368 C 0.88838 0.75288 0.17254
 C3369 C 0.86830 0.75263 0.18397
 C3370 C 0.85023 0.76217 0.17540
 C3371 C 0.83075 0.76180 0.18546
 C3372 C 0.82907 0.75187 0.20434
 C3373 C 0.84734 0.74290 0.21321
 C3374 C 0.86683 0.74341 0.20321
 H3375 H 0.97762 0.73464 0.17280
 H3376 H 0.94338 0.73061 0.19011
 H3377 H 0.90930 0.74890 0.13570
 H3378 H 0.94336 0.75241 0.11822
 H3379 H 0.90239 0.72687 0.18719
 H3380 H 0.89030 0.76490 0.16097
 H3381 H 0.85110 0.76960 0.16070
 H3382 H 0.81692 0.76890 0.17828
 H3383 H 0.84662 0.73551 0.22792
 H3384 H 0.88064 0.73675 0.21076
 C3385 C 0.47288 0.21931 0.66877
 C3386 C 0.45716 0.21383 0.68276
 C3387 C 0.43693 0.20539 0.67606
 C3388 C 0.43359 0.19988 0.65558
 C3389 C 0.44927 0.20536 0.64163
 C3390 C 0.46851 0.21629 0.64803
 C3391 C 0.41868 0.20596 0.68978
 C3392 C 0.40015 0.21413 0.68332
 C3393 C 0.38242 0.21947 0.69660
 C3394 C 0.36805 0.23477 0.68991
 C3395 C 0.35042 0.23976 0.70138
 C3396 C 0.34667 0.22937 0.71975
 C3397 C 0.36142 0.21444 0.72674
 C3398 C 0.37912 0.20948 0.71525
 H3399 H 0.48762 0.22751 0.67411
 H3400 H 0.46008 0.21798 0.69854
 H3401 H 0.41828 0.19269 0.65019
 H3402 H 0.44586 0.20215 0.62575
 H3403 H 0.42166 0.20306 0.70567
 H3404 H 0.39859 0.21903 0.66770
 H3405 H 0.37033 0.24271 0.67559
 H3406 H 0.33934 0.25125 0.69549
 H3407 H 0.35890 0.20603 0.74077
 H3408 H 0.38967 0.19734 0.72069
 C3409 C 0.45903 0.72231 0.83281
 C3410 C 0.44044 0.71654 0.82140
 C3411 C 0.42004 0.71659 0.83012
 C3412 C 0.41868 0.72169 0.85080
 C3413 C 0.43728 0.72742 0.86220
 C3414 C 0.45754 0.72832 0.85318
 C3415 C 0.40067 0.71421 0.81666
 C3416 C 0.38055 0.71121 0.82332
 C3417 C 0.36121 0.71456 0.81042
 C3418 C 0.34128 0.70524 0.81594
 C3419 C 0.32234 0.71000 0.80536
 C3420 C 0.32297 0.72442 0.78918
 C3421 C 0.34299 0.73348 0.78348
 C3422 C 0.36188 0.72869 0.79402
 H3423 H 0.47439 0.72315 0.82537
 H3424 H 0.44192 0.71290 0.80548
 H3425 H 0.40334 0.72243 0.85812
 H3426 H 0.43574 0.73175 0.87796
 H3427 H 0.40311 0.71626 0.80064
 H3428 H 0.37791 0.70697 0.83889
 H3429 H 0.34033 0.69453 0.82869
 H3430 H 0.30717 0.70271 0.81014
 H3431 H 0.34407 0.74470 0.77115
 H3432 H 0.37679 0.73685 0.78974
 C3433 C 0.94957 0.22522 0.35894
 C3434 C 0.93185 0.22068 0.34588
 C3435 C 0.91712 0.23641 0.34150
 C3436 C 0.91952 0.25632 0.35133
 C3437 C 0.93700 0.26085 0.36447
 C3438 C 0.95274 0.24560 0.36820
 C3439 C 0.89910 0.23188 0.32694
 C3440 C 0.89194 0.24712 0.31470
 C3441 C 0.87237 0.24462 0.30159
 C3442 C 0.86947 0.25936 0.28603
 C3443 C 0.85005 0.25941 0.27493
 C3444 C 0.83303 0.24479 0.27934
 C3445 C 0.83622 0.22951 0.29446
 C3446 C 0.85566 0.22945 0.30552
 H3447 H 0.96035 0.21245 0.36186
 H3448 H 0.92992 0.20500 0.33885
 H3449 H 0.90793 0.26855 0.34878
 H3450 H 0.93847 0.27685 0.37072
 H3451 H 0.89211 0.21575 0.32606
 H3452 H 0.90069 0.26248 0.31445
 H3453 H 0.88208 0.27128 0.28280
 H3454 H 0.84814 0.27137 0.26337
 H3455 H 0.82345 0.21800 0.29822
 H3456 H 0.85705 0.21816 0.31771
 C3457 C 0.02647 0.27349 0.34166
 C3458 C 0.04173 0.27230 0.32665
 C3459 C 0.05258 0.25339 0.32355
 C3460 C 0.04711 0.23529 0.33517
 C3461 C 0.03174 0.23648 0.35015
 C3462 C 0.02183 0.25577 0.35388
 C3463 C 0.07127 0.25416 0.31015
 C3464 C 0.08084 0.23682 0.30341
 C3465 C 0.10200 0.23832 0.29374
 C3466 C 0.10728 0.22252 0.27983
 C3467 C 0.12772 0.22289 0.27143
 C3468 C 0.14337 0.23891 0.27710
 C3469 C 0.13807 0.25469 0.29110
 C3470 C 0.11761 0.25439 0.29937
 H3471 H 0.01875 0.28847 0.34412
 H3472 H 0.04566 0.28646 0.31795
 H3473 H 0.05544 0.22056 0.33365
 H3474 H 0.02862 0.22270 0.35958
 H3475 H 0.07799 0.26985 0.30641
 H3476 H 0.07330 0.22106 0.30518
 H3477 H 0.09559 0.20982 0.27553
 H3478 H 0.13137 0.21041 0.26077
 H3479 H 0.14978 0.26718 0.29583
 H3480 H 0.11433 0.26638 0.31063
 C3481 C 0.53840 0.72984 0.83292
 C3482 C 0.55497 0.73012 0.81907
 C3483 C 0.56176 0.74932 0.81007
 C3484 C 0.55060 0.76795 0.81379
 C3485 C 0.53381 0.76763 0.82743
 C3486 C 0.52806 0.74872 0.83765
 C3487 C 0.58142 0.74961 0.79809
 C3488 C 0.59605 0.76598 0.79920
 C3489 C 0.61771 0.76464 0.79069
 C3490 C 0.63518 0.77612 0.80009
 C3491 C 0.65613 0.77405 0.79324
 C3492 C 0.65990 0.76052 0.77677
 C3493 C 0.64226 0.74954 0.76702
 C3494 C 0.62139 0.75167 0.77382
 H3495 H 0.53466 0.71506 0.84068
 H3496 H 0.56334 0.71557 0.81630
 H3497 H 0.55516 0.78284 0.80651
 H3498 H 0.52575 0.78230 0.83040
 H3499 H 0.58529 0.73484 0.79063
 H3500 H 0.59305 0.77976 0.80859
 H3501 H 0.63266 0.78634 0.81304
 H3502 H 0.66933 0.78294 0.80090
 H3503 H 0.64449 0.73933 0.75402
 H3504 H 0.60819 0.74321 0.76576
 C3505 C 0.53163 0.25700 0.66856
 C3506 C 0.54922 0.26440 0.68060
 C3507 C 0.56545 0.27768 0.67241
 C3508 C 0.56292 0.28501 0.65254
 C3509 C 0.54530 0.27771 0.64055
 C3510 C 0.52983 0.26307 0.64825
 C3511 C 0.58566 0.28192 0.68419
 C3512 C 0.60484 0.28188 0.67532
 C3513 C 0.62543 0.28131 0.68684
 C3514 C 0.64250 0.27064 0.67832
 C3515 C 0.66190 0.26873 0.68912
 C3516 C 0.66470 0.27776 0.70855
 C3517 C 0.64778 0.28896 0.71686
 C3518 C 0.62830 0.29072 0.70611
 H3519 H 0.51988 0.24602 0.67501
 H3520 H 0.55078 0.25875 0.69597
 H3521 H 0.57497 0.29573 0.64603
 H3522 H 0.54452 0.28261 0.62492
 H3523 H 0.58485 0.28185 0.70051
 H3524 H 0.60543 0.27953 0.65911
 H3525 H 0.64066 0.26340 0.66342
 H3526 H 0.67473 0.26026 0.68218
 H3527 H 0.64952 0.29627 0.73173
 H3528 H 0.61563 0.29955 0.71285
 C3529 C 0.04252 0.76589 0.17369
 C3530 C 0.05761 0.76433 0.18949
 C3531 C 0.06532 0.74437 0.19483
 C3532 C 0.05605 0.72576 0.18556
 C3533 C 0.04089 0.72732 0.16979
 C3534 C 0.03474 0.74746 0.16320
 C3535 C 0.08481 0.74391 0.20796
 C3536 C 0.10041 0.73035 0.20421
 C3537 C 0.12285 0.73399 0.21180
 C3538 C 0.13951 0.72628 0.20019
 C3539 C 0.16105 0.73104 0.20562
 C3540 C 0.16635 0.74355 0.22289
 C3541 C 0.14965 0.75074 0.23488
 C3542 C 0.12810 0.74591 0.22946
 H3543 H 0.03755 0.78157 0.16917
 H3544 H 0.06435 0.77885 0.19662
 H3545 H 0.06124 0.71009 0.18984
 H3546 H 0.03502 0.71285 0.16200
 H3547 H 0.08805 0.75743 0.21803
 H3548 H 0.09767 0.71813 0.19263
 H3549 H 0.13586 0.71700 0.18655
 H3550 H 0.17352 0.72502 0.19620
 H3551 H 0.15319 0.76000 0.24855
 H3552 H 0.11568 0.75153 0.23915
   
