data_POSCAR
  _audit_creation_date              2014-09-24
  _audit_creation_method            'ToBaCCo'
  _symmetry_space_group_name_H-M    'P1'
  _symmetry_Int_Tables_number       1
  _symmetry_cell_setting            triclinic
  loop_
  _symmetry_equiv_pos_as_xyz
 x,y,z
_cell_length_a 79.4609
_cell_length_b 80.0697
_cell_length_c 79.0992
_cell_angle_alpha 90.644500
_cell_angle_beta 89.972600
_cell_angle_gamma 89.993800
loop_
  _atom_site_label
  _atom_site_type_symbol
  _atom_site_fract_x
  _atom_site_fract_y
  _atom_site_fract_z
N1 N 0.31590 0.43735 0.93508
 N2 N 0.44964 0.80329 0.44251
 N3 N 0.90367 0.91034 0.84337
 N4 N 0.43549 -0.07745 0.31487
 N5 N 0.81617 0.31008 0.31318
 N6 N -0.15835 0.85024 0.84145
 N7 N 0.93726 0.32435 0.43763
 N8 N 0.42966 0.43807 0.80342
 N9 N 0.84439 0.90935 0.90375
 N10 N 0.31690 0.80911 0.31692
 N11 N 0.80111 0.44748 0.43915
 N12 N 0.89619 0.85371 -0.10088
 N13 N 0.31356 0.32217 0.82022
 N14 N 0.17369 0.57669 0.56987
 N15 N 0.57437 0.67775 0.06585
 N16 N 0.67947 0.18562 0.68448
 N17 N 1.06014 0.04968 0.19287
 N18 N 0.07232 0.17573 1.07240
 N19 N 0.18776 0.69070 0.69253
 N20 N 1.19215 0.18217 0.19087
 N21 N 0.69038 1.07283 0.56259
 N22 N 0.56797 0.55635 0.17921
 N23 N 0.68755 0.67708 0.17759
 N24 N 0.18257 0.07089 1.06996
 N25 N 0.56360 0.18546 0.55243
 N26 N 0.05245 0.56660 0.69048
 N27 N 0.68594 0.57134 0.06461
 N28 N 0.06918 0.69470 0.56674
 N29 N 0.55949 1.06179 0.68996
 N30 N 0.42880 0.31664 0.92484
 N31 N 0.93174 0.42238 0.32257
 N32 N 0.31869 0.93872 0.43797
 O33 O 0.19245 0.52043 0.75465
 O34 O 0.19951 0.51921 0.78348
 O35 O 0.23582 0.54495 0.73347
 O36 O 0.26333 0.54046 0.73123
 O37 O 0.21373 0.50231 0.70918
 O38 O 0.21641 0.47293 0.71332
 O39 O 0.28169 0.49851 0.77433
 O40 O 0.27702 0.52747 0.77243
 O41 O 0.24054 0.47693 0.79588
 O42 O 0.20996 0.47780 0.79111
 O43 O 0.25978 0.45657 0.75128
 O44 O 0.25885 0.46305 0.72213
 O45 O 0.28202 0.47920 0.75303
 O46 O 0.27474 0.48309 0.72144
 O47 O 0.24075 0.45588 0.77274
 O48 O 0.20936 0.46131 0.77157
 O49 O 0.26038 0.49734 0.79664
 O50 O 0.25701 0.52824 0.79200
 O51 O 0.19190 0.50083 0.73359
 O52 O 0.19916 0.47116 0.73357
 O53 O 0.23394 0.52240 0.70874
 O54 O 0.26502 0.51901 0.71427
 O55 O 0.21616 0.54442 0.75441
 O56 O 0.21862 0.53707 0.78403
 Zr57 Zr 0.21731 0.51981 0.76365
 O58 O 0.23248 0.50458 0.77886
 Zr59 Zr 0.24574 0.52071 0.73271
 O60 O 0.26265 0.50627 0.74709
 Zr61 Zr 0.21653 0.49114 0.73287
 O62 O 0.23237 0.47497 0.74634
 Zr63 Zr 0.25778 0.50924 0.77310
 O64 O 0.24268 0.52569 0.75886
 Zr65 Zr 0.22885 0.47933 0.77231
 O66 O 0.21178 0.49444 0.75885
 Zr67 Zr 0.25780 0.48094 0.74198
 O68 O 0.24187 0.49544 0.72639
 O69 O 0.22050 0.51635 0.73781
 O70 O 0.25420 0.48398 0.76788
 C71 C 0.18490 0.51214 0.74290
 C72 C 0.22437 0.55185 0.74265
 C73 C 0.22148 0.51442 0.70205
 C74 C 0.28878 0.48677 0.76578
 C75 C 0.25276 0.48472 0.80305
 C76 C 0.25247 0.44929 0.76366
 H77 H 0.22992 0.50676 0.79090
 H78 H 0.22983 0.46329 0.74307
 H79 H 0.21289 0.52370 0.73136
 H80 H 0.27441 0.50935 0.74445
 H81 H 0.27211 0.53744 0.76701
 H82 H 0.27284 0.53759 0.73871
 H83 H 0.21164 0.45355 0.76202
 H84 H 0.19348 0.47185 0.74470
 H85 H 0.24824 0.52532 0.80034
 H86 H 0.22942 0.54311 0.78285
 H87 H 0.24752 0.45802 0.72116
 H88 H 0.22725 0.47405 0.70726
 H89 H 0.19500 0.50768 0.78364
 H90 H 0.21110 0.48768 0.79864
 H91 H 0.26217 0.50950 0.70670
 H92 H 0.28353 0.49127 0.72467
 O93 O 0.27506 -0.05025 0.24953
 O94 O 0.27448 -0.04470 0.22027
 O95 O 0.29616 -0.00621 0.27097
 O96 O 0.29081 0.02095 0.27216
 O97 O 0.25232 -0.02829 0.29311
 O98 O 0.22358 -0.02852 0.28675
 O99 O 0.24973 0.03615 0.22602
 O100 O 0.27879 0.03271 0.22878
 O101 O 0.22979 -0.00621 0.20478
 O102 O 0.23111 -0.03530 0.20925
 O103 O 0.20822 0.01482 0.24680
 O104 O 0.21288 0.01387 0.27706
 O105 O 0.22990 0.03674 0.24677
 O106 O 0.23244 0.03041 0.27856
 O107 O 0.20778 -0.00603 0.22703
 O108 O 0.21553 -0.03758 0.22991
 O109 O 0.24935 0.01449 0.20447
 O110 O 0.28107 0.01145 0.21042
 O111 O 0.25456 -0.05137 0.26959
 O112 O 0.22382 -0.04578 0.26638
 O113 O 0.27209 -0.00777 0.29420
 O114 O 0.26836 0.02289 0.28721
 O115 O 0.29747 -0.02660 0.25075
 O116 O 0.29131 -0.02425 0.22002
 Zr117 Zr 0.27324 -0.02624 0.23953
 O118 O 0.25763 -0.01259 0.22317
 Zr119 Zr 0.27154 0.00289 0.26975
 O120 O 0.25721 0.01860 0.25410
 Zr121 Zr 0.24296 -0.02752 0.26849
 O122 O 0.22659 -0.01258 0.25418
 Zr123 Zr 0.26124 0.01287 0.22836
 O124 O 0.27789 -0.00071 0.24398
 Zr125 Zr 0.23205 -0.01689 0.22861
 O126 O 0.24770 -0.03283 0.24287
 Zr127 Zr 0.23178 0.01300 0.25821
 O128 O 0.24607 -0.00198 0.27478
 O129 O 0.26831 -0.02241 0.26504
 O130 O 0.23583 0.00852 0.23263
 C131 C 0.26708 -0.05774 0.26136
 C132 C 0.30390 -0.01799 0.26303
 C133 C 0.26378 -0.01989 0.30082
 C134 C 0.23755 0.04315 0.23403
 C135 C 0.23701 0.00629 0.19785
 C136 C 0.20119 0.00664 0.23472
 H137 H 0.26029 -0.01546 0.21129
 H138 H 0.21478 -0.01537 0.25689
 H139 H 0.27558 -0.02927 0.27235
 H140 H 0.25985 0.03045 0.25657
 H141 H 0.28877 0.02864 0.23498
 H142 H 0.28877 0.02932 0.26331
 H143 H 0.20625 -0.03459 0.23772
 H144 H 0.22650 -0.05273 0.25631
 H145 H 0.27777 0.00354 0.20132
 H146 H 0.29764 -0.01380 0.22219
 H147 H 0.20671 0.00316 0.27655
 H148 H 0.22240 -0.01704 0.29136
 H149 H 0.26332 -0.05017 0.21998
 H150 H 0.24261 -0.03643 0.20463
 H151 H 0.25882 0.01992 0.29464
 H152 H 0.24062 0.03925 0.27568
 O153 O 0.54447 0.71318 0.24672
 O154 O 0.54177 0.71685 0.27661
 O155 O 0.49765 0.69140 0.23249
 O156 O 0.47035 0.69777 0.23419
 O157 O 0.51817 0.73256 0.20425
 O158 O 0.51901 0.76187 0.20884
 O159 O 0.46049 0.74251 0.27784
 O160 O 0.46292 0.71309 0.27584
 O161 O 0.50532 0.76178 0.29363
 O162 O 0.53520 0.75812 0.28498
 O163 O 0.48135 0.78154 0.25313
 O164 O 0.47973 0.77439 0.22242
 O165 O 0.45843 0.76048 0.25590
 O166 O 0.46163 0.75671 0.22452
 O167 O 0.50435 0.78221 0.27019
 O168 O 0.53445 0.77430 0.26558
 O169 O 0.48480 0.74238 0.29735
 O170 O 0.48494 0.71157 0.29286
 O171 O 0.54397 0.73235 0.22566
 O172 O 0.53903 0.76247 0.22626
 O173 O 0.49773 0.71293 0.20747
 O174 O 0.46809 0.71858 0.21653
 O175 O 0.52026 0.69170 0.25013
 O176 O 0.52177 0.69972 0.27986
 Zr177 Zr 0.52148 0.71642 0.25934
 O178 O 0.50940 0.73302 0.27615
 Zr179 Zr 0.48925 0.71630 0.23261
 O180 O 0.47537 0.73247 0.24862
 Zr181 Zr 0.52016 0.74398 0.22823
 O182 O 0.50740 0.76164 0.24349
 Zr183 Zr 0.48329 0.72994 0.27381
 O184 O 0.49539 0.71198 0.25817
 Zr185 Zr 0.51395 0.75776 0.26884
 O186 O 0.52806 0.74117 0.25341
 Zr187 Zr 0.48128 0.75729 0.24259
 O188 O 0.49393 0.74109 0.22539
 O189 O 0.51513 0.71929 0.23410
 O190 O 0.48795 0.75474 0.26783
 C191 C 0.55100 0.72043 0.23388
 C192 C 0.51021 0.68430 0.23973
 C193 C 0.50902 0.72045 0.19868
 C194 C 0.45288 0.75401 0.26963
 C195 C 0.49383 0.75475 0.30249
 C196 C 0.49121 0.78893 0.26369
 H197 H 0.51334 0.73097 0.28779
 H198 H 0.51028 0.77304 0.23983
 H199 H 0.52122 0.71131 0.22667
 H200 H 0.46320 0.73015 0.24753
 H201 H 0.46643 0.70264 0.27003
 H202 H 0.46166 0.70200 0.24209
 H203 H 0.53202 0.78132 0.25567
 H204 H 0.54604 0.76165 0.23656
 H205 H 0.49543 0.71347 0.29932
 H206 H 0.51056 0.69434 0.28014
 H207 H 0.49002 0.78134 0.22263
 H208 H 0.50706 0.76250 0.20537
 H209 H 0.54738 0.72778 0.27525
 H210 H 0.53403 0.74884 0.29304
 H211 H 0.47037 0.72803 0.20889
 H212 H 0.45389 0.74755 0.22755
 O213 O 0.04215 0.72772 0.75771
 O214 O 0.03101 0.72770 0.78621
 O215 O -0.00106 0.71515 0.72807
 O216 O -0.02698 0.72544 0.72386
 O217 O 0.03175 0.75528 0.71438
 O218 O 0.03325 0.78434 0.72346
 O219 O -0.04366 0.76535 0.76982
 O220 O -0.04407 0.73599 0.76304
 O221 O -0.00299 0.77417 0.80067
 O222 O 0.02772 0.76698 0.79922
 O223 O -0.01259 0.80309 0.75993
 O224 O -0.00412 0.80046 0.72841
 O225 O -0.03627 0.78679 0.75270
 O226 O -0.02565 0.78669 0.72289
 O227 O 0.00333 0.79709 0.78293
 O228 O 0.03369 0.78670 0.78376
 O229 O -0.02694 0.76008 0.79392
 O230 O -0.02817 0.72921 0.78554
 O231 O 0.04963 0.74989 0.74158
 O232 O 0.04819 0.77962 0.74493
 O233 O 0.00814 0.74033 0.70795
 O234 O -0.02173 0.74823 0.70980
 O235 O 0.01545 0.70978 0.75091
 O236 O 0.00965 0.71307 0.78051
 Zr237 Zr 0.01685 0.73253 0.76418
 O238 O 0.00216 0.74817 0.77981
 Zr239 Zr -0.00634 0.74094 0.73029
 O240 O -0.02218 0.75703 0.74442
 Zr241 Zr 0.02748 0.76398 0.73923
 O242 O 0.01330 0.78120 0.75373
 Zr243 Zr -0.02233 0.74973 0.76983
 O244 O -0.00820 0.73236 0.75533
 Zr245 Zr 0.01171 0.77256 0.77866
 O246 O 0.02766 0.75651 0.76466
 Zr247 Zr -0.01163 0.78117 0.74488
 O248 O 0.00308 0.76548 0.72902
 O249 O 0.01823 0.73972 0.73911
 O250 O -0.01281 0.77377 0.76983
 C251 C 0.05285 0.73600 0.74892
 C252 C 0.00795 0.70538 0.73719
 C253 C 0.02273 0.74626 0.70433
 C254 C -0.04635 0.77967 0.76310
 C255 C -0.01820 0.76964 0.80367
 C256 C -0.00691 0.80645 0.77482
 H257 H 0.00217 0.74395 0.79150
 H258 H 0.01837 0.79245 0.75324
 H259 H 0.02527 0.73193 0.73237
 H260 H -0.03371 0.75698 0.73973
 H261 H -0.04010 0.72555 0.75751
 H262 H -0.03700 0.73006 0.72967
 H263 H 0.03360 0.79661 0.77639
 H264 H 0.05085 0.77783 0.75699
 H265 H -0.02133 0.73011 0.79595
 H266 H -0.00224 0.71049 0.77785
 H267 H 0.00444 0.80735 0.73430
 H268 H 0.02328 0.78611 0.71620
 H269 H 0.03864 0.73735 0.78785
 H270 H 0.02289 0.75729 0.80516
 H271 H -0.01709 0.75886 0.70554
 H272 H -0.03496 0.77852 0.72206
 O273 O 0.00466 0.03540 0.02746
 O274 O -0.02450 0.02883 0.02790
 O275 O 0.02713 -0.01055 0.04391
 O276 O 0.02783 -0.03725 0.03548
 O277 O 0.04716 0.01610 0.00203
 O278 O 0.03956 0.01719 -0.02744
 O279 O -0.01846 -0.05010 -0.00417
 O280 O -0.01417 -0.04836 0.02528
 O281 O -0.04254 -0.00585 -0.01789
 O282 O -0.03651 0.02416 -0.01351
 O283 O -0.00066 -0.02267 -0.04572
 O284 O 0.02959 -0.02245 -0.04156
 O285 O -0.00168 -0.04635 -0.02712
 O286 O 0.03083 -0.04177 -0.02438
 O287 O -0.02277 -0.00523 -0.04089
 O288 O -0.01901 0.02593 -0.03262
 O289 O -0.04008 -0.02942 -0.00233
 O290 O -0.03357 -0.02851 0.02964
 O291 O 0.02333 0.03818 0.00584
 O292 O 0.02009 0.03501 -0.02445
 O293 O 0.04915 -0.00651 0.01908
 O294 O 0.04265 -0.03637 0.01240
 O295 O 0.00670 0.00902 0.04802
 O296 O -0.02333 0.00802 0.04348
 Zr297 Zr -0.00509 0.01109 0.02429
 O298 O -0.02217 -0.00196 0.00869
 Zr299 Zr 0.02497 -0.01739 0.01832
 O300 O 0.00901 -0.03207 0.00287
 Zr301 Zr 0.02234 0.01518 -0.00719
 O302 O 0.00671 0.00194 -0.02418
 Zr303 Zr -0.01626 -0.02752 0.00923
 O304 O -0.00025 -0.01470 0.02630
 Zr305 Zr -0.01847 0.00492 -0.01659
 O306 O -0.00298 0.01970 -0.00068
 Zr307 Zr 0.01134 -0.02382 -0.02215
 O308 O 0.02867 -0.01033 -0.00695
 O309 O 0.02006 0.00808 0.01787
 O310 O -0.01374 -0.02050 -0.01577
 C311 C 0.01559 0.04375 0.01902
 C312 C 0.01901 -0.00003 0.05321
 C313 C 0.05530 0.00665 0.01222
 C314 C -0.01292 -0.05444 -0.01882
 C315 C -0.04805 -0.01995 -0.01264
 C316 C -0.01466 -0.01594 -0.04998
 H317 H -0.03383 0.00026 0.01243
 H318 H 0.00860 0.00589 -0.03582
 H319 H 0.02746 0.01455 0.02558
 H320 H 0.01176 -0.04405 0.00393
 H321 H -0.00815 -0.04445 0.03555
 H322 H 0.01991 -0.04614 0.03192
 H323 H -0.01197 0.02340 -0.04265
 H324 H 0.00880 0.03993 -0.02262
 H325 H -0.04323 -0.02116 0.02709
 H326 H -0.02235 -0.00367 0.04731
 H327 H 0.02909 -0.01103 -0.04617
 H328 H 0.04555 0.00637 -0.02824
 H329 H -0.02529 0.03518 0.01727
 H330 H -0.04289 0.02187 -0.00305
 H331 H 0.04861 -0.03288 0.00203
 H332 H 0.02724 -0.05194 -0.01838
 O333 O -0.03646 0.47332 0.49814
 O334 O -0.03781 0.48092 0.52739
 O335 O -0.05576 0.51787 0.47461
 O336 O -0.04910 0.54521 0.47452
 O337 O -0.01215 0.49342 0.45497
 O338 O 0.01712 0.49396 0.46317
 O339 O -0.01071 0.56100 0.52029
 O340 O -0.03983 0.55771 0.51510
 O341 O 0.00507 0.51839 0.54529
 O342 O 0.00182 0.48757 0.53952
 O343 O 0.03223 0.53541 0.50440
 O344 O 0.02887 0.53334 0.47328
 O345 O 0.01156 0.55883 0.50236
 O346 O 0.01186 0.55205 0.47127
 O347 O 0.02947 0.51552 0.52450
 O348 O 0.02144 0.48609 0.52367
 O349 O -0.01320 0.54009 0.54285
 O350 O -0.04341 0.53914 0.53521
 O351 O -0.01502 0.47147 0.47911
 O352 O 0.01484 0.47606 0.48259
 O353 O -0.03110 0.51460 0.45314
 O354 O -0.02604 0.54452 0.45860
 O355 O -0.05874 0.49839 0.49516
 O356 O -0.05493 0.50051 0.52525
 Zr357 Zr -0.03522 0.49807 0.50743
 O358 O -0.02079 0.51238 0.52451
 Zr359 Zr -0.03080 0.52620 0.47711
 O360 O -0.01629 0.54189 0.49296
 Zr361 Zr -0.00342 0.49509 0.48014
 O362 O 0.01242 0.50931 0.49608
 Zr363 Zr -0.02273 0.53775 0.51827
 O364 O -0.03880 0.52361 0.50236
 Zr365 Zr 0.00479 0.50657 0.52135
 O366 O -0.00981 0.49074 0.50558
 Zr367 Zr 0.00917 0.53488 0.49125
 O368 O -0.00516 0.52046 0.47376
 O369 O -0.02878 0.50089 0.48222
 O370 O 0.00280 0.53202 0.51655
 C371 C -0.02757 0.46527 0.48717
 C372 C -0.06433 0.50685 0.48261
 C373 C -0.02331 0.50187 0.44694
 C374 C 0.00272 0.56678 0.51346
 C375 C -0.00246 0.53145 0.55112
 C376 C 0.03781 0.52696 0.51694
 H377 H -0.02459 0.51023 0.53617
 H378 H 0.02421 0.50574 0.49436
 H379 H -0.03592 0.49381 0.47482
 H380 H -0.01806 0.55371 0.48994
 H381 H -0.04964 0.55313 0.50889
 H382 H -0.04505 0.55515 0.48083
 H383 H 0.02902 0.48610 0.51375
 H384 H 0.01284 0.47084 0.49370
 H385 H -0.04260 0.52976 0.54320
 H386 H -0.05942 0.51197 0.52409
 H387 H 0.03494 0.52274 0.47513
 H388 H 0.01748 0.50486 0.45738
 H389 H -0.02690 0.47503 0.52829
 H390 H -0.00798 0.49049 0.54669
 H391 H -0.01514 0.54166 0.45326
 H392 H 0.00247 0.56013 0.47206
 O393 O 0.51011 0.03983 0.51454
 O394 O 0.48163 0.03305 0.51658
 O395 O 0.53318 -0.00140 0.54122
 O396 O 0.53452 -0.02899 0.53863
 O397 O 0.55434 0.01579 0.49436
 O398 O 0.54706 0.01172 0.46563
 O399 O 0.48802 -0.04978 0.50051
 O400 O 0.49276 -0.04316 0.52930
 O401 O 0.46538 -0.01081 0.47778
 O402 O 0.47066 0.01965 0.47596
 O403 O 0.50690 -0.03290 0.45593
 O404 O 0.53729 -0.03072 0.45969
 O405 O 0.50802 -0.05226 0.48009
 O406 O 0.53944 -0.04520 0.48061
 O407 O 0.48676 -0.01282 0.45439
 O408 O 0.48831 0.01837 0.45774
 O409 O 0.46598 -0.02796 0.50048
 O410 O 0.47367 -0.02301 0.53043
 O411 O 0.53012 0.03848 0.49395
 O412 O 0.52704 0.02907 0.46452
 O413 O 0.55552 -0.00175 0.51676
 O414 O 0.54976 -0.03258 0.51592
 O415 O 0.51285 0.01861 0.54070
 O416 O 0.48262 0.01566 0.53582
 Zr417 Zr 0.50131 0.01530 0.51678
 O418 O 0.48481 -0.00069 0.50359
 Zr419 Zr 0.53164 -0.01322 0.51754
 O420 O 0.51609 -0.03092 0.50527
 Zr421 Zr 0.52946 0.01329 0.48563
 O422 O 0.51452 -0.00355 0.47145
 Zr423 Zr 0.49063 -0.02541 0.50983
 O424 O 0.50622 -0.00934 0.52430
 Zr425 Zr 0.48913 0.00065 0.47739
 O426 O 0.50396 0.01855 0.49046
 Zr427 Zr 0.51904 -0.02827 0.47906
 O428 O 0.53586 -0.01156 0.49139
 O429 O 0.52664 0.01150 0.51165
 O430 O 0.49362 -0.02407 0.48373
 C431 C 0.52133 0.04647 0.50509
 C432 C 0.52502 0.01083 0.54794
 C433 C 0.56203 0.00918 0.50691
 C434 C 0.49567 -0.05800 0.48881
 C435 C 0.45860 -0.02150 0.48767
 C436 C 0.49449 -0.02577 0.44854
 H437 H 0.47309 0.00228 0.50653
 H438 H 0.51675 -0.00211 0.45926
 H439 H 0.53381 0.01954 0.51794
 H440 H 0.51885 -0.04233 0.50903
 H441 H 0.49910 -0.03768 0.53859
 H442 H 0.52716 -0.03879 0.53673
 H443 H 0.49762 0.01584 0.44980
 H444 H 0.51614 0.03494 0.46580
 H445 H 0.46599 -0.01358 0.52815
 H446 H 0.48459 0.00576 0.54294
 H447 H 0.53626 -0.02090 0.45230
 H448 H 0.55209 0.00043 0.46618
 H449 H 0.48009 0.03624 0.50463
 H450 H 0.46368 0.01911 0.48629
 H451 H 0.55635 -0.03075 0.50548
 H452 H 0.53734 -0.05266 0.49027
 O453 O 0.50848 0.54175 0.00958
 O454 O 0.47941 0.53566 0.00818
 O455 O 0.52725 0.49666 0.03334
 O456 O 0.52963 0.46983 0.02736
 O457 O 0.55324 0.51813 -0.01042
 O458 O 0.54764 0.51789 -0.03975
 O459 O 0.48551 0.45439 -0.01601
 O460 O 0.48798 0.45814 0.01377
 O461 O 0.46513 0.49640 -0.03596
 O462 O 0.47110 0.52679 -0.03370
 O463 O 0.50729 0.47541 -0.05663
 O464 O 0.53801 0.47719 -0.05053
 O465 O 0.50725 0.45366 -0.03469
 O466 O 0.53810 0.45991 -0.03196
 O467 O 0.48778 0.49613 -0.05742
 O468 O 0.49017 0.52694 -0.05077
 O469 O 0.46381 0.47669 -0.01552
 O470 O 0.46894 0.47830 0.01526
 O471 O 0.53008 0.54171 -0.00934
 O472 O 0.52840 0.53606 -0.03980
 O473 O 0.55227 0.49891 0.01053
 O474 O 0.54590 0.46840 0.00582
 O475 O 0.50856 0.51819 0.03298
 O476 O 0.47873 0.51641 0.02592
 Zr477 Zr 0.49865 0.51742 0.00822
 O478 O 0.48280 0.50322 -0.00769
 Zr479 Zr 0.52814 0.48801 0.00823
 O480 O 0.51327 0.47214 -0.00710
 Zr481 Zr 0.52893 0.51776 -0.02075
 O482 O 0.51470 0.50301 -0.03775
 Zr483 Zr 0.48762 0.47775 -0.00391
 O484 O 0.50234 0.49191 0.01333
 Zr485 Zr 0.48903 0.50725 -0.03316
 O486 O 0.50329 0.52332 -0.01727
 Zr487 Zr 0.51825 0.47754 -0.03255
 O488 O 0.53439 0.49229 -0.01719
 O489 O 0.52420 0.51334 0.00465
 O490 O 0.49264 0.48185 -0.02932
 C491 C 0.52089 0.54880 0.00208
 C492 C 0.51929 0.50879 0.04050
 C493 C 0.55986 0.51024 0.00197
 C494 C 0.49423 0.44719 -0.02768
 C495 C 0.45755 0.48465 -0.02807
 C496 C 0.49541 0.48345 -0.06396
 H497 H 0.47095 0.50615 -0.00533
 H498 H 0.51781 0.50566 -0.04951
 H499 H 0.53113 0.52034 0.01234
 H500 H 0.51556 0.46033 -0.00441
 H501 H 0.49347 0.46263 0.02409
 H502 H 0.52152 0.46092 0.02436
 H503 H 0.49980 0.52480 -0.05841
 H504 H 0.51753 0.54201 -0.03861
 H505 H 0.46184 0.48830 0.01361
 H506 H 0.47976 0.50558 0.03174
 H507 H 0.53644 0.48681 -0.05810
 H508 H 0.55209 0.50636 -0.04046
 H509 H 0.47937 0.54048 -0.00328
 H510 H 0.46336 0.52530 -0.02404
 H511 H 0.55333 0.47118 -0.00380
 H512 H 0.53591 0.45224 -0.02249
 O513 O 0.77313 0.30370 0.50868
 O514 O 0.77231 0.29338 0.53764
 O515 O 0.79523 0.26315 0.48142
 O516 O 0.79029 0.23518 0.47936
 O517 O 0.75115 0.28629 0.46250
 O518 O 0.72143 0.28443 0.46986
 O519 O 0.74904 0.21334 0.51913
 O520 O 0.77919 0.21875 0.51596
 O521 O 0.73102 0.25290 0.54880
 O522 O 0.73370 0.28406 0.54703
 O523 O 0.70630 0.23972 0.50429
 O524 O 0.71192 0.24532 0.47343
 O525 O 0.72752 0.21723 0.50068
 O526 O 0.72854 0.22629 0.47097
 O527 O 0.70801 0.25647 0.52760
 O528 O 0.71452 0.28654 0.53035
 O529 O 0.74966 0.23177 0.54434
 O530 O 0.77804 0.23445 0.54083
 O531 O 0.75223 0.30655 0.48930
 O532 O 0.72292 0.30111 0.49054
 O533 O 0.77042 0.26549 0.45903
 O534 O 0.76861 0.23569 0.46172
 O535 O 0.79568 0.28106 0.50398
 O536 O 0.79118 0.27561 0.53395
 Zr537 Zr 0.77211 0.27830 0.51552
 O538 O 0.75769 0.26164 0.52999
 Zr539 Zr 0.77069 0.25289 0.48214
 O540 O 0.75564 0.23535 0.49491
 Zr541 Zr 0.74163 0.28261 0.48714
 O542 O 0.72561 0.26663 0.50064
 Zr543 Zr 0.76055 0.23705 0.52088
 O544 O 0.77713 0.25339 0.50800
 Zr545 Zr 0.73210 0.26701 0.52644
 O546 O 0.74658 0.28483 0.51326
 Zr547 Zr 0.73008 0.24194 0.49267
 O548 O 0.74500 0.25811 0.47794
 O549 O 0.76704 0.27751 0.48977
 O550 O 0.73507 0.24234 0.51846
 C551 C 0.76448 0.31236 0.49818
 C552 C 0.80236 0.27436 0.49077
 C553 C 0.76210 0.27813 0.45368
 C554 C 0.73587 0.20829 0.51110
 C555 C 0.73836 0.23929 0.55318
 C556 C 0.70020 0.24601 0.51801
 H557 H 0.76107 0.26246 0.54201
 H558 H 0.71379 0.26999 0.49881
 H559 H 0.77392 0.28543 0.48320
 H560 H 0.75794 0.22396 0.49055
 H561 H 0.78972 0.22481 0.51332
 H562 H 0.78635 0.22466 0.48447
 H563 H 0.70700 0.28682 0.52039
 H564 H 0.72338 0.30452 0.50260
 H565 H 0.78723 0.24240 0.53854
 H566 H 0.79859 0.26638 0.53011
 H567 H 0.70431 0.25446 0.47708
 H568 H 0.72213 0.27450 0.46232
 H569 H 0.76158 0.29968 0.53774
 H570 H 0.74350 0.28088 0.55398
 H571 H 0.75724 0.23719 0.45686
 H572 H 0.73829 0.21862 0.47111
 O573 O 0.77262 0.79910 -0.00456
 O574 O 0.76795 0.79502 0.02558
 O575 O 0.80069 0.75608 -0.01917
 O576 O 0.79780 0.72793 -0.01628
 O577 O 0.75949 0.77187 -0.04820
 O578 O 0.72898 0.76776 -0.04556
 O579 O 0.75339 0.71123 0.02184
 O580 O 0.78285 0.71893 0.02199
 O581 O 0.72772 0.75373 0.03927
 O582 O 0.72814 0.78369 0.03130
 O583 O 0.71140 0.72922 -0.00441
 O584 O 0.72069 0.72857 -0.03407
 O585 O 0.73468 0.70884 0.00018
 O586 O 0.74007 0.71246 -0.03101
 O587 O 0.70830 0.75013 0.01502
 O588 O 0.71219 0.78100 0.01137
 O589 O 0.74875 0.73483 0.04267
 O590 O 0.77696 0.73902 0.04226
 O591 O 0.75535 0.79588 -0.02737
 O592 O 0.72558 0.78821 -0.02788
 O593 O 0.78087 0.75336 -0.04420
 O594 O 0.77850 0.72343 -0.03647
 O595 O 0.79675 0.77851 -0.00163
 O596 O 0.78810 0.77816 0.02869
 Zr597 Zr 0.77196 0.77574 0.00754
 O598 O 0.75641 0.76118 0.02305
 Zr599 Zr 0.77710 0.74417 -0.01968
 O600 O 0.76168 0.72829 -0.00540
 Zr601 Zr 0.74590 0.77140 -0.02523
 O602 O 0.72910 0.75678 -0.01107
 Zr603 Zr 0.76247 0.73581 0.02005
 O604 O 0.77972 0.75053 0.00618
 Zr605 Zr 0.73137 0.76299 0.01473
 O606 O 0.74667 0.77921 0.00033
 Zr607 Zr 0.73645 0.73161 -0.01269
 O608 O 0.75215 0.74602 -0.02855
 O609 O 0.77067 0.76916 -0.01774
 O610 O 0.73735 0.73772 0.01293
 C611 C 0.76605 0.80425 -0.01845
 C612 C 0.80543 0.77001 -0.01246
 C613 C 0.77332 0.76469 -0.05276
 C614 C 0.74226 0.70315 0.01326
 C615 C 0.73554 0.74260 0.04783
 C616 C 0.70291 0.73721 0.00689
 H617 H 0.75778 0.76477 0.03498
 H618 H 0.71751 0.75844 -0.01523
 H619 H 0.77804 0.77631 -0.02460
 H620 H 0.76544 0.71659 -0.00682
 H621 H 0.79316 0.72518 0.01898
 H622 H 0.79383 0.71840 -0.00951
 H623 H 0.70591 0.77800 0.00098
 H624 H 0.72494 0.79469 -0.01716
 H625 H 0.78589 0.74712 0.03949
 H626 H 0.79713 0.76973 0.02730
 H627 H 0.71343 0.73857 -0.03477
 H628 H 0.73176 0.75676 -0.05068
 H629 H 0.75682 0.79993 0.02299
 H630 H 0.73739 0.78347 0.03966
 H631 H 0.76886 0.72434 -0.04432
 H632 H 0.74973 0.70559 -0.02738
 O633 O 1.04882 0.21739 0.26102
 O634 O 1.04195 0.21955 0.29041
 O635 O 1.00682 0.19345 0.23911
 O636 O 0.97906 0.19732 0.23749
 O637 O 1.02692 0.23785 0.21619
 O638 O 1.02587 0.26667 0.22276
 O639 O 0.95921 0.23880 0.28067
 O640 O 0.96446 0.20984 0.27789
 O641 O 1.00000 0.26031 0.30432
 O642 O 1.02992 0.26057 0.30022
 O643 O 0.98119 0.28131 0.25972
 O644 O 0.98321 0.27454 0.22972
 O645 O 0.95922 0.25858 0.26030
 O646 O 0.96656 0.25553 0.22909
 O647 O 0.99967 0.28214 0.28163
 O648 O 1.03150 0.27661 0.28054
 O649 O 0.98011 0.23995 0.30340
 O650 O 0.98378 0.20937 0.29809
 O651 O 1.04974 0.23735 0.24078
 O652 O 1.04283 0.26717 0.24303
 O653 O 1.00796 0.21655 0.21545
 O654 O 0.97724 0.21882 0.22060
 O655 O 1.02573 0.19395 0.26071
 O656 O 1.02305 0.20114 0.29047
 Zr657 Zr 1.02419 0.21848 0.27054
 O658 O 1.00849 0.23329 0.28600
 Zr659 Zr 0.99620 0.21747 0.23935
 O660 O 0.97888 0.23166 0.25373
 Zr661 Zr 1.02515 0.24752 0.24092
 O662 O 1.00885 0.26335 0.25472
 Zr663 Zr 0.98334 0.22840 0.27963
 O664 O 0.99898 0.21224 0.26529
 Zr665 Zr 1.01188 0.25872 0.28062
 O666 O 1.02946 0.24398 0.26688
 Zr667 Zr 0.98360 0.25711 0.24963
 O668 O 0.99995 0.24288 0.23397
 O669 O 1.02128 0.22221 0.24477
 O670 O 0.98668 0.25382 0.27549
 C671 C 1.05643 0.22546 0.24933
 C672 C 1.01812 0.18658 0.24836
 C673 C 1.01938 0.22568 0.20867
 C674 C 0.95221 0.25070 0.27252
 C675 C 0.98760 0.25227 0.31073
 C676 C 0.98818 0.28870 0.27237
 H677 H 1.01086 0.23095 0.29800
 H678 H 1.01134 0.27509 0.25192
 H679 H 1.02881 0.21506 0.23783
 H680 H 0.96721 0.22850 0.25077
 H681 H 0.96973 0.19994 0.27247
 H682 H 0.96898 0.20044 0.24416
 H683 H 1.02904 0.28477 0.27157
 H684 H 1.04851 0.26588 0.25408
 H685 H 0.99268 0.21206 0.30641
 H686 H 1.01224 0.19511 0.28920
 H687 H 0.99343 0.28153 0.23079
 H688 H 1.01476 0.26658 0.21710
 H689 H 1.04723 0.23074 0.28994
 H690 H 1.03048 0.24957 0.30574
 H691 H 0.97938 0.22908 0.21406
 H692 H 0.95843 0.24651 0.23145
 O693 O 0.70713 1.02888 0.75192
 O694 O 0.71577 1.02747 0.78103
 O695 O 0.75116 1.04774 0.72767
 O696 O 0.77835 1.04052 0.72571
 O697 O 0.72498 1.00563 0.70610
 O698 O 0.72359 0.97655 0.71281
 O699 O 0.79432 0.99694 0.76834
 O700 O 0.79319 1.02689 0.76452
 O701 O 0.75206 0.98276 0.79371
 O702 O 0.72153 0.98627 0.78974
 O703 O 0.76738 0.95813 0.74913
 O704 O 0.76316 0.96406 0.71828
 O705 O 0.79046 0.97695 0.74805
 O706 O 0.78311 0.98043 0.71703
 O707 O 0.75111 0.96118 0.77261
 O708 O 0.71904 0.96824 0.77086
 O709 O 0.77509 0.99942 0.79113
 O710 O 0.77478 1.03052 0.78603
 O711 O 0.70332 1.00842 0.73207
 O712 O 0.70674 0.97875 0.73295
 O713 O 0.74670 1.02411 0.70451
 O714 O 0.77692 1.01863 0.70854
 O715 O 0.73214 1.04962 0.74914
 O716 O 0.73636 1.04409 0.77898
 Zr717 Zr 0.73215 1.02575 0.76001
 O718 O 0.74667 1.00977 0.77514
 Zr719 Zr 0.75896 1.02258 0.72797
 O720 O 0.77492 1.00655 0.74165
 Zr721 Zr 0.72667 0.99607 0.73076
 O722 O 0.74112 0.97875 0.74441
 Zr723 Zr 0.77205 1.01119 0.76767
 O724 O 0.75780 1.02878 0.75390
 Zr725 Zr 0.73978 0.98485 0.77029
 O726 O 0.72370 1.00099 0.75681
 Zr727 Zr 0.76658 0.98182 0.73801
 O728 O 0.75188 0.99767 0.72282
 O729 O 0.73364 1.02086 0.73423
 O730 O 0.76494 0.98659 0.76378
 C731 C 0.69812 1.02095 0.74096
 C732 C 0.74024 1.05580 0.73658
 C733 C 0.73388 1.01649 0.69821
 C734 C 0.79869 0.98349 0.76042
 C735 C 0.76625 0.98849 0.79897
 C736 C 0.76183 0.95312 0.76345
 H737 H 0.74512 1.01278 0.78719
 H738 H 0.73717 0.96725 0.74209
 H739 H 0.72652 1.02846 0.72752
 H740 H 0.78679 1.00801 0.73821
 H741 H 0.78891 1.03754 0.75993
 H742 H 0.78834 1.03608 0.73159
 H743 H 0.72185 0.95832 0.76385
 H744 H 0.70295 0.97934 0.74487
 H745 H 0.76618 1.02892 0.79490
 H746 H 0.74792 1.04834 0.77721
 H747 H 0.75330 0.95711 0.72119
 H748 H 0.73432 0.97573 0.70649
 H749 H 0.70909 1.01703 0.78104
 H750 H 0.72389 0.99649 0.79647
 H751 H 0.77368 1.00821 0.70252
 H752 H 0.79253 0.98825 0.71913
 O753 O 0.75110 0.53786 0.22296
 O754 O 0.78082 0.53475 0.22753
 O755 O 0.73920 0.49386 0.19410
 O756 O 0.74096 0.46628 0.19705
 O757 O 0.70817 0.50895 0.23640
 O758 O 0.71116 0.50612 0.26645
 O759 O 0.78091 0.45113 0.24195
 O760 O 0.78108 0.45788 0.21292
 O761 O 0.79601 0.49379 0.26828
 O762 O 0.78713 0.52334 0.26827
 O763 O 0.75363 0.46791 0.28361
 O764 O 0.72405 0.46662 0.27429
 O765 O 0.75866 0.44763 0.25961
 O766 O 0.72770 0.45070 0.25470
 O767 O 0.77076 0.49030 0.28784
 O768 O 0.76693 0.52089 0.28327
 O769 O 0.79997 0.47453 0.24731
 O770 O 0.79829 0.47948 0.21608
 O771 O 0.72912 0.53463 0.24109
 O772 O 0.72758 0.52630 0.27018
 O773 O 0.71296 0.49093 0.21447
 O774 O 0.72204 0.46144 0.21649
 O775 O 0.75607 0.51653 0.19812
 O776 O 0.78506 0.51732 0.20764
 Zr777 Zr 0.76382 0.51480 0.22352
 O778 O 0.77979 0.50088 0.23929
 Zr779 Zr 0.73785 0.48270 0.21796
 O780 O 0.75279 0.46724 0.23321
 Zr781 Zr 0.73131 0.50982 0.24944
 O782 O 0.74577 0.49549 0.26622
 Zr783 Zr 0.77786 0.47543 0.23284
 O784 O 0.76336 0.48955 0.21570
 Zr785 Zr 0.77122 0.50243 0.26438
 O786 O 0.75646 0.51815 0.24893
 Zr787 Zr 0.74526 0.47026 0.25854
 O788 O 0.72900 0.48435 0.24300
 O789 O 0.73866 0.50791 0.22432
 O790 O 0.77050 0.47713 0.25807
 C791 C 0.73789 0.54327 0.23068
 C792 C 0.74649 0.50719 0.18892
 C793 C 0.70353 0.50106 0.22292
 C794 C 0.77232 0.44254 0.25252
 C795 C 0.80474 0.48246 0.26066
 C796 C 0.76343 0.47693 0.29284
 H797 H 0.79146 0.50499 0.23828
 H798 H 0.74138 0.49706 0.27782
 H799 H 0.73165 0.51482 0.21679
 H800 H 0.75190 0.45551 0.22926
 H801 H 0.77631 0.46299 0.20264
 H802 H 0.74868 0.45730 0.20059
 H803 H 0.75659 0.51780 0.28945
 H804 H 0.73801 0.53299 0.27129
 H805 H 0.80506 0.48895 0.22043
 H806 H 0.78631 0.50656 0.20149
 H807 H 0.72327 0.47632 0.28211
 H808 H 0.70714 0.49456 0.26451
 H809 H 0.77858 0.53913 0.23907
 H810 H 0.79532 0.52361 0.25885
 H811 H 0.71410 0.46221 0.22611
 H812 H 0.73135 0.44414 0.24468
 O813 O 0.49016 0.20570 0.71676
 O814 O 0.46058 0.21016 0.72059
 O815 O 0.50549 0.24742 0.68808
 O816 O 0.50437 0.27531 0.69050
 O817 O 0.53421 0.23290 0.73172
 O818 O 0.53051 0.23608 0.76129
 O819 O 0.46387 0.29382 0.73504
 O820 O 0.46425 0.28678 0.70599
 O821 O 0.44645 0.25218 0.76052
 O822 O 0.45424 0.22297 0.76180
 O823 O 0.48921 0.27774 0.77671
 O824 O 0.51955 0.27681 0.76822
 O825 O 0.48619 0.29721 0.75268
 O826 O 0.51701 0.29251 0.74850
 O827 O 0.47084 0.25641 0.78079
 O828 O 0.47456 0.22514 0.77689
 O829 O 0.44360 0.27104 0.73942
 O830 O 0.44630 0.26573 0.70827
 O831 O 0.51209 0.20818 0.73513
 O832 O 0.51251 0.21718 0.76471
 O833 O 0.53111 0.25039 0.70946
 O834 O 0.52305 0.28024 0.71045
 O835 O 0.48686 0.22622 0.69187
 O836 O 0.45756 0.22739 0.70075
 Zr837 Zr 0.47860 0.22922 0.71701
 O838 O 0.46305 0.24421 0.73241
 Zr839 Zr 0.50635 0.25969 0.71179
 O840 O 0.49172 0.27634 0.72654
 Zr841 Zr 0.51063 0.23325 0.74376
 O842 O 0.49667 0.24896 0.76008
 Zr843 Zr 0.46627 0.26931 0.72574
 O844 O 0.48054 0.25412 0.70898
 Zr845 Zr 0.47105 0.24302 0.75768
 O846 O 0.48517 0.22611 0.74260
 Zr847 Zr 0.49848 0.27387 0.75208
 O848 O 0.51435 0.25840 0.73712
 O849 O 0.50407 0.23482 0.71843
 O850 O 0.47300 0.26805 0.75111
 C851 C 0.50312 0.19988 0.72440
 C852 C 0.49746 0.23439 0.68286
 C853 C 0.53978 0.24024 0.71847
 C854 C 0.47266 0.30245 0.74559
 C855 C 0.43817 0.26337 0.75253
 C856 C 0.47842 0.26981 0.78566
 H857 H 0.45126 0.24050 0.73115
 H858 H 0.50067 0.24766 0.77182
 H859 H 0.51105 0.22745 0.71115
 H860 H 0.49319 0.28790 0.72252
 H861 H 0.46923 0.28142 0.69581
 H862 H 0.49716 0.28487 0.69379
 H863 H 0.48424 0.22872 0.78389
 H864 H 0.50194 0.21065 0.76504
 H865 H 0.43931 0.25629 0.71212
 H866 H 0.45741 0.23773 0.69401
 H867 H 0.51895 0.26809 0.77695
 H868 H 0.53453 0.24772 0.76023
 H869 H 0.46254 0.20570 0.73204
 H870 H 0.44702 0.22188 0.75167
 H871 H 0.53058 0.27960 0.72039
 H872 H 0.51392 0.29886 0.73830
 O873 O 0.21245 0.73863 0.51443
 O874 O 0.21574 0.73878 0.48475
 O875 O 0.25575 0.71067 0.53036
 O876 O 0.28368 0.71227 0.52713
 O877 O 0.24184 0.75511 0.55633
 O878 O 0.24587 0.78410 0.55108
 O879 O 0.29989 0.75252 0.48236
 O880 O 0.29280 0.72410 0.48499
 O881 O 0.25815 0.77778 0.46627
 O882 O 0.22827 0.77905 0.47501
 O883 O 0.28512 0.79589 0.50628
 O884 O 0.28671 0.79025 0.53643
 O885 O 0.30468 0.77140 0.50348
 O886 O 0.30128 0.76953 0.53527
 O887 O 0.26237 0.79904 0.48921
 O888 O 0.23132 0.79557 0.49417
 O889 O 0.27573 0.75560 0.46297
 O890 O 0.27048 0.72523 0.46830
 O891 O 0.21653 0.75796 0.53535
 O892 O 0.22590 0.78690 0.53368
 O893 O 0.26020 0.73340 0.55404
 O894 O 0.28988 0.73343 0.54401
 O895 O 0.23340 0.71272 0.51251
 O896 O 0.23309 0.71911 0.48231
 Zr897 Zr 0.23582 0.73685 0.50212
 O898 O 0.24995 0.75073 0.48465
 Zr899 Zr 0.26813 0.73368 0.52855
 O900 O 0.28398 0.74666 0.51182
 Zr901 Zr 0.24170 0.76569 0.53218
 O902 O 0.25672 0.78045 0.51631
 Zr903 Zr 0.27537 0.74401 0.48680
 O904 O 0.26104 0.72886 0.50323
 Zr905 Zr 0.24930 0.77625 0.49117
 O906 O 0.23312 0.76265 0.50719
 Zr907 Zr 0.28190 0.77233 0.51716
 O908 O 0.26724 0.75921 0.53502
 O909 O 0.24290 0.74025 0.52716
 O910 O 0.27458 0.76952 0.49205
 C911 C 0.20734 0.74741 0.52714
 C912 C 0.24228 0.70488 0.52351
 C913 C 0.24970 0.74251 0.56243
 C914 C 0.30917 0.76326 0.49012
 C915 C 0.26853 0.76891 0.45756
 C916 C 0.27632 0.80417 0.49566
 H917 H 0.24560 0.74873 0.47312
 H918 H 0.25560 0.79232 0.51966
 H919 H 0.23569 0.73380 0.53492
 H920 H 0.29567 0.74260 0.51291
 H921 H 0.28778 0.71460 0.49111
 H922 H 0.29279 0.71470 0.51900
 H923 H 0.23504 0.80288 0.50362
 H924 H 0.21862 0.78655 0.52353
 H925 H 0.26062 0.72867 0.46156
 H926 H 0.24338 0.71214 0.48235
 H927 H 0.27669 0.79752 0.53739
 H928 H 0.25761 0.78262 0.55496
 H929 H 0.21231 0.75066 0.48487
 H930 H 0.22794 0.76930 0.46724
 H931 H 0.28939 0.74351 0.55135
 H932 H 0.30807 0.75967 0.53194
 O933 O 0.27558 0.29580 1.00273
 O934 O 0.27614 0.28899 1.03212
 O935 O 0.29025 0.25036 0.97859
 O936 O 0.28195 0.22364 0.97852
 O937 O 0.24775 0.27720 0.96014
 O938 O 0.21936 0.28028 0.96917
 O939 O 0.24228 0.21129 1.02508
 O940 O 0.27165 0.21195 1.01983
 O941 O 0.22991 0.25503 1.05015
 O942 O 0.23491 0.28489 1.04542
 O943 O 0.20185 0.23928 1.00908
 O944 O 0.20481 0.24078 0.97843
 O945 O 0.22116 0.21428 1.00595
 O946 O 0.22104 0.22174 0.97517
 O947 O 0.20630 0.25829 1.03014
 O948 O 0.21651 0.28840 1.02810
 O949 O 0.24689 0.23227 1.04802
 O950 O 0.27702 0.23071 1.03985
 O951 O 0.25371 0.29962 0.98459
 O952 O 0.22352 0.29750 0.98895
 O953 O 0.26540 0.25489 0.95776
 O954 O 0.25857 0.22523 0.96351
 O955 O 0.29520 0.26982 0.99915
 O956 O 0.29157 0.26744 1.02976
 Zr957 Zr 0.27200 0.27165 1.01222
 O958 O 0.25642 0.25890 1.02938
 Zr959 Zr 0.26494 0.24375 0.98173
 O960 O 0.24960 0.22939 0.99768
 Zr961 Zr 0.24005 0.27704 0.98560
 O962 O 0.22325 0.26400 1.00124
 Zr963 Zr 0.25634 0.23336 1.02311
 O964 O 0.27340 0.24585 1.00695
 Zr965 Zr 0.23126 0.26641 1.02642
 O966 O 0.24719 0.28095 1.01095
 Zr967 Zr 0.22477 0.23825 0.99593
 O968 O 0.23985 0.25157 0.97865
 O969 O 0.26487 0.26917 0.98710
 O970 O 0.23134 0.24087 1.02129
 C971 C 0.26729 0.30452 0.99201
 C972 C 0.29974 0.26106 0.98616
 C973 C 0.25788 0.26773 0.95172
 C974 C 0.22906 0.20605 1.01733
 C975 C 0.23641 0.24164 1.05611
 C976 C 0.19713 0.24747 1.02229
 H977 H 0.26040 0.26096 1.04104
 H978 H 0.21172 0.26832 0.99968
 H979 H 0.27227 0.27552 0.97944
 H980 H 0.25053 0.21745 0.99449
 H981 H 0.28175 0.21555 1.01351
 H982 H 0.27774 0.21429 0.98540
 H983 H 0.20718 0.28735 1.01988
 H984 H 0.22629 0.30262 1.00005
 H985 H 0.27715 0.24041 1.04770
 H986 H 0.29560 0.25590 1.02770
 H987 H 0.19969 0.25192 0.98025
 H988 H 0.21730 0.26927 0.96373
 H989 H 0.26569 0.29564 1.03319
 H990 H 0.24564 0.28241 1.05121
 H991 H 0.24832 0.22914 0.95764
 H992 H 0.22948 0.21270 0.97597
 C993 C 0.29079 0.36318 0.82291
 C994 C 0.28757 0.36669 0.80570
 C995 C 0.29338 0.35505 0.79338
 C996 C 0.30142 0.34027 0.79825
 C997 C 0.30452 0.33703 0.81533
 C998 C 0.29920 0.34865 0.82756
 C999 C 0.29134 0.35830 0.77623
 C1000 C 0.28421 0.37318 0.77094
 C1001 C 0.27838 0.38526 0.78269
 C1002 C 0.27926 0.38155 0.80032
 C1003 C 0.27163 0.39270 0.81196
 C1004 C 0.26407 0.40735 0.80665
 C1005 C 0.26421 0.41171 0.78964
 C1006 C 0.27154 0.40087 0.77740
 C1007 C 0.27220 0.40639 0.76046
 C1008 C 0.26580 0.42197 0.75598
 C1009 C 0.25829 0.43241 0.76812
 C1010 C 0.25733 0.42707 0.78488
 H1011 H 0.28749 0.37165 0.83305
 H1012 H 0.30556 0.33133 0.78873
 H1013 H 0.30181 0.34659 0.84081
 H1014 H 0.29561 0.34937 0.76675
 H1015 H 0.28308 0.37468 0.75747
 H1016 H 0.27093 0.39027 0.82531
 H1017 H 0.25837 0.41555 0.81604
 H1018 H 0.27811 0.39926 0.75047
 H1019 H 0.26683 0.42591 0.74296
 H1020 H 0.25182 0.43522 0.79440
 C1021 C 0.28348 -0.16008 0.30449
 C1022 C 0.29307 -0.14673 0.29790
 C1023 C 0.31076 -0.14892 0.29683
 C1024 C 0.31844 -0.16338 0.30304
 C1025 C 0.30881 -0.17630 0.30989
 C1026 C 0.29126 -0.17460 0.31028
 C1027 C 0.32079 -0.13659 0.28972
 C1028 C 0.31369 -0.12218 0.28333
 C1029 C 0.29617 -0.11928 0.28419
 C1030 C 0.28578 -0.13140 0.29225
 C1031 C 0.26861 -0.12754 0.29484
 C1032 C 0.26179 -0.11243 0.28960
 C1033 C 0.27161 -0.10083 0.28100
 C1034 C 0.28882 -0.10436 0.27772
 C1035 C 0.29797 -0.09285 0.26792
 C1036 C 0.29061 -0.07813 0.26242
 C1037 C 0.27387 -0.07419 0.26643
 C1038 C 0.26436 -0.08568 0.27568
 H1039 H 0.26993 -0.15980 0.30507
 H1040 H 0.33203 -0.16450 0.30274
 H1041 H 0.28352 -0.18456 0.31522
 H1042 H 0.33433 -0.13814 0.28899
 H1043 H 0.32242 -0.11321 0.27833
 H1044 H 0.26018 -0.13575 0.30146
 H1045 H 0.24864 -0.10988 0.29217
 H1046 H 0.31079 -0.09495 0.26400
 H1047 H 0.29832 -0.06959 0.25523
 H1048 H 0.25133 -0.08289 0.27865
 C1049 C 0.82121 0.89180 0.83552
 C1050 C 0.81674 0.89111 0.81817
 C1051 C 0.82346 0.87788 0.80821
 C1052 C 0.83274 0.86505 0.81575
 C1053 C 0.83560 0.86510 0.83322
 C1054 C 0.83037 0.87890 0.84288
 C1055 C 0.82035 0.87713 0.79089
 C1056 C 0.81022 0.88893 0.78319
 C1057 C 0.80237 0.90180 0.79266
 C1058 C 0.80556 0.90280 0.81048
 C1059 C 0.79686 0.91494 0.82015
 C1060 C 0.78557 0.92580 0.81272
 C1061 C 0.78282 0.92545 0.79534
 C1062 C 0.79122 0.91355 0.78496
 C1063 C 0.78821 0.91411 0.76731
 C1064 C 0.77777 0.92629 0.76036
 C1065 C 0.76976 0.93813 0.77072
 C1066 C 0.77200 0.93731 0.78826
 H1067 H 0.81762 0.90197 0.84380
 H1068 H 0.83681 0.85445 0.80815
 H1069 H 0.83282 0.87931 0.85634
 H1070 H 0.82564 0.86714 0.78319
 H1071 H 0.80834 0.88724 0.76981
 H1072 H 0.79808 0.91603 0.83368
 H1073 H 0.77888 0.93461 0.82069
 H1074 H 0.79421 0.90576 0.75840
 H1075 H 0.77645 0.92683 0.74674
 H1076 H 0.76618 0.94665 0.79639
 C1077 C 0.43279 0.87821 0.29932
 C1078 C 0.44988 0.87398 0.29655
 C1079 C 0.46225 0.88595 0.30124
 C1080 C 0.45750 0.90181 0.30743
 C1081 C 0.44048 0.90596 0.30941
 C1082 C 0.42825 0.89390 0.30564
 C1083 C 0.47928 0.88208 0.29961
 C1084 C 0.48440 0.86654 0.29354
 C1085 C 0.47261 0.85428 0.28842
 C1086 C 0.45508 0.85829 0.28943
 C1087 C 0.44333 0.84666 0.28291
 C1088 C 0.44843 0.83147 0.27604
 C1089 C 0.46538 0.82705 0.27566
 C1090 C 0.47775 0.83824 0.28204
 C1091 C 0.49470 0.83272 0.28202
 C1092 C 0.49906 0.81688 0.27585
 C1093 C 0.48679 0.80608 0.26926
 C1094 C 0.46998 0.81134 0.26910
 H1095 H 0.42260 0.86963 0.29697
 H1096 H 0.46701 0.91106 0.31049
 H1097 H 0.41505 0.89670 0.30753
 H1098 H 0.48880 0.89117 0.30314
 H1099 H 0.49779 0.86468 0.29258
 H1100 H 0.43001 0.84909 0.28251
 H1101 H 0.43894 0.82300 0.27111
 H1102 H 0.50485 0.84014 0.28711
 H1103 H 0.51212 0.81303 0.27630
 H1104 H 0.46032 0.80292 0.26440
 C1105 C -0.07727 0.88859 0.80563
 C1106 C -0.06830 0.87533 0.81313
 C1107 C -0.06996 0.87326 0.83085
 C1108 C -0.08019 0.88406 0.84047
 C1109 C -0.08834 0.89761 0.83295
 C1110 C -0.08692 0.89958 0.81541
 C1111 C -0.06093 0.86080 0.83899
 C1112 C -0.04967 0.85078 0.83011
 C1113 C -0.04723 0.85259 0.81254
 C1114 C -0.05731 0.86448 0.80377
 C1115 C -0.05617 0.86501 0.78596
 C1116 C -0.04543 0.85444 0.77703
 C1117 C -0.03503 0.84327 0.78546
 C1118 C -0.03537 0.84257 0.80337
 C1119 C -0.02373 0.83189 0.81134
 C1120 C -0.01336 0.82130 0.80188
 C1121 C -0.01426 0.82085 0.78417
 C1122 C -0.02466 0.83239 0.77604
 H1123 H -0.07646 0.89137 0.79237
 H1124 H -0.08117 0.88248 0.85403
 H1125 H -0.09267 0.91012 0.80922
 H1126 H -0.06225 0.85909 0.85250
 H1127 H -0.04321 0.84147 0.83736
 H1128 H -0.06388 0.87309 0.77841
 H1129 H -0.04531 0.85500 0.76334
 H1130 H -0.02236 0.83135 0.82488
 H1131 H -0.00526 0.81276 0.80860
 H1132 H -0.02528 0.83239 0.76234
 C1133 C -0.07663 -0.10873 -0.09397
 C1134 C -0.07217 -0.11025 -0.07671
 C1135 C -0.08074 -0.12244 -0.06712
 C1136 C -0.09222 -0.13340 -0.07487
 C1137 C -0.09543 -0.13260 -0.09226
 C1138 C -0.08804 -0.11978 -0.10157
 C1139 C -0.07742 -0.12410 -0.04994
 C1140 C -0.06552 -0.11411 -0.04197
 C1141 C -0.05618 -0.10213 -0.05098
 C1142 C -0.05942 -0.10030 -0.06868
 C1143 C -0.04948 -0.08894 -0.07786
 C1144 C -0.03733 -0.07918 -0.06994
 C1145 C -0.03471 -0.08009 -0.05257
 C1146 C -0.04383 -0.09178 -0.04283
 C1147 C -0.04052 -0.09223 -0.02523
 C1148 C -0.02960 -0.08078 -0.01760
 C1149 C -0.02126 -0.06879 -0.02721
 C1150 C -0.02339 -0.06893 -0.04480
 H1151 H -0.07129 -0.09941 -0.10207
 H1152 H -0.09782 -0.14330 -0.06751
 H1153 H -0.09051 -0.11884 -0.11498
 H1154 H -0.08403 -0.13335 -0.04254
 H1155 H -0.06381 -0.11631 -0.02869
 H1156 H -0.05058 -0.08746 -0.09132
 H1157 H -0.02997 -0.07069 -0.07750
 H1158 H -0.04665 -0.10077 -0.01682
 H1159 H -0.02816 -0.08092 -0.00398
 H1160 H -0.01714 -0.05956 -0.05235
 C1161 C -0.04838 0.36875 0.43280
 C1162 C -0.04825 0.37477 0.44970
 C1163 C -0.05367 0.36375 0.46252
 C1164 C -0.05807 0.34716 0.45853
 C1165 C -0.05783 0.34134 0.44176
 C1166 C -0.05319 0.35239 0.42896
 C1167 C -0.05475 0.36935 0.47923
 C1168 C -0.05090 0.38578 0.48353
 C1169 C -0.04528 0.39721 0.47129
 C1170 C -0.04324 0.39139 0.45423
 C1171 C -0.03588 0.40224 0.44237
 C1172 C -0.03108 0.41835 0.44686
 C1173 C -0.03379 0.42448 0.46319
 C1174 C -0.04125 0.41417 0.47558
 C1175 C -0.04460 0.42139 0.49167
 C1176 C -0.04029 0.43795 0.49533
 C1177 C -0.03231 0.44781 0.48322
 C1178 C -0.02912 0.44098 0.46716
 H1179 H -0.04531 0.37649 0.42219
 H1180 H -0.06181 0.33874 0.46849
 H1181 H -0.05343 0.34839 0.41584
 H1182 H -0.05882 0.36098 0.48911
 H1183 H -0.05198 0.38902 0.49674
 H1184 H -0.03317 0.39847 0.42954
 H1185 H -0.02531 0.42616 0.43736
 H1186 H -0.05089 0.41470 0.50159
 H1187 H -0.04306 0.44302 0.50778
 H1188 H -0.02329 0.44865 0.45758
 C1189 C 0.48212 -0.16425 0.45353
 C1190 C 0.47208 -0.15051 0.45877
 C1191 C 0.45442 -0.15294 0.45954
 C1192 C 0.44720 -0.16809 0.45428
 C1193 C 0.45727 -0.18141 0.44870
 C1194 C 0.47478 -0.17943 0.44867
 C1195 C 0.44395 -0.14018 0.46539
 C1196 C 0.45059 -0.12504 0.47078
 C1197 C 0.46806 -0.12187 0.47011
 C1198 C 0.47891 -0.13453 0.46334
 C1199 C 0.49606 -0.13061 0.46086
 C1200 C 0.50244 -0.11492 0.46503
 C1201 C 0.49217 -0.10272 0.47239
 C1202 C 0.47495 -0.10621 0.47550
 C1203 C 0.46532 -0.09391 0.48406
 C1204 C 0.47230 -0.07857 0.48857
 C1205 C 0.48908 -0.07483 0.48473
 C1206 C 0.49901 -0.08700 0.47668
 H1207 H 0.49567 -0.16377 0.45331
 H1208 H 0.43363 -0.16945 0.45428
 H1209 H 0.48282 -0.18967 0.44469
 H1210 H 0.43043 -0.14194 0.46590
 H1211 H 0.44156 -0.11580 0.47483
 H1212 H 0.50481 -0.13927 0.45515
 H1213 H 0.51561 -0.11237 0.46260
 H1214 H 0.45242 -0.09582 0.48775
 H1215 H 0.46433 -0.06944 0.49486
 H1216 H 0.51209 -0.08431 0.47388
 C1217 C 0.42923 0.36050 -0.05798
 C1218 C 0.44663 0.36426 -0.05734
 C1219 C 0.45801 0.35204 -0.06366
 C1220 C 0.45212 0.33644 -0.06945
 C1221 C 0.43487 0.33280 -0.06951
 C1222 C 0.42353 0.34508 -0.06399
 C1223 C 0.47521 0.35542 -0.06412
 C1224 C 0.48145 0.37075 -0.05860
 C1225 C 0.47071 0.38326 -0.05196
 C1226 C 0.45308 0.37973 -0.05081
 C1227 C 0.44253 0.39161 -0.04281
 C1228 C 0.44885 0.40655 -0.03646
 C1229 C 0.46585 0.41046 -0.03808
 C1230 C 0.47703 0.39905 -0.04609
 C1231 C 0.49402 0.40410 -0.04806
 C1232 C 0.49959 0.41963 -0.04205
 C1233 C 0.48854 0.43057 -0.03371
 C1234 C 0.47167 0.42586 -0.03179
 H1235 H 0.41963 0.36929 -0.05423
 H1236 H 0.46094 0.32702 -0.07384
 H1237 H 0.41011 0.34270 -0.06436
 H1238 H 0.48398 0.34613 -0.06891
 H1239 H 0.49490 0.37224 -0.05930
 H1240 H 0.42929 0.38956 -0.04081
 H1241 H 0.44026 0.41521 -0.03029
 H1242 H 0.50326 0.39651 -0.05450
 H1243 H 0.51264 0.42306 -0.04390
 H1244 H 0.46290 0.43440 -0.02571
 C1245 C 0.77080 0.41467 0.45380
 C1246 C 0.78154 0.40297 0.46169
 C1247 C 0.79891 0.40688 0.46267
 C1248 C 0.80524 0.42137 0.45514
 C1249 C 0.79448 0.43265 0.44708
 C1250 C 0.77721 0.42923 0.44669
 C1251 C 0.80995 0.39627 0.47103
 C1252 C 0.80419 0.38175 0.47850
 C1253 C 0.78711 0.37699 0.47750
 C1254 C 0.77568 0.38755 0.46857
 C1255 C 0.75895 0.38205 0.46625
 C1256 C 0.75361 0.36669 0.47218
 C1257 C 0.76453 0.35639 0.48109
 C1258 C 0.78124 0.36163 0.48446
 C1259 C 0.79140 0.35112 0.49452
 C1260 C 0.78560 0.33555 0.49977
 C1261 C 0.76956 0.32988 0.49515
 C1262 C 0.75890 0.34064 0.48626
 H1263 H 0.75736 0.41310 0.45313
 H1264 H 0.81865 0.42382 0.45543
 H1265 H 0.76861 0.43792 0.44083
 H1266 H 0.82325 0.39922 0.47182
 H1267 H 0.81363 0.37417 0.48445
 H1268 H 0.74977 0.38904 0.45926
 H1269 H 0.74079 0.36277 0.46964
 H1270 H 0.80389 0.35454 0.49854
 H1271 H 0.79397 0.32769 0.50699
 H1272 H 0.74629 0.33658 0.48297
 C1273 C 0.81919 0.87002 -0.09157
 C1274 C 0.81569 0.86994 -0.07397
 C1275 C 0.82330 0.88251 -0.06379
 C1276 C 0.83313 0.89506 -0.07113
 C1277 C 0.83572 0.89543 -0.08864
 C1278 C 0.82896 0.88263 -0.09872
 C1279 C 0.82086 0.88272 -0.04635
 C1280 C 0.81085 0.87083 -0.03864
 C1281 C 0.80259 0.85826 -0.04815
 C1282 C 0.80491 0.85792 -0.06614
 C1283 C 0.79608 0.84583 -0.07574
 C1284 C 0.78569 0.83424 -0.06807
 C1285 C 0.78384 0.83394 -0.05057
 C1286 C 0.79213 0.84598 -0.04029
 C1287 C 0.78993 0.84486 -0.02253
 C1288 C 0.78070 0.83183 -0.01542
 C1289 C 0.77289 0.81979 -0.02570
 C1290 C 0.77413 0.82126 -0.04330
 H1291 H 0.81459 0.86057 -0.10019
 H1292 H 0.83833 0.90494 -0.06324
 H1293 H 0.83109 0.88256 -0.11223
 H1294 H 0.82673 0.89227 -0.03852
 H1295 H 0.80964 0.87203 -0.02513
 H1296 H 0.79669 0.84511 -0.08932
 H1297 H 0.77908 0.82529 -0.07594
 H1298 H 0.79574 0.85339 -0.01369
 H1299 H 0.78006 0.83089 -0.00178
 H1300 H 0.76844 0.81181 -0.05141
 C1301 C 0.80090 0.28159 0.34732
 C1302 C 0.79561 0.29298 0.36012
 C1303 C 0.79666 0.31027 0.35658
 C1304 C 0.80353 0.31575 0.34126
 C1305 C 0.80902 0.30430 0.32891
 C1306 C 0.80743 0.28721 0.33201
 C1307 C 0.79093 0.32204 0.36836
 C1308 C 0.78412 0.31709 0.38367
 C1309 C 0.78313 0.30008 0.38804
 C1310 C 0.78935 0.28784 0.37623
 C1311 C 0.78960 0.27094 0.38111
 C1312 C 0.78405 0.26612 0.39695
 C1313 C 0.77767 0.27781 0.40844
 C1314 C 0.77665 0.29490 0.40406
 C1315 C 0.76925 0.30604 0.41599
 C1316 C 0.76399 0.30052 0.43186
 C1317 C 0.76598 0.28379 0.43638
 C1318 C 0.77255 0.27247 0.42446
 H1319 H 0.79993 0.26825 0.34859
 H1320 H 0.80470 0.32902 0.33895
 H1321 H 0.81125 0.27816 0.32249
 H1322 H 0.79169 0.33527 0.36570
 H1323 H 0.78019 0.32703 0.39207
 H1324 H 0.79454 0.26110 0.37317
 H1325 H 0.78482 0.25303 0.40025
 H1326 H 0.76729 0.31909 0.41348
 H1327 H 0.75880 0.30949 0.44080
 H1328 H 0.77382 0.25941 0.42773
 C1329 C 0.80425 0.83416 -0.13491
 C1330 C 0.81183 0.82452 -0.12210
 C1331 C 0.82962 0.82522 -0.12058
 C1332 C 0.83927 0.83465 -0.13188
 C1333 C 0.83159 0.84318 -0.14516
 C1334 C 0.81399 0.84317 -0.14628
 C1335 C 0.83776 0.81604 -0.10818
 C1336 C 0.82878 0.80547 -0.09772
 C1337 C 0.81116 0.80365 -0.09927
 C1338 C 0.80246 0.81382 -0.11118
 C1339 C 0.78471 0.81281 -0.11188
 C1340 C 0.77576 0.80227 -0.10135
 C1341 C 0.78408 0.79208 -0.08989
 C1342 C 0.80191 0.79220 -0.08908
 C1343 C 0.80974 0.78074 -0.07811
 C1344 C 0.80023 0.77071 -0.06746
 C1345 C 0.78261 0.77178 -0.06721
 C1346 C 0.77460 0.78216 -0.07884
 H1347 H 0.79088 0.83452 -0.13701
 H1348 H 0.85286 0.83471 -0.13093
 H1349 H 0.80772 0.84954 -0.15650
 H1350 H 0.85131 0.81675 -0.10679
 H1351 H 0.83607 0.79895 -0.08842
 H1352 H 0.77722 0.82028 -0.12023
 H1353 H 0.76214 0.80222 -0.10209
 H1354 H 0.82320 0.77929 -0.07732
 H1355 H 0.80684 0.76281 -0.05864
 H1356 H 0.76098 0.78302 -0.07885
 C1357 C 0.30311 0.46971 0.90347
 C1358 C 0.29523 0.45997 0.89069
 C1359 C 0.29353 0.44259 0.89350
 C1360 C 0.30041 0.43527 0.90797
 C1361 C 0.30846 0.44503 0.92035
 C1362 C 0.30948 0.46234 0.91806
 C1363 C 0.28502 0.43253 0.88183
 C1364 C 0.27778 0.43937 0.86754
 C1365 C 0.27924 0.45657 0.86406
 C1366 C 0.28884 0.46687 0.87536
 C1367 C 0.29214 0.48352 0.87068
 C1368 C 0.28605 0.48998 0.85562
 C1369 C 0.27585 0.48036 0.84497
 C1370 C 0.27186 0.46369 0.84933
 C1371 C 0.26040 0.45487 0.83890
 C1372 C 0.25393 0.46202 0.82432
 C1373 C 0.25874 0.47810 0.81941
 C1374 C 0.26962 0.48729 0.82993
 H1375 H 0.30419 0.48310 0.90275
 H1376 H 0.29959 0.42186 0.90955
 H1377 H 0.31532 0.47020 0.92762
 H1378 H 0.28379 0.41921 0.88385
 H1379 H 0.27164 0.43068 0.85907
 H1380 H 0.29999 0.49174 0.87815
 H1381 H 0.28920 0.50272 0.85238
 H1382 H 0.25587 0.44256 0.84184
 H1383 H 0.24525 0.45472 0.81672
 H1384 H 0.27318 0.49987 0.82647
 C1385 C 0.30460 -0.02972 0.40626
 C1386 C 0.29746 -0.03993 0.39341
 C1387 C 0.29585 -0.05724 0.39666
 C1388 C 0.30236 -0.06409 0.41152
 C1389 C 0.31019 -0.05394 0.42369
 C1390 C 0.31081 -0.03667 0.42113
 C1391 C 0.28813 -0.06778 0.38490
 C1392 C 0.28195 -0.06157 0.36986
 C1393 C 0.28364 -0.04453 0.36575
 C1394 C 0.29201 -0.03363 0.37746
 C1395 C 0.29525 -0.01702 0.37252
 C1396 C 0.29053 -0.01128 0.35669
 C1397 C 0.28186 -0.02161 0.34536
 C1398 C 0.27780 -0.03820 0.34999
 C1399 C 0.26802 -0.04783 0.33861
 C1400 C 0.26333 -0.04160 0.32299
 C1401 C 0.26813 -0.02553 0.31803
 C1402 C 0.27729 -0.01549 0.32937
 H1403 H 0.30553 -0.01635 0.40525
 H1404 H 0.30186 -0.07748 0.41335
 H1405 H 0.31654 -0.02856 0.43056
 H1406 H 0.28691 -0.08103 0.38732
 H1407 H 0.27653 -0.07069 0.36138
 H1408 H 0.30205 -0.00829 0.38041
 H1409 H 0.29364 0.00144 0.35330
 H1410 H 0.26353 -0.06018 0.34145
 H1411 H 0.25611 -0.04965 0.31462
 H1412 H 0.28082 -0.00294 0.32579
 C1413 C -0.08926 -0.06971 -0.11429
 C1414 C -0.07211 -0.06494 -0.11536
 C1415 C -0.06266 -0.07106 -0.12932
 C1416 C -0.07049 -0.08022 -0.14228
 C1417 C -0.08774 -0.08363 -0.14168
 C1418 C -0.09691 -0.07884 -0.12733
 C1419 C -0.04557 -0.06748 -0.13067
 C1420 C -0.03754 -0.05773 -0.11857
 C1421 C -0.04640 -0.05081 -0.10470
 C1422 C -0.06405 -0.05422 -0.10324
 C1423 C -0.07315 -0.04637 -0.09006
 C1424 C -0.06524 -0.03595 -0.07842
 C1425 C -0.04794 -0.03331 -0.07906
 C1426 C -0.03821 -0.04061 -0.09222
 C1427 C -0.02057 -0.03791 -0.09192
 C1428 C -0.01299 -0.02903 -0.07869
 C1429 C -0.02269 -0.02216 -0.06561
 C1430 C -0.04022 -0.02389 -0.06617
 H1431 H -0.09715 -0.06647 -0.10366
 H1432 H -0.06333 -0.08384 -0.15341
 H1433 H -0.11020 -0.08165 -0.12657
 H1434 H -0.03832 -0.07219 -0.14132
 H1435 H -0.02437 -0.05547 -0.12076
 H1436 H -0.08656 -0.04771 -0.08858
 H1437 H -0.07275 -0.03004 -0.06865
 H1438 H -0.01213 -0.04313 -0.10121
 H1439 H 0.00060 -0.02799 -0.07840
 H1440 H -0.04781 -0.01893 -0.05588
 C1441 C -0.03582 0.44157 0.35144
 C1442 C -0.04579 0.45085 0.36302
 C1443 C -0.06339 0.45144 0.36011
 C1444 C -0.07070 0.44196 0.34700
 C1445 C -0.06069 0.43251 0.33586
 C1446 C -0.04318 0.43271 0.33805
 C1447 C -0.07365 0.46140 0.37036
 C1448 C -0.06682 0.47100 0.38336
 C1449 C -0.04946 0.47045 0.38711
 C1450 C -0.03891 0.45961 0.37729
 C1451 C -0.02207 0.45733 0.38250
 C1452 C -0.01577 0.46532 0.39686
 C1453 C -0.02572 0.47648 0.40613
 C1454 C -0.04246 0.47977 0.40092
 C1455 C -0.05155 0.49224 0.40980
 C1456 C -0.04479 0.50005 0.42409
 C1457 C -0.02883 0.49566 0.43013
 C1458 C -0.01917 0.48413 0.42082
 H1459 H -0.02228 0.44124 0.35216
 H1460 H -0.08425 0.44188 0.34553
 H1461 H -0.03511 0.42587 0.32938
 H1462 H -0.08711 0.46190 0.36821
 H1463 H -0.07566 0.47815 0.39082
 H1464 H -0.01365 0.44875 0.37618
 H1465 H -0.00295 0.46276 0.40072
 H1466 H -0.06388 0.49633 0.40596
 H1467 H -0.05246 0.50912 0.43080
 H1468 H -0.00666 0.48089 0.42516
 C1469 C 0.45183 -0.04434 0.34475
 C1470 C 0.45677 -0.05372 0.35898
 C1471 C 0.45571 -0.07137 0.35765
 C1472 C 0.44887 -0.07907 0.34315
 C1473 C 0.44342 -0.06955 0.32942
 C1474 C 0.44538 -0.05216 0.33025
 C1475 C 0.46133 -0.08128 0.37088
 C1476 C 0.46817 -0.07412 0.38539
 C1477 C 0.46921 -0.05661 0.38752
 C1478 C 0.46280 -0.04625 0.37438
 C1479 C 0.46213 -0.02882 0.37730
 C1480 C 0.46775 -0.02172 0.39240
 C1481 C 0.47477 -0.03158 0.40500
 C1482 C 0.47601 -0.04912 0.40257
 C1483 C 0.48420 -0.05843 0.41526
 C1484 C 0.49034 -0.05070 0.42989
 C1485 C 0.48845 -0.03348 0.43255
 C1486 C 0.48062 -0.02397 0.42003
 H1487 H 0.45304 -0.03095 0.34430
 H1488 H 0.44752 -0.09254 0.34267
 H1489 H 0.44174 -0.04454 0.31963
 H1490 H 0.46052 -0.09478 0.36997
 H1491 H 0.47199 -0.08271 0.39504
 H1492 H 0.45676 -0.02032 0.36832
 H1493 H 0.46672 -0.00831 0.39416
 H1494 H 0.48638 -0.07168 0.41414
 H1495 H 0.49639 -0.05835 0.43933
 H1496 H 0.47932 -0.01059 0.42188
 C1497 C 0.44418 0.47010 -0.16460
 C1498 C 0.45171 0.46013 -0.15199
 C1499 C 0.45221 0.44262 -0.15487
 C1500 C 0.44473 0.43550 -0.16931
 C1501 C 0.43725 0.44552 -0.18163
 C1502 C 0.43718 0.46288 -0.17916
 C1503 C 0.46018 0.43225 -0.14333
 C1504 C 0.46800 0.43884 -0.12908
 C1505 C 0.46778 0.45615 -0.12550
 C1506 C 0.45888 0.46689 -0.13676
 C1507 C 0.45707 0.48390 -0.13217
 C1508 C 0.46381 0.49023 -0.11719
 C1509 C 0.47313 0.48007 -0.10646
 C1510 C 0.47568 0.46300 -0.11072
 C1511 C 0.48614 0.45350 -0.10002
 C1512 C 0.49294 0.46041 -0.08529
 C1513 C 0.48958 0.47701 -0.08060
 C1514 C 0.47979 0.48684 -0.09139
 H1515 H 0.44385 0.48353 -0.16379
 H1516 H 0.44473 0.42204 -0.17098
 H1517 H 0.43172 0.47092 -0.18861
 H1518 H 0.46051 0.41884 -0.14542
 H1519 H 0.47367 0.42989 -0.12076
 H1520 H 0.44996 0.49257 -0.13963
 H1521 H 0.46179 0.50328 -0.11403
 H1522 H 0.48950 0.44071 -0.10275
 H1523 H 0.50052 0.45251 -0.07728
 H1524 H 0.47729 0.49977 -0.08802
 C1525 C 0.46045 0.77053 0.40993
 C1526 C 0.46581 0.78022 0.39606
 C1527 C 0.46677 0.79777 0.39845
 C1528 C 0.46154 0.80522 0.41369
 C1529 C 0.45581 0.79548 0.42713
 C1530 C 0.45559 0.77808 0.42518
 C1531 C 0.47276 0.80789 0.38556
 C1532 C 0.47801 0.80100 0.37030
 C1533 C 0.47705 0.78364 0.36711
 C1534 C 0.47027 0.77315 0.37997
 C1535 C 0.46766 0.75608 0.37611
 C1536 C 0.47162 0.74945 0.36030
 C1537 C 0.47883 0.75938 0.34787
 C1538 C 0.48211 0.77651 0.35125
 C1539 C 0.49041 0.78577 0.33860
 C1540 C 0.49450 0.77851 0.32304
 C1541 C 0.49045 0.76182 0.31948
 C1542 C 0.48271 0.75228 0.33201
 H1543 H 0.46008 0.75708 0.40952
 H1544 H 0.46166 0.81871 0.41502
 H1545 H 0.45149 0.77030 0.43551
 H1546 H 0.47346 0.82132 0.38732
 H1547 H 0.48222 0.80977 0.36098
 H1548 H 0.46198 0.74758 0.38489
 H1549 H 0.46907 0.73635 0.35780
 H1550 H 0.49415 0.79860 0.34037
 H1551 H 0.50058 0.78616 0.31361
 H1552 H 0.47978 0.73926 0.32946
 C1553 C -0.09562 0.82799 0.86019
 C1554 C -0.07831 0.82403 0.86201
 C1555 C -0.06932 0.83200 0.87528
 C1556 C -0.07762 0.84241 0.88688
 C1557 C -0.09495 0.84530 0.88556
 C1558 C -0.10378 0.83836 0.87192
 C1559 C -0.05213 0.82926 0.87723
 C1560 C -0.04354 0.81857 0.86640
 C1561 C -0.05194 0.80983 0.85331
 C1562 C -0.06969 0.81234 0.85130
 C1563 C -0.07832 0.80262 0.83914
 C1564 C -0.06988 0.79123 0.82890
 C1565 C -0.05250 0.78940 0.82997
 C1566 C -0.04321 0.79857 0.84221
 C1567 C -0.02553 0.79627 0.84257
 C1568 C -0.01749 0.78591 0.83080
 C1569 C -0.02674 0.77736 0.81838
 C1570 C -0.04431 0.77874 0.81844
 H1571 H -0.10323 0.82322 0.84996
 H1572 H -0.07070 0.84766 0.89748
 H1573 H -0.11713 0.84069 0.87061
 H1574 H -0.04521 0.83544 0.88733
 H1575 H -0.03032 0.81713 0.86894
 H1576 H -0.09176 0.80317 0.83750
 H1577 H -0.07702 0.78382 0.81995
 H1578 H -0.01740 0.80279 0.85130
 H1579 H -0.00388 0.78515 0.83098
 H1580 H -0.05164 0.77238 0.80875
 C1581 C 0.34873 0.79552 0.28436
 C1582 C 0.36272 0.79095 0.29442
 C1583 C 0.36077 0.79186 0.31223
 C1584 C 0.34578 0.79784 0.31948
 C1585 C 0.33218 0.80257 0.30934
 C1586 C 0.33375 0.80116 0.29174
 C1587 C 0.37381 0.78686 0.32279
 C1588 C 0.38871 0.78061 0.31613
 C1589 C 0.39136 0.77945 0.29850
 C1590 C 0.37843 0.78536 0.28748
 C1591 C 0.38181 0.78581 0.26995
 C1592 C 0.39710 0.78034 0.26337
 C1593 C 0.40947 0.77373 0.27386
 C1594 C 0.40666 0.77289 0.29154
 C1595 C 0.41920 0.76523 0.30152
 C1596 C 0.43397 0.75908 0.29427
 C1597 C 0.43692 0.76040 0.27688
 C1598 C 0.42462 0.76783 0.26673
 H1599 H 0.34884 0.79460 0.27076
 H1600 H 0.34472 0.79895 0.33311
 H1601 H 0.32330 0.80449 0.28367
 H1602 H 0.37244 0.78765 0.33642
 H1603 H 0.39816 0.77722 0.32523
 H1604 H 0.37300 0.79077 0.26096
 H1605 H 0.39917 0.78110 0.24985
 H1606 H 0.41786 0.76342 0.31492
 H1607 H 0.44325 0.75339 0.30243
 H1608 H 0.42670 0.76872 0.25322
 C1609 C -0.13665 0.81284 0.82242
 C1610 C -0.12223 0.81993 0.81485
 C1611 C -0.11978 0.83741 0.81684
 C1612 C -0.13132 0.84719 0.82613
 C1613 C -0.14568 0.83996 0.83326
 C1614 C -0.14814 0.82271 0.83133
 C1615 C -0.10598 0.84510 0.80933
 C1616 C -0.09486 0.83596 0.79933
 C1617 C -0.09689 0.81860 0.79669
 C1618 C -0.11041 0.81034 0.80511
 C1619 C -0.11151 0.79275 0.80369
 C1620 C -0.09976 0.78355 0.79450
 C1621 C -0.08666 0.79145 0.78605
 C1622 C -0.08549 0.80912 0.78638
 C1623 C -0.07292 0.81656 0.77630
 C1624 C -0.06107 0.80683 0.76770
 C1625 C -0.06118 0.78938 0.76893
 C1626 C -0.07438 0.78174 0.77770
 H1627 H -0.13979 0.79981 0.82126
 H1628 H -0.12938 0.86054 0.82752
 H1629 H -0.15932 0.81682 0.83633
 H1630 H -0.10389 0.85840 0.81098
 H1631 H -0.08448 0.84282 0.79411
 H1632 H -0.12101 0.78557 0.81002
 H1633 H -0.10082 0.77005 0.79422
 H1634 H -0.07194 0.82988 0.77477
 H1635 H -0.05130 0.81311 0.76067
 H1636 H -0.07483 0.76824 0.77846
 C1637 C 0.90819 0.29198 0.45538
 C1638 C 0.89326 0.30123 0.45823
 C1639 C 0.89389 0.31874 0.45576
 C1640 C 0.90844 0.32629 0.44933
 C1641 C 0.92287 0.31683 0.44581
 C1642 C 0.92274 0.29972 0.44938
 C1643 C 0.87991 0.32862 0.45941
 C1644 C 0.86527 0.32157 0.46566
 C1645 C 0.86384 0.30417 0.46800
 C1646 C 0.87778 0.29375 0.46349
 C1647 C 0.87555 0.27624 0.46375
 C1648 C 0.86028 0.26916 0.46848
 C1649 C 0.84688 0.27916 0.47382
 C1650 C 0.84870 0.29681 0.47418
 C1651 C 0.83534 0.30641 0.48096
 C1652 C 0.82062 0.29884 0.48646
 C1653 C 0.81852 0.28152 0.48531
 C1654 C 0.83167 0.27167 0.47891
 H1655 H 0.90909 0.27880 0.45787
 H1656 H 0.90841 0.33954 0.44666
 H1657 H 0.93389 0.29224 0.44714
 H1658 H 0.88029 0.34200 0.45747
 H1659 H 0.85499 0.33009 0.46787
 H1660 H 0.88522 0.26765 0.45970
 H1661 H 0.85904 0.25567 0.46815
 H1662 H 0.83600 0.31977 0.48259
 H1663 H 0.81062 0.30667 0.49142
 H1664 H 0.83018 0.25821 0.47827
 C1665 C 0.85811 0.84496 -0.07464
 C1666 C 0.86087 0.82819 -0.06979
 C1667 C 0.87427 0.81940 -0.07766
 C1668 C 0.88535 0.82764 -0.08855
 C1669 C 0.88320 0.84462 -0.09213
 C1670 C 0.86915 0.85297 -0.08562
 C1671 C 0.87686 0.80256 -0.07430
 C1672 C 0.86653 0.79417 -0.06308
 C1673 C 0.85346 0.80249 -0.05432
 C1674 C 0.85090 0.81991 -0.05739
 C1675 C 0.83899 0.82865 -0.04747
 C1676 C 0.82952 0.82058 -0.03532
 C1677 C 0.83110 0.80345 -0.03292
 C1678 C 0.84300 0.79407 -0.04241
 C1679 C 0.84356 0.77657 -0.03985
 C1680 C 0.83226 0.76878 -0.02893
 C1681 C 0.82031 0.77814 -0.01993
 C1682 C 0.82028 0.79556 -0.02152
 H1683 H 0.84756 0.85220 -0.07017
 H1684 H 0.89613 0.82100 -0.09365
 H1685 H 0.86694 0.86584 -0.08882
 H1686 H 0.88704 0.79576 -0.08038
 H1687 H 0.86953 0.78122 -0.06112
 H1688 H 0.83707 0.84192 -0.04840
 H1689 H 0.82068 0.82782 -0.02785
 H1690 H 0.85194 0.76841 -0.04674
 H1691 H 0.83232 0.75528 -0.02818
 H1692 H 0.81078 0.80293 -0.01499
 C1693 C -0.11555 -0.08735 -0.07156
 C1694 C -0.11540 -0.07032 -0.06656
 C1695 C -0.12782 -0.05972 -0.07355
 C1696 C -0.14063 -0.06633 -0.08388
 C1697 C -0.14122 -0.08346 -0.08768
 C1698 C -0.12829 -0.09373 -0.08187
 C1699 C -0.12766 -0.04266 -0.06985
 C1700 C -0.11550 -0.03582 -0.05923
 C1701 C -0.10322 -0.04590 -0.05145
 C1702 C -0.10344 -0.06350 -0.05487
 C1703 C -0.09212 -0.07379 -0.04603
 C1704 C -0.08044 -0.06710 -0.03486
 C1705 C -0.07924 -0.04991 -0.03228
 C1706 C -0.09070 -0.03901 -0.04035
 C1707 C -0.08869 -0.02162 -0.03740
 C1708 C -0.07536 -0.01545 -0.02765
 C1709 C -0.06387 -0.02633 -0.02013
 C1710 C -0.06624 -0.04358 -0.02207
 H1711 H -0.10605 -0.09609 -0.06771
 H1712 H -0.15054 -0.05824 -0.08843
 H1713 H -0.12826 -0.10685 -0.08511
 H1714 H -0.13707 -0.03448 -0.07522
 H1715 H -0.11638 -0.02256 -0.05703
 H1716 H -0.09223 -0.08720 -0.04716
 H1717 H -0.07210 -0.07549 -0.02827
 H1718 H -0.09668 -0.01239 -0.04307
 H1719 H -0.07375 -0.00205 -0.02642
 H1720 H -0.05726 -0.05213 -0.01655
 C1721 C -0.16865 0.46546 0.47102
 C1722 C -0.15526 0.47104 0.46068
 C1723 C -0.15736 0.46981 0.44292
 C1724 C -0.17165 0.46210 0.43598
 C1725 C -0.18451 0.45606 0.44640
 C1726 C -0.18303 0.45821 0.46394
 C1727 C -0.14510 0.47608 0.43211
 C1728 C -0.13070 0.48361 0.43850
 C1729 C -0.12770 0.48465 0.45608
 C1730 C -0.13990 0.47774 0.46733
 C1731 C -0.13602 0.47708 0.48473
 C1732 C -0.12069 0.48283 0.49092
 C1733 C -0.10890 0.49003 0.48017
 C1734 C -0.11251 0.49168 0.46271
 C1735 C -0.10068 0.50022 0.45260
 C1736 C -0.08543 0.50575 0.45933
 C1737 C -0.08138 0.50291 0.47628
 C1738 C -0.09334 0.49535 0.48673
 H1739 H -0.16852 0.46677 0.48459
 H1740 H -0.17266 0.46056 0.42239
 H1741 H -0.19302 0.45408 0.47221
 H1742 H -0.14667 0.47518 0.41851
 H1743 H -0.12176 0.48784 0.42925
 H1744 H -0.14429 0.47147 0.49384
 H1745 H -0.11804 0.48160 0.50429
 H1746 H -0.10286 0.50294 0.43948
 H1747 H -0.07654 0.51181 0.45104
 H1748 H -0.09047 0.49345 0.49998
 C1749 C 0.36328 -0.04680 0.43317
 C1750 C 0.36876 -0.04534 0.45014
 C1751 C 0.35725 -0.04972 0.46307
 C1752 C 0.34072 -0.05452 0.45903
 C1753 C 0.33548 -0.05567 0.44216
 C1754 C 0.34698 -0.05195 0.42932
 C1755 C 0.36233 -0.04944 0.47993
 C1756 C 0.37873 -0.04524 0.48430
 C1757 C 0.39064 -0.04066 0.47193
 C1758 C 0.38534 -0.04002 0.45466
 C1759 C 0.39666 -0.03377 0.44251
 C1760 C 0.41276 -0.02876 0.44694
 C1761 C 0.41839 -0.03009 0.46354
 C1762 C 0.40758 -0.03632 0.47626
 C1763 C 0.41431 -0.03816 0.49272
 C1764 C 0.43087 -0.03351 0.49638
 C1765 C 0.44120 -0.02676 0.48385
 C1766 C 0.43487 -0.02518 0.46743
 H1767 H 0.37139 -0.04457 0.42253
 H1768 H 0.33191 -0.05759 0.46900
 H1769 H 0.34339 -0.05327 0.41617
 H1770 H 0.35358 -0.05272 0.48988
 H1771 H 0.38158 -0.04526 0.49761
 H1772 H 0.39329 -0.03210 0.42945
 H1773 H 0.42096 -0.02390 0.43719
 H1774 H 0.40724 -0.04343 0.50298
 H1775 H 0.43555 -0.03504 0.50913
 H1776 H 0.44290 -0.02032 0.45754
 C1777 C 0.35075 0.44902 -0.03500
 C1778 C 0.36399 0.45331 -0.04613
 C1779 C 0.36053 0.45305 -0.06372
 C1780 C 0.34479 0.44777 -0.06977
 C1781 C 0.33195 0.44324 -0.05859
 C1782 C 0.33502 0.44414 -0.04118
 C1783 C 0.37279 0.45798 -0.07522
 C1784 C 0.38842 0.46349 -0.06968
 C1785 C 0.39259 0.46386 -0.05233
 C1786 C 0.38044 0.45800 -0.04043
 C1787 C 0.38528 0.45661 -0.02333
 C1788 C 0.40130 0.46112 -0.01795
 C1789 C 0.41298 0.46767 -0.02924
 C1790 C 0.40869 0.46950 -0.04653
 C1791 C 0.42065 0.47712 -0.05724
 C1792 C 0.43630 0.48219 -0.05110
 C1793 C 0.44068 0.47976 -0.03417
 C1794 C 0.42895 0.47246 -0.02329
 H1795 H 0.35201 0.44961 -0.02144
 H1796 H 0.34253 0.44706 -0.08328
 H1797 H 0.32516 0.44098 -0.03231
 H1798 H 0.37024 0.45771 -0.08868
 H1799 H 0.39719 0.46690 -0.07944
 H1800 H 0.37709 0.45156 -0.01380
 H1801 H 0.40451 0.45962 -0.00473
 H1802 H 0.41820 0.47968 -0.07035
 H1803 H 0.44514 0.48785 -0.05977
 H1804 H 0.43215 0.47076 -0.01009
 C1805 C 0.39567 0.45068 0.77312
 C1806 C 0.38223 0.45503 0.78410
 C1807 C 0.38539 0.45468 0.80175
 C1808 C 0.40100 0.44932 0.80798
 C1809 C 0.41397 0.44459 0.79693
 C1810 C 0.41123 0.44560 0.77948
 C1811 C 0.37291 0.45950 0.81316
 C1812 C 0.35734 0.46491 0.80752
 C1813 C 0.35345 0.46539 0.79010
 C1814 C 0.36587 0.45978 0.77823
 C1815 C 0.36136 0.45869 0.76097
 C1816 C 0.34540 0.46321 0.75545
 C1817 C 0.33342 0.46945 0.76676
 C1818 C 0.33740 0.47096 0.78421
 C1819 C 0.32518 0.47822 0.79503
 C1820 C 0.30964 0.48333 0.78884
 C1821 C 0.30556 0.48137 0.77171
 C1822 C 0.31749 0.47432 0.76070
 H1823 H 0.39464 0.45127 0.75956
 H1824 H 0.40301 0.44853 0.82150
 H1825 H 0.42119 0.44226 0.77072
 H1826 H 0.37522 0.45915 0.82667
 H1827 H 0.34841 0.46816 0.81725
 H1828 H 0.36979 0.45393 0.75140
 H1829 H 0.34247 0.46198 0.74211
 H1830 H 0.32732 0.48049 0.80830
 H1831 H 0.30066 0.48874 0.79765
 H1832 H 0.31451 0.47294 0.74739
 C1833 C 0.40527 -0.06474 0.28079
 C1834 C 0.39251 -0.05636 0.29006
 C1835 C 0.39508 -0.05396 0.30767
 C1836 C 0.40921 -0.06079 0.31571
 C1837 C 0.42146 -0.06951 0.30643
 C1838 C 0.41949 -0.07108 0.28886
 C1839 C 0.38345 -0.04494 0.31726
 C1840 C 0.36932 -0.03805 0.30978
 C1841 C 0.36596 -0.04038 0.29238
 C1842 C 0.37735 -0.05028 0.28251
 C1843 C 0.37288 -0.05430 0.26565
 C1844 C 0.35780 -0.04880 0.25868
 C1845 C 0.34691 -0.03854 0.26794
 C1846 C 0.35118 -0.03368 0.28470
 C1847 C 0.34046 -0.02224 0.29313
 C1848 C 0.32561 -0.01682 0.28569
 C1849 C 0.32077 -0.02254 0.26957
 C1850 C 0.33166 -0.03324 0.26063
 H1851 H 0.40476 -0.06634 0.26726
 H1852 H 0.41054 -0.05955 0.32930
 H1853 H 0.42897 -0.07747 0.28136
 H1854 H 0.38531 -0.04312 0.33074
 H1855 H 0.36085 -0.03153 0.31820
 H1856 H 0.38048 -0.06230 0.25770
 H1857 H 0.35469 -0.05257 0.24585
 H1858 H 0.34328 -0.01706 0.30543
 H1859 H 0.31765 -0.00839 0.29291
 H1860 H 0.32823 -0.03754 0.24805
 C1861 C 0.09292 0.54267 0.68730
 C1862 C 0.09757 0.54086 0.70444
 C1863 C 0.08678 0.54783 0.71695
 C1864 C 0.07169 0.55571 0.71235
 C1865 C 0.06740 0.55751 0.69529
 C1866 C 0.07818 0.55095 0.68287
 C1867 C 0.09126 0.54720 0.73397
 C1868 C 0.10662 0.54051 0.73883
 C1869 C 0.11794 0.53372 0.72682
 C1870 C 0.11286 0.53297 0.70949
 C1871 C 0.12319 0.52432 0.69781
 C1872 C 0.13850 0.51757 0.70263
 C1873 C 0.14430 0.51949 0.71916
 C1874 C 0.13418 0.52763 0.73152
 C1875 C 0.14106 0.52992 0.74790
 C1876 C 0.15734 0.52457 0.75165
 C1877 C 0.16720 0.51650 0.73936
 C1878 C 0.16043 0.51367 0.72325
 H1879 H 0.10072 0.53846 0.67696
 H1880 H 0.06343 0.56085 0.72199
 H1881 H 0.07535 0.55254 0.66960
 H1882 H 0.08299 0.55232 0.74362
 H1883 H 0.10915 0.54057 0.75221
 H1884 H 0.11964 0.52227 0.68480
 H1885 H 0.14609 0.51116 0.69319
 H1886 H 0.13448 0.53642 0.75790
 H1887 H 0.16231 0.52694 0.76420
 H1888 H 0.16803 0.50761 0.71359
 C1889 C 0.09225 0.01891 0.20780
 C1890 C 0.10686 0.02895 0.20942
 C1891 C 0.10500 0.04642 0.20722
 C1892 C 0.08945 0.05324 0.20252
 C1893 C 0.07538 0.04300 0.20010
 C1894 C 0.07682 0.02587 0.20319
 C1895 C 0.11874 0.05701 0.20927
 C1896 C 0.13440 0.05073 0.21355
 C1897 C 0.13705 0.03344 0.21568
 C1898 C 0.12318 0.02230 0.21306
 C1899 C 0.12623 0.00493 0.21369
 C1900 C 0.14216 -0.00137 0.21712
 C1901 C 0.15562 0.00932 0.22050
 C1902 C 0.15319 0.02690 0.22008
 C1903 C 0.16699 0.03723 0.22441
 C1904 C 0.18242 0.03041 0.22888
 C1905 C 0.18481 0.01311 0.22907
 C1906 C 0.17146 0.00256 0.22460
 H1907 H 0.09230 0.00566 0.20997
 H1908 H 0.08844 0.06649 0.20007
 H1909 H 0.06599 0.01780 0.20157
 H1910 H 0.11740 0.07036 0.20751
 H1911 H 0.14431 0.05984 0.21459
 H1912 H 0.11659 -0.00421 0.21117
 H1913 H 0.14390 -0.01479 0.21735
 H1914 H 0.16624 0.05065 0.22498
 H1915 H 0.19262 0.03881 0.23226
 H1916 H 0.17324 -0.01086 0.22494
 C1917 C 0.65625 0.70807 0.19470
 C1918 C 0.64217 0.69789 0.19829
 C1919 C 0.64408 0.68036 0.19629
 C1920 C 0.65904 0.67358 0.18972
 C1921 C 0.67262 0.68391 0.18558
 C1922 C 0.67120 0.70114 0.18854
 C1923 C 0.63098 0.66968 0.20065
 C1924 C 0.61602 0.67595 0.20718
 C1925 C 0.61335 0.69331 0.20912
 C1926 C 0.62634 0.70447 0.20387
 C1927 C 0.62288 0.72178 0.20384
 C1928 C 0.60737 0.72801 0.20906
 C1929 C 0.59491 0.71736 0.21510
 C1930 C 0.59790 0.69989 0.21566
 C1931 C 0.58538 0.68973 0.22300
 C1932 C 0.57040 0.69659 0.22901
 C1933 C 0.56721 0.71373 0.22775
 C1934 C 0.57949 0.72408 0.22072
 H1935 H 0.65622 0.72139 0.19676
 H1936 H 0.66001 0.66023 0.18751
 H1937 H 0.68168 0.70933 0.18582
 H1938 H 0.63233 0.65627 0.19908
 H1939 H 0.60649 0.66683 0.21000
 H1940 H 0.63174 0.73084 0.19925
 H1941 H 0.60518 0.74136 0.20855
 H1942 H 0.58692 0.67648 0.22471
 H1943 H 0.56112 0.68836 0.23449
 H1944 H 0.57719 0.73740 0.21999
 C1945 C 0.15893 0.72176 0.71344
 C1946 C 0.14482 0.71181 0.71768
 C1947 C 0.14598 0.69436 0.71465
 C1948 C 0.16017 0.68750 0.70662
 C1949 C 0.17369 0.69765 0.70184
 C1950 C 0.17308 0.71474 0.70568
 C1951 C 0.13286 0.68385 0.71934
 C1952 C 0.11838 0.69024 0.72678
 C1953 C 0.11624 0.70758 0.72944
 C1954 C 0.12957 0.71857 0.72456
 C1955 C 0.12694 0.73597 0.72602
 C1956 C 0.11172 0.74244 0.73164
 C1957 C 0.09867 0.73192 0.73648
 C1958 C 0.10090 0.71435 0.73608
 C1959 C 0.08751 0.70433 0.74208
 C1960 C 0.07221 0.71146 0.74704
 C1961 C 0.06973 0.72873 0.74617
 C1962 C 0.08319 0.73891 0.74131
 H1963 H 0.15952 0.73498 0.71602
 H1964 H 0.16055 0.67425 0.70371
 H1965 H 0.18356 0.72272 0.70242
 H1966 H 0.13374 0.67048 0.71714
 H1967 H 0.10878 0.68123 0.72971
 H1968 H 0.13618 0.74502 0.72224
 H1969 H 0.11011 0.75589 0.73204
 H1970 H 0.08838 0.69096 0.74306
 H1971 H 0.06209 0.70332 0.75098
 H1972 H 0.08150 0.75235 0.74095
 C1973 C 0.59699 0.20060 0.52285
 C1974 C 0.60898 0.20770 0.53406
 C1975 C 0.60485 0.20836 0.55151
 C1976 C 0.58982 0.20133 0.55742
 C1977 C 0.57841 0.19386 0.54619
 C1978 C 0.58201 0.19380 0.52887
 C1979 C 0.61583 0.21580 0.56305
 C1980 C 0.63092 0.22267 0.55773
 C1981 C 0.63584 0.22207 0.54057
 C1982 C 0.62490 0.21408 0.52860
 C1983 C 0.63045 0.21227 0.51171
 C1984 C 0.64609 0.21811 0.50664
 C1985 C 0.65669 0.22632 0.51802
 C1986 C 0.65159 0.22878 0.53506
 C1987 C 0.66250 0.23788 0.54588
 C1988 C 0.67801 0.24364 0.54017
 C1989 C 0.68327 0.24060 0.52351
 C1990 C 0.67245 0.23202 0.51245
 H1991 H 0.59872 0.20018 0.50934
 H1992 H 0.58712 0.20131 0.57085
 H1993 H 0.57320 0.18826 0.51999
 H1994 H 0.61273 0.21631 0.57640
 H1995 H 0.63870 0.22794 0.56757
 H1996 H 0.62319 0.20592 0.50212
 H1997 H 0.64991 0.21618 0.49360
 H1998 H 0.65942 0.24094 0.55880
 H1999 H 0.68604 0.25032 0.54901
 H2000 H 0.67628 0.22977 0.49947
 C2001 C 0.61500 0.70178 0.06729
 C2002 C 0.61955 0.70256 0.05000
 C2003 C 0.60887 0.69453 0.03808
 C2004 C 0.59391 0.68680 0.04331
 C2005 C 0.58953 0.68626 0.06048
 C2006 C 0.60032 0.69368 0.07237
 C2007 C 0.61322 0.69411 0.02100
 C2008 C 0.62820 0.70112 0.01546
 C2009 C 0.63927 0.70931 0.02678
 C2010 C 0.63448 0.71072 0.04419
 C2011 C 0.64459 0.72047 0.05515
 C2012 C 0.65916 0.72815 0.04947
 C2013 C 0.66451 0.72607 0.03280
 C2014 C 0.65485 0.71639 0.02124
 C2015 C 0.66145 0.71388 0.00475
 C2016 C 0.67687 0.72081 0.00002
 C2017 C 0.68608 0.73072 0.01140
 C2018 C 0.67970 0.73341 0.02771
 H2019 H 0.62275 0.70685 0.07726
 H2020 H 0.58567 0.68103 0.03402
 H2021 H 0.59746 0.69304 0.08573
 H2022 H 0.60506 0.68807 0.01181
 H2023 H 0.63055 0.70030 0.00206
 H2024 H 0.64135 0.72281 0.06819
 H2025 H 0.66648 0.73559 0.05834
 H2026 H 0.65529 0.70617 -0.00463
 H2027 H 0.68165 0.71835 -0.01259
 H2028 H 0.68689 0.74076 0.03673
 C2029 C 0.13914 0.07027 0.05122
 C2030 C 0.13682 0.05319 0.04705
 C2031 C 0.14977 0.04188 0.05150
 C2032 C 0.16482 0.04774 0.05883
 C2033 C 0.16706 0.06478 0.06249
 C2034 C 0.15393 0.07587 0.05887
 C2035 C 0.14761 0.02478 0.04867
 C2036 C 0.13269 0.01858 0.04189
 C2037 C 0.11948 0.02934 0.03709
 C2038 C 0.12196 0.04697 0.03896
 C2039 C 0.10965 0.05782 0.03237
 C2040 C 0.09508 0.05172 0.02492
 C2041 C 0.09193 0.03461 0.02408
 C2042 C 0.10395 0.02312 0.03030
 C2043 C 0.09966 0.00594 0.02987
 C2044 C 0.08407 0.00055 0.02366
 C2045 C 0.07240 0.01200 0.01735
 C2046 C 0.07657 0.02900 0.01737
 H2047 H 0.12958 0.07957 0.04919
 H2048 H 0.17483 0.03903 0.06173
 H2049 H 0.15508 0.08900 0.06207
 H2050 H 0.15747 0.01606 0.05198
 H2051 H 0.13206 0.00523 0.04011
 H2052 H 0.11112 0.07120 0.03238
 H2053 H 0.08601 0.06053 0.02001
 H2054 H 0.10779 -0.00360 0.03482
 H2055 H 0.08106 -0.01264 0.02397
 H2056 H 0.06749 0.03802 0.01287
 C2057 C 0.12970 0.58124 0.55323
 C2058 C 0.12462 0.56446 0.55068
 C2059 C 0.13583 0.55171 0.55584
 C2060 C 0.15191 0.55574 0.56214
 C2061 C 0.15693 0.57245 0.56401
 C2062 C 0.14552 0.58508 0.55983
 C2063 C 0.13098 0.53501 0.55460
 C2064 C 0.11514 0.53062 0.54856
 C2065 C 0.10363 0.54282 0.54295
 C2066 C 0.10875 0.55996 0.54338
 C2067 C 0.09805 0.57197 0.53607
 C2068 C 0.08271 0.56750 0.52897
 C2069 C 0.07714 0.55101 0.52926
 C2070 C 0.08733 0.53845 0.53655
 C2071 C 0.08060 0.52209 0.53738
 C2072 C 0.06460 0.51843 0.53099
 C2073 C 0.05489 0.53081 0.52331
 C2074 C 0.06130 0.54706 0.52242
 H2075 H 0.12163 0.59170 0.55059
 H2076 H 0.16060 0.54589 0.56549
 H2077 H 0.14891 0.59808 0.56164
 H2078 H 0.13949 0.52518 0.55848
 H2079 H 0.11248 0.51744 0.54791
 H2080 H 0.10143 0.58495 0.53513
 H2081 H 0.07503 0.57713 0.52334
 H2082 H 0.08716 0.51194 0.54331
 H2083 H 0.05984 0.50581 0.53201
 H2084 H 0.05370 0.55680 0.51683
 C2085 C 0.64739 0.05366 0.56489
 C2086 C 0.64411 0.04930 0.54783
 C2087 C 0.65599 0.05427 0.53548
 C2088 C 0.67112 0.06210 0.54033
 C2089 C 0.67448 0.06559 0.55740
 C2090 C 0.66226 0.06171 0.56951
 C2091 C 0.65272 0.05132 0.51838
 C2092 C 0.63779 0.04378 0.51321
 C2093 C 0.62573 0.03830 0.52505
 C2094 C 0.62934 0.04043 0.54266
 C2095 C 0.61833 0.03323 0.55454
 C2096 C 0.60390 0.02484 0.54947
 C2097 C 0.59961 0.02364 0.53243
 C2098 C 0.61029 0.03052 0.51993
 C2099 C 0.60479 0.02970 0.50290
 C2100 C 0.58934 0.02245 0.49861
 C2101 C 0.57905 0.01545 0.51104
 C2102 C 0.58443 0.01587 0.52788
 H2103 H 0.63857 0.05136 0.57495
 H2104 H 0.68040 0.06532 0.53086
 H2105 H 0.66427 0.06486 0.58270
 H2106 H 0.66173 0.05506 0.50885
 H2107 H 0.63629 0.04191 0.49978
 H2108 H 0.62077 0.03343 0.56794
 H2109 H 0.59583 0.01949 0.55906
 H2110 H 0.61182 0.03510 0.49267
 H2111 H 0.58534 0.02246 0.48552
 H2112 H 0.57639 0.01081 0.53764
 C2113 C 0.64562 0.54689 0.06515
 C2114 C 0.64213 0.54461 0.04772
 C2115 C 0.65359 0.55155 0.03597
 C2116 C 0.66807 0.56001 0.04158
 C2117 C 0.67127 0.56219 0.05887
 C2118 C 0.65991 0.55557 0.07055
 C2119 C 0.65050 0.55018 0.01868
 C2120 C 0.63595 0.54258 0.01269
 C2121 C 0.62395 0.53573 0.02382
 C2122 C 0.62748 0.53607 0.04157
 C2123 C 0.61629 0.52780 0.05254
 C2124 C 0.60173 0.52019 0.04655
 C2125 C 0.59754 0.52075 0.02946
 C2126 C 0.60854 0.52855 0.01782
 C2127 C 0.60333 0.52933 0.00072
 C2128 C 0.58780 0.52293 -0.00441
 C2129 C 0.57701 0.51529 0.00716
 C2130 C 0.58213 0.51393 0.02403
 H2131 H 0.63737 0.54255 0.07496
 H2132 H 0.67686 0.56508 0.03248
 H2133 H 0.66199 0.55733 0.08398
 H2134 H 0.65931 0.55530 0.00964
 H2135 H 0.63460 0.54206 -0.00085
 H2136 H 0.61853 0.52677 0.06592
 H2137 H 0.59347 0.51410 0.05549
 H2138 H 0.61063 0.53537 -0.00892
 H2139 H 0.58410 0.52420 -0.01752
 H2140 H 0.57373 0.50830 0.03316
 C2141 C 0.02840 0.03505 0.16087
 C2142 C 0.03875 0.02837 0.14786
 C2143 C 0.05628 0.02738 0.15101
 C2144 C 0.06314 0.03403 0.16594
 C2145 C 0.05281 0.04140 0.17829
 C2146 C 0.03537 0.04141 0.17582
 C2147 C 0.06701 0.02013 0.13910
 C2148 C 0.06082 0.01403 0.12388
 C2149 C 0.04359 0.01535 0.11973
 C2150 C 0.03242 0.02292 0.13179
 C2151 C 0.01548 0.02550 0.12707
 C2152 C 0.00972 0.02117 0.11105
 C2153 C 0.02042 0.01367 0.09924
 C2154 C 0.03733 0.01007 0.10360
 C2155 C 0.04733 0.00150 0.09148
 C2156 C 0.04113 -0.00221 0.07541
 C2157 C 0.02478 0.00241 0.07081
 C2158 C 0.01436 0.01004 0.08293
 H2159 H 0.01489 0.03552 0.15994
 H2160 H 0.07666 0.03395 0.16771
 H2161 H 0.02714 0.04671 0.18539
 H2162 H 0.08041 0.01927 0.14152
 H2163 H 0.07007 0.00896 0.11530
 H2164 H 0.00645 0.03150 0.13528
 H2165 H -0.00326 0.02385 0.10782
 H2166 H 0.05999 -0.00255 0.09399
 H2167 H 0.04939 -0.00833 0.06637
 H2168 H 0.00155 0.01333 0.07962
 C2169 C 0.03231 0.53788 0.65876
 C2170 C 0.02877 0.54878 0.64524
 C2171 C 0.03151 0.56611 0.64795
 C2172 C 0.03885 0.57194 0.66300
 C2173 C 0.04311 0.56086 0.67587
 C2174 C 0.03936 0.54388 0.67379
 C2175 C 0.02733 0.57752 0.63549
 C2176 C 0.02058 0.57216 0.62021
 C2177 C 0.01821 0.55501 0.61658
 C2178 C 0.02283 0.54310 0.62911
 C2179 C 0.02211 0.52595 0.62484
 C2180 C 0.01714 0.52058 0.60886
 C2181 C 0.01216 0.53201 0.59668
 C2182 C 0.01205 0.54936 0.60054
 C2183 C 0.00582 0.56033 0.58812
 C2184 C 0.00079 0.55437 0.57231
 C2185 C 0.00186 0.53734 0.56828
 C2186 C 0.00740 0.52618 0.58058
 H2187 H 0.02974 0.52468 0.65816
 H2188 H 0.04177 0.58510 0.66449
 H2189 H 0.04230 0.53518 0.68375
 H2190 H 0.02937 0.59078 0.63753
 H2191 H 0.01802 0.58181 0.61119
 H2192 H 0.02599 0.51630 0.63337
 H2193 H 0.01719 0.50730 0.60600
 H2194 H 0.00445 0.57357 0.59026
 H2195 H -0.00361 0.56322 0.56303
 H2196 H 0.00792 0.51293 0.57763
 C2197 C 0.53003 0.04836 0.65526
 C2198 C 0.54127 0.04373 0.64211
 C2199 C 0.55874 0.04394 0.64579
 C2200 C 0.56458 0.04958 0.66158
 C2201 C 0.55332 0.05469 0.67423
 C2202 C 0.53601 0.05370 0.67103
 C2203 C 0.57036 0.03876 0.63364
 C2204 C 0.56508 0.03314 0.61788
 C2205 C 0.54786 0.03285 0.61345
 C2206 C 0.53582 0.03887 0.62551
 C2207 C 0.51885 0.04029 0.62039
 C2208 C 0.51376 0.03573 0.60417
 C2209 C 0.52521 0.02905 0.59256
 C2210 C 0.54236 0.02714 0.59717
 C2211 C 0.55326 0.01931 0.58538
 C2212 C 0.54745 0.01405 0.56960
 C2213 C 0.53067 0.01653 0.56484
 C2214 C 0.51959 0.02411 0.57637
 H2215 H 0.51656 0.04783 0.65384
 H2216 H 0.57800 0.05036 0.66392
 H2217 H 0.52709 0.05734 0.68075
 H2218 H 0.58373 0.03899 0.63636
 H2219 H 0.57494 0.02963 0.60919
 H2220 H 0.50922 0.04540 0.62852
 H2221 H 0.50065 0.03726 0.60074
 H2222 H 0.56626 0.01662 0.58808
 H2223 H 0.55625 0.00806 0.56101
 H2224 H 0.50650 0.02579 0.57290
 C2225 C 0.54975 0.56174 0.13579
 C2226 C 0.54699 0.54506 0.13037
 C2227 C 0.55175 0.53212 0.14151
 C2228 C 0.55837 0.53590 0.15758
 C2229 C 0.56088 0.55249 0.16277
 C2230 C 0.55662 0.56532 0.15165
 C2231 C 0.55000 0.51546 0.13654
 C2232 C 0.54410 0.51127 0.12052
 C2233 C 0.53934 0.52366 0.10888
 C2234 C 0.54007 0.54079 0.11418
 C2235 C 0.53368 0.55305 0.10319
 C2236 C 0.52749 0.54884 0.08730
 C2237 C 0.52771 0.53233 0.08152
 C2238 C 0.53375 0.51949 0.09215
 C2239 C 0.53442 0.50306 0.08536
 C2240 C 0.52940 0.49966 0.06878
 C2241 C 0.52331 0.51237 0.05843
 C2242 C 0.52225 0.52866 0.06498
 H2243 H 0.54718 0.57233 0.12793
 H2244 H 0.56168 0.52590 0.16609
 H2245 H 0.55881 0.57825 0.15518
 H2246 H 0.55347 0.50551 0.14505
 H2247 H 0.54310 0.49811 0.11778
 H2248 H 0.53300 0.56608 0.10664
 H2249 H 0.52275 0.55870 0.07930
 H2250 H 0.53930 0.49263 0.09229
 H2251 H 0.53043 0.48698 0.06398
 H2252 H 0.51784 0.53864 0.05695
 C2253 C 0.20618 0.55897 0.59928
 C2254 C 0.19635 0.55375 0.61318
 C2255 C 0.17860 0.55498 0.61169
 C2256 C 0.17124 0.56239 0.59746
 C2257 C 0.18120 0.56811 0.58407
 C2258 C 0.19869 0.56588 0.58498
 C2259 C 0.16826 0.54898 0.62450
 C2260 C 0.17510 0.54158 0.63872
 C2261 C 0.19269 0.54041 0.64101
 C2262 C 0.20347 0.54728 0.62840
 C2263 C 0.22093 0.54801 0.63172
 C2264 C 0.22764 0.54209 0.64676
 C2265 C 0.21738 0.53458 0.65880
 C2266 C 0.19982 0.53312 0.65582
 C2267 C 0.19012 0.52427 0.66772
 C2268 C 0.19742 0.51789 0.68230
 C2269 C 0.21457 0.52021 0.68573
 C2270 C 0.22453 0.52852 0.67386
 H2271 H 0.21967 0.55759 0.59895
 H2272 H 0.15771 0.56395 0.59694
 H2273 H 0.20666 0.56971 0.57462
 H2274 H 0.15469 0.54992 0.62348
 H2275 H 0.16620 0.53750 0.64809
 H2276 H 0.22971 0.55375 0.62317
 H2277 H 0.24107 0.54327 0.64891
 H2278 H 0.17691 0.52175 0.66600
 H2279 H 0.18943 0.51140 0.69116
 H2280 H 0.23787 0.53014 0.67625
 C2281 C 0.21698 0.05461 0.09778
 C2282 C 0.20786 0.04701 0.11099
 C2283 C 0.19011 0.04593 0.10925
 C2284 C 0.18190 0.05340 0.09556
 C2285 C 0.19108 0.06164 0.08305
 C2286 C 0.20869 0.06172 0.08406
 C2287 C 0.18058 0.03770 0.12136
 C2288 C 0.18823 0.03042 0.13520
 C2289 C 0.20579 0.03151 0.13778
 C2290 C 0.21568 0.04050 0.12583
 C2291 C 0.23288 0.04324 0.12946
 C2292 C 0.24020 0.03732 0.14420
 C2293 C 0.23089 0.02790 0.15561
 C2294 C 0.21369 0.02441 0.15226
 C2295 C 0.20508 0.01386 0.16354
 C2296 C 0.21295 0.00779 0.17791
 C2297 C 0.22968 0.01196 0.18170
 C2298 C 0.23865 0.02198 0.17041
 H2299 H 0.23053 0.05515 0.09759
 H2300 H 0.16828 0.05323 0.09489
 H2301 H 0.21607 0.06767 0.07431
 H2302 H 0.16702 0.03687 0.12013
 H2303 H 0.17986 0.02459 0.14407
 H2304 H 0.24092 0.05054 0.12143
 H2305 H 0.25335 0.04005 0.14663
 H2306 H 0.19230 0.00982 0.16152
 H2307 H 0.20566 0.00003 0.18633
 H2308 H 0.25166 0.02511 0.17310
 C2309 C 0.69661 0.21908 0.65650
 C2310 C 0.70223 0.20988 0.64218
 C2311 C 0.70163 0.19220 0.64300
 C2312 C 0.69452 0.18426 0.65706
 C2313 C 0.68828 0.19363 0.67076
 C2314 C 0.68979 0.21105 0.67048
 C2315 C 0.70783 0.18251 0.62965
 C2316 C 0.71464 0.18992 0.61542
 C2317 C 0.71512 0.20747 0.61374
 C2318 C 0.70835 0.21760 0.62713
 C2319 C 0.70735 0.23503 0.62477
 C2320 C 0.71285 0.24236 0.60992
 C2321 C 0.72000 0.23274 0.59700
 C2322 C 0.72164 0.21520 0.59888
 C2323 C 0.72981 0.20617 0.58577
 C2324 C 0.73545 0.21412 0.57123
 C2325 C 0.73313 0.23132 0.56913
 C2326 C 0.72544 0.24058 0.58214
 H2327 H 0.69740 0.23250 0.65737
 H2328 H 0.69342 0.17077 0.65718
 H2329 H 0.68537 0.21851 0.68110
 H2330 H 0.70740 0.16899 0.63020
 H2331 H 0.71891 0.18147 0.60565
 H2332 H 0.70181 0.24338 0.63397
 H2333 H 0.71154 0.25576 0.60858
 H2334 H 0.73227 0.19296 0.58640
 H2335 H 0.74141 0.20665 0.56141
 H2336 H 0.72380 0.25394 0.58074
 C2337 C 0.72033 0.69443 0.14847
 C2338 C 0.71047 0.70182 0.13565
 C2339 C 0.69275 0.70183 0.13776
 C2340 C 0.68534 0.69372 0.15151
 C2341 C 0.69528 0.68597 0.16378
 C2342 C 0.71282 0.68671 0.16229
 C2343 C 0.68247 0.70977 0.12605
 C2344 C 0.68936 0.71777 0.11220
 C2345 C 0.70688 0.71771 0.10921
 C2346 C 0.71755 0.70914 0.12083
 C2347 C 0.73482 0.70759 0.11693
 C2348 C 0.74145 0.71408 0.10216
 C2349 C 0.73130 0.72283 0.09095
 C2350 C 0.71400 0.72532 0.09458
 C2351 C 0.70458 0.73529 0.08334
 C2352 C 0.71181 0.74150 0.06860
 C2353 C 0.72856 0.73789 0.06446
 C2354 C 0.73834 0.72887 0.07594
 H2355 H 0.73389 0.69462 0.14836
 H2356 H 0.67175 0.69323 0.15260
 H2357 H 0.72073 0.68117 0.17185
 H2358 H 0.66892 0.70981 0.12762
 H2359 H 0.68049 0.72335 0.10365
 H2360 H 0.74350 0.70078 0.12471
 H2361 H 0.75470 0.71217 0.09946
 H2362 H 0.69163 0.73864 0.08561
 H2363 H 0.70407 0.74882 0.06020
 H2364 H 0.75146 0.72634 0.07310
 C2365 C 0.55382 0.70886 0.09517
 C2366 C 0.54718 0.69860 0.10803
 C2367 C 0.54838 0.68105 0.10568
 C2368 C 0.55707 0.67426 0.09171
 C2369 C 0.56435 0.68466 0.07956
 C2370 C 0.56218 0.70196 0.08122
 C2371 C 0.54117 0.67036 0.11744
 C2372 C 0.53296 0.67663 0.13166
 C2373 C 0.53205 0.69398 0.13500
 C2374 C 0.53958 0.70512 0.12315
 C2375 C 0.53995 0.72235 0.12716
 C2376 C 0.53350 0.72848 0.14232
 C2377 C 0.52599 0.71783 0.15391
 C2378 C 0.52456 0.70052 0.15019
 C2379 C 0.51590 0.69048 0.16201
 C2380 C 0.51008 0.69719 0.17733
 C2381 C 0.51269 0.71405 0.18143
 C2382 C 0.52029 0.72438 0.16945
 H2383 H 0.55266 0.72226 0.09540
 H2384 H 0.55852 0.66084 0.09049
 H2385 H 0.56721 0.71024 0.07173
 H2386 H 0.54196 0.65693 0.11567
 H2387 H 0.52802 0.66747 0.14020
 H2388 H 0.54582 0.73144 0.11915
 H2389 H 0.53455 0.74174 0.14506
 H2390 H 0.51348 0.67740 0.15986
 H2391 H 0.50412 0.68894 0.18631
 H2392 H 0.52209 0.73752 0.17237
 C2393 C 0.04144 0.71972 0.59566
 C2394 C 0.04753 0.71524 0.61183
 C2395 C 0.06120 0.70387 0.61254
 C2396 C 0.06761 0.69651 0.59770
 C2397 C 0.06154 0.70127 0.58190
 C2398 C 0.04859 0.71300 0.58094
 C2399 C 0.06864 0.70016 0.62800
 C2400 C 0.06316 0.70790 0.64281
 C2401 C 0.04943 0.71907 0.64280
 C2402 C 0.04083 0.72195 0.62724
 C2403 C 0.02557 0.73100 0.62769
 C2404 C 0.01905 0.73719 0.64283
 C2405 C 0.02790 0.73540 0.65794
 C2406 C 0.04358 0.72694 0.65799
 C2407 C 0.05288 0.72684 0.67325
 C2408 C 0.04632 0.73394 0.68803
 C2409 C 0.03025 0.74105 0.68814
 C2410 C 0.02111 0.74189 0.67306
 H2411 H 0.03167 0.72891 0.59400
 H2412 H 0.07788 0.68762 0.59829
 H2413 H 0.04402 0.71694 0.56872
 H2414 H 0.07906 0.69145 0.62863
 H2415 H 0.06950 0.70432 0.65426
 H2416 H 0.01797 0.73281 0.61657
 H2417 H 0.00706 0.74364 0.64267
 H2418 H 0.06536 0.72164 0.67407
 H2419 H 0.05359 0.73331 0.69959
 H2420 H 0.00876 0.74766 0.67312
 C2421 C 0.56920 0.59613 0.20465
 C2422 C 0.55195 0.60029 0.20619
 C2423 C 0.54007 0.58961 0.19818
 C2424 C 0.54536 0.57505 0.18964
 C2425 C 0.56249 0.57110 0.18838
 C2426 C 0.57431 0.58185 0.19584
 C2427 C 0.52299 0.59360 0.19858
 C2428 C 0.51743 0.60830 0.20622
 C2429 C 0.52876 0.61944 0.21421
 C2430 C 0.54617 0.61491 0.21496
 C2431 C 0.55720 0.62508 0.22454
 C2432 C 0.55168 0.63970 0.23228
 C2433 C 0.53506 0.64496 0.23055
 C2434 C 0.52332 0.63497 0.22150
 C2435 C 0.50678 0.64131 0.21959
 C2436 C 0.50235 0.65702 0.22604
 C2437 C 0.51410 0.66683 0.23484
 C2438 C 0.53031 0.66046 0.23743
 H2439 H 0.57912 0.60391 0.20963
 H2440 H 0.53617 0.56682 0.18379
 H2441 H 0.58763 0.57926 0.19465
 H2442 H 0.51383 0.58541 0.19261
 H2443 H 0.50405 0.61043 0.20592
 H2444 H 0.57022 0.62193 0.22656
 H2445 H 0.56066 0.64719 0.23938
 H2446 H 0.49716 0.63478 0.21258
 H2447 H 0.48976 0.66166 0.22378
 H2448 H 0.53958 0.66797 0.24409
 C2449 C 0.05821 0.60907 0.71032
 C2450 C 0.04152 0.61520 0.71117
 C2451 C 0.02846 0.60475 0.70497
 C2452 C 0.03205 0.58853 0.69904
 C2453 C 0.04869 0.58270 0.69814
 C2454 C 0.06168 0.59322 0.70377
 C2455 C 0.01196 0.61066 0.70438
 C2456 C 0.00818 0.62696 0.70927
 C2457 C 0.02072 0.63782 0.71561
 C2458 C 0.03746 0.63150 0.71745
 C2459 C 0.04953 0.64155 0.72579
 C2460 C 0.04560 0.65748 0.73157
 C2461 C 0.02967 0.66421 0.72887
 C2462 C 0.01706 0.65468 0.72054
 C2463 C 0.00145 0.66261 0.71722
 C2464 C -0.00152 0.67913 0.72240
 C2465 C 0.01080 0.68808 0.73129
 C2466 C 0.02636 0.68053 0.73442
 H2467 H 0.06896 0.61650 0.71390
 H2468 H 0.02190 0.58056 0.69462
 H2469 H 0.07469 0.58934 0.70271
 H2470 H 0.00190 0.60271 0.69972
 H2471 H -0.00486 0.63058 0.70840
 H2472 H 0.06207 0.63724 0.72855
 H2473 H 0.05523 0.66470 0.73805
 H2474 H -0.00853 0.65653 0.71028
 H2475 H -0.01355 0.68485 0.71964
 H2476 H 0.03611 0.68756 0.74092
 C2477 C 0.07381 0.13515 0.04816
 C2478 C 0.05683 0.12979 0.04868
 C2479 C 0.04511 0.14005 0.05747
 C2480 C 0.05017 0.15532 0.06470
 C2481 C 0.06703 0.16043 0.06407
 C2482 C 0.07877 0.15014 0.05583
 C2483 C 0.02844 0.13492 0.05921
 C2484 C 0.02319 0.11953 0.05291
 C2485 C 0.03436 0.10882 0.04412
 C2486 C 0.05120 0.11444 0.04120
 C2487 C 0.06176 0.10467 0.03068
 C2488 C 0.05631 0.08960 0.02381
 C2489 C 0.04037 0.08340 0.02752
 C2490 C 0.02920 0.09277 0.03790
 C2491 C 0.01348 0.08547 0.04195
 C2492 C 0.00907 0.06966 0.03576
 C2493 C 0.02003 0.06068 0.02519
 C2494 C 0.03562 0.06771 0.02104
 H2495 H 0.08368 0.12779 0.04245
 H2496 H 0.04103 0.16319 0.07112
 H2497 H 0.09194 0.15360 0.05557
 H2498 H 0.01940 0.14277 0.06581
 H2499 H 0.01011 0.11656 0.05478
 H2500 H 0.07423 0.10857 0.02712
 H2501 H 0.06480 0.08261 0.01566
 H2502 H 0.00451 0.09141 0.05027
 H2503 H -0.00299 0.06445 0.03928
 H2504 H 0.04434 0.06074 0.01312
 C2505 C 0.06839 0.65219 0.54606
 C2506 C 0.05096 0.64862 0.54521
 C2507 C 0.03973 0.66040 0.55256
 C2508 C 0.04576 0.67546 0.55953
 C2509 C 0.06302 0.67907 0.55972
 C2510 C 0.07425 0.66708 0.55328
 C2511 C 0.02251 0.65712 0.55293
 C2512 C 0.01612 0.64224 0.54644
 C2513 C 0.02672 0.63013 0.53886
 C2514 C 0.04433 0.63369 0.53761
 C2515 C 0.05465 0.62242 0.52847
 C2516 C 0.04814 0.60789 0.52130
 C2517 C 0.03123 0.60372 0.52332
 C2518 C 0.02028 0.61467 0.53227
 C2519 C 0.00340 0.60949 0.53454
 C2520 C -0.00226 0.59417 0.52816
 C2521 C 0.00857 0.58350 0.51917
 C2522 C 0.02529 0.58849 0.51663
 H2523 H 0.07787 0.64357 0.54163
 H2524 H 0.03692 0.68447 0.56469
 H2525 H 0.08769 0.66922 0.55389
 H2526 H 0.01384 0.66610 0.55846
 H2527 H 0.00267 0.64080 0.54716
 H2528 H 0.06782 0.62470 0.52622
 H2529 H 0.05651 0.59971 0.51425
 H2530 H -0.00566 0.61672 0.54162
 H2531 H -0.01521 0.59061 0.53045
 H2532 H 0.03387 0.58027 0.50989
 C2533 C 0.57068 0.14138 0.53759
 C2534 C 0.55434 0.13619 0.53279
 C2535 C 0.54086 0.14754 0.53558
 C2536 C 0.54392 0.16367 0.54208
 C2537 C 0.56026 0.16868 0.54637
 C2538 C 0.57351 0.15731 0.54427
 C2539 C 0.52441 0.14274 0.53185
 C2540 C 0.52090 0.12674 0.52587
 C2541 C 0.53384 0.11494 0.52299
 C2542 C 0.55089 0.12003 0.52569
 C2543 C 0.56391 0.10889 0.52099
 C2544 C 0.56043 0.09300 0.51472
 C2545 C 0.54389 0.08739 0.51324
 C2546 C 0.53033 0.09823 0.51743
 C2547 C 0.51382 0.09166 0.51650
 C2548 C 0.51102 0.07502 0.51195
 C2549 C 0.52446 0.06444 0.50783
 C2550 C 0.54086 0.07078 0.50810
 H2551 H 0.58152 0.13333 0.53670
 H2552 H 0.53362 0.17242 0.54374
 H2553 H 0.58620 0.16081 0.54785
 H2554 H 0.51407 0.15139 0.53378
 H2555 H 0.50786 0.12412 0.52326
 H2556 H 0.57703 0.11221 0.52170
 H2557 H 0.57085 0.08486 0.51137
 H2558 H 0.50282 0.09879 0.51992
 H2559 H 0.49824 0.07030 0.51193
 H2560 H 0.55132 0.06252 0.50523
 C2561 C 0.57794 0.63531 0.04549
 C2562 C 0.56109 0.63169 0.04096
 C2563 C 0.54855 0.64346 0.04571
 C2564 C 0.55296 0.65853 0.05386
 C2565 C 0.56977 0.66205 0.05787
 C2566 C 0.58213 0.65018 0.05383
 C2567 C 0.53166 0.64016 0.04230
 C2568 C 0.52681 0.62524 0.03461
 C2569 C 0.53878 0.61310 0.02962
 C2570 C 0.55624 0.61671 0.03217
 C2571 C 0.56826 0.60537 0.02561
 C2572 C 0.56344 0.59068 0.01746
 C2573 C 0.54649 0.58647 0.01584
 C2574 C 0.53389 0.59751 0.02203
 C2575 C 0.51691 0.59223 0.02082
 C2576 C 0.51277 0.57664 0.01393
 C2577 C 0.52528 0.56590 0.00772
 C2578 C 0.54211 0.57102 0.00844
 H2579 H 0.58817 0.62677 0.04311
 H2580 H 0.54332 0.66763 0.05701
 H2581 H 0.59515 0.65246 0.05717
 H2582 H 0.52203 0.64915 0.04578
 H2583 H 0.51352 0.62378 0.03238
 H2584 H 0.58160 0.60766 0.02624
 H2585 H 0.57313 0.58237 0.01264
 H2586 H 0.50656 0.59953 0.02566
 H2587 H 0.49968 0.57287 0.01365
 H2588 H 0.55190 0.56261 0.00399
 C2589 C 0.72250 0.10262 0.54577
 C2590 C 0.71243 0.11611 0.54032
 C2591 C 0.69472 0.11386 0.54036
 C2592 C 0.68752 0.09933 0.54704
 C2593 C 0.69770 0.08662 0.55349
 C2594 C 0.71521 0.08816 0.55221
 C2595 C 0.68423 0.12632 0.53419
 C2596 C 0.69086 0.14113 0.52815
 C2597 C 0.70835 0.14431 0.52849
 C2598 C 0.71928 0.13176 0.53506
 C2599 C 0.73655 0.13555 0.53688
 C2600 C 0.74294 0.15108 0.53254
 C2601 C 0.73253 0.16330 0.52574
 C2602 C 0.71519 0.15991 0.52310
 C2603 C 0.70540 0.17236 0.51524
 C2604 C 0.71234 0.18774 0.51103
 C2605 C 0.72926 0.19136 0.51449
 C2606 C 0.73935 0.17899 0.52171
 H2607 H 0.73605 0.10282 0.54524
 H2608 H 0.67395 0.09821 0.54786
 H2609 H 0.72330 0.07828 0.55670
 H2610 H 0.67069 0.12466 0.53414
 H2611 H 0.68179 0.15017 0.52395
 H2612 H 0.74543 0.12697 0.54229
 H2613 H 0.75621 0.15355 0.53456
 H2614 H 0.69235 0.17060 0.51200
 H2615 H 0.70423 0.19700 0.50537
 H2616 H 0.75252 0.18156 0.52421
 C2617 C 0.68334 0.61302 0.04336
 C2618 C 0.70048 0.61769 0.04203
 C2619 C 0.71271 0.60647 0.04835
 C2620 C 0.70787 0.59106 0.05509
 C2621 C 0.69084 0.58672 0.05649
 C2622 C 0.67866 0.59787 0.05057
 C2623 C 0.72970 0.61076 0.04816
 C2624 C 0.73487 0.62624 0.04239
 C2625 C 0.72321 0.63793 0.03610
 C2626 C 0.70586 0.63323 0.03509
 C2627 C 0.69453 0.64412 0.02699
 C2628 C 0.69983 0.65932 0.02060
 C2629 C 0.71648 0.66452 0.02245
 C2630 C 0.72837 0.65408 0.03051
 C2631 C 0.74483 0.66044 0.03302
 C2632 C 0.74928 0.67632 0.02743
 C2633 C 0.73762 0.68628 0.01895
 C2634 C 0.72124 0.68027 0.01645
 H2635 H 0.67319 0.62105 0.03951
 H2636 H 0.71739 0.58250 0.05961
 H2637 H 0.66541 0.59501 0.05183
 H2638 H 0.73912 0.60217 0.05283
 H2639 H 0.74823 0.62853 0.04263
 H2640 H 0.68149 0.64104 0.02497
 H2641 H 0.69071 0.66721 0.01437
 H2642 H 0.75443 0.65368 0.03969
 H2643 H 0.76196 0.68080 0.02969
 H2644 H 0.71202 0.68809 0.01026
 C2645 C 0.20328 0.64660 0.68793
 C2646 C 0.20452 0.64142 0.70494
 C2647 C 0.20005 0.65308 0.71779
 C2648 C 0.19529 0.66941 0.71365
 C2649 C 0.19404 0.67429 0.69673
 C2650 C 0.19800 0.66269 0.68396
 C2651 C 0.20008 0.64833 0.73469
 C2652 C 0.20390 0.63203 0.73916
 C2653 C 0.20841 0.61993 0.72685
 C2654 C 0.20956 0.62495 0.70958
 C2655 C 0.21596 0.61345 0.69755
 C2656 C 0.22050 0.59740 0.70208
 C2657 C 0.21845 0.59200 0.71864
 C2658 C 0.21211 0.60304 0.73125
 C2659 C 0.20942 0.59656 0.74764
 C2660 C 0.21327 0.57995 0.75132
 C2661 C 0.22010 0.56937 0.73891
 C2662 C 0.22264 0.57550 0.72260
 H2663 H 0.20564 0.63833 0.67735
 H2664 H 0.19212 0.67829 0.72360
 H2665 H 0.19664 0.66597 0.67079
 H2666 H 0.19678 0.65722 0.74459
 H2667 H 0.20364 0.62940 0.75248
 H2668 H 0.21809 0.61663 0.68453
 H2669 H 0.22547 0.58903 0.69243
 H2670 H 0.20398 0.60386 0.75778
 H2671 H 0.21102 0.57542 0.76398
 H2672 H 0.22757 0.56728 0.71279
 C2673 C 0.20493 0.14978 0.22233
 C2674 C 0.20785 0.13555 0.21192
 C2675 C 0.20662 0.13759 0.19417
 C2676 C 0.20177 0.15297 0.18734
 C2677 C 0.19847 0.16675 0.19786
 C2678 C 0.20034 0.16507 0.21535
 C2679 C 0.21000 0.12423 0.18327
 C2680 C 0.21490 0.10887 0.18952
 C2681 C 0.21628 0.10611 0.20707
 C2682 C 0.21204 0.11945 0.21847
 C2683 C 0.21174 0.11614 0.23598
 C2684 C 0.21586 0.10047 0.24218
 C2685 C 0.22092 0.08760 0.23130
 C2686 C 0.22148 0.09033 0.21359
 C2687 C 0.22757 0.07721 0.20315
 C2688 C 0.23265 0.06209 0.20998
 C2689 C 0.23175 0.05933 0.22740
 C2690 C 0.22566 0.07207 0.23802
 H2691 H 0.20626 0.14957 0.23587
 H2692 H 0.20022 0.15417 0.17379
 H2693 H 0.19800 0.17565 0.22368
 H2694 H 0.20895 0.12569 0.16970
 H2695 H 0.21705 0.09923 0.18017
 H2696 H 0.20795 0.12533 0.24527
 H2697 H 0.21532 0.09850 0.25571
 H2698 H 0.22903 0.07833 0.18967
 H2699 H 0.23728 0.05241 0.20149
 H2700 H 0.22511 0.07006 0.25155
 C2701 C 0.67888 1.14279 0.70342
 C2702 C 0.69619 1.13914 0.70534
 C2703 C 0.70796 1.15091 0.69919
 C2704 C 0.70245 1.16620 0.69252
 C2705 C 0.68522 1.16982 0.69117
 C2706 C 0.67357 1.15777 0.69637
 C2707 C 0.72514 1.14735 0.69969
 C2708 C 0.73093 1.13219 0.70584
 C2709 C 0.71973 1.12017 0.71237
 C2710 C 0.70216 1.12409 0.71285
 C2711 C 0.69117 1.11304 0.72119
 C2712 C 0.69699 1.09835 0.72825
 C2713 C 0.71388 1.09382 0.72690
 C2714 C 0.72550 1.10448 0.71871
 C2715 C 0.74228 1.09871 0.71683
 C2716 C 0.74718 1.08307 0.72286
 C2717 C 0.73568 1.07287 0.73130
 C2718 C 0.71910 1.07846 0.73343
 H2719 H 0.66910 1.13412 0.70679
 H2720 H 0.71160 1.17533 0.68839
 H2721 H 0.66020 1.15993 0.69493
 H2722 H 0.73422 1.15630 0.69505
 H2723 H 0.74437 1.13044 0.70582
 H2724 H 0.67798 1.11564 0.72294
 H2725 H 0.68809 1.09029 0.73460
 H2726 H 0.75176 1.10571 0.71022
 H2727 H 0.75999 1.07889 0.72083
 H2728 H 0.71000 1.07046 0.73956
 C2729 C 0.70714 0.63446 0.17433
 C2730 C 0.70775 0.62937 0.19139
 C2731 C 0.70053 0.64013 0.20377
 C2732 C 0.69409 0.65582 0.19923
 C2733 C 0.69403 0.66086 0.18230
 C2734 C 0.70032 0.64985 0.16993
 C2735 C 0.69976 0.63517 0.22060
 C2736 C 0.70569 0.61959 0.22541
 C2737 C 0.71322 0.60853 0.21361
 C2738 C 0.71498 0.61386 0.19649
 C2739 C 0.72430 0.60374 0.18514
 C2740 C 0.73115 0.58865 0.19014
 C2741 C 0.72860 0.58275 0.20645
 C2742 C 0.71937 0.59243 0.21838
 C2743 C 0.71639 0.58539 0.23446
 C2744 C 0.72249 0.56954 0.23846
 C2745 C 0.73198 0.56030 0.22674
 C2746 C 0.73509 0.56707 0.21079
 H2747 H 0.71142 0.62665 0.16401
 H2748 H 0.68911 0.66417 0.20889
 H2749 H 0.69991 0.65317 0.15670
 H2750 H 0.69430 0.64334 0.23015
 H2751 H 0.70466 0.61677 0.23865
 H2752 H 0.72700 0.60742 0.17236
 H2753 H 0.73837 0.58141 0.18104
 H2754 H 0.70896 0.59158 0.24405
 H2755 H 0.71976 0.56448 0.25081
 H2756 H 0.74211 0.55985 0.20149
 C2757 C 0.54542 0.09590 0.71984
 C2758 C 0.54012 0.10852 0.70862
 C2759 C 0.54045 0.10479 0.69106
 C2760 C 0.54688 0.08954 0.68509
 C2761 C 0.55239 0.07730 0.69631
 C2762 C 0.55132 0.08053 0.71373
 C2763 C 0.53449 0.11631 0.67945
 C2764 C 0.52780 0.13142 0.68487
 C2765 C 0.52731 0.13584 0.70219
 C2766 C 0.53437 0.12461 0.71418
 C2767 C 0.53594 0.13007 0.73115
 C2768 C 0.53061 0.14590 0.73626
 C2769 C 0.52282 0.15660 0.72487
 C2770 C 0.52052 0.15143 0.70781
 C2771 C 0.51127 0.16200 0.69706
 C2772 C 0.50539 0.17740 0.70279
 C2773 C 0.50859 0.18295 0.71932
 C2774 C 0.51727 0.17246 0.73038
 H2775 H 0.54481 0.09740 0.73338
 H2776 H 0.54773 0.08726 0.67159
 H2777 H 0.55521 0.07112 0.72265
 H2778 H 0.53485 0.11356 0.66600
 H2779 H 0.52372 0.13971 0.67505
 H2780 H 0.54189 0.12259 0.74069
 H2781 H 0.53242 0.14972 0.74932
 H2782 H 0.50801 0.15858 0.68426
 H2783 H 0.49856 0.18518 0.69404
 H2784 H 0.51948 0.17654 0.74331
 C2785 C 1.04346 0.09345 0.19017
 C2786 C 1.04295 0.09864 0.20732
 C2787 C 1.04887 0.08730 0.21962
 C2788 C 1.05424 0.07118 0.21485
 C2789 C 1.05428 0.06615 0.19782
 C2790 C 1.04909 0.07756 0.18557
 C2791 C 1.04949 0.09212 0.23660
 C2792 C 1.04463 0.10808 0.24168
 C2793 C 1.03852 0.11980 0.22997
 C2794 C 1.03706 0.11476 0.21261
 C2795 C 1.02947 0.12587 0.20115
 C2796 C 1.02395 0.14154 0.20631
 C2797 C 1.02601 0.14695 0.22297
 C2798 C 1.03353 0.13631 0.23504
 C2799 C 1.03598 0.14282 0.25160
 C2800 C 1.03094 0.15905 0.25592
 C2801 C 1.02312 0.16926 0.24401
 C2802 C 1.02068 0.16307 0.22756
 H2803 H 1.04004 0.10149 0.17991
 H2804 H 1.05848 0.06250 0.22437
 H2805 H 1.04959 0.07423 0.17227
 H2806 H 1.05395 0.08351 0.24608
 H2807 H 1.04544 0.11072 0.25504
 H2808 H 1.02719 0.12267 0.18809
 H2809 H 1.01813 0.14960 0.19706
 H2810 H 1.04210 0.13586 0.26142
 H2811 H 1.03315 0.16360 0.26868
 H2812 H 1.01496 0.17099 0.21813
 C2813 C 0.18910 0.60687 0.53726
 C2814 C 0.19746 0.61910 0.54723
 C2815 C 0.19876 0.61624 0.56485
 C2816 C 0.19097 0.60236 0.57217
 C2817 C 0.18236 0.59060 0.56218
 C2818 C 0.18179 0.59286 0.54464
 C2819 C 0.20769 0.62734 0.57514
 C2820 C 0.21561 0.64116 0.56834
 C2821 C 0.21446 0.64476 0.55094
 C2822 C 0.20463 0.63396 0.54035
 C2823 C 0.20181 0.63870 0.52343
 C2824 C 0.20844 0.65342 0.51705
 C2825 C 0.21868 0.66368 0.52702
 C2826 C 0.22231 0.65918 0.54393
 C2827 C 0.23375 0.66928 0.55313
 C2828 C 0.24049 0.68369 0.54616
 C2829 C 0.23608 0.68867 0.52982
 C2830 C 0.22526 0.67851 0.52023
 H2831 H 0.18826 0.60761 0.52369
 H2832 H 0.19144 0.60076 0.58575
 H2833 H 0.17549 0.58376 0.53663
 H2834 H 0.20866 0.62526 0.58863
 H2835 H 0.22201 0.64920 0.57725
 H2836 H 0.19392 0.63158 0.51494
 H2837 H 0.20561 0.65674 0.50411
 H2838 H 0.23797 0.66627 0.56568
 H2839 H 0.24892 0.69122 0.55385
 H2840 H 0.22199 0.68211 0.50747
 C2841 C 0.20053 0.11411 1.07394
 C2842 C 0.20093 0.11945 1.05694
 C2843 C 0.19456 0.10839 1.04436
 C2844 C 0.18891 0.09238 1.04865
 C2845 C 0.18883 0.08724 1.06552
 C2846 C 0.19449 0.09833 1.07809
 C2847 C 0.19376 0.11339 1.02756
 C2848 C 0.19883 0.12928 1.02294
 C2849 C 0.20542 0.14072 1.03494
 C2850 C 0.20717 0.13545 1.05207
 C2851 C 0.21545 0.14616 1.06367
 C2852 C 0.22151 0.16164 1.05883
 C2853 C 0.21916 0.16728 1.04240
 C2854 C 0.21074 0.15711 1.03029
 C2855 C 0.20780 0.16390 1.01410
 C2856 C 0.21356 0.17983 1.01002
 C2857 C 0.22255 0.18943 1.02182
 C2858 C 0.22523 0.18311 1.03803
 H2859 H 0.20433 0.12198 1.08439
 H2860 H 0.18442 0.08388 1.03889
 H2861 H 0.19409 0.09481 1.09126
 H2862 H 0.18896 0.10497 1.01787
 H2863 H 0.19791 0.13207 1.00968
 H2864 H 0.21797 0.14272 1.07655
 H2865 H 0.22798 0.16934 1.06812
 H2866 H 0.20082 0.15739 1.00440
 H2867 H 0.21115 0.18456 0.99747
 H2868 H 0.23183 0.19065 1.04737
 C2869 C 0.18867 0.71539 0.65247
 C2870 C 0.20590 0.71494 0.64796
 C2871 C 0.21705 0.70610 0.65861
 C2872 C 0.21115 0.69871 0.67352
 C2873 C 0.19401 0.69923 0.67775
 C2874 C 0.18288 0.70757 0.66701
 C2875 C 0.23397 0.70442 0.65419
 C2876 C 0.23999 0.71077 0.63906
 C2877 C 0.22937 0.71958 0.62796
 C2878 C 0.21230 0.72248 0.63297
 C2879 C 0.20222 0.73296 0.62293
 C2880 C 0.20827 0.73963 0.60802
 C2881 C 0.22443 0.73586 0.60230
 C2882 C 0.23523 0.72569 0.61207
 C2883 C 0.25121 0.72162 0.60518
 C2884 C 0.25608 0.72734 0.58927
 C2885 C 0.24537 0.73753 0.57985
 C2886 C 0.22966 0.74193 0.58661
 H2887 H 0.17920 0.72111 0.64470
 H2888 H 0.21983 0.69221 0.68171
 H2889 H 0.16952 0.70778 0.66971
 H2890 H 0.24259 0.69779 0.66234
 H2891 H 0.25319 0.70889 0.63657
 H2892 H 0.18963 0.73658 0.62645
 H2893 H 0.20004 0.74757 0.60068
 H2894 H 0.25999 0.71353 0.61148
 H2895 H 0.26821 0.72362 0.58424
 H2896 H 0.22110 0.74952 0.57928
 C2897 C 0.22375 0.19259 1.15705
 C2898 C 0.21379 0.20089 1.14493
 C2899 C 0.19658 0.20359 1.14883
 C2900 C 0.18953 0.19715 1.16366
 C2901 C 0.19950 0.18882 1.17554
 C2902 C 0.21673 0.18686 1.17213
 C2903 C 0.18645 0.21272 1.13791
 C2904 C 0.19311 0.21969 1.12339
 C2905 C 0.21011 0.21719 1.11883
 C2906 C 0.22034 0.20683 1.12923
 C2907 C 0.23651 0.20231 1.12331
 C2908 C 0.24253 0.20792 1.10783
 C2909 C 0.23308 0.21891 1.09808
 C2910 C 0.21701 0.22421 1.10382
 C2911 C 0.20858 0.23656 1.09443
 C2912 C 0.21537 0.24258 1.07946
 C2913 C 0.23060 0.23635 1.07305
 C2914 C 0.23954 0.22462 1.08258
 H2915 H 0.23711 0.19079 1.15546
 H2916 H 0.17616 0.19864 1.16592
 H2917 H 0.22484 0.18081 1.18119
 H2918 H 0.17325 0.21474 1.14076
 H2919 H 0.18440 0.22643 1.11555
 H2920 H 0.24454 0.19383 1.13006
 H2921 H 0.25483 0.20379 1.10358
 H2922 H 0.19689 0.24211 1.09854
 H2923 H 0.20840 0.25197 1.07268
 H2924 H 0.25154 0.22000 1.07799
 C2925 C 0.70921 0.57127 0.10589
 C2926 C 0.71301 0.55413 0.10795
 C2927 C 0.70734 0.54277 0.09530
 C2928 C 0.69878 0.54854 0.08098
 C2929 C 0.69519 0.56554 0.07914
 C2930 C 0.70038 0.57679 0.09177
 C2931 C 0.71006 0.52569 0.09707
 C2932 C 0.71768 0.51947 0.11148
 C2933 C 0.72328 0.53021 0.12459
 C2934 C 0.72175 0.54786 0.12236
 C2935 C 0.72908 0.55863 0.13454
 C2936 C 0.73667 0.55243 0.14896
 C2937 C 0.73695 0.53533 0.15204
 C2938 C 0.73032 0.52393 0.13991
 C2939 C 0.73038 0.50674 0.14398
 C2940 C 0.73627 0.50130 0.15959
 C2941 C 0.74257 0.51268 0.17158
 C2942 C 0.74331 0.52964 0.16750
 H2943 H 0.71239 0.58067 0.11519
 H2944 H 0.69472 0.53977 0.07127
 H2945 H 0.69740 0.58994 0.09078
 H2946 H 0.70593 0.51696 0.08734
 H2947 H 0.71926 0.50612 0.11183
 H2948 H 0.72937 0.57199 0.13318
 H2949 H 0.74203 0.56117 0.15802
 H2950 H 0.72526 0.49724 0.13572
 H2951 H 0.73551 0.48812 0.16245
 H2952 H 0.74794 0.53859 0.17677
 C2953 C 0.71076 1.07460 0.60537
 C2954 C 0.71081 1.05762 0.61016
 C2955 C 0.70401 1.04573 0.59863
 C2956 C 0.69807 1.05071 0.58276
 C2957 C 0.69794 1.06761 0.57832
 C2958 C 0.70430 1.07945 0.58980
 C2959 C 0.70284 1.02898 0.60312
 C2960 C 0.70767 1.02380 0.61909
 C2961 C 0.71441 1.03516 0.63107
 C2962 C 0.71687 1.05214 0.62617
 C2963 C 0.72549 1.06302 0.63735
 C2964 C 0.73089 1.05772 0.65307
 C2965 C 0.72756 1.04156 0.65847
 C2966 C 0.71904 1.03008 0.64771
 C2967 C 0.71516 1.01413 0.65426
 C2968 C 0.71988 1.00976 0.67064
 C2969 C 0.72879 1.02101 0.68092
 C2970 C 0.73260 1.03688 0.67472
 H2971 H 0.71495 1.08454 0.61364
 H2972 H 0.69308 1.04149 0.57396
 H2973 H 0.70391 1.09263 0.58687
 H2974 H 0.69777 1.01981 0.59431
 H2975 H 0.70636 1.01066 0.62155
 H2976 H 0.72868 1.07566 0.63412
 H2977 H 0.73754 1.06649 0.66119
 H2978 H 0.70810 1.00490 0.64722
 H2979 H 0.71665 0.99748 0.67523
 H2980 H 0.73918 1.04580 0.68274
 C2981 C 0.54373 0.21822 0.58038
 C2982 C 0.53671 0.20865 0.59356
 C2983 C 0.53719 0.19101 0.59178
 C2984 C 0.54575 0.18344 0.57814
 C2985 C 0.55349 0.19314 0.56568
 C2986 C 0.55186 0.21056 0.56670
 C2987 C 0.52942 0.18100 0.60378
 C2988 C 0.52126 0.18806 0.61765
 C2989 C 0.52106 0.20552 0.62042
 C2990 C 0.52937 0.21595 0.60844
 C2991 C 0.53078 0.23319 0.61214
 C2992 C 0.52450 0.24000 0.62710
 C2993 C 0.51602 0.23007 0.63870
 C2994 C 0.51355 0.21283 0.63521
 C2995 C 0.50378 0.20361 0.64679
 C2996 C 0.49788 0.21092 0.66175
 C2997 C 0.50156 0.22761 0.66581
 C2998 C 0.51030 0.23723 0.65398
 H2999 H 0.54299 0.23166 0.58017
 H3000 H 0.54676 0.16996 0.57750
 H3001 H 0.55719 0.21835 0.55696
 H3002 H 0.52968 0.16751 0.60248
 H3003 H 0.51587 0.17939 0.62645
 H3004 H 0.53742 0.24169 0.60405
 H3005 H 0.52637 0.25320 0.62964
 H3006 H 0.50040 0.19072 0.64463
 H3007 H 0.49083 0.20324 0.67043
 H3008 H 0.51291 0.25026 0.65678
 C3009 C 1.05632 0.17115 0.11677
 C3010 C 1.05176 0.18772 0.12121
 C3011 C 1.05493 0.20041 0.10925
 C3012 C 1.06147 0.19639 0.09322
 C3013 C 1.06563 0.17988 0.08894
 C3014 C 1.06320 0.16738 0.10096
 C3015 C 1.05162 0.21706 0.11336
 C3016 C 1.04563 0.22151 0.12927
 C3017 C 1.04222 0.20936 0.14161
 C3018 C 1.04452 0.19214 0.13720
 C3019 C 1.03918 0.17991 0.14876
 C3020 C 1.03241 0.18433 0.16437
 C3021 C 1.03115 0.20105 0.16930
 C3022 C 1.03631 0.21383 0.15814
 C3023 C 1.03576 0.23053 0.16418
 C3024 C 1.03015 0.23430 0.18050
 C3025 C 1.02463 0.22165 0.19122
 C3026 C 1.02501 0.20505 0.18549
 H3027 H 1.05516 0.16088 0.12538
 H3028 H 1.06339 0.20613 0.08400
 H3029 H 1.06672 0.15460 0.09810
 H3030 H 1.05390 0.22681 0.10423
 H3031 H 1.04332 0.23463 0.13136
 H3032 H 1.03962 0.16673 0.14592
 H3033 H 1.02839 0.17451 0.17280
 H3034 H 1.04011 0.24093 0.15684
 H3035 H 1.03013 0.24720 0.18477
 H3036 H 1.02111 0.19516 0.19391
 C3037 C 0.64524 0.20014 0.71393
 C3038 C 0.63286 0.20617 0.70263
 C3039 C 0.63679 0.20602 0.68514
 C3040 C 0.65207 0.19929 0.67931
 C3041 C 0.66395 0.19296 0.69064
 C3042 C 0.66050 0.19370 0.70798
 C3043 C 0.62543 0.21245 0.67349
 C3044 C 0.61014 0.21908 0.67874
 C3045 C 0.60538 0.21921 0.69594
 C3046 C 0.61677 0.21229 0.70804
 C3047 C 0.61149 0.21126 0.72505
 C3048 C 0.59567 0.21672 0.73009
 C3049 C 0.58457 0.22376 0.71854
 C3050 C 0.58938 0.22553 0.70139
 C3051 C 0.57788 0.23351 0.69042
 C3052 C 0.56205 0.23868 0.69611
 C3053 C 0.55709 0.23610 0.71287
 C3054 C 0.56856 0.22885 0.72407
 H3055 H 0.64366 0.20038 0.72745
 H3056 H 0.65468 0.19879 0.66586
 H3057 H 0.66967 0.18919 0.71696
 H3058 H 0.62839 0.21238 0.66011
 H3059 H 0.60207 0.22356 0.66885
 H3060 H 0.61911 0.20579 0.73477
 H3061 H 0.59206 0.21536 0.74323
 H3062 H 0.58070 0.23603 0.67738
 H3063 H 0.55350 0.24438 0.68720
 H3064 H 0.56498 0.22705 0.73716
 C3065 C 1.16066 0.21412 0.20615
 C3066 C 1.14725 0.20399 0.21190
 C3067 C 1.14960 0.18643 0.21137
 C3068 C 1.16420 0.17946 0.20431
 C3069 C 1.17721 0.18962 0.19830
 C3070 C 1.17543 0.20700 0.19964
 C3071 C 1.13733 0.17584 0.21780
 C3072 C 1.12278 0.18224 0.22504
 C3073 C 1.11964 0.19959 0.22562
 C3074 C 1.13170 0.21060 0.21825
 C3075 C 1.12752 0.22768 0.21693
 C3076 C 1.11208 0.23379 0.22261
 C3077 C 1.10053 0.22332 0.23052
 C3078 C 1.10448 0.20620 0.23273
 C3079 C 1.09308 0.19637 0.24206
 C3080 C 1.07793 0.20297 0.24788
 C3081 C 1.07347 0.21956 0.24462
 C3082 C 1.08496 0.22977 0.23610
 H3083 H 1.16027 0.22756 0.20689
 H3084 H 1.16544 0.16600 0.20340
 H3085 H 1.18550 0.21511 0.19552
 H3086 H 1.13903 0.16240 0.21735
 H3087 H 1.11384 0.17315 0.22943
 H3088 H 1.13567 0.23655 0.21086
 H3089 H 1.10922 0.24690 0.22090
 H3090 H 1.09560 0.18357 0.24529
 H3091 H 1.06941 0.19479 0.25457
 H3092 H 1.08178 0.24272 0.23380
 C3093 C 0.10164 0.70908 0.53552
 C3094 C 0.11392 0.71669 0.54607
 C3095 C 0.11015 0.71829 0.56352
 C3096 C 0.09530 0.71150 0.57014
 C3097 C 0.08379 0.70298 0.55970
 C3098 C 0.08687 0.70243 0.54226
 C3099 C 0.12137 0.72634 0.57441
 C3100 C 0.13654 0.73256 0.56850
 C3101 C 0.14129 0.73069 0.55138
 C3102 C 0.12982 0.72255 0.53998
 C3103 C 0.13489 0.71997 0.52304
 C3104 C 0.15069 0.72483 0.51747
 C3105 C 0.16201 0.73268 0.52840
 C3106 C 0.15738 0.73615 0.54540
 C3107 C 0.16922 0.74473 0.55572
 C3108 C 0.18517 0.74883 0.54962
 C3109 C 0.18991 0.74457 0.53307
 C3110 C 0.17811 0.73677 0.52245
 H3111 H 0.10300 0.70806 0.52201
 H3112 H 0.09304 0.71249 0.58360
 H3113 H 0.07788 0.69658 0.53378
 H3114 H 0.11848 0.72772 0.58775
 H3115 H 0.14450 0.73834 0.57788
 H3116 H 0.12713 0.71373 0.51379
 H3117 H 0.15414 0.72223 0.50444
 H3118 H 0.16664 0.74840 0.56859
 H3119 H 0.19400 0.75496 0.55808
 H3120 H 0.18153 0.73367 0.50952
 C3121 C 0.09795 0.19730 1.03925
 C3122 C 0.11095 0.20486 1.04888
 C3123 C 0.10991 0.20383 1.06673
 C3124 C 0.09718 0.19437 1.07438
 C3125 C 0.08486 0.18628 1.06459
 C3126 C 0.08514 0.18827 1.04702
 C3127 C 0.12174 0.21201 1.07687
 C3128 C 0.13476 0.22109 1.06971
 C3129 C 0.13682 0.22186 1.05200
 C3130 C 0.12498 0.21323 1.04143
 C3131 C 0.12802 0.21253 1.02384
 C3132 C 0.14228 0.21969 1.01684
 C3133 C 0.15379 0.22833 1.02694
 C3134 C 0.15087 0.23021 1.04454
 C3135 C 0.16232 0.24018 1.05394
 C3136 C 0.17677 0.24668 1.04642
 C3137 C 0.18039 0.24337 1.02938
 C3138 C 0.16851 0.23467 1.01959
 H3139 H 0.09717 0.19832 1.02570
 H3140 H 0.09705 0.19304 1.08800
 H3141 H 0.07545 0.18261 1.03922
 H3142 H 0.12096 0.21134 1.09053
 H3143 H 0.14351 0.22674 1.07845
 H3144 H 0.12000 0.20580 1.01517
 H3145 H 0.14440 0.21830 1.00336
 H3146 H 0.16047 0.24318 1.06713
 H3147 H 0.18545 0.25381 1.05416
 H3148 H 0.17093 0.23242 1.00626
 C3149 C 0.59716 0.53640 0.21022
 C3150 C 0.61103 0.53182 0.19993
 C3151 C 0.60930 0.53364 0.18220
 C3152 C 0.59488 0.54115 0.17537
 C3153 C 0.58177 0.54664 0.18589
 C3154 C 0.58283 0.54366 0.20327
 C3155 C 0.62215 0.52837 0.17140
 C3156 C 0.63687 0.52156 0.17777
 C3157 C 0.63958 0.52020 0.19535
 C3158 C 0.62659 0.52576 0.20662
 C3159 C 0.62988 0.52584 0.22417
 C3160 C 0.64536 0.52087 0.23051
 C3161 C 0.65803 0.51515 0.21973
 C3162 C 0.65514 0.51415 0.20204
 C3163 C 0.66807 0.50727 0.19180
 C3164 C 0.68347 0.50256 0.19874
 C3165 C 0.68660 0.50457 0.21607
 C3166 C 0.67370 0.51064 0.22654
 H3167 H 0.59696 0.53453 0.22369
 H3168 H 0.59413 0.54331 0.16188
 H3169 H 0.57263 0.54740 0.21157
 H3170 H 0.62086 0.52965 0.15783
 H3171 H 0.64623 0.51813 0.16851
 H3172 H 0.62096 0.53037 0.23339
 H3173 H 0.64746 0.52160 0.24404
 H3174 H 0.66669 0.50527 0.17838
 H3175 H 0.69317 0.49776 0.19036
 H3176 H 0.67590 0.51193 0.24002
 C3177 C 0.59169 1.03087 0.70460
 C3178 C 0.60494 1.04132 0.71035
 C3179 C 0.60211 1.05881 0.71043
 C3180 C 0.58715 1.06542 0.70390
 C3181 C 0.57442 1.05491 0.69769
 C3182 C 0.57672 1.03760 0.69842
 C3183 C 0.61432 1.06967 0.71679
 C3184 C 0.62940 1.06361 0.72308
 C3185 C 0.63309 1.04636 0.72283
 C3186 C 0.62086 1.03508 0.71591
 C3187 C 0.62520 1.01804 0.71415
 C3188 C 0.64095 1.01223 0.71887
 C3189 C 0.65284 1.02299 0.72600
 C3190 C 0.64891 1.04009 0.72863
 C3191 C 0.66105 1.05022 0.73691
 C3192 C 0.67673 1.04380 0.74141
 C3193 C 0.68090 1.02716 0.73775
 C3194 C 0.66877 1.01674 0.73030
 H3195 H 0.59240 1.01744 0.70486
 H3196 H 0.58555 1.07885 0.70332
 H3197 H 0.56692 1.02925 0.69398
 H3198 H 0.61221 1.08305 0.71688
 H3199 H 0.63821 1.07291 0.72747
 H3200 H 0.61690 1.00892 0.70852
 H3201 H 0.64387 0.99912 0.71687
 H3202 H 0.65882 1.06311 0.74023
 H3203 H 0.68577 1.05206 0.74740
 H3204 H 0.67175 1.00374 0.72775
 C3205 C 0.88934 0.42124 0.30146
 C3206 C 0.88623 0.43829 0.29808
 C3207 C 0.89858 0.45006 0.30325
 C3208 C 0.91372 0.44474 0.31064
 C3209 C 0.91655 0.42778 0.31402
 C3210 C 0.90414 0.41617 0.30939
 C3211 C 0.89566 0.46711 0.30121
 C3212 C 0.88053 0.47281 0.29459
 C3213 C 0.86789 0.46160 0.28912
 C3214 C 0.87117 0.44406 0.29011
 C3215 C 0.85946 0.43286 0.28280
 C3216 C 0.84483 0.43854 0.27520
 C3217 C 0.84100 0.45552 0.27503
 C3218 C 0.85223 0.46733 0.28231
 C3219 C 0.84710 0.48431 0.28274
 C3220 C 0.83167 0.48926 0.27585
 C3221 C 0.82108 0.47757 0.26802
 C3222 C 0.82585 0.46074 0.26768
 H3223 H 0.88031 0.41154 0.29870
 H3224 H 0.92324 0.45386 0.31409
 H3225 H 0.90578 0.40306 0.31216
 H3226 H 0.90506 0.47618 0.30507
 H3227 H 0.87929 0.48615 0.29343
 H3228 H 0.86150 0.41956 0.28226
 H3229 H 0.83630 0.42948 0.26959
 H3230 H 0.85452 0.49397 0.28871
 H3231 H 0.82808 0.50231 0.27649
 H3232 H 0.81746 0.45157 0.26208
 C3233 C 0.88109 0.94844 0.82825
 C3234 C 0.86811 0.94154 0.81814
 C3235 C 0.86626 0.92390 0.81795
 C3236 C 0.87729 0.91375 0.82718
 C3237 C 0.89068 0.92080 0.83625
 C3238 C 0.89221 0.93824 0.83696
 C3239 C 0.85379 0.91642 0.80808
 C3240 C 0.84355 0.92597 0.79778
 C3241 C 0.84527 0.94351 0.79705
 C3242 C 0.85732 0.95149 0.80785
 C3243 C 0.85824 0.96912 0.80791
 C3244 C 0.84767 0.97865 0.79793
 C3245 C 0.83594 0.97106 0.78727
 C3246 C 0.83504 0.95338 0.78614
 C3247 C 0.82396 0.94635 0.77405
 C3248 C 0.81322 0.95641 0.76468
 C3249 C 0.81295 0.97377 0.76716
 C3250 C 0.82473 0.98107 0.77811
 H3251 H 0.88351 0.96164 0.82923
 H3252 H 0.87601 0.90026 0.82667
 H3253 H 0.90252 0.94408 0.84373
 H3254 H 0.85217 0.90298 0.80804
 H3255 H 0.83423 0.91919 0.79062
 H3256 H 0.86673 0.97609 0.81589
 H3257 H 0.84853 0.99215 0.79876
 H3258 H 0.82321 0.93312 0.77153
 H3259 H 0.80445 0.95041 0.75609
 H3260 H 0.82481 0.99451 0.77993
 C3261 C 0.35357 0.32368 0.79505
 C3262 C 0.35704 0.30656 0.79206
 C3263 C 0.34585 0.29467 0.79902
 C3264 C 0.33143 0.29987 0.80788
 C3265 C 0.32817 0.31687 0.81065
 C3266 C 0.33945 0.32867 0.80426
 C3267 C 0.34917 0.27765 0.79726
 C3268 C 0.36371 0.27209 0.78925
 C3269 C 0.37532 0.28341 0.78221
 C3270 C 0.37145 0.30086 0.78282
 C3271 C 0.38196 0.31198 0.77399
 C3272 C 0.39621 0.30639 0.76550
 C3273 C 0.40082 0.28960 0.76587
 C3274 C 0.39059 0.27787 0.77440
 C3275 C 0.39641 0.26117 0.77525
 C3276 C 0.41170 0.25645 0.76792
 C3277 C 0.42150 0.26807 0.75923
 C3278 C 0.41585 0.28456 0.75804
 H3279 H 0.36181 0.33352 0.79093
 H3280 H 0.32277 0.29067 0.81283
 H3281 H 0.33741 0.34187 0.80659
 H3282 H 0.34058 0.26850 0.80241
 H3283 H 0.36529 0.25875 0.78839
 H3284 H 0.37929 0.32513 0.77304
 H3285 H 0.40392 0.31539 0.75889
 H3286 H 0.38980 0.25161 0.78204
 H3287 H 0.41593 0.24366 0.76914
 H3288 H 0.42357 0.29368 0.75165
 C3289 C 0.84853 0.29474 0.28194
 C3290 C 0.86155 0.28895 0.29258
 C3291 C 0.85857 0.28918 0.31026
 C3292 C 0.84372 0.29611 0.31691
 C3293 C 0.83116 0.30229 0.30623
 C3294 C 0.83359 0.30115 0.28869
 C3295 C 0.87047 0.28263 0.32128
 C3296 C 0.88523 0.27556 0.31515
 C3297 C 0.88895 0.27528 0.29769
 C3298 C 0.87731 0.28282 0.28631
 C3299 C 0.88209 0.28451 0.26921
 C3300 C 0.89764 0.27888 0.26339
 C3301 C 0.90874 0.27071 0.27417
 C3302 C 0.90426 0.26826 0.29133
 C3303 C 0.91522 0.25870 0.30142
 C3304 C 0.93037 0.25267 0.29498
 C3305 C 0.93533 0.25606 0.27836
 C3306 C 0.92435 0.26498 0.26793
 H3307 H 0.84938 0.29416 0.26834
 H3308 H 0.84202 0.29688 0.33049
 H3309 H 0.82388 0.30540 0.28015
 H3310 H 0.86831 0.28285 0.33481
 H3311 H 0.89385 0.27102 0.32455
 H3312 H 0.87431 0.29079 0.26011
 H3313 H 0.90094 0.28081 0.25026
 H3314 H 0.91230 0.25535 0.31424
 H3315 H 0.93842 0.24556 0.30325
 H3316 H 0.92789 0.26737 0.25494
 C3317 C 0.41716 0.79281 0.47520
 C3318 C 0.40308 0.78824 0.46518
 C3319 C 0.40531 0.78757 0.44739
 C3320 C 0.42065 0.79228 0.44008
 C3321 C 0.43426 0.79732 0.45016
 C3322 C 0.43245 0.79723 0.46777
 C3323 C 0.39217 0.78244 0.43692
 C3324 C 0.37676 0.77784 0.44366
 C3325 C 0.37372 0.77857 0.46124
 C3326 C 0.38692 0.78436 0.47214
 C3327 C 0.38337 0.78656 0.48952
 C3328 C 0.36754 0.78311 0.49608
 C3329 C 0.35474 0.77690 0.48574
 C3330 C 0.35774 0.77415 0.46825
 C3331 C 0.34459 0.76698 0.45851
 C3332 C 0.32905 0.76330 0.46574
 C3333 C 0.32596 0.76666 0.48287
 C3334 C 0.33891 0.77343 0.49283
 H3335 H 0.41686 0.79294 0.48882
 H3336 H 0.42191 0.79237 0.42643
 H3337 H 0.44291 0.80082 0.47579
 H3338 H 0.39380 0.78195 0.42332
 H3339 H 0.36727 0.77427 0.43460
 H3340 H 0.39245 0.79146 0.49838
 H3341 H 0.36534 0.78525 0.50946
 H3342 H 0.34595 0.76380 0.44531
 H3343 H 0.31930 0.75800 0.45775
 H3344 H 0.33672 0.77583 0.50617
 C3345 C 0.40142 0.30329 0.96102
 C3346 C 0.38766 0.29561 0.95267
 C3347 C 0.38861 0.29375 0.93483
 C3348 C 0.40217 0.30051 0.92579
 C3349 C 0.41539 0.30867 0.93421
 C3350 C 0.41503 0.30961 0.95192
 C3351 C 0.37590 0.28538 0.92605
 C3352 C 0.36223 0.27871 0.93455
 C3353 C 0.36042 0.28061 0.95223
 C3354 C 0.37302 0.28974 0.96135
 C3355 C 0.37022 0.29330 0.97867
 C3356 C 0.35560 0.28818 0.98678
 C3357 C 0.34348 0.27878 0.97820
 C3358 C 0.34603 0.27432 0.96098
 C3359 C 0.33401 0.26375 0.95319
 C3360 C 0.31953 0.25888 0.96176
 C3361 C 0.31639 0.26436 0.97837
 C3362 C 0.32864 0.27405 0.98665
 H3363 H 0.40218 0.30441 0.97458
 H3364 H 0.40230 0.29969 0.91210
 H3365 H 0.42529 0.31549 0.95875
 H3366 H 0.37654 0.28395 0.91242
 H3367 H 0.35286 0.27271 0.92673
 H3368 H 0.37880 0.30069 0.98617
 H3369 H 0.35378 0.29162 0.99995
 H3370 H 0.33545 0.25891 0.94050
 H3371 H 0.31049 0.25117 0.95504
 H3372 H 0.32653 0.27815 0.99959
 C3373 C 0.78779 0.47507 0.40358
 C3374 C 0.78509 0.46346 0.39020
 C3375 C 0.78630 0.44623 0.39398
 C3376 C 0.79117 0.44104 0.41016
 C3377 C 0.79458 0.45276 0.42300
 C3378 C 0.79243 0.46975 0.41965
 C3379 C 0.78294 0.43424 0.38154
 C3380 C 0.77844 0.43890 0.36530
 C3381 C 0.77754 0.45587 0.36070
 C3382 C 0.78135 0.46834 0.37325
 C3383 C 0.78187 0.48523 0.36830
 C3384 C 0.77870 0.48982 0.35174
 C3385 C 0.77448 0.47790 0.33950
 C3386 C 0.77343 0.46079 0.34384
 C3387 C 0.76826 0.44934 0.33107
 C3388 C 0.76485 0.45465 0.31468
 C3389 C 0.76656 0.47148 0.31036
 C3390 C 0.77132 0.48304 0.32289
 H3391 H 0.78631 0.48834 0.40210
 H3392 H 0.79276 0.42786 0.41268
 H3393 H 0.79466 0.47897 0.42952
 H3394 H 0.78383 0.42105 0.38436
 H3395 H 0.77630 0.42881 0.35646
 H3396 H 0.78526 0.49524 0.37684
 H3397 H 0.77953 0.50292 0.34850
 H3398 H 0.76649 0.43622 0.33336
 H3399 H 0.76107 0.44547 0.30525
 H3400 H 0.77239 0.49615 0.31974
 C3401 C 0.83938 0.93506 0.86470
 C3402 C 0.82183 0.93827 0.86450
 C3403 C 0.81177 0.93026 0.87679
 C3404 C 0.81919 0.92042 0.88932
 C3405 C 0.83667 0.91814 0.88988
 C3406 C 0.84661 0.92525 0.87726
 C3407 C 0.79436 0.93233 0.87676
 C3408 C 0.78659 0.94238 0.86491
 C3409 C 0.79600 0.95111 0.85272
 C3410 C 0.81395 0.94921 0.85268
 C3411 C 0.82346 0.95870 0.84119
 C3412 C 0.81574 0.96923 0.82977
 C3413 C 0.79830 0.97051 0.82898
 C3414 C 0.78810 0.96167 0.84054
 C3415 C 0.77040 0.96342 0.83901
 C3416 C 0.76330 0.97275 0.82600
 C3417 C 0.77351 0.98105 0.81437
 C3418 C 0.79102 0.98027 0.81629
 H3419 H 0.84790 0.93990 0.85536
 H3420 H 0.81137 0.91496 0.89903
 H3421 H 0.86009 0.92336 0.87728
 H3422 H 0.78661 0.92613 0.88607
 H3423 H 0.77311 0.94328 0.86589
 H3424 H 0.83700 0.95854 0.84089
 H3425 H 0.82352 0.97642 0.82135
 H3426 H 0.76163 0.95720 0.84718
 H3427 H 0.74973 0.97311 0.82477
 H3428 H 0.79908 0.98645 0.80723
 C3429 C 0.30567 0.77833 0.35065
 C3430 C 0.30028 0.78885 0.36412
 C3431 C 0.29979 0.80628 0.36118
 C3432 C 0.30527 0.81280 0.34574
 C3433 C 0.31083 0.80224 0.33265
 C3434 C 0.31079 0.78496 0.33520
 C3435 C 0.29393 0.81720 0.37368
 C3436 C 0.28826 0.81125 0.38905
 C3437 C 0.28857 0.79404 0.39273
 C3438 C 0.29527 0.78271 0.38032
 C3439 C 0.29715 0.76575 0.38469
 C3440 C 0.29249 0.76001 0.40054
 C3441 C 0.28530 0.77076 0.41251
 C3442 C 0.28284 0.78784 0.40862
 C3443 C 0.27460 0.79801 0.42079
 C3444 C 0.26973 0.79165 0.43636
 C3445 C 0.27287 0.77496 0.44048
 C3446 C 0.28059 0.76453 0.42841
 H3447 H 0.30582 0.76491 0.35151
 H3448 H 0.30537 0.82620 0.34393
 H3449 H 0.31480 0.77656 0.32517
 H3450 H 0.29363 0.83055 0.37152
 H3451 H 0.28418 0.82061 0.39803
 H3452 H 0.30270 0.75663 0.37627
 H3453 H 0.29444 0.74694 0.40342
 H3454 H 0.27147 0.81090 0.41863
 H3455 H 0.26371 0.80003 0.44536
 H3456 H 0.28288 0.75154 0.43135
 C3457 C 0.31601 0.29900 0.86116
 C3458 C 0.29883 0.29714 0.86554
 C3459 C 0.28663 0.30378 0.85440
 C3460 C 0.29154 0.31138 0.83929
 C3461 C 0.30859 0.31328 0.83524
 C3462 C 0.32074 0.30704 0.84634
 C3463 C 0.26959 0.30308 0.85853
 C3464 C 0.26436 0.29659 0.87385
 C3465 C 0.27602 0.29007 0.88551
 C3466 C 0.29341 0.28944 0.88083
 C3467 C 0.30475 0.28103 0.89152
 C3468 C 0.29947 0.27421 0.90667
 C3469 C 0.28283 0.27591 0.91202
 C3470 C 0.27088 0.28403 0.90165
 C3471 C 0.25442 0.28634 0.90818
 C3472 C 0.25014 0.28080 0.92430
 C3473 C 0.26195 0.27250 0.93426
 C3474 C 0.27820 0.26987 0.92793
 H3475 H 0.32612 0.29497 0.86921
 H3476 H 0.28206 0.31618 0.83076
 H3477 H 0.33400 0.30869 0.84369
 H3478 H 0.26019 0.30796 0.84996
 H3479 H 0.25098 0.29651 0.87606
 H3480 H 0.31780 0.27917 0.88833
 H3481 H 0.30863 0.26788 0.91449
 H3482 H 0.24475 0.29296 0.90145
 H3483 H 0.23755 0.28313 0.92905
 H3484 H 0.28752 0.26381 0.93577
 C3485 C 0.44267 0.28452 0.89265
 C3486 C 0.44680 0.29442 0.87850
 C3487 C 0.44566 0.31201 0.88046
 C3488 C 0.43968 0.31917 0.89560
 C3489 C 0.43525 0.30917 0.90936
 C3490 C 0.43710 0.29182 0.90778
 C3491 C 0.45040 0.32241 0.86728
 C3492 C 0.45647 0.31580 0.85217
 C3493 C 0.45762 0.29838 0.84942
 C3494 C 0.45211 0.28751 0.86257
 C3495 C 0.45164 0.27016 0.85918
 C3496 C 0.45650 0.26362 0.84357
 C3497 C 0.46252 0.27399 0.83088
 C3498 C 0.46361 0.29147 0.83376
 C3499 C 0.47075 0.30130 0.82082
 C3500 C 0.47588 0.29413 0.80551
 C3501 C 0.47401 0.27697 0.80243
 C3502 C 0.46741 0.26694 0.81525
 H3503 H 0.44392 0.27112 0.89257
 H3504 H 0.43834 0.33261 0.89665
 H3505 H 0.43418 0.28384 0.91835
 H3506 H 0.44951 0.33587 0.86869
 H3507 H 0.45965 0.32476 0.84263
 H3508 H 0.44700 0.26128 0.86818
 H3509 H 0.45562 0.25025 0.84146
 H3510 H 0.47278 0.31455 0.82220
 H3511 H 0.48101 0.30217 0.79586
 H3512 H 0.46615 0.25360 0.81309
 C3513 C 0.97078 0.30887 0.40780
 C3514 C 0.96139 0.29935 0.39592
 C3515 C 0.94390 0.29748 0.39886
 C3516 C 0.93609 0.30584 0.41240
 C3517 C 0.94549 0.31553 0.42384
 C3518 C 0.96293 0.31670 0.42157
 C3519 C 0.93421 0.28736 0.38823
 C3520 C 0.94152 0.27882 0.37477
 C3521 C 0.95880 0.28056 0.37103
 C3522 C 0.96873 0.29157 0.38132
 C3523 C 0.98542 0.29495 0.37629
 C3524 C 0.99219 0.28781 0.36171
 C3525 C 0.98288 0.27652 0.35196
 C3526 C 0.96629 0.27223 0.35685
 C3527 C 0.95788 0.25971 0.34733
 C3528 C 0.96519 0.25274 0.33288
 C3529 C 0.98102 0.25805 0.32730
 C3530 C 0.98997 0.26969 0.33717
 H3531 H 0.98425 0.31019 0.40703
 H3532 H 0.92257 0.30488 0.41399
 H3533 H 0.97050 0.32380 0.43047
 H3534 H 0.92082 0.28593 0.39041
 H3535 H 0.93309 0.27148 0.36703
 H3536 H 0.99338 0.30369 0.38298
 H3537 H 1.00490 0.29114 0.35806
 H3538 H 0.94572 0.25489 0.35084
 H3539 H 0.95818 0.24340 0.32583
 H3540 H 1.00243 0.27360 0.33324
 C3541 C 0.46129 0.40638 0.78810
 C3542 C 0.45092 0.39304 0.78250
 C3543 C 0.43325 0.39550 0.78298
 C3544 C 0.42641 0.41020 0.78992
 C3545 C 0.43684 0.42311 0.79585
 C3546 C 0.45432 0.42117 0.79453
 C3547 C 0.42245 0.38323 0.77665
 C3548 C 0.42877 0.36859 0.76957
 C3549 C 0.44623 0.36537 0.76908
 C3550 C 0.45743 0.37745 0.77634
 C3551 C 0.47465 0.37330 0.77776
 C3552 C 0.48073 0.35792 0.77217
 C3553 C 0.47009 0.34634 0.76433
 C3554 C 0.45281 0.35015 0.76213
 C3555 C 0.44283 0.33860 0.75293
 C3556 C 0.44953 0.32352 0.74709
 C3557 C 0.46632 0.31927 0.75034
 C3558 C 0.47661 0.33089 0.75878
 H3559 H 0.47482 0.40592 0.78734
 H3560 H 0.41286 0.41155 0.79085
 H3561 H 0.46263 0.43114 0.79861
 H3562 H 0.40893 0.38501 0.77705
 H3563 H 0.41954 0.35968 0.76521
 H3564 H 0.48366 0.38144 0.78380
 H3565 H 0.49396 0.35511 0.77389
 H3566 H 0.42986 0.34096 0.74977
 H3567 H 0.44136 0.31501 0.74024
 H3568 H 0.48973 0.32792 0.76105
 C3569 C 0.95121 0.37998 0.32764
 C3570 C 0.95390 0.37476 0.31068
 C3571 C 0.94846 0.38561 0.29770
 C3572 C 0.94129 0.40121 0.30168
 C3573 C 0.93900 0.40624 0.31853
 C3574 C 0.94386 0.39542 0.33142
 C3575 C 0.95022 0.38087 0.28080
 C3576 C 0.95694 0.36543 0.27638
 C3577 C 0.96251 0.35412 0.28876
 C3578 C 0.96154 0.35911 0.30617
 C3579 C 0.96846 0.34842 0.31844
 C3580 C 0.97565 0.33318 0.31395
 C3581 C 0.97594 0.32776 0.29714
 C3582 C 0.96919 0.33804 0.28430
 C3583 C 0.96909 0.33161 0.26756
 C3584 C 0.97546 0.31577 0.26381
 C3585 C 0.98234 0.30581 0.27649
 C3586 C 0.98270 0.31196 0.29314
 H3587 H 0.95434 0.37233 0.33830
 H3588 H 0.93749 0.40953 0.29166
 H3589 H 0.94188 0.39894 0.34453
 H3590 H 0.94620 0.38915 0.27083
 H3591 H 0.95793 0.36290 0.26302
 H3592 H 0.96884 0.35161 0.33169
 H3593 H 0.98084 0.32542 0.32382
 H3594 H 0.96375 0.33826 0.25709
 H3595 H 0.97493 0.31126 0.25085
 H3596 H 0.98772 0.30420 0.30309
 C3597 C 0.28761 0.90808 0.45555
 C3598 C 0.29798 0.89432 0.45967
 C3599 C 0.31559 0.89616 0.45749
 C3600 C 0.32227 0.91074 0.45047
 C3601 C 0.31179 0.92406 0.44599
 C3602 C 0.29446 0.92268 0.44889
 C3603 C 0.32650 0.88340 0.46213
 C3604 C 0.32039 0.86878 0.46906
 C3605 C 0.30296 0.86613 0.47123
 C3606 C 0.29154 0.87885 0.46589
 C3607 C 0.27410 0.87546 0.46641
 C3608 C 0.26801 0.86025 0.47207
 C3609 C 0.27895 0.84800 0.47794
 C3610 C 0.29655 0.85093 0.47806
 C3611 C 0.30702 0.83852 0.48512
 C3612 C 0.30032 0.82361 0.49108
 C3613 C 0.28301 0.82046 0.49017
 C3614 C 0.27237 0.83277 0.48366
 H3615 H 0.27420 0.90808 0.45754
 H3616 H 0.33570 0.91160 0.44822
 H3617 H 0.28616 0.93293 0.44583
 H3618 H 0.33998 0.88474 0.46043
 H3619 H 0.32970 0.85949 0.47204
 H3620 H 0.26479 0.88415 0.46197
 H3621 H 0.25454 0.85810 0.47194
 H3622 H 0.32042 0.84001 0.48649
 H3623 H 0.30883 0.81436 0.49615
 H3624 H 0.25891 0.83055 0.48318
 C3625 C 0.28307 0.40756 0.95097
 C3626 C 0.29286 0.39368 0.95602
 C3627 C 0.31060 0.39510 0.95480
 C3628 C 0.31802 0.40937 0.94787
 C3629 C 0.30814 0.42282 0.94256
 C3630 C 0.29064 0.42187 0.94445
 C3631 C 0.32092 0.38223 0.96040
 C3632 C 0.31407 0.36795 0.96738
 C3633 C 0.29649 0.36574 0.96863
 C3634 C 0.28570 0.37854 0.96228
 C3635 C 0.26819 0.37554 0.96190
 C3636 C 0.26142 0.36060 0.96757
 C3637 C 0.27172 0.34828 0.97437
 C3638 C 0.28935 0.35088 0.97549
 C3639 C 0.29910 0.33846 0.98348
 C3640 C 0.29176 0.32377 0.98923
 C3641 C 0.27450 0.32084 0.98721
 C3642 C 0.26450 0.33326 0.97992
 H3643 H 0.26957 0.40788 0.95218
 H3644 H 0.33157 0.40997 0.94646
 H3645 H 0.28277 0.43226 0.94078
 H3646 H 0.33450 0.38324 0.95944
 H3647 H 0.32297 0.35856 0.97114
 H3648 H 0.25935 0.38429 0.95669
 H3649 H 0.24794 0.35871 0.96669
 H3650 H 0.31241 0.33977 0.98569
 H3651 H 0.29979 0.31445 0.99493
 H3652 H 0.25107 0.33124 0.97857
 C3653 C 0.78446 0.34094 0.29742
 C3654 C 0.79477 0.35381 0.29098
 C3655 C 0.81243 0.35126 0.29105
 C3656 C 0.81936 0.33695 0.29838
 C3657 C 0.80897 0.32455 0.30512
 C3658 C 0.79149 0.32656 0.30429
 C3659 C 0.82313 0.36305 0.28394
 C3660 C 0.81670 0.37733 0.27654
 C3661 C 0.79925 0.38065 0.27647
 C3662 C 0.78819 0.36904 0.28444
 C3663 C 0.77103 0.37333 0.28617
 C3664 C 0.76486 0.38839 0.28024
 C3665 C 0.77536 0.39950 0.27183
 C3666 C 0.79257 0.39554 0.26929
 C3667 C 0.80236 0.40666 0.25958
 C3668 C 0.79555 0.42153 0.25362
 C3669 C 0.77886 0.42594 0.25726
 C3670 C 0.76875 0.41467 0.26611
 H3671 H 0.77092 0.34143 0.29705
 H3672 H 0.83291 0.33551 0.29900
 H3673 H 0.78324 0.31696 0.30910
 H3674 H 0.83664 0.36119 0.28401
 H3675 H 0.82585 0.38590 0.27157
 H3676 H 0.76212 0.36559 0.29270
 H3677 H 0.75168 0.39134 0.28223
 H3678 H 0.81524 0.40413 0.25616
 H3679 H 0.80355 0.42974 0.24638
 H3680 H 0.75569 0.41774 0.26865
   
