data_POSCAR
  _audit_creation_date              2014-09-24
  _audit_creation_method            'ToBaCCo'
  _symmetry_space_group_name_H-M    'P1'
  _symmetry_Int_Tables_number       1
  _symmetry_cell_setting            triclinic
  loop_
  _symmetry_equiv_pos_as_xyz
 x,y,z
_cell_length_a 57.6235
_cell_length_b 57.5346
_cell_length_c 57.4369
_cell_angle_alpha 89.941800
_cell_angle_beta 89.988100
_cell_angle_gamma 89.980800
loop_
  _atom_site_label
  _atom_site_type_symbol
  _atom_site_fract_x
  _atom_site_fract_y
  _atom_site_fract_z
N1 N 0.36422 1.34901 0.30037
 N2 N 0.34798 1.36510 0.30056
 C3 C 0.35140 1.37965 0.28245
 C4 C 0.37077 1.37215 0.27049
 C5 C 0.37854 1.35275 0.28220
 H6 H 0.34068 1.39451 0.27827
 H7 H 0.39345 1.34217 0.27788
 Cu8 Cu 0.32399 1.36504 0.32451
 Cu9 Cu 0.36565 1.32434 0.32362
 Cu10 Cu 0.32302 1.32424 0.36633
 N11 N 0.30007 1.36500 0.34853
 N12 N 0.29984 1.34889 0.36482
 C13 C 0.28169 1.35259 0.37913
 C14 C 0.27002 1.37199 0.37130
 C15 C 0.28200 1.37952 0.35191
 H16 H 0.27733 1.34200 0.39407
 H17 H 0.27785 1.39439 0.34115
 N18 N 0.34796 1.30080 0.36486
 N19 N 0.36419 1.30085 0.34860
 C20 C 0.37858 1.28274 0.35224
 C21 C 0.37098 1.27089 0.37162
 C22 C 0.35162 1.28266 0.37927
 H23 H 0.39349 1.27844 0.34164
 H24 H 0.34104 1.27829 0.39420
 H25 H 0.33057 1.32375 0.33124
 H26 H 0.34923 1.34244 0.35001
 N27 N 0.36431 0.84886 0.80077
 N28 N 0.34819 0.86507 0.80108
 C29 C 0.35167 0.87967 0.78306
 C30 C 0.37092 0.87208 0.77102
 C31 C 0.37857 0.85258 0.78259
 H32 H 0.34105 0.89461 0.77893
 H33 H 0.39338 0.84193 0.77813
 Cu34 Cu 0.32404 0.86517 0.82474
 Cu35 Cu 0.36568 0.82409 0.82379
 Cu36 Cu 0.32475 0.82575 0.86777
 N37 N 0.30016 0.86468 0.84870
 N38 N 0.30029 0.84888 0.86529
 C39 C 0.28210 0.85248 0.87954
 C40 C 0.27006 0.87148 0.87136
 C41 C 0.28185 0.87889 0.85185
 H42 H 0.27811 0.84226 0.89485
 H43 H 0.27751 0.89361 0.84097
 N44 N 0.34834 0.80115 0.86547
 N45 N 0.36408 0.80067 0.84876
 C46 C 0.37808 0.78221 0.85208
 C47 C 0.37066 0.77065 0.87170
 C48 C 0.35184 0.78294 0.87983
 H49 H 0.39269 0.77760 0.84120
 H50 H 0.34164 0.77902 0.89514
 H51 H 0.33085 0.82421 0.83241
 H52 H 0.35061 0.84339 0.84961
 N53 N 0.86456 1.34886 0.80028
 N54 N 0.84830 1.36493 0.80046
 C55 C 0.85175 1.37954 0.78240
 C56 C 0.87114 1.37207 0.77047
 C57 C 0.87890 1.35265 0.78216
 H58 H 0.84104 1.39442 0.77825
 H59 H 0.89383 1.34209 0.77783
 Cu60 Cu 0.82427 1.36488 0.82429
 Cu61 Cu 0.86594 1.32421 0.82354
 Cu62 Cu 0.82334 1.32412 0.86625
 N63 N 0.80051 1.36485 0.84838
 N64 N 0.80027 1.34878 0.86470
 C65 C 0.78217 1.35257 0.87902
 C66 C 0.77056 1.37197 0.87118
 C67 C 0.78251 1.37943 0.85178
 H68 H 0.77779 1.34203 0.89399
 H69 H 0.77837 1.39431 0.84104
 N70 N 0.84822 1.30068 0.86476
 N71 N 0.86445 1.30071 0.84849
 C72 C 0.87883 1.28260 0.85215
 C73 C 0.87121 1.27078 0.87153
 C74 C 0.85186 1.28256 0.87918
 H75 H 0.89374 1.27830 0.84156
 H76 H 0.84130 1.27822 0.89412
 H77 H 0.83080 1.32359 0.83125
 H78 H 0.84942 1.34237 0.84996
 N79 N 0.86490 0.84875 0.30029
 N80 N 0.84862 0.86480 0.30047
 C81 C 0.85208 0.87944 0.28245
 C82 C 0.87149 0.87201 0.27052
 C83 C 0.87926 0.85257 0.28219
 H84 H 0.84139 0.89434 0.27832
 H85 H 0.89421 0.84204 0.27787
 Cu86 Cu 0.82468 0.86473 0.32444
 Cu87 Cu 0.86634 0.82406 0.32353
 Cu88 Cu 0.82369 0.82395 0.36624
 N89 N 0.80075 0.86469 0.34840
 N90 N 0.80054 0.84862 0.36472
 C91 C 0.78244 0.85240 0.37906
 C92 C 0.77080 0.87182 0.37126
 C93 C 0.78276 0.87928 0.35184
 H94 H 0.77808 0.84185 0.39403
 H95 H 0.77865 0.89419 0.34113
 N96 N 0.84860 0.80050 0.36474
 N97 N 0.86483 0.80054 0.34848
 C98 C 0.87922 0.78243 0.35212
 C99 C 0.87159 0.77058 0.37150
 C100 C 0.85224 0.78236 0.37914
 H101 H 0.89413 0.77814 0.34154
 H102 H 0.84167 0.77800 0.39408
 H103 H 0.83129 0.82343 0.33118
 H104 H 0.84992 0.84217 0.34993
 N105 N 0.63532 0.65158 0.30053
 N106 N 0.65156 0.63550 0.30077
 C107 C 0.64818 0.62096 0.28268
 C108 C 0.62886 0.62845 0.27068
 C109 C 0.62106 0.64784 0.28235
 H110 H 0.65890 0.60611 0.27853
 H111 H 0.60616 0.65839 0.27795
 Cu112 Cu 0.67551 0.63541 0.32465
 Cu113 Cu 0.63386 0.67621 0.32371
 Cu114 Cu 0.67651 0.67621 0.36638
 N115 N 0.69939 0.63549 0.34861
 N116 N 0.69967 0.65156 0.36488
 C117 C 0.71785 0.64780 0.37912
 C118 C 0.72948 0.62840 0.37127
 C119 C 0.71744 0.62094 0.35193
 H120 H 0.72229 0.65834 0.39405
 H121 H 0.72156 0.60609 0.34117
 N122 N 0.65159 0.69966 0.36492
 N123 N 0.63536 0.69965 0.34867
 C124 C 0.62095 0.71774 0.35232
 C125 C 0.62856 0.72954 0.37170
 C126 C 0.64792 0.71776 0.37933
 H127 H 0.60603 0.72204 0.34174
 H128 H 0.65849 0.72209 0.39427
 H129 H 0.66892 0.67677 0.33121
 H130 H 0.65024 0.65809 0.35003
 N131 N 0.63557 0.15130 0.80030
 N132 N 0.65181 0.13521 0.80052
 C133 C 0.64842 0.12066 0.78243
 C134 C 0.62906 0.12816 0.77044
 C135 C 0.62128 0.14757 0.78213
 H136 H 0.65914 0.10579 0.77829
 H137 H 0.60637 0.15814 0.77777
 Cu138 Cu 0.67571 0.13526 0.82450
 Cu139 Cu 0.63416 0.17596 0.82354
 Cu140 Cu 0.67677 0.17607 0.86625
 N141 N 0.69963 0.13532 0.84843
 N142 N 0.69988 0.15142 0.86469
 C143 C 0.71804 0.14772 0.87895
 C144 C 0.72969 0.12834 0.87114
 C145 C 0.71770 0.12082 0.85180
 H146 H 0.72244 0.15829 0.89387
 H147 H 0.72187 0.10595 0.84108
 N148 N 0.65185 0.19948 0.86475
 N149 N 0.63562 0.19945 0.84850
 C150 C 0.62122 0.21754 0.85216
 C151 C 0.62883 0.22936 0.87154
 C152 C 0.64819 0.21758 0.87917
 H153 H 0.60630 0.22184 0.84158
 H154 H 0.65877 0.22191 0.89410
 H155 H 0.66933 0.17657 0.83124
 H156 H 0.65065 0.15791 0.85006
 N157 N 1.13577 0.65161 0.80059
 N158 N 1.15203 0.63555 0.80079
 C159 C 1.14863 0.62100 0.78273
 C160 C 1.12928 0.62846 0.77076
 C161 C 1.12149 0.64785 0.78244
 H162 H 1.15931 0.60610 0.77861
 H163 H 1.10654 0.65836 0.77808
 Cu164 Cu 1.17581 0.63527 0.82482
 Cu165 Cu 1.13428 0.67619 0.82381
 Cu166 Cu 1.17685 0.67628 0.86646
 N167 N 1.19979 0.63563 0.84862
 N168 N 1.20000 0.65170 0.86491
 C169 C 1.21814 0.64798 0.87919
 C170 C 1.22979 0.62861 0.87136
 C171 C 1.21783 0.62111 0.85201
 H172 H 1.22251 0.65851 0.89414
 H173 H 1.22196 0.60621 0.84132
 N174 N 1.15192 0.69966 0.86499
 N175 N 1.13570 0.69962 0.84873
 C176 C 1.12130 0.71771 0.85236
 C177 C 1.12890 0.72953 0.87173
 C178 C 1.14826 0.71777 0.87939
 H179 H 1.10639 0.72201 0.84176
 H180 H 1.15884 0.72212 0.89431
 H181 H 1.16941 0.67660 0.83136
 H182 H 1.15067 0.65799 0.85024
 N183 N 1.13554 0.15113 0.30037
 N184 N 1.15184 0.13511 0.30056
 C185 C 1.14840 0.12048 0.28257
 C186 C 1.12902 0.12791 0.27066
 C187 C 1.12122 0.14730 0.28229
 H188 H 1.15908 0.10558 0.27845
 H189 H 1.10626 0.15780 0.27792
 Cu190 Cu 1.17572 0.13511 0.32441
 Cu191 Cu 1.13401 0.17577 0.32350
 Cu192 Cu 1.17665 0.17578 0.36617
 N193 N 1.19956 0.13511 0.34831
 N194 N 1.19977 0.15113 0.36464
 C195 C 1.21785 0.14730 0.37896
 C196 C 1.22945 0.12790 0.37113
 C197 C 1.21752 0.12048 0.35172
 H198 H 1.22222 0.15781 0.39393
 H199 H 1.22163 0.10559 0.34101
 N200 N 1.15176 0.19922 0.36467
 N201 N 1.13553 0.19921 0.34842
 C202 C 1.12115 0.21732 0.35205
 C203 C 1.12878 0.22912 0.37141
 C204 C 1.14813 0.21734 0.37906
 H205 H 1.10624 0.22162 0.34146
 H206 H 1.15870 0.22167 0.39399
 H207 H 1.16899 0.17639 0.33106
 H208 H 1.15036 0.15760 0.34982
 N209 N 0.63544 1.34845 0.69943
 N210 N 0.65172 1.36448 0.69923
 C211 C 0.64832 1.37902 0.71730
 C212 C 0.62896 1.37157 0.72926
 C213 C 0.62115 1.35221 0.71757
 H214 H 0.65900 1.39390 0.72144
 H215 H 0.60619 1.34172 0.72192
 Cu216 Cu 0.67551 1.36477 0.67520
 Cu217 Cu 0.63391 1.32388 0.67623
 Cu218 Cu 0.67649 1.32381 0.63358
 N219 N 0.69951 1.36440 0.65137
 N220 N 0.69971 1.34834 0.63508
 C221 C 0.71785 1.35207 0.62078
 C222 C 0.72953 1.37142 0.62860
 C223 C 0.71757 1.37891 0.64798
 H224 H 0.72218 1.34154 0.60580
 H225 H 0.72170 1.39380 0.65868
 N226 N 0.65155 1.30044 0.63502
 N227 N 0.63533 1.30048 0.65128
 C228 C 0.62092 1.28241 0.64767
 C229 C 0.62853 1.27058 0.62830
 C230 C 0.64789 1.28233 0.62063
 H231 H 0.60602 1.27812 0.65828
 H232 H 0.65846 1.27797 0.60571
 H233 H 0.66894 1.32347 0.66875
 H234 H 0.65021 1.34211 0.64988
 N235 N 0.63528 0.84863 1.19947
 N236 N 0.65157 0.86466 1.19927
 C237 C 0.64812 0.87928 1.21727
 C238 C 0.62873 0.87188 1.22921
 C239 C 0.62095 0.85248 1.21757
 H240 H 0.65880 0.89418 1.22139
 H241 H 0.60600 0.84197 1.22193
 Cu242 Cu 0.67552 0.86473 1.17541
 Cu243 Cu 0.63382 0.82400 1.17630
 Cu244 Cu 0.67650 0.82398 1.13363
 N245 N 0.69939 0.86464 1.15147
 N246 N 0.69964 0.84860 1.13514
 C247 C 0.71775 0.85244 1.12084
 C248 C 0.72934 0.87185 1.12867
 C249 C 0.71736 0.87925 1.14807
 H250 H 0.72214 0.84194 1.10587
 H251 H 0.72145 0.89414 1.15879
 N252 N 0.65160 0.80053 1.13512
 N253 N 0.63535 0.80055 1.15137
 C254 C 0.62097 0.78246 1.14772
 C255 C 0.62860 0.77065 1.12835
 C256 C 0.64796 0.78242 1.12071
 H257 H 0.60605 0.77817 1.15830
 H258 H 0.65853 0.77809 1.10578
 H259 H 0.66881 0.82339 1.16873
 H260 H 0.65021 0.84216 1.14998
 N261 N 1.13551 1.34837 1.19941
 N262 N 1.15180 1.36440 1.19921
 C263 C 1.14836 1.37901 1.21721
 C264 C 1.12897 1.37159 1.22915
 C265 C 1.12119 1.35220 1.21751
 H266 H 1.15904 1.39390 1.22133
 H267 H 1.10623 1.34170 1.22187
 Cu268 Cu 1.17568 1.36439 1.17528
 Cu269 Cu 1.13400 1.32373 1.17624
 Cu270 Cu 1.17663 1.32373 1.13352
 N271 N 1.19956 1.36440 1.15135
 N272 N 1.19976 1.34838 1.13502
 C273 C 1.21784 1.35221 1.12067
 C274 C 1.22945 1.37161 1.12849
 C275 C 1.21751 1.37901 1.14792
 H276 H 1.22220 1.34171 1.10569
 H277 H 1.22162 1.39390 1.15864
 N278 N 1.15174 1.30029 1.13504
 N279 N 1.13551 1.30030 1.15131
 C280 C 1.12114 1.28219 1.14770
 C281 C 1.12876 1.27039 1.12832
 C282 C 1.14810 1.28217 1.12065
 H283 H 1.10624 1.27789 1.15830
 H284 H 1.15865 1.27783 1.10571
 H285 H 1.16898 1.32312 1.16863
 H286 H 1.15033 1.34192 1.14990
 N287 N 1.13525 0.84855 0.69937
 N288 N 1.15149 0.86461 0.69916
 C289 C 1.14802 0.87920 0.71718
 C290 C 1.12866 0.87175 0.72912
 C291 C 1.12091 0.85234 0.71748
 H292 H 1.15871 0.89408 0.72134
 H293 H 1.10600 0.84179 0.72186
 Cu294 Cu 1.17560 0.86459 0.67547
 Cu295 Cu 1.13384 0.82388 0.67625
 Cu296 Cu 1.17646 0.82388 0.63362
 N297 N 1.19930 0.86461 0.65135
 N298 N 1.19954 0.84855 0.63506
 C299 C 1.21765 0.85235 0.62074
 C300 C 1.22924 0.87177 0.62853
 C301 C 1.21728 0.87921 0.64792
 H302 H 1.22206 0.84180 0.60580
 H303 H 1.22140 0.89408 0.65866
 N304 N 1.15162 0.80040 0.63513
 N305 N 1.13539 0.80041 0.65138
 C306 C 1.12101 0.78231 0.64775
 C307 C 1.12865 0.77050 0.62838
 C308 C 1.14799 0.78229 0.62073
 H309 H 1.10609 0.77802 0.65833
 H310 H 1.15856 0.77796 0.60579
 H311 H 1.16889 0.82330 0.66880
 H312 H 1.15026 0.84215 0.65005
 N313 N 0.36417 0.65153 0.69930
 N314 N 0.34794 0.63545 0.69908
 C315 C 0.35130 0.62091 0.71719
 C316 C 0.37063 0.62839 0.72916
 C317 C 0.37842 0.64777 0.71747
 H318 H 0.34061 0.60603 0.72135
 H319 H 0.39336 0.65829 0.72182
 Cu320 Cu 0.32419 0.63546 0.67507
 Cu321 Cu 0.36568 0.67617 0.67609
 Cu322 Cu 0.32307 0.67624 0.63336
 N323 N 0.30024 0.63550 0.65127
 N324 N 0.29997 0.65158 0.63497
 C325 C 0.28182 0.64782 0.62072
 C326 C 0.27022 0.62844 0.62861
 C327 C 0.28221 0.62096 0.64797
 H328 H 0.27743 0.65832 0.60573
 H329 H 0.27810 0.60609 0.65873
 N330 N 0.34800 0.69965 0.63484
 N331 N 0.36421 0.69961 0.65111
 C332 C 0.37858 0.71771 0.64750
 C333 C 0.37098 0.72955 0.62813
 C334 C 0.35165 0.71779 0.62044
 H335 H 0.39346 0.72201 0.65812
 H336 H 0.34108 0.72216 0.60551
 H337 H 0.33066 0.67673 0.66840
 H338 H 0.34938 0.65813 0.64960
 N339 N 0.36472 0.15146 1.19939
 N340 N 0.34870 0.13516 1.19894
 C341 C 0.35208 0.12060 1.21703
 C342 C 0.37117 0.12831 1.22924
 C343 C 0.37883 0.14783 1.21770
 H344 H 0.34151 0.10560 1.22107
 H345 H 0.39353 0.15858 1.22229
 Cu346 Cu 0.32499 0.13515 1.17486
 Cu347 Cu 0.36615 0.17623 1.17630
 Cu348 Cu 0.32350 0.17626 1.13358
 N349 N 0.30095 0.13518 1.15111
 N350 N 0.30046 0.15149 1.13503
 C351 C 0.28218 0.14787 1.12091
 C352 C 0.27069 0.12833 1.12863
 C353 C 0.28292 0.12063 1.14777
 H354 H 0.27757 0.15862 1.10616
 H355 H 0.27894 0.10563 1.15840
 N356 N 0.34834 0.19978 1.13513
 N357 N 0.36457 0.19975 1.15140
 C358 C 0.37897 0.21783 1.14774
 C359 C 0.37137 0.22964 1.12834
 C360 C 0.35202 0.21789 1.12070
 H361 H 0.39390 0.22209 1.15830
 H362 H 0.34150 0.22220 1.10572
 H363 H 0.33111 0.17659 1.16878
 H364 H 0.35001 0.15835 1.14981
 N365 N 0.86486 0.65129 1.19939
 N366 N 0.84885 0.63499 1.19893
 C367 C 0.85224 0.62041 1.21700
 C368 C 0.87134 0.62810 1.22921
 C369 C 0.87898 0.64765 1.21769
 H370 H 0.84168 0.60540 1.22102
 H371 H 0.89368 0.65839 1.22228
 Cu372 Cu 0.82512 0.63501 1.17485
 Cu373 Cu 0.86627 0.67611 1.17633
 Cu374 Cu 0.82359 0.67619 1.13363
 N375 N 0.80105 0.63507 1.15112
 N376 N 0.80055 0.65140 1.13506
 C377 C 0.78225 0.64780 1.12095
 C378 C 0.77077 0.62825 1.12865
 C379 C 0.78302 0.62052 1.14777
 H380 H 0.77763 0.65857 1.10622
 H381 H 0.77905 0.60551 1.15839
 N382 N 0.84843 0.69971 1.13520
 N383 N 0.86467 0.69966 1.15146
 C384 C 0.87906 0.71775 1.14781
 C385 C 0.87145 0.72958 1.12844
 C386 C 0.85210 0.71784 1.12079
 H387 H 0.89400 0.72199 1.15837
 H388 H 0.84157 0.72217 1.10582
 H389 H 0.83122 0.67647 1.16883
 H390 H 0.85012 0.65826 1.14981
 N391 N 0.86420 0.15136 0.69925
 N392 N 0.84791 0.13535 0.69909
 C393 C 0.85136 0.12071 0.71710
 C394 C 0.87076 0.12812 0.72901
 C395 C 0.87854 0.14752 0.71734
 H396 H 0.84069 0.10581 0.72124
 H397 H 0.89348 0.15802 0.72168
 Cu398 Cu 0.82405 0.13536 0.67517
 Cu399 Cu 0.86570 0.17600 0.67605
 Cu400 Cu 0.82309 0.17612 0.63334
 N401 N 0.80019 0.13545 0.65129
 N402 N 0.79998 0.15149 0.63493
 C403 C 0.78191 0.14767 0.62060
 C404 C 0.77031 0.12828 0.62846
 C405 C 0.78223 0.12084 0.64788
 H406 H 0.77753 0.15819 0.60561
 H407 H 0.77814 0.10594 0.65860
 N408 N 0.84799 0.19952 0.63485
 N409 N 0.86421 0.19946 0.65112
 C410 C 0.87861 0.21755 0.64750
 C411 C 0.87101 0.22938 0.62812
 C412 C 0.85166 0.21765 0.62045
 H413 H 0.89352 0.22181 0.65809
 H414 H 0.84112 0.22202 0.60550
 H415 H 0.83065 0.17666 0.66840
 H416 H 0.84929 0.15788 0.64966
 N417 N 1.34861 0.36440 0.69938
 N418 N 1.36464 0.34811 0.69920
 C419 C 1.37918 0.35155 0.71727
 C420 C 1.37173 0.37095 0.72921
 C421 C 1.35237 0.37873 0.71751
 H422 H 1.39405 0.34086 0.72143
 H423 H 1.34186 0.39369 0.72184
 Cu424 Cu 1.36482 0.32420 0.67521
 Cu425 Cu 1.32401 0.36592 0.67619
 Cu426 Cu 1.32401 0.32322 0.63356
 N427 N 1.36465 0.30016 0.65132
 N428 N 1.34860 0.29996 0.63502
 C429 C 1.35234 0.28180 0.62071
 C430 C 1.37173 0.27012 0.62853
 C431 C 1.37919 0.28210 0.64793
 H432 H 1.34181 0.27746 0.60575
 H433 H 1.39406 0.27798 0.65866
 N434 N 1.30058 0.34819 0.63499
 N435 N 1.30061 0.36444 0.65124
 C436 C 1.28252 0.37884 0.64761
 C437 C 1.27070 0.37122 0.62825
 C438 C 1.28247 0.35184 0.62061
 H439 H 1.27822 0.39376 0.65821
 H440 H 1.27811 0.34126 0.60569
 H441 H 1.32354 0.33091 0.66875
 H442 H 1.34215 0.34964 0.64992
 N443 N 1.34886 0.86431 1.19961
 N444 N 1.36493 0.84805 1.19943
 C445 C 1.37946 0.85149 1.21752
 C446 C 1.37195 0.87088 1.22949
 C447 C 1.35257 0.87864 1.21777
 H448 H 1.39434 0.84081 1.22166
 H449 H 1.34201 0.89358 1.22208
 Cu450 Cu 1.36518 0.82417 1.17534
 Cu451 Cu 1.32429 0.86574 1.17632
 Cu452 Cu 1.32424 0.82313 1.13365
 N453 N 1.36489 0.80012 1.15145
 N454 N 1.34882 0.79991 1.13516
 C455 C 1.35254 0.78176 1.12085
 C456 C 1.37190 0.77008 1.12866
 C457 C 1.37941 0.78204 1.14804
 H458 H 1.34199 0.77742 1.10589
 H459 H 1.39430 0.77792 1.15874
 N460 N 1.30084 0.84810 1.13510
 N461 N 1.30086 0.86433 1.15136
 C462 C 1.28278 0.87874 1.14772
 C463 C 1.27096 0.87115 1.12833
 C464 C 1.28274 0.85177 1.12069
 H465 H 1.27848 0.89366 1.15831
 H466 H 1.27840 0.84119 1.10576
 H467 H 1.32388 0.83056 1.16873
 H468 H 1.34244 0.84935 1.14988
 N469 N 0.84879 0.36445 1.19975
 N470 N 0.86485 0.34818 1.19954
 C471 C 0.87940 0.35157 1.21762
 C472 C 0.87192 0.37094 1.22961
 C473 C 0.85254 0.37876 1.21791
 H474 H 0.89428 0.34087 1.22173
 H475 H 0.84201 0.39371 1.22225
 Cu476 Cu 0.86512 0.32436 1.17548
 Cu477 Cu 0.82423 0.36588 1.17645
 Cu478 Cu 0.82414 0.32330 1.13377
 N479 N 0.86475 0.30035 1.15164
 N480 N 0.84870 0.30013 1.13535
 C481 C 0.85242 0.28198 1.12107
 C482 C 0.87177 0.27031 1.12890
 C483 C 0.87926 0.28228 1.14825
 H484 H 0.84190 0.27761 1.10611
 H485 H 0.89415 0.27815 1.15894
 N486 N 0.80078 0.34824 1.13523
 N487 N 0.80080 0.36448 1.15148
 C488 C 0.78271 0.37889 1.14783
 C489 C 0.77091 0.37127 1.12844
 C490 C 0.78269 0.35190 1.12081
 H491 H 0.77841 0.39380 1.15842
 H492 H 0.77836 0.34130 1.10589
 H493 H 0.82384 0.33063 1.16879
 H494 H 0.84238 0.34943 1.14992
 N495 N 0.84841 0.86472 0.69954
 N496 N 0.86446 0.84844 0.69933
 C497 C 0.87899 0.85184 0.71739
 C498 C 0.87153 0.87121 0.72937
 C499 C 0.85217 0.87901 0.71769
 H500 H 0.89388 0.84116 0.72152
 H501 H 0.84166 0.89397 0.72204
 Cu502 Cu 0.86475 0.82461 0.67531
 Cu503 Cu 0.82385 0.86621 0.67632
 Cu504 Cu 0.82383 0.82357 0.63368
 N505 N 0.86445 0.80059 0.65149
 N506 N 0.84840 0.80036 0.63519
 C507 C 0.85215 0.78220 0.62091
 C508 C 0.87152 0.77053 0.62874
 C509 C 0.87898 0.78253 0.64811
 H510 H 0.84163 0.77783 0.60595
 H511 H 0.89386 0.77843 0.65882
 N512 N 0.80043 0.84852 0.63512
 N513 N 0.80045 0.86476 0.65137
 C514 C 0.78237 0.87917 0.64772
 C515 C 0.77056 0.87156 0.62835
 C516 C 0.78233 0.85218 0.62071
 H517 H 0.77807 0.89409 0.65832
 H518 H 0.77800 0.84160 0.60579
 H519 H 0.82347 0.83111 0.66884
 H520 H 0.84203 0.84990 0.64998
 N521 N 0.65144 0.63521 0.69936
 N522 N 0.63516 0.65125 0.69887
 C523 C 0.62060 0.64788 0.71692
 C524 C 0.62828 0.62877 0.72918
 C525 C 0.64780 0.62108 0.71769
 H526 H 0.60561 0.65848 0.72091
 H527 H 0.65852 0.60635 0.72232
 Cu528 Cu 0.63514 0.67498 0.67477
 Cu529 Cu 0.67620 0.63380 0.67629
 Cu530 Cu 0.67621 0.67654 0.63354
 N531 N 0.63516 0.69908 0.65104
 N532 N 0.65145 0.69960 0.63497
 C533 C 0.64780 0.71794 0.62087
 C534 C 0.62828 0.72940 0.62859
 C535 C 0.62061 0.71712 0.64771
 H536 H 0.65853 0.72259 0.60612
 H537 H 0.60563 0.72108 0.65833
 N538 N 0.69971 0.65167 0.63513
 N539 N 0.69970 0.63540 0.65140
 C540 C 0.71777 0.62099 0.64776
 C541 C 0.72956 0.62863 0.62837
 C542 C 0.71780 0.64801 0.62071
 H543 H 0.72203 0.60603 0.65833
 H544 H 0.72210 0.65857 0.60574
 H545 H 0.67653 0.66891 0.66872
 H546 H 0.65835 0.64998 0.64973
 N547 N 0.65143 1.13524 1.19997
 N548 N 0.63540 1.15154 1.19972
 C549 C 0.62080 1.14814 1.21776
 C550 C 0.62822 1.12875 1.22978
 C551 C 0.64763 1.12093 1.21815
 H552 H 0.60593 1.15887 1.22184
 H553 H 0.65815 1.10598 1.22255
 Cu554 Cu 0.63530 1.17543 1.17569
 Cu555 Cu 0.67607 1.13381 1.17674
 Cu556 Cu 0.67613 1.17649 1.13398
 N557 N 0.63548 1.19941 1.15176
 N558 N 0.65152 1.19965 1.13545
 C559 C 0.64776 1.21781 1.12114
 C560 C 0.62838 1.22945 1.12895
 C561 C 0.62093 1.21745 1.14834
 H562 H 0.65829 1.22222 1.10618
 H563 H 0.60605 1.22156 1.15905
 N564 N 0.69955 1.15155 1.13549
 N565 N 0.69954 1.13530 1.15176
 C566 C 0.71764 1.12091 1.14812
 C567 C 0.72944 1.12856 1.12873
 C568 C 0.71765 1.14793 1.12108
 H569 H 0.72195 1.10598 1.15872
 H570 H 0.72197 1.15853 1.10614
 H571 H 0.67661 1.16894 1.16906
 H572 H 0.65802 1.15022 1.15029
 N573 N 0.15095 0.63510 1.19948
 N574 N 0.13481 0.65133 1.19922
 C575 C 0.12055 0.64816 1.21758
 C576 C 0.12826 0.62895 1.22976
 C577 C 0.14750 0.62103 1.21791
 H578 H 0.10566 0.65884 1.22171
 H579 H 0.15800 0.60603 1.22218
 Cu580 Cu 0.13474 0.67500 1.17482
 Cu581 Cu 0.17448 0.63278 1.17511
 Cu582 Cu 0.17450 0.67537 1.13254
 N583 N 0.13482 0.69941 1.15116
 N584 N 0.15096 0.69971 1.13491
 C585 C 0.14750 0.71816 1.12086
 C586 C 0.12826 0.72997 1.12883
 C587 C 0.12056 0.71775 1.14803
 H588 H 0.15801 0.72246 1.10585
 H589 H 0.10568 0.72185 1.15876
 N590 N 0.19910 0.65153 1.13499
 N591 N 0.19909 0.63525 1.15127
 C592 C 0.21757 0.62126 1.14803
 C593 C 0.22963 0.62915 1.12889
 C594 C 0.21760 0.64830 1.12099
 H595 H 0.22178 0.60623 1.15854
 H596 H 0.22184 0.65880 1.10595
 H597 H 0.17546 0.66779 1.16762
 H598 H 0.15652 0.64927 1.14902
 N599 N 0.15105 1.13530 0.70005
 N600 N 0.13499 1.15158 0.69982
 C601 C 0.12046 1.14816 0.71792
 C602 C 0.12796 1.12879 0.72990
 C603 C 0.14732 1.12098 0.71822
 H604 H 0.10557 1.15884 0.72204
 H605 H 0.15785 1.10603 0.72258
 Cu606 Cu 0.13470 1.17545 0.67575
 Cu607 Cu 0.17562 1.13379 0.67683
 Cu608 Cu 0.17559 1.17647 0.63414
 N609 N 0.13496 1.19952 0.65185
 N610 N 0.15102 1.19974 0.63556
 C611 C 0.14730 1.21791 0.62122
 C612 C 0.12792 1.22959 0.62902
 C613 C 0.12043 1.21760 0.64843
 H614 H 0.15785 1.22225 0.60625
 H615 H 0.10554 1.22171 0.65914
 N616 N 0.19901 1.15152 0.63558
 N617 N 0.19902 1.13527 0.65184
 C618 C 0.21710 1.12086 0.64820
 C619 C 0.22890 1.12850 0.62880
 C620 C 0.21711 1.14788 0.62116
 H621 H 0.22142 1.10594 0.65881
 H622 H 0.22143 1.15848 0.60622
 H623 H 0.17599 1.16880 0.66939
 H624 H 0.15743 1.15003 0.65057
 N625 N 1.34866 0.63566 0.30071
 N626 N 1.36466 0.65198 0.30089
 C627 C 1.37925 0.64852 0.28287
 C628 C 1.37185 0.62911 0.27093
 C629 C 1.35248 0.62132 0.28261
 H630 H 1.39412 0.65921 0.27873
 H631 H 1.34199 0.60635 0.27827
 Cu632 Cu 1.36475 0.67597 0.32479
 Cu633 Cu 1.32406 0.63415 0.32388
 Cu634 Cu 1.32402 0.67681 0.36656
 N635 N 1.36463 0.69987 0.34879
 N636 N 1.34861 0.70006 0.36513
 C637 C 1.35241 0.71817 0.37949
 C638 C 1.37181 0.72982 0.37166
 C639 C 1.37923 0.71788 0.35222
 H640 H 1.34189 0.72250 0.39447
 H641 H 1.39410 0.72197 0.34148
 N642 N 1.30058 0.65186 0.36507
 N643 N 1.30063 0.63563 0.34881
 C644 C 1.28255 0.62121 0.35241
 C645 C 1.27072 0.62879 0.37178
 C646 C 1.28246 0.64817 0.37946
 H647 H 1.27828 0.60630 0.34181
 H648 H 1.27810 0.65872 0.39440
 H649 H 1.32348 0.66913 0.33138
 H650 H 1.34222 0.65045 0.35012
 N651 N 1.34861 1.13523 0.80035
 N652 N 1.36467 1.15148 0.80057
 C653 C 1.37925 1.14803 0.78255
 C654 C 1.37177 1.12869 0.77060
 C655 C 1.35238 1.12092 0.78223
 H656 H 1.39411 1.15873 0.77838
 H657 H 1.34182 1.10602 0.77781
 Cu658 Cu 1.36465 1.17563 0.82419
 Cu659 Cu 1.32395 1.13378 0.82341
 Cu660 Cu 1.32398 1.17640 0.86602
 N661 N 1.36470 1.19927 0.84835
 N662 N 1.34863 1.19951 0.86462
 C663 C 1.35240 1.21762 0.87894
 C664 C 1.37181 1.22924 0.87115
 C665 C 1.37927 1.21726 0.85178
 H666 H 1.34183 1.22204 0.89386
 H667 H 1.39413 1.22140 0.84104
 N668 N 1.30051 1.15157 0.86453
 N669 N 1.30051 1.13533 0.84828
 C670 C 1.28243 1.12094 0.85193
 C671 C 1.27065 1.12858 0.87131
 C672 C 1.28242 1.14794 0.87894
 H673 H 1.27814 1.10600 0.84136
 H674 H 1.27812 1.15850 0.89389
 H675 H 1.32342 1.16884 0.83072
 H676 H 1.34223 1.15014 0.84946
 N677 N 0.84860 0.63535 0.80057
 N678 N 0.86467 0.65160 0.80081
 C679 C 0.87920 0.64822 0.78273
 C680 C 0.87174 0.62887 0.77074
 C681 C 0.85236 0.62107 0.78241
 H682 H 0.89406 0.65893 0.77858
 H683 H 0.84183 0.60615 0.77802
 Cu684 Cu 0.86465 0.67550 0.82473
 Cu685 Cu 0.82396 0.63385 0.82374
 Cu686 Cu 0.82392 0.67654 0.86641
 N687 N 0.86463 0.69944 0.84862
 N688 N 0.84855 0.69970 0.86490
 C689 C 0.85230 0.71788 0.87916
 C690 C 0.87168 0.72952 0.87133
 C691 C 0.87915 0.71749 0.85197
 H692 H 0.84175 0.72229 0.89409
 H693 H 0.89401 0.72162 0.84123
 N694 N 0.80051 0.65161 0.86494
 N695 N 0.80054 0.63536 0.84869
 C696 C 0.78246 0.62096 0.85233
 C697 C 0.77065 0.62860 0.87170
 C698 C 0.78241 0.64796 0.87934
 H699 H 0.77816 0.60604 0.84175
 H700 H 0.77807 0.65854 0.89427
 H701 H 0.82340 0.66893 0.83126
 H702 H 0.84201 0.65018 0.85008
 N703 N 0.84858 1.13510 0.30033
 N704 N 0.86458 1.15141 0.30053
 C705 C 0.87921 1.14797 0.28256
 C706 C 0.87182 1.12858 0.27064
 C707 C 0.85243 1.12077 0.28224
 H708 H 0.89411 1.15864 0.27846
 H709 H 0.84196 1.10580 0.27787
 Cu710 Cu 0.86462 1.17528 0.32441
 Cu711 Cu 0.82393 1.13356 0.32344
 Cu712 Cu 0.82395 1.17623 0.36610
 N713 N 0.86459 1.19918 0.34829
 N714 N 0.84857 1.19939 0.36462
 C715 C 0.85242 1.21747 0.37896
 C716 C 0.87183 1.22906 0.37114
 C717 C 0.87922 1.21712 0.35172
 H718 H 0.84193 1.22184 0.39395
 H719 H 0.89411 1.22120 0.34101
 N720 N 0.80051 1.15135 0.36460
 N721 N 0.80051 1.13511 0.34835
 C722 C 0.78240 1.12075 0.35197
 C723 C 0.77060 1.12840 0.37133
 C724 C 0.78239 1.14774 0.37898
 H725 H 0.77809 1.10583 0.34137
 H726 H 0.77805 1.15832 0.39391
 H727 H 0.82340 1.16851 0.33093
 H728 H 0.84211 1.14979 0.34969
 N729 N 0.65107 0.36432 0.30040
 N730 N 0.63485 0.34820 0.30080
 C731 C 0.62028 0.35163 0.28273
 C732 C 0.62788 0.37088 0.27059
 C733 C 0.64738 0.37856 0.28215
 H734 H 0.60537 0.34097 0.27867
 H735 H 0.65806 0.39336 0.27764
 Cu736 Cu 0.63501 0.32417 0.32474
 Cu737 Cu 0.67590 0.36568 0.32348
 Cu738 Cu 0.67420 0.32458 0.36760
 N739 N 0.63518 0.30001 0.34859
 N740 N 0.65099 0.30005 0.36514
 C741 C 0.64740 0.28179 0.37938
 C742 C 0.62839 0.26977 0.37121
 C743 C 0.62097 0.28165 0.35171
 H744 H 0.65763 0.27776 0.39465
 H745 H 0.60628 0.27736 0.34083
 N746 N 0.69884 0.34825 0.36526
 N747 N 0.69933 0.36405 0.34853
 C748 C 0.71778 0.37805 0.35187
 C749 C 0.72933 0.37061 0.37149
 C750 C 0.71702 0.35175 0.37961
 H751 H 0.72240 0.39268 0.34099
 H752 H 0.72093 0.34151 0.39491
 H753 H 0.67593 0.33083 0.33231
 H754 H 0.65696 0.35065 0.34954
 N755 N 0.65139 0.86506 0.80069
 N756 N 0.63512 0.84901 0.80118
 C757 C 0.62057 0.85239 0.78313
 C758 C 0.62823 0.87151 0.77089
 C759 C 0.64774 0.87920 0.78237
 H760 H 0.60559 0.84180 0.77914
 H761 H 0.65845 0.89393 0.77775
 Cu762 Cu 0.63511 0.82525 0.82525
 Cu763 Cu 0.67615 0.86646 0.82375
 Cu764 Cu 0.67617 0.82371 0.86648
 N765 N 0.63514 0.80117 0.84900
 N766 N 0.65142 0.80065 0.86506
 C767 C 0.64778 0.78232 0.87918
 C768 C 0.62826 0.77086 0.87147
 C769 C 0.62059 0.78313 0.85234
 H770 H 0.65850 0.77767 0.89392
 H771 H 0.60561 0.77917 0.84173
 N772 N 0.69966 0.84857 0.86490
 N773 N 0.69965 0.86484 0.84863
 C774 C 0.71771 0.87925 0.85227
 C775 C 0.72950 0.87160 0.87166
 C776 C 0.71774 0.85222 0.87931
 H777 H 0.72198 0.89421 0.84171
 H778 H 0.72204 0.84165 0.89428
 H779 H 0.67650 0.83135 0.83130
 H780 H 0.65829 0.85027 0.85029
 N781 N 0.15142 0.36447 0.80060
 N782 N 0.13541 0.34817 0.80082
 C783 C 0.12080 0.35164 0.78281
 C784 C 0.12821 0.37105 0.77084
 C785 C 0.14760 0.37882 0.78247
 H786 H 0.10592 0.34096 0.77869
 H787 H 0.15811 0.39377 0.77808
 Cu788 Cu 0.13544 0.32421 0.82475
 Cu789 Cu 0.17607 0.36598 0.82374
 Cu790 Cu 0.17607 0.32325 0.86647
 N791 N 0.13540 0.30026 0.84872
 N792 N 0.15143 0.30003 0.86505
 C793 C 0.14761 0.28190 0.87941
 C794 C 0.12820 0.27029 0.87160
 C795 C 0.12078 0.28227 0.85217
 H796 H 0.15814 0.27752 0.89438
 H797 H 0.10591 0.27820 0.84143
 N798 N 0.19953 0.34819 0.86495
 N799 N 0.19951 0.36445 0.84867
 C800 C 0.21758 0.37886 0.85227
 C801 C 0.22940 0.37124 0.87165
 C802 C 0.21764 0.35186 0.87934
 H803 H 0.22185 0.39379 0.84166
 H804 H 0.22198 0.34129 0.89429
 H805 H 0.17670 0.33100 0.83129
 H806 H 0.15797 0.34966 0.85001
 N807 N 0.15127 0.86405 0.30094
 N808 N 0.13528 0.84774 0.30113
 C809 C 0.12067 0.85121 0.28313
 C810 C 0.12806 0.87065 0.27119
 C811 C 0.14744 0.87842 0.28284
 H812 H 0.10579 0.84053 0.27900
 H813 H 0.15793 0.89339 0.27848
 Cu814 Cu 0.13530 0.82379 0.32505
 Cu815 Cu 0.17589 0.86553 0.32412
 Cu816 Cu 0.17596 0.82280 0.36683
 N817 N 0.13533 0.79984 0.34898
 N818 N 0.15134 0.79961 0.36533
 C819 C 0.14752 0.78148 0.37967
 C820 C 0.12813 0.76989 0.37181
 C821 C 0.12071 0.78186 0.35239
 H822 H 0.15802 0.77709 0.39465
 H823 H 0.10584 0.77778 0.34166
 N824 N 0.19937 0.84776 0.36531
 N825 N 0.19933 0.86401 0.34904
 C826 C 0.21739 0.87843 0.35264
 C827 C 0.22922 0.87081 0.37200
 C828 C 0.21749 0.85142 0.37969
 H829 H 0.22165 0.89337 0.34203
 H830 H 0.22184 0.84085 0.39463
 H831 H 0.17653 0.83047 0.33173
 H832 H 0.15778 0.84911 0.35047
 O833 O 0.97737 0.91610 0.88417
 O834 O 0.97738 0.88903 0.85702
 C835 C 0.96924 0.90777 0.86540
 C836 C 0.94950 0.91945 0.85370
 C837 C 0.93960 0.90979 0.83356
 H838 H 0.94692 0.89422 0.82589
 O839 O 1.02278 1.08435 0.88384
 O840 O 1.02270 1.11144 0.85666
 C841 C 1.03086 1.09269 0.86503
 C842 C 1.05057 1.08100 0.85330
 C843 C 1.06046 1.09067 0.83313
 H844 H 1.05313 1.10624 0.82544
 O845 O 0.88416 0.97738 0.91587
 O846 O 0.85710 0.97742 0.88873
 C847 C 0.86541 0.96930 0.90754
 C848 C 0.85368 0.94963 0.91932
 C849 C 0.83354 0.93974 0.90973
 H850 H 0.82586 0.94705 0.89413
 O851 O 1.11585 1.02307 0.91564
 O852 O 1.14292 1.02304 0.88849
 C853 C 1.13461 1.03115 0.90729
 C854 C 1.14635 1.05078 0.91907
 C855 C 1.16650 1.06066 0.90947
 H856 H 1.17417 1.05337 0.89386
 O857 O 0.91592 0.88441 0.97722
 O858 O 0.88892 0.85726 0.97726
 C859 C 0.90763 0.86563 0.96909
 C860 C 0.91939 0.85392 0.94937
 C861 C 0.90981 0.83377 0.93942
 H862 H 0.89423 0.82611 0.94669
 O863 O 1.08425 1.11603 0.97690
 O864 O 1.11129 1.14314 0.97694
 C865 C 1.09257 1.13481 0.96875
 C866 C 1.08087 1.14655 0.94896
 C867 C 1.09046 1.16672 0.93900
 H868 H 1.10603 1.17437 0.94630
 O869 O 0.91599 1.02290 0.88412
 O870 O 0.88895 1.02293 0.85695
 C871 C 0.90767 1.03105 0.86532
 C872 C 0.91935 1.05080 0.85360
 C873 C 0.90967 1.06070 0.83346
 H874 H 0.89410 1.05338 0.82582
 O875 O 1.08406 0.97757 0.88395
 O876 O 1.11110 0.97752 0.85678
 C877 C 1.09238 0.96940 0.86518
 C878 C 1.08069 0.94965 0.85354
 C879 C 1.09033 0.93970 0.83340
 H880 H 1.10590 0.94700 0.82571
 O881 O 1.02291 0.88432 0.91590
 O882 O 1.02293 0.85723 0.88877
 C883 C 1.03106 0.86558 0.90754
 C884 C 1.05079 0.85391 0.91926
 C885 C 1.06072 0.83378 0.90962
 H886 H 1.05343 0.82609 0.89403
 O887 O 0.97734 1.11606 0.91572
 O888 O 0.97723 1.14318 0.88856
 C889 C 0.96916 1.13481 0.90737
 C890 C 0.94945 1.14645 0.91914
 C891 C 0.93950 1.16659 0.90951
 H892 H 0.94672 1.17427 0.89387
 O893 O 0.88434 1.08419 0.97729
 O894 O 0.85732 1.11135 0.97727
 C895 C 0.86562 1.09257 0.96914
 C896 C 0.85393 1.08086 0.94942
 C897 C 0.83380 1.09047 0.93949
 H898 H 0.82613 1.10605 0.94678
 O899 O 1.11578 0.91609 0.97738
 O900 O 1.14289 0.88903 0.97727
 C901 C 1.13451 0.90780 0.96917
 C902 C 1.14615 0.91960 0.94941
 C903 C 1.16629 0.91004 0.93949
 H904 H 1.17400 0.89446 0.94679
 O905 O 0.97728 1.08437 0.88390
 O906 O 0.97717 1.11146 0.85671
 C907 C 0.96908 1.09269 0.86512
 C908 C 0.94935 1.08094 0.85348
 C909 C 0.93935 1.09054 0.83331
 H910 H 0.94658 1.10613 0.82557
 O911 O 1.02286 0.91611 0.88411
 O912 O 1.02288 0.88904 0.85696
 C913 C 1.03099 0.90779 0.86532
 C914 C 1.05068 0.91953 0.85359
 C915 C 1.06063 0.90989 0.83345
 H916 H 1.05337 0.89429 0.82579
 O917 O 1.11571 0.97757 0.91578
 O918 O 1.14278 0.97751 0.88863
 C919 C 1.13444 0.96941 0.90745
 C920 C 1.14611 0.94971 0.91924
 C921 C 1.16625 0.93984 0.90963
 H922 H 1.17391 0.94714 0.89401
 O923 O 0.88433 1.02290 0.91593
 O924 O 0.85727 1.02295 0.88879
 C925 C 0.86560 1.03105 0.90758
 C926 C 0.85393 1.05075 0.91933
 C927 C 0.83380 1.06065 0.90970
 H928 H 0.82613 1.05333 0.89412
 O929 O 0.91607 1.11591 0.97724
 O930 O 0.88906 1.14308 0.97728
 C931 C 0.90777 1.13470 0.96911
 C932 C 0.91947 1.14641 0.94935
 C933 C 0.90984 1.16656 0.93944
 H934 H 0.89430 1.17424 0.94679
 O935 O 1.08418 0.88427 0.97739
 O936 O 1.11126 0.85718 0.97730
 C937 C 1.09253 0.86555 0.96918
 C938 C 1.08085 0.85391 0.94939
 C939 C 1.09049 0.83381 0.93944
 H940 H 1.10606 0.82614 0.94673
 O941 O 1.08410 1.02314 0.88387
 O942 O 1.11114 1.02312 0.85670
 C943 C 1.09242 1.03127 0.86507
 C944 C 1.08070 1.05099 0.85333
 C945 C 1.09031 1.06097 0.83317
 H946 H 1.10591 1.05373 0.82550
 O947 O 0.91597 0.97733 0.88415
 O948 O 0.88892 0.97733 0.85700
 C949 C 0.90765 0.96919 0.86537
 C950 C 0.91936 0.94946 0.85369
 C951 C 0.90975 0.93949 0.83355
 H952 H 0.89416 0.94673 0.82587
 O953 O 1.02286 1.11617 0.91556
 O954 O 1.02279 1.14328 0.88840
 C955 C 1.03098 1.13493 0.90717
 C956 C 1.05074 1.14662 0.91886
 C957 C 1.06065 1.16678 0.90921
 H958 H 1.05332 1.17448 0.89362
 O959 O 0.97741 0.88431 0.91596
 O960 O 0.97741 0.85723 0.88883
 C961 C 0.96928 0.86557 0.90761
 C962 C 0.94955 0.85388 0.91933
 C963 C 0.93968 0.83374 0.90969
 H964 H 0.94702 0.82605 0.89412
 O965 O 1.11592 1.08419 0.97704
 O966 O 1.14298 1.11129 0.97707
 C967 C 1.13467 1.09252 0.96894
 C968 C 1.14639 1.08080 0.94923
 C969 C 1.16653 1.09039 0.93934
 H970 H 1.17421 1.10594 0.94667
 O971 O 0.88418 0.91614 0.97728
 O972 O 0.85715 0.88901 0.97733
 C973 C 0.86544 0.90780 0.96918
 C974 C 0.85371 0.91954 0.94947
 C975 C 0.83358 0.90993 0.93959
 H976 H 0.82593 0.89434 0.94691
 Cu977 Cu 1.00014 0.90292 0.90276
 Cu978 Cu 1.00015 0.87042 0.87018
 Cu979 Cu 1.00007 1.09753 0.90247
 Cu980 Cu 0.99997 1.13005 0.86987
 Cu981 Cu 0.90282 1.00011 0.90273
 Cu982 Cu 0.87036 1.00016 0.87013
 Cu983 Cu 1.09721 1.00035 0.90252
 Cu984 Cu 1.12969 1.00029 0.86992
 C985 C 0.93935 0.93940 0.86354
 H986 H 0.94661 0.94670 0.87931
 C987 C 0.91984 0.91976 0.82354
 C988 C 1.06071 1.06104 0.86316
 H989 H 1.05345 1.05373 0.87895
 C990 C 1.08023 1.08070 0.82312
 C991 C 0.86351 0.93951 0.93933
 H992 H 0.87926 0.94678 0.94659
 C993 C 0.82355 0.92000 0.91983
 C994 C 1.13654 1.06086 0.93909
 H995 H 1.12079 1.05360 0.94636
 C996 C 1.17654 1.08034 0.91957
 C997 C 0.93938 0.86374 0.93929
 H998 H 0.94663 0.87950 0.94658
 C999 C 0.91992 0.82373 0.91969
 C1000 C 1.06089 1.13675 0.93885
 H1001 H 1.05362 1.12099 0.94616
 C1002 C 1.08040 1.17679 0.91922
 C1003 C 0.93931 1.06094 0.86339
 H1004 H 0.94662 1.05367 0.87916
 C1005 C 0.91962 1.08044 0.82337
 C1006 C 1.06075 0.93953 0.86341
 H1007 H 1.05347 0.94682 0.87918
 C1008 C 1.08034 0.91994 0.82342
 C1009 C 1.06089 0.86375 0.93926
 H1010 H 1.05362 0.87951 0.94655
 C1011 C 1.08046 0.82380 0.91967
 C1012 C 0.93940 1.13659 0.93917
 H1013 H 0.94668 1.12081 0.94644
 C1014 C 0.91981 1.17659 0.91963
 C1015 C 0.86376 1.06088 0.93931
 H1016 H 0.87952 1.05362 0.94658
 C1017 C 0.82380 1.08039 0.91974
 C1018 C 1.13629 0.93958 0.93927
 H1019 H 1.12054 0.94683 0.94654
 C1020 C 1.17627 0.92012 0.91971
 O1021 O 1.02282 0.91601 1.11617
 O1022 O 1.02279 0.88886 1.14329
 C1023 C 1.03093 0.90763 1.13495
 C1024 C 1.05064 0.91929 1.14666
 C1025 C 1.06052 0.90957 1.16681
 H1026 H 1.05319 0.89399 1.17446
 O1027 O 0.97753 1.08394 1.11595
 O1028 O 0.97754 1.11101 1.14311
 C1029 C 0.96942 1.09227 1.13474
 C1030 C 0.94973 1.08058 1.14644
 C1031 C 0.93983 1.09025 1.16656
 H1032 H 0.94714 1.10583 1.17424
 O1033 O 0.88428 1.02286 1.08442
 O1034 O 0.85723 1.02290 1.11159
 C1035 C 0.86556 1.03103 1.09278
 C1036 C 0.85388 1.05077 1.08102
 C1037 C 0.83374 1.06068 1.09062
 H1038 H 0.82606 1.05339 1.10623
 O1039 O 1.11604 0.97711 1.08432
 O1040 O 1.14309 0.97713 1.11148
 C1041 C 1.13478 0.96900 1.09268
 C1042 C 1.14650 0.94932 1.08093
 C1043 C 1.16663 0.93939 1.09054
 H1044 H 1.17428 0.94664 1.10617
 O1045 O 1.08427 0.88411 1.02308
 O1046 O 1.11136 0.85703 1.02302
 C1047 C 1.09263 0.86534 1.03122
 C1048 C 1.08095 0.85359 1.05103
 C1049 C 1.09054 0.83342 1.06099
 H1050 H 1.10610 0.82574 1.05367
 O1051 O 0.91615 1.11578 1.02286
 O1052 O 0.88914 1.14295 1.02291
 C1053 C 0.90786 1.13455 1.03102
 C1054 C 0.91960 1.14619 1.05076
 C1055 C 0.91002 1.16632 1.06071
 H1056 H 0.89446 1.17403 1.05342
 O1057 O 0.91595 0.97716 1.11623
 O1058 O 0.88892 0.97723 1.14342
 C1059 C 0.90763 0.96904 1.13505
 C1060 C 0.91931 0.94927 1.14680
 C1061 C 0.90967 0.93935 1.16698
 H1062 H 0.89412 0.94668 1.17465
 O1063 O 1.08415 1.02258 1.11594
 O1064 O 1.11118 1.02260 1.14313
 C1065 C 1.09245 1.03071 1.13473
 C1066 C 1.08074 1.05040 1.14641
 C1067 C 1.09039 1.06030 1.16654
 H1068 H 1.10597 1.05300 1.17420
 O1069 O 0.97743 0.88432 1.08426
 O1070 O 0.97737 0.85716 1.11137
 C1071 C 0.96929 0.86555 1.09258
 C1072 C 0.94960 0.85391 1.08081
 C1073 C 0.93970 0.83375 1.09044
 H1074 H 0.94699 0.82603 1.10603
 O1075 O 1.02294 1.11571 1.08415
 O1076 O 1.02297 1.14280 1.11128
 C1077 C 1.03106 1.13446 1.09249
 C1078 C 1.05071 1.14616 1.08071
 C1079 C 1.06061 1.16630 1.09033
 H1080 H 1.05335 1.17396 1.10595
 O1081 O 0.88422 0.91610 1.02289
 O1082 O 0.85719 0.88897 1.02296
 C1083 C 0.86550 0.90774 1.03107
 C1084 C 0.85382 0.91947 1.05082
 C1085 C 0.83367 0.90990 1.06076
 H1086 H 0.82598 0.89434 1.05346
 O1087 O 1.11588 1.08418 1.02267
 O1088 O 1.14293 1.11128 1.02272
 C1089 C 1.13459 1.09251 1.03087
 C1090 C 1.14626 1.08076 1.05067
 C1091 C 1.16639 1.09035 1.06061
 H1092 H 1.17408 1.10591 1.05328
 O1093 O 1.02295 1.08397 1.11597
 O1094 O 1.02299 1.11104 1.14312
 C1095 C 1.03108 1.09228 1.13476
 C1096 C 1.05075 1.08053 1.14645
 C1097 C 1.06070 1.09014 1.16658
 H1098 H 1.05347 1.10575 1.17427
 O1099 O 0.97728 0.91579 1.11634
 O1100 O 0.97724 0.88865 1.14347
 C1101 C 0.96911 0.90742 1.13512
 C1102 C 0.94934 0.91912 1.14683
 C1103 C 0.93937 0.90948 1.16701
 H1104 H 0.94662 0.89388 1.17470
 O1105 O 1.11591 1.02268 1.08422
 O1106 O 1.14295 1.02272 1.11138
 C1107 C 1.13461 1.03086 1.09258
 C1108 C 1.14625 1.05063 1.08083
 C1109 C 1.16637 1.06054 1.09047
 H1110 H 1.17403 1.05322 1.10607
 O1111 O 0.88432 0.97731 1.08432
 O1112 O 0.85727 0.97734 1.11149
 C1113 C 0.86558 0.96922 1.09269
 C1114 C 0.85385 0.94955 1.08094
 C1115 C 0.83371 0.93969 1.09057
 H1116 H 0.82605 0.94702 1.10616
 O1117 O 1.08407 1.11583 1.02257
 O1118 O 1.11111 1.14295 1.02262
 C1119 C 1.09238 1.13457 1.03074
 C1120 C 1.08069 1.14621 1.05051
 C1121 C 1.09030 1.16633 1.06043
 H1122 H 1.10585 1.17401 1.05311
 O1123 O 0.91605 0.88447 1.02284
 O1124 O 0.88904 0.85732 1.02290
 C1125 C 0.90777 0.86570 1.03100
 C1126 C 0.91953 0.85399 1.05071
 C1127 C 0.90994 0.83383 1.06063
 H1128 H 0.89437 0.82617 1.05333
 O1129 O 1.08428 0.97707 1.11610
 O1130 O 1.11131 0.97706 1.14329
 C1131 C 1.09258 0.96894 1.13493
 C1132 C 1.08081 0.94925 1.14667
 C1133 C 1.09038 0.93924 1.16684
 H1134 H 1.10597 0.94646 1.17454
 O1135 O 0.91616 1.02273 1.11603
 O1136 O 0.88912 1.02282 1.14321
 C1137 C 0.90786 1.03090 1.13481
 C1138 C 0.91960 1.05060 1.14646
 C1139 C 0.90998 1.06059 1.16657
 H1140 H 0.89437 1.05339 1.17424
 O1141 O 0.97749 1.11569 1.08420
 O1142 O 0.97750 1.14279 1.11133
 C1143 C 0.96937 1.13444 1.09256
 C1144 C 0.94967 1.14612 1.08085
 C1145 C 0.93978 1.16625 1.09052
 H1146 H 0.94707 1.17389 1.10613
 O1147 O 1.02296 0.88409 1.08453
 O1148 O 1.02291 0.85693 1.11164
 C1149 C 1.03109 0.86530 1.09288
 C1150 C 1.05085 0.85359 1.08116
 C1151 C 1.06075 0.83341 1.09081
 H1152 H 1.05342 0.82572 1.10640
 O1153 O 1.11596 0.91593 1.02299
 O1154 O 1.14307 0.88886 1.02289
 C1155 C 1.13475 0.90761 1.03105
 C1156 C 1.14649 0.91932 1.05075
 C1157 C 1.16665 0.90971 1.06061
 H1158 H 1.17434 0.89418 1.05324
 O1159 O 0.88429 1.08421 1.02291
 O1160 O 0.85726 1.11135 1.02292
 C1161 C 0.86557 1.09257 1.03106
 C1162 C 0.85387 1.08085 1.05082
 C1163 C 0.83372 1.09045 1.06071
 H1164 H 0.82603 1.10601 1.05336
 Cu1165 Cu 1.00013 0.90277 1.09761
 Cu1166 Cu 1.00007 0.87019 1.13015
 Cu1167 Cu 1.00024 1.09711 1.09735
 Cu1168 Cu 1.00025 1.12964 1.12994
 Cu1169 Cu 0.90280 0.90300 1.00004
 Cu1170 Cu 0.87037 0.87042 1.00012
 Cu1171 Cu 1.09733 0.90279 1.00023
 Cu1172 Cu 1.12985 0.87031 1.00011
 Cu1173 Cu 0.90291 1.09730 1.00007
 Cu1174 Cu 0.87049 1.12991 1.00010
 Cu1175 Cu 1.09732 1.09735 0.99978
 Cu1176 Cu 1.12977 1.12988 0.99984
 Cu1177 Cu 0.90288 1.00001 1.09754
 Cu1178 Cu 0.87043 1.00007 1.13015
 Cu1179 Cu 1.09740 0.99984 1.09742
 Cu1180 Cu 1.12984 0.99988 1.13004
 C1181 C 1.06080 0.93925 1.13683
 H1182 H 1.05354 0.94660 1.12107
 C1183 C 1.08026 0.91951 1.17685
 C1184 C 0.93960 1.06062 1.13661
 H1185 H 0.94687 1.05330 1.12085
 C1186 C 0.92007 1.08030 1.17655
 C1187 C 0.86371 1.06088 1.06100
 H1188 H 0.87946 1.05362 1.05373
 C1189 C 0.82371 1.08041 1.08050
 C1190 C 1.13667 0.93927 1.06091
 H1191 H 1.12091 0.94655 1.05366
 C1192 C 1.17667 0.91970 1.08041
 C1193 C 1.06098 0.86343 1.06116
 H1194 H 1.05372 0.87920 1.05386
 C1195 C 1.08050 0.82336 1.08078
 C1196 C 0.93955 1.13631 1.06086
 H1197 H 0.94679 1.12054 1.05357
 C1198 C 0.92007 1.17628 1.08048
 C1199 C 0.93927 0.93914 1.13698
 H1200 H 0.94658 0.94645 1.12122
 C1201 C 0.91964 0.91956 1.17704
 C1202 C 1.06078 1.06053 1.13659
 H1203 H 1.05348 1.05325 1.12083
 C1204 C 1.08042 1.08005 1.17655
 C1205 C 0.93948 0.86380 1.06083
 H1206 H 0.94673 0.87959 1.05356
 C1207 C 0.91998 0.82377 1.08038
 C1208 C 1.06078 1.13634 1.06068
 H1209 H 1.05352 1.12057 1.05342
 C1210 C 1.08030 1.17631 1.08022
 C1211 C 0.86367 0.93943 1.06094
 H1212 H 0.87943 0.94668 1.05365
 C1213 C 0.82367 0.91998 1.08052
 C1214 C 1.13643 1.06078 1.06082
 H1215 H 1.12069 1.05351 1.05353
 C1216 C 1.17638 1.08028 1.08041
 O1217 O 0.97726 0.41545 0.38365
 O1218 O 0.97738 0.38835 0.35653
 C1219 C 0.96916 0.40707 0.36487
 C1220 C 0.94938 0.41871 0.35313
 C1221 C 0.93947 0.40903 0.33298
 H1222 H 0.94681 0.39347 0.32531
 O1223 O 1.02316 0.58403 0.38387
 O1224 O 1.02304 0.61112 0.35668
 C1225 C 1.03126 0.59239 0.36506
 C1226 C 1.05102 0.58074 0.35333
 C1227 C 1.06093 0.59043 0.33316
 H1228 H 1.05359 0.60601 0.32550
 O1229 O 0.88414 0.47672 0.41554
 O1230 O 0.85712 0.47686 0.38836
 C1231 C 0.86539 0.46868 0.40717
 C1232 C 0.85362 0.44900 0.41893
 C1233 C 0.83348 0.43909 0.40934
 H1234 H 0.82581 0.44639 0.39372
 O1235 O 1.11606 0.52258 0.41589
 O1236 O 1.14312 0.52259 0.38873
 C1237 C 1.13480 0.53070 0.40754
 C1238 C 1.14649 0.55040 0.41928
 C1239 C 1.16664 0.56030 0.40967
 H1240 H 1.17433 0.55298 0.39409
 O1241 O 0.91592 0.38396 0.47698
 O1242 O 0.88891 0.35681 0.47704
 C1243 C 0.90763 0.36517 0.46887
 C1244 C 0.91940 0.35346 0.44915
 C1245 C 0.90983 0.33332 0.43919
 H1246 H 0.89423 0.32565 0.44644
 O1247 O 1.08428 0.61591 0.47702
 O1248 O 1.11133 0.64300 0.47701
 C1249 C 1.09261 0.63467 0.46886
 C1250 C 1.08089 0.64636 0.44910
 C1251 C 1.09047 0.66652 0.43912
 H1252 H 1.10602 0.67420 0.44641
 O1253 O 0.91622 0.52222 0.38400
 O1254 O 0.88922 0.52241 0.35681
 C1255 C 0.90794 0.53048 0.36524
 C1256 C 0.91966 0.55028 0.35364
 C1257 C 0.91001 0.56026 0.33351
 H1258 H 0.89446 0.55297 0.32582
 O1259 O 1.08422 0.47713 0.38414
 O1260 O 1.11127 0.47710 0.35698
 C1261 C 1.09254 0.46898 0.36536
 C1262 C 1.08085 0.44924 0.35368
 C1263 C 1.09052 0.43933 0.33354
 H1264 H 1.10609 0.44664 0.32589
 O1265 O 1.02284 0.38383 0.41562
 O1266 O 1.02294 0.35671 0.38852
 C1267 C 1.03102 0.36508 0.40731
 C1268 C 1.05072 0.35340 0.41910
 C1269 C 1.06065 0.33326 0.40948
 H1270 H 1.05339 0.32558 0.39387
 O1271 O 0.97760 0.61569 0.41576
 O1272 O 0.97749 0.64279 0.38859
 C1273 C 0.96943 0.63444 0.40741
 C1274 C 0.94972 0.64612 0.41918
 C1275 C 0.93983 0.66630 0.40956
 H1276 H 0.94713 0.67401 0.39396
 O1277 O 0.88436 0.58386 0.47709
 O1278 O 0.85731 0.61098 0.47700
 C1279 C 0.86564 0.59220 0.46888
 C1280 C 0.85397 0.58045 0.44911
 C1281 C 0.83381 0.59003 0.43918
 H1282 H 0.82613 0.60560 0.44648
 O1283 O 1.11604 0.41531 0.47708
 O1284 O 1.14311 0.38822 0.47713
 C1285 C 1.13479 0.40698 0.46894
 C1286 C 1.14651 0.41875 0.44915
 C1287 C 1.16668 0.40919 0.43920
 H1288 H 1.17435 0.39359 0.44648
 O1289 O 0.97760 0.58384 0.38407
 O1290 O 0.97747 0.61093 0.35688
 C1291 C 0.96939 0.59217 0.36530
 C1292 C 0.94965 0.58044 0.35366
 C1293 C 0.93966 0.59012 0.33353
 H1294 H 0.94689 0.60574 0.32586
 O1295 O 1.02281 0.41574 0.38394
 O1296 O 1.02297 0.38864 0.35682
 C1297 C 1.03104 0.40741 0.36521
 C1298 C 1.05080 0.41914 0.35359
 C1299 C 1.06080 0.40953 0.33345
 H1300 H 1.05355 0.39395 0.32574
 O1301 O 1.11615 0.47698 0.41573
 O1302 O 1.14321 0.47699 0.38858
 C1303 C 1.13487 0.46881 0.40737
 C1304 C 1.14655 0.44901 0.41908
 C1305 C 1.16670 0.43913 0.40945
 H1306 H 1.17438 0.44652 0.39389
 O1307 O 0.88431 0.52229 0.41561
 O1308 O 0.85729 0.52245 0.38843
 C1309 C 0.86562 0.53053 0.40725
 C1310 C 0.85396 0.55030 0.41900
 C1311 C 0.83381 0.56020 0.40939
 H1312 H 0.82612 0.55287 0.39382
 O1313 O 0.91614 0.61558 0.47718
 O1314 O 0.88911 0.64272 0.47710
 C1315 C 0.90786 0.63436 0.46901
 C1316 C 0.91963 0.64608 0.44929
 C1317 C 0.91005 0.66625 0.43937
 H1318 H 0.89448 0.67392 0.44667
 O1319 O 1.08410 0.38376 0.47721
 O1320 O 1.11115 0.35664 0.47724
 C1321 C 1.09243 0.36502 0.46907
 C1322 C 1.08074 0.35336 0.44929
 C1323 C 1.09037 0.33324 0.43935
 H1324 H 1.10593 0.32556 0.44666
 O1325 O 1.08452 0.52274 0.38386
 O1326 O 1.11157 0.52273 0.35670
 C1327 C 1.09285 0.53090 0.36506
 C1328 C 1.08116 0.55069 0.35333
 C1329 C 1.09076 0.56070 0.33314
 H1330 H 1.10634 0.55344 0.32546
 O1331 O 0.91585 0.47660 0.38367
 O1332 O 0.88885 0.47676 0.35647
 C1333 C 0.90753 0.46851 0.36485
 C1334 C 0.91922 0.44874 0.35312
 C1335 C 0.90962 0.43875 0.33296
 H1336 H 0.89403 0.44601 0.32528
 O1337 O 1.02309 0.61577 0.41569
 O1338 O 1.02298 0.64286 0.38851
 C1339 C 1.03114 0.63455 0.40730
 C1340 C 1.05082 0.64631 0.41900
 C1341 C 1.06067 0.66647 0.40933
 H1342 H 1.05335 0.67413 0.39372
 O1343 O 0.97736 0.38391 0.41572
 O1344 O 0.97744 0.35679 0.38861
 C1345 C 0.96928 0.36513 0.40739
 C1346 C 0.94957 0.35343 0.41912
 C1347 C 0.93971 0.33329 0.40947
 H1348 H 0.94706 0.32561 0.39390
 O1349 O 1.11589 0.58404 0.47710
 O1350 O 1.14298 0.61112 0.47710
 C1351 C 1.13466 0.59234 0.46899
 C1352 C 1.14641 0.58055 0.44933
 C1353 C 1.16656 0.59013 0.43944
 H1354 H 1.17421 0.60572 0.44673
 O1355 O 0.88409 0.41562 0.47697
 O1356 O 0.85706 0.38849 0.47707
 C1357 C 0.86535 0.40725 0.46888
 C1358 C 0.85362 0.41895 0.44914
 C1359 C 0.83349 0.40934 0.43926
 H1360 H 0.82583 0.39377 0.44662
 Cu1361 Cu 1.00005 0.40245 0.40243
 Cu1362 Cu 1.00019 0.36992 0.36990
 Cu1363 Cu 1.00038 0.59711 0.40256
 Cu1364 Cu 1.00023 0.62962 0.36994
 Cu1365 Cu 0.90283 0.49942 0.40241
 Cu1366 Cu 0.87043 0.49965 0.36979
 Cu1367 Cu 1.09753 0.49987 0.40262
 Cu1368 Cu 1.12999 0.49985 0.37003
 C1369 C 0.93921 0.43867 0.36295
 H1370 H 0.94649 0.44598 0.37872
 C1371 C 0.91970 0.41900 0.32292
 C1372 C 1.06117 0.56076 0.36317
 H1373 H 1.05390 0.55344 0.37894
 C1374 C 1.08070 0.58048 0.32311
 C1375 C 0.86344 0.43890 0.43896
 H1376 H 0.87919 0.44616 0.44622
 C1377 C 0.82346 0.41936 0.41947
 C1378 C 1.13662 0.56055 0.43925
 H1379 H 1.12086 0.55330 0.44652
 C1380 C 1.17662 0.58005 0.41972
 C1381 C 0.93941 0.36327 0.43909
 H1382 H 0.94666 0.37902 0.44640
 C1383 C 0.91995 0.32329 0.41946
 C1384 C 1.06095 0.63651 0.43902
 H1385 H 1.05371 0.62074 0.44635
 C1386 C 1.08039 0.67652 0.41935
 C1387 C 0.93959 0.56041 0.36351
 H1388 H 0.94688 0.55311 0.37928
 C1389 C 0.91995 0.58007 0.32353
 C1390 C 1.06087 0.43911 0.36348
 H1391 H 1.05356 0.44637 0.37926
 C1392 C 1.08054 0.41960 0.32349
 C1393 C 1.06080 0.36322 0.43912
 H1394 H 1.05352 0.37898 0.44639
 C1395 C 1.08036 0.32325 0.41957
 C1396 C 0.93960 0.63625 0.43918
 H1397 H 0.94685 0.62047 0.44646
 C1398 C 0.92010 0.67630 0.41962
 C1399 C 0.86381 0.56046 0.43898
 H1400 H 0.87956 0.55320 0.44626
 C1401 C 0.82379 0.57995 0.41943
 C1402 C 1.13671 0.43879 0.43906
 H1403 H 1.12096 0.44605 0.44636
 C1404 C 1.17673 0.41934 0.41945
 O1405 O 1.02262 0.41584 0.61588
 O1406 O 1.02266 0.38875 0.64306
 C1407 C 1.03076 0.40751 0.63466
 C1408 C 1.05048 0.41922 0.64632
 C1409 C 1.06039 0.40955 0.66647
 H1410 H 1.05309 0.39398 0.67417
 O1411 O 0.97748 0.58387 0.61596
 O1412 O 0.97745 0.61095 0.64310
 C1413 C 0.96933 0.59220 0.63473
 C1414 C 0.94960 0.58050 0.64642
 C1415 C 0.93968 0.59017 0.66656
 H1416 H 0.94701 0.60573 0.67424
 O1417 O 0.88423 0.52260 0.58430
 O1418 O 0.85714 0.52262 0.61142
 C1419 C 0.86548 0.53075 0.59262
 C1420 C 0.85380 0.55046 0.58083
 C1421 C 0.83366 0.56038 0.59042
 H1422 H 0.82598 0.55310 0.60603
 O1423 O 1.11584 0.47711 0.58405
 O1424 O 1.14291 0.47704 0.61118
 C1425 C 1.13458 0.46895 0.59238
 C1426 C 1.14628 0.44925 0.58062
 C1427 C 1.16645 0.43939 0.59022
 H1428 H 1.17414 0.44673 0.60578
 O1429 O 1.08429 0.38360 0.52292
 O1430 O 1.11133 0.35648 0.52299
 C1431 C 1.09261 0.36484 0.53115
 C1432 C 1.08086 0.35317 0.55099
 C1433 C 1.09041 0.33299 0.56101
 H1434 H 1.10597 0.32528 0.55374
 O1435 O 0.91599 0.61561 0.52283
 O1436 O 0.88896 0.64275 0.52277
 C1437 C 0.90768 0.63438 0.53096
 C1438 C 0.91940 0.64609 0.55072
 C1439 C 0.90981 0.66625 0.56066
 H1440 H 0.89424 0.67393 0.55337
 O1441 O 0.91590 0.47696 0.61616
 O1442 O 0.88883 0.47701 0.64330
 C1443 C 0.90754 0.46882 0.63495
 C1444 C 0.91918 0.44903 0.64669
 C1445 C 0.90951 0.43912 0.66685
 H1446 H 0.89396 0.44648 0.67451
 O1447 O 1.08421 0.52270 0.61590
 O1448 O 1.11126 0.52260 0.64305
 C1449 C 1.09256 0.53080 0.63469
 C1450 C 1.08092 0.55055 0.64641
 C1451 C 1.09061 0.56046 0.66654
 H1452 H 1.10619 0.55314 0.67417
 O1453 O 0.97726 0.38400 0.58410
 O1454 O 0.97721 0.35690 0.61128
 C1455 C 0.96912 0.36525 0.59246
 C1456 C 0.94945 0.35358 0.58070
 C1457 C 0.93952 0.33345 0.59035
 H1458 H 0.94676 0.32577 0.60598
 O1459 O 1.02291 0.61570 0.58414
 O1460 O 1.02290 0.64281 0.61126
 C1461 C 1.03102 0.63446 0.59247
 C1462 C 1.05070 0.64617 0.58070
 C1463 C 1.06059 0.66632 0.59032
 H1464 H 1.05330 0.67399 0.60593
 O1465 O 0.88423 0.41574 0.52261
 O1466 O 0.85721 0.38861 0.52273
 C1467 C 0.86553 0.40739 0.53082
 C1468 C 0.85387 0.41915 0.55058
 C1469 C 0.83371 0.40959 0.56051
 H1470 H 0.82602 0.39403 0.55321
 O1471 O 1.11587 0.58410 0.52267
 O1472 O 1.14295 0.61117 0.52271
 C1473 C 1.13460 0.59241 0.53083
 C1474 C 1.14625 0.58063 0.55056
 C1475 C 1.16636 0.59020 0.56052
 H1476 H 1.17404 0.60580 0.55325
 O1477 O 1.02299 0.58404 0.61607
 O1478 O 1.02299 0.61113 0.64320
 C1479 C 1.03114 0.59239 0.63484
 C1480 C 1.05089 0.58068 0.64651
 C1481 C 1.06088 0.59029 0.66664
 H1482 H 1.05363 0.60587 0.67435
 O1483 O 0.97708 0.41545 0.61621
 O1484 O 0.97710 0.38837 0.64341
 C1485 C 0.96893 0.40711 0.63502
 C1486 C 0.94916 0.41882 0.64673
 C1487 C 0.93916 0.40921 0.66691
 H1488 H 0.94640 0.39360 0.67462
 O1489 O 1.11580 0.52265 0.58401
 O1490 O 1.14287 0.52258 0.61115
 C1491 C 1.13454 0.53074 0.59236
 C1492 C 1.14623 0.55046 0.58064
 C1493 C 1.16633 0.56032 0.59030
 H1494 H 1.17399 0.55299 0.60590
 O1495 O 0.88437 0.47705 0.58416
 O1496 O 0.85728 0.47706 0.61128
 C1497 C 0.86562 0.46894 0.59248
 C1498 C 0.85391 0.44925 0.58071
 C1499 C 0.83374 0.43940 0.59031
 H1500 H 0.82606 0.44673 0.60590
 O1501 O 1.08414 0.61579 0.52264
 O1502 O 1.11119 0.64289 0.52267
 C1503 C 1.09246 0.63453 0.53080
 C1504 C 1.08074 0.64620 0.55055
 C1505 C 1.09033 0.66634 0.56048
 H1506 H 1.10588 0.67403 0.55316
 O1507 O 0.91599 0.38404 0.52259
 O1508 O 0.88899 0.35688 0.52268
 C1509 C 0.90771 0.36527 0.53078
 C1510 C 0.91945 0.35360 0.55052
 C1511 C 0.90984 0.33346 0.56046
 H1512 H 0.89430 0.32578 0.55314
 O1513 O 1.08403 0.47713 0.61578
 O1514 O 1.11109 0.47701 0.64293
 C1515 C 1.09234 0.46894 0.63456
 C1516 C 1.08059 0.44923 0.64627
 C1517 C 1.09021 0.43925 0.66643
 H1518 H 1.10579 0.44650 0.67410
 O1519 O 0.91607 0.52258 0.61599
 O1520 O 0.88899 0.52264 0.64312
 C1521 C 0.90773 0.53076 0.63475
 C1522 C 0.91945 0.55050 0.64642
 C1523 C 0.90983 0.56050 0.66655
 H1524 H 0.89422 0.55327 0.67423
 O1525 O 0.97742 0.61570 0.58420
 O1526 O 0.97739 0.64280 0.61132
 C1527 C 0.96927 0.63445 0.59254
 C1528 C 0.94953 0.64612 0.58081
 C1529 C 0.93963 0.66627 0.59043
 H1530 H 0.94696 0.67396 0.60600
 O1531 O 1.02280 0.38375 0.58441
 O1532 O 1.02276 0.35665 0.61158
 C1533 C 1.03094 0.36498 0.59279
 C1534 C 1.05071 0.35325 0.58110
 C1535 C 1.06058 0.33307 0.59079
 H1536 H 1.05322 0.32542 0.60639
 O1537 O 1.11581 0.41559 0.52273
 O1538 O 1.14289 0.38850 0.52281
 C1539 C 1.13456 0.40729 0.53089
 C1540 C 1.14626 0.41910 0.55056
 C1541 C 1.16642 0.40954 0.56047
 H1542 H 1.17410 0.39396 0.55318
 O1543 O 0.88425 0.58388 0.52275
 O1544 O 0.85720 0.61100 0.52269
 C1545 C 0.86551 0.59223 0.53086
 C1546 C 0.85381 0.58052 0.55062
 C1547 C 0.83367 0.59014 0.56051
 H1548 H 0.82601 0.60571 0.55316
 Cu1549 Cu 0.99993 0.40247 0.59744
 Cu1550 Cu 0.99993 0.36996 0.63005
 Cu1551 Cu 1.00021 0.59711 0.59739
 Cu1552 Cu 1.00017 0.62963 0.62994
 Cu1553 Cu 0.90276 0.40256 0.49977
 Cu1554 Cu 0.87034 0.36998 0.49990
 Cu1555 Cu 1.09736 0.40226 0.49999
 Cu1556 Cu 1.12982 0.36974 0.50006
 Cu1557 Cu 0.90288 0.59702 0.49997
 Cu1558 Cu 0.87044 0.62958 0.49987
 Cu1559 Cu 1.09733 0.59726 0.49985
 Cu1560 Cu 1.12982 0.62977 0.49987
 Cu1561 Cu 0.90286 0.49980 0.59745
 Cu1562 Cu 0.87036 0.49983 0.63000
 Cu1563 Cu 1.09725 0.49990 0.59722
 Cu1564 Cu 1.12974 0.49979 0.62980
 C1565 C 1.06061 0.43918 0.63644
 H1566 H 1.05334 0.44649 0.62066
 C1567 C 1.08014 0.41953 0.67647
 C1568 C 0.93945 0.56055 0.63658
 H1569 H 0.94673 0.55325 0.62081
 C1570 C 0.91991 0.58022 0.67656
 C1571 C 0.86363 0.56055 0.56080
 H1572 H 0.87938 0.55327 0.55354
 C1573 C 0.82366 0.58011 0.58029
 C1574 C 1.13643 0.43909 0.56065
 H1575 H 1.12066 0.44634 0.55339
 C1576 C 1.17646 0.41964 0.58018
 C1577 C 1.06089 0.36304 0.56109
 H1578 H 1.05365 0.37880 0.55374
 C1579 C 1.08032 0.32298 0.58081
 C1580 C 0.93938 0.63626 0.56083
 H1581 H 0.94664 0.62050 0.55356
 C1582 C 0.91989 0.67629 0.58041
 C1583 C 0.93912 0.43885 0.63687
 H1584 H 0.94644 0.44614 0.62110
 C1585 C 0.91944 0.41932 0.67693
 C1586 C 1.06095 0.56069 0.63663
 H1587 H 1.05363 0.55343 0.62087
 C1588 C 1.08064 0.58021 0.67660
 C1589 C 0.93938 0.36343 0.56066
 H1590 H 0.94665 0.37920 0.55337
 C1591 C 0.91983 0.32345 0.58025
 C1592 C 1.06080 0.63635 0.56070
 H1593 H 1.05356 0.62057 0.55343
 C1594 C 1.08029 0.67634 0.58024
 C1595 C 0.86373 0.43911 0.56071
 H1596 H 0.87950 0.44634 0.55343
 C1597 C 0.82370 0.41969 0.58026
 C1598 C 1.13642 0.56063 0.56064
 H1599 H 1.12068 0.55338 0.55334
 C1600 C 1.17634 0.58008 0.58027
 O1601 O 0.58415 1.02317 0.61631
 O1602 O 0.61123 1.02304 0.64343
 C1603 C 0.59253 1.03127 0.63510
 C1604 C 0.58091 1.05107 0.64684
 C1605 C 0.59060 1.06099 0.66698
 H1606 H 0.60617 1.05365 0.67461
 O1607 O 0.41573 0.97747 0.61592
 O1608 O 0.38875 0.97747 0.64316
 C1609 C 0.40747 0.96935 0.63476
 C1610 C 0.41920 0.94966 0.64649
 C1611 C 0.40956 0.93976 0.66666
 H1612 H 0.39400 0.94708 0.67434
 O1613 O 0.52273 1.11590 0.58408
 O1614 O 0.52271 1.14302 0.61117
 C1615 C 0.53083 1.13466 0.59239
 C1616 C 0.55052 1.14633 0.58063
 C1617 C 0.56042 1.16646 0.59027
 H1618 H 0.55313 1.17413 0.60588
 O1619 O 0.47702 0.88441 0.58424
 O1620 O 0.47701 0.85730 0.61142
 C1621 C 0.46890 0.86566 0.59261
 C1622 C 0.44923 0.85396 0.58087
 C1623 C 0.43933 0.83381 0.59051
 H1624 H 0.44659 0.82613 0.60614
 O1625 O 0.61575 1.08427 0.52261
 O1626 O 0.64282 1.11136 0.52267
 C1627 C 0.63447 1.09258 0.53079
 C1628 C 0.64612 1.08081 0.55053
 C1629 C 0.66624 1.09038 0.56047
 H1630 H 0.67394 1.10595 0.55317
 O1631 O 0.38407 0.91595 0.52271
 O1632 O 0.35700 0.88886 0.52287
 C1633 C 0.36536 0.90764 0.53094
 C1634 C 0.35370 0.91941 0.55070
 C1635 C 0.33356 0.90985 0.56066
 H1636 H 0.32586 0.89428 0.55338
 O1637 O 0.47745 1.08401 0.61595
 O1638 O 0.47736 1.11113 0.64305
 C1639 C 0.46929 1.09235 0.63470
 C1640 C 0.44957 1.08066 0.64636
 C1641 C 0.43966 1.09033 0.66648
 H1642 H 0.44699 1.10588 0.67417
 O1643 O 0.52249 0.91620 0.61595
 O1644 O 0.52251 0.88910 0.64313
 C1645 C 0.53063 0.90785 0.63474
 C1646 C 0.55034 0.91954 0.64641
 C1647 C 0.56025 0.90985 0.66655
 H1648 H 0.55294 0.89426 0.67424
 O1649 O 0.61569 0.97749 0.58440
 O1650 O 0.64280 0.97740 0.61149
 C1651 C 0.63444 0.96932 0.59270
 C1652 C 0.64613 0.94962 0.58090
 C1653 C 0.66630 0.93971 0.59046
 H1654 H 0.67400 0.94701 0.60604
 O1655 O 0.38384 1.02301 0.58426
 O1656 O 0.35684 1.02297 0.61147
 C1657 C 0.36511 1.03112 0.59266
 C1658 C 0.35336 1.05081 0.58093
 C1659 C 0.33324 1.06070 0.59058
 H1660 H 0.32562 1.05341 0.60623
 O1661 O 0.41560 1.11598 0.52308
 O1662 O 0.38854 1.14309 0.52299
 C1663 C 0.40725 1.13474 0.53121
 C1664 C 0.41896 1.14645 0.55102
 C1665 C 0.40937 1.16662 0.56097
 H1666 H 0.39379 1.17429 0.55367
 O1667 O 0.58397 0.88444 0.52287
 O1668 O 0.61096 0.85727 0.52293
 C1669 C 0.59224 0.86566 0.53105
 C1670 C 0.58047 0.85397 0.55081
 C1671 C 0.59004 0.83381 0.56078
 H1672 H 0.60561 0.82612 0.55351
 O1673 O 0.41583 1.02297 0.61577
 O1674 O 0.38885 1.02299 0.64301
 C1675 C 0.40758 1.03109 0.63459
 C1676 C 0.41937 1.05074 0.64629
 C1677 C 0.40977 1.06071 0.66643
 H1678 H 0.39414 1.05352 0.67410
 O1679 O 0.58381 0.97756 0.61604
 O1680 O 0.61090 0.97740 0.64314
 C1681 C 0.59215 0.96933 0.63478
 C1682 C 0.58043 0.94957 0.64644
 C1683 C 0.59006 0.93955 0.66656
 H1684 H 0.60565 0.94678 0.67424
 O1685 O 0.52250 0.88441 0.58423
 O1686 O 0.52251 0.85730 0.61140
 C1687 C 0.53063 0.86565 0.59260
 C1688 C 0.55034 0.85397 0.58089
 C1689 C 0.56022 0.83381 0.59056
 H1690 H 0.55289 0.82613 0.60615
 O1691 O 0.47717 1.11609 0.58444
 O1692 O 0.47715 1.14322 0.61152
 C1693 C 0.46897 1.13483 0.59278
 C1694 C 0.44913 1.14648 0.58110
 C1695 C 0.43922 1.16665 0.59072
 H1696 H 0.44657 1.17435 0.60627
 O1697 O 0.38379 1.08429 0.52295
 O1698 O 0.35670 1.11138 0.52283
 C1699 C 0.36501 1.09262 0.53102
 C1700 C 0.35328 1.08087 0.55074
 C1701 C 0.33312 1.09044 0.56065
 H1702 H 0.32541 1.10599 0.55330
 O1703 O 0.61569 0.91619 0.52283
 O1704 O 0.64271 0.88904 0.52289
 C1705 C 0.63441 0.90782 0.53100
 C1706 C 0.64610 0.91955 0.55074
 C1707 C 0.66625 0.90994 0.56063
 H1708 H 0.67392 0.89437 0.55330
 O1709 O 0.47702 0.91613 0.61605
 O1710 O 0.47701 0.88904 0.64323
 C1711 C 0.46890 0.90780 0.63485
 C1712 C 0.44921 0.91954 0.64654
 C1713 C 0.43925 0.90991 0.66671
 H1714 H 0.44648 0.89430 0.67440
 O1715 O 0.52297 1.08455 0.61636
 O1716 O 0.52290 1.11166 0.64347
 C1717 C 0.53110 1.09292 0.63515
 C1718 C 0.55088 1.08123 0.64689
 C1719 C 0.56087 1.09084 0.66706
 H1720 H 0.55360 1.10642 0.67477
 O1721 O 0.38407 0.97745 0.58409
 O1722 O 0.35707 0.97740 0.61131
 C1723 C 0.36538 0.96928 0.59250
 C1724 C 0.35371 0.94955 0.58079
 C1725 C 0.33358 0.93967 0.59044
 H1726 H 0.32591 0.94701 0.60602
 O1727 O 0.61556 1.02301 0.58419
 O1728 O 0.64266 1.02293 0.61129
 C1729 C 0.63432 1.03107 0.59249
 C1730 C 0.64604 1.05072 0.58069
 C1731 C 0.66617 1.06057 0.59032
 H1732 H 0.67382 1.05325 0.60593
 O1733 O 0.41586 0.88430 0.52265
 O1734 O 0.38882 0.85719 0.52281
 C1735 C 0.40755 0.86557 0.53089
 C1736 C 0.41926 0.85393 0.55067
 C1737 C 0.40965 0.83380 0.56061
 H1738 H 0.39411 0.82611 0.55329
 O1739 O 0.58400 1.11594 0.52260
 O1740 O 0.61104 1.14305 0.52265
 C1741 C 0.59231 1.13467 0.53077
 C1742 C 0.58059 1.14632 0.55052
 C1743 C 0.59019 1.16644 0.56046
 H1744 H 0.60576 1.17411 0.55317
 Cu1745 Cu 0.59708 1.00032 0.59754
 Cu1746 Cu 0.62960 1.00018 0.63006
 Cu1747 Cu 0.40256 1.00024 0.59728
 Cu1748 Cu 0.37017 1.00021 0.62997
 Cu1749 Cu 0.50010 1.09743 0.59750
 Cu1750 Cu 0.50002 1.12997 0.63001
 Cu1751 Cu 0.49975 0.90300 0.59740
 Cu1752 Cu 0.49976 0.87047 0.63002
 C1753 C 0.56095 1.06123 0.63705
 H1754 H 0.55362 1.05394 0.62130
 C1755 C 0.58064 1.08076 0.67707
 C1756 C 0.43915 0.93954 0.63667
 H1757 H 0.44644 0.94682 0.62088
 C1758 C 0.41954 0.92000 0.67670
 C1759 C 0.56063 1.13649 0.56064
 H1760 H 0.55338 1.12072 0.55337
 C1761 C 0.58015 1.17644 0.58023
 C1762 C 0.43917 0.86379 0.56082
 H1763 H 0.44642 0.87957 0.55354
 C1764 C 0.41964 0.82380 0.58041
 C1765 C 0.63625 1.06085 0.56066
 H1766 H 0.62051 1.05360 0.55338
 C1767 C 0.67620 1.08028 0.58025
 C1768 C 0.36354 0.93939 0.56080
 H1769 H 0.37929 0.94664 0.55350
 C1770 C 0.32356 0.91994 0.58041
 C1771 C 0.43940 1.06074 0.63648
 H1772 H 0.44667 1.05343 0.62071
 C1773 C 0.41988 1.08040 0.67644
 C1774 C 0.56046 0.93952 0.63658
 H1775 H 0.55320 0.94685 0.62080
 C1776 C 0.58000 0.91980 0.67655
 C1777 C 0.63628 0.93952 0.56090
 H1778 H 0.62052 0.94679 0.55364
 C1779 C 0.67629 0.91998 0.58037
 C1780 C 0.36313 1.06092 0.56089
 H1781 H 0.37888 1.05366 0.55360
 C1782 C 0.32316 1.08040 0.58047
 C1783 C 0.43895 1.13662 0.56114
 H1784 H 0.44621 1.12086 0.55385
 C1785 C 0.41945 1.17668 0.58071
 C1786 C 0.56050 0.86382 0.56089
 H1787 H 0.55326 0.87959 0.55359
 C1788 C 0.57996 0.82380 0.58055
 O1789 O 0.58388 0.97754 0.38412
 O1790 O 0.61089 0.97749 0.35692
 C1791 C 0.59217 0.96937 0.36534
 C1792 C 0.58047 0.94962 0.35369
 C1793 C 0.59014 0.93968 0.33356
 H1794 H 0.60572 0.94698 0.32590
 O1795 O 0.41598 1.02251 0.38407
 O1796 O 0.38892 1.02273 0.35692
 C1797 C 0.40766 1.03079 0.36534
 C1798 C 0.41935 1.05062 0.35376
 C1799 C 0.40971 1.06059 0.33363
 H1800 H 0.39416 1.05329 0.32593
 O1801 O 0.47723 1.11608 0.41590
 O1802 O 0.47710 1.14319 0.38873
 C1803 C 0.46902 1.13481 0.40754
 C1804 C 0.44926 1.14645 0.41927
 C1805 C 0.43933 1.16660 0.40963
 H1806 H 0.44665 1.17433 0.39406
 O1807 O 0.52238 0.88427 0.41578
 O1808 O 0.52257 0.85716 0.38868
 C1809 C 0.53062 0.86555 0.40747
 C1810 C 0.55038 0.85393 0.41924
 C1811 C 0.56033 0.83380 0.40964
 H1812 H 0.55306 0.82609 0.39404
 O1813 O 0.61582 0.91608 0.47717
 O1814 O 0.64283 0.88892 0.47720
 C1815 C 0.63454 0.90770 0.46903
 C1816 C 0.64625 0.91943 0.44925
 C1817 C 0.66639 0.90983 0.43932
 H1818 H 0.67407 0.89424 0.44665
 O1819 O 0.38409 1.08412 0.47733
 O1820 O 0.35700 1.11120 0.47717
 C1821 C 0.36537 1.09242 0.46909
 C1822 C 0.35375 1.08062 0.44932
 C1823 C 0.33361 1.09018 0.43936
 H1824 H 0.32589 1.10575 0.44662
 O1825 O 0.52282 1.08446 0.38398
 O1826 O 0.52268 1.11156 0.35680
 C1827 C 0.53089 1.09283 0.36516
 C1828 C 0.55065 1.08118 0.35342
 C1829 C 0.56055 1.09087 0.33325
 H1830 H 0.55322 1.10645 0.32558
 O1831 O 0.47681 0.91580 0.38369
 O1832 O 0.47702 0.88870 0.35658
 C1833 C 0.46877 0.90742 0.36488
 C1834 C 0.44902 0.91904 0.35310
 C1835 C 0.43913 0.90936 0.33294
 H1836 H 0.44650 0.89380 0.32529
 O1837 O 0.61578 1.02300 0.41579
 O1838 O 0.64281 1.02298 0.38861
 C1839 C 0.63452 1.03109 0.40742
 C1840 C 0.64627 1.05074 0.41918
 C1841 C 0.66643 1.06059 0.40957
 H1842 H 0.67410 1.05327 0.39397
 O1843 O 0.38397 0.97700 0.41563
 O1844 O 0.35690 0.97715 0.38850
 C1845 C 0.36519 0.96898 0.40730
 C1846 C 0.35343 0.94934 0.41911
 C1847 C 0.33328 0.93943 0.40954
 H1848 H 0.32561 0.94670 0.39391
 O1849 O 0.58414 1.11612 0.47697
 O1850 O 0.61118 1.14323 0.47699
 C1851 C 0.59245 1.13490 0.46884
 C1852 C 0.58071 1.14665 0.44912
 C1853 C 0.59030 1.16680 0.43913
 H1854 H 0.60590 1.17444 0.44638
 O1855 O 0.41558 0.88403 0.47699
 O1856 O 0.38853 0.85693 0.47712
 C1857 C 0.40725 0.86525 0.46888
 C1858 C 0.41894 0.85352 0.44910
 C1859 C 0.40936 0.83335 0.43915
 H1860 H 0.39380 0.82568 0.44645
 O1861 O 0.41554 0.97688 0.38362
 O1862 O 0.38849 0.97707 0.35647
 C1863 C 0.40718 0.96882 0.36481
 C1864 C 0.41885 0.94905 0.35306
 C1865 C 0.40925 0.93905 0.33290
 H1866 H 0.39365 0.94629 0.32523
 O1867 O 0.58415 1.02316 0.38389
 O1868 O 0.61116 1.02314 0.35669
 C1869 C 0.59247 1.03132 0.36508
 C1870 C 0.58077 1.05112 0.35338
 C1871 C 0.59037 1.06113 0.33321
 H1872 H 0.60594 1.05386 0.32551
 O1873 O 0.47684 0.88408 0.41564
 O1874 O 0.47702 0.85697 0.38853
 C1875 C 0.46879 0.86529 0.40729
 C1876 C 0.44906 0.85353 0.41899
 C1877 C 0.43919 0.83336 0.40936
 H1878 H 0.44653 0.82570 0.39378
 O1879 O 0.52276 1.11618 0.41583
 O1880 O 0.52263 1.14329 0.38865
 C1881 C 0.53082 1.13496 0.40743
 C1882 C 0.55055 1.14669 0.41910
 C1883 C 0.56043 1.16685 0.40941
 H1884 H 0.55308 1.17453 0.39383
 O1885 O 0.38397 0.91593 0.47709
 O1886 O 0.35690 0.88884 0.47724
 C1887 C 0.36520 0.90760 0.46905
 C1888 C 0.35345 0.91932 0.44934
 C1889 C 0.33331 0.90970 0.43948
 H1890 H 0.32567 0.89413 0.44685
 O1891 O 0.61581 1.08431 0.47704
 O1892 O 0.64288 1.11139 0.47706
 C1893 C 0.63457 1.09262 0.46894
 C1894 C 0.64629 1.08085 0.44927
 C1895 C 0.66646 1.09039 0.43937
 H1896 H 0.67415 1.10596 0.44666
 O1897 O 0.52237 0.91608 0.38399
 O1898 O 0.52260 0.88898 0.35687
 C1899 C 0.53064 0.90776 0.36526
 C1900 C 0.55042 0.91950 0.35363
 C1901 C 0.56042 0.90988 0.33350
 H1902 H 0.55318 0.89430 0.32579
 O1903 O 0.47727 1.08422 0.38422
 O1904 O 0.47712 1.11132 0.35704
 C1905 C 0.46906 1.09254 0.36545
 C1906 C 0.44933 1.08080 0.35380
 C1907 C 0.43936 1.09045 0.33366
 H1908 H 0.44660 1.10606 0.32597
 O1909 O 0.38417 1.02252 0.41574
 O1910 O 0.35709 1.02270 0.38862
 C1911 C 0.36546 1.03074 0.40743
 C1912 C 0.35381 1.05047 0.41922
 C1913 C 0.33368 1.06034 0.40959
 H1914 H 0.32600 1.05301 0.39401
 O1915 O 0.61582 0.97746 0.41570
 O1916 O 0.64285 0.97742 0.38851
 C1917 C 0.63454 0.96930 0.40733
 C1918 C 0.64625 0.94956 0.41909
 C1919 C 0.66639 0.93966 0.40948
 H1920 H 0.67406 0.94699 0.39388
 O1921 O 0.58392 0.88449 0.47722
 O1922 O 0.61091 0.85732 0.47726
 C1923 C 0.59220 0.86571 0.46910
 C1924 C 0.58046 0.85401 0.44937
 C1925 C 0.59008 0.83386 0.43946
 H1926 H 0.60565 0.82619 0.44679
 O1927 O 0.41572 1.11595 0.47737
 O1928 O 0.38866 1.14306 0.47724
 C1929 C 0.40741 1.13469 0.46915
 C1930 C 0.41914 1.14636 0.44937
 C1931 C 0.40951 1.16649 0.43940
 H1932 H 0.39392 1.17413 0.44667
 Cu1933 Cu 0.59720 1.00030 0.40258
 Cu1934 Cu 0.62962 1.00025 0.36995
 Cu1935 Cu 0.40263 0.99967 0.40246
 Cu1936 Cu 0.37015 0.99994 0.36990
 Cu1937 Cu 0.59721 1.09745 0.49979
 Cu1938 Cu 0.62969 1.12998 0.49985
 Cu1939 Cu 0.59715 0.90302 0.50002
 Cu1940 Cu 0.62956 0.87042 0.50008
 Cu1941 Cu 0.40250 1.09739 0.50021
 Cu1942 Cu 0.37003 1.12990 0.50004
 Cu1943 Cu 0.40259 0.90275 0.49983
 Cu1944 Cu 0.37011 0.87024 0.50002
 Cu1945 Cu 0.50004 1.09753 0.40270
 Cu1946 Cu 0.49987 1.13004 0.37009
 Cu1947 Cu 0.49957 0.90277 0.40248
 Cu1948 Cu 0.49982 0.87025 0.36996
 C1949 C 0.56049 0.93949 0.36351
 H1950 H 0.55318 0.94676 0.37928
 C1951 C 0.58017 0.91994 0.32353
 C1952 C 0.43927 1.06077 0.36365
 H1953 H 0.44654 1.05347 0.37944
 C1954 C 0.41966 1.08039 0.32365
 C1955 C 0.43913 1.13656 0.43926
 H1956 H 0.44639 1.12078 0.44655
 C1957 C 0.41956 1.17656 0.41966
 C1958 C 0.56049 0.86381 0.43923
 H1959 H 0.55320 0.87958 0.44649
 C1960 C 0.58007 0.82382 0.41971
 C1961 C 0.63643 0.93942 0.43911
 H1962 H 0.62069 0.94669 0.44639
 C1963 C 0.67642 0.91991 0.41954
 C1964 C 0.36362 1.06063 0.43922
 H1965 H 0.37937 1.05338 0.44652
 C1966 C 0.32364 1.08006 0.41961
 C1967 C 0.56080 1.06119 0.36325
 H1968 H 0.55354 1.05387 0.37902
 C1969 C 0.58030 1.08090 0.32318
 C1970 C 0.43885 0.93900 0.36290
 H1971 H 0.44611 0.94633 0.37866
 C1972 C 0.41935 0.91930 0.32287
 C1973 C 0.63645 1.06088 0.43916
 H1974 H 0.62068 1.05365 0.44644
 C1975 C 0.67646 1.08030 0.41963
 C1976 C 0.36325 0.93928 0.43916
 H1977 H 0.37899 0.94656 0.44642
 C1978 C 0.32328 0.91972 0.41970
 C1979 C 0.56072 1.13684 0.43907
 H1980 H 0.55348 1.12108 0.44639
 C1981 C 0.58020 1.17685 0.41938
 C1982 C 0.43891 0.86334 0.43899
 H1983 H 0.44618 0.87909 0.44629
 C1984 C 0.41944 0.82330 0.41938
 O1985 O 0.58399 0.52249 1.11594
 O1986 O 0.61102 0.52259 1.14311
 C1987 C 0.59230 0.53071 1.13469
 C1988 C 0.58061 0.55052 1.14629
 C1989 C 0.59025 0.56046 1.16643
 H1990 H 0.60579 0.55313 1.17413
 O1991 O 0.41576 0.47713 1.11622
 O1992 O 0.38867 0.47718 1.14334
 C1993 C 0.40739 0.46899 1.13502
 C1994 C 0.41903 0.44921 1.14679
 C1995 C 0.40933 0.43927 1.16694
 H1996 H 0.39375 0.44660 1.17456
 O1997 O 0.52260 0.61603 1.08400
 O1998 O 0.52269 0.64306 1.11120
 C1999 C 0.53076 0.63475 1.09238
 C2000 C 0.55047 0.64643 1.08064
 C2001 C 0.56038 0.66656 1.09026
 H2002 H 0.55307 0.67427 1.10585
 O2003 O 0.47727 0.38450 1.08441
 O2004 O 0.47724 0.35722 1.11141
 C2005 C 0.46916 0.36566 1.09263
 C2006 C 0.44955 0.35397 1.08077
 C2007 C 0.43966 0.33378 1.09036
 H2008 H 0.44690 0.32609 1.10599
 O2009 O 0.61582 0.58407 1.02291
 O2010 O 0.64285 0.61119 1.02289
 C2011 C 0.63454 0.59242 1.03105
 C2012 C 0.64624 0.58066 1.05082
 C2013 C 0.66638 0.59026 1.06075
 H2014 H 0.67404 0.60585 1.05344
 O2015 O 0.38425 0.41592 1.02262
 O2016 O 0.35722 0.38879 1.02272
 C2017 C 0.36554 0.40757 1.03082
 C2018 C 0.35386 0.41931 1.05057
 C2019 C 0.33372 0.40972 1.06051
 H2020 H 0.32604 0.39415 1.05321
 O2021 O 0.47718 0.58418 1.11582
 O2022 O 0.47724 0.61120 1.14303
 C2023 C 0.46908 0.59248 1.13464
 C2024 C 0.44938 0.58076 1.14635
 C2025 C 0.43947 0.59042 1.16650
 H2026 H 0.44678 0.60600 1.17416
 O2027 O 0.52275 0.41599 1.11653
 O2028 O 0.52271 0.38873 1.14355
 C2029 C 0.53090 0.40750 1.13526
 C2030 C 0.55071 0.41906 1.14697
 C2031 C 0.56063 0.40931 1.16710
 H2032 H 0.55326 0.39375 1.17477
 O2033 O 0.61593 0.47697 1.08434
 O2034 O 0.64299 0.47702 1.11149
 C2035 C 0.63469 0.46889 1.09269
 C2036 C 0.64645 0.44923 1.08090
 C2037 C 0.66659 0.43932 1.09049
 H2038 H 0.67424 0.44657 1.10612
 O2039 O 0.38413 0.52280 1.08430
 O2040 O 0.35701 0.52279 1.11140
 C2041 C 0.36536 0.53093 1.09262
 C2042 C 0.35366 0.55065 1.08084
 C2043 C 0.33349 0.56054 1.09044
 H2044 H 0.32582 0.55322 1.10604
 O2045 O 0.41577 0.61623 1.02300
 O2046 O 0.38867 0.64330 1.02295
 C2047 C 0.40740 0.63499 1.03113
 C2048 C 0.41911 0.64670 1.05088
 C2049 C 0.40951 0.66684 1.06086
 H2050 H 0.39394 0.67452 1.05358
 O2051 O 0.58409 0.38437 1.02284
 O2052 O 0.61110 0.35720 1.02290
 C2053 C 0.59237 0.36560 1.03103
 C2054 C 0.58061 0.35393 1.05079
 C2055 C 0.59017 0.33375 1.06075
 H2056 H 0.60573 0.32606 1.05345
 O2057 O 0.41596 0.52275 1.11600
 O2058 O 0.38886 0.52282 1.14311
 C2059 C 0.40760 0.53094 1.13475
 C2060 C 0.41930 0.55070 1.14642
 C2061 C 0.40968 0.56069 1.16656
 H2062 H 0.39410 0.55343 1.17426
 O2063 O 0.58435 0.47686 1.11635
 O2064 O 0.61138 0.47693 1.14352
 C2065 C 0.59268 0.46874 1.13517
 C2066 C 0.58096 0.44898 1.14693
 C2067 C 0.59056 0.43893 1.16708
 H2068 H 0.60617 0.44613 1.17474
 O2069 O 0.52274 0.38449 1.08449
 O2070 O 0.52271 0.35721 1.11149
 C2071 C 0.53084 0.36566 1.09273
 C2072 C 0.55053 0.35397 1.08094
 C2073 C 0.56039 0.33378 1.09056
 H2074 H 0.55308 0.32609 1.10615
 O2075 O 0.47709 0.61617 1.08419
 O2076 O 0.47717 0.64319 1.11139
 C2077 C 0.46899 0.63491 1.09261
 C2078 C 0.44924 0.64666 1.08095
 C2079 C 0.43935 0.66680 1.09062
 H2080 H 0.44668 0.67444 1.10621
 O2081 O 0.38418 0.58432 1.02294
 O2082 O 0.35706 0.61136 1.02287
 C2083 C 0.36540 0.59260 1.03102
 C2084 C 0.35367 0.58080 1.05072
 C2085 C 0.33350 0.59037 1.06060
 H2086 H 0.32583 0.60595 1.05328
 O2087 O 0.61602 0.41591 1.02282
 O2088 O 0.64305 0.38876 1.02283
 C2089 C 0.63476 0.40754 1.03096
 C2090 C 0.64648 0.41924 1.05068
 C2091 C 0.66663 0.40963 1.06057
 H2092 H 0.67432 0.39409 1.05320
 O2093 O 0.47713 0.41594 1.11655
 O2094 O 0.47707 0.38868 1.14356
 C2095 C 0.46892 0.40746 1.13526
 C2096 C 0.44909 0.41910 1.14693
 C2097 C 0.43906 0.40944 1.16707
 H2098 H 0.44631 0.39384 1.17478
 O2099 O 0.52270 0.58420 1.11577
 O2100 O 0.52277 0.61121 1.14298
 C2101 C 0.53088 0.59247 1.13456
 C2102 C 0.55062 0.58071 1.14623
 C2103 C 0.56058 0.59033 1.16639
 H2104 H 0.55333 0.60593 1.17406
 O2105 O 0.38430 0.47723 1.08415
 O2106 O 0.35719 0.47722 1.11125
 C2107 C 0.36555 0.46911 1.09246
 C2108 C 0.35387 0.44941 1.08069
 C2109 C 0.33372 0.43953 1.09031
 H2110 H 0.32605 0.44685 1.10590
 O2111 O 0.61591 0.52253 1.08436
 O2112 O 0.64296 0.52260 1.11151
 C2113 C 0.63463 0.53071 1.09270
 C2114 C 0.64629 0.55048 1.08093
 C2115 C 0.66642 0.56038 1.09054
 H2116 H 0.67411 0.55304 1.10612
 O2117 O 0.41613 0.38435 1.02258
 O2118 O 0.38913 0.35719 1.02267
 C2119 C 0.40786 0.36558 1.03077
 C2120 C 0.41960 0.35392 1.05053
 C2121 C 0.41001 0.33376 1.06044
 H2122 H 0.39448 0.32606 1.05310
 O2123 O 0.58407 0.61582 1.02281
 O2124 O 0.61108 0.64296 1.02277
 C2125 C 0.59235 0.63461 1.03090
 C2126 C 0.58060 0.64634 1.05058
 C2127 C 0.59020 0.66648 1.06050
 H2128 H 0.60579 0.67412 1.05321
 Cu2129 Cu 0.59734 0.49968 1.09754
 Cu2130 Cu 0.62978 0.49979 1.13013
 Cu2131 Cu 0.40276 0.49998 1.09747
 Cu2132 Cu 0.37023 0.50000 1.12999
 Cu2133 Cu 0.49988 0.59745 1.09722
 Cu2134 Cu 0.49998 0.62986 1.12988
 Cu2135 Cu 0.49997 0.40298 1.09783
 Cu2136 Cu 0.49993 0.37025 1.13021
 C2137 C 0.56068 0.56069 1.13641
 H2138 H 0.55340 0.55342 1.12063
 C2139 C 0.58029 0.58024 1.17642
 C2140 C 0.43902 0.43909 1.13703
 H2141 H 0.44635 0.44639 1.12128
 C2142 C 0.41928 0.41950 1.17705
 C2143 C 0.56060 0.63655 1.06067
 H2144 H 0.55334 0.62079 1.05340
 C2145 C 0.58013 0.67653 1.08022
 C2146 C 0.43950 0.36380 1.06072
 H2147 H 0.44675 0.37959 1.05345
 C2148 C 0.42000 0.32375 1.08024
 C2149 C 0.63644 0.56065 1.06094
 H2150 H 0.62070 0.55338 1.05366
 C2151 C 0.67641 0.58016 1.08051
 C2152 C 0.36369 0.43928 1.06069
 H2153 H 0.37944 0.44654 1.05340
 C2154 C 0.32371 0.41981 1.08026
 C2155 C 0.43926 0.56078 1.13654
 H2156 H 0.44654 0.55348 1.12077
 C2157 C 0.41974 0.58044 1.17655
 C2158 C 0.56092 0.43899 1.13712
 H2159 H 0.55366 0.44635 1.12136
 C2160 C 0.58045 0.41919 1.17712
 C2161 C 0.63664 0.43918 1.06086
 H2162 H 0.62089 0.44646 1.05359
 C2163 C 0.67663 0.41963 1.08036
 C2164 C 0.36350 0.56081 1.06085
 H2165 H 0.37926 0.55356 1.05358
 C2166 C 0.32347 0.58029 1.08036
 C2167 C 0.43909 0.63686 1.06096
 H2168 H 0.44635 0.62112 1.05364
 C2169 C 0.41959 0.67685 1.08063
 C2170 C 0.56066 0.36381 1.06092
 H2171 H 0.55342 0.37959 1.05363
 C2172 C 0.58010 0.32374 1.08052
 O2173 O 0.58411 0.47736 0.88410
 O2174 O 0.61111 0.47743 0.85689
 C2175 C 0.59242 0.46926 0.86529
 C2176 C 0.58074 0.44953 0.85359
 C2177 C 0.59040 0.43963 0.83344
 H2178 H 0.60597 0.44694 0.82578
 O2179 O 0.41591 0.52285 0.88401
 O2180 O 0.38887 0.52288 0.85684
 C2181 C 0.40759 0.53101 0.86522
 C2182 C 0.41925 0.55077 0.85352
 C2183 C 0.40959 0.56069 0.83338
 H2184 H 0.39403 0.55337 0.82572
 O2185 O 0.47704 0.61602 0.91580
 O2186 O 0.47707 0.64314 0.88864
 C2187 C 0.46894 0.63480 0.90744
 C2188 C 0.44927 0.64651 0.91919
 C2189 C 0.43935 0.66665 0.90955
 H2190 H 0.44660 0.67433 0.89391
 O2191 O 0.52289 0.38418 0.91582
 O2192 O 0.52295 0.35712 0.88865
 C2193 C 0.53106 0.36545 0.90745
 C2194 C 0.55078 0.35377 0.91918
 C2195 C 0.56071 0.33363 0.90955
 H2196 H 0.55342 0.32594 0.89396
 O2197 O 0.61592 0.41602 0.97722
 O2198 O 0.64294 0.38887 0.97719
 C2199 C 0.63464 0.40766 0.96906
 C2200 C 0.64632 0.41942 0.94932
 C2201 C 0.66643 0.40983 0.93935
 H2202 H 0.67412 0.39424 0.94663
 O2203 O 0.38429 0.58435 0.97733
 O2204 O 0.35716 0.61139 0.97723
 C2205 C 0.36556 0.59264 0.96913
 C2206 C 0.35393 0.58086 0.94938
 C2207 C 0.33379 0.59043 0.93944
 H2208 H 0.32609 0.60601 0.94671
 O2209 O 0.52249 0.58416 0.88413
 O2210 O 0.52254 0.61126 0.85695
 C2211 C 0.53064 0.59250 0.86534
 C2212 C 0.55037 0.58080 0.85368
 C2213 C 0.56027 0.59048 0.83352
 H2214 H 0.55295 0.60605 0.82583
 O2215 O 0.47736 0.41600 0.88409
 O2216 O 0.47739 0.38896 0.85690
 C2217 C 0.46924 0.40769 0.86530
 C2218 C 0.44950 0.41938 0.85361
 C2219 C 0.43958 0.40973 0.83347
 H2220 H 0.44689 0.39415 0.82580
 O2221 O 0.61584 0.52288 0.91584
 O2222 O 0.64287 0.52295 0.88865
 C2223 C 0.63457 0.53102 0.90748
 C2224 C 0.64628 0.55068 0.91925
 C2225 C 0.66644 0.56056 0.90966
 H2226 H 0.67413 0.55327 0.89406
 O2227 O 0.38410 0.47730 0.91574
 O2228 O 0.35704 0.47736 0.88859
 C2229 C 0.36535 0.46922 0.90738
 C2230 C 0.35364 0.44952 0.91914
 C2231 C 0.33349 0.43963 0.90954
 H2232 H 0.32580 0.44697 0.89396
 O2233 O 0.58404 0.61574 0.97719
 O2234 O 0.61105 0.64288 0.97713
 C2235 C 0.59232 0.63452 0.96901
 C2236 C 0.58056 0.64623 0.94927
 C2237 C 0.59013 0.66639 0.93930
 H2238 H 0.60571 0.67405 0.94657
 O2239 O 0.41591 0.38417 0.97695
 O2240 O 0.38891 0.35702 0.97701
 C2241 C 0.40762 0.36539 0.96884
 C2242 C 0.41937 0.35369 0.94911
 C2243 C 0.40979 0.33356 0.93912
 H2244 H 0.39420 0.32589 0.94637
 O2245 O 0.41598 0.47728 0.88408
 O2246 O 0.38893 0.47730 0.85692
 C2247 C 0.40766 0.46915 0.86530
 C2248 C 0.41938 0.44941 0.85360
 C2249 C 0.40976 0.43945 0.83346
 H2250 H 0.39417 0.44671 0.82578
 O2251 O 0.58398 0.52291 0.88419
 O2252 O 0.61099 0.52300 0.85699
 C2253 C 0.59226 0.53109 0.86540
 C2254 C 0.58051 0.55080 0.85371
 C2255 C 0.59011 0.56079 0.83355
 H2256 H 0.60571 0.55355 0.82588
 O2257 O 0.47740 0.38413 0.91579
 O2258 O 0.47744 0.35707 0.88862
 C2259 C 0.46929 0.36538 0.90741
 C2260 C 0.44956 0.35368 0.91909
 C2261 C 0.43968 0.33355 0.90941
 H2262 H 0.44704 0.32588 0.89384
 O2263 O 0.52252 0.61591 0.91586
 O2264 O 0.52257 0.64304 0.88870
 C2265 C 0.53068 0.63466 0.90750
 C2266 C 0.55041 0.64630 0.91922
 C2267 C 0.56029 0.66646 0.90957
 H2268 H 0.55296 0.67417 0.89399
 O2269 O 0.38421 0.41596 0.97701
 O2270 O 0.35719 0.38883 0.97708
 C2271 C 0.36547 0.40761 0.96892
 C2272 C 0.35371 0.41936 0.94923
 C2273 C 0.33358 0.40976 0.93933
 H2274 H 0.32595 0.39415 0.94664
 O2275 O 0.61585 0.58408 0.97727
 O2276 O 0.64289 0.61121 0.97723
 C2277 C 0.63458 0.59243 0.96912
 C2278 C 0.64628 0.58071 0.94940
 C2279 C 0.66642 0.59031 0.93950
 H2280 H 0.67409 0.60588 0.94683
 O2281 O 0.52287 0.41597 0.88402
 O2282 O 0.52292 0.38894 0.85684
 C2283 C 0.53102 0.40768 0.86523
 C2284 C 0.55072 0.41942 0.85355
 C2285 C 0.56068 0.40982 0.83339
 H2286 H 0.55344 0.39424 0.82569
 O2287 O 0.47701 0.58431 0.88399
 O2288 O 0.47704 0.61141 0.85681
 C2289 C 0.46890 0.59265 0.86519
 C2290 C 0.44921 0.58093 0.85349
 C2291 C 0.43925 0.59056 0.83332
 H2292 H 0.44648 0.60617 0.82562
 O2293 O 0.38434 0.52284 0.91592
 O2294 O 0.35728 0.52291 0.88877
 C2295 C 0.36563 0.53100 0.90756
 C2296 C 0.35396 0.55072 0.91931
 C2297 C 0.33382 0.56059 0.90968
 H2298 H 0.32615 0.55326 0.89409
 O2299 O 0.61581 0.47737 0.91587
 O2300 O 0.64284 0.47742 0.88868
 C2301 C 0.63454 0.46927 0.90748
 C2302 C 0.64626 0.44956 0.91920
 C2303 C 0.66636 0.43969 0.90954
 H2304 H 0.67400 0.44702 0.89392
 O2305 O 0.58425 0.38426 0.97719
 O2306 O 0.61125 0.35709 0.97722
 C2307 C 0.59255 0.36549 0.96905
 C2308 C 0.58085 0.35381 0.94930
 C2309 C 0.59047 0.33367 0.93937
 H2310 H 0.60605 0.32601 0.94667
 O2311 O 0.41594 0.61610 0.97736
 O2312 O 0.38885 0.64318 0.97728
 C2313 C 0.40760 0.63484 0.96917
 C2314 C 0.41929 0.64652 0.94939
 C2315 C 0.40967 0.66666 0.93946
 H2316 H 0.39412 0.67434 0.94679
 Cu2317 Cu 0.59723 0.50013 0.90273
 Cu2318 Cu 0.62965 0.50021 0.87007
 Cu2319 Cu 0.40279 0.50005 0.90265
 Cu2320 Cu 0.37033 0.50012 0.87005
 Cu2321 Cu 0.59725 0.59721 1.00005
 Cu2322 Cu 0.62967 0.62978 1.00000
 Cu2323 Cu 0.59737 0.40286 1.00002
 Cu2324 Cu 0.62978 0.37025 1.00004
 Cu2325 Cu 0.40276 0.59755 1.00018
 Cu2326 Cu 0.37022 0.63002 1.00008
 Cu2327 Cu 0.40282 0.40282 0.99977
 Cu2328 Cu 0.37041 0.37023 0.99988
 Cu2329 Cu 0.49974 0.59739 0.90266
 Cu2330 Cu 0.49982 0.62993 0.87005
 Cu2331 Cu 0.50013 0.40277 0.90265
 Cu2332 Cu 0.50018 0.37032 0.87003
 C2333 C 0.56079 0.43940 0.86342
 H2334 H 0.55349 0.44666 0.87920
 C2335 C 0.58041 0.41989 0.82340
 C2336 C 0.43918 0.56091 0.86335
 H2337 H 0.44647 0.55363 0.87913
 C2338 C 0.41955 0.58046 0.82333
 C2339 C 0.43921 0.63667 0.93923
 H2340 H 0.44647 0.62089 0.94651
 C2341 C 0.41966 0.67666 0.91966
 C2342 C 0.56088 0.36362 0.93917
 H2343 H 0.55361 0.37938 0.94645
 C2344 C 0.58045 0.32364 0.91961
 C2345 C 0.63647 0.43942 0.93922
 H2346 H 0.62074 0.44667 0.94653
 C2347 C 0.67640 0.41994 0.91957
 C2348 C 0.36379 0.56088 0.93929
 H2349 H 0.37955 0.55365 0.94657
 C2350 C 0.32381 0.58033 0.91970
 C2351 C 0.56051 0.56085 0.86355
 H2352 H 0.55326 0.55354 0.87934
 C2353 C 0.58003 0.58052 0.82353
 C2354 C 0.43936 0.43934 0.86345
 H2355 H 0.44663 0.44664 0.87922
 C2356 C 0.41983 0.41971 0.82344
 C2357 C 0.63645 0.56077 0.93926
 H2358 H 0.62069 0.55351 0.94652
 C2359 C 0.67644 0.58027 0.91975
 C2360 C 0.36349 0.43937 0.93911
 H2361 H 0.37924 0.44664 0.94638
 C2362 C 0.32352 0.41986 0.91960
 C2363 C 0.56057 0.63642 0.93919
 H2364 H 0.55332 0.62064 0.94649
 C2365 C 0.58004 0.67644 0.91956
 C2366 C 0.43937 0.36351 0.93906
 H2367 H 0.44662 0.37925 0.94638
 C2368 C 0.41991 0.32355 0.91938
 C2369 C 1.11887 1.11756 1.25039
 C2370 C 1.11016 1.10898 1.23342
 C2371 C 1.09981 1.09897 1.21361
 C2372 C 1.09092 1.09038 1.19673
 C2373 C 1.11910 0.61806 0.75047
 C2374 C 1.11038 0.60939 0.73350
 C2375 C 1.10004 0.59926 0.71369
 C2376 C 1.09117 0.59059 0.69680
 C2377 C 0.61938 1.11835 0.75118
 C2378 C 0.61061 1.10974 0.73415
 C2379 C 0.60015 1.09971 0.71428
 C2380 C 0.59121 1.09111 0.69734
 C2381 C 0.61871 0.61808 1.25035
 C2382 C 0.61000 0.60943 1.23335
 C2383 C 0.59966 0.59931 1.21353
 C2384 C 0.59079 0.59064 1.19663
 C2385 C 0.88116 0.88186 1.25126
 C2386 C 0.88990 0.89049 1.23422
 C2387 C 0.90026 0.90057 1.21431
 C2388 C 0.90913 0.90919 1.19735
 C2389 C 0.88081 0.38188 0.75119
 C2390 C 0.88956 0.39045 0.73414
 C2391 C 0.89998 0.40045 0.71422
 C2392 C 0.90890 0.40901 0.69724
 C2393 C 0.38107 0.88239 0.75067
 C2394 C 0.38979 0.89097 0.73366
 C2395 C 0.40015 0.90101 0.71382
 C2396 C 0.40904 0.90964 0.69691
 C2397 C 0.38048 0.38196 1.25121
 C2398 C 0.38929 0.39055 1.23419
 C2399 C 0.39976 0.40056 1.21429
 C2400 C 0.40872 0.40915 1.19734
 C2401 C 0.88094 1.11778 0.74933
 C2402 C 0.88970 1.10924 0.76635
 C2403 C 0.90013 1.09929 0.78621
 C2404 C 0.90907 1.09075 0.80314
 C2405 C 0.88145 0.61780 0.24959
 C2406 C 0.89015 0.60921 0.26662
 C2407 C 0.90052 0.59915 0.28646
 C2408 C 0.90942 0.59049 0.30335
 C2409 C 0.38126 1.11803 0.24964
 C2410 C 0.38994 1.10947 0.26668
 C2411 C 0.40028 1.09943 0.28654
 C2412 C 0.40915 1.09079 0.30345
 C2413 C 0.38084 0.61802 0.74945
 C2414 C 0.38963 0.60942 0.76642
 C2415 C 0.40008 0.59940 0.78622
 C2416 C 0.40902 0.59080 0.80312
 C2417 C 1.11851 0.88209 0.74944
 C2418 C 1.10986 0.89073 0.76645
 C2419 C 1.09960 0.90085 0.78630
 C2420 C 1.09080 0.90954 0.80321
 C2421 C 1.11883 0.38196 0.24946
 C2422 C 1.11015 0.39058 0.26647
 C2423 C 1.09987 0.40064 0.28633
 C2424 C 1.09103 0.40926 0.30326
 C2425 C 0.61857 0.88226 0.24953
 C2426 C 0.60987 0.89088 0.26653
 C2427 C 0.59955 0.90095 0.28639
 C2428 C 0.59068 0.90958 0.30331
 C2429 C 0.61877 0.38198 0.74953
 C2430 C 0.61006 0.39066 0.76649
 C2431 C 0.59975 0.40082 0.78630
 C2432 C 0.59090 0.40951 0.80319
 C2433 C 1.25033 1.11802 1.11858
 C2434 C 1.23331 1.10941 1.10996
 C2435 C 1.21347 1.09931 1.09970
 C2436 C 1.19658 1.09065 1.09088
 C2437 C 1.25000 0.61801 0.61849
 C2438 C 1.23308 0.60930 0.60983
 C2439 C 1.21334 0.59913 0.59957
 C2440 C 1.19649 0.59043 0.59075
 C2441 C 0.75004 1.11793 0.61837
 C2442 C 0.73307 1.10931 0.60974
 C2443 C 0.71326 1.09923 0.59951
 C2444 C 0.69638 1.09060 0.59070
 C2445 C 0.75039 0.61794 1.11860
 C2446 C 0.73337 0.60932 1.11000
 C2447 C 0.71352 0.59921 1.09976
 C2448 C 0.69662 0.59053 1.09097
 C2449 C 1.24986 0.88190 0.88155
 C2450 C 1.23297 0.89067 0.89022
 C2451 C 1.21326 0.90095 0.90046
 C2452 C 1.19642 0.90972 0.90925
 C2453 C 1.25079 0.38178 0.38096
 C2454 C 1.23379 0.39038 0.38969
 C2455 C 1.21393 0.40043 0.40007
 C2456 C 1.19700 0.40903 0.40895
 C2457 C 0.75048 0.88218 0.38141
 C2458 C 0.73347 0.89080 0.39007
 C2459 C 0.71361 0.90090 0.40032
 C2460 C 0.69667 0.90955 0.40911
 C2461 C 0.75027 0.38231 0.88130
 C2462 C 0.73329 0.39093 0.88997
 C2463 C 0.71348 0.40099 0.90025
 C2464 C 0.69658 0.40962 0.90908
 C2465 C 0.74965 0.88223 1.11858
 C2466 C 0.76666 0.89089 1.10997
 C2467 C 0.78651 0.90100 1.09975
 C2468 C 0.80344 0.90965 1.09097
 C2469 C 0.74980 0.38180 0.61842
 C2470 C 0.76676 0.39049 0.60976
 C2471 C 0.78657 0.40065 0.59950
 C2472 C 0.80347 0.40934 0.59071
 C2473 C 0.24956 0.88213 0.61844
 C2474 C 0.26657 0.89079 0.60983
 C2475 C 0.28641 0.90093 0.59964
 C2476 C 0.30333 0.90960 0.59087
 C2477 C 0.24973 0.38201 1.11835
 C2478 C 0.26672 0.39067 1.10972
 C2479 C 0.28656 0.40080 1.09949
 C2480 C 0.30347 0.40946 1.09071
 C2481 C 0.74999 1.11803 0.88130
 C2482 C 0.76696 1.10944 0.89002
 C2483 C 0.78675 1.09939 0.90038
 C2484 C 0.80362 1.09075 0.90925
 C2485 C 0.74982 0.61798 0.38136
 C2486 C 0.76681 0.60927 0.38997
 C2487 C 0.78664 0.59906 0.40019
 C2488 C 0.80355 0.59034 0.40897
 C2489 C 0.24973 1.11755 0.38126
 C2490 C 0.26671 1.10895 0.38994
 C2491 C 0.28653 1.09893 0.40026
 C2492 C 0.30343 1.09036 0.40912
 C2493 C 0.25005 0.61823 0.88150
 C2494 C 0.26699 0.60955 0.89016
 C2495 C 0.28677 0.59938 0.90042
 C2496 C 0.30363 0.59069 0.90923
 C2497 C 1.11848 1.25012 1.11809
 C2498 C 1.10978 1.23316 1.10947
 C2499 C 1.09952 1.21337 1.09933
 C2500 C 1.09073 1.19649 1.09063
 C2501 C 1.11838 0.75022 0.61814
 C2502 C 1.10969 0.73325 0.60951
 C2503 C 1.09946 0.71344 0.59936
 C2504 C 1.09069 0.69655 0.59065
 C2505 C 0.61827 1.25028 0.61811
 C2506 C 0.60958 1.23330 0.60951
 C2507 C 0.59934 1.21350 0.59937
 C2508 C 0.59057 1.19662 0.59065
 C2509 C 0.61832 0.75038 1.11810
 C2510 C 0.60962 0.73341 1.10948
 C2511 C 0.59935 0.71361 1.09933
 C2512 C 0.59056 0.69673 1.09063
 C2513 C 0.88149 1.25048 0.88179
 C2514 C 0.89021 1.23350 0.89041
 C2515 C 0.90051 1.21369 0.90054
 C2516 C 0.90934 1.19679 0.90924
 C2517 C 0.88188 0.75027 0.38175
 C2518 C 0.89060 0.73328 0.39037
 C2519 C 0.90088 0.71345 0.40051
 C2520 C 0.90968 0.69654 0.40921
 C2521 C 0.38126 1.25055 0.38185
 C2522 C 0.38999 1.23355 0.39044
 C2523 C 0.40029 1.21370 0.40055
 C2524 C 0.40911 1.19679 0.40924
 C2525 C 0.38098 0.75038 0.88194
 C2526 C 0.38981 0.73344 0.89052
 C2527 C 0.40025 0.71369 0.90059
 C2528 C 0.40916 0.69683 0.90925
 C2529 C 1.11864 0.74985 0.88192
 C2530 C 1.10995 0.76686 0.89050
 C2531 C 1.09969 0.78669 0.90059
 C2532 C 1.09090 0.80360 0.90927
 C2533 C 1.11851 0.24940 0.38165
 C2534 C 1.10982 0.26637 0.39029
 C2535 C 1.09957 0.28617 0.40045
 C2536 C 1.09080 0.30306 0.40916
 C2537 C 0.61829 0.74986 0.38193
 C2538 C 0.60958 0.76685 0.39052
 C2539 C 0.59932 0.78669 0.40064
 C2540 C 0.59052 0.80360 0.40932
 C2541 C 0.61858 0.24967 0.88177
 C2542 C 0.60991 0.26668 0.89038
 C2543 C 0.59967 0.28652 0.90052
 C2544 C 0.59089 0.30343 0.90921
 C2545 C 0.88176 0.74986 1.11819
 C2546 C 0.89049 0.76684 1.10958
 C2547 C 0.90077 0.78665 1.09947
 C2548 C 0.90956 0.80356 1.09078
 C2549 C 0.88134 0.24965 0.61791
 C2550 C 0.89013 0.26661 0.60935
 C2551 C 0.90050 0.28640 0.59930
 C2552 C 0.90937 0.30328 0.59064
 C2553 C 0.38125 0.74987 0.61796
 C2554 C 0.39000 0.76687 0.60944
 C2555 C 0.40035 0.78670 0.59942
 C2556 C 0.40919 0.80360 0.59079
 C2557 C 0.38169 0.24990 1.11808
 C2558 C 0.39044 0.26686 1.10945
 C2559 C 0.40075 0.28665 1.09933
 C2560 C 0.40957 0.30354 1.09063
 C2561 C 1.11813 1.11912 0.74912
 C2562 C 1.10946 1.11040 0.76612
 C2563 C 1.09930 1.10007 0.78596
 C2564 C 1.09061 1.09121 0.80288
 C2565 C 1.11847 0.61926 0.24905
 C2566 C 1.10985 0.61047 0.26607
 C2567 C 1.09974 0.60001 0.28593
 C2568 C 1.09109 0.59106 0.30285
 C2569 C 0.61833 1.11915 0.24903
 C2570 C 0.60960 1.11050 0.26606
 C2571 C 0.59939 1.10024 0.28595
 C2572 C 0.59068 1.09141 0.30290
 C2573 C 0.61794 0.61872 0.74956
 C2574 C 0.60929 0.61011 0.76660
 C2575 C 0.59913 0.59986 0.78644
 C2576 C 0.59043 0.59103 0.80334
 C2577 C 0.88193 0.88139 0.74966
 C2578 C 0.89061 0.89008 0.76663
 C2579 C 0.90077 0.90039 0.78645
 C2580 C 0.90945 0.90924 0.80334
 C2581 C 0.88178 0.38060 0.24884
 C2582 C 0.89047 0.38930 0.26585
 C2583 C 0.90063 0.39963 0.28572
 C2584 C 0.90932 0.40848 0.30265
 C2585 C 0.38175 0.88059 0.24874
 C2586 C 0.39035 0.88938 0.26576
 C2587 C 0.40040 0.89981 0.28564
 C2588 C 0.40901 0.90874 0.30259
 C2589 C 0.38209 0.38119 0.74951
 C2590 C 0.39071 0.38995 0.76649
 C2591 C 0.40080 0.40033 0.78631
 C2592 C 0.40945 0.40921 0.80322
 C2593 C 1.11772 0.88085 1.25087
 C2594 C 1.10914 0.88960 1.23386
 C2595 C 1.09914 0.90001 1.21400
 C2596 C 1.09057 0.90894 1.19708
 C2597 C 1.11787 0.38121 0.75051
 C2598 C 1.10925 0.38990 0.73349
 C2599 C 1.09917 0.40020 0.71362
 C2600 C 1.09051 0.40903 0.69669
 C2601 C 0.61790 0.88157 0.75050
 C2602 C 0.60925 0.89019 0.73347
 C2603 C 0.59910 0.90044 0.71363
 C2604 C 0.59040 0.90927 0.69674
 C2605 C 0.61810 0.38052 1.25128
 C2606 C 0.60949 0.38925 1.23423
 C2607 C 0.59943 0.39965 1.21433
 C2608 C 0.59080 0.40859 1.19739
 C2609 C 0.88223 1.11846 1.25039
 C2610 C 0.89090 1.10983 1.23341
 C2611 C 0.90103 1.09959 1.21361
 C2612 C 0.90971 1.09078 1.19672
 C2613 C 0.88211 0.61870 0.75043
 C2614 C 0.89075 0.60999 0.73345
 C2615 C 0.90087 0.59963 0.71364
 C2616 C 0.90953 0.59075 0.69676
 C2617 C 0.38208 1.11860 0.75028
 C2618 C 0.39071 1.10997 0.73328
 C2619 C 0.40083 1.09973 0.71347
 C2620 C 0.40951 1.09090 0.69659
 C2621 C 0.38220 0.61891 1.25061
 C2622 C 0.39078 0.61019 1.23359
 C2623 C 0.40080 0.59983 1.21373
 C2624 C 0.40940 0.59095 1.19679
 C2625 C 1.11835 1.25103 0.88120
 C2626 C 1.10966 1.23398 0.88981
 C2627 C 1.09948 1.21406 0.90001
 C2628 C 1.09078 1.19709 0.90877
 C2629 C 1.11828 0.75064 0.38138
 C2630 C 1.10959 0.73361 0.38996
 C2631 C 1.09941 0.71373 0.40013
 C2632 C 1.09073 0.69678 0.40889
 C2633 C 0.61850 1.25059 0.38091
 C2634 C 0.60971 1.23367 0.38964
 C2635 C 0.59942 1.21390 0.39997
 C2636 C 0.59063 1.19705 0.40883
 C2637 C 0.61793 0.75046 0.88150
 C2638 C 0.60927 0.73343 0.89007
 C2639 C 0.59911 0.71357 0.90028
 C2640 C 0.59041 0.69665 0.90907
 C2641 C 0.88213 1.25004 1.11874
 C2642 C 0.89081 1.23309 1.11006
 C2643 C 0.90098 1.21331 1.09979
 C2644 C 0.90969 1.19645 1.09097
 C2645 C 0.88193 0.75023 0.61860
 C2646 C 0.89063 0.73325 0.60995
 C2647 C 0.90082 0.71342 0.59969
 C2648 C 0.90951 0.69652 0.59088
 C2649 C 0.38157 1.25087 0.61889
 C2650 C 0.39024 1.23385 0.61022
 C2651 C 0.40040 1.21395 0.59996
 C2652 C 0.40908 1.19699 0.59117
 C2653 C 0.38172 0.75085 1.11900
 C2654 C 0.39039 0.73385 1.11029
 C2655 C 0.40053 0.71400 1.09998
 C2656 C 0.40922 0.69709 1.09114
 C2657 C 0.88205 0.74983 0.88146
 C2658 C 0.89072 0.76681 0.89011
 C2659 C 0.90087 0.78663 0.90038
 C2660 C 0.90956 0.80352 0.90921
 C2661 C 0.88223 0.24934 0.38128
 C2662 C 0.89089 0.26632 0.38992
 C2663 C 0.90100 0.28616 0.40017
 C2664 C 0.90963 0.30307 0.40899
 C2665 C 0.38165 0.74908 0.38127
 C2666 C 0.39032 0.76611 0.38991
 C2667 C 0.40045 0.78603 0.40014
 C2668 C 0.40911 0.80300 0.40893
 C2669 C 0.38214 0.24958 0.88124
 C2670 C 0.39078 0.26659 0.88985
 C2671 C 0.40091 0.28644 0.90008
 C2672 C 0.40957 0.30334 0.90889
 C2673 C 1.11846 0.74926 1.11920
 C2674 C 1.10979 0.76629 1.11050
 C2675 C 1.09961 0.78616 1.10016
 C2676 C 1.09090 0.80309 1.09130
 C2677 C 1.11809 0.24884 0.61933
 C2678 C 1.10943 0.26586 0.61060
 C2679 C 1.09930 0.28574 0.60024
 C2680 C 1.09065 0.30269 0.59136
 C2681 C 0.61793 0.74979 0.61858
 C2682 C 0.60924 0.76683 0.61002
 C2683 C 0.59905 0.78668 0.59984
 C2684 C 0.59034 0.80359 0.59105
 C2685 C 0.61799 0.24976 1.11878
 C2686 C 0.60932 0.26676 1.11011
 C2687 C 0.59916 0.28659 1.09983
 C2688 C 0.59047 0.30350 1.09100
 C2689 C 1.25039 1.11832 0.88158
 C2690 C 1.23342 1.10966 0.89024
 C2691 C 1.21363 1.09947 0.90043
 C2692 C 1.19674 1.09074 0.90917
 C2693 C 1.25045 0.61845 0.38199
 C2694 C 1.23349 0.60967 0.39056
 C2695 C 1.21370 0.59932 0.40065
 C2696 C 1.19682 0.59049 0.40933
 C2697 C 0.75032 1.11817 0.38158
 C2698 C 0.73335 1.10953 0.39024
 C2699 C 0.71356 1.09936 0.40045
 C2700 C 0.69667 1.09066 0.40921
 C2701 C 0.75035 0.61835 0.88192
 C2702 C 0.73337 0.60968 0.89053
 C2703 C 0.71355 0.59945 0.90066
 C2704 C 0.69665 0.59069 0.90936
 C2705 C 1.25064 0.88143 1.11812
 C2706 C 1.23364 0.89015 1.10954
 C2707 C 1.21380 0.90043 1.09945
 C2708 C 1.19689 0.90924 1.09078
 C2709 C 1.25039 0.38150 0.61804
 C2710 C 1.23340 0.39021 0.60944
 C2711 C 1.21358 0.40047 0.59930
 C2712 C 1.19668 0.40924 0.59059
 C2713 C 0.75025 0.88182 0.61813
 C2714 C 0.73326 0.89051 0.60954
 C2715 C 0.71343 0.90077 0.59942
 C2716 C 0.69652 0.90955 0.59074
 C2717 C 0.75060 0.38151 1.11820
 C2718 C 0.73360 0.39018 1.10958
 C2719 C 0.71376 0.40041 1.09944
 C2720 C 0.69685 0.40919 1.09074
 C2721 C 0.74975 1.11834 1.11848
 C2722 C 0.76675 1.10971 1.10982
 C2723 C 0.78658 1.09954 1.09963
 C2724 C 0.80349 1.09081 1.09090
 C2725 C 0.74981 0.61832 0.61811
 C2726 C 0.76677 0.60961 0.60949
 C2727 C 0.78657 0.59934 0.59936
 C2728 C 0.80345 0.59054 0.59067
 C2729 C 0.24921 1.11827 0.61855
 C2730 C 0.26621 1.10964 0.60990
 C2731 C 0.28604 1.09949 0.59968
 C2732 C 0.30295 1.09078 0.59091
 C2733 C 0.24987 0.61880 1.11858
 C2734 C 0.26675 0.61000 1.10986
 C2735 C 0.28647 0.59962 1.09960
 C2736 C 0.30329 0.59076 1.09082
 C2737 C 0.74974 0.88188 0.88193
 C2738 C 0.76669 0.89058 0.89057
 C2739 C 0.78648 0.90082 0.90074
 C2740 C 0.80335 0.90959 0.90944
 C2741 C 0.74963 0.38088 0.38174
 C2742 C 0.76659 0.38965 0.39034
 C2743 C 0.78638 0.40002 0.40043
 C2744 C 0.80326 0.40888 0.40909
 C2745 C 0.24948 0.88116 0.38219
 C2746 C 0.26643 0.88996 0.39073
 C2747 C 0.28622 0.90035 0.40075
 C2748 C 0.30309 0.90923 0.40936
 C2749 C 0.24967 0.38157 0.88186
 C2750 C 0.26663 0.39031 0.89044
 C2751 C 0.28643 0.40062 0.90054
 C2752 C 0.30332 0.40943 0.90922
   
