data_POSCAR
  _audit_creation_date              2014-09-24
  _audit_creation_method            'ToBaCCo'
  _symmetry_space_group_name_H-M    'P1'
  _symmetry_Int_Tables_number       1
  _symmetry_cell_setting            triclinic
  loop_
  _symmetry_equiv_pos_as_xyz
 x,y,z
_cell_length_a 55.1536
_cell_length_b 55.1458
_cell_length_c 55.1469
_cell_angle_alpha 90.022600
_cell_angle_beta 90.022500
_cell_angle_gamma 90.001300
loop_
  _atom_site_label
  _atom_site_type_symbol
  _atom_site_fract_x
  _atom_site_fract_y
  _atom_site_fract_z
O1 O 0.27026 1.02321 0.02327
 O2 O 0.27024 0.97614 -0.02399
 O3 O 0.26993 1.02335 -0.02393
 O4 O 0.26993 0.97601 0.02320
 O5 O 0.22995 0.97606 0.02313
 O6 O 0.22995 1.02330 -0.02390
 O7 O 0.23029 0.97609 -0.02406
 O8 O 0.23027 1.02326 0.02330
 Cu9 Cu 0.27410 0.99968 -0.00037
 Cu10 Cu 0.22611 0.99968 -0.00039
 C11 C 0.25029 1.03131 0.03140
 C12 C 0.25029 0.96798 -0.03217
 C13 C 0.24991 1.03144 -0.03198
 C14 C 0.24991 0.96792 0.03123
 O15 O 0.73059 0.52362 0.52356
 O16 O 0.73056 0.47647 0.47619
 O17 O 0.73026 0.47639 0.52341
 O18 O 0.73026 0.52369 0.47634
 O19 O 0.77024 0.52373 0.47630
 O20 O 0.77024 0.47633 0.52346
 O21 O 0.77055 0.47650 0.47624
 O22 O 0.77058 0.52356 0.52352
 Cu23 Cu 0.72641 0.50004 0.49987
 Cu24 Cu 0.77441 0.50003 0.49988
 C25 C 0.75062 0.53166 0.53165
 C26 C 0.75058 0.46841 0.46810
 C27 C 0.75022 0.46825 0.53151
 C28 C 0.75022 0.53182 0.46824
 O29 O 0.72976 0.97651 1.02433
 O30 O 0.72979 1.02355 0.97703
 O31 O 0.73011 0.97632 0.97711
 O32 O 0.73007 1.02374 1.02425
 O33 O 0.77001 1.02369 1.02427
 O34 O 0.77010 0.97638 0.97722
 O35 O 0.76978 1.02360 0.97705
 O36 O 0.76970 0.97646 1.02444
 Cu37 Cu 0.72594 1.00003 1.00068
 Cu38 Cu 0.77389 1.00003 1.00075
 C39 C 0.74969 0.96836 1.03254
 C40 C 0.74977 1.03165 0.96892
 C41 C 0.75014 0.96823 0.96910
 C42 C 0.75006 1.03189 1.03238
 O43 O 0.22948 0.47653 0.52362
 O44 O 0.22942 0.52355 0.47638
 O45 O 0.22981 0.47634 0.47643
 O46 O 0.22970 0.52373 0.52359
 O47 O 0.26969 0.52375 0.52357
 O48 O 0.26980 0.47646 0.47651
 O49 O 0.26941 0.52366 0.47637
 O50 O 0.26947 0.47655 0.52370
 Cu51 Cu 0.22559 0.50003 0.50000
 Cu52 Cu 0.27360 0.50012 0.50004
 C53 C 0.24945 0.46848 0.53177
 C54 C 0.24938 0.53167 0.46827
 C55 C 0.24985 0.46828 0.46839
 C56 C 0.24971 0.53185 0.53166
 O57 O 1.02341 0.23011 0.02316
 O58 O 0.97602 0.23018 -0.02397
 O59 O 1.02322 0.22988 -0.02404
 O60 O 0.97621 0.22979 0.02323
 O61 O 0.97615 0.26979 0.02335
 O62 O 1.02326 0.26987 -0.02401
 O63 O 0.97606 0.27013 -0.02385
 O64 O 1.02335 0.27010 0.02319
 Cu65 Cu 0.99972 0.22599 -0.00041
 Cu66 Cu 0.99970 0.27398 -0.00033
 C67 C 1.03150 0.25013 0.03124
 C68 C 0.96788 0.25019 -0.03203
 C69 C 1.03131 0.24986 -0.03213
 C70 C 0.96811 0.24975 0.03140
 O71 O 0.52372 0.77010 0.52357
 O72 O 0.47639 0.77010 0.47657
 O73 O 0.47651 0.76974 0.52379
 O74 O 0.52361 0.76986 0.47635
 O75 O 0.52361 0.72987 0.47633
 O76 O 0.47660 0.72975 0.52368
 O77 O 0.47639 0.73011 0.47646
 O78 O 0.52381 0.73010 0.52355
 Cu79 Cu 0.50005 0.77395 0.50007
 Cu80 Cu 0.50011 0.72595 0.49999
 C81 C 0.53188 0.75013 0.53163
 C82 C 0.46826 0.75013 0.46846
 C83 C 0.46849 0.74970 0.53186
 C84 C 0.53169 0.74986 0.46822
 O85 O 0.02371 0.72979 -0.02437
 O86 O -0.02357 0.72984 0.02269
 O87 O -0.02351 0.73014 -0.02453
 O88 O 0.02364 0.73005 0.02285
 O89 O 0.02366 0.77004 0.02283
 O90 O -0.02341 0.77009 -0.02447
 O91 O -0.02355 0.76983 0.02275
 O92 O 0.02382 0.76974 -0.02440
 Cu93 Cu 0.00007 0.72596 -0.00084
 Cu94 Cu 0.00014 0.77392 -0.00083
 C95 C 0.03193 0.74973 -0.03251
 C96 C -0.03168 0.74982 0.03079
 C97 C -0.03159 0.75015 -0.03265
 C98 C 0.03172 0.75006 0.03096
 O99 O 0.52382 0.26969 0.47652
 O100 O 0.47645 0.26971 0.52358
 O101 O 0.52364 0.26999 0.52372
 O102 O 0.47662 0.26998 0.47638
 O103 O 0.47657 0.22999 0.47633
 O104 O 0.52368 0.22999 0.52376
 O105 O 0.47648 0.22972 0.52353
 O106 O 0.52377 0.22970 0.47656
 Cu107 Cu 0.50013 0.27385 0.50005
 Cu108 Cu 0.50012 0.22584 0.50004
 C109 C 0.53191 0.24966 0.46848
 C110 C 0.46835 0.24969 0.53161
 C111 C 0.53173 0.25002 0.53186
 C112 C 0.46853 0.25001 0.46823
 O113 O 1.02323 0.02327 0.27070
 O114 O 0.97623 -0.02406 0.27070
 O115 O 1.02343 -0.02394 0.27034
 O116 O 0.97603 0.02315 0.27037
 O117 O 0.97605 0.02309 0.23037
 O118 O 1.02334 -0.02389 0.23034
 O119 O 0.97614 -0.02412 0.23074
 O120 O 1.02325 0.02332 0.23071
 Cu121 Cu 0.99973 -0.00039 0.27453
 Cu122 Cu 0.99969 -0.00040 0.22654
 C123 C 1.03131 0.03142 0.25074
 C124 C 0.96807 -0.03226 0.25075
 C125 C 1.03151 -0.03198 0.25030
 C126 C 0.96792 0.03118 0.25034
 O127 O 0.52366 0.52378 0.73124
 O128 O 0.47655 0.47642 0.73123
 O129 O 0.47645 0.52364 0.73091
 O130 O 0.52375 0.47657 0.73086
 O131 O 0.52383 0.47651 0.77086
 O132 O 0.47643 0.52368 0.77090
 O133 O 0.47663 0.47646 0.77122
 O134 O 0.52363 0.52371 0.77124
 Cu135 Cu 0.50009 0.50010 0.72706
 Cu136 Cu 0.50013 0.50009 0.77506
 C137 C 0.53172 0.53185 0.75128
 C138 C 0.46853 0.46832 0.75125
 C139 C 0.46833 0.53174 0.75088
 C140 C 0.53191 0.46847 0.75082
 O141 O 0.97616 1.02416 0.72942
 O142 O 1.02316 0.97681 0.72953
 O143 O 0.97596 0.97694 0.72983
 O144 O 1.02337 1.02402 0.72975
 O145 O 1.02332 1.02407 0.76975
 O146 O 0.97601 0.97710 0.76982
 O147 O 1.02321 0.97687 0.76952
 O148 O 0.97611 1.02431 0.76937
 Cu149 Cu 0.99966 1.00048 0.72563
 Cu150 Cu 0.99966 1.00060 0.77362
 C151 C 0.96803 1.03241 0.74935
 C152 C 1.03125 0.96871 0.74952
 C153 C 0.96788 0.96895 0.74987
 C154 C 1.03147 1.03210 0.74977
 O155 O 0.47662 0.52366 0.22893
 O156 O 0.52360 0.47637 0.22889
 O157 O 0.47639 0.47645 0.22927
 O158 O 0.52383 0.52359 0.22925
 O159 O 0.52382 0.52355 0.26924
 O160 O 0.47649 0.47651 0.26926
 O161 O 0.52369 0.47633 0.26889
 O162 O 0.47661 0.52372 0.26892
 Cu163 Cu 0.50011 0.50001 0.22508
 Cu164 Cu 0.50016 0.50003 0.27308
 C165 C 0.46855 0.53180 0.24890
 C166 C 0.53170 0.46823 0.24885
 C167 C 0.46832 0.46841 0.24930
 C168 C 0.53194 0.53164 0.24927
 O169 O 0.25033 0.18706 0.21628
 O170 O 0.27663 0.17997 0.24998
 O171 O 0.18707 0.21642 0.25093
 O172 O 0.17806 0.24785 0.27464
 O173 O 0.21651 0.25034 0.18688
 O174 O 0.25013 0.27676 0.18001
 O175 O 0.25094 0.28319 0.31275
 O176 O 0.22267 0.25158 0.31933
 O177 O 0.31260 0.25069 0.28338
 O178 O 0.32035 0.22351 0.24890
 O179 O 0.28333 0.31258 0.25079
 O180 O 0.24882 0.32026 0.22363
 O181 O 0.25088 0.31233 0.28367
 O182 O 0.22288 0.31969 0.24906
 O183 O 0.31248 0.28353 0.25077
 O184 O 0.31977 0.24876 0.22287
 O185 O 0.28358 0.25092 0.31257
 O186 O 0.25026 0.22285 0.31999
 O187 O 0.25048 0.21617 0.18710
 O188 O 0.27721 0.25002 0.18032
 O189 O 0.18733 0.25006 0.21595
 O190 O 0.18177 0.27852 0.24979
 O191 O 0.21613 0.18720 0.25032
 O192 O 0.24994 0.18030 0.27701
 Zr193 Zr 0.24902 0.20654 0.24909
 O194 O 0.27182 0.22725 0.27163
 Zr195 Zr 0.20652 0.24916 0.24897
 O196 O 0.22731 0.27160 0.27194
 Zr197 Zr 0.24922 0.24904 0.20647
 O198 O 0.27175 0.27181 0.22728
 Zr199 Zr 0.25074 0.25048 0.29322
 O200 O 0.22763 0.22774 0.27261
 Zr201 Zr 0.29320 0.25061 0.25052
 O202 O 0.27260 0.22760 0.22768
 Zr203 Zr 0.25053 0.29311 0.25070
 O204 O 0.22777 0.27253 0.22756
 O205 O 0.22657 0.22660 0.22648
 O206 O 0.27338 0.27330 0.27334
 C207 C 0.25091 0.19389 0.19399
 C208 C 0.19387 0.19411 0.25117
 C209 C 0.19421 0.25068 0.19368
 C210 C 0.25101 0.30547 0.30594
 C211 C 0.30583 0.25088 0.30568
 C212 C 0.30561 0.30579 0.25084
 H213 H 0.28194 0.21623 0.28148
 H214 H 0.28170 0.28186 0.21629
 H215 H 0.21621 0.21618 0.21617
 H216 H 0.21644 0.28148 0.28222
 H217 H 0.21022 0.23975 0.31405
 H218 H 0.18337 0.25716 0.28902
 H219 H 0.31668 0.26216 0.21135
 H220 H 0.28989 0.23863 0.18597
 H221 H 0.26295 0.21085 0.31598
 H222 H 0.23866 0.18601 0.28976
 H223 H 0.26137 0.31656 0.21137
 H224 H 0.23920 0.28974 0.18585
 H225 H 0.28969 0.18584 0.23916
 H226 H 0.31662 0.21124 0.26142
 H227 H 0.18669 0.28992 0.23683
 H228 H 0.21140 0.31653 0.26247
 O229 O 0.74978 0.81314 0.21626
 O230 O 0.72352 0.82020 0.24999
 O231 O 0.81308 0.78373 0.25082
 O232 O 0.82214 0.75229 0.27446
 O233 O 0.78354 0.74987 0.18672
 O234 O 0.74989 0.72347 0.17986
 O235 O 0.74930 0.71694 0.31262
 O236 O 0.77757 0.74855 0.31921
 O237 O 0.68759 0.74948 0.28333
 O238 O 0.67981 0.77668 0.24888
 O239 O 0.71681 0.68760 0.25064
 O240 O 0.75124 0.67989 0.22347
 O241 O 0.74931 0.68782 0.28350
 O242 O 0.77729 0.68051 0.24882
 O243 O 0.68766 0.71665 0.25067
 O244 O 0.68032 0.75142 0.22284
 O245 O 0.71665 0.74922 0.31251
 O246 O 0.75001 0.77729 0.31992
 O247 O 0.74958 0.78406 0.18703
 O248 O 0.72281 0.75021 0.18024
 O249 O 0.81277 0.75011 0.21578
 O250 O 0.81836 0.72162 0.24959
 O251 O 0.78402 0.81296 0.25028
 O252 O 0.75027 0.81985 0.27700
 Zr253 Zr 0.75113 0.79363 0.24904
 O254 O 0.72836 0.77291 0.27157
 Zr255 Zr 0.79362 0.75100 0.24882
 O256 O 0.77287 0.72856 0.27179
 Zr257 Zr 0.75086 0.75116 0.20636
 O258 O 0.72837 0.72839 0.22716
 Zr259 Zr 0.74947 0.74966 0.29313
 O260 O 0.77255 0.77241 0.27251
 Zr261 Zr 0.70694 0.74957 0.25045
 O262 O 0.72751 0.77259 0.22762
 Zr263 Zr 0.74961 0.70706 0.25055
 O264 O 0.77233 0.72765 0.22739
 O265 O 0.77354 0.77359 0.22638
 O266 O 0.72680 0.72686 0.27324
 C267 C 0.74917 0.80634 0.19395
 C268 C 0.80628 0.80605 0.25110
 C269 C 0.80585 0.74951 0.19351
 C270 C 0.74921 0.69466 0.30578
 C271 C 0.69439 0.74927 0.30563
 C272 C 0.69453 0.69438 0.25071
 H273 H 0.71826 0.78392 0.28145
 H274 H 0.71839 0.71834 0.21618
 H275 H 0.78390 0.78401 0.21608
 H276 H 0.78375 0.71867 0.28205
 H277 H 0.79002 0.76036 0.31393
 H278 H 0.81684 0.74300 0.28884
 H279 H 0.68342 0.73805 0.21128
 H280 H 0.71015 0.76161 0.18591
 H281 H 0.73729 0.78928 0.31595
 H282 H 0.76155 0.81412 0.28973
 H283 H 0.73873 0.68365 0.21118
 H284 H 0.76083 0.71048 0.18567
 H285 H 0.71045 0.81434 0.23916
 H286 H 0.68355 0.78894 0.26143
 H287 H 0.81343 0.71025 0.23660
 H288 H 0.78875 0.68362 0.26226
 O289 O 0.74994 0.18721 0.78384
 O290 O 0.72362 0.18010 0.75014
 O291 O 0.81320 0.21654 0.74914
 O292 O 0.82222 0.24795 0.72544
 O293 O 0.78377 0.25053 0.81321
 O294 O 0.75015 0.27695 0.82007
 O295 O 0.74934 0.28325 0.68731
 O296 O 0.77761 0.25161 0.68076
 O297 O 0.68768 0.25078 0.71670
 O298 O 0.67992 0.22364 0.75119
 O299 O 0.71695 0.31270 0.74926
 O300 O 0.75144 0.32044 0.77641
 O301 O 0.74940 0.31243 0.71638
 O302 O 0.77742 0.31980 0.75101
 O303 O 0.68780 0.28365 0.74931
 O304 O 0.68051 0.24892 0.77721
 O305 O 0.71669 0.25098 0.68751
 O306 O 0.75000 0.22291 0.68009
 O307 O 0.74979 0.21636 0.81301
 O308 O 0.72305 0.25023 0.81976
 O309 O 0.81295 0.25022 0.78413
 O310 O 0.81850 0.27864 0.75029
 O311 O 0.78413 0.18732 0.74977
 O312 O 0.75032 0.18038 0.72311
 Zr313 Zr 0.75124 0.20666 0.75102
 O314 O 0.72845 0.22735 0.72847
 Zr315 Zr 0.79374 0.24929 0.75111
 O316 O 0.77297 0.27171 0.72814
 Zr317 Zr 0.75106 0.24921 0.79362
 O318 O 0.72853 0.27196 0.77280
 Zr319 Zr 0.74954 0.25056 0.70686
 O320 O 0.77263 0.22783 0.72749
 Zr321 Zr 0.70707 0.25074 0.74957
 O322 O 0.72767 0.22775 0.77242
 Zr323 Zr 0.74975 0.29324 0.74936
 O324 O 0.77250 0.27267 0.77252
 O325 O 0.77370 0.22674 0.77361
 O326 O 0.72690 0.27340 0.72673
 C327 C 0.74937 0.19407 0.80614
 C328 C 0.80639 0.19423 0.74891
 C329 C 0.80606 0.25086 0.80640
 C330 C 0.74927 0.30555 0.69410
 C331 C 0.69444 0.25095 0.69441
 C332 C 0.69466 0.30592 0.74922
 H333 H 0.71834 0.21633 0.71861
 H334 H 0.71858 0.28203 0.78378
 H335 H 0.78406 0.21633 0.78392
 H336 H 0.78383 0.28157 0.71785
 H337 H 0.79005 0.23978 0.68604
 H338 H 0.81690 0.25724 0.71106
 H339 H 0.68361 0.26232 0.78873
 H340 H 0.71038 0.23882 0.81413
 H341 H 0.73733 0.21090 0.68412
 H342 H 0.76158 0.18609 0.71035
 H343 H 0.73892 0.31673 0.78869
 H344 H 0.76108 0.28993 0.81422
 H345 H 0.71058 0.18598 0.76098
 H346 H 0.68366 0.21135 0.73868
 H347 H 0.81358 0.29005 0.76325
 H348 H 0.78888 0.31665 0.73758
 O349 O 0.25036 0.81295 0.78403
 O350 O 0.27676 0.82011 0.75046
 O351 O 0.18702 0.78373 0.74905
 O352 O 0.17826 0.75229 0.72508
 O353 O 0.21633 0.74967 0.81309
 O354 O 0.25006 0.72318 0.81995
 O355 O 0.25055 0.71677 0.68744
 O356 O 0.22225 0.74923 0.68125
 O357 O 0.31257 0.74939 0.71676
 O358 O 0.32021 0.77678 0.75096
 O359 O 0.28339 0.68759 0.74940
 O360 O 0.24874 0.68004 0.77678
 O361 O 0.25083 0.68767 0.71656
 O362 O 0.22304 0.68023 0.75105
 O363 O 0.31251 0.71668 0.74949
 O364 O 0.31972 0.75158 0.77728
 O365 O 0.28356 0.74868 0.68755
 O366 O 0.25435 0.77642 0.67985
 O367 O 0.25033 0.78380 0.81315
 O368 O 0.27700 0.75008 0.81994
 O369 O 0.18724 0.75000 0.78390
 O370 O 0.18161 0.72189 0.74975
 O371 O 0.21604 0.81294 0.75037
 O372 O 0.25111 0.82045 0.72371
 Zr373 Zr 0.24903 0.79365 0.75110
 O374 O 0.27166 0.77285 0.72848
 Zr375 Zr 0.20656 0.75106 0.75095
 O376 O 0.22734 0.72845 0.72818
 Zr377 Zr 0.24912 0.75103 0.79364
 O378 O 0.27175 0.72834 0.77287
 Zr379 Zr 0.25079 0.74950 0.70692
 O380 O 0.22769 0.77258 0.72732
 Zr381 Zr 0.29317 0.74957 0.74961
 O382 O 0.27255 0.77251 0.77251
 Zr383 Zr 0.25054 0.70698 0.74949
 O384 O 0.22767 0.72762 0.77246
 O385 O 0.22655 0.77353 0.77360
 O386 O 0.27340 0.72675 0.72686
 C387 C 0.25084 0.80609 0.80631
 C388 C 0.19380 0.80604 0.74921
 C389 C 0.19406 0.74933 0.80620
 C390 C 0.25074 0.69450 0.69428
 C391 C 0.30581 0.74890 0.69445
 C392 C 0.30567 0.69441 0.74941
 H393 H 0.28149 0.78382 0.71825
 H394 H 0.28173 0.71833 0.78388
 H395 H 0.21616 0.78388 0.78395
 H396 H 0.21645 0.71858 0.71792
 H397 H 0.21138 0.76291 0.68541
 H398 H 0.18428 0.74418 0.71028
 H399 H 0.31666 0.73821 0.78882
 H400 H 0.28977 0.76135 0.81426
 H401 H 0.24460 0.79042 0.68526
 H402 H 0.23686 0.81835 0.71300
 H403 H 0.26164 0.68349 0.78876
 H404 H 0.23896 0.71031 0.81415
 H405 H 0.28972 0.81419 0.76139
 H406 H 0.31626 0.78903 0.73847
 H407 H 0.18648 0.71032 0.76258
 H408 H 0.21134 0.68360 0.73789
 O409 O 0.24972 0.31286 0.71653
 O410 O 0.22342 0.31997 0.75023
 O411 O 0.31294 0.28343 0.75122
 O412 O 0.32197 0.25197 0.77484
 O413 O 0.28348 0.24958 0.68708
 O414 O 0.24984 0.22320 0.68015
 O415 O 0.24904 0.21672 0.81287
 O416 O 0.27733 0.24830 0.81952
 O417 O 0.18742 0.24930 0.78348
 O418 O 0.17972 0.27652 0.74900
 O419 O 0.21664 0.18741 0.75089
 O420 O 0.25110 0.17967 0.72372
 O421 O 0.24907 0.18760 0.78375
 O422 O 0.27708 0.18023 0.74914
 O423 O 0.18751 0.21649 0.75087
 O424 O 0.18022 0.25122 0.72300
 O425 O 0.21643 0.24900 0.81270
 O426 O 0.24978 0.27706 0.82019
 O427 O 0.24953 0.28377 0.68732
 O428 O 0.22279 0.24994 0.68046
 O429 O 0.31266 0.24981 0.71618
 O430 O 0.31819 0.22133 0.74999
 O431 O 0.28390 0.31267 0.75061
 O432 O 0.25012 0.31963 0.77725
 Zr433 Zr 0.25101 0.29338 0.74931
 O434 O 0.22820 0.27270 0.77181
 Zr435 Zr 0.29347 0.25071 0.74918
 O436 O 0.27268 0.22829 0.77210
 Zr437 Zr 0.25078 0.25089 0.70664
 O438 O 0.22824 0.22815 0.72740
 Zr439 Zr 0.24927 0.24944 0.79339
 O440 O 0.27239 0.27216 0.77282
 Zr441 Zr 0.20681 0.24937 0.75064
 O442 O 0.22742 0.27236 0.72784
 Zr443 Zr 0.24944 0.20683 0.75081
 O444 O 0.27222 0.22739 0.72770
 O445 O 0.27344 0.27331 0.72670
 O446 O 0.22662 0.22666 0.77346
 C447 C 0.24912 0.30604 0.69424
 C448 C 0.30615 0.30574 0.75149
 C449 C 0.30577 0.24921 0.69390
 C450 C 0.24894 0.19444 0.80602
 C451 C 0.19419 0.24907 0.80578
 C452 C 0.19436 0.19423 0.75094
 H453 H 0.21810 0.28372 0.78167
 H454 H 0.21827 0.21811 0.71640
 H455 H 0.28382 0.28373 0.71641
 H456 H 0.28354 0.21840 0.78238
 H457 H 0.28980 0.26011 0.81427
 H458 H 0.31663 0.24271 0.78923
 H459 H 0.18332 0.23785 0.71146
 H460 H 0.21011 0.26133 0.68612
 H461 H 0.23707 0.28905 0.81621
 H462 H 0.26136 0.31388 0.79002
 H463 H 0.23856 0.18339 0.71146
 H464 H 0.26075 0.21020 0.68598
 H465 H 0.21037 0.31413 0.73937
 H466 H 0.18341 0.28874 0.76160
 H467 H 0.31328 0.20996 0.73699
 H468 H 0.28855 0.18335 0.76258
 O469 O 0.75070 0.68728 0.71666
 O470 O 0.77706 0.68019 0.75032
 O471 O 0.68745 0.71653 0.75145
 O472 O 0.67834 0.74792 0.77509
 O473 O 0.71677 0.75053 0.68736
 O474 O 0.75034 0.77701 0.68050
 O475 O 0.75124 0.78327 0.81327
 O476 O 0.72305 0.75159 0.81984
 O477 O 0.81292 0.75090 0.78378
 O478 O 0.82067 0.72378 0.74924
 O479 O 0.78349 0.81278 0.75134
 O480 O 0.74903 0.82053 0.72427
 O481 O 0.75109 0.81244 0.78423
 O482 O 0.72299 0.81975 0.74960
 O483 O 0.81270 0.78379 0.75124
 O484 O 0.82006 0.74911 0.72329
 O485 O 0.78394 0.75106 0.81302
 O486 O 0.75065 0.72289 0.82040
 O487 O 0.75079 0.71642 0.68752
 O488 O 0.77748 0.75034 0.68077
 O489 O 0.68761 0.75017 0.71645
 O490 O 0.68207 0.77863 0.75036
 O491 O 0.71656 0.68734 0.75076
 O492 O 0.75039 0.68043 0.77737
 Zr493 Zr 0.74940 0.70672 0.74949
 O494 O 0.77218 0.72742 0.77205
 Zr495 Zr 0.70684 0.74929 0.74946
 O496 O 0.72759 0.77170 0.77247
 Zr497 Zr 0.74949 0.74927 0.70693
 O498 O 0.77198 0.77204 0.72776
 Zr499 Zr 0.75108 0.75058 0.79370
 O500 O 0.72799 0.72785 0.77305
 Zr501 Zr 0.79349 0.75084 0.75095
 O502 O 0.77293 0.72783 0.72808
 Zr503 Zr 0.75074 0.79327 0.75123
 O504 O 0.72802 0.77270 0.72805
 O505 O 0.72690 0.72677 0.72693
 O506 O 0.77365 0.77346 0.77382
 C507 C 0.75125 0.69414 0.69437
 C508 C 0.69430 0.69423 0.75166
 C509 C 0.69448 0.75083 0.69418
 C510 C 0.75127 0.80556 0.80649
 C511 C 0.80618 0.75106 0.80609
 C512 C 0.80578 0.80603 0.75137
 H513 H 0.78233 0.71640 0.78188
 H514 H 0.78191 0.78213 0.71679
 H515 H 0.71654 0.71634 0.71662
 H516 H 0.71671 0.78154 0.78277
 H517 H 0.71059 0.73979 0.81454
 H518 H 0.68368 0.75711 0.78954
 H519 H 0.81691 0.76249 0.71178
 H520 H 0.79016 0.73894 0.68638
 H521 H 0.76342 0.71096 0.81641
 H522 H 0.73915 0.68612 0.79015
 H523 H 0.76147 0.81678 0.71191
 H524 H 0.73939 0.78997 0.68636
 H525 H 0.79009 0.68609 0.73948
 H526 H 0.81700 0.71150 0.76177
 H527 H 0.68690 0.79000 0.73734
 H528 H 0.71161 0.81664 0.76310
 O529 O 0.24948 0.68710 0.28336
 O530 O 0.22324 0.67994 0.24962
 O531 O 0.31277 0.71649 0.24876
 O532 O 0.32185 0.74791 0.22514
 O533 O 0.28323 0.75041 0.31281
 O534 O 0.24957 0.77684 0.31959
 O535 O 0.24898 0.78308 0.18686
 O536 O 0.27727 0.75149 0.18033
 O537 O 0.18730 0.75059 0.21613
 O538 O 0.17955 0.72338 0.25066
 O539 O 0.21648 0.81250 0.24875
 O540 O 0.25088 0.82030 0.27593
 O541 O 0.24896 0.81225 0.21593
 O542 O 0.27693 0.81966 0.25060
 O543 O 0.18735 0.78343 0.24873
 O544 O 0.17997 0.74875 0.27658
 O545 O 0.21637 0.75081 0.18699
 O546 O 0.24973 0.72272 0.17966
 O547 O 0.24926 0.71624 0.31252
 O548 O 0.22252 0.75008 0.31927
 O549 O 0.31245 0.75013 0.28377
 O550 O 0.31802 0.77859 0.24993
 O551 O 0.28372 0.68724 0.24936
 O552 O 0.24998 0.68025 0.22265
 Zr553 Zr 0.25083 0.70654 0.25055
 O554 O 0.22806 0.72718 0.22795
 Zr555 Zr 0.29330 0.74920 0.25073
 O556 O 0.27255 0.77158 0.22771
 Zr557 Zr 0.25055 0.74909 0.29316
 O558 O 0.22803 0.77179 0.27230
 Zr559 Zr 0.24917 0.75040 0.20640
 O560 O 0.27226 0.72772 0.22707
 Zr561 Zr 0.20664 0.75054 0.24903
 O562 O 0.22721 0.72760 0.27192
 Zr563 Zr 0.24928 0.79308 0.24891
 O564 O 0.27201 0.77256 0.27211
 O565 O 0.27323 0.72664 0.27319
 O566 O 0.22648 0.77322 0.22623
 C567 C 0.24885 0.69396 0.30564
 C568 C 0.30597 0.69417 0.24851
 C569 C 0.30553 0.75076 0.30603
 C570 C 0.24887 0.80537 0.19367
 C571 C 0.19410 0.75077 0.19384
 C572 C 0.19420 0.80569 0.24867
 H573 H 0.21797 0.71614 0.21809
 H574 H 0.21805 0.78185 0.28326
 H575 H 0.28359 0.71623 0.28351
 H576 H 0.28342 0.78145 0.21744
 H577 H 0.28973 0.73970 0.18564
 H578 H 0.31653 0.75713 0.21071
 H579 H 0.18310 0.76209 0.28816
 H580 H 0.20984 0.73870 0.31360
 H581 H 0.23698 0.71076 0.18360
 H582 H 0.26124 0.68597 0.20990
 H583 H 0.23839 0.81655 0.28823
 H584 H 0.26054 0.78980 0.31379
 H585 H 0.21016 0.68582 0.26041
 H586 H 0.18323 0.71117 0.23804
 H587 H 0.31310 0.78997 0.26292
 H588 H 0.28840 0.81654 0.23718
 O589 O 0.75038 0.31254 0.28328
 O590 O 0.77667 0.31956 0.24955
 O591 O 0.68707 0.28318 0.24868
 O592 O 0.67794 0.25173 0.22508
 O593 O 0.71658 0.24932 0.31277
 O594 O 0.75020 0.22290 0.31965
 O595 O 0.75075 0.21631 0.18690
 O596 O 0.72248 0.24795 0.18032
 O597 O 0.81246 0.24881 0.21619
 O598 O 0.82030 0.27602 0.25065
 O599 O 0.78319 0.18698 0.24885
 O600 O 0.74876 0.17931 0.27603
 O601 O 0.75072 0.18721 0.21601
 O602 O 0.72272 0.17994 0.25068
 O603 O 0.81237 0.21601 0.24882
 O604 O 0.81977 0.25076 0.27667
 O605 O 0.78340 0.24856 0.18702
 O606 O 0.75009 0.27665 0.17960
 O607 O 0.75056 0.28347 0.31249
 O608 O 0.77730 0.24960 0.31927
 O609 O 0.68735 0.24959 0.28372
 O610 O 0.68171 0.22109 0.24991
 O611 O 0.71616 0.31237 0.24925
 O612 O 0.74992 0.31926 0.22256
 Zr613 Zr 0.74902 0.29303 0.25049
 O614 O 0.77175 0.27228 0.22794
 Zr615 Zr 0.70649 0.25043 0.25069
 O616 O 0.72719 0.22796 0.22772
 Zr617 Zr 0.74925 0.25057 0.29315
 O618 O 0.77170 0.22777 0.27234
 Zr619 Zr 0.75060 0.24905 0.20640
 O620 O 0.72756 0.27183 0.22702
 Zr621 Zr 0.79313 0.24893 0.24907
 O622 O 0.77262 0.27198 0.27191
 Zr623 Zr 0.75042 0.20647 0.24896
 O624 O 0.72774 0.22709 0.27212
 O625 O 0.72659 0.27301 0.27314
 O626 O 0.77325 0.22624 0.22628
 C627 C 0.75099 0.30574 0.30558
 C628 C 0.69390 0.30548 0.24841
 C629 C 0.69428 0.24898 0.30598
 C630 C 0.75083 0.19404 0.19373
 C631 C 0.80566 0.24860 0.19391
 C632 C 0.80547 0.19376 0.24878
 H633 H 0.78185 0.28328 0.21807
 H634 H 0.78167 0.21771 0.28333
 H635 H 0.71625 0.28345 0.28344
 H636 H 0.71629 0.21808 0.21746
 H637 H 0.71005 0.25980 0.18560
 H638 H 0.68323 0.24245 0.21068
 H639 H 0.81666 0.23741 0.28823
 H640 H 0.78996 0.26099 0.31361
 H641 H 0.76281 0.28864 0.18358
 H642 H 0.73865 0.31353 0.20981
 H643 H 0.76129 0.18305 0.28831
 H644 H 0.73925 0.20991 0.31384
 H645 H 0.78972 0.31371 0.26040
 H646 H 0.81657 0.28827 0.23810
 H647 H 0.68662 0.20972 0.26290
 H648 H 0.71127 0.18304 0.23723
 C649 C 0.25074 0.08632 0.08656
 C650 C 0.27261 0.07723 0.07747
 C651 C 0.27247 0.05933 0.05952
 C652 C 0.25041 0.05026 0.05042
 C653 C 0.22851 0.05952 0.05969
 C654 C 0.22870 0.07743 0.07765
 C655 C 0.25095 0.10476 0.10502
 C656 C 0.25117 0.12023 0.12047
 C657 C 0.25142 0.13869 0.13891
 C658 C 0.25155 0.16320 0.13236
 C659 C 0.25158 0.18117 0.15025
 C660 C 0.25146 0.17485 0.17499
 C661 C 0.25143 0.15012 0.18136
 C662 C 0.25141 0.13219 0.16343
 H663 H 0.28977 0.08399 0.08425
 H664 H 0.28964 0.05260 0.05279
 H665 H 0.21123 0.05293 0.05308
 H666 H 0.21167 0.08435 0.08457
 H667 H 0.25156 0.16842 0.11342
 H668 H 0.25156 0.19999 0.14466
 H669 H 0.25131 0.14457 0.20020
 H670 H 0.25131 0.11327 0.16869
 C671 C 0.75109 0.58666 0.58684
 C672 C 0.77295 0.57757 0.57774
 C673 C 0.77281 0.55967 0.55978
 C674 C 0.75074 0.55062 0.55068
 C675 C 0.72885 0.55987 0.55996
 C676 C 0.72905 0.57778 0.57792
 C677 C 0.75130 0.60510 0.60531
 C678 C 0.75152 0.62055 0.62077
 C679 C 0.75177 0.63900 0.63923
 C680 C 0.75181 0.63247 0.66374
 C681 C 0.75183 0.65038 0.68169
 C682 C 0.75180 0.67512 0.67535
 C683 C 0.75188 0.68146 0.65062
 C684 C 0.75186 0.66351 0.63271
 H685 H 0.79011 0.58432 0.58451
 H686 H 0.78997 0.55295 0.55304
 H687 H 0.71157 0.55330 0.55335
 H688 H 0.71202 0.58470 0.58485
 H689 H 0.75175 0.61354 0.66898
 H690 H 0.75174 0.64481 0.70052
 H691 H 0.75182 0.70029 0.64505
 H692 H 0.75183 0.66876 0.61378
 C693 C 0.74925 0.91414 0.08673
 C694 C 0.77127 0.92306 0.07787
 C695 C 0.77148 0.94101 0.05995
 C696 C 0.74957 0.95034 0.05059
 C697 C 0.72751 0.94117 0.05973
 C698 C 0.72740 0.92323 0.07763
 C699 C 0.74905 0.89564 0.10514
 C700 C 0.74884 0.88014 0.12056
 C701 C 0.74861 0.86164 0.13896
 C702 C 0.74847 0.83714 0.13237
 C703 C 0.74847 0.81914 0.15022
 C704 C 0.74860 0.82541 0.17498
 C705 C 0.74863 0.85014 0.18140
 C706 C 0.74863 0.86809 0.16350
 H707 H 0.78830 0.91614 0.08480
 H708 H 0.78884 0.94752 0.05348
 H709 H 0.71026 0.94779 0.05308
 H710 H 0.71024 0.91644 0.08438
 H711 H 0.74845 0.83193 0.11342
 H712 H 0.74848 0.80032 0.14460
 H713 H 0.74877 0.85566 0.20025
 H714 H 0.74874 0.88701 0.16881
 C715 C 0.24910 0.41355 0.58693
 C716 C 0.27112 0.42247 0.57804
 C717 C 0.27128 0.44035 0.56008
 C718 C 0.24937 0.44955 0.55079
 C719 C 0.22732 0.44046 0.55987
 C720 C 0.22722 0.42258 0.57782
 C721 C 0.24893 0.39513 0.60538
 C722 C 0.24874 0.37968 0.62082
 C723 C 0.24853 0.36122 0.63923
 C724 C 0.24839 0.33673 0.63266
 C725 C 0.24840 0.31876 0.65052
 C726 C 0.24856 0.32508 0.67527
 C727 C 0.24859 0.34981 0.68167
 C728 C 0.24858 0.36773 0.66375
 H729 H 0.28817 0.41559 0.58498
 H730 H 0.28855 0.44697 0.55349
 H731 H 0.21014 0.44714 0.55311
 H732 H 0.21007 0.41579 0.58458
 H733 H 0.24835 0.33150 0.61371
 H734 H 0.24840 0.29994 0.64492
 H735 H 0.24874 0.35535 0.70051
 H736 H 0.24869 0.38666 0.66903
 C737 C 0.74940 0.08660 0.91369
 C738 C 0.77142 0.07772 0.92265
 C739 C 0.77158 0.05983 0.94063
 C740 C 0.74967 0.05059 0.94988
 C741 C 0.72763 0.05964 0.94073
 C742 C 0.72752 0.07752 0.92276
 C743 C 0.74922 0.10503 0.89521
 C744 C 0.74903 0.12047 0.87973
 C745 C 0.74881 0.13892 0.86127
 C746 C 0.74869 0.16344 0.86780
 C747 C 0.74869 0.18139 0.84989
 C748 C 0.74881 0.17504 0.82515
 C749 C 0.74883 0.15030 0.81880
 C750 C 0.74883 0.13239 0.83675
 H751 H 0.78847 0.08462 0.91575
 H752 H 0.78885 0.05326 0.94727
 H753 H 0.71045 0.05293 0.94745
 H754 H 0.71037 0.08427 0.91596
 H755 H 0.74867 0.16869 0.88673
 H756 H 0.74870 0.20022 0.85547
 H757 H 0.74896 0.14472 0.79997
 H758 H 0.74893 0.11346 0.83150
 C759 C 0.24889 0.58658 0.41309
 C760 C 0.22703 0.57748 0.42216
 C761 C 0.22718 0.55961 0.44012
 C762 C 0.24924 0.55060 0.44924
 C763 C 0.27114 0.55987 0.43999
 C764 C 0.27093 0.57775 0.42202
 C765 C 0.24868 0.60499 0.39463
 C766 C 0.24846 0.62042 0.37916
 C767 C 0.24823 0.63885 0.36073
 C768 C 0.24829 0.63231 0.33622
 C769 C 0.24831 0.65021 0.31828
 C770 C 0.24827 0.67495 0.32464
 C771 C 0.24809 0.68130 0.34938
 C772 C 0.24807 0.66336 0.36727
 H773 H 0.20986 0.58421 0.41537
 H774 H 0.21001 0.55287 0.44685
 H775 H 0.28842 0.55332 0.44662
 H776 H 0.28796 0.58468 0.41511
 H777 H 0.24842 0.61338 0.33097
 H778 H 0.24848 0.64464 0.29944
 H779 H 0.24808 0.70013 0.35495
 H780 H 0.24803 0.66861 0.38620
 C781 C 0.25069 0.91370 0.91370
 C782 C 0.22868 0.92262 0.92257
 C783 C 0.22848 0.94059 0.94047
 C784 C 0.25040 0.94994 0.94980
 C785 C 0.27245 0.94076 0.94065
 C786 C 0.27255 0.92280 0.92276
 C787 C 0.25088 0.89521 0.89529
 C788 C 0.25109 0.87972 0.87986
 C789 C 0.25133 0.86125 0.86143
 C790 C 0.25144 0.86776 0.83691
 C791 C 0.25146 0.84984 0.81897
 C792 C 0.25138 0.82511 0.82533
 C793 C 0.25138 0.81878 0.85007
 C794 C 0.25136 0.83674 0.86796
 H795 H 0.21164 0.91569 0.91566
 H796 H 0.21113 0.94710 0.94696
 H797 H 0.28971 0.94740 0.94728
 H798 H 0.28970 0.91601 0.91600
 H799 H 0.25142 0.88669 0.83166
 H800 H 0.25143 0.85540 0.80014
 H801 H 0.25128 0.79995 0.85564
 H802 H 0.25128 0.83151 0.88690
 C803 C 0.75098 0.41340 0.41292
 C804 C 0.77285 0.42248 0.42202
 C805 C 0.77273 0.44039 0.43997
 C806 C 0.75068 0.44946 0.44907
 C807 C 0.72877 0.44021 0.43979
 C808 C 0.72895 0.42230 0.42183
 C809 C 0.75117 0.39495 0.39447
 C810 C 0.75137 0.37948 0.37903
 C811 C 0.75159 0.36099 0.36061
 C812 C 0.75174 0.33649 0.36718
 C813 C 0.75173 0.31851 0.34931
 C814 C 0.75157 0.32480 0.32456
 C815 C 0.75155 0.34953 0.31816
 C816 C 0.75155 0.36747 0.33608
 H817 H 0.79001 0.41572 0.41525
 H818 H 0.78991 0.44711 0.44671
 H819 H 0.71150 0.44680 0.44640
 H820 H 0.71191 0.41538 0.41491
 H821 H 0.75177 0.33129 0.38612
 H822 H 0.75172 0.29969 0.35491
 H823 H 0.75139 0.35505 0.29932
 H824 H 0.75144 0.38639 0.33080
 C825 C 0.08676 0.25049 0.08615
 C826 C 0.07783 0.22846 0.07724
 C827 C 0.05985 0.22830 0.05936
 C828 C 0.05055 0.25022 0.05017
 C829 C 0.05966 0.27226 0.05926
 C830 C 0.07764 0.27237 0.07713
 C831 C 0.10524 0.25067 0.10457
 C832 C 0.12071 0.25086 0.12002
 C833 C 0.13915 0.25109 0.13848
 C834 C 0.13260 0.25107 0.16298
 C835 C 0.15048 0.25110 0.18095
 C836 C 0.17522 0.25116 0.17464
 C837 C 0.18159 0.25129 0.14991
 C838 C 0.16366 0.25125 0.13198
 H839 H 0.08478 0.21142 0.08411
 H840 H 0.05323 0.21103 0.05275
 H841 H 0.05290 0.28945 0.05258
 H842 H 0.08442 0.28953 0.08391
 H843 H 0.11366 0.25095 0.16821
 H844 H 0.14490 0.25097 0.19977
 H845 H 0.20043 0.25130 0.14436
 H846 H 0.16892 0.25127 0.11305
 C847 C 0.58707 0.75054 0.58661
 C848 C 0.57817 0.72851 0.57769
 C849 C 0.56022 0.72833 0.55978
 C850 C 0.55092 0.75023 0.55057
 C851 C 0.56000 0.77229 0.55967
 C852 C 0.57795 0.77242 0.57757
 C853 C 0.60552 0.75073 0.60506
 C854 C 0.62097 0.75094 0.62052
 C855 C 0.63940 0.75119 0.63899
 C856 C 0.63286 0.75110 0.66349
 C857 C 0.65074 0.75115 0.68146
 C858 C 0.67548 0.75129 0.67514
 C859 C 0.68185 0.75148 0.65041
 C860 C 0.66392 0.75143 0.63249
 H861 H 0.58512 0.71147 0.58457
 H862 H 0.55362 0.71105 0.55317
 H863 H 0.55324 0.78947 0.55298
 H864 H 0.58471 0.78957 0.58435
 H865 H 0.61392 0.75092 0.66872
 H866 H 0.64516 0.75098 0.70028
 H867 H 0.70068 0.75155 0.64486
 H868 H 0.66918 0.75150 0.61356
 C869 C 0.08630 0.74932 0.91346
 C870 C 0.07738 0.77133 0.92236
 C871 C 0.05939 0.77153 0.94023
 C872 C 0.05001 0.74962 0.94951
 C873 C 0.05919 0.72756 0.94035
 C874 C 0.07717 0.72746 0.92249
 C875 C 0.10481 0.74913 0.89506
 C876 C 0.12031 0.74895 0.87964
 C877 C 0.13880 0.74875 0.86123
 C878 C 0.13233 0.74886 0.83670
 C879 C 0.15027 0.74888 0.81878
 C880 C 0.17500 0.74878 0.82518
 C881 C 0.18129 0.74856 0.84994
 C882 C 0.16331 0.74855 0.86780
 H883 H 0.08433 0.78837 0.91548
 H884 H 0.05289 0.78889 0.94673
 H885 H 0.05253 0.71030 0.94694
 H886 H 0.08395 0.71030 0.91572
 H887 H 0.11341 0.74902 0.83140
 H888 H 0.14474 0.74908 0.79994
 H889 H 0.20011 0.74852 0.85555
 H890 H 0.16852 0.74846 0.88675
 C891 C 0.58708 0.24924 0.41358
 C892 C 0.57799 0.22736 0.42264
 C893 C 0.56004 0.22749 0.44051
 C894 C 0.55094 0.24955 0.44957
 C895 C 0.56021 0.27146 0.44034
 C896 C 0.57817 0.27128 0.42246
 C897 C 0.60552 0.24904 0.39515
 C898 C 0.62095 0.24884 0.37969
 C899 C 0.63934 0.24860 0.36122
 C900 C 0.63274 0.24862 0.33673
 C901 C 0.65058 0.24858 0.31874
 C902 C 0.67533 0.24851 0.32504
 C903 C 0.68176 0.24839 0.34976
 C904 C 0.66386 0.24843 0.36770
 H905 H 0.58477 0.21020 0.41588
 H906 H 0.55330 0.21032 0.44722
 H907 H 0.55359 0.28874 0.44693
 H908 H 0.58509 0.28831 0.41556
 H909 H 0.61379 0.24874 0.33153
 H910 H 0.64496 0.24870 0.29993
 H911 H 0.70060 0.24837 0.35528
 H912 H 0.66916 0.24841 0.38662
 C913 C 0.91314 0.74952 0.08579
 C914 C 0.92210 0.77154 0.07690
 C915 C 0.94006 0.77168 0.05899
 C916 C 0.94929 0.74975 0.04974
 C917 C 0.94014 0.72772 0.05881
 C918 C 0.92220 0.72763 0.07671
 C919 C 0.89469 0.74938 0.10425
 C920 C 0.87925 0.74921 0.11972
 C921 C 0.86084 0.74902 0.13822
 C922 C 0.86743 0.74906 0.16272
 C923 C 0.84957 0.74906 0.18072
 C924 C 0.82482 0.74902 0.17443
 C925 C 0.81841 0.74888 0.14971
 C926 C 0.83631 0.74888 0.13176
 H927 H 0.91522 0.78859 0.08381
 H928 H 0.94670 0.78894 0.05241
 H929 H 0.94685 0.71053 0.05209
 H930 H 0.91539 0.71049 0.08346
 H931 H 0.88637 0.74917 0.16793
 H932 H 0.85519 0.74920 0.19953
 H933 H 0.79956 0.74888 0.14418
 H934 H 0.83101 0.74885 0.11284
 C935 C 0.41314 0.24931 0.58648
 C936 C 0.42223 0.22743 0.57742
 C937 C 0.44020 0.22754 0.55956
 C938 C 0.44931 0.24959 0.55052
 C939 C 0.44004 0.27151 0.55974
 C940 C 0.42207 0.27134 0.57761
 C941 C 0.39468 0.24914 0.60488
 C942 C 0.37923 0.24894 0.62032
 C943 C 0.36080 0.24873 0.63876
 C944 C 0.33629 0.24859 0.63224
 C945 C 0.31837 0.24858 0.65015
 C946 C 0.32475 0.24871 0.67488
 C947 C 0.34949 0.24874 0.68122
 C948 C 0.36736 0.24875 0.66326
 H949 H 0.41544 0.21028 0.58417
 H950 H 0.44694 0.21036 0.55285
 H951 H 0.44667 0.28878 0.55317
 H952 H 0.41514 0.28839 0.58451
 H953 H 0.33103 0.24857 0.61331
 H954 H 0.29953 0.24858 0.64459
 H955 H 0.35508 0.24887 0.70004
 H956 H 0.38630 0.24885 0.66850
 C957 C 0.91352 0.25062 0.91393
 C958 C 0.92246 0.22860 0.92278
 C959 C 0.94044 0.22839 0.94066
 C960 C 0.94979 0.25031 0.95000
 C961 C 0.94058 0.27237 0.94089
 C962 C 0.92261 0.27248 0.92302
 C963 C 0.89504 0.25082 0.89551
 C964 C 0.87957 0.25103 0.88006
 C965 C 0.86113 0.25127 0.86160
 C966 C 0.86768 0.25122 0.83710
 C967 C 0.84979 0.25126 0.81913
 C968 C 0.82505 0.25134 0.82545
 C969 C 0.81868 0.25149 0.85018
 C970 C 0.83662 0.25145 0.86810
 H971 H 0.91553 0.21156 0.91585
 H972 H 0.94697 0.21103 0.94712
 H973 H 0.94722 0.28963 0.94753
 H974 H 0.91580 0.28963 0.91628
 H975 H 0.88661 0.25108 0.83187
 H976 H 0.85538 0.25112 0.80031
 H977 H 0.79985 0.25153 0.85572
 H978 H 0.83136 0.25149 0.88703
 C979 C 0.41293 0.75055 0.41362
 C980 C 0.42190 0.72851 0.42245
 C981 C 0.43991 0.72833 0.44030
 C982 C 0.44918 0.75024 0.44956
 C983 C 0.44003 0.77230 0.44055
 C984 C 0.42202 0.77242 0.42271
 C985 C 0.39443 0.75074 0.39521
 C986 C 0.37897 0.75095 0.37977
 C987 C 0.36054 0.75119 0.36129
 C988 C 0.33602 0.75134 0.36777
 C989 C 0.31810 0.75137 0.34983
 C990 C 0.32450 0.75125 0.32510
 C991 C 0.34924 0.75120 0.31881
 C992 C 0.36711 0.75117 0.33680
 H993 H 0.41498 0.71147 0.41553
 H994 H 0.44656 0.71106 0.44684
 H995 H 0.44677 0.78947 0.44728
 H996 H 0.41521 0.78958 0.41599
 H997 H 0.33074 0.75135 0.38669
 H998 H 0.29926 0.75137 0.35535
 H999 H 0.35485 0.75108 0.29999
 H1000 H 0.38605 0.75105 0.33159
 C1001 C 0.08626 0.08668 0.25121
 C1002 C 0.07737 0.07775 0.22916
 C1003 C 0.05948 0.05977 0.22897
 C1004 C 0.05024 0.05048 0.25086
 C1005 C 0.05931 0.05959 0.27292
 C1006 C 0.07719 0.07756 0.27307
 C1007 C 0.10470 0.10515 0.25142
 C1008 C 0.12016 0.12061 0.25165
 C1009 C 0.13864 0.13905 0.25189
 C1010 C 0.16314 0.13249 0.25172
 C1011 C 0.18112 0.15036 0.25169
 C1012 C 0.17482 0.17512 0.25184
 C1013 C 0.15009 0.18150 0.25214
 C1014 C 0.13216 0.16357 0.25216
 H1015 H 0.08427 0.08469 0.21213
 H1016 H 0.05290 0.05316 0.21168
 H1017 H 0.05260 0.05284 0.29009
 H1018 H 0.08394 0.08433 0.29024
 H1019 H 0.16836 0.11355 0.25151
 H1020 H 0.19994 0.14476 0.25143
 H1021 H 0.14456 0.20034 0.25222
 H1022 H 0.11324 0.16885 0.25230
 C1023 C 0.58676 0.58692 0.75177
 C1024 C 0.57786 0.57804 0.72972
 C1025 C 0.55993 0.56011 0.72951
 C1026 C 0.55068 0.55085 0.75141
 C1027 C 0.55975 0.55992 0.77348
 C1028 C 0.57767 0.57783 0.77363
 C1029 C 0.60521 0.60534 0.75199
 C1030 C 0.62068 0.62077 0.75222
 C1031 C 0.63914 0.63918 0.75245
 C1032 C 0.63264 0.66370 0.75280
 C1033 C 0.65055 0.68162 0.75275
 C1034 C 0.67528 0.67524 0.75236
 C1035 C 0.68160 0.65050 0.75215
 C1036 C 0.66364 0.63262 0.75220
 H1037 H 0.58478 0.58496 0.71269
 H1038 H 0.55333 0.55352 0.71222
 H1039 H 0.55302 0.55318 0.79064
 H1040 H 0.58444 0.58459 0.79080
 H1041 H 0.61371 0.66896 0.75300
 H1042 H 0.64501 0.70046 0.75288
 H1043 H 0.70042 0.64491 0.75181
 H1044 H 0.66886 0.61368 0.75193
 C1045 C 0.91399 0.08679 0.74881
 C1046 C 0.92287 0.07791 0.77085
 C1047 C 0.94075 0.05993 0.77109
 C1048 C 0.95006 0.05051 0.74920
 C1049 C 0.94092 0.05966 0.72712
 C1050 C 0.92305 0.07763 0.72698
 C1051 C 0.89555 0.10527 0.74859
 C1052 C 0.88009 0.12073 0.74836
 C1053 C 0.86162 0.13916 0.74813
 C1054 C 0.86810 0.16369 0.74786
 C1055 C 0.85017 0.18162 0.74791
 C1056 C 0.82544 0.17524 0.74823
 C1057 C 0.81914 0.15048 0.74836
 C1058 C 0.83711 0.13261 0.74832
 H1059 H 0.91597 0.08488 0.78787
 H1060 H 0.94723 0.05344 0.78846
 H1061 H 0.94753 0.05296 0.70987
 H1062 H 0.91629 0.08438 0.70981
 H1063 H 0.88702 0.16897 0.74772
 H1064 H 0.85571 0.20046 0.74783
 H1065 H 0.80032 0.14489 0.74864
 H1066 H 0.83189 0.11367 0.74853
 C1067 C 0.41361 0.58696 0.24845
 C1068 C 0.42249 0.57807 0.27049
 C1069 C 0.44039 0.56011 0.27069
 C1070 C 0.44963 0.55083 0.24878
 C1071 C 0.44056 0.55991 0.22672
 C1072 C 0.42267 0.57786 0.22658
 C1073 C 0.39516 0.60539 0.24824
 C1074 C 0.37970 0.62082 0.24802
 C1075 C 0.36122 0.63921 0.24778
 C1076 C 0.36769 0.66374 0.24752
 C1077 C 0.34974 0.68164 0.24755
 C1078 C 0.32503 0.67522 0.24785
 C1079 C 0.31874 0.65047 0.24798
 C1080 C 0.33673 0.63262 0.24795
 H1081 H 0.41558 0.58500 0.28753
 H1082 H 0.44698 0.55351 0.28797
 H1083 H 0.44728 0.55316 0.20955
 H1084 H 0.41591 0.58462 0.20942
 H1085 H 0.38660 0.66904 0.24739
 H1086 H 0.35526 0.70048 0.24748
 H1087 H 0.29993 0.64485 0.24824
 H1088 H 0.33153 0.61367 0.24815
 C1089 C 0.08618 0.91345 0.74922
 C1090 C 0.07710 0.92251 0.72733
 C1091 C 0.05922 0.94048 0.72742
 C1092 C 0.05017 0.94965 0.74945
 C1093 C 0.05942 0.94042 0.77137
 C1094 C 0.07730 0.92244 0.77123
 C1095 C 0.10462 0.89498 0.74906
 C1096 C 0.12008 0.87952 0.74887
 C1097 C 0.13856 0.86109 0.74866
 C1098 C 0.16306 0.86765 0.74917
 C1099 C 0.18104 0.84978 0.74917
 C1100 C 0.17475 0.82503 0.74866
 C1101 C 0.15002 0.81865 0.74804
 C1102 C 0.13209 0.83657 0.74805
 H1103 H 0.08384 0.91568 0.71018
 H1104 H 0.05251 0.94719 0.71023
 H1105 H 0.05285 0.94708 0.78864
 H1106 H 0.08421 0.91555 0.78829
 H1107 H 0.16827 0.88659 0.74964
 H1108 H 0.19985 0.85538 0.74968
 H1109 H 0.14450 0.79981 0.74768
 H1110 H 0.11317 0.83129 0.74765
 C1111 C 0.58653 0.41295 0.24833
 C1112 C 0.57745 0.42207 0.22648
 C1113 C 0.55960 0.44006 0.22664
 C1114 C 0.55060 0.44917 0.24871
 C1115 C 0.55985 0.43988 0.27060
 C1116 C 0.57770 0.42188 0.27039
 C1117 C 0.60492 0.39447 0.24810
 C1118 C 0.62034 0.37899 0.24787
 C1119 C 0.63878 0.36055 0.24763
 C1120 C 0.66328 0.36710 0.24776
 C1121 C 0.68123 0.34921 0.24780
 C1122 C 0.67489 0.32447 0.24771
 C1123 C 0.65016 0.31810 0.24743
 C1124 C 0.63225 0.33604 0.24739
 H1125 H 0.58416 0.41528 0.20931
 H1126 H 0.55287 0.44682 0.20947
 H1127 H 0.55330 0.44650 0.28789
 H1128 H 0.58462 0.41493 0.28741
 H1129 H 0.66852 0.38604 0.24794
 H1130 H 0.70005 0.35479 0.24805
 H1131 H 0.64460 0.29927 0.24739
 H1132 H 0.61332 0.33079 0.24729
 C1133 C 0.91397 0.91342 0.25120
 C1134 C 0.92306 0.92252 0.27305
 C1135 C 0.94096 0.94047 0.27294
 C1136 C 0.95008 0.94966 0.25087
 C1137 C 0.94074 0.94029 0.22896
 C1138 C 0.92284 0.92233 0.22917
 C1139 C 0.89551 0.89496 0.25140
 C1140 C 0.88004 0.87951 0.25162
 C1141 C 0.86155 0.86109 0.25185
 C1142 C 0.83705 0.86766 0.25170
 C1143 C 0.81906 0.84979 0.25167
 C1144 C 0.82535 0.82503 0.25178
 C1145 C 0.85007 0.81864 0.25207
 C1146 C 0.86801 0.83655 0.25210
 H1147 H 0.91631 0.91575 0.29021
 H1148 H 0.94759 0.94712 0.29019
 H1149 H 0.94721 0.94680 0.21160
 H1150 H 0.91591 0.91539 0.21214
 H1151 H 0.83184 0.88660 0.25151
 H1152 H 0.80024 0.85540 0.25141
 H1153 H 0.85560 0.79980 0.25212
 H1154 H 0.88693 0.83127 0.25222
 C1155 C 0.41367 0.41307 0.75171
 C1156 C 0.42275 0.42218 0.77358
 C1157 C 0.44060 0.44016 0.77344
 C1158 C 0.44962 0.44927 0.75137
 C1159 C 0.44037 0.43998 0.72947
 C1160 C 0.42251 0.42199 0.72967
 C1161 C 0.39527 0.39460 0.75192
 C1162 C 0.37982 0.37914 0.75213
 C1163 C 0.36136 0.36073 0.75235
 C1164 C 0.36785 0.33621 0.75258
 C1165 C 0.34991 0.31830 0.75252
 C1166 C 0.32519 0.32470 0.75221
 C1167 C 0.31889 0.34945 0.75212
 C1168 C 0.33687 0.36731 0.75218
 H1169 H 0.41602 0.41540 0.79074
 H1170 H 0.44733 0.44692 0.79061
 H1171 H 0.44692 0.44660 0.71219
 H1172 H 0.41559 0.41505 0.71263
 H1173 H 0.38677 0.33093 0.75271
 H1174 H 0.35544 0.29945 0.75256
 H1175 H 0.30008 0.35506 0.75185
 H1176 H 0.33166 0.38626 0.75200
 C1177 C 0.08639 0.24956 0.91284
 C1178 C 0.07730 0.22766 0.92186
 C1179 C 0.05936 0.22775 0.93975
 C1180 C 0.05027 0.24979 0.94888
 C1181 C 0.05953 0.27172 0.93968
 C1182 C 0.07747 0.27157 0.92177
 C1183 C 0.10488 0.24940 0.89445
 C1184 C 0.12037 0.24923 0.87905
 C1185 C 0.13888 0.24903 0.86068
 C1186 C 0.13244 0.24913 0.83614
 C1187 C 0.15040 0.24907 0.81827
 C1188 C 0.17511 0.24892 0.82472
 C1189 C 0.18137 0.24872 0.84948
 C1190 C 0.16336 0.24878 0.86731
 H1191 H 0.08408 0.21052 0.91506
 H1192 H 0.05263 0.21056 0.94644
 H1193 H 0.05292 0.28898 0.94631
 H1194 H 0.08439 0.28863 0.91491
 H1195 H 0.11352 0.24930 0.83082
 H1196 H 0.14490 0.24919 0.79941
 H1197 H 0.20018 0.24856 0.85512
 H1198 H 0.16854 0.24867 0.88626
 C1199 C 0.58671 0.74962 0.41303
 C1200 C 0.57777 0.77162 0.42199
 C1201 C 0.55986 0.77174 0.43994
 C1202 C 0.55064 0.74981 0.44917
 C1203 C 0.55974 0.72778 0.44002
 C1204 C 0.57765 0.72772 0.42208
 C1205 C 0.60517 0.74949 0.39457
 C1206 C 0.62065 0.74934 0.37912
 C1207 C 0.63914 0.74917 0.36069
 C1208 C 0.66364 0.74894 0.36725
 C1209 C 0.68162 0.74890 0.34938
 C1210 C 0.67532 0.74911 0.32462
 C1211 C 0.65059 0.74924 0.31824
 C1212 C 0.63266 0.74927 0.33616
 H1213 H 0.58466 0.78869 0.41512
 H1214 H 0.55325 0.78900 0.44659
 H1215 H 0.55305 0.71059 0.44672
 H1216 H 0.58443 0.71058 0.41527
 H1217 H 0.66887 0.74883 0.38620
 H1218 H 0.70044 0.74876 0.35498
 H1219 H 0.64506 0.74936 0.29940
 H1220 H 0.61374 0.74942 0.33087
 C1221 C 0.91414 0.75055 0.91318
 C1222 C 0.92305 0.72854 0.92208
 C1223 C 0.94102 0.72834 0.93998
 C1224 C 0.95038 0.75026 0.94930
 C1225 C 0.94122 0.77232 0.94013
 C1226 C 0.92326 0.77242 0.92224
 C1227 C 0.89563 0.75073 0.89479
 C1228 C 0.88011 0.75091 0.87938
 C1229 C 0.86157 0.75113 0.86101
 C1230 C 0.83709 0.75130 0.86763
 C1231 C 0.81906 0.75135 0.84980
 C1232 C 0.82529 0.75122 0.82503
 C1233 C 0.85000 0.75115 0.81859
 C1234 C 0.86798 0.75110 0.83646
 H1235 H 0.91611 0.71150 0.91519
 H1236 H 0.94752 0.71099 0.94649
 H1237 H 0.94787 0.78958 0.94675
 H1238 H 0.91648 0.78957 0.91547
 H1239 H 0.83193 0.75135 0.88659
 H1240 H 0.80026 0.75145 0.85545
 H1241 H 0.85548 0.75109 0.79973
 H1242 H 0.88689 0.75099 0.83113
 C1243 C 0.41354 0.25038 0.41302
 C1244 C 0.42244 0.22836 0.42194
 C1245 C 0.44035 0.22819 0.43991
 C1246 C 0.44959 0.25011 0.44918
 C1247 C 0.44052 0.27215 0.44007
 C1248 C 0.42262 0.27226 0.42211
 C1249 C 0.39508 0.25055 0.39456
 C1250 C 0.37961 0.25073 0.37911
 C1251 C 0.36111 0.25094 0.36069
 C1252 C 0.36757 0.25084 0.33616
 C1253 C 0.34962 0.25090 0.31825
 C1254 C 0.32490 0.25103 0.32465
 C1255 C 0.31862 0.25123 0.34941
 C1256 C 0.33662 0.25117 0.36727
 H1257 H 0.41553 0.21131 0.41503
 H1258 H 0.44693 0.21092 0.44653
 H1259 H 0.44723 0.28934 0.44681
 H1260 H 0.41585 0.28942 0.41533
 H1261 H 0.38649 0.25068 0.33087
 H1262 H 0.35514 0.25079 0.29941
 H1263 H 0.29981 0.25137 0.35502
 H1264 H 0.33142 0.25127 0.38622
 C1265 C 0.08663 0.75035 0.08626
 C1266 C 0.07771 0.72834 0.07730
 C1267 C 0.05984 0.72820 0.05930
 C1268 C 0.05066 0.75013 0.05002
 C1269 C 0.05976 0.77216 0.05916
 C1270 C 0.07762 0.77224 0.07715
 C1271 C 0.10504 0.75049 0.10476
 C1272 C 0.12048 0.75065 0.12025
 C1273 C 0.13893 0.75083 0.13871
 C1274 C 0.16344 0.75106 0.13219
 C1275 C 0.18140 0.75111 0.15009
 C1276 C 0.17507 0.75092 0.17483
 C1277 C 0.15033 0.75078 0.18118
 C1278 C 0.13242 0.75073 0.16323
 H1279 H 0.08457 0.71128 0.08422
 H1280 H 0.05323 0.71094 0.05266
 H1281 H 0.05308 0.78936 0.05242
 H1282 H 0.08440 0.78939 0.08396
 H1283 H 0.16868 0.75117 0.11325
 H1284 H 0.20022 0.75126 0.14452
 H1285 H 0.14478 0.75067 0.20001
 H1286 H 0.11349 0.75058 0.16848
 C1287 C 0.58672 0.25039 0.58707
 C1288 C 0.57782 0.22837 0.57814
 C1289 C 0.55991 0.22820 0.56017
 C1290 C 0.55067 0.25012 0.55091
 C1291 C 0.55975 0.27216 0.56003
 C1292 C 0.57765 0.27227 0.57799
 C1293 C 0.60518 0.25057 0.60553
 C1294 C 0.62066 0.25075 0.62098
 C1295 C 0.63915 0.25096 0.63939
 C1296 C 0.63270 0.25089 0.66393
 C1297 C 0.65065 0.25096 0.68184
 C1298 C 0.67537 0.25108 0.67543
 C1299 C 0.68164 0.25125 0.65068
 C1300 C 0.66365 0.25118 0.63282
 H1301 H 0.58472 0.21132 0.58505
 H1302 H 0.55332 0.21093 0.55355
 H1303 H 0.55304 0.28934 0.55330
 H1304 H 0.58442 0.28943 0.58478
 H1305 H 0.61378 0.25075 0.66922
 H1306 H 0.64513 0.25087 0.70068
 H1307 H 0.70046 0.25139 0.64507
 H1308 H 0.66885 0.25126 0.61387
 C1309 C 0.91317 0.24926 0.08656
 C1310 C 0.92224 0.22739 0.07743
 C1311 C 0.94013 0.22754 0.05948
 C1312 C 0.94918 0.24961 0.05042
 C1313 C 0.93994 0.27151 0.05972
 C1314 C 0.92205 0.27130 0.07768
 C1315 C 0.89474 0.24904 0.10501
 C1316 C 0.87929 0.24883 0.12045
 C1317 C 0.86083 0.24858 0.13887
 C1318 C 0.83633 0.24832 0.13231
 C1319 C 0.81837 0.24824 0.15018
 C1320 C 0.82469 0.24844 0.17493
 C1321 C 0.84942 0.24859 0.18132
 C1322 C 0.86734 0.24867 0.16339
 H1323 H 0.91548 0.21023 0.08418
 H1324 H 0.94684 0.21038 0.05272
 H1325 H 0.94652 0.28879 0.05314
 H1326 H 0.91514 0.28834 0.08463
 H1327 H 0.83111 0.24822 0.11336
 H1328 H 0.79955 0.24808 0.14458
 H1329 H 0.85496 0.24870 0.20015
 H1330 H 0.88626 0.24884 0.16867
 C1331 C 0.41353 0.74920 0.58711
 C1332 C 0.42241 0.77124 0.57820
 C1333 C 0.44030 0.77145 0.56023
 C1334 C 0.44955 0.74956 0.55092
 C1335 C 0.44050 0.72749 0.56001
 C1336 C 0.42262 0.72734 0.57797
 C1337 C 0.39508 0.74899 0.60557
 C1338 C 0.37961 0.74879 0.62103
 C1339 C 0.36111 0.74859 0.63945
 C1340 C 0.36757 0.74904 0.66399
 C1341 C 0.34962 0.74905 0.68189
 C1342 C 0.32489 0.74861 0.67549
 C1343 C 0.31862 0.74804 0.65073
 C1344 C 0.33662 0.74803 0.63287
 H1345 H 0.41549 0.78827 0.58514
 H1346 H 0.44686 0.78874 0.55364
 H1347 H 0.44723 0.71033 0.55324
 H1348 H 0.41588 0.71017 0.58473
 H1349 H 0.38648 0.74945 0.66929
 H1350 H 0.35513 0.74946 0.70074
 H1351 H 0.29981 0.74765 0.64511
 H1352 H 0.33141 0.74765 0.61393
 C1353 C 0.24949 0.08677 0.91323
 C1354 C 0.22762 0.07763 0.92225
 C1355 C 0.22774 0.05962 0.94008
 C1356 C 0.24980 0.05050 0.94912
 C1357 C 0.27170 0.05981 0.93992
 C1358 C 0.27152 0.07783 0.92209
 C1359 C 0.24929 0.10529 0.89487
 C1360 C 0.24909 0.12079 0.87948
 C1361 C 0.24885 0.13927 0.86107
 C1362 C 0.24891 0.13277 0.83655
 C1363 C 0.24885 0.15069 0.81863
 C1364 C 0.24875 0.17542 0.82502
 C1365 C 0.24857 0.18174 0.84977
 C1366 C 0.24863 0.16377 0.86764
 H1367 H 0.21046 0.08443 0.91551
 H1368 H 0.21057 0.05286 0.94676
 H1369 H 0.28898 0.05318 0.94650
 H1370 H 0.28856 0.08478 0.91522
 H1371 H 0.24905 0.11384 0.83127
 H1372 H 0.24894 0.14514 0.79979
 H1373 H 0.24845 0.20057 0.85536
 H1374 H 0.24856 0.16900 0.88658
 C1375 C 0.74981 0.58705 0.41326
 C1376 C 0.72794 0.57795 0.42233
 C1377 C 0.72807 0.55999 0.44022
 C1378 C 0.75012 0.55087 0.44929
 C1379 C 0.77202 0.56014 0.44005
 C1380 C 0.77184 0.57812 0.42215
 C1381 C 0.74962 0.60554 0.39483
 C1382 C 0.74942 0.62102 0.37938
 C1383 C 0.74919 0.63949 0.36093
 C1384 C 0.74925 0.63297 0.33640
 C1385 C 0.74918 0.65088 0.31846
 C1386 C 0.74906 0.67563 0.32481
 C1387 C 0.74888 0.68196 0.34956
 C1388 C 0.74896 0.66401 0.36746
 H1389 H 0.71079 0.58474 0.41558
 H1390 H 0.71089 0.55325 0.44693
 H1391 H 0.78929 0.55353 0.44663
 H1392 H 0.78888 0.58503 0.41526
 H1393 H 0.74941 0.61404 0.33114
 H1394 H 0.74927 0.64531 0.29963
 H1395 H 0.74874 0.70079 0.35513
 H1396 H 0.74888 0.66925 0.38639
 C1397 C 0.75035 0.08632 0.08637
 C1398 C 0.77223 0.07721 0.07737
 C1399 C 0.77217 0.05921 0.05952
 C1400 C 0.75013 0.04999 0.05035
 C1401 C 0.72820 0.05936 0.05960
 C1402 C 0.72836 0.07737 0.07746
 C1403 C 0.75050 0.10485 0.10477
 C1404 C 0.75068 0.12035 0.12019
 C1405 C 0.75088 0.13883 0.13863
 C1406 C 0.75081 0.13234 0.16315
 C1407 C 0.75087 0.15027 0.18108
 C1408 C 0.75099 0.17500 0.17472
 C1409 C 0.75116 0.18132 0.14997
 C1410 C 0.75110 0.16334 0.13208
 H1411 H 0.78937 0.08402 0.08416
 H1412 H 0.78944 0.05256 0.05295
 H1413 H 0.71086 0.05282 0.05309
 H1414 H 0.71131 0.08431 0.08432
 H1415 H 0.75067 0.11341 0.16841
 H1416 H 0.75077 0.14472 0.19992
 H1417 H 0.75130 0.20014 0.14439
 H1418 H 0.75119 0.16857 0.11314
 C1419 C 0.24999 0.58697 0.58675
 C1420 C 0.22798 0.57802 0.57782
 C1421 C 0.22785 0.56008 0.55988
 C1422 C 0.24977 0.55086 0.55064
 C1423 C 0.27180 0.56000 0.55974
 C1424 C 0.27188 0.57792 0.57767
 C1425 C 0.25015 0.60542 0.60522
 C1426 C 0.25033 0.62087 0.62068
 C1427 C 0.25056 0.63933 0.63914
 C1428 C 0.25063 0.63281 0.66366
 C1429 C 0.25075 0.65072 0.68161
 C1430 C 0.25079 0.67546 0.67526
 C1431 C 0.25082 0.68180 0.65052
 C1432 C 0.25070 0.66384 0.63262
 H1433 H 0.21093 0.58490 0.58473
 H1434 H 0.21059 0.55345 0.55328
 H1435 H 0.28899 0.55330 0.55302
 H1436 H 0.28903 0.58473 0.58445
 H1437 H 0.25055 0.61388 0.66890
 H1438 H 0.25076 0.64516 0.70044
 H1439 H 0.25090 0.70063 0.64495
 H1440 H 0.25069 0.66909 0.61368
 C1441 C 0.75062 0.91299 0.91413
 C1442 C 0.72858 0.92191 0.92299
 C1443 C 0.72838 0.93989 0.94088
 C1444 C 0.75027 0.94918 0.95016
 C1445 C 0.77234 0.94006 0.94113
 C1446 C 0.77248 0.92209 0.92324
 C1447 C 0.75083 0.89451 0.89569
 C1448 C 0.75105 0.87905 0.88023
 C1449 C 0.75130 0.86062 0.86175
 C1450 C 0.75117 0.86717 0.83724
 C1451 C 0.75125 0.84930 0.81926
 C1452 C 0.75143 0.82455 0.82556
 C1453 C 0.75167 0.81817 0.85029
 C1454 C 0.75160 0.83609 0.86822
 H1455 H 0.71155 0.91499 0.91605
 H1456 H 0.71110 0.94651 0.94744
 H1457 H 0.78950 0.94681 0.94787
 H1458 H 0.78965 0.91531 0.91651
 H1459 H 0.75096 0.88612 0.83203
 H1460 H 0.75110 0.85489 0.80044
 H1461 H 0.75187 0.79933 0.85582
 H1462 H 0.75172 0.83082 0.88715
 C1463 C 0.25037 0.41303 0.41345
 C1464 C 0.22832 0.42192 0.42231
 C1465 C 0.22811 0.43991 0.44020
 C1466 C 0.24999 0.44923 0.44945
 C1467 C 0.27206 0.44015 0.44041
 C1468 C 0.27222 0.42218 0.42253
 C1469 C 0.25059 0.39454 0.39502
 C1470 C 0.25081 0.37906 0.37957
 C1471 C 0.25107 0.36060 0.36112
 C1472 C 0.25099 0.36713 0.33661
 C1473 C 0.25106 0.34923 0.31865
 C1474 C 0.25119 0.32449 0.32498
 C1475 C 0.25139 0.31814 0.34972
 C1476 C 0.25132 0.33609 0.36763
 H1477 H 0.21130 0.41496 0.41540
 H1478 H 0.21082 0.44650 0.44677
 H1479 H 0.28922 0.44693 0.44713
 H1480 H 0.28939 0.41542 0.41579
 H1481 H 0.25082 0.38606 0.33137
 H1482 H 0.25094 0.35480 0.29982
 H1483 H 0.25154 0.29931 0.35527
 H1484 H 0.25141 0.33084 0.38656
 C1485 C 0.24949 0.91274 0.08617
 C1486 C 0.27152 0.92166 0.07730
 C1487 C 0.27170 0.93962 0.05941
 C1488 C 0.24980 0.94890 0.05017
 C1489 C 0.22774 0.93980 0.05921
 C1490 C 0.22762 0.92184 0.07709
 C1491 C 0.24929 0.89429 0.10459
 C1492 C 0.24908 0.87883 0.12004
 C1493 C 0.24884 0.86041 0.13849
 C1494 C 0.24861 0.83589 0.13198
 C1495 C 0.24853 0.81796 0.14990
 C1496 C 0.24870 0.82435 0.17463
 C1497 C 0.24881 0.84910 0.18096
 C1498 C 0.24888 0.86697 0.16300
 H1499 H 0.28856 0.91473 0.08422
 H1500 H 0.28898 0.94624 0.05284
 H1501 H 0.21057 0.94654 0.05249
 H1502 H 0.21046 0.91506 0.08384
 H1503 H 0.24854 0.83062 0.11305
 H1504 H 0.24840 0.79913 0.14435
 H1505 H 0.24890 0.85469 0.19978
 H1506 H 0.24903 0.88591 0.16823
 C1507 C 0.74982 0.41302 0.58650
 C1508 C 0.72795 0.42213 0.57742
 C1509 C 0.72807 0.44009 0.55953
 C1510 C 0.75012 0.44920 0.55046
 C1511 C 0.77202 0.43991 0.55970
 C1512 C 0.77184 0.42195 0.57760
 C1513 C 0.74963 0.39454 0.60494
 C1514 C 0.74943 0.37908 0.62040
 C1515 C 0.74920 0.36064 0.63888
 C1516 C 0.74929 0.36719 0.66339
 C1517 C 0.74923 0.34930 0.68136
 C1518 C 0.74909 0.32455 0.67505
 C1519 C 0.74890 0.31818 0.65031
 C1520 C 0.74896 0.33611 0.63238
 H1521 H 0.71079 0.41536 0.58417
 H1522 H 0.71089 0.44684 0.55281
 H1523 H 0.78929 0.44652 0.55313
 H1524 H 0.78888 0.41502 0.58451
 H1525 H 0.74946 0.38612 0.66862
 H1526 H 0.74935 0.35490 0.70019
 H1527 H 0.74874 0.29934 0.64476
 H1528 H 0.74886 0.33083 0.61346
 C1529 C 0.08680 0.08690 0.75012
 C1530 C 0.07787 0.07799 0.72810
 C1531 C 0.05985 0.06015 0.72793
 C1532 C 0.05054 0.05099 0.74985
 C1533 C 0.05966 0.06008 0.77190
 C1534 C 0.07766 0.07791 0.77200
 C1535 C 0.10530 0.10527 0.75030
 C1536 C 0.12079 0.12069 0.75051
 C1537 C 0.13925 0.13912 0.75078
 C1538 C 0.13272 0.16363 0.75089
 C1539 C 0.15063 0.18157 0.75102
 C1540 C 0.17536 0.17521 0.75102
 C1541 C 0.18171 0.15047 0.75101
 C1542 C 0.16375 0.13258 0.75088
 H1543 H 0.08482 0.08484 0.71105
 H1544 H 0.05323 0.05355 0.71066
 H1545 H 0.05289 0.05342 0.78908
 H1546 H 0.08445 0.08469 0.78916
 H1547 H 0.11379 0.16888 0.75084
 H1548 H 0.14506 0.20040 0.75107
 H1549 H 0.20053 0.14490 0.75105
 H1550 H 0.16899 0.11364 0.75082
 C1551 C 0.58713 0.58668 0.24971
 C1552 C 0.57820 0.57779 0.22768
 C1553 C 0.56024 0.55986 0.22749
 C1554 C 0.55098 0.55060 0.24938
 C1555 C 0.56010 0.55967 0.27144
 C1556 C 0.57804 0.57758 0.27158
 C1557 C 0.60558 0.60515 0.24992
 C1558 C 0.62103 0.62063 0.25016
 C1559 C 0.63946 0.63912 0.25046
 C1560 C 0.63291 0.66363 0.25060
 C1561 C 0.65078 0.68162 0.25076
 C1562 C 0.67553 0.67532 0.25077
 C1563 C 0.68191 0.65059 0.25074
 C1564 C 0.66399 0.63265 0.25058
 H1565 H 0.58510 0.58471 0.21064
 H1566 H 0.55362 0.55328 0.21021
 H1567 H 0.55338 0.55294 0.28861
 H1568 H 0.58482 0.58433 0.28874
 H1569 H 0.61397 0.66885 0.25054
 H1570 H 0.64518 0.70044 0.25083
 H1571 H 0.70075 0.64505 0.25078
 H1572 H 0.66927 0.61372 0.25050
 C1573 C 0.08674 0.91313 0.24977
 C1574 C 0.07760 0.92220 0.22792
 C1575 C 0.05963 0.94007 0.22808
 C1576 C 0.05055 0.94910 0.25016
 C1577 C 0.05987 0.93986 0.27205
 C1578 C 0.07785 0.92199 0.27183
 C1579 C 0.10522 0.89472 0.24953
 C1580 C 0.12069 0.87929 0.24926
 C1581 C 0.13912 0.86084 0.24892
 C1582 C 0.16364 0.86736 0.24880
 C1583 C 0.18157 0.84946 0.24862
 C1584 C 0.17521 0.82472 0.24858
 C1585 C 0.15047 0.81838 0.24859
 C1586 C 0.13258 0.83633 0.24877
 H1587 H 0.08436 0.91547 0.21074
 H1588 H 0.05286 0.94679 0.21092
 H1589 H 0.05328 0.94643 0.28934
 H1590 H 0.08481 0.91508 0.28885
 H1591 H 0.16889 0.88630 0.24889
 H1592 H 0.20040 0.85501 0.24858
 H1593 H 0.14489 0.79955 0.24853
 H1594 H 0.11365 0.83110 0.24883
 C1595 C 0.58717 0.41351 0.75030
 C1596 C 0.57826 0.42238 0.77235
 C1597 C 0.56028 0.44027 0.77257
 C1598 C 0.55096 0.44953 0.75068
 C1599 C 0.56005 0.44048 0.72861
 C1600 C 0.57803 0.42260 0.72845
 C1601 C 0.60566 0.39507 0.75006
 C1602 C 0.62113 0.37962 0.74980
 C1603 C 0.63957 0.36115 0.74949
 C1604 C 0.66410 0.36764 0.74934
 C1605 C 0.68203 0.34971 0.74917
 C1606 C 0.67566 0.32497 0.74916
 C1607 C 0.65091 0.31866 0.74920
 C1608 C 0.63303 0.33663 0.74937
 H1609 H 0.58521 0.41547 0.78938
 H1610 H 0.55368 0.44683 0.78986
 H1611 H 0.55329 0.44720 0.71145
 H1612 H 0.58479 0.41586 0.71127
 H1613 H 0.66937 0.38657 0.74940
 H1614 H 0.70086 0.35526 0.74910
 H1615 H 0.64533 0.29984 0.74916
 H1616 H 0.61409 0.33140 0.74945
 C1617 C 0.91274 0.08613 0.24987
 C1618 C 0.92165 0.07727 0.27192
 C1619 C 0.93961 0.05937 0.27212
 C1620 C 0.94888 0.05011 0.25022
 C1621 C 0.93978 0.05914 0.22816
 C1622 C 0.92183 0.07703 0.22801
 C1623 C 0.89430 0.10457 0.24965
 C1624 C 0.87886 0.12003 0.24939
 C1625 C 0.86045 0.13851 0.24907
 C1626 C 0.86704 0.16301 0.24891
 C1627 C 0.84919 0.18099 0.24873
 C1628 C 0.82444 0.17470 0.24871
 C1629 C 0.81803 0.14997 0.24876
 C1630 C 0.83593 0.13203 0.24894
 H1631 H 0.91473 0.08420 0.28895
 H1632 H 0.94623 0.05281 0.28940
 H1633 H 0.94652 0.05241 0.21099
 H1634 H 0.91505 0.08377 0.21084
 H1635 H 0.88598 0.16821 0.24898
 H1636 H 0.85480 0.19981 0.24866
 H1637 H 0.79919 0.14445 0.24871
 H1638 H 0.83064 0.11311 0.24903
 C1639 C 0.41316 0.58680 0.75046
 C1640 C 0.42208 0.57791 0.77249
 C1641 C 0.44003 0.55998 0.77268
 C1642 C 0.44930 0.55071 0.75078
 C1643 C 0.44019 0.55978 0.72872
 C1644 C 0.42225 0.57770 0.72859
 C1645 C 0.39470 0.60527 0.75026
 C1646 C 0.37925 0.62074 0.75002
 C1647 C 0.36080 0.63921 0.74972
 C1648 C 0.36733 0.66373 0.74961
 C1649 C 0.34943 0.68169 0.74944
 C1650 C 0.32469 0.67536 0.74937
 C1651 C 0.31833 0.65062 0.74938
 C1652 C 0.33627 0.63271 0.74956
 H1653 H 0.41517 0.58483 0.78953
 H1654 H 0.44664 0.55340 0.78996
 H1655 H 0.44692 0.55306 0.71155
 H1656 H 0.41548 0.58446 0.71143
 H1657 H 0.38626 0.66897 0.74971
 H1658 H 0.35501 0.70052 0.74940
 H1659 H 0.29950 0.64507 0.74930
 H1660 H 0.33101 0.61378 0.74961
 C1661 C 0.91282 0.91388 0.75041
 C1662 C 0.92171 0.92272 0.72835
 C1663 C 0.93962 0.94067 0.72813
 C1664 C 0.94887 0.95000 0.75002
 C1665 C 0.93978 0.94098 0.77210
 C1666 C 0.92188 0.92305 0.77226
 C1667 C 0.89443 0.89538 0.75064
 C1668 C 0.87904 0.87988 0.75089
 C1669 C 0.86067 0.86137 0.75119
 C1670 C 0.86730 0.83688 0.75125
 C1671 C 0.84947 0.81886 0.75139
 C1672 C 0.82472 0.82512 0.75147
 C1673 C 0.81827 0.84983 0.75152
 C1674 C 0.83614 0.86780 0.75138
 H1675 H 0.91481 0.91574 0.71133
 H1676 H 0.94622 0.94721 0.71084
 H1677 H 0.94651 0.94777 0.78926
 H1678 H 0.91512 0.91632 0.78943
 H1679 H 0.88625 0.83171 0.75113
 H1680 H 0.85512 0.80005 0.75138
 H1681 H 0.79942 0.85532 0.75162
 H1682 H 0.83082 0.88671 0.75137
 C1683 C 0.41307 0.41343 0.24980
 C1684 C 0.42222 0.42253 0.27165
 C1685 C 0.44018 0.44042 0.27150
 C1686 C 0.44926 0.44946 0.24943
 C1687 C 0.43994 0.44020 0.22755
 C1688 C 0.42197 0.42230 0.22775
 C1689 C 0.39460 0.39498 0.25003
 C1690 C 0.37914 0.37952 0.25028
 C1691 C 0.36069 0.36104 0.25059
 C1692 C 0.33617 0.36752 0.25073
 C1693 C 0.31824 0.34959 0.25090
 C1694 C 0.32461 0.32485 0.25091
 C1695 C 0.34936 0.31855 0.25087
 C1696 C 0.36724 0.33652 0.25071
 H1697 H 0.41546 0.41579 0.28883
 H1698 H 0.44695 0.44714 0.28867
 H1699 H 0.44653 0.44677 0.21026
 H1700 H 0.41502 0.41538 0.21072
 H1701 H 0.33089 0.38645 0.25067
 H1702 H 0.29940 0.35513 0.25096
 H1703 H 0.35495 0.29972 0.25092
 H1704 H 0.38618 0.33130 0.25063
   
