data_POSCAR
  _audit_creation_date              2014-09-24
  _audit_creation_method            'ToBaCCo'
  _symmetry_space_group_name_H-M    'P1'
  _symmetry_Int_Tables_number       1
  _symmetry_cell_setting            triclinic
  loop_
  _symmetry_equiv_pos_as_xyz
 x,y,z
_cell_length_a 60.0737
_cell_length_b 60.0788
_cell_length_c 60.0232
_cell_angle_alpha 89.998900
_cell_angle_beta 90.002900
_cell_angle_gamma 89.950800
loop_
  _atom_site_label
  _atom_site_type_symbol
  _atom_site_fract_x
  _atom_site_fract_y
  _atom_site_fract_z
C1 C 0.36816 1.35274 0.33542
 C2 C 0.36819 1.33625 0.35195
 C3 C 0.35187 1.33624 0.36826
 C4 C 0.33532 1.35272 0.36824
 C5 C 0.33529 1.36902 0.35190
 C6 C 0.35180 1.36904 0.33539
 C7 C 0.38146 1.35636 0.31709
 N8 N 0.37351 1.37440 0.30613
 C9 C 0.35542 1.38232 0.31703
 C10 C 0.31692 1.38229 0.35552
 N11 N 0.30602 1.37434 0.37360
 C12 C 0.31699 1.35631 0.38155
 C13 C 0.35552 1.31792 0.38156
 N14 N 0.37360 1.30700 0.37365
 C15 C 0.38150 1.31794 0.35559
 H16 H 0.39561 1.34643 0.31191
 H17 H 0.34546 1.39642 0.31179
 H18 H 0.31167 1.39639 0.34557
 H19 H 0.31181 1.34636 0.39568
 H20 H 0.34559 1.31269 0.39568
 H21 H 0.39563 1.31272 0.34566
 C22 C 0.36801 0.85265 0.83622
 C23 C 0.36801 0.83615 0.85274
 C24 C 0.35168 0.83614 0.86904
 C25 C 0.33515 0.85264 0.86902
 C26 C 0.33515 0.86895 0.85268
 C27 C 0.35168 0.86896 0.83619
 C28 C 0.38131 0.85626 0.81789
 N29 N 0.37338 0.87430 0.80691
 C30 C 0.35531 0.88222 0.81783
 C31 C 0.31679 0.88224 0.85627
 N32 N 0.30586 0.87430 0.87433
 C33 C 0.31679 0.85625 0.88229
 C34 C 0.35531 0.81780 0.88233
 N35 N 0.37339 0.80688 0.87442
 C36 C 0.38131 0.81783 0.85637
 H37 H 0.39543 0.84633 0.81268
 H38 H 0.34537 0.89632 0.81257
 H39 H 0.31158 0.89634 0.84631
 H40 H 0.31158 0.84631 0.89641
 H41 H 0.34537 0.81257 0.89644
 H42 H 0.39544 0.81262 0.84644
 C43 C 0.86746 1.35224 0.83478
 C44 C 0.86750 1.33576 0.85133
 C45 C 0.85117 1.33574 0.86763
 C46 C 0.83461 1.35221 0.86759
 C47 C 0.83456 1.36850 0.85123
 C48 C 0.85109 1.36852 0.83473
 C49 C 0.88081 1.35588 0.81649
 N50 N 0.87288 1.37392 0.80553
 C51 C 0.85475 1.38182 0.81639
 C52 C 0.81621 1.38178 0.85487
 N53 N 0.80533 1.37386 0.87298
 C54 C 0.81629 1.35582 0.88091
 C55 C 0.85486 1.31747 0.88099
 N56 N 0.87298 1.30658 0.87311
 C57 C 0.88086 1.31750 0.85502
 H58 H 0.89500 1.34599 0.81136
 H59 H 0.84480 1.39593 0.81115
 H60 H 0.81097 1.39590 0.84493
 H61 H 0.81115 1.34591 0.89508
 H62 H 0.84496 1.31226 0.89512
 H63 H 0.89502 1.31231 0.84513
 C64 C 0.86887 0.85246 0.33518
 C65 C 0.86887 0.83593 0.35168
 C66 C 0.85254 0.83592 0.36800
 C67 C 0.83603 0.85243 0.36800
 C68 C 0.83603 0.86877 0.35170
 C69 C 0.85255 0.86878 0.33519
 C70 C 0.88218 0.85609 0.31685
 N71 N 0.87425 0.87417 0.30594
 C72 C 0.85617 0.88210 0.31687
 C73 C 0.81769 0.88204 0.35533
 N74 N 0.80674 0.87410 0.37338
 C75 C 0.81769 0.85604 0.38129
 C76 C 0.85615 0.81758 0.38127
 N77 N 0.87421 0.80664 0.37336
 C78 C 0.88215 0.81759 0.35531
 H79 H 0.89630 0.84615 0.31164
 H80 H 0.84623 0.89622 0.31167
 H81 H 0.81246 0.89617 0.34541
 H82 H 0.81246 0.84609 0.39539
 H83 H 0.84622 0.81235 0.39538
 H84 H 0.89627 0.81236 0.34538
 C85 C 0.63088 0.64697 0.33564
 C86 C 0.63089 0.66350 0.35214
 C87 C 0.64722 0.66351 0.36845
 C88 C 0.66374 0.64701 0.36845
 C89 C 0.66373 0.63067 0.35215
 C90 C 0.64721 0.63065 0.33565
 C91 C 0.61758 0.64335 0.31730
 N92 N 0.62552 0.62528 0.30638
 C93 C 0.64359 0.61735 0.31731
 C94 C 0.68209 0.61741 0.35576
 N95 N 0.69305 0.62537 0.37380
 C96 C 0.68210 0.64342 0.38172
 C97 C 0.64363 0.68188 0.38170
 N98 N 0.62557 0.69282 0.37378
 C99 C 0.61762 0.68185 0.35574
 H100 H 0.60347 0.65330 0.31208
 H101 H 0.65355 0.60324 0.31209
 H102 H 0.68733 0.60330 0.34583
 H103 H 0.68734 0.65338 0.39581
 H104 H 0.65358 0.68712 0.39579
 H105 H 0.60351 0.68708 0.34581
 C106 C 0.63249 0.14791 0.83453
 C107 C 0.63245 0.16437 0.85109
 C108 C 0.64877 0.16437 0.86741
 C109 C 0.66533 0.14791 0.86736
 C110 C 0.66539 0.13163 0.85099
 C111 C 0.64887 0.13163 0.83447
 C112 C 0.61915 0.14426 0.81623
 N113 N 0.62710 0.12623 0.80526
 C114 C 0.64522 0.11833 0.81613
 C115 C 0.68374 0.11834 0.85464
 N116 N 0.69460 0.12625 0.87276
 C117 C 0.68363 0.14428 0.88070
 C118 C 0.64506 0.18262 0.88078
 N119 N 0.62695 0.19351 0.87292
 C120 C 0.61907 0.18263 0.85480
 H121 H 0.60497 0.15415 0.81109
 H122 H 0.65517 0.10422 0.81090
 H123 H 0.68897 0.10423 0.84469
 H124 H 0.68876 0.15418 0.89488
 H125 H 0.65495 0.18781 0.89494
 H126 H 0.60492 0.18782 0.84491
 C127 C 1.13183 0.64725 0.83647
 C128 C 1.13183 0.66376 0.85296
 C129 C 1.14816 0.66380 0.86927
 C130 C 1.16469 0.64731 0.86928
 C131 C 1.16470 0.63097 0.85296
 C132 C 1.14817 0.63095 0.83646
 C133 C 1.11855 0.64362 0.81813
 N134 N 1.12648 0.62557 0.80718
 C135 C 1.14455 0.61766 0.81811
 C136 C 1.18306 0.61771 0.85656
 N137 N 1.19400 0.62567 0.87461
 C138 C 1.18305 0.64373 0.88255
 C139 C 1.14452 0.68216 0.88253
 N140 N 1.12645 0.69307 0.87459
 C141 C 1.11853 0.68209 0.85656
 H142 H 1.10443 0.65354 0.81290
 H143 H 1.15450 0.60357 0.81287
 H144 H 1.18828 0.60360 0.84662
 H145 H 1.18827 0.65369 0.89666
 H146 H 1.15446 0.68742 0.89663
 H147 H 1.10441 0.68729 0.84662
 C148 C 1.13194 0.14730 0.33522
 C149 C 1.13193 0.16376 0.35178
 C150 C 1.14825 0.16373 0.36809
 C151 C 1.16479 0.14725 0.36804
 C152 C 1.16482 0.13098 0.35166
 C153 C 1.14829 0.13100 0.33515
 C154 C 1.11863 0.14372 0.31689
 N155 N 1.12657 0.12570 0.30589
 C156 C 1.14467 0.11776 0.31677
 C157 C 1.18318 0.11770 0.35525
 N158 N 1.19408 0.12560 0.37335
 C159 C 1.18312 0.14362 0.38133
 C160 C 1.14460 0.18202 0.38144
 N161 N 1.12653 0.19296 0.37356
 C162 C 1.11861 0.18207 0.35547
 H163 H 1.10448 0.15366 0.31173
 H164 H 1.15462 0.10366 0.31151
 H165 H 1.18841 0.10361 0.34527
 H166 H 1.18830 0.15353 0.39549
 H167 H 1.15453 0.18722 0.39557
 H168 H 1.10448 0.18730 0.34556
 C169 C 0.63132 1.35234 0.66497
 C170 C 0.63130 1.33587 0.64842
 C171 C 0.64761 1.33588 0.63209
 C172 C 0.66413 1.35235 0.63212
 C173 C 0.66416 1.36863 0.64847
 C174 C 0.64766 1.36863 0.66500
 C175 C 0.61803 1.35595 0.68332
 N176 N 0.62598 1.37398 0.69428
 C177 C 0.64405 1.38190 0.68337
 C178 C 0.68250 1.38189 0.64485
 N179 N 0.69341 1.37398 0.62676
 C180 C 0.68245 1.35596 0.61881
 C181 C 0.64397 1.31759 0.61875
 N182 N 0.62591 1.30667 0.62666
 C183 C 0.61800 1.31757 0.64475
 H184 H 0.60390 1.34603 0.68851
 H185 H 0.65400 1.39599 0.68860
 H186 H 0.68774 1.39597 0.65480
 H187 H 0.68764 1.34606 0.60466
 H188 H 0.65388 1.31238 0.60462
 H189 H 0.60389 1.31235 0.65467
 C190 C 0.63086 0.85274 1.16434
 C191 C 0.63091 0.83621 1.14785
 C192 C 0.64725 0.83619 1.13155
 C193 C 0.66373 0.85270 1.13154
 C194 C 0.66369 0.86904 1.14784
 C195 C 0.64716 0.86907 1.16433
 C196 C 0.61756 0.85637 1.18268
 N197 N 0.62546 0.87445 1.19359
 C198 C 0.64351 0.88238 1.18266
 C199 C 0.68201 0.88231 1.14422
 N200 N 0.69299 0.87436 1.12619
 C201 C 0.68209 0.85630 1.11828
 C202 C 0.64368 0.81782 1.11830
 N203 N 0.62564 0.80688 1.12623
 C204 C 0.61767 0.81785 1.14425
 H205 H 0.60346 0.84642 1.18790
 H206 H 0.65344 0.89649 1.18787
 H207 H 0.68721 0.89644 1.15414
 H208 H 0.68735 0.84634 1.10419
 H209 H 0.65364 0.81257 1.10421
 H210 H 0.60356 0.81264 1.15418
 C211 C 1.13132 1.35338 1.16294
 C212 C 1.13133 1.33688 1.14643
 C213 C 1.14769 1.33682 1.13015
 C214 C 1.16423 1.35328 1.13020
 C215 C 1.16421 1.36960 1.14653
 C216 C 1.14765 1.36965 1.16300
 C217 C 1.11803 1.35698 1.18129
 N218 N 1.12597 1.37497 1.19229
 C219 C 1.14404 1.38288 1.18138
 C220 C 1.18260 1.38282 1.14300
 N221 N 1.19358 1.37484 1.12498
 C222 C 1.18264 1.35682 1.11699
 C223 C 1.14410 1.31845 1.11690
 N224 N 1.12602 1.30756 1.12482
 C225 C 1.11806 1.31855 1.14283
 H226 H 1.10392 1.34705 1.18649
 H227 H 1.15400 1.39693 1.18668
 H228 H 1.18781 1.39689 1.15299
 H229 H 1.18790 1.34685 1.10290
 H230 H 1.15408 1.31316 1.10284
 H231 H 1.10395 1.31336 1.15276
 C232 C 1.13012 0.85349 0.66280
 C233 C 1.13015 0.83697 0.64630
 C234 C 1.14646 0.83696 0.62998
 C235 C 1.16294 0.85347 0.62995
 C236 C 1.16291 0.86981 0.64626
 C237 C 1.14641 0.86982 0.66278
 C238 C 1.11690 0.85707 0.68120
 N239 N 1.12483 0.87510 0.69215
 C240 C 1.14283 0.88306 0.68116
 C241 C 1.18127 0.88304 0.64268
 N242 N 1.19225 0.87507 0.62466
 C243 C 1.18132 0.85703 0.61672
 C244 C 1.14293 0.81855 0.61677
 N245 N 1.12493 0.80758 0.62475
 C246 C 1.11696 0.81857 0.64277
 H247 H 1.10285 0.84709 0.68648
 H248 H 1.15278 0.89713 0.68641
 H249 H 1.18651 0.89712 0.65264
 H250 H 1.18660 0.84705 0.60266
 H251 H 1.15290 0.81328 0.60270
 H252 H 1.10290 0.81331 0.65275
 C253 C 0.36822 0.64728 0.66365
 C254 C 0.36819 0.66378 0.64713
 C255 C 0.35186 0.66380 0.63083
 C256 C 0.33536 0.64730 0.63085
 C257 C 0.33539 0.63098 0.64718
 C258 C 0.35192 0.63098 0.66368
 C259 C 0.38153 0.64367 0.68198
 N260 N 0.37363 0.62563 0.69295
 C261 C 0.35557 0.61771 0.68203
 C262 C 0.31705 0.61771 0.64359
 N263 N 0.30610 0.62564 0.62554
 C264 C 0.31700 0.64370 0.61758
 C265 C 0.35546 0.68214 0.61754
 N266 N 0.37352 0.69306 0.62546
 C267 C 0.38146 0.68211 0.64350
 H268 H 0.39563 0.65360 0.68719
 H269 H 0.34565 0.60362 0.68729
 H270 H 0.31187 0.60360 0.65356
 H271 H 0.31176 0.65364 0.60346
 H272 H 0.34551 0.68738 0.60344
 H273 H 0.39558 0.68732 0.65343
 C274 C 0.36877 0.14652 1.16269
 C275 C 0.36874 0.16305 1.14621
 C276 C 0.35238 0.16314 1.12994
 C277 C 0.33584 0.14668 1.12996
 C278 C 0.33586 0.13033 1.14626
 C279 C 0.35242 0.13026 1.16273
 C280 C 0.38206 0.14290 1.18103
 N281 N 0.37412 0.12489 1.19201
 C282 C 0.35604 0.11699 1.18109
 C283 C 0.31746 0.11714 1.14272
 N284 N 0.30647 0.12515 1.12472
 C285 C 0.31741 0.14317 1.11675
 C286 C 0.35596 0.18154 1.11673
 N287 N 0.37404 0.19241 1.12466
 C288 C 0.38201 0.18138 1.14264
 H289 H 0.39616 0.15282 1.18625
 H290 H 0.34607 0.10295 1.18638
 H291 H 0.31224 0.10305 1.15269
 H292 H 0.31215 0.15318 1.10269
 H293 H 0.34597 0.18686 1.10268
 H294 H 0.39613 0.18656 1.15258
 C295 C 0.86984 0.64656 1.16282
 C296 C 0.86976 0.66312 1.14637
 C297 C 0.85340 0.66318 1.13009
 C298 C 0.83691 0.64666 1.13008
 C299 C 0.83700 0.63029 1.14635
 C300 C 0.85355 0.63024 1.16281
 C301 C 0.88312 0.64293 1.18117
 N302 N 0.87522 0.62488 1.19211
 C303 C 0.85718 0.61695 1.18116
 C304 C 0.81863 0.61707 1.14280
 N305 N 0.80758 0.62507 1.12484
 C306 C 0.81849 0.64313 1.11690
 C307 C 0.85691 0.68161 1.11692
 N308 N 0.87494 0.69254 1.12486
 C309 C 0.88296 0.68151 1.14283
 H310 H 0.89718 0.65289 1.18644
 H311 H 0.84724 0.60287 1.18640
 H312 H 0.81343 0.60296 1.15274
 H313 H 0.81316 0.65313 1.10287
 H314 H 0.84690 0.68692 1.10288
 H315 H 0.89706 0.68673 1.15278
 C316 C 0.86875 0.14734 0.66461
 C317 C 0.86877 0.16384 0.64808
 C318 C 0.85246 0.16387 0.63175
 C319 C 0.83593 0.14740 0.63176
 C320 C 0.83591 0.13109 0.64809
 C321 C 0.85241 0.13106 0.66461
 C322 C 0.88203 0.14371 0.68296
 N323 N 0.87408 0.12568 0.69390
 C324 C 0.85601 0.11777 0.68297
 C325 C 0.81756 0.11785 0.64446
 N326 N 0.80664 0.12579 0.62638
 C327 C 0.81760 0.14381 0.61846
 C328 C 0.85610 0.18219 0.61846
 N329 N 0.87416 0.19309 0.62639
 C330 C 0.88207 0.18214 0.64446
 H331 H 0.89616 0.15363 0.68817
 H332 H 0.84605 0.10369 0.68819
 H333 H 0.81231 0.10376 0.65439
 H334 H 0.81240 0.15375 0.60433
 H335 H 0.84618 0.18743 0.60434
 H336 H 0.89618 0.18734 0.65439
 C337 C 1.35344 0.36850 0.66342
 C338 C 1.33696 0.36854 0.64689
 C339 C 1.33693 0.35221 0.63058
 C340 C 1.35338 0.33565 0.63062
 C341 C 1.36968 0.33560 0.64698
 C342 C 1.36971 0.35213 0.66348
 C343 C 1.35703 0.38177 0.68178
 N344 N 1.37502 0.37379 0.69278
 C345 C 1.38294 0.35571 0.68187
 C346 C 1.38290 0.31719 0.64341
 N347 N 1.37493 0.30627 0.62535
 C348 C 1.35693 0.31727 0.61737
 C349 C 1.31858 0.35585 0.61731
 N350 N 1.30768 0.37393 0.62523
 C351 C 1.31864 0.38185 0.64327
 H352 H 1.34711 0.39590 0.68698
 H353 H 1.39699 0.34573 0.68716
 H354 H 1.39697 0.31192 0.65340
 H355 H 1.34697 0.31207 0.60326
 H356 H 1.31331 0.34590 0.60322
 H357 H 1.31342 0.39596 0.65321
 C358 C 1.35250 0.86787 1.16470
 C359 C 1.33601 0.86787 1.14817
 C360 C 1.33597 0.85151 1.13190
 C361 C 1.35243 0.83494 1.13197
 C362 C 1.36874 0.83493 1.14831
 C363 C 1.36877 0.85150 1.16478
 C364 C 1.35614 0.88123 1.18299
 N365 N 1.37417 0.87329 1.19397
 C366 C 1.38207 0.85516 1.18312
 C367 C 1.38201 0.81656 1.14473
 N368 N 1.37407 0.80563 1.12667
 C369 C 1.35603 0.81658 1.11870
 C370 C 1.31766 0.85517 1.11858
 N371 N 1.30678 0.87329 1.12644
 C372 C 1.31773 0.88122 1.14449
 H373 H 1.34623 0.89540 1.18812
 H374 H 1.39616 0.84520 1.18838
 H375 H 1.39612 0.81135 1.15469
 H376 H 1.34609 0.81138 1.10457
 H377 H 1.31242 0.84522 1.10448
 H378 H 1.31255 0.89538 1.15437
 C379 C 0.85242 0.36773 1.16509
 C380 C 0.83590 0.36775 1.14859
 C381 C 0.83588 0.35144 1.13226
 C382 C 0.85238 0.33492 1.13224
 C383 C 0.86872 0.33489 1.14855
 C384 C 0.86873 0.35139 1.16508
 C385 C 0.85607 0.38104 1.18342
 N386 N 0.87415 0.37310 1.19433
 C387 C 0.88206 0.35502 1.18340
 C388 C 0.88202 0.31656 1.14489
 N389 N 0.87407 0.30568 1.12680
 C390 C 0.85600 0.31662 1.11890
 C391 C 0.81756 0.35511 1.11896
 N392 N 0.80664 0.37318 1.12689
 C393 C 0.81759 0.38107 1.14496
 H394 H 0.84615 0.39517 1.18862
 H395 H 0.89619 0.34508 1.18859
 H396 H 0.89615 0.31134 1.15480
 H397 H 0.84605 0.31145 1.10476
 H398 H 0.81233 0.34521 1.10483
 H399 H 0.81238 0.39519 1.15489
 C400 C 0.85309 0.86942 0.66325
 C401 C 0.83658 0.86941 0.64673
 C402 C 0.83659 0.85308 0.63042
 C403 C 0.85311 0.83657 0.63044
 C404 C 0.86942 0.83659 0.64677
 C405 C 0.86941 0.85311 0.66327
 C406 C 0.85666 0.88268 0.68162
 N407 N 0.87469 0.87475 0.69259
 C408 C 0.88265 0.85671 0.68165
 C409 C 0.88267 0.81821 0.64320
 N410 N 0.87473 0.80724 0.62517
 C411 C 0.85670 0.81819 0.61721
 C412 C 0.81822 0.85665 0.61717
 N413 N 0.80725 0.87468 0.62511
 C414 C 0.81820 0.88264 0.64314
 H415 H 0.84670 0.89677 0.68686
 H416 H 0.89674 0.84675 0.68691
 H417 H 0.89676 0.81297 0.65317
 H418 H 0.84674 0.81293 0.60313
 H419 H 0.81297 0.84668 0.60309
 H420 H 0.81294 0.89673 0.65309
 C421 C 0.64684 0.63043 0.66334
 C422 C 0.66335 0.63043 0.64683
 C423 C 0.66334 0.64674 0.63051
 C424 C 0.64683 0.66325 0.63050
 C425 C 0.63051 0.66325 0.64682
 C426 C 0.63051 0.64674 0.66334
 C427 C 0.64326 0.61719 0.68173
 N428 N 0.62522 0.62514 0.69268
 C429 C 0.61727 0.64316 0.68171
 C430 C 0.61726 0.68162 0.64323
 N431 N 0.62520 0.69257 0.62519
 C432 C 0.64324 0.68161 0.61725
 C433 C 0.68172 0.64316 0.61727
 N434 N 0.69269 0.62513 0.62522
 C435 C 0.68173 0.61719 0.64326
 H436 H 0.65322 0.60311 0.68698
 H437 H 0.60318 0.65312 0.68696
 H438 H 0.60317 0.68687 0.65318
 H439 H 0.65320 0.68686 0.60316
 H440 H 0.68697 0.65312 0.60318
 H441 H 0.68699 0.60311 0.65323
 C442 C 0.64747 1.13208 1.16484
 C443 C 0.66399 1.13210 1.14834
 C444 C 0.66400 1.14843 1.13203
 C445 C 0.64749 1.16495 1.13204
 C446 C 0.63116 1.16494 1.14836
 C447 C 0.63115 1.14841 1.16486
 C448 C 0.64384 1.11875 1.18315
 N449 N 0.62576 1.12666 1.19408
 C450 C 0.61784 1.14476 1.18318
 C451 C 0.61786 1.18328 1.14473
 N452 N 0.62580 1.19420 1.12667
 C453 C 0.64387 1.18328 1.11874
 C454 C 0.68233 1.14480 1.11874
 N455 N 0.69325 1.12672 1.12664
 C456 C 0.68231 1.11879 1.14469
 H457 H 0.65377 1.10461 1.18833
 H458 H 0.60371 1.15469 1.18839
 H459 H 0.60373 1.18848 1.15467
 H460 H 0.65382 1.18848 1.10462
 H461 H 0.68755 1.15473 1.10462
 H462 H 0.68752 1.10466 1.15460
 C463 C 0.14777 0.63256 1.16522
 C464 C 0.16425 0.63255 1.14869
 C465 C 0.16428 0.64890 1.13241
 C466 C 0.14782 0.66547 1.13247
 C467 C 0.13152 0.66549 1.14882
 C468 C 0.13150 0.64894 1.16530
 C469 C 0.14412 0.61919 1.18350
 N470 N 0.12609 0.62712 1.19448
 C471 C 0.11820 0.64527 1.18364
 C472 C 0.11825 0.68386 1.14522
 N473 N 0.12618 0.69477 1.12713
 C474 C 0.14421 0.68381 1.11918
 C475 C 0.18256 0.64521 1.11906
 N476 N 0.19344 0.62709 1.12691
 C477 C 0.18251 0.61918 1.14498
 H478 H 0.15402 0.60500 1.18862
 H479 H 0.10410 0.65521 1.18889
 H480 H 0.10413 0.68907 1.15516
 H481 H 0.15413 0.68897 1.10502
 H482 H 0.18779 0.65514 1.10494
 H483 H 0.18769 0.60501 1.15486
 C484 C 0.14767 1.13229 0.66519
 C485 C 0.16414 1.13225 0.64863
 C486 C 0.16414 1.14856 0.63231
 C487 C 0.14767 1.16511 0.63235
 C488 C 0.13139 1.16517 0.64872
 C489 C 0.13139 1.14865 0.66523
 C490 C 0.14404 1.11896 0.68351
 N491 N 0.12601 1.12692 0.69447
 C492 C 0.11810 1.14503 0.68359
 C493 C 0.11811 1.18352 0.64509
 N494 N 0.12602 1.19440 0.62698
 C495 C 0.14405 1.18343 0.61902
 C496 C 0.18241 1.14487 0.61896
 N497 N 0.19332 1.12678 0.62684
 C498 C 0.18242 1.11889 0.64494
 H499 H 0.15395 1.10480 0.68866
 H500 H 0.10400 1.15498 0.68882
 H501 H 0.10400 1.18876 0.65504
 H502 H 0.15396 1.18857 0.60486
 H503 H 0.18761 1.15477 0.60481
 H504 H 0.18763 1.10475 0.65484
 C505 C 1.35247 0.63220 0.33526
 C506 C 1.33598 0.63221 0.35178
 C507 C 1.33592 0.64858 0.36805
 C508 C 1.35236 0.66513 0.36799
 C509 C 1.36867 0.66513 0.35164
 C510 C 1.36872 0.64857 0.33518
 C511 C 1.35614 0.61883 0.31698
 N512 N 1.37416 0.62676 0.30601
 C513 C 1.38203 0.64489 0.31685
 C514 C 1.38191 0.68349 0.35523
 N515 N 1.37396 0.69444 0.37329
 C516 C 1.35593 0.68349 0.38125
 C517 C 1.31762 0.64491 0.38138
 N518 N 1.30677 0.62679 0.37352
 C519 C 1.31772 0.61886 0.35547
 H520 H 1.34625 0.60466 0.31185
 H521 H 1.39611 0.65484 0.31159
 H522 H 1.39602 0.68869 0.34528
 H523 H 1.34600 0.68869 0.39539
 H524 H 1.31236 0.65486 0.39548
 H525 H 1.31257 0.60469 0.34559
 C526 C 1.35284 1.13187 0.83646
 C527 C 1.33634 1.13187 0.85298
 C528 C 1.33629 1.14821 0.86927
 C529 C 1.35276 1.16475 0.86924
 C530 C 1.36908 1.16474 0.85290
 C531 C 1.36911 1.14820 0.83641
 C532 C 1.35646 1.11856 0.81813
 N533 N 1.37447 1.12648 0.80714
 C534 C 1.38237 1.14456 0.81804
 C535 C 1.38232 1.18311 0.85648
 N536 N 1.37436 1.19405 0.87453
 C537 C 1.35633 1.18311 0.88250
 C538 C 1.31795 1.14459 0.88255
 N539 N 1.30706 1.12651 0.87463
 C540 C 1.31804 1.11858 0.85660
 H541 H 1.34654 1.10444 0.81294
 H542 H 1.39644 1.15451 0.81277
 H543 H 1.39641 1.18832 0.84651
 H544 H 1.34638 1.18833 0.89661
 H545 H 1.31268 1.15454 0.89664
 H546 H 1.31285 1.10445 0.84667
 C547 C 0.85307 0.63061 0.83689
 C548 C 0.83654 0.63063 0.85338
 C549 C 0.83650 0.64697 0.86968
 C550 C 0.85299 0.66348 0.86968
 C551 C 0.86932 0.66345 0.85338
 C552 C 0.86937 0.64693 0.83689
 C553 C 0.85670 0.61735 0.81853
 N554 N 0.87473 0.62528 0.80758
 C555 C 0.88264 0.64333 0.81853
 C556 C 0.88255 0.68182 0.85696
 N557 N 0.87457 0.69281 0.87497
 C558 C 0.85654 0.68187 0.88291
 C559 C 0.81812 0.64339 0.88291
 N560 N 0.80720 0.62535 0.87497
 C561 C 0.81819 0.61739 0.85696
 H562 H 0.84676 0.60326 0.81328
 H563 H 0.89672 0.65328 0.81328
 H564 H 0.89664 0.68705 0.84701
 H565 H 0.84656 0.68713 0.89699
 H566 H 0.81284 0.65336 0.89699
 H567 H 0.81298 0.60329 0.84701
 C568 C 0.85376 1.12984 0.33765
 C569 C 0.83720 1.12989 0.35411
 C570 C 0.83716 1.14621 0.37042
 C571 C 0.85369 1.16268 0.37047
 C572 C 0.87006 1.16262 0.35420
 C573 C 0.87009 1.14611 0.33770
 C574 C 0.85734 1.11663 0.31924
 N575 N 0.87539 1.12455 0.30832
 C576 C 0.88335 1.14254 0.31932
 C577 C 0.88328 1.18099 0.35777
 N578 N 0.87528 1.19200 0.37575
 C579 C 0.85723 1.18108 0.38368
 C580 C 0.81871 1.14270 0.38358
 N581 N 0.80774 1.12471 0.37557
 C582 C 0.81877 1.11672 0.35760
 H583 H 0.84735 1.10260 0.31393
 H584 H 0.89742 1.15249 0.31409
 H585 H 0.89738 1.18621 0.34782
 H586 H 0.84721 1.18640 0.39771
 H587 H 0.81340 1.15269 0.39762
 H588 H 0.81353 1.10267 0.34760
 C589 C 0.64720 0.36920 0.33588
 C590 C 0.66372 0.36916 0.35238
 C591 C 0.66371 0.35285 0.36870
 C592 C 0.64718 0.33639 0.36873
 C593 C 0.63085 0.33643 0.35242
 C594 C 0.63085 0.35293 0.33590
 C595 C 0.64360 0.38247 0.31751
 N596 N 0.62552 0.37457 0.30660
 C597 C 0.61756 0.35655 0.31755
 C598 C 0.61756 0.31811 0.35604
 N599 N 0.62550 0.30714 0.37408
 C600 C 0.64357 0.31804 0.38200
 C601 C 0.68208 0.35640 0.38196
 N602 N 0.69305 0.37440 0.37401
 C603 C 0.68211 0.38237 0.35597
 H604 H 0.65357 0.39654 0.31226
 H605 H 0.60344 0.34662 0.31235
 H606 H 0.60345 0.31291 0.34611
 H607 H 0.65352 0.31278 0.39609
 H608 H 0.68731 0.34644 0.39606
 H609 H 0.68736 0.39645 0.34602
 C610 C 0.64674 0.86942 0.83681
 C611 C 0.66326 0.86942 0.85332
 C612 C 0.66330 0.85311 0.86964
 C613 C 0.64681 0.83660 0.86966
 C614 C 0.63048 0.83659 0.85334
 C615 C 0.63045 0.85310 0.83683
 C616 C 0.64312 0.88265 0.81843
 N617 N 0.62510 0.87470 0.80748
 C618 C 0.61719 0.85667 0.81845
 C619 C 0.61727 0.81822 0.85694
 N620 N 0.62524 0.80727 0.87497
 C621 C 0.64326 0.81823 0.88291
 C622 C 0.68167 0.85671 0.88288
 N623 N 0.69259 0.87474 0.87491
 C624 C 0.68161 0.88267 0.85688
 H625 H 0.65306 0.89673 0.81316
 H626 H 0.60312 0.84670 0.81321
 H627 H 0.60319 0.81297 0.84699
 H628 H 0.65323 0.81298 0.89700
 H629 H 0.68695 0.84676 0.89697
 H630 H 0.68682 0.89676 0.84691
 C631 C 0.14700 0.36942 0.83590
 C632 C 0.16347 0.36941 0.85246
 C633 C 0.16344 0.35311 0.86879
 C634 C 0.14694 0.33661 0.86877
 C635 C 0.13066 0.33661 0.85241
 C636 C 0.13068 0.35311 0.83588
 C637 C 0.14344 0.38267 0.81752
 N638 N 0.12542 0.37473 0.80654
 C639 C 0.11746 0.35670 0.81748
 C640 C 0.11740 0.31826 0.85599
 N641 N 0.12531 0.30732 0.87407
 C642 C 0.14332 0.31827 0.88204
 C643 C 0.18176 0.35669 0.88210
 N644 N 0.19273 0.37471 0.87417
 C645 C 0.18182 0.38265 0.85609
 H646 H 0.15341 0.39676 0.81231
 H647 H 0.10337 0.34675 0.81222
 H648 H 0.10333 0.31302 0.84602
 H649 H 0.15325 0.31304 0.89616
 H650 H 0.18697 0.34675 0.89621
 H651 H 0.18708 0.39673 0.84615
 C652 C 0.14683 0.86924 0.33575
 C653 C 0.16333 0.86924 0.35227
 C654 C 0.16336 0.85290 0.36857
 C655 C 0.14690 0.83637 0.36854
 C656 C 0.13059 0.83637 0.35221
 C657 C 0.13055 0.85290 0.33571
 C658 C 0.14322 0.88253 0.31740
 N659 N 0.12520 0.87458 0.30643
 C660 C 0.11729 0.85650 0.31734
 C661 C 0.11738 0.81798 0.35579
 N662 N 0.12534 0.80703 0.37383
 C663 C 0.14334 0.81800 0.38179
 C664 C 0.18170 0.85650 0.38185
 N665 N 0.19261 0.87456 0.37394
 C666 C 0.18165 0.88251 0.35590
 H667 H 0.15315 0.89665 0.31221
 H668 H 0.10322 0.84653 0.31208
 H669 H 0.10330 0.81273 0.34583
 H670 H 0.15330 0.81277 0.39589
 H671 H 0.18696 0.84654 0.39594
 H672 H 0.18686 0.89662 0.34597
 O673 O 1.08054 1.02190 1.11103
 O674 O 1.10643 1.02194 1.13708
 C675 C 1.08832 1.02952 1.12917
 C676 C 1.07641 1.04769 1.14084
 C677 C 1.08361 1.05515 1.16183
 H678 H 1.09763 1.04721 1.16997
 O679 O 0.91960 0.97849 1.11103
 O680 O 0.89376 0.97850 1.13713
 C681 C 0.91185 0.97091 1.12920
 C682 C 0.92378 0.95275 1.14089
 C683 C 0.91660 0.94530 1.16188
 H684 H 0.90257 0.95322 1.17002
 O685 O 1.02171 1.11114 1.08047
 O686 O 1.02172 1.13718 1.10636
 C687 C 1.02928 1.12928 1.08823
 C688 C 1.04738 1.14098 1.07626
 C689 C 1.05474 1.16202 1.08334
 H690 H 1.04677 1.17021 1.09732
 O691 O 0.97847 0.88932 1.08056
 O692 O 0.97844 0.86328 1.10646
 C693 C 0.97089 0.87118 1.08833
 C694 C 0.95276 0.85950 1.07637
 C695 C 0.94545 0.83844 1.08343
 H696 H 0.95346 0.83023 1.09738
 O697 O 1.11087 1.08056 1.02174
 O698 O 1.13689 1.10643 1.02175
 C699 C 1.12901 1.08832 1.02933
 C700 C 1.14073 1.07639 1.04746
 C701 C 1.16177 1.08349 1.05481
 H702 H 1.16992 1.09747 1.04682
 O703 O 0.88910 0.91985 1.02190
 O704 O 0.86308 0.89398 1.02194
 C705 C 0.87097 0.91209 1.02950
 C706 C 0.85926 0.92402 1.04765
 C707 C 0.83827 0.91689 1.05507
 H708 H 0.83012 0.90288 1.04713
 O709 O 0.97841 1.08058 1.11100
 O710 O 0.97837 1.10643 1.13709
 C711 C 0.97084 1.08832 1.12918
 C712 C 0.95277 1.07634 1.14091
 C713 C 0.94552 1.08333 1.16203
 H714 H 0.95354 1.09725 1.17025
 O715 O 1.02183 0.91982 1.11108
 O716 O 1.02185 0.89397 1.13717
 C717 C 1.02941 0.91207 1.12925
 C718 C 1.04754 0.92400 1.14095
 C719 C 1.05492 0.91688 1.16199
 H720 H 1.04697 0.90290 1.17016
 O721 O 1.11103 0.97844 1.08057
 O722 O 1.13708 0.97841 1.10647
 C723 C 1.12917 0.97084 1.08835
 C724 C 1.14087 0.95268 1.07643
 C725 C 1.16185 0.94522 1.08362
 H726 H 1.16999 0.95314 1.09765
 O727 O 0.88911 1.02197 1.08058
 O728 O 0.86312 1.02205 1.10652
 C729 C 0.87099 1.02960 1.08838
 C730 C 0.85929 1.04775 1.07646
 C731 C 0.83831 1.05521 1.08367
 H732 H 0.83019 1.04729 1.09771
 O733 O 0.91948 1.11115 1.02180
 O734 O 0.89360 1.13722 1.02185
 C735 C 0.91171 1.12929 1.02942
 C736 C 0.92364 1.14094 1.04760
 C737 C 0.91643 1.16190 1.05511
 H738 H 0.90239 1.17005 1.04720
 O739 O 1.08059 0.88921 1.02192
 O740 O 1.10649 0.86318 1.02192
 C741 C 1.08839 0.87108 1.02953
 C742 C 1.07651 0.85942 1.04773
 C743 C 1.08376 0.83848 1.05526
 H744 H 1.09781 0.83035 1.04737
 O745 O 0.91967 1.02190 1.11101
 O746 O 0.89385 1.02196 1.13713
 C747 C 0.91196 1.02948 1.12919
 C748 C 0.92396 1.04755 1.14091
 C749 C 0.91697 1.05480 1.16204
 H750 H 0.90305 1.04680 1.17025
 O751 O 1.08053 0.97849 1.11106
 O752 O 1.10640 0.97846 1.13713
 C753 C 1.08830 0.97091 1.12923
 C754 C 1.07636 0.95279 1.14094
 C755 C 1.08349 0.94540 1.16198
 H756 H 1.09748 0.95334 1.17014
 O757 O 1.02189 0.88927 1.08064
 O758 O 1.02192 0.86326 1.10657
 C759 C 1.02950 0.87115 1.08845
 C760 C 1.04769 0.85946 1.07656
 C761 C 1.05519 0.83852 1.08383
 H762 H 1.04729 0.83042 1.09788
 O763 O 0.97829 1.11110 1.08053
 O764 O 0.97824 1.13712 1.10644
 C765 C 0.97066 1.12922 1.08833
 C766 C 0.95248 1.14090 1.07643
 C767 C 0.94501 1.16186 1.08366
 H768 H 0.95293 1.16998 1.09770
 O769 O 0.88902 1.08068 1.02180
 O770 O 0.86298 1.10657 1.02185
 C771 C 0.87089 1.08846 1.02942
 C772 C 0.85924 1.07655 1.04760
 C773 C 0.83826 1.08374 1.05507
 H774 H 0.83010 1.09775 1.04713
 O775 O 1.11102 0.91972 1.02186
 O776 O 1.13708 0.89385 1.02186
 C777 C 1.12917 0.91195 1.02944
 C778 C 1.14086 0.92387 1.04759
 C779 C 1.16184 0.91667 1.05503
 H780 H 1.16999 0.90265 1.04710
 O781 O 0.97841 0.91979 1.11107
 O782 O 0.97837 0.89392 1.13714
 C783 C 0.97080 0.91202 1.12922
 C784 C 0.95263 0.92394 1.14090
 C785 C 0.94518 0.91675 1.16189
 H786 H 0.95312 0.90274 1.17004
 O787 O 1.02182 1.08068 1.11100
 O788 O 1.02184 1.10655 1.13706
 C789 C 1.02943 1.08845 1.12915
 C790 C 1.04760 1.07654 1.14083
 C791 C 1.05507 1.08374 1.16182
 H792 H 1.04716 1.09777 1.16996
 O793 O 0.88908 0.97856 1.08057
 O794 O 0.86307 0.97857 1.10650
 C795 C 0.87095 0.97099 1.08837
 C796 C 0.85925 0.95286 1.07646
 C797 C 0.83825 0.94547 1.08362
 H798 H 0.83010 0.95343 1.09763
 O799 O 1.11099 1.02185 1.08051
 O800 O 1.13705 1.02188 1.10639
 C801 C 1.12913 1.02944 1.08826
 C802 C 1.14080 1.04757 1.07630
 C803 C 1.16183 1.05493 1.08339
 H804 H 1.17003 1.04696 1.09736
 O805 O 0.91966 0.88943 1.02189
 O806 O 0.89381 0.86338 1.02192
 C807 C 0.91192 0.87128 1.02947
 C808 C 0.92390 0.85956 1.04758
 C809 C 0.91685 0.83850 1.05489
 H810 H 0.90288 0.83033 1.04691
 O811 O 1.08038 1.11105 1.02172
 O812 O 1.10623 1.13709 1.02172
 C813 C 1.08813 1.12920 1.02929
 C814 C 1.07618 1.14092 1.04741
 C815 C 1.08327 1.16196 1.05474
 H816 H 1.09724 1.17011 1.04675
 Cu817 Cu 1.09318 1.00016 1.09320
 Cu818 Cu 1.12435 1.00017 1.12438
 Cu819 Cu 0.90695 1.00023 1.09320
 Cu820 Cu 0.87584 1.00028 1.12443
 Cu821 Cu 1.00006 1.09328 1.09315
 Cu822 Cu 1.00004 1.12443 1.12435
 Cu823 Cu 1.00015 0.90714 1.09324
 Cu824 Cu 1.00015 0.87600 1.12445
 C825 C 1.05826 1.05837 1.13059
 H826 H 1.05279 1.05291 1.11429
 C827 C 1.07295 1.07305 1.17229
 C828 C 0.94195 0.94209 1.13064
 H829 H 0.94740 0.94754 1.11433
 C830 C 0.92729 0.92743 1.17235
 C831 C 1.05808 1.13067 1.05815
 H832 H 1.05270 1.11432 1.05278
 C833 C 1.07256 1.17248 1.07257
 C834 C 0.94201 0.86982 1.05830
 H835 H 0.94736 0.88618 1.05294
 C836 C 0.92762 0.82797 1.07269
 C837 C 1.13049 1.05827 1.05819
 H838 H 1.11415 1.05288 1.05281
 C839 C 1.17229 1.07277 1.07264
 C840 C 0.86951 0.94216 1.05832
 H841 H 0.88583 0.94757 1.05289
 C842 C 0.82779 0.92761 1.07293
 C843 C 0.94201 1.05829 1.13058
 H844 H 0.94731 1.05299 1.11417
 C845 C 0.92775 1.07256 1.17257
 C846 C 1.05823 0.94211 1.13067
 H847 H 1.05282 0.94752 1.11432
 C848 C 1.07277 0.92757 1.17247
 C849 C 1.13062 0.94202 1.05827
 H850 H 1.11431 0.94748 1.05281
 C851 C 1.17231 0.92734 1.07292
 C852 C 0.86951 1.05841 1.05828
 H853 H 0.88581 1.05295 1.05281
 C854 C 0.82783 1.07307 1.07297
 C855 C 0.94181 1.13069 1.05825
 H856 H 0.94729 1.11440 1.05275
 C857 C 0.92711 1.17233 1.07301
 C858 C 1.05833 0.86966 1.05836
 H859 H 1.05282 0.88593 1.05285
 C860 C 1.07311 0.82806 1.07319
 O861 O 1.08039 0.97852 0.88911
 O862 O 1.10623 0.97845 0.86302
 C863 C 1.08813 0.97092 0.87094
 C864 C 1.07616 0.95281 0.85926
 C865 C 1.08319 0.94550 0.83816
 H866 H 1.09712 0.95348 0.82994
 O867 O 0.91949 1.02199 0.88912
 O868 O 0.89362 1.02197 0.86305
 C869 C 0.91172 1.02954 0.87095
 C870 C 0.92365 1.04765 0.85922
 C871 C 0.91648 1.05506 0.83820
 H872 H 0.90246 1.04712 0.83006
 O873 O 0.97817 1.11106 0.91952
 O874 O 0.97812 1.13710 0.89362
 C875 C 0.97056 1.12920 0.91175
 C876 C 0.95240 1.14089 0.92368
 C877 C 0.94492 1.16185 0.91645
 H878 H 0.95282 1.16997 0.90240
 O879 O 1.02178 0.88928 0.91972
 O880 O 1.02180 0.86325 0.89381
 C881 C 1.02937 0.87114 0.91194
 C882 C 1.04752 0.85943 0.92387
 C883 C 1.05492 0.83842 0.91673
 H884 H 1.04698 0.83027 0.90272
 O885 O 1.11095 0.91971 0.97840
 O886 O 1.13701 0.89384 0.97834
 C887 C 1.12908 0.91194 0.97077
 C888 C 1.14074 0.92386 0.95259
 C889 C 1.16172 0.91668 0.94514
 H890 H 1.16989 0.90268 0.95308
 O891 O 0.88894 1.08075 0.97833
 O892 O 0.86291 1.10665 0.97832
 C893 C 0.87080 1.08855 0.97073
 C894 C 0.85913 1.07666 0.95253
 C895 C 0.83820 1.08391 0.94499
 H896 H 0.83007 1.09796 0.95288
 O897 O 1.02164 1.08059 0.88903
 O898 O 1.02165 1.10648 0.86298
 C899 C 1.02924 1.08838 0.87089
 C900 C 1.04744 1.07649 0.85921
 C901 C 1.05493 1.08373 0.83826
 H902 H 1.04701 1.09776 0.83012
 O903 O 0.97832 0.91980 0.88928
 O904 O 0.97829 0.89394 0.86320
 C905 C 0.97072 0.91205 0.87112
 C906 C 0.95259 0.92400 0.85942
 C907 C 0.94524 0.91690 0.83836
 H908 H 0.95323 0.90293 0.83018
 O909 O 1.11094 1.02187 0.91957
 O910 O 1.13698 1.02185 0.89367
 C911 C 1.12908 1.02943 0.91179
 C912 C 1.14078 1.04756 0.92373
 C913 C 1.16179 1.05495 0.91660
 H914 H 1.16996 1.04699 0.90260
 O915 O 0.88904 0.97864 0.91970
 O916 O 0.86300 0.97857 0.89380
 C917 C 0.87090 0.97103 0.91194
 C918 C 0.85923 0.95291 0.92391
 C919 C 0.83819 0.94556 0.91682
 H920 H 0.83000 0.95353 0.90284
 O921 O 1.08036 1.11101 0.97827
 O922 O 1.10621 1.13706 0.97823
 C923 C 1.08811 1.12915 0.97067
 C924 C 1.07614 1.14085 0.95253
 C925 C 1.08324 1.16187 0.94514
 H926 H 1.09723 1.17003 0.95309
 O927 O 0.91960 0.88939 0.97845
 O928 O 0.89375 0.86335 0.97842
 C929 C 0.91185 0.87125 0.97086
 C930 C 0.92381 0.85954 0.95273
 C931 C 0.91672 0.83850 0.94539
 H932 H 0.90275 0.83034 0.95336
 O933 O 0.91955 0.97858 0.88923
 O934 O 0.89368 0.97850 0.86316
 C935 C 0.91180 0.97096 0.87108
 C936 C 0.92376 0.95282 0.85940
 C937 C 0.91668 0.94546 0.83834
 H938 H 0.90270 0.95344 0.83015
 O939 O 1.08045 1.02194 0.88907
 O940 O 1.10632 1.02193 0.86300
 C941 C 1.08822 1.02952 0.87092
 C942 C 1.07631 1.04770 0.85923
 C943 C 1.08354 1.05521 0.83827
 H944 H 1.09760 1.04732 0.83014
 O945 O 0.97836 0.88930 0.91975
 O946 O 0.97833 0.86327 0.89385
 C947 C 0.97077 0.87117 0.91198
 C948 C 0.95265 0.85949 0.92392
 C949 C 0.94530 0.83845 0.91683
 H950 H 0.95328 0.83026 0.90286
 O951 O 1.02159 1.11105 0.91955
 O952 O 1.02159 1.13710 0.89366
 C953 C 1.02916 1.12919 0.91178
 C954 C 1.04729 1.14087 0.92373
 C955 C 1.05465 1.16189 0.91660
 H956 H 1.04667 1.17007 0.90262
 O957 O 0.88913 0.91991 0.97846
 O958 O 0.86311 0.89404 0.97843
 C959 C 0.87099 0.91215 0.97087
 C960 C 0.85927 0.92410 0.95274
 C961 C 0.83824 0.91700 0.94539
 H962 H 0.83008 0.90303 0.95338
 O963 O 1.11088 1.08055 0.97829
 O964 O 1.13690 1.10643 0.97825
 C965 C 1.12902 1.08831 0.97069
 C966 C 1.14073 1.07637 0.95256
 C967 C 1.16174 1.08350 0.94518
 H968 H 1.16988 1.09749 0.95314
 O969 O 1.02173 0.91979 0.88923
 O970 O 1.02175 0.89393 0.86315
 C971 C 1.02930 0.91204 0.87106
 C972 C 1.04738 0.92399 0.85932
 C973 C 1.05466 0.91694 0.83822
 H974 H 1.04668 0.90298 0.83005
 O975 O 0.97821 1.08059 0.88901
 O976 O 0.97817 1.10646 0.86294
 C977 C 0.97061 1.08836 0.87085
 C978 C 0.95247 1.07644 0.85917
 C979 C 0.94504 1.08358 0.83815
 H980 H 0.95297 1.09757 0.82997
 O981 O 0.88901 1.02205 0.91963
 O982 O 0.86299 1.02204 0.89372
 C983 C 0.87088 1.02964 0.91183
 C984 C 0.85918 1.04783 0.92371
 C985 C 0.83825 1.05533 0.91643
 H986 H 0.83015 1.04743 0.90237
 O987 O 1.11089 0.97846 0.91959
 O988 O 1.13691 0.97838 0.89367
 C989 C 1.12902 0.97082 0.91180
 C990 C 1.14070 0.95266 0.92373
 C991 C 1.16169 0.94522 0.91655
 H992 H 1.16983 0.95315 0.90253
 O993 O 1.08049 0.88924 0.97847
 O994 O 1.10639 0.86319 0.97841
 C995 C 1.08826 0.87110 0.97086
 C996 C 1.07633 0.85941 0.95271
 C997 C 1.08347 0.83840 0.94531
 H998 H 1.09747 0.83024 0.95327
 O999 O 0.91948 1.11113 0.97834
 O1000 O 0.89362 1.13720 0.97833
 C1001 C 0.91171 1.12928 0.97074
 C1002 C 0.92361 1.14094 0.95255
 C1003 C 0.91640 1.16190 0.94506
 H1004 H 0.90237 1.17005 0.95299
 Cu1005 Cu 1.09308 1.00020 0.90693
 Cu1006 Cu 1.12422 1.00014 0.87573
 Cu1007 Cu 0.90686 1.00032 0.90702
 Cu1008 Cu 0.87571 1.00026 0.87582
 Cu1009 Cu 1.09303 1.09320 1.00001
 Cu1010 Cu 1.12417 1.12436 0.99999
 Cu1011 Cu 1.09317 0.90706 1.00017
 Cu1012 Cu 1.12436 0.87590 1.00012
 Cu1013 Cu 0.90682 1.09333 1.00006
 Cu1014 Cu 0.87567 1.12452 1.00009
 Cu1015 Cu 0.90696 0.90724 1.00017
 Cu1016 Cu 0.87583 0.87608 1.00018
 Cu1017 Cu 0.99990 1.09323 0.90687
 Cu1018 Cu 0.99988 1.12439 0.87569
 Cu1019 Cu 1.00005 0.90713 0.90709
 Cu1020 Cu 1.00004 0.87599 0.87589
 C1021 C 1.05810 0.94209 0.86959
 H1022 H 1.05277 0.94744 0.88598
 C1023 C 1.07244 0.92769 0.82768
 C1024 C 0.94179 1.05832 0.86945
 H1025 H 0.94723 1.05290 0.88578
 C1026 C 0.92716 1.07289 0.82769
 C1027 C 0.94177 1.13068 0.94187
 H1028 H 0.94725 1.11439 0.94736
 C1029 C 0.92704 1.17232 0.92714
 C1030 C 1.05820 0.86969 0.94202
 H1031 H 1.05278 0.88601 0.94744
 C1032 C 1.07277 0.82794 0.92745
 C1033 C 1.13047 0.94200 0.94190
 H1034 H 1.11416 0.94745 0.94736
 C1035 C 1.17217 0.92736 0.92725
 C1036 C 0.86938 1.05847 0.94191
 H1037 H 0.88564 1.05296 0.94743
 C1038 C 0.82779 1.07325 0.92706
 C1039 C 1.05811 1.05832 0.86945
 H1040 H 1.05262 1.05283 0.88574
 C1041 C 1.07286 1.07310 0.82781
 C1042 C 0.94187 0.94211 0.86970
 H1043 H 0.94724 0.94750 0.88606
 C1044 C 0.92742 0.92763 0.82785
 C1045 C 1.13049 1.05825 0.94186
 H1046 H 1.11417 1.05284 0.94727
 C1047 C 1.17224 1.07279 0.92733
 C1048 C 0.86953 0.94220 0.94202
 H1049 H 0.88587 0.94759 0.94740
 C1050 C 0.82772 0.92773 0.92756
 C1051 C 1.05802 1.13059 0.94184
 H1052 H 1.05263 1.11426 0.94725
 C1053 C 1.07249 1.17237 0.92731
 C1054 C 0.94192 0.86979 0.94203
 H1055 H 0.94730 0.88614 0.94741
 C1056 C 0.92747 0.82798 0.92757
 O1057 O 0.97856 0.41929 0.38897
 O1058 O 0.97856 0.39337 0.36295
 C1059 C 0.97097 0.41148 0.37083
 C1060 C 0.95279 0.42335 0.35912
 C1061 C 0.94531 0.41610 0.33816
 H1062 H 0.95324 0.40206 0.33004
 O1063 O 1.02201 0.58019 0.38892
 O1064 O 1.02199 0.60607 0.36286
 C1065 C 1.02960 0.58798 0.37077
 C1066 C 1.04780 0.57610 0.35909
 C1067 C 1.05529 0.58336 0.33814
 H1068 H 1.04736 0.59740 0.33002
 O1069 O 0.88940 0.47799 0.41949
 O1070 O 0.86335 0.47798 0.39359
 C1071 C 0.87125 0.47042 0.41172
 C1072 C 0.85955 0.45232 0.42369
 C1073 C 0.83854 0.44494 0.41656
 H1074 H 0.83039 0.45289 0.40254
 O1075 O 1.11124 0.52152 0.41947
 O1076 O 1.13728 0.52149 0.39358
 C1077 C 1.12938 0.52908 0.41169
 C1078 C 1.14106 0.54724 0.42361
 C1079 C 1.16202 0.55470 0.41640
 H1080 H 1.17017 0.54678 0.40236
 O1081 O 0.91990 0.38901 0.47843
 O1082 O 0.89407 0.36294 0.47839
 C1083 C 0.91218 0.37086 0.47084
 C1084 C 0.92416 0.35914 0.45273
 C1085 C 0.91715 0.33806 0.44546
 H1086 H 0.90321 0.32987 0.45348
 O1087 O 1.08067 0.61067 0.47816
 O1088 O 1.10650 0.63673 0.47814
 C1089 C 1.08841 0.62882 0.47056
 C1090 C 1.07645 0.64050 0.45242
 C1091 C 1.08353 0.66153 0.44502
 H1092 H 1.09752 0.66970 0.45297
 O1093 O 0.91991 0.52133 0.38897
 O1094 O 0.89405 0.52138 0.36289
 C1095 C 0.91216 0.52892 0.37080
 C1096 C 0.92412 0.54702 0.35909
 C1097 C 0.91707 0.55432 0.33800
 H1098 H 0.90312 0.54633 0.32980
 O1099 O 1.08067 0.47816 0.38904
 O1100 O 1.10653 0.47807 0.36296
 C1101 C 1.08842 0.47055 0.37088
 C1102 C 1.07646 0.45244 0.35918
 C1103 C 1.08352 0.44511 0.33811
 H1104 H 1.09747 0.45309 0.32992
 O1105 O 1.02203 0.38888 0.41952
 O1106 O 1.02209 0.36282 0.39364
 C1107 C 1.02964 0.37073 0.41176
 C1108 C 1.04777 0.35903 0.42372
 C1109 C 1.05520 0.33804 0.41656
 H1110 H 1.04728 0.32989 0.40253
 O1111 O 0.97851 0.61062 0.41940
 O1112 O 0.97843 0.63664 0.39348
 C1113 C 0.97088 0.62875 0.41161
 C1114 C 0.95272 0.64044 0.42353
 C1115 C 0.94529 0.66143 0.41635
 H1116 H 0.95323 0.66957 0.40234
 O1117 O 0.88934 0.58014 0.47814
 O1118 O 0.86327 0.60602 0.47810
 C1119 C 0.87119 0.58791 0.47054
 C1120 C 0.85951 0.57597 0.45239
 C1121 C 0.83849 0.58310 0.44498
 H1122 H 0.83031 0.59710 0.45294
 O1123 O 1.11114 0.41932 0.47826
 O1124 O 1.13719 0.39343 0.47825
 C1125 C 1.12927 0.41153 0.47066
 C1126 C 1.14095 0.42344 0.45248
 C1127 C 1.16194 0.41625 0.44502
 H1128 H 1.17008 0.40222 0.45295
 O1129 O 0.97860 0.58007 0.38897
 O1130 O 0.97852 0.60592 0.36288
 C1131 C 0.97100 0.58780 0.37080
 C1132 C 0.95291 0.57583 0.35909
 C1133 C 0.94561 0.58287 0.33800
 H1134 H 0.95358 0.59682 0.32980
 O1135 O 1.02197 0.41942 0.38907
 O1136 O 1.02204 0.39353 0.36302
 C1137 C 1.02957 0.41165 0.37092
 C1138 C 1.04767 0.42361 0.35920
 C1139 C 1.05500 0.41654 0.33812
 H1140 H 1.04704 0.40257 0.32994
 O1141 O 1.11118 0.47810 0.41951
 O1142 O 1.13721 0.47800 0.39360
 C1143 C 1.12930 0.47046 0.41173
 C1144 C 1.14096 0.45228 0.42366
 C1145 C 1.16194 0.44483 0.41647
 H1146 H 1.17009 0.45276 0.40246
 O1147 O 0.88937 0.52140 0.41941
 O1148 O 0.86333 0.52145 0.39350
 C1149 C 0.87123 0.52901 0.41162
 C1150 C 0.85953 0.54715 0.42356
 C1151 C 0.83851 0.55454 0.41642
 H1152 H 0.83036 0.54659 0.40242
 O1153 O 0.91977 0.61063 0.47812
 O1154 O 0.89388 0.63667 0.47809
 C1155 C 0.91199 0.62877 0.47052
 C1156 C 0.92390 0.64045 0.45236
 C1157 C 0.91673 0.66144 0.44492
 H1158 H 0.90271 0.66960 0.45286
 O1159 O 1.08068 0.38884 0.47834
 O1160 O 1.10657 0.36279 0.47833
 C1161 C 1.08845 0.37070 0.47075
 C1162 C 1.07654 0.35901 0.45260
 C1163 C 1.08371 0.33801 0.44518
 H1164 H 1.09771 0.32985 0.45314
 O1165 O 1.08079 0.52157 0.38894
 O1166 O 1.10666 0.52154 0.36288
 C1167 C 1.08857 0.52915 0.37078
 C1168 C 1.07666 0.54732 0.35909
 C1169 C 1.08390 0.55485 0.33814
 H1170 H 1.09797 0.54697 0.33001
 O1171 O 0.91981 0.47793 0.38891
 O1172 O 0.89393 0.47791 0.36285
 C1173 C 0.91203 0.47033 0.37077
 C1174 C 0.92394 0.45215 0.35909
 C1175 C 0.91672 0.44464 0.33813
 H1176 H 0.90267 0.45254 0.32998
 O1177 O 1.02193 0.61063 0.41946
 O1178 O 1.02190 0.63667 0.39355
 C1179 C 1.02948 0.62878 0.41168
 C1180 C 1.04760 0.64049 0.42361
 C1181 C 1.05494 0.66151 0.41647
 H1182 H 1.04696 0.66966 0.40248
 O1183 O 0.97862 0.38896 0.41962
 O1184 O 0.97862 0.36287 0.39377
 C1185 C 0.97106 0.37080 0.41188
 C1186 C 0.95296 0.35911 0.42388
 C1187 C 0.94569 0.33802 0.41687
 H1188 H 0.95369 0.32981 0.40292
 O1189 O 1.11119 0.58020 0.47818
 O1190 O 1.13719 0.60610 0.47816
 C1191 C 1.12932 0.58798 0.47059
 C1192 C 1.14102 0.57607 0.45243
 C1193 C 1.16198 0.58327 0.44496
 H1194 H 1.17010 0.59730 0.45288
 O1195 O 0.88934 0.41943 0.47837
 O1196 O 0.86334 0.39354 0.47833
 C1197 C 0.87122 0.41165 0.47076
 C1198 C 0.85953 0.42356 0.45258
 C1199 C 0.83852 0.41644 0.44518
 H1200 H 0.83035 0.40247 0.45316
 Cu1201 Cu 1.00029 0.40674 0.40688
 Cu1202 Cu 1.00033 0.37554 0.37573
 Cu1203 Cu 1.00027 0.59279 0.40679
 Cu1204 Cu 1.00020 0.62393 0.37558
 Cu1205 Cu 0.90721 0.49966 0.40679
 Cu1206 Cu 0.87605 0.49969 0.37560
 Cu1207 Cu 1.09338 0.49985 0.40684
 Cu1208 Cu 1.12453 0.49976 0.37564
 C1209 C 0.94212 0.44153 0.36934
 H1210 H 0.94760 0.44703 0.38563
 C1211 C 0.92740 0.42674 0.32769
 C1212 C 1.05846 0.55793 0.36932
 H1213 H 1.05296 0.55243 0.38560
 C1214 C 1.07322 0.57275 0.32770
 C1215 C 0.86981 0.44165 0.44185
 H1216 H 0.88613 0.44705 0.44727
 C1217 C 0.82805 0.42713 0.42730
 C1218 C 1.13081 0.55790 0.44177
 H1219 H 1.11452 0.55244 0.44724
 C1220 C 1.17245 0.57260 0.42707
 C1221 C 0.94222 0.36943 0.44196
 H1222 H 0.94755 0.38581 0.44729
 C1223 C 0.92791 0.32753 0.42766
 C1224 C 1.05833 0.63023 0.44174
 H1225 H 1.05295 0.61389 0.44715
 C1226 C 1.07278 0.67200 0.42717
 C1227 C 0.94220 0.55775 0.36939
 H1228 H 0.94755 0.55240 0.38578
 C1229 C 0.92781 0.57212 0.32748
 C1230 C 1.05838 0.44171 0.36949
 H1231 H 1.05302 0.44708 0.38586
 C1232 C 1.07280 0.42729 0.32761
 C1233 C 1.05842 0.36928 0.44189
 H1234 H 1.05297 0.38559 0.44732
 C1235 C 1.07304 0.32755 0.42729
 C1236 C 0.94205 0.63019 0.44168
 H1237 H 0.94750 0.61388 0.44713
 C1238 C 0.92742 0.67190 0.42704
 C1239 C 0.86979 0.55785 0.44169
 H1240 H 0.88612 0.55243 0.44711
 C1241 C 0.82802 0.57239 0.42713
 C1242 C 1.13071 0.44161 0.44181
 H1243 H 1.11441 0.44708 0.44727
 C1244 C 1.17240 0.42693 0.42715
 O1245 O 1.02196 0.41954 0.61110
 O1246 O 1.02203 0.39368 0.63718
 C1247 C 1.02957 0.41178 0.62925
 C1248 C 1.04772 0.42372 0.64092
 C1249 C 1.05511 0.41662 0.66197
 H1250 H 1.04714 0.40266 0.67017
 O1251 O 0.97854 0.58017 0.61093
 O1252 O 0.97849 0.60607 0.63697
 C1253 C 0.97095 0.58795 0.62908
 C1254 C 0.95284 0.57602 0.64080
 C1255 C 0.94550 0.58313 0.66186
 H1256 H 0.95347 0.59710 0.67003
 O1257 O 0.88937 0.52150 0.58047
 O1258 O 0.86332 0.52161 0.60635
 C1259 C 0.87123 0.52912 0.58821
 C1260 C 0.85953 0.54723 0.57622
 C1261 C 0.83847 0.55458 0.58329
 H1262 H 0.83030 0.54663 0.59728
 O1263 O 1.11121 0.47814 0.58042
 O1264 O 1.13727 0.47810 0.60631
 C1265 C 1.12936 0.47054 0.58818
 C1266 C 1.14106 0.45241 0.57623
 C1267 C 1.16211 0.44505 0.58331
 H1268 H 1.17029 0.45302 0.59728
 O1269 O 1.08070 0.38891 0.52180
 O1270 O 1.10660 0.36287 0.52186
 C1271 C 1.08849 0.37079 0.52944
 C1272 C 1.07660 0.35915 0.54765
 C1273 C 1.08381 0.33819 0.55515
 H1274 H 1.09784 0.33004 0.54724
 O1275 O 0.91981 0.61061 0.52157
 O1276 O 0.89392 0.63666 0.52160
 C1277 C 0.91203 0.62876 0.52917
 C1278 C 0.92397 0.64045 0.54731
 C1279 C 0.91686 0.66150 0.55464
 H1280 H 0.90290 0.66968 0.54665
 O1281 O 0.91979 0.47808 0.61107
 O1282 O 0.89389 0.47813 0.63711
 C1283 C 0.91200 0.47052 0.62922
 C1284 C 0.92389 0.45236 0.64094
 C1285 C 0.91661 0.44486 0.66188
 H1286 H 0.90254 0.45276 0.66997
 O1287 O 1.08073 0.52155 0.61092
 O1288 O 1.10661 0.52158 0.63699
 C1289 C 1.08849 0.52915 0.62908
 C1290 C 1.07655 0.54728 0.64078
 C1291 C 1.08369 0.55469 0.66179
 H1292 H 1.09770 0.54674 0.66996
 O1293 O 0.97857 0.38903 0.58062
 O1294 O 0.97859 0.36298 0.60652
 C1295 C 0.97101 0.37088 0.58840
 C1296 C 0.95287 0.35919 0.57647
 C1297 C 0.94547 0.33820 0.58365
 H1298 H 0.95342 0.33006 0.59766
 O1299 O 1.02191 0.61063 0.58038
 O1300 O 1.02190 0.63671 0.60624
 C1301 C 1.02947 0.62879 0.58812
 C1302 C 1.04756 0.64050 0.57614
 C1303 C 1.05483 0.66158 0.58319
 H1304 H 1.04683 0.66977 0.59715
 O1305 O 0.88930 0.41945 0.52183
 O1306 O 0.86330 0.39356 0.52185
 C1307 C 0.87117 0.41167 0.52942
 C1308 C 0.85947 0.42359 0.54758
 C1309 C 0.83848 0.41643 0.55503
 H1310 H 0.83034 0.40242 0.54710
 O1311 O 1.11118 0.58022 0.52164
 O1312 O 1.13717 0.60611 0.52168
 C1313 C 1.12930 0.58800 0.52925
 C1314 C 1.14099 0.57609 0.54742
 C1315 C 1.16198 0.58326 0.55485
 H1316 H 1.17011 0.59727 0.54690
 O1317 O 1.02196 0.58021 0.61093
 O1318 O 1.02196 0.60611 0.63697
 C1319 C 1.02955 0.58800 0.62908
 C1320 C 1.04771 0.57609 0.64078
 C1321 C 1.05511 0.58324 0.66180
 H1322 H 1.04715 0.59723 0.66996
 O1323 O 0.97853 0.41944 0.61119
 O1324 O 0.97854 0.39356 0.63725
 C1325 C 0.97093 0.41166 0.62934
 C1326 C 0.95273 0.42355 0.64101
 C1327 C 0.94518 0.41630 0.66195
 H1328 H 0.95308 0.40226 0.67010
 O1329 O 1.11121 0.52155 0.58043
 O1330 O 1.13726 0.52157 0.60633
 C1331 C 1.12935 0.52914 0.58821
 C1332 C 1.14102 0.54729 0.57627
 C1333 C 1.16201 0.55472 0.58344
 H1334 H 1.17016 0.54679 0.59746
 O1335 O 0.88932 0.47810 0.58055
 O1336 O 0.86326 0.47815 0.60644
 C1337 C 0.87116 0.47055 0.58833
 C1338 C 0.85947 0.45241 0.57641
 C1339 C 0.83849 0.44499 0.58360
 H1340 H 0.83035 0.45293 0.59763
 O1341 O 1.08063 0.61065 0.52160
 O1342 O 1.10645 0.63672 0.52164
 C1343 C 1.08835 0.62880 0.52919
 C1344 C 1.07637 0.64050 0.54731
 C1345 C 1.08339 0.66158 0.55461
 H1346 H 1.09733 0.66977 0.54661
 O1347 O 0.91984 0.38901 0.52187
 O1348 O 0.89401 0.36295 0.52190
 C1349 C 0.91210 0.37087 0.52948
 C1350 C 0.92404 0.35919 0.54764
 C1351 C 0.91690 0.33820 0.55508
 H1352 H 0.90290 0.33005 0.54714
 O1353 O 1.08075 0.47815 0.61095
 O1354 O 1.10663 0.47811 0.63701
 C1355 C 1.08852 0.47057 0.62911
 C1356 C 1.07657 0.45247 0.64084
 C1357 C 1.08370 0.44510 0.66189
 H1358 H 1.09771 0.45305 0.67004
 O1359 O 0.91983 0.52149 0.61099
 O1360 O 0.89395 0.52160 0.63705
 C1361 C 0.91207 0.52912 0.62914
 C1362 C 0.92403 0.54723 0.64083
 C1363 C 0.91694 0.55460 0.66188
 H1364 H 0.90298 0.54664 0.67008
 O1365 O 0.97850 0.61062 0.58039
 O1366 O 0.97844 0.63669 0.60626
 C1367 C 0.97089 0.62877 0.58814
 C1368 C 0.95276 0.64045 0.57617
 C1369 C 0.94540 0.66150 0.58324
 H1370 H 0.95336 0.66968 0.59723
 O1371 O 1.02199 0.38902 0.58064
 O1372 O 1.02207 0.36299 0.60655
 C1373 C 1.02962 0.37089 0.58842
 C1374 C 1.04779 0.35920 0.57650
 C1375 C 1.05527 0.33825 0.58374
 H1376 H 1.04736 0.33014 0.59779
 O1377 O 1.11117 0.41938 0.52171
 O1378 O 1.13723 0.39351 0.52175
 C1379 C 1.12932 0.41163 0.52930
 C1380 C 1.14104 0.42359 0.54740
 C1381 C 1.16209 0.41649 0.55474
 H1382 H 1.17025 0.40251 0.54677
 O1383 O 0.88934 0.58015 0.52159
 O1384 O 0.86328 0.60603 0.52161
 C1385 C 0.87120 0.58792 0.52918
 C1386 C 0.85951 0.57599 0.54733
 C1387 C 0.83845 0.58308 0.55466
 H1388 H 0.83026 0.59704 0.54665
 Cu1389 Cu 1.00026 0.40685 0.59330
 Cu1390 Cu 1.00032 0.37570 0.62449
 Cu1391 Cu 1.00023 0.59281 0.59307
 Cu1392 Cu 1.00019 0.62401 0.62422
 Cu1393 Cu 0.90718 0.40683 0.50013
 Cu1394 Cu 0.87607 0.37564 0.50011
 Cu1395 Cu 1.09332 0.40670 0.50002
 Cu1396 Cu 1.12450 0.37554 0.50005
 Cu1397 Cu 0.90716 0.59279 0.49985
 Cu1398 Cu 0.87597 0.62395 0.49985
 Cu1399 Cu 1.09333 0.59284 0.49989
 Cu1400 Cu 1.12444 0.62403 0.49990
 Cu1401 Cu 0.90717 0.49978 0.59318
 Cu1402 Cu 0.87599 0.49989 0.62435
 Cu1403 Cu 1.09338 0.49985 0.59309
 Cu1404 Cu 1.12456 0.49984 0.62427
 C1405 C 1.05843 0.44179 0.63060
 H1406 H 1.05302 0.44718 0.61425
 C1407 C 1.07298 0.42731 0.67242
 C1408 C 0.94213 0.55792 0.63053
 H1409 H 0.94750 0.55253 0.61417
 C1410 C 0.92768 0.57242 0.67237
 C1411 C 0.86981 0.55791 0.55809
 H1412 H 0.88617 0.55253 0.55273
 C1413 C 0.82796 0.57238 0.57251
 C1414 C 1.13076 0.44170 0.55812
 H1415 H 1.11441 0.44709 0.55275
 C1416 C 1.17259 0.42722 0.57257
 C1417 C 1.05843 0.36941 0.55830
 H1418 H 1.05295 0.38569 0.55281
 C1419 C 1.07315 0.32777 0.57307
 C1420 C 0.94207 0.63017 0.55805
 H1421 H 0.94746 0.61382 0.55267
 C1422 C 0.92758 0.67200 0.57248
 C1423 C 0.94210 0.44172 0.63075
 H1424 H 0.94762 0.44722 0.61448
 C1425 C 0.92724 0.42696 0.67236
 C1426 C 1.05841 0.55796 0.63051
 H1427 H 1.05299 0.55253 0.61418
 C1428 C 1.07298 0.57254 0.67228
 C1429 C 0.94217 0.36945 0.55832
 H1430 H 0.94759 0.38576 0.55287
 C1431 C 0.92761 0.32774 0.57295
 C1432 C 1.05830 0.63020 0.55805
 H1433 H 1.05298 0.61383 0.55271
 C1434 C 1.07262 0.67209 0.57242
 C1435 C 0.86971 0.44173 0.55825
 H1436 H 0.88602 0.44716 0.55280
 C1437 C 0.82802 0.42713 0.57292
 C1438 C 1.13076 0.55795 0.55811
 H1439 H 1.11446 0.55251 0.55266
 C1440 C 1.17245 0.57258 0.57274
 O1441 O 0.47808 0.91959 0.38868
 O1442 O 0.47809 0.89373 0.36260
 C1443 C 0.47050 0.91183 0.37052
 C1444 C 0.45233 0.92374 0.35883
 C1445 C 0.44487 0.91653 0.33785
 H1446 H 0.45280 0.90250 0.32972
 O1447 O 0.52153 1.08053 0.38876
 O1448 O 0.52153 1.10643 0.36273
 C1449 C 0.52912 1.08832 0.37062
 C1450 C 0.54728 1.07642 0.35891
 C1451 C 0.55475 1.08366 0.33795
 H1452 H 0.54684 1.09771 0.32983
 O1453 O 0.38895 0.97837 0.41923
 O1454 O 0.36290 0.97839 0.39334
 C1455 C 0.37080 0.97081 0.41146
 C1456 C 0.35910 0.95269 0.42340
 C1457 C 0.33807 0.94535 0.41629
 H1458 H 0.32990 0.95333 0.40231
 O1459 O 0.61057 1.02172 0.41930
 O1460 O 0.63665 1.02174 0.39344
 C1461 C 0.62873 1.02929 0.41157
 C1462 C 0.64043 1.04737 0.42357
 C1463 C 0.66152 1.05463 0.41657
 H1464 H 0.66973 1.04664 0.40261
 O1465 O 0.41943 0.88907 0.47788
 O1466 O 0.39353 0.86309 0.47787
 C1467 C 0.41164 0.87096 0.47028
 C1468 C 0.42353 0.85927 0.45209
 C1469 C 0.41632 0.83832 0.44460
 H1470 H 0.40229 0.83019 0.45252
 O1471 O 0.58014 1.11092 0.47817
 O1472 O 0.60602 1.13693 0.47812
 C1473 C 0.58791 1.12905 0.47056
 C1474 C 0.57597 1.14075 0.45241
 C1475 C 0.58308 1.16177 0.44503
 H1476 H 0.59706 1.16992 0.45301
 O1477 O 0.41947 1.02172 0.38876
 O1478 O 0.39361 1.02179 0.36268
 C1479 C 0.41172 1.02933 0.37060
 C1480 C 0.42367 1.04743 0.35890
 C1481 C 0.41660 1.05475 0.33782
 H1482 H 0.40265 1.04676 0.32963
 O1483 O 0.58012 0.97837 0.38872
 O1484 O 0.60602 0.97834 0.36267
 C1485 C 0.58791 0.97078 0.37057
 C1486 C 0.57600 0.95263 0.35886
 C1487 C 0.58316 0.94523 0.33784
 H1488 H 0.59715 0.95319 0.32968
 O1489 O 0.52150 0.88911 0.41919
 O1490 O 0.52157 0.86308 0.39329
 C1491 C 0.52912 0.87097 0.41142
 C1492 C 0.54725 0.85928 0.42337
 C1493 C 0.55465 0.83826 0.41625
 H1494 H 0.54671 0.83010 0.40225
 O1495 O 0.47807 1.11095 0.41930
 O1496 O 0.47801 1.13701 0.39342
 C1497 C 0.47045 1.12909 0.41154
 C1498 C 0.45231 1.14078 0.42349
 C1499 C 0.44490 1.16179 0.41634
 H1500 H 0.45283 1.16994 0.40233
 O1501 O 0.38889 1.08048 0.47804
 O1502 O 0.36285 1.10637 0.47801
 C1503 C 0.37076 1.08827 0.47043
 C1504 C 0.35909 1.07636 0.45224
 C1505 C 0.33811 1.08356 0.44477
 H1506 H 0.32995 1.09757 0.45270
 O1507 O 0.61065 0.91960 0.47796
 O1508 O 0.63671 0.89373 0.47795
 C1509 C 0.62879 0.91183 0.47037
 C1510 C 0.64048 0.92375 0.45221
 C1511 C 0.66148 0.91660 0.44479
 H1512 H 0.66964 0.90259 0.45274
 O1513 O 0.47812 1.08046 0.38880
 O1514 O 0.47806 1.10635 0.36275
 C1515 C 0.47053 1.08823 0.37064
 C1516 C 0.45244 1.07627 0.35892
 C1517 C 0.44511 1.08333 0.33784
 H1518 H 0.45307 1.09730 0.32965
 O1519 O 0.52149 0.91960 0.38870
 O1520 O 0.52157 0.89374 0.36262
 C1521 C 0.52910 0.91185 0.37054
 C1522 C 0.54723 0.92380 0.35885
 C1523 C 0.55466 0.91666 0.33783
 H1524 H 0.54674 0.90265 0.32967
 O1525 O 0.61062 0.97832 0.41920
 O1526 O 0.63668 0.97829 0.39333
 C1527 C 0.62877 0.97072 0.41144
 C1528 C 0.64046 0.95257 0.42337
 C1529 C 0.66147 0.94515 0.41622
 H1530 H 0.66962 0.95309 0.40221
 O1531 O 0.38896 1.02178 0.41922
 O1532 O 0.36292 1.02186 0.39332
 C1533 C 0.37082 1.02941 0.41145
 C1534 C 0.35914 1.04757 0.42338
 C1535 C 0.33816 1.05502 0.41618
 H1536 H 0.33003 1.04709 0.40214
 O1537 O 0.41935 1.11095 0.47808
 O1538 O 0.39347 1.13702 0.47805
 C1539 C 0.41158 1.12910 0.47048
 C1540 C 0.42351 1.14079 0.45233
 C1541 C 0.41636 1.16180 0.44493
 H1542 H 0.40236 1.16996 0.45289
 O1543 O 0.58019 0.88913 0.47796
 O1544 O 0.60609 0.86309 0.47795
 C1545 C 0.58798 0.87099 0.47037
 C1546 C 0.57606 0.85929 0.45222
 C1547 C 0.58320 0.83827 0.44484
 H1548 H 0.59720 0.83011 0.45281
 O1549 O 0.58019 1.02179 0.38868
 O1550 O 0.60610 1.02182 0.36266
 C1551 C 0.58799 1.02940 0.37055
 C1552 C 0.57609 1.04759 0.35888
 C1553 C 0.58331 1.05508 0.33791
 H1554 H 0.59734 1.04717 0.32976
 O1555 O 0.41938 0.97831 0.38868
 O1556 O 0.39349 0.97833 0.36262
 C1557 C 0.41159 0.97073 0.37053
 C1558 C 0.42350 0.95256 0.35883
 C1559 C 0.41629 0.94509 0.33785
 H1560 H 0.40225 0.95300 0.32971
 O1561 O 0.52148 1.11093 0.41934
 O1562 O 0.52148 1.13700 0.39347
 C1563 C 0.52905 1.12908 0.41159
 C1564 C 0.54717 1.14077 0.42356
 C1565 C 0.55454 1.16178 0.41644
 H1566 H 0.54659 1.16995 0.40244
 O1567 O 0.47808 0.88907 0.41914
 O1568 O 0.47810 0.86305 0.39323
 C1569 C 0.47051 0.87094 0.41134
 C1570 C 0.45234 0.85926 0.42325
 C1571 C 0.44487 0.83831 0.41602
 H1572 H 0.45279 0.83018 0.40197
 O1573 O 0.61058 1.08038 0.47818
 O1574 O 0.63664 1.10622 0.47813
 C1575 C 0.62873 1.08811 0.47057
 C1576 C 0.64043 1.07614 0.45245
 C1577 C 0.66152 1.08315 0.44518
 H1578 H 0.66972 1.09707 0.45321
 O1579 O 0.38898 0.91961 0.47791
 O1580 O 0.36291 0.89379 0.47790
 C1581 C 0.37082 0.91188 0.47033
 C1582 C 0.35912 0.92385 0.45221
 C1583 C 0.33809 0.91677 0.44484
 H1584 H 0.32992 0.90278 0.45280
 Cu1585 Cu 0.49978 0.90693 0.40653
 Cu1586 Cu 0.49984 0.87579 0.37532
 Cu1587 Cu 0.49980 1.09312 0.40664
 Cu1588 Cu 0.49976 1.12431 0.37548
 Cu1589 Cu 0.40678 1.00004 0.40657
 Cu1590 Cu 0.37562 1.00010 0.37538
 Cu1591 Cu 0.59277 1.00005 0.40656
 Cu1592 Cu 0.62397 1.00005 0.37541
 C1593 C 0.44167 0.94190 0.36907
 H1594 H 0.44714 0.94737 0.38537
 C1595 C 0.42697 0.92720 0.32739
 C1596 C 0.55793 1.05824 0.36913
 H1597 H 0.55246 1.05275 0.38542
 C1598 C 0.57264 1.07300 0.32747
 C1599 C 0.36938 0.94196 0.44152
 H1600 H 0.38573 0.94734 0.44691
 C1601 C 0.32759 0.92751 0.42701
 C1602 C 0.63012 1.05810 0.44167
 H1603 H 0.61373 1.05278 0.44699
 C1604 C 0.67204 1.07239 0.42737
 C1605 C 0.44169 0.86949 0.44143
 H1606 H 0.44717 0.88577 0.44692
 C1607 C 0.42698 0.82787 0.42668
 C1608 C 0.55786 1.13049 0.44169
 H1609 H 0.55246 1.11416 0.44710
 C1610 C 0.57237 1.17225 0.42717
 C1611 C 0.44174 1.05816 0.36921
 H1612 H 0.44710 1.05280 0.38558
 C1613 C 0.42732 1.07257 0.32732
 C1614 C 0.55788 0.94194 0.36912
 H1615 H 0.55244 0.94736 0.38545
 C1616 C 0.57250 0.92737 0.32736
 C1617 C 0.55793 0.86955 0.44151
 H1618 H 0.55251 0.88588 0.44692
 C1619 C 0.57250 0.82778 0.42698
 C1620 C 0.44164 1.13052 0.44163
 H1621 H 0.44707 1.11420 0.44705
 C1622 C 0.42705 1.17227 0.42706
 C1623 C 0.36936 1.05822 0.44156
 H1624 H 0.38566 1.05276 0.44702
 C1625 C 0.32767 1.07288 0.42687
 C1626 C 0.63021 0.94189 0.44152
 H1627 H 0.61389 0.94732 0.44695
 C1628 C 0.67195 0.92729 0.42692
 O1629 O 0.52143 0.91960 0.61069
 O1630 O 0.52148 0.89372 0.63676
 C1631 C 0.52902 0.91184 0.62885
 C1632 C 0.54713 0.92378 0.64057
 C1633 C 0.55446 0.91669 0.66164
 H1634 H 0.54649 0.90272 0.66981
 O1635 O 0.47815 1.08040 0.61086
 O1636 O 0.47806 1.10628 0.63692
 C1637 C 0.47053 1.08817 0.62900
 C1638 C 0.45239 1.07624 0.64069
 C1639 C 0.44500 1.08337 0.66171
 H1640 H 0.45296 1.09734 0.66989
 O1641 O 0.38890 1.02184 0.58027
 O1642 O 0.36284 1.02185 0.60616
 C1643 C 0.37075 1.02943 0.58805
 C1644 C 0.35905 1.04758 0.57613
 C1645 C 0.33809 1.05506 0.58335
 H1646 H 0.32997 1.04715 0.59739
 O1647 O 0.61059 0.97834 0.58028
 O1648 O 0.63665 0.97822 0.60616
 C1649 C 0.62873 0.97071 0.58802
 C1650 C 0.64042 0.95260 0.57603
 C1651 C 0.66148 0.94525 0.58310
 H1652 H 0.66966 0.95320 0.59709
 O1653 O 0.58017 0.88914 0.52141
 O1654 O 0.60607 0.86310 0.52145
 C1655 C 0.58795 0.87100 0.52901
 C1656 C 0.57601 0.85931 0.54715
 C1657 C 0.58312 0.83826 0.55450
 H1658 H 0.59709 0.83009 0.54651
 O1659 O 0.41936 1.11090 0.52153
 O1660 O 0.39349 1.13697 0.52156
 C1661 C 0.41160 1.12905 0.52914
 C1662 C 0.42353 1.14072 0.54730
 C1663 C 0.41641 1.16175 0.55469
 H1664 H 0.40242 1.16993 0.54672
 O1665 O 0.41938 0.97838 0.61075
 O1666 O 0.39348 0.97833 0.63678
 C1667 C 0.41159 0.97076 0.62888
 C1668 C 0.42351 0.95260 0.64057
 C1669 C 0.41635 0.94520 0.66159
 H1670 H 0.40235 0.95316 0.66975
 O1671 O 0.58020 1.02177 0.61089
 O1672 O 0.60610 1.02171 0.63693
 C1673 C 0.58800 1.02934 0.62904
 C1674 C 0.57614 1.04752 0.64075
 C1675 C 0.58344 1.05504 0.66168
 H1676 H 0.59750 1.04713 0.66978
 O1677 O 0.47805 0.88910 0.58020
 O1678 O 0.47805 0.86305 0.60609
 C1679 C 0.47048 0.87096 0.58796
 C1680 C 0.45236 0.85926 0.57601
 C1681 C 0.44495 0.83827 0.58316
 H1682 H 0.45287 0.83011 0.59719
 O1683 O 0.52153 1.11092 0.58039
 O1684 O 0.52150 1.13697 0.60628
 C1685 C 0.52909 1.12907 0.58816
 C1686 C 0.54722 1.14076 0.57623
 C1687 C 0.55465 1.16173 0.58343
 H1688 H 0.54672 1.16987 0.59746
 O1689 O 0.38905 0.91965 0.52135
 O1690 O 0.36297 0.89383 0.52140
 C1691 C 0.37089 0.91193 0.52896
 C1692 C 0.35920 0.92390 0.54708
 C1693 C 0.33813 0.91687 0.55439
 H1694 H 0.32995 0.90292 0.54639
 O1695 O 0.61065 1.08044 0.52162
 O1696 O 0.63669 1.10629 0.52164
 C1697 C 0.62879 1.08819 0.52922
 C1698 C 0.64048 1.07626 0.54738
 C1699 C 0.66147 1.08340 0.55482
 H1700 H 0.66962 1.09741 0.54688
 O1701 O 0.52157 1.08049 0.61094
 O1702 O 0.52155 1.10637 0.63699
 C1703 C 0.52915 1.08827 0.62909
 C1704 C 0.54734 1.07638 0.64077
 C1705 C 0.55490 1.08364 0.66171
 H1706 H 0.54703 1.09771 0.66983
 O1707 O 0.47802 0.91958 0.61071
 O1708 O 0.47802 0.89370 0.63677
 C1709 C 0.47044 0.91181 0.62886
 C1710 C 0.45230 0.92374 0.64057
 C1711 C 0.44488 0.91659 0.66158
 H1712 H 0.45281 0.90258 0.66974
 O1713 O 0.61063 1.02174 0.58034
 O1714 O 0.63669 1.02168 0.60622
 C1715 C 0.62878 1.02929 0.58811
 C1716 C 0.64048 1.04743 0.57620
 C1717 C 0.66147 1.05483 0.58338
 H1718 H 0.66961 1.04688 0.59739
 O1719 O 0.38899 0.97843 0.58015
 O1720 O 0.36292 0.97838 0.60602
 C1721 C 0.37085 0.97083 0.58790
 C1722 C 0.35917 0.95273 0.57591
 C1723 C 0.33810 0.94542 0.58296
 H1724 H 0.32990 0.95342 0.59692
 O1725 O 0.58016 1.11094 0.52162
 O1726 O 0.60604 1.13695 0.52163
 C1727 C 0.58794 1.12907 0.52922
 C1728 C 0.57603 1.14076 0.54739
 C1729 C 0.58320 1.16174 0.55484
 H1730 H 0.59721 1.16988 0.54691
 O1731 O 0.41946 0.88908 0.52134
 O1732 O 0.39356 0.86309 0.52139
 C1733 C 0.41168 0.87097 0.52895
 C1734 C 0.42359 0.85927 0.54712
 C1735 C 0.41644 0.83828 0.55453
 H1736 H 0.40245 0.83013 0.54655
 O1737 O 0.58010 0.97835 0.61078
 O1738 O 0.60599 0.97824 0.63684
 C1739 C 0.58787 0.97072 0.62892
 C1740 C 0.57592 0.95260 0.64061
 C1741 C 0.58299 0.94525 0.66168
 H1742 H 0.59695 0.95322 0.66988
 O1743 O 0.41940 1.02179 0.61076
 O1744 O 0.39351 1.02180 0.63681
 C1745 C 0.41162 1.02936 0.62892
 C1746 C 0.42356 1.04747 0.64065
 C1747 C 0.41642 1.05486 0.66169
 H1748 H 0.40241 1.04693 0.66984
 O1749 O 0.47811 1.11088 0.58035
 O1750 O 0.47802 1.13693 0.60624
 C1751 C 0.47048 1.12901 0.58811
 C1752 C 0.45234 1.14070 0.57615
 C1753 C 0.44496 1.16172 0.58327
 H1754 H 0.45291 1.16989 0.59727
 O1755 O 0.52146 0.88913 0.58018
 O1756 O 0.52152 0.86308 0.60607
 C1757 C 0.52907 0.87099 0.58794
 C1758 C 0.54720 0.85930 0.57598
 C1759 C 0.55456 0.83826 0.58307
 H1760 H 0.54660 0.83008 0.59705
 O1761 O 0.61061 0.91964 0.52141
 O1762 O 0.63668 0.89377 0.52146
 C1763 C 0.62875 0.91188 0.52902
 C1764 C 0.64044 0.92382 0.54716
 C1765 C 0.66150 0.91673 0.55449
 H1766 H 0.66969 0.90277 0.54649
 O1767 O 0.38883 1.08050 0.52150
 O1768 O 0.36280 1.10640 0.52153
 C1769 C 0.37070 1.08829 0.52911
 C1770 C 0.35902 1.07638 0.54728
 C1771 C 0.33806 1.08360 0.55476
 H1772 H 0.32991 1.09763 0.54684
 Cu1773 Cu 0.49973 0.90695 0.59285
 Cu1774 Cu 0.49977 0.87578 0.62403
 Cu1775 Cu 0.49985 1.09308 0.59304
 Cu1776 Cu 0.49977 1.12425 0.62422
 Cu1777 Cu 0.40683 0.90694 0.49962
 Cu1778 Cu 0.37563 0.87584 0.49964
 Cu1779 Cu 0.59281 0.90697 0.49968
 Cu1780 Cu 0.62400 0.87581 0.49971
 Cu1781 Cu 0.40670 1.09311 0.49979
 Cu1782 Cu 0.37554 1.12430 0.49979
 Cu1783 Cu 0.59279 1.09308 0.49990
 Cu1784 Cu 0.62396 1.12421 0.49987
 Cu1785 Cu 0.40676 1.00011 0.59289
 Cu1786 Cu 0.37557 1.00008 0.62405
 Cu1787 Cu 0.59278 1.00006 0.59298
 Cu1788 Cu 0.62397 0.99995 0.62415
 C1789 C 0.55783 0.94189 0.63030
 H1790 H 0.55247 0.94727 0.61393
 C1791 C 0.57227 0.92742 0.67216
 C1792 C 0.44170 1.05814 0.63040
 H1793 H 0.44711 1.05273 0.61405
 C1794 C 0.42714 1.07269 0.67219
 C1795 C 0.36927 1.05823 0.55794
 H1796 H 0.38556 1.05275 0.55246
 C1797 C 0.32762 1.07294 0.57267
 C1798 C 0.63014 0.94190 0.55791
 H1799 H 0.61378 0.94728 0.55254
 C1800 C 0.67199 0.92744 0.57234
 C1801 C 0.55790 0.86959 0.55787
 H1802 H 0.55251 0.88593 0.55249
 C1803 C 0.57239 0.82777 0.57233
 C1804 C 0.44165 1.13044 0.55801
 H1805 H 0.44706 1.11410 0.55261
 C1806 C 0.42712 1.17222 0.57254
 C1807 C 0.44163 0.94190 0.63031
 H1808 H 0.44706 0.94733 0.61398
 C1809 C 0.42703 0.92732 0.67206
 C1810 C 0.55795 1.05817 0.63054
 H1811 H 0.55241 1.05267 0.61428
 C1812 C 0.57283 1.07298 0.67213
 C1813 C 0.44170 0.86952 0.55784
 H1814 H 0.44713 0.88583 0.55241
 C1815 C 0.42711 0.82780 0.57242
 C1816 C 0.55789 1.13052 0.55806
 H1817 H 0.55244 1.11422 0.55261
 C1818 C 0.57251 1.17219 0.57274
 C1819 C 0.36948 0.94199 0.55782
 H1820 H 0.38584 0.94733 0.55247
 C1821 C 0.32761 0.92762 0.57220
 C1822 C 0.63023 1.05812 0.55805
 H1823 H 0.61392 1.05270 0.55260
 C1824 C 0.67194 1.07269 0.57269
 O1825 O 0.47832 0.41946 0.88936
 O1826 O 0.47827 0.39360 0.86328
 C1827 C 0.47072 0.41172 0.87120
 C1828 C 0.45260 0.42368 0.85950
 C1829 C 0.44525 0.41657 0.83845
 H1830 H 0.45322 0.40259 0.83028
 O1831 O 0.52156 0.58025 0.88938
 O1832 O 0.52162 0.60612 0.86331
 C1833 C 0.52917 0.58800 0.87123
 C1834 C 0.54729 0.57603 0.85953
 C1835 C 0.55464 0.58311 0.83847
 H1836 H 0.54667 0.59709 0.83029
 O1837 O 0.38904 0.47831 0.91976
 O1838 O 0.36301 0.47829 0.89385
 C1839 C 0.37090 0.47073 0.91198
 C1840 C 0.35920 0.45262 0.92393
 C1841 C 0.33817 0.44527 0.91681
 H1842 H 0.33001 0.45324 0.90281
 O1843 O 0.61081 0.52139 0.91984
 O1844 O 0.63684 0.52146 0.89394
 C1845 C 0.62893 0.52900 0.91207
 C1846 C 0.64060 0.54713 0.92403
 C1847 C 0.66163 0.55449 0.91693
 H1848 H 0.66983 0.54652 0.90296
 O1849 O 0.41951 0.38907 0.97846
 O1850 O 0.39362 0.36306 0.97844
 C1851 C 0.41173 0.37094 0.97086
 C1852 C 0.42366 0.35922 0.95272
 C1853 C 0.41648 0.33824 0.94529
 H1854 H 0.40246 0.33012 0.95322
 O1855 O 0.58022 0.61070 0.97858
 O1856 O 0.60610 0.63672 0.97856
 C1857 C 0.58799 0.62884 0.97100
 C1858 C 0.57605 0.64056 0.95287
 C1859 C 0.58314 0.66160 0.94553
 H1860 H 0.59712 0.66975 0.95352
 O1861 O 0.41953 0.52167 0.88924
 O1862 O 0.39366 0.52170 0.86317
 C1863 C 0.41176 0.52926 0.87108
 C1864 C 0.42368 0.54738 0.85938
 C1865 C 0.41654 0.55478 0.83835
 H1866 H 0.40256 0.54683 0.83018
 O1867 O 0.58038 0.47800 0.88929
 O1868 O 0.60624 0.47801 0.86322
 C1869 C 0.58815 0.47043 0.87112
 C1870 C 0.57625 0.45228 0.85942
 C1871 C 0.58344 0.44484 0.83843
 H1872 H 0.59745 0.45277 0.83028
 O1873 O 0.52173 0.38887 0.91981
 O1874 O 0.52174 0.36285 0.89390
 C1875 C 0.52932 0.37073 0.91202
 C1876 C 0.54749 0.35903 0.92393
 C1877 C 0.55498 0.33809 0.91668
 H1878 H 0.54707 0.32998 0.90262
 O1879 O 0.47813 0.61080 0.91982
 O1880 O 0.47812 0.63684 0.89391
 C1881 C 0.47054 0.62895 0.91204
 C1882 C 0.45240 0.64065 0.92397
 C1883 C 0.44498 0.66165 0.91681
 H1884 H 0.45290 0.66980 0.90279
 O1885 O 0.38901 0.58041 0.97859
 O1886 O 0.36296 0.60629 0.97854
 C1887 C 0.37088 0.58818 0.97097
 C1888 C 0.35921 0.57627 0.95279
 C1889 C 0.33821 0.58343 0.94536
 H1890 H 0.33005 0.59743 0.95331
 O1891 O 0.61095 0.41925 0.97850
 O1892 O 0.63700 0.39336 0.97849
 C1893 C 0.62909 0.41146 0.97090
 C1894 C 0.64075 0.42336 0.95270
 C1895 C 0.66169 0.41612 0.94516
 H1896 H 0.66983 0.40207 0.95304
 O1897 O 0.47815 0.58036 0.88928
 O1898 O 0.47815 0.60622 0.86320
 C1899 C 0.47058 0.58813 0.87111
 C1900 C 0.45246 0.57620 0.85939
 C1901 C 0.44506 0.58334 0.83836
 H1902 H 0.45300 0.59734 0.83020
 O1903 O 0.52174 0.41933 0.88928
 O1904 O 0.52174 0.39347 0.86321
 C1905 C 0.52932 0.41156 0.87112
 C1906 C 0.54746 0.42347 0.85942
 C1907 C 0.55491 0.41629 0.83842
 H1908 H 0.54700 0.40227 0.83028
 O1909 O 0.61085 0.47797 0.91980
 O1910 O 0.63688 0.47798 0.89388
 C1911 C 0.62899 0.47038 0.91200
 C1912 C 0.64070 0.45220 0.92388
 C1913 C 0.66163 0.44471 0.91661
 H1914 H 0.66973 0.45262 0.90255
 O1915 O 0.38908 0.52171 0.91978
 O1916 O 0.36305 0.52175 0.89387
 C1917 C 0.37094 0.52932 0.91200
 C1918 C 0.35925 0.54747 0.92393
 C1919 C 0.33825 0.55490 0.91676
 H1920 H 0.33011 0.54697 0.90274
 O1921 O 0.41948 0.61087 0.97862
 O1922 O 0.39359 0.63692 0.97857
 C1923 C 0.41170 0.62901 0.97101
 C1924 C 0.42362 0.64068 0.95284
 C1925 C 0.41645 0.66168 0.94542
 H1926 H 0.40246 0.66985 0.95338
 O1927 O 0.58046 0.38881 0.97852
 O1928 O 0.60634 0.36275 0.97852
 C1929 C 0.58823 0.37067 0.97093
 C1930 C 0.57632 0.35900 0.95275
 C1931 C 0.58355 0.33805 0.94524
 H1932 H 0.59760 0.32991 0.95314
 O1933 O 0.58030 0.52142 0.88936
 O1934 O 0.60616 0.52148 0.86329
 C1935 C 0.58805 0.52903 0.87121
 C1936 C 0.57609 0.54717 0.85952
 C1937 C 0.58318 0.55452 0.83846
 H1938 H 0.59714 0.54653 0.83027
 O1939 O 0.41958 0.47826 0.88931
 O1940 O 0.39371 0.47823 0.86323
 C1941 C 0.41182 0.47066 0.87116
 C1942 C 0.42377 0.45251 0.85947
 C1943 C 0.41668 0.44513 0.83842
 H1944 H 0.40270 0.45310 0.83023
 O1945 O 0.52154 0.61079 0.91982
 O1946 O 0.52159 0.63683 0.89392
 C1947 C 0.52913 0.62892 0.91205
 C1948 C 0.54725 0.64060 0.92402
 C1949 C 0.55460 0.66164 0.91694
 H1950 H 0.54663 0.66983 0.90295
 O1951 O 0.47831 0.38891 0.91979
 O1952 O 0.47825 0.36289 0.89388
 C1953 C 0.47069 0.37079 0.91200
 C1954 C 0.45252 0.35915 0.92392
 C1955 C 0.44508 0.33817 0.91675
 H1956 H 0.45303 0.32999 0.90275
 O1957 O 0.61069 0.58018 0.97856
 O1958 O 0.63674 0.60603 0.97854
 C1959 C 0.62883 0.58793 0.97097
 C1960 C 0.64054 0.57597 0.95284
 C1961 C 0.66158 0.58307 0.94548
 H1962 H 0.66973 0.59705 0.95345
 O1963 O 0.38904 0.41960 0.97848
 O1964 O 0.36299 0.39375 0.97847
 C1965 C 0.37089 0.41185 0.97090
 C1966 C 0.35919 0.42380 0.95276
 C1967 C 0.33817 0.41671 0.94538
 H1968 H 0.33000 0.40273 0.95334
 Cu1969 Cu 0.50003 0.40673 0.90716
 Cu1970 Cu 0.50000 0.37559 0.87596
 Cu1971 Cu 0.49984 0.59296 0.90717
 Cu1972 Cu 0.49987 0.62411 0.87597
 Cu1973 Cu 0.40690 0.49998 0.90712
 Cu1974 Cu 0.37575 0.49999 0.87592
 Cu1975 Cu 0.59299 0.49969 0.90717
 Cu1976 Cu 0.62414 0.49974 0.87597
 C1977 C 0.44189 0.44180 0.86977
 H1978 H 0.44727 0.44720 0.88612
 C1979 C 0.42741 0.42729 0.82794
 C1980 C 0.55800 0.55791 0.86982
 H1981 H 0.55262 0.55253 0.88618
 C1982 C 0.57245 0.57235 0.82796
 C1983 C 0.36947 0.44191 0.94206
 H1984 H 0.38580 0.44729 0.94746
 C1985 C 0.32768 0.42744 0.92753
 C1986 C 0.63030 0.55785 0.94213
 H1987 H 0.61396 0.55246 0.94752
 C1988 C 0.67209 0.57233 0.92766
 C1989 C 0.44183 0.36943 0.94205
 H1990 H 0.44727 0.38573 0.94749
 C1991 C 0.42719 0.32774 0.92743
 C1992 C 0.55795 0.63031 0.94214
 H1993 H 0.55257 0.61396 0.94751
 C1994 C 0.57242 0.67211 0.92769
 C1995 C 0.44179 0.55807 0.86965
 H1996 H 0.44721 0.55265 0.88599
 C1997 C 0.42723 0.57263 0.82787
 C1998 C 0.55811 0.44162 0.86967
 H1999 H 0.55266 0.44707 0.88599
 C2000 C 0.57278 0.42697 0.82796
 C2001 C 0.55814 0.36924 0.94212
 H2002 H 0.55265 0.38552 0.94762
 C2003 C 0.57289 0.32763 0.92732
 C2004 C 0.44174 0.63041 0.94214
 H2005 H 0.44718 0.61410 0.94758
 C2006 C 0.42713 0.67214 0.92754
 C2007 C 0.36949 0.55814 0.94210
 H2008 H 0.38580 0.55270 0.94754
 C2009 C 0.32776 0.57275 0.92747
 C2010 C 0.63050 0.44155 0.94208
 H2011 H 0.61423 0.44705 0.94760
 C2012 C 0.67210 0.42679 0.92723
 O2013 O 0.52162 0.41942 1.11129
 O2014 O 0.52163 0.39354 1.13734
 C2015 C 0.52920 0.41165 1.12945
 C2016 C 0.54733 0.42356 1.14115
 C2017 C 0.55473 0.41643 1.16218
 H2018 H 0.54678 0.40245 1.17036
 O2019 O 0.47813 0.58030 1.11131
 O2020 O 0.47814 0.60616 1.13739
 C2021 C 0.47055 0.58807 1.12948
 C2022 C 0.45240 0.57617 1.14118
 C2023 C 0.44494 0.58340 1.16215
 H2024 H 0.45286 0.59742 1.17028
 O2025 O 0.38899 0.52170 1.08080
 O2026 O 0.36294 0.52172 1.10669
 C2027 C 0.37085 0.52930 1.08858
 C2028 C 0.35916 0.54747 1.07665
 C2029 C 0.33820 0.55495 1.08386
 H2030 H 0.33006 0.54704 1.09790
 O2031 O 0.61082 0.47799 1.08075
 O2032 O 0.63685 0.47796 1.10666
 C2033 C 0.62896 0.47039 1.08854
 C2034 C 0.64066 0.45224 1.07662
 C2035 C 0.66164 0.44479 1.08383
 H2036 H 0.66976 0.45270 1.09787
 O2037 O 0.58044 0.38886 1.02198
 O2038 O 0.60631 0.36280 1.02204
 C2039 C 0.58821 0.37073 1.02961
 C2040 C 0.57628 0.35908 1.04779
 C2041 C 0.58347 0.33811 1.05528
 H2042 H 0.59749 0.32994 1.04736
 O2043 O 0.41943 0.61089 1.02207
 O2044 O 0.39354 0.63694 1.02209
 C2045 C 0.41165 0.62902 1.02968
 C2046 C 0.42355 0.64069 1.04787
 C2047 C 0.41635 0.66166 1.05535
 H2048 H 0.40232 0.66981 1.04743
 O2049 O 0.41949 0.47824 1.11126
 O2050 O 0.39360 0.47819 1.13731
 C2051 C 0.41171 0.47062 1.12940
 C2052 C 0.42362 0.45245 1.14108
 C2053 C 0.41642 0.44500 1.16207
 H2054 H 0.40241 0.45294 1.17021
 O2055 O 0.58031 0.52145 1.11122
 O2056 O 0.60619 0.52148 1.13728
 C2057 C 0.58808 0.52905 1.12937
 C2058 C 0.57615 0.54720 1.14107
 C2059 C 0.58331 0.55460 1.16209
 H2060 H 0.59731 0.54665 1.17024
 O2061 O 0.47826 0.38898 1.08071
 O2062 O 0.47821 0.36292 1.10658
 C2063 C 0.47067 0.37084 1.08846
 C2064 C 0.45256 0.35917 1.07647
 C2065 C 0.44522 0.33811 1.08351
 H2066 H 0.45318 0.32990 1.09749
 O2067 O 0.52153 0.61075 1.08079
 O2068 O 0.52159 0.63677 1.10670
 C2069 C 0.52914 0.62887 1.08857
 C2070 C 0.54727 0.64055 1.07663
 C2071 C 0.55467 0.66155 1.08377
 H2072 H 0.54672 0.66972 1.09777
 O2073 O 0.38907 0.41959 1.02194
 O2074 O 0.36302 0.39374 1.02197
 C2075 C 0.37093 0.41184 1.02954
 C2076 C 0.35922 0.42378 1.04769
 C2077 C 0.33819 0.41668 1.05504
 H2078 H 0.33003 0.40271 1.04706
 O2079 O 0.61070 0.58016 1.02200
 O2080 O 0.63675 0.60600 1.02203
 C2081 C 0.62885 0.58789 1.02959
 C2082 C 0.64057 0.57592 1.04769
 C2083 C 0.66164 0.58297 1.05499
 H2084 H 0.66981 0.59692 1.04700
 O2085 O 0.52155 0.58023 1.11126
 O2086 O 0.52161 0.60609 1.13734
 C2087 C 0.52917 0.58798 1.12941
 C2088 C 0.54732 0.57603 1.14109
 C2089 C 0.55474 0.58317 1.16211
 H2090 H 0.54680 0.59717 1.17028
 O2091 O 0.47820 0.41944 1.11125
 O2092 O 0.47815 0.39354 1.13729
 C2093 C 0.47058 0.41166 1.12939
 C2094 C 0.45242 0.42359 1.14108
 C2095 C 0.44496 0.41640 1.16207
 H2096 H 0.45287 0.40236 1.17021
 O2097 O 0.61080 0.52140 1.08072
 O2098 O 0.63685 0.52143 1.10661
 C2099 C 0.62894 0.52898 1.08848
 C2100 C 0.64063 0.54709 1.07651
 C2101 C 0.66169 0.55440 1.08356
 H2102 H 0.66990 0.54641 1.09752
 O2103 O 0.38901 0.47829 1.08076
 O2104 O 0.36295 0.47825 1.10664
 C2105 C 0.37087 0.47070 1.08851
 C2106 C 0.35919 0.45258 1.07654
 C2107 C 0.33816 0.44522 1.08364
 H2108 H 0.32997 0.45317 1.09763
 O2109 O 0.58024 0.61068 1.02203
 O2110 O 0.60613 0.63669 1.02207
 C2111 C 0.58801 0.62881 1.02964
 C2112 C 0.57609 0.64051 1.04779
 C2113 C 0.58323 0.66151 1.05519
 H2114 H 0.59722 0.66966 1.04723
 O2115 O 0.41957 0.38911 1.02191
 O2116 O 0.39369 0.36309 1.02194
 C2117 C 0.41181 0.37097 1.02950
 C2118 C 0.42376 0.35924 1.04761
 C2119 C 0.41668 0.33819 1.05491
 H2120 H 0.40272 0.33004 1.04690
 O2121 O 0.58033 0.47804 1.11126
 O2122 O 0.60620 0.47802 1.13733
 C2123 C 0.58809 0.47046 1.12942
 C2124 C 0.57616 0.45234 1.14114
 C2125 C 0.58329 0.44495 1.16217
 H2126 H 0.59729 0.45289 1.17032
 O2127 O 0.41945 0.52166 1.11134
 O2128 O 0.39356 0.52168 1.13739
 C2129 C 0.41167 0.52925 1.12949
 C2130 C 0.42358 0.54739 1.14119
 C2131 C 0.41637 0.55488 1.16217
 H2132 H 0.40234 0.54699 1.17031
 O2133 O 0.47811 0.61079 1.08082
 O2134 O 0.47811 0.63682 1.10674
 C2135 C 0.47053 0.62893 1.08862
 C2136 C 0.45237 0.64064 1.07671
 C2137 C 0.44490 0.66161 1.08393
 H2138 H 0.45283 0.66972 1.09798
 O2139 O 0.52168 0.38897 1.08076
 O2140 O 0.52169 0.36292 1.10665
 C2141 C 0.52928 0.37083 1.08854
 C2142 C 0.54745 0.35913 1.07662
 C2143 C 0.55490 0.33816 1.08384
 H2144 H 0.54697 0.33004 1.09788
 O2145 O 0.61092 0.41930 1.02196
 O2146 O 0.63697 0.39341 1.02202
 C2147 C 0.62906 0.41152 1.02958
 C2148 C 0.64072 0.42344 1.04776
 C2149 C 0.66169 0.41625 1.05523
 H2150 H 0.66985 0.40223 1.04730
 O2151 O 0.38899 0.58040 1.02205
 O2152 O 0.36293 0.60629 1.02206
 C2153 C 0.37084 0.58818 1.02964
 C2154 C 0.35916 0.57627 1.04781
 C2155 C 0.33820 0.58349 1.05527
 H2156 H 0.33006 0.59752 1.04735
 Cu2157 Cu 0.49994 0.40680 1.09341
 Cu2158 Cu 0.49992 0.37562 1.12458
 Cu2159 Cu 0.49983 0.59293 1.09345
 Cu2160 Cu 0.49987 0.62407 1.12466
 Cu2161 Cu 0.40689 0.40693 1.00019
 Cu2162 Cu 0.37572 0.37580 1.00021
 Cu2163 Cu 0.59311 0.40665 1.00024
 Cu2164 Cu 0.62426 0.37547 1.00027
 Cu2165 Cu 0.40682 0.59305 1.00033
 Cu2166 Cu 0.37564 0.62422 1.00031
 Cu2167 Cu 0.59287 0.59284 1.00029
 Cu2168 Cu 0.62404 0.62397 1.00030
 Cu2169 Cu 0.40683 0.49997 1.09345
 Cu2170 Cu 0.37565 0.49996 1.12462
 Cu2171 Cu 0.59297 0.49972 1.09339
 Cu2172 Cu 0.62413 0.49972 1.12458
 C2173 C 0.55803 0.44167 1.13087
 H2174 H 0.55261 0.44709 1.11453
 C2175 C 0.57259 0.42712 1.17266
 C2176 C 0.44174 0.55802 1.13094
 H2177 H 0.44721 0.55254 1.11464
 C2178 C 0.42705 0.57276 1.17262
 C2179 C 0.36940 0.55811 1.05848
 H2180 H 0.38569 0.55263 1.05301
 C2181 C 0.32774 0.57284 1.07318
 C2182 C 0.63045 0.44158 1.05843
 H2183 H 0.61415 0.44704 1.05296
 C2184 C 0.67212 0.42692 1.07314
 C2185 C 0.55812 0.36935 1.05845
 H2186 H 0.55266 0.38564 1.05297
 C2187 C 0.57278 0.32768 1.07318
 C2188 C 0.44171 0.63043 1.05853
 H2189 H 0.44718 0.61414 1.05304
 C2190 C 0.42702 0.67209 1.07326
 C2191 C 0.44177 0.44176 1.13083
 H2192 H 0.44723 0.44722 1.11452
 C2193 C 0.42708 0.42710 1.17253
 C2194 C 0.55800 0.55790 1.13081
 H2195 H 0.55257 0.55248 1.11448
 C2196 C 0.57261 0.57246 1.17258
 C2197 C 0.44185 0.36949 1.05836
 H2198 H 0.44722 0.38585 1.05302
 C2199 C 0.42740 0.32765 1.07273
 C2200 C 0.55796 0.63027 1.05849
 H2201 H 0.55254 0.61395 1.05307
 C2202 C 0.57252 0.67200 1.07305
 C2203 C 0.36948 0.44188 1.05841
 H2204 H 0.38582 0.44727 1.05303
 C2205 C 0.32769 0.42739 1.07289
 C2206 C 0.63031 0.55783 1.05843
 H2207 H 0.61394 0.55248 1.05308
 C2208 C 0.67217 0.57221 1.07280
 C2209 C 1.11849 1.11771 1.28695
 C2210 C 1.11120 1.11055 1.26967
 C2211 C 1.10278 1.10234 1.24931
 C2212 C 1.09572 1.09546 1.23182
 C2213 C 1.08761 1.08754 1.21123
 C2214 C 1.08084 1.08088 1.19354
 C2215 C 1.11800 0.61711 0.78715
 C2216 C 1.11078 0.60994 0.76985
 C2217 C 1.10246 0.60173 0.74946
 C2218 C 1.09548 0.59485 0.73194
 C2219 C 1.08747 0.58695 0.71130
 C2220 C 1.08078 0.58032 0.69357
 C2221 C 0.61895 1.11815 0.78638
 C2222 C 0.61160 1.11091 0.76916
 C2223 C 0.60308 1.10260 0.74887
 C2224 C 0.59593 1.09564 0.73145
 C2225 C 0.58770 1.08762 0.71093
 C2226 C 0.58083 1.08089 0.69331
 C2227 C 0.61751 0.61727 1.28742
 C2228 C 0.61030 0.61007 1.27012
 C2229 C 0.60202 0.60180 1.24973
 C2230 C 0.59508 0.59487 1.23222
 C2231 C 0.58710 0.58691 1.21159
 C2232 C 0.58042 0.58025 1.19387
 C2233 C 0.88228 0.88223 1.28701
 C2234 C 0.88950 0.88948 1.26973
 C2235 C 0.89780 0.89782 1.24938
 C2236 C 0.90476 0.90481 1.23190
 C2237 C 0.91275 0.91285 1.21130
 C2238 C 0.91945 0.91957 1.19361
 C2239 C 0.88103 0.38199 0.78665
 C2240 C 0.88840 0.38921 0.76942
 C2241 C 0.89694 0.39748 0.74913
 C2242 C 0.90411 0.40440 0.73171
 C2243 C 0.91237 0.41236 0.71118
 C2244 C 0.91925 0.41906 0.69355
 C2245 C 0.38189 0.88275 0.78689
 C2246 C 0.38913 0.88991 0.76959
 C2247 C 0.39747 0.89812 0.74921
 C2248 C 0.40447 0.90500 0.73170
 C2249 C 0.41250 0.91290 0.71107
 C2250 C 0.41921 0.91953 0.69335
 C2251 C 0.38158 0.38241 1.28719
 C2252 C 0.38886 0.38959 1.26991
 C2253 C 0.39726 0.39781 1.24955
 C2254 C 0.40432 0.40470 1.23207
 C2255 C 0.41243 0.41262 1.21147
 C2256 C 0.41920 0.41927 1.19378
 C2257 C 0.88210 1.11766 0.71286
 C2258 C 0.88932 1.11046 0.73016
 C2259 C 0.89763 1.10220 0.75055
 C2260 C 0.90461 1.09529 0.76806
 C2261 C 0.91262 1.08734 0.78869
 C2262 C 0.91933 1.08069 0.80641
 C2263 C 0.88363 0.61646 0.21218
 C2264 C 0.89076 0.60931 0.22954
 C2265 C 0.89892 0.60111 0.25000
 C2266 C 0.90575 0.59425 0.26759
 C2267 C 0.91358 0.58638 0.28831
 C2268 C 0.92014 0.57980 0.30610
 C2269 C 0.38257 1.11649 0.21208
 C2270 C 0.38976 1.10941 0.22943
 C2271 C 0.39805 1.10131 0.24989
 C2272 C 0.40499 1.09454 0.26746
 C2273 C 0.41295 1.08677 0.28817
 C2274 C 0.41960 1.08025 0.30596
 C2275 C 0.38214 0.61718 0.71298
 C2276 C 0.38938 0.61003 0.73028
 C2277 C 0.39772 0.60181 0.75068
 C2278 C 0.40471 0.59494 0.76820
 C2279 C 0.41272 0.58704 0.78884
 C2280 C 0.41942 0.58041 0.80657
 C2281 C 1.11646 0.88348 0.71226
 C2282 C 1.10937 0.89059 0.72965
 C2283 C 1.10124 0.89875 0.75014
 C2284 C 1.09443 0.90559 0.76774
 C2285 C 1.08662 0.91344 0.78848
 C2286 C 1.08008 0.92000 0.80629
 C2287 C 1.11751 0.38335 0.21237
 C2288 C 1.11032 0.39043 0.22972
 C2289 C 1.10204 0.39853 0.25018
 C2290 C 1.09511 0.40530 0.26775
 C2291 C 1.08715 0.41308 0.28846
 C2292 C 1.08052 0.41961 0.30625
 C2293 C 0.61743 0.88248 0.21254
 C2294 C 0.61021 0.88969 0.22984
 C2295 C 0.60192 0.89798 0.25022
 C2296 C 0.59498 0.90492 0.26772
 C2297 C 0.58700 0.91290 0.28835
 C2298 C 0.58031 0.91957 0.30607
 C2299 C 0.61793 0.38201 0.71323
 C2300 C 0.61070 0.38921 0.73052
 C2301 C 0.60237 0.39750 0.75089
 C2302 C 0.59539 0.40445 0.76839
 C2303 C 0.58736 0.41244 0.78899
 C2304 C 0.58063 0.41913 0.80669
 C2305 C 1.28745 1.11724 1.11681
 C2306 C 1.27008 1.11012 1.10971
 C2307 C 1.24963 1.10192 1.10157
 C2308 C 1.23206 1.09504 1.09475
 C2309 C 1.21138 1.08713 1.08692
 C2310 C 1.19362 1.08050 1.08035
 C2311 C 1.28715 0.61762 0.61754
 C2312 C 1.26986 0.61040 0.61035
 C2313 C 1.24950 0.60209 0.60210
 C2314 C 1.23201 0.59512 0.59518
 C2315 C 1.21140 0.58711 0.58722
 C2316 C 1.19371 0.58041 0.58055
 C2317 C 0.78663 1.11734 0.61787
 C2318 C 0.76935 1.11018 0.61062
 C2319 C 0.74899 1.10195 0.60228
 C2320 C 0.73150 1.09505 0.59529
 C2321 C 0.71089 1.08713 0.58726
 C2322 C 0.69320 1.08048 0.58054
 C2323 C 0.78748 0.61668 1.11651
 C2324 C 0.77010 0.60954 1.10947
 C2325 C 0.74963 0.60132 1.10142
 C2326 C 0.73204 0.59442 1.09468
 C2327 C 0.71133 0.58651 1.08694
 C2328 C 0.69354 0.57990 1.08044
 C2329 C 1.28691 0.88233 0.88234
 C2330 C 1.26961 0.88955 0.88954
 C2331 C 1.24924 0.89786 0.89781
 C2332 C 1.23174 0.90482 0.90475
 C2333 C 1.21113 0.91282 0.91273
 C2334 C 1.19343 0.91952 0.91942
 C2335 C 1.28708 0.38233 0.38167
 C2336 C 1.26979 0.38949 0.38895
 C2337 C 1.24943 0.39769 0.39735
 C2338 C 1.23194 0.40456 0.40441
 C2339 C 1.21134 0.41246 0.41251
 C2340 C 1.19365 0.41911 0.41928
 C2341 C 0.78673 0.88257 0.38188
 C2342 C 0.76944 0.88975 0.38910
 C2343 C 0.74906 0.89800 0.39742
 C2344 C 0.73156 0.90490 0.40440
 C2345 C 0.71094 0.91284 0.41241
 C2346 C 0.69322 0.91949 0.41911
 C2347 C 0.78643 0.38191 0.88111
 C2348 C 0.76919 0.38911 0.88846
 C2349 C 0.74889 0.39736 0.89698
 C2350 C 0.73146 0.40427 0.90414
 C2351 C 0.71093 0.41222 0.91238
 C2352 C 0.69329 0.41891 0.91925
 C2353 C 0.71301 0.88283 1.11773
 C2354 C 0.73030 0.89002 1.11054
 C2355 C 0.75068 0.89828 1.10228
 C2356 C 0.76818 0.90521 1.09536
 C2357 C 0.78880 0.91317 1.08740
 C2358 C 0.80651 0.91983 1.08073
 C2359 C 0.71340 0.38245 0.61823
 C2360 C 0.73067 0.38962 0.61097
 C2361 C 0.75102 0.39786 0.60260
 C2362 C 0.76850 0.40475 0.59558
 C2363 C 0.78909 0.41268 0.58752
 C2364 C 0.80678 0.41933 0.58078
 C2365 C 0.21234 0.88344 0.61628
 C2366 C 0.22970 0.89055 0.60918
 C2367 C 0.25017 0.89871 0.60104
 C2368 C 0.26775 0.90555 0.59423
 C2369 C 0.28846 0.91339 0.58641
 C2370 C 0.30625 0.91996 0.57986
 C2371 C 0.21259 0.38278 1.11706
 C2372 C 0.22995 0.38993 1.10997
 C2373 C 0.25039 0.39816 1.10183
 C2374 C 0.26794 0.40507 1.09501
 C2375 C 0.28861 0.41301 1.08718
 C2376 C 0.30637 0.41965 1.08060
 C2377 C 0.71349 1.11819 0.88090
 C2378 C 0.73072 1.11098 0.88826
 C2379 C 0.75102 1.10272 0.89679
 C2380 C 0.76844 1.09581 0.90396
 C2381 C 0.78897 1.08784 0.91220
 C2382 C 0.80660 1.08115 0.91907
 C2383 C 0.71309 0.61693 0.38226
 C2384 C 0.73041 0.60977 0.38946
 C2385 C 0.75081 0.60156 0.39774
 C2386 C 0.76834 0.59468 0.40469
 C2387 C 0.78899 0.58678 0.41266
 C2388 C 0.80672 0.58016 0.41933
 C2389 C 0.21302 1.11758 0.38140
 C2390 C 0.23030 1.11040 0.38867
 C2391 C 0.25066 1.10217 0.39706
 C2392 C 0.26814 1.09528 0.40411
 C2393 C 0.28874 1.08736 0.41222
 C2394 C 0.30643 1.08071 0.41899
 C2395 C 0.21296 0.61767 0.88263
 C2396 C 0.23026 0.61047 0.88982
 C2397 C 0.25065 0.60219 0.89809
 C2398 C 0.26816 0.59524 0.90501
 C2399 C 0.28878 0.58726 0.91298
 C2400 C 0.30649 0.58057 0.91965
 C2401 C 1.11756 1.28751 1.11643
 C2402 C 1.11035 1.27018 1.10936
 C2403 C 1.10202 1.24976 1.10128
 C2404 C 1.09503 1.23222 1.09453
 C2405 C 1.08700 1.21156 1.08677
 C2406 C 1.08032 1.19380 1.08026
 C2407 C 1.11659 0.78747 0.61641
 C2408 C 1.10951 0.77008 0.60933
 C2409 C 1.10139 0.74959 0.60122
 C2410 C 1.09459 0.73200 0.59442
 C2411 C 1.08678 0.71127 0.58662
 C2412 C 1.08025 0.69346 0.58008
 C2413 C 0.61740 1.28671 0.61810
 C2414 C 0.61019 1.26946 0.61083
 C2415 C 0.60192 1.24913 0.60245
 C2416 C 0.59498 1.23167 0.59542
 C2417 C 0.58702 1.21110 0.58735
 C2418 C 0.58034 1.19343 0.58060
 C2419 C 0.61720 0.78685 1.11777
 C2420 C 0.61004 0.76954 1.11059
 C2421 C 0.60180 0.74915 1.10234
 C2422 C 0.59489 0.73164 1.09543
 C2423 C 0.58696 0.71100 1.08749
 C2424 C 0.58031 0.69329 1.08083
 C2425 C 0.88157 1.28666 0.88170
 C2426 C 0.88887 1.26944 0.88899
 C2427 C 0.89727 1.24915 0.89738
 C2428 C 0.90430 1.23172 0.90440
 C2429 C 0.91238 1.21118 0.91248
 C2430 C 0.91914 1.19353 0.91924
 C2431 C 0.88269 0.78663 0.38186
 C2432 C 0.88987 0.76934 0.38910
 C2433 C 0.89811 0.74897 0.39744
 C2434 C 0.90502 0.73148 0.40444
 C2435 C 0.91295 0.71087 0.41248
 C2436 C 0.91961 0.69317 0.41920
 C2437 C 0.38211 1.28701 0.38215
 C2438 C 0.38933 1.26973 0.38937
 C2439 C 0.39763 1.24936 0.39766
 C2440 C 0.40458 1.23187 0.40461
 C2441 C 0.41256 1.21125 0.41258
 C2442 C 0.41923 1.19354 0.41926
 C2443 C 0.38190 0.78688 0.88290
 C2444 C 0.38915 0.76959 0.89007
 C2445 C 0.39751 0.74922 0.89830
 C2446 C 0.40452 0.73173 0.90518
 C2447 C 0.41257 0.71112 0.91310
 C2448 C 0.41929 0.69341 0.91974
 C2449 C 1.11794 0.71309 0.88303
 C2450 C 1.11069 0.73040 0.89016
 C2451 C 1.10234 0.75078 0.89834
 C2452 C 1.09533 0.76830 0.90519
 C2453 C 1.08729 0.78893 0.91306
 C2454 C 1.08058 0.80665 0.91968
 C2455 C 1.11802 0.21293 0.38212
 C2456 C 1.11080 0.23019 0.38938
 C2457 C 1.10250 0.25053 0.39773
 C2458 C 1.09555 0.26801 0.40472
 C2459 C 1.08756 0.28860 0.41275
 C2460 C 1.08087 0.30629 0.41946
 C2461 C 0.61712 0.71286 0.38223
 C2462 C 0.60996 0.73018 0.38941
 C2463 C 0.60173 0.75058 0.39768
 C2464 C 0.59484 0.76811 0.40460
 C2465 C 0.58692 0.78875 0.41255
 C2466 C 0.58028 0.80649 0.41921
 C2467 C 0.61834 0.21342 0.88154
 C2468 C 0.61104 0.23062 0.88888
 C2469 C 0.60265 0.25088 0.89733
 C2470 C 0.59563 0.26829 0.90442
 C2471 C 0.58756 0.28881 0.91257
 C2472 C 0.58080 0.30644 0.91938
 C2473 C 0.88330 0.71266 1.11653
 C2474 C 0.89042 0.73004 1.10948
 C2475 C 0.89860 0.75052 1.10140
 C2476 C 0.90547 0.76810 1.09464
 C2477 C 0.91335 0.78882 1.08687
 C2478 C 0.91994 0.80661 1.08035
 C2479 C 0.88267 0.21308 0.61789
 C2480 C 0.88989 0.23035 0.61069
 C2481 C 0.89819 0.25070 0.60240
 C2482 C 0.90515 0.26819 0.59545
 C2483 C 0.91313 0.28878 0.58747
 C2484 C 0.91981 0.30648 0.58078
 C2485 C 0.38200 0.71307 0.61698
 C2486 C 0.38923 0.73035 0.60982
 C2487 C 0.39756 0.75072 0.60160
 C2488 C 0.40455 0.76822 0.59473
 C2489 C 0.41258 0.78883 0.58683
 C2490 C 0.41929 0.80653 0.58020
 C2491 C 0.38248 0.21249 1.11632
 C2492 C 0.38969 0.22984 1.10929
 C2493 C 0.39801 0.25028 1.10126
 C2494 C 0.40499 0.26785 1.09456
 C2495 C 0.41299 0.28854 1.08685
 C2496 C 0.41966 0.30631 1.08037
 C2497 C 1.11795 1.11882 0.71337
 C2498 C 1.11073 1.11151 0.73063
 C2499 C 1.10243 1.10307 0.75095
 C2500 C 1.09547 1.09599 0.76839
 C2501 C 1.08747 1.08784 0.78895
 C2502 C 1.08075 1.08103 0.80660
 C2503 C 1.11804 0.61896 0.21336
 C2504 C 1.11084 0.61158 0.23059
 C2505 C 1.10261 0.60303 0.25089
 C2506 C 1.09571 0.59585 0.26832
 C2507 C 1.08778 0.58760 0.28885
 C2508 C 1.08110 0.58072 0.30649
 C2509 C 0.61770 1.11856 0.21298
 C2510 C 0.61047 1.11127 0.23024
 C2511 C 0.60217 1.10286 0.25056
 C2512 C 0.59522 1.09580 0.26802
 C2513 C 0.58722 1.08769 0.28858
 C2514 C 0.58051 1.08091 0.30625
 C2515 C 0.61681 0.61673 0.71276
 C2516 C 0.60968 0.60960 0.73012
 C2517 C 0.60150 0.60140 0.75057
 C2518 C 0.59464 0.59454 0.76814
 C2519 C 0.58676 0.58666 0.78884
 C2520 C 0.58017 0.58007 0.80661
 C2521 C 0.88309 0.88317 0.71267
 C2522 C 0.89022 0.89032 0.73002
 C2523 C 0.89840 0.89853 0.75047
 C2524 C 0.90525 0.90540 0.76804
 C2525 C 0.91312 0.91330 0.78873
 C2526 C 0.91971 0.91991 0.80651
 C2527 C 0.88223 0.38118 0.21323
 C2528 C 0.88949 0.38846 0.23048
 C2529 C 0.89781 0.39686 0.25080
 C2530 C 0.90479 0.40391 0.26825
 C2531 C 0.91281 0.41202 0.28881
 C2532 C 0.91953 0.41881 0.30647
 C2533 C 0.38220 0.88141 0.21287
 C2534 C 0.38939 0.88874 0.23013
 C2535 C 0.39763 0.89721 0.25045
 C2536 C 0.40452 0.90432 0.26791
 C2537 C 0.41245 0.91248 0.28848
 C2538 C 0.41912 0.91929 0.30616
 C2539 C 0.38342 0.38226 0.71285
 C2540 C 0.39050 0.38947 0.73019
 C2541 C 0.39860 0.39781 0.75062
 C2542 C 0.40538 0.40480 0.76817
 C2543 C 0.41316 0.41282 0.78885
 C2544 C 0.41971 0.41952 0.80661
 C2545 C 1.11722 0.88260 1.28745
 C2546 C 1.11008 0.88981 1.27013
 C2547 C 1.10188 0.89812 1.24972
 C2548 C 1.09503 0.90509 1.23218
 C2549 C 1.08715 0.91309 1.21153
 C2550 C 1.08053 0.91978 1.19378
 C2551 C 1.11748 0.38271 0.78754
 C2552 C 1.11034 0.38988 0.77018
 C2553 C 1.10214 0.39812 0.74974
 C2554 C 1.09527 0.40502 0.73219
 C2555 C 1.08737 0.41294 0.71151
 C2556 C 1.08074 0.41956 0.69375
 C2557 C 0.61667 0.88309 0.78739
 C2558 C 0.60952 0.89021 0.77003
 C2559 C 0.60132 0.89839 0.74958
 C2560 C 0.59445 0.90524 0.73200
 C2561 C 0.58657 0.91311 0.71130
 C2562 C 0.57997 0.91970 0.69352
 C2563 C 0.61751 0.38256 1.28762
 C2564 C 0.61030 0.38973 1.27030
 C2565 C 0.60201 0.39794 1.24989
 C2566 C 0.59505 0.40482 1.23236
 C2567 C 0.58706 0.41272 1.21171
 C2568 C 0.58038 0.41935 1.19397
 C2569 C 0.88376 1.11623 1.28818
 C2570 C 0.89086 1.10919 1.27077
 C2571 C 0.89900 1.10112 1.25025
 C2572 C 0.90581 1.09438 1.23262
 C2573 C 0.91362 1.08664 1.21184
 C2574 C 0.92015 1.08016 1.19400
 C2575 C 0.88317 0.61686 0.78751
 C2576 C 0.89034 0.60972 0.77017
 C2577 C 0.89856 0.60152 0.74973
 C2578 C 0.90545 0.59465 0.73217
 C2579 C 0.91335 0.58676 0.71148
 C2580 C 0.91996 0.58016 0.69371
 C2581 C 0.38290 1.11797 0.78711
 C2582 C 0.39002 1.11070 0.76980
 C2583 C 0.39816 1.10232 0.74940
 C2584 C 0.40497 1.09528 0.73187
 C2585 C 0.41280 1.08722 0.71123
 C2586 C 0.41938 1.08049 0.69349
 C2587 C 0.38221 0.61862 1.28711
 C2588 C 0.38942 0.61128 1.26986
 C2589 C 0.39767 0.60280 1.24954
 C2590 C 0.40458 0.59568 1.23209
 C2591 C 0.41253 0.58750 1.21152
 C2592 C 0.41920 0.58068 1.19385
 C2593 C 1.11688 1.28729 0.88252
 C2594 C 1.10974 1.26998 0.88970
 C2595 C 1.10154 1.24958 0.89797
 C2596 C 1.09469 1.23205 0.90491
 C2597 C 1.08682 1.21140 0.91287
 C2598 C 1.08022 1.19367 0.91953
 C2599 C 1.11695 0.78698 0.38228
 C2600 C 1.10985 0.76965 0.38947
 C2601 C 1.10171 0.74923 0.39776
 C2602 C 1.09489 0.73170 0.40472
 C2603 C 1.08706 0.71104 0.41271
 C2604 C 1.08049 0.69331 0.41938
 C2605 C 0.61704 1.28712 0.38254
 C2606 C 0.60986 1.26982 0.38971
 C2607 C 0.60161 1.24943 0.39795
 C2608 C 0.59470 1.23191 0.40485
 C2609 C 0.58677 1.21128 0.41278
 C2610 C 0.58013 1.19355 0.41941
 C2611 C 0.61685 0.78720 0.88339
 C2612 C 0.60973 0.76986 0.89052
 C2613 C 0.60153 0.74943 0.89870
 C2614 C 0.59466 0.73187 0.90554
 C2615 C 0.58676 0.71120 0.91340
 C2616 C 0.58015 0.69344 0.91998
 C2617 C 0.88212 1.28678 1.11868
 C2618 C 0.88933 1.26953 1.11137
 C2619 C 0.89762 1.24921 1.10294
 C2620 C 0.90456 1.23176 1.09587
 C2621 C 0.91254 1.21120 1.08773
 C2622 C 0.91924 1.19355 1.08094
 C2623 C 0.88315 0.78716 0.61678
 C2624 C 0.89029 0.76981 0.60966
 C2625 C 0.89849 0.74936 0.60149
 C2626 C 0.90536 0.73180 0.59464
 C2627 C 0.91325 0.71111 0.58677
 C2628 C 0.91985 0.69334 0.58019
 C2629 C 0.38286 1.28727 0.61737
 C2630 C 0.38997 1.26992 0.61019
 C2631 C 0.39811 1.24949 0.60191
 C2632 C 0.40494 1.23194 0.59496
 C2633 C 0.41278 1.21128 0.58699
 C2634 C 0.41937 1.19353 0.58032
 C2635 C 0.38209 0.78669 1.11863
 C2636 C 0.38929 0.76940 1.11138
 C2637 C 0.39757 0.74905 1.10302
 C2638 C 0.40450 0.73158 1.09600
 C2639 C 0.41248 0.71100 1.08792
 C2640 C 0.41917 0.69332 1.08116
 C2641 C 0.88297 0.71288 0.88337
 C2642 C 0.89011 0.73022 0.89048
 C2643 C 0.89833 0.75066 0.89863
 C2644 C 0.90522 0.76822 0.90545
 C2645 C 0.91313 0.78890 0.91329
 C2646 C 0.91974 0.80666 0.91986
 C2647 C 0.88364 0.21211 0.38408
 C2648 C 0.89075 0.22950 0.39111
 C2649 C 0.89894 0.24999 0.39915
 C2650 C 0.90581 0.26759 0.40587
 C2651 C 0.91368 0.28833 0.41358
 C2652 C 0.92025 0.30614 0.42005
 C2653 C 0.38198 0.71336 0.38134
 C2654 C 0.38918 0.73063 0.38858
 C2655 C 0.39747 0.75097 0.39694
 C2656 C 0.40442 0.76843 0.40396
 C2657 C 0.41241 0.78899 0.41203
 C2658 C 0.41912 0.80665 0.41879
 C2659 C 0.38235 0.21301 0.88253
 C2660 C 0.38953 0.23031 0.88973
 C2661 C 0.39779 0.25068 0.89801
 C2662 C 0.40472 0.26818 0.90495
 C2663 C 0.41269 0.28879 0.91293
 C2664 C 0.41937 0.30648 0.91961
 C2665 C 1.11813 0.71367 1.11904
 C2666 C 1.11091 0.73093 1.11172
 C2667 C 1.10264 0.75124 1.10327
 C2668 C 1.09570 0.76868 1.09616
 C2669 C 1.08771 0.78922 1.08798
 C2670 C 1.08100 0.80687 1.08115
 C2671 C 1.11798 0.21330 0.61887
 C2672 C 1.11079 0.23056 0.61155
 C2673 C 1.10254 0.25089 0.60310
 C2674 C 1.09564 0.26834 0.59599
 C2675 C 1.08769 0.28890 0.58782
 C2676 C 1.08101 0.30656 0.58100
 C2677 C 0.61679 0.71264 0.61677
 C2678 C 0.60966 0.72999 0.60963
 C2679 C 0.60147 0.75043 0.60142
 C2680 C 0.59461 0.76799 0.59455
 C2681 C 0.58673 0.78867 0.58666
 C2682 C 0.58013 0.80643 0.58005
 C2683 C 0.61775 0.21312 1.11860
 C2684 C 0.61053 0.23039 1.11133
 C2685 C 0.60224 0.25073 1.10296
 C2686 C 0.59530 0.26819 1.09593
 C2687 C 0.58732 0.28877 1.08784
 C2688 C 0.58063 0.30644 1.08108
 C2689 C 1.28705 1.11801 0.88307
 C2690 C 1.26976 1.11076 0.89020
 C2691 C 1.24938 1.10239 0.89835
 C2692 C 1.23187 1.09537 0.90517
 C2693 C 1.21125 1.08731 0.91300
 C2694 C 1.19353 1.08060 0.91958
 C2695 C 1.28683 0.61821 0.38207
 C2696 C 1.26960 0.61090 0.38930
 C2697 C 1.24930 0.60247 0.39759
 C2698 C 1.23187 0.59540 0.40453
 C2699 C 1.21132 0.58727 0.41251
 C2700 C 1.19367 0.58049 0.41921
 C2701 C 0.78759 1.11639 0.38385
 C2702 C 0.77017 1.10932 0.39085
 C2703 C 0.74965 1.10119 0.39887
 C2704 C 0.73202 1.09438 0.40559
 C2705 C 0.71126 1.08656 0.41330
 C2706 C 0.69344 1.08002 0.41977
 C2707 C 0.78714 0.61692 0.88337
 C2708 C 0.76980 0.60977 0.89049
 C2709 C 0.74938 0.60153 0.89866
 C2710 C 0.73183 0.59463 0.90549
 C2711 C 0.71116 0.58670 0.91335
 C2712 C 0.69341 0.58007 0.91994
 C2713 C 1.28682 0.88186 1.11790
 C2714 C 1.26958 0.88915 1.11067
 C2715 C 1.24925 0.89755 1.10237
 C2716 C 1.23179 0.90460 1.09543
 C2717 C 1.21122 0.91270 1.08745
 C2718 C 1.19355 0.91946 1.08077
 C2719 C 1.28763 0.38241 0.61680
 C2720 C 1.27031 0.38961 0.60968
 C2721 C 1.24989 0.39790 0.60151
 C2722 C 1.23235 0.40485 0.59469
 C2723 C 1.21168 0.41281 0.58685
 C2724 C 1.19392 0.41947 0.58028
 C2725 C 0.78717 0.88308 0.61669
 C2726 C 0.76982 0.89021 0.60955
 C2727 C 0.74937 0.89839 0.60136
 C2728 C 0.73180 0.90525 0.59450
 C2729 C 0.71111 0.91313 0.58663
 C2730 C 0.69333 0.91972 0.58004
 C2731 C 0.78667 0.38173 1.11837
 C2732 C 0.76941 0.38898 1.11113
 C2733 C 0.74908 0.39733 1.10279
 C2734 C 0.73161 0.40432 1.09579
 C2735 C 0.71104 0.41234 1.08775
 C2736 C 0.69336 0.41906 1.08102
 C2737 C 0.71324 1.11820 1.11811
 C2738 C 0.73050 1.11096 1.11088
 C2739 C 0.75085 1.10263 1.10255
 C2740 C 0.76832 1.09565 1.09558
 C2741 C 0.78890 1.08763 1.08756
 C2742 C 0.80659 1.08092 1.08084
 C2743 C 0.71277 0.61673 0.61682
 C2744 C 0.73013 0.60961 0.60970
 C2745 C 0.75058 0.60142 0.60151
 C2746 C 0.76815 0.59457 0.59466
 C2747 C 0.78884 0.58669 0.58679
 C2748 C 0.80662 0.58010 0.58021
 C2749 C 0.21325 1.11820 0.61824
 C2750 C 0.23047 1.11093 0.61094
 C2751 C 0.25077 1.10259 0.60252
 C2752 C 0.26821 1.09559 0.59546
 C2753 C 0.28875 1.08756 0.58735
 C2754 C 0.30640 1.08083 0.58058
 C2755 C 0.21337 0.61849 1.11834
 C2756 C 0.23059 0.61117 1.11109
 C2757 C 0.25089 0.60274 1.10275
 C2758 C 0.26833 0.59566 1.09578
 C2759 C 0.28887 0.58754 1.08777
 C2760 C 0.30653 0.58075 1.08105
 C2761 C 0.71265 0.88317 0.88331
 C2762 C 0.72999 0.89033 0.89042
 C2763 C 0.75042 0.89856 0.89858
 C2764 C 0.76797 0.90546 0.90542
 C2765 C 0.78864 0.91338 0.91327
 C2766 C 0.80640 0.92000 0.91985
 C2767 C 0.71310 0.38280 0.38247
 C2768 C 0.73043 0.38991 0.38966
 C2769 C 0.75084 0.39808 0.39794
 C2770 C 0.76837 0.40492 0.40488
 C2771 C 0.78902 0.41278 0.41285
 C2772 C 0.80675 0.41938 0.41952
 C2773 C 0.21264 0.88301 0.38239
 C2774 C 0.22996 0.89017 0.38956
 C2775 C 0.25036 0.89839 0.39780
 C2776 C 0.26789 0.90527 0.40470
 C2777 C 0.28854 0.91318 0.41262
 C2778 C 0.30628 0.91979 0.41925
 C2779 C 0.21276 0.38312 0.88266
 C2780 C 0.23007 0.39025 0.88987
 C2781 C 0.25047 0.39842 0.89816
 C2782 C 0.26800 0.40527 0.90511
 C2783 C 0.28864 0.41313 0.91308
 C2784 C 0.30638 0.41972 0.91975
   
