data_POSCAR
  _audit_creation_date              2014-09-24
  _audit_creation_method            'ToBaCCo'
  _symmetry_space_group_name_H-M    'P1'
  _symmetry_Int_Tables_number       1
  _symmetry_cell_setting            triclinic
  loop_
  _symmetry_equiv_pos_as_xyz
 x,y,z
_cell_length_a 39.6456
_cell_length_b 41.8224
_cell_length_c 42.7393
_cell_angle_alpha 89.588100
_cell_angle_beta 90.069400
_cell_angle_gamma 90.108400
loop_
  _atom_site_label
  _atom_site_type_symbol
  _atom_site_fract_x
  _atom_site_fract_y
  _atom_site_fract_z
Zr1 Zr 0.26263 0.26651 0.31127
 O2 O 0.28422 0.29238 0.34875
 O3 O 0.23097 0.23437 0.33508
 O4 O 0.22603 0.29318 0.33538
 O5 O 0.33011 0.21480 0.30284
 O6 O 0.19864 0.32109 0.29698
 O7 O 0.29528 0.23816 0.33853
 O8 O 0.20522 0.20726 0.29554
 O9 O 0.22014 0.26529 0.28222
 O10 O 0.26785 0.22571 0.28370
 O11 O 0.26363 0.30984 0.28608
 O12 O 0.30945 0.27161 0.28826
 Zr13 Zr 0.27257 0.27287 0.20286
 Zr14 Zr 0.22260 0.30728 0.25525
 Zr15 Zr 0.31274 0.23165 0.25885
 Zr16 Zr 0.22668 0.22552 0.25372
 O17 O 0.36548 0.23868 0.26215
 O18 O 0.17362 0.23032 0.24963
 O19 O 0.27170 0.22899 0.22777
 O20 O 0.22631 0.26723 0.22635
 O21 O 0.26745 0.31393 0.23011
 O22 O 0.31460 0.27377 0.23247
 C23 C 0.21018 0.21335 0.32474
 C24 C 0.31995 0.21980 0.33109
 C25 C 0.20368 0.31328 0.32580
 O26 O 0.17007 0.30012 0.24993
 O27 O 0.20678 0.32643 0.21194
 O28 O 0.24110 0.30314 0.17592
 C29 C 0.21671 0.32178 0.18366
 O30 O 0.32634 0.33051 0.30452
 Zr31 Zr 0.30853 0.31349 0.26075
 O32 O 0.30450 0.30546 0.17952
 O33 O 0.22346 0.35773 0.25849
 O34 O 0.29694 0.36294 0.26224
 O35 O 0.36192 0.31087 0.26247
 O36 O 0.32730 0.33445 0.21935
 C37 C 0.32357 0.32782 0.19024
 O38 O 0.24987 0.24858 0.16491
 O39 O 0.31164 0.18111 0.25753
 O40 O 0.30700 0.24415 0.17842
 O41 O 0.33453 0.21573 0.21646
 O42 O 0.23595 0.17560 0.25478
 O43 O 0.21268 0.20476 0.21034
 C44 C 0.32893 0.22347 0.18761
 H45 H 0.26842 0.20561 0.29606
 H46 H 0.20727 0.26612 0.21139
 H47 H 0.33629 0.27514 0.22110
 H48 H 0.26180 0.32842 0.30019
 H49 H 0.16352 0.20910 0.25416
 H50 H 0.15940 0.32151 0.25079
 H51 H 0.19981 0.36505 0.25634
 H52 H 0.31821 0.37488 0.25861
 H53 H 0.21402 0.16474 0.25832
 H54 H 0.33528 0.17383 0.25994
 H55 H 0.37593 0.21720 0.26140
 H56 H 0.37082 0.33278 0.25898
 H57 H 0.19406 0.18932 0.21378
 H58 H 0.25936 0.25777 0.14532
 H59 H 0.27486 0.28339 0.36847
 H60 H 0.34029 0.34988 0.30112
 Zr61 Zr 0.74140 0.73355 0.30563
 O62 O 0.71966 0.70953 0.34451
 O63 O 0.77644 0.76353 0.32754
 O64 O 0.77677 0.70460 0.32899
 O65 O 0.67745 0.78915 0.29853
 O66 O 0.79970 0.67388 0.29056
 O67 O 0.71239 0.76418 0.33346
 O68 O 0.80275 0.78830 0.28657
 O69 O 0.78251 0.73119 0.27510
 O70 O 0.73837 0.77445 0.27738
 O71 O 0.73556 0.69023 0.28164
 O72 O 0.69327 0.73200 0.28458
 Zr73 Zr 0.72581 0.72729 0.19810
 Zr74 Zr 0.77520 0.68929 0.24926
 Zr75 Zr 0.69206 0.77180 0.25430
 Zr76 Zr 0.77808 0.77119 0.24599
 O77 O 0.63898 0.76913 0.25877
 O78 O 0.83032 0.76216 0.24031
 O79 O 0.73175 0.77110 0.22179
 O80 O 0.77352 0.72937 0.21963
 O81 O 0.72870 0.68616 0.22611
 O82 O 0.68523 0.72979 0.22911
 C83 C 0.79839 0.78291 0.31605
 C84 C 0.68843 0.78362 0.32648
 C85 C 0.79669 0.68258 0.31929
 O86 O 0.82785 0.69222 0.24174
 O87 O 0.78694 0.66861 0.20562
 O88 O 0.75311 0.69478 0.17065
 C89 C 0.77597 0.67417 0.17769
 O90 O 0.67219 0.67512 0.30318
 Zr91 Zr 0.68929 0.68999 0.25825
 O92 O 0.69062 0.69648 0.17693
 O93 O 0.77012 0.63910 0.25370
 O94 O 0.69642 0.63979 0.26082
 O95 O 0.63643 0.69686 0.26171
 O96 O 0.66702 0.66997 0.21833
 C97 C 0.67041 0.67561 0.18894
 O98 O 0.74858 0.74953 0.15871
 O99 O 0.69742 0.82212 0.25268
 O100 O 0.69284 0.75832 0.17415
 O101 O 0.67051 0.78973 0.21235
 O102 O 0.77318 0.82168 0.24599
 O103 O 0.79197 0.79033 0.20162
 C104 C 0.67386 0.78123 0.18355
 H105 H 0.73994 0.79458 0.28934
 H106 H 0.79184 0.72890 0.20393
 H107 H 0.66304 0.73004 0.21846
 H108 H 0.73643 0.67170 0.29616
 H109 H 0.84241 0.78256 0.24396
 H110 H 0.83659 0.67005 0.24271
 H111 H 0.79293 0.62994 0.25081
 H112 H 0.67399 0.62958 0.25854
 H113 H 0.79610 0.83084 0.24842
 H114 H 0.67458 0.83117 0.25570
 H115 H 0.63051 0.79140 0.25820
 H116 H 0.62552 0.67567 0.25930
 H117 H 0.81203 0.80423 0.20403
 H118 H 0.73743 0.74099 0.13970
 H119 H 0.73060 0.71796 0.36367
 H120 H 0.65630 0.65699 0.30092
 Zr121 Zr 0.76831 0.22534 -0.29950
 O122 O 0.74105 0.24534 -0.33753
 O123 O 0.80575 0.19915 -0.32307
 O124 O 0.79691 0.25923 -0.32527
 O125 O 0.71230 0.16257 -0.28736
 O126 O 0.81743 0.29301 -0.28813
 O127 O 0.74052 0.19113 -0.32484
 O128 O 0.83976 0.18167 -0.28341
 O129 O 0.81080 0.23387 -0.27167
 O130 O 0.77372 0.18492 -0.27085
 O131 O 0.75755 0.26756 -0.27494
 O132 O 0.72238 0.22074 -0.27471
 Zr133 Zr 0.76091 0.23099 -0.19066
 Zr134 Zr 0.79916 0.27456 -0.24555
 Zr135 Zr 0.72956 0.18151 -0.24448
 Zr136 Zr 0.81479 0.19423 -0.24197
 O137 O 0.67642 0.17669 -0.24368
 O138 O 0.86552 0.21006 -0.23854
 O139 O 0.77117 0.18817 -0.21473
 O140 O 0.80632 0.23532 -0.21564
 O141 O 0.75500 0.27166 -0.21888
 O142 O 0.71856 0.22231 -0.21857
 C143 C 0.83205 0.18460 -0.31247
 C144 C 0.71940 0.16940 -0.31610
 C145 C 0.81378 0.28405 -0.31666
 O146 O 0.85221 0.27915 -0.24221
 O147 O 0.81170 0.29711 -0.20325
 O148 O 0.78565 0.26736 -0.16541
 C149 C 0.80458 0.29067 -0.17451
 O150 O 0.69044 0.27374 -0.29117
 Zr151 Zr 0.71394 0.26189 -0.24789
 O152 O 0.72387 0.25700 -0.16674
 O153 O 0.78596 0.32342 -0.24954
 O154 O 0.71305 0.31249 -0.25142
 O155 O 0.66269 0.24726 -0.24703
 O156 O 0.69292 0.27955 -0.20608
 C157 C 0.69997 0.27499 -0.17696
 O158 O 0.79006 0.21260 -0.15306
 O159 O 0.74240 0.13242 -0.24465
 O160 O 0.73518 0.19588 -0.16453
 O161 O 0.71637 0.16042 -0.20106
 O162 O 0.81746 0.14359 -0.24263
 O163 O 0.83395 0.17728 -0.19845
 C164 C 0.72035 0.16982 -0.17260
 H165 H 0.77717 0.16509 -0.28295
 H166 H 0.82571 0.23856 -0.20138
 H167 H 0.69774 0.21908 -0.20616
 H168 H 0.75433 0.28585 -0.28947
 H169 H 0.88026 0.19137 -0.24232
 H170 H 0.85740 0.30230 -0.24358
 H171 H 0.80724 0.33582 -0.24823
 H172 H 0.68967 0.31951 -0.24706
 H173 H 0.84134 0.13773 -0.24626
 H174 H 0.72089 0.12034 -0.24543
 H175 H 0.67151 0.15348 -0.24240
 H176 H 0.64886 0.26654 -0.24314
 H177 H 0.85518 0.16540 -0.20198
 H178 H 0.77942 0.21979 -0.13332
 H179 H 0.75178 0.23777 -0.35710
 H180 H 0.67178 0.28894 -0.28744
 Zr181 Zr 0.22996 0.77615 -0.29468
 O182 O 0.25308 0.76111 -0.33674
 O183 O 0.19199 0.80575 -0.31359
 O184 O 0.19993 0.74501 -0.32220
 O185 O 0.28589 0.83751 -0.27703
 O186 O 0.18053 0.70761 -0.28746
 O187 O 0.26037 0.81139 -0.31732
 O188 O 0.16116 0.82011 -0.27097
 O189 O 0.18871 0.76495 -0.26588
 O190 O 0.22664 0.81289 -0.26182
 O191 O 0.24077 0.73105 -0.27477
 O192 O 0.27693 0.77706 -0.27128
 Zr193 Zr 0.24321 0.75701 -0.18697
 Zr194 Zr 0.20069 0.72127 -0.24414
 Zr195 Zr 0.27177 0.81223 -0.23676
 Zr196 Zr 0.18703 0.80078 -0.23216
 O197 O 0.32491 0.81662 -0.23913
 O198 O 0.13629 0.78482 -0.22947
 O199 O 0.23196 0.80260 -0.20596
 O200 O 0.19633 0.75681 -0.21022
 O201 O 0.24640 0.72000 -0.21956
 O202 O 0.28378 0.76846 -0.21612
 C203 C 0.16701 0.82022 -0.30058
 C204 C 0.28051 0.83294 -0.30628
 C205 C 0.18330 0.71936 -0.31524
 O206 O 0.14766 0.71742 -0.23990
 O207 O 0.18833 0.69496 -0.20342
 O208 O 0.21925 0.71795 -0.16461
 C209 C 0.19776 0.69724 -0.17461
 O210 O 0.30610 0.72584 -0.29503
 Zr211 Zr 0.28584 0.73275 -0.24955
 O212 O 0.28138 0.72772 -0.16804
 O213 O 0.21266 0.67279 -0.25236
 O214 O 0.28525 0.68277 -0.25757
 O215 O 0.33739 0.74639 -0.25051
 O216 O 0.30971 0.71065 -0.21118
 C217 C 0.30480 0.71158 -0.18146
 O218 O 0.21685 0.77121 -0.14631
 O219 O 0.25933 0.86086 -0.22979
 O220 O 0.27230 0.78788 -0.15879
 O221 O 0.28887 0.82727 -0.19267
 O222 O 0.18621 0.85110 -0.22634
 O223 O 0.16882 0.81231 -0.18686
 C224 C 0.28745 0.81439 -0.16527
 H225 H 0.22321 0.83417 -0.27160
 H226 H 0.17762 0.75233 -0.19551
 H227 H 0.30552 0.76999 -0.20482
 H228 H 0.24294 0.71444 -0.29102
 H229 H 0.12156 0.80388 -0.23118
 H230 H 0.14182 0.69461 -0.24305
 H231 H 0.19115 0.66071 -0.25149
 H232 H 0.30873 0.67497 -0.25539
 H233 H 0.16254 0.85826 -0.22895
 H234 H 0.28078 0.87306 -0.23036
 H235 H 0.33040 0.83935 -0.23506
 H236 H 0.35102 0.72655 -0.24981
 H237 H 0.14760 0.82463 -0.18882
 H238 H 0.22855 0.76146 -0.12806
 H239 H 0.24129 0.77201 -0.35433
 H240 H 0.32398 0.70937 -0.29407
 Zr241 Zr 1.23546 1.24385 0.80385
 O242 O 1.20448 1.22156 0.83795
 O243 O 1.26672 1.27312 0.83169
 O244 O 1.26365 1.21298 0.83302
 O245 O 1.17612 1.30081 0.78418
 O246 O 1.29174 1.18047 0.79918
 O247 O 1.20308 1.27729 0.82555
 O248 O 1.30272 1.29487 0.79586
 O249 O 1.28204 1.23859 0.78132
 O250 O 1.24134 1.28434 0.77553
 O251 O 1.23181 1.20091 0.77838
 O252 O 1.19298 1.24433 0.77384
 Zr253 Zr 1.24317 1.23831 0.69484
 Zr254 Zr 1.27757 1.19713 0.75420
 Zr255 Zr 1.20096 1.28393 0.74444
 Zr256 Zr 1.28669 1.27840 0.75198
 O257 O 1.14824 1.28414 0.73648
 O258 O 1.33826 1.26587 0.75669
 O259 O 1.24665 1.28130 0.71996
 O260 O 1.28518 1.23699 0.72501
 O261 O 1.23728 1.19701 0.72237
 O262 O 1.19678 1.24294 0.71735
 C263 C 1.29173 1.29121 0.82396
 C264 C 1.18126 1.29670 0.81356
 C265 C 1.28375 1.18966 0.82696
 O266 O 1.33087 1.19656 0.75647
 O267 O 1.29677 1.17542 0.71333
 O268 O 1.27315 1.20377 0.67303
 C269 C 1.29227 1.18159 0.68398
 O270 O 1.16363 1.18823 0.78596
 Zr271 Zr 1.19190 1.20287 0.74612
 O272 O 1.21198 1.20994 0.66668
 O273 O 1.26809 1.14743 0.75752
 O274 O 1.19542 1.15239 0.74967
 O275 O 1.14012 1.21346 0.73917
 O276 O 1.17856 1.18374 0.70195
 C277 C 1.18894 1.18953 0.67387
 O278 O 1.27590 1.25873 0.66099
 O279 O 1.20831 1.33404 0.74672
 O280 O 1.21884 1.27245 0.66579
 O281 O 1.19334 1.30547 0.70072
 O282 O 1.28535 1.32910 0.75078
 O283 O 1.31149 1.29609 0.71130
 C284 C 1.20189 1.29767 0.67284
 H285 H 1.24133 1.30456 0.78742
 H286 H 1.30652 1.23524 0.71313
 H287 H 1.17771 1.24479 0.70247
 H288 H 1.22831 1.18243 0.79262
 H289 H 1.35078 1.28550 0.76246
 H290 H 1.33763 1.17387 0.75883
 H291 H 1.29037 1.13678 0.75858
 H292 H 1.17372 1.14333 0.74232
 H293 H 1.30789 1.33696 0.75728
 H294 H 1.18580 1.34413 0.74475
 H295 H 1.14138 1.30683 0.73445
 H296 H 1.12872 1.19332 0.73313
 H297 H 1.33179 1.30834 0.71753
 H298 H 1.26846 1.25105 0.64016
 H299 H 1.21152 1.22993 0.85862
 H300 H 1.14693 1.17180 0.77975
 Zr301 Zr 0.74794 0.75968 0.80914
 O302 O 0.76966 0.77593 0.85146
 O303 O 0.70764 0.73127 0.82590
 O304 O 0.71490 0.78993 0.83393
 O305 O 0.80546 0.69860 0.79786
 O306 O 0.70037 0.82853 0.79840
 O307 O 0.77253 0.72292 0.83440
 O308 O 0.68010 0.71697 0.78122
 O309 O 0.70937 0.77068 0.77744
 O310 O 0.74714 0.72245 0.77679
 O311 O 0.76115 0.80444 0.78972
 O312 O 0.79689 0.75850 0.78950
 Zr313 Zr 0.76956 0.77681 0.70276
 Zr314 Zr 0.72359 0.81409 0.75656
 Zr315 Zr 0.79449 0.72254 0.75556
 Zr316 Zr 0.71010 0.73427 0.74428
 O317 O 0.84729 0.71843 0.76170
 O318 O 0.65985 0.74979 0.73649
 O319 O 0.75709 0.73157 0.72182
 O320 O 0.72119 0.77803 0.72284
 O321 O 0.77087 0.81456 0.73469
 O322 O 0.80800 0.76589 0.73460
 C323 C 0.68331 0.71751 0.81111
 C324 C 0.79453 0.70203 0.82600
 C325 C 0.69961 0.81590 0.82594
 O326 O 0.67109 0.81823 0.74859
 O327 O 0.71515 0.84007 0.71508
 O328 O 0.74727 0.81544 0.67812
 C329 C 0.72585 0.83672 0.68688
 O330 O 0.82553 0.81072 0.81352
 Zr331 Zr 0.80803 0.80238 0.76725
 O332 O 0.80927 0.80495 0.68553
 O333 O 0.73542 0.86258 0.76523
 O334 O 0.80691 0.85249 0.77438
 O335 O 0.85919 0.78829 0.77166
 O336 O 0.83464 0.82392 0.72959
 C337 C 0.83173 0.82177 0.69964
 O338 O 0.74604 0.76217 0.66068
 O339 O 0.78274 0.67367 0.74897
 O340 O 0.79956 0.74466 0.67706
 O341 O 0.81522 0.70687 0.71303
 O342 O 0.70855 0.68377 0.74022
 O343 O 0.69711 0.72190 0.69763
 C344 C 0.81482 0.71870 0.68512
 H345 H 0.74242 0.70140 0.78659
 H346 H 0.70365 0.78240 0.70689
 H347 H 0.83045 0.76412 0.72466
 H348 H 0.76210 0.82113 0.80601
 H349 H 0.64514 0.73061 0.73685
 H350 H 0.66530 0.84111 0.75115
 H351 H 0.71418 0.87480 0.76275
 H352 H 0.83044 0.86041 0.77303
 H353 H 0.68451 0.67722 0.74054
 H354 H 0.80411 0.66167 0.75155
 H355 H 0.85299 0.69557 0.75885
 H356 H 0.87317 0.80794 0.77070
 H357 H 0.67590 0.70936 0.69768
 H358 H 0.75921 0.77145 0.64308
 H359 H 0.75651 0.76632 0.86891
 H360 H 0.84391 0.82679 0.81299
 Zr361 Zr 1.26017 0.73424 0.19212
 O362 O 1.23551 0.76101 0.15660
 O363 O 1.29010 0.70340 0.16555
 O364 O 1.29400 0.76316 0.16637
 O365 O 1.19397 0.68151 0.20410
 O366 O 1.32488 0.78842 0.20393
 O367 O 1.22546 0.70665 0.16655
 O368 O 1.31967 0.67522 0.20231
 O369 O 1.30486 0.73269 0.21820
 O370 O 1.25786 0.69224 0.21889
 O371 O 1.26035 0.77642 0.21853
 O372 O 1.21524 0.73738 0.21837
 Zr373 Zr 1.25857 0.73571 0.30101
 Zr374 Zr 1.30365 0.77337 0.24651
 Zr375 Zr 1.21504 0.69626 0.24691
 Zr376 Zr 1.30137 0.69163 0.24596
 O377 O 1.16202 0.70203 0.24760
 O378 O 1.35447 0.69775 0.24635
 O379 O 1.25841 0.69295 0.27499
 O380 O 1.30309 0.73217 0.27454
 O381 O 1.26075 0.77787 0.27451
 O382 O 1.21431 0.73716 0.27443
 C383 C 1.31199 0.68233 0.17376
 C384 C 1.20146 0.68793 0.17540
 C385 C 1.31727 0.78259 0.17527
 O386 O 1.35649 0.76723 0.24995
 O387 O 1.32015 0.79305 0.28911
 O388 O 1.29035 0.76620 0.32663
 C389 C 1.31209 0.78722 0.31777
 O390 O 1.19565 0.79624 0.20489
 Zr391 Zr 1.21747 0.77806 0.24683
 O392 O 1.22899 0.76720 0.32752
 O393 O 1.30215 0.82387 0.24305
 O394 O 1.22789 0.82781 0.24549
 O395 O 1.16416 0.77444 0.24917
 O396 O 1.20259 0.79721 0.29009
 C397 C 1.20923 0.78993 0.31877
 O398 O 1.28493 0.71001 0.33619
 O399 O 1.21717 0.64572 0.24651
 O400 O 1.22612 0.70598 0.32704
 O401 O 1.19678 0.67828 0.29003
 O402 O 1.29287 0.64158 0.24439
 O403 O 1.31947 0.66947 0.28761
 C404 C 1.20387 0.68535 0.31861
 H405 H 1.25649 0.67266 0.20606
 H406 H 1.32317 0.73116 0.28831
 H407 H 1.19359 0.73777 0.28730
 H408 H 1.26080 0.79561 0.20485
 H409 H 1.36467 0.67701 0.24055
 H410 H 1.36666 0.78886 0.24868
 H411 H 1.32577 0.83156 0.24432
 H412 H 1.20678 0.83911 0.25098
 H413 H 1.31462 0.63130 0.23912
 H414 H 1.19354 0.63802 0.24559
 H415 H 1.15207 0.68029 0.24845
 H416 H 1.15534 0.79597 0.25414
 H417 H 1.33810 0.65470 0.28240
 H418 H 1.27710 0.71808 0.35671
 H419 H 1.24341 0.75281 0.13615
 H420 H 1.18143 0.81499 0.20978
 Zr421 Zr 0.73389 1.27220 0.20269
 O422 O 0.75852 1.24893 0.16529
 O423 O 0.70323 1.30471 0.17860
 O424 O 0.69950 1.24622 0.17504
 O425 O 0.79815 1.32540 0.21933
 O426 O 0.66982 1.21602 0.21026
 O427 O 0.76866 1.30262 0.17930
 O428 O 0.67187 1.32741 0.21723
 O429 O 0.68933 1.26994 0.22896
 O430 O 0.73468 1.31162 0.23246
 O431 O 0.73473 1.22762 0.22584
 O432 O 0.77879 1.26780 0.22881
 Zr433 Zr 0.73594 1.26078 0.31123
 Zr434 Zr 0.69150 1.22677 0.25409
 Zr435 Zr 0.77748 1.30612 0.26028
 Zr436 Zr 0.69136 1.30838 0.25958
 O437 O 0.83068 1.30195 0.26103
 O438 O 0.63848 1.30066 0.25993
 O439 O 0.73433 1.30571 0.28852
 O440 O 0.69117 1.26537 0.28503
 O441 O 0.73471 1.22097 0.28180
 O442 O 0.77991 1.26294 0.28454
 C443 C 0.67995 1.32350 0.18832
 C444 C 0.79182 1.32120 0.19021
 C445 C 0.67634 1.22583 0.18223
 O446 O 0.63848 1.23087 0.25787
 O447 O 0.67508 1.20357 0.29558
 O448 O 0.70492 1.22778 0.33455
 C449 C 0.68307 1.20757 0.32457
 O450 O 0.79945 1.21043 0.21083
 Zr451 Zr 0.77777 1.22453 0.25403
 O452 O 0.76703 1.22804 0.33520
 O453 O 0.69487 1.17689 0.24689
 O454 O 0.76846 1.17480 0.24987
 O455 O 0.83100 1.22931 0.25576
 O456 O 0.79462 1.20269 0.29571
 C457 C 0.78811 1.20732 0.32483
 O458 O 0.70914 1.28237 0.34834
 O459 O 0.77363 1.35647 0.26326
 O460 O 0.76759 1.28911 0.33945
 O461 O 0.79464 1.32131 0.30425
 O462 O 0.69823 1.35864 0.26122
 O463 O 0.67288 1.32639 0.30265
 C464 C 0.78841 1.31162 0.33229
 H465 H 0.73545 1.33231 0.22108
 H466 H 0.67112 1.26472 0.29881
 H467 H 0.80078 1.26200 0.29724
 H468 H 0.73459 1.20983 0.21067
 H469 H 0.62752 1.32152 0.25568
 H470 H 0.62905 1.20913 0.25499
 H471 H 0.67150 1.16846 0.24755
 H472 H 0.78991 1.16357 0.25448
 H473 H 0.67615 1.36867 0.25652
 H474 H 0.79697 1.36500 0.26327
 H475 H 0.83990 1.32380 0.26369
 H476 H 0.84058 1.20763 0.25884
 H477 H 0.65399 1.34129 0.29849
 H478 H 0.71750 1.27279 0.36819
 H479 H 0.75047 1.25904 0.14558
 H480 H 0.81358 1.19122 0.21422
 O481 O 0.47096 1.07464 0.02375
 O482 O 0.53865 0.94427 0.02362
 O483 O 0.44570 0.97615 0.05070
 O484 O 0.53940 1.03831 0.05423
 O485 O 0.47701 0.94062 0.02685
 O486 O 0.53189 1.07520 0.02078
 O487 O 0.54587 0.98226 0.05572
 O488 O 0.45519 1.03623 0.05485
 C489 C 0.46108 1.06509 0.05040
 C490 C 0.54554 0.95329 0.05072
 C491 C 0.45638 0.94814 0.04777
 C492 C 0.53849 1.06712 0.04829
 O493 O 0.52879 1.04673 -0.03658
 O494 O 0.46965 0.95518 -0.03196
 O495 O 0.43090 1.04260 -0.00303
 O496 O 0.57229 0.98285 -0.00357
 O497 O 0.53347 0.96605 -0.03518
 O498 O 0.46976 1.04913 -0.03610
 O499 O 0.56887 1.04032 -0.00411
 O500 O 0.43043 0.98352 -0.00843
 Co501 Co 0.50032 1.05710 -0.00559
 Co502 Co 0.50460 0.95722 -0.00313
 Co503 Co 0.44650 1.00978 0.02230
 Co504 Co 0.55200 1.01087 0.02420
 O505 O 0.50042 1.00816 0.00950
 C506 C 0.55936 1.04534 -0.03161
 C507 C 0.43954 0.96404 -0.02915
 C508 C 0.43945 1.04912 -0.03038
 C509 C 0.56383 0.97082 -0.02946
 O510 O 0.96364 0.56531 0.53049
 O511 O 1.03686 0.43843 0.52730
 O512 O 0.93542 0.46845 0.53494
 O513 O 1.06600 0.53547 0.53196
 O514 O 0.98215 0.44765 0.54887
 O515 O 1.01993 0.55563 0.54851
 O516 O 1.05852 0.48048 0.54617
 O517 O 0.94550 0.52206 0.54996
 C518 C 0.94881 0.55118 0.55224
 C519 C 1.05460 0.45125 0.54765
 C520 C 0.95197 0.45196 0.55410
 C521 C 1.05041 0.55123 0.55220
 O522 O 1.04244 0.56235 0.48904
 O523 O 0.95588 0.44287 0.49064
 O524 O 0.93803 0.54125 0.48814
 O525 O 1.06055 0.46396 0.48400
 O526 O 1.01206 0.44720 0.46932
 O527 O 0.98532 0.55773 0.47077
 O528 O 1.05712 0.51816 0.47003
 O529 O 0.94052 0.48769 0.47299
 Co530 Co 1.00251 0.55443 0.50970
 Co531 Co 0.99701 0.44996 0.50911
 Co532 Co 0.94555 0.50462 0.51141
 Co533 Co 1.05480 0.49987 0.50826
 O534 O 0.99999 0.50220 0.50969
 C535 C 1.05548 0.54729 0.46716
 C536 C 0.94118 0.45857 0.46996
 C537 C 0.95474 0.55435 0.46676
 C538 C 1.04260 0.44997 0.46414
 O539 O 1.02877 0.48387 0.05853
 O540 O 1.04914 0.51799 -0.04588
 O541 O 1.04683 0.44802 -0.01144
 O542 O 1.02744 0.55495 0.02453
 O543 O 1.03467 0.46282 -0.05721
 O544 O 0.99983 0.53425 0.06161
 O545 O 1.02405 0.56042 -0.03048
 O546 O 1.02173 0.43855 0.03696
 C547 C 1.03825 0.45606 0.05513
 C548 C 1.04964 0.54727 -0.04202
 C549 C 1.05497 0.44967 -0.03902
 C550 C 1.02431 0.55047 0.05285
 O551 O 0.94268 0.50586 0.04309
 O552 O 0.96937 0.48050 -0.06226
 O553 O 0.95870 0.43914 0.00723
 O554 O 0.95538 0.54884 -0.02702
 O555 O 0.98672 0.53527 -0.06458
 O556 O 0.96851 0.45444 0.05303
 O557 O 0.95753 0.55289 0.02820
 O558 O 0.98547 0.43677 -0.04126
 Co559 Co 0.98619 0.49476 0.04848
 Co560 Co 1.00876 0.49884 -0.05178
 Co561 Co 1.00260 0.44590 -0.00207
 Co562 Co 0.99168 0.54890 -0.00120
 O563 O 0.99728 0.49713 -0.00165
 C564 C 0.93567 0.53447 0.03980
 C565 C 0.96536 0.45149 -0.05877
 C566 C 0.95013 0.43936 0.03474
 C567 C 0.95979 0.54724 -0.05547
 O568 O 0.53449 0.96819 0.55586
 O569 O 0.54531 1.01266 0.45370
 O570 O 0.53980 0.93828 0.48337
 O571 O 0.53921 1.04360 0.52914
 O572 O 0.52516 0.96085 0.44102
 O573 O 0.51460 1.02083 0.56718
 O574 O 0.52786 1.05556 0.47515
 O575 O 0.51644 0.92669 0.53320
 C576 C 0.53833 0.93971 0.54976
 C577 C 0.54958 1.04128 0.45920
 C578 C 0.54612 0.94472 0.45581
 C579 C 0.53924 1.03621 0.55716
 O580 O 0.45125 1.00255 0.55321
 O581 O 0.46058 0.98269 0.44390
 O582 O 0.45293 0.93792 0.50893
 O583 O 0.46002 1.05121 0.48671
 O584 O 0.48305 1.03592 0.44466
 O585 O 0.46851 0.94804 0.55499
 O586 O 0.47130 1.04863 0.54168
 O587 O 0.47628 0.93642 0.45823
 Co588 Co 0.49288 0.98545 0.55225
 Co589 Co 0.50286 0.99729 0.45139
 Co590 Co 0.49649 0.94035 0.49657
 Co591 Co 0.49947 1.04411 0.50762
 O592 O 0.49791 0.99190 0.50192
 C593 C 0.44816 1.03190 0.55331
 C594 C 0.45546 0.95362 0.44419
 C595 C 0.44653 0.93723 0.53705
 C596 C 0.45963 1.05010 0.45783
 O597 O 1.05864 1.03702 0.46018
 O598 O 0.94103 1.03529 0.48958
 O599 O 0.98902 1.03856 0.42155
 O600 O 1.01124 1.03695 0.53081
 O601 O 0.94039 1.02295 0.43695
 O602 O 1.06003 1.02303 0.51413
 O603 O 0.95457 1.01530 0.53309
 O604 O 1.04494 1.01567 0.41777
 C605 C 1.05813 1.03844 0.43141
 C606 C 0.94115 1.03746 0.51815
 C607 C 0.95860 1.04409 0.42466
 C608 C 1.04185 1.04226 0.52903
 O609 O 1.05652 0.95905 0.49751
 O610 O 0.94481 0.95792 0.45244
 O611 O 1.01876 0.95738 0.42341
 O612 O 0.97992 0.95622 0.52854
 O613 O 0.93468 0.97100 0.50512
 O614 O 1.06500 0.97191 0.44527
 O615 O 1.03573 0.97784 0.53879
 O616 O 0.96407 0.97991 0.41197
 Co617 Co 1.05450 0.99784 0.47887
 Co618 Co 0.94574 0.99673 0.47141
 Co619 Co 1.00373 0.99785 0.42451
 Co620 Co 0.99583 0.99664 0.52698
 O621 O 0.99996 0.99725 0.47553
 C622 C 1.05198 0.95632 0.52577
 C623 C 0.94888 0.95706 0.42393
 C624 C 1.04855 0.95164 0.42990
 C625 C 0.94988 0.95131 0.52230
 O626 O 0.57049 0.51445 -0.06491
 O627 O 0.44349 0.51956 0.01379
 O628 O 0.46808 0.53014 -0.08236
 O629 O 0.54744 0.51257 0.03134
 O630 O 0.45051 0.54323 -0.03707
 O631 O 0.56735 0.53026 -0.01160
 O632 O 0.49215 0.53269 0.02956
 O633 O 0.52706 0.54053 -0.07720
 C634 C 0.55797 0.53995 -0.07425
 C635 C 0.46165 0.53783 0.02950
 C636 C 0.45465 0.55030 -0.06486
 C637 C 0.56350 0.53363 0.01670
 O638 O 0.56922 0.46815 0.00592
 O639 O 0.43743 0.48567 -0.06340
 O640 O 0.53882 0.47597 -0.08909
 O641 O 0.46709 0.47136 0.03064
 O642 O 0.44375 0.46081 -0.01298
 O643 O 0.55750 0.45340 -0.04756
 O644 O 0.52174 0.45182 0.02139
 O645 O 0.48141 0.46607 -0.08360
 Co646 Co 0.56010 0.49207 -0.02926
 Co647 Co 0.44996 0.50182 -0.02517
 Co648 Co 0.50405 0.50281 -0.07784
 Co649 Co 0.50701 0.49255 0.02299
 O650 O 0.50521 0.49731 -0.02731
 C651 C 0.55211 0.44700 0.01899
 C652 C 0.45089 0.46425 -0.07918
 C653 C 0.55179 0.45208 -0.07598
 C654 C 0.44888 0.45335 0.01455
 C655 C 0.34886 1.20823 0.16272
 C656 C 0.37731 1.18944 0.16858
 C657 C 0.39725 1.17368 0.14355
 C658 C 0.41916 1.14870 0.15189
 C659 C 0.43688 1.13189 0.12901
 C660 C 0.43297 1.13962 0.09709
 C661 C 0.41274 1.16584 0.08885
 C662 C 0.39504 1.18272 0.11176
 C663 C 0.44824 1.11992 0.07202
 C664 C 0.45316 1.08715 0.07601
 H665 H 0.38451 1.18496 0.19268
 H666 H 0.42207 1.14169 0.17619
 H667 H 0.45337 1.11270 0.13643
 H668 H 0.40979 1.17269 0.06451
 H669 H 0.37969 1.20266 0.10425
 H670 H 0.45140 1.13034 0.04892
 H671 H 0.34054 1.21238 0.13895
 H672 H 0.44719 1.07616 0.09833
 C673 C 0.83361 0.70171 0.66061
 C674 C 0.85226 0.67412 0.66729
 C675 C 0.87225 0.65621 0.64395
 C676 C 0.88317 0.62524 0.65173
 C677 C 0.90221 0.60737 0.63067
 C678 C 0.91080 0.62015 0.60121
 C679 C 0.90066 0.65143 0.59373
 C680 C 0.88156 0.66931 0.61479
 C681 C 0.93040 0.60187 0.57789
 C682 C 0.93225 0.56852 0.57773
 H683 H 0.85163 0.66457 0.69092
 H684 H 0.87687 0.61476 0.67424
 H685 H 0.91045 0.58381 0.63783
 H686 H 0.90735 0.66202 0.57136
 H687 H 0.87465 0.69341 0.60817
 H688 H 0.94188 0.61508 0.55875
 H689 H 0.83249 0.71124 0.63705
 H690 H 0.91935 0.55448 0.59538
 C691 C 0.65482 0.79841 0.15900
 C692 C 0.63053 0.82161 0.16546
 C693 C 0.61183 0.83992 0.14098
 C694 C 0.59316 0.86678 0.15006
 C695 C 0.57629 0.88561 0.12786
 C696 C 0.57787 0.87811 0.09582
 C697 C 0.59519 0.85045 0.08685
 C698 C 0.61200 0.83154 0.10907
 C699 C 0.56237 0.89879 0.07129
 C700 C 0.55667 0.93135 0.07572
 H701 H 0.62578 0.82749 0.18971
 H702 H 0.59192 0.87350 0.17447
 H703 H 0.56204 0.90591 0.13602
 H704 H 0.59632 0.84377 0.06243
 H705 H 0.62494 0.81051 0.10090
 H706 H 0.55817 0.88884 0.04827
 H707 H 0.66071 0.79240 0.13509
 H708 H 0.56283 0.94214 0.09793
 C709 C 1.19112 0.31950 0.64763
 C710 C 1.18357 0.35132 0.65471
 C711 C 1.16594 0.37396 0.63369
 C712 C 1.14725 0.36372 0.60770
 C713 C 1.12741 0.38541 0.59089
 C714 C 1.12565 0.41770 0.59991
 C715 C 1.14555 0.42818 0.62491
 C716 C 1.16526 0.40646 0.64183
 C717 C 1.10346 0.44069 0.58348
 C718 C 1.07354 0.43094 0.56940
 H719 H 1.18973 0.35996 0.67789
 H720 H 1.14688 0.33888 0.60086
 H721 H 1.11337 0.37676 0.57094
 H722 H 1.14498 0.45300 0.63198
 H723 H 1.17944 0.41494 0.66181
 H724 H 1.11075 0.46567 0.58248
 H725 H 1.18909 0.31061 0.62400
 H726 H 1.06535 0.40633 0.57170
 C727 C 0.70677 1.15004 -0.14695
 C728 C 0.69159 1.12033 -0.15170
 C729 C 0.67527 1.10184 -0.12613
 C730 C 0.64972 1.07998 -0.13371
 C731 C 0.63157 1.06429 -0.11015
 C732 C 0.63868 1.07019 -0.07844
 C733 C 0.66584 1.09021 -0.07088
 C734 C 0.68399 1.10594 -0.09445
 C735 C 0.61720 1.05724 -0.05300
 C736 C 0.58274 1.05239 -0.05732
 H737 H 0.68922 1.11149 -0.17537
 H738 H 0.64305 1.07577 -0.15793
 H739 H 0.61172 1.04792 -0.11686
 H740 H 0.67226 1.09461 -0.04664
 H741 H 0.70455 1.12144 -0.08766
 H742 H 0.62763 1.05539 -0.02961
 H743 H 0.70797 1.15997 -0.12368
 H744 H 0.57162 1.05656 -0.08012
 C745 C 1.18464 0.66987 0.34392
 C746 C 1.15628 0.65096 0.33834
 C747 C 1.13504 0.63774 0.36382
 C748 C 1.11572 0.61028 0.35812
 C749 C 1.09593 0.59676 0.38180
 C750 C 1.09495 0.61061 0.41170
 C751 C 1.11298 0.63893 0.41697
 C752 C 1.13293 0.65237 0.39332
 C753 C 1.07582 0.59585 0.43778
 C754 C 1.07135 0.56289 0.44009
 H755 H 1.14978 0.64497 0.31445
 H756 H 1.11630 0.59900 0.33539
 H757 H 1.08132 0.57558 0.37655
 H758 H 1.11214 0.65035 0.43962
 H759 H 1.14632 0.67432 0.39822
 H760 H 1.06785 0.61083 0.45699
 H761 H 1.19251 0.67460 0.36770
 H762 H 1.08167 0.54746 0.42229
 C763 C 0.30571 0.83049 -0.13983
 C764 C 0.31842 0.86145 -0.14367
 C765 C 0.34226 0.87655 -0.12164
 C766 C 0.34429 0.91003 -0.12068
 C767 C 0.36833 0.92512 -0.10189
 C768 C 0.39117 0.90687 -0.08407
 C769 C 0.38935 0.87340 -0.08524
 C770 C 0.36497 0.85832 -0.10365
 C771 C 0.41785 0.92195 -0.06500
 C772 C 0.41385 0.95152 -0.05062
 H773 H 0.31093 0.87526 -0.16408
 H774 H 0.32743 0.92456 -0.13477
 H775 H 0.36963 0.95097 -0.10209
 H776 H 0.40693 0.85887 -0.07194
 H777 H 0.36478 0.83247 -0.10458
 H778 H 0.44033 0.90811 -0.05998
 H779 H 0.31008 0.81746 -0.11824
 H780 H 0.39009 0.96412 -0.05249
 C781 C 0.80713 0.32675 0.35798
 C782 C 0.83154 0.35013 0.35199
 C783 C 0.85285 0.36510 0.37623
 C784 C 0.86985 0.39354 0.36861
 C785 C 0.89075 0.40839 0.39041
 C786 C 0.89510 0.39501 0.42040
 C787 C 0.87887 0.36610 0.42778
 C788 C 0.85784 0.35126 0.40597
 C789 C 0.91656 0.41042 0.44423
 C790 C 0.92213 0.44332 0.44475
 H791 H 0.83502 0.35842 0.32812
 H792 H 0.86695 0.40436 0.34566
 H793 H 0.90380 0.43003 0.38347
 H794 H 0.88227 0.35510 0.45060
 H795 H 0.84611 0.32881 0.41241
 H796 H 0.92621 0.39578 0.46324
 H797 H 0.80180 0.31899 0.38165
 H798 H 0.91047 0.45876 0.42745
 C799 C 1.19824 0.33810 0.15810
 C800 C 1.17117 0.35855 0.16413
 C801 C 1.14900 0.37289 0.13979
 C802 C 1.12848 0.39875 0.14814
 C803 C 1.10568 0.41200 0.12676
 C804 C 1.10275 0.39963 0.09635
 C805 C 1.12303 0.37355 0.08800
 C806 C 1.14607 0.36036 0.10940
 C807 C 1.07765 0.41243 0.07368
 C808 C 1.06568 0.44376 0.07505
 H809 H 1.16571 0.36447 0.18825
 H810 H 1.12978 0.40854 0.17151
 H811 H 1.08972 0.43130 0.13456
 H812 H 1.12092 0.36326 0.06489
 H813 H 1.16070 0.33988 0.10229
 H814 H 1.06864 0.39693 0.05525
 H815 H 1.20566 0.33319 0.13427
 H816 H 1.07659 0.46025 0.09165
 C817 C 0.71069 0.85752 0.66275
 C818 C 0.67830 0.86962 0.66746
 C819 C 0.65783 0.88506 0.64288
 C820 C 0.62300 0.87926 0.64271
 C821 C 0.60218 0.89453 0.62103
 C822 C 0.61571 0.91653 0.59947
 C823 C 0.65056 0.92266 0.59975
 C824 C 0.67165 0.90663 0.62104
 C825 C 0.59323 0.93468 0.57833
 C826 C 0.56472 0.92069 0.56506
 H827 H 0.66553 0.86410 0.68927
 H828 H 0.61183 0.86293 0.65957
 H829 H 0.57530 0.88996 0.62188
 H830 H 0.66138 0.93987 0.58357
 H831 H 0.69840 0.91189 0.62113
 H832 H 0.59885 0.95962 0.57360
 H833 H 0.72260 0.85969 0.64004
 H834 H 0.56114 0.89505 0.56671
 C835 C 1.18349 0.67778 -0.15319
 C836 C 1.15623 0.65770 -0.16022
 C837 C 1.13552 0.64217 -0.13570
 C838 C 1.14991 0.62698 -0.10945
 C839 C 1.12924 0.61190 -0.08713
 C840 C 1.09395 0.61252 -0.09045
 C841 C 1.07976 0.62825 -0.11636
 C842 C 1.10034 0.64241 -0.13904
 C843 C 1.07113 0.59683 -0.06772
 C844 C 1.07727 0.56631 -0.05568
 H845 H 1.14638 0.65716 -0.18389
 H846 H 1.17703 0.62626 -0.10652
 H847 H 1.14075 0.60009 -0.06718
 H848 H 1.05263 0.62898 -0.11941
 H849 H 1.08874 0.65400 -0.15908
 H850 H 1.04623 0.60704 -0.06476
 H851 H 1.19138 0.67977 -0.12897
 H852 H 1.10065 0.55431 -0.06134
 C853 C 0.66612 1.18842 0.34881
 C854 C 0.64445 1.16311 0.34231
 C855 C 0.62748 1.14489 0.36757
 C856 C 0.61981 1.11253 0.36307
 C857 C 0.60384 1.09479 0.38663
 C858 C 0.59494 1.10926 0.41510
 C859 C 0.60193 1.14181 0.41929
 C860 C 0.61816 1.15946 0.39585
 C861 C 0.57582 1.09183 0.43956
 C862 C 0.57630 1.05864 0.44250
 H863 H 0.64125 1.15539 0.31834
 H864 H 0.62627 1.10095 0.34130
 H865 H 0.59765 1.07007 0.38202
 H866 H 0.59462 1.15365 0.44069
 H867 H 0.62264 1.18466 0.39969
 H868 H 0.55937 1.10552 0.45461
 H869 H 0.67172 1.19419 0.37293
 H870 H 0.59406 1.04476 0.42903
 C871 C 0.79120 0.65682 0.15137
 C872 C 0.81515 0.63278 0.15559
 C873 C 0.83410 0.61843 0.12934
 C874 C 0.84731 0.58755 0.13295
 C875 C 0.86733 0.57413 0.10958
 C876 C 0.87493 0.59154 0.08215
 C877 C 0.86177 0.62246 0.07856
 C878 C 0.84135 0.63574 0.10178
 C879 C 0.89909 0.57925 0.05869
 C880 C 0.90475 0.54668 0.05441
 H881 H 0.82019 0.62397 0.17904
 H882 H 0.84252 0.57394 0.15415
 H883 H 0.87795 0.55066 0.11372
 H884 H 0.86777 0.63658 0.05794
 H885 H 0.83246 0.65999 0.09860
 H886 H 0.91428 0.59641 0.04580
 H887 H 0.78387 0.66387 0.12791
 H888 H 0.88809 0.52940 0.06539
 C889 C 0.31072 1.16303 0.66057
 C890 C 0.33300 1.13847 0.66816
 C891 C 0.35413 1.12308 0.64410
 C892 C 0.36389 1.09112 0.64808
 C893 C 0.38425 1.07626 0.62582
 C894 C 0.39553 1.09332 0.59928
 C895 C 0.38636 1.12547 0.59569
 C896 C 0.36576 1.14021 0.61776
 C897 C 0.41872 1.07900 0.57626
 C898 C 0.42045 1.04621 0.57107
 H899 H 0.33457 1.12991 0.69210
 H900 H 0.35572 1.07764 0.66846
 H901 H 0.39184 1.05176 0.62996
 H902 H 0.39530 1.13927 0.57581
 H903 H 0.35972 1.16524 0.61453
 H904 H 0.43541 1.09482 0.56333
 H905 H 0.30711 1.16965 0.63625
 H906 H 0.40241 1.03025 0.58205
 C907 C 0.82031 0.31053 -0.15015
 C908 C 0.84262 0.33522 -0.15799
 C909 C 0.86387 0.35278 -0.13533
 C910 C 0.87993 0.38085 -0.14559
 C911 C 0.90206 0.39727 -0.12602
 C912 C 0.90865 0.38600 -0.09554
 C913 C 0.89284 0.35778 -0.08527
 C914 C 0.87054 0.34132 -0.10489
 C915 C 0.93288 0.40250 -0.07471
 C916 C 0.93981 0.43506 -0.07764
 H917 H 0.84535 0.34174 -0.18245
 H918 H 0.87574 0.38990 -0.16909
 H919 H 0.91466 0.41825 -0.13529
 H920 H 0.89787 0.34837 -0.06205
 H921 H 0.85946 0.31930 -0.09636
 H922 H 0.94496 0.38887 -0.05619
 H923 H 0.81543 0.30453 -0.12592
 H924 H 0.92569 0.44952 -0.09414
 C925 C 0.32867 0.80584 0.34242
 C926 C 0.34795 0.83295 0.33559
 C927 C 0.36520 0.85214 0.35975
 C928 C 0.37435 0.88379 0.35264
 C929 C 0.39216 0.90220 0.37429
 C930 C 0.40131 0.88914 0.40349
 C931 C 0.39207 0.85752 0.41060
 C932 C 0.37418 0.83917 0.38903
 C933 C 0.42296 0.90646 0.42590
 C934 C 0.42860 0.93941 0.42512
 H935 H 0.34960 0.84116 0.31152
 H936 H 0.36806 0.89419 0.33010
 H937 H 0.39963 0.92614 0.36753
 H938 H 0.39929 0.84674 0.43274
 H939 H 0.36853 0.81459 0.39505
 H940 H 0.43600 0.89229 0.44345
 H941 H 0.32421 0.79877 0.36646
 H942 H 0.41420 0.95484 0.40973
 C943 C 1.19126 1.19475 0.34830
 C944 C 1.17079 1.16900 0.34002
 C945 C 1.15303 1.14816 0.36284
 C946 C 1.14298 1.11771 0.35304
 C947 C 1.12553 1.09725 0.37320
 C948 C 1.11700 1.10702 0.40363
 C949 C 1.12762 1.13724 0.41379
 C950 C 1.14532 1.15778 0.39355
 C951 C 1.09735 1.08583 0.42484
 C952 C 1.07461 1.06361 0.41290
 H953 H 1.16914 1.16258 0.31554
 H954 H 1.14888 1.10956 0.32966
 H955 H 1.11910 1.07365 0.36488
 H956 H 1.12159 1.14522 0.43718
 H957 H 1.15216 1.18128 0.40184
 H958 H 1.10064 1.08784 0.44992
 H959 H 1.19500 1.20060 0.37267
 H960 H 1.06963 1.06328 0.38800
 C961 C 0.65688 0.70049 -0.17134
 C962 C 0.65913 0.69272 -0.13965
 C963 C 0.63437 0.67082 -0.12481
 C964 C 0.64523 0.64955 -0.10141
 C965 C 0.62346 0.62595 -0.08982
 C966 C 0.59029 0.62330 -0.10138
 C967 C 0.57871 0.64609 -0.12304
 C968 C 0.60051 0.66960 -0.13472
 C969 C 0.56758 0.59679 -0.09188
 C970 C 0.57990 0.56696 -0.08275
 H971 H 0.68153 0.69943 -0.12669
 H972 H 0.67098 0.65043 -0.09295
 H973 H 0.63283 0.60969 -0.07204
 H974 H 0.55306 0.64504 -0.13175
 H975 H 0.59092 0.68649 -0.15184
 H976 H 0.54058 0.60002 -0.09434
 H977 H 0.63596 0.69127 -0.18489
 H978 H 0.60681 0.56280 -0.08190
 C979 C 0.85509 1.16899 0.66570
 C980 C 0.84519 1.15865 0.63617
 C981 C 0.86552 1.13564 0.61800
 C982 C 0.86073 1.13344 0.58559
 C983 C 0.87866 1.11098 0.56811
 C984 C 0.90172 1.09017 0.58289
 C985 C 0.90611 1.09216 0.61534
 C986 C 0.88819 1.11447 0.63275
 C987 C 0.92068 1.06523 0.56593
 C988 C 0.92320 1.06367 0.53348
 H989 H 0.82124 1.16655 0.62665
 H990 H 0.84292 1.14902 0.57378
 H991 H 0.87370 1.10976 0.54329
 H992 H 0.92323 1.07610 0.62741
 H993 H 0.89159 1.11426 0.65784
 H994 H 0.93362 1.04723 0.57979
 H995 H 0.87970 1.16257 0.67470
 H996 H 0.91190 1.08175 0.51866
 C997 C 0.32848 0.66489 0.14817
 C998 C 0.35368 0.64217 0.15318
 C999 C 0.36887 0.62349 0.12744
 C1000 C 0.40147 0.61109 0.13125
 C1001 C 0.41632 0.59282 0.10771
 C1002 C 0.39867 0.58634 0.07985
 C1003 C 0.36580 0.59819 0.07631
 C1004 C 0.35105 0.61667 0.09975
 C1005 C 0.41303 0.56583 0.05505
 C1006 C 0.44763 0.56183 0.05080
 H1007 H 0.36342 0.63864 0.17665
 H1008 H 0.41550 0.61552 0.15256
 H1009 H 0.44123 0.58316 0.11185
 H1010 H 0.35143 0.59303 0.05536
 H1011 H 0.32543 0.62485 0.09639
 H1012 H 0.39574 0.55344 0.03964
 H1013 H 0.32043 0.67041 0.12454
 H1014 H 0.46529 0.57569 0.06449
 C1015 C 1.14568 0.83735 0.68169
 C1016 C 1.14852 0.84066 0.64921
 C1017 C 1.12648 0.86240 0.63087
 C1018 C 1.12078 0.85618 0.59911
 C1019 C 1.10088 0.87678 0.58098
 C1020 C 1.08676 0.90445 0.59421
 C1021 C 1.09223 0.91045 0.62605
 C1022 C 1.11203 0.88984 0.64417
 C1023 C 1.06680 0.92785 0.57571
 C1024 C 1.06869 0.93046 0.54323
 H1025 H 1.16698 0.82664 0.63664
 H1026 H 1.13161 0.83520 0.58834
 H1027 H 1.09658 0.87070 0.55677
 H1028 H 1.08177 0.93160 0.63682
 H1029 H 1.11667 0.89605 0.66832
 H1030 H 1.05201 0.94530 0.58832
 H1031 H 1.12521 0.84949 0.69343
 H1032 H 1.08438 0.91437 0.52999
 C1033 C 0.66120 0.34210 0.16482
 C1034 C 0.66970 0.34138 0.13312
 C1035 C 0.65141 0.35981 0.10892
 C1036 C 0.66834 0.36874 0.08140
 C1037 C 0.65198 0.38693 0.05842
 C1038 C 0.61819 0.39591 0.06227
 C1039 C 0.60102 0.38637 0.08959
 C1040 C 0.61741 0.36836 0.11259
 C1041 C 0.60233 0.41719 0.03877
 C1042 C 0.56750 0.41992 0.03549
 H1043 H 0.69172 0.32803 0.12587
 H1044 H 0.69450 0.36221 0.07797
 H1045 H 0.66580 0.39421 0.03771
 H1046 H 0.57523 0.39348 0.09385
 H1047 H 0.60330 0.36118 0.13313
 H1048 H 0.61861 0.43235 0.02469
 H1049 H 0.64089 0.35721 0.17286
 H1050 H 0.55084 0.40343 0.04753
 C1051 C 0.81921 0.80053 0.33868
 C1052 C 0.84156 0.82459 0.32947
 C1053 C 0.85982 0.84536 0.35177
 C1054 C 0.87149 0.87512 0.34105
 C1055 C 0.88825 0.89591 0.36118
 C1056 C 0.89434 0.88715 0.39255
 C1057 C 0.88265 0.85739 0.40338
 C1058 C 0.86575 0.83654 0.38317
 C1059 C 0.91191 0.90897 0.41442
 C1060 C 0.93427 0.93237 0.40384
 H1061 H 0.84389 0.83011 0.30475
 H1062 H 0.86707 0.88260 0.31707
 H1063 H 0.89567 0.91908 0.35213
 H1064 H 0.88692 0.85013 0.42744
 H1065 H 0.85784 0.81352 0.39221
 H1066 H 0.90731 0.90645 0.43931
 H1067 H 0.81500 0.79567 0.36325
 H1068 H 0.94085 0.93361 0.37930
 C1069 C 0.30816 0.31060 -0.15158
 C1070 C 0.33539 0.33039 -0.15954
 C1071 C 0.35003 0.35612 -0.14016
 C1072 C 0.37371 0.37637 -0.15456
 C1073 C 0.38865 0.40123 -0.13813
 C1074 C 0.38073 0.40629 -0.10655
 C1075 C 0.35634 0.38672 -0.09216
 C1076 C 0.34114 0.36166 -0.10878
 C1077 C 0.39822 0.43158 -0.08864
 C1078 C 0.43173 0.43925 -0.09517
 H1079 H 0.34576 0.32827 -0.18289
 H1080 H 0.38065 0.37308 -0.17884
 H1081 H 0.40634 0.41658 -0.15036
 H1082 H 0.34963 0.39040 -0.06789
 H1083 H 0.32287 0.34671 -0.09689
 H1084 H 0.38546 0.44292 -0.06928
 H1085 H 0.29722 0.31105 -0.12843
 H1086 H 0.44546 0.42523 -0.11211
 C1087 C 1.16056 0.31680 -0.16619
 C1088 C 1.17056 0.32730 -0.13678
 C1089 C 1.15273 0.35424 -0.12187
 C1090 C 1.14777 0.35450 -0.08943
 C1091 C 1.12849 0.37866 -0.07565
 C1092 C 1.11439 0.40332 -0.09417
 C1093 C 1.12095 0.40377 -0.12638
 C1094 C 1.14002 0.37967 -0.14006
 C1095 C 1.09056 0.42733 -0.08169
 C1096 C 1.08468 0.43210 -0.04996
 H1097 H 1.19166 0.31613 -0.12488
 H1098 H 1.15764 0.33532 -0.07494
 H1099 H 1.12381 0.37704 -0.05080
 H1100 H 1.11069 0.42253 -0.14117
 H1101 H 1.14452 0.38084 -0.16503
 H1102 H 1.07537 0.44058 -0.09841
 H1103 H 1.13824 0.32718 -0.17680
 H1104 H 1.10031 0.42062 -0.03248
 C1105 C 0.67316 0.80099 0.35264
 C1106 C 0.64776 0.82350 0.34799
 C1107 C 0.63274 0.84270 0.37334
 C1108 C 0.61433 0.86999 0.36495
 C1109 C 0.59915 0.88875 0.38773
 C1110 C 0.60218 0.88074 0.41967
 C1111 C 0.62013 0.85314 0.42813
 C1112 C 0.63538 0.83428 0.40524
 C1113 C 0.58452 0.89927 0.44406
 C1114 C 0.57447 0.93074 0.43900
 H1115 H 0.63939 0.82839 0.32428
 H1116 H 0.61142 0.87673 0.34057
 H1117 H 0.58422 0.90890 0.37996
 H1118 H 0.62213 0.84605 0.45249
 H1119 H 0.64844 0.81289 0.41271
 H1120 H 0.57675 0.88702 0.46530
 H1121 H 0.68320 0.79655 0.37579
 H1122 H 0.58318 0.94363 0.41851
 C1123 C 0.80831 0.68074 -0.14946
 C1124 C 0.83114 0.65638 -0.15654
 C1125 C 0.84862 0.63604 -0.13301
 C1126 C 0.86561 0.60869 -0.14342
 C1127 C 0.88449 0.58991 -0.12269
 C1128 C 0.88717 0.59832 -0.09098
 C1129 C 0.86934 0.62509 -0.08032
 C1130 C 0.85041 0.64391 -0.10108
 C1131 C 0.90864 0.58017 -0.06863
 C1132 C 0.93629 0.56191 -0.07799
 H1133 H 0.83684 0.65196 -0.18093
 H1134 H 0.86452 0.60193 -0.16782
 H1135 H 0.89685 0.56888 -0.13169
 H1136 H 0.87085 0.63201 -0.05597
 H1137 H 0.83819 0.66500 -0.09208
 H1138 H 0.90426 0.58341 -0.04383
 H1139 H 0.80042 0.68465 -0.12559
 H1140 H 0.94257 0.55998 -0.10251
 C1141 C 0.33670 1.20283 0.35715
 C1142 C 0.36055 1.17888 0.35228
 C1143 C 0.37587 1.15899 0.37753
 C1144 C 0.40252 1.13865 0.36953
 C1145 C 0.41719 1.11853 0.39186
 C1146 C 0.40530 1.11791 0.42288
 C1147 C 0.37919 1.13873 0.43122
 C1148 C 0.36436 1.15891 0.40877
 C1149 C 0.42070 1.09648 0.44676
 C1150 C 0.43532 1.06754 0.43831
 H1151 H 0.36826 1.17408 0.32845
 H1152 H 0.41214 1.13832 0.34581
 H1153 H 0.43823 1.10385 0.38475
 H1154 H 0.36985 1.13897 0.45503
 H1155 H 0.34369 1.17385 0.41610
 H1156 H 0.42171 1.10413 0.47091
 H1157 H 0.32889 1.20887 0.38057
 H1158 H 0.43275 1.05937 0.41445
 C1159 C 1.18158 0.67257 0.15066
 C1160 C 1.15687 0.64982 0.15755
 C1161 C 1.13659 0.63329 0.13354
 C1162 C 1.12057 0.60454 0.14178
 C1163 C 1.10041 0.58846 0.12022
 C1164 C 1.09542 0.60115 0.09001
 C1165 C 1.11185 0.62963 0.08156
 C1166 C 1.13207 0.64575 0.10315
 C1167 C 1.07332 0.58531 0.06694
 C1168 C 1.04666 0.56548 0.07577
 H1169 H 1.15302 0.64277 0.18175
 H1170 H 1.12380 0.59437 0.16498
 H1171 H 1.08913 0.56599 0.12729
 H1172 H 1.10843 0.63982 0.05839
 H1173 H 1.14335 0.66821 0.09607
 H1174 H 1.07693 0.59085 0.04236
 H1175 H 1.18752 0.67861 0.12664
 H1176 H 1.04114 0.56130 0.10024
 C1177 C 0.70200 1.15165 0.65880
 C1178 C 0.67608 1.12978 0.66499
 C1179 C 0.65501 1.11422 0.64056
 C1180 C 0.62464 1.09970 0.64980
 C1181 C 0.60338 1.08533 0.62788
 C1182 C 0.61219 1.08465 0.59598
 C1183 C 0.64260 1.09910 0.58666
 C1184 C 0.66393 1.11356 0.60866
 C1185 C 0.58963 1.07027 0.57197
 C1186 C 0.56486 1.04768 0.57941
 H1187 H 0.66936 1.12528 0.68920
 H1188 H 0.61696 1.09995 0.67412
 H1189 H 0.57973 1.07555 0.63611
 H1190 H 0.64998 1.09907 0.56226
 H1191 H 0.68733 1.12390 0.60047
 H1192 H 0.59253 1.07777 0.54780
 H1193 H 0.70852 1.15771 0.63494
 H1194 H 0.56303 1.03848 0.60306
 C1195 C 0.81357 0.33958 0.16905
 C1196 C 0.81582 0.33558 0.13682
 C1197 C 0.84279 0.35251 0.11942
 C1198 C 0.83643 0.36613 0.08992
 C1199 C 0.86095 0.38533 0.07535
 C1200 C 0.89218 0.39084 0.09014
 C1201 C 0.89892 0.37592 0.11887
 C1202 C 0.87473 0.35666 0.13316
 C1203 C 0.91786 0.41293 0.07742
 C1204 C 0.92185 0.41957 0.04571
 H1205 H 0.79760 0.32101 0.12448
 H1206 H 0.81207 0.36305 0.07883
 H1207 H 0.85490 0.39676 0.05326
 H1208 H 0.92294 0.37944 0.13049
 H1209 H 0.88088 0.34547 0.15537
 H1210 H 0.93610 0.42268 0.09372
 H1211 H 0.83040 0.35653 0.18015
 H1212 H 0.90573 0.40830 0.02855
 C1213 C 0.29867 0.85168 0.67454
 C1214 C 0.30161 0.84831 0.64213
 C1215 C 0.32971 0.86457 0.62530
 C1216 C 0.32577 0.87534 0.59431
 C1217 C 0.35204 0.89190 0.57913
 C1218 C 0.38281 0.89761 0.59473
 C1219 C 0.38690 0.88595 0.62529
 C1220 C 0.36096 0.86937 0.64024
 C1221 C 0.41112 0.91606 0.58082
 C1222 C 0.41595 0.92107 0.54884
 H1223 H 0.28443 0.83304 0.62931
 H1224 H 0.30211 0.87163 0.58215
 H1225 H 0.34783 0.90078 0.55563
 H1226 H 0.41042 0.88959 0.63773
 H1227 H 0.36560 0.86019 0.66359
 H1228 H 0.43042 0.92462 0.59670
 H1229 H 0.31457 0.86952 0.68556
 H1230 H 0.39819 0.91164 0.53202
 C1231 C 0.29822 1.17245 -0.14582
 C1232 C 0.31784 1.14485 -0.14889
 C1233 C 0.33308 1.12653 -0.12234
 C1234 C 0.35090 1.09841 -0.12912
 C1235 C 0.36702 1.08094 -0.10543
 C1236 C 0.36595 1.09128 -0.07420
 C1237 C 0.34713 1.11868 -0.06712
 C1238 C 0.33102 1.13627 -0.09087
 C1239 C 0.38522 1.07475 -0.04896
 C1240 C 0.41584 1.05960 -0.05498
 H1241 H 0.32232 1.13598 -0.17228
 H1242 H 0.35265 1.09001 -0.15298
 H1243 H 0.38034 1.05937 -0.11171
 H1244 H 0.34572 1.12708 -0.04324
 H1245 H 0.31763 1.15761 -0.08425
 H1246 H 0.37756 1.07808 -0.02487
 H1247 H 0.29239 1.18171 -0.12295
 H1248 H 0.42537 1.05930 -0.07869
 C1249 C 0.81635 0.66580 0.34344
 C1250 C 0.83780 0.64036 0.33685
 C1251 C 0.85422 0.62154 0.36195
 C1252 C 0.88572 0.60749 0.35646
 C1253 C 0.90202 0.59020 0.38016
 C1254 C 0.88679 0.58639 0.40968
 C1255 C 0.85463 0.59921 0.41465
 C1256 C 0.83852 0.61674 0.39111
 C1257 C 0.90361 0.56929 0.43571
 C1258 C 0.93854 0.56851 0.43909
 H1259 H 0.84337 0.63456 0.31273
 H1260 H 0.89795 0.61033 0.33395
 H1261 H 0.92632 0.57967 0.37519
 H1262 H 0.84216 0.59611 0.43702
 H1263 H 0.81364 0.62620 0.39572
 H1264 H 0.88799 0.55949 0.45425
 H1265 H 0.81291 0.67322 0.36745
 H1266 H 0.95458 0.58009 0.42193
 C1267 C 0.65623 1.21285 0.15618
 C1268 C 0.62835 1.19294 0.16119
 C1269 C 0.60853 1.17718 0.13605
 C1270 C 0.58304 1.15556 0.14488
 C1271 C 0.56520 1.13829 0.12239
 C1272 C 0.57258 1.14212 0.09042
 C1273 C 0.59669 1.16495 0.08139
 C1274 C 0.61462 1.18225 0.10390
 C1275 C 0.55676 1.12166 0.06629
 C1276 C 0.54773 1.09006 0.07270
 H1277 H 0.62122 1.18763 0.18515
 H1278 H 0.57731 1.15152 0.16937
 H1279 H 0.54586 1.12178 0.13017
 H1280 H 0.60252 1.16862 0.05686
 H1281 H 0.63343 1.19902 0.09576
 H1282 H 0.55626 1.13013 0.04227
 H1283 H 0.66406 1.21921 0.13276
 H1284 H 0.55095 1.08052 0.09612
 C1285 C 1.16741 0.70126 0.65901
 C1286 C 1.15099 0.67212 0.66494
 C1287 C 1.13795 0.64984 0.64087
 C1288 C 1.11700 0.62461 0.65077
 C1289 C 1.10479 0.60219 0.62950
 C1290 C 1.11324 0.60442 0.59764
 C1291 C 1.13486 0.62916 0.58774
 C1292 C 1.14701 0.65178 0.60908
 C1293 C 1.09946 0.58163 0.57440
 C1294 C 1.06759 0.56783 0.57786
 H1295 H 1.14765 0.66474 0.68910
 H1296 H 1.11008 0.62215 0.67519
 H1297 H 1.08905 0.58292 0.63819
 H1298 H 1.14200 0.63122 0.56335
 H1299 H 1.16378 0.67031 0.60061
 H1300 H 1.11272 0.57868 0.55245
 H1301 H 1.17006 0.71027 0.63537
 H1302 H 1.05237 0.57388 0.59797
 C1303 C 0.67976 0.83226 -0.14990
 C1304 C 0.67271 0.86495 -0.15195
 C1305 C 0.65080 0.88173 -0.12940
 C1306 C 0.65612 0.91438 -0.12355
 C1307 C 0.63450 0.93119 -0.10366
 C1308 C 0.60672 0.91568 -0.08989
 C1309 C 0.60132 0.88312 -0.09594
 C1310 C 0.62327 0.86621 -0.11525
 C1311 C 0.58179 0.93284 -0.07060
 C1312 C 0.58957 0.95849 -0.05107
 H1313 H 0.68439 0.87901 -0.17039
 H1314 H 0.67694 0.92692 -0.13455
 H1315 H 0.63888 0.95643 -0.09991
 H1316 H 0.57987 0.87076 -0.08582
 H1317 H 0.61795 0.84130 -0.11992
 H1318 H 0.55656 0.92284 -0.06963
 H1319 H 0.67162 0.81863 -0.12963
 H1320 H 0.61531 0.96693 -0.04902
 C1321 C 1.18340 0.32908 0.34993
 C1322 C 1.15903 0.35200 0.34256
 C1323 C 1.14190 0.37142 0.36654
 C1324 C 1.11027 0.38479 0.35975
 C1325 C 1.09383 0.40390 0.38168
 C1326 C 1.10899 0.41023 0.41076
 C1327 C 1.14100 0.39755 0.41718
 C1328 C 1.15729 0.37826 0.39540
 C1329 C 1.09262 0.43018 0.43476
 C1330 C 1.05775 0.43364 0.43730
 H1331 H 1.15212 0.35587 0.31829
 H1332 H 1.09823 0.38037 0.33742
 H1333 H 1.06962 0.41407 0.37553
 H1334 H 1.15341 0.40246 0.43924
 H1335 H 1.18220 0.36940 0.40101
 H1336 H 1.10855 0.44029 0.45281
 H1337 H 1.18868 0.32320 0.37414
 H1338 H 1.04104 0.42200 0.42089
 C1339 C 0.33528 0.80081 0.15101
 C1340 C 0.36338 0.81937 0.15846
 C1341 C 0.37642 0.84484 0.13779
 C1342 C 0.41052 0.85347 0.13982
 C1343 C 0.42306 0.87905 0.12215
 C1344 C 0.40143 0.89680 0.10263
 C1345 C 0.36719 0.88860 0.10106
 C1346 C 0.35478 0.86262 0.11827
 C1347 C 0.41401 0.92398 0.08390
 C1348 C 0.44542 0.92307 0.06953
 H1349 H 0.37567 0.81596 0.18090
 H1350 H 0.42744 0.84046 0.15521
 H1351 H 0.44946 0.88535 0.12429
 H1352 H 0.35009 0.90219 0.08634
 H1353 H 0.32812 0.85717 0.11702
 H1354 H 0.39694 0.94349 0.07855
 H1355 H 0.32489 0.80148 0.12757
 H1356 H 0.46089 0.90184 0.07168
 C1357 C 0.82923 0.30420 0.65870
 C1358 C 0.84743 0.33183 0.66620
 C1359 C 0.86124 0.35491 0.64303
 C1360 C 0.88628 0.37640 0.65287
 C1361 C 0.89956 0.39920 0.63223
 C1362 C 0.88792 0.40113 0.60121
 C1363 C 0.86223 0.38025 0.59153
 C1364 C 0.84908 0.35722 0.61215
 C1365 C 0.90227 0.42439 0.57851
 C1366 C 0.93587 0.43430 0.57989
 H1367 H 0.85223 0.33685 0.69065
 H1368 H 0.89566 0.37553 0.67668
 H1369 H 0.91861 0.41552 0.64079
 H1370 H 0.85259 0.38151 0.56783
 H1371 H 0.82909 0.34178 0.60394
 H1372 H 0.88731 0.43097 0.55823
 H1373 H 0.82558 0.29746 0.63455
 H1374 H 0.95218 0.42504 0.59813
 C1375 C 1.17392 1.17165 0.64769
 C1376 C 1.14741 1.14999 0.65164
 C1377 C 1.13304 1.13098 0.62562
 C1378 C 1.09998 1.11934 0.62833
 C1379 C 1.08579 1.10061 0.60474
 C1380 C 1.10452 1.09289 0.57787
 C1381 C 1.13781 1.10406 0.57538
 C1382 C 1.15193 1.12304 0.59890
 C1383 C 1.09075 1.07157 0.55332
 C1384 C 1.05621 1.06819 0.54794
 H1385 H 1.13591 1.14759 0.67453
 H1386 H 1.08508 1.12464 0.64888
 H1387 H 1.06051 1.09147 0.60816
 H1388 H 1.15300 1.09794 0.55524
 H1389 H 1.17788 1.13066 0.59640
 H1390 H 1.10827 1.05760 0.53962
 H1391 H 1.18402 1.17606 0.62455
 H1392 H 1.03862 1.08356 0.55998
 C1393 C 0.64896 0.65655 0.16834
 C1394 C 0.65044 0.65827 0.13586
 C1395 C 0.62998 0.63669 0.11634
 C1396 C 0.64315 0.62583 0.08796
 C1397 C 0.62565 0.60310 0.07049
 C1398 C 0.59431 0.59126 0.08094
 C1399 C 0.58068 0.60296 0.10880
 C1400 C 0.59816 0.62567 0.12623
 C1401 C 0.57600 0.56582 0.06421
 C1402 C 0.58057 0.55998 0.03254
 H1403 H 0.66911 0.67347 0.12470
 H1404 H 0.66761 0.63403 0.07992
 H1405 H 0.63739 0.59413 0.04949
 H1406 H 0.55650 0.59437 0.11719
 H1407 H 0.58676 0.63439 0.14752
 H1408 H 0.55770 0.55167 0.07712
 H1409 H 0.63226 0.63942 0.17948
 H1410 H 0.59651 0.57545 0.01854
 C1411 C 1.19279 0.80894 0.34325
 C1412 C 1.16823 0.83149 0.33541
 C1413 C 1.15051 0.85200 0.35802
 C1414 C 1.12036 0.86645 0.34835
 C1415 C 1.10331 0.88736 0.36795
 C1416 C 1.11607 0.89435 0.39784
 C1417 C 1.14643 0.88018 0.40752
 C1418 C 1.16350 0.85899 0.38787
 C1419 C 1.09916 0.91788 0.41812
 C1420 C 1.06465 0.92371 0.41591
 H1421 H 1.16062 0.83371 0.31112
 H1422 H 1.11011 0.86185 0.32530
 H1423 H 1.08072 0.89875 0.35911
 H1424 H 1.15704 0.88567 0.43023
 H1425 H 1.18716 0.84895 0.39577
 H1426 H 1.11432 0.93155 0.43438
 H1427 H 1.19953 0.80455 0.36743
 H1428 H 1.04891 0.90833 0.40175
 C1429 C 0.67961 0.29177 -0.15347
 C1430 C 0.65257 0.31136 -0.16199
 C1431 C 0.63372 0.33182 -0.13993
 C1432 C 0.60321 0.34542 -0.15001
 C1433 C 0.58584 0.36695 -0.13112
 C1434 C 0.59889 0.37565 -0.10178
 C1435 C 0.62873 0.36120 -0.09117
 C1436 C 0.64616 0.33968 -0.11008
 C1437 C 0.58273 0.40030 -0.08219
 C1438 C 0.56329 0.42501 -0.09482
 H1439 H 0.64497 0.31215 -0.18635
 H1440 H 0.59295 0.33965 -0.17279
 H1441 H 0.56232 0.37674 -0.13969
 H1442 H 0.63922 0.36743 -0.06860
 H1443 H 0.66982 0.33027 -0.10153
 H1444 H 0.58911 0.40091 -0.05753
 H1445 H 0.68655 0.28880 -0.12915
 H1446 H 0.55840 0.42609 -0.11971
 C1447 C 0.80659 1.18779 0.34786
 C1448 C 0.83449 1.16977 0.33878
 C1449 C 0.85418 1.14881 0.35987
 C1450 C 0.88610 1.13870 0.34991
 C1451 C 0.90479 1.11704 0.36776
 C1452 C 0.89187 1.10495 0.39609
 C1453 C 0.86006 1.11525 0.40624
 C1454 C 0.84135 1.13705 0.38837
 C1455 C 0.90950 1.07971 0.41409
 C1456 C 0.94374 1.07292 0.41071
 H1457 H 0.84298 1.17155 0.31473
 H1458 H 0.89637 1.14714 0.32785
 H1459 H 0.92868 1.10901 0.35856
 H1460 H 0.84936 1.10592 0.42777
 H1461 H 0.81652 1.14366 0.39648
 H1462 H 0.89463 1.06525 0.43010
 H1463 H 0.79893 1.18867 0.37212
 H1464 H 0.95996 1.08846 0.39706
 C1465 C 0.32783 0.69292 -0.16145
 C1466 C 0.35535 0.67681 -0.17431
 C1467 C 0.37829 0.65566 -0.15647
 C1468 C 0.39790 0.63371 -0.17312
 C1469 C 0.41899 0.61232 -0.15739
 C1470 C 0.42108 0.61242 -0.12464
 C1471 C 0.40258 0.63542 -0.10795
 C1472 C 0.38134 0.65679 -0.12373
 C1473 C 0.44172 0.58741 -0.10917
 C1474 C 0.43968 0.57974 -0.07744
 H1475 H 0.35933 0.67830 -0.19936
 H1476 H 0.39636 0.63261 -0.19840
 H1477 H 0.43314 0.59510 -0.17089
 H1478 H 0.40423 0.63718 -0.08280
 H1479 H 0.36762 0.67417 -0.11016
 H1480 H 0.45695 0.57229 -0.12403
 H1481 H 0.32245 0.69139 -0.13669
 H1482 H 0.42473 0.59391 -0.06163
 C1483 C 0.85621 0.83964 0.68029
 C1484 C 0.85639 0.83732 0.64764
 C1485 C 0.87975 0.85512 0.62674
 C1486 C 0.87185 0.85729 0.59476
 C1487 C 0.89255 0.87444 0.57416
 C1488 C 0.92176 0.88984 0.58516
 C1489 C 0.93045 0.88657 0.61687
 C1490 C 0.90968 0.86947 0.63752
 C1491 C 0.94322 0.90997 0.56456
 C1492 C 0.93084 0.92562 0.53795
 H1493 H 0.83745 0.82249 0.63656
 H1494 H 0.84930 0.84596 0.58569
 H1495 H 0.88558 0.87543 0.54970
 H1496 H 0.95309 0.89781 0.62585
 H1497 H 0.91738 0.86751 0.66172
 H1498 H 0.96843 0.91575 0.57263
 H1499 H 0.87395 0.85503 0.69215
 H1500 H 0.90496 0.92211 0.53069
 C1501 C 0.34383 0.34700 0.16838
 C1502 C 0.34589 0.34090 0.13642
 C1503 C 0.36946 0.35895 0.11613
 C1504 C 0.36082 0.36534 0.08490
 C1505 C 0.38189 0.38419 0.06603
 C1506 C 0.41234 0.39653 0.07807
 C1507 C 0.42154 0.38884 0.10890
 C1508 C 0.40048 0.37017 0.12770
 C1509 C 0.43411 0.41911 0.06044
 C1510 C 0.43030 0.42657 0.02880
 H1511 H 0.32922 0.32342 0.12594
 H1512 H 0.33719 0.35665 0.07543
 H1513 H 0.37357 0.38971 0.04254
 H1514 H 0.44492 0.39776 0.11870
 H1515 H 0.40854 0.36464 0.15132
 H1516 H 0.45351 0.43155 0.07351
 H1517 H 0.35871 0.36619 0.17826
 H1518 H 0.41265 0.41366 0.01430
   
