data_POSCAR
  _audit_creation_date              2014-09-24
  _audit_creation_method            'ToBaCCo'
  _symmetry_space_group_name_H-M    'P1'
  _symmetry_Int_Tables_number       1
  _symmetry_cell_setting            triclinic
  loop_
  _symmetry_equiv_pos_as_xyz
 x,y,z
_cell_length_a 89.5015
_cell_length_b 89.5376
_cell_length_c 91.1849
_cell_angle_alpha 89.944900
_cell_angle_beta 89.967400
_cell_angle_gamma 90.020400
loop_
  _atom_site_label
  _atom_site_type_symbol
  _atom_site_fract_x
  _atom_site_fract_y
  _atom_site_fract_z
N1 N 0.37175 0.32751 0.34041
 N2 N 0.37017 0.33600 0.32876
 C3 C 0.38109 0.33283 0.31912
 C4 C 0.39002 0.32167 0.32498
 C5 C 0.38371 0.31860 0.33855
 H6 H 0.38209 0.33789 0.30841
 H7 H 0.38726 0.31023 0.34635
 Cu8 Cu 0.35349 0.34970 0.32669
 Cu9 Cu 0.35744 0.32773 0.35649
 Cu10 Cu 0.32998 0.35485 0.35508
 N11 N 0.33963 0.36637 0.32724
 N12 N 0.33052 0.36841 0.33836
 C13 C 0.32196 0.38046 0.33570
 C14 C 0.32591 0.38635 0.32217
 C15 C 0.33720 0.37707 0.31714
 H16 H 0.31342 0.38453 0.34306
 H17 H 0.34300 0.37781 0.30677
 N18 N 0.33129 0.34003 0.37103
 N19 N 0.34184 0.32976 0.37160
 C20 C 0.33914 0.32064 0.38304
 C21 C 0.32620 0.32529 0.39001
 C22 C 0.32158 0.33768 0.38209
 H23 H 0.34565 0.31082 0.38561
 H24 H 0.31160 0.34420 0.38391
 H25 H 0.33924 0.33612 0.34525
 H26 H 0.35255 0.35004 0.35326
 N27 N 0.37139 0.82847 -0.15950
 N28 N 0.37003 0.83711 -0.17105
 C29 C 0.38101 0.83394 -0.18062
 C30 C 0.38973 0.82249 -0.17488
 C31 C 0.38324 0.81942 -0.16134
 H32 H 0.38213 0.83924 -0.19121
 H33 H 0.38651 0.81092 -0.15357
 Cu34 Cu 0.35331 0.85078 -0.17330
 Cu35 Cu 0.35695 0.82878 -0.14353
 Cu36 Cu 0.32959 0.85602 -0.14499
 N37 N 0.33944 0.86745 -0.17282
 N38 N 0.33021 0.86949 -0.16180
 C39 C 0.32160 0.88147 -0.16461
 C40 C 0.32561 0.88736 -0.17819
 C41 C 0.33706 0.87808 -0.18300
 H42 H 0.31290 0.88536 -0.15735
 H43 H 0.34312 0.87876 -0.19323
 N44 N 0.33088 0.84122 -0.12898
 N45 N 0.34133 0.83085 -0.12845
 C46 C 0.33862 0.82177 -0.11698
 C47 C 0.32577 0.82655 -0.10993
 C48 C 0.32122 0.83897 -0.11784
 H49 H 0.34505 0.81189 -0.11444
 H50 H 0.31132 0.84560 -0.11594
 H51 H 0.33867 0.83739 -0.15488
 H52 H 0.35200 0.85122 -0.14674
 N53 N 0.86796 0.32880 -0.16237
 N54 N 0.86703 0.33896 -0.17274
 C55 C 0.87753 0.33616 -0.18296
 C56 C 0.88553 0.32356 -0.17880
 C57 C 0.87905 0.31921 -0.16565
 H58 H 0.87907 0.34270 -0.19281
 H59 H 0.88205 0.30970 -0.15896
 Cu60 Cu 0.85182 0.35457 -0.17208
 Cu61 Cu 0.85452 0.32852 -0.14555
 Cu62 Cu 0.82805 0.35658 -0.14358
 N63 N 0.83704 0.37052 -0.17053
 N64 N 0.82779 0.37121 -0.15937
 C65 C 0.81840 0.38278 -0.16127
 C66 C 0.82187 0.38985 -0.17440
 C67 C 0.83384 0.38168 -0.17993
 H68 H 0.80948 0.38553 -0.15376
 H69 H 0.83965 0.38347 -0.19015
 N70 N 0.82994 0.34086 -0.12861
 N71 N 0.83995 0.33009 -0.12936
 C72 C 0.83760 0.32044 -0.11824
 C73 C 0.82548 0.32535 -0.11007
 C74 C 0.82098 0.33837 -0.11700
 H75 H 0.84392 0.31032 -0.11653
 H76 H 0.81137 0.34511 -0.11427
 H77 H 0.83688 0.33908 -0.15576
 H78 H 0.85050 0.35119 -0.14571
 N79 N 0.86998 0.82920 0.33889
 N80 N 0.87011 0.83951 0.32861
 C81 C 0.88122 0.83653 0.31908
 C82 C 0.88845 0.82361 0.32354
 C83 C 0.88098 0.81931 0.33620
 H84 H 0.88358 0.84305 0.30937
 H85 H 0.88325 0.80962 0.34291
 Cu86 Cu 0.85516 0.85528 0.32824
 Cu87 Cu 0.85502 0.82896 0.35455
 Cu88 Cu 0.82843 0.85720 0.35388
 N89 N 0.84020 0.87106 0.32788
 N90 N 0.82981 0.87176 0.33803
 C91 C 0.82057 0.88320 0.33502
 C92 C 0.82532 0.89012 0.32220
 C93 C 0.83791 0.88205 0.31804
 H94 H 0.81097 0.88604 0.34163
 H95 H 0.84479 0.88383 0.30846
 N96 N 0.82886 0.84152 0.36902
 N97 N 0.83895 0.83078 0.36934
 C98 C 0.83574 0.82148 0.38055
 C99 C 0.82299 0.82657 0.38762
 C100 C 0.81901 0.83932 0.37996
 H101 H 0.84201 0.81151 0.38311
 H102 H 0.80928 0.84619 0.38183
 H103 H 0.83865 0.83974 0.34302
 H104 H 0.85103 0.85168 0.35451
 N105 N 0.63173 0.67035 0.33698
 N106 N 0.63377 0.66092 0.32613
 C107 C 0.62318 0.66319 0.31588
 C108 C 0.61399 0.67473 0.32051
 C109 C 0.61980 0.67897 0.33398
 H110 H 0.62245 0.65711 0.30567
 H111 H 0.61573 0.68774 0.34107
 Cu112 Cu 0.65039 0.64696 0.32605
 Cu113 Cu 0.64506 0.67113 0.35386
 Cu114 Cu 0.67191 0.64337 0.35607
 N115 N 0.66371 0.63003 0.32867
 N116 N 0.67214 0.62865 0.34037
 C117 C 0.68088 0.61651 0.33886
 C118 C 0.67778 0.60988 0.32545
 C119 C 0.66674 0.61880 0.31935
 H120 H 0.68917 0.61307 0.34679
 H121 H 0.66161 0.61757 0.30869
 N122 N 0.66991 0.65930 0.37084
 N123 N 0.65972 0.66991 0.37002
 C124 C 0.66199 0.67972 0.38100
 C125 C 0.67426 0.67511 0.38913
 C126 C 0.67891 0.66207 0.38233
 H127 H 0.65549 0.68974 0.38263
 H128 H 0.68859 0.65545 0.38511
 H129 H 0.66369 0.66156 0.34450
 H130 H 0.64956 0.64856 0.35264
 N131 N 0.63169 0.17233 -0.15931
 N132 N 0.63158 0.16228 -0.16980
 C133 C 0.62061 0.16563 -0.17937
 C134 C 0.61345 0.17855 -0.17469
 C135 C 0.62085 0.18242 -0.16187
 H136 H 0.61821 0.15927 -0.18914
 H137 H 0.61870 0.19200 -0.15499
 Cu138 Cu 0.64639 0.14627 -0.17014
 Cu139 Cu 0.64617 0.17187 -0.14330
 Cu140 Cu 0.67224 0.14314 -0.14372
 N141 N 0.66121 0.13027 -0.17053
 N142 N 0.67118 0.12914 -0.16003
 C143 C 0.68047 0.11775 -0.16302
 C144 C 0.67624 0.11129 -0.17623
 C145 C 0.66386 0.11958 -0.18062
 H146 H 0.68988 0.11477 -0.15622
 H147 H 0.65742 0.11821 -0.19053
 N148 N 0.67151 0.15844 -0.12819
 N149 N 0.66168 0.16942 -0.12808
 C150 C 0.66464 0.17847 -0.11666
 C151 C 0.67700 0.17300 -0.10921
 C152 C 0.68098 0.16024 -0.11686
 H153 H 0.65851 0.18855 -0.11423
 H154 H 0.69042 0.15307 -0.11469
 H155 H 0.66301 0.16106 -0.15468
 H156 H 0.65001 0.14916 -0.14379
 N157 N 0.12920 0.67024 -0.16225
 N158 N 0.13154 0.66133 -0.17344
 C159 C 0.12071 0.66338 -0.18345
 C160 C 0.11101 0.67423 -0.17831
 C161 C 0.11678 0.67832 -0.16478
 H162 H 0.12026 0.65771 -0.19390
 H163 H 0.11247 0.68672 -0.15741
 Cu164 Cu 0.14886 0.64841 -0.17443
 Cu165 Cu 0.14293 0.67126 -0.14572
 Cu166 Cu 0.17112 0.64488 -0.14480
 N167 N 0.16257 0.63184 -0.17232
 N168 N 0.17141 0.63052 -0.16089
 C169 C 0.18025 0.61851 -0.16279
 C170 C 0.17668 0.61191 -0.17609
 C171 C 0.16537 0.62070 -0.18180
 H172 H 0.18876 0.61498 -0.15513
 H173 H 0.15992 0.61942 -0.19229
 N174 N 0.16879 0.66045 -0.12967
 N175 N 0.15798 0.67045 -0.13001
 C176 C 0.15980 0.68002 -0.11878
 C177 C 0.17243 0.67596 -0.11095
 C178 C 0.17780 0.66343 -0.11820
 H179 H 0.15273 0.68959 -0.11683
 H180 H 0.18782 0.65722 -0.11568
 H181 H 0.16199 0.66281 -0.15580
 H182 H 0.14862 0.64884 -0.14787
 N183 N 0.13013 0.17018 0.33851
 N184 N 0.13242 0.16122 0.32734
 C185 C 0.12154 0.16325 0.31737
 C186 C 0.11188 0.17415 0.32251
 C187 C 0.11772 0.17827 0.33600
 H188 H 0.12104 0.15759 0.30692
 H189 H 0.11349 0.18675 0.34333
 Cu190 Cu 0.14984 0.14841 0.32626
 Cu191 Cu 0.14403 0.17136 0.35493
 Cu192 Cu 0.17250 0.14526 0.35562
 N193 N 0.16385 0.13203 0.32823
 N194 N 0.17280 0.13084 0.33958
 C195 C 0.18173 0.11889 0.33769
 C196 C 0.17814 0.11218 0.32443
 C197 C 0.16670 0.12086 0.31877
 H198 H 0.19030 0.11545 0.34532
 H199 H 0.16114 0.11947 0.30835
 N200 N 0.17019 0.16085 0.37075
 N201 N 0.15927 0.17075 0.37051
 C202 C 0.16114 0.18036 0.38172
 C203 C 0.17389 0.17638 0.38943
 C204 C 0.17929 0.16391 0.38212
 H205 H 0.15409 0.18993 0.38371
 H206 H 0.18933 0.15774 0.38462
 H207 H 0.16294 0.16308 0.34472
 H208 H 0.14985 0.14899 0.35286
 N209 N 0.63223 0.32880 0.65940
 N210 N 0.63204 0.33881 0.66993
 C211 C 0.62108 0.33532 0.67948
 C212 C 0.61406 0.32237 0.67473
 C213 C 0.62149 0.31860 0.66191
 H214 H 0.61853 0.34167 0.68923
 H215 H 0.61948 0.30899 0.65503
 Cu216 Cu 0.64683 0.35480 0.67038
 Cu217 Cu 0.64658 0.32944 0.64334
 Cu218 Cu 0.67283 0.35792 0.64401
 N219 N 0.66158 0.37083 0.67073
 N220 N 0.67182 0.37174 0.66043
 C221 C 0.68115 0.38308 0.66350
 C222 C 0.67658 0.38974 0.67645
 C223 C 0.66406 0.38166 0.68071
 H224 H 0.69084 0.38590 0.65700
 H225 H 0.65739 0.38339 0.69044
 N226 N 0.67194 0.34282 0.62833
 N227 N 0.66196 0.33198 0.62809
 C228 C 0.66473 0.32310 0.61651
 C229 C 0.67710 0.32854 0.60908
 C230 C 0.68131 0.34112 0.61691
 H231 H 0.65843 0.31316 0.61394
 H232 H 0.69084 0.34820 0.61479
 H233 H 0.66340 0.34012 0.65484
 H234 H 0.65051 0.35225 0.64404
 N235 N 0.63175 0.82945 1.16199
 N236 N 0.63297 0.83855 1.17322
 C237 C 0.62185 0.83579 1.18278
 C238 C 0.61319 0.82424 1.17733
 C239 C 0.61984 0.82051 1.16408
 H240 H 0.62051 0.84145 1.19316
 H241 H 0.61644 0.81179 1.15661
 Cu242 Cu 0.64943 0.85248 1.17500
 Cu243 Cu 0.64617 0.82948 1.14591
 Cu244 Cu 0.67251 0.85780 1.14639
 N245 N 0.66232 0.86981 1.17375
 N246 N 0.67137 0.87189 1.16260
 C247 C 0.67958 0.88425 1.16501
 C248 C 0.67544 0.89025 1.17844
 C249 C 0.66441 0.88076 1.18362
 H250 H 0.68816 0.88831 1.15768
 H251 H 0.65868 0.88139 1.19403
 N252 N 0.67183 0.84245 1.13096
 N253 N 0.66183 0.83163 1.13077
 C254 C 0.66476 0.82254 1.11936
 C255 C 0.67725 0.82786 1.11198
 C256 C 0.68136 0.84055 1.11969
 H257 H 0.65849 0.81255 1.11690
 H258 H 0.69085 0.84768 1.11755
 H259 H 0.66389 0.83891 1.15670
 H260 H 0.64999 0.85203 1.14838
 N261 N 0.13201 0.33029 1.16138
 N262 N 0.13308 0.33942 1.17259
 C263 C 0.12183 0.33670 1.18201
 C264 C 0.11324 0.32512 1.17649
 C265 C 0.12006 0.32136 1.16334
 H266 H 0.12039 0.34234 1.19239
 H267 H 0.11681 0.31258 1.15588
 Cu268 Cu 0.14967 0.35317 1.17463
 Cu269 Cu 0.14675 0.33010 1.14564
 Cu270 Cu 0.17380 0.35771 1.14660
 N271 N 0.16320 0.37003 1.17372
 N272 N 0.17267 0.37178 1.16285
 C273 C 0.18122 0.38384 1.16552
 C274 C 0.17688 0.39001 1.17881
 C275 C 0.16535 0.38092 1.18365
 H276 H 0.19016 0.38758 1.15846
 H277 H 0.15930 0.38179 1.19387
 N278 N 0.17298 0.34236 1.13112
 N279 N 0.16267 0.33184 1.13078
 C280 C 0.16553 0.32260 1.11949
 C281 C 0.17832 0.32747 1.11233
 C282 C 0.18267 0.34009 1.12004
 H283 H 0.15899 0.31280 1.11697
 H284 H 0.19245 0.34687 1.11806
 H285 H 0.16458 0.33933 1.15685
 H286 H 0.15125 0.35270 1.14804
 N287 N 0.13189 0.83042 0.66141
 N288 N 0.13307 0.83930 0.67281
 C289 C 0.12187 0.83640 0.68223
 C290 C 0.11322 0.82497 0.67650
 C291 C 0.11994 0.82149 0.66324
 H292 H 0.12047 0.84186 0.69270
 H293 H 0.11657 0.81293 0.65558
 Cu294 Cu 0.14962 0.85309 0.67494
 Cu295 Cu 0.14640 0.83057 0.64553
 Cu296 Cu 0.17312 0.85843 0.64652
 N297 N 0.16282 0.87021 0.67396
 N298 N 0.17204 0.87226 0.66293
 C299 C 0.18046 0.88441 0.66559
 C300 C 0.17629 0.89032 0.67904
 C301 C 0.16499 0.88099 0.68397
 H302 H 0.18920 0.88841 0.65841
 H303 H 0.15913 0.88163 0.69432
 N304 N 0.17230 0.84328 0.63090
 N305 N 0.16208 0.83268 0.63055
 C306 C 0.16492 0.82356 0.61918
 C307 C 0.17761 0.82859 0.61199
 C308 C 0.18193 0.84118 0.61975
 H309 H 0.15844 0.81372 0.61665
 H310 H 0.19170 0.84799 0.61781
 H311 H 0.16425 0.83975 0.65663
 H312 H 0.15057 0.85314 0.64833
 N313 N 0.36802 0.67067 0.65809
 N314 N 0.36762 0.66224 0.66987
 C315 C 0.37900 0.66602 0.67874
 C316 C 0.38695 0.67757 0.67225
 C317 C 0.37962 0.68018 0.65910
 H318 H 0.38096 0.66107 0.68937
 H319 H 0.38224 0.68863 0.65103
 Cu320 Cu 0.35165 0.64799 0.67332
 Cu321 Cu 0.35276 0.66946 0.64297
 Cu322 Cu 0.32667 0.64122 0.64642
 N323 N 0.33852 0.63073 0.67381
 N324 N 0.32882 0.62813 0.66333
 C325 C 0.32080 0.61592 0.66680
 C326 C 0.32571 0.61052 0.68022
 C327 C 0.33704 0.62024 0.68430
 H328 H 0.31183 0.61156 0.66015
 H329 H 0.34350 0.61999 0.69430
 N330 N 0.32642 0.65570 0.63013
 N331 N 0.33642 0.66645 0.62885
 C332 C 0.33277 0.67514 0.61737
 C333 C 0.31980 0.66968 0.61104
 C334 C 0.31614 0.65728 0.61945
 H335 H 0.33879 0.68511 0.61429
 H336 H 0.30644 0.65021 0.61822
 H337 H 0.33562 0.66034 0.65537
 H338 H 0.34905 0.64687 0.64683
 N339 N 0.36801 0.17127 1.15811
 N340 N 0.36760 0.16269 1.16979
 C341 C 0.37902 0.16628 1.17868
 C342 C 0.38701 0.17785 1.17232
 C343 C 0.37967 0.18072 1.15924
 H344 H 0.38100 0.16119 1.18925
 H345 H 0.38239 0.18922 1.15125
 Cu346 Cu 0.35166 0.14839 1.17308
 Cu347 Cu 0.35288 0.17006 1.14285
 Cu348 Cu 0.32678 0.14177 1.14606
 N349 N 0.33839 0.13125 1.17355
 N350 N 0.32874 0.12867 1.16301
 C351 C 0.32060 0.11654 1.16648
 C352 C 0.32537 0.11116 1.17997
 C353 C 0.33674 0.12083 1.18407
 H354 H 0.31166 0.11220 1.15978
 H355 H 0.34315 0.12056 1.19411
 N356 N 0.32669 0.15624 1.12976
 N357 N 0.33668 0.16700 1.12857
 C358 C 0.33323 0.17558 1.11695
 C359 C 0.32039 0.17003 1.11043
 C360 C 0.31660 0.15770 1.11888
 H361 H 0.33929 0.18553 1.11387
 H362 H 0.30696 0.15057 1.11749
 H363 H 0.33572 0.16087 1.15517
 H364 H 0.34918 0.14746 1.14657
 N365 N 0.86747 0.66987 1.16045
 N366 N 0.86565 0.66030 1.17123
 C367 C 0.87637 0.66251 1.18135
 C368 C 0.88542 0.67417 1.17675
 C369 C 0.87940 0.67855 1.16339
 H370 H 0.87720 0.65636 1.19152
 H371 H 0.88321 0.68753 1.15642
 Cu372 Cu 0.84901 0.64640 1.17173
 Cu373 Cu 0.85368 0.67094 1.14393
 Cu374 Cu 0.82638 0.64369 1.14234
 N375 N 0.83516 0.62987 1.16934
 N376 N 0.82628 0.62887 1.15793
 C377 C 0.81725 0.61697 1.15962
 C378 C 0.82064 0.61007 1.17283
 C379 C 0.83214 0.61859 1.17865
 H380 H 0.80858 0.61388 1.15196
 H381 H 0.83763 0.61705 1.18909
 N382 N 0.82821 0.65963 1.12760
 N383 N 0.83860 0.67006 1.12816
 C384 C 0.83630 0.67985 1.11715
 C385 C 0.82380 0.67539 1.10929
 C386 C 0.81904 0.66249 1.11626
 H387 H 0.84299 0.68971 1.11526
 H388 H 0.80918 0.65604 1.11371
 H389 H 0.83534 0.66149 1.15395
 H390 H 0.84899 0.64838 1.14517
 N391 N 0.86698 0.17089 0.66056
 N392 N 0.86527 0.16138 0.67140
 C393 C 0.87598 0.16375 0.68148
 C394 C 0.88493 0.17546 0.67678
 C395 C 0.87883 0.17968 0.66341
 H396 H 0.87694 0.15759 0.69163
 H397 H 0.88257 0.18861 0.65632
 Cu398 Cu 0.84887 0.14719 0.67191
 Cu399 Cu 0.85332 0.17158 0.64394
 Cu400 Cu 0.82683 0.14361 0.64210
 N401 N 0.83548 0.13031 0.66941
 N402 N 0.82690 0.12893 0.65782
 C403 C 0.81811 0.11685 0.65949
 C404 C 0.82132 0.11027 0.67290
 C405 C 0.83249 0.11914 0.67884
 H406 H 0.80967 0.11345 0.65171
 H407 H 0.83767 0.11794 0.68947
 N408 N 0.82845 0.15951 0.62731
 N409 N 0.83845 0.17029 0.62807
 C410 C 0.83598 0.18005 0.61708
 C411 C 0.82380 0.17518 0.60901
 C412 C 0.81937 0.16208 0.61582
 H413 H 0.84233 0.19017 0.61535
 H414 H 0.80978 0.15532 0.61307
 H415 H 0.83503 0.16172 0.65383
 H416 H 0.84921 0.14892 0.64538
 N417 N 0.32781 0.37018 0.65853
 N418 N 0.33649 0.36892 0.67007
 C419 C 0.33341 0.38006 0.67948
 C420 C 0.32208 0.38876 0.67360
 C421 C 0.31886 0.38213 0.66024
 H422 H 0.33866 0.38133 0.69006
 H423 H 0.31029 0.38538 0.65254
 Cu424 Cu 0.35012 0.35224 0.67252
 Cu425 Cu 0.32780 0.35544 0.64292
 Cu426 Cu 0.35437 0.32755 0.64479
 N427 N 0.36629 0.33779 0.67224
 N428 N 0.36794 0.32822 0.66145
 C429 C 0.37963 0.31927 0.66441
 C430 C 0.38569 0.32342 0.67780
 C431 C 0.37691 0.33528 0.68240
 H432 H 0.38329 0.31029 0.65738
 H433 H 0.37793 0.34145 0.69253
 N434 N 0.33954 0.32886 0.62884
 N435 N 0.32942 0.33953 0.62816
 C436 C 0.32042 0.33699 0.61661
 C437 C 0.32505 0.32408 0.60962
 C438 C 0.33726 0.31925 0.61770
 H439 H 0.31077 0.34370 0.61389
 H440 H 0.34379 0.30929 0.61582
 H441 H 0.33629 0.33743 0.65463
 H442 H 0.35033 0.35015 0.64591
 N443 N 0.32911 0.86951 0.15855
 N444 N 0.33918 0.86844 0.16898
 C445 C 0.33663 0.87917 0.17902
 C446 C 0.32428 0.88742 0.17468
 C447 C 0.31985 0.88094 0.16159
 H448 H 0.34315 0.88071 0.18887
 H449 H 0.31028 0.88395 0.15500
 Cu450 Cu 0.35409 0.85259 0.16864
 Cu451 Cu 0.32804 0.85536 0.14237
 Cu452 Cu 0.35473 0.82724 0.14147
 N453 N 0.36913 0.83689 0.16801
 N454 N 0.36939 0.82710 0.15729
 C455 C 0.38054 0.81731 0.15968
 C456 C 0.38770 0.82111 0.17265
 C457 C 0.38011 0.83365 0.17758
 H458 H 0.38302 0.80795 0.15261
 H459 H 0.38223 0.83985 0.18751
 N460 N 0.33890 0.82933 0.12656
 N461 N 0.32876 0.84002 0.12692
 C462 C 0.31905 0.83793 0.11585
 C463 C 0.32320 0.82528 0.10812
 C464 C 0.33589 0.82016 0.11525
 H465 H 0.30933 0.84481 0.11393
 H466 H 0.34222 0.81024 0.11269
 H467 H 0.33788 0.83738 0.15318
 H468 H 0.35052 0.84974 0.14233
 N469 N 0.82975 0.36823 0.16054
 N470 N 0.83903 0.36612 0.17150
 C471 C 0.83660 0.37660 0.18179
 C472 C 0.82509 0.38578 0.17709
 C473 C 0.82104 0.38009 0.16352
 H474 H 0.84252 0.37721 0.19211
 H475 H 0.81229 0.38413 0.15639
 Cu476 Cu 0.85296 0.34952 0.17182
 Cu477 Cu 0.82912 0.35496 0.14365
 Cu478 Cu 0.85690 0.32833 0.14148
 N479 N 0.86991 0.33635 0.16909
 N480 N 0.87146 0.32808 0.15730
 C481 C 0.88360 0.31937 0.15885
 C482 C 0.89006 0.32234 0.17236
 C483 C 0.88103 0.33324 0.17851
 H484 H 0.88715 0.31116 0.15090
 H485 H 0.88207 0.33815 0.18927
 N486 N 0.84109 0.33033 0.12661
 N487 N 0.83043 0.34044 0.12748
 C488 C 0.82069 0.33828 0.11643
 C489 C 0.82540 0.32616 0.10820
 C490 C 0.83844 0.32147 0.11497
 H491 H 0.81064 0.34475 0.11481
 H492 H 0.84510 0.31184 0.11211
 H493 H 0.83871 0.33634 0.15310
 H494 H 0.85177 0.35065 0.14526
 N495 N 0.82848 0.86838 0.66067
 N496 N 0.83808 0.86645 0.67140
 C497 C 0.83585 0.87701 0.68166
 C498 C 0.82413 0.88605 0.67720
 C499 C 0.81976 0.88020 0.66378
 H500 H 0.84204 0.87776 0.69180
 H501 H 0.81081 0.88413 0.65683
 Cu502 Cu 0.85210 0.84993 0.67153
 Cu503 Cu 0.82764 0.85505 0.64380
 Cu504 Cu 0.85559 0.82843 0.64153
 N505 N 0.86905 0.83669 0.66884
 N506 N 0.87037 0.82821 0.65717
 C507 C 0.88243 0.81937 0.65872
 C508 C 0.88908 0.82246 0.67213
 C509 C 0.88025 0.83360 0.67819
 H510 H 0.88577 0.81098 0.65087
 H511 H 0.88146 0.83869 0.68885
 N512 N 0.83964 0.83035 0.62681
 N513 N 0.82892 0.84043 0.62767
 C514 C 0.81917 0.83817 0.61664
 C515 C 0.82396 0.82604 0.60843
 C516 C 0.83700 0.82143 0.61524
 H517 H 0.80911 0.84460 0.61499
 H518 H 0.84370 0.81183 0.61242
 H519 H 0.83737 0.83670 0.65319
 H520 H 0.85023 0.85093 0.64497
 N521 N 0.67254 0.63246 0.65979
 N522 N 0.66344 0.63381 0.67103
 C523 C 0.66613 0.62278 0.68069
 C524 C 0.67764 0.61404 0.67531
 C525 C 0.68143 0.62054 0.66199
 H526 H 0.66047 0.62157 0.69109
 H527 H 0.69013 0.61699 0.65455
 Cu528 Cu 0.64956 0.65028 0.67259
 Cu529 Cu 0.67243 0.64667 0.64353
 Cu530 Cu 0.64378 0.67273 0.64368
 N531 N 0.63200 0.66279 0.67126
 N532 N 0.62975 0.67159 0.65995
 C533 C 0.61719 0.67950 0.66218
 C534 C 0.61120 0.67544 0.67564
 C535 C 0.62093 0.66474 0.68105
 H536 H 0.61294 0.68781 0.65466
 H537 H 0.62033 0.65913 0.69153
 N538 N 0.65919 0.67198 0.62825
 N539 N 0.67014 0.66212 0.62818
 C540 C 0.67925 0.66507 0.61677
 C541 C 0.67381 0.67743 0.60928
 C542 C 0.66104 0.68144 0.61691
 H543 H 0.68934 0.65892 0.61439
 H544 H 0.65385 0.69085 0.61470
 H545 H 0.66277 0.66468 0.65394
 H546 H 0.64981 0.65049 0.64594
 N547 N 0.67420 0.13172 0.15659
 N548 N 0.66565 0.13208 0.16830
 C549 C 0.66949 0.12085 0.17733
 C550 C 0.68119 0.11300 0.17105
 C551 C 0.68388 0.12026 0.15785
 H552 H 0.66447 0.11890 0.18794
 H553 H 0.69241 0.11759 0.14987
 Cu554 Cu 0.65103 0.14776 0.17147
 Cu555 Cu 0.67258 0.14670 0.14114
 Cu556 Cu 0.64352 0.17191 0.14397
 N557 N 0.63343 0.16043 0.17169
 N558 N 0.63050 0.16973 0.16092
 C559 C 0.61807 0.17748 0.16419
 C560 C 0.61287 0.17282 0.17778
 C561 C 0.62294 0.16193 0.18217
 H562 H 0.61341 0.18609 0.15727
 H563 H 0.62291 0.15581 0.19239
 N564 N 0.65799 0.17228 0.12772
 N565 N 0.66912 0.16270 0.12666
 C566 C 0.67760 0.16642 0.11502
 C567 C 0.67156 0.17901 0.10840
 C568 C 0.65908 0.18234 0.11678
 H569 H 0.68777 0.16072 0.11198
 H570 H 0.65159 0.19169 0.11536
 H571 H 0.66281 0.16382 0.15321
 H572 H 0.64977 0.14977 0.14495
 N573 N 0.17248 0.62926 0.15919
 N574 N 0.16242 0.63021 0.16964
 C575 C 0.16523 0.61962 0.17978
 C576 C 0.17774 0.61158 0.17544
 C577 C 0.18199 0.61806 0.16228
 H578 H 0.15881 0.61805 0.18970
 H579 H 0.19160 0.61522 0.15567
 Cu580 Cu 0.14727 0.64590 0.16921
 Cu581 Cu 0.17322 0.64314 0.14275
 Cu582 Cu 0.14650 0.67118 0.14206
 N583 N 0.13206 0.66152 0.16862
 N584 N 0.13197 0.67145 0.15800
 C585 C 0.12087 0.68130 0.16038
 C586 C 0.11353 0.67741 0.17322
 C587 C 0.12099 0.66474 0.17813
 H588 H 0.11848 0.69070 0.15332
 H589 H 0.11874 0.65852 0.18804
 N590 N 0.16207 0.66902 0.12690
 N591 N 0.17213 0.65826 0.12708
 C592 C 0.18153 0.66016 0.11570
 C593 C 0.17725 0.67278 0.10795
 C594 C 0.16483 0.67806 0.11540
 H595 H 0.19108 0.65314 0.11353
 H596 H 0.15852 0.68803 0.11295
 H597 H 0.16354 0.66083 0.15360
 H598 H 0.15079 0.64847 0.14286
 N599 N 0.17134 0.12912 0.65982
 N600 N 0.16104 0.12999 0.67002
 C601 C 0.16361 0.11935 0.68019
 C602 C 0.17624 0.11135 0.67611
 C603 C 0.18079 0.11792 0.66307
 H604 H 0.15704 0.11785 0.69001
 H605 H 0.19060 0.11523 0.65670
 Cu606 Cu 0.14600 0.14576 0.66938
 Cu607 Cu 0.17262 0.14333 0.64367
 Cu608 Cu 0.14598 0.17149 0.64259
 N609 N 0.13098 0.16150 0.66873
 N610 N 0.13107 0.17151 0.65820
 C611 C 0.12007 0.18147 0.66059
 C612 C 0.11263 0.17755 0.67339
 C613 C 0.11992 0.16478 0.67823
 H614 H 0.11799 0.19107 0.65371
 H615 H 0.11763 0.15854 0.68811
 N616 N 0.16198 0.16946 0.62781
 N617 N 0.17208 0.15872 0.62820
 C618 C 0.18174 0.16069 0.61704
 C619 C 0.17762 0.17331 0.60923
 C620 C 0.16498 0.17852 0.61638
 H621 H 0.19134 0.15368 0.61504
 H622 H 0.15856 0.18835 0.61366
 H623 H 0.16257 0.16108 0.65443
 H624 H 0.15017 0.14894 0.64315
 N625 N 0.32768 0.63326 0.34434
 N626 N 0.33745 0.63343 0.33358
 C627 C 0.33408 0.62246 0.32405
 C628 C 0.32146 0.61500 0.32904
 C629 C 0.31777 0.62221 0.34200
 H630 H 0.34023 0.62027 0.31409
 H631 H 0.30838 0.61987 0.34909
 Cu632 Cu 0.35314 0.64849 0.33282
 Cu633 Cu 0.32807 0.64782 0.36023
 Cu634 Cu 0.35620 0.67451 0.35908
 N635 N 0.36897 0.66340 0.33234
 N636 N 0.37009 0.67352 0.34271
 C637 C 0.38149 0.68277 0.33955
 C638 C 0.38790 0.67828 0.32643
 C639 C 0.37964 0.66589 0.32222
 H640 H 0.38454 0.69232 0.34613
 H641 H 0.38110 0.65931 0.31241
 N642 N 0.34108 0.67371 0.37477
 N643 N 0.33041 0.66355 0.37522
 C644 C 0.32145 0.66642 0.38674
 C645 C 0.32667 0.67903 0.39390
 C646 C 0.33918 0.68330 0.38598
 H647 H 0.31161 0.66000 0.38944
 H648 H 0.34608 0.69300 0.38790
 H649 H 0.33814 0.66472 0.34854
 H650 H 0.35058 0.65207 0.35921
 N651 N 0.32780 0.13295 0.84386
 N652 N 0.33626 0.13344 0.83210
 C653 C 0.33273 0.12196 0.82326
 C654 C 0.32134 0.11382 0.82975
 C655 C 0.31850 0.12117 0.84285
 H656 H 0.33771 0.12004 0.81263
 H657 H 0.31010 0.11836 0.85091
 Cu658 Cu 0.35028 0.14958 0.82863
 Cu659 Cu 0.32895 0.14815 0.85908
 Cu660 Cu 0.35705 0.17441 0.85569
 N661 N 0.36736 0.16291 0.82806
 N662 N 0.37003 0.17251 0.83862
 C663 C 0.38221 0.18058 0.83512
 C664 C 0.38752 0.17579 0.82161
 C665 C 0.37775 0.16452 0.81750
 H666 H 0.38663 0.18948 0.84182
 H667 H 0.37796 0.15813 0.80746
 N668 N 0.34267 0.17442 0.87210
 N669 N 0.33192 0.16442 0.87331
 C670 C 0.32345 0.16777 0.88505
 C671 C 0.32907 0.18055 0.89163
 C672 C 0.34132 0.18441 0.88308
 H673 H 0.31357 0.16164 0.88821
 H674 H 0.34850 0.19400 0.88450
 H675 H 0.33793 0.16544 0.84669
 H676 H 0.35151 0.15202 0.85512
 N677 N 0.82935 0.63299 0.83935
 N678 N 0.83896 0.63485 0.82861
 C679 C 0.83677 0.62421 0.81843
 C680 C 0.82507 0.61517 0.82293
 C681 C 0.82064 0.62111 0.83630
 H682 H 0.84300 0.62339 0.80831
 H683 H 0.81165 0.61722 0.84324
 Cu684 Cu 0.85301 0.65138 0.82829
 Cu685 Cu 0.82845 0.64655 0.85608
 Cu686 Cu 0.85608 0.67346 0.85803
 N687 N 0.86975 0.66494 0.83089
 N688 N 0.87093 0.67362 0.84243
 C689 C 0.88296 0.68252 0.84080
 C690 C 0.88973 0.67926 0.82748
 C691 C 0.88100 0.66796 0.82157
 H692 H 0.88620 0.69106 0.84853
 H693 H 0.88236 0.66263 0.81103
 N694 N 0.84011 0.67161 0.87278
 N695 N 0.82952 0.66139 0.87206
 C696 C 0.81976 0.66366 0.88310
 C697 C 0.82441 0.67595 0.89118
 C698 C 0.83739 0.68063 0.88428
 H699 H 0.80978 0.65711 0.88485
 H700 H 0.84402 0.69032 0.88700
 H701 H 0.83806 0.66487 0.84629
 H702 H 0.85104 0.65094 0.85483
 N703 N 0.82876 0.13201 0.34260
 N704 N 0.83878 0.13201 0.33207
 C705 C 0.83536 0.12120 0.32237
 C706 C 0.82246 0.11399 0.32704
 C707 C 0.81864 0.12121 0.33997
 H708 H 0.84163 0.11900 0.31249
 H709 H 0.80900 0.11908 0.34679
 Cu710 Cu 0.85474 0.14683 0.33171
 Cu711 Cu 0.82912 0.14649 0.35858
 Cu712 Cu 0.85758 0.17286 0.35793
 N713 N 0.87069 0.16165 0.33134
 N714 N 0.87166 0.17181 0.34166
 C715 C 0.88302 0.18113 0.33856
 C716 C 0.88961 0.17663 0.32553
 C717 C 0.88144 0.16418 0.32127
 H718 H 0.88588 0.19079 0.34507
 H719 H 0.88295 0.15765 0.31143
 N720 N 0.84229 0.17208 0.37347
 N721 N 0.83148 0.16206 0.37372
 C722 C 0.82231 0.16505 0.38505
 C723 C 0.82752 0.17763 0.39228
 C724 C 0.84027 0.18170 0.38464
 H725 H 0.81230 0.15881 0.38754
 H726 H 0.84718 0.19138 0.38663
 H727 H 0.83967 0.16328 0.34702
 H728 H 0.85177 0.15049 0.35798
 N729 N 0.67044 0.36744 0.33935
 N730 N 0.66152 0.36616 0.32799
 C731 C 0.66435 0.37726 0.31845
 C732 C 0.67578 0.38598 0.32404
 C733 C 0.67936 0.37939 0.33736
 H734 H 0.65886 0.37852 0.30797
 H735 H 0.68797 0.38285 0.34494
 Cu736 Cu 0.64775 0.34962 0.32599
 Cu737 Cu 0.67016 0.35305 0.35541
 Cu738 Cu 0.64200 0.32656 0.35462
 N739 N 0.63042 0.33675 0.32703
 N740 N 0.62821 0.32768 0.33815
 C741 C 0.61594 0.31943 0.33554
 C742 C 0.61012 0.32354 0.32203
 C743 C 0.61962 0.33464 0.31700
 H744 H 0.61183 0.31081 0.34279
 H745 H 0.61913 0.34036 0.30657
 N746 N 0.65714 0.32737 0.37027
 N747 N 0.66788 0.33747 0.37057
 C748 C 0.67689 0.33463 0.38204
 C749 C 0.67165 0.32209 0.38935
 C750 C 0.65905 0.31784 0.38155
 H751 H 0.68678 0.34103 0.38462
 H752 H 0.65210 0.30819 0.38358
 H753 H 0.66085 0.33502 0.34455
 H754 H 0.64754 0.34891 0.35260
 N755 N 0.67036 0.86794 0.83931
 N756 N 0.66136 0.86666 0.82801
 C757 C 0.66420 0.87771 0.81842
 C758 C 0.67570 0.88640 0.82390
 C759 C 0.67934 0.87983 0.83722
 H760 H 0.65864 0.87898 0.80798
 H761 H 0.68801 0.88329 0.84474
 Cu762 Cu 0.64736 0.85024 0.82615
 Cu763 Cu 0.67018 0.85363 0.85544
 Cu764 Cu 0.64219 0.82701 0.85477
 N765 N 0.63029 0.83696 0.82727
 N766 N 0.62829 0.82784 0.83838
 C767 C 0.61612 0.81938 0.83583
 C768 C 0.61012 0.82345 0.82237
 C769 C 0.61945 0.83469 0.81731
 H770 H 0.61217 0.81070 0.84310
 H771 H 0.61876 0.84047 0.80693
 N772 N 0.65732 0.82797 0.87039
 N773 N 0.66801 0.83811 0.87066
 C774 C 0.67703 0.83536 0.88216
 C775 C 0.67182 0.82282 0.88952
 C776 C 0.65926 0.81850 0.88171
 H777 H 0.68692 0.84177 0.88468
 H778 H 0.65228 0.80888 0.88378
 H779 H 0.66097 0.83578 0.84445
 H780 H 0.64765 0.84954 0.85274
 N781 N 0.17144 0.36739 0.84237
 N782 N 0.16155 0.36728 0.83172
 C783 C 0.16490 0.37823 0.82213
 C784 C 0.17758 0.38567 0.82703
 C785 C 0.18137 0.37841 0.83994
 H786 H 0.15875 0.38042 0.81218
 H787 H 0.19083 0.38071 0.84694
 Cu788 Cu 0.14589 0.35213 0.83117
 Cu789 Cu 0.17119 0.35288 0.85832
 Cu790 Cu 0.14336 0.32590 0.85724
 N791 N 0.13025 0.33696 0.83055
 N792 N 0.12946 0.32668 0.84082
 C793 C 0.11823 0.31721 0.83770
 C794 C 0.11154 0.32172 0.82473
 C795 C 0.11952 0.33432 0.82051
 H796 H 0.11543 0.30755 0.84425
 H797 H 0.11780 0.34097 0.81076
 N798 N 0.15841 0.32694 0.87298
 N799 N 0.16896 0.33723 0.87339
 C800 C 0.17797 0.33449 0.88489
 C801 C 0.17295 0.32179 0.89207
 C802 C 0.16047 0.31737 0.88420
 H803 H 0.18775 0.34101 0.88752
 H804 H 0.15371 0.30757 0.88614
 H805 H 0.16124 0.33600 0.84654
 H806 H 0.14873 0.34843 0.85744
 N807 N 0.17071 0.86770 0.34254
 N808 N 0.16088 0.86763 0.33185
 C809 C 0.16440 0.87850 0.32222
 C810 C 0.17715 0.88580 0.32712
 C811 C 0.18079 0.87859 0.34010
 H812 H 0.15832 0.88068 0.31224
 H813 H 0.19036 0.88071 0.34700
 Cu814 Cu 0.14511 0.85258 0.33121
 Cu815 Cu 0.17050 0.85297 0.35830
 Cu816 Cu 0.14258 0.82613 0.35712
 N817 N 0.12928 0.83759 0.33069
 N818 N 0.12842 0.82726 0.34090
 C819 C 0.11715 0.81786 0.33771
 C820 C 0.11051 0.82247 0.32474
 C821 C 0.11854 0.83508 0.32064
 H822 H 0.11436 0.80806 0.34409
 H823 H 0.11690 0.84176 0.31091
 N824 N 0.15785 0.82683 0.37272
 N825 N 0.16838 0.83713 0.37323
 C826 C 0.17739 0.83429 0.38472
 C827 C 0.17240 0.82152 0.39179
 C828 C 0.15993 0.81715 0.38387
 H829 H 0.18710 0.84086 0.38751
 H830 H 0.15317 0.80734 0.38577
 H831 H 0.16040 0.83624 0.34642
 H832 H 0.14798 0.84862 0.35750
 C833 C 0.25408 1.03776 0.25503
 C834 C 0.26469 1.02999 0.24686
 C835 C 0.26458 1.01435 0.24671
 C836 C 0.25336 1.00620 0.25424
 C837 C 0.24254 1.01441 0.26222
 C838 C 0.24314 1.03003 0.26284
 C839 C 0.25293 0.98937 0.25369
 C840 C 0.24505 0.98099 0.26439
 C841 C 0.24440 0.96537 0.26363
 C842 C 0.25216 0.95782 0.25265
 C843 C 0.26034 0.96576 0.24221
 C844 C 0.26041 0.98140 0.24246
 H845 H 0.25430 1.04987 0.25526
 H846 H 0.27335 1.00877 0.24070
 H847 H 0.23348 1.00890 0.26789
 H848 H 0.23944 0.98638 0.27345
 H849 H 0.25187 0.94571 0.25224
 H850 H 0.26629 0.98711 0.23376
 C851 C 0.25356 0.53808 0.75483
 C852 C 0.26420 0.53016 0.74684
 C853 C 0.26368 0.51454 0.74642
 C854 C 0.25202 0.50662 0.75349
 C855 C 0.24118 0.51493 0.76128
 C856 C 0.24215 0.53051 0.76216
 C857 C 0.25113 0.48989 0.75264
 C858 C 0.24345 0.48151 0.76345
 C859 C 0.24257 0.46592 0.76250
 C860 C 0.24978 0.45842 0.75112
 C861 C 0.25762 0.46643 0.74048
 C862 C 0.25801 0.48204 0.74101
 H863 H 0.25407 0.55018 0.75525
 H864 H 0.27243 0.50875 0.74056
 H865 H 0.23183 0.50950 0.76658
 H866 H 0.23824 0.48691 0.77274
 H867 H 0.24934 0.44632 0.75056
 H868 H 0.26369 0.48788 0.73225
 C869 C 0.74991 -0.03739 0.25130
 C870 C 0.76090 -0.02964 0.25903
 C871 C 0.76143 -0.01402 0.25840
 C872 C 0.75055 -0.00589 0.25047
 C873 C 0.73926 -0.01399 0.24309
 C874 C 0.73919 -0.02962 0.24325
 C875 C 0.75105 0.01084 0.24976
 C876 C 0.74463 0.01864 0.23783
 C877 C 0.74493 0.03426 0.23730
 C878 C 0.75216 0.04230 0.24831
 C879 C 0.75877 0.03485 0.26008
 C880 C 0.75800 0.01925 0.26097
 H881 H 0.74974 -0.04951 0.25152
 H882 H 0.77047 -0.00838 0.26399
 H883 H 0.73045 -0.00830 0.23719
 H884 H 0.73944 0.01272 0.22884
 H885 H 0.75259 0.05440 0.24774
 H886 H 0.76277 0.01385 0.27050
 C887 C 0.74887 0.46225 0.75240
 C888 C 0.75718 0.47012 0.76275
 C889 C 0.75750 0.48576 0.76240
 C890 C 0.75021 0.49376 0.75106
 C891 C 0.74221 0.48544 0.74043
 C892 C 0.74123 0.46985 0.74138
 C893 C 0.75105 0.51057 0.75024
 C894 C 0.74048 0.51883 0.74201
 C895 C 0.74155 0.53437 0.74085
 C896 C 0.75265 0.54206 0.74844
 C897 C 0.76297 0.53427 0.75696
 C898 C 0.76243 0.51863 0.75761
 H899 H 0.74842 0.45014 0.75286
 H900 H 0.76346 0.49145 0.77104
 H901 H 0.73681 0.49082 0.73125
 H902 H 0.73127 0.51341 0.73651
 H903 H 0.75320 0.55415 0.74779
 H904 H 0.77099 0.51298 0.76386
 C905 C 0.25171 0.46158 0.25248
 C906 C 0.26242 0.46939 0.26052
 C907 C 0.26217 0.48503 0.26082
 C908 C 0.25078 0.49309 0.25349
 C909 C 0.23980 0.48486 0.24578
 C910 C 0.24051 0.46927 0.24502
 C911 C 0.25039 0.50988 0.25375
 C912 C 0.24288 0.51799 0.24264
 C913 C 0.24222 0.53360 0.24304
 C914 C 0.24962 0.54142 0.25408
 C915 C 0.25744 0.53372 0.26494
 C916 C 0.25756 0.51807 0.26501
 H917 H 0.25210 0.44947 0.25204
 H918 H 0.27097 0.49073 0.26669
 H919 H 0.23060 0.49036 0.24034
 H920 H 0.23759 0.51237 0.23353
 H921 H 0.24932 0.55353 0.25419
 H922 H 0.26324 0.51247 0.27391
 C923 C 0.74749 1.03885 0.74779
 C924 C 0.75612 1.03097 0.73770
 C925 C 0.75673 1.01536 0.73829
 C926 C 0.74929 1.00734 0.74953
 C927 C 0.74098 1.01568 0.75994
 C928 C 0.73980 1.03125 0.75880
 C929 C 0.75019 0.99052 0.75037
 C930 C 0.73970 0.98219 0.75867
 C931 C 0.74064 0.96660 0.75956
 C932 C 0.75159 0.95897 0.75168
 C933 C 0.76184 0.96683 0.74314
 C934 C 0.76143 0.98247 0.74275
 H935 H 0.74685 1.05093 0.74713
 H936 H 0.76301 1.00973 0.72983
 H937 H 0.73546 1.01035 0.76908
 H938 H 0.73061 0.98755 0.76439
 H939 H 0.75205 0.94687 0.75211
 H940 H 0.76997 0.98810 0.73647
 C941 C 0.74962 0.53797 0.24932
 C942 C 0.75715 0.53011 0.23838
 C943 C 0.75729 0.51447 0.23857
 C944 C 0.75049 0.50643 0.25018
 C945 C 0.74329 0.51470 0.26135
 C946 C 0.74255 0.53030 0.26069
 C947 C 0.75094 0.48963 0.25067
 C948 C 0.74040 0.48144 0.25901
 C949 C 0.74109 0.46583 0.25976
 C950 C 0.75185 0.45811 0.25172
 C951 C 0.76210 0.46589 0.24309
 C952 C 0.76190 0.48153 0.24280
 H953 H 0.74928 0.55008 0.24900
 H954 H 0.76268 0.50880 0.22956
 H955 H 0.73828 0.50922 0.27071
 H956 H 0.73148 0.48696 0.26487
 H957 H 0.75218 0.44600 0.25211
 H958 H 0.77040 0.48715 0.23644
 C959 C 0.25085 -0.03812 0.75257
 C960 C 0.26156 -0.03043 0.76070
 C961 C 0.26126 -0.01478 0.76125
 C962 C 0.24977 -0.00664 0.75416
 C963 C 0.23879 -0.01477 0.74635
 C964 C 0.23958 -0.03033 0.74530
 C965 C 0.24918 0.01013 0.75487
 C966 C 0.24151 0.01850 0.74405
 C967 C 0.24060 0.03408 0.74495
 C968 C 0.24795 0.04163 0.75621
 C969 C 0.25599 0.03368 0.76674
 C970 C 0.25631 0.01804 0.76632
 H971 H 0.25126 -0.05021 0.75192
 H972 H 0.27009 -0.00916 0.76714
 H973 H 0.22952 -0.00919 0.74108
 H974 H 0.23630 0.01309 0.73477
 H975 H 0.24750 0.05373 0.75671
 H976 H 0.26212 0.01224 0.77501
 C977 C 0.24863 0.24879 1.04109
 C978 C 0.24163 0.26043 1.03357
 C979 C 0.24249 0.26116 1.01825
 C980 C 0.24998 0.24992 1.01021
 C981 C 0.25674 0.23810 1.01805
 C982 C 0.25628 0.23772 1.03339
 C983 C 0.25070 0.25047 0.99379
 C984 C 0.26264 0.24370 0.98607
 C985 C 0.26304 0.24391 0.97071
 C986 C 0.25187 0.25131 0.96289
 C987 C 0.24015 0.25829 0.97029
 C988 C 0.23940 0.25767 0.98561
 H989 H 0.24814 0.24837 1.05298
 H990 H 0.23741 0.27059 1.01275
 H991 H 0.26232 0.22909 1.01236
 H992 H 0.27169 0.23831 0.99187
 H993 H 0.25228 0.25161 0.95100
 H994 H 0.22989 0.26273 0.99101
 C995 C 0.24747 0.74830 0.54234
 C996 C 0.24073 0.76014 0.53491
 C997 C 0.24122 0.76079 0.51960
 C998 C 0.24801 0.74925 0.51144
 C999 C 0.25457 0.73721 0.51915
 C1000 C 0.25453 0.73693 0.53451
 C1001 C 0.24835 0.74986 0.49505
 C1002 C 0.25993 0.74282 0.48713
 C1003 C 0.26013 0.74319 0.47180
 C1004 C 0.24910 0.75098 0.46417
 C1005 C 0.23768 0.75822 0.47177
 C1006 C 0.23713 0.75750 0.48710
 H1007 H 0.24728 0.74796 0.55423
 H1008 H 0.23638 0.77040 0.51419
 H1009 H 0.25968 0.72800 0.51336
 H1010 H 0.26890 0.73709 0.49275
 H1011 H 0.24938 0.75138 0.45228
 H1012 H 0.22788 0.76280 0.49269
 C1013 C 0.24763 0.75174 -0.04126
 C1014 C 0.25854 0.75977 -0.03370
 C1015 C 0.25918 0.75907 -0.01837
 C1016 C 0.24843 0.75088 -0.01028
 C1017 C 0.23729 0.74310 -0.01822
 C1018 C 0.23714 0.74326 -0.03358
 C1019 C 0.24882 0.75048 0.00623
 C1020 C 0.24155 0.73899 0.01417
 C1021 C 0.24158 0.73891 0.02953
 C1022 C 0.24946 0.74980 0.03722
 C1023 C 0.25704 0.76102 0.02966
 C1024 C 0.25644 0.76162 0.01432
 H1025 H 0.24734 0.75205 -0.05315
 H1026 H 0.26821 0.76490 -0.01297
 H1027 H 0.22859 0.73691 -0.01269
 H1028 H 0.23586 0.72996 0.00865
 H1029 H 0.24969 0.74955 0.04911
 H1030 H 0.26190 0.77089 0.00894
 C1031 C 0.24821 0.25202 0.45991
 C1032 C 0.25944 0.25965 0.46740
 C1033 C 0.26038 0.25866 0.48269
 C1034 C 0.24965 0.25049 0.49084
 C1035 C 0.23817 0.24312 0.48297
 C1036 C 0.23771 0.24360 0.46762
 C1037 C 0.25051 0.24958 0.50733
 C1038 C 0.24301 0.23816 0.51517
 C1039 C 0.24360 0.23756 0.53050
 C1040 C 0.25218 0.24787 0.53825
 C1041 C 0.25991 0.25906 0.53079
 C1042 C 0.25886 0.26013 0.51550
 H1043 H 0.24772 0.25254 0.44803
 H1044 H 0.26963 0.26420 0.48798
 H1045 H 0.22948 0.23694 0.48853
 H1046 H 0.23668 0.22960 0.50961
 H1047 H 0.25277 0.24725 0.55012
 H1048 H 0.26453 0.26934 0.51024
 C1049 C 0.75028 0.75347 1.03962
 C1050 C 0.74189 0.76395 1.03187
 C1051 C 0.74157 0.76356 1.01650
 C1052 C 0.74908 0.75214 1.00866
 C1053 C 0.75715 0.74140 1.01686
 C1054 C 0.75803 0.74231 1.03216
 C1055 C 0.74845 0.75134 0.99215
 C1056 C 0.75921 0.74312 0.98410
 C1057 C 0.75827 0.74193 0.96881
 C1058 C 0.74711 0.74957 0.96122
 C1059 C 0.73665 0.75812 0.96884
 C1060 C 0.73704 0.75871 0.98418
 H1061 H 0.75072 0.75394 1.05150
 H1062 H 0.73546 0.77226 1.01090
 H1063 H 0.76273 0.73215 1.01158
 H1064 H 0.76847 0.73766 0.98947
 H1065 H 0.74660 0.74891 0.94935
 H1066 H 0.72833 0.76490 0.98968
 C1067 C 0.75116 0.25270 0.53895
 C1068 C 0.74309 0.26354 0.53135
 C1069 C 0.74284 0.26348 0.51601
 C1070 C 0.75016 0.25211 0.50803
 C1071 C 0.75794 0.24099 0.51598
 C1072 C 0.75871 0.24153 0.53130
 C1073 C 0.74974 0.25186 0.49159
 C1074 C 0.76114 0.24470 0.48350
 C1075 C 0.76059 0.24416 0.46818
 C1076 C 0.74902 0.25124 0.46066
 C1077 C 0.73782 0.25870 0.46839
 C1078 C 0.73798 0.25878 0.48375
 H1079 H 0.75154 0.25293 0.55084
 H1080 H 0.73696 0.27240 0.51047
 H1081 H 0.76337 0.23180 0.51044
 H1082 H 0.77057 0.23957 0.48894
 H1083 H 0.74874 0.25096 0.44877
 H1084 H 0.72886 0.26421 0.48941
 C1085 C 0.75197 0.24836 -0.03946
 C1086 C 0.75936 0.25983 -0.03210
 C1087 C 0.75791 0.26125 -0.01688
 C1088 C 0.74952 0.25076 -0.00867
 C1089 C 0.74239 0.23903 -0.01636
 C1090 C 0.74335 0.23809 -0.03166
 C1091 C 0.74815 0.25211 0.00770
 C1092 C 0.73605 0.24550 0.01533
 C1093 C 0.73508 0.24641 0.03063
 C1094 C 0.74568 0.25456 0.03848
 C1095 C 0.75752 0.26145 0.03118
 C1096 C 0.75898 0.25995 0.01596
 H1097 H 0.75281 0.24751 -0.05130
 H1098 H 0.76325 0.27067 -0.01164
 H1099 H 0.73606 0.23054 -0.01065
 H1100 H 0.72730 0.23961 0.00956
 H1101 H 0.74479 0.25542 0.05032
 H1102 H 0.76868 0.26483 0.01077
 C1103 C 0.74711 0.75283 0.45908
 C1104 C 0.75551 0.76345 0.46661
 C1105 C 0.75549 0.76360 0.48199
 C1106 C 0.74762 0.75259 0.49010
 C1107 C 0.73957 0.74166 0.48210
 C1108 C 0.73904 0.74206 0.46676
 C1109 C 0.74774 0.75250 0.50666
 C1110 C 0.73679 0.74451 0.51475
 C1111 C 0.73713 0.74418 0.53011
 C1112 C 0.74787 0.75239 0.53769
 C1113 C 0.75852 0.76066 0.53003
 C1114 C 0.75874 0.76042 0.51467
 H1115 H 0.74689 0.75292 0.44718
 H1116 H 0.76161 0.77242 0.48737
 H1117 H 0.73371 0.73269 0.48755
 H1118 H 0.72786 0.73856 0.50937
 H1119 H 0.74791 0.75236 0.54959
 H1120 H 0.76761 0.76643 0.50922
 C1121 C 1.04086 0.24765 0.24731
 C1122 C 1.03296 0.23706 0.25542
 C1123 C 1.01733 0.23702 0.25523
 C1124 C 1.00928 0.24811 0.24748
 C1125 C 1.01758 0.25903 0.23971
 C1126 C 1.03321 0.25854 0.23935
 C1127 C 0.99245 0.24827 0.24751
 C1128 C 0.98436 0.25598 0.23653
 C1129 C 0.96872 0.25632 0.23674
 C1130 C 0.96086 0.24835 0.24738
 C1131 C 0.96854 0.24039 0.25814
 C1132 C 0.98419 0.24065 0.25847
 H1133 H 1.05298 0.24747 0.24725
 H1134 H 1.01168 0.22822 0.26114
 H1135 H 1.01212 0.26805 0.23395
 H1136 H 0.98997 0.26173 0.22768
 H1137 H 0.94873 0.24837 0.24730
 H1138 H 0.98967 0.23492 0.26739
 C1139 C 0.54052 0.24982 0.74908
 C1140 C 0.53271 0.24201 0.75987
 C1141 C 0.51705 0.24193 0.75978
 C1142 C 0.50897 0.24914 0.74843
 C1143 C 0.51721 0.25673 0.73745
 C1144 C 0.53284 0.25731 0.73800
 C1145 C 0.49215 0.24875 0.74807
 C1146 C 0.48388 0.25981 0.74048
 C1147 C 0.46823 0.25925 0.74004
 C1148 C 0.46060 0.24803 0.74756
 C1149 C 0.46847 0.23718 0.75535
 C1150 C 0.48412 0.23732 0.75538
 H1151 H 0.55264 0.25006 0.74931
 H1152 H 0.51136 0.23630 0.76866
 H1153 H 0.51167 0.26212 0.72834
 H1154 H 0.48939 0.26898 0.73499
 H1155 H 0.44848 0.24778 0.74742
 H1156 H 0.48983 0.22843 0.76110
 C1157 C -0.04074 0.24913 0.74852
 C1158 C -0.03310 0.26004 0.75641
 C1159 C -0.01746 0.26064 0.75589
 C1160 C -0.00915 0.24985 0.74795
 C1161 C -0.01724 0.23874 0.74022
 C1162 C -0.03290 0.23861 0.74030
 C1163 C 0.00773 0.25020 0.74776
 C1164 C 0.01599 0.24258 0.73680
 C1165 C 0.03166 0.24271 0.73688
 C1166 C 0.03933 0.25100 0.74739
 C1167 C 0.03150 0.25880 0.75814
 C1168 C 0.01587 0.25813 0.75858
 H1169 H -0.05286 0.24883 0.74875
 H1170 H -0.01202 0.26966 0.76166
 H1171 H -0.01161 0.23004 0.73416
 H1172 H 0.01051 0.23655 0.72808
 H1173 H 0.05145 0.25131 0.74724
 H1174 H 0.01030 0.26374 0.76753
 C1175 C 0.45997 0.24988 0.24670
 C1176 C 0.46773 0.25695 0.25799
 C1177 C 0.48331 0.25592 0.25870
 C1178 C 0.49145 0.24840 0.24766
 C1179 C 0.48337 0.24155 0.23615
 C1180 C 0.46773 0.24202 0.23591
 C1181 C 0.50818 0.24772 0.24821
 C1182 C 0.51612 0.23600 0.24133
 C1183 C 0.53175 0.23555 0.24180
 C1184 C 0.53965 0.24640 0.24956
 C1185 C 0.53203 0.25794 0.25659
 C1186 C 0.51645 0.25880 0.25568
 H1187 H 0.44787 0.25043 0.24636
 H1188 H 0.48891 0.26092 0.26798
 H1189 H 0.48908 0.23587 0.22731
 H1190 H 0.51031 0.22713 0.23566
 H1191 H 0.55176 0.24591 0.25008
 H1192 H 0.51096 0.26822 0.26077
 C1193 C 1.04003 0.74772 0.74641
 C1194 C 1.03216 0.73740 0.75490
 C1195 C 1.01653 0.73770 0.75519
 C1196 C 1.00850 0.74882 0.74748
 C1197 C 1.01674 0.75939 0.73922
 C1198 C 1.03236 0.75862 0.73849
 C1199 C 0.99173 0.74941 0.74812
 C1200 C 0.98341 0.75649 0.73692
 C1201 C 0.96781 0.75732 0.73772
 C1202 C 0.96020 0.75047 0.74928
 C1203 C 0.96813 0.74307 0.76027
 C1204 C 0.98378 0.74286 0.75992
 H1205 H 1.05214 0.74734 0.74607
 H1206 H 1.01083 0.72918 0.76145
 H1207 H 1.01123 0.76837 0.73343
 H1208 H 0.98886 0.76133 0.72746
 H1209 H 0.94809 0.75086 0.74969
 H1210 H 0.98955 0.73758 0.76895
 C1211 C 0.54000 0.74790 0.24781
 C1212 C 0.53226 0.73706 0.25574
 C1213 C 0.51661 0.73673 0.25543
 C1214 C 0.50842 0.74773 0.24766
 C1215 C 0.51659 0.75881 0.23998
 C1216 C 0.53222 0.75863 0.23979
 C1217 C 0.49158 0.74770 0.24758
 C1218 C 0.48344 0.75551 0.23667
 C1219 C 0.46780 0.75586 0.23693
 C1220 C 0.45999 0.74787 0.24758
 C1221 C 0.46771 0.73981 0.25825
 C1222 C 0.48335 0.73996 0.25847
 H1223 H 0.55213 0.74799 0.24788
 H1224 H 0.51107 0.72778 0.26122
 H1225 H 0.51105 0.76774 0.23417
 H1226 H 0.48901 0.76133 0.22785
 H1227 H 0.44787 0.74797 0.24761
 H1228 H 0.48886 0.73410 0.26730
 C1229 C -0.04054 0.74689 0.25012
 C1230 C -0.03278 0.75767 0.25808
 C1231 C -0.01718 0.75845 0.25717
 C1232 C -0.00895 0.74793 0.24880
 C1233 C -0.01714 0.73684 0.24112
 C1234 C -0.03280 0.73657 0.24154
 C1235 C 0.00791 0.74861 0.24807
 C1236 C 0.01598 0.74103 0.23695
 C1237 C 0.03163 0.74154 0.23650
 C1238 C 0.03947 0.75016 0.24664
 C1239 C 0.03185 0.75791 0.25756
 C1240 C 0.01625 0.75688 0.25852
 H1241 H -0.05265 0.74656 0.25055
 H1242 H -0.01174 0.76742 0.26296
 H1243 H -0.01160 0.72828 0.23481
 H1244 H 0.01037 0.73471 0.22851
 H1245 H 0.05156 0.75072 0.24610
 H1246 H 0.01090 0.76248 0.26759
 C1247 C 0.45850 0.75077 0.74666
 C1248 C 0.46617 0.75767 0.75812
 C1249 C 0.48179 0.75709 0.75865
 C1250 C 0.49003 0.75013 0.74734
 C1251 C 0.48203 0.74349 0.73566
 C1252 C 0.46638 0.74353 0.73553
 C1253 C 0.50681 0.74978 0.74772
 C1254 C 0.51486 0.73867 0.74005
 C1255 C 0.53049 0.73868 0.73998
 C1256 C 0.53834 0.74924 0.74817
 C1257 C 0.53064 0.76005 0.75616
 C1258 C 0.51501 0.76056 0.75571
 H1259 H 0.44638 0.75098 0.74642
 H1260 H 0.48731 0.76201 0.76801
 H1261 H 0.48777 0.73829 0.72657
 H1262 H 0.50916 0.72990 0.73413
 H1263 H 0.55047 0.74904 0.74830
 H1264 H 0.50945 0.76947 0.76154
 C1265 C 0.41939 0.29244 0.31601
 C1266 C 0.42474 0.29765 0.30253
 C1267 C 0.41936 0.31111 0.29680
 C1268 C 0.40841 0.31915 0.30432
 C1269 C 0.40257 0.31378 0.31766
 C1270 C 0.40841 0.30046 0.32356
 C1271 C 0.43503 0.28882 0.29409
 C1272 C 0.44322 0.28142 0.28654
 C1273 C 0.45229 0.27280 0.27715
 C1274 C 0.45957 0.26550 0.26867
 H1275 H 0.42346 0.28201 0.32053
 H1276 H 0.42342 0.31524 0.28636
 H1277 H 0.40443 0.32945 0.29953
 H1278 H 0.40427 0.29597 0.33380
 C1279 C 0.41932 0.79408 0.81741
 C1280 C 0.42356 0.79813 0.80319
 C1281 C 0.41730 0.81078 0.79666
 C1282 C 0.40650 0.81911 0.80407
 C1283 C 0.40162 0.81487 0.81820
 C1284 C 0.40852 0.80242 0.82490
 C1285 C 0.43367 0.78896 0.79488
 C1286 C 0.44171 0.78143 0.78730
 C1287 C 0.45065 0.77285 0.77775
 C1288 C 0.45791 0.76577 0.76907
 H1289 H 0.42413 0.78431 0.82258
 H1290 H 0.42054 0.81403 0.78566
 H1291 H 0.40189 0.82870 0.79849
 H1292 H 0.40543 0.79877 0.83579
 C1293 C -0.08460 0.29542 0.81026
 C1294 C -0.07916 0.30168 0.79724
 C1295 C -0.08496 0.31527 0.79226
 C1296 C -0.09625 0.32249 0.80016
 C1297 C -0.10202 0.31617 0.81313
 C1298 C -0.09591 0.30260 0.81817
 C1299 C -0.06813 0.29383 0.78867
 C1300 C -0.05926 0.28690 0.78138
 C1301 C -0.04940 0.27826 0.77274
 C1302 C -0.04158 0.27032 0.76531
 H1303 H -0.08023 0.28486 0.81420
 H1304 H -0.08088 0.32022 0.78218
 H1305 H -0.10048 0.33296 0.79596
 H1306 H -0.09993 0.29736 0.82810
 C1307 C -0.08397 0.79342 0.31226
 C1308 C -0.07698 0.80008 0.30018
 C1309 C -0.08087 0.81463 0.29608
 C1310 C -0.09184 0.82241 0.30389
 C1311 C -0.09918 0.81571 0.31588
 C1312 C -0.09494 0.80118 0.32010
 C1313 C -0.06641 0.79172 0.29153
 C1314 C -0.05794 0.78449 0.28408
 C1315 C -0.04854 0.77567 0.27514
 C1316 C -0.04104 0.76774 0.26738
 H1317 H -0.08116 0.78210 0.31546
 H1318 H -0.07561 0.81988 0.28670
 H1319 H -0.09461 0.83360 0.30037
 H1320 H -0.10030 0.79561 0.32922
 C1321 C 0.58351 0.68133 0.29220
 C1322 C 0.57813 0.69534 0.29645
 C1323 C 0.58413 0.70238 0.30880
 C1324 C 0.59560 0.69556 0.31677
 C1325 C 0.60130 0.68159 0.31245
 C1326 C 0.59502 0.67448 0.30014
 C1327 C 0.56704 0.70293 0.28777
 C1328 C 0.55818 0.70982 0.28046
 C1329 C 0.54838 0.71855 0.27187
 C1330 C 0.54064 0.72662 0.26451
 H1331 H 0.57897 0.67578 0.28263
 H1332 H 0.58014 0.71328 0.31213
 H1333 H 0.60019 0.70146 0.32608
 H1334 H 0.59900 0.66368 0.29655
 C1335 C 0.58420 0.18991 0.79715
 C1336 C 0.57841 0.20296 0.80337
 C1337 C 0.58380 0.20788 0.81692
 C1338 C 0.59503 0.19985 0.82416
 C1339 C 0.60109 0.18678 0.81792
 C1340 C 0.59541 0.18187 0.80435
 C1341 C 0.56744 0.21156 0.79543
 C1342 C 0.55862 0.21864 0.78824
 C1343 C 0.54882 0.22683 0.77912
 C1344 C 0.54106 0.23377 0.77071
 H1345 H 0.58017 0.18604 0.78661
 H1346 H 0.57947 0.21801 0.82183
 H1347 H 0.59899 0.20403 0.83457
 H1348 H 0.59969 0.17192 0.79912
 C1349 C 1.08123 0.68114 0.79286
 C1350 C 1.07537 0.69483 0.79748
 C1351 C 1.08054 0.70135 0.81046
 C1352 C 1.09181 0.69443 0.81859
 C1353 C 1.09815 0.68091 0.81379
 C1354 C 1.09251 0.67419 0.80098
 C1355 C 1.06492 0.70277 0.78839
 C1356 C 1.05667 0.70989 0.78065
 C1357 C 1.04758 0.71882 0.77156
 C1358 C 1.04030 0.72699 0.76387
 H1359 H 1.07732 0.67601 0.78281
 H1360 H 1.07613 0.71199 0.81410
 H1361 H 1.09585 0.69997 0.82835
 H1362 H 1.09693 0.66369 0.79705
 C1363 C 1.08168 0.20153 0.31107
 C1364 C 1.07635 0.19489 0.29822
 C1365 C 1.08202 0.18107 0.29375
 C1366 C 1.09326 0.17409 0.30190
 C1367 C 1.09905 0.18090 0.31460
 C1368 C 1.09291 0.19457 0.31925
 C1369 C 1.06585 0.20276 0.28911
 C1370 C 1.05754 0.20979 0.28136
 C1371 C 1.04838 0.21860 0.27221
 C1372 C 1.04107 0.22669 0.26446
 H1373 H 1.07742 0.21227 0.31458
 H1374 H 1.07798 0.17584 0.28380
 H1375 H 1.09752 0.16347 0.29810
 H1376 H 1.09705 0.20017 0.32893
 C1377 C 0.58400 0.29331 0.68231
 C1378 C 0.57909 0.29759 0.69625
 C1379 C 0.58543 0.31005 0.70307
 C1380 C 0.59667 0.31820 0.69604
 C1381 C 0.60180 0.31397 0.68205
 C1382 C 0.59525 0.30144 0.67525
 C1383 C 0.56800 0.28889 0.70388
 C1384 C 0.55907 0.28163 0.71076
 C1385 C 0.54915 0.27315 0.71947
 C1386 C 0.54130 0.26591 0.72754
 H1387 H 0.57925 0.28361 0.67696
 H1388 H 0.58181 0.31337 0.71393
 H1389 H 0.60143 0.32767 0.70172
 H1390 H 0.59880 0.29782 0.66449
 C1391 C 0.58409 0.79522 0.18759
 C1392 C 0.57735 0.80187 0.19978
 C1393 C 0.58189 0.81609 0.20430
 C1394 C 0.59333 0.82352 0.19681
 C1395 C 0.60040 0.81680 0.18469
 C1396 C 0.59550 0.80264 0.18005
 C1397 C 0.56642 0.79370 0.20813
 C1398 C 0.55771 0.78644 0.21526
 C1399 C 0.54811 0.77740 0.22374
 C1400 C 0.54052 0.76916 0.23106
 H1401 H 0.58075 0.78415 0.18409
 H1402 H 0.57678 0.82132 0.21377
 H1403 H 0.59667 0.83446 0.20061
 H1404 H 0.60071 0.79707 0.17086
 C1405 C 1.08225 0.31642 0.20362
 C1406 C 1.07784 0.30218 0.19906
 C1407 C 1.08450 0.29573 0.18671
 C1408 C 1.09573 0.30335 0.17911
 C1409 C 1.10053 0.31752 0.18383
 C1410 C 1.09350 0.32406 0.19605
 C1411 C 1.06716 0.29379 0.20751
 C1412 C 1.05863 0.28639 0.21473
 C1413 C 1.04918 0.27725 0.22328
 C1414 C 1.04161 0.26900 0.23062
 H1415 H 1.07720 0.32151 0.21320
 H1416 H 1.08123 0.28466 0.18314
 H1417 H 1.10091 0.29790 0.16983
 H1418 H 1.09675 0.33501 0.19990
 C1419 C 1.08440 0.79548 0.68617
 C1420 C 1.07760 0.80184 0.69849
 C1421 C 1.08201 0.81601 0.70326
 C1422 C 1.09335 0.82370 0.69590
 C1423 C 1.10048 0.81728 0.68367
 C1424 C 1.09573 0.80316 0.67877
 C1425 C 1.06672 0.79346 0.70669
 C1426 C 1.05802 0.78611 0.71375
 C1427 C 1.04840 0.77708 0.72222
 C1428 C 1.04075 0.76892 0.72958
 H1429 H 1.08116 0.78445 0.68246
 H1430 H 1.07688 0.82100 0.71284
 H1431 H 1.09660 0.83460 0.69989
 H1432 H 1.10101 0.79780 0.66950
 C1433 C 0.41574 0.70806 0.67890
 C1434 C 0.42223 0.70320 0.69201
 C1435 C 0.41766 0.68970 0.69830
 C1436 C 0.40645 0.68121 0.69169
 C1437 C 0.39957 0.68612 0.67867
 C1438 C 0.40451 0.69957 0.67224
 C1439 C 0.43289 0.71240 0.69962
 C1440 C 0.44138 0.71993 0.70672
 C1441 C 0.45076 0.72848 0.71589
 C1442 C 0.45821 0.73551 0.72446
 H1443 H 0.41913 0.71855 0.67398
 H1444 H 0.42255 0.68586 0.70850
 H1445 H 0.40310 0.67089 0.69692
 H1446 H 0.39949 0.70377 0.66227
 C1447 C 0.41553 0.20826 0.18004
 C1448 C 0.42275 0.20248 0.19241
 C1449 C 0.41877 0.18839 0.19778
 C1450 C 0.40740 0.18023 0.19102
 C1451 C 0.39979 0.18608 0.17880
 C1452 C 0.40414 0.20010 0.17324
 C1453 C 0.43355 0.21130 0.20025
 C1454 C 0.44218 0.21858 0.20744
 C1455 C 0.45175 0.22693 0.21658
 C1456 C 0.45938 0.23391 0.22503
 H1457 H 0.41847 0.21920 0.17585
 H1458 H 0.42426 0.18383 0.20738
 H1459 H 0.40452 0.16942 0.19551
 H1460 H 0.39851 0.20500 0.16391
 C1461 C -0.08453 0.70168 0.18838
 C1462 C -0.07886 0.69481 0.20099
 C1463 C -0.08456 0.68099 0.20546
 C1464 C -0.09599 0.67414 0.19745
 C1465 C -0.10194 0.68106 0.18486
 C1466 C -0.09595 0.69486 0.18035
 C1467 C -0.06776 0.70240 0.20969
 C1468 C -0.05887 0.70928 0.21698
 C1469 C -0.04903 0.71802 0.22552
 C1470 C -0.04123 0.72611 0.23283
 H1471 H -0.08029 0.71245 0.18488
 H1472 H -0.08031 0.67559 0.21525
 H1473 H -0.10017 0.66347 0.20120
 H1474 H -0.10024 0.70061 0.17081
 C1475 C -0.08441 0.20275 0.68740
 C1476 C -0.07903 0.19637 0.70037
 C1477 C -0.08513 0.18293 0.70543
 C1478 C -0.09668 0.17599 0.69766
 C1479 C -0.10235 0.18244 0.68470
 C1480 C -0.09595 0.19585 0.67961
 C1481 C -0.06785 0.20409 0.70884
 C1482 C -0.05890 0.21105 0.71598
 C1483 C -0.04902 0.21987 0.72440
 C1484 C -0.04124 0.22804 0.73163
 H1485 H -0.07986 0.21321 0.68343
 H1486 H -0.08111 0.17792 0.71550
 H1487 H -0.10118 0.16565 0.70190
 H1488 H -0.10000 0.20123 0.66977
 C1489 C 0.31899 0.41712 0.29423
 C1490 C 0.30535 0.42291 0.29911
 C1491 C 0.29865 0.41705 0.31172
 C1492 C 0.30545 0.40534 0.31936
 C1493 C 0.31905 0.39925 0.31443
 C1494 C 0.32582 0.40539 0.30184
 C1495 C 0.29771 0.43425 0.29079
 C1496 C 0.29070 0.44330 0.28384
 C1497 C 0.28170 0.45324 0.27570
 C1498 C 0.27330 0.46104 0.26876
 H1499 H 0.32424 0.42152 0.28442
 H1500 H 0.28802 0.42135 0.31552
 H1501 H 0.29983 0.40090 0.32891
 H1502 H 0.33635 0.40113 0.29780
 C1503 C 0.31731 -0.08433 0.79271
 C1504 C 0.30516 -0.07682 0.79890
 C1505 C 0.30012 -0.08085 0.81286
 C1506 C 0.30702 -0.09247 0.82054
 C1507 C 0.31910 -0.10041 0.81435
 C1508 C 0.32426 -0.09598 0.80035
 C1509 C 0.29723 -0.06562 0.79065
 C1510 C 0.29002 -0.05665 0.78376
 C1511 C 0.28089 -0.04673 0.77570
 C1512 C 0.27245 -0.03889 0.76884
 H1513 H 0.32127 -0.08136 0.78186
 H1514 H 0.29066 -0.07516 0.81773
 H1515 H 0.30262 -0.09525 0.83124
 H1516 H 0.33353 -0.10154 0.79509
 C1517 C 0.81096 0.41878 0.79809
 C1518 C 0.79851 0.42519 0.80486
 C1519 C 0.79424 0.42042 0.81885
 C1520 C 0.80214 0.40900 0.82589
 C1521 C 0.81446 0.40206 0.81899
 C1522 C 0.81891 0.40740 0.80508
 C1523 C 0.78968 0.43603 0.79706
 C1524 C 0.78221 0.44469 0.79007
 C1525 C 0.77342 0.45426 0.78130
 C1526 C 0.76595 0.46186 0.77322
 H1527 H 0.81436 0.42237 0.78724
 H1528 H 0.78462 0.42534 0.82421
 H1529 H 0.79836 0.40558 0.83663
 H1530 H 0.82836 0.40270 0.79934
 C1531 C 0.81702 -0.08117 0.29359
 C1532 C 0.80394 -0.07480 0.29915
 C1533 C 0.79827 -0.07965 0.31261
 C1534 C 0.80551 -0.09096 0.32042
 C1535 C 0.81853 -0.09780 0.31479
 C1536 C 0.82431 -0.09249 0.30136
 C1537 C 0.79585 -0.06392 0.29068
 C1538 C 0.78864 -0.05522 0.28350
 C1539 C 0.77965 -0.04559 0.27502
 C1540 C 0.77142 -0.03795 0.26773
 H1541 H 0.82145 -0.07760 0.28309
 H1542 H 0.78806 -0.07488 0.31698
 H1543 H 0.80063 -0.09440 0.33072
 H1544 H 0.83430 -0.09717 0.29656
 C1545 C 0.31930 0.58225 0.71074
 C1546 C 0.30661 0.57477 0.70565
 C1547 C 0.30048 0.57858 0.69205
 C1548 C 0.30686 0.58998 0.68366
 C1549 C 0.31947 0.59781 0.68877
 C1550 C 0.32573 0.59365 0.70235
 C1551 C 0.29918 0.56392 0.71474
 C1552 C 0.29230 0.55529 0.72232
 C1553 C 0.28341 0.54581 0.73107
 C1554 C 0.27507 0.53831 0.73838
 H1555 H 0.32407 0.57945 0.72131
 H1556 H 0.29057 0.57294 0.68806
 H1557 H 0.30168 0.59276 0.67331
 H1558 H 0.33546 0.59930 0.70665
 C1559 C 0.31869 1.08302 0.21056
 C1560 C 0.30607 1.07547 0.20539
 C1561 C 0.30004 1.07925 0.19173
 C1562 C 0.30646 1.09065 0.18336
 C1563 C 0.31902 1.09852 0.18854
 C1564 C 0.32516 1.09443 0.20220
 C1565 C 0.29870 1.06450 0.21441
 C1566 C 0.29195 1.05572 0.22194
 C1567 C 0.28330 1.04601 0.23072
 C1568 C 0.27521 1.03833 0.23814
 H1569 H 0.32339 1.08025 0.22117
 H1570 H 0.29020 1.07356 0.18766
 H1571 H 0.30136 1.09341 0.17297
 H1572 H 0.33483 1.10011 0.20658
 C1573 C 0.79198 0.57968 0.18052
 C1574 C 0.79679 0.57440 0.19416
 C1575 C 0.80973 0.58028 0.20051
 C1576 C 0.81769 0.59160 0.19341
 C1577 C 0.81278 0.59729 0.17985
 C1578 C 0.79993 0.59102 0.17338
 C1579 C 0.78803 0.56366 0.20217
 C1580 C 0.78073 0.55514 0.20949
 C1581 C 0.77231 0.54577 0.21880
 C1582 C 0.76528 0.53831 0.22738
 H1583 H 0.78192 0.57527 0.17554
 H1584 H 0.81351 0.57633 0.21111
 H1585 H 0.82754 0.59599 0.19874
 H1586 H 0.79577 0.59502 0.16297
 C1587 C 0.81073 1.08047 0.70065
 C1588 C 0.79748 1.07492 0.69463
 C1589 C 0.79236 1.08041 0.68119
 C1590 C 0.80031 1.09164 0.67391
 C1591 C 0.81348 1.09758 0.68003
 C1592 C 0.81871 1.09167 0.69339
 C1593 C 0.78867 1.06430 0.70273
 C1594 C 0.78118 1.05586 0.70993
 C1595 C 0.77237 1.04655 0.71893
 C1596 C 0.76489 1.03914 0.72717
 H1597 H 0.81475 1.07634 0.71110
 H1598 H 0.78206 1.07626 0.67648
 H1599 H 0.79587 1.09586 0.66369
 H1600 H 0.82884 1.09580 0.69841
 C1601 C 0.70629 0.57936 0.31790
 C1602 C 0.70181 0.57445 0.30403
 C1603 C 0.68904 0.58053 0.29752
 C1604 C 0.68096 0.59171 0.30468
 C1605 C 0.68561 0.59709 0.31845
 C1606 C 0.69823 0.59055 0.32510
 C1607 C 0.71072 0.56385 0.29603
 C1608 C 0.71818 0.55541 0.28881
 C1609 C 0.72685 0.54607 0.27972
 C1610 C 0.73412 0.53860 0.27137
 H1611 H 0.71620 0.57476 0.32302
 H1612 H 0.68549 0.57684 0.28676
 H1613 H 0.67124 0.59625 0.29924
 H1614 H 0.70215 0.59427 0.33569
 C1615 C 0.70357 1.08108 0.81470
 C1616 C 0.69872 1.07675 0.80079
 C1617 C 0.68612 1.08354 0.79464
 C1618 C 0.67849 1.09475 0.80230
 C1619 C 0.68343 1.09948 0.81625
 C1620 C 0.69602 1.09228 0.82238
 C1621 C 0.70709 1.06586 0.79254
 C1622 C 0.71433 1.05712 0.78542
 C1623 C 0.72305 1.04742 0.77670
 C1624 C 0.73064 1.03969 0.76882
 H1625 H 0.71336 1.07594 0.81955
 H1626 H 0.68232 1.08034 0.78381
 H1627 H 0.66891 1.09980 0.79705
 H1628 H 0.70027 1.09527 0.83306
 C1629 C 0.20575 0.58294 0.81366
 C1630 C 0.19895 0.57601 0.80165
 C1631 C 0.18462 0.58036 0.79730
 C1632 C 0.17720 0.59179 0.80478
 C1633 C 0.18407 0.59906 0.81668
 C1634 C 0.19835 0.59435 0.82118
 C1635 C 0.20707 0.56506 0.79332
 C1636 C 0.21431 0.55631 0.78625
 C1637 C 0.22336 0.54665 0.77788
 C1638 C 0.23162 0.53895 0.77070
 H1639 H 0.21690 0.57975 0.81704
 H1640 H 0.17927 0.57510 0.78798
 H1641 H 0.16614 0.59497 0.80115
 H1642 H 0.20401 0.59975 0.83021
 C1643 C 0.20703 1.08275 0.31475
 C1644 C 0.20047 1.07599 0.30251
 C1645 C 0.18634 1.08065 0.29780
 C1646 C 0.17892 1.09217 0.30514
 C1647 C 0.18556 1.09926 0.31728
 C1648 C 0.19962 1.09426 0.32212
 C1649 C 0.20859 1.06489 0.29434
 C1650 C 0.21575 1.05600 0.28733
 C1651 C 0.22463 1.04618 0.27893
 C1652 C 0.23274 1.03842 0.27164
 H1653 H 0.21802 1.07931 0.31842
 H1654 H 0.18118 1.07554 0.28830
 H1655 H 0.16803 1.09555 0.30121
 H1656 H 0.20512 1.09947 0.33136
 C1657 C 0.68827 0.41658 0.70663
 C1658 C 0.69981 0.42448 0.69972
 C1659 C 0.70338 0.42139 0.68512
 C1660 C 0.69560 0.41032 0.67748
 C1661 C 0.68416 0.40209 0.68437
 C1662 C 0.68047 0.40549 0.69901
 C1663 C 0.70842 0.43528 0.70781
 C1664 C 0.71582 0.44398 0.71480
 C1665 C 0.72463 0.45368 0.72341
 C1666 C 0.73221 0.46141 0.73126
 H1667 H 0.68548 0.41882 0.71798
 H1668 H 0.71231 0.42739 0.67967
 H1669 H 0.69867 0.40821 0.66620
 H1670 H 0.67179 0.39940 0.70472
 C1671 C 0.68299 -0.08021 0.20732
 C1672 C 0.69643 -0.07410 0.20229
 C1673 C 0.70265 -0.07912 0.18911
 C1674 C 0.69562 -0.09042 0.18112
 C1675 C 0.68229 -0.09693 0.18626
 C1676 C 0.67593 -0.09150 0.19934
 C1677 C 0.70434 -0.06339 0.21108
 C1678 C 0.71143 -0.05485 0.21853
 C1679 C 0.72036 -0.04542 0.22725
 C1680 C 0.72860 -0.03790 0.23462
 H1681 H 0.67812 -0.07645 0.21755
 H1682 H 0.71311 -0.07453 0.18518
 H1683 H 0.70089 -0.09426 0.17114
 H1684 H 0.66559 -0.09604 0.20356
 C1685 C 0.18440 0.41956 0.20772
 C1686 C 0.19821 0.42516 0.20312
 C1687 C 0.20474 0.41979 0.19022
 C1688 C 0.19763 0.40863 0.18209
 C1689 C 0.18390 0.40263 0.18681
 C1690 C 0.17726 0.40841 0.19961
 C1691 C 0.20613 0.43576 0.21205
 C1692 C 0.21319 0.44420 0.21964
 C1693 C 0.22202 0.45353 0.22857
 C1694 C 0.23012 0.46100 0.23615
 H1695 H 0.17929 0.42360 0.21774
 H1696 H 0.21548 0.42398 0.18661
 H1697 H 0.20313 0.40449 0.17235
 H1698 H 0.16663 0.40425 0.20351
 C1699 C 0.20408 -0.07992 0.69056
 C1700 C 0.19749 -0.07456 0.70344
 C1701 C 0.18370 -0.08022 0.70803
 C1702 C 0.17662 -0.09139 0.69990
 C1703 C 0.18329 -0.09710 0.68709
 C1704 C 0.19702 -0.09108 0.68241
 C1705 C 0.20532 -0.06390 0.71235
 C1706 C 0.21231 -0.05539 0.71992
 C1707 C 0.22108 -0.04599 0.72883
 C1708 C 0.22916 -0.03852 0.73640
 H1709 H 0.21482 -0.07569 0.68698
 H1710 H 0.17855 -0.07620 0.71803
 H1711 H 0.16601 -0.09562 0.70378
 H1712 H 0.20257 -0.09523 0.67270
 C1713 C 0.31759 0.29834 0.42106
 C1714 C 0.30257 0.30156 0.42388
 C1715 C 0.29542 0.31295 0.41606
 C1716 C 0.30319 0.32096 0.40531
 C1717 C 0.31822 0.31760 0.40215
 C1718 C 0.32537 0.30632 0.41031
 C1719 C 0.29427 0.29273 0.43427
 C1720 C 0.28699 0.28519 0.44258
 C1721 C 0.27800 0.27628 0.45182
 C1722 C 0.26983 0.26867 0.45921
 H1723 H 0.32322 0.28950 0.42700
 H1724 H 0.28375 0.31545 0.41808
 H1725 H 0.29725 0.32947 0.39924
 H1726 H 0.33696 0.30353 0.40835
 C1727 C 0.29478 0.81395 -0.08425
 C1728 C 0.30189 0.80259 -0.07636
 C1729 C 0.31701 0.79959 -0.07889
 C1730 C 0.32490 0.80767 -0.08952
 C1731 C 0.31775 0.81886 -0.09781
 C1732 C 0.30264 0.82207 -0.09486
 C1733 C 0.29343 0.79356 -0.06623
 C1734 C 0.28603 0.78586 -0.05814
 C1735 C 0.27696 0.77677 -0.04913
 C1736 C 0.26882 0.76899 -0.04185
 H1737 H 0.28305 0.81633 -0.08244
 H1738 H 0.32265 0.79082 -0.07285
 H1739 H 0.33655 0.80502 -0.09132
 H1740 H 0.29672 0.83053 -0.10101
 C1741 C 0.81324 0.29508 -0.08337
 C1742 C 0.80185 0.30236 -0.07567
 C1743 C 0.79866 0.31733 -0.07871
 C1744 C 0.80661 0.32492 -0.08962
 C1745 C 0.81785 0.31761 -0.09773
 C1746 C 0.82122 0.30264 -0.09429
 C1747 C 0.79292 0.29419 -0.06526
 C1748 C 0.78529 0.28699 -0.05696
 C1749 C 0.77627 0.27809 -0.04775
 C1750 C 0.76854 0.27003 -0.04035
 H1751 H 0.81576 0.28346 -0.08113
 H1752 H 0.78985 0.32308 -0.07282
 H1753 H 0.80382 0.33647 -0.09177
 H1754 H 0.82973 0.29659 -0.10024
 C1755 C 0.79387 0.81940 0.41720
 C1756 C 0.79772 0.80502 0.42185
 C1757 C 0.81014 0.79789 0.41571
 C1758 C 0.81857 0.80500 0.40482
 C1759 C 0.81463 0.81935 0.39983
 C1760 C 0.80228 0.82654 0.40631
 C1761 C 0.78864 0.79728 0.43248
 C1762 C 0.78103 0.79039 0.44106
 C1763 C 0.77212 0.78174 0.45065
 C1764 C 0.76452 0.77377 0.45830
 H1765 H 0.78428 0.82505 0.42187
 H1766 H 0.81321 0.78674 0.41920
 H1767 H 0.82798 0.79908 0.40019
 H1768 H 0.79896 0.83763 0.40295
 C1769 C 0.68920 0.30011 0.58063
 C1770 C 0.70172 0.30710 0.57455
 C1771 C 0.70573 0.32145 0.57912
 C1772 C 0.69743 0.32866 0.59001
 C1773 C 0.68508 0.32153 0.59657
 C1774 C 0.68089 0.30728 0.59151
 C1775 C 0.71086 0.29911 0.56424
 C1776 C 0.71847 0.29186 0.55601
 C1777 C 0.72724 0.28272 0.54685
 C1778 C 0.73458 0.27431 0.53950
 H1779 H 0.68604 0.28897 0.57720
 H1780 H 0.71543 0.32694 0.57449
 H1781 H 0.70090 0.33969 0.59341
 H1782 H 0.67145 0.30142 0.59616
 C1783 C 0.70630 0.82023 1.08242
 C1784 C 0.70113 0.80675 1.07657
 C1785 C 0.68788 0.80046 1.08189
 C1786 C 0.67994 0.80748 1.09316
 C1787 C 0.68519 0.82088 1.09938
 C1788 C 0.69838 0.82727 1.09370
 C1789 C 0.70980 0.79889 1.06573
 C1790 C 0.71713 0.79182 1.05707
 C1791 C 0.72576 0.78289 1.04752
 C1792 C 0.73314 0.77464 1.03998
 H1793 H 0.71659 0.82517 1.07845
 H1794 H 0.68381 0.78998 1.07751
 H1795 H 0.66984 0.80221 1.09710
 H1796 H 0.70280 0.83758 1.09807
 C1797 C 0.18915 0.29881 1.08349
 C1798 C 0.20227 0.30501 1.07779
 C1799 C 0.20730 0.31882 1.08297
 C1800 C 0.19936 0.32631 1.09396
 C1801 C 0.18629 0.32002 1.10001
 C1802 C 0.18120 0.30625 1.09447
 C1803 C 0.21087 0.29675 1.06720
 C1804 C 0.21801 0.28930 1.05871
 C1805 C 0.22630 0.27993 1.04930
 C1806 C 0.23333 0.27136 1.04179
 H1807 H 0.18519 0.28807 1.07963
 H1808 H 0.21750 0.32369 1.07869
 H1809 H 0.20363 0.33690 1.09780
 H1810 H 0.17123 0.30099 1.09873
 C1811 C 0.18894 0.79973 0.58367
 C1812 C 0.20185 0.80615 0.57780
 C1813 C 0.20651 0.82024 0.58257
 C1814 C 0.19842 0.82776 0.59341
 C1815 C 0.18560 0.82121 0.59970
 C1816 C 0.18085 0.80719 0.59450
 C1817 C 0.21069 0.79776 0.56757
 C1818 C 0.21792 0.79004 0.55942
 C1819 C 0.22613 0.78028 0.55041
 C1820 C 0.23292 0.77137 0.54313
 H1821 H 0.18530 0.78877 0.58011
 H1822 H 0.21655 0.82528 0.57812
 H1823 H 0.20238 0.83857 0.59698
 H1824 H 0.17109 0.80172 0.59897
 C1825 C 0.30791 0.69650 0.58099
 C1826 C 0.29376 0.69105 0.57735
 C1827 C 0.28831 0.67819 0.58427
 C1828 C 0.29690 0.67097 0.59497
 C1829 C 0.31104 0.67659 0.59895
 C1830 C 0.31651 0.68932 0.59163
 C1831 C 0.28467 0.69923 0.56711
 C1832 C 0.27735 0.70679 0.55887
 C1833 C 0.26910 0.71646 0.54972
 C1834 C 0.26232 0.72542 0.54245
 H1835 H 0.31222 0.70650 0.57578
 H1836 H 0.27731 0.67392 0.58159
 H1837 H 0.29228 0.66120 0.60027
 H1838 H 0.32734 0.69397 0.59421
 C1839 C 0.30949 0.19621 1.07951
 C1840 C 0.29506 0.19130 1.07619
 C1841 C 0.28912 0.17890 1.08352
 C1842 C 0.29748 0.17166 1.09438
 C1843 C 0.31188 0.17680 1.09810
 C1844 C 0.31786 0.18900 1.09031
 C1845 C 0.28615 0.19970 1.06596
 C1846 C 0.27896 0.20745 1.05777
 C1847 C 0.27083 0.21729 1.04869
 C1848 C 0.26409 0.22629 1.04143
 H1849 H 0.31418 0.20584 1.07396
 H1850 H 0.27791 0.17505 1.08108
 H1851 H 0.29248 0.16230 1.10006
 H1852 H 0.32892 0.19322 1.09265
 C1853 C 0.81186 0.70612 1.08301
 C1854 C 0.80020 0.69915 1.07542
 C1855 C 0.79672 0.68422 1.07842
 C1856 C 0.80467 0.67638 1.08914
 C1857 C 0.81618 0.68339 1.09712
 C1858 C 0.81983 0.69830 1.09375
 C1859 C 0.79133 0.70754 1.06514
 C1860 C 0.78375 0.71486 1.05691
 C1861 C 0.77478 0.72386 1.04775
 C1862 C 0.76711 0.73200 1.04037
 H1863 H 0.81459 0.71771 1.08083
 H1864 H 0.78770 0.67871 1.07264
 H1865 H 0.80165 0.66488 1.09125
 H1866 H 0.82855 0.70412 1.09964
 C1867 C 0.79759 0.18302 0.57720
 C1868 C 0.80026 0.19820 0.57470
 C1869 C 0.81104 0.20572 0.58299
 C1870 C 0.81899 0.19816 0.59390
 C1871 C 0.81617 0.18296 0.59674
 C1872 C 0.80551 0.17543 0.58812
 C1873 C 0.79143 0.20633 0.56422
 C1874 C 0.78393 0.21358 0.55588
 C1875 C 0.77510 0.22265 0.54668
 C1876 C 0.76757 0.23093 0.53935
 H1877 H 0.78921 0.17711 0.57089
 H1878 H 0.81309 0.21751 0.58122
 H1879 H 0.82700 0.20437 0.60034
 H1880 H 0.80318 0.16370 0.58985
 C1881 C 0.70148 0.68423 0.41981
 C1882 C 0.69722 0.69878 0.42346
 C1883 C 0.68507 0.70540 0.41634
 C1884 C 0.67736 0.69762 0.40542
 C1885 C 0.68175 0.68307 0.40140
 C1886 C 0.69380 0.67642 0.40890
 C1887 C 0.70586 0.70721 0.43387
 C1888 C 0.71333 0.71455 0.44217
 C1889 C 0.72224 0.72354 0.45137
 C1890 C 0.72991 0.73169 0.45870
 H1891 H 0.71091 0.67901 0.42522
 H1892 H 0.68173 0.71671 0.41904
 H1893 H 0.66820 0.70317 0.39995
 H1894 H 0.69749 0.66525 0.40627
 C1895 C 0.68893 0.20128 -0.08045
 C1896 C 0.70175 0.19453 -0.07472
 C1897 C 0.70608 0.18042 -0.07970
 C1898 C 0.69779 0.17320 -0.09059
 C1899 C 0.68510 0.18007 -0.09677
 C1900 C 0.68063 0.19411 -0.09135
 C1901 C 0.71085 0.20251 -0.06435
 C1902 C 0.71849 0.20970 -0.05607
 C1903 C 0.72734 0.21878 -0.04691
 C1904 C 0.73476 0.22720 -0.03963
 H1905 H 0.68551 0.21225 -0.07672
 H1906 H 0.71602 0.17511 -0.07536
 H1907 H 0.70154 0.16237 -0.09429
 H1908 H 0.67093 0.19978 -0.09568
 C1909 C 0.20030 0.68760 -0.08164
 C1910 C 0.19399 0.70093 -0.07659
 C1911 C 0.18027 0.70572 -0.08221
 C1912 C 0.17304 0.69739 -0.09307
 C1913 C 0.17949 0.68417 -0.09857
 C1914 C 0.19310 0.67925 -0.09250
 C1915 C 0.20207 0.71006 -0.06629
 C1916 C 0.20929 0.71774 -0.05807
 C1917 C 0.21834 0.72672 -0.04896
 C1918 C 0.22660 0.73432 -0.04166
 H1919 H 0.21094 0.68380 -0.07740
 H1920 H 0.17530 0.71605 -0.07841
 H1921 H 0.16255 0.70154 -0.09729
 H1922 H 0.19841 0.66912 -0.09628
 C1923 C 0.20257 0.18943 0.41737
 C1924 C 0.19513 0.20141 0.42396
 C1925 C 0.18049 0.20480 0.41975
 C1926 C 0.17342 0.19642 0.40880
 C1927 C 0.18095 0.18458 0.40182
 C1928 C 0.19555 0.18104 0.40643
 C1929 C 0.20288 0.21061 0.43446
 C1930 C 0.20990 0.21830 0.44285
 C1931 C 0.21880 0.22726 0.45214
 C1932 C 0.22704 0.23480 0.45953
 H1933 H 0.21394 0.18673 0.42049
 H1934 H 0.17461 0.21406 0.42475
 H1935 H 0.16213 0.19937 0.40575
 H1936 H 0.20175 0.17204 0.40140
 C1937 C 0.29310 0.41863 0.68175
 C1938 C 0.29776 0.42357 0.69556
 C1939 C 0.31072 0.41768 0.70185
 C1940 C 0.31886 0.40669 0.69452
 C1941 C 0.31409 0.40131 0.68080
 C1942 C 0.30122 0.40761 0.67439
 C1943 C 0.28884 0.43395 0.70378
 C1944 C 0.28146 0.44219 0.71128
 C1945 C 0.27295 0.45123 0.72076
 C1946 C 0.26584 0.45844 0.72944
 H1947 H 0.28302 0.42307 0.67682
 H1948 H 0.31438 0.42137 0.71257
 H1949 H 0.32874 0.40229 0.69979
 H1950 H 0.29717 0.40384 0.66386
 C1951 C 0.31227 0.91343 0.20539
 C1952 C 0.30120 0.92192 0.19848
 C1953 C 0.29805 0.91953 0.18364
 C1954 C 0.30578 0.90854 0.17581
 C1955 C 0.31674 0.89972 0.18274
 C1956 C 0.32003 0.90246 0.19759
 C1957 C 0.29257 0.93248 0.20685
 C1958 C 0.28522 0.94090 0.21422
 C1959 C 0.27652 0.95021 0.22335
 C1960 C 0.26909 0.95762 0.23163
 H1961 H 0.31470 0.91509 0.21692
 H1962 H 0.28946 0.92599 0.17818
 H1963 H 0.30307 0.90692 0.16436
 H1964 H 0.32833 0.89592 0.20333
 C1965 C 0.79710 0.41527 0.18886
 C1966 C 0.80391 0.42102 0.20145
 C1967 C 0.81786 0.41559 0.20584
 C1968 C 0.82489 0.40431 0.19779
 C1969 C 0.81802 0.39827 0.18523
 C1970 C 0.80409 0.40400 0.18078
 C1971 C 0.79615 0.43185 0.21026
 C1972 C 0.78919 0.44050 0.21773
 C1973 C 0.78044 0.45003 0.22656
 C1974 C 0.77241 0.45760 0.23412
 H1975 H 0.78623 0.41930 0.18542
 H1976 H 0.82320 0.41991 0.21562
 H1977 H 0.83565 0.40030 0.20148
 H1978 H 0.79838 0.39958 0.17128
 C1979 C 0.79641 0.91565 0.68933
 C1980 C 0.80342 0.92143 0.70180
 C1981 C 0.81743 0.91597 0.70600
 C1982 C 0.82430 0.90464 0.69787
 C1983 C 0.81723 0.89859 0.68543
 C1984 C 0.80326 0.90435 0.68118
 C1985 C 0.79584 0.93239 0.71063
 C1986 C 0.78899 0.94117 0.71806
 C1987 C 0.78031 0.95088 0.72680
 C1988 C 0.77227 0.95855 0.73427
 H1989 H 0.78551 0.91970 0.68604
 H1990 H 0.82295 0.92032 0.71567
 H1991 H 0.83512 0.90063 0.70141
 H1992 H 0.79741 0.89995 0.67175
 C1993 C 0.68530 0.58281 0.70238
 C1994 C 0.69987 0.57874 0.69853
 C1995 C 0.70694 0.58575 0.68669
 C1996 C 0.69956 0.59696 0.67885
 C1997 C 0.68504 0.60139 0.68285
 C1998 C 0.67792 0.59404 0.69459
 C1999 C 0.70790 0.56804 0.70726
 C2000 C 0.71493 0.55951 0.71480
 C2001 C 0.72360 0.55012 0.72381
 C2002 C 0.73148 0.54263 0.73159
 H2003 H 0.67975 0.57749 0.71157
 H2004 H 0.71828 0.58279 0.68372
 H2005 H 0.70543 0.60246 0.66999
 H2006 H 0.66669 0.59704 0.69785
 C2007 C 0.69206 0.08161 0.19684
 C2008 C 0.70631 0.07788 0.19172
 C2009 C 0.71213 0.08517 0.17938
 C2010 C 0.70382 0.09634 0.17236
 C2011 C 0.68962 0.10042 0.17769
 C2012 C 0.68377 0.09275 0.18989
 C2013 C 0.71519 0.06732 0.19982
 C2014 C 0.72239 0.05889 0.20733
 C2015 C 0.73052 0.04961 0.21696
 C2016 C 0.73723 0.04227 0.22588
 H2017 H 0.68747 0.07609 0.20642
 H2018 H 0.72320 0.08245 0.17538
 H2019 H 0.70873 0.10204 0.16307
 H2020 H 0.67283 0.09542 0.19420
 C2021 C 0.18997 0.58551 0.20608
 C2022 C 0.20151 0.57756 0.19930
 C2023 C 0.20496 0.58035 0.18459
 C2024 C 0.19703 0.59119 0.17675
 C2025 C 0.18557 0.59947 0.18353
 C2026 C 0.18202 0.59635 0.19827
 C2027 C 0.21021 0.56704 0.20764
 C2028 C 0.21758 0.55861 0.21499
 C2029 C 0.22624 0.54926 0.22410
 C2030 C 0.23359 0.54180 0.23242
 H2031 H 0.18727 0.58350 0.21751
 H2032 H 0.21391 0.57430 0.17924
 H2033 H 0.20000 0.59309 0.16540
 H2034 H 0.17334 0.60247 0.20391
 C2035 C 0.18762 0.08488 0.70683
 C2036 C 0.19981 0.07752 0.70053
 C2037 C 0.20393 0.08077 0.68608
 C2038 C 0.19609 0.09154 0.67806
 C2039 C 0.18400 0.09929 0.68440
 C2040 C 0.17974 0.09566 0.69884
 C2041 C 0.20854 0.06725 0.70918
 C2042 C 0.21593 0.05905 0.71678
 C2043 C 0.22460 0.04990 0.72611
 C2044 C 0.23195 0.04248 0.73446
 H2045 H 0.18437 0.08247 0.71804
 H2046 H 0.21336 0.07515 0.68106
 H2047 H 0.19961 0.09382 0.66694
 H2048 H 0.17052 0.10130 0.70414
 C2049 C 0.31012 0.58567 0.30100
 C2050 C 0.29713 0.57982 0.30733
 C2051 C 0.29220 0.58528 0.32085
 C2052 C 0.30019 0.59656 0.32801
 C2053 C 0.31323 0.60263 0.32170
 C2054 C 0.31813 0.59695 0.30812
 C2055 C 0.28855 0.56875 0.29956
 C2056 C 0.28134 0.55985 0.29260
 C2057 C 0.27293 0.54998 0.28377
 C2058 C 0.26581 0.54217 0.27558
 H2059 H 0.31398 0.58164 0.29046
 H2060 H 0.28207 0.58095 0.32579
 H2061 H 0.29600 0.60056 0.33841
 H2062 H 0.32804 0.60126 0.30284
 C2063 C 0.29108 0.08506 0.82236
 C2064 C 0.29674 0.07793 0.80989
 C2065 C 0.31073 0.08203 0.80436
 C2066 C 0.31891 0.09343 0.81106
 C2067 C 0.31316 0.10096 0.82337
 C2068 C 0.29925 0.09647 0.82909
 C2069 C 0.28781 0.06719 0.80209
 C2070 C 0.28037 0.05865 0.79496
 C2071 C 0.27173 0.04926 0.78589
 C2072 C 0.26446 0.04181 0.77751
 H2073 H 0.28021 0.08205 0.82668
 H2074 H 0.31519 0.07664 0.79467
 H2075 H 0.32965 0.09640 0.80646
 H2076 H 0.29443 0.10203 0.83850
 C2077 C 0.81870 0.58510 0.79420
 C2078 C 0.80463 0.57967 0.79823
 C2079 C 0.79746 0.58548 0.81061
 C2080 C 0.80421 0.59681 0.81882
 C2081 C 0.81824 0.60256 0.81472
 C2082 C 0.82547 0.59644 0.80238
 C2083 C 0.79713 0.56875 0.78926
 C2084 C 0.79033 0.56000 0.78174
 C2085 C 0.78166 0.55031 0.77297
 C2086 C 0.77355 0.54262 0.76560
 H2087 H 0.82434 0.58073 0.78460
 H2088 H 0.78651 0.58143 0.81378
 H2089 H 0.79823 0.60126 0.82815
 H2090 H 0.83633 0.60043 0.79895
 C2091 C 0.81077 0.08567 0.29819
 C2092 C 0.79763 0.07990 0.30427
 C2093 C 0.79279 0.08494 0.31798
 C2094 C 0.80096 0.09583 0.32552
 C2095 C 0.81410 0.10191 0.31939
 C2096 C 0.81896 0.09655 0.30568
 C2097 C 0.78890 0.06926 0.29610
 C2098 C 0.78172 0.06068 0.28875
 C2099 C 0.77351 0.05109 0.27948
 C2100 C 0.76669 0.04339 0.27096
 H2101 H 0.81459 0.08189 0.28754
 H2102 H 0.78259 0.08060 0.32277
 H2103 H 0.79685 0.09954 0.33605
 H2104 H 0.82898 0.10083 0.30056
 C2105 C 0.70508 0.41468 0.31347
 C2106 C 0.69841 0.42143 0.30128
 C2107 C 0.68407 0.41707 0.29694
 C2108 C 0.67654 0.40582 0.30459
 C2109 C 0.68330 0.39870 0.31666
 C2110 C 0.69757 0.40342 0.32115
 C2111 C 0.70665 0.43214 0.29271
 C2112 C 0.71390 0.44066 0.28534
 C2113 C 0.72284 0.45006 0.27654
 C2114 C 0.73091 0.45756 0.26891
 H2115 H 0.71624 0.41787 0.31684
 H2116 H 0.67881 0.42217 0.28748
 H2117 H 0.66550 0.40261 0.30093
 H2118 H 0.70317 0.39814 0.33030
 C2119 C 0.68386 0.91743 0.79668
 C2120 C 0.69816 0.92191 0.80103
 C2121 C 0.70484 0.91529 0.81329
 C2122 C 0.69739 0.90400 0.82100
 C2123 C 0.68318 0.89913 0.81647
 C2124 C 0.67641 0.90614 0.80435
 C2125 C 0.70636 0.93262 0.79241
 C2126 C 0.71357 0.94116 0.78503
 C2127 C 0.72246 0.95063 0.77623
 C2128 C 0.73049 0.95821 0.76865
 H2129 H 0.67857 0.92248 0.78721
 H2130 H 0.71594 0.91862 0.81670
 H2131 H 0.70299 0.89884 0.83021
 H2132 H 0.66540 0.90284 0.80067
 C2133 C 0.20691 0.41525 0.81863
 C2134 C 0.20198 0.42063 0.80507
 C2135 C 0.18885 0.41496 0.79891
 C2136 C 0.18078 0.40380 0.80615
 C2137 C 0.18576 0.39807 0.81968
 C2138 C 0.19886 0.40408 0.82591
 C2139 C 0.21074 0.43142 0.79710
 C2140 C 0.21810 0.44008 0.79000
 C2141 C 0.22671 0.44971 0.78110
 C2142 C 0.23399 0.45742 0.77295
 H2143 H 0.21710 0.41953 0.82348
 H2144 H 0.18495 0.41900 0.78838
 H2145 H 0.17076 0.39960 0.80099
 H2146 H 0.20307 0.40010 0.83631
 C2147 C 0.19021 0.91345 0.29812
 C2148 C 0.20233 0.92025 0.30514
 C2149 C 0.20603 0.91605 0.31947
 C2150 C 0.19775 0.90500 0.32669
 C2151 C 0.18564 0.89793 0.31966
 C2152 C 0.18192 0.90240 0.30531
 C2153 C 0.21138 0.93095 0.29734
 C2154 C 0.21901 0.93954 0.29041
 C2155 C 0.22793 0.94914 0.28175
 C2156 C 0.23548 0.95687 0.27383
 H2157 H 0.18729 0.91653 0.28699
 H2158 H 0.21542 0.92119 0.32500
 H2159 H 0.20090 0.90205 0.33776
 H2160 H 0.17272 0.89729 0.29950
 C2161 C 0.41562 0.29547 0.68867
 C2162 C 0.42136 0.30195 0.70143
 C2163 C 0.41561 0.31557 0.70639
 C2164 C 0.40414 0.32267 0.69863
 C2165 C 0.39821 0.31619 0.68581
 C2166 C 0.40416 0.30253 0.68091
 C2167 C 0.43264 0.29419 0.70974
 C2168 C 0.44172 0.28716 0.71666
 C2169 C 0.45176 0.27824 0.72477
 C2170 C 0.45970 0.26996 0.73172
 H2171 H 0.41985 0.28484 0.68482
 H2172 H 0.41988 0.32063 0.71633
 H2173 H 0.39993 0.33318 0.70275
 H2174 H 0.39984 0.29708 0.67123
 C2175 C 0.41796 0.79245 0.18092
 C2176 C 0.42288 0.79715 0.19472
 C2177 C 0.41665 0.80990 0.20112
 C2178 C 0.40544 0.81784 0.19384
 C2179 C 0.40018 0.81309 0.18005
 C2180 C 0.40674 0.80038 0.17360
 C2181 C 0.43371 0.78848 0.20271
 C2182 C 0.44237 0.78110 0.20978
 C2183 C 0.45193 0.77234 0.21858
 C2184 C 0.45953 0.76481 0.22662
 H2185 H 0.42263 0.78252 0.17593
 H2186 H 0.42028 0.81355 0.21187
 H2187 H 0.40081 0.82756 0.19919
 H2188 H 0.40315 0.79639 0.16299
 C2189 C 0.91974 0.31150 0.20007
 C2190 C 0.92546 0.29843 0.19382
 C2191 C 0.92020 0.29361 0.18019
 C2192 C 0.90899 0.30161 0.17298
 C2193 C 0.90282 0.31453 0.17937
 C2194 C 0.90854 0.31952 0.19289
 C2195 C 0.93590 0.28946 0.20192
 C2196 C 0.94417 0.28183 0.20915
 C2197 C 0.95329 0.27286 0.21815
 C2198 C 0.96059 0.26524 0.22633
 H2199 H 0.92371 0.31530 0.21065
 H2200 H 0.92452 0.28347 0.17529
 H2201 H 0.90493 0.29739 0.16262
 H2202 H 0.90426 0.32949 0.19809
 C2203 C 0.91908 0.79348 0.68002
 C2204 C 0.92405 0.79800 0.69386
 C2205 C 0.91820 0.81094 0.70023
 C2206 C 0.90717 0.81915 0.69297
 C2207 C 0.90173 0.81448 0.67923
 C2208 C 0.90804 0.80168 0.67272
 C2209 C 0.93448 0.78899 0.70196
 C2210 C 0.94281 0.78149 0.70929
 C2211 C 0.95204 0.77284 0.71852
 C2212 C 0.95947 0.76563 0.72696
 H2213 H 0.92350 0.78345 0.67500
 H2214 H 0.92194 0.81453 0.71096
 H2215 H 0.90280 0.82901 0.69831
 H2216 H 0.90426 0.79773 0.66215
 C2217 C 0.58054 0.29562 0.31053
 C2218 C 0.57531 0.30200 0.29751
 C2219 C 0.58088 0.31583 0.29288
 C2220 C 0.59190 0.32307 0.30108
 C2221 C 0.59755 0.31653 0.31399
 C2222 C 0.59155 0.30283 0.31874
 C2223 C 0.56499 0.29384 0.28851
 C2224 C 0.55677 0.28643 0.28101
 C2225 C 0.54766 0.27712 0.27233
 C2226 C 0.54031 0.26865 0.26506
 H2227 H 0.57637 0.28486 0.31415
 H2228 H 0.57692 0.32085 0.28279
 H2229 H 0.59610 0.33368 0.29717
 H2230 H 0.59563 0.29739 0.32854
 C2231 C 0.57973 0.79599 0.81152
 C2232 C 0.57471 0.80220 0.79833
 C2233 C 0.58070 0.81572 0.79339
 C2234 C 0.59192 0.82284 0.80141
 C2235 C 0.59740 0.81648 0.81449
 C2236 C 0.59097 0.80308 0.81957
 C2237 C 0.56415 0.79420 0.78941
 C2238 C 0.55574 0.78713 0.78178
 C2239 C 0.54643 0.77834 0.77279
 C2240 C 0.53895 0.77031 0.76515
 H2241 H 0.57521 0.78548 0.81542
 H2242 H 0.57690 0.82061 0.78318
 H2243 H 0.59641 0.83321 0.79721
 H2244 H 0.59484 0.79782 0.82954
 C2245 C 0.08378 0.31116 0.79491
 C2246 C 0.07638 0.29906 0.80138
 C2247 C 0.08012 0.29465 0.81562
 C2248 C 0.09136 0.30217 0.82330
 C2249 C 0.09909 0.31420 0.81682
 C2250 C 0.09503 0.31870 0.80257
 C2251 C 0.06554 0.29071 0.79307
 C2252 C 0.05689 0.28355 0.78577
 C2253 C 0.04733 0.27502 0.77674
 C2254 C 0.03975 0.26764 0.76856
 H2255 H 0.08104 0.31462 0.78385
 H2256 H 0.07450 0.28527 0.82072
 H2257 H 0.09400 0.29841 0.83427
 H2258 H 0.10067 0.32785 0.79716
 C2259 C 0.07921 0.79548 0.31508
 C2260 C 0.07630 0.79934 0.30048
 C2261 C 0.08419 0.81111 0.29398
 C2262 C 0.09509 0.81884 0.30194
 C2263 C 0.09834 0.81486 0.31653
 C2264 C 0.09011 0.80319 0.32306
 C2265 C 0.06580 0.79073 0.29197
 C2266 C 0.05735 0.78335 0.28462
 C2267 C 0.04789 0.77456 0.27569
 C2268 C 0.04026 0.76700 0.26769
 H2269 H 0.07322 0.78637 0.32024
 H2270 H 0.08211 0.81415 0.28265
 H2271 H 0.10114 0.82772 0.29651
 H2272 H 0.09207 0.79993 0.33431
 C2273 C 0.58020 0.70236 0.68578
 C2274 C 0.57488 0.69605 0.69881
 C2275 C 0.58090 0.68260 0.70390
 C2276 C 0.59244 0.67564 0.69615
 C2277 C 0.59815 0.68211 0.68323
 C2278 C 0.59171 0.69543 0.67801
 C2279 C 0.56404 0.70398 0.70744
 C2280 C 0.55547 0.71111 0.71482
 C2281 C 0.54610 0.72006 0.72358
 C2282 C 0.53867 0.72824 0.73110
 H2283 H 0.57570 0.71285 0.68181
 H2284 H 0.57690 0.67766 0.71402
 H2285 H 0.59697 0.66532 0.70042
 H2286 H 0.59581 0.70080 0.66817
 C2287 C 0.58087 0.19800 0.18926
 C2288 C 0.57678 0.19179 0.20273
 C2289 C 0.58409 0.17901 0.20788
 C2290 C 0.59564 0.17262 0.19965
 C2291 C 0.60006 0.17899 0.18619
 C2292 C 0.59238 0.19166 0.18103
 C2293 C 0.56582 0.19929 0.21159
 C2294 C 0.55709 0.20642 0.21879
 C2295 C 0.54751 0.21570 0.22700
 C2296 C 0.53995 0.22437 0.23384
 H2297 H 0.57538 0.20799 0.18524
 H2298 H 0.58107 0.17416 0.21837
 H2299 H 0.60117 0.16282 0.20396
 H2300 H 0.59540 0.19697 0.17081
 C2301 C 0.08449 0.70708 0.18220
 C2302 C 0.07786 0.70114 0.19481
 C2303 C 0.08265 0.68731 0.20020
 C2304 C 0.09408 0.67950 0.19309
 C2305 C 0.10097 0.68544 0.18047
 C2306 C 0.09592 0.69929 0.17505
 C2307 C 0.06668 0.70956 0.20262
 C2308 C 0.05771 0.71676 0.20951
 C2309 C 0.04779 0.72534 0.21813
 C2310 C 0.03999 0.73272 0.22612
 H2311 H 0.08097 0.71784 0.17800
 H2312 H 0.07767 0.68264 0.21002
 H2313 H 0.09753 0.66887 0.19758
 H2314 H 0.10090 0.70431 0.16544
 C2315 C 0.08268 0.20660 0.68139
 C2316 C 0.07734 0.20181 0.69503
 C2317 C 0.08328 0.18893 0.70145
 C2318 C 0.09460 0.18093 0.69437
 C2319 C 0.10022 0.18575 0.68072
 C2320 C 0.09400 0.19864 0.67428
 C2321 C 0.06639 0.21051 0.70284
 C2322 C 0.05761 0.21786 0.70982
 C2323 C 0.04788 0.22652 0.71856
 C2324 C 0.04013 0.23392 0.72657
 H2325 H 0.07822 0.21661 0.67634
 H2326 H 0.07930 0.18517 0.71206
 H2327 H 0.09899 0.17110 0.69973
 H2328 H 0.09790 0.20271 0.66379
 C2329 C 0.41538 0.68834 0.29620
 C2330 C 0.42277 0.70059 0.30236
 C2331 C 0.41904 0.70533 0.31650
 C2332 C 0.40788 0.69794 0.32441
 C2333 C 0.40021 0.68572 0.31826
 C2334 C 0.40420 0.68094 0.30407
 C2335 C 0.43357 0.70876 0.29385
 C2336 C 0.44220 0.71576 0.28638
 C2337 C 0.45174 0.72409 0.27715
 C2338 C 0.45934 0.73125 0.26880
 H2339 H 0.41810 0.68466 0.28520
 H2340 H 0.42462 0.71487 0.32134
 H2341 H 0.40524 0.70195 0.33529
 H2342 H 0.39857 0.67166 0.29889
 C2343 C 0.41990 0.20061 0.81005
 C2344 C 0.42343 0.19479 0.79625
 C2345 C 0.41562 0.18239 0.79093
 C2346 C 0.40416 0.17599 0.79928
 C2347 C 0.40027 0.18198 0.81306
 C2348 C 0.40845 0.19426 0.81840
 C2349 C 0.43436 0.20224 0.78724
 C2350 C 0.44307 0.20916 0.77978
 C2351 C 0.45266 0.21807 0.77113
 C2352 C 0.46024 0.22639 0.76386
 H2353 H 0.42581 0.21026 0.81424
 H2354 H 0.41821 0.17783 0.78022
 H2355 H 0.39826 0.16650 0.79479
 H2356 H 0.40590 0.19920 0.82891
 C2357 C 0.92026 0.70777 0.81963
 C2358 C 0.92502 0.70332 0.80568
 C2359 C 0.91884 0.69056 0.79925
 C2360 C 0.90769 0.68251 0.80651
 C2361 C 0.90246 0.68713 0.82035
 C2362 C 0.90909 0.69972 0.82694
 C2363 C 0.93545 0.71227 0.79744
 C2364 C 0.94369 0.71967 0.78989
 C2365 C 0.95277 0.72813 0.78030
 C2366 C 0.96004 0.73511 0.77150
 H2367 H 0.92493 0.71766 0.82471
 H2368 H 0.92239 0.68702 0.78844
 H2369 H 0.90304 0.67285 0.80108
 H2370 H 0.90548 0.70362 0.83758
 C2371 C 0.92070 0.20388 0.31595
 C2372 C 0.92413 0.19965 0.30158
 C2373 C 0.91670 0.18754 0.29520
 C2374 C 0.90570 0.17983 0.30307
 C2375 C 0.90191 0.18420 0.31743
 C2376 C 0.90971 0.19620 0.32383
 C2377 C 0.93472 0.20819 0.29312
 C2378 C 0.94320 0.21551 0.28576
 C2379 C 0.95263 0.22419 0.27672
 C2380 C 0.96018 0.23162 0.26854
 H2381 H 0.92636 0.21326 0.32099
 H2382 H 0.91924 0.18421 0.28405
 H2383 H 0.90003 0.17067 0.29773
 H2384 H 0.90730 0.19981 0.33489
 C2385 C 0.29892 0.31642 0.57770
 C2386 C 0.30194 0.30138 0.57482
 C2387 C 0.31300 0.29394 0.58283
 C2388 C 0.32083 0.30141 0.59388
 C2389 C 0.31762 0.31644 0.59714
 C2390 C 0.30673 0.32392 0.58875
 C2391 C 0.29316 0.29330 0.56424
 C2392 C 0.28566 0.28616 0.55580
 C2393 C 0.27675 0.27730 0.54647
 C2394 C 0.26907 0.26927 0.53901
 H2395 H 0.29034 0.32228 0.57161
 H2396 H 0.31534 0.28226 0.58076
 H2397 H 0.32906 0.29525 0.60010
 H2398 H 0.30411 0.33553 0.59077
 C2399 C 0.31147 0.79696 0.07934
 C2400 C 0.29869 0.80370 0.07353
 C2401 C 0.29422 0.81774 0.07858
 C2402 C 0.30236 0.82491 0.08960
 C2403 C 0.31508 0.81809 0.09578
 C2404 C 0.31963 0.80409 0.09036
 C2405 C 0.28974 0.79579 0.06299
 C2406 C 0.28218 0.78871 0.05457
 C2407 C 0.27333 0.77979 0.04526
 C2408 C 0.26583 0.77158 0.03783
 H2409 H 0.31500 0.78605 0.07553
 H2410 H 0.28432 0.82305 0.07418
 H2411 H 0.29852 0.83570 0.09335
 H2412 H 0.32930 0.79843 0.09477
 C2413 C 0.81657 0.29968 0.07686
 C2414 C 0.80147 0.30280 0.07436
 C2415 C 0.79439 0.31407 0.08238
 C2416 C 0.80227 0.32199 0.09309
 C2417 C 0.81736 0.31867 0.09599
 C2418 C 0.82448 0.30759 0.08757
 C2419 C 0.79300 0.29398 0.06412
 C2420 C 0.78554 0.28650 0.05593
 C2421 C 0.77634 0.27770 0.04681
 C2422 C 0.76803 0.27024 0.03944
 H2423 H 0.82217 0.29097 0.07072
 H2424 H 0.78268 0.31653 0.08058
 H2425 H 0.79636 0.33039 0.09933
 H2426 H 0.83612 0.30486 0.08932
 C2427 C 0.81579 0.79954 0.57696
 C2428 C 0.80086 0.80291 0.57387
 C2429 C 0.79366 0.81432 0.58161
 C2430 C 0.80126 0.82213 0.59260
 C2431 C 0.81617 0.81858 0.59605
 C2432 C 0.82340 0.80732 0.58793
 C2433 C 0.79270 0.79413 0.56335
 C2434 C 0.78560 0.78656 0.55494
 C2435 C 0.77683 0.77754 0.54561
 C2436 C 0.76883 0.76981 0.53817
 H2437 H 0.82148 0.79071 0.57106
 H2438 H 0.78207 0.81697 0.57936
 H2439 H 0.79528 0.83066 0.59860
 H2440 H 0.83490 0.80437 0.59010
 C2441 C 0.31930 0.70774 0.42374
 C2442 C 0.30508 0.70346 0.42852
 C2443 C 0.29825 0.69083 0.42253
 C2444 C 0.30544 0.68265 0.41158
 C2445 C 0.31958 0.68704 0.40637
 C2446 C 0.32655 0.69955 0.41278
 C2447 C 0.29699 0.71240 0.43893
 C2448 C 0.28952 0.71974 0.44722
 C2449 C 0.28001 0.72812 0.45637
 C2450 C 0.27127 0.73510 0.46369
 H2451 H 0.32467 0.71754 0.42829
 H2452 H 0.28719 0.68748 0.42610
 H2453 H 0.29968 0.67312 0.40702
 H2454 H 0.33748 0.70320 0.40924
 C2455 C 0.32094 0.21132 0.91934
 C2456 C 0.30857 0.20540 0.92673
 C2457 C 0.30340 0.19113 0.92313
 C2458 C 0.31033 0.18291 0.91203
 C2459 C 0.32252 0.18888 0.90421
 C2460 C 0.32791 0.20311 0.90819
 C2461 C 0.30049 0.21417 0.93736
 C2462 C 0.29300 0.22127 0.94587
 C2463 C 0.28340 0.22935 0.95527
 C2464 C 0.27450 0.23607 0.96270
 H2465 H 0.32501 0.22240 0.92198
 H2466 H 0.29378 0.18644 0.92871
 H2467 H 0.30592 0.17197 0.90951
 H2468 H 0.33727 0.20811 0.90251
 C2469 C 0.79400 0.68746 0.91807
 C2470 C 0.80097 0.69919 0.92556
 C2471 C 0.81581 0.70281 0.92233
 C2472 C 0.82356 0.69498 0.91145
 C2473 C 0.81653 0.68344 0.90353
 C2474 C 0.80172 0.67961 0.90717
 C2475 C 0.79263 0.70803 0.93593
 C2476 C 0.78540 0.71567 0.94420
 C2477 C 0.77653 0.72478 0.95338
 C2478 C 0.76850 0.73262 0.96071
 H2479 H 0.78248 0.68459 0.92043
 H2480 H 0.82133 0.71188 0.92803
 H2481 H 0.83498 0.69815 0.90916
 H2482 H 0.79590 0.67083 0.90138
 C2483 C 0.81990 0.20649 0.42188
 C2484 C 0.80520 0.20297 0.42578
 C2485 C 0.79807 0.19077 0.41928
 C2486 C 0.80546 0.18227 0.40870
 C2487 C 0.82012 0.18591 0.40438
 C2488 C 0.82734 0.19799 0.41129
 C2489 C 0.79704 0.21224 0.43586
 C2490 C 0.78960 0.21988 0.44390
 C2491 C 0.78019 0.22862 0.45284
 C2492 C 0.77156 0.23585 0.46006
 H2493 H 0.82552 0.21594 0.42684
 H2494 H 0.78665 0.18799 0.42218
 H2495 H 0.79947 0.17313 0.40368
 H2496 H 0.83866 0.20105 0.40842
 C2497 C 0.67875 0.29393 0.41984
 C2498 C 0.69311 0.29802 0.42439
 C2499 C 0.70017 0.31031 0.41793
 C2500 C 0.69306 0.31833 0.40679
 C2501 C 0.67875 0.31415 0.40187
 C2502 C 0.67160 0.30196 0.40869
 C2503 C 0.70106 0.28925 0.43508
 C2504 C 0.70842 0.28201 0.44358
 C2505 C 0.71784 0.27370 0.45293
 C2506 C 0.72658 0.26675 0.46033
 H2507 H 0.67320 0.28439 0.42473
 H2508 H 0.71133 0.31351 0.42129
 H2509 H 0.69900 0.32758 0.40188
 H2510 H 0.66055 0.29846 0.40535
 C2511 C 0.67972 0.79385 0.91907
 C2512 C 0.69330 0.79898 0.92472
 C2513 C 0.69953 0.81223 0.91936
 C2514 C 0.69238 0.82018 0.90818
 C2515 C 0.67889 0.81495 0.90212
 C2516 C 0.67254 0.80179 0.90789
 C2517 C 0.70134 0.79022 0.93536
 C2518 C 0.70855 0.78282 0.94384
 C2519 C 0.71761 0.77413 0.95321
 C2520 C 0.72594 0.76676 0.96066
 H2521 H 0.67482 0.78357 0.92309
 H2522 H 0.71009 0.81627 0.92361
 H2523 H 0.69764 0.83026 0.90418
 H2524 H 0.66216 0.79739 0.90365
 C2525 C 0.18116 0.29291 0.92159
 C2526 C 0.19522 0.29758 0.92647
 C2527 C 0.20167 0.31049 0.92061
 C2528 C 0.19427 0.31857 0.90972
 C2529 C 0.18028 0.31381 0.90442
 C2530 C 0.17372 0.30098 0.91067
 C2531 C 0.20347 0.28882 0.93690
 C2532 C 0.21099 0.28160 0.94525
 C2533 C 0.22047 0.27331 0.95454
 C2534 C 0.22914 0.26638 0.96200
 H2535 H 0.17608 0.28289 0.92603
 H2536 H 0.21258 0.31417 0.92427
 H2537 H 0.19975 0.32834 0.90528
 H2538 H 0.16293 0.29700 0.90703
 C2539 C 0.17983 0.79321 0.42205
 C2540 C 0.19404 0.79757 0.42679
 C2541 C 0.20097 0.80998 0.42042
 C2542 C 0.19382 0.81793 0.40926
 C2543 C 0.17961 0.81355 0.40423
 C2544 C 0.17264 0.80116 0.41088
 C2545 C 0.20193 0.78900 0.43766
 C2546 C 0.20913 0.78189 0.44638
 C2547 C 0.21830 0.77363 0.45600
 C2548 C 0.22678 0.76659 0.46359
 H2549 H 0.17440 0.78356 0.42686
 H2550 H 0.21202 0.81339 0.42391
 H2551 H 0.19964 0.82730 0.40444
 H2552 H 0.16169 0.79747 0.40742
 C2553 C 0.68132 0.70662 0.57984
 C2554 C 0.69503 0.70179 0.57422
 C2555 C 0.70146 0.68862 0.57955
 C2556 C 0.69440 0.68048 0.59067
 C2557 C 0.68080 0.68545 0.59672
 C2558 C 0.67423 0.69851 0.59096
 C2559 C 0.70294 0.71077 0.56364
 C2560 C 0.70997 0.71840 0.55518
 C2561 C 0.71875 0.72740 0.54580
 C2562 C 0.72679 0.73508 0.53832
 H2563 H 0.67623 0.71681 0.57584
 H2564 H 0.71210 0.68479 0.57530
 H2565 H 0.69979 0.67047 0.59465
 H2566 H 0.66375 0.70269 0.59517
 C2567 C 0.67825 0.21025 0.08082
 C2568 C 0.69119 0.20522 0.07376
 C2569 C 0.69730 0.19138 0.07756
 C2570 C 0.69070 0.18270 0.08853
 C2571 C 0.67790 0.18777 0.09599
 C2572 C 0.67162 0.20158 0.09182
 C2573 C 0.69883 0.21457 0.06331
 C2574 C 0.70596 0.22223 0.05498
 C2575 C 0.71519 0.23097 0.04581
 C2576 C 0.72384 0.23818 0.03854
 H2577 H 0.67348 0.22101 0.07804
 H2578 H 0.70738 0.18743 0.07224
 H2579 H 0.69583 0.17213 0.09125
 H2580 H 0.66177 0.20590 0.09721
 C2581 C 0.18764 0.70051 0.07809
 C2582 C 0.20108 0.69452 0.07293
 C2583 C 0.20636 0.68103 0.07866
 C2584 C 0.19841 0.67372 0.08975
 C2585 C 0.18509 0.67987 0.09536
 C2586 C 0.17968 0.69324 0.08917
 C2587 C 0.20986 0.70277 0.06248
 C2588 C 0.21723 0.71019 0.05415
 C2589 C 0.22582 0.71950 0.04495
 C2590 C 0.23308 0.72802 0.03761
 H2591 H 0.18348 0.71098 0.07375
 H2592 H 0.21678 0.67631 0.07477
 H2593 H 0.20294 0.66344 0.09409
 H2594 H 0.16945 0.69831 0.09302
 C2595 C 0.18960 0.20162 0.58046
 C2596 C 0.20213 0.19464 0.57439
 C2597 C 0.20636 0.18046 0.57930
 C2598 C 0.19819 0.17335 0.59037
 C2599 C 0.18571 0.18039 0.59678
 C2600 C 0.18142 0.19456 0.59153
 C2601 C 0.21107 0.20246 0.56374
 C2602 C 0.21859 0.20953 0.55526
 C2603 C 0.22739 0.21852 0.54593
 C2604 C 0.23485 0.22683 0.53855
 H2605 H 0.18633 0.21268 0.57684
 H2606 H 0.21613 0.17500 0.57476
 H2607 H 0.20183 0.16245 0.59399
 H2608 H 0.17197 0.20041 0.59615
   
