data_POSCAR
  _audit_creation_date              2014-09-24
  _audit_creation_method            'ToBaCCo'
  _symmetry_space_group_name_H-M    'P1'
  _symmetry_Int_Tables_number       1
  _symmetry_cell_setting            triclinic
  loop_
  _symmetry_equiv_pos_as_xyz
 x,y,z
_cell_length_a 38.2700
_cell_length_b 38.3071
_cell_length_c 38.2867
_cell_angle_alpha 90.013100
_cell_angle_beta 89.940300
_cell_angle_gamma 90.090500
loop_
  _atom_site_label
  _atom_site_type_symbol
  _atom_site_fract_x
  _atom_site_fract_y
  _atom_site_fract_z
C1 C 0.28072 0.98678 0.10857
 C2 C 0.28177 1.02255 0.10800
 C3 C 0.26700 1.03289 0.07655
 N4 N 0.25761 1.00461 0.05767
 C5 C 0.26606 0.97646 0.07718
 C6 C 0.26052 1.06789 0.06647
 C7 C 0.25002 1.07649 0.03202
 C8 C 0.23283 1.10697 0.02271
 C9 C 0.22974 1.10663 -0.01302
 C10 C 0.24510 1.07595 -0.02465
 N11 N 0.25714 1.05754 0.00302
 C12 C 0.24874 1.06640 -0.06026
 C13 C 0.25534 1.03145 -0.07057
 C14 C 0.26477 1.02094 -0.10395
 C15 C 0.26511 0.98515 -0.10373
 C16 C 0.25678 0.97491 -0.07001
 N17 N 0.25059 1.00325 -0.04986
 C18 C 0.25246 0.93994 -0.05897
 C19 C 0.24859 0.93020 -0.02351
 C20 C 0.23892 0.89722 -0.01192
 C21 C 0.24013 0.89796 0.02393
 C22 C 0.25109 0.93115 0.03332
 N23 N 0.25631 0.95057 0.00428
 C24 C 0.25913 0.94158 0.06778
 H25 H 0.28992 0.97024 0.12954
 H26 H 0.29203 1.03905 0.12853
 H27 H 0.26842 0.97483 0.00330
 H28 H 0.22368 1.12745 0.03990
 H29 H 0.21759 1.12675 -0.02869
 H30 H 0.27013 1.03733 -0.12635
 H31 H 0.27062 0.96869 -0.12602
 H32 H 0.23459 0.87617 0.04107
 H33 H 0.27279 1.03536 0.00192
 H34 H 0.23225 0.87463 -0.02751
 C35 C 0.77071 0.48676 0.60602
 C36 C 0.77012 0.52255 0.60482
 C37 C 0.75875 0.53155 0.57166
 N38 N 0.75232 0.50257 0.55264
 C39 C 0.75987 0.47518 0.57349
 C40 C 0.75244 0.56595 0.56014
 C41 C 0.74374 0.57426 0.52528
 C42 C 0.72967 0.60578 0.51450
 C43 C 0.72781 0.60453 0.47862
 C44 C 0.74107 0.57236 0.46851
 N45 N 0.75070 0.55411 0.49713
 C46 C 0.74631 0.56176 0.43349
 C47 C 0.75373 0.52691 0.42379
 C48 C 0.76265 0.51614 0.39039
 C49 C 0.76452 0.48039 0.39130
 C50 C 0.75714 0.47049 0.42535
 N51 N 0.75021 0.49895 0.44503
 C52 C 0.75457 0.43561 0.43719
 C53 C 0.74941 0.42648 0.47263
 C54 C 0.74012 0.39347 0.48443
 C55 C 0.73982 0.39490 0.52028
 C56 C 0.74940 0.42858 0.52948
 N57 N 0.75533 0.44759 0.50032
 C58 C 0.75542 0.43987 0.56411
 H59 H 0.77822 0.47106 0.62827
 H60 H 0.77701 0.53992 0.62604
 H61 H 0.76698 0.47206 0.49940
 H62 H 0.72195 0.62756 0.53078
 H63 H 0.71831 0.62519 0.46187
 H64 H 0.76675 0.53230 0.36756
 H65 H 0.77025 0.46367 0.36926
 H66 H 0.73407 0.37331 0.53759
 H67 H 0.76533 0.53130 0.49727
 H68 H 0.73463 0.37045 0.46903
 C69 C 0.76854 0.89485 0.97785
 C70 C 0.76968 0.89369 1.01362
 C71 C 0.75996 0.92653 1.02542
 N72 N 0.75300 0.94767 0.99801
 C73 C 0.75838 0.92838 0.96893
 C74 C 0.75686 0.93620 1.06102
 C75 C 0.75095 0.97108 1.07192
 C76 C 0.74012 0.98074 1.10517
 C77 C 0.73914 1.01657 1.10580
 C78 C 0.74915 1.02788 1.07288
 N79 N 0.75653 1.00003 1.05245
 C80 C 0.75357 1.06322 1.06339
 C81 C 0.75779 1.07471 1.02868
 C82 C 0.76673 1.10844 1.01912
 C83 C 0.76571 1.10949 0.98335
 C84 C 0.75569 1.07645 0.97228
 N85 N 0.75092 1.05523 1.00007
 C86 C 0.74888 1.06700 0.93717
 C87 C 0.74433 1.03178 0.92652
 C88 C 0.73042 1.02150 0.89464
 C89 C 0.73114 0.98566 0.89396
 C90 C 0.74519 0.97491 0.92552
 N91 N 0.75335 1.00314 0.94517
 C92 C 0.75165 0.93974 0.93451
 H93 H 0.77431 0.87339 0.96038
 H94 H 0.77684 0.87122 1.02916
 H95 H 0.76749 1.00286 0.96832
 H96 H 0.73386 0.96371 1.12685
 H97 H 0.73218 1.03247 1.12812
 H98 H 0.77308 1.13010 1.03614
 H99 H 0.77120 1.13212 0.96734
 H100 H 0.72221 0.96936 0.87266
 H101 H 0.76847 1.00090 1.02810
 H102 H 0.72062 1.03811 0.87401
 C103 C 0.22760 0.39543 0.49272
 C104 C 0.22846 0.39787 0.52847
 C105 C 0.23879 0.43170 0.53627
 N106 N 0.24420 0.44994 0.50660
 C107 C 0.23728 0.42789 0.47998
 C108 C 0.24691 0.44407 0.57003
 C109 C 0.25382 0.47958 0.57731
 C110 C 0.26893 0.49189 0.60783
 C111 C 0.26955 0.52773 0.60537
 C112 C 0.25478 0.53630 0.57343
 N113 N 0.24512 0.50681 0.55657
 C114 C 0.24868 0.57075 0.56165
 C115 C 0.24066 0.57897 0.52656
 C116 C 0.23116 0.61178 0.51468
 C117 C 0.22914 0.60955 0.47896
 C118 C 0.23710 0.57534 0.47021
 N119 N 0.24442 0.55682 0.49934
 C120 C 0.24018 0.56246 0.43571
 C121 C 0.24617 0.52690 0.42781
 C122 C 0.25676 0.51429 0.39551
 C123 C 0.25800 0.47855 0.39819
 C124 C 0.24758 0.47019 0.43186
 N125 N 0.24025 0.49980 0.44968
 C126 C 0.24286 0.43580 0.44445
 H127 H 0.22130 0.37226 0.47781
 H128 H 0.22303 0.37690 0.54663
 H129 H 0.22809 0.50129 0.47389
 H130 H 0.27841 0.47665 0.62965
 H131 H 0.27958 0.54546 0.62498
 H132 H 0.22690 0.63509 0.53006
 H133 H 0.22305 0.63087 0.46148
 H134 H 0.26521 0.46073 0.37746
 H135 H 0.22996 0.50550 0.53410
 H136 H 0.26277 0.52913 0.37223
 C137 C 0.98002 0.22580 0.10878
 C138 C 1.01589 0.22727 0.10939
 C139 C 1.02625 0.24115 0.07757
 N140 N 0.99806 0.24847 0.05774
 C141 C 0.96977 0.23926 0.07679
 C142 C 1.06101 0.24943 0.06813
 C143 C 1.07096 0.25495 0.03287
 C144 C 1.10242 0.26962 0.02222
 C145 C 1.10279 0.26865 -0.01362
 C146 C 1.07141 0.25375 -0.02397
 N147 N 1.05209 0.24555 0.00447
 C148 C 1.06217 0.24635 -0.05899
 C149 C 1.02691 0.24281 -0.06948
 C150 C 1.01588 0.23102 -0.10192
 C151 C 0.98016 0.23373 -0.10218
 C152 C 0.97058 0.24687 -0.06981
 N153 N 0.99917 0.25232 -0.04983
 C154 C 0.93608 0.25552 -0.05978
 C155 C 0.92680 0.26067 -0.02433
 C156 C 0.89609 0.27615 -0.01285
 C157 C 0.89597 0.27377 0.02299
 C158 C 0.92667 0.25708 0.03239
 N159 N 0.94543 0.24940 0.00346
 C160 C 0.93498 0.24587 0.06654
 H161 H 0.96345 0.21651 0.12973
 H162 H 1.03248 0.21931 0.13083
 H163 H 0.96739 0.23341 0.00258
 H164 H 1.12309 0.27985 0.03858
 H165 H 1.12377 0.27786 -0.03023
 H166 H 1.03190 0.22156 -0.12321
 H167 H 0.96317 0.22689 -0.12370
 H168 H 0.87532 0.28264 0.04015
 H169 H 1.02907 0.23103 0.00440
 H170 H 0.87565 0.28751 -0.02868
 C171 C 0.48794 0.74367 0.60743
 C172 C 0.52369 0.74420 0.60548
 C173 C 0.53210 0.75183 0.57111
 N174 N 0.50270 0.75577 0.55200
 C175 C 0.47563 0.75025 0.57400
 C176 C 0.56638 0.75681 0.55835
 C177 C 0.57402 0.76286 0.52279
 C178 C 0.60562 0.77548 0.51030
 C179 C 0.60408 0.77362 0.47446
 C180 C 0.57160 0.75985 0.46615
 N181 N 0.55342 0.75348 0.49574
 C182 C 0.56101 0.75004 0.43222
 C183 C 0.52590 0.74304 0.42344
 C184 C 0.51464 0.72992 0.39166
 C185 C 0.47881 0.72885 0.39324
 C186 C 0.46948 0.74127 0.42597
 N187 N 0.49829 0.75012 0.44426
 C188 C 0.43484 0.74616 0.43769
 C189 C 0.42613 0.75383 0.47283
 C190 C 0.39326 0.76397 0.48415
 C191 C 0.39447 0.76521 0.52002
 C192 C 0.42825 0.75636 0.52974
 N193 N 0.44724 0.74916 0.50078
 C194 C 0.43995 0.75264 0.56466
 H195 H 0.47289 0.73903 0.63090
 H196 H 0.54140 0.73987 0.62707
 H197 H 0.47169 0.73749 0.50033
 H198 H 0.62783 0.78421 0.52547
 H199 H 0.62489 0.78061 0.45660
 H200 H 0.53053 0.72210 0.36962
 H201 H 0.46160 0.71999 0.37263
 H202 H 0.37265 0.77140 0.53685
 H203 H 0.53068 0.73876 0.49754
 H204 H 0.37044 0.76902 0.46827
 C205 C 0.10566 0.78166 0.01505
 C206 C 0.10541 0.78199 -0.02078
 C207 C 0.07309 0.76910 -0.03102
 N208 N 0.05364 0.76095 -0.00271
 C209 C 0.07349 0.76865 0.02545
 C210 C 0.06246 0.76383 -0.06602
 C211 C 0.02733 0.75634 -0.07509
 C212 C 0.01670 0.74275 -0.10698
 C213 C -0.01919 0.74219 -0.10660
 C214 C -0.02954 0.75536 -0.07447
 N215 N -0.00104 0.76370 -0.05530
 C216 C -0.06462 0.76173 -0.06454
 C217 C -0.07459 0.76421 -0.02902
 C218 C -0.10703 0.77515 -0.01714
 C219 C -0.10650 0.77201 0.01849
 C220 C -0.07365 0.75956 0.02726
 N221 N -0.05414 0.75484 -0.00180
 C222 C -0.06280 0.75107 0.06154
 C223 C -0.02711 0.74728 0.07062
 C224 C -0.01504 0.73314 0.10174
 C225 C 0.02074 0.73631 0.10143
 C226 C 0.02958 0.75184 0.06995
 N227 N 0.00033 0.75849 0.05133
 C228 C 0.06379 0.76178 0.06031
 H229 H 0.12711 0.78984 0.03154
 H230 H 0.12657 0.79077 -0.03739
 H231 H -0.00104 0.77341 0.02868
 H232 H 0.03312 0.73463 -0.12852
 H233 H -0.03583 0.73353 -0.12776
 H234 H -0.12881 0.78447 -0.03252
 H235 H -0.12780 0.77829 0.03602
 H236 H 0.03825 0.72828 0.12209
 H237 H -0.00112 0.77761 -0.03195
 H238 H -0.03043 0.72203 0.12271
 C239 C 0.47853 0.24396 0.39858
 C240 C 0.51441 0.24399 0.39829
 C241 C 0.52500 0.25632 0.43066
 N242 N 0.49689 0.26414 0.45049
 C243 C 0.46846 0.25630 0.43109
 C244 C 0.56007 0.26144 0.44091
 C245 C 0.57017 0.26989 0.47540
 C246 C 0.60320 0.28124 0.48507
 C247 C 0.60370 0.28227 0.52101
 C248 C 0.57096 0.27152 0.53224
 N249 N 0.55070 0.26410 0.50428
 C250 C 0.56178 0.26513 0.56744
 C251 C 0.52689 0.26053 0.57857
 C252 C 0.51683 0.24973 0.61163
 C253 C 0.48095 0.24943 0.61184
 C254 C 0.47036 0.26015 0.57893
 N255 N 0.49846 0.26723 0.55878
 C256 C 0.43529 0.26455 0.56837
 C257 C 0.42537 0.27158 0.53355
 C258 C 0.39250 0.28281 0.52329
 C259 C 0.39197 0.28183 0.48734
 C260 C 0.42453 0.27002 0.47673
 N261 N 0.44472 0.26398 0.50504
 C262 C 0.43357 0.26138 0.44200
 H263 H 0.46181 0.23573 0.37733
 H264 H 0.53081 0.23581 0.37676
 H265 H 0.46818 0.25039 0.50515
 H266 H 0.62501 0.28714 0.46802
 H267 H 0.62594 0.28912 0.53706
 H268 H 0.53356 0.24265 0.63326
 H269 H 0.46457 0.24211 0.63371
 H270 H 0.36982 0.28803 0.47093
 H271 H 0.52699 0.25092 0.50491
 H272 H 0.37081 0.28989 0.54001
 C273 C 0.97416 0.10316 0.23312
 C274 C 1.00996 0.10522 0.23174
 C275 C 1.02258 0.07412 0.24523
 N276 N 0.99579 0.05334 0.25516
 C277 C 0.96616 0.07106 0.24784
 C278 C 1.05832 0.06556 0.24890
 C279 C 1.06981 0.03109 0.25575
 C280 C 1.10305 0.02224 0.26720
 C281 C 1.10438 -0.01361 0.26843
 C282 C 1.07194 -0.02566 0.25773
 N283 N 1.05104 0.00171 0.25000
 C284 C 1.06309 -0.06114 0.25312
 C285 C 1.02841 -0.07269 0.24891
 C286 C 1.01869 -0.10570 0.23777
 C287 C 0.98297 -0.10739 0.24081
 C288 C 0.97226 -0.07556 0.25443
 N289 N 1.00010 -0.05437 0.25914
 C290 C 0.93771 -0.06686 0.26440
 C291 C 0.92812 -0.03175 0.27133
 C292 C 0.89821 -0.02144 0.28909
 C293 C 0.89682 0.01439 0.28715
 C294 C 0.92606 0.02498 0.26855
 N295 N 0.94519 -0.00321 0.25933
 C296 C 0.93223 0.05933 0.25661
 H297 H 0.95617 0.12311 0.22444
 H298 H 1.02500 0.12694 0.22162
 H299 H 0.96587 -0.00316 0.24164
 H300 H 1.12425 0.03981 0.27366
 H301 H 1.12681 -0.02904 0.27597
 H302 H 1.03562 -0.12643 0.22871
 H303 H 0.96684 -0.12969 0.23431
 H304 H 0.87618 0.03076 0.29738
 H305 H 1.02679 0.00029 0.23784
 H306 H 0.87896 -0.03808 0.30146
 C307 C 0.48094 0.61225 0.73345
 C308 C 0.51682 0.61310 0.73318
 C309 C 0.52799 0.58020 0.74326
 N310 N 0.50019 0.55955 0.75024
 C311 C 0.47140 0.57898 0.74406
 C312 C 0.56328 0.57030 0.74763
 C313 C 0.57415 0.53556 0.75387
 C314 C 0.60761 0.52593 0.76389
 C315 C 0.60822 0.49004 0.76488
 C316 C 0.57520 0.47869 0.75524
 N317 N 0.55469 0.50658 0.74833
 C318 C 0.56551 0.44329 0.75118
 C319 C 0.53066 0.43195 0.74720
 C320 C 0.52068 0.39813 0.73901
 C321 C 0.48484 0.39748 0.74000
 C322 C 0.47423 0.43087 0.74903
 N323 N 0.50227 0.45180 0.75360
 C324 C 0.43930 0.44110 0.75476
 C325 C 0.42927 0.47607 0.76085
 C326 C 0.39680 0.48629 0.77324
 C327 C 0.39600 0.52214 0.77172
 C328 C 0.42801 0.53281 0.75844
 N329 N 0.44812 0.50458 0.75189
 C330 C 0.43669 0.56763 0.74983
 H331 H 0.46387 0.63378 0.72692
 H332 H 0.53282 0.63542 0.72641
 H333 H 0.47117 0.50454 0.73756
 H334 H 0.62951 0.54291 0.76951
 H335 H 0.63060 0.47413 0.77151
 H336 H 0.53749 0.37618 0.73317
 H337 H 0.46852 0.37494 0.73498
 H338 H 0.37406 0.53847 0.77884
 H339 H 0.53025 0.50580 0.73664
 H340 H 0.37558 0.46958 0.78168
 C341 C 0.89588 0.98530 0.73084
 C342 C 0.89482 1.02108 0.73099
 C343 C 0.92734 1.03234 0.74224
 N344 N 0.94812 1.00475 0.74918
 C345 C 0.92902 0.97600 0.74205
 C346 C 0.93672 1.06750 0.74774
 C347 C 0.97114 1.07853 0.75535
 C348 C 0.98002 1.11196 0.76590
 C349 C 1.01582 1.11319 0.76742
 C350 C 1.02802 1.08022 0.75833
 N351 N 1.00048 1.05947 0.75056
 C352 C 1.06378 1.07111 0.75410
 C353 C 1.07527 1.03641 0.74810
 C354 C 1.10918 1.02683 0.73940
 C355 C 1.10992 0.99114 0.73866
 C356 C 1.07679 0.97982 0.74802
 N357 N 1.05567 1.00752 0.75370
 C358 C 1.06729 0.94447 0.75369
 C359 C 1.03204 0.93372 0.75781
 C360 C 1.02152 0.90150 0.77076
 C361 C 0.98565 0.90074 0.76920
 C362 C 0.97521 0.93262 0.75572
 N363 N 1.00358 0.95254 0.74873
 C364 C 0.94033 0.94150 0.74782
 H365 H 0.87461 0.96811 0.72362
 H366 H 0.87259 1.03699 0.72383
 H367 H 1.00364 0.97583 0.73482
 H368 H 0.96257 1.13359 0.77100
 H369 H 1.03096 1.13623 0.77359
 H370 H 1.13145 1.04355 0.73460
 H371 H 1.13259 0.97534 0.73278
 H372 H 0.96913 0.87912 0.77696
 H373 H 1.00178 1.03525 0.73853
 H374 H 1.03799 0.88061 0.78025
 C375 C 0.38943 0.47810 0.23594
 C376 C 0.38868 0.51360 0.23143
 C377 C 0.42199 0.52573 0.23893
 N378 N 0.44298 0.49890 0.24795
 C379 C 0.42318 0.46975 0.24600
 C380 C 0.43175 0.56128 0.23969
 C381 C 0.46661 0.57297 0.24385
 C382 C 0.47602 0.60728 0.25052
 C383 C 0.51186 0.60840 0.25093
 C384 C 0.52358 0.57460 0.24506
 N385 N 0.49574 0.55332 0.24009
 C386 C 0.55929 0.56474 0.24327
 C387 C 0.57083 0.52968 0.24139
 C388 C 0.60511 0.51944 0.23562
 C389 C 0.60558 0.48370 0.23744
 C390 C 0.57175 0.47320 0.24504
 N391 N 0.55061 0.50134 0.24753
 C392 C 0.56169 0.43844 0.25254
 C393 C 0.52684 0.42824 0.25956
 C394 C 0.51723 0.39680 0.27478
 C395 C 0.48130 0.39623 0.27588
 C396 C 0.46992 0.42727 0.26118
 N397 N 0.49786 0.44655 0.25115
 C398 C 0.43446 0.43600 0.25556
 H399 H 0.36754 0.46050 0.23257
 H400 H 0.36611 0.52879 0.22385
 H401 H 0.49719 0.46892 0.23588
 H402 H 0.45887 0.62940 0.25434
 H403 H 0.52737 0.63167 0.25496
 H404 H 0.62765 0.53585 0.23095
 H405 H 0.62847 0.46741 0.23449
 H406 H 0.46537 0.37520 0.28611
 H407 H 0.49652 0.52774 0.23131
 H408 H 0.53434 0.37636 0.28412
 O409 O 0.25030 0.16318 0.20335
 O410 O 0.28316 0.14968 0.25408
 O411 O 0.15445 0.20312 0.25308
 O412 O 0.14258 0.24535 0.29128
 O413 O 0.19825 0.25421 0.16480
 O414 O 0.24551 0.29528 0.15810
 O415 O 0.24655 0.29446 0.34866
 O416 O 0.20418 0.24758 0.35447
 O417 O 0.33541 0.25099 0.30529
 O418 O 0.34647 0.21155 0.25483
 O419 O 0.29477 0.34034 0.26257
 O420 O 0.24515 0.35289 0.22197
 O421 O 0.24662 0.33830 0.30860
 O422 O 0.20855 0.35242 0.25937
 O423 O 0.33641 0.29815 0.26001
 O424 O 0.34690 0.24902 0.21832
 O425 O 0.29311 0.24713 0.34687
 O426 O 0.24715 0.20875 0.35664
 O427 O 0.25139 0.20691 0.16327
 O428 O 0.28404 0.25957 0.15472
 O429 O 0.15588 0.25473 0.20652
 O430 O 0.14690 0.29120 0.25799
 O431 O 0.19605 0.16097 0.24837
 O432 O 0.24222 0.14799 0.28925
 Zr433 Zr 0.24396 0.18840 0.25165
 O434 O 0.27649 0.21638 0.28614
 Zr435 Zr 0.18320 0.24983 0.25401
 O436 O 0.21297 0.28067 0.28872
 Zr437 Zr 0.24532 0.25278 0.19335
 O438 O 0.27797 0.28355 0.22528
 Zr439 Zr 0.24609 0.24864 0.31840
 O440 O 0.21305 0.21721 0.28685
 Zr441 Zr 0.30806 0.25120 0.25771
 O442 O 0.27850 0.22024 0.22276
 Zr443 Zr 0.24711 0.31283 0.26000
 O444 O 0.21421 0.28499 0.22522
 O445 O 0.21233 0.21896 0.21999
 O446 O 0.27928 0.28255 0.29165
 C447 C 0.25348 0.17449 0.17191
 C448 C 0.16402 0.17118 0.24994
 C449 C 0.16612 0.25580 0.17454
 C450 C 0.24676 0.32686 0.34008
 C451 C 0.32521 0.24899 0.33716
 C452 C 0.32673 0.33012 0.26212
 H453 H 0.29060 0.19987 0.30004
 H454 H 0.29283 0.29852 0.21037
 H455 H 0.19820 0.20472 0.20367
 H456 H 0.19719 0.29435 0.30391
 H457 H 0.18815 0.22869 0.34693
 H458 H 0.15020 0.25783 0.31257
 H459 H 0.34555 0.27077 0.20444
 H460 H 0.30578 0.25021 0.16493
 H461 H 0.25399 0.18699 0.34465
 H462 H 0.22317 0.15384 0.30577
 H463 H 0.26458 0.34905 0.20535
 H464 H 0.22849 0.31250 0.16714
 H465 H 0.30350 0.15910 0.24116
 H466 H 0.34248 0.19510 0.27435
 H467 H 0.15701 0.31094 0.24479
 H468 H 0.19160 0.34738 0.27825
 O469 O 0.75535 0.84035 0.19936
 O470 O 0.71418 0.85042 0.24656
 O471 O 0.84145 0.79402 0.25365
 O472 O 0.85394 0.74284 0.28121
 O473 O 0.79873 0.74663 0.15611
 O474 O 0.74742 0.71381 0.14384
 O475 O 0.74722 0.69874 0.33539
 O476 O 0.78817 0.74366 0.34628
 O477 O 0.65893 0.75034 0.29393
 O478 O 0.65052 0.79178 0.24459
 O479 O 0.69727 0.66111 0.24464
 O480 O 0.74804 0.64912 0.20528
 O481 O 0.74427 0.65782 0.29245
 O482 O 0.78360 0.64633 0.24322
 O483 O 0.65697 0.70467 0.24615
 O484 O 0.64895 0.75500 0.20701
 O485 O 0.70043 0.74537 0.33608
 O486 O 0.74895 0.78533 0.34824
 O487 O 0.75283 0.79919 0.15651
 O488 O 0.71107 0.75334 0.14606
 O489 O 0.84042 0.74783 0.19840
 O490 O 0.84605 0.70415 0.24515
 O491 O 0.80097 0.83735 0.25283
 O492 O 0.75102 0.84924 0.28645
 Zr493 Zr 0.75316 0.81136 0.24637
 O494 O 0.71910 0.78202 0.27816
 Zr495 Zr 0.81215 0.74779 0.24556
 O496 O 0.78057 0.71573 0.27730
 Zr497 Zr 0.75140 0.75163 0.18374
 O498 O 0.71717 0.71951 0.21261
 Zr499 Zr 0.74791 0.74660 0.30857
 O500 O 0.78244 0.77892 0.27995
 Zr501 Zr 0.68719 0.75050 0.24667
 O502 O 0.71849 0.78303 0.21456
 Zr503 Zr 0.74607 0.68678 0.24574
 O504 O 0.78052 0.71597 0.21360
 O505 O 0.78514 0.78217 0.21360
 O506 O 0.71417 0.71585 0.27885
 C507 C 0.75465 0.83094 0.16704
 C508 C 0.83246 0.82635 0.25617
 C509 C 0.83071 0.74591 0.16635
 C510 C 0.74496 0.66701 0.32471
 C511 C 0.66854 0.74712 0.32593
 C512 C 0.66567 0.67237 0.24538
 H513 H 0.70505 0.79800 0.29274
 H514 H 0.70242 0.70596 0.19634
 H515 H 0.80134 0.79694 0.19985
 H516 H 0.79564 0.70057 0.29175
 H517 H 0.80625 0.76088 0.33940
 H518 H 0.84390 0.73476 0.30359
 H519 H 0.65372 0.73682 0.18930
 H520 H 0.69388 0.77076 0.15438
 H521 H 0.72969 0.80199 0.34406
 H522 H 0.76346 0.83908 0.30669
 H523 H 0.72777 0.65297 0.18974
 H524 H 0.75707 0.69207 0.15376
 H525 H 0.69657 0.84342 0.22896
 H526 H 0.65603 0.80827 0.26370
 H527 H 0.83848 0.68883 0.22574
 H528 H 0.80153 0.65112 0.26118
 O529 O 0.74863 0.16509 0.80206
 O530 O 0.70995 0.15571 0.75351
 O531 O 0.84021 0.20553 0.75018
 O532 O 0.85434 0.25140 0.71699
 O533 O 0.79918 0.25595 0.84343
 O534 O 0.75112 0.29569 0.85217
 O535 O 0.75252 0.30232 0.66202
 O536 O 0.79140 0.25259 0.65412
 O537 O 0.66052 0.25853 0.70435
 O538 O 0.64951 0.21729 0.75357
 O539 O 0.70359 0.34583 0.75075
 O540 O 0.75381 0.35579 0.79076
 O541 O 0.75011 0.34469 0.70357
 O542 O 0.78987 0.35617 0.75270
 O543 O 0.66105 0.30439 0.75331
 O544 O 0.64884 0.25325 0.79028
 O545 O 0.70246 0.25628 0.66228
 O546 O 0.74556 0.21818 0.64978
 O547 O 0.74782 0.20740 0.84376
 O548 O 0.71363 0.25780 0.85489
 O549 O 0.84110 0.25631 0.80131
 O550 O 0.85075 0.29347 0.75051
 O551 O 0.79784 0.16393 0.75374
 O552 O 0.74913 0.15353 0.71574
 Zr553 Zr 0.75105 0.19264 0.75472
 O554 O 0.71896 0.22254 0.72162
 Zr555 Zr 0.81320 0.25312 0.75385
 O556 O 0.78371 0.28579 0.72087
 Zr557 Zr 0.75197 0.25450 0.81539
 O558 O 0.71955 0.28703 0.78516
 Zr559 Zr 0.74968 0.25548 0.69034
 O560 O 0.78220 0.22222 0.72025
 Zr561 Zr 0.68833 0.25672 0.75173
 O562 O 0.71759 0.22388 0.78528
 Zr563 Zr 0.75046 0.31731 0.75119
 O564 O 0.78324 0.28758 0.78443
 O565 O 0.78415 0.22133 0.78695
 O566 O 0.71729 0.28896 0.71859
 C567 C 0.74686 0.17527 0.83396
 C568 C 0.82980 0.17364 0.75053
 C569 C 0.83118 0.25758 0.83341
 C570 C 0.75221 0.33438 0.67175
 C571 C 0.67046 0.25752 0.67233
 C572 C 0.67152 0.33623 0.75240
 H573 H 0.70451 0.20681 0.70712
 H574 H 0.70530 0.30153 0.80104
 H575 H 0.79894 0.20641 0.80200
 H576 H 0.79981 0.29971 0.70622
 H577 H 0.80601 0.23231 0.66078
 H578 H 0.84505 0.26064 0.69476
 H579 H 0.65367 0.27137 0.80800
 H580 H 0.69232 0.24721 0.84491
 H581 H 0.74197 0.19531 0.66108
 H582 H 0.76784 0.15892 0.69866
 H583 H 0.73441 0.35178 0.80738
 H584 H 0.76829 0.31327 0.84403
 H585 H 0.69163 0.16451 0.76950
 H586 H 0.65346 0.20120 0.73375
 H587 H 0.84036 0.31383 0.76240
 H588 H 0.80563 0.35248 0.73252
 O589 O 0.25552 0.84410 0.80348
 O590 O 0.29575 0.85485 0.75657
 O591 O 0.16413 0.80965 0.74759
 O592 O 0.15059 0.76692 0.70998
 O593 O 0.19920 0.75555 0.83888
 O594 O 0.24437 0.71273 0.84845
 O595 O 0.25523 0.71288 0.65761
 O596 O 0.21712 0.76087 0.64874
 O597 O 0.34418 0.75180 0.70639
 O598 O 0.35446 0.78944 0.75829
 O599 O 0.29510 0.66400 0.74622
 O600 O 0.24354 0.65352 0.78287
 O601 O 0.24988 0.66922 0.69747
 O602 O 0.20723 0.65857 0.74546
 O603 O 0.33909 0.70362 0.75131
 O604 O 0.35051 0.75096 0.79370
 O605 O 0.30446 0.75776 0.66258
 O606 O 0.25890 0.80000 0.65137
 O607 O 0.24983 0.80034 0.84344
 O608 O 0.28616 0.74947 0.85204
 O609 O 0.15926 0.76001 0.79513
 O610 O 0.15147 0.72081 0.74452
 O611 O 0.20806 0.84941 0.75258
 O612 O 0.25882 0.85857 0.71648
 Zr613 Zr 0.25385 0.81889 0.75454
 O614 O 0.28648 0.78886 0.72212
 Zr615 Zr 0.18933 0.76096 0.74891
 O616 O 0.21907 0.72864 0.71570
 Zr617 Zr 0.24765 0.75479 0.81285
 O618 O 0.27981 0.72186 0.78279
 Zr619 Zr 0.25581 0.75863 0.68808
 O620 O 0.22298 0.79176 0.71786
 Zr621 Zr 0.31389 0.75227 0.75231
 O622 O 0.28446 0.78529 0.78548
 Zr623 Zr 0.24931 0.69450 0.74623
 O624 O 0.21645 0.72423 0.77948
 O625 O 0.21857 0.79016 0.78394
 O626 O 0.28520 0.72278 0.71657
 C627 C 0.25296 0.83262 0.83495
 C628 C 0.17555 0.84112 0.75047
 C629 C 0.16771 0.75847 0.82761
 C630 C 0.25295 0.68047 0.66601
 C631 C 0.33578 0.75435 0.67404
 C632 C 0.32759 0.67229 0.74822
 H633 H 0.30256 0.80454 0.70937
 H634 H 0.29262 0.70590 0.79846
 H635 H 0.20392 0.80541 0.79872
 H636 H 0.20341 0.71598 0.69954
 H637 H 0.19966 0.77830 0.65646
 H638 H 0.15806 0.75322 0.68941
 H639 H 0.34367 0.73186 0.80969
 H640 H 0.30525 0.76584 0.84591
 H641 H 0.27676 0.81678 0.65953
 H642 H 0.24267 0.85235 0.69726
 H643 H 0.26038 0.65767 0.80200
 H644 H 0.22709 0.69613 0.83870
 H645 H 0.31343 0.84460 0.77237
 H646 H 0.35196 0.80707 0.73960
 H647 H 0.15643 0.70363 0.76317
 H648 H 0.19166 0.66503 0.72590
 O649 O 0.24916 0.34753 0.70991
 O650 O 0.21171 0.35628 0.76058
 O651 O 0.34087 0.30321 0.75727
 O652 O 0.35268 0.25717 0.79179
 O653 O 0.29664 0.25492 0.66526
 O654 O 0.24581 0.22067 0.65397
 O655 O 0.24973 0.20435 0.84465
 O656 O 0.29181 0.25173 0.85412
 O657 O 0.16025 0.25373 0.80601
 O658 O 0.14994 0.29676 0.75796
 O659 O 0.19933 0.16713 0.75458
 O660 O 0.25020 0.15702 0.71383
 O661 O 0.24719 0.16386 0.80140
 O662 O 0.28546 0.15346 0.75208
 O663 O 0.15816 0.20981 0.75791
 O664 O 0.14801 0.26031 0.71967
 O665 O 0.20271 0.25108 0.84737
 O666 O 0.24761 0.28882 0.86052
 O667 O 0.24995 0.30646 0.66689
 O668 O 0.20867 0.25978 0.65688
 O669 O 0.33934 0.25652 0.70665
 O670 O 0.34773 0.21415 0.75354
 O671 O 0.29939 0.34580 0.75652
 O672 O 0.25256 0.35599 0.79717
 Zr673 Zr 0.25168 0.31845 0.75668
 O674 O 0.21934 0.28802 0.78929
 Zr675 Zr 0.31207 0.25635 0.75434
 O676 O 0.28217 0.22292 0.78639
 Zr677 Zr 0.24972 0.25865 0.69378
 O678 O 0.21697 0.22582 0.72324
 Zr679 Zr 0.24951 0.25281 0.81861
 O680 O 0.28244 0.28670 0.78953
 Zr681 Zr 0.18736 0.25609 0.75825
 O682 O 0.21696 0.28942 0.72548
 Zr683 Zr 0.24764 0.19358 0.75524
 O684 O 0.28070 0.22382 0.72278
 O685 O 0.28307 0.28972 0.72308
 O686 O 0.21588 0.22166 0.78932
 C687 C 0.24970 0.33823 0.67761
 C688 C 0.33128 0.33538 0.75679
 C689 C 0.32882 0.25511 0.67485
 C690 C 0.24758 0.17264 0.83375
 C691 C 0.17056 0.25104 0.83782
 C692 C 0.16758 0.17778 0.75640
 H693 H 0.20545 0.30343 0.80463
 H694 H 0.20210 0.21214 0.70717
 H695 H 0.29809 0.30456 0.70819
 H696 H 0.29781 0.20791 0.80036
 H697 H 0.30746 0.27142 0.84793
 H698 H 0.34519 0.24240 0.81162
 H699 H 0.15279 0.24255 0.70153
 H700 H 0.19138 0.27691 0.66558
 H701 H 0.24156 0.31177 0.85051
 H702 H 0.27087 0.34857 0.81384
 H703 H 0.22936 0.16037 0.69893
 H704 H 0.25883 0.20008 0.66241
 H705 H 0.19326 0.34925 0.74388
 H706 H 0.15441 0.31190 0.77841
 H707 H 0.33979 0.19795 0.73501
 H708 H 0.30426 0.15909 0.76887
 O709 O 0.75331 0.66398 0.69753
 O710 O 0.79026 0.65351 0.74690
 O711 O 0.66179 0.70795 0.74385
 O712 O 0.64872 0.75326 0.77800
 O713 O 0.70824 0.75419 0.65311
 O714 O 0.75664 0.79373 0.64528
 O715 O 0.75012 0.80303 0.83570
 O716 O 0.71123 0.75604 0.84448
 O717 O 0.84213 0.75826 0.79605
 O718 O 0.85703 0.71926 0.75342
 O719 O 0.80223 0.84476 0.74756
 O720 O 0.75428 0.85620 0.70714
 O721 O 0.75415 0.84495 0.79377
 O722 O 0.71531 0.85560 0.74247
 O723 O 0.84375 0.80245 0.74451
 O724 O 0.85261 0.74532 0.70834
 O725 O 0.79910 0.75840 0.83701
 O726 O 0.75131 0.71610 0.84628
 O727 O 0.75857 0.70581 0.65559
 O728 O 0.79406 0.75596 0.64466
 O729 O 0.66475 0.75588 0.69367
 O730 O 0.65571 0.79727 0.74211
 O731 O 0.70316 0.66522 0.74503
 O732 O 0.75085 0.65521 0.78534
 Zr733 Zr 0.75118 0.69239 0.74454
 O734 O 0.78353 0.72210 0.77771
 Zr735 Zr 0.69078 0.75454 0.74209
 O736 O 0.72008 0.78655 0.77592
 Zr737 Zr 0.75433 0.75336 0.68289
 O738 O 0.78621 0.78597 0.71352
 Zr739 Zr 0.75256 0.75595 0.80777
 O740 O 0.71971 0.72351 0.77720
 Zr741 Zr 0.81558 0.75531 0.74811
 O742 O 0.78667 0.72213 0.71461
 Zr743 Zr 0.75481 0.81714 0.74623
 O744 O 0.72275 0.78765 0.71201
 O745 O 0.72041 0.72159 0.71087
 O746 O 0.78637 0.78848 0.77992
 C747 C 0.75708 0.67383 0.66566
 C748 C 0.67129 0.67583 0.74476
 C749 C 0.67591 0.75525 0.66201
 C750 C 0.75135 0.83499 0.82570
 C751 C 0.83138 0.75967 0.82781
 C752 C 0.83406 0.83451 0.74551
 H753 H 0.79779 0.70645 0.79241
 H754 H 0.80113 0.79984 0.69764
 H755 H 0.70599 0.70659 0.69559
 H756 H 0.70396 0.80091 0.79007
 H757 H 0.69331 0.73955 0.83573
 H758 H 0.65615 0.76630 0.79902
 H759 H 0.85278 0.76582 0.69271
 H760 H 0.81391 0.74243 0.65398
 H761 H 0.77121 0.70016 0.84230
 H762 H 0.73436 0.66402 0.80321
 H763 H 0.77214 0.84996 0.68954
 H764 H 0.73954 0.81165 0.65264
 H765 H 0.80899 0.66087 0.73061
 H766 H 0.84663 0.69687 0.76096
 H767 H 0.66339 0.81334 0.72335
 H768 H 0.69837 0.85151 0.76157
 O769 O 0.24330 0.65754 0.29423
 O770 O 0.20549 0.65137 0.24478
 O771 O 0.33638 0.69951 0.24596
 O772 O 0.35271 0.74695 0.21725
 O773 O 0.29405 0.74521 0.34182
 O774 O 0.24681 0.78467 0.35226
 O775 O 0.25243 0.80191 0.16167
 O776 O 0.28988 0.75300 0.15135
 O777 O 0.15899 0.75819 0.20008
 O778 O 0.14752 0.71322 0.24890
 O779 O 0.20258 0.84201 0.25137
 O780 O 0.25074 0.85037 0.29181
 O781 O 0.25113 0.84224 0.20529
 O782 O 0.29034 0.84878 0.25721
 O783 O 0.15928 0.80126 0.25220
 O784 O 0.14377 0.75169 0.28393
 O785 O 0.20166 0.75787 0.15872
 O786 O 0.24682 0.71662 0.14653
 O787 O 0.24334 0.69772 0.33810
 O788 O 0.20687 0.74768 0.35004
 O789 O 0.33692 0.74522 0.30060
 O790 O 0.34705 0.78849 0.25383
 O791 O 0.29316 0.65853 0.24631
 O792 O 0.24520 0.65197 0.20662
 Zr793 Zr 0.24681 0.68788 0.24854
 O794 O 0.21584 0.72014 0.21657
 Zr795 Zr 0.31016 0.74723 0.25255
 O796 O 0.28210 0.78180 0.22034
 Zr797 Zr 0.24755 0.74625 0.31262
 O798 O 0.21684 0.78115 0.28343
 Zr799 Zr 0.24814 0.75379 0.18761
 O800 O 0.27942 0.71879 0.21669
 Zr801 Zr 0.18562 0.75337 0.24793
 O802 O 0.21330 0.71803 0.28020
 Zr803 Zr 0.24892 0.81251 0.25156
 O804 O 0.28003 0.78046 0.28429
 O805 O 0.27965 0.71417 0.28290
 O806 O 0.21588 0.78653 0.21693
 C807 C 0.24191 0.66626 0.32657
 C808 C 0.32536 0.66785 0.24440
 C809 C 0.32628 0.74488 0.33246
 C810 C 0.25321 0.83346 0.17298
 C811 C 0.16954 0.75952 0.16825
 C812 C 0.17031 0.83292 0.25265
 H813 H 0.20094 0.70553 0.20141
 H814 H 0.20256 0.79513 0.29976
 H815 H 0.29386 0.69796 0.29715
 H816 H 0.29882 0.79599 0.20669
 H817 H 0.30621 0.73446 0.15895
 H818 H 0.34486 0.75881 0.19572
 H819 H 0.15298 0.76042 0.30638
 H820 H 0.18905 0.73054 0.34244
 H821 H 0.22950 0.69843 0.15254
 H822 H 0.26206 0.66053 0.18895
 H823 H 0.23308 0.84384 0.30953
 H824 H 0.26344 0.80309 0.34492
 H825 H 0.18694 0.65949 0.26087
 H826 H 0.14854 0.70065 0.22635
 H827 H 0.34062 0.80379 0.27366
 H828 H 0.30691 0.84504 0.23772
 O829 O 0.75259 0.33684 0.30118
 O830 O 0.78834 0.34605 0.25140
 O831 O 0.65688 0.29964 0.25247
 O832 O 0.64109 0.25537 0.21845
 O833 O 0.69835 0.24687 0.34364
 O834 O 0.74629 0.20887 0.35365
 O835 O 0.74376 0.19993 0.16137
 O836 O 0.70328 0.24662 0.15342
 O837 O 0.83371 0.24098 0.20155
 O838 O 0.84868 0.27917 0.25139
 O839 O 0.78774 0.15396 0.25285
 O840 O 0.73653 0.14546 0.28906
 O841 O 0.74425 0.15761 0.20306
 O842 O 0.69993 0.14939 0.25193
 O843 O 0.83189 0.19334 0.24930
 O844 O 0.84664 0.24294 0.28864
 O845 O 0.79126 0.24616 0.16049
 O846 O 0.74478 0.28673 0.15143
 O847 O 0.74895 0.29482 0.34311
 O848 O 0.78677 0.24487 0.35102
 O849 O 0.65568 0.25181 0.30252
 O850 O 0.64516 0.21048 0.25418
 O851 O 0.70086 0.33971 0.25442
 O852 O 0.74896 0.34739 0.21366
 Zr853 Zr 0.74696 0.30953 0.25380
 O854 O 0.77761 0.27823 0.22058
 Zr855 Zr 0.68264 0.25124 0.25464
 O856 O 0.71023 0.21766 0.22078
 Zr857 Zr 0.74523 0.24794 0.31477
 O858 O 0.77521 0.21366 0.28405
 Zr859 Zr 0.74485 0.24679 0.18979
 O860 O 0.71390 0.28096 0.22030
 Zr861 Zr 0.80719 0.24258 0.24992
 O862 O 0.77994 0.27714 0.28359
 Zr863 Zr 0.74245 0.18486 0.25074
 O864 O 0.71200 0.21594 0.28488
 O865 O 0.71381 0.28200 0.28677
 O866 O 0.77619 0.21193 0.21754
 C867 C 0.75236 0.32662 0.33313
 C868 C 0.66834 0.33118 0.25351
 C869 C 0.66619 0.24910 0.33425
 C870 C 0.74478 0.16794 0.17119
 C871 C 0.82332 0.24289 0.16963
 C872 C 0.82025 0.16184 0.25108
 H873 H 0.79271 0.29349 0.20622
 H874 H 0.78885 0.19840 0.29974
 H875 H 0.70000 0.29754 0.30213
 H876 H 0.69382 0.20428 0.20601
 H877 H 0.68645 0.26463 0.16124
 H878 H 0.64727 0.24105 0.19786
 H879 H 0.84083 0.22462 0.30590
 H880 H 0.80503 0.26129 0.34284
 H881 H 0.76208 0.30459 0.15841
 H882 H 0.73048 0.34114 0.19668
 H883 H 0.75474 0.14925 0.30699
 H884 H 0.73216 0.18929 0.34448
 H885 H 0.80782 0.33587 0.26497
 H886 H 0.84421 0.29694 0.23320
 H887 H 0.65181 0.19384 0.27280
 H888 H 0.68610 0.15256 0.23036
 C889 C 0.24116 0.11574 0.14846
 C890 C 0.24218 0.09007 0.12294
 C891 C 0.26165 0.09461 0.09219
 C892 C 0.28160 0.12579 0.08814
 C893 C 0.28010 0.15230 0.11421
 C894 C 0.25842 0.14771 0.14409
 C895 C 0.30212 0.18146 0.11038
 N896 N 0.32332 0.18438 0.08217
 N897 N 0.32462 0.15974 0.05773
 C898 C 0.30489 0.13045 0.05994
 H899 H 0.22620 0.11055 0.17182
 H900 H 0.22683 0.06661 0.12702
 H901 H 0.30392 0.20128 0.13008
 H902 H 0.30831 0.11078 0.04002
 C903 C 0.73037 0.62241 0.63767
 C904 C 0.72858 0.59706 0.61171
 C905 C 0.75464 0.59469 0.58614
 C906 C 0.78314 0.61831 0.58681
 C907 C 0.78493 0.64419 0.61324
 C908 C 0.75797 0.64646 0.63856
 C909 C 0.81443 0.66608 0.61414
 N910 N 0.83981 0.66277 0.58963
 N911 N 0.83786 0.63882 0.56450
 C912 C 0.81052 0.61638 0.56234
 H913 H 0.70979 0.62354 0.65704
 H914 H 0.70683 0.57892 0.61167
 H915 H 0.81798 0.68520 0.63450
 H916 H 0.81061 0.59712 0.54169
 C917 C 0.73142 0.85896 0.11378
 C918 C 0.73223 0.88417 0.08755
 C919 C 0.75845 0.90986 0.08686
 C920 C 0.78545 0.90878 0.11230
 C921 C 0.78508 0.88242 0.13836
 C922 C 0.75706 0.85823 0.13984
 C923 C 0.81376 0.88014 0.16112
 N924 N 0.84034 0.90346 0.15870
 N925 N 0.84039 0.92866 0.13477
 C926 C 0.81402 0.93202 0.11141
 H927 H 0.71030 0.84009 0.11400
 H928 H 0.71155 0.88430 0.06823
 H929 H 0.81572 0.85954 0.18025
 H930 H 0.81606 0.95234 0.09192
 C931 C 0.22611 0.39219 0.65126
 C932 C 0.22543 0.41774 0.62536
 C933 C 0.25050 0.41804 0.59867
 C934 C 0.27759 0.39287 0.59882
 C935 C 0.27794 0.36649 0.62476
 C936 C 0.25149 0.36590 0.65083
 C937 C 0.30548 0.34214 0.62420
 N938 N 0.33056 0.34413 0.59924
 N939 N 0.33016 0.36892 0.57490
 C940 C 0.30467 0.39342 0.57391
 H941 H 0.20600 0.39230 0.67121
 H942 H 0.20478 0.43705 0.62567
 H943 H 0.30787 0.32207 0.64376
 H944 H 0.30602 0.41325 0.55387
 C945 C 0.76891 0.12010 0.85866
 C946 C 0.76928 0.09354 0.88343
 C947 C 0.74597 0.09374 0.91176
 C948 C 0.72044 0.12068 0.91384
 C949 C 0.71997 0.14762 0.88833
 C950 C 0.74507 0.14771 0.86104
 C951 C 0.69321 0.17267 0.89011
 N952 N 0.66901 0.17115 0.91593
 N953 N 0.66940 0.14594 0.93983
 C954 C 0.69399 0.12053 0.93950
 H955 H 0.78792 0.11939 0.83768
 H956 H 0.78873 0.07313 0.88103
 H957 H 0.69060 0.19282 0.87071
 H958 H 0.69216 0.10014 0.95890
 C959 C 0.27053 0.62221 0.36344
 C960 C 0.27027 0.59791 0.39046
 C961 C 0.23882 0.58789 0.40636
 C962 C 0.20698 0.60259 0.39459
 C963 C 0.20742 0.62820 0.36788
 C964 C 0.23956 0.63820 0.35259
 C965 C 0.17551 0.64283 0.35721
 N966 N 0.14523 0.63214 0.37227
 N967 N 0.14478 0.60789 0.39720
 C968 C 0.17458 0.59271 0.40884
 H969 H 0.29520 0.62916 0.35141
 H970 H 0.29479 0.58675 0.39908
 H971 H 0.17436 0.66244 0.33691
 H972 H 0.17268 0.57309 0.42907
 C973 C 0.28257 0.87604 0.87222
 C974 C 0.28240 0.90189 0.89783
 C975 C 0.25112 0.91203 0.91396
 C976 C 0.21948 0.89518 0.90463
 C977 C 0.21999 0.86756 0.88002
 C978 C 0.25174 0.85862 0.86319
 C979 C 0.18839 0.85029 0.87258
 N980 N 0.15831 0.86078 0.88808
 N981 N 0.15770 0.88735 0.91050
 C982 C 0.18718 0.90500 0.91918
 H983 H 0.30698 0.86940 0.85950
 H984 H 0.30676 0.91453 0.90477
 H985 H 0.18722 0.82888 0.85431
 H986 H 0.18514 0.92644 0.93744
 C987 C 0.72415 0.36349 0.37742
 C988 C 0.72446 0.39049 0.40172
 C989 C 0.75581 0.40707 0.41084
 C990 C 0.78745 0.39630 0.39490
 C991 C 0.78687 0.36975 0.36911
 C992 C 0.75486 0.35352 0.36031
 C993 C 0.81857 0.35994 0.35338
 N994 N 0.84879 0.37567 0.36316
 N995 N 0.84939 0.40043 0.38760
 C996 C 0.81980 0.41122 0.40385
 H997 H 0.69962 0.35067 0.37146
 H998 H 0.70011 0.39832 0.41385
 H999 H 0.81961 0.33975 0.33363
 H1000 H 0.82183 0.43132 0.42360
 C1001 C 0.14200 0.23353 0.11902
 C1002 C 0.11639 0.23166 0.09329
 C1003 C 0.08657 0.25296 0.09468
 C1004 C 0.08364 0.27797 0.12206
 C1005 C 0.11008 0.28011 0.14803
 C1006 C 0.13901 0.25698 0.14693
 C1007 C 0.10746 0.30658 0.17336
 N1008 N 0.07999 0.32885 0.17310
 N1009 N 0.05519 0.32687 0.14887
 C1010 C 0.05624 0.30254 0.12320
 H1011 H 0.16402 0.21583 0.11753
 H1012 H 0.11941 0.21265 0.07253
 H1013 H 0.12748 0.31060 0.19265
 H1014 H 0.03600 0.30323 0.10359
 C1015 C 0.62475 0.78169 0.63363
 C1016 C 0.59857 0.78235 0.60847
 C1017 C 0.59592 0.75572 0.58354
 C1018 C 0.62065 0.72818 0.58353
 C1019 C 0.64783 0.72792 0.60866
 C1020 C 0.64957 0.75489 0.63403
 C1021 C 0.67163 0.69992 0.60818
 N1022 N 0.66834 0.67422 0.58405
 N1023 N 0.64272 0.67440 0.56057
 C1024 C 0.61867 0.70033 0.55960
 H1025 H 0.62575 0.80238 0.65291
 H1026 H 0.57981 0.80350 0.60874
 H1027 H 0.69251 0.69781 0.62694
 H1028 H 0.59818 0.69876 0.54026
 C1029 C 0.14079 0.73879 0.88279
 C1030 C 0.11565 0.74039 0.90898
 C1031 C 0.08807 0.76445 0.90729
 C1032 C 0.08691 0.78850 0.87901
 C1033 C 0.11299 0.78727 0.85258
 C1034 C 0.13961 0.76141 0.85410
 C1035 C 0.11244 0.81322 0.82653
 N1036 N 0.08716 0.83795 0.82652
 N1037 N 0.06256 0.83890 0.85107
 C1038 C 0.06171 0.81529 0.87740
 H1039 H 0.16125 0.71937 0.88479
 H1040 H 0.11721 0.72194 0.93039
 H1041 H 0.13234 0.81493 0.80679
 H1042 H 0.04176 0.81819 0.89717
 C1043 C 0.61730 0.27952 0.36280
 C1044 C 0.59197 0.28282 0.38870
 C1045 C 0.58791 0.25697 0.41423
 C1046 C 0.60959 0.22704 0.41350
 C1047 C 0.63535 0.22365 0.38710
 C1048 C 0.63937 0.25038 0.36183
 C1049 C 0.65546 0.19298 0.38628
 N1050 N 0.65052 0.16791 0.41081
 N1051 N 0.62662 0.17130 0.43588
 C1052 C 0.60590 0.19990 0.43800
 H1053 H 0.62002 0.30011 0.34357
 H1054 H 0.57537 0.30571 0.38891
 H1055 H 0.67458 0.18839 0.36608
 H1056 H 0.58662 0.20100 0.45863
 C1057 C 0.88648 0.76767 0.14239
 C1058 C 0.91259 0.76884 0.11712
 C1059 C 0.91145 0.74685 0.08779
 C1060 C 0.88417 0.72167 0.08521
 C1061 C 0.85783 0.72022 0.11131
 C1062 C 0.85848 0.74426 0.13950
 C1063 C 0.83253 0.69363 0.10907
 N1064 N 0.83319 0.67065 0.08216
 N1065 N 0.85776 0.67207 0.05759
 C1066 C 0.88339 0.69650 0.05834
 H1067 H 0.88767 0.78593 0.16398
 H1068 H 0.93320 0.78810 0.11980
 H1069 H 0.81289 0.69013 0.12893
 H1070 H 0.90328 0.69549 0.03831
 C1071 C 0.37875 0.28404 0.64657
 C1072 C 0.40406 0.28673 0.62061
 C1073 C 0.40733 0.26080 0.59505
 C1074 C 0.38471 0.23147 0.59573
 C1075 C 0.35875 0.22887 0.62203
 C1076 C 0.35572 0.25559 0.64740
 C1077 C 0.33740 0.19897 0.62264
 N1078 N 0.34156 0.17375 0.59814
 N1079 N 0.36580 0.17628 0.57329
 C1080 C 0.38760 0.20414 0.57133
 H1081 H 0.37668 0.30466 0.66586
 H1082 H 0.42131 0.30919 0.62041
 H1083 H 0.31789 0.19511 0.64265
 H1084 H 0.40711 0.20449 0.55089
 C1085 C 0.85522 0.23747 0.88984
 C1086 C 0.88042 0.23715 0.91604
 C1087 C 0.91003 0.25879 0.91414
 C1088 C 0.91287 0.28290 0.88599
 C1089 C 0.88678 0.28360 0.85961
 C1090 C 0.85833 0.25978 0.86099
 C1091 C 0.88923 0.30940 0.83361
 N1092 N 0.91630 0.33225 0.83352
 N1093 N 0.94086 0.33148 0.85807
 C1094 C 0.93991 0.30791 0.88443
 H1095 H 0.83341 0.21949 0.89174
 H1096 H 0.87744 0.21878 0.93739
 H1097 H 0.86935 0.31249 0.81407
 H1098 H 0.95990 0.30954 0.90427
 C1099 C 0.37912 0.76944 0.35987
 C1100 C 0.40505 0.76995 0.38533
 C1101 C 0.40622 0.74429 0.41138
 C1102 C 0.38066 0.71749 0.41170
 C1103 C 0.35378 0.71739 0.38620
 C1104 C 0.35311 0.74370 0.36011
 C1105 C 0.32907 0.69021 0.38714
 N1106 N 0.33118 0.66509 0.41199
 N1107 N 0.35651 0.66510 0.43579
 C1108 C 0.38141 0.69030 0.43639
 H1109 H 0.37907 0.78963 0.34005
 H1110 H 0.42452 0.79051 0.38470
 H1111 H 0.30833 0.68844 0.36819
 H1112 H 0.40163 0.68868 0.45602
 C1113 C 0.10958 0.14434 0.27237
 C1114 C 0.08344 0.11897 0.27183
 C1115 C 0.08352 0.09246 0.24649
 C1116 C 0.10912 0.09327 0.21961
 C1117 C 0.13491 0.11992 0.21953
 C1118 C 0.13610 0.14456 0.24714
 C1119 C 0.15770 0.12200 0.19080
 N1120 N 0.15557 0.09820 0.16467
 N1121 N 0.13196 0.07266 0.16513
 C1122 C 0.10860 0.06945 0.19157
 H1123 H 0.10951 0.16358 0.29313
 H1124 H 0.06383 0.11914 0.29228
 H1125 H 0.17655 0.14286 0.18839
 H1126 H 0.08934 0.04884 0.18994
 C1127 C 0.62953 0.63776 0.77589
 C1128 C 0.60324 0.61250 0.77656
 C1129 C 0.59063 0.59784 0.74548
 C1130 C 0.60435 0.60922 0.71308
 C1131 C 0.63063 0.63530 0.71239
 C1132 C 0.64353 0.64923 0.74412
 C1133 C 0.64308 0.64664 0.67976
 N1134 N 0.63036 0.63229 0.64998
 N1135 N 0.60598 0.60745 0.65065
 C1136 C 0.59257 0.59539 0.68116
 H1137 H 0.63904 0.64842 0.80032
 H1138 H 0.59288 0.60401 0.80150
 H1139 H 0.66279 0.66670 0.67768
 H1140 H 0.57277 0.57523 0.68018
 C1141 C 0.85916 0.12178 0.77469
 C1142 C 0.88504 0.09629 0.77412
 C1143 C 0.90877 0.09437 0.74631
 C1144 C 0.90591 0.11812 0.71814
 C1145 C 0.87963 0.14413 0.71874
 C1146 C 0.85653 0.14621 0.74763
 C1147 C 0.87684 0.16664 0.68985
 N1148 N 0.89939 0.16356 0.66268
 N1149 N 0.92433 0.13935 0.66233
 C1150 C 0.92831 0.11648 0.68904
 H1151 H 0.84152 0.12297 0.79681
 H1152 H 0.88690 0.07813 0.79573
 H1153 H 0.85668 0.18629 0.68830
 H1154 H 0.94873 0.09709 0.68715
 C1155 C 0.35533 0.61638 0.26835
 C1156 C 0.38109 0.59080 0.26727
 C1157 C 0.40352 0.58796 0.23844
 C1158 C 0.39942 0.61102 0.20982
 C1159 C 0.37354 0.63741 0.21115
 C1160 C 0.35168 0.64018 0.24089
 C1161 C 0.36999 0.65978 0.18224
 N1162 N 0.39116 0.65587 0.15409
 N1163 N 0.41548 0.63106 0.15285
 C1164 C 0.42027 0.60846 0.17967
 H1165 H 0.33867 0.61819 0.29119
 H1166 H 0.38392 0.57329 0.28931
 H1167 H 0.35038 0.68006 0.18158
 H1168 H 0.44016 0.58859 0.17708
 C1169 C 0.12005 0.86677 0.73022
 C1170 C 0.09316 0.89112 0.73157
 C1171 C 0.09402 0.91891 0.75545
 C1172 C 0.12212 0.92092 0.77969
 C1173 C 0.14990 0.89638 0.77794
 C1174 C 0.14895 0.86921 0.75254
 C1175 C 0.17686 0.89920 0.80280
 N1176 N 0.17589 0.92450 0.82753
 N1177 N 0.14950 0.94692 0.82963
 C1178 C 0.12244 0.94574 0.80691
 H1179 H 0.11843 0.84594 0.71114
 H1180 H 0.07191 0.88880 0.71302
 H1181 H 0.19839 0.88128 0.80364
 H1182 H 0.10124 0.96397 0.81065
 C1183 C 0.61657 0.36024 0.22834
 C1184 C 0.59084 0.38594 0.22817
 C1185 C 0.58945 0.41124 0.25456
 C1186 C 0.61424 0.41027 0.28199
 C1187 C 0.64082 0.38448 0.28186
 C1188 C 0.64204 0.35940 0.25457
 C1189 C 0.66465 0.38409 0.30978
 N1190 N 0.66208 0.40806 0.33572
 N1191 N 0.63711 0.43221 0.33584
 C1192 C 0.61302 0.43404 0.30999
 H1193 H 0.61685 0.34104 0.20755
 H1194 H 0.57184 0.38621 0.20721
 H1195 H 0.68505 0.36480 0.31148
 H1196 H 0.59305 0.45390 0.31169
 C1197 C 0.85546 0.88567 0.24528
 C1198 C 0.88084 0.91152 0.24694
 C1199 C 0.91171 0.90665 0.26608
 C1200 C 0.91538 0.87548 0.28607
 C1201 C 0.88934 0.84890 0.28411
 C1202 C 0.85988 0.85342 0.26196
 C1203 C 0.89270 0.81973 0.30616
 N1204 N 0.92050 0.81694 0.32787
 N1205 N 0.94489 0.84166 0.32962
 C1206 C 0.94307 0.87094 0.30988
 H1207 H 0.83223 0.89092 0.23020
 H1208 H 0.87677 0.93521 0.23201
 H1209 H 0.87287 0.79985 0.30763
 H1210 H 0.96289 0.89070 0.31364
 C1211 C 0.38377 0.36393 0.78139
 C1212 C 0.40965 0.38959 0.78106
 C1213 C 0.41151 0.41395 0.75381
 C1214 C 0.38712 0.41217 0.72609
 C1215 C 0.36060 0.38634 0.72659
 C1216 C 0.35878 0.36232 0.75476
 C1217 C 0.33729 0.38490 0.69824
 N1218 N 0.34021 0.40806 0.67162
 N1219 N 0.36507 0.43239 0.67122
 C1220 C 0.38870 0.43515 0.69742
 H1221 H 0.38286 0.34557 0.80290
 H1222 H 0.42833 0.39060 0.80228
 H1223 H 0.31711 0.36535 0.69670
 H1224 H 0.40862 0.45510 0.69541
 C1225 C 0.11412 0.26976 0.86260
 C1226 C 0.08746 0.26837 0.88724
 C1227 C 0.08891 0.24500 0.91546
 C1228 C 0.11754 0.22146 0.91779
 C1229 C 0.14464 0.22273 0.89244
 C1230 C 0.14323 0.24780 0.86507
 C1231 C 0.17134 0.19758 0.89444
 N1232 N 0.17117 0.17335 0.92020
 N1233 N 0.14583 0.17218 0.94397
 C1234 C 0.11893 0.19512 0.94350
 H1235 H 0.11228 0.28869 0.84167
 H1236 H 0.06596 0.28661 0.88486
 H1237 H 0.19168 0.19607 0.87520
 H1238 H 0.09853 0.19199 0.96278
 C1239 C 0.61466 0.77091 0.35219
 C1240 C 0.58883 0.77180 0.37781
 C1241 C 0.58825 0.74701 0.40466
 C1242 C 0.61377 0.72028 0.40530
 C1243 C 0.64028 0.71950 0.37942
 C1244 C 0.64095 0.74550 0.35294
 C1245 C 0.66451 0.69191 0.38037
 N1246 N 0.66254 0.66736 0.40580
 N1247 N 0.63783 0.66832 0.43026
 C1248 C 0.61331 0.69381 0.43081
 H1249 H 0.61463 0.79079 0.33205
 H1250 H 0.56934 0.79226 0.37698
 H1251 H 0.68431 0.68895 0.36065
 H1252 H 0.59353 0.69291 0.45097
 C1253 C 0.85566 0.74025 0.88432
 C1254 C 0.88084 0.74070 0.91053
 C1255 C 0.90938 0.76384 0.90913
 C1256 C 0.91136 0.78818 0.88107
 C1257 C 0.88554 0.78772 0.85443
 C1258 C 0.85799 0.76285 0.85570
 C1259 C 0.88738 0.81330 0.82812
 N1260 N 0.91347 0.83724 0.82822
 N1261 N 0.93760 0.83778 0.85319
 C1262 C 0.93726 0.81441 0.87974
 H1263 H 0.83461 0.72136 0.88594
 H1264 H 0.87864 0.72189 0.93156
 H1265 H 0.86784 0.81518 0.80803
 H1266 H 0.95685 0.81709 0.89986
 C1267 C 0.37597 0.27837 0.36384
 C1268 C 0.40173 0.28177 0.38929
 C1269 C 0.40503 0.25694 0.41591
 C1270 C 0.38192 0.22798 0.41677
 C1271 C 0.35555 0.22460 0.39093
 C1272 C 0.35245 0.25028 0.36446
 C1273 C 0.33394 0.19489 0.39186
 N1274 N 0.33812 0.17070 0.41736
 N1275 N 0.36265 0.17402 0.44177
 C1276 C 0.38477 0.20169 0.44227
 H1277 H 0.37398 0.29822 0.34376
 H1278 H 0.41930 0.30395 0.38824
 H1279 H 0.31420 0.19028 0.37227
 H1280 H 0.40452 0.20268 0.46242
 C1281 C 0.14310 0.73783 0.11365
 C1282 C 0.11749 0.73812 0.08784
 C1283 C 0.09109 0.76340 0.08797
 C1284 C 0.09091 0.78936 0.11436
 C1285 C 0.11691 0.78901 0.14074
 C1286 C 0.14284 0.76257 0.14060
 C1287 C 0.11657 0.81583 0.16584
 N1288 N 0.09146 0.84074 0.16485
 N1289 N 0.06686 0.84085 0.14029
 C1290 C 0.06580 0.81614 0.11495
 H1291 H 0.16283 0.71759 0.11307
 H1292 H 0.11800 0.71820 0.06775
 H1293 H 0.13632 0.81761 0.18585
 H1294 H 0.04554 0.81787 0.09536
 C1295 C 0.62047 0.28667 0.64384
 C1296 C 0.59451 0.28873 0.61839
 C1297 C 0.59027 0.26200 0.59375
 C1298 C 0.61244 0.23243 0.59503
 C1299 C 0.63886 0.23035 0.62090
 C1300 C 0.64308 0.25796 0.64520
 C1301 C 0.65947 0.20001 0.62224
 N1302 N 0.65433 0.17401 0.59875
 N1303 N 0.62978 0.17614 0.57424
 C1304 C 0.60858 0.20433 0.57165
 H1305 H 0.62322 0.30785 0.66242
 H1306 H 0.57755 0.31133 0.61786
 H1307 H 0.67918 0.19641 0.64205
 H1308 H 0.58876 0.20434 0.55155
 C1309 C 0.88076 0.26229 0.14755
 C1310 C 0.90763 0.26319 0.12304
 C1311 C 0.90611 0.24276 0.09273
 C1312 C 0.87640 0.22134 0.08690
 C1313 C 0.84781 0.22233 0.11060
 C1314 C 0.85050 0.24238 0.14186
 C1315 C 0.81797 0.20250 0.10224
 N1316 N 0.81756 0.18205 0.07334
 N1317 N 0.84498 0.17993 0.05210
 C1318 C 0.87443 0.19863 0.05801
 H1319 H 0.88328 0.27808 0.17090
 H1320 H 0.92990 0.28002 0.12779
 H1321 H 0.79508 0.20229 0.11842
 H1322 H 0.89603 0.19542 0.04011
 C1323 C 0.37169 0.78321 0.62905
 C1324 C 0.39671 0.78279 0.60261
 C1325 C 0.41346 0.75166 0.59319
 C1326 C 0.40564 0.72055 0.61170
 C1327 C 0.38161 0.72143 0.63987
 C1328 C 0.36394 0.75288 0.64790
 C1329 C 0.37542 0.69041 0.65851
 N1330 N 0.39175 0.66050 0.64898
 N1331 N 0.41375 0.65950 0.62203
 C1332 C 0.42111 0.68842 0.60297
 H1333 H 0.35834 0.80743 0.63499
 H1334 H 0.40267 0.80682 0.58890
 H1335 H 0.35739 0.68959 0.68019
 H1336 H 0.43904 0.68605 0.58125
 C1337 C 0.26739 0.14753 0.88984
 C1338 C 0.26741 0.12215 0.91586
 C1339 C 0.24553 0.09273 0.91378
 C1340 C 0.22152 0.09033 0.88552
 C1341 C 0.22203 0.11586 0.85854
 C1342 C 0.24570 0.14453 0.86053
 C1343 C 0.19765 0.11241 0.83126
 N1344 N 0.17427 0.08580 0.83129
 N1345 N 0.17315 0.06254 0.85702
 C1346 C 0.19561 0.06412 0.88428
 H1347 H 0.28521 0.16940 0.89226
 H1348 H 0.28566 0.12495 0.93732
 H1349 H 0.19609 0.13094 0.81033
 H1350 H 0.19262 0.04514 0.90494
 C1351 C 0.76870 0.64029 0.37829
 C1352 C 0.76905 0.61510 0.40448
 C1353 C 0.74377 0.58865 0.40546
 C1354 C 0.71726 0.58791 0.37966
 C1355 C 0.71753 0.61288 0.35228
 C1356 C 0.74360 0.63934 0.35168
 C1357 C 0.69097 0.61099 0.32702
 N1358 N 0.66596 0.58598 0.32922
 N1359 N 0.66545 0.56289 0.35517
 C1360 C 0.69009 0.56312 0.38056
 H1361 H 0.78865 0.66039 0.37842
 H1362 H 0.78936 0.61612 0.42416
 H1363 H 0.68947 0.62933 0.30581
 H1364 H 0.68808 0.54404 0.40127
 C1365 C 0.71832 0.13016 0.12629
 C1366 C 0.72052 0.10483 0.10027
 C1367 C 0.75275 0.08993 0.09145
 C1368 C 0.78343 0.10092 0.10884
 C1369 C 0.78124 0.12684 0.13510
 C1370 C 0.74832 0.14120 0.14397
 C1371 C 0.81235 0.13800 0.15119
 N1372 N 0.84335 0.12374 0.14167
 N1373 N 0.84532 0.09909 0.11721
 C1374 C 0.81643 0.08716 0.10051
 H1375 H 0.69307 0.14119 0.13273
 H1376 H 0.69693 0.09667 0.08693
 H1377 H 0.81232 0.15803 0.17111
 H1378 H 0.81954 0.06722 0.08074
 C1379 C 0.22743 0.62781 0.63909
 C1380 C 0.22635 0.60140 0.61415
 C1381 C 0.25137 0.59975 0.58751
 C1382 C 0.27817 0.62528 0.58611
 C1383 C 0.27879 0.65278 0.61099
 C1384 C 0.25311 0.65392 0.63784
 C1385 C 0.30586 0.67752 0.60865
 N1386 N 0.33042 0.67481 0.58325
 N1387 N 0.33002 0.64882 0.56019
 C1388 C 0.30490 0.62386 0.56087
 H1389 H 0.20774 0.62805 0.65945
 H1390 H 0.20584 0.58193 0.61568
 H1391 H 0.30814 0.69873 0.62690
 H1392 H 0.30620 0.60309 0.54180
 C1393 C 0.77681 0.88609 0.85573
 C1394 C 0.77707 0.91110 0.88217
 C1395 C 0.74966 0.91299 0.90637
 C1396 C 0.72098 0.88977 0.90335
 C1397 C 0.72074 0.86427 0.87650
 C1398 C 0.74926 0.86215 0.85292
 C1399 C 0.69137 0.84231 0.87365
 N1400 N 0.66452 0.84546 0.89658
 N1401 N 0.66492 0.86921 0.92197
 C1402 C 0.69214 0.89154 0.92608
 H1403 H 0.79866 0.88490 0.83779
 H1404 H 0.79899 0.92893 0.88404
 H1405 H 0.68917 0.82308 0.85314
 H1406 H 0.69082 0.91060 0.94687
 C1407 C 0.21910 0.37697 0.36919
 C1408 C 0.21800 0.40308 0.39443
 C1409 C 0.24484 0.40647 0.41901
 C1410 C 0.27334 0.38286 0.41827
 C1411 C 0.27415 0.35587 0.39292
 C1412 C 0.24674 0.35309 0.36821
 C1413 C 0.30313 0.33335 0.39242
 N1414 N 0.32930 0.33757 0.41590
 N1415 N 0.32856 0.36293 0.43967
 C1416 C 0.30162 0.38580 0.44157
 H1417 H 0.19811 0.37529 0.35028
 H1418 H 0.19621 0.42111 0.39458
 H1419 H 0.30550 0.31282 0.37329
 H1420 H 0.30271 0.40616 0.46109
 C1421 C 0.23129 0.88738 0.14530
 C1422 C 0.23267 0.91337 0.11987
 C1423 C 0.26005 0.91440 0.09555
 C1424 C 0.28714 0.88936 0.09757
 C1425 C 0.28572 0.86287 0.12338
 C1426 C 0.25710 0.86157 0.14693
 C1427 C 0.31359 0.83902 0.12523
 N1428 N 0.34053 0.84136 0.10231
 N1429 N 0.34164 0.86604 0.07785
 C1430 C 0.31595 0.89017 0.07475
 H1431 H 0.20944 0.88689 0.16329
 H1432 H 0.21191 0.93253 0.11871
 H1433 H 0.31456 0.81891 0.14496
 H1434 H 0.31846 0.90991 0.05471
 C1435 C 0.72794 0.38578 0.64168
 C1436 C 0.72869 0.41120 0.61571
 C1437 C 0.75666 0.41307 0.59215
 C1438 C 0.78478 0.38929 0.59522
 C1439 C 0.78390 0.36323 0.62147
 C1440 C 0.75491 0.36130 0.64448
 C1441 C 0.81263 0.34053 0.62430
 N1442 N 0.83999 0.34362 0.60196
 N1443 N 0.84068 0.36799 0.57718
 C1444 C 0.81411 0.39098 0.57311
 H1445 H 0.70582 0.38476 0.65932
 H1446 H 0.70713 0.42938 0.61370
 H1447 H 0.81391 0.32068 0.64428
 H1448 H 0.81630 0.41052 0.55283
 C1449 C 0.13264 0.13320 0.72628
 C1450 C 0.10716 0.10730 0.72564
 C1451 C 0.08916 0.09779 0.75619
 C1452 C 0.09683 0.11541 0.78797
 C1453 C 0.12154 0.14296 0.78811
 C1454 C 0.13994 0.15124 0.75712
 C1455 C 0.12781 0.16065 0.81968
 N1456 N 0.11116 0.15057 0.84928
 N1457 N 0.08876 0.12395 0.84944
 C1458 C 0.08122 0.10587 0.81994
 H1459 H 0.14655 0.13948 0.70242
 H1460 H 0.10154 0.09436 0.70109
 H1461 H 0.14635 0.18186 0.82120
 H1462 H 0.06310 0.08426 0.82172
 C1463 C 0.63103 0.62691 0.21546
 C1464 C 0.60524 0.60117 0.21487
 C1465 C 0.58630 0.59284 0.24513
 C1466 C 0.59291 0.61164 0.27636
 C1467 C 0.61754 0.63929 0.27630
 C1468 C 0.63739 0.64622 0.24583
 C1469 C 0.62202 0.65865 0.30716
 N1470 N 0.60380 0.65005 0.33632
 N1471 N 0.58146 0.62338 0.33670
 C1472 C 0.57556 0.60375 0.30782
 H1473 H 0.64593 0.63207 0.19193
 H1474 H 0.60040 0.58712 0.19079
 H1475 H 0.64025 0.68010 0.30848
 H1476 H 0.55725 0.58230 0.30968
 C1477 C 0.14135 0.88470 0.22755
 C1478 C 0.11521 0.90999 0.22742
 C1479 C 0.09122 0.91220 0.25499
 C1480 C 0.09420 0.88909 0.28373
 C1481 C 0.12064 0.86325 0.28374
 C1482 C 0.14390 0.86074 0.25504
 C1483 C 0.12343 0.84128 0.31304
 N1484 N 0.10085 0.84479 0.34013
 N1485 N 0.07588 0.86894 0.34002
 C1486 C 0.07186 0.89129 0.31287
 H1487 H 0.15910 0.88316 0.20556
 H1488 H 0.11334 0.92770 0.20545
 H1489 H 0.14368 0.82181 0.31498
 H1490 H 0.05147 0.91072 0.31453
 C1491 C 0.63953 0.38429 0.72398
 C1492 C 0.61399 0.41019 0.72366
 C1493 C 0.59322 0.41625 0.75317
 C1494 C 0.59868 0.39633 0.78382
 C1495 C 0.62471 0.37010 0.78418
 C1496 C 0.64484 0.36380 0.75377
 C1497 C 0.63019 0.35151 0.81535
 N1498 N 0.61036 0.35844 0.84390
 N1499 N 0.58562 0.38284 0.84343
 C1500 C 0.57915 0.40207 0.81443
 H1501 H 0.65491 0.37983 0.70064
 H1502 H 0.61008 0.42538 0.70012
 H1503 H 0.65032 0.33193 0.81746
 H1504 H 0.55900 0.42181 0.81566
 C1505 C 0.87692 0.13959 0.27200
 C1506 C 0.90373 0.11519 0.27367
 C1507 C 0.90214 0.08416 0.25441
 C1508 C 0.87186 0.07704 0.23417
 C1509 C 0.84320 0.10070 0.23458
 C1510 C 0.84651 0.13320 0.25255
 C1511 C 0.81283 0.09103 0.21614
 N1512 N 0.81206 0.06108 0.19729
 N1513 N 0.83956 0.03998 0.19547
 C1514 C 0.86946 0.04707 0.21296
 H1515 H 0.87985 0.16370 0.28653
 H1516 H 0.92633 0.12088 0.28972
 H1517 H 0.78976 0.10692 0.21555
 H1518 H 0.89105 0.02920 0.20994
 C1519 C 0.37967 0.64433 0.77348
 C1520 C 0.40604 0.61937 0.77390
 C1521 C 0.40790 0.59371 0.74795
 C1522 C 0.38245 0.59313 0.72104
 C1523 C 0.35526 0.61831 0.72082
 C1524 C 0.35395 0.64411 0.74745
 C1525 C 0.33115 0.61749 0.69309
 N1526 N 0.33395 0.59288 0.66778
 N1527 N 0.35934 0.56918 0.66813
 C1528 C 0.38374 0.56854 0.69376
 H1529 H 0.37921 0.66394 0.79388
 H1530 H 0.42530 0.62010 0.79461
 H1531 H 0.31060 0.63651 0.69075
 H1532 H 0.40406 0.54901 0.69237
 C1533 C 0.86368 0.88486 0.77242
 C1534 C 0.88971 0.91022 0.77339
 C1535 C 0.91395 0.91313 0.74613
 C1536 C 0.91181 0.89023 0.71720
 C1537 C 0.88523 0.86449 0.71616
 C1538 C 0.86140 0.86154 0.74436
 C1539 C 0.88271 0.84336 0.68624
 N1540 N 0.90595 0.84723 0.65975
 N1541 N 0.93131 0.87103 0.66102
 C1542 C 0.93496 0.89276 0.68874
 H1543 H 0.84550 0.88300 0.79403
 H1544 H 0.89097 0.92781 0.79552
 H1545 H 0.86208 0.82439 0.68328
 H1546 H 0.95572 0.91193 0.68812
 C1547 C 0.37954 0.35651 0.23637
 C1548 C 0.40552 0.38193 0.23474
 C1549 C 0.40749 0.40826 0.26002
 C1550 C 0.38331 0.40836 0.28811
 C1551 C 0.35665 0.38262 0.28963
 C1552 C 0.35449 0.35689 0.26308
 C1553 C 0.33359 0.38305 0.31824
 N1554 N 0.33686 0.40792 0.34326
 N1555 N 0.36174 0.43221 0.34170
 C1556 C 0.38512 0.43324 0.31507
 H1557 H 0.37843 0.33684 0.21605
 H1558 H 0.42395 0.38146 0.21324
 H1559 H 0.31335 0.36364 0.32124
 H1560 H 0.40505 0.45327 0.31539
   
