data_POSCAR
  _audit_creation_date              2014-09-24
  _audit_creation_method            'ToBaCCo'
  _symmetry_space_group_name_H-M    'P1'
  _symmetry_Int_Tables_number       1
  _symmetry_cell_setting            triclinic
  loop_
  _symmetry_equiv_pos_as_xyz
 x,y,z
_cell_length_a 61.4323
_cell_length_b 61.5757
_cell_length_c 61.3111
_cell_angle_alpha 89.993800
_cell_angle_beta 90.035300
_cell_angle_gamma 90.045900
loop_
  _atom_site_label
  _atom_site_type_symbol
  _atom_site_fract_x
  _atom_site_fract_y
  _atom_site_fract_z
O1 O 0.31553 0.34115 0.02288
 O2 O 0.34102 0.31032 -0.02145
 O3 O 0.31288 0.34188 -0.01928
 O4 O 0.34348 0.30965 0.02061
 O5 O 0.31685 0.28563 0.02192
 O6 O 0.28596 0.31824 -0.01826
 O7 O 0.31444 0.28624 -0.02029
 O8 O 0.28857 0.31750 0.02415
 Cu9 Cu 0.33085 0.32813 0.00053
 Cu10 Cu 0.29872 0.29953 0.00195
 C11 C 0.29763 0.33477 0.03102
 C12 C 0.33243 0.29279 -0.02817
 C13 C 0.29406 0.33587 -0.02545
 C14 C 0.33561 0.29201 0.02792
 O15 O 0.68083 0.65141 0.02376
 O16 O 0.65507 0.68081 -0.02136
 O17 O 0.68508 0.65111 -0.01829
 O18 O 0.65135 0.68118 0.02078
 O19 O 0.67660 0.70655 0.02321
 O20 O 0.71042 0.67637 -0.01627
 O21 O 0.68008 0.70643 -0.01913
 O22 O 0.70635 0.67654 0.02599
 Cu23 Cu 0.66557 0.66361 0.00092
 Cu24 Cu 0.69592 0.69404 0.00357
 C25 C 0.69797 0.65885 0.03261
 C26 C 0.66288 0.69880 -0.02778
 C27 C 0.70366 0.65834 -0.02380
 C28 C 0.65818 0.69895 0.02878
 O29 O 0.65230 0.31991 1.01775
 O30 O 0.67982 0.34819 0.97296
 O31 O 0.64961 0.31906 0.97549
 O32 O 0.68305 0.34882 1.01505
 O33 O 0.70784 0.32300 1.01398
 O34 O 0.67429 0.29310 0.97404
 O35 O 0.70482 0.32252 0.97167
 O36 O 0.67677 0.29375 1.01655
 Cu37 Cu 0.66372 0.33655 0.99550
 Cu38 Cu 0.69340 0.30545 0.99400
 C39 C 0.65962 0.30194 1.02473
 C40 C 0.69704 0.34035 0.96469
 C41 C 0.65621 0.30104 0.96789
 C42 C 0.70131 0.34125 1.02114
 O43 O 0.33987 0.69068 1.02574
 O44 O 0.31453 0.66046 0.98084
 O45 O 0.34281 0.69167 0.98374
 O46 O 0.31100 0.65966 1.02294
 O47 O 0.28461 0.68382 1.02160
 O48 O 0.31651 0.71597 0.98201
 O49 O 0.28794 0.68445 0.97926
 O50 O 0.31383 0.71527 1.02414
 Cu51 Cu 0.32963 0.67319 1.00353
 Cu52 Cu 0.29802 0.70228 1.00168
 C53 C 0.33160 0.70842 1.03226
 C54 C 0.29686 0.66711 0.97243
 C55 C 0.33528 0.70941 0.97633
 C56 C 0.29219 0.66597 1.02876
 O57 O 0.02116 0.31077 0.34209
 O58 O -0.01991 0.34300 0.31296
 O59 O -0.02078 0.31396 0.34340
 O60 O 0.02224 0.34092 0.31225
 O61 O 0.01993 0.31597 0.28654
 O62 O -0.02306 0.28822 0.31853
 O63 O -0.02237 0.31753 0.28778
 O64 O 0.01915 0.28541 0.31677
 Cu65 Cu 0.00099 0.32969 0.33016
 Cu66 Cu -0.00171 0.29921 0.29985
 C67 C 0.02691 0.29239 0.33465
 C68 C -0.02821 0.33579 0.29540
 C69 C -0.02928 0.29644 0.33654
 C70 C 0.02822 0.33342 0.29394
 O71 O 0.02303 0.69160 0.66138
 O72 O -0.01974 0.66017 0.68877
 O73 O -0.01889 0.69032 0.65925
 O74 O 0.02239 0.66106 0.69077
 O75 O 0.02059 0.68565 0.71685
 O76 O -0.02088 0.71546 0.68475
 O77 O -0.02175 0.68498 0.71463
 O78 O 0.02124 0.71663 0.68706
 Cu79 Cu 0.00193 0.67329 0.67253
 Cu80 Cu -0.00033 0.70316 0.70347
 C81 C 0.02913 0.70971 0.66920
 C82 C -0.02801 0.66707 0.70644
 C83 C -0.02680 0.70804 0.66630
 C84 C 0.02839 0.66806 0.70930
 O85 O 1.02126 0.65209 0.31664
 O86 O 0.97686 0.68032 0.34457
 O87 O 0.97925 0.65175 0.31335
 O88 O 1.01906 0.68155 0.34667
 O89 O 1.02036 0.70739 0.32184
 O90 O 0.98012 0.67780 0.28868
 O91 O 0.97796 0.70666 0.32023
 O92 O 1.02235 0.67768 0.29148
 Cu93 Cu 0.99894 0.66387 0.33278
 Cu94 Cu 1.00025 0.69502 0.30308
 C95 C 1.02934 0.65984 0.29926
 C96 C 0.96993 0.69839 0.33747
 C97 C 0.97308 0.65952 0.29518
 C98 C 1.02660 0.69960 0.33999
 O99 O 0.98121 0.31466 0.65731
 O100 O 1.02398 0.34525 0.68559
 O101 O 1.02337 0.31530 0.65597
 O102 O 0.98190 0.34434 0.68769
 O103 O 0.98325 0.31903 0.71310
 O104 O 1.02499 0.28994 0.68127
 O105 O 1.02555 0.32015 0.71121
 O106 O 0.98268 0.28900 0.68236
 Cu107 Cu 1.00239 0.33239 0.66912
 Cu108 Cu 1.00418 0.30197 0.69955
 C109 C 0.97485 0.29646 0.66467
 C110 C 1.03206 0.33809 0.70324
 C111 C 1.03128 0.29759 0.66307
 C112 C 0.97574 0.33691 0.70600
 O113 O 0.34827 0.02157 0.31857
 O114 O 0.31385 -0.01823 0.34697
 O115 O 0.34601 -0.02054 0.31945
 O116 O 0.31674 0.02371 0.34649
 O117 O 0.29284 0.02462 0.31962
 O118 O 0.32279 -0.01957 0.29203
 O119 O 0.29030 -0.01746 0.31982
 O120 O 0.32471 0.02277 0.29144
 Cu121 Cu 0.33358 0.00148 0.33555
 Cu122 Cu 0.30532 0.00264 0.30295
 C123 C 0.34239 0.02905 0.30018
 C124 C 0.29605 -0.02445 0.33846
 C125 C 0.33964 -0.02751 0.30105
 C126 C 0.29969 0.03162 0.33789
 O127 O 0.65494 0.02076 0.68635
 O128 O 0.68415 -0.02062 0.65485
 O129 O 0.65609 -0.02114 0.68655
 O130 O 0.68335 0.02158 0.65495
 O131 O 0.71012 0.02234 0.67892
 O132 O 0.68267 -0.02057 0.71075
 O133 O 0.71101 -0.02010 0.67871
 O134 O 0.68141 0.02143 0.71067
 Cu135 Cu 0.66703 0.00008 0.66823
 Cu136 Cu 0.69906 0.00085 0.69712
 C137 C 0.66288 0.02791 0.70407
 C138 C 0.70257 -0.02744 0.66125
 C139 C 0.66445 -0.02791 0.70423
 C140 C 0.70142 0.02924 0.66143
 O141 O 0.31179 1.01507 0.65355
 O142 O 0.34633 0.97622 0.68299
 O143 O 0.31550 0.97324 0.65446
 O144 O 0.34324 1.01830 0.68176
 O145 O 0.31951 1.01700 0.70871
 O146 O 0.29102 0.97204 0.68076
 O147 O 0.32221 0.97465 0.70958
 O148 O 0.28770 1.01404 0.68020
 Cu149 Cu 0.33165 0.99590 0.66558
 Cu150 Cu 0.30272 0.99436 0.69756
 C151 C 0.29371 1.02100 0.66164
 C152 C 0.34016 0.96863 0.70123
 C153 C 0.29843 0.96504 0.66272
 C154 C 0.33633 1.02529 0.69995
 O155 O 0.69509 1.02101 0.33837
 O156 O 0.66459 0.97993 0.30759
 O157 O 0.69467 0.97910 0.33755
 O158 O 0.66538 1.02194 0.30803
 O159 O 0.69073 1.02209 0.28258
 O160 O 0.72024 0.97903 0.31231
 O161 O 0.68980 0.97993 0.28200
 O162 O 0.72078 1.02109 0.31331
 Cu163 Cu 0.67740 1.00049 0.32538
 Cu164 Cu 0.70794 1.00055 0.29498
 C165 C 0.71338 1.02779 0.33150
 C166 C 0.67169 0.97312 0.28940
 C167 C 0.71266 0.97201 0.33027
 C168 C 0.67279 1.02912 0.29009
 C169 C 0.87125 0.78795 0.50017
 C170 C 0.86226 0.79470 0.48031
 C171 C 0.84754 0.81211 0.48016
 C172 C 0.84255 0.82365 0.49947
 C173 C 0.85249 0.81688 0.51913
 C174 C 0.86624 0.79868 0.51967
 C175 C 0.82689 0.84239 0.49910
 C176 C 0.81530 0.84857 0.51804
 C177 C 0.80054 0.86596 0.51765
 C178 C 0.79670 0.87686 0.49797
 C179 C 0.80763 0.87088 0.47886
 C180 C 0.82303 0.85409 0.47965
 H181 H 0.88274 0.77460 0.50042
 H182 H 0.83979 0.81620 0.46488
 H183 H 0.84953 0.82547 0.53420
 H184 H 0.81712 0.83963 0.53310
 H185 H 0.78498 0.88998 0.49748
 H186 H 0.83207 0.85050 0.46497
 C187 C 0.11709 0.19838 0.49946
 C188 C 0.12324 0.18820 0.48003
 C189 C 0.13940 0.17213 0.48057
 C190 C 0.15031 0.16686 0.50018
 C191 C 0.14424 0.17798 0.51940
 C192 C 0.12720 0.19315 0.51923
 C193 C 0.16751 0.14955 0.50062
 C194 C 0.17225 0.13803 0.52000
 C195 C 0.18800 0.12153 0.52029
 C196 C 0.19845 0.11580 0.50085
 C197 C 0.19385 0.12667 0.48135
 C198 C 0.17901 0.14395 0.48147
 H199 H 0.10468 0.21088 0.49915
 H200 H 0.14291 0.16356 0.46560
 H201 H 0.15241 0.17481 0.53468
 H202 H 0.16350 0.14132 0.53492
 H203 H 0.21069 0.10312 0.50097
 H204 H 0.17634 0.15267 0.46642
 C205 C 0.11626 0.80042 0.50207
 C206 C 0.12327 0.81080 0.52112
 C207 C 0.13984 0.82641 0.51978
 C208 C 0.15040 0.83092 0.49980
 C209 C 0.14340 0.81969 0.48097
 C210 C 0.12594 0.80501 0.48192
 C211 C 0.16831 0.84749 0.49867
 C212 C 0.17311 0.85860 0.47904
 C213 C 0.18940 0.87460 0.47832
 C214 C 0.20045 0.88014 0.49750
 C215 C 0.19588 0.86959 0.51718
 C216 C 0.18045 0.85283 0.51749
 H217 H 0.10355 0.78824 0.50298
 H218 H 0.14400 0.83518 0.53446
 H219 H 0.15122 0.82236 0.46541
 H220 H 0.16396 0.85542 0.46432
 H221 H 0.21305 0.89247 0.49705
 H222 H 0.17780 0.84435 0.53268
 C223 C 0.87169 0.21185 0.50061
 C224 C 0.86653 0.20139 0.52023
 C225 C 0.85274 0.18317 0.51982
 C226 C 0.84295 0.17616 0.50013
 C227 C 0.84805 0.18747 0.48075
 C228 C 0.86279 0.20486 0.48079
 C229 C 0.82719 0.15748 0.49974
 C230 C 0.82361 0.14547 0.48039
 C231 C 0.80800 0.12883 0.47955
 C232 C 0.79655 0.12338 0.49852
 C233 C 0.80011 0.13461 0.51807
 C234 C 0.81514 0.15179 0.51850
 H235 H 0.88320 0.22520 0.50073
 H236 H 0.84960 0.17476 0.53497
 H237 H 0.84035 0.18322 0.46549
 H238 H 0.83300 0.14872 0.46585
 H239 H 0.78465 0.11040 0.49804
 H240 H 0.81679 0.16099 0.53343
 C241 C 0.50304 0.87401 0.79447
 C242 C 0.48356 0.86346 0.79976
 C243 C 0.48339 0.84817 0.81673
 C244 C 0.50235 0.84392 0.82907
 C245 C 0.52167 0.85511 0.82358
 C246 C 0.52218 0.86984 0.80614
 C247 C 0.50192 0.82816 0.84773
 C248 C 0.52108 0.81745 0.85454
 C249 C 0.52098 0.80358 0.87270
 C250 C 0.50130 0.79929 0.88337
 C251 C 0.48189 0.80908 0.87653
 C252 C 0.48239 0.82383 0.85909
 H253 H 0.50330 0.88568 0.78124
 H254 H 0.46843 0.83949 0.81993
 H255 H 0.53635 0.85297 0.83307
 H256 H 0.53626 0.81992 0.84599
 H257 H 0.50101 0.78773 0.89669
 H258 H 0.46748 0.83212 0.85482
 C259 C 0.50599 0.12490 0.20630
 C260 C 0.48615 0.13516 0.20181
 C261 C 0.48537 0.15136 0.18572
 C262 C 0.50409 0.15696 0.17359
 C263 C 0.52379 0.14609 0.17828
 C264 C 0.52490 0.13035 0.19479
 C265 C 0.50309 0.17402 0.15618
 C266 C 0.52179 0.18615 0.15056
 C267 C 0.52108 0.20187 0.13400
 C268 C 0.50133 0.20601 0.12338
 C269 C 0.48242 0.19451 0.12885
 C270 C 0.48346 0.17836 0.14498
 H271 H 0.50672 0.11255 0.21887
 H272 H 0.47016 0.15980 0.18312
 H273 H 0.53831 0.14939 0.16888
 H274 H 0.53693 0.18385 0.15927
 H275 H 0.50065 0.21831 0.11076
 H276 H 0.46895 0.16899 0.14834
 C277 C 0.49750 0.12294 0.79165
 C278 C 0.51662 0.12835 0.80288
 C279 C 0.51584 0.14426 0.81927
 C280 C 0.49628 0.15532 0.82406
 C281 C 0.47740 0.14982 0.81216
 C282 C 0.47782 0.13343 0.79628
 C283 C 0.49551 0.17254 0.84130
 C284 C 0.47597 0.17712 0.85255
 C285 C 0.47507 0.19356 0.86836
 C286 C 0.49404 0.20509 0.87352
 C287 C 0.51371 0.20068 0.86287
 C288 C 0.51428 0.18468 0.84661
 H289 H 0.49794 0.11047 0.77920
 H290 H 0.53050 0.14756 0.82846
 H291 H 0.46232 0.15847 0.81478
 H292 H 0.46141 0.16773 0.84945
 H293 H 0.49349 0.21763 0.88590
 H294 H 0.52936 0.18216 0.83787
 C295 C 0.50292 0.87795 0.20708
 C296 C 0.52175 0.87243 0.19544
 C297 C 0.52051 0.85642 0.17917
 C298 C 0.50079 0.84535 0.17490
 C299 C 0.48226 0.85094 0.18726
 C300 C 0.48310 0.86745 0.20300
 C301 C 0.49949 0.82806 0.15772
 C302 C 0.47958 0.82339 0.14712
 C303 C 0.47814 0.80686 0.13142
 C304 C 0.49694 0.79537 0.12568
 C305 C 0.51697 0.79988 0.13563
 C306 C 0.51808 0.81596 0.15181
 H307 H 0.50371 0.89051 0.21943
 H308 H 0.53493 0.85305 0.16964
 H309 H 0.46710 0.84226 0.18510
 H310 H 0.46512 0.83276 0.15063
 H311 H 0.49597 0.78277 0.11338
 H312 H 0.53345 0.81855 0.16003
 C313 C 0.79239 0.49961 0.87297
 C314 C 0.79748 0.48077 0.86127
 C315 C 0.81465 0.48122 0.84622
 C316 C 0.82739 0.50010 0.84333
 C317 C 0.82208 0.51879 0.85559
 C318 C 0.80447 0.51871 0.87016
 C319 C 0.84630 0.50015 0.82788
 C320 C 0.85350 0.51962 0.81807
 C321 C 0.87176 0.51983 0.80433
 C322 C 0.88221 0.50024 0.79936
 C323 C 0.87504 0.48059 0.80833
 C324 C 0.85746 0.48072 0.82293
 H325 H 0.77902 0.49938 0.88448
 H326 H 0.81773 0.46680 0.83665
 H327 H 0.83185 0.53335 0.85441
 H328 H 0.84513 0.53475 0.82111
 H329 H 0.89562 0.50024 0.78789
 H330 H 0.85289 0.46558 0.83060
 C331 C 0.20643 0.49988 0.12374
 C332 C 0.20240 0.48053 0.13506
 C333 C 0.18712 0.48046 0.15206
 C334 C 0.17517 0.49932 0.15738
 C335 C 0.17929 0.51848 0.14535
 C336 C 0.19518 0.51897 0.12891
 C337 C 0.15888 0.49911 0.17564
 C338 C 0.15364 0.51841 0.18694
 C339 C 0.13855 0.51835 0.20410
 C340 C 0.12932 0.49863 0.21077
 C341 C 0.13454 0.47914 0.20022
 C342 C 0.14872 0.47958 0.18227
 H343 H 0.21852 0.50010 0.11089
 H344 H 0.18513 0.46569 0.16138
 H345 H 0.17006 0.53310 0.14839
 H346 H 0.16153 0.53358 0.18290
 H347 H 0.11757 0.49849 0.22394
 H348 H 0.15192 0.46453 0.17381
 C349 C 0.78911 0.49893 0.12655
 C350 C 0.79427 0.51774 0.13830
 C351 C 0.81162 0.51727 0.15316
 C352 C 0.82450 0.49847 0.15572
 C353 C 0.81910 0.47982 0.14345
 C354 C 0.80131 0.47990 0.12910
 C355 C 0.84375 0.49853 0.17071
 C356 C 0.85120 0.47912 0.18043
 C357 C 0.86982 0.47904 0.19369
 C358 C 0.88039 0.49866 0.19828
 C359 C 0.87295 0.51824 0.18942
 C360 C 0.85500 0.51801 0.17529
 H361 H 0.77564 0.49917 0.11513
 H362 H 0.81480 0.53165 0.16277
 H363 H 0.82899 0.46533 0.14441
 H364 H 0.84275 0.46396 0.17768
 H365 H 0.89409 0.49875 0.20942
 H366 H 0.85018 0.53312 0.16770
 C367 C 0.21236 0.50234 0.87365
 C368 C 0.20599 0.52181 0.86378
 C369 C 0.18931 0.52149 0.84813
 C370 C 0.17811 0.50207 0.84297
 C371 C 0.18444 0.48280 0.85386
 C372 C 0.20201 0.48272 0.86853
 C373 C 0.16053 0.50184 0.82582
 C374 C 0.15509 0.48244 0.81469
 C375 C 0.13915 0.48221 0.79829
 C376 C 0.12918 0.50171 0.79218
 C377 C 0.13452 0.52128 0.80250
 C378 C 0.14952 0.52112 0.81979
 H379 H 0.22520 0.50247 0.88577
 H380 H 0.18569 0.53649 0.83974
 H381 H 0.17613 0.46764 0.85085
 H382 H 0.16352 0.46743 0.81811
 H383 H 0.11686 0.50164 0.77952
 H384 H 0.15272 0.53626 0.82809
 C385 C 0.26592 0.37580 0.07778
 C386 C 0.25521 0.35734 0.06985
 C387 C 0.26575 0.34347 0.05516
 C388 C 0.28708 0.34804 0.04815
 C389 C 0.29789 0.36629 0.05675
 C390 C 0.28737 0.38004 0.07144
 C391 C 0.25457 0.39146 0.09096
 C392 C 0.24548 0.40555 0.10112
 C393 C 0.23514 0.42341 0.11212
 C394 C 0.21306 0.42240 0.11771
 C395 C 0.20256 0.44077 0.12607
 C396 C 0.21402 0.46038 0.12874
 C397 C 0.23637 0.46098 0.12383
 C398 C 0.24683 0.44262 0.11556
 H399 H 0.23854 0.35399 0.07454
 H400 H 0.25698 0.32958 0.04880
 H401 H 0.31433 0.37024 0.05175
 H402 H 0.29578 0.39435 0.07739
 H403 H 0.20382 0.40765 0.11497
 H404 H 0.18530 0.43991 0.12955
 H405 H 0.24565 0.47578 0.12599
 H406 H 0.26390 0.44360 0.11124
 C407 C 0.72906 0.62077 0.08221
 C408 C 0.73930 0.63950 0.07430
 C409 C 0.72896 0.65235 0.05857
 C410 C 0.70834 0.64645 0.05048
 C411 C 0.69798 0.62793 0.05902
 C412 C 0.70829 0.61520 0.07475
 C413 C 0.74044 0.60602 0.09636
 C414 C 0.74968 0.59253 0.10715
 C415 C 0.76037 0.57516 0.11855
 C416 C 0.78283 0.57595 0.12231
 C417 C 0.79374 0.55756 0.13002
 C418 C 0.78229 0.53814 0.13385
 C419 C 0.75957 0.53786 0.13110
 C420 C 0.74870 0.55626 0.12348
 H421 H 0.75548 0.64384 0.07984
 H422 H 0.73735 0.66651 0.05230
 H423 H 0.68207 0.62299 0.05322
 H424 H 0.70029 0.60065 0.08066
 H425 H 0.79205 0.59043 0.11835
 H426 H 0.81128 0.55815 0.13179
 H427 H 0.75034 0.52318 0.13415
 H428 H 0.73133 0.55544 0.12052
 C429 C 0.73052 0.37793 0.91624
 C430 C 0.70944 0.38357 0.92266
 C431 C 0.69836 0.37097 0.93797
 C432 C 0.70822 0.35248 0.94712
 C433 C 0.72917 0.34647 0.94005
 C434 C 0.74029 0.35921 0.92475
 C435 C 0.74257 0.39258 0.90255
 C436 C 0.75221 0.40606 0.89207
 C437 C 0.76318 0.42347 0.88094
 C438 C 0.75166 0.44242 0.87594
 C439 C 0.76268 0.46077 0.86840
 C440 C 0.78541 0.46041 0.86579
 C441 C 0.79674 0.44095 0.86973
 C442 C 0.78567 0.42260 0.87737
 H443 H 0.70178 0.39810 0.91630
 H444 H 0.68223 0.37600 0.94297
 H445 H 0.73719 0.33234 0.94682
 H446 H 0.75669 0.35480 0.92002
 H447 H 0.73427 0.44330 0.87874
 H448 H 0.75354 0.47549 0.86527
 H449 H 0.81427 0.44030 0.86805
 H450 H 0.79477 0.40807 0.88138
 C451 C 0.26569 0.62685 0.92449
 C452 C 0.28699 0.62243 0.93120
 C453 C 0.29731 0.63591 0.94632
 C454 C 0.28646 0.65407 0.95499
 C455 C 0.26527 0.65882 0.94766
 C456 C 0.25492 0.64521 0.93254
 C457 C 0.25460 0.61149 0.91069
 C458 C 0.24586 0.59759 0.89993
 C459 C 0.23609 0.57984 0.88817
 C460 C 0.24888 0.56192 0.88248
 C461 C 0.23921 0.54338 0.87362
 C462 C 0.21656 0.54248 0.87037
 C463 C 0.20393 0.56091 0.87522
 C464 C 0.21365 0.57946 0.88417
 H465 H 0.29545 0.60821 0.92517
 H466 H 0.31364 0.63182 0.95155
 H467 H 0.25647 0.67265 0.95406
 H468 H 0.23837 0.64871 0.92756
 H469 H 0.26625 0.56201 0.88554
 H470 H 0.24936 0.52952 0.86979
 H471 H 0.18644 0.56058 0.87306
 H472 H 0.20357 0.59318 0.88866
 C473 C 0.06688 0.25152 0.37468
 C474 C 0.06382 0.27335 0.38019
 C475 C 0.05151 0.28687 0.36671
 C476 C 0.04205 0.27873 0.34748
 C477 C 0.04589 0.25695 0.34163
 C478 C 0.05818 0.24341 0.35522
 C479 C 0.07750 0.23732 0.38999
 C480 C 0.08572 0.22613 0.40386
 C481 C 0.09481 0.21383 0.42160
 C482 C 0.08157 0.20838 0.43934
 C483 C 0.09066 0.19906 0.45799
 C484 C 0.11317 0.19508 0.45916
 C485 C 0.12622 0.19964 0.44087
 C486 C 0.11709 0.20907 0.42222
 H487 H 0.07042 0.27978 0.39526
 H488 H 0.04890 0.30354 0.37167
 H489 H 0.03877 0.25018 0.32696
 H490 H 0.06037 0.22650 0.35085
 H491 H 0.06432 0.21204 0.43906
 H492 H 0.08021 0.19549 0.47175
 H493 H 0.14363 0.19692 0.44142
 H494 H 0.12751 0.21335 0.40863
 C495 C 0.06958 0.75015 0.62929
 C496 C 0.06027 0.75863 0.64831
 C497 C 0.04797 0.74521 0.66203
 C498 C 0.04469 0.72320 0.65672
 C499 C 0.05487 0.71469 0.63804
 C500 C 0.06721 0.72808 0.62446
 C501 C 0.07986 0.76416 0.61359
 C502 C 0.08775 0.77506 0.59930
 C503 C 0.09640 0.78692 0.58103
 C504 C 0.11872 0.79130 0.57956
 C505 C 0.12736 0.80015 0.56040
 C506 C 0.11377 0.80451 0.54244
 C507 C 0.09126 0.80092 0.54444
 C508 C 0.08266 0.79217 0.56360
 H509 H 0.06191 0.77573 0.65215
 H510 H 0.04027 0.75226 0.67624
 H511 H 0.05272 0.69782 0.63352
 H512 H 0.07427 0.72136 0.60974
 H513 H 0.12953 0.78714 0.59289
 H514 H 0.14479 0.80256 0.55923
 H515 H 0.08039 0.80435 0.53096
 H516 H 0.06537 0.78878 0.56453
 C517 C 0.92295 0.73260 0.37630
 C518 C 0.92767 0.71080 0.38058
 C519 C 0.94245 0.69956 0.36751
 C520 C 0.95280 0.70995 0.34989
 C521 C 0.94746 0.73170 0.34523
 C522 C 0.93267 0.74298 0.35845
 C523 C 0.90944 0.74443 0.39138
 C524 C 0.89882 0.75363 0.40510
 C525 C 0.88708 0.76382 0.42267
 C526 C 0.88043 0.75127 0.44050
 C527 C 0.87146 0.76121 0.45889
 C528 C 0.86903 0.78391 0.45973
 C529 C 0.87487 0.79634 0.44137
 C530 C 0.88393 0.78634 0.42298
 H531 H 0.92034 0.70262 0.39439
 H532 H 0.94611 0.68282 0.37151
 H533 H 0.95519 0.74016 0.33183
 H534 H 0.92924 0.75990 0.35506
 H535 H 0.88282 0.73383 0.44048
 H536 H 0.86687 0.75121 0.47268
 H537 H 0.87337 0.81386 0.44164
 H538 H 0.88915 0.79624 0.40934
 C539 C 0.93101 0.25897 0.62502
 C540 C 0.93483 0.28088 0.62039
 C541 C 0.94855 0.29317 0.63370
 C542 C 0.95872 0.28375 0.65196
 C543 C 0.95431 0.26185 0.65693
 C544 C 0.94058 0.24951 0.64347
 C545 C 0.91817 0.24632 0.60996
 C546 C 0.90773 0.23696 0.59617
 C547 C 0.89568 0.22738 0.57841
 C548 C 0.88536 0.24108 0.56343
 C549 C 0.87539 0.23247 0.54490
 C550 C 0.87556 0.20996 0.54100
 C551 C 0.88529 0.19616 0.55648
 C552 C 0.89541 0.20486 0.57506
 H553 H 0.92755 0.28839 0.60616
 H554 H 0.95153 0.30998 0.62941
 H555 H 0.96196 0.25411 0.67081
 H556 H 0.93779 0.23254 0.64719
 H557 H 0.88548 0.25852 0.56581
 H558 H 0.86777 0.24345 0.53341
 H559 H 0.88576 0.17878 0.55380
 H560 H 0.90346 0.19410 0.58648
 C561 C 0.38433 0.07394 0.26683
 C562 C 0.36509 0.06686 0.25684
 C563 C 0.35120 0.05249 0.26779
 C564 C 0.35647 0.04499 0.28883
 C565 C 0.37568 0.05249 0.29881
 C566 C 0.38949 0.06685 0.28787
 C567 C 0.39950 0.08750 0.25522
 C568 C 0.41305 0.09819 0.24589
 C569 C 0.43023 0.11001 0.23522
 C570 C 0.42898 0.11477 0.21292
 C571 C 0.44686 0.12395 0.20218
 C572 C 0.46623 0.12829 0.21363
 C573 C 0.46699 0.12427 0.23620
 C574 C 0.44912 0.11517 0.24689
 H575 H 0.36100 0.07216 0.24050
 H576 H 0.33653 0.04702 0.25966
 H577 H 0.38021 0.04708 0.31500
 H578 H 0.40439 0.07214 0.29571
 H579 H 0.41448 0.11072 0.20370
 H580 H 0.44591 0.12672 0.18476
 H581 H 0.48161 0.12770 0.24546
 H582 H 0.45028 0.11154 0.26415
 C583 C 0.62248 0.06869 0.74382
 C584 C 0.61691 0.06458 0.72209
 C585 C 0.63049 0.05197 0.70897
 C586 C 0.64991 0.04325 0.71738
 C587 C 0.65582 0.04809 0.73904
 C588 C 0.64211 0.06069 0.75221
 C589 C 0.60712 0.07981 0.75759
 C590 C 0.59311 0.08850 0.76825
 C591 C 0.57514 0.09816 0.77978
 C592 C 0.55673 0.08554 0.78430
 C593 C 0.53800 0.09520 0.79278
 C594 C 0.53741 0.11767 0.79685
 C595 C 0.55630 0.13009 0.79324
 C596 C 0.57505 0.12038 0.78464
 H597 H 0.60174 0.07063 0.71543
 H598 H 0.62548 0.04861 0.69237
 H599 H 0.67062 0.04155 0.74601
 H600 H 0.64654 0.06369 0.76905
 H601 H 0.55659 0.06834 0.78056
 H602 H 0.52377 0.08521 0.79565
 H603 H 0.55622 0.14745 0.79605
 H604 H 0.58915 0.13034 0.78106
 C605 C 0.38148 0.92348 0.73493
 C606 C 0.38709 0.93092 0.71412
 C607 C 0.37353 0.94544 0.70311
 C608 C 0.35411 0.95276 0.71278
 C609 C 0.34842 0.94496 0.73360
 C610 C 0.36207 0.93044 0.74462
 C611 C 0.39638 0.90971 0.74659
 C612 C 0.40979 0.89887 0.75593
 C613 C 0.42692 0.88698 0.76657
 C614 C 0.44542 0.88111 0.75467
 C615 C 0.46349 0.87235 0.76532
 C616 C 0.46329 0.86940 0.78806
 C617 C 0.44423 0.87430 0.79977
 C618 C 0.42616 0.88315 0.78907
 H619 H 0.40213 0.92574 0.70652
 H620 H 0.37838 0.95107 0.68710
 H621 H 0.33358 0.95029 0.74148
 H622 H 0.35764 0.92488 0.76079
 H623 H 0.44620 0.88405 0.73726
 H624 H 0.47788 0.86850 0.75589
 H625 H 0.44373 0.87237 0.81732
 H626 H 0.41197 0.88777 0.79846
 C627 C 0.62964 0.93245 0.25107
 C628 C 0.62513 0.93625 0.27310
 C629 C 0.63925 0.94882 0.28572
 C630 C 0.65818 0.95783 0.27651
 C631 C 0.66303 0.95333 0.25452
 C632 C 0.64878 0.94076 0.24186
 C633 C 0.61372 0.92130 0.23791
 C634 C 0.59932 0.91255 0.22778
 C635 C 0.58096 0.90280 0.21687
 C636 C 0.58070 0.88055 0.21212
 C637 C 0.56171 0.87078 0.20408
 C638 C 0.54272 0.88316 0.20091
 C639 C 0.54345 0.90565 0.20487
 C640 C 0.56242 0.91537 0.21281
 H641 H 0.61035 0.92996 0.28040
 H642 H 0.63503 0.95192 0.30258
 H643 H 0.67743 0.96010 0.24693
 H644 H 0.65240 0.93801 0.22479
 H645 H 0.59490 0.87063 0.21534
 H646 H 0.56155 0.85341 0.20134
 H647 H 0.52916 0.91562 0.20234
 H648 H 0.56240 0.93258 0.21646
 C649 C 0.37006 0.25290 0.92871
 C650 C 0.35112 0.24454 0.93826
 C651 C 0.33815 0.25781 0.95150
 C652 C 0.34414 0.27953 0.95547
 C653 C 0.36274 0.28795 0.94510
 C654 C 0.37557 0.27473 0.93183
 C655 C 0.38504 0.23897 0.91734
 C656 C 0.39884 0.22817 0.90852
 C657 C 0.41666 0.21648 0.89882
 C658 C 0.41665 0.21154 0.87652
 C659 C 0.43535 0.20293 0.86674
 C660 C 0.45429 0.19941 0.87916
 C661 C 0.45378 0.20352 0.90170
 C662 C 0.43510 0.21200 0.91144
 H663 H 0.34676 0.22763 0.93605
 H664 H 0.32398 0.25084 0.95933
 H665 H 0.36778 0.30460 0.94777
 H666 H 0.39023 0.28135 0.92460
 H667 H 0.40253 0.21510 0.86656
 H668 H 0.43538 0.20007 0.84931
 H669 H 0.46807 0.20074 0.91168
 H670 H 0.43532 0.21582 0.92869
 C671 C 0.62542 0.73612 0.92670
 C672 C 0.62058 0.71420 0.93017
 C673 C 0.63338 0.70181 0.94428
 C674 C 0.65122 0.71120 0.95516
 C675 C 0.65659 0.73300 0.95081
 C676 C 0.64367 0.74542 0.93672
 C677 C 0.61018 0.74942 0.91491
 C678 C 0.59630 0.76018 0.90619
 C679 C 0.57856 0.77255 0.89725
 C680 C 0.57478 0.77322 0.87472
 C681 C 0.55630 0.78378 0.86654
 C682 C 0.54137 0.79357 0.88087
 C683 C 0.54563 0.79323 0.90340
 C684 C 0.56407 0.78279 0.91150
 H685 H 0.60641 0.70688 0.92262
 H686 H 0.62885 0.68506 0.94720
 H687 H 0.67019 0.74070 0.95898
 H688 H 0.64745 0.76244 0.93429
 H689 H 0.58582 0.76520 0.86356
 H690 H 0.55333 0.78369 0.84913
 H691 H 0.53456 0.80090 0.91477
 H692 H 0.56680 0.78232 0.92896
 C693 C 0.37044 0.74798 0.07470
 C694 C 0.35184 0.75675 0.06485
 C695 C 0.33838 0.74360 0.05193
 C696 C 0.34355 0.72158 0.04857
 C697 C 0.36176 0.71277 0.05931
 C698 C 0.37506 0.72588 0.07226
 C699 C 0.38604 0.76172 0.08556
 C700 C 0.40029 0.77236 0.09390
 C701 C 0.41859 0.78388 0.10299
 C702 C 0.41936 0.78899 0.12524
 C703 C 0.43843 0.79758 0.13436
 C704 C 0.45699 0.80091 0.12134
 C705 C 0.45572 0.79660 0.09885
 C706 C 0.43666 0.78814 0.08977
 H707 H 0.34816 0.77388 0.06651
 H708 H 0.32455 0.75088 0.04378
 H709 H 0.36617 0.69589 0.05712
 H710 H 0.38945 0.71892 0.07973
 H711 H 0.40553 0.78562 0.13566
 H712 H 0.43903 0.80058 0.15176
 H713 H 0.46968 0.79924 0.08841
 H714 H 0.43629 0.78420 0.07255
 C715 C 0.62222 0.26758 0.07276
 C716 C 0.64023 0.25753 0.06308
 C717 C 0.65293 0.26889 0.04791
 C718 C 0.64761 0.29037 0.04216
 C719 C 0.62984 0.30047 0.05247
 C720 C 0.61726 0.28914 0.06763
 C721 C 0.60763 0.25552 0.08658
 C722 C 0.59428 0.24600 0.09737
 C723 C 0.57710 0.23533 0.10918
 C724 C 0.57844 0.21317 0.11417
 C725 C 0.56050 0.20242 0.12324
 C726 C 0.54099 0.21371 0.12721
 C727 C 0.54014 0.23612 0.12294
 C728 C 0.55806 0.24683 0.11398
 H729 H 0.64412 0.24078 0.06682
 H730 H 0.66649 0.26067 0.04022
 H731 H 0.62534 0.31700 0.04849
 H732 H 0.60330 0.29704 0.07494
 H733 H 0.59304 0.20408 0.11039
 H734 H 0.56153 0.18511 0.12621
 H735 H 0.52541 0.24526 0.12608
 H736 H 0.55683 0.26397 0.11014
 C737 C 0.25121 0.06052 0.62273
 C738 C 0.24396 0.05239 0.64277
 C739 C 0.25798 0.04005 0.65586
 C740 C 0.27938 0.03563 0.64893
 C741 C 0.28662 0.04436 0.62901
 C742 C 0.27263 0.05670 0.61604
 C743 C 0.23660 0.07169 0.60821
 C744 C 0.22518 0.08054 0.59491
 C745 C 0.21271 0.09048 0.57772
 C746 C 0.20674 0.07803 0.55958
 C747 C 0.19758 0.08799 0.54130
 C748 C 0.19431 0.11058 0.54089
 C749 C 0.19927 0.12284 0.55960
 C750 C 0.20854 0.11284 0.57790
 H751 H 0.22737 0.05518 0.64807
 H752 H 0.25190 0.03352 0.67108
 H753 H 0.30298 0.04130 0.62321
 H754 H 0.27840 0.06286 0.60053
 H755 H 0.20995 0.06073 0.55924
 H756 H 0.19370 0.07814 0.52718
 H757 H 0.19708 0.14029 0.55963
 H758 H 0.21324 0.12265 0.59178
 C759 C 0.75149 0.06739 0.37295
 C760 C 0.75967 0.06110 0.35260
 C761 C 0.74683 0.04862 0.33842
 C762 C 0.72566 0.04210 0.34454
 C763 C 0.71745 0.04920 0.36480
 C764 C 0.73026 0.06168 0.37882
 C765 C 0.76494 0.07865 0.38856
 C766 C 0.77530 0.08752 0.40272
 C767 C 0.78646 0.09751 0.42081
 C768 C 0.79094 0.11982 0.42077
 C769 C 0.79908 0.12987 0.43958
 C770 C 0.80265 0.11773 0.45870
 C771 C 0.79901 0.09518 0.45826
 C772 C 0.79096 0.08518 0.43945
 H773 H 0.77610 0.06542 0.34789
 H774 H 0.75376 0.04356 0.32300
 H775 H 0.70126 0.04471 0.37017
 H776 H 0.72375 0.06646 0.39453
 H777 H 0.78737 0.12957 0.40650
 H778 H 0.80153 0.14729 0.43952
 H779 H 0.80183 0.08540 0.47266
 H780 H 0.78751 0.06792 0.43971
 C781 C 0.73702 0.92727 0.62063
 C782 C 0.71544 0.93278 0.61596
 C783 C 0.70415 0.94714 0.62945
 C784 C 0.71429 0.95627 0.64789
 C785 C 0.73586 0.95026 0.65280
 C786 C 0.74718 0.93588 0.63919
 C787 C 0.74888 0.91388 0.60548
 C788 C 0.75813 0.90331 0.59176
 C789 C 0.76839 0.89160 0.57421
 C790 C 0.75660 0.88757 0.55510
 C791 C 0.76685 0.87839 0.53700
 C792 C 0.78911 0.87312 0.53773
 C793 C 0.80066 0.87636 0.55729
 C794 C 0.79036 0.88566 0.57541
 H795 H 0.70744 0.92630 0.60161
 H796 H 0.68757 0.95136 0.62522
 H797 H 0.74412 0.95702 0.66685
 H798 H 0.76393 0.93182 0.64290
 H799 H 0.73959 0.89210 0.55397
 H800 H 0.75749 0.87582 0.52225
 H801 H 0.81786 0.87260 0.55823
 H802 H 0.79968 0.88880 0.59008
 C803 C 0.25332 0.93517 0.37627
 C804 C 0.27459 0.93921 0.38338
 C805 C 0.28867 0.95180 0.37074
 C806 C 0.28169 0.96058 0.35075
 C807 C 0.26047 0.95592 0.34339
 C808 C 0.24635 0.94333 0.35613
 C809 C 0.23852 0.92388 0.39053
 C810 C 0.22691 0.91503 0.40366
 C811 C 0.21421 0.90521 0.42076
 C812 C 0.20827 0.91777 0.43881
 C813 C 0.19901 0.90795 0.45710
 C814 C 0.19556 0.88538 0.45761
 C815 C 0.20040 0.87301 0.43895
 C816 C 0.20981 0.88288 0.42065
 H817 H 0.28014 0.93304 0.39897
 H818 H 0.30489 0.95503 0.37688
 H819 H 0.25459 0.96249 0.32810
 H820 H 0.22988 0.94040 0.35052
 H821 H 0.21165 0.93505 0.43912
 H822 H 0.19524 0.91787 0.47120
 H823 H 0.19806 0.85557 0.43901
 H824 H 0.21448 0.87297 0.40682
 C825 C 0.07850 0.37806 0.73696
 C826 C 0.07055 0.35919 0.74694
 C827 C 0.05584 0.34575 0.73581
 C828 C 0.04883 0.35116 0.71463
 C829 C 0.05734 0.36990 0.70463
 C830 C 0.07204 0.38321 0.71571
 C831 C 0.09211 0.39311 0.74870
 C832 C 0.10279 0.40684 0.75779
 C833 C 0.11453 0.42449 0.76777
 C834 C 0.11862 0.42465 0.79025
 C835 C 0.12764 0.44310 0.80011
 C836 C 0.13246 0.46164 0.78759
 C837 C 0.12911 0.46097 0.76491
 C838 C 0.12019 0.44253 0.75510
 H839 H 0.07536 0.35512 0.76345
 H840 H 0.04956 0.33146 0.74396
 H841 H 0.05236 0.37452 0.68833
 H842 H 0.07800 0.39781 0.70785
 H843 H 0.11417 0.41083 0.80024
 H844 H 0.12990 0.44326 0.81763
 H845 H 0.13291 0.47492 0.75484
 H846 H 0.11707 0.44261 0.73770
 C847 C 0.07717 0.62165 0.26565
 C848 C 0.06843 0.64011 0.25556
 C849 C 0.05332 0.65306 0.26668
 C850 C 0.04668 0.64753 0.28794
 C851 C 0.05603 0.62928 0.29807
 C852 C 0.07113 0.61647 0.28701
 C853 C 0.09101 0.60690 0.25387
 C854 C 0.10184 0.59335 0.24474
 C855 C 0.11372 0.57588 0.23469
 C856 C 0.11709 0.57552 0.21210
 C857 C 0.12616 0.55714 0.20220
 C858 C 0.13176 0.53887 0.21480
 C859 C 0.12912 0.53976 0.23756
 C860 C 0.12015 0.55813 0.24741
 H861 H 0.07289 0.64419 0.23896
 H862 H 0.04638 0.66699 0.25844
 H863 H 0.05137 0.62461 0.31445
 H864 H 0.07771 0.60218 0.29494
 H865 H 0.11202 0.58910 0.20208
 H866 H 0.12784 0.55682 0.18462
 H867 H 0.13352 0.52603 0.24767
 H868 H 0.11756 0.55821 0.26489
 C869 C 0.92725 0.37598 0.25976
 C870 C 0.93381 0.35601 0.25108
 C871 C 0.94785 0.34257 0.26293
 C872 C 0.95559 0.34906 0.28354
 C873 C 0.94840 0.36889 0.29234
 C874 C 0.93434 0.38224 0.28050
 C875 C 0.91490 0.39100 0.24678
 C876 C 0.90564 0.40457 0.23611
 C877 C 0.89602 0.42190 0.22372
 C878 C 0.87349 0.42539 0.22392
 C879 C 0.86472 0.44363 0.21349
 C880 C 0.87848 0.45860 0.20299
 C881 C 0.90098 0.45455 0.20234
 C882 C 0.90967 0.43633 0.21264
 H883 H 0.92855 0.35110 0.23495
 H884 H 0.95310 0.32741 0.25571
 H885 H 0.95399 0.37433 0.30818
 H886 H 0.92947 0.39774 0.28730
 H887 H 0.86281 0.41435 0.23258
 H888 H 0.84735 0.44648 0.21434
 H889 H 0.91189 0.46570 0.19412
 H890 H 0.92712 0.43380 0.21242
 C891 C 0.92736 0.62584 0.74079
 C892 C 0.93362 0.62077 0.71946
 C893 C 0.94757 0.63459 0.70802
 C894 C 0.95548 0.65370 0.71779
 C895 C 0.94847 0.65909 0.73896
 C896 C 0.93455 0.64517 0.75042
 C897 C 0.91538 0.61009 0.75328
 C898 C 0.90645 0.59592 0.76346
 C899 C 0.89721 0.57792 0.77521
 C900 C 0.91117 0.56300 0.78519
 C901 C 0.90278 0.54440 0.79506
 C902 C 0.88024 0.54041 0.79509
 C903 C 0.86620 0.55578 0.78559
 C904 C 0.87468 0.57443 0.77560
 H905 H 0.92828 0.60578 0.71190
 H906 H 0.95259 0.63000 0.69174
 H907 H 0.95430 0.67367 0.74694
 H908 H 0.92993 0.64916 0.76699
 H909 H 0.92863 0.56553 0.78495
 H910 H 0.91393 0.53298 0.80252
 H911 H 0.84879 0.55303 0.78526
 H912 H 0.86374 0.58583 0.76779
 C913 C 0.74409 0.61960 0.93631
 C914 C 0.72291 0.61290 0.94121
 C915 C 0.70940 0.62593 0.95396
 C916 C 0.71687 0.64601 0.96214
 C917 C 0.73808 0.65289 0.95660
 C918 C 0.75161 0.63971 0.94384
 C919 C 0.75816 0.60509 0.92450
 C920 C 0.76905 0.59178 0.91508
 C921 C 0.78080 0.57458 0.90442
 C922 C 0.78703 0.57645 0.88253
 C923 C 0.79583 0.55852 0.87158
 C924 C 0.79824 0.53852 0.88239
 C925 C 0.79282 0.53712 0.90462
 C926 C 0.78415 0.55502 0.91553
 H927 H 0.71694 0.59734 0.93549
 H928 H 0.69322 0.62001 0.95770
 H929 H 0.74445 0.66821 0.96250
 H930 H 0.76801 0.64503 0.94017
 H931 H 0.78437 0.59147 0.87372
 H932 H 0.79973 0.55997 0.85441
 H933 H 0.79475 0.52198 0.91340
 H934 H 0.77934 0.55337 0.93246
 C935 C 0.25772 0.37748 0.93349
 C936 C 0.24857 0.35790 0.94064
 C937 C 0.26070 0.34377 0.95384
 C938 C 0.28214 0.34915 0.96017
 C939 C 0.29122 0.36873 0.95242
 C940 C 0.27910 0.38270 0.93925
 C941 C 0.24532 0.39285 0.92084
 C942 C 0.23622 0.40686 0.91054
 C943 C 0.22704 0.42481 0.89859
 C944 C 0.20448 0.42812 0.89756
 C945 C 0.19612 0.44670 0.88730
 C946 C 0.21029 0.46220 0.87818
 C947 C 0.23285 0.45839 0.87886
 C948 C 0.24112 0.43987 0.88899
 H949 H 0.23201 0.35370 0.93627
 H950 H 0.25311 0.32889 0.95940
 H951 H 0.30762 0.37353 0.95677
 H952 H 0.28636 0.39781 0.93380
 H953 H 0.19343 0.41662 0.90505
 H954 H 0.17869 0.44930 0.88708
 H955 H 0.24413 0.46988 0.87169
 H956 H 0.25859 0.43751 0.88969
 C957 C 0.25337 0.62430 0.06736
 C958 C 0.24506 0.64432 0.06047
 C959 C 0.25807 0.65851 0.04825
 C960 C 0.27958 0.65276 0.04260
 C961 C 0.28788 0.63280 0.05023
 C962 C 0.27488 0.61875 0.06245
 C963 C 0.23980 0.60876 0.07848
 C964 C 0.22927 0.59475 0.08731
 C965 C 0.21784 0.57692 0.09733
 C966 C 0.21310 0.57719 0.11966
 C967 C 0.20461 0.55864 0.12979
 C968 C 0.20097 0.53956 0.11770
 C969 C 0.20489 0.53978 0.09510
 C970 C 0.21329 0.55832 0.08501
 H971 H 0.22841 0.64877 0.06417
 H972 H 0.25106 0.67370 0.04278
 H973 H 0.30432 0.62772 0.04639
 H974 H 0.28148 0.60329 0.06768
 H975 H 0.21670 0.59144 0.12939
 H976 H 0.20194 0.55886 0.14725
 H977 H 0.20201 0.52540 0.08534
 H978 H 0.21694 0.55790 0.06773
 C979 C 0.74151 0.37946 0.06181
 C980 C 0.74878 0.35914 0.05466
 C981 C 0.73531 0.34614 0.04163
 C982 C 0.71442 0.35342 0.03544
 C983 C 0.70718 0.37371 0.04324
 C984 C 0.72063 0.38656 0.05627
 C985 C 0.75555 0.39379 0.07388
 C986 C 0.76639 0.40702 0.08348
 C987 C 0.77803 0.42418 0.09431
 C988 C 0.78116 0.44389 0.08340
 C989 C 0.78967 0.46177 0.09449
 C990 C 0.79515 0.46018 0.11670
 C991 C 0.79295 0.44005 0.12731
 C992 C 0.78431 0.42215 0.11618
 H993 H 0.76496 0.35352 0.05884
 H994 H 0.74149 0.33064 0.03603
 H995 H 0.69124 0.37993 0.03900
 H996 H 0.71485 0.40229 0.06169
 H997 H 0.77630 0.44566 0.06650
 H998 H 0.79145 0.47702 0.08587
 H999 H 0.79692 0.43846 0.14445
 H1000 H 0.78180 0.40700 0.12482
 C1001 C 0.93064 0.74341 0.62542
 C1002 C 0.93827 0.72299 0.61909
 C1003 C 0.95193 0.71116 0.63282
 C1004 C 0.95830 0.71954 0.65326
 C1005 C 0.95007 0.73995 0.65974
 C1006 C 0.93638 0.75182 0.64584
 C1007 C 0.91757 0.75564 0.61028
 C1008 C 0.90708 0.76466 0.59635
 C1009 C 0.89510 0.77383 0.57839
 C1010 C 0.88493 0.75981 0.56360
 C1011 C 0.87511 0.76804 0.54483
 C1012 C 0.87533 0.79046 0.54051
 C1013 C 0.88496 0.80458 0.55577
 C1014 C 0.89491 0.79627 0.57459
 H1015 H 0.93392 0.71632 0.60333
 H1016 H 0.95775 0.69554 0.62716
 H1017 H 0.95452 0.74697 0.67531
 H1018 H 0.93055 0.76763 0.65090
 H1019 H 0.88503 0.74242 0.56633
 H1020 H 0.86755 0.75683 0.53350
 H1021 H 0.88546 0.82190 0.55277
 H1022 H 0.90289 0.80725 0.58585
 C1023 C 0.92441 0.26472 0.37631
 C1024 C 0.93061 0.25537 0.35644
 C1025 C 0.94560 0.26602 0.34292
 C1026 C 0.95471 0.28611 0.34923
 C1027 C 0.94788 0.29548 0.36908
 C1028 C 0.93291 0.28486 0.38243
 C1029 C 0.91046 0.25335 0.39130
 C1030 C 0.89957 0.24452 0.40505
 C1031 C 0.88767 0.23473 0.42270
 C1032 C 0.88447 0.21223 0.42338
 C1033 C 0.87542 0.20256 0.44195
 C1034 C 0.86966 0.21531 0.46010
 C1035 C 0.87216 0.23798 0.45889
 C1036 C 0.88112 0.24760 0.44032
 H1037 H 0.92418 0.23971 0.35160
 H1038 H 0.95036 0.25828 0.32779
 H1039 H 0.95433 0.31092 0.37457
 H1040 H 0.92829 0.29220 0.39781
 H1041 H 0.88965 0.20209 0.40991
 H1042 H 0.87388 0.18505 0.44251
 H1043 H 0.86763 0.24821 0.47252
 H1044 H 0.88360 0.26502 0.44000
 C1045 C 0.07459 0.26208 0.62334
 C1046 C 0.06730 0.28255 0.61674
 C1047 C 0.05347 0.29457 0.63015
 C1048 C 0.04661 0.28625 0.65045
 C1049 C 0.05476 0.26593 0.65729
 C1050 C 0.06856 0.25391 0.64375
 C1051 C 0.08636 0.24878 0.60812
 C1052 C 0.09498 0.23784 0.59432
 C1053 C 0.10360 0.22515 0.57666
 C1054 C 0.08909 0.21561 0.56193
 C1055 C 0.09689 0.20480 0.54357
 C1056 C 0.11938 0.20337 0.53963
 C1057 C 0.13396 0.21240 0.55483
 C1058 C 0.12608 0.22335 0.57324
 H1059 H 0.07176 0.28895 0.60090
 H1060 H 0.04774 0.31015 0.62429
 H1061 H 0.04998 0.25898 0.67280
 H1062 H 0.07400 0.23799 0.64893
 H1063 H 0.07167 0.21692 0.56440
 H1064 H 0.08532 0.19772 0.53228
 H1065 H 0.15136 0.21160 0.55210
 H1066 H 0.13745 0.23079 0.58450
 C1067 C 0.06953 0.73525 0.38013
 C1068 C 0.06338 0.74354 0.35981
 C1069 C 0.04958 0.73154 0.34623
 C1070 C 0.04159 0.71110 0.35291
 C1071 C 0.04844 0.70272 0.37318
 C1072 C 0.06226 0.71474 0.38666
 C1073 C 0.08166 0.74843 0.39520
 C1074 C 0.09073 0.75936 0.40872
 C1075 C 0.10006 0.77218 0.42594
 C1076 C 0.12266 0.77361 0.42871
 C1077 C 0.13128 0.78483 0.44663
 C1078 C 0.11731 0.79450 0.46198
 C1079 C 0.09469 0.79341 0.45869
 C1080 C 0.08616 0.78232 0.44081
 H1081 H 0.06881 0.75948 0.35468
 H1082 H 0.04479 0.73855 0.33075
 H1083 H 0.04280 0.68706 0.37892
 H1084 H 0.06682 0.70825 0.40244
 H1085 H 0.13355 0.76572 0.41731
 H1086 H 0.14876 0.78535 0.44888
 H1087 H 0.08360 0.80098 0.47011
 H1088 H 0.06865 0.78131 0.43882
 C1089 C 0.62619 0.92996 0.74460
 C1090 C 0.64561 0.93874 0.75269
 C1091 C 0.65868 0.95173 0.73927
 C1092 C 0.65231 0.95621 0.71766
 C1093 C 0.63317 0.94666 0.70951
 C1094 C 0.62023 0.93364 0.72289
 C1095 C 0.61130 0.91870 0.75873
 C1096 C 0.59760 0.90998 0.76975
 C1097 C 0.57991 0.90039 0.78171
 C1098 C 0.58039 0.87843 0.78763
 C1099 C 0.56188 0.86865 0.79667
 C1100 C 0.54268 0.88073 0.79962
 C1101 C 0.54270 0.90298 0.79449
 C1102 C 0.56119 0.91272 0.78559
 H1103 H 0.65031 0.93608 0.76951
 H1104 H 0.67329 0.95892 0.74603
 H1105 H 0.62784 0.94973 0.69296
 H1106 H 0.60519 0.92699 0.71648
 H1107 H 0.59475 0.86870 0.78456
 H1108 H 0.56222 0.85145 0.80034
 H1109 H 0.52820 0.91270 0.79684
 H1110 H 0.56062 0.92971 0.78101
 C1111 C 0.37960 0.92588 0.26792
 C1112 C 0.36177 0.93513 0.25713
 C1113 C 0.34821 0.94978 0.26809
 C1114 C 0.35246 0.95543 0.28992
 C1115 C 0.37003 0.94551 0.30077
 C1116 C 0.38348 0.93086 0.28983
 C1117 C 0.39506 0.91274 0.25628
 C1118 C 0.40899 0.90255 0.24698
 C1119 C 0.42664 0.89143 0.23638
 C1120 C 0.42540 0.88621 0.21420
 C1121 C 0.44354 0.87759 0.20348
 C1122 C 0.46318 0.87427 0.21483
 C1123 C 0.46401 0.87888 0.23728
 C1124 C 0.44586 0.88743 0.24795
 H1125 H 0.35871 0.93149 0.24012
 H1126 H 0.33484 0.95717 0.25929
 H1127 H 0.37372 0.94944 0.31758
 H1128 H 0.39729 0.92389 0.29830
 H1129 H 0.41065 0.88939 0.20505
 H1130 H 0.44251 0.87437 0.18614
 H1131 H 0.47882 0.87623 0.24648
 H1132 H 0.44701 0.89146 0.26512
 C1133 C 0.63204 0.07122 0.25218
 C1134 C 0.62711 0.06704 0.27405
 C1135 C 0.64087 0.05406 0.28663
 C1136 C 0.65981 0.04503 0.27750
 C1137 C 0.66512 0.05001 0.25572
 C1138 C 0.65124 0.06297 0.24311
 C1139 C 0.61635 0.08246 0.23888
 C1140 C 0.60211 0.09114 0.22853
 C1141 C 0.58390 0.10067 0.21729
 C1142 C 0.56553 0.08791 0.21303
 C1143 C 0.54663 0.09741 0.20474
 C1144 C 0.54582 0.11985 0.20063
 C1145 C 0.56466 0.13243 0.20400
 C1146 C 0.58358 0.12289 0.21239
 H1147 H 0.61226 0.07328 0.28122
 H1148 H 0.63633 0.05059 0.30334
 H1149 H 0.67954 0.04324 0.24820
 H1150 H 0.65515 0.06602 0.22616
 H1151 H 0.56557 0.07071 0.21679
 H1152 H 0.53243 0.08731 0.20207
 H1153 H 0.56441 0.14978 0.20113
 H1154 H 0.59766 0.13294 0.21577
 C1155 C 0.37438 0.07355 0.73301
 C1156 C 0.35694 0.06361 0.74382
 C1157 C 0.34396 0.04839 0.73288
 C1158 C 0.34846 0.04286 0.71107
 C1159 C 0.36560 0.05347 0.70021
 C1160 C 0.37845 0.06869 0.71112
 C1161 C 0.38943 0.08721 0.74461
 C1162 C 0.40317 0.09781 0.75375
 C1163 C 0.42078 0.10931 0.76402
 C1164 C 0.42004 0.11424 0.78630
 C1165 C 0.43835 0.12299 0.79666
 C1166 C 0.45763 0.12672 0.78486
 C1167 C 0.45791 0.12247 0.76234
 C1168 C 0.43961 0.11381 0.75201
 H1169 H 0.35377 0.06715 0.76083
 H1170 H 0.33090 0.04047 0.74168
 H1171 H 0.36944 0.04966 0.68341
 H1172 H 0.39197 0.07619 0.70264
 H1173 H 0.40560 0.11065 0.79578
 H1174 H 0.43776 0.12594 0.81407
 H1175 H 0.47246 0.12544 0.75281
 H1176 H 0.44037 0.10999 0.73477
 C1177 C 0.61726 0.73375 0.07349
 C1178 C 0.61099 0.71333 0.06572
 C1179 C 0.62443 0.70195 0.05138
 C1180 C 0.64439 0.71085 0.04455
 C1181 C 0.65075 0.73128 0.05268
 C1182 C 0.63721 0.74268 0.06704
 C1183 C 0.60256 0.74576 0.08717
 C1184 C 0.58930 0.75534 0.09799
 C1185 C 0.57236 0.76617 0.10996
 C1186 C 0.55353 0.75467 0.11557
 C1187 C 0.53583 0.76548 0.12481
 C1188 C 0.53672 0.78799 0.12855
 C1189 C 0.55605 0.79929 0.12376
 C1190 C 0.57375 0.78844 0.11441
 H1191 H 0.59554 0.70631 0.07053
 H1192 H 0.61906 0.68625 0.04548
 H1193 H 0.66601 0.73857 0.04774
 H1194 H 0.64217 0.75854 0.07288
 H1195 H 0.55226 0.73745 0.11216
 H1196 H 0.52125 0.75634 0.12860
 H1197 H 0.55709 0.81667 0.12630
 H1198 H 0.58821 0.79752 0.11002
 C1199 C 0.37647 0.25217 0.06823
 C1200 C 0.38234 0.27363 0.06361
 C1201 C 0.36869 0.28675 0.05108
 C1202 C 0.34888 0.27862 0.04294
 C1203 C 0.34274 0.25722 0.04822
 C1204 C 0.35652 0.24404 0.06075
 C1205 C 0.39177 0.23844 0.07947
 C1206 C 0.40574 0.22785 0.08829
 C1207 C 0.42371 0.21647 0.09812
 C1208 C 0.44215 0.21194 0.08554
 C1209 C 0.46094 0.20378 0.09539
 C1210 C 0.46156 0.20005 0.11800
 C1211 C 0.44263 0.20361 0.13039
 C1212 C 0.42382 0.21190 0.12050
 H1213 H 0.39776 0.28008 0.06927
 H1214 H 0.37390 0.30315 0.04737
 H1215 H 0.32763 0.25046 0.04214
 H1216 H 0.35185 0.22741 0.06416
 H1217 H 0.44229 0.21548 0.06823
 H1218 H 0.47521 0.20094 0.08543
 H1219 H 0.44273 0.20105 0.14787
 H1220 H 0.40970 0.21550 0.13043
 C1221 C 0.61543 0.26657 0.92277
 C1222 C 0.60967 0.28738 0.92982
 C1223 C 0.62310 0.29866 0.94427
 C1224 C 0.64253 0.28927 0.95191
 C1225 C 0.64842 0.26847 0.94443
 C1226 C 0.63488 0.25716 0.92998
 C1227 C 0.60056 0.25461 0.90921
 C1228 C 0.58710 0.24509 0.89857
 C1229 C 0.56988 0.23433 0.88692
 C1230 C 0.55091 0.24585 0.88189
 C1231 C 0.53293 0.23506 0.87314
 C1232 C 0.53368 0.21256 0.86934
 C1233 C 0.55313 0.20125 0.87351
 C1234 C 0.57112 0.21209 0.88236
 H1235 H 0.59459 0.29475 0.92443
 H1236 H 0.61812 0.31466 0.94964
 H1237 H 0.66327 0.26081 0.95002
 H1238 H 0.63941 0.24100 0.92471
 H1239 H 0.54977 0.26306 0.88540
 H1240 H 0.51824 0.24420 0.86983
 H1241 H 0.55407 0.18388 0.87089
 H1242 H 0.58568 0.20299 0.88633
 C1243 C 0.37680 0.74923 0.93670
 C1244 C 0.38291 0.72799 0.94196
 C1245 C 0.36910 0.71484 0.95430
 C1246 C 0.34890 0.72275 0.96158
 C1247 C 0.34257 0.74394 0.95569
 C1248 C 0.35650 0.75712 0.94336
 C1249 C 0.39208 0.76303 0.92554
 C1250 C 0.40591 0.77381 0.91673
 C1251 C 0.42359 0.78557 0.90684
 C1252 C 0.44137 0.79181 0.91967
 C1253 C 0.45998 0.80048 0.90991
 C1254 C 0.46107 0.80298 0.88714
 C1255 C 0.44274 0.79764 0.87445
 C1256 C 0.42413 0.78889 0.88426
 H1257 H 0.39861 0.72173 0.93693
 H1258 H 0.37446 0.69862 0.95851
 H1259 H 0.32715 0.75052 0.96110
 H1260 H 0.35164 0.77357 0.93943
 H1261 H 0.44116 0.78926 0.93716
 H1262 H 0.47377 0.80467 0.92009
 H1263 H 0.44322 0.79920 0.85686
 H1264 H 0.41052 0.78396 0.87416
 C1265 C 0.75063 0.93057 0.37164
 C1266 C 0.75967 0.93868 0.35233
 C1267 C 0.74704 0.95140 0.33824
 C1268 C 0.72526 0.95627 0.34344
 C1269 C 0.71616 0.94738 0.36251
 C1270 C 0.72876 0.93464 0.37647
 C1271 C 0.76390 0.91948 0.38746
 C1272 C 0.77424 0.91081 0.40173
 C1273 C 0.78547 0.90111 0.41988
 C1274 C 0.79043 0.91382 0.43814
 C1275 C 0.79864 0.90415 0.45703
 C1276 C 0.80197 0.88157 0.45792
 C1277 C 0.79790 0.86904 0.43916
 C1278 C 0.78960 0.87876 0.42027
 H1279 H 0.77662 0.93570 0.34848
 H1280 H 0.75454 0.95807 0.32374
 H1281 H 0.69945 0.95078 0.36698
 H1282 H 0.72160 0.92850 0.39141
 H1283 H 0.78724 0.93113 0.43804
 H1284 H 0.80186 0.91422 0.47115
 H1285 H 0.80010 0.85159 0.43946
 H1286 H 0.78567 0.86874 0.40629
 C1287 C 0.26321 0.91901 0.62410
 C1288 C 0.28492 0.92378 0.61922
 C1289 C 0.29668 0.93805 0.63241
 C1290 C 0.28685 0.94776 0.65068
 C1291 C 0.26536 0.94201 0.65613
 C1292 C 0.25356 0.92779 0.64280
 C1293 C 0.25032 0.90755 0.60830
 C1294 C 0.23987 0.89936 0.59386
 C1295 C 0.22782 0.89137 0.57545
 C1296 C 0.22585 0.86907 0.57141
 C1297 C 0.21523 0.86181 0.55254
 C1298 C 0.20669 0.87684 0.53752
 C1299 C 0.20851 0.89916 0.54195
 C1300 C 0.21901 0.90634 0.56077
 H1301 H 0.29248 0.91722 0.60469
 H1302 H 0.31323 0.94204 0.62785
 H1303 H 0.25736 0.94927 0.67007
 H1304 H 0.23667 0.92436 0.64657
 H1305 H 0.23277 0.85736 0.58263
 H1306 H 0.21413 0.84453 0.54944
 H1307 H 0.20177 0.91107 0.53084
 H1308 H 0.22050 0.92363 0.56372
 C1309 C 0.26264 0.07680 0.37581
 C1310 C 0.25373 0.06811 0.35667
 C1311 C 0.26613 0.05413 0.34364
 C1312 C 0.28747 0.04855 0.34980
 C1313 C 0.29653 0.05812 0.36856
 C1314 C 0.28418 0.07212 0.38145
 C1315 C 0.24915 0.08822 0.39113
 C1316 C 0.23823 0.09647 0.40516
 C1317 C 0.22567 0.10462 0.42316
 C1318 C 0.21598 0.08977 0.43741
 C1319 C 0.20535 0.09706 0.45609
 C1320 C 0.20425 0.11937 0.46083
 C1321 C 0.21351 0.13430 0.44614
 C1322 C 0.22428 0.12693 0.42741
 H1323 H 0.23698 0.07145 0.35228
 H1324 H 0.25870 0.04699 0.32931
 H1325 H 0.31294 0.05424 0.37369
 H1326 H 0.29117 0.07862 0.39632
 H1327 H 0.21701 0.07247 0.43430
 H1328 H 0.19807 0.08524 0.46696
 H1329 H 0.21298 0.15156 0.44948
 H1330 H 0.23188 0.13855 0.41655
 C1331 C 0.73457 0.07547 0.62084
 C1332 C 0.71330 0.06904 0.61589
 C1333 C 0.70235 0.05442 0.62940
 C1334 C 0.71255 0.04597 0.64811
 C1335 C 0.73375 0.05296 0.65332
 C1336 C 0.74472 0.06759 0.63970
 C1337 C 0.74631 0.08887 0.60562
 C1338 C 0.75570 0.09930 0.59189
 C1339 C 0.76637 0.11067 0.57440
 C1340 C 0.75504 0.11442 0.55496
 C1341 C 0.76582 0.12306 0.53690
 C1342 C 0.78813 0.12804 0.53801
 C1343 C 0.79921 0.12511 0.55788
 C1344 C 0.78839 0.11636 0.57596
 H1345 H 0.70533 0.07495 0.60127
 H1346 H 0.68604 0.04943 0.62494
 H1347 H 0.74206 0.04673 0.66759
 H1348 H 0.76124 0.07236 0.64362
 H1349 H 0.73800 0.11005 0.55356
 H1350 H 0.75682 0.12542 0.52189
 H1351 H 0.81644 0.12865 0.55912
 H1352 H 0.79735 0.11340 0.59089
 C1353 C 0.93289 0.62049 0.25347
 C1354 C 0.93714 0.61387 0.27488
 C1355 C 0.94966 0.62690 0.28866
 C1356 C 0.95814 0.64678 0.28120
 C1357 C 0.95325 0.65363 0.25985
 C1358 C 0.94073 0.64051 0.24604
 C1359 C 0.92167 0.60594 0.23897
 C1360 C 0.91284 0.59271 0.22750
 C1361 C 0.90294 0.57569 0.21488
 C1362 C 0.91585 0.55863 0.20717
 C1363 C 0.90615 0.54037 0.19779
 C1364 C 0.88338 0.53893 0.19604
 C1365 C 0.87057 0.55663 0.20277
 C1366 C 0.88032 0.57488 0.21225
 H1367 H 0.93120 0.59837 0.28077
 H1368 H 0.95310 0.62116 0.30500
 H1369 H 0.95958 0.66883 0.25361
 H1370 H 0.93760 0.64574 0.22946
 H1371 H 0.93337 0.55906 0.20920
 H1372 H 0.91640 0.52706 0.19252
 H1373 H 0.85298 0.55585 0.20181
 H1374 H 0.87017 0.58793 0.21831
 C1375 C 0.93474 0.37667 0.74612
 C1376 C 0.94326 0.35730 0.75447
 C1377 C 0.95595 0.34382 0.74118
 C1378 C 0.96036 0.34970 0.71943
 C1379 C 0.95112 0.36886 0.71105
 C1380 C 0.93843 0.38223 0.72431
 C1381 C 0.92352 0.39176 0.76007
 C1382 C 0.91473 0.40542 0.77105
 C1383 C 0.90490 0.42288 0.78314
 C1384 C 0.88233 0.42358 0.78621
 C1385 C 0.87265 0.44197 0.79546
 C1386 C 0.88546 0.45993 0.80155
 C1387 C 0.90820 0.45867 0.79925
 C1388 C 0.91783 0.44027 0.79009
 H1389 H 0.94059 0.35289 0.77136
 H1390 H 0.96288 0.32921 0.74813
 H1391 H 0.95416 0.37384 0.69439
 H1392 H 0.93197 0.39722 0.71770
 H1393 H 0.87215 0.41027 0.78075
 H1394 H 0.85509 0.44259 0.79684
 H1395 H 0.91847 0.47216 0.80402
 H1396 H 0.93531 0.43993 0.78774
 C1397 C 0.07079 0.62742 0.74718
 C1398 C 0.06782 0.62357 0.72491
 C1399 C 0.05458 0.63722 0.71253
 C1400 C 0.04405 0.65505 0.72222
 C1401 C 0.04763 0.65927 0.74452
 C1402 C 0.06088 0.64545 0.75696
 C1403 C 0.08310 0.61195 0.75979
 C1404 C 0.09315 0.59777 0.76891
 C1405 C 0.10482 0.57959 0.77795
 C1406 C 0.11391 0.56439 0.76368
 C1407 C 0.12386 0.54571 0.77179
 C1408 C 0.12488 0.54187 0.79437
 C1409 C 0.11625 0.55748 0.80873
 C1410 C 0.10615 0.57622 0.80053
 H1411 H 0.07538 0.60966 0.71716
 H1412 H 0.05225 0.63353 0.69541
 H1413 H 0.03968 0.67281 0.75246
 H1414 H 0.06302 0.64855 0.77421
 H1415 H 0.11298 0.56679 0.74619
 H1416 H 0.13068 0.53416 0.76037
 H1417 H 0.11674 0.55487 0.82619
 H1418 H 0.09907 0.58783 0.81173
 C1419 C 0.07185 0.37274 0.25611
 C1420 C 0.06950 0.37628 0.27851
 C1421 C 0.05592 0.36295 0.29088
 C1422 C 0.04444 0.34577 0.28105
 C1423 C 0.04748 0.34175 0.25865
 C1424 C 0.06106 0.35526 0.24621
 C1425 C 0.08422 0.38816 0.24350
 C1426 C 0.09425 0.40232 0.23433
 C1427 C 0.10583 0.42050 0.22516
 C1428 C 0.11536 0.43559 0.23929
 C1429 C 0.12504 0.45437 0.23106
 C1430 C 0.12535 0.45841 0.20849
 C1431 C 0.11630 0.44289 0.19426
 C1432 C 0.10648 0.42406 0.20259
 H1433 H 0.07772 0.38977 0.28634
 H1434 H 0.05402 0.36644 0.30809
 H1435 H 0.03879 0.32871 0.25062
 H1436 H 0.06269 0.35242 0.22886
 H1437 H 0.11493 0.43304 0.25678
 H1438 H 0.13217 0.46586 0.24237
 H1439 H 0.11622 0.44566 0.17682
 H1440 H 0.09902 0.41256 0.19149
   
