data_POSCAR
  _audit_creation_date              2014-09-24
  _audit_creation_method            'ToBaCCo'
  _symmetry_space_group_name_H-M    'P1'
  _symmetry_Int_Tables_number       1
  _symmetry_cell_setting            triclinic
  loop_
  _symmetry_equiv_pos_as_xyz
 x,y,z
_cell_length_a 96.0974
_cell_length_b 96.1180
_cell_length_c 95.3206
_cell_angle_alpha 90.049300
_cell_angle_beta 90.067200
_cell_angle_gamma 89.964700
loop_
  _atom_site_label
  _atom_site_type_symbol
  _atom_site_fract_x
  _atom_site_fract_y
  _atom_site_fract_z
C1 C 0.32171 0.44623 0.92915
 C2 C 0.31543 0.45179 0.91709
 C3 C 0.30339 0.44569 0.91137
 C4 C 0.29754 0.43402 0.91799
 C5 C 0.30367 0.42838 0.93008
 C6 C 0.31580 0.43450 0.93568
 C7 C 0.33390 0.45214 0.93464
 C8 C 0.34051 0.44651 0.94663
 C9 C 0.33431 0.43481 0.95311
 C10 C 0.32213 0.42879 0.94770
 C11 C 0.31634 0.41693 0.95399
 C12 C 0.30432 0.41068 0.94841
 C13 C 0.29799 0.41655 0.93649
 H14 H 0.32014 0.46065 0.91192
 H15 H 0.28818 0.42933 0.91375
 H16 H 0.33789 0.46144 0.92968
 H17 H 0.33925 0.42979 0.96196
 H18 H 0.32120 0.41256 0.96326
 H19 H 0.28884 0.41169 0.93198
 C20 C 0.44577 0.82223 0.42825
 C21 C 0.45164 0.83410 0.43445
 C22 C 0.44586 0.84009 0.44670
 C23 C 0.43407 0.83359 0.45269
 C24 C 0.42810 0.82171 0.44659
 C25 C 0.43395 0.81603 0.43431
 C26 C 0.45137 0.81666 0.41586
 C27 C 0.44529 0.80497 0.40943
 C28 C 0.43359 0.79876 0.41565
 C29 C 0.42785 0.80423 0.42800
 C30 C 0.41599 0.79820 0.43400
 C31 C 0.41003 0.80386 0.44620
 C32 C 0.41623 0.81556 0.45249
 H33 H 0.46031 0.83899 0.42917
 H34 H 0.42964 0.83741 0.46238
 H35 H 0.46027 0.82163 0.41102
 H36 H 0.42893 0.78964 0.41087
 H37 H 0.41138 0.78909 0.42916
 H38 H 0.41158 0.82012 0.46177
 C39 C 0.94611 0.92849 0.82032
 C40 C 0.95197 0.91666 0.81400
 C41 C 0.94573 0.91035 0.80214
 C42 C 0.93353 0.91652 0.79662
 C43 C 0.92760 0.92834 0.80284
 C44 C 0.93391 0.93435 0.81473
 C45 C 0.95220 0.93435 0.83234
 C46 C 0.94628 0.94608 0.83905
 C47 C 0.93410 0.95192 0.83311
 C48 C 0.92792 0.94615 0.82111
 C49 C 0.91560 0.95181 0.81560
 C50 C 0.90919 0.94583 0.80378
 C51 C 0.91534 0.93416 0.79740
 H52 H 0.96099 0.91202 0.81893
 H53 H 0.92872 0.91245 0.78720
 H54 H 0.96185 0.92990 0.83612
 H55 H 0.92888 0.96056 0.83815
 H56 H 0.91082 0.96068 0.82071
 H57 H 0.91056 0.92959 0.78818
 C58 C 0.44751 -0.07170 0.31910
 C59 C 0.45302 -0.08384 0.31311
 C60 C 0.44675 -0.08989 0.30124
 C61 C 0.43501 -0.08349 0.29523
 C62 C 0.42939 -0.07135 0.30112
 C63 C 0.43564 -0.06542 0.31310
 C64 C 0.45351 -0.06590 0.33118
 C65 C 0.44776 -0.05395 0.33744
 C66 C 0.43600 -0.04769 0.33132
 C67 C 0.42989 -0.05335 0.31922
 C68 C 0.41790 -0.04735 0.31337
 C69 C 0.41154 -0.05329 0.30149
 C70 C 0.41745 -0.06522 0.29536
 H71 H 0.46194 -0.08882 0.31794
 H72 H 0.43021 -0.08799 0.28599
 H73 H 0.46266 -0.07071 0.33574
 H74 H 0.43136 -0.03861 0.33620
 H75 H 0.41330 -0.03829 0.31829
 H76 H 0.41271 -0.06977 0.28611
 C77 C 0.82287 0.30498 0.32201
 C78 C 0.81649 0.29905 0.33381
 C79 C 0.80452 0.30512 0.33970
 C80 C 0.79884 0.31712 0.33350
 C81 C 0.80510 0.32316 0.32171
 C82 C 0.81717 0.31709 0.31593
 C83 C 0.83499 0.29912 0.31635
 C84 C 0.84158 0.30523 0.30471
 C85 C 0.83577 0.31725 0.29864
 C86 C 0.82364 0.32323 0.30419
 C87 C 0.81803 0.33541 0.29835
 C88 C 0.80606 0.34158 0.30413
 C89 C 0.79961 0.33531 0.31575
 H90 H 0.82107 0.28993 0.33865
 H91 H 0.78952 0.32177 0.33787
 H92 H 0.83930 0.28977 0.32099
 H93 H 0.84089 0.32214 0.28981
 H94 H 0.82319 0.34028 0.28952
 H95 H 0.79028 0.33990 0.32016
 C96 C -0.19616 0.82278 0.82122
 C97 C -0.20174 0.83498 0.81541
 C98 C -0.19564 0.84134 0.80352
 C99 C -0.18382 0.83488 0.79750
 C100 C -0.17815 0.82268 0.80321
 C101 C -0.18432 0.81662 0.81513
 C102 C -0.20206 0.81685 0.83329
 C103 C -0.19627 0.80484 0.83935
 C104 C -0.18457 0.79865 0.83307
 C105 C -0.17853 0.80448 0.82106
 C106 C -0.16665 0.79849 0.81504
 C107 C -0.16035 0.80453 0.80322
 C108 C -0.16626 0.81656 0.79729
 H109 H -0.21043 0.83981 0.82073
 H110 H -0.17915 0.83901 0.78806
 H111 H -0.21096 0.82180 0.83817
 H112 H -0.18013 0.78928 0.83756
 H113 H -0.16228 0.78912 0.81959
 H114 H -0.16135 0.82140 0.78830
 C115 C 0.92620 0.32364 0.44522
 C116 C 0.93208 0.33568 0.45108
 C117 C 0.94378 0.34218 0.44492
 C118 C 0.94956 0.33602 0.43275
 C119 C 0.94379 0.32397 0.42681
 C120 C 0.93205 0.31777 0.43305
 C121 C 0.91445 0.31747 0.45134
 C122 C 0.90836 0.30556 0.44535
 C123 C 0.91430 0.29972 0.43322
 C124 C 0.92606 0.30576 0.42702
 C125 C 0.93181 0.30010 0.41476
 C126 C 0.94345 0.30629 0.40838
 C127 C 0.94941 0.31819 0.41453
 H128 H 0.92767 0.33962 0.46073
 H129 H 0.95817 0.34089 0.42734
 H130 H 0.91003 0.32194 0.46078
 H131 H 0.90955 0.29067 0.42840
 H132 H 0.92725 0.29082 0.41021
 H133 H 0.95826 0.32314 0.40957
 C134 C 0.42689 0.44435 0.82234
 C135 C 0.43257 0.45008 0.83461
 C136 C 0.44419 0.44392 0.84111
 C137 C 0.45020 0.43199 0.83508
 C138 C 0.44464 0.42614 0.82281
 C139 C 0.43292 0.43232 0.81643
 C140 C 0.41511 0.45032 0.81604
 C141 C 0.40920 0.44438 0.80393
 C142 C 0.41535 0.43245 0.79803
 C143 C 0.42712 0.42636 0.80422
 C144 C 0.43304 0.41429 0.79851
 C145 C 0.44464 0.40798 0.80488
 C146 C 0.45043 0.41403 0.81700
 H147 H 0.42797 0.45937 0.83909
 H148 H 0.45903 0.42705 0.84014
 H149 H 0.41032 0.45938 0.82079
 H150 H 0.41096 0.42790 0.78861
 H151 H 0.42861 0.40979 0.78908
 H152 H 0.45924 0.40913 0.82210
 C153 C 0.82165 0.92819 0.94747
 C154 C 0.81555 0.91634 0.95349
 C155 C 0.80374 0.90994 0.94738
 C156 C 0.79804 0.91605 0.93516
 C157 C 0.80403 0.92789 0.92907
 C158 C 0.81588 0.93399 0.93524
 C159 C 0.83361 0.93415 0.95342
 C160 C 0.84009 0.94590 0.94733
 C161 C 0.83398 0.95167 0.93513
 C162 C 0.82203 0.94580 0.92908
 C163 C 0.81634 0.95138 0.91674
 C164 C 0.80456 0.94530 0.91046
 C165 C 0.79841 0.93363 0.91679
 H166 H 0.82061 0.91176 0.96252
 H167 H 0.78865 0.91193 0.93047
 H168 H 0.83754 0.92975 0.96310
 H169 H 0.83883 0.96031 0.92977
 H170 H 0.82127 0.96026 0.91182
 H171 H 0.78923 0.92898 0.91212
 C172 C 0.32323 0.82246 0.30394
 C173 C 0.31737 0.83439 0.29783
 C174 C 0.30528 0.84067 0.30349
 C175 C 0.29910 0.83438 0.31537
 C176 C 0.30488 0.82249 0.32158
 C177 C 0.31699 0.81650 0.31587
 C178 C 0.33545 0.81657 0.29846
 C179 C 0.34154 0.80482 0.30477
 C180 C 0.33515 0.79888 0.31661
 C181 C 0.32296 0.80464 0.32221
 C182 C 0.31676 0.79888 0.33418
 C183 C 0.30471 0.80484 0.33999
 C184 C 0.29877 0.81658 0.33353
 H185 H 0.32277 0.83909 0.28909
 H186 H 0.28950 0.83841 0.31968
 H187 H 0.34042 0.82134 0.28947
 H188 H 0.33967 0.78972 0.32144
 H189 H 0.32154 0.78995 0.33920
 H190 H 0.28939 0.82115 0.33785
 C191 C 0.82383 0.42633 0.44555
 C192 C 0.81769 0.41464 0.45180
 C193 C 0.80571 0.40853 0.44596
 C194 C 0.79977 0.41440 0.43385
 C195 C 0.80577 0.42612 0.42752
 C196 C 0.81784 0.43211 0.43339
 C197 C 0.83593 0.43223 0.45124
 C198 C 0.84240 0.44387 0.44494
 C199 C 0.83613 0.44958 0.43279
 C200 C 0.82400 0.44379 0.42702
 C201 C 0.81813 0.44934 0.41475
 C202 C 0.80616 0.44337 0.40876
 C203 C 0.80000 0.43179 0.41527
 H204 H 0.82225 0.41026 0.46122
 H205 H 0.79067 0.40964 0.42914
 H206 H 0.83998 0.42787 0.46089
 H207 H 0.84097 0.45814 0.42728
 H208 H 0.82306 0.45814 0.40968
 H209 H 0.79068 0.42721 0.41081
 C210 C 0.94663 0.82114 -0.07049
 C211 C 0.95244 0.83317 -0.06451
 C212 C 0.94647 0.83929 -0.05253
 C213 C 0.93468 0.83311 -0.04643
 C214 C 0.92874 0.82113 -0.05232
 C215 C 0.93471 0.81513 -0.06441
 C216 C 0.95238 0.81527 -0.08266
 C217 C 0.94638 0.80341 -0.08908
 C218 C 0.93449 0.79747 -0.08269
 C219 C 0.92865 0.80325 -0.07052
 C220 C 0.91667 0.79741 -0.06450
 C221 C 0.91058 0.80340 -0.05251
 C222 C 0.91677 0.81520 -0.04643
 H223 H 0.96140 0.83798 -0.06940
 H224 H 0.93011 0.83765 -0.03710
 H225 H 0.96113 0.82051 -0.08744
 H226 H 0.92989 0.78806 -0.08684
 H227 H 0.91184 0.78844 -0.06939
 H228 H 0.91225 0.81979 -0.03709
 C229 C 0.32327 0.32201 0.80349
 C230 C 0.31734 0.33386 0.79730
 C231 C 0.30530 0.33998 0.80299
 C232 C 0.29911 0.33399 0.81492
 C233 C 0.30492 0.32215 0.82122
 C234 C 0.31706 0.31615 0.81551
 C235 C 0.33546 0.31610 0.79800
 C236 C 0.34160 0.30443 0.80441
 C237 C 0.33527 0.29858 0.81631
 C238 C 0.32309 0.30438 0.82192
 C239 C 0.31699 0.29872 0.83399
 C240 C 0.30498 0.30472 0.83984
 C241 C 0.29895 0.31639 0.83332
 H242 H 0.32210 0.33831 0.78803
 H243 H 0.28997 0.33877 0.81951
 H244 H 0.34038 0.32081 0.78894
 H245 H 0.33983 0.28948 0.82122
 H246 H 0.32161 0.28963 0.83884
 H247 H 0.28980 0.32121 0.83788
 C248 C 0.17716 0.55550 0.57221
 C249 C 0.16535 0.54954 0.56596
 C250 C 0.15941 0.55546 0.55386
 C251 C 0.16553 0.56737 0.54795
 C252 C 0.17730 0.57347 0.55410
 C253 C 0.18315 0.56753 0.56629
 C254 C 0.18289 0.54979 0.58446
 C255 C 0.19452 0.55596 0.59092
 C256 C 0.20049 0.56789 0.58488
 C257 C 0.19487 0.57373 0.57264
 C258 C 0.20065 0.58580 0.56679
 C259 C 0.19483 0.59184 0.55470
 C260 C 0.18320 0.58553 0.54837
 H261 H 0.16058 0.54048 0.57071
 H262 H 0.16111 0.57191 0.53854
 H263 H 0.17809 0.54071 0.58916
 H264 H 0.20955 0.57262 0.58970
 H265 H 0.20948 0.59070 0.57187
 H266 H 0.17874 0.59002 0.53895
 C267 C 0.57214 0.69665 0.07008
 C268 C 0.58430 0.70221 0.06420
 C269 C 0.59043 0.69604 0.05234
 C270 C 0.58413 0.68429 0.04625
 C271 C 0.57198 0.67860 0.05202
 C272 C 0.56595 0.68479 0.06398
 C273 C 0.56624 0.70258 0.08213
 C274 C 0.55426 0.69679 0.08825
 C275 C 0.54808 0.68504 0.08203
 C276 C 0.55385 0.67899 0.06997
 C277 C 0.54791 0.66704 0.06400
 C278 C 0.55392 0.66075 0.05214
 C279 C 0.56590 0.66668 0.04615
 H280 H 0.58920 0.71114 0.06910
 H281 H 0.58871 0.67955 0.03702
 H282 H 0.57099 0.71173 0.08676
 H283 H 0.53898 0.68038 0.08680
 H284 H 0.53881 0.66242 0.06882
 H285 H 0.57052 0.66199 0.03691
 C286 C 0.69631 0.17790 0.67835
 C287 C 0.70167 0.18370 0.66598
 C288 C 0.69528 0.19531 0.65973
 C289 C 0.68351 0.20125 0.66614
 C290 C 0.67807 0.19560 0.67855
 C291 C 0.68449 0.18386 0.68467
 C292 C 0.70253 0.16612 0.68436
 C293 C 0.69709 0.15995 0.69666
 C294 C 0.68530 0.16622 0.70292
 C295 C 0.67900 0.17801 0.69701
 C296 C 0.66705 0.18383 0.70310
 C297 C 0.66048 0.19543 0.69700
 C298 C 0.66613 0.20131 0.68476
 H299 H 0.71084 0.17916 0.66120
 H300 H 0.67839 0.21007 0.66130
 H301 H 0.71189 0.16208 0.67953
 H302 H 0.68043 0.16159 0.71202
 H303 H 0.66286 0.17934 0.71262
 H304 H 0.66103 0.21012 0.67987
 C305 C 1.07401 0.05477 0.17731
 C306 C 1.08608 0.04910 0.18334
 C307 C 1.09203 0.05509 0.19539
 C308 C 1.08565 0.06677 0.20152
 C309 C 1.07358 0.07254 0.19563
 C310 C 1.06772 0.06651 0.18348
 C311 C 1.06826 0.04895 0.16512
 C312 C 1.05624 0.05468 0.15876
 C313 C 1.05002 0.06640 0.16522
 C314 C 1.05567 0.07232 0.17743
 C315 C 1.04962 0.08418 0.18348
 C316 C 1.05545 0.09033 0.19553
 C317 C 1.06739 0.08435 0.20159
 H318 H 1.09105 0.04022 0.17842
 H319 H 1.09008 0.07137 0.21090
 H320 H 1.07304 0.03963 0.16093
 H321 H 1.04115 0.07149 0.16047
 H322 H 1.04054 0.08884 0.17863
 H323 H 1.07187 0.08891 0.21097
 C324 C 0.05534 0.17657 1.07167
 C325 C 0.04952 0.16447 1.06586
 C326 C 0.05557 0.15787 1.05407
 C327 C 0.06760 0.16397 1.04814
 C328 C 0.07354 0.17604 1.05387
 C329 C 0.06740 0.18236 1.06567
 C330 C 0.04945 0.18276 1.08361
 C331 C 0.05547 0.19469 1.08965
 C332 C 0.06741 0.20049 1.08349
 C333 C 0.07343 0.19440 1.07158
 C334 C 0.08551 0.20004 1.06563
 C335 C 0.09174 0.19377 1.05387
 C336 C 0.08561 0.18181 1.04800
 H337 H 0.04064 0.15992 1.07111
 H338 H 0.07226 0.15967 1.03876
 H339 H 0.04036 0.17810 1.08841
 H340 H 0.07203 0.20978 1.08796
 H341 H 0.09028 0.20912 1.07037
 H342 H 0.09027 0.17700 1.03885
 C343 C 0.17514 0.67520 0.69470
 C344 C 0.16313 0.68114 0.70053
 C345 C 0.15701 0.69300 0.69446
 C346 C 0.16316 0.69900 0.68253
 C347 C 0.17520 0.69319 0.67661
 C348 C 0.18121 0.68123 0.68269
 C349 C 0.18109 0.66323 0.70061
 C350 C 0.19299 0.65711 0.69463
 C351 C 0.19902 0.66323 0.68270
 C352 C 0.19320 0.67521 0.67668
 C353 C 0.19905 0.68115 0.66462
 C354 C 0.19308 0.69302 0.65842
 C355 C 0.18118 0.69901 0.66454
 H356 H 0.15855 0.67654 0.70982
 H357 H 0.15840 0.70801 0.67767
 H358 H 0.17646 0.65868 0.70990
 H359 H 0.20807 0.65847 0.67790
 H360 H 0.20832 0.67656 0.66007
 H361 H 0.17638 0.70803 0.65972
 C362 C 1.19484 0.17603 0.17747
 C363 C 1.20071 0.16402 0.18339
 C364 C 1.19490 0.15776 0.19547
 C365 C 1.18309 0.16413 0.20158
 C366 C 1.17713 0.17613 0.19575
 C367 C 1.18300 0.18211 0.18365
 C368 C 1.20049 0.18190 0.16527
 C369 C 1.19446 0.19376 0.15913
 C370 C 1.18272 0.19984 0.16545
 C371 C 1.17694 0.19409 0.17765
 C372 C 1.16504 0.19997 0.18377
 C373 C 1.15907 0.19402 0.19582
 C374 C 1.16526 0.18216 0.20180
 H375 H 1.20940 0.15925 0.17802
 H376 H 1.17864 0.16010 0.21117
 H377 H 1.20964 0.17725 0.16055
 H378 H 1.17787 0.20887 0.16069
 H379 H 1.16022 0.20898 0.17896
 H380 H 1.16082 0.17761 0.21118
 C381 C 0.67680 1.07356 0.55427
 C382 C 0.66466 1.06782 0.54847
 C383 C 0.65848 1.05596 0.55444
 C384 C 0.66469 1.04976 0.56624
 C385 C 0.67682 1.05538 0.57216
 C386 C 0.68287 1.06736 0.56617
 C387 C 0.68277 1.08557 0.54847
 C388 C 0.69479 1.09171 0.55443
 C389 C 0.70079 1.08521 0.56630
 C390 C 0.69491 1.07321 0.57219
 C391 C 0.70084 1.06705 0.58412
 C392 C 0.69481 1.05520 0.59024
 C393 C 0.68283 1.04938 0.58413
 H394 H 0.66002 1.07257 0.53927
 H395 H 0.65989 1.04074 0.57104
 H396 H 0.67749 1.09044 0.53973
 H397 H 0.71033 1.08914 0.57086
 H398 H 0.71018 1.07151 0.58867
 H399 H 0.67798 1.04037 0.58889
 C400 C 0.55311 0.57068 0.18048
 C401 C 0.54724 0.56480 0.16837
 C402 C 0.55319 0.55295 0.16213
 C403 C 0.56502 0.54687 0.16830
 C404 C 0.57104 0.55265 0.18037
 C405 C 0.56509 0.56461 0.18649
 C406 C 0.54741 0.58274 0.18647
 C407 C 0.55354 0.58888 0.19837
 C408 C 0.56541 0.58268 0.20436
 C409 C 0.57124 0.57063 0.19849
 C410 C 0.58330 0.56468 0.20425
 C411 C 0.58937 0.55283 0.19812
 C412 C 0.58307 0.54681 0.18625
 H413 H 0.53824 0.56968 0.16357
 H414 H 0.56959 0.53763 0.16366
 H415 H 0.53841 0.58757 0.18164
 H416 H 0.57012 0.58726 0.21361
 H417 H 0.58819 0.56951 0.21327
 H418 H 0.58758 0.53758 0.18155
 C419 C 0.67820 0.69571 0.17862
 C420 C 0.66621 0.70160 0.18458
 C421 C 0.66028 0.69588 0.19676
 C422 C 0.66662 0.68428 0.20309
 C423 C 0.67857 0.67826 0.19724
 C424 C 0.68439 0.68397 0.18495
 C425 C 0.68390 0.70118 0.16626
 C426 C 0.69570 0.69504 0.16009
 C427 C 0.70186 0.68341 0.16653
 C428 C 0.69628 0.67782 0.17888
 C429 C 0.70223 0.66600 0.18511
 C430 C 0.69641 0.66018 0.19729
 C431 C 0.68465 0.66647 0.20336
 H432 H 0.66128 0.71041 0.17951
 H433 H 0.66222 0.67991 0.21258
 H434 H 0.67895 0.71001 0.16125
 H435 H 0.71104 0.67870 0.16193
 H436 H 0.71117 0.66110 0.18024
 H437 H 0.68018 0.66214 0.21284
 C438 C 0.17516 0.05721 1.07371
 C439 C 0.16319 0.05138 1.06764
 C440 C 0.15690 0.05736 1.05564
 C441 C 0.16319 0.06932 1.04978
 C442 C 0.17517 0.07521 1.05574
 C443 C 0.18118 0.06913 1.06774
 C444 C 0.18106 0.05132 1.08581
 C445 C 0.19300 0.05716 1.09221
 C446 C 0.19898 0.06907 1.08592
 C447 C 0.19316 0.07505 1.07383
 C448 C 0.19901 0.08707 1.06792
 C449 C 0.19304 0.09325 1.05597
 C450 C 0.18117 0.08717 1.04989
 H451 H 0.15845 0.04257 1.07283
 H452 H 0.15914 0.07392 1.04026
 H453 H 0.17649 0.04186 1.08986
 H454 H 0.20778 0.07424 1.09070
 H455 H 0.20804 0.09180 1.07279
 H456 H 0.17660 0.09176 1.04058
 C457 C 0.57318 0.17620 0.55435
 C458 C 0.58533 0.18200 0.54868
 C459 C 0.59136 0.19393 0.55469
 C460 C 0.58499 0.20014 0.56641
 C461 C 0.57285 0.19447 0.57220
 C462 C 0.56693 0.18244 0.56618
 C463 C 0.56736 0.16410 0.54858
 C464 C 0.55538 0.15809 0.55449
 C465 C 0.54914 0.16446 0.56619
 C466 C 0.55486 0.17653 0.57210
 C467 C 0.54881 0.18267 0.58397
 C468 C 0.55472 0.19459 0.59011
 C469 C 0.56670 0.20048 0.58409
 H470 H 0.59028 0.17702 0.53978
 H471 H 0.58948 0.20943 0.57101
 H472 H 0.57235 0.15915 0.53969
 H473 H 0.53981 0.16000 0.57071
 H474 H 0.53949 0.17815 0.58845
 H475 H 0.57145 0.20954 0.58888
 C476 C 0.07342 0.55577 0.67781
 C477 C 0.08545 0.55013 0.68391
 C478 C 0.09163 0.55647 0.69567
 C479 C 0.08551 0.56849 0.70140
 C480 C 0.07347 0.57425 0.69541
 C481 C 0.06739 0.56787 0.68357
 C482 C 0.06746 0.54962 0.66589
 C483 C 0.05557 0.55542 0.65957
 C484 C 0.04955 0.56743 0.66545
 C485 C 0.05539 0.57370 0.67738
 C486 C 0.04957 0.58585 0.68305
 C487 C 0.05562 0.59232 0.69482
 C488 C 0.06752 0.58638 0.70098
 H489 H 0.09022 0.54100 0.67928
 H490 H 0.09011 0.57337 0.71056
 H491 H 0.07207 0.54027 0.66153
 H492 H 0.04050 0.57209 0.66053
 H493 H 0.04052 0.59047 0.67810
 H494 H 0.07216 0.59120 0.71015
 C495 C 0.67749 0.57306 0.05315
 C496 C 0.66549 0.56710 0.04731
 C497 C 0.65947 0.55517 0.05331
 C498 C 0.66574 0.54911 0.06517
 C499 C 0.67777 0.55494 0.07111
 C500 C 0.68366 0.56698 0.06510
 C501 C 0.68328 0.58515 0.04735
 C502 C 0.69513 0.59133 0.05338
 C503 C 0.70128 0.58514 0.06523
 C504 C 0.69561 0.57305 0.07114
 C505 C 0.70154 0.56709 0.08316
 C506 C 0.69567 0.55516 0.08931
 C507 C 0.68382 0.54910 0.08314
 H508 H 0.66082 0.57175 0.03808
 H509 H 0.66106 0.54004 0.06999
 H510 H 0.67856 0.58976 0.03813
 H511 H 0.71028 0.58995 0.07009
 H512 H 0.71077 0.57174 0.08775
 H513 H 0.67910 0.54003 0.08792
 C514 C 0.05544 0.67666 0.57203
 C515 C 0.04951 0.68240 0.58417
 C516 C 0.05554 0.69405 0.59071
 C517 C 0.06756 0.70004 0.58487
 C518 C 0.07362 0.69440 0.57275
 C519 C 0.06755 0.68267 0.56630
 C520 C 0.04957 0.66488 0.56567
 C521 C 0.05569 0.65893 0.55369
 C522 C 0.06772 0.66504 0.54798
 C523 C 0.07370 0.67684 0.55421
 C524 C 0.08585 0.68275 0.54869
 C525 C 0.09203 0.69439 0.55512
 C526 C 0.08578 0.70019 0.56712
 H527 H 0.04016 0.67781 0.58852
 H528 H 0.07241 0.70888 0.58997
 H529 H 0.04044 0.66011 0.57028
 H530 H 0.07242 0.66061 0.53866
 H531 H 0.09071 0.67808 0.53957
 H532 H 0.09038 0.70926 0.57205
 C533 C 0.55400 1.07181 0.67766
 C534 C 0.54831 1.06599 0.66544
 C535 C 0.55433 1.05414 0.65903
 C536 C 0.56615 1.04814 0.66550
 C537 C 0.57194 1.05387 0.67773
 C538 C 0.56586 1.06575 0.68384
 C539 C 0.54806 1.08372 0.68372
 C540 C 0.55392 1.08979 0.69578
 C541 C 0.56573 1.08364 0.70192
 C542 C 0.57174 1.07168 0.69603
 C543 C 0.58372 1.06574 0.70195
 C544 C 0.58995 1.05397 0.69584
 C545 C 0.58392 1.04805 0.68378
 H546 H 0.53890 1.07058 0.66125
 H547 H 0.57145 1.03941 0.66072
 H548 H 0.53887 1.08830 0.67901
 H549 H 0.57045 1.08836 0.71110
 H550 H 0.58840 1.07050 0.71113
 H551 H 0.58856 1.03887 0.67910
 C552 C 0.42730 0.32365 0.94622
 C553 C 0.43322 0.33568 0.95205
 C554 C 0.44494 0.34213 0.94586
 C555 C 0.45069 0.33591 0.93371
 C556 C 0.44485 0.32390 0.92779
 C557 C 0.43311 0.31773 0.93404
 C558 C 0.41543 0.31761 0.95224
 C559 C 0.40927 0.30575 0.94624
 C560 C 0.41523 0.29982 0.93416
 C561 C 0.42709 0.30574 0.92802
 C562 C 0.43285 0.30002 0.91578
 C563 C 0.44455 0.30615 0.90945
 C564 C 0.45054 0.31803 0.91560
 H565 H 0.42812 0.34032 0.96102
 H566 H 0.46001 0.34010 0.92896
 H567 H 0.41100 0.32214 0.96165
 H568 H 0.41044 0.29080 0.92934
 H569 H 0.42803 0.29099 0.91101
 H570 H 0.45965 0.32271 0.91087
 C571 C 0.92678 0.44380 0.32273
 C572 C 0.93287 0.44953 0.33481
 C573 C 0.94480 0.44346 0.34104
 C574 C 0.95057 0.43152 0.33458
 C575 C 0.94458 0.42570 0.32250
 C576 C 0.93263 0.43183 0.31657
 C577 C 0.91472 0.44969 0.31691
 C578 C 0.90842 0.44377 0.30500
 C579 C 0.91443 0.43192 0.29882
 C580 C 0.92644 0.42589 0.30455
 C581 C 0.93224 0.41390 0.29855
 C582 C 0.94413 0.40767 0.30444
 C583 C 0.95029 0.41371 0.31637
 H584 H 0.92775 0.45833 0.33967
 H585 H 0.96003 0.42687 0.33858
 H586 H 0.91004 0.45871 0.32185
 H587 H 0.90974 0.42738 0.28954
 H588 H 0.92751 0.40941 0.28926
 H589 H 0.95932 0.40885 0.32110
 C590 C 0.32132 0.94652 0.42956
 C591 C 0.31530 0.95206 0.41735
 C592 C 0.30344 0.94590 0.41133
 C593 C 0.29751 0.93416 0.41777
 C594 C 0.30342 0.92849 0.42995
 C595 C 0.31539 0.93467 0.43584
 C596 C 0.33338 0.95246 0.43533
 C597 C 0.33982 0.94672 0.44737
 C598 C 0.33356 0.93493 0.45361
 C599 C 0.32154 0.92888 0.44792
 C600 C 0.31567 0.91699 0.45406
 C601 C 0.30382 0.91068 0.44818
 C602 C 0.29769 0.91657 0.43617
 H603 H 0.32006 0.96098 0.41234
 H604 H 0.28828 0.92943 0.41329
 H605 H 0.33804 0.96115 0.42987
 H606 H 0.33773 0.93055 0.46319
 H607 H 0.32036 0.91261 0.46341
 H608 H 0.28869 0.91167 0.43143
 O609 O 0.25083 0.48102 0.78726
 O610 O 0.22707 0.48286 0.78287
 O611 O 0.26743 0.46230 0.75018
 O612 O 0.26776 0.46666 0.72711
 O613 O 0.28705 0.49849 0.76792
 O614 O 0.28197 0.52273 0.76724
 O615 O 0.23126 0.50056 0.71363
 O616 O 0.23397 0.47682 0.71724
 O617 O 0.21352 0.51749 0.74944
 O618 O 0.21845 0.51627 0.77469
 O619 O 0.24864 0.53593 0.73239
 O620 O 0.27352 0.53122 0.73291
 O621 O 0.24801 0.51728 0.71369
 O622 O 0.27391 0.51573 0.71863
 O623 O 0.23212 0.53591 0.74939
 O624 O 0.23392 0.53045 0.77522
 O625 O 0.21344 0.50125 0.73212
 O626 O 0.21782 0.47597 0.73651
 O627 O 0.26735 0.49800 0.78751
 O628 O 0.26627 0.52275 0.78253
 O629 O 0.28702 0.48199 0.75084
 O630 O 0.28116 0.48445 0.72551
 O631 O 0.25116 0.46217 0.76746
 O632 O 0.22602 0.46768 0.76444
 Zr633 Zr 0.24240 0.48228 0.76694
 O634 O 0.22897 0.49491 0.75498
 Zr635 Zr 0.26682 0.48271 0.74225
 O636 O 0.25418 0.49491 0.72904
 Zr637 Zr 0.26680 0.50681 0.76725
 O638 O 0.25458 0.52034 0.75496
 Zr639 Zr 0.23308 0.49167 0.73363
 O640 O 0.24566 0.47794 0.74551
 Zr641 Zr 0.23345 0.51600 0.75845
 O642 O 0.24570 0.50342 0.77183
 Zr643 Zr 0.25761 0.51601 0.73355
 O644 O 0.27137 0.50382 0.74586
 O645 O 0.26346 0.48583 0.76350
 O646 O 0.23653 0.51278 0.73710
 C647 C 0.26046 0.48810 0.79338
 C648 C 0.26069 0.45626 0.76010
 C649 C 0.29301 0.48888 0.76071
 C650 C 0.23794 0.51061 0.70782
 C651 C 0.20768 0.51111 0.73915
 C652 C 0.23873 0.54174 0.73927
 H653 H 0.21919 0.49264 0.75724
 H654 H 0.25692 0.53008 0.75728
 H655 H 0.26944 0.47981 0.76939
 H656 H 0.25618 0.49264 0.71912
 H657 H 0.23694 0.46794 0.72158
 H658 H 0.26052 0.46872 0.72005
 H659 H 0.24169 0.53698 0.77352
 H660 H 0.25718 0.52197 0.78734
 H661 H 0.21118 0.47652 0.72856
 H662 H 0.22695 0.46041 0.77177
 H663 H 0.27320 0.53644 0.74184
 H664 H 0.28620 0.52269 0.75777
 H665 H 0.22723 0.49237 0.78686
 H666 H 0.21275 0.50775 0.77379
 H667 H 0.28673 0.49295 0.72727
 H668 H 0.27199 0.50815 0.71187
 O669 O 0.26928 -0.03710 0.24998
 O670 O 0.26726 -0.03242 0.22611
 O671 O 0.28807 -0.00064 0.26727
 O672 O 0.28372 0.02219 0.26820
 O673 O 0.25183 -0.01848 0.28684
 O674 O 0.22759 -0.01769 0.28174
 O675 O 0.24985 0.03631 0.23168
 O676 O 0.27357 0.03255 0.23428
 O677 O 0.23269 0.00124 0.21312
 O678 O 0.23389 -0.02391 0.21754
 O679 O 0.21440 0.01751 0.24892
 O680 O 0.21918 0.01662 0.27393
 O681 O 0.23311 0.03603 0.24853
 O682 O 0.23474 0.03067 0.27459
 O683 O 0.21432 0.00093 0.23194
 O684 O 0.21977 -0.02471 0.23318
 O685 O 0.24901 0.01832 0.21336
 O686 O 0.27430 0.01373 0.21762
 O687 O 0.25232 -0.03757 0.26663
 O688 O 0.22754 -0.03257 0.26562
 O689 O 0.26842 -0.00165 0.28711
 O690 O 0.26595 0.02359 0.28171
 O691 O 0.28812 -0.01746 0.25049
 O692 O 0.28246 -0.01418 0.22525
 Zr693 Zr 0.26795 -0.01683 0.24181
 O694 O 0.25533 -0.00468 0.22853
 Zr695 Zr 0.26766 0.00723 0.26692
 O696 O 0.25547 0.02061 0.25446
 Zr697 Zr 0.24350 -0.01746 0.26645
 O698 O 0.22997 -0.00500 0.25440
 Zr699 Zr 0.25864 0.01640 0.23309
 O700 O 0.27236 0.00434 0.24551
 Zr701 Zr 0.23424 -0.00810 0.23302
 O702 O 0.24681 -0.02165 0.24507
 Zr703 Zr 0.23435 0.01616 0.25786
 O704 O 0.24654 0.00366 0.27147
 O705 O 0.26449 -0.01376 0.26311
 O706 O 0.23752 0.01299 0.23654
 C707 C 0.26224 -0.04330 0.25960
 C708 C 0.29409 -0.01032 0.26020
 C709 C 0.26148 -0.01148 0.29298
 C710 C 0.23981 0.04199 0.23851
 C711 C 0.23909 0.01153 0.20744
 C712 C 0.20852 0.01085 0.23883
 H713 H 0.25757 -0.00675 0.21861
 H714 H 0.22023 -0.00731 0.25674
 H715 H 0.27053 -0.01970 0.26902
 H716 H 0.25777 0.03040 0.25666
 H717 H 0.28245 0.02815 0.23717
 H718 H 0.28172 0.02928 0.26096
 H719 H 0.21332 -0.02319 0.24111
 H720 H 0.22834 -0.03721 0.25638
 H721 H 0.27375 0.02172 0.21108
 H722 H 0.28973 -0.02148 0.22603
 H723 H 0.21399 0.00775 0.27352
 H724 H 0.22765 -0.00839 0.28620
 H725 H 0.25773 -0.03632 0.22623
 H726 H 0.24242 -0.02297 0.21183
 H727 H 0.25749 0.02176 0.28731
 H728 H 0.24229 0.03741 0.27272
 O729 O 0.53725 0.73191 0.24888
 O730 O 0.53279 0.73400 0.27280
 O731 O 0.50084 0.71247 0.23215
 O732 O 0.47791 0.71651 0.23158
 O733 O 0.51792 0.74877 0.21209
 O734 O 0.51689 0.77304 0.21699
 O735 O 0.46382 0.75063 0.26793
 O736 O 0.46776 0.72692 0.26542
 O737 O 0.49894 0.76824 0.28589
 O738 O 0.52401 0.76731 0.28117
 O739 O 0.48207 0.78611 0.25007
 O740 O 0.48268 0.78100 0.22505
 O741 O 0.46371 0.76721 0.25092
 O742 O 0.46866 0.76544 0.22488
 O743 O 0.49885 0.78649 0.26685
 O744 O 0.52449 0.78127 0.26542
 O745 O 0.48209 0.75169 0.28602
 O746 O 0.48682 0.72644 0.28182
 O747 O 0.53729 0.74871 0.23205
 O748 O 0.53200 0.77339 0.23289
 O749 O 0.50129 0.73197 0.21215
 O750 O 0.47612 0.73414 0.21784
 O751 O 0.51787 0.71278 0.24872
 O752 O 0.51477 0.71856 0.27395
 Zr753 Zr 0.51704 0.73299 0.25726
 O754 O 0.50490 0.74557 0.27058
 Zr755 Zr 0.49267 0.73278 0.23246
 O756 O 0.47930 0.74493 0.24497
 Zr757 Zr 0.51707 0.75725 0.23241
 O758 O 0.50461 0.77071 0.24451
 Zr759 Zr 0.48380 0.74199 0.26631
 O760 O 0.49588 0.72830 0.25386
 Zr761 Zr 0.50803 0.76665 0.26588
 O762 O 0.52157 0.75416 0.25376
 Zr763 Zr 0.48346 0.76607 0.24134
 O764 O 0.49592 0.75390 0.22769
 O765 O 0.51368 0.73624 0.23597
 O766 O 0.48692 0.76312 0.26265
 C767 C 0.54324 0.73896 0.23913
 C768 C 0.51070 0.70664 0.23914
 C769 C 0.51097 0.73900 0.20611
 C770 C 0.45796 0.76056 0.26109
 C771 C 0.48886 0.76171 0.29178
 C772 C 0.48883 0.79216 0.25998
 H773 H 0.50712 0.74342 0.28048
 H774 H 0.50679 0.78046 0.24205
 H775 H 0.51963 0.73024 0.23004
 H776 H 0.46951 0.74251 0.24292
 H777 H 0.47219 0.71807 0.26253
 H778 H 0.47079 0.71859 0.23875
 H779 H 0.52284 0.78762 0.25742
 H780 H 0.53676 0.77274 0.24208
 H781 H 0.47890 0.72694 0.28847
 H782 H 0.52216 0.71139 0.27315
 H783 H 0.49143 0.78640 0.22540
 H784 H 0.50755 0.77280 0.21262
 H785 H 0.53660 0.74355 0.27253
 H786 H 0.52326 0.75880 0.28695
 H787 H 0.47772 0.74264 0.21222
 H788 H 0.46211 0.75774 0.22683
 O789 O -0.01850 0.78770 0.75003
 O790 O -0.01656 0.78305 0.72614
 O791 O -0.03781 0.75143 0.76707
 O792 O -0.03376 0.72852 0.76780
 O793 O -0.00142 0.76872 0.78689
 O794 O 0.02285 0.76760 0.78188
 O795 O 0.00011 0.71416 0.73134
 O796 O -0.02360 0.71811 0.73397
 O797 O 0.01758 0.74912 0.71308
 O798 O 0.01666 0.77429 0.71773
 O799 O 0.03567 0.73245 0.74883
 O800 O 0.03085 0.73335 0.77390
 O801 O 0.01679 0.71418 0.74829
 O802 O 0.01520 0.71939 0.77435
 O803 O 0.03594 0.74908 0.73194
 O804 O 0.03085 0.77476 0.73333
 O805 O 0.00104 0.73225 0.71316
 O806 O -0.02418 0.73703 0.71743
 O807 O -0.00159 0.78790 0.76678
 O808 O 0.02310 0.78260 0.76588
 O809 O -0.01817 0.75204 0.78698
 O810 O -0.01604 0.72684 0.78143
 O811 O -0.03762 0.76835 0.75042
 O812 O -0.03202 0.76502 0.72519
 Zr813 Zr -0.01746 0.76744 0.74178
 O814 O -0.00497 0.75520 0.72847
 Zr815 Zr -0.01750 0.74327 0.76673
 O816 O -0.00543 0.72980 0.75425
 Zr817 Zr 0.00696 0.76767 0.76653
 O818 O 0.02036 0.75513 0.75442
 Zr819 Zr -0.00854 0.73414 0.73289
 O820 O -0.02214 0.74631 0.74533
 Zr821 Zr 0.01615 0.75836 0.73305
 O822 O 0.00373 0.77200 0.74516
 Zr823 Zr 0.01573 0.73401 0.75775
 O824 O 0.00366 0.74657 0.77138
 O825 O -0.01407 0.76424 0.76307
 O826 O 0.01262 0.73730 0.73643
 C827 C -0.01139 0.79378 0.75971
 C828 C -0.04369 0.76125 0.76007
 C829 C -0.01114 0.76178 0.79294
 C830 C 0.01008 0.70835 0.73817
 C831 C 0.01102 0.73896 0.70730
 C832 C 0.04162 0.73906 0.73878
 H833 H -0.00719 0.75734 0.71857
 H834 H 0.03012 0.75731 0.75681
 H835 H -0.02003 0.77024 0.76900
 H836 H -0.00783 0.72003 0.75637
 H837 H -0.03244 0.72258 0.73685
 H838 H -0.03175 0.72136 0.76063
 H839 H 0.03726 0.77314 0.74129
 H840 H 0.02243 0.78724 0.75663
 H841 H -0.02373 0.72905 0.71084
 H842 H -0.03918 0.77243 0.72597
 H843 H 0.03622 0.74211 0.77347
 H844 H 0.02264 0.75828 0.78629
 H845 H -0.00700 0.78687 0.72633
 H846 H 0.00818 0.77341 0.71191
 H847 H -0.00751 0.72849 0.78703
 H848 H 0.00753 0.71279 0.77245
 O849 O -0.00098 -0.01845 -0.03750
 O850 O 0.02278 -0.01649 -0.03315
 O851 O -0.01738 -0.03750 -0.00056
 O852 O -0.01777 -0.03329 0.02254
 O853 O -0.03725 -0.00123 -0.01795
 O854 O -0.03227 0.02303 -0.01707
 O855 O 0.01856 0.00062 0.03629
 O856 O 0.01595 -0.02310 0.03245
 O857 O 0.03620 0.01792 0.00068
 O858 O 0.03129 0.01680 -0.02462
 O859 O 0.00101 0.03610 0.01783
 O860 O -0.02386 0.03127 0.01731
 O861 O 0.00178 0.01732 0.03640
 O862 O -0.02412 0.01572 0.03149
 O863 O 0.01749 0.03626 0.00079
 O864 O 0.01578 0.03094 -0.02504
 O865 O 0.03636 0.00152 0.01782
 O866 O 0.03211 -0.02374 0.01317
 O867 O -0.01759 -0.00153 -0.03757
 O868 O -0.01661 0.02319 -0.03240
 O869 O -0.03712 -0.01788 -0.00104
 O870 O -0.03127 -0.01557 0.02428
 O871 O -0.00111 -0.03743 -0.01785
 O872 O 0.02397 -0.03182 -0.01488
 Zr873 Zr 0.00749 -0.01728 -0.01719
 O874 O 0.02087 -0.00470 -0.00511
 Zr875 Zr -0.01691 -0.01714 0.00753
 O876 O -0.00434 -0.00498 0.02085
 Zr877 Zr -0.01704 0.00715 -0.01724
 O878 O -0.00486 0.02062 -0.00485
 Zr879 Zr 0.01678 -0.00812 0.01621
 O880 O 0.00426 -0.02180 0.00420
 Zr881 Zr 0.01629 0.01639 -0.00838
 O882 O 0.00408 0.00388 -0.02188
 Zr883 Zr -0.00786 0.01615 0.01653
 O884 O -0.02157 0.00399 0.00413
 O885 O -0.01358 -0.01385 -0.01369
 O886 O 0.01324 0.01301 0.01293
 C887 C -0.01066 -0.01137 -0.04354
 C888 C -0.01058 -0.04345 -0.01052
 C889 C -0.04316 -0.01092 -0.01082
 C890 C 0.01187 0.01062 0.04219
 C891 C 0.04207 0.01147 0.01091
 C892 C 0.01086 0.04201 0.01095
 H893 H 0.03066 -0.00693 -0.00738
 H894 H -0.00725 0.03037 -0.00709
 H895 H -0.01955 -0.01986 -0.01962
 H896 H -0.00631 -0.00732 0.03075
 H897 H 0.01303 -0.03196 0.02802
 H898 H -0.01055 -0.03123 0.02963
 H899 H 0.00791 0.03736 -0.02335
 H900 H -0.00752 0.02247 -0.03722
 H901 H 0.03875 -0.02323 0.02113
 H902 H 0.02308 -0.03902 -0.02228
 H903 H -0.02355 0.03658 0.00843
 H904 H -0.03650 0.02289 -0.00760
 H905 H 0.02255 -0.00695 -0.03704
 H906 H 0.03706 0.00832 -0.02376
 H907 H -0.03684 -0.00706 0.02263
 H908 H -0.02217 0.00807 0.03815
 O909 O 0.00134 0.53698 0.51758
 O910 O -0.02245 0.53256 0.51576
 O911 O 0.01810 0.50067 0.53709
 O912 O 0.01853 0.47771 0.53313
 O913 O 0.03753 0.51755 0.50020
 O914 O 0.03235 0.51635 0.47576
 O915 O -0.01799 0.46352 0.49927
 O916 O -0.01516 0.46757 0.52314
 O917 O -0.03598 0.49857 0.48160
 O918 O -0.03119 0.52366 0.48237
 O919 O -0.00079 0.48149 0.46321
 O920 O 0.02414 0.48217 0.46796
 O921 O -0.00132 0.46330 0.48234
 O922 O 0.02454 0.46824 0.48375
 O923 O -0.01740 0.49829 0.46297
 O924 O -0.01579 0.52398 0.46801
 O925 O -0.03589 0.48178 0.49836
 O926 O -0.03140 0.48664 0.52374
 O927 O 0.01778 0.53691 0.50040
 O928 O 0.01661 0.53150 0.47553
 O929 O 0.03764 0.50099 0.51720
 O930 O 0.03194 0.47582 0.51518
 O931 O 0.00171 0.51774 0.53692
 O932 O -0.02340 0.51462 0.53146
 Zr933 Zr -0.00706 0.51680 0.51666
 O934 O -0.02047 0.50462 0.50422
 Zr935 Zr 0.01749 0.49239 0.51666
 O936 O 0.00490 0.47898 0.50464
 Zr937 Zr 0.01726 0.51665 0.49187
 O938 O 0.00505 0.50416 0.47851
 Zr939 Zr -0.01622 0.48353 0.50788
 O940 O -0.00367 0.49566 0.52146
 Zr941 Zr -0.01609 0.50763 0.48288
 O942 O -0.00386 0.52121 0.49525
 Zr943 Zr 0.00822 0.48303 0.48326
 O944 O 0.02195 0.49552 0.49529
 O945 O 0.01400 0.51337 0.51311
 O946 O -0.01287 0.48655 0.48652
 C947 C 0.01094 0.54291 0.51032
 C948 C 0.01129 0.51060 0.54300
 C949 C 0.04356 0.51065 0.51003
 C950 C -0.01135 0.45760 0.48920
 C951 C -0.04173 0.48850 0.48830
 C952 C -0.01073 0.48819 0.45724
 H953 H -0.03025 0.50686 0.50651
 H954 H 0.00735 0.50628 0.46864
 H955 H 0.01998 0.51934 0.51905
 H956 H 0.00694 0.46920 0.50710
 H957 H -0.01217 0.47205 0.53201
 H958 H 0.01140 0.47057 0.53114
 H959 H -0.00797 0.52225 0.46150
 H960 H 0.00750 0.53625 0.47626
 H961 H -0.03801 0.47872 0.52336
 H962 H -0.02250 0.52207 0.53862
 H963 H 0.02370 0.49088 0.46247
 H964 H 0.03667 0.50700 0.47601
 H965 H -0.02227 0.53635 0.50611
 H966 H -0.03685 0.52293 0.49100
 H967 H 0.03742 0.47738 0.50654
 H968 H 0.02270 0.46173 0.49157
 O969 O 0.49943 -0.01866 0.46186
 O970 O 0.52317 -0.01697 0.46637
 O971 O 0.48258 -0.03741 0.49878
 O972 O 0.48207 -0.03310 0.52185
 O973 O 0.46318 -0.00103 0.48109
 O974 O 0.46839 0.02317 0.48192
 O975 O 0.51865 0.00047 0.53572
 O976 O 0.51589 -0.02322 0.53193
 O977 O 0.53670 0.01748 0.50010
 O978 O 0.53193 0.01633 0.47480
 O979 O 0.50157 0.03607 0.51697
 O980 O 0.47670 0.03151 0.51635
 O981 O 0.50202 0.01732 0.53564
 O982 O 0.47614 0.01598 0.53053
 O983 O 0.51817 0.03601 0.50004
 O984 O 0.51655 0.03059 0.47422
 O985 O 0.53660 0.00118 0.51734
 O986 O 0.53215 -0.02406 0.51276
 O987 O 0.48299 -0.00159 0.46160
 O988 O 0.48416 0.02314 0.46670
 O989 O 0.46305 -0.01759 0.49809
 O990 O 0.46878 -0.01525 0.52345
 O991 O 0.49895 -0.03758 0.48159
 O992 O 0.52408 -0.03220 0.48473
 Zr993 Zr 0.50776 -0.01751 0.48223
 O994 O 0.52119 -0.00501 0.49433
 Zr995 Zr 0.48321 -0.01702 0.50678
 O996 O 0.49582 -0.00494 0.52013
 Zr997 Zr 0.48347 0.00715 0.48191
 O998 O 0.49570 0.02056 0.49433
 Zr999 Zr 0.51694 -0.00829 0.51564
 O1000 O 0.50436 -0.02191 0.50362
 Zr1001 Zr 0.51682 0.01611 0.49094
 O1002 O 0.50459 0.00366 0.47743
 Zr1003 Zr 0.49252 0.01620 0.51570
 O1004 O 0.47877 0.00413 0.50326
 O1005 O 0.48670 -0.01387 0.48557
 O1006 O 0.51361 0.01286 0.51226
 C1007 C 0.48988 -0.01151 0.45572
 C1008 C 0.48937 -0.04347 0.48889
 C1009 C 0.45713 -0.01061 0.48823
 C1010 C 0.51198 0.01054 0.54154
 C1011 C 0.54245 0.01103 0.51040
 C1012 C 0.51151 0.04186 0.51013
 H1013 H 0.53097 -0.00733 0.49213
 H1014 H 0.49341 0.03032 0.49203
 H1015 H 0.48072 -0.01983 0.47962
 H1016 H 0.49376 -0.00723 0.53002
 H1017 H 0.51291 -0.03206 0.52752
 H1018 H 0.48933 -0.03114 0.52893
 H1019 H 0.50875 0.03712 0.47585
 H1020 H 0.49327 0.02231 0.46194
 H1021 H 0.53875 -0.02357 0.52075
 H1022 H 0.52316 -0.03945 0.47736
 H1023 H 0.47704 0.03672 0.50742
 H1024 H 0.46409 0.02311 0.49135
 H1025 H 0.52309 -0.00743 0.46245
 H1026 H 0.53761 0.00779 0.47572
 H1027 H 0.46327 -0.00671 0.52171
 H1028 H 0.47797 0.00835 0.53724
 O1029 O 0.53656 0.51849 0.00111
 O1030 O 0.53211 0.51639 -0.02281
 O1031 O 0.50013 0.53782 0.01781
 O1032 O 0.47721 0.53376 0.01831
 O1033 O 0.51729 0.50152 0.03786
 O1034 O 0.51636 0.47726 0.03290
 O1035 O 0.46317 0.49972 -0.01804
 O1036 O 0.46710 0.52342 -0.01556
 O1037 O 0.49834 0.48213 -0.03602
 O1038 O 0.52343 0.48309 -0.03123
 O1039 O 0.48146 0.46422 -0.00033
 O1040 O 0.48216 0.46921 0.02473
 O1041 O 0.46310 0.48313 -0.00105
 O1042 O 0.46814 0.48480 0.02500
 O1043 O 0.49827 0.46387 -0.01704
 O1044 O 0.52392 0.46908 -0.01552
 O1045 O 0.48140 0.49862 -0.03612
 O1046 O 0.48612 0.52387 -0.03195
 O1047 O 0.53667 0.50169 0.01794
 O1048 O 0.53147 0.47698 0.01703
 O1049 O 0.50061 0.51829 0.03777
 O1050 O 0.47547 0.51612 0.03203
 O1051 O 0.51713 0.53756 0.00125
 O1052 O 0.51404 0.53181 -0.02399
 Zr1053 Zr 0.51637 0.51736 -0.00731
 O1054 O 0.50425 0.50478 -0.02067
 Zr1055 Zr 0.49201 0.51751 0.01745
 O1056 O 0.47867 0.50535 0.00491
 Zr1057 Zr 0.51648 0.49308 0.01751
 O1058 O 0.50405 0.47961 0.00537
 Zr1059 Zr 0.48314 0.50834 -0.01643
 O1060 O 0.49519 0.52202 -0.00395
 Zr1061 Zr 0.50744 0.48370 -0.01599
 O1062 O 0.52096 0.49620 -0.00383
 Zr1063 Zr 0.48288 0.48422 0.00851
 O1064 O 0.49532 0.49638 0.02220
 O1065 O 0.51302 0.51408 0.01397
 O1066 O 0.48632 0.48721 -0.01279
 C1067 C 0.54258 0.51146 0.01088
 C1068 C 0.50997 0.54368 0.01083
 C1069 C 0.51030 0.51127 0.04383
 C1070 C 0.45731 0.48981 -0.01119
 C1071 C 0.48819 0.48862 -0.04189
 C1072 C 0.48822 0.45821 -0.01025
 H1073 H 0.50645 0.50694 -0.03057
 H1074 H 0.50625 0.46986 0.00781
 H1075 H 0.51895 0.52008 0.01993
 H1076 H 0.46887 0.50776 0.00695
 H1077 H 0.47153 0.53226 -0.01266
 H1078 H 0.47009 0.53168 0.01112
 H1079 H 0.52228 0.46271 -0.00754
 H1080 H 0.53621 0.47765 0.00784
 H1081 H 0.47820 0.52337 -0.03860
 H1082 H 0.52142 0.53898 -0.02317
 H1083 H 0.49092 0.46381 0.02435
 H1084 H 0.50700 0.47744 0.03722
 H1085 H 0.53596 0.50684 -0.02255
 H1086 H 0.52264 0.49159 -0.03702
 H1087 H 0.47709 0.50761 0.03765
 H1088 H 0.46158 0.49250 0.02307
 O1089 O 0.75059 0.26798 0.46229
 O1090 O 0.72682 0.26618 0.46661
 O1091 O 0.76714 0.28690 0.49933
 O1092 O 0.76755 0.28265 0.52240
 O1093 O 0.78677 0.25059 0.48179
 O1094 O 0.78169 0.22634 0.48267
 O1095 O 0.73100 0.24900 0.53601
 O1096 O 0.73372 0.27268 0.53221
 O1097 O 0.71324 0.23179 0.50029
 O1098 O 0.71815 0.23289 0.47502
 O1099 O 0.74836 0.21340 0.51746
 O1100 O 0.77317 0.21804 0.51708
 O1101 O 0.74770 0.23221 0.53610
 O1102 O 0.77364 0.23368 0.53118
 O1103 O 0.73186 0.21334 0.50040
 O1104 O 0.73359 0.21868 0.47459
 O1105 O 0.71318 0.24818 0.51747
 O1106 O 0.71758 0.27342 0.51290
 O1107 O 0.76710 0.25098 0.46219
 O1108 O 0.76599 0.22625 0.46732
 O1109 O 0.78675 0.26720 0.49877
 O1110 O 0.78091 0.26484 0.52412
 O1111 O 0.75088 0.28695 0.48198
 O1112 O 0.72575 0.28148 0.48493
 Zr1113 Zr 0.74214 0.26685 0.48259
 O1114 O 0.72869 0.25433 0.49460
 Zr1115 Zr 0.76656 0.26653 0.50734
 O1116 O 0.75391 0.25445 0.52061
 Zr1117 Zr 0.76653 0.24228 0.48250
 O1118 O 0.75429 0.22887 0.49485
 Zr1119 Zr 0.73281 0.25771 0.51594
 O1120 O 0.74541 0.27133 0.50399
 Zr1121 Zr 0.73316 0.23321 0.49129
 O1122 O 0.74542 0.24567 0.47784
 Zr1123 Zr 0.75732 0.23331 0.51624
 O1124 O 0.77110 0.24539 0.50389
 O1125 O 0.76319 0.26329 0.48611
 O1126 O 0.73624 0.23656 0.51262
 C1127 C 0.76023 0.26087 0.45625
 C1128 C 0.76040 0.29289 0.48935
 C1129 C 0.79273 0.26025 0.48894
 C1130 C 0.73766 0.23897 0.54190
 C1131 C 0.70741 0.23828 0.51052
 C1132 C 0.73849 0.20754 0.51055
 H1133 H 0.71891 0.25661 0.49231
 H1134 H 0.75663 0.21911 0.49259
 H1135 H 0.76917 0.26927 0.48020
 H1136 H 0.75591 0.25678 0.53051
 H1137 H 0.73670 0.28152 0.52782
 H1138 H 0.76027 0.28069 0.52944
 H1139 H 0.74142 0.21221 0.47628
 H1140 H 0.75691 0.22704 0.46246
 H1141 H 0.71092 0.27293 0.52083
 H1142 H 0.72669 0.28871 0.47756
 H1143 H 0.77300 0.21290 0.50809
 H1144 H 0.78597 0.22649 0.49212
 H1145 H 0.72698 0.25665 0.46269
 H1146 H 0.71243 0.24141 0.47588
 H1147 H 0.78650 0.25635 0.52240
 H1148 H 0.77169 0.24127 0.53791
 O1149 O 0.76839 0.78736 -0.00005
 O1150 O 0.76652 0.78258 0.02381
 O1151 O 0.78735 0.75103 -0.01749
 O1152 O 0.78313 0.72817 -0.01840
 O1153 O 0.75097 0.76876 -0.03696
 O1154 O 0.72675 0.76784 -0.03187
 O1155 O 0.74936 0.71383 0.01809
 O1156 O 0.77305 0.71764 0.01547
 O1157 O 0.73216 0.74885 0.03674
 O1158 O 0.73316 0.77396 0.03234
 O1159 O 0.71380 0.73258 0.00084
 O1160 O 0.71856 0.73351 -0.02416
 O1161 O 0.73261 0.71410 0.00121
 O1162 O 0.73414 0.71949 -0.02480
 O1163 O 0.71369 0.74909 0.01788
 O1164 O 0.71904 0.77475 0.01671
 O1165 O 0.74857 0.73184 0.03647
 O1166 O 0.77380 0.73645 0.03214
 O1167 O 0.75138 0.78780 -0.01669
 O1168 O 0.72665 0.78268 -0.01572
 O1169 O 0.76761 0.75195 -0.03728
 O1170 O 0.76534 0.72671 -0.03192
 O1171 O 0.78736 0.76782 -0.00068
 O1172 O 0.78183 0.76440 0.02456
 Zr1173 Zr 0.76723 0.76705 0.00804
 O1174 O 0.75469 0.75483 0.02130
 Zr1175 Zr 0.76698 0.74305 -0.01710
 O1176 O 0.75488 0.72960 -0.00467
 Zr1177 Zr 0.74269 0.76764 -0.01658
 O1178 O 0.72926 0.75512 -0.00455
 Zr1179 Zr 0.75809 0.73377 0.01670
 O1180 O 0.77173 0.74590 0.00430
 Zr1181 Zr 0.73357 0.75818 0.01683
 O1182 O 0.74605 0.77180 0.00481
 Zr1183 Zr 0.73374 0.73398 -0.00807
 O1184 O 0.74583 0.74655 -0.02164
 O1185 O 0.76371 0.76402 -0.01326
 O1186 O 0.73694 0.73710 0.01328
 C1187 C 0.76127 0.79355 -0.00963
 C1188 C 0.79333 0.76074 -0.01042
 C1189 C 0.76061 0.76179 -0.04312
 C1190 C 0.73934 0.70813 0.01123
 C1191 C 0.73867 0.73862 0.04242
 C1192 C 0.70790 0.73920 0.01092
 H1193 H 0.75696 0.75689 0.03121
 H1194 H 0.71951 0.75740 -0.00689
 H1195 H 0.76969 0.77001 -0.01916
 H1196 H 0.75722 0.71983 -0.00689
 H1197 H 0.78190 0.72205 0.01257
 H1198 H 0.78116 0.72103 -0.01121
 H1199 H 0.71255 0.77321 0.00879
 H1200 H 0.72744 0.78730 -0.00647
 H1201 H 0.77333 0.72844 0.03867
 H1202 H 0.78905 0.77173 0.02380
 H1203 H 0.71332 0.74236 -0.02373
 H1204 H 0.72686 0.75856 -0.03637
 H1205 H 0.75698 0.78647 0.02370
 H1206 H 0.74175 0.77309 0.03800
 H1207 H 0.75683 0.72849 -0.03750
 H1208 H 0.74175 0.71280 -0.02297
 O1209 O 1.03686 0.23119 0.24916
 O1210 O 1.03230 0.23318 0.27308
 O1211 O 1.00046 0.21208 0.23211
 O1212 O 0.97753 0.21621 0.23155
 O1213 O 1.01782 0.24833 0.21238
 O1214 O 1.01688 0.27260 0.21739
 O1215 O 0.96345 0.25022 0.26794
 O1216 O 0.96730 0.22649 0.26536
 O1217 O 0.99857 0.26758 0.28618
 O1218 O 1.02369 0.26650 0.28157
 O1219 O 0.98192 0.28567 0.25044
 O1220 O 0.98270 0.28076 0.22537
 O1221 O 0.96352 0.26688 0.25101
 O1222 O 0.96861 0.26524 0.22498
 O1223 O 0.99864 0.28588 0.26729
 O1224 O 1.02429 0.28057 0.26589
 O1225 O 0.98159 0.25116 0.28612
 O1226 O 0.98626 0.22589 0.28189
 O1227 O 1.03708 0.24807 0.23241
 O1228 O 1.03192 0.27280 0.23337
 O1229 O 1.00108 0.23165 0.21228
 O1230 O 0.97590 0.23393 0.21786
 O1231 O 1.01741 0.21220 0.24877
 O1232 O 1.01418 0.21782 0.27403
 Zr1233 Zr 1.01663 0.23235 0.25746
 O1234 O 1.00450 0.24493 0.27079
 Zr1235 Zr 0.99237 0.23241 0.23254
 O1236 O 0.97901 0.24457 0.24505
 Zr1237 Zr 1.01690 0.25674 0.23273
 O1238 O 1.00447 0.27022 0.24485
 Zr1239 Zr 0.98340 0.24149 0.26640
 O1240 O 0.99545 0.22779 0.25394
 Zr1241 Zr 1.00776 0.26602 0.26621
 O1242 O 1.02129 0.25351 0.25409
 Zr1243 Zr 0.98331 0.26570 0.24154
 O1244 O 0.99576 0.25354 0.22789
 O1245 O 1.01337 0.23575 0.23618
 O1246 O 0.98666 0.26261 0.26286
 C1247 C 1.04293 0.23824 0.23946
 C1248 C 1.01029 0.20616 0.23908
 C1249 C 1.01085 0.23862 0.20633
 C1250 C 0.95767 0.26021 0.26112
 C1251 C 0.98837 0.26113 0.29196
 C1252 C 0.98863 0.29161 0.26045
 H1253 H 1.00665 0.24273 0.28069
 H1254 H 1.00671 0.27997 0.24246
 H1255 H 1.01932 0.22975 0.23024
 H1256 H 0.96922 0.24222 0.24294
 H1257 H 0.97172 0.21763 0.26247
 H1258 H 0.97037 0.21833 0.23867
 H1259 H 1.02268 0.28700 0.25796
 H1260 H 1.03663 0.27208 0.24258
 H1261 H 0.97830 0.22641 0.28849
 H1262 H 1.02154 0.21062 0.27322
 H1263 H 0.99148 0.28611 0.22581
 H1264 H 1.00754 0.27243 0.21298
 H1265 H 1.03617 0.24272 0.27289
 H1266 H 1.02283 0.25799 0.28733
 H1267 H 0.97758 0.24244 0.21226
 H1268 H 0.96202 0.25756 0.22685
 O1269 O 0.71263 1.01846 0.74986
 O1270 O 0.71721 1.01658 0.77378
 O1271 O 0.74906 1.03747 0.73284
 O1272 O 0.77193 1.03328 0.73204
 O1273 O 0.73155 1.00105 0.71320
 O1274 O 0.73257 0.97681 0.71833
 O1275 O 0.78611 0.99967 0.76878
 O1276 O 0.78221 1.02335 0.76606
 O1277 O 0.75103 0.98240 0.78712
 O1278 O 0.72593 0.98331 0.78248
 O1279 O 0.76766 0.96402 0.75143
 O1280 O 0.76690 0.96869 0.72645
 O1281 O 0.78605 0.98290 0.75193
 O1282 O 0.78080 0.98438 0.72583
 O1283 O 0.75101 0.96389 0.76831
 O1284 O 0.72534 0.96914 0.76688
 O1285 O 0.76797 0.99886 0.78698
 O1286 O 0.76327 1.02405 0.78256
 O1287 O 0.71238 1.00142 0.73325
 O1288 O 0.71759 0.97670 0.73435
 O1289 O 0.74828 1.01774 0.71303
 O1290 O 0.77353 1.01549 0.71861
 O1291 O 0.73210 1.03746 0.74944
 O1292 O 0.73531 1.03195 0.77472
 Zr1293 Zr 0.73287 1.01734 0.75819
 O1294 O 0.74505 1.00487 0.77158
 Zr1295 Zr 0.75708 1.01712 0.73327
 O1296 O 0.77049 1.00509 0.74585
 Zr1297 Zr 0.73257 0.99278 0.73360
 O1298 O 0.74507 0.97941 0.74578
 Zr1299 Zr 0.76614 1.00833 0.76718
 O1300 O 0.75403 1.02190 0.75464
 Zr1301 Zr 0.74183 0.98373 0.76713
 O1302 O 0.72824 0.99614 0.75494
 Zr1303 Zr 0.76622 0.98394 0.74246
 O1304 O 0.75370 0.99596 0.72873
 O1305 O 0.73608 1.01381 0.73692
 O1306 O 0.76292 0.98717 0.76376
 C1307 C 0.70654 1.01132 0.74021
 C1308 C 0.73927 1.04344 0.73979
 C1309 C 0.73850 1.01073 0.70710
 C1310 C 0.79191 0.98967 0.76198
 C1311 C 0.76120 0.98895 0.79289
 C1312 C 0.76099 0.95813 0.76147
 H1313 H 0.74291 1.00714 0.78147
 H1314 H 0.74285 0.96964 0.74344
 H1315 H 0.73013 1.01978 0.73096
 H1316 H 0.78027 1.00746 0.74372
 H1317 H 0.77777 1.03218 0.76312
 H1318 H 0.77898 1.03140 0.73935
 H1319 H 0.72695 0.96266 0.75898
 H1320 H 0.71289 0.97749 0.74356
 H1321 H 0.77124 1.02362 0.78916
 H1322 H 0.72794 1.03914 0.77388
 H1323 H 0.75802 0.96351 0.72673
 H1324 H 0.74188 0.97698 0.71390
 H1325 H 0.71334 1.00704 0.77361
 H1326 H 0.72672 0.99191 0.78813
 H1327 H 0.77178 1.00700 0.71299
 H1328 H 0.78748 0.99198 0.72773
 O1329 O 0.71335 0.51811 0.24941
 O1330 O 0.71801 0.51603 0.27326
 O1331 O 0.74969 0.53749 0.23248
 O1332 O 0.77257 0.53340 0.23164
 O1333 O 0.73228 0.50127 0.21244
 O1334 O 0.73338 0.47700 0.21724
 O1335 O 0.78690 0.49936 0.26795
 O1336 O 0.78294 0.52306 0.26552
 O1337 O 0.75192 0.48173 0.28607
 O1338 O 0.72680 0.48263 0.28147
 O1339 O 0.76860 0.46389 0.25016
 O1340 O 0.76777 0.46886 0.22523
 O1341 O 0.78688 0.48279 0.25089
 O1342 O 0.78161 0.48463 0.22479
 O1343 O 0.75197 0.46350 0.26705
 O1344 O 0.72625 0.46865 0.26568
 O1345 O 0.76881 0.49825 0.28613
 O1346 O 0.76401 0.52350 0.28205
 O1347 O 0.71312 0.50130 0.23257
 O1348 O 0.71845 0.47658 0.23328
 O1349 O 0.74897 0.51801 0.21244
 O1350 O 0.77423 0.51577 0.21798
 O1351 O 0.73276 0.53721 0.24912
 O1352 O 0.73608 0.53142 0.27434
 Zr1353 Zr 0.73363 0.51700 0.25763
 O1354 O 0.74585 0.50439 0.27085
 Zr1355 Zr 0.75779 0.51717 0.23268
 O1356 O 0.77125 0.50503 0.24509
 Zr1357 Zr 0.73336 0.49274 0.23273
 O1358 O 0.74592 0.47926 0.24471
 Zr1359 Zr 0.76692 0.50798 0.26647
 O1360 O 0.75476 0.52167 0.25411
 Zr1361 Zr 0.74269 0.48331 0.26611
 O1362 O 0.72905 0.49583 0.25411
 Zr1363 Zr 0.76705 0.48391 0.24143
 O1364 O 0.75447 0.49606 0.22787
 O1365 O 0.73681 0.51374 0.23631
 O1366 O 0.76376 0.48686 0.26277
 C1367 C 0.70725 0.51105 0.23971
 C1368 C 0.73988 0.54334 0.23953
 C1369 C 0.73920 0.51104 0.20645
 C1370 C 0.79271 0.48944 0.26105
 C1371 C 0.76208 0.48823 0.29191
 C1372 C 0.76198 0.45787 0.26015
 H1373 H 0.74371 0.50653 0.28077
 H1374 H 0.74374 0.46952 0.24225
 H1375 H 0.73081 0.51976 0.23044
 H1376 H 0.78103 0.50746 0.24299
 H1377 H 0.77848 0.53191 0.26270
 H1378 H 0.77964 0.53145 0.23891
 H1379 H 0.72792 0.46224 0.25773
 H1380 H 0.71378 0.47722 0.24251
 H1381 H 0.77199 0.52300 0.28864
 H1382 H 0.72870 0.53861 0.27358
 H1383 H 0.75891 0.46364 0.22546
 H1384 H 0.74270 0.47723 0.21282
 H1385 H 0.71421 0.50646 0.27304
 H1386 H 0.72760 0.49112 0.28727
 H1387 H 0.77250 0.50735 0.21225
 H1388 H 0.78831 0.49219 0.22683
 O1389 O 0.53767 0.23131 0.75009
 O1390 O 0.53304 0.23322 0.77401
 O1391 O 0.50129 0.21230 0.73289
 O1392 O 0.47837 0.21647 0.73222
 O1393 O 0.51875 0.24865 0.71332
 O1394 O 0.51780 0.27290 0.71847
 O1395 O 0.46420 0.25029 0.76872
 O1396 O 0.46806 0.22657 0.76604
 O1397 O 0.49929 0.26751 0.78719
 O1398 O 0.52444 0.26645 0.78262
 O1399 O 0.48276 0.28582 0.75150
 O1400 O 0.48363 0.28105 0.72640
 O1401 O 0.46433 0.26703 0.75186
 O1402 O 0.46954 0.26555 0.72586
 O1403 O 0.49942 0.28594 0.76841
 O1404 O 0.52506 0.28065 0.76706
 O1405 O 0.48229 0.25111 0.78698
 O1406 O 0.48695 0.22589 0.78264
 O1407 O 0.53795 0.24828 0.73343
 O1408 O 0.53281 0.27299 0.73449
 O1409 O 0.50197 0.23200 0.71312
 O1410 O 0.47679 0.23423 0.71864
 O1411 O 0.51821 0.21233 0.74957
 O1412 O 0.51492 0.21785 0.77484
 Zr1413 Zr 0.51742 0.23245 0.75834
 O1414 O 0.50525 0.24497 0.77169
 Zr1415 Zr 0.49322 0.23265 0.73336
 O1416 O 0.47984 0.24476 0.74587
 Zr1417 Zr 0.51778 0.25696 0.73373
 O1418 O 0.50532 0.27038 0.74588
 Zr1419 Zr 0.48415 0.24156 0.76722
 O1420 O 0.49625 0.22792 0.75474
 Zr1421 Zr 0.50854 0.26608 0.76724
 O1422 O 0.52210 0.25363 0.75508
 Zr1423 Zr 0.48417 0.26590 0.74249
 O1424 O 0.49665 0.25379 0.72881
 O1425 O 0.51422 0.23594 0.73706
 O1426 O 0.48744 0.26270 0.76380
 C1427 C 0.54378 0.23841 0.74044
 C1428 C 0.51108 0.20634 0.73987
 C1429 C 0.51175 0.23898 0.70721
 C1430 C 0.45844 0.26030 0.76190
 C1431 C 0.48908 0.26102 0.79291
 C1432 C 0.48944 0.29171 0.76156
 H1433 H 0.50737 0.24271 0.78159
 H1434 H 0.50757 0.28014 0.74355
 H1435 H 0.52018 0.22997 0.73111
 H1436 H 0.47005 0.24242 0.74371
 H1437 H 0.47249 0.21772 0.76314
 H1438 H 0.47121 0.21852 0.73936
 H1439 H 0.52349 0.28709 0.75913
 H1440 H 0.53747 0.27225 0.74373
 H1441 H 0.47897 0.22636 0.78920
 H1442 H 0.52230 0.21066 0.77403
 H1443 H 0.49240 0.28640 0.72691
 H1444 H 0.50848 0.27275 0.71403
 H1445 H 0.53694 0.24275 0.77385
 H1446 H 0.52354 0.25793 0.78836
 H1447 H 0.47847 0.24277 0.71310
 H1448 H 0.46295 0.25785 0.72765
 O1449 O 0.25139 0.76865 0.46331
 O1450 O 0.22762 0.76677 0.46763
 O1451 O 0.26792 0.78754 0.50035
 O1452 O 0.26836 0.78327 0.52341
 O1453 O 0.28759 0.75122 0.48281
 O1454 O 0.28251 0.72698 0.48357
 O1455 O 0.23184 0.74943 0.53699
 O1456 O 0.23461 0.77317 0.53331
 O1457 O 0.21409 0.73236 0.50131
 O1458 O 0.21896 0.73347 0.47604
 O1459 O 0.24929 0.71397 0.51841
 O1460 O 0.27417 0.71873 0.51793
 O1461 O 0.24857 0.73268 0.53703
 O1462 O 0.27449 0.73424 0.53219
 O1463 O 0.23274 0.71393 0.50139
 O1464 O 0.23444 0.71930 0.47556
 O1465 O 0.21403 0.74874 0.51849
 O1466 O 0.21844 0.77399 0.51400
 O1467 O 0.26791 0.75166 0.46318
 O1468 O 0.26681 0.72693 0.46825
 O1469 O 0.28758 0.76785 0.49976
 O1470 O 0.28177 0.76547 0.52509
 O1471 O 0.25161 0.78758 0.48305
 O1472 O 0.22651 0.78205 0.48597
 Zr1473 Zr 0.24294 0.76746 0.48361
 O1474 O 0.22953 0.75491 0.49563
 Zr1475 Zr 0.26739 0.76716 0.50834
 O1476 O 0.25478 0.75503 0.52161
 Zr1477 Zr 0.26735 0.74293 0.48347
 O1478 O 0.25515 0.72948 0.49581
 Zr1479 Zr 0.23367 0.75826 0.51697
 O1480 O 0.24622 0.77192 0.50502
 Zr1481 Zr 0.23401 0.73381 0.49228
 O1482 O 0.24624 0.74630 0.47884
 Zr1483 Zr 0.25821 0.73390 0.51720
 O1484 O 0.27194 0.74602 0.50485
 O1485 O 0.26400 0.76394 0.48711
 O1486 O 0.23712 0.73713 0.51361
 C1487 C 0.26103 0.76155 0.45725
 C1488 C 0.26112 0.79354 0.49041
 C1489 C 0.29356 0.76088 0.48995
 C1490 C 0.23848 0.73937 0.54284
 C1491 C 0.20826 0.73884 0.51154
 C1492 C 0.23940 0.70812 0.51151
 H1493 H 0.21974 0.75719 0.49336
 H1494 H 0.25750 0.71972 0.49353
 H1495 H 0.26997 0.76993 0.48121
 H1496 H 0.25678 0.75733 0.53152
 H1497 H 0.23756 0.78203 0.52894
 H1498 H 0.26114 0.78124 0.53049
 H1499 H 0.24226 0.71281 0.47725
 H1500 H 0.25772 0.72771 0.46342
 H1501 H 0.21180 0.77349 0.52194
 H1502 H 0.22742 0.78928 0.47860
 H1503 H 0.27383 0.71344 0.50903
 H1504 H 0.28677 0.72708 0.49303
 H1505 H 0.22781 0.75725 0.46369
 H1506 H 0.21328 0.74201 0.47689
 H1507 H 0.28731 0.75695 0.52339
 H1508 H 0.27253 0.74184 0.53891
 O1509 O 0.25111 0.26916 0.96328
 O1510 O 0.22735 0.26727 0.96761
 O1511 O 0.26769 0.28776 1.00047
 O1512 O 0.26818 0.28330 1.02349
 O1513 O 0.28733 0.25159 0.98257
 O1514 O 0.28229 0.22736 0.98320
 O1515 O 0.23163 0.24944 1.03683
 O1516 O 0.23433 0.27318 1.03328
 O1517 O 0.21385 0.23260 1.00096
 O1518 O 0.21875 0.23383 0.97574
 O1519 O 0.24902 0.21410 1.01803
 O1520 O 0.27386 0.21876 1.01757
 O1521 O 0.24839 0.23271 1.03676
 O1522 O 0.27432 0.23429 1.03182
 O1523 O 0.23245 0.21417 1.00103
 O1524 O 0.23425 0.21967 0.97519
 O1525 O 0.21379 0.24880 1.01832
 O1526 O 0.21817 0.27409 1.01399
 O1527 O 0.26761 0.25214 0.96300
 O1528 O 0.26654 0.22736 0.96792
 O1529 O 0.28733 0.26808 0.99967
 O1530 O 0.28153 0.26549 1.02503
 O1531 O 0.25140 0.28794 0.98316
 O1532 O 0.22628 0.28240 0.98608
 Zr1533 Zr 0.24269 0.26782 0.98358
 O1534 O 0.22928 0.25517 0.99549
 Zr1535 Zr 0.26715 0.26732 1.00828
 O1536 O 0.25454 0.25511 1.02147
 Zr1537 Zr 0.26710 0.24327 0.98323
 O1538 O 0.25491 0.22973 0.99549
 Zr1539 Zr 0.23342 0.25837 1.01686
 O1540 O 0.24598 0.27211 1.00502
 Zr1541 Zr 0.23378 0.23409 0.99199
 O1542 O 0.24599 0.24669 0.97864
 Zr1543 Zr 0.25798 0.23401 1.01691
 O1544 O 0.27171 0.24621 1.00463
 O1545 O 0.26375 0.26426 0.98703
 O1546 O 0.23689 0.23726 1.01334
 C1547 C 0.26073 0.26209 0.95715
 C1548 C 0.26091 0.29383 0.99057
 C1549 C 0.29330 0.26120 0.98978
 C1550 C 0.23832 0.23937 1.04262
 C1551 C 0.20802 0.23898 1.01125
 C1552 C 0.23909 0.20831 1.01114
 H1553 H 0.21950 0.25746 0.99323
 H1554 H 0.25726 0.21999 0.99315
 H1555 H 0.26971 0.27029 0.98117
 H1556 H 0.25654 0.25735 1.03139
 H1557 H 0.23729 0.28207 1.02898
 H1558 H 0.26087 0.28130 1.03048
 H1559 H 0.24199 0.21311 0.97692
 H1560 H 0.25745 0.22818 0.96309
 H1561 H 0.21152 0.27353 1.02192
 H1562 H 0.22719 0.28969 0.97877
 H1563 H 0.27361 0.21364 1.00858
 H1564 H 0.28654 0.22738 0.99266
 H1565 H 0.22754 0.25778 0.96358
 H1566 H 0.21310 0.24239 0.97660
 H1567 H 0.28714 0.25704 1.02320
 H1568 H 0.27236 0.24180 1.03864
 C1569 C 0.28836 0.37769 0.78572
 C1570 C 0.27945 0.36698 0.78996
 C1571 C 0.28494 0.35464 0.79544
 C1572 C 0.29943 0.35287 0.79675
 C1573 C 0.30828 0.36366 0.79233
 C1574 C 0.30277 0.37598 0.78687
 C1575 C 0.28276 0.39061 0.78056
 C1576 C 0.27829 0.40160 0.77643
 C1577 C 0.27325 0.41490 0.77173
 C1578 C 0.26231 0.42145 0.77882
 C1579 C 0.25798 0.43476 0.77483
 C1580 C 0.26457 0.44174 0.76368
 C1581 C 0.27537 0.43493 0.75643
 C1582 C 0.27968 0.42162 0.76045
 H1583 H 0.26827 0.36819 0.78911
 H1584 H 0.27787 0.34646 0.79859
 H1585 H 0.31946 0.36271 0.79340
 H1586 H 0.30976 0.38424 0.78369
 H1587 H 0.25728 0.41636 0.78760
 H1588 H 0.24965 0.43968 0.78066
 H1589 H 0.28070 0.43997 0.74782
 H1590 H 0.28819 0.41666 0.75492
 C1591 C 0.28896 -0.12189 0.28616
 C1592 C 0.28658 -0.12518 0.30021
 C1593 C 0.29183 -0.13751 0.30589
 C1594 C 0.29966 -0.14691 0.29760
 C1595 C 0.30185 -0.14340 0.28335
 C1596 C 0.29655 -0.13103 0.27773
 C1597 C 0.28386 -0.10894 0.28057
 C1598 C 0.27966 -0.09794 0.27621
 C1599 C 0.27476 -0.08461 0.27140
 C1600 C 0.26340 -0.07828 0.27799
 C1601 C 0.25911 -0.06498 0.27394
 C1602 C 0.26617 -0.05779 0.26323
 C1603 C 0.27742 -0.06437 0.25648
 C1604 C 0.28169 -0.07769 0.26057
 H1605 H 0.28084 -0.11808 0.30689
 H1606 H 0.29022 -0.13918 0.31698
 H1607 H 0.30724 -0.15033 0.27626
 H1608 H 0.29838 -0.12862 0.26678
 H1609 H 0.25798 -0.08354 0.28643
 H1610 H 0.25042 -0.06025 0.27938
 H1611 H 0.28312 -0.05916 0.24822
 H1612 H 0.29053 -0.08247 0.25542
 C1613 C 0.78834 0.87950 0.78757
 C1614 C 0.77961 0.87033 0.79472
 C1615 C 0.78479 0.85773 0.79986
 C1616 C 0.79892 0.85398 0.79796
 C1617 C 0.80753 0.86339 0.79053
 C1618 C 0.80228 0.87597 0.78544
 C1619 C 0.78312 0.89267 0.78268
 C1620 C 0.77889 0.90380 0.77868
 C1621 C 0.77405 0.91719 0.77404
 C1622 C 0.76300 0.92374 0.78095
 C1623 C 0.75861 0.93697 0.77675
 C1624 C 0.76523 0.94385 0.76556
 C1625 C 0.77626 0.93710 0.75860
 C1626 C 0.78062 0.92387 0.76282
 H1627 H 0.76875 0.87291 0.79633
 H1628 H 0.77748 0.85081 0.80489
 H1629 H 0.81853 0.86150 0.78914
 H1630 H 0.80918 0.88307 0.78002
 H1631 H 0.75786 0.91868 0.78967
 H1632 H 0.75012 0.94186 0.78238
 H1633 H 0.78162 0.94208 0.74998
 H1634 H 0.78921 0.91891 0.75742
 C1635 C 0.46231 0.87132 0.28516
 C1636 C 0.47161 0.88179 0.28921
 C1637 C 0.46658 0.89447 0.29431
 C1638 C 0.45217 0.89684 0.29542
 C1639 C 0.44292 0.88628 0.29121
 C1640 C 0.44796 0.87362 0.28613
 C1641 C 0.46742 0.85809 0.28032
 C1642 C 0.47151 0.84689 0.27642
 C1643 C 0.47620 0.83339 0.27193
 C1644 C 0.48734 0.82694 0.27879
 C1645 C 0.49158 0.81360 0.27480
 C1646 C 0.48469 0.80651 0.26387
 C1647 C 0.47358 0.81317 0.25695
 C1648 C 0.46937 0.82651 0.26097
 H1649 H 0.48273 0.88011 0.28849
 H1650 H 0.47395 0.90246 0.29732
 H1651 H 0.43178 0.88770 0.29214
 H1652 H 0.44068 0.86556 0.28309
 H1653 H 0.49268 0.83216 0.28732
 H1654 H 0.50015 0.80879 0.28037
 H1655 H 0.46802 0.80803 0.24853
 H1656 H 0.46070 0.83141 0.25563
 C1657 C -0.03767 0.87291 0.78509
 C1658 C -0.02897 0.88223 0.79213
 C1659 C -0.03434 0.89462 0.79759
 C1660 C -0.04862 0.89799 0.79615
 C1661 C -0.05718 0.88846 0.78879
 C1662 C -0.05174 0.87609 0.78337
 C1663 C -0.03231 0.85986 0.78003
 C1664 C -0.02806 0.84877 0.77596
 C1665 C -0.02330 0.83534 0.77131
 C1666 C -0.01224 0.82877 0.77820
 C1667 C -0.00815 0.81537 0.77423
 C1668 C -0.01511 0.80833 0.76332
 C1669 C -0.02606 0.81516 0.75630
 C1670 C -0.03012 0.82855 0.76029
 H1671 H -0.01801 0.87991 0.79344
 H1672 H -0.02708 0.90167 0.80255
 H1673 H -0.06827 0.89005 0.78774
 H1674 H -0.05861 0.86886 0.77805
 H1675 H -0.00692 0.83391 0.78678
 H1676 H 0.00030 0.81044 0.77989
 H1677 H -0.03166 0.81007 0.74787
 H1678 H -0.03872 0.83353 0.75491
 C1679 C -0.03693 -0.12250 -0.03604
 C1680 C -0.05133 -0.12446 -0.03691
 C1681 C -0.05671 -0.13691 -0.04217
 C1682 C -0.04775 -0.14761 -0.04665
 C1683 C -0.03328 -0.14558 -0.04566
 C1684 C -0.02791 -0.13310 -0.04039
 C1685 C -0.03150 -0.10948 -0.03098
 C1686 C -0.02723 -0.09840 -0.02689
 C1687 C -0.02245 -0.08499 -0.02221
 C1688 C -0.02904 -0.07835 -0.01096
 C1689 C -0.02498 -0.06496 -0.00694
 C1690 C -0.01427 -0.05800 -0.01415
 C1691 C -0.00753 -0.06490 -0.02528
 C1692 C -0.01161 -0.07829 -0.02928
 H1693 H -0.05841 -0.11630 -0.03365
 H1694 H -0.06789 -0.13807 -0.04300
 H1695 H -0.02612 -0.15368 -0.04889
 H1696 H -0.01674 -0.13169 -0.03976
 H1697 H -0.03748 -0.08343 -0.00545
 H1698 H -0.03042 -0.05999 0.00166
 H1699 H 0.00074 -0.05987 -0.03108
 H1700 H -0.00647 -0.08332 -0.03803
 C1701 C -0.03962 0.37979 0.46161
 C1702 C -0.05353 0.37632 0.46392
 C1703 C -0.05897 0.36393 0.45855
 C1704 C -0.05059 0.35467 0.45066
 C1705 C -0.03649 0.35837 0.44854
 C1706 C -0.03110 0.37078 0.45397
 C1707 C -0.03420 0.39275 0.46685
 C1708 C -0.02983 0.40372 0.47113
 C1709 C -0.02480 0.41695 0.47608
 C1710 C -0.03152 0.42370 0.48718
 C1711 C -0.02701 0.43681 0.49163
 C1712 C -0.01570 0.44338 0.48500
 C1713 C -0.00891 0.43641 0.47394
 C1714 C -0.01344 0.42330 0.46953
 H1715 H -0.06026 0.38331 0.46971
 H1716 H -0.06996 0.36210 0.46010
 H1717 H -0.02934 0.35155 0.44313
 H1718 H -0.02026 0.37333 0.45220
 H1719 H -0.04036 0.41890 0.49230
 H1720 H -0.03252 0.44187 0.50012
 H1721 H -0.00019 0.44115 0.46857
 H1722 H -0.00818 0.41818 0.46089
 C1723 C 0.46257 -0.12247 0.46365
 C1724 C 0.47108 -0.13151 0.45603
 C1725 C 0.46568 -0.14390 0.45059
 C1726 C 0.45155 -0.14754 0.45264
 C1727 C 0.44319 -0.13830 0.46058
 C1728 C 0.44866 -0.12593 0.46597
 C1729 C 0.46796 -0.10943 0.46870
 C1730 C 0.47226 -0.09835 0.47276
 C1731 C 0.47713 -0.08494 0.47736
 C1732 C 0.48806 -0.07839 0.47030
 C1733 C 0.49226 -0.06502 0.47424
 C1734 C 0.48555 -0.05800 0.48531
 C1735 C 0.47473 -0.06481 0.49251
 C1736 C 0.47055 -0.07818 0.48854
 H1737 H 0.48193 -0.12897 0.45426
 H1738 H 0.47282 -0.15072 0.44517
 H1739 H 0.43220 -0.14011 0.46211
 H1740 H 0.44193 -0.11893 0.47174
 H1741 H 0.49319 -0.08352 0.46160
 H1742 H 0.50061 -0.06011 0.46845
 H1743 H 0.46931 -0.05974 0.50106
 H1744 H 0.46205 -0.08315 0.49405
 C1745 C 0.46119 0.37989 -0.03750
 C1746 C 0.45420 0.37059 -0.02875
 C1747 C 0.44896 0.35811 -0.03414
 C1748 C 0.45058 0.35464 -0.04849
 C1749 C 0.45784 0.36419 -0.05711
 C1750 C 0.46304 0.37664 -0.05165
 C1751 C 0.46622 0.39293 -0.03208
 C1752 C 0.47036 0.40398 -0.02779
 C1753 C 0.47521 0.41730 -0.02294
 C1754 C 0.46841 0.42408 -0.01191
 C1755 C 0.47277 0.43729 -0.00761
 C1756 C 0.48400 0.44392 -0.01432
 C1757 C 0.49086 0.43692 -0.02531
 C1758 C 0.48648 0.42372 -0.02958
 H1759 H 0.45281 0.37296 -0.01773
 H1760 H 0.44405 0.35106 -0.02683
 H1761 H 0.45900 0.36252 -0.06826
 H1762 H 0.46833 0.38385 -0.05856
 H1763 H 0.45964 0.41922 -0.00673
 H1764 H 0.46722 0.44237 0.00085
 H1765 H 0.49951 0.44171 -0.03074
 H1766 H 0.49179 0.41858 -0.03817
 C1767 C 0.78831 0.37115 0.46339
 C1768 C 0.80275 0.37276 0.46248
 C1769 C 0.80840 0.38497 0.45696
 C1770 C 0.79967 0.39576 0.45226
 C1771 C 0.78516 0.39410 0.45333
 C1772 C 0.77952 0.38186 0.45886
 C1773 C 0.78259 0.35833 0.46861
 C1774 C 0.77805 0.34741 0.47280
 C1775 C 0.77295 0.33416 0.47757
 C1776 C 0.77933 0.32753 0.48894
 C1777 C 0.77502 0.31424 0.49301
 C1778 C 0.76426 0.30739 0.48572
 C1779 C 0.75772 0.31430 0.47448
 C1780 C 0.76205 0.32758 0.47044
 H1781 H 0.80965 0.36449 0.46588
 H1782 H 0.81960 0.38584 0.45608
 H1783 H 0.77818 0.40228 0.44994
 H1784 H 0.76833 0.38073 0.45952
 H1785 H 0.78781 0.33251 0.49450
 H1786 H 0.78031 0.30925 0.50169
 H1787 H 0.74943 0.30935 0.46862
 H1788 H 0.75707 0.33261 0.46159
 C1789 C 0.78718 0.87251 -0.03562
 C1790 C 0.78530 0.87565 -0.04979
 C1791 C 0.79059 0.88800 -0.05535
 C1792 C 0.79797 0.89757 -0.04684
 C1793 C 0.79961 0.89423 -0.03246
 C1794 C 0.79427 0.88185 -0.02695
 C1795 C 0.78215 0.85951 -0.03014
 C1796 C 0.77805 0.84845 -0.02587
 C1797 C 0.77330 0.83506 -0.02115
 C1798 C 0.76199 0.82867 -0.02778
 C1799 C 0.75787 0.81529 -0.02382
 C1800 C 0.76505 0.80809 -0.01318
 C1801 C 0.77626 0.81473 -0.00640
 C1802 C 0.78036 0.82811 -0.01038
 H1803 H 0.77994 0.86841 -0.05664
 H1804 H 0.78941 0.88955 -0.06652
 H1805 H 0.80461 0.90130 -0.02521
 H1806 H 0.79571 0.87956 -0.01592
 H1807 H 0.75648 0.83394 -0.03616
 H1808 H 0.74921 0.81052 -0.02928
 H1809 H 0.78204 0.80951 0.00181
 H1810 H 0.78916 0.83295 -0.00522
 C1811 C 0.78701 0.28808 0.37744
 C1812 C 0.79143 0.27919 0.36670
 C1813 C 0.79701 0.28471 0.35434
 C1814 C 0.79823 0.29919 0.35260
 C1815 C 0.79364 0.30803 0.36343
 C1816 C 0.78808 0.30250 0.37576
 C1817 C 0.78170 0.28249 0.39037
 C1818 C 0.77742 0.27808 0.40138
 C1819 C 0.77251 0.27315 0.41473
 C1820 C 0.77917 0.26199 0.42135
 C1821 C 0.77497 0.25777 0.43472
 C1822 C 0.76406 0.26469 0.44168
 C1823 C 0.75725 0.27573 0.43480
 C1824 C 0.76147 0.27993 0.42143
 H1825 H 0.79065 0.26801 0.36790
 H1826 H 0.80031 0.27765 0.34613
 H1827 H 0.79464 0.31921 0.36251
 H1828 H 0.78476 0.30947 0.38405
 H1829 H 0.78776 0.25670 0.41627
 H1830 H 0.78046 0.24925 0.43970
 H1831 H 0.74883 0.28132 0.43983
 H1832 H 0.75628 0.28861 0.41641
 C1833 C 0.78690 0.78838 -0.12234
 C1834 C 0.80131 0.78907 -0.12428
 C1835 C 0.80676 0.79434 -0.13676
 C1836 C 0.79786 0.79899 -0.14751
 C1837 C 0.78338 0.79820 -0.14550
 C1838 C 0.77794 0.79292 -0.13298
 C1839 C 0.78142 0.78325 -0.10929
 C1840 C 0.77714 0.77905 -0.09820
 C1841 C 0.77239 0.77419 -0.08476
 C1842 C 0.77907 0.76297 -0.07827
 C1843 C 0.77505 0.75873 -0.06485
 C1844 C 0.76428 0.76570 -0.05771
 C1845 C 0.75746 0.77682 -0.06444
 C1846 C 0.76151 0.78104 -0.07787
 H1847 H 0.80834 0.78565 -0.11608
 H1848 H 0.81795 0.79501 -0.13790
 H1849 H 0.77627 0.80157 -0.15363
 H1850 H 0.76676 0.79243 -0.13158
 H1851 H 0.78754 0.75762 -0.08350
 H1852 H 0.78054 0.75014 -0.06000
 H1853 H 0.74915 0.78244 -0.05927
 H1854 H 0.75631 0.78977 -0.08278
 C1855 C 0.28629 0.46168 0.87292
 C1856 C 0.29079 0.47086 0.88339
 C1857 C 0.29622 0.46568 0.89598
 C1858 C 0.29721 0.45125 0.89823
 C1859 C 0.29253 0.44212 0.88768
 C1860 C 0.28712 0.44732 0.87512
 C1861 C 0.28118 0.46694 0.85976
 C1862 C 0.27707 0.47115 0.84859
 C1863 C 0.27238 0.47591 0.83508
 C1864 C 0.27906 0.48708 0.82852
 C1865 C 0.27500 0.49124 0.81507
 C1866 C 0.26421 0.48425 0.80797
 C1867 C 0.25741 0.47317 0.81478
 C1868 C 0.26149 0.46904 0.82823
 H1869 H 0.29020 0.48200 0.88180
 H1870 H 0.29959 0.47296 0.90396
 H1871 H 0.29334 0.43097 0.88902
 H1872 H 0.28373 0.44012 0.86706
 H1873 H 0.28753 0.49245 0.83372
 H1874 H 0.28048 0.49979 0.81017
 H1875 H 0.24909 0.46753 0.80964
 H1876 H 0.25628 0.46035 0.83319
 C1877 C 0.28693 -0.03803 0.37263
 C1878 C 0.28784 -0.05241 0.37477
 C1879 C 0.29308 -0.05762 0.38740
 C1880 C 0.29749 -0.04852 0.39808
 C1881 C 0.29644 -0.03408 0.39588
 C1882 C 0.29119 -0.02888 0.38323
 C1883 C 0.28193 -0.03275 0.35943
 C1884 C 0.27790 -0.02853 0.34823
 C1885 C 0.27328 -0.02374 0.33470
 C1886 C 0.26235 -0.03054 0.32783
 C1887 C 0.25832 -0.02639 0.31438
 C1888 C 0.26519 -0.01536 0.30758
 C1889 C 0.27603 -0.00844 0.31469
 C1890 C 0.28004 -0.01262 0.32815
 H1891 H 0.28464 -0.05959 0.36662
 H1892 H 0.29395 -0.06878 0.38869
 H1893 H 0.29961 -0.02681 0.40396
 H1894 H 0.29052 -0.01773 0.38168
 H1895 H 0.25707 -0.03919 0.33280
 H1896 H 0.24995 -0.03197 0.30924
 H1897 H 0.28157 0.00007 0.30979
 H1898 H 0.28854 -0.00731 0.33336
 C1899 C -0.03671 -0.03757 -0.12312
 C1900 C -0.04432 -0.02897 -0.13209
 C1901 C -0.04980 -0.03426 -0.14461
 C1902 C -0.04779 -0.04836 -0.14845
 C1903 C -0.03986 -0.05681 -0.13925
 C1904 C -0.03444 -0.05146 -0.12676
 C1905 C -0.03158 -0.03231 -0.10996
 C1906 C -0.02744 -0.02812 -0.09878
 C1907 C -0.02270 -0.02339 -0.08527
 C1908 C -0.02940 -0.01228 -0.07861
 C1909 C -0.02530 -0.00817 -0.06515
 C1910 C -0.01444 -0.01515 -0.05815
 C1911 C -0.00762 -0.02617 -0.06506
 C1912 C -0.01174 -0.03025 -0.07852
 H1913 H -0.04606 -0.01815 -0.12941
 H1914 H -0.05522 -0.02705 -0.15139
 H1915 H -0.03835 -0.06778 -0.14120
 H1916 H -0.02867 -0.05826 -0.11980
 H1917 H -0.03793 -0.00692 -0.08373
 H1918 H -0.03081 0.00033 -0.06016
 H1919 H 0.00076 -0.03179 -0.06000
 H1920 H -0.00651 -0.03889 -0.08357
 C1921 C -0.03825 0.45997 0.37883
 C1922 C -0.04556 0.46860 0.36964
 C1923 C -0.05105 0.46325 0.35716
 C1924 C -0.04934 0.44905 0.35356
 C1925 C -0.04175 0.44055 0.36299
 C1926 C -0.03632 0.44596 0.37545
 C1927 C -0.03301 0.46536 0.39189
 C1928 C -0.02875 0.46972 0.40295
 C1929 C -0.02383 0.47474 0.41628
 C1930 C -0.03039 0.48604 0.42275
 C1931 C -0.02600 0.49057 0.43597
 C1932 C -0.01495 0.48383 0.44292
 C1933 C -0.00831 0.47257 0.43624
 C1934 C -0.01274 0.46806 0.42302
 H1935 H -0.04703 0.47951 0.37211
 H1936 H -0.05620 0.47049 0.35020
 H1937 H -0.04050 0.42951 0.36123
 H1938 H -0.03078 0.43914 0.38258
 H1939 H -0.03902 0.49125 0.41764
 H1940 H -0.03137 0.49924 0.44080
 H1941 H 0.00019 0.46711 0.44128
 H1942 H -0.00761 0.45927 0.41812
 C1943 C 0.46441 -0.03772 0.37599
 C1944 C 0.46325 -0.05209 0.37401
 C1945 C 0.45797 -0.05736 0.36142
 C1946 C 0.45376 -0.04831 0.35063
 C1947 C 0.45506 -0.03386 0.35268
 C1948 C 0.46036 -0.02861 0.36529
 C1949 C 0.46945 -0.03239 0.38915
 C1950 C 0.47351 -0.02818 0.40035
 C1951 C 0.47816 -0.02346 0.41389
 C1952 C 0.48900 -0.03039 0.42075
 C1953 C 0.49301 -0.02634 0.43425
 C1954 C 0.48620 -0.01527 0.44109
 C1955 C 0.47546 -0.00821 0.43398
 C1956 C 0.47147 -0.01230 0.42048
 H1957 H 0.46629 -0.05923 0.38225
 H1958 H 0.45690 -0.06852 0.36026
 H1959 H 0.45204 -0.02664 0.34451
 H1960 H 0.46121 -0.01746 0.36672
 H1961 H 0.49422 -0.03908 0.41576
 H1962 H 0.50130 -0.03202 0.43939
 H1963 H 0.46997 0.00033 0.43891
 H1964 H 0.46303 -0.00688 0.41527
 C1965 C 0.46041 0.46037 -0.12023
 C1966 C 0.44602 0.45959 -0.12238
 C1967 C 0.44076 0.45433 -0.13499
 C1968 C 0.44982 0.44976 -0.14562
 C1969 C 0.46428 0.45064 -0.14338
 C1970 C 0.46952 0.45592 -0.13076
 C1971 C 0.46575 0.46557 -0.10713
 C1972 C 0.47004 0.46986 -0.09605
 C1973 C 0.47494 0.47488 -0.08271
 C1974 C 0.48622 0.46842 -0.07608
 C1975 C 0.49067 0.47300 -0.06290
 C1976 C 0.48388 0.48412 -0.05614
 C1977 C 0.47262 0.49063 -0.06297
 C1978 C 0.46820 0.48603 -0.07616
 H1979 H 0.43887 0.46295 -0.11428
 H1980 H 0.42959 0.45359 -0.13631
 H1981 H 0.47151 0.44735 -0.15143
 H1982 H 0.48068 0.45649 -0.12920
 H1983 H 0.49149 0.45975 -0.08105
 H1984 H 0.49934 0.46771 -0.05794
 H1985 H 0.46712 0.49919 -0.05809
 H1986 H 0.45943 0.49108 -0.08118
 C1987 C 0.46147 0.78935 0.37043
 C1988 C 0.44709 0.79029 0.37251
 C1989 C 0.44184 0.79531 0.38521
 C1990 C 0.45092 0.79947 0.39602
 C1991 C 0.46537 0.79847 0.39384
 C1992 C 0.47060 0.79343 0.38112
 C1993 C 0.46679 0.78433 0.35726
 C1994 C 0.47102 0.78016 0.34612
 C1995 C 0.47583 0.77524 0.33271
 C1996 C 0.46905 0.76414 0.32612
 C1997 C 0.47338 0.75962 0.31289
 C1998 C 0.48459 0.76616 0.30605
 C1999 C 0.49142 0.77725 0.31284
 C2000 C 0.48705 0.78175 0.32608
 H2001 H 0.43994 0.78721 0.36429
 H2002 H 0.43068 0.79615 0.38648
 H2003 H 0.47261 0.80145 0.40202
 H2004 H 0.48176 0.79274 0.37962
 H2005 H 0.46032 0.75906 0.33115
 H2006 H 0.46786 0.75109 0.30798
 H2007 H 0.50005 0.78255 0.30789
 H2008 H 0.49235 0.79038 0.33108
 C2009 C -0.03723 0.78735 0.87271
 C2010 C -0.05119 0.78522 0.87613
 C2011 C -0.05655 0.79035 0.88874
 C2012 C -0.04805 0.79781 0.89827
 C2013 C -0.03389 0.79970 0.89463
 C2014 C -0.02858 0.79453 0.88201
 C2015 C -0.03192 0.78245 0.85948
 C2016 C -0.02773 0.77845 0.84826
 C2017 C -0.02303 0.77380 0.83471
 C2018 C -0.02970 0.76266 0.82806
 C2019 C -0.02566 0.75857 0.81459
 C2020 C -0.01487 0.76559 0.80755
 C2021 C -0.00808 0.77665 0.81444
 C2022 C -0.01215 0.78072 0.82791
 H2023 H -0.05802 0.77978 0.86893
 H2024 H -0.06757 0.78897 0.89052
 H2025 H -0.02665 0.80477 0.90166
 H2026 H -0.01771 0.79615 0.87950
 H2027 H -0.03816 0.75726 0.83321
 H2028 H -0.03113 0.75004 0.80963
 H2029 H 0.00024 0.78230 0.80934
 H2030 H -0.00694 0.78938 0.83295
 C2031 C 0.37995 0.78822 0.28877
 C2032 C 0.36947 0.79243 0.27949
 C2033 C 0.35694 0.79777 0.28467
 C2034 C 0.35473 0.79894 0.29921
 C2035 C 0.36532 0.79462 0.30845
 C2036 C 0.37784 0.78930 0.30325
 C2037 C 0.39298 0.78299 0.28349
 C2038 C 0.40399 0.77873 0.27922
 C2039 C 0.41726 0.77378 0.27430
 C2040 C 0.42367 0.78015 0.26281
 C2041 C 0.43681 0.77571 0.25836
 C2042 C 0.44374 0.76482 0.26537
 C2043 C 0.43711 0.75838 0.27683
 C2044 C 0.42397 0.76285 0.28125
 H2045 H 0.37100 0.79163 0.26826
 H2046 H 0.34893 0.80086 0.27730
 H2047 H 0.36403 0.79558 0.31969
 H2048 H 0.38590 0.78613 0.31053
 H2049 H 0.41859 0.78865 0.25738
 H2050 H 0.44159 0.78093 0.24954
 H2051 H 0.44213 0.75001 0.28250
 H2052 H 0.41912 0.75787 0.29019
 C2053 C -0.12243 0.78761 0.78642
 C2054 C -0.12439 0.78841 0.80094
 C2055 C -0.13675 0.79382 0.80638
 C2056 C -0.14736 0.79851 0.79736
 C2057 C -0.14533 0.79761 0.78277
 C2058 C -0.13293 0.79218 0.77734
 C2059 C -0.10949 0.78240 0.78095
 C2060 C -0.09847 0.77817 0.77665
 C2061 C -0.08512 0.77334 0.77187
 C2062 C -0.07857 0.76222 0.77866
 C2063 C -0.06522 0.75806 0.77462
 C2064 C -0.05821 0.76501 0.76372
 C2065 C -0.06502 0.77601 0.75678
 C2066 C -0.07837 0.78014 0.76084
 H2067 H -0.11629 0.78498 0.80807
 H2068 H -0.13790 0.79457 0.81766
 H2069 H -0.15336 0.80100 0.77556
 H2070 H -0.13152 0.79162 0.76608
 H2071 H -0.08369 0.75691 0.78725
 H2072 H -0.06031 0.74957 0.78022
 H2073 H -0.05995 0.78161 0.74836
 H2074 H -0.08333 0.78880 0.75554
 C2075 C 0.87091 0.28804 0.46252
 C2076 C 0.88162 0.27928 0.45794
 C2077 C 0.89387 0.28495 0.45246
 C2078 C 0.89555 0.29947 0.45152
 C2079 C 0.88474 0.30817 0.45626
 C2080 C 0.87252 0.30248 0.46172
 C2081 C 0.85810 0.28229 0.46775
 C2082 C 0.84719 0.27775 0.47198
 C2083 C 0.83396 0.27269 0.47684
 C2084 C 0.82733 0.26174 0.46983
 C2085 C 0.81406 0.25744 0.47398
 C2086 C 0.80722 0.26407 0.48520
 C2087 C 0.81412 0.27488 0.49236
 C2088 C 0.82738 0.27915 0.48819
 H2089 H 0.88048 0.26809 0.45852
 H2090 H 0.90206 0.27800 0.44904
 H2091 H 0.88562 0.31937 0.45548
 H2092 H 0.86426 0.30936 0.46517
 H2093 H 0.83232 0.25669 0.46099
 H2094 H 0.80908 0.24911 0.46821
 H2095 H 0.80918 0.28024 0.50103
 H2096 H 0.83240 0.28767 0.49366
 C2097 C 0.87238 0.78682 -0.03608
 C2098 C 0.88297 0.77779 -0.04042
 C2099 C 0.89546 0.78315 -0.04567
 C2100 C 0.89750 0.79762 -0.04663
 C2101 C 0.88680 0.80659 -0.04216
 C2102 C 0.87434 0.80121 -0.03692
 C2103 C 0.85936 0.78140 -0.03103
 C2104 C 0.84828 0.77716 -0.02694
 C2105 C 0.83486 0.77244 -0.02224
 C2106 C 0.82817 0.76148 -0.02916
 C2107 C 0.81478 0.75745 -0.02512
 C2108 C 0.80788 0.76437 -0.01411
 C2109 C 0.81483 0.77522 -0.00705
 C2110 C 0.82822 0.77922 -0.01111
 H2111 H 0.88156 0.76663 -0.03981
 H2112 H 0.90355 0.77599 -0.04890
 H2113 H 0.88796 0.81776 -0.04297
 H2114 H 0.86618 0.80829 -0.03366
 H2115 H 0.83320 0.75619 -0.03782
 H2116 H 0.80975 0.74908 -0.03080
 H2117 H 0.80985 0.78079 0.00145
 H2118 H 0.83329 0.78775 -0.00571
 C2119 C -0.12228 -0.03742 -0.03611
 C2120 C -0.12574 -0.05132 -0.03373
 C2121 C -0.13817 -0.05677 -0.03900
 C2122 C -0.14747 -0.04842 -0.04688
 C2123 C -0.14382 -0.03430 -0.04899
 C2124 C -0.13137 -0.02891 -0.04367
 C2125 C -0.10920 -0.03204 -0.03114
 C2126 C -0.09809 -0.02778 -0.02712
 C2127 C -0.08466 -0.02298 -0.02250
 C2128 C -0.07793 -0.02962 -0.01134
 C2129 C -0.06455 -0.02551 -0.00734
 C2130 C -0.05769 -0.01469 -0.01448
 C2131 C -0.06467 -0.00791 -0.02555
 C2132 C -0.07805 -0.01205 -0.02952
 H2133 H -0.11870 -0.05805 -0.02800
 H2134 H -0.13998 -0.06776 -0.03743
 H2135 H -0.15068 -0.02716 -0.05437
 H2136 H -0.12883 -0.01808 -0.04549
 H2137 H -0.08294 -0.03812 -0.00586
 H2138 H -0.05952 -0.03097 0.00121
 H2139 H -0.05971 0.00043 -0.03130
 H2140 H -0.08315 -0.00687 -0.03821
 C2141 C -0.11974 0.46049 0.46100
 C2142 C -0.12321 0.44660 0.46346
 C2143 C -0.13569 0.44116 0.45831
 C2144 C -0.14504 0.44951 0.45049
 C2145 C -0.14134 0.46359 0.44823
 C2146 C -0.12884 0.46898 0.45344
 C2147 C -0.10670 0.46591 0.46603
 C2148 C -0.09567 0.47025 0.47018
 C2149 C -0.08238 0.47519 0.47505
 C2150 C -0.07574 0.46855 0.48627
 C2151 C -0.06261 0.47300 0.49072
 C2152 C -0.05592 0.48417 0.48398
 C2153 C -0.06276 0.49087 0.47278
 C2154 C -0.07589 0.48639 0.46836
 H2155 H -0.11616 0.43989 0.46921
 H2156 H -0.13754 0.43019 0.45998
 H2157 H -0.14822 0.47072 0.44287
 H2158 H -0.12629 0.47980 0.45156
 H2159 H -0.08066 0.45984 0.49150
 H2160 H -0.05766 0.46757 0.49933
 H2161 H -0.05791 0.49947 0.46732
 H2162 H -0.08093 0.49158 0.45963
 C2163 C 0.37776 -0.03651 0.46312
 C2164 C 0.36850 -0.02802 0.45575
 C2165 C 0.35596 -0.03345 0.45067
 C2166 C 0.35238 -0.04757 0.45285
 C2167 C 0.36189 -0.05592 0.46049
 C2168 C 0.37439 -0.05043 0.46552
 C2169 C 0.39089 -0.03112 0.46793
 C2170 C 0.40204 -0.02690 0.47188
 C2171 C 0.41552 -0.02223 0.47648
 C2172 C 0.42232 -0.01149 0.46936
 C2173 C 0.43575 -0.00749 0.47335
 C2174 C 0.44258 -0.01423 0.48453
 C2175 C 0.43553 -0.02487 0.49176
 C2176 C 0.42211 -0.02884 0.48775
 H2177 H 0.37096 -0.01717 0.45391
 H2178 H 0.34897 -0.02632 0.44544
 H2179 H 0.36015 -0.06691 0.46208
 H2180 H 0.38157 -0.05715 0.47110
 H2181 H 0.41733 -0.00633 0.46059
 H2182 H 0.44085 0.00072 0.46753
 H2183 H 0.44045 -0.03030 0.50040
 H2184 H 0.41695 -0.03720 0.49331
 C2185 C 0.37866 0.46306 -0.03794
 C2186 C 0.36964 0.45609 -0.02888
 C2187 C 0.35703 0.45075 -0.03388
 C2188 C 0.35315 0.45227 -0.04813
 C2189 C 0.36241 0.45952 -0.05706
 C2190 C 0.37500 0.46481 -0.05200
 C2191 C 0.39184 0.46814 -0.03290
 C2192 C 0.40297 0.47226 -0.02881
 C2193 C 0.41637 0.47701 -0.02407
 C2194 C 0.42287 0.47054 -0.01267
 C2195 C 0.43610 0.47481 -0.00835
 C2196 C 0.44304 0.48565 -0.01540
 C2197 C 0.43634 0.49218 -0.02678
 C2198 C 0.42311 0.48788 -0.03107
 H2199 H 0.37233 0.45477 -0.01792
 H2200 H 0.35023 0.44587 -0.02633
 H2201 H 0.36041 0.46060 -0.06817
 H2202 H 0.38199 0.47008 -0.05915
 H2203 H 0.41777 0.46209 -0.00720
 H2204 H 0.44094 0.46953 0.00042
 H2205 H 0.44137 0.50052 -0.03248
 H2206 H 0.41818 0.49293 -0.03994
 C2207 C 0.37157 0.46157 0.78672
 C2208 C 0.38224 0.47042 0.79122
 C2209 C 0.39456 0.46485 0.79669
 C2210 C 0.39634 0.45035 0.79772
 C2211 C 0.38559 0.44156 0.79306
 C2212 C 0.37329 0.44714 0.78760
 C2213 C 0.35868 0.46721 0.78154
 C2214 C 0.34770 0.47166 0.77736
 C2215 C 0.33439 0.47663 0.77259
 C2216 C 0.32776 0.48755 0.77963
 C2217 C 0.31443 0.49177 0.77557
 C2218 C 0.30753 0.48510 0.76439
 C2219 C 0.31443 0.47431 0.75720
 C2220 C 0.32775 0.47011 0.76129
 H2221 H 0.38101 0.48160 0.79059
 H2222 H 0.40271 0.47188 0.80006
 H2223 H 0.38655 0.43037 0.79391
 H2224 H 0.36507 0.44020 0.78421
 H2225 H 0.33279 0.49263 0.78843
 H2226 H 0.30944 0.50009 0.78135
 H2227 H 0.30944 0.46892 0.74857
 H2228 H 0.33278 0.46161 0.75580
 C2229 C 0.37331 -0.03628 0.28549
 C2230 C 0.38409 -0.02737 0.28962
 C2231 C 0.39658 -0.03287 0.29474
 C2232 C 0.39844 -0.04736 0.29578
 C2233 C 0.38755 -0.05620 0.29154
 C2234 C 0.37509 -0.05069 0.28644
 C2235 C 0.36030 -0.03074 0.28054
 C2236 C 0.34921 -0.02645 0.27650
 C2237 C 0.33577 -0.02176 0.27183
 C2238 C 0.32901 -0.01089 0.27884
 C2239 C 0.31557 -0.00694 0.27486
 C2240 C 0.30868 -0.01385 0.26382
 C2241 C 0.31570 -0.02459 0.25667
 C2242 C 0.32913 -0.02851 0.26067
 H2243 H 0.38281 -0.01619 0.28892
 H2244 H 0.40482 -0.02581 0.29780
 H2245 H 0.38857 -0.06739 0.29243
 H2246 H 0.36679 -0.05768 0.28334
 H2247 H 0.33404 -0.00563 0.28753
 H2248 H 0.31050 0.00135 0.28061
 H2249 H 0.31073 -0.03015 0.24814
 H2250 H 0.33425 -0.03697 0.25521
 C2251 C 0.12980 0.53995 0.71234
 C2252 C 0.11905 0.53094 0.70838
 C2253 C 0.10657 0.53630 0.70310
 C2254 C 0.10469 0.55075 0.70170
 C2255 C 0.11552 0.55972 0.70583
 C2256 C 0.12799 0.55434 0.71110
 C2257 C 0.14280 0.53446 0.71740
 C2258 C 0.15381 0.53001 0.72151
 C2259 C 0.16706 0.52489 0.72628
 C2260 C 0.17357 0.51391 0.71922
 C2261 C 0.18669 0.50927 0.72352
 C2262 C 0.19350 0.51558 0.73497
 C2263 C 0.18678 0.52653 0.74208
 C2264 C 0.17366 0.53115 0.73775
 H2265 H 0.12034 0.51978 0.70932
 H2266 H 0.09837 0.52915 0.70016
 H2267 H 0.11447 0.57088 0.70469
 H2268 H 0.13626 0.56141 0.71408
 H2269 H 0.16857 0.50902 0.71029
 H2270 H 0.19156 0.50085 0.71777
 H2271 H 0.19171 0.53167 0.75090
 H2272 H 0.16873 0.53969 0.74327
 C2273 C 0.13029 0.03867 0.21199
 C2274 C 0.11978 0.02961 0.20753
 C2275 C 0.10728 0.03492 0.20224
 C2276 C 0.10514 0.04938 0.20135
 C2277 C 0.11574 0.05839 0.20595
 C2278 C 0.12823 0.05306 0.21123
 C2279 C 0.14331 0.03326 0.21709
 C2280 C 0.15434 0.02892 0.22124
 C2281 C 0.16765 0.02396 0.22606
 C2282 C 0.17421 0.01291 0.21915
 C2283 C 0.18741 0.00848 0.22345
 C2284 C 0.19423 0.01506 0.23472
 C2285 C 0.18745 0.02606 0.24170
 C2286 C 0.17426 0.03047 0.23738
 H2287 H 0.12127 0.01845 0.20808
 H2288 H 0.09925 0.02773 0.19892
 H2289 H 0.11450 0.06956 0.20521
 H2290 H 0.13632 0.06017 0.21459
 H2291 H 0.16920 0.00783 0.21035
 H2292 H 0.19232 0.00002 0.21781
 H2293 H 0.19239 0.03140 0.25038
 H2294 H 0.16928 0.03906 0.24277
 C2295 C 0.62215 0.71260 0.21326
 C2296 C 0.63262 0.72159 0.20859
 C2297 C 0.64508 0.71619 0.20330
 C2298 C 0.64721 0.70171 0.20263
 C2299 C 0.63663 0.69279 0.20742
 C2300 C 0.62420 0.69820 0.21269
 C2301 C 0.60915 0.71805 0.21835
 C2302 C 0.59809 0.72232 0.22248
 C2303 C 0.58470 0.72708 0.22723
 C2304 C 0.57807 0.73812 0.22041
 C2305 C 0.56470 0.74220 0.22447
 C2306 C 0.55776 0.73525 0.23542
 C2307 C 0.56466 0.72431 0.24238
 C2308 C 0.57802 0.72026 0.23829
 H2309 H 0.63113 0.73276 0.20898
 H2310 H 0.65308 0.72332 0.19983
 H2311 H 0.63786 0.68160 0.20684
 H2312 H 0.61613 0.69115 0.21620
 H2313 H 0.58313 0.74344 0.21180
 H2314 H 0.55972 0.75065 0.21886
 H2315 H 0.55965 0.71871 0.25084
 H2316 H 0.58306 0.71166 0.24362
 C2317 C 0.11911 0.71002 0.71123
 C2318 C 0.12979 0.71891 0.70687
 C2319 C 0.14216 0.71340 0.70149
 C2320 C 0.14400 0.69891 0.70041
 C2321 C 0.13321 0.69007 0.70487
 C2322 C 0.12086 0.69560 0.71024
 C2323 C 0.10624 0.71563 0.71648
 C2324 C 0.09534 0.72016 0.72076
 C2325 C 0.08218 0.72534 0.72572
 C2326 C 0.07580 0.73660 0.71900
 C2327 C 0.06272 0.74124 0.72341
 C2328 C 0.05582 0.73465 0.73461
 C2329 C 0.06243 0.72345 0.74141
 C2330 C 0.07551 0.71883 0.73698
 H2331 H 0.12855 0.73009 0.70760
 H2332 H 0.15034 0.72046 0.69828
 H2333 H 0.13422 0.67888 0.70398
 H2334 H 0.11263 0.68862 0.71352
 H2335 H 0.08085 0.74169 0.71024
 H2336 H 0.05795 0.74986 0.71790
 H2337 H 0.05743 0.71810 0.75004
 H2338 H 0.08034 0.71007 0.74223
 C2339 C 0.62965 0.21026 0.53823
 C2340 C 0.62758 0.20950 0.55273
 C2341 C 0.61511 0.20426 0.55808
 C2342 C 0.60451 0.19971 0.54897
 C2343 C 0.60667 0.20056 0.53439
 C2344 C 0.61916 0.20581 0.52907
 C2345 C 0.64262 0.21544 0.53282
 C2346 C 0.65360 0.21972 0.52851
 C2347 C 0.66683 0.22473 0.52360
 C2348 C 0.67336 0.23582 0.53048
 C2349 C 0.68646 0.24037 0.52610
 C2350 C 0.69324 0.23387 0.51475
 C2351 C 0.68650 0.22282 0.50782
 C2352 C 0.67339 0.21829 0.51223
 H2353 H 0.63565 0.21285 0.55992
 H2354 H 0.61385 0.20355 0.56934
 H2355 H 0.59865 0.19728 0.52712
 H2356 H 0.62065 0.20637 0.51782
 H2357 H 0.66838 0.24085 0.53933
 H2358 H 0.69133 0.24887 0.53171
 H2359 H 0.69141 0.21754 0.49908
 H2360 H 0.66845 0.20967 0.50686
 C2361 C 0.62911 0.71203 0.03647
 C2362 C 0.62695 0.69766 0.03735
 C2363 C 0.61433 0.69247 0.04237
 C2364 C 0.60367 0.70160 0.04659
 C2365 C 0.60589 0.71603 0.04557
 C2366 C 0.61854 0.72121 0.04054
 C2367 C 0.64227 0.71730 0.03166
 C2368 C 0.65342 0.72152 0.02773
 C2369 C 0.66684 0.72634 0.02318
 C2370 C 0.67353 0.71980 0.01193
 C2371 C 0.68680 0.72410 0.00781
 C2372 C 0.69359 0.73502 0.01491
 C2373 C 0.68669 0.74162 0.02613
 C2374 C 0.67342 0.73729 0.03022
 H2375 H 0.63509 0.69047 0.03429
 H2376 H 0.61302 0.68132 0.04323
 H2377 H 0.59783 0.72331 0.04860
 H2378 H 0.62009 0.73235 0.03989
 H2379 H 0.66855 0.71127 0.00644
 H2380 H 0.69179 0.71876 -0.00083
 H2381 H 0.69160 0.75003 0.03185
 H2382 H 0.66834 0.74240 0.03897
 C2383 C 0.11950 0.04053 0.03871
 C2384 C 0.12872 0.03198 0.04607
 C2385 C 0.14106 0.03745 0.05155
 C2386 C 0.14450 0.05166 0.04979
 C2387 C 0.13505 0.06007 0.04215
 C2388 C 0.12272 0.05455 0.03673
 C2389 C 0.10659 0.03501 0.03345
 C2390 C 0.09567 0.03054 0.02917
 C2391 C 0.08250 0.02537 0.02421
 C2392 C 0.07606 0.01423 0.03104
 C2393 C 0.06301 0.00955 0.02659
 C2394 C 0.05620 0.01598 0.01521
 C2395 C 0.06286 0.02708 0.00832
 C2396 C 0.07591 0.03174 0.01280
 H2397 H 0.12637 0.02106 0.04758
 H2398 H 0.14805 0.03028 0.05674
 H2399 H 0.13669 0.07112 0.04086
 H2400 H 0.11557 0.06130 0.03115
 H2401 H 0.08105 0.00925 0.03992
 H2402 H 0.05819 0.00101 0.03217
 H2403 H 0.05792 0.03230 -0.00044
 H2404 H 0.08079 0.04040 0.00746
 C2405 C 0.12186 0.53821 0.53652
 C2406 C 0.13254 0.52938 0.54105
 C2407 C 0.14482 0.53496 0.54659
 C2408 C 0.14656 0.54946 0.54765
 C2409 C 0.13579 0.55824 0.54297
 C2410 C 0.12354 0.55264 0.53745
 C2411 C 0.10902 0.53255 0.53123
 C2412 C 0.09809 0.52808 0.52697
 C2413 C 0.08483 0.52306 0.52210
 C2414 C 0.07828 0.51203 0.52901
 C2415 C 0.06499 0.50775 0.52487
 C2416 C 0.05805 0.51448 0.51376
 C2417 C 0.06488 0.52538 0.50670
 C2418 C 0.07816 0.52964 0.51086
 H2419 H 0.13134 0.51819 0.54038
 H2420 H 0.15298 0.52795 0.54997
 H2421 H 0.13672 0.56943 0.54384
 H2422 H 0.11530 0.55957 0.53404
 H2423 H 0.08333 0.50690 0.53775
 H2424 H 0.06006 0.49934 0.53055
 H2425 H 0.05986 0.53082 0.49812
 H2426 H 0.08313 0.53822 0.50547
 C2427 C 0.62022 0.03948 0.53793
 C2428 C 0.62211 0.05388 0.53903
 C2429 C 0.63458 0.05923 0.54429
 C2430 C 0.64536 0.05025 0.54854
 C2431 C 0.64338 0.03579 0.54732
 C2432 C 0.63089 0.03045 0.54205
 C2433 C 0.60723 0.03404 0.53280
 C2434 C 0.59624 0.02964 0.52859
 C2435 C 0.58300 0.02459 0.52369
 C2436 C 0.57652 0.03091 0.51219
 C2437 C 0.56343 0.02637 0.50773
 C2438 C 0.55661 0.01542 0.51473
 C2439 C 0.56330 0.00904 0.52619
 C2440 C 0.57640 0.01361 0.53063
 H2441 H 0.61389 0.06096 0.53593
 H2442 H 0.63570 0.07040 0.54529
 H2443 H 0.65154 0.02861 0.55036
 H2444 H 0.62954 0.01929 0.54123
 H2445 H 0.58153 0.03945 0.50677
 H2446 H 0.55859 0.03155 0.49890
 H2447 H 0.55837 0.00063 0.53186
 H2448 H 0.58132 0.00866 0.53957
 C2449 C 0.62133 0.53834 0.03687
 C2450 C 0.63207 0.52939 0.04104
 C2451 C 0.64453 0.53484 0.04630
 C2452 C 0.64640 0.54932 0.04745
 C2453 C 0.63556 0.55821 0.04316
 C2454 C 0.62313 0.55274 0.03791
 C2455 C 0.60835 0.53282 0.03179
 C2456 C 0.59732 0.52847 0.02766
 C2457 C 0.58396 0.52361 0.02290
 C2458 C 0.57736 0.51259 0.02978
 C2459 C 0.56403 0.50841 0.02568
 C2460 C 0.55708 0.51525 0.01463
 C2461 C 0.56393 0.52616 0.00762
 C2462 C 0.57727 0.53031 0.01175
 H2463 H 0.63079 0.51822 0.04027
 H2464 H 0.65273 0.52774 0.04938
 H2465 H 0.63659 0.56939 0.04411
 H2466 H 0.61486 0.55976 0.03479
 H2467 H 0.58244 0.50736 0.03846
 H2468 H 0.55908 0.49999 0.03133
 H2469 H 0.55892 0.53167 -0.00090
 H2470 H 0.58226 0.53888 0.00638
 C2471 C 0.03991 0.03815 0.12070
 C2472 C 0.05394 0.03636 0.12403
 C2473 C 0.05930 0.04167 0.13657
 C2474 C 0.05071 0.04898 0.14613
 C2475 C 0.03649 0.05057 0.14257
 C2476 C 0.03119 0.04521 0.13001
 C2477 C 0.03455 0.03298 0.10759
 C2478 C 0.03023 0.02875 0.09650
 C2479 C 0.02526 0.02384 0.08314
 C2480 C 0.03202 0.01280 0.07640
 C2481 C 0.02754 0.00835 0.06318
 C2482 C 0.01622 0.01490 0.05649
 C2483 C 0.00941 0.02590 0.06345
 C2484 C 0.01391 0.03032 0.07667
 H2485 H 0.06083 0.03102 0.11681
 H2486 H 0.07036 0.04053 0.13830
 H2487 H 0.02919 0.05551 0.14962
 H2488 H 0.02025 0.04657 0.12757
 H2489 H 0.04085 0.00774 0.08130
 H2490 H 0.03306 -0.00011 0.05814
 H2491 H 0.00069 0.03120 0.05862
 H2492 H 0.00863 0.03890 0.08178
 C2493 C 0.03864 0.53781 0.62174
 C2494 C 0.05306 0.53882 0.62353
 C2495 C 0.05855 0.54445 0.63587
 C2496 C 0.04968 0.54916 0.64661
 C2497 C 0.03519 0.54803 0.64475
 C2498 C 0.02972 0.54239 0.63239
 C2499 C 0.03308 0.53240 0.60882
 C2500 C 0.02867 0.52803 0.59782
 C2501 C 0.02369 0.52305 0.58449
 C2502 C 0.03029 0.51183 0.57792
 C2503 C 0.02605 0.50754 0.56456
 C2504 C 0.01513 0.51446 0.55757
 C2505 C 0.00838 0.52556 0.56442
 C2506 C 0.01265 0.52982 0.57777
 H2507 H 0.06006 0.53538 0.61532
 H2508 H 0.06974 0.54536 0.63688
 H2509 H 0.02811 0.55142 0.65289
 H2510 H 0.01854 0.54166 0.63111
 H2511 H 0.03888 0.50655 0.58301
 H2512 H 0.03150 0.49899 0.55962
 H2513 H -0.00004 0.53114 0.55937
 H2514 H 0.00749 0.53855 0.58276
 C2515 C 0.53850 0.03786 0.62065
 C2516 C 0.53634 0.05181 0.62412
 C2517 C 0.54140 0.05714 0.63678
 C2518 C 0.54882 0.04861 0.64631
 C2519 C 0.55076 0.03447 0.64262
 C2520 C 0.54565 0.02919 0.62994
 C2521 C 0.53359 0.03256 0.60742
 C2522 C 0.52956 0.02832 0.59623
 C2523 C 0.52483 0.02350 0.58274
 C2524 C 0.51363 0.03009 0.57611
 C2525 C 0.50933 0.02576 0.56280
 C2526 C 0.51619 0.01476 0.55590
 C2527 C 0.52737 0.00812 0.56274
 C2528 C 0.53165 0.01247 0.57606
 H2529 H 0.53092 0.05865 0.61693
 H2530 H 0.54000 0.06815 0.63861
 H2531 H 0.55581 0.02721 0.64963
 H2532 H 0.54728 0.01833 0.62740
 H2533 H 0.50831 0.03867 0.58118
 H2534 H 0.50071 0.03114 0.55786
 H2535 H 0.53292 -0.00035 0.55774
 H2536 H 0.54036 0.00733 0.58108
 C2537 C 0.53651 0.53684 0.12353
 C2538 C 0.52751 0.54107 0.13425
 C2539 C 0.53290 0.54622 0.14687
 C2540 C 0.54738 0.54719 0.14890
 C2541 C 0.55632 0.54284 0.13807
 C2542 C 0.55091 0.53770 0.12549
 C2543 C 0.53107 0.53186 0.11039
 C2544 C 0.52681 0.52781 0.09921
 C2545 C 0.52209 0.52314 0.08567
 C2546 C 0.51118 0.53004 0.07888
 C2547 C 0.50714 0.52601 0.06538
 C2548 C 0.51400 0.51501 0.05847
 C2549 C 0.52480 0.50799 0.06551
 C2550 C 0.52882 0.51205 0.07901
 H2551 H 0.51634 0.54044 0.13284
 H2552 H 0.52576 0.54936 0.15507
 H2553 H 0.56750 0.54366 0.13922
 H2554 H 0.55797 0.53452 0.11723
 H2555 H 0.50594 0.53868 0.08393
 H2556 H 0.49880 0.53166 0.06029
 H2557 H 0.53032 0.49950 0.06053
 H2558 H 0.53731 0.50666 0.08416
 C2559 C 0.21055 0.53918 0.62951
 C2560 C 0.20943 0.55359 0.62773
 C2561 C 0.20430 0.55904 0.61515
 C2562 C 0.20023 0.55014 0.60417
 C2563 C 0.20145 0.53566 0.60603
 C2564 C 0.20659 0.53023 0.61863
 C2565 C 0.21561 0.53365 0.64258
 C2566 C 0.21977 0.52920 0.65364
 C2567 C 0.22466 0.52414 0.66696
 C2568 C 0.23601 0.53054 0.67352
 C2569 C 0.24047 0.52600 0.68671
 C2570 C 0.23362 0.51499 0.69355
 C2571 C 0.22229 0.50853 0.68678
 C2572 C 0.21785 0.51309 0.67359
 H2573 H 0.21241 0.56061 0.63610
 H2574 H 0.20330 0.57021 0.61412
 H2575 H 0.19854 0.52856 0.59771
 H2576 H 0.20744 0.51906 0.61989
 H2577 H 0.24133 0.53913 0.66850
 H2578 H 0.24919 0.53125 0.69160
 H2579 H 0.21673 0.50006 0.69174
 H2580 H 0.20903 0.50809 0.66862
 C2581 C 0.20989 0.04023 0.12982
 C2582 C 0.21842 0.04760 0.12060
 C2583 C 0.21293 0.05310 0.10819
 C2584 C 0.19871 0.05134 0.10470
 C2585 C 0.19032 0.04372 0.11417
 C2586 C 0.19586 0.03827 0.12656
 C2587 C 0.21544 0.03488 0.14278
 C2588 C 0.21994 0.03050 0.15373
 C2589 C 0.22512 0.02539 0.16693
 C2590 C 0.23621 0.03213 0.17360
 C2591 C 0.24091 0.02749 0.18667
 C2592 C 0.23456 0.01603 0.19327
 C2593 C 0.22351 0.00924 0.18639
 C2594 C 0.21883 0.01391 0.17331
 H2595 H 0.22934 0.04909 0.12298
 H2596 H 0.22009 0.05829 0.10120
 H2597 H 0.17926 0.04244 0.11250
 H2598 H 0.18912 0.03269 0.13371
 H2599 H 0.24113 0.04105 0.16876
 H2600 H 0.24941 0.03300 0.19166
 H2601 H 0.21834 0.00043 0.19116
 H2602 H 0.21021 0.00864 0.16826
 C2603 C 0.71064 0.21161 0.62071
 C2604 C 0.70990 0.19723 0.62283
 C2605 C 0.70496 0.19194 0.63553
 C2606 C 0.70068 0.20099 0.64631
 C2607 C 0.70147 0.21544 0.64410
 C2608 C 0.70643 0.22071 0.63138
 C2609 C 0.71558 0.21696 0.60753
 C2610 C 0.71967 0.22122 0.59639
 C2611 C 0.72450 0.22604 0.58296
 C2612 C 0.73578 0.21948 0.57645
 C2613 C 0.74019 0.22380 0.56319
 C2614 C 0.73336 0.23477 0.55622
 C2615 C 0.72210 0.24139 0.56293
 C2616 C 0.71771 0.23704 0.57620
 H2617 H 0.71307 0.19010 0.61462
 H2618 H 0.70428 0.18078 0.63683
 H2619 H 0.69839 0.22265 0.65226
 H2620 H 0.70697 0.23187 0.62985
 H2621 H 0.74109 0.21092 0.58158
 H2622 H 0.74887 0.21844 0.55835
 H2623 H 0.71656 0.24983 0.55787
 H2624 H 0.70894 0.24216 0.58113
 C2625 C 0.71161 0.71092 0.12112
 C2626 C 0.70742 0.72012 0.13168
 C2627 C 0.70232 0.71499 0.14440
 C2628 C 0.70136 0.70056 0.14671
 C2629 C 0.70567 0.69140 0.13604
 C2630 C 0.71076 0.69656 0.12334
 C2631 C 0.71661 0.71615 0.10791
 C2632 C 0.72072 0.72038 0.09676
 C2633 C 0.72551 0.72525 0.08334
 C2634 C 0.71905 0.73662 0.07691
 C2635 C 0.72342 0.74109 0.06367
 C2636 C 0.73435 0.73422 0.05667
 C2637 C 0.74085 0.72284 0.06330
 C2638 C 0.73645 0.71840 0.07653
 H2639 H 0.70805 0.73126 0.13008
 H2640 H 0.69922 0.72229 0.15247
 H2641 H 0.70487 0.68025 0.13741
 H2642 H 0.71392 0.68934 0.11520
 H2643 H 0.71055 0.74198 0.08207
 H2644 H 0.71816 0.74985 0.05889
 H2645 H 0.74925 0.71727 0.05823
 H2646 H 0.74150 0.70955 0.08141
 C2647 C 0.53759 0.71330 0.12665
 C2648 C 0.55199 0.71218 0.12483
 C2649 C 0.55741 0.70694 0.11230
 C2650 C 0.54847 0.70274 0.10139
 C2651 C 0.53400 0.70400 0.10327
 C2652 C 0.52860 0.70925 0.11583
 C2653 C 0.53212 0.71831 0.13975
 C2654 C 0.52780 0.72238 0.15090
 C2655 C 0.52299 0.72707 0.16438
 C2656 C 0.52958 0.73825 0.17103
 C2657 C 0.52548 0.74233 0.18448
 C2658 C 0.51472 0.73524 0.19150
 C2659 C 0.50799 0.72415 0.18460
 C2660 C 0.51212 0.72010 0.17114
 H2661 H 0.55904 0.71522 0.13317
 H2662 H 0.56858 0.70591 0.11126
 H2663 H 0.52687 0.70099 0.09501
 H2664 H 0.51743 0.71008 0.11713
 H2665 H 0.53803 0.74369 0.16591
 H2666 H 0.53090 0.75089 0.18946
 H2667 H 0.49970 0.71845 0.18968
 H2668 H 0.50698 0.71140 0.16610
 C2669 C 0.03878 0.71050 0.62910
 C2670 C 0.03953 0.69610 0.62702
 C2671 C 0.04485 0.69076 0.61449
 C2672 C 0.04952 0.69976 0.60386
 C2673 C 0.04863 0.71422 0.60600
 C2674 C 0.04329 0.71954 0.61855
 C2675 C 0.03361 0.71593 0.64217
 C2676 C 0.02939 0.72032 0.65322
 C2677 C 0.02445 0.72535 0.66654
 C2678 C 0.01333 0.71871 0.67319
 C2679 C 0.00882 0.72325 0.68636
 C2680 C 0.01541 0.73453 0.69307
 C2681 C 0.02652 0.74122 0.68621
 C2682 C 0.03100 0.73665 0.67304
 H2683 H 0.03612 0.68901 0.63515
 H2684 H 0.04558 0.67958 0.61324
 H2685 H 0.05199 0.72140 0.59795
 H2686 H 0.04273 0.73071 0.62005
 H2687 H 0.00821 0.70992 0.66827
 H2688 H 0.00028 0.71782 0.69133
 H2689 H 0.03186 0.74990 0.69107
 H2690 H 0.03965 0.74184 0.66799
 C2691 C 0.53709 0.62729 0.21452
 C2692 C 0.52803 0.61663 0.21040
 C2693 C 0.53336 0.60407 0.20528
 C2694 C 0.54783 0.60201 0.20423
 C2695 C 0.55683 0.61275 0.20852
 C2696 C 0.55148 0.62529 0.21363
 C2697 C 0.53168 0.64040 0.21936
 C2698 C 0.52741 0.65154 0.22328
 C2699 C 0.52264 0.66502 0.22779
 C2700 C 0.51163 0.67157 0.22079
 C2701 C 0.50753 0.68500 0.22467
 C2702 C 0.51443 0.69208 0.23559
 C2703 C 0.52533 0.68527 0.24271
 C2704 C 0.52940 0.67185 0.23882
 H2705 H 0.51687 0.61807 0.21106
 H2706 H 0.52618 0.59594 0.20221
 H2707 H 0.56800 0.61157 0.20765
 H2708 H 0.55858 0.63349 0.21673
 H2709 H 0.50635 0.66639 0.21221
 H2710 H 0.49912 0.68991 0.21894
 H2711 H 0.53088 0.69038 0.25116
 H2712 H 0.53796 0.66689 0.24427
 C2713 C 0.03859 0.63056 0.71080
 C2714 C 0.05301 0.62882 0.70979
 C2715 C 0.05854 0.61637 0.70466
 C2716 C 0.04970 0.60546 0.70047
 C2717 C 0.03521 0.60729 0.70156
 C2718 C 0.02970 0.61976 0.70671
 C2719 C 0.03298 0.64350 0.71589
 C2720 C 0.02851 0.65446 0.72009
 C2721 C 0.02343 0.66768 0.72501
 C2722 C 0.02981 0.67417 0.73648
 C2723 C 0.02532 0.68728 0.74092
 C2724 C 0.01436 0.69412 0.73393
 C2725 C 0.00790 0.68742 0.72250
 C2726 C 0.01242 0.67429 0.71808
 H2727 H 0.05998 0.63714 0.71287
 H2728 H 0.06972 0.61537 0.70375
 H2729 H 0.02815 0.59902 0.69856
 H2730 H 0.01852 0.62099 0.70746
 H2731 H 0.03838 0.66916 0.74189
 H2732 H 0.03056 0.69212 0.74972
 H2733 H -0.00052 0.69237 0.71684
 H2734 H 0.00744 0.66938 0.70916
 C2735 C 0.03874 0.12012 0.03798
 C2736 C 0.05279 0.12325 0.03603
 C2737 C 0.05831 0.13569 0.04119
 C2738 C 0.04987 0.14535 0.04850
 C2739 C 0.03563 0.14200 0.05024
 C2740 C 0.03017 0.12953 0.04504
 C2741 C 0.03324 0.10711 0.03297
 C2742 C 0.02885 0.09609 0.02883
 C2743 C 0.02389 0.08281 0.02397
 C2744 C 0.03033 0.07631 0.01256
 C2745 C 0.02594 0.06315 0.00817
 C2746 C 0.01503 0.05627 0.01516
 C2747 C 0.00851 0.06299 0.02653
 C2748 C 0.01293 0.07616 0.03090
 H2749 H 0.05956 0.11595 0.03069
 H2750 H 0.06937 0.13726 0.03994
 H2751 H 0.02844 0.14913 0.05520
 H2752 H 0.01922 0.12725 0.04652
 H2753 H 0.03886 0.08135 0.00715
 H2754 H 0.03123 0.05830 -0.00059
 H2755 H 0.00012 0.05800 0.03218
 H2756 H 0.00790 0.08109 0.03978
 C2757 C 0.03860 0.62134 0.53632
 C2758 C 0.05302 0.62299 0.53741
 C2759 C 0.05858 0.63527 0.54290
 C2760 C 0.04977 0.64609 0.54739
 C2761 C 0.03527 0.64438 0.54613
 C2762 C 0.02973 0.63207 0.54063
 C2763 C 0.03295 0.60845 0.53113
 C2764 C 0.02847 0.59749 0.52696
 C2765 C 0.02343 0.58421 0.52220
 C2766 C 0.02982 0.57757 0.51085
 C2767 C 0.02554 0.56428 0.50675
 C2768 C 0.01479 0.55741 0.51400
 C2769 C 0.00824 0.56431 0.52524
 C2770 C 0.01255 0.57760 0.52931
 H2771 H 0.05997 0.61471 0.53417
 H2772 H 0.06976 0.63619 0.54393
 H2773 H 0.02823 0.65258 0.54935
 H2774 H 0.01855 0.63090 0.53982
 H2775 H 0.03828 0.58257 0.50530
 H2776 H 0.03083 0.55930 0.49807
 H2777 H -0.00004 0.55934 0.53108
 H2778 H 0.00756 0.58263 0.53815
 C2779 C 0.53902 0.11985 0.53785
 C2780 C 0.53973 0.12192 0.55236
 C2781 C 0.54497 0.13438 0.55776
 C2782 C 0.54959 0.14496 0.54870
 C2783 C 0.54879 0.14280 0.53411
 C2784 C 0.54353 0.13032 0.52873
 C2785 C 0.53385 0.10688 0.53240
 C2786 C 0.52961 0.09589 0.52806
 C2787 C 0.52467 0.08263 0.52313
 C2788 C 0.53130 0.07599 0.51191
 C2789 C 0.52688 0.06283 0.50751
 C2790 C 0.51575 0.05611 0.51431
 C2791 C 0.50905 0.06297 0.52549
 C2792 C 0.51349 0.07612 0.52985
 H2793 H 0.53632 0.11386 0.55952
 H2794 H 0.54565 0.13564 0.56903
 H2795 H 0.55213 0.15081 0.52688
 H2796 H 0.54302 0.12882 0.51748
 H2797 H 0.53999 0.08092 0.50666
 H2798 H 0.53231 0.05786 0.49891
 H2799 H 0.50049 0.05811 0.53099
 H2800 H 0.50831 0.08115 0.53859
 C2801 C 0.53680 0.62267 0.03592
 C2802 C 0.55122 0.62438 0.03690
 C2803 C 0.55678 0.63681 0.04204
 C2804 C 0.54797 0.64772 0.04629
 C2805 C 0.53347 0.64594 0.04517
 C2806 C 0.52793 0.63349 0.04002
 C2807 C 0.53119 0.60967 0.03100
 C2808 C 0.52679 0.59862 0.02700
 C2809 C 0.52194 0.58522 0.02238
 C2810 C 0.52862 0.57845 0.01127
 C2811 C 0.52452 0.56507 0.00730
 C2812 C 0.51367 0.55823 0.01442
 C2813 C 0.50683 0.56525 0.02542
 C2814 C 0.51096 0.57864 0.02936
 H2815 H 0.55818 0.61605 0.03382
 H2816 H 0.56797 0.63777 0.04297
 H2817 H 0.52643 0.65421 0.04822
 H2818 H 0.51674 0.63227 0.03930
 H2819 H 0.53716 0.58343 0.00582
 H2820 H 0.53003 0.56000 -0.00119
 H2821 H 0.49846 0.56031 0.03115
 H2822 H 0.50575 0.58377 0.03801
 C2823 C 0.71131 0.12939 0.53796
 C2824 C 0.71351 0.12589 0.55199
 C2825 C 0.70822 0.11347 0.55739
 C2826 C 0.70051 0.10420 0.54884
 C2827 C 0.69852 0.10792 0.53460
 C2828 C 0.70387 0.12036 0.52926
 C2829 C 0.71644 0.14241 0.53260
 C2830 C 0.72063 0.15343 0.52833
 C2831 C 0.72550 0.16673 0.52346
 C2832 C 0.73660 0.17331 0.53027
 C2833 C 0.74098 0.18649 0.52594
 C2834 C 0.73430 0.19328 0.51471
 C2835 C 0.72325 0.18648 0.50782
 C2836 C 0.71889 0.17330 0.51218
 H2837 H 0.71916 0.13289 0.55886
 H2838 H 0.70968 0.11162 0.56848
 H2839 H 0.69325 0.10109 0.52732
 H2840 H 0.70219 0.12293 0.51832
 H2841 H 0.74176 0.16832 0.53904
 H2842 H 0.74949 0.19141 0.53151
 H2843 H 0.71784 0.19140 0.49918
 H2844 H 0.71026 0.16831 0.50686
 C2845 C 0.71152 0.62974 0.03729
 C2846 C 0.69713 0.62777 0.03824
 C2847 C 0.69181 0.61523 0.04334
 C2848 C 0.70082 0.60448 0.04758
 C2849 C 0.71528 0.60653 0.04649
 C2850 C 0.72059 0.61908 0.04138
 C2851 C 0.71693 0.64281 0.03237
 C2852 C 0.72126 0.65388 0.02836
 C2853 C 0.72620 0.66723 0.02370
 C2854 C 0.71971 0.67390 0.01241
 C2855 C 0.72411 0.68711 0.00821
 C2856 C 0.73509 0.69385 0.01527
 C2857 C 0.74165 0.68697 0.02651
 C2858 C 0.73722 0.67375 0.03069
 H2859 H 0.69002 0.63597 0.03516
 H2860 H 0.68064 0.61406 0.04425
 H2861 H 0.72248 0.59839 0.04953
 H2862 H 0.73175 0.62050 0.04067
 H2863 H 0.71114 0.66896 0.00696
 H2864 H 0.71880 0.69210 -0.00046
 H2865 H 0.75010 0.69184 0.03221
 H2866 H 0.74229 0.66869 0.03947
 C2867 C 0.21001 0.61928 0.71154
 C2868 C 0.21890 0.62997 0.70720
 C2869 C 0.21339 0.64232 0.70178
 C2870 C 0.19890 0.64413 0.70064
 C2871 C 0.19006 0.63334 0.70510
 C2872 C 0.19559 0.62101 0.71050
 C2873 C 0.21563 0.60642 0.71682
 C2874 C 0.22013 0.59552 0.72113
 C2875 C 0.22527 0.58236 0.72612
 C2876 C 0.23644 0.57586 0.71937
 C2877 C 0.24101 0.56277 0.72380
 C2878 C 0.23443 0.55597 0.73508
 C2879 C 0.22333 0.56270 0.74193
 C2880 C 0.21879 0.57579 0.73746
 H2881 H 0.23009 0.62874 0.70797
 H2882 H 0.22045 0.65050 0.69858
 H2883 H 0.17887 0.63433 0.70417
 H2884 H 0.18862 0.61277 0.71377
 H2885 H 0.24150 0.58083 0.71055
 H2886 H 0.24955 0.55790 0.71826
 H2887 H 0.21799 0.55778 0.75060
 H2888 H 0.21010 0.58071 0.74274
 C2889 C 0.21164 0.12009 0.21182
 C2890 C 0.22015 0.12924 0.20438
 C2891 C 0.21473 0.14168 0.19909
 C2892 C 0.20058 0.14528 0.20114
 C2893 C 0.19221 0.13588 0.20885
 C2894 C 0.19769 0.12346 0.21408
 C2895 C 0.21709 0.10707 0.21687
 C2896 C 0.22146 0.09605 0.22099
 C2897 C 0.22646 0.08276 0.22577
 C2898 C 0.23756 0.07627 0.21889
 C2899 C 0.24206 0.06310 0.22317
 C2900 C 0.23549 0.05623 0.23440
 C2901 C 0.22443 0.06294 0.24134
 C2902 C 0.21996 0.07611 0.23704
 H2903 H 0.23102 0.12677 0.20265
 H2904 H 0.22187 0.14861 0.19382
 H2905 H 0.18120 0.13764 0.21035
 H2906 H 0.19096 0.11637 0.21972
 H2907 H 0.24264 0.08131 0.21012
 H2908 H 0.25057 0.05824 0.21755
 H2909 H 0.21911 0.05797 0.24999
 H2910 H 0.21133 0.08103 0.24241
 C2911 C 0.71408 1.12256 0.71340
 C2912 C 0.71578 1.12574 0.69922
 C2913 C 0.71039 1.13809 0.69374
 C2914 C 0.70307 1.14761 0.70235
 C2915 C 0.70165 1.14426 0.71675
 C2916 C 0.70709 1.13188 0.72216
 C2917 C 0.71910 1.10952 0.71880
 C2918 C 0.72314 1.09843 0.72307
 C2919 C 0.72774 1.08500 0.72786
 C2920 C 0.73885 1.07833 0.72118
 C2921 C 0.74281 1.06493 0.72525
 C2922 C 0.73567 1.05799 0.73608
 C2923 C 0.72466 1.06491 0.74290
 C2924 C 0.72073 1.07831 0.73880
 H2925 H 0.72106 1.11851 0.69230
 H2926 H 0.71141 1.13967 0.68256
 H2927 H 0.69673 1.15131 0.72406
 H2928 H 0.70580 1.12956 0.73321
 H2929 H 0.74431 1.08340 0.71267
 H2930 H 0.75131 1.05994 0.71975
 H2931 H 0.71892 1.05990 0.75126
 H2932 H 0.71208 1.08337 0.74402
 C2933 C 0.71331 0.62232 0.21422
 C2934 C 0.72225 0.63286 0.20962
 C2935 C 0.71679 0.64525 0.20424
 C2936 C 0.70230 0.64724 0.20340
 C2937 C 0.69342 0.63661 0.20815
 C2938 C 0.69890 0.62425 0.21352
 C2939 C 0.71882 0.60935 0.21930
 C2940 C 0.72316 0.59830 0.22339
 C2941 C 0.72797 0.58490 0.22805
 C2942 C 0.73905 0.57836 0.22118
 C2943 C 0.74315 0.56496 0.22512
 C2944 C 0.73619 0.55790 0.23598
 C2945 C 0.72523 0.56470 0.24300
 C2946 C 0.72116 0.57810 0.23904
 H2947 H 0.73343 0.63146 0.21012
 H2948 H 0.72388 0.65330 0.20080
 H2949 H 0.68223 0.63773 0.20743
 H2950 H 0.69188 0.61612 0.21697
 H2951 H 0.74437 0.58352 0.21263
 H2952 H 0.75161 0.56006 0.21948
 H2953 H 0.71962 0.55960 0.25139
 H2954 H 0.71253 0.58306 0.24439
 C2955 C 0.53716 0.12771 0.71278
 C2956 C 0.54139 0.11702 0.72180
 C2957 C 0.54676 0.10463 0.71630
 C2958 C 0.54795 0.10279 0.70170
 C2959 C 0.54360 0.11359 0.69274
 C2960 C 0.53825 0.12595 0.69826
 C2961 C 0.53200 0.14064 0.71836
 C2962 C 0.52781 0.15164 0.72275
 C2963 C 0.52302 0.16496 0.72767
 C2964 C 0.52989 0.17162 0.73875
 C2965 C 0.52580 0.18495 0.74295
 C2966 C 0.51478 0.19183 0.73609
 C2967 C 0.50777 0.18491 0.72514
 C2968 C 0.51189 0.17158 0.72096
 H2969 H 0.54059 0.11828 0.73306
 H2970 H 0.54989 0.09646 0.72345
 H2971 H 0.54459 0.11258 0.68147
 H2972 H 0.53508 0.13419 0.69119
 H2973 H 0.53855 0.16660 0.74399
 H2974 H 0.53145 0.18994 0.75140
 H2975 H 0.49927 0.18988 0.71960
 H2976 H 0.50653 0.16654 0.71234
 C2977 C 1.03788 0.12793 0.21243
 C2978 C 1.05233 0.12634 0.21155
 C2979 C 1.05803 0.11408 0.20615
 C2980 C 1.04934 0.10322 0.20154
 C2981 C 1.03482 0.10488 0.20252
 C2982 C 1.02914 0.11717 0.20794
 C2983 C 1.03213 0.14075 0.21767
 C2984 C 1.02761 0.15166 0.22193
 C2985 C 1.02259 0.16490 0.22685
 C2986 C 1.02923 0.17153 0.23809
 C2987 C 1.02501 0.18480 0.24231
 C2988 C 1.01406 0.19167 0.23531
 C2989 C 1.00725 0.18477 0.22422
 C2990 C 1.01151 0.17149 0.22002
 H2991 H 1.05919 0.13463 0.21493
 H2992 H 1.06923 0.11321 0.20534
 H2993 H 1.02787 0.09665 0.19919
 H2994 H 1.01794 0.11829 0.20857
 H2995 H 1.03785 0.16654 0.24342
 H2996 H 1.03050 0.18978 0.25087
 H2997 H 0.99882 0.18973 0.21858
 H2998 H 1.00633 0.16647 0.21128
 C2999 C 0.21152 0.63006 0.53846
 C3000 C 0.19712 0.62805 0.53907
 C3001 C 0.19170 0.61559 0.54424
 C3002 C 0.20063 0.60494 0.54891
 C3003 C 0.21511 0.60703 0.54820
 C3004 C 0.22051 0.61952 0.54300
 C3005 C 0.21701 0.64304 0.53340
 C3006 C 0.22138 0.65405 0.52925
 C3007 C 0.22634 0.66732 0.52441
 C3008 C 0.21983 0.67387 0.51306
 C3009 C 0.22422 0.68704 0.50871
 C3010 C 0.23520 0.69386 0.51567
 C3011 C 0.24180 0.68709 0.52697
 C3012 C 0.23738 0.67392 0.53130
 H3013 H 0.19007 0.63617 0.53564
 H3014 H 0.18051 0.61438 0.54485
 H3015 H 0.22225 0.59897 0.55157
 H3016 H 0.23168 0.62096 0.54257
 H3017 H 0.21124 0.66887 0.50768
 H3018 H 0.21888 0.69193 0.50000
 H3019 H 0.25025 0.69203 0.53260
 H3020 H 0.24246 0.66896 0.54013
 C3021 C 0.21022 0.13098 1.03909
 C3022 C 0.19580 0.12932 1.04008
 C3023 C 0.19022 0.11703 1.04549
 C3024 C 0.19901 0.10621 1.05001
 C3025 C 0.21351 0.10795 1.04894
 C3026 C 0.21907 0.12027 1.04351
 C3027 C 0.21589 0.14379 1.03377
 C3028 C 0.22042 0.15465 1.02941
 C3029 C 0.22559 0.16777 1.02436
 C3030 C 0.21908 0.17434 1.01302
 C3031 C 0.22364 0.18740 1.00853
 C3032 C 0.23479 0.19410 1.01534
 C3033 C 0.24139 0.18729 1.02662
 C3034 C 0.23681 0.17422 1.03108
 H3035 H 0.18885 0.13758 1.03676
 H3036 H 0.17902 0.11609 1.04637
 H3037 H 0.22054 0.09975 1.05218
 H3038 H 0.23026 0.12145 1.04278
 H3039 H 0.21035 0.16944 1.00777
 H3040 H 0.21828 0.19233 0.99985
 H3041 H 0.24997 0.19213 1.03214
 H3042 H 0.24189 0.16925 1.03990
 C3043 C 0.20997 0.71019 0.62043
 C3044 C 0.20554 0.71903 0.63121
 C3045 C 0.20012 0.71347 0.64361
 C3046 C 0.19908 0.69897 0.64539
 C3047 C 0.20363 0.69018 0.63451
 C3048 C 0.20903 0.69576 0.62212
 C3049 C 0.21529 0.71586 0.60754
 C3050 C 0.21966 0.72041 0.59662
 C3051 C 0.22477 0.72562 0.58344
 C3052 C 0.21805 0.73673 0.57680
 C3053 C 0.22266 0.74139 0.56371
 C3054 C 0.23406 0.73496 0.55706
 C3055 C 0.24085 0.72390 0.56393
 C3056 C 0.23622 0.71927 0.57702
 H3057 H 0.20624 0.73022 0.63002
 H3058 H 0.19685 0.72050 0.65186
 H3059 H 0.20277 0.67899 0.63547
 H3060 H 0.21237 0.68882 0.61382
 H3061 H 0.20915 0.74169 0.58167
 H3062 H 0.21715 0.74988 0.55873
 H3063 H 0.24962 0.71868 0.55913
 H3064 H 0.24147 0.71063 0.58205
 C3065 C 0.21070 0.21060 1.12071
 C3066 C 0.20970 0.19619 1.12250
 C3067 C 0.20450 0.19072 1.13502
 C3068 C 0.20022 0.19961 1.14594
 C3069 C 0.20133 0.21409 1.14406
 C3070 C 0.20654 0.21954 1.13152
 C3071 C 0.21582 0.21615 1.10769
 C3072 C 0.22004 0.22062 1.09667
 C3073 C 0.22497 0.22572 1.08338
 C3074 C 0.23630 0.21930 1.07683
 C3075 C 0.24079 0.22387 1.06368
 C3076 C 0.23398 0.23495 1.05687
 C3077 C 0.22268 0.24144 1.06364
 C3078 C 0.21822 0.23684 1.07680
 H3079 H 0.21283 0.18917 1.11418
 H3080 H 0.20359 0.17954 1.13607
 H3081 H 0.19826 0.22118 1.15233
 H3082 H 0.20729 0.23071 1.13024
 H3083 H 0.24158 0.21065 1.08183
 H3084 H 0.24949 0.21860 1.05879
 H3085 H 0.21716 0.24996 1.05870
 H3086 H 0.20940 0.24186 1.08176
 C3087 C 0.71249 0.53826 0.12749
 C3088 C 0.71145 0.55267 0.12573
 C3089 C 0.70608 0.55815 0.11327
 C3090 C 0.70167 0.54928 0.10239
 C3091 C 0.70283 0.53480 0.10423
 C3092 C 0.70821 0.52933 0.11671
 C3093 C 0.71769 0.53271 0.14050
 C3094 C 0.72192 0.52832 0.15156
 C3095 C 0.72679 0.52341 0.16495
 C3096 C 0.73794 0.53006 0.17159
 C3097 C 0.74219 0.52585 0.18496
 C3098 C 0.73530 0.51491 0.19190
 C3099 C 0.72425 0.50812 0.18500
 C3100 C 0.72003 0.51236 0.17163
 H3101 H 0.71466 0.55967 0.13403
 H3102 H 0.70512 0.56933 0.11227
 H3103 H 0.69966 0.52772 0.09599
 H3104 H 0.70898 0.51816 0.11797
 H3105 H 0.74322 0.53866 0.16653
 H3106 H 0.75071 0.53132 0.18994
 H3107 H 0.71870 0.49969 0.19001
 H3108 H 0.71136 0.50717 0.16659
 C3109 C 0.71163 1.03788 0.62823
 C3110 C 0.71079 1.05231 0.62653
 C3111 C 0.70542 1.05793 0.61415
 C3112 C 0.70079 1.04917 0.60326
 C3113 C 0.70174 1.03466 0.60503
 C3114 C 0.70712 1.02906 0.61745
 C3115 C 0.71685 1.03221 0.64117
 C3116 C 0.72111 1.02777 0.65219
 C3117 C 0.72605 1.02284 0.66555
 C3118 C 0.73732 1.02941 0.67207
 C3119 C 0.74160 1.02526 0.68545
 C3120 C 0.73461 1.01447 0.69252
 C3121 C 0.72345 1.00774 0.68574
 C3122 C 0.71920 1.01193 0.67235
 H3123 H 0.71418 1.05923 0.63484
 H3124 H 0.70463 1.06912 0.61320
 H3125 H 0.69839 1.02767 0.59679
 H3126 H 0.70773 1.01787 0.61866
 H3127 H 0.74267 1.03791 0.66691
 H3128 H 0.75021 1.03068 0.69033
 H3129 H 0.71782 0.99942 0.69086
 H3130 H 0.71043 1.00680 0.66742
 C3131 C 0.53793 0.21189 0.62811
 C3132 C 0.54233 0.22071 0.61731
 C3133 C 0.54767 0.21511 0.60488
 C3134 C 0.54867 0.20061 0.60310
 C3135 C 0.54412 0.19184 0.61398
 C3136 C 0.53879 0.19746 0.62639
 C3137 C 0.53283 0.21755 0.64110
 C3138 C 0.52868 0.22199 0.65216
 C3139 C 0.52389 0.22690 0.66557
 C3140 C 0.53087 0.23773 0.67241
 C3141 C 0.52674 0.24190 0.68583
 C3142 C 0.51556 0.23524 0.69261
 C3143 C 0.50844 0.22454 0.68551
 C3144 C 0.51260 0.22040 0.67209
 H3145 H 0.54170 0.23190 0.61854
 H3146 H 0.55095 0.22212 0.59663
 H3147 H 0.54495 0.18065 0.61303
 H3148 H 0.53549 0.19053 0.63471
 H3149 H 0.53966 0.24279 0.66747
 H3150 H 0.53247 0.25015 0.69098
 H3151 H 0.49981 0.21918 0.69039
 H3152 H 0.50715 0.21198 0.66691
 C3153 C 1.03835 0.21192 0.12752
 C3154 C 1.02948 0.20752 0.11674
 C3155 C 1.03502 0.20201 0.10436
 C3156 C 1.04952 0.20085 0.10262
 C3157 C 1.05833 0.20539 0.11349
 C3158 C 1.05277 0.21089 0.12585
 C3159 C 1.03272 0.21720 0.14046
 C3160 C 1.02827 0.22147 0.15147
 C3161 C 1.02328 0.22636 0.16482
 C3162 C 1.01220 0.21960 0.17144
 C3163 C 1.00792 0.22379 0.18480
 C3164 C 1.01471 0.23480 0.19176
 C3165 C 1.02567 0.24170 0.18487
 C3166 C 1.02992 0.23749 0.17151
 H3167 H 1.01829 0.20827 0.11793
 H3168 H 1.02798 0.19874 0.09612
 H3169 H 1.06952 0.20444 0.11256
 H3170 H 1.05973 0.21420 0.13416
 H3171 H 1.00701 0.21094 0.16637
 H3172 H 0.99946 0.21823 0.18978
 H3173 H 1.03115 0.25020 0.18989
 H3174 H 1.03854 0.24276 0.16649
 C3175 C 0.62253 0.21181 0.71427
 C3176 C 0.63287 0.22088 0.70949
 C3177 C 0.64528 0.21559 0.70398
 C3178 C 0.64749 0.20113 0.70318
 C3179 C 0.63705 0.19211 0.70810
 C3180 C 0.62467 0.19742 0.71360
 C3181 C 0.60955 0.21717 0.71951
 C3182 C 0.59852 0.22144 0.72372
 C3183 C 0.58517 0.22626 0.72852
 C3184 C 0.57869 0.23751 0.72188
 C3185 C 0.56536 0.24168 0.72596
 C3186 C 0.55829 0.23461 0.73676
 C3187 C 0.56502 0.22347 0.74354
 C3188 C 0.57836 0.21933 0.73943
 H3189 H 0.63132 0.23204 0.70996
 H3190 H 0.65318 0.22279 0.70042
 H3191 H 0.63834 0.18094 0.70743
 H3192 H 0.61670 0.19030 0.71719
 H3193 H 0.58386 0.24293 0.71339
 H3194 H 0.56051 0.25028 0.72049
 H3195 H 0.55990 0.21777 0.75186
 H3196 H 0.58326 0.21057 0.74461
 C3197 C 1.12133 0.21100 0.21298
 C3198 C 1.13194 0.21991 0.20848
 C3199 C 1.14428 0.21442 0.20299
 C3200 C 1.14614 0.19993 0.20193
 C3201 C 1.13543 0.19107 0.20655
 C3202 C 1.12312 0.19658 0.21203
 C3203 C 1.10846 0.21656 0.21825
 C3204 C 1.09750 0.22096 0.22251
 C3205 C 1.08421 0.22590 0.22738
 C3206 C 1.07772 0.23711 0.22068
 C3207 C 1.06443 0.24135 0.22482
 C3208 C 1.05742 0.23440 0.23573
 C3209 C 1.06418 0.22331 0.24258
 C3210 C 1.07747 0.21910 0.23841
 H3211 H 1.13066 0.23109 0.20917
 H3212 H 1.15239 0.22149 0.19966
 H3213 H 1.13645 0.17989 0.20567
 H3214 H 1.11494 0.18959 0.21540
 H3215 H 1.08284 0.24242 0.21210
 H3216 H 1.05956 0.24991 0.21930
 H3217 H 1.05911 0.21771 0.25100
 H3218 H 1.08239 0.21038 0.24364
 C3219 C 0.13039 0.71090 0.53902
 C3220 C 0.11979 0.70692 0.52978
 C3221 C 0.10726 0.70163 0.53499
 C3222 C 0.10519 0.70026 0.54954
 C3223 C 0.11590 0.70436 0.55874
 C3224 C 0.12840 0.70963 0.55350
 C3225 C 0.14339 0.71609 0.53371
 C3226 C 0.15440 0.72035 0.52945
 C3227 C 0.16766 0.72533 0.52458
 C3228 C 0.17421 0.71892 0.51318
 C3229 C 0.18732 0.72343 0.50879
 C3230 C 0.19409 0.73444 0.51577
 C3231 C 0.18733 0.74091 0.52714
 C3232 C 0.17421 0.73637 0.53151
 H3233 H 0.12121 0.70787 0.51854
 H3234 H 0.09916 0.69871 0.52765
 H3235 H 0.11470 0.70324 0.56997
 H3236 H 0.13656 0.71263 0.56075
 H3237 H 0.16923 0.71033 0.50778
 H3238 H 0.19222 0.71818 0.50003
 H3239 H 0.19222 0.74938 0.53279
 H3240 H 0.16925 0.74139 0.54037
 C3241 C 0.13003 0.21027 1.03761
 C3242 C 0.11928 0.21929 1.04155
 C3243 C 0.10676 0.21394 1.04671
 C3244 C 0.10484 0.19948 1.04799
 C3245 C 0.11567 0.19051 1.04388
 C3246 C 0.12818 0.19588 1.03873
 C3247 C 0.14306 0.21574 1.03266
 C3248 C 0.15409 0.22017 1.02863
 C3249 C 0.16737 0.22526 1.02395
 C3250 C 0.17390 0.23619 1.03108
 C3251 C 0.18703 0.24081 1.02684
 C3252 C 0.19383 0.23452 1.01539
 C3253 C 0.18710 0.22361 1.00821
 C3254 C 0.17397 0.21903 1.01248
 H3255 H 0.12060 0.23045 1.04070
 H3256 H 0.09856 0.22110 1.04963
 H3257 H 0.11459 0.17935 1.04493
 H3258 H 0.13645 0.18880 1.03577
 H3259 H 0.16889 0.24106 1.04000
 H3260 H 0.19191 0.24919 1.03264
 H3261 H 0.19202 0.21850 0.99939
 H3262 H 0.16903 0.21053 1.00691
 C3263 C 0.62784 0.53656 0.21433
 C3264 C 0.61735 0.54080 0.22357
 C3265 C 0.60477 0.54600 0.21833
 C3266 C 0.60255 0.54701 0.20377
 C3267 C 0.61315 0.54266 0.19459
 C3268 C 0.62570 0.53747 0.19985
 C3269 C 0.64095 0.53156 0.21962
 C3270 C 0.65210 0.52751 0.22375
 C3271 C 0.66559 0.52284 0.22833
 C3272 C 0.67243 0.52971 0.23929
 C3273 C 0.68587 0.52570 0.24320
 C3274 C 0.69268 0.51476 0.23616
 C3275 C 0.68559 0.50776 0.22531
 C3276 C 0.67215 0.51180 0.22143
 H3277 H 0.61891 0.54014 0.23481
 H3278 H 0.59675 0.54914 0.22566
 H3279 H 0.61185 0.54351 0.18334
 H3280 H 0.63378 0.53430 0.19260
 H3281 H 0.66745 0.53831 0.24468
 H3282 H 0.69099 0.53133 0.25159
 H3283 H 0.69050 0.49931 0.21965
 H3284 H 0.66697 0.50644 0.21290
 C3285 C 0.62794 1.03748 0.71300
 C3286 C 0.62620 1.03851 0.69846
 C3287 C 0.61381 1.04377 0.69289
 C3288 C 0.60297 1.04808 0.70180
 C3289 C 0.60478 1.04693 0.71641
 C3290 C 0.61719 1.04166 0.72196
 C3291 C 0.64087 1.03238 0.71863
 C3292 C 0.65187 1.02824 0.72306
 C3293 C 0.66520 1.02344 0.72800
 C3294 C 0.67167 1.01212 0.72149
 C3295 C 0.68498 1.00796 0.72568
 C3296 C 0.69204 1.01511 0.73645
 C3297 C 0.68531 1.02633 0.74312
 C3298 C 0.67199 1.03046 0.73890
 H3299 H 0.63447 1.03537 0.69142
 H3300 H 0.61283 1.04472 0.68162
 H3301 H 0.59657 1.05003 0.72353
 H3302 H 0.61843 1.04090 0.73324
 H3303 H 0.66652 1.00663 0.71301
 H3304 H 0.68983 0.99929 0.72029
 H3305 H 0.69041 1.03209 0.75142
 H3306 H 0.66708 1.03928 0.74399
 C3307 C 0.87041 0.46092 0.28860
 C3308 C 0.87213 0.44649 0.28954
 C3309 C 0.88451 0.44093 0.29480
 C3310 C 0.89536 0.44973 0.29921
 C3311 C 0.89356 0.46423 0.29818
 C3312 C 0.88115 0.46978 0.29291
 C3313 C 0.85752 0.46655 0.28341
 C3314 C 0.84659 0.47104 0.27915
 C3315 C 0.83339 0.47612 0.27419
 C3316 C 0.82691 0.46973 0.26273
 C3317 C 0.81378 0.47422 0.25828
 C3318 C 0.80695 0.48518 0.26527
 C3319 C 0.81367 0.49165 0.27668
 C3320 C 0.82679 0.48714 0.28110
 H3321 H 0.86385 0.43954 0.28630
 H3322 H 0.88549 0.42974 0.29565
 H3323 H 0.90178 0.47126 0.30135
 H3324 H 0.87993 0.48096 0.29221
 H3325 H 0.83191 0.46116 0.25733
 H3326 H 0.80893 0.46896 0.24950
 H3327 H 0.80871 0.50008 0.28234
 H3328 H 0.83171 0.49213 0.29001
 C3329 C 0.87042 0.96223 0.78841
 C3330 C 0.87250 0.94784 0.78917
 C3331 C 0.88513 0.94252 0.79409
 C3332 C 0.89588 0.95154 0.79832
 C3333 C 0.89371 0.96600 0.79748
 C3334 C 0.88106 0.97130 0.79255
 C3335 C 0.85730 0.96761 0.78354
 C3336 C 0.84620 0.97190 0.77952
 C3337 C 0.83283 0.97675 0.77479
 C3338 C 0.82626 0.97023 0.76345
 C3339 C 0.81304 0.97455 0.75915
 C3340 C 0.80618 0.98549 0.76615
 C3341 C 0.81296 0.99207 0.77746
 C3342 C 0.82618 0.98772 0.78174
 H3343 H 0.86431 0.94073 0.78605
 H3344 H 0.88639 0.93135 0.79481
 H3345 H 0.90184 0.97319 0.80052
 H3346 H 0.87957 0.98246 0.79198
 H3347 H 0.83130 0.96170 0.75802
 H3348 H 0.80815 0.96922 0.75043
 H3349 H 0.80799 1.00049 0.78313
 H3350 H 0.83116 0.99281 0.79056
 C3351 C 0.38013 0.28787 0.78867
 C3352 C 0.37798 0.28912 0.80313
 C3353 C 0.36543 0.29443 0.80824
 C3354 C 0.35483 0.29858 0.79893
 C3355 C 0.35707 0.29725 0.78440
 C3356 C 0.36965 0.29192 0.77932
 C3357 C 0.39319 0.28266 0.78350
 C3358 C 0.40425 0.27839 0.77936
 C3359 C 0.41759 0.27347 0.77461
 C3360 C 0.42419 0.26249 0.78159
 C3361 C 0.43738 0.25805 0.77734
 C3362 C 0.44418 0.26456 0.76603
 C3363 C 0.43736 0.27550 0.75899
 C3364 C 0.42417 0.27991 0.76327
 H3365 H 0.38605 0.28608 0.81047
 H3366 H 0.36411 0.29552 0.81946
 H3367 H 0.34906 0.30022 0.77699
 H3368 H 0.37120 0.29100 0.76810
 H3369 H 0.41920 0.25746 0.79042
 H3370 H 0.44232 0.24964 0.78303
 H3371 H 0.44228 0.28077 0.75027
 H3372 H 0.41917 0.28845 0.75781
 C3373 C 0.87981 0.28831 0.28863
 C3374 C 0.87759 0.28910 0.30312
 C3375 C 0.86513 0.29452 0.30833
 C3376 C 0.85470 0.29924 0.29912
 C3377 C 0.85700 0.29836 0.28457
 C3378 C 0.86948 0.29292 0.27937
 C3379 C 0.89279 0.28299 0.28334
 C3380 C 0.90377 0.27865 0.27908
 C3381 C 0.91701 0.27362 0.27419
 C3382 C 0.92362 0.26262 0.28112
 C3383 C 0.93674 0.25809 0.27674
 C3384 C 0.94346 0.26453 0.26534
 C3385 C 0.93663 0.27549 0.25834
 C3386 C 0.92351 0.27999 0.26275
 H3387 H 0.88554 0.28562 0.31038
 H3388 H 0.86376 0.29525 0.31958
 H3389 H 0.84911 0.30177 0.27721
 H3390 H 0.87109 0.29235 0.26813
 H3391 H 0.91870 0.25764 0.29002
 H3392 H 0.94169 0.24967 0.28241
 H3393 H 0.94148 0.28071 0.24956
 H3394 H 0.91850 0.28854 0.25733
 C3395 C 0.37219 0.78700 0.46316
 C3396 C 0.37385 0.78829 0.44864
 C3397 C 0.38620 0.79366 0.44314
 C3398 C 0.39707 0.79782 0.45210
 C3399 C 0.39534 0.79641 0.46669
 C3400 C 0.38297 0.79102 0.47218
 C3401 C 0.35928 0.78184 0.46873
 C3402 C 0.34828 0.77766 0.47310
 C3403 C 0.33495 0.77286 0.47796
 C3404 C 0.32834 0.76178 0.47116
 C3405 C 0.31501 0.75765 0.47527
 C3406 C 0.30808 0.76460 0.48624
 C3407 C 0.31495 0.77557 0.49319
 C3408 C 0.32828 0.77966 0.48906
 H3409 H 0.36554 0.78528 0.44157
 H3410 H 0.38712 0.79482 0.43188
 H3411 H 0.40358 0.79939 0.47384
 H3412 H 0.38179 0.79007 0.48344
 H3413 H 0.33339 0.75647 0.46252
 H3414 H 0.31005 0.74919 0.46967
 H3415 H 0.30994 0.78116 0.50166
 H3416 H 0.33329 0.78829 0.49436
 C3417 C 0.37161 0.28862 0.96336
 C3418 C 0.38226 0.27976 0.95883
 C3419 C 0.39457 0.28530 0.95336
 C3420 C 0.39637 0.29979 0.95236
 C3421 C 0.38563 0.30860 0.95702
 C3422 C 0.37334 0.30305 0.96248
 C3423 C 0.35876 0.28300 0.96861
 C3424 C 0.34781 0.27856 0.97285
 C3425 C 0.33455 0.27357 0.97770
 C3426 C 0.32794 0.26259 0.97073
 C3427 C 0.31465 0.25832 0.97487
 C3428 C 0.30778 0.26502 0.98604
 C3429 C 0.31467 0.27587 0.99315
 C3430 C 0.32795 0.28011 0.98899
 H3431 H 0.38103 0.26857 0.95947
 H3432 H 0.40271 0.27826 0.95000
 H3433 H 0.38660 0.31980 0.95619
 H3434 H 0.36514 0.31001 0.96588
 H3435 H 0.33294 0.25748 0.96195
 H3436 H 0.30968 0.24995 0.96914
 H3437 H 0.30971 0.28128 1.00178
 H3438 H 0.33296 0.28865 0.99442
 C3439 C 0.78970 0.45966 0.37015
 C3440 C 0.79043 0.44527 0.37227
 C3441 C 0.79568 0.43998 0.38486
 C3442 C 0.80029 0.44902 0.39551
 C3443 C 0.79945 0.46347 0.39331
 C3444 C 0.79419 0.46875 0.38070
 C3445 C 0.78458 0.46504 0.35704
 C3446 C 0.78038 0.46941 0.34597
 C3447 C 0.77548 0.47445 0.33264
 C3448 C 0.76417 0.46803 0.32605
 C3449 C 0.75968 0.47262 0.31288
 C3450 C 0.76647 0.48372 0.30612
 C3451 C 0.77777 0.49019 0.31291
 C3452 C 0.78223 0.48557 0.32608
 H3453 H 0.78704 0.43814 0.36415
 H3454 H 0.79637 0.42881 0.38616
 H3455 H 0.80277 0.47069 0.40137
 H3456 H 0.79365 0.47990 0.37917
 H3457 H 0.75889 0.45938 0.33102
 H3458 H 0.75098 0.46736 0.30796
 H3459 H 0.78327 0.49873 0.30801
 H3460 H 0.79103 0.49060 0.33108
 C3461 C 0.78858 0.96142 0.87158
 C3462 C 0.78949 0.94705 0.87370
 C3463 C 0.79462 0.94182 0.88636
 C3464 C 0.79891 0.95091 0.89711
 C3465 C 0.79791 0.96535 0.89490
 C3466 C 0.79277 0.97056 0.88221
 C3467 C 0.78351 0.96671 0.85842
 C3468 C 0.77934 0.97096 0.84728
 C3469 C 0.77447 0.97581 0.83387
 C3470 C 0.76317 0.96929 0.82735
 C3471 C 0.75872 0.97367 0.81410
 C3472 C 0.76555 0.98465 0.80717
 C3473 C 0.77683 0.99122 0.81390
 C3474 C 0.78125 0.98682 0.82715
 H3475 H 0.78634 0.93987 0.86552
 H3476 H 0.79546 0.93066 0.88766
 H3477 H 0.80100 0.97261 0.90302
 H3478 H 0.79209 0.98171 0.88068
 H3479 H 0.75788 0.96073 0.83245
 H3480 H 0.75004 0.96835 0.80924
 H3481 H 0.78236 0.99968 0.80888
 H3482 H 0.79004 0.99191 0.83209
 C3483 C 0.28755 0.78830 0.37814
 C3484 C 0.28835 0.80270 0.37613
 C3485 C 0.29381 0.80806 0.36369
 C3486 C 0.29856 0.79908 0.35305
 C3487 C 0.29762 0.78462 0.35511
 C3488 C 0.29215 0.77927 0.36759
 C3489 C 0.28231 0.78288 0.39117
 C3490 C 0.27808 0.77859 0.40225
 C3491 C 0.27324 0.77376 0.41567
 C3492 C 0.26229 0.78063 0.42242
 C3493 C 0.25810 0.77647 0.43582
 C3494 C 0.26485 0.76538 0.44268
 C3495 C 0.27568 0.75838 0.43567
 C3496 C 0.27985 0.76256 0.42227
 H3497 H 0.28489 0.80978 0.38426
 H3498 H 0.29459 0.81924 0.36251
 H3499 H 0.30106 0.77745 0.34706
 H3500 H 0.29157 0.76810 0.36903
 H3501 H 0.25713 0.78934 0.41742
 H3502 H 0.24974 0.78212 0.44088
 H3503 H 0.28112 0.74981 0.44062
 H3504 H 0.28837 0.75719 0.41716
 C3505 C 0.28779 0.28862 0.87816
 C3506 C 0.30221 0.28975 0.87654
 C3507 C 0.30778 0.29492 0.86406
 C3508 C 0.29899 0.29904 0.85300
 C3509 C 0.28449 0.29784 0.85471
 C3510 C 0.27894 0.29265 0.86722
 C3511 C 0.28217 0.28353 0.89117
 C3512 C 0.27777 0.27935 0.90223
 C3513 C 0.27289 0.27450 0.91562
 C3514 C 0.27939 0.26317 0.92210
 C3515 C 0.27524 0.25893 0.93548
 C3516 C 0.26452 0.26600 0.94260
 C3517 C 0.25787 0.27723 0.93586
 C3518 C 0.26205 0.28145 0.92248
 H3519 H 0.30915 0.28673 0.88497
 H3520 H 0.31897 0.29592 0.86316
 H3521 H 0.27747 0.30079 0.84634
 H3522 H 0.26775 0.29181 0.86837
 H3523 H 0.28782 0.25774 0.91691
 H3524 H 0.28060 0.25026 0.94033
 H3525 H 0.24960 0.28293 0.94101
 H3526 H 0.25698 0.29026 0.91757
 C3527 C 0.46093 0.28951 0.87097
 C3528 C 0.45979 0.30390 0.87281
 C3529 C 0.45453 0.30930 0.88534
 C3530 C 0.45031 0.30036 0.89622
 C3531 C 0.45152 0.28589 0.89428
 C3532 C 0.45680 0.28051 0.88172
 C3533 C 0.46616 0.28403 0.85794
 C3534 C 0.47046 0.27963 0.84692
 C3535 C 0.47548 0.27459 0.83364
 C3536 C 0.48686 0.28102 0.82719
 C3537 C 0.49143 0.27648 0.81404
 C3538 C 0.48465 0.26544 0.80714
 C3539 C 0.47330 0.25895 0.81380
 C3540 C 0.46876 0.26351 0.82695
 H3541 H 0.46289 0.31096 0.86453
 H3542 H 0.45353 0.32047 0.88643
 H3543 H 0.44850 0.27876 0.90251
 H3544 H 0.45765 0.26935 0.88040
 H3545 H 0.49211 0.28964 0.83227
 H3546 H 0.50016 0.28175 0.80923
 H3547 H 0.46781 0.25045 0.80879
 H3548 H 0.45992 0.25848 0.83183
 C3549 C 0.95996 0.28980 0.36988
 C3550 C 0.94556 0.29061 0.37189
 C3551 C 0.94020 0.29591 0.38442
 C3552 C 0.94918 0.30049 0.39514
 C3553 C 0.96365 0.29960 0.39304
 C3554 C 0.96899 0.29428 0.38049
 C3555 C 0.96540 0.28452 0.35686
 C3556 C 0.96978 0.28016 0.34585
 C3557 C 0.97480 0.27504 0.33259
 C3558 C 0.96806 0.26392 0.32598
 C3559 C 0.97259 0.25925 0.31286
 C3560 C 0.98396 0.26566 0.30616
 C3561 C 0.99076 0.27674 0.31298
 C3562 C 0.98620 0.28139 0.32610
 H3563 H 0.93847 0.28723 0.36372
 H3564 H 0.92902 0.29665 0.38564
 H3565 H 0.97083 0.30289 0.40116
 H3566 H 0.98016 0.29369 0.37905
 H3567 H 0.95920 0.25896 0.33090
 H3568 H 0.96708 0.25073 0.30792
 H3569 H 0.99951 0.28195 0.30813
 H3570 H 0.99147 0.29003 0.33111
 C3571 C 0.46137 0.36974 0.78861
 C3572 C 0.44696 0.37176 0.78920
 C3573 C 0.44153 0.38423 0.79440
 C3574 C 0.45046 0.39486 0.79911
 C3575 C 0.46494 0.39275 0.79842
 C3576 C 0.47035 0.38027 0.79320
 C3577 C 0.46686 0.35676 0.78352
 C3578 C 0.47125 0.34576 0.77934
 C3579 C 0.47624 0.33249 0.77448
 C3580 C 0.46968 0.32588 0.76319
 C3581 C 0.47412 0.31271 0.75882
 C3582 C 0.48518 0.30596 0.76572
 C3583 C 0.49181 0.31280 0.77697
 C3584 C 0.48735 0.32596 0.78131
 H3585 H 0.43992 0.36366 0.78574
 H3586 H 0.43035 0.38544 0.79499
 H3587 H 0.47207 0.40080 0.80183
 H3588 H 0.48152 0.37881 0.79279
 H3589 H 0.46103 0.33082 0.75785
 H3590 H 0.46875 0.30777 0.75016
 H3591 H 0.50033 0.30791 0.78255
 H3592 H 0.49247 0.33097 0.79009
 C3593 C 0.96064 0.36963 0.28751
 C3594 C 0.94624 0.37152 0.28859
 C3595 C 0.94088 0.38393 0.29398
 C3596 C 0.94986 0.39464 0.29838
 C3597 C 0.96432 0.39268 0.29717
 C3598 C 0.96967 0.38025 0.29177
 C3599 C 0.96608 0.35667 0.28232
 C3600 C 0.97046 0.34569 0.27810
 C3601 C 0.97545 0.33242 0.27324
 C3602 C 0.96883 0.32574 0.26203
 C3603 C 0.97326 0.31257 0.25770
 C3604 C 0.98439 0.30588 0.26455
 C3605 C 0.99109 0.31278 0.27571
 C3606 C 0.98664 0.32596 0.28001
 H3607 H 0.93916 0.36333 0.28540
 H3608 H 0.92971 0.38503 0.29497
 H3609 H 0.97149 0.40080 0.30033
 H3610 H 0.98084 0.37889 0.29097
 H3611 H 0.96012 0.33064 0.25674
 H3612 H 0.96783 0.30757 0.24910
 H3613 H 0.99966 0.30795 0.28125
 H3614 H 0.99181 0.33102 0.28873
 C3615 C 0.28748 0.87262 0.46516
 C3616 C 0.27839 0.88315 0.46080
 C3617 C 0.28367 0.89561 0.45541
 C3618 C 0.29813 0.89767 0.45431
 C3619 C 0.30717 0.88704 0.45882
 C3620 C 0.30186 0.87462 0.46420
 C3621 C 0.28212 0.85959 0.47024
 C3622 C 0.27787 0.84851 0.47431
 C3623 C 0.27308 0.83509 0.47893
 C3624 C 0.26218 0.82845 0.47186
 C3625 C 0.25807 0.81506 0.47579
 C3626 C 0.26485 0.80809 0.48685
 C3627 C 0.27563 0.81498 0.49406
 C3628 C 0.27972 0.82838 0.49011
 H3629 H 0.26723 0.88171 0.46149
 H3630 H 0.27647 0.90365 0.45216
 H3631 H 0.31833 0.88822 0.45791
 H3632 H 0.30899 0.86650 0.46747
 H3633 H 0.25700 0.83354 0.46316
 H3634 H 0.24974 0.81009 0.46999
 H3635 H 0.28110 0.80995 0.50261
 H3636 H 0.28820 0.83340 0.49562
 C3637 C 0.28787 0.37282 0.96571
 C3638 C 0.30226 0.37466 0.96453
 C3639 C 0.30761 0.38705 0.95909
 C3640 C 0.29862 0.39777 0.95473
 C3641 C 0.28416 0.39587 0.95610
 C3642 C 0.27883 0.38347 0.96156
 C3643 C 0.28243 0.35981 0.97077
 C3644 C 0.27808 0.34875 0.97480
 C3645 C 0.27316 0.33536 0.97935
 C3646 C 0.27966 0.32858 0.99056
 C3647 C 0.27547 0.31520 0.99444
 C3648 C 0.26471 0.30839 0.98711
 C3649 C 0.25805 0.31543 0.97602
 C3650 C 0.26227 0.32881 0.97217
 H3651 H 0.30935 0.36645 0.96765
 H3652 H 0.31877 0.38810 0.95798
 H3653 H 0.27698 0.40399 0.95299
 H3654 H 0.26767 0.38215 0.96243
 H3655 H 0.28813 0.33354 0.99616
 H3656 H 0.28084 0.31011 1.00301
 H3657 H 0.24975 0.31052 0.97013
 H3658 H 0.25720 0.33395 0.96344
 C3659 C 0.79009 0.37993 0.28737
 C3660 C 0.79465 0.36944 0.27829
 C3661 C 0.79983 0.35693 0.28370
 C3662 C 0.80048 0.35478 0.29829
 C3663 C 0.79586 0.36541 0.30732
 C3664 C 0.79070 0.37788 0.30189
 C3665 C 0.78491 0.39289 0.28190
 C3666 C 0.78060 0.40387 0.27759
 C3667 C 0.77553 0.41711 0.27275
 C3668 C 0.78212 0.42390 0.26161
 C3669 C 0.77757 0.43705 0.25733
 C3670 C 0.76635 0.44362 0.26418
 C3671 C 0.75970 0.43660 0.27526
 C3672 C 0.76427 0.42345 0.27951
 H3673 H 0.79421 0.37091 0.26703
 H3674 H 0.80318 0.34889 0.27649
 H3675 H 0.79643 0.36416 0.31859
 H3676 H 0.78726 0.38597 0.30902
 H3677 H 0.79087 0.41910 0.25634
 H3678 H 0.78296 0.44215 0.24880
 H3679 H 0.75107 0.44133 0.28079
 H3680 H 0.75913 0.41831 0.28818
   
