data_POSCAR
  _audit_creation_date              2014-09-24
  _audit_creation_method            'ToBaCCo'
  _symmetry_space_group_name_H-M    'P1'
  _symmetry_Int_Tables_number       1
  _symmetry_cell_setting            triclinic
  loop_
  _symmetry_equiv_pos_as_xyz
 x,y,z
_cell_length_a 62.4309
_cell_length_b 62.4216
_cell_length_c 62.4245
_cell_angle_alpha 90.024500
_cell_angle_beta 90.023300
_cell_angle_gamma 90.000600
loop_
  _atom_site_label
  _atom_site_type_symbol
  _atom_site_fract_x
  _atom_site_fract_y
  _atom_site_fract_z
O1 O 0.26889 1.02031 0.02058
 O2 O 0.26884 0.97862 -0.02117
 O3 O 0.26878 1.02034 -0.02114
 O4 O 0.26872 0.97859 0.02055
 O5 O 0.23330 0.97865 0.02051
 O6 O 0.23336 1.02037 -0.02114
 O7 O 0.23342 0.97866 -0.02120
 O8 O 0.23347 1.02037 0.02057
 Cu9 Cu 0.27239 0.99946 -0.00029
 Cu10 Cu 0.22981 0.99952 -0.00032
 C11 C 0.25119 1.02738 0.02762
 C12 C 0.25113 0.97160 -0.02823
 C13 C 0.25107 1.02740 -0.02817
 C14 C 0.25099 0.97158 0.02756
 O15 O 0.73342 0.52091 0.52085
 O16 O 0.73335 0.47921 0.47907
 O17 O 0.73326 0.47918 0.52080
 O18 O 0.73326 0.52094 0.47912
 O19 O 0.76868 0.52093 0.47908
 O20 O 0.76868 0.47914 0.52079
 O21 O 0.76877 0.47920 0.47906
 O22 O 0.76884 0.52087 0.52081
 Cu23 Cu 0.72975 0.50006 0.49996
 Cu24 Cu 0.77232 0.50003 0.49993
 C25 C 0.75115 0.52793 0.52787
 C26 C 0.75106 0.47217 0.47201
 C27 C 0.75096 0.47211 0.52784
 C28 C 0.75096 0.52799 0.47207
 O29 O 0.76701 0.97923 1.02174
 O30 O 0.76698 1.02086 0.97989
 O31 O 0.76710 1.02097 1.02162
 O32 O 0.76712 0.97914 0.98001
 O33 O 0.73169 0.97910 0.97999
 O34 O 0.73168 1.02096 1.02163
 O35 O 0.73156 1.02083 0.97990
 O36 O 0.73159 0.97923 1.02172
 Cu37 Cu 0.77062 1.00005 1.00082
 Cu38 Cu 0.72806 1.00003 1.00081
 C39 C 0.74929 0.97220 1.02879
 C40 C 0.74925 1.02787 0.97283
 C41 C 0.74940 1.02803 1.02866
 C42 C 0.74942 0.97206 0.97298
 O43 O 0.23136 0.47910 0.52106
 O44 O 0.23112 0.52064 0.47925
 O45 O 0.23140 0.47893 0.47935
 O46 O 0.23134 0.52082 0.52096
 O47 O 0.26677 0.52092 0.52088
 O48 O 0.26682 0.47907 0.47930
 O49 O 0.26654 0.52078 0.47917
 O50 O 0.26679 0.47921 0.52101
 Cu51 Cu 0.22773 0.49986 0.50016
 Cu52 Cu 0.27031 0.50001 0.50008
 C53 C 0.24910 0.47214 0.52809
 C54 C 0.24878 0.52773 0.47215
 C55 C 0.24913 0.47193 0.47230
 C56 C 0.24906 0.52793 0.52794
 O57 O 1.02062 0.23331 0.02044
 O58 O 0.97885 0.23332 -0.02127
 O59 O 1.02056 0.23318 -0.02126
 O60 O 0.97891 0.23322 0.02045
 O61 O 0.97891 0.26865 0.02047
 O62 O 1.02060 0.26861 -0.02128
 O63 O 0.97888 0.26875 -0.02125
 O64 O 1.02063 0.26874 0.02043
 Cu65 Cu 0.99973 0.22968 -0.00041
 Cu66 Cu 0.99975 0.27226 -0.00041
 C67 C 1.02767 0.25103 0.02747
 C68 C 0.97181 0.25104 -0.02830
 C69 C 1.02761 0.25088 -0.02831
 C70 C 0.97188 0.25093 0.02750
 O71 O 0.52070 0.76873 0.52084
 O72 O 0.47891 0.76864 0.47921
 O73 O 0.47898 0.76856 0.52094
 O74 O 0.52065 0.76857 0.47912
 O75 O 0.52067 0.73314 0.47915
 O76 O 0.47904 0.73313 0.52094
 O77 O 0.47894 0.73321 0.47921
 O78 O 0.52076 0.73330 0.52088
 Cu79 Cu 0.49981 0.77220 0.50002
 Cu80 Cu 0.49986 0.72962 0.50004
 C81 C 0.52778 0.75104 0.52789
 C82 C 0.47187 0.75091 0.47219
 C83 C 0.47198 0.75083 0.52800
 C84 C 0.52770 0.75085 0.47208
 O85 O 0.02079 0.76688 -0.02167
 O86 O -0.02103 0.76699 0.01998
 O87 O 0.02069 0.76700 0.02005
 O88 O -0.02094 0.76708 -0.02175
 O89 O -0.02103 0.73165 -0.02177
 O90 O 0.02062 0.73157 0.02006
 O91 O -0.02110 0.73156 0.01996
 O92 O 0.02070 0.73146 -0.02166
 Cu93 Cu -0.00012 0.77056 -0.00085
 Cu94 Cu -0.00021 0.72799 -0.00086
 C95 C 0.02781 0.74914 -0.02869
 C96 C -0.02812 0.74928 0.02700
 C97 C 0.02768 0.74929 0.02712
 C98 C -0.02802 0.74939 -0.02882
 O99 O 0.52106 0.26667 0.47917
 O100 O 0.47930 0.26676 0.52082
 O101 O 0.52101 0.26686 0.52088
 O102 O 0.47936 0.26683 0.47911
 O103 O 0.47932 0.23140 0.47912
 O104 O 0.52100 0.23143 0.52093
 O105 O 0.47929 0.23133 0.52084
 O106 O 0.52102 0.23124 0.47922
 Cu107 Cu 0.50019 0.27036 0.50000
 Cu108 Cu 0.50015 0.22777 0.50003
 C109 C 0.52808 0.24893 0.47217
 C110 C 0.47225 0.24905 0.52786
 C111 C 0.52804 0.24916 0.52796
 C112 C 0.47231 0.24912 0.47206
 O113 O 1.02054 0.02058 0.26944
 O114 O 0.97888 -0.02120 0.26962
 O115 O 1.02059 -0.02115 0.26937
 O116 O 0.97882 0.02053 0.26943
 O117 O 0.97873 0.02044 0.23400
 O118 O 1.02046 -0.02119 0.23395
 O119 O 0.97875 -0.02128 0.23420
 O120 O 1.02044 0.02053 0.23402
 Cu121 Cu 0.99972 -0.00030 0.27304
 Cu122 Cu 0.99958 -0.00039 0.23047
 C123 C 1.02752 0.02761 0.25171
 C124 C 0.97178 -0.02830 0.25195
 C125 C 1.02757 -0.02820 0.25164
 C126 C 0.97173 0.02752 0.25171
 O127 O 0.52091 0.52102 0.73433
 O128 O 0.47930 0.47919 0.73449
 O129 O 0.47919 0.52092 0.73427
 O130 O 0.52101 0.47930 0.73426
 O131 O 0.52111 0.47936 0.76968
 O132 O 0.47925 0.52102 0.76969
 O133 O 0.47940 0.47929 0.76992
 O134 O 0.52097 0.52108 0.76976
 Cu135 Cu 0.50009 0.50010 0.73076
 Cu136 Cu 0.50019 0.50020 0.77334
 C137 C 0.52796 0.52810 0.75203
 C138 C 0.47233 0.47218 0.75224
 C139 C 0.47216 0.52800 0.75197
 C140 C 0.52812 0.47230 0.75196
 O141 O 0.97890 1.02153 0.76591
 O142 O 1.02057 0.97969 0.76591
 O143 O 1.02062 1.02141 0.76602
 O144 O 0.97886 0.97981 0.76608
 O145 O 0.97880 0.97975 0.73065
 O146 O 1.02060 1.02140 0.73060
 O147 O 1.02051 0.97967 0.73048
 O148 O 0.97888 1.02148 0.73049
 Cu149 Cu 0.99974 1.00062 0.76956
 Cu150 Cu 0.99969 1.00057 0.72698
 C151 C 0.97186 1.02856 0.74819
 C152 C 1.02756 0.97262 0.74819
 C153 C 1.02767 1.02843 0.74831
 C154 C 0.97178 0.97275 0.74839
 O155 O 0.47921 0.52095 0.23034
 O156 O 0.52088 0.47925 0.23023
 O157 O 0.47916 0.47923 0.23045
 O158 O 0.52093 0.52098 0.23041
 O159 O 0.52099 0.52094 0.26584
 O160 O 0.47926 0.47923 0.26588
 O161 O 0.52097 0.47921 0.26566
 O162 O 0.47927 0.52095 0.26577
 Cu163 Cu 0.50004 0.50011 0.22678
 Cu164 Cu 0.50014 0.50008 0.26936
 C165 C 0.47220 0.52798 0.24806
 C166 C 0.52795 0.47218 0.24791
 C167 C 0.47217 0.47219 0.24818
 C168 C 0.52800 0.52801 0.24813
 O169 O 0.25035 0.19434 0.22008
 O170 O 0.27352 0.18805 0.24988
 O171 O 0.19436 0.22037 0.25084
 O172 O 0.18647 0.24816 0.27174
 O173 O 0.22045 0.25044 0.19414
 O174 O 0.25023 0.27372 0.18817
 O175 O 0.25081 0.27917 0.30548
 O176 O 0.22584 0.25120 0.31116
 O177 O 0.30539 0.25039 0.27943
 O178 O 0.31213 0.22642 0.24887
 O179 O 0.27954 0.30524 0.25070
 O180 O 0.24902 0.31203 0.22669
 O181 O 0.25082 0.30502 0.27978
 O182 O 0.22614 0.31156 0.24919
 O183 O 0.30533 0.27949 0.25062
 O184 O 0.31167 0.24879 0.22595
 O185 O 0.27970 0.25059 0.30528
 O186 O 0.25024 0.22584 0.31175
 O187 O 0.25052 0.22016 0.19428
 O188 O 0.27411 0.25010 0.18839
 O189 O 0.19461 0.25018 0.21988
 O190 O 0.18980 0.27526 0.24984
 O191 O 0.22006 0.19446 0.25023
 O192 O 0.24996 0.18834 0.27374
 Zr193 Zr 0.24913 0.21153 0.24908
 O194 O 0.26929 0.22979 0.26901
 Zr195 Zr 0.21161 0.24927 0.24904
 O196 O 0.23001 0.26903 0.26935
 Zr197 Zr 0.24935 0.24917 0.21147
 O198 O 0.26927 0.26922 0.22990
 Zr199 Zr 0.25068 0.25030 0.28815
 O200 O 0.23026 0.23028 0.26988
 Zr201 Zr 0.28823 0.25043 0.25040
 O202 O 0.26998 0.23017 0.23020
 Zr203 Zr 0.25055 0.28806 0.25062
 O204 O 0.23043 0.26990 0.23016
 O205 O 0.22931 0.22933 0.22913
 O206 O 0.27071 0.27046 0.27060
 C207 C 0.25095 0.20055 0.20048
 C208 C 0.20049 0.20074 0.25109
 C209 C 0.20084 0.25082 0.20030
 C210 C 0.25088 0.29878 0.29936
 C211 C 0.29927 0.25051 0.29904
 C212 C 0.29914 0.29908 0.25070
 H213 H 0.27821 0.22003 0.27770
 H214 H 0.27807 0.27810 0.22021
 H215 H 0.22014 0.22014 0.22001
 H216 H 0.22042 0.27775 0.27844
 H217 H 0.21486 0.24073 0.30647
 H218 H 0.19121 0.25634 0.28446
 H219 H 0.30893 0.26062 0.21578
 H220 H 0.28530 0.24002 0.19337
 H221 H 0.26140 0.21521 0.30815
 H222 H 0.24001 0.19339 0.28501
 H223 H 0.26015 0.30880 0.21589
 H224 H 0.24058 0.28519 0.19335
 H225 H 0.28507 0.19324 0.24034
 H226 H 0.30885 0.21559 0.25996
 H227 H 0.19417 0.28534 0.23840
 H228 H 0.21595 0.30872 0.26098
 O229 O 0.74979 0.80604 0.22041
 O230 O 0.72661 0.81222 0.25023
 O231 O 0.80576 0.77985 0.25109
 O232 O 0.81369 0.75197 0.27179
 O233 O 0.77958 0.75000 0.19421
 O234 O 0.74978 0.72676 0.18817
 O235 O 0.74934 0.72091 0.30549
 O236 O 0.77434 0.74886 0.31126
 O237 O 0.69474 0.74982 0.27957
 O238 O 0.68801 0.77392 0.24911
 O239 O 0.72052 0.69505 0.25058
 O240 O 0.75100 0.68831 0.22656
 O241 O 0.74929 0.69515 0.27967
 O242 O 0.77393 0.68871 0.24903
 O243 O 0.69475 0.72082 0.25062
 O244 O 0.68839 0.75160 0.22611
 O245 O 0.72047 0.74951 0.30542
 O246 O 0.74997 0.77424 0.31195
 O247 O 0.74955 0.78031 0.19451
 O248 O 0.72591 0.75042 0.18852
 O249 O 0.80546 0.75017 0.21994
 O250 O 0.81027 0.72496 0.24980
 O251 O 0.78008 0.80579 0.25060
 O252 O 0.75020 0.81186 0.27409
 Zr253 Zr 0.75100 0.78874 0.24935
 O254 O 0.73085 0.77043 0.26922
 Zr255 Zr 0.78850 0.75098 0.24912
 O256 O 0.77010 0.73117 0.26938
 Zr257 Zr 0.75071 0.75123 0.21158
 O258 O 0.73080 0.73114 0.22995
 Zr259 Zr 0.74947 0.74984 0.28827
 O260 O 0.76988 0.76991 0.27005
 Zr261 Zr 0.71187 0.74986 0.25053
 O262 O 0.73011 0.77018 0.23040
 Zr263 Zr 0.74953 0.71221 0.25058
 O264 O 0.76963 0.73042 0.23017
 O265 O 0.77078 0.77100 0.22931
 O266 O 0.72940 0.72975 0.27064
 C267 C 0.74917 0.79990 0.20078
 C268 C 0.79965 0.79949 0.25144
 C269 C 0.79920 0.74960 0.20035
 C270 C 0.74926 0.70132 0.29928
 C271 C 0.70089 0.74963 0.29919
 C272 C 0.70093 0.70122 0.25061
 H273 H 0.72195 0.78017 0.27795
 H274 H 0.72198 0.72229 0.22022
 H275 H 0.77995 0.78021 0.22024
 H276 H 0.77970 0.72242 0.27842
 H277 H 0.78532 0.75932 0.30660
 H278 H 0.80895 0.74380 0.28450
 H279 H 0.69114 0.73984 0.21585
 H280 H 0.71474 0.76050 0.19353
 H281 H 0.73877 0.78486 0.30844
 H282 H 0.76013 0.80676 0.28536
 H283 H 0.73989 0.69161 0.21576
 H284 H 0.75942 0.71527 0.19330
 H285 H 0.71507 0.80708 0.24065
 H286 H 0.69130 0.78469 0.26026
 H287 H 0.80590 0.71494 0.23830
 H288 H 0.78413 0.69150 0.26084
 O289 O 0.74993 0.19440 0.77988
 O290 O 0.72675 0.18818 0.75005
 O291 O 0.80592 0.22046 0.74917
 O292 O 0.81384 0.24829 0.72837
 O293 O 0.77982 0.25045 0.80597
 O294 O 0.75006 0.27371 0.81199
 O295 O 0.74951 0.27939 0.69467
 O296 O 0.77449 0.25140 0.68894
 O297 O 0.69492 0.25054 0.72064
 O298 O 0.68816 0.22654 0.75113
 O299 O 0.72076 0.30536 0.74951
 O300 O 0.75128 0.31210 0.77355
 O301 O 0.74951 0.30519 0.72044
 O302 O 0.77417 0.31167 0.75105
 O303 O 0.69497 0.27961 0.74952
 O304 O 0.68862 0.24887 0.77411
 O305 O 0.72062 0.25079 0.69479
 O306 O 0.75008 0.22606 0.68827
 O307 O 0.74974 0.22017 0.80574
 O308 O 0.72616 0.25010 0.81168
 O309 O 0.80566 0.25023 0.78023
 O310 O 0.81049 0.27535 0.75035
 O311 O 0.78022 0.19456 0.74971
 O312 O 0.75032 0.18848 0.72620
 Zr313 Zr 0.75115 0.21164 0.75091
 O314 O 0.73101 0.22994 0.73101
 Zr315 Zr 0.78868 0.24936 0.75106
 O316 O 0.77029 0.26917 0.73078
 Zr317 Zr 0.75093 0.24921 0.78862
 O318 O 0.73102 0.26930 0.77022
 Zr319 Zr 0.74962 0.25048 0.71193
 O320 O 0.77003 0.23042 0.73017
 Zr321 Zr 0.71207 0.25055 0.74967
 O322 O 0.73030 0.23025 0.76983
 Zr323 Zr 0.74975 0.28817 0.74955
 O324 O 0.76986 0.26997 0.76998
 O325 O 0.77097 0.22939 0.77091
 O326 O 0.72959 0.27062 0.72952
 C327 C 0.74931 0.20057 0.79949
 C328 C 0.79978 0.20083 0.74885
 C329 C 0.79942 0.25083 0.79982
 C330 C 0.74945 0.29899 0.70084
 C331 C 0.70105 0.25069 0.70102
 C332 C 0.70116 0.29920 0.74949
 H333 H 0.72210 0.22019 0.72230
 H334 H 0.72222 0.27817 0.77993
 H335 H 0.78014 0.22019 0.78001
 H336 H 0.77990 0.27790 0.72172
 H337 H 0.78545 0.24092 0.69361
 H338 H 0.80911 0.25648 0.71566
 H339 H 0.69135 0.26069 0.78432
 H340 H 0.71497 0.24003 0.80668
 H341 H 0.73892 0.21542 0.69184
 H342 H 0.76026 0.19354 0.71493
 H343 H 0.74014 0.30885 0.78433
 H344 H 0.75969 0.28520 0.80683
 H345 H 0.71522 0.19334 0.75963
 H346 H 0.69146 0.21572 0.74004
 H347 H 0.80612 0.28541 0.76181
 H348 H 0.78437 0.30884 0.73926
 O349 O 0.25009 0.80564 0.78004
 O350 O 0.27329 0.81191 0.75027
 O351 O 0.19412 0.77960 0.74919
 O352 O 0.18622 0.75178 0.72835
 O353 O 0.22019 0.74954 0.80598
 O354 O 0.24997 0.72628 0.81199
 O355 O 0.25059 0.72078 0.69467
 O356 O 0.22563 0.74875 0.68894
 O357 O 0.30517 0.74957 0.72076
 O358 O 0.31188 0.77356 0.75134
 O359 O 0.27930 0.69472 0.74951
 O360 O 0.24877 0.68795 0.77347
 O361 O 0.25058 0.69494 0.72038
 O362 O 0.22589 0.68841 0.75094
 O363 O 0.30509 0.72047 0.74960
 O364 O 0.31144 0.75117 0.77424
 O365 O 0.27948 0.74936 0.69488
 O366 O 0.25001 0.77412 0.68840
 O367 O 0.25025 0.77984 0.80584
 O368 O 0.27384 0.74992 0.81178
 O369 O 0.19436 0.74980 0.78021
 O370 O 0.18957 0.72470 0.75025
 O371 O 0.21983 0.80551 0.74981
 O372 O 0.24975 0.81162 0.72638
 Zr373 Zr 0.24889 0.78843 0.75104
 O374 O 0.26906 0.77017 0.73113
 Zr375 Zr 0.21136 0.75070 0.75106
 O376 O 0.22978 0.73094 0.73077
 Zr377 Zr 0.24909 0.75082 0.78867
 O378 O 0.26902 0.73076 0.77026
 Zr379 Zr 0.25046 0.74965 0.71198
 O380 O 0.23003 0.76968 0.73023
 Zr381 Zr 0.28799 0.74953 0.74978
 O382 O 0.26973 0.76980 0.76995
 Zr383 Zr 0.25031 0.71192 0.74953
 O384 O 0.23018 0.73007 0.76997
 O385 O 0.22906 0.77065 0.77098
 O386 O 0.27048 0.72949 0.72957
 C387 C 0.25068 0.79944 0.79964
 C388 C 0.20026 0.79923 0.74892
 C389 C 0.20058 0.74916 0.79981
 C390 C 0.25065 0.70117 0.70080
 C391 C 0.29905 0.74944 0.70114
 C392 C 0.29890 0.70088 0.74953
 H393 H 0.27798 0.77993 0.72246
 H394 H 0.27782 0.72188 0.77997
 H395 H 0.21988 0.77984 0.78008
 H396 H 0.22018 0.72222 0.72168
 H397 H 0.21465 0.75920 0.69362
 H398 H 0.19098 0.74365 0.71562
 H399 H 0.30867 0.73938 0.78445
 H400 H 0.28504 0.75999 0.80681
 H401 H 0.26121 0.78472 0.69197
 H402 H 0.23982 0.80657 0.71508
 H403 H 0.25989 0.69119 0.78428
 H404 H 0.24033 0.71480 0.80680
 H405 H 0.28483 0.80671 0.75983
 H406 H 0.30863 0.78437 0.74022
 H407 H 0.19392 0.71464 0.76170
 H408 H 0.21571 0.69125 0.73914
 O409 O 0.25003 0.30559 0.72075
 O410 O 0.22685 0.31179 0.75056
 O411 O 0.30594 0.27929 0.75142
 O412 O 0.31385 0.25136 0.77204
 O413 O 0.27972 0.24955 0.69449
 O414 O 0.24990 0.22638 0.68838
 O415 O 0.24944 0.22039 0.80567
 O416 O 0.27448 0.24828 0.81152
 O417 O 0.19491 0.24940 0.77978
 O418 O 0.18819 0.27354 0.74938
 O419 O 0.22062 0.19465 0.75076
 O420 O 0.25110 0.18790 0.72670
 O421 O 0.24936 0.19466 0.77983
 O422 O 0.27399 0.18820 0.74921
 O423 O 0.19488 0.22046 0.75082
 O424 O 0.18857 0.25127 0.72632
 O425 O 0.22063 0.24901 0.80563
 O426 O 0.25016 0.27370 0.81222
 O427 O 0.24976 0.27989 0.69482
 O428 O 0.22607 0.25005 0.68876
 O429 O 0.30560 0.24966 0.72022
 O430 O 0.31038 0.22439 0.75004
 O431 O 0.28029 0.30526 0.75095
 O432 O 0.25042 0.31137 0.77442
 Zr433 Zr 0.25120 0.28827 0.74966
 O434 O 0.23103 0.26997 0.76950
 Zr435 Zr 0.28865 0.25045 0.74939
 O436 O 0.27023 0.23065 0.76961
 Zr437 Zr 0.25087 0.25081 0.71184
 O438 O 0.23093 0.23072 0.73016
 Zr439 Zr 0.24962 0.24933 0.78851
 O440 O 0.27006 0.26939 0.77034
 Zr441 Zr 0.21204 0.24946 0.75076
 O442 O 0.23030 0.26977 0.73066
 Zr443 Zr 0.24964 0.21176 0.75077
 O444 O 0.26977 0.22995 0.73039
 O445 O 0.27096 0.27052 0.72961
 O446 O 0.22953 0.22930 0.77084
 C447 C 0.24940 0.29947 0.70113
 C448 C 0.29984 0.29893 0.75180
 C449 C 0.29933 0.24911 0.70064
 C450 C 0.24932 0.20081 0.79944
 C451 C 0.20105 0.24916 0.79939
 C452 C 0.20104 0.20086 0.75080
 H453 H 0.22214 0.27971 0.77824
 H454 H 0.22210 0.22190 0.72042
 H455 H 0.28015 0.27973 0.72055
 H456 H 0.27982 0.22187 0.77865
 H457 H 0.28548 0.25873 0.80687
 H458 H 0.30909 0.24322 0.78476
 H459 H 0.19128 0.23949 0.71608
 H460 H 0.21492 0.26015 0.69378
 H461 H 0.23895 0.28433 0.80874
 H462 H 0.26033 0.30623 0.78570
 H463 H 0.23994 0.19118 0.71594
 H464 H 0.25950 0.21485 0.69350
 H465 H 0.21530 0.30668 0.74097
 H466 H 0.19151 0.28431 0.76052
 H467 H 0.30600 0.21440 0.73852
 H468 H 0.28420 0.19097 0.76102
 O469 O 0.75051 0.69482 0.72037
 O470 O 0.77375 0.68851 0.75012
 O471 O 0.69457 0.72075 0.75129
 O472 O 0.68662 0.74851 0.77217
 O473 O 0.72053 0.75091 0.69456
 O474 O 0.75026 0.77424 0.68858
 O475 O 0.75100 0.77948 0.80593
 O476 O 0.72607 0.75146 0.81159
 O477 O 0.80558 0.75082 0.77974
 O478 O 0.81228 0.72688 0.74912
 O479 O 0.77961 0.80567 0.75114
 O480 O 0.74909 0.81251 0.72723
 O481 O 0.75093 0.80538 0.78027
 O482 O 0.72618 0.81192 0.74970
 O483 O 0.80543 0.77995 0.75098
 O484 O 0.81180 0.74933 0.72627
 O485 O 0.77993 0.75095 0.80563
 O486 O 0.75050 0.72613 0.81209
 O487 O 0.75062 0.72067 0.69462
 O488 O 0.77418 0.75065 0.68875
 O489 O 0.69473 0.75058 0.72034
 O490 O 0.68995 0.77564 0.75035
 O491 O 0.72029 0.69486 0.75058
 O492 O 0.75022 0.68871 0.77401
 Zr493 Zr 0.74933 0.71196 0.74940
 O494 O 0.76949 0.73019 0.76935
 Zr495 Zr 0.71176 0.74966 0.74948
 O496 O 0.73017 0.76939 0.76981
 Zr497 Zr 0.74945 0.74965 0.71185
 O498 O 0.76936 0.76969 0.73030
 Zr499 Zr 0.75089 0.75065 0.78855
 O500 O 0.73046 0.73064 0.77025
 Zr501 Zr 0.78837 0.75088 0.75074
 O502 O 0.77012 0.73064 0.73052
 Zr503 Zr 0.75065 0.78847 0.75108
 O504 O 0.73053 0.77034 0.73060
 O505 O 0.72946 0.72976 0.72952
 O506 O 0.77086 0.77086 0.77100
 C507 C 0.75107 0.70106 0.70078
 C508 C 0.70072 0.70113 0.75149
 C509 C 0.70093 0.75125 0.70074
 C510 C 0.75103 0.79911 0.79984
 C511 C 0.79949 0.75091 0.79936
 C512 C 0.79921 0.79953 0.75110
 H513 H 0.77843 0.72043 0.77800
 H514 H 0.77814 0.77860 0.72061
 H515 H 0.72029 0.72058 0.72040
 H516 H 0.72057 0.77807 0.77893
 H517 H 0.71510 0.74099 0.80689
 H518 H 0.69139 0.75659 0.78494
 H519 H 0.80900 0.76114 0.71609
 H520 H 0.78538 0.74056 0.69368
 H521 H 0.76170 0.71554 0.80849
 H522 H 0.74031 0.69374 0.78532
 H523 H 0.76014 0.80926 0.71636
 H524 H 0.74061 0.78569 0.69379
 H525 H 0.78527 0.69372 0.74056
 H526 H 0.80906 0.71606 0.76023
 H527 H 0.69425 0.78571 0.73889
 H528 H 0.71605 0.80909 0.76155
 O529 O 0.24904 0.69415 0.27947
 O530 O 0.22592 0.68790 0.24962
 O531 O 0.30512 0.72011 0.24885
 O532 O 0.31315 0.74791 0.22808
 O533 O 0.27896 0.75017 0.30558
 O534 O 0.24920 0.77350 0.31150
 O535 O 0.24888 0.77898 0.19419
 O536 O 0.27383 0.75098 0.18851
 O537 O 0.19422 0.75027 0.22008
 O538 O 0.18741 0.72626 0.25062
 O539 O 0.22010 0.80506 0.24895
 O540 O 0.25054 0.81184 0.27299
 O541 O 0.24886 0.80482 0.21993
 O542 O 0.27352 0.81129 0.25059
 O543 O 0.19427 0.77934 0.24893
 O544 O 0.18778 0.74868 0.27351
 O545 O 0.21997 0.75045 0.19429
 O546 O 0.24943 0.72563 0.18788
 O547 O 0.24885 0.71994 0.30531
 O548 O 0.22530 0.74990 0.31119
 O549 O 0.30485 0.74989 0.27989
 O550 O 0.30975 0.77500 0.24996
 O551 O 0.27937 0.69424 0.24938
 O552 O 0.24953 0.68815 0.22583
 Zr553 Zr 0.25034 0.71134 0.25050
 O554 O 0.23026 0.72962 0.23054
 Zr555 Zr 0.28792 0.74902 0.25068
 O556 O 0.26960 0.76880 0.23034
 Zr557 Zr 0.25011 0.74896 0.28817
 O558 O 0.23025 0.76903 0.26971
 Zr559 Zr 0.24894 0.75011 0.21148
 O560 O 0.26929 0.73006 0.22978
 Zr561 Zr 0.21132 0.75027 0.24915
 O562 O 0.22949 0.72999 0.26937
 Zr563 Zr 0.24905 0.78784 0.24906
 O564 O 0.26910 0.76967 0.26956
 O565 O 0.27015 0.72910 0.27052
 O566 O 0.22891 0.77029 0.22902
 C567 C 0.24840 0.70035 0.29907
 C568 C 0.29894 0.70049 0.24856
 C569 C 0.29858 0.75053 0.29946
 C570 C 0.24883 0.79858 0.20034
 C571 C 0.20038 0.75040 0.20048
 C572 C 0.20050 0.79892 0.24889
 H573 H 0.22134 0.71987 0.22183
 H574 H 0.22144 0.77792 0.27940
 H575 H 0.27928 0.71989 0.27964
 H576 H 0.27923 0.77751 0.22129
 H577 H 0.28479 0.74053 0.19322
 H578 H 0.30843 0.75603 0.21532
 H579 H 0.19056 0.76046 0.28375
 H580 H 0.21410 0.73985 0.30618
 H581 H 0.23818 0.71506 0.19138
 H582 H 0.25949 0.69319 0.21457
 H583 H 0.23944 0.80857 0.28381
 H584 H 0.25889 0.78495 0.30637
 H585 H 0.21436 0.69310 0.25915
 H586 H 0.19064 0.71548 0.23947
 H587 H 0.30541 0.78505 0.26143
 H588 H 0.28369 0.80848 0.23878
 O589 O 0.75018 0.30538 0.27933
 O590 O 0.77340 0.31162 0.24954
 O591 O 0.69426 0.27922 0.24851
 O592 O 0.68635 0.25138 0.22775
 O593 O 0.72037 0.24928 0.30535
 O594 O 0.75017 0.22609 0.31141
 O595 O 0.75076 0.22039 0.19408
 O596 O 0.72574 0.24834 0.18833
 O597 O 0.80529 0.24929 0.22015
 O598 O 0.81200 0.27331 0.25066
 O599 O 0.77947 0.19446 0.24894
 O600 O 0.74898 0.18766 0.27291
 O601 O 0.75077 0.19459 0.21984
 O602 O 0.72606 0.18812 0.25043
 O603 O 0.80524 0.22024 0.24899
 O604 O 0.81157 0.25097 0.27361
 O605 O 0.77960 0.24901 0.19427
 O606 O 0.75012 0.27370 0.18771
 O607 O 0.75037 0.27962 0.30517
 O608 O 0.77403 0.24973 0.31113
 O609 O 0.69453 0.24948 0.27958
 O610 O 0.68975 0.22433 0.24966
 O611 O 0.71994 0.30516 0.24910
 O612 O 0.74984 0.31129 0.22567
 Zr613 Zr 0.74901 0.28813 0.25036
 O614 O 0.76918 0.26985 0.23047
 Zr615 Zr 0.71152 0.25036 0.25043
 O616 O 0.72993 0.23058 0.23017
 Zr617 Zr 0.74925 0.25057 0.28804
 O618 O 0.76918 0.23050 0.26966
 Zr619 Zr 0.75059 0.24929 0.21136
 O620 O 0.73015 0.26933 0.22958
 Zr621 Zr 0.78812 0.24927 0.24915
 O622 O 0.76987 0.26956 0.26930
 Zr623 Zr 0.75047 0.21162 0.24896
 O624 O 0.73035 0.22978 0.26938
 O625 O 0.72920 0.27036 0.27032
 O626 O 0.77063 0.22919 0.22897
 C627 C 0.75078 0.29921 0.29893
 C628 C 0.70039 0.29886 0.24821
 C629 C 0.70077 0.24886 0.29917
 C630 C 0.75084 0.20079 0.20025
 C631 C 0.79916 0.24914 0.20053
 C632 C 0.79905 0.20065 0.24894
 H633 H 0.77809 0.27961 0.22178
 H634 H 0.77799 0.22165 0.27938
 H635 H 0.72001 0.27955 0.27941
 H636 H 0.72034 0.22184 0.22108
 H637 H 0.71476 0.25881 0.19299
 H638 H 0.69111 0.24325 0.21501
 H639 H 0.80883 0.23917 0.28382
 H640 H 0.78519 0.25983 0.30616
 H641 H 0.76127 0.28436 0.19130
 H642 H 0.73993 0.30621 0.21438
 H643 H 0.76008 0.19095 0.28374
 H644 H 0.74057 0.21458 0.30624
 H645 H 0.78492 0.30648 0.25915
 H646 H 0.80871 0.28413 0.23957
 H647 H 0.69410 0.21430 0.26114
 H648 H 0.71591 0.19088 0.23858
 C649 C 0.25125 0.04364 0.04385
 C650 C 0.25134 0.05732 0.05748
 C651 C 0.25148 0.07368 0.07374
 C652 C 0.25851 0.06886 0.09447
 C653 C 0.25867 0.08474 0.11027
 C654 C 0.25177 0.10568 0.10553
 C655 C 0.24474 0.11035 0.08462
 C656 C 0.24461 0.09444 0.06885
 C657 C 0.25185 0.12255 0.12231
 C658 C 0.23481 0.13723 0.12387
 C659 C 0.23486 0.15306 0.13971
 C660 C 0.25191 0.15446 0.15419
 C661 C 0.26895 0.13996 0.15278
 C662 C 0.26894 0.12410 0.13695
 C663 C 0.25183 0.17070 0.17055
 C664 C 0.25156 0.18433 0.18423
 H665 H 0.26381 0.05282 0.09844
 H666 H 0.26391 0.08058 0.12628
 H667 H 0.23960 0.12636 0.08039
 H668 H 0.23919 0.09836 0.05283
 H669 H 0.22130 0.13627 0.11303
 H670 H 0.22155 0.16415 0.14072
 H671 H 0.28225 0.14093 0.16389
 H672 H 0.28241 0.11322 0.13600
 C673 C 0.75121 0.54420 0.54411
 C674 C 0.75131 0.55788 0.55773
 C675 C 0.75147 0.57424 0.57398
 C676 C 0.75855 0.56944 0.59470
 C677 C 0.75873 0.58532 0.61050
 C678 C 0.75180 0.60624 0.60576
 C679 C 0.74472 0.61091 0.58487
 C680 C 0.74457 0.59500 0.56910
 C681 C 0.75190 0.62311 0.62255
 C682 C 0.73486 0.63778 0.62413
 C683 C 0.73491 0.65361 0.63998
 C684 C 0.75199 0.65501 0.65444
 C685 C 0.76903 0.64053 0.65300
 C686 C 0.76900 0.62467 0.63717
 C687 C 0.75192 0.67125 0.67081
 C688 C 0.75167 0.68486 0.68451
 H689 H 0.76388 0.55340 0.59866
 H690 H 0.76400 0.58115 0.62649
 H691 H 0.73956 0.62692 0.58065
 H692 H 0.73913 0.59891 0.55309
 H693 H 0.72133 0.63683 0.61331
 H694 H 0.72160 0.66469 0.64101
 H695 H 0.78235 0.64150 0.66409
 H696 H 0.78248 0.61380 0.63619
 C697 C 0.74927 0.95683 0.04418
 C698 C 0.74919 0.94318 0.05783
 C699 C 0.74904 0.92685 0.07411
 C700 C 0.74213 0.93173 0.09488
 C701 C 0.74194 0.91587 0.11069
 C702 C 0.74867 0.89488 0.10593
 C703 C 0.75558 0.89014 0.08500
 C704 C 0.75575 0.90603 0.06921
 C705 C 0.74854 0.87803 0.12273
 C706 C 0.76546 0.86320 0.12421
 C707 C 0.76536 0.84737 0.14005
 C708 C 0.74836 0.84612 0.15461
 C709 C 0.73145 0.86076 0.15327
 C710 C 0.73152 0.87663 0.13745
 C711 C 0.74837 0.82984 0.17094
 C712 C 0.74859 0.81618 0.18459
 H713 H 0.73695 0.94781 0.09886
 H714 H 0.73680 0.92010 0.12671
 H715 H 0.76059 0.87409 0.08076
 H716 H 0.76105 0.90205 0.05318
 H717 H 0.77892 0.86403 0.11332
 H718 H 0.77857 0.83616 0.14099
 H719 H 0.71819 0.85991 0.16443
 H720 H 0.71814 0.88762 0.13657
 C721 C 0.24915 0.45596 0.54437
 C722 C 0.24912 0.44236 0.55806
 C723 C 0.24904 0.42611 0.57439
 C724 C 0.23605 0.42846 0.59250
 C725 C 0.23593 0.41267 0.60836
 C726 C 0.24882 0.39430 0.60630
 C727 C 0.26182 0.39208 0.58802
 C728 C 0.26191 0.40789 0.57217
 C729 C 0.24875 0.37753 0.62315
 C730 C 0.26796 0.36761 0.62951
 C731 C 0.26789 0.35181 0.64536
 C732 C 0.24864 0.34572 0.65507
 C733 C 0.22943 0.35547 0.64888
 C734 C 0.22947 0.37129 0.63303
 C735 C 0.24863 0.32943 0.67136
 C736 C 0.24884 0.31576 0.68497
 H737 H 0.22606 0.44253 0.59438
 H738 H 0.22596 0.41496 0.62237
 H739 H 0.27171 0.37800 0.58584
 H740 H 0.27197 0.40589 0.55818
 H741 H 0.28309 0.37226 0.62241
 H742 H 0.28285 0.34439 0.65008
 H743 H 0.21443 0.35082 0.65626
 H744 H 0.21439 0.37843 0.62829
 C745 C 0.74920 0.04406 0.95652
 C746 C 0.74908 0.05767 0.94282
 C747 C 0.74888 0.07391 0.92645
 C748 C 0.74306 0.06863 0.90545
 C749 C 0.74283 0.08439 0.88954
 C750 C 0.74842 0.10568 0.89444
 C751 C 0.75424 0.11082 0.91561
 C752 C 0.75447 0.09502 0.93149
 C753 C 0.74822 0.12244 0.87754
 C754 C 0.74050 0.14315 0.88202
 C755 C 0.74045 0.15895 0.86613
 C756 C 0.74811 0.15428 0.84559
 C757 C 0.75578 0.13372 0.84097
 C758 C 0.75583 0.11790 0.85681
 C759 C 0.74831 0.17061 0.82932
 C760 C 0.74865 0.18430 0.81570
 H761 H 0.73864 0.05234 0.90138
 H762 H 0.73801 0.07998 0.87347
 H763 H 0.75890 0.12699 0.91984
 H764 H 0.75906 0.09928 0.94768
 H765 H 0.73428 0.14707 0.89772
 H766 H 0.73444 0.17479 0.86988
 H767 H 0.76182 0.12996 0.82514
 H768 H 0.76214 0.10221 0.85295
 C769 C 0.24864 0.54391 0.45588
 C770 C 0.24845 0.55752 0.44219
 C771 C 0.24817 0.57375 0.42585
 C772 C 0.25273 0.59506 0.43112
 C773 C 0.25244 0.61086 0.41526
 C774 C 0.24758 0.60552 0.39390
 C775 C 0.24302 0.58405 0.38878
 C776 C 0.24331 0.56828 0.40467
 C777 C 0.24736 0.62227 0.37703
 C778 C 0.25597 0.61807 0.35662
 C779 C 0.25588 0.63390 0.34079
 C780 C 0.24719 0.65410 0.34512
 C781 C 0.23853 0.65843 0.36533
 C782 C 0.23861 0.64263 0.38120
 C783 C 0.24737 0.67043 0.32888
 C784 C 0.24771 0.68411 0.31527
 H785 H 0.25656 0.59945 0.44747
 H786 H 0.25629 0.62719 0.41965
 H787 H 0.23896 0.57949 0.37254
 H788 H 0.23969 0.55184 0.40044
 H789 H 0.26307 0.60266 0.35301
 H790 H 0.26271 0.63041 0.32522
 H791 H 0.23174 0.67401 0.36883
 H792 H 0.23162 0.64626 0.39665
 C793 C 0.25114 0.95624 0.95638
 C794 C 0.25119 0.94259 0.94271
 C795 C 0.25129 0.92631 0.92638
 C796 C 0.26466 0.90843 0.92842
 C797 C 0.26477 0.89261 0.91256
 C798 C 0.25147 0.89446 0.89445
 C799 C 0.23809 0.91251 0.89256
 C800 C 0.23802 0.92832 0.90843
 C801 C 0.25151 0.87763 0.87762
 C802 C 0.23222 0.87096 0.86805
 C803 C 0.23226 0.85510 0.85223
 C804 C 0.25156 0.84570 0.84577
 C805 C 0.27083 0.85221 0.85518
 C806 C 0.27083 0.86806 0.87101
 C807 C 0.25151 0.82936 0.82950
 C808 C 0.25127 0.81569 0.81586
 H809 H 0.27495 0.90669 0.94228
 H810 H 0.27504 0.87878 0.91462
 H811 H 0.22788 0.91453 0.87868
 H812 H 0.22765 0.94212 0.90667
 H813 H 0.21707 0.87780 0.87299
 H814 H 0.21724 0.85012 0.84510
 H815 H 0.28586 0.84507 0.85025
 H816 H 0.28596 0.87304 0.87788
 C817 C 0.75107 0.45595 0.45574
 C818 C 0.75113 0.44232 0.44206
 C819 C 0.75124 0.42605 0.42572
 C820 C 0.76411 0.40784 0.42807
 C821 C 0.76424 0.39203 0.41219
 C822 C 0.75146 0.39423 0.39375
 C823 C 0.73858 0.41260 0.39154
 C824 C 0.73849 0.42840 0.40743
 C825 C 0.75153 0.37742 0.37691
 C826 C 0.73233 0.37124 0.36682
 C827 C 0.73239 0.35539 0.35100
 C828 C 0.75160 0.34550 0.34503
 C829 C 0.77078 0.35153 0.35495
 C830 C 0.77076 0.36737 0.37079
 C831 C 0.75157 0.32917 0.32877
 C832 C 0.75134 0.31548 0.31514
 H833 H 0.77400 0.40584 0.44219
 H834 H 0.77410 0.37796 0.41449
 H835 H 0.72879 0.41490 0.37741
 H836 H 0.72852 0.44246 0.40542
 H837 H 0.71723 0.37846 0.37137
 H838 H 0.71744 0.35080 0.34346
 H839 H 0.78575 0.34402 0.35041
 H840 H 0.78583 0.37197 0.37806
 C841 C 0.04393 0.25106 0.04370
 C842 C 0.05760 0.25114 0.05734
 C843 C 0.07391 0.25125 0.07364
 C844 C 0.07181 0.23820 0.09173
 C845 C 0.08765 0.23829 0.10756
 C846 C 0.10582 0.25147 0.10551
 C847 C 0.10776 0.26456 0.08726
 C848 C 0.09191 0.26443 0.07144
 C849 C 0.12269 0.25154 0.12230
 C850 C 0.13244 0.27084 0.12870
 C851 C 0.14831 0.27086 0.14452
 C852 C 0.15465 0.25162 0.15411
 C853 C 0.14506 0.23235 0.14785
 C854 C 0.12918 0.23229 0.13206
 C855 C 0.17097 0.25160 0.17039
 C856 C 0.18463 0.25138 0.18404
 H857 H 0.05791 0.22798 0.09362
 H858 H 0.08556 0.22825 0.12155
 H859 H 0.12168 0.27467 0.08508
 H860 H 0.09372 0.27457 0.05747
 H861 H 0.12760 0.28595 0.12170
 H862 H 0.15559 0.28588 0.14930
 H863 H 0.14989 0.21736 0.15514
 H864 H 0.12219 0.21715 0.12728
 C865 C 0.54405 0.75111 0.54412
 C866 C 0.55772 0.75122 0.55776
 C867 C 0.57403 0.75137 0.57406
 C868 C 0.57194 0.73833 0.59216
 C869 C 0.58778 0.73846 0.60800
 C870 C 0.60592 0.75168 0.60594
 C871 C 0.60785 0.76475 0.58768
 C872 C 0.59200 0.76458 0.57185
 C873 C 0.62278 0.75178 0.62274
 C874 C 0.63250 0.77110 0.62913
 C875 C 0.64836 0.77117 0.64495
 C876 C 0.65472 0.75195 0.65458
 C877 C 0.64516 0.73266 0.64832
 C878 C 0.62930 0.73255 0.63252
 C879 C 0.67104 0.75197 0.67086
 C880 C 0.68470 0.75178 0.68450
 H881 H 0.55806 0.72810 0.59406
 H882 H 0.58569 0.72844 0.62199
 H883 H 0.62176 0.77488 0.58549
 H884 H 0.59380 0.77470 0.55787
 H885 H 0.62764 0.78619 0.62210
 H886 H 0.65561 0.78620 0.64971
 H887 H 0.65002 0.71768 0.65563
 H888 H 0.62234 0.71739 0.62775
 C889 C 0.04325 0.74907 0.95599
 C890 C 0.05697 0.74895 0.94241
 C891 C 0.07337 0.74876 0.92620
 C892 C 0.06823 0.75365 0.90493
 C893 C 0.08414 0.75343 0.88918
 C894 C 0.10545 0.74833 0.89449
 C895 C 0.11045 0.74345 0.91593
 C896 C 0.09451 0.74366 0.93166
 C897 C 0.12238 0.74815 0.87777
 C898 C 0.14290 0.75642 0.88216
 C899 C 0.15878 0.75636 0.86637
 C900 C 0.15441 0.74804 0.84602
 C901 C 0.13408 0.73974 0.84150
 C902 C 0.11817 0.73979 0.85726
 C903 C 0.17071 0.74822 0.82972
 C904 C 0.18436 0.74854 0.81606
 H905 H 0.05193 0.75768 0.90054
 H906 H 0.07983 0.75755 0.87289
 H907 H 0.12663 0.73919 0.92049
 H908 H 0.09866 0.73979 0.94806
 H909 H 0.14657 0.76323 0.89768
 H910 H 0.17444 0.76291 0.87001
 H911 H 0.13053 0.73322 0.82581
 H912 H 0.10264 0.73306 0.85347
 C913 C 0.54432 0.24885 0.45594
 C914 C 0.55795 0.24871 0.44228
 C915 C 0.57421 0.24849 0.42597
 C916 C 0.59540 0.25366 0.43114
 C917 C 0.61121 0.25341 0.41530
 C918 C 0.60601 0.24800 0.39404
 C919 C 0.58466 0.24282 0.38900
 C920 C 0.56888 0.24305 0.40488
 C921 C 0.62277 0.24782 0.37719
 C922 C 0.61843 0.25607 0.35667
 C923 C 0.63426 0.25603 0.34084
 C924 C 0.65459 0.24772 0.34529
 C925 C 0.65906 0.23942 0.36562
 C926 C 0.64326 0.23948 0.38149
 C927 C 0.67091 0.24790 0.32904
 C928 C 0.68456 0.24823 0.31540
 H929 H 0.59968 0.25795 0.44741
 H930 H 0.62745 0.25774 0.41961
 H931 H 0.58022 0.23832 0.37285
 H932 H 0.55253 0.23895 0.40072
 H933 H 0.60290 0.26286 0.35296
 H934 H 0.63067 0.26257 0.32517
 H935 H 0.67474 0.23292 0.36921
 H936 H 0.64699 0.23277 0.39704
 C937 C 0.95563 0.74929 0.04325
 C938 C 0.94198 0.74925 0.05691
 C939 C 0.92570 0.74918 0.07324
 C940 C 0.92790 0.76221 0.09136
 C941 C 0.91211 0.76213 0.10725
 C942 C 0.89390 0.74900 0.10522
 C943 C 0.89186 0.73594 0.08695
 C944 C 0.90766 0.73605 0.07107
 C945 C 0.87710 0.74893 0.12208
 C946 C 0.86730 0.72965 0.12844
 C947 C 0.85150 0.72963 0.14432
 C948 C 0.84528 0.74885 0.15404
 C949 C 0.85491 0.76811 0.14782
 C950 C 0.87072 0.76817 0.13196
 C951 C 0.82901 0.74887 0.17038
 C952 C 0.81539 0.74907 0.18407
 H953 H 0.94183 0.77238 0.09324
 H954 H 0.91429 0.77215 0.12125
 H955 H 0.87791 0.72586 0.08478
 H956 H 0.90577 0.72594 0.05709
 H957 H 0.87205 0.71455 0.12135
 H958 H 0.84419 0.71462 0.14906
 H959 H 0.85017 0.78310 0.15519
 H960 H 0.87774 0.78331 0.12723
 C961 C 0.45599 0.24904 0.54406
 C962 C 0.44232 0.24897 0.55768
 C963 C 0.42599 0.24884 0.57394
 C964 C 0.42079 0.26775 0.58479
 C965 C 0.40492 0.26764 0.60058
 C966 C 0.39406 0.24858 0.60572
 C967 C 0.39942 0.22964 0.59473
 C968 C 0.41528 0.22979 0.57893
 C969 C 0.37720 0.24845 0.62248
 C970 C 0.37583 0.23146 0.63722
 C971 C 0.35999 0.23142 0.65305
 C972 C 0.34531 0.24831 0.65431
 C973 C 0.34651 0.26525 0.63970
 C974 C 0.36235 0.26535 0.62388
 C975 C 0.32910 0.24835 0.67067
 C976 C 0.31550 0.24857 0.68437
 H977 H 0.42904 0.28257 0.58109
 H978 H 0.40134 0.28241 0.60895
 H979 H 0.39116 0.21478 0.59815
 H980 H 0.41915 0.21508 0.57058
 H981 H 0.38720 0.21837 0.63671
 H982 H 0.35925 0.21826 0.66434
 H983 H 0.33519 0.27838 0.64051
 H984 H 0.36282 0.27851 0.61259
 C985 C 0.95642 0.25108 0.95635
 C986 C 0.94274 0.25115 0.94271
 C987 C 0.92642 0.25126 0.92643
 C988 C 0.90883 0.26503 0.92825
 C989 C 0.89296 0.26516 0.91245
 C990 C 0.89447 0.25147 0.89459
 C991 C 0.91224 0.23769 0.89291
 C992 C 0.92809 0.23760 0.90873
 C993 C 0.87759 0.25153 0.87782
 C994 C 0.87053 0.23220 0.86860
 C995 C 0.85465 0.23226 0.85281
 C996 C 0.84562 0.25161 0.84601
 C997 C 0.85252 0.27093 0.85506
 C998 C 0.86839 0.27091 0.87087
 C999 C 0.82929 0.25160 0.82973
 C1000 C 0.81563 0.25138 0.81608
 H1001 H 0.90735 0.27563 0.94192
 H1002 H 0.87935 0.27575 0.91434
 H1003 H 0.91401 0.22717 0.87923
 H1004 H 0.94167 0.22692 0.90714
 H1005 H 0.87708 0.21701 0.87380
 H1006 H 0.84938 0.21721 0.84595
 H1007 H 0.84567 0.28601 0.84987
 H1008 H 0.87368 0.28607 0.87745
 C1009 C 0.45558 0.75091 0.45598
 C1010 C 0.44189 0.75096 0.44236
 C1011 C 0.42554 0.75105 0.42611
 C1012 C 0.40841 0.76545 0.42747
 C1013 C 0.39253 0.76555 0.41167
 C1014 C 0.39356 0.75122 0.39430
 C1015 C 0.41086 0.73680 0.39308
 C1016 C 0.42673 0.73674 0.40889
 C1017 C 0.37667 0.75126 0.37754
 C1018 C 0.36893 0.73187 0.36902
 C1019 C 0.35305 0.73192 0.35323
 C1020 C 0.34469 0.75132 0.34573
 C1021 C 0.35225 0.77070 0.35410
 C1022 C 0.36813 0.77069 0.36991
 C1023 C 0.32839 0.75129 0.32943
 C1024 C 0.31476 0.75107 0.31576
 H1025 H 0.40731 0.77655 0.44076
 H1026 H 0.37928 0.77664 0.41321
 H1027 H 0.41226 0.72577 0.37977
 H1028 H 0.43995 0.72557 0.40764
 H1029 H 0.37497 0.71666 0.37475
 H1030 H 0.34727 0.71683 0.34690
 H1031 H 0.34593 0.78581 0.34837
 H1032 H 0.37394 0.78588 0.37595
 C1033 C 0.04375 0.04388 0.25168
 C1034 C 0.05738 0.05757 0.25173
 C1035 C 0.07366 0.07391 0.25183
 C1036 C 0.07784 0.08551 0.27056
 C1037 C 0.09364 0.10138 0.27069
 C1038 C 0.10547 0.10589 0.25203
 C1039 C 0.10114 0.09413 0.23328
 C1040 C 0.08534 0.07825 0.23320
 C1041 C 0.12224 0.12279 0.25212
 C1042 C 0.12459 0.13667 0.23452
 C1043 C 0.14041 0.15252 0.23457
 C1044 C 0.15410 0.15472 0.25219
 C1045 C 0.15190 0.14102 0.26979
 C1046 C 0.13607 0.12516 0.26978
 C1047 C 0.17048 0.17096 0.25210
 C1048 C 0.18419 0.18456 0.25179
 H1049 H 0.06885 0.08232 0.28506
 H1050 H 0.09640 0.11034 0.28529
 H1051 H 0.11015 0.09701 0.21876
 H1052 H 0.08228 0.06932 0.21863
 H1053 H 0.11402 0.13545 0.22082
 H1054 H 0.14195 0.16307 0.22088
 H1055 H 0.16245 0.14254 0.28349
 H1056 H 0.13485 0.11456 0.28345
 C1057 C 0.54416 0.54437 0.75202
 C1058 C 0.55778 0.55805 0.75208
 C1059 C 0.57403 0.57438 0.75219
 C1060 C 0.57824 0.58593 0.77095
 C1061 C 0.59403 0.60180 0.77109
 C1062 C 0.60582 0.60634 0.75243
 C1063 C 0.60147 0.59463 0.73366
 C1064 C 0.58568 0.57876 0.73356
 C1065 C 0.62257 0.62322 0.75253
 C1066 C 0.62482 0.63719 0.73499
 C1067 C 0.64064 0.65303 0.73506
 C1068 C 0.65440 0.65513 0.75262
 C1069 C 0.65229 0.64135 0.77017
 C1070 C 0.63647 0.62550 0.77015
 C1071 C 0.67076 0.67135 0.75253
 C1072 C 0.68446 0.68495 0.75222
 H1073 H 0.56927 0.58270 0.78545
 H1074 H 0.59681 0.61072 0.78571
 H1075 H 0.61047 0.59755 0.71912
 H1076 H 0.58260 0.56986 0.71897
 H1077 H 0.61419 0.63603 0.72133
 H1078 H 0.64211 0.66365 0.72141
 H1079 H 0.66292 0.64280 0.78382
 H1080 H 0.63531 0.61482 0.78377
 C1081 C 0.95651 0.04397 0.74815
 C1082 C 0.94288 0.05766 0.74805
 C1083 C 0.92661 0.07401 0.74788
 C1084 C 0.93157 0.09473 0.74094
 C1085 C 0.91578 0.11062 0.74073
 C1086 C 0.89477 0.10597 0.74746
 C1087 C 0.88996 0.08506 0.75440
 C1088 C 0.90578 0.06921 0.75461
 C1089 C 0.87799 0.12285 0.74731
 C1090 C 0.85695 0.11804 0.74078
 C1091 C 0.84113 0.13391 0.74078
 C1092 C 0.84612 0.15478 0.74729
 C1093 C 0.86700 0.15974 0.75376
 C1094 C 0.88284 0.14390 0.75376
 C1095 C 0.82977 0.17103 0.74759
 C1096 C 0.81607 0.18465 0.74804
 H1097 H 0.94763 0.09861 0.73563
 H1098 H 0.91993 0.12646 0.73503
 H1099 H 0.87403 0.08104 0.75996
 H1100 H 0.90178 0.05323 0.76006
 H1101 H 0.85276 0.10207 0.73545
 H1102 H 0.82502 0.12990 0.73572
 H1103 H 0.87102 0.17582 0.75892
 H1104 H 0.89880 0.14805 0.75915
 C1105 C 0.45594 0.54419 0.24805
 C1106 C 0.44225 0.55780 0.24798
 C1107 C 0.42590 0.57402 0.24783
 C1108 C 0.43133 0.59542 0.24399
 C1109 C 0.41544 0.61120 0.24380
 C1110 C 0.39388 0.60574 0.24748
 C1111 C 0.38859 0.58417 0.25131
 C1112 C 0.40451 0.56842 0.25147
 C1113 C 0.37699 0.62249 0.24738
 C1114 C 0.36037 0.62205 0.26260
 C1115 C 0.34453 0.63786 0.26256
 C1116 C 0.34506 0.65430 0.24734
 C1117 C 0.36149 0.65487 0.23212
 C1118 C 0.37737 0.63908 0.23212
 C1119 C 0.32882 0.67063 0.24748
 C1120 C 0.31518 0.68429 0.24782
 H1121 H 0.44785 0.59993 0.24119
 H1122 H 0.42005 0.62769 0.24108
 H1123 H 0.37211 0.57942 0.25391
 H1124 H 0.40013 0.55188 0.25439
 H1125 H 0.35980 0.60966 0.27472
 H1126 H 0.33191 0.63732 0.27447
 H1127 H 0.36202 0.66751 0.22024
 H1128 H 0.38979 0.63969 0.22004
 C1129 C 0.04376 0.95631 0.74814
 C1130 C 0.05736 0.94260 0.74803
 C1131 C 0.07360 0.92622 0.74785
 C1132 C 0.06825 0.90514 0.74238
 C1133 C 0.08401 0.88922 0.74217
 C1134 C 0.10536 0.89419 0.74744
 C1135 C 0.11057 0.91544 0.75291
 C1136 C 0.09478 0.93133 0.75311
 C1137 C 0.12211 0.87727 0.74729
 C1138 C 0.14275 0.88163 0.73934
 C1139 C 0.15854 0.86574 0.73936
 C1140 C 0.15394 0.84530 0.74732
 C1141 C 0.13345 0.84078 0.75521
 C1142 C 0.11764 0.85664 0.75520
 C1143 C 0.17028 0.82903 0.74763
 C1144 C 0.18397 0.81542 0.74809
 H1145 H 0.05191 0.90102 0.73821
 H1146 H 0.07953 0.87309 0.73762
 H1147 H 0.12679 0.91972 0.75731
 H1148 H 0.09909 0.94758 0.75742
 H1149 H 0.14662 0.89725 0.73289
 H1150 H 0.17434 0.86940 0.73318
 H1151 H 0.12974 0.82503 0.76149
 H1152 H 0.10201 0.85285 0.76169
 C1153 C 0.54414 0.45590 0.24782
 C1154 C 0.55773 0.44220 0.24766
 C1155 C 0.57393 0.42582 0.24740
 C1156 C 0.56843 0.40466 0.24246
 C1157 C 0.58415 0.38872 0.24218
 C1158 C 0.60563 0.39377 0.24684
 C1159 C 0.61100 0.41511 0.25176
 C1160 C 0.59524 0.43102 0.25204
 C1161 C 0.62233 0.37685 0.24664
 C1162 C 0.64275 0.38099 0.23803
 C1163 C 0.65851 0.36509 0.23802
 C1164 C 0.65409 0.34486 0.24659
 C1165 C 0.63383 0.34055 0.25513
 C1166 C 0.61804 0.35642 0.25515
 C1167 C 0.67042 0.32861 0.24689
 C1168 C 0.68410 0.31501 0.24735
 H1169 H 0.55199 0.40048 0.23877
 H1170 H 0.57956 0.37251 0.23806
 H1171 H 0.62732 0.41945 0.25569
 H1172 H 0.59966 0.44735 0.25592
 H1173 H 0.64646 0.39646 0.23111
 H1174 H 0.67415 0.36858 0.23134
 H1175 H 0.63028 0.32497 0.26188
 H1176 H 0.60258 0.35283 0.26214
 C1177 C 0.95643 0.95629 0.25205
 C1178 C 0.94280 0.94260 0.25221
 C1179 C 0.92654 0.92624 0.25244
 C1180 C 0.93202 0.90501 0.25707
 C1181 C 0.91624 0.88911 0.25732
 C1182 C 0.89473 0.89426 0.25294
 C1183 C 0.88939 0.91568 0.24832
 C1184 C 0.90520 0.93154 0.24807
 C1185 C 0.87795 0.87738 0.25310
 C1186 C 0.85761 0.88150 0.26191
 C1187 C 0.84179 0.86564 0.26190
 C1188 C 0.84606 0.84547 0.25309
 C1189 C 0.86625 0.84119 0.24434
 C1190 C 0.88210 0.85701 0.24435
 C1191 C 0.82967 0.82925 0.25277
 C1192 C 0.81595 0.81566 0.25230
 H1193 H 0.94848 0.90074 0.26055
 H1194 H 0.92082 0.87284 0.26120
 H1195 H 0.87304 0.92011 0.24460
 H1196 H 0.90079 0.94793 0.24442
 H1197 H 0.85401 0.89691 0.26902
 H1198 H 0.82623 0.86912 0.26874
 H1199 H 0.86970 0.82566 0.23740
 H1200 H 0.89748 0.85343 0.23720
 C1201 C 0.45616 0.45589 0.75236
 C1202 C 0.44257 0.44218 0.75253
 C1203 C 0.42637 0.42580 0.75281
 C1204 C 0.43179 0.40474 0.75820
 C1205 C 0.41606 0.38881 0.75849
 C1206 C 0.39467 0.39377 0.75339
 C1207 C 0.38938 0.41501 0.74801
 C1208 C 0.40515 0.43091 0.74772
 C1209 C 0.37796 0.37685 0.75358
 C1210 C 0.35741 0.38114 0.76180
 C1211 C 0.34164 0.36524 0.76179
 C1212 C 0.34618 0.34489 0.75358
 C1213 C 0.36658 0.34044 0.74543
 C1214 C 0.38238 0.35630 0.74544
 C1215 C 0.32984 0.32865 0.75322
 C1216 C 0.31614 0.31506 0.75271
 H1217 H 0.44816 0.40063 0.76224
 H1218 H 0.42057 0.37267 0.76296
 H1219 H 0.37312 0.41928 0.74373
 H1220 H 0.40079 0.44717 0.74348
 H1221 H 0.35361 0.39671 0.76843
 H1222 H 0.32590 0.36884 0.76816
 H1223 H 0.37023 0.32475 0.73895
 H1224 H 0.39794 0.35259 0.73875
 C1225 C 0.04387 0.25082 0.95548
 C1226 C 0.05755 0.25068 0.94188
 C1227 C 0.07392 0.25045 0.92566
 C1228 C 0.06851 0.25397 0.90419
 C1229 C 0.08440 0.25368 0.88841
 C1230 C 0.10592 0.24987 0.89393
 C1231 C 0.11118 0.24635 0.91557
 C1232 C 0.09526 0.24663 0.93131
 C1233 C 0.12281 0.24959 0.87720
 C1234 C 0.14287 0.25914 0.88104
 C1235 C 0.15874 0.25894 0.86525
 C1236 C 0.15480 0.24919 0.84546
 C1237 C 0.13492 0.23962 0.84148
 C1238 C 0.11902 0.23981 0.85724
 C1239 C 0.17111 0.24911 0.82920
 C1240 C 0.18479 0.24910 0.81558
 H1241 H 0.05204 0.25699 0.89965
 H1242 H 0.07989 0.25672 0.87194
 H1243 H 0.12755 0.24310 0.92028
 H1244 H 0.09960 0.24381 0.94788
 H1245 H 0.14617 0.26703 0.89613
 H1246 H 0.17405 0.26646 0.86846
 H1247 H 0.13173 0.23198 0.82622
 H1248 H 0.10385 0.23209 0.85391
 C1249 C 0.54394 0.75081 0.45582
 C1250 C 0.55760 0.75071 0.44217
 C1251 C 0.57393 0.75053 0.42588
 C1252 C 0.59530 0.74669 0.43144
 C1253 C 0.61117 0.74647 0.41564
 C1254 C 0.60587 0.75010 0.39403
 C1255 C 0.58432 0.75394 0.38861
 C1256 C 0.56848 0.75416 0.40444
 C1257 C 0.62273 0.74990 0.37723
 C1258 C 0.61883 0.74034 0.35718
 C1259 C 0.63470 0.74020 0.34137
 C1260 C 0.65465 0.74961 0.34536
 C1261 C 0.65869 0.75915 0.36525
 C1262 C 0.64285 0.75930 0.38108
 C1263 C 0.67095 0.74955 0.32905
 C1264 C 0.68461 0.74956 0.31541
 H1265 H 0.59970 0.74379 0.44798
 H1266 H 0.62756 0.74319 0.42029
 H1267 H 0.57975 0.75706 0.37217
 H1268 H 0.55199 0.75720 0.39997
 H1269 H 0.60362 0.73273 0.35381
 H1270 H 0.63142 0.73272 0.32605
 H1271 H 0.67405 0.76655 0.36849
 H1272 H 0.64625 0.76703 0.39624
 C1273 C 0.95663 0.74945 0.95578
 C1274 C 0.94298 0.74957 0.94212
 C1275 C 0.92667 0.74978 0.92581
 C1276 C 0.91999 0.76921 0.91685
 C1277 C 0.90414 0.76944 0.90103
 C1278 C 0.89475 0.75020 0.89395
 C1279 C 0.90159 0.73074 0.90306
 C1280 C 0.91744 0.73055 0.91889
 C1281 C 0.87790 0.75042 0.87714
 C1282 C 0.87764 0.73471 0.86096
 C1283 C 0.86175 0.73491 0.84517
 C1284 C 0.84591 0.75077 0.84533
 C1285 C 0.84603 0.76647 0.86134
 C1286 C 0.86191 0.76631 0.87714
 C1287 C 0.82953 0.75089 0.82912
 C1288 C 0.81581 0.75093 0.81553
 H1289 H 0.92708 0.78418 0.92206
 H1290 H 0.89942 0.78464 0.89414
 H1291 H 0.89448 0.71570 0.89816
 H1292 H 0.92246 0.71543 0.92576
 H1293 H 0.88988 0.72244 0.86034
 H1294 H 0.86185 0.72271 0.83281
 H1295 H 0.83380 0.77878 0.86166
 H1296 H 0.86150 0.77845 0.88953
 C1297 C 0.45609 0.24916 0.45578
 C1298 C 0.44246 0.24926 0.44210
 C1299 C 0.42618 0.24944 0.42576
 C1300 C 0.41943 0.26888 0.41685
 C1301 C 0.40361 0.26909 0.40100
 C1302 C 0.39433 0.24983 0.39383
 C1303 C 0.40124 0.23037 0.40288
 C1304 C 0.41706 0.23020 0.41875
 C1305 C 0.37751 0.25003 0.37699
 C1306 C 0.37738 0.23440 0.36073
 C1307 C 0.36153 0.23459 0.34491
 C1308 C 0.34560 0.25036 0.34511
 C1309 C 0.34559 0.26598 0.36120
 C1310 C 0.36143 0.26584 0.37703
 C1311 C 0.32925 0.25048 0.32885
 C1312 C 0.31556 0.25052 0.31524
 H1313 H 0.42643 0.28386 0.42213
 H1314 H 0.39884 0.28429 0.39415
 H1315 H 0.39422 0.21531 0.39791
 H1316 H 0.42213 0.21508 0.42558
 H1317 H 0.38969 0.22220 0.36009
 H1318 H 0.36172 0.22245 0.33249
 H1319 H 0.33330 0.27823 0.36154
 H1320 H 0.36094 0.27791 0.38948
 C1321 C 0.04389 0.74930 0.04340
 C1322 C 0.05752 0.74937 0.05710
 C1323 C 0.07378 0.74951 0.07344
 C1324 C 0.07136 0.73691 0.09181
 C1325 C 0.08714 0.73706 0.10772
 C1326 C 0.10556 0.74986 0.10546
 C1327 C 0.10782 0.76249 0.08692
 C1328 C 0.09203 0.76230 0.07103
 C1329 C 0.12234 0.75002 0.12233
 C1330 C 0.13242 0.76929 0.12831
 C1331 C 0.14822 0.76940 0.14419
 C1332 C 0.15418 0.75030 0.15428
 C1333 C 0.14425 0.73106 0.14845
 C1334 C 0.12844 0.73090 0.13259
 C1335 C 0.17047 0.75041 0.17059
 C1336 C 0.18413 0.75044 0.18425
 H1337 H 0.05726 0.72700 0.09388
 H1338 H 0.08479 0.72738 0.12192
 H1339 H 0.12193 0.77230 0.08458
 H1340 H 0.09408 0.77208 0.05685
 H1341 H 0.12789 0.78431 0.12092
 H1342 H 0.15577 0.78440 0.14863
 H1343 H 0.14879 0.71616 0.15612
 H1344 H 0.12119 0.71578 0.12815
 C1345 C 0.54427 0.24921 0.54423
 C1346 C 0.55792 0.24932 0.55790
 C1347 C 0.57421 0.24951 0.57422
 C1348 C 0.57162 0.23731 0.59283
 C1349 C 0.58743 0.23750 0.60870
 C1350 C 0.60606 0.24994 0.60615
 C1351 C 0.60850 0.26216 0.58737
 C1352 C 0.59267 0.26193 0.57152
 C1353 C 0.62288 0.25014 0.62300
 C1354 C 0.63330 0.26934 0.62858
 C1355 C 0.64913 0.26949 0.64443
 C1356 C 0.65477 0.25049 0.65490
 C1357 C 0.64451 0.23131 0.64946
 C1358 C 0.62866 0.23112 0.63363
 C1359 C 0.67109 0.25064 0.67118
 C1360 C 0.68477 0.25070 0.68482
 H1361 H 0.55736 0.22769 0.59511
 H1362 H 0.58495 0.22814 0.62309
 H1363 H 0.62277 0.27167 0.58481
 H1364 H 0.59486 0.27140 0.55714
 H1365 H 0.62902 0.28428 0.62090
 H1366 H 0.65694 0.28444 0.64856
 H1367 H 0.64879 0.21650 0.65741
 H1368 H 0.62115 0.21604 0.62950
 C1369 C 0.95566 0.25090 0.04375
 C1370 C 0.94204 0.25079 0.05742
 C1371 C 0.92578 0.25059 0.07373
 C1372 C 0.92840 0.26279 0.09236
 C1373 C 0.91262 0.26257 0.10824
 C1374 C 0.89401 0.25011 0.10570
 C1375 C 0.89154 0.23789 0.08691
 C1376 C 0.90733 0.23815 0.07104
 C1377 C 0.87725 0.24986 0.12256
 C1378 C 0.86696 0.23062 0.12820
 C1379 C 0.85116 0.23042 0.14406
 C1380 C 0.84543 0.24943 0.15447
 C1381 C 0.85556 0.26865 0.14898
 C1382 C 0.87138 0.26888 0.13314
 C1383 C 0.82912 0.24923 0.17074
 C1384 C 0.81544 0.24915 0.18435
 H1385 H 0.94265 0.27243 0.09463
 H1386 H 0.91511 0.27193 0.12264
 H1387 H 0.87727 0.22836 0.08436
 H1388 H 0.90512 0.22869 0.05665
 H1389 H 0.87132 0.21567 0.12054
 H1390 H 0.84345 0.21544 0.14823
 H1391 H 0.85119 0.28346 0.15690
 H1392 H 0.87880 0.28399 0.12897
 C1393 C 0.45577 0.75079 0.54429
 C1394 C 0.44214 0.75068 0.55797
 C1395 C 0.42587 0.75050 0.57431
 C1396 C 0.42080 0.76935 0.58535
 C1397 C 0.40499 0.76919 0.60122
 C1398 C 0.39404 0.75014 0.60627
 C1399 C 0.39927 0.73127 0.59508
 C1400 C 0.41508 0.73148 0.57921
 C1401 C 0.37721 0.74996 0.62310
 C1402 C 0.37561 0.73271 0.63753
 C1403 C 0.35977 0.73256 0.65337
 C1404 C 0.34533 0.74963 0.65500
 C1405 C 0.34678 0.76685 0.64073
 C1406 C 0.36260 0.76704 0.62489
 C1407 C 0.32902 0.74949 0.67131
 C1408 C 0.31535 0.74943 0.68495
 H1409 H 0.42910 0.78415 0.58174
 H1410 H 0.40153 0.78390 0.60973
 H1411 H 0.39094 0.71642 0.59838
 H1412 H 0.41883 0.71680 0.57072
 H1413 H 0.38678 0.71946 0.63675
 H1414 H 0.35884 0.71917 0.66437
 H1415 H 0.33564 0.78012 0.64181
 H1416 H 0.36323 0.78040 0.61387
 C1417 C 0.25104 0.04366 0.95562
 C1418 C 0.25093 0.05733 0.94199
 C1419 C 0.25071 0.07365 0.92573
 C1420 C 0.24567 0.06833 0.90454
 C1421 C 0.24538 0.08419 0.88874
 C1422 C 0.25011 0.10561 0.89395
 C1423 C 0.25516 0.11079 0.91531
 C1424 C 0.25546 0.09490 0.93108
 C1425 C 0.24981 0.12247 0.87718
 C1426 C 0.24123 0.14286 0.88157
 C1427 C 0.24101 0.15873 0.86577
 C1428 C 0.24935 0.15446 0.84542
 C1429 C 0.25790 0.13424 0.84088
 C1430 C 0.25813 0.11834 0.85664
 C1431 C 0.24925 0.17083 0.82922
 C1432 C 0.24924 0.18454 0.81562
 H1433 H 0.24191 0.05194 0.90025
 H1434 H 0.24116 0.07975 0.87251
 H1435 H 0.25916 0.12707 0.91977
 H1436 H 0.25943 0.09917 0.94743
 H1437 H 0.23445 0.14644 0.89712
 H1438 H 0.23431 0.17432 0.86944
 H1439 H 0.26446 0.13079 0.82519
 H1440 H 0.26510 0.10291 0.85285
 C1441 C 0.75091 0.54426 0.45584
 C1442 C 0.75079 0.55793 0.44219
 C1443 C 0.75057 0.57426 0.42590
 C1444 C 0.75525 0.59553 0.43123
 C1445 C 0.75497 0.61141 0.41543
 C1446 C 0.75002 0.60621 0.39405
 C1447 C 0.74534 0.58476 0.38887
 C1448 C 0.74562 0.56892 0.40470
 C1449 C 0.74975 0.62306 0.37724
 C1450 C 0.75811 0.61890 0.35672
 C1451 C 0.75790 0.63478 0.34092
 C1452 C 0.74933 0.65500 0.34539
 C1453 C 0.74095 0.65930 0.36574
 C1454 C 0.74116 0.64345 0.38156
 C1455 C 0.74922 0.67136 0.32914
 C1456 C 0.74920 0.68505 0.31551
 H1457 H 0.75915 0.59985 0.44758
 H1458 H 0.75892 0.62771 0.41988
 H1459 H 0.74119 0.58029 0.37263
 H1460 H 0.74190 0.55252 0.40040
 H1461 H 0.76510 0.60347 0.35297
 H1462 H 0.76450 0.63130 0.32525
 H1463 H 0.73423 0.67488 0.36936
 H1464 H 0.73435 0.64706 0.39710
 C1465 C 0.74943 0.04346 0.04398
 C1466 C 0.74953 0.05717 0.05759
 C1467 C 0.74970 0.07355 0.07382
 C1468 C 0.75713 0.06887 0.09445
 C1469 C 0.75738 0.08479 0.11021
 C1470 C 0.75018 0.10563 0.10553
 C1471 C 0.74274 0.11017 0.08474
 C1472 C 0.74252 0.09423 0.06900
 C1473 C 0.75041 0.12256 0.12227
 C1474 C 0.73329 0.13711 0.12408
 C1475 C 0.73349 0.15299 0.13987
 C1476 C 0.75078 0.15458 0.15404
 C1477 C 0.76791 0.14022 0.15236
 C1478 C 0.76774 0.12430 0.13659
 C1479 C 0.75091 0.17090 0.17033
 C1480 C 0.75092 0.18456 0.18399
 H1481 H 0.76268 0.05290 0.09837
 H1482 H 0.76293 0.08072 0.12613
 H1483 H 0.73735 0.12612 0.08056
 H1484 H 0.73680 0.09805 0.05306
 H1485 H 0.71960 0.13601 0.11348
 H1486 H 0.72011 0.16399 0.14106
 H1487 H 0.78141 0.14134 0.16322
 H1488 H 0.78129 0.11353 0.13543
 C1489 C 0.24909 0.54423 0.54415
 C1490 C 0.24919 0.55792 0.55778
 C1491 C 0.24937 0.57426 0.57405
 C1492 C 0.25742 0.56970 0.59447
 C1493 C 0.25768 0.58558 0.61027
 C1494 C 0.24987 0.60626 0.60584
 C1495 C 0.24180 0.61067 0.58525
 C1496 C 0.24157 0.59477 0.56947
 C1497 C 0.25011 0.62314 0.62262
 C1498 C 0.23269 0.63726 0.62491
 C1499 C 0.23291 0.65311 0.64074
 C1500 C 0.25051 0.65506 0.65449
 C1501 C 0.26793 0.64112 0.65234
 C1502 C 0.26774 0.62525 0.63653
 C1503 C 0.25065 0.67134 0.67083
 C1504 C 0.25070 0.68496 0.68451
 H1505 H 0.26346 0.55386 0.59819
 H1506 H 0.26373 0.58160 0.62603
 H1507 H 0.23594 0.62650 0.58126
 H1508 H 0.23537 0.59849 0.55370
 H1509 H 0.21877 0.63587 0.61465
 H1510 H 0.21931 0.66378 0.64231
 H1511 H 0.28166 0.64253 0.66287
 H1512 H 0.28151 0.61481 0.63500
 C1513 C 0.74946 0.95577 0.95677
 C1514 C 0.74957 0.94208 0.94314
 C1515 C 0.74975 0.92575 0.92685
 C1516 C 0.76209 0.90724 0.92963
 C1517 C 0.76233 0.89139 0.91380
 C1518 C 0.75019 0.89385 0.89496
 C1519 C 0.73783 0.91252 0.89233
 C1520 C 0.73763 0.92835 0.90818
 C1521 C 0.75042 0.87702 0.87813
 C1522 C 0.73143 0.87129 0.86740
 C1523 C 0.73166 0.85546 0.85155
 C1524 C 0.75083 0.84517 0.84619
 C1525 C 0.76980 0.85074 0.85676
 C1526 C 0.76961 0.86655 0.87263
 C1527 C 0.75101 0.82890 0.82985
 C1528 C 0.75107 0.81528 0.81615
 H1529 H 0.77149 0.90504 0.94406
 H1530 H 0.77178 0.87709 0.91642
 H1531 H 0.72855 0.91502 0.87789
 H1532 H 0.72807 0.94265 0.90583
 H1533 H 0.71636 0.87884 0.87146
 H1534 H 0.71687 0.85123 0.84351
 H1535 H 0.78474 0.84291 0.85270
 H1536 H 0.78453 0.87080 0.88040
 C1537 C 0.24920 0.45563 0.45611
 C1538 C 0.24932 0.44193 0.44249
 C1539 C 0.24952 0.42559 0.42621
 C1540 C 0.26194 0.40713 0.42897
 C1541 C 0.26219 0.39128 0.41314
 C1542 C 0.25000 0.39368 0.39433
 C1543 C 0.23756 0.41230 0.39172
 C1544 C 0.23734 0.42814 0.40756
 C1545 C 0.25024 0.37684 0.37751
 C1546 C 0.23124 0.37104 0.36684
 C1547 C 0.23147 0.35519 0.35101
 C1548 C 0.25066 0.34493 0.34563
 C1549 C 0.26964 0.35057 0.35614
 C1550 C 0.26945 0.36641 0.37199
 C1551 C 0.25085 0.32863 0.32932
 C1552 C 0.25091 0.31499 0.31564
 H1553 H 0.27139 0.40497 0.44337
 H1554 H 0.27170 0.37701 0.41575
 H1555 H 0.22823 0.41475 0.37731
 H1556 H 0.22773 0.44240 0.40524
 H1557 H 0.21616 0.37856 0.37092
 H1558 H 0.21668 0.35090 0.34301
 H1559 H 0.28459 0.34277 0.35205
 H1560 H 0.28437 0.37070 0.37971
 C1561 C 0.25092 0.95533 0.04378
 C1562 C 0.25077 0.94166 0.05741
 C1563 C 0.25053 0.92534 0.07367
 C1564 C 0.24294 0.93009 0.09422
 C1565 C 0.24262 0.91423 0.11002
 C1566 C 0.24991 0.89339 0.10546
 C1567 C 0.25751 0.88879 0.08474
 C1568 C 0.25780 0.90467 0.06896
 C1569 C 0.24961 0.87654 0.12224
 C1570 C 0.26679 0.86209 0.12425
 C1571 C 0.26652 0.84626 0.14009
 C1572 C 0.24911 0.84466 0.15409
 C1573 C 0.23193 0.85893 0.15221
 C1574 C 0.23216 0.87478 0.13640
 C1575 C 0.24891 0.82840 0.17041
 C1576 C 0.24883 0.81478 0.18408
 H1577 H 0.23731 0.94606 0.09805
 H1578 H 0.23694 0.91835 0.12589
 H1579 H 0.26296 0.87284 0.08066
 H1580 H 0.26364 0.90081 0.05308
 H1581 H 0.28057 0.86321 0.11379
 H1582 H 0.27993 0.83533 0.14145
 H1583 H 0.21834 0.85779 0.16294
 H1584 H 0.21858 0.88548 0.13507
 C1585 C 0.75092 0.45583 0.54407
 C1586 C 0.75081 0.44216 0.55771
 C1587 C 0.75061 0.42584 0.57401
 C1588 C 0.73626 0.42727 0.59117
 C1589 C 0.73603 0.41142 0.60699
 C1590 C 0.75018 0.39390 0.60587
 C1591 C 0.76455 0.39262 0.58854
 C1592 C 0.76474 0.40848 0.57272
 C1593 C 0.74998 0.37707 0.62270
 C1594 C 0.76928 0.36826 0.63033
 C1595 C 0.76908 0.35243 0.64618
 C1596 C 0.74962 0.34518 0.65460
 C1597 C 0.73033 0.35382 0.64712
 C1598 C 0.73049 0.36966 0.63129
 C1599 C 0.74946 0.32888 0.67092
 C1600 C 0.74941 0.31523 0.68458
 H1601 H 0.72529 0.44066 0.59235
 H1602 H 0.72498 0.41302 0.62026
 H1603 H 0.77544 0.37921 0.58706
 H1604 H 0.77587 0.40718 0.55947
 H1605 H 0.78454 0.37381 0.62427
 H1606 H 0.78411 0.34590 0.65190
 H1607 H 0.71517 0.34828 0.65349
 H1608 H 0.71536 0.37591 0.62556
 C1609 C 0.04394 0.04462 0.74836
 C1610 C 0.05763 0.05823 0.74850
 C1611 C 0.07399 0.07446 0.74878
 C1612 C 0.08694 0.07703 0.76690
 C1613 C 0.10282 0.09282 0.76723
 C1614 C 0.10595 0.10624 0.74940
 C1615 C 0.09284 0.10351 0.73125
 C1616 C 0.07696 0.08772 0.73097
 C1617 C 0.12282 0.12300 0.74972
 C1618 C 0.13547 0.12684 0.73146
 C1619 C 0.15135 0.14262 0.73178
 C1620 C 0.15480 0.15477 0.75031
 C1621 C 0.14231 0.15107 0.76855
 C1622 C 0.12643 0.13529 0.76828
 C1623 C 0.17111 0.17103 0.75057
 C1624 C 0.18479 0.18465 0.75072
 H1625 H 0.08480 0.06680 0.78075
 H1626 H 0.11283 0.09433 0.78131
 H1627 H 0.09468 0.11377 0.71739
 H1628 H 0.06697 0.08591 0.71689
 H1629 H 0.13327 0.11746 0.71704
 H1630 H 0.16096 0.14532 0.71759
 H1631 H 0.14481 0.16044 0.78295
 H1632 H 0.11678 0.13290 0.78248
 C1633 C 0.54425 0.54427 0.24818
 C1634 C 0.55791 0.55793 0.24833
 C1635 C 0.57421 0.57425 0.24860
 C1636 C 0.58718 0.57688 0.26670
 C1637 C 0.60299 0.59274 0.26702
 C1638 C 0.60606 0.60620 0.24921
 C1639 C 0.59293 0.60342 0.23108
 C1640 C 0.57711 0.58756 0.23080
 C1641 C 0.62287 0.62306 0.24952
 C1642 C 0.63540 0.62707 0.23122
 C1643 C 0.65123 0.64292 0.23154
 C1644 C 0.65475 0.65498 0.25011
 C1645 C 0.64237 0.65112 0.26840
 C1646 C 0.62654 0.63527 0.26812
 C1647 C 0.67103 0.67130 0.25038
 C1648 C 0.68468 0.68497 0.25053
 H1649 H 0.58511 0.56663 0.28055
 H1650 H 0.61302 0.59428 0.28110
 H1651 H 0.59469 0.61370 0.21723
 H1652 H 0.56712 0.58571 0.21673
 H1653 H 0.63316 0.61777 0.21675
 H1654 H 0.66075 0.64573 0.21731
 H1655 H 0.64492 0.66041 0.28284
 H1656 H 0.61699 0.63277 0.28238
 C1657 C 0.04382 0.95558 0.25156
 C1658 C 0.05748 0.94193 0.25139
 C1659 C 0.07376 0.92564 0.25109
 C1660 C 0.06811 0.90417 0.24799
 C1661 C 0.08392 0.88832 0.24760
 C1662 C 0.10563 0.89377 0.25029
 C1663 C 0.11115 0.91540 0.25340
 C1664 C 0.09530 0.93122 0.25380
 C1665 C 0.12244 0.87695 0.24989
 C1666 C 0.14206 0.88059 0.23941
 C1667 C 0.15788 0.86475 0.23908
 C1668 C 0.15432 0.84508 0.24922
 C1669 C 0.13486 0.84129 0.25966
 C1670 C 0.11901 0.85710 0.26000
 C1671 C 0.17064 0.82883 0.24899
 C1672 C 0.18429 0.81518 0.24889
 H1673 H 0.05149 0.89969 0.24580
 H1674 H 0.07920 0.87185 0.24490
 H1675 H 0.12768 0.92006 0.25580
 H1676 H 0.09984 0.94779 0.25625
 H1677 H 0.14506 0.89560 0.23125
 H1678 H 0.17287 0.86783 0.23090
 H1679 H 0.13197 0.82614 0.26762
 H1680 H 0.10420 0.85391 0.26844
 C1681 C 0.54440 0.45607 0.75190
 C1682 C 0.55806 0.44241 0.75175
 C1683 C 0.57435 0.42609 0.75149
 C1684 C 0.56875 0.40466 0.74798
 C1685 C 0.58456 0.38880 0.74764
 C1686 C 0.60623 0.39417 0.75079
 C1687 C 0.61170 0.41576 0.75430
 C1688 C 0.59585 0.43160 0.75465
 C1689 C 0.62305 0.37732 0.75043
 C1690 C 0.64290 0.38113 0.74045
 C1691 C 0.65872 0.36527 0.74015
 C1692 C 0.65494 0.34541 0.74983
 C1693 C 0.63526 0.34145 0.75979
 C1694 C 0.61941 0.35728 0.76009
 C1695 C 0.67126 0.32912 0.74962
 C1696 C 0.68492 0.31546 0.74952
 H1697 H 0.55217 0.40022 0.74543
 H1698 H 0.57987 0.37238 0.74461
 H1699 H 0.62819 0.42037 0.75706
 H1700 H 0.60037 0.44812 0.75743
 H1701 H 0.64609 0.39628 0.73263
 H1702 H 0.67388 0.36849 0.73235
 H1703 H 0.63218 0.32616 0.76739
 H1704 H 0.60442 0.35395 0.76815
 C1705 C 0.95550 0.04376 0.25167
 C1706 C 0.94187 0.05743 0.25153
 C1707 C 0.92562 0.07377 0.25124
 C1708 C 0.93107 0.09493 0.24628
 C1709 C 0.91529 0.11081 0.24589
 C1710 C 0.89382 0.10570 0.25045
 C1711 C 0.88851 0.08437 0.25543
 C1712 C 0.90432 0.06852 0.25582
 C1713 C 0.87704 0.12256 0.25003
 C1714 C 0.85674 0.11830 0.24120
 C1715 C 0.84095 0.13417 0.24085
 C1716 C 0.84523 0.15448 0.24932
 C1717 C 0.86537 0.15889 0.25812
 C1718 C 0.88119 0.14305 0.25847
 C1719 C 0.82894 0.17077 0.24909
 C1720 C 0.81529 0.18442 0.24897
 H1721 H 0.94750 0.09914 0.24264
 H1722 H 0.91983 0.12702 0.24173
 H1723 H 0.87217 0.08000 0.25928
 H1724 H 0.89994 0.05219 0.25973
 H1725 H 0.85316 0.10278 0.23433
 H1726 H 0.82543 0.13062 0.23395
 H1727 H 0.86882 0.17454 0.26478
 H1728 H 0.89656 0.14673 0.26562
 C1729 C 0.45587 0.54422 0.75191
 C1730 C 0.44218 0.55785 0.75177
 C1731 C 0.42585 0.57414 0.75152
 C1732 C 0.43100 0.59515 0.74564
 C1733 C 0.41514 0.61096 0.74530
 C1734 C 0.39387 0.60596 0.75086
 C1735 C 0.38886 0.58478 0.75676
 C1736 C 0.40475 0.56899 0.75707
 C1737 C 0.37700 0.62275 0.75052
 C1738 C 0.36134 0.62360 0.76671
 C1739 C 0.34550 0.63943 0.76641
 C1740 C 0.34506 0.65462 0.74993
 C1741 C 0.36054 0.65391 0.73373
 C1742 C 0.37641 0.63810 0.73401
 C1743 C 0.32877 0.67094 0.74969
 C1744 C 0.31513 0.68462 0.74957
 H1745 H 0.44729 0.59932 0.74136
 H1746 H 0.41957 0.62716 0.74097
 H1747 H 0.37260 0.58035 0.76085
 H1748 H 0.40056 0.55276 0.76158
 H1749 H 0.36152 0.61221 0.77979
 H1750 H 0.33364 0.63987 0.77906
 H1751 H 0.36032 0.66555 0.72087
 H1752 H 0.38805 0.63771 0.72117
 C1753 C 0.95555 0.95651 0.74847
 C1754 C 0.94193 0.94284 0.74864
 C1755 C 0.92568 0.92650 0.74895
 C1756 C 0.93131 0.90516 0.75286
 C1757 C 0.91553 0.88927 0.75325
 C1758 C 0.89390 0.89454 0.74974
 C1759 C 0.88842 0.91605 0.74583
 C1760 C 0.90422 0.93191 0.74543
 C1761 C 0.87714 0.87768 0.75015
 C1762 C 0.85721 0.88157 0.75992
 C1763 C 0.84142 0.86569 0.76025
 C1764 C 0.84534 0.84574 0.75080
 C1765 C 0.86510 0.84170 0.74106
 C1766 C 0.88092 0.85754 0.74073
 C1767 C 0.82905 0.82945 0.75101
 C1768 C 0.81541 0.81579 0.75110
 H1769 H 0.94787 0.90081 0.75568
 H1770 H 0.92022 0.87291 0.75658
 H1771 H 0.87195 0.92057 0.74280
 H1772 H 0.89971 0.94839 0.74235
 H1773 H 0.85392 0.89680 0.76755
 H1774 H 0.82619 0.86896 0.76788
 H1775 H 0.86826 0.82632 0.73364
 H1776 H 0.89598 0.85416 0.73284
 C1777 C 0.45591 0.45593 0.24825
 C1778 C 0.44226 0.44226 0.24842
 C1779 C 0.42597 0.42594 0.24870
 C1780 C 0.43154 0.40457 0.25257
 C1781 C 0.41573 0.38870 0.25293
 C1782 C 0.39410 0.39402 0.24944
 C1783 C 0.38867 0.41555 0.24557
 C1784 C 0.40451 0.43139 0.24520
 C1785 C 0.37728 0.37717 0.24981
 C1786 C 0.35731 0.38111 0.25951
 C1787 C 0.34149 0.36525 0.25980
 C1788 C 0.34539 0.34527 0.25042
 C1789 C 0.36519 0.34118 0.24076
 C1790 C 0.38104 0.35700 0.24046
 C1791 C 0.32905 0.32899 0.25062
 C1792 C 0.31538 0.31534 0.25070
 H1793 H 0.44809 0.40018 0.25537
 H1794 H 0.42039 0.37233 0.25623
 H1795 H 0.37221 0.42012 0.24255
 H1796 H 0.40003 0.44787 0.24215
 H1797 H 0.35402 0.39636 0.26709
 H1798 H 0.32623 0.36857 0.26738
 H1799 H 0.36836 0.32578 0.23339
 H1800 H 0.39613 0.35356 0.23263
   
