data_POSCAR
  _audit_creation_date              2014-09-24
  _audit_creation_method            'ToBaCCo'
  _symmetry_space_group_name_H-M    'P1'
  _symmetry_Int_Tables_number       1
  _symmetry_cell_setting            triclinic
  loop_
  _symmetry_equiv_pos_as_xyz
 x,y,z
_cell_length_a 66.0397
_cell_length_b 67.3653
_cell_length_c 65.6168
_cell_angle_alpha 89.923900
_cell_angle_beta 89.983600
_cell_angle_gamma 90.082500
loop_
  _atom_site_label
  _atom_site_type_symbol
  _atom_site_fract_x
  _atom_site_fract_y
  _atom_site_fract_z
C1 C 0.31298 0.37186 0.01789
 C2 C 0.30914 0.38039 -0.00112
 C3 C 0.31400 0.37069 -0.01938
 C4 C 0.32492 0.35248 -0.01841
 C5 C 0.33012 0.34423 0.00087
 C6 C 0.32379 0.35381 0.01907
 C7 C 0.32783 0.34476 0.03792
 C8 C 0.33841 0.32700 0.03902
 C9 C 0.34548 0.31755 0.02132
 C10 C 0.34122 0.32609 0.00198
 C11 C 0.33150 0.34264 -0.03607
 C12 C 0.34192 0.32479 -0.03501
 C13 C 0.34767 0.31639 -0.01622
 C14 C 0.35860 0.29810 -0.01490
 C15 C 0.36167 0.28975 0.00451
 C16 C 0.35596 0.29934 0.02245
 H17 H 0.32273 0.35123 0.05208
 H18 H 0.34064 0.32057 0.05395
 H19 H 0.32892 0.34860 -0.05111
 H20 H 0.34473 0.31761 -0.04938
 H21 H 0.30045 0.39405 -0.00156
 H22 H 0.37014 0.27604 0.00599
 C23 C 0.69708 0.63720 0.02351
 C24 C 0.70463 0.63080 0.00477
 C25 C 0.69809 0.63903 -0.01362
 C26 C 0.68355 0.65444 -0.01339
 C27 C 0.67554 0.66110 0.00550
 C28 C 0.68233 0.65239 0.02405
 C29 C 0.67506 0.65986 0.04261
 C30 C 0.66151 0.67560 0.04308
 C31 C 0.65464 0.68453 0.02500
 C32 C 0.66159 0.67722 0.00593
 C33 C 0.67786 0.66425 -0.03134
 C34 C 0.66438 0.68007 -0.03094
 C35 C 0.65547 0.68660 -0.01260
 C36 C 0.64209 0.70325 -0.01186
 C37 C 0.63623 0.71046 0.00736
 C38 C 0.64190 0.70130 0.02554
 H39 H 0.68017 0.65400 0.05706
 H40 H 0.65699 0.68106 0.05788
 H41 H 0.68438 0.66033 -0.04590
 H42 H 0.66209 0.68761 -0.04522
 H43 H 0.71599 0.61917 0.00452
 H44 H 0.62605 0.72304 0.00840
 C45 C 0.70009 0.35746 0.98107
 C46 C 0.70754 0.36378 0.99989
 C47 C 0.70084 0.35548 1.01821
 C48 C 0.68616 0.34016 1.01784
 C49 C 0.67837 0.33348 0.99887
 C50 C 0.68541 0.34216 0.98039
 C51 C 0.67847 0.33455 0.96176
 C52 C 0.66495 0.31877 0.96116
 C53 C 0.65771 0.30997 0.97917
 C54 C 0.66435 0.31739 0.99831
 C55 C 0.68007 0.33048 1.03576
 C56 C 0.66641 0.31478 1.03524
 C57 C 0.65779 0.30819 1.01679
 C58 C 0.64426 0.29163 1.01593
 C59 C 0.63880 0.28423 0.99666
 C60 C 0.64490 0.29322 0.97853
 H61 H 0.68387 0.34028 0.94735
 H62 H 0.66074 0.31318 0.94632
 H63 H 0.68638 0.33446 1.05041
 H64 H 0.66371 0.30736 1.04953
 H65 H 0.71890 0.37543 1.00028
 H66 H 0.62853 0.27169 0.99552
 C67 C 0.29491 0.64593 1.01164
 C68 C 0.28789 0.63904 0.99270
 C69 C 0.29646 0.64498 0.97426
 C70 C 0.31250 0.65883 0.97427
 C71 C 0.31956 0.66677 0.99306
 C72 C 0.31065 0.66050 1.01180
 C73 C 0.31631 0.67053 1.02971
 C74 C 0.33108 0.68523 1.02961
 C75 C 0.34114 0.69082 1.01159
 C76 C 0.33476 0.68188 0.99296
 C77 C 0.32078 0.66584 0.95591
 C78 C 0.33555 0.68049 0.95581
 C79 C 0.34266 0.68880 0.97406
 C80 C 0.35656 0.70470 0.97384
 C81 C 0.36262 0.71329 0.99215
 C82 C 0.35580 0.70645 1.01121
 H83 H 0.30858 0.66820 1.04399
 H84 H 0.33340 0.69291 1.04381
 H85 H 0.31547 0.66058 0.94130
 H86 H 0.34084 0.68567 0.94114
 H87 H 0.27593 0.62800 0.99211
 H88 H 0.37369 0.72518 0.99134
 C89 C 0.02588 0.29730 0.35475
 C90 C 0.00754 0.28864 0.36039
 C91 C -0.01125 0.29581 0.35354
 C92 C -0.01132 0.31187 0.33928
 C93 C 0.00735 0.32085 0.33331
 C94 C 0.02597 0.31358 0.34124
 C95 C 0.04426 0.32195 0.33449
 C96 C 0.04446 0.33701 0.32007
 C97 C 0.02638 0.34436 0.31177
 C98 C 0.00756 0.33638 0.31848
 C99 C -0.02906 0.31786 0.32916
 C100 C -0.02885 0.33297 0.31472
 C101 C -0.01090 0.34305 0.30953
 C102 C -0.01042 0.35809 0.29415
 C103 C 0.00855 0.36498 0.28743
 C104 C 0.02671 0.35861 0.29601
 H105 H 0.05874 0.31651 0.33976
 H106 H 0.05908 0.34236 0.31505
 H107 H -0.04326 0.31021 0.33114
 H108 H -0.04292 0.33555 0.30686
 H109 H 0.00810 0.27645 0.37119
 H110 H 0.00941 0.37630 0.27567
 C111 C 0.01837 0.64283 0.70685
 C112 C -0.00021 0.63730 0.71518
 C113 C -0.01877 0.64446 0.70773
 C114 C -0.01842 0.65880 0.69168
 C115 C 0.00048 0.66484 0.68315
 C116 C 0.01889 0.65671 0.69073
 C117 C 0.03740 0.66354 0.68287
 C118 C 0.03802 0.67814 0.66798
 C119 C 0.02016 0.68659 0.66033
 C120 C 0.00112 0.67989 0.66780
 C121 C -0.03600 0.66882 0.68535
 C122 C -0.03538 0.68346 0.67040
 C123 C -0.01714 0.68897 0.66085
 C124 C -0.01619 0.70462 0.64612
 C125 C 0.00301 0.71123 0.63975
 C126 C 0.02093 0.70244 0.64631
 H127 H 0.05173 0.65823 0.68864
 H128 H 0.05279 0.68318 0.66305
 H129 H -0.05044 0.66649 0.69264
 H130 H -0.04939 0.69114 0.66755
 H131 H -0.00006 0.62628 0.72725
 H132 H 0.00426 0.72310 0.62862
 C133 C 1.01649 0.64092 0.29845
 C134 C 0.99829 0.63270 0.29164
 C135 C 0.97957 0.63904 0.29906
 C136 C 0.97887 0.65427 0.31387
 C137 C 0.99722 0.66290 0.32101
 C138 C 1.01609 0.65622 0.31321
 C139 C 1.03387 0.66590 0.31934
 C140 C 1.03333 0.68157 0.33311
 C141 C 1.01499 0.68810 0.34180
 C142 C 0.99663 0.67892 0.33516
 C143 C 0.96034 0.66185 0.32085
 C144 C 0.95972 0.67756 0.33451
 C145 C 0.97761 0.68632 0.34184
 C146 C 0.97695 0.70302 0.35476
 C147 C 0.99496 0.71195 0.36097
 C148 C 1.01412 0.70458 0.35548
 H149 H 1.04843 0.66198 0.31299
 H150 H 1.04752 0.68900 0.33580
 H151 H 0.94604 0.65615 0.31538
 H152 H 0.94497 0.68312 0.33877
 H153 H 0.99869 0.62106 0.28022
 H154 H 0.99381 0.72444 0.37133
 C155 C 1.01405 0.30021 0.64037
 C156 C 0.99568 0.29348 0.63241
 C157 C 0.97714 0.30135 0.63863
 C158 C 0.97681 0.31661 0.65344
 C159 C 0.99535 0.32368 0.66181
 C160 C 1.01402 0.31537 0.65529
 C161 C 1.03196 0.32146 0.66483
 C162 C 1.03179 0.33567 0.68016
 C163 C 1.01368 0.34485 0.68648
 C164 C 0.99514 0.33830 0.67750
 C165 C 0.95847 0.32418 0.66092
 C166 C 0.95822 0.33829 0.67634
 C167 C 0.97629 0.34552 0.68487
 C168 C 0.97600 0.35892 0.70138
 C169 C 0.99422 0.36508 0.71011
 C170 C 1.01320 0.35897 0.70271
 H171 H 1.04637 0.31477 0.66112
 H172 H 1.04606 0.33836 0.68758
 H173 H 0.94404 0.31885 0.65538
 H174 H 0.94358 0.34301 0.68189
 H175 H 0.99582 0.28175 0.62109
 H176 H 0.99340 0.37575 0.72245
 C177 C 0.29070 -0.01700 0.35579
 C178 C 0.28369 0.00143 0.36291
 C179 C 0.29235 0.01939 0.35697
 C180 C 0.30840 0.01944 0.34280
 C181 C 0.31549 0.00117 0.33462
 C182 C 0.30655 -0.01711 0.34095
 C183 C 0.31232 -0.03453 0.33069
 C184 C 0.32720 -0.03436 0.31569
 C185 C 0.33723 -0.01676 0.31003
 C186 C 0.33077 0.00135 0.31921
 C187 C 0.31665 0.03735 0.33567
 C188 C 0.33147 0.03753 0.32072
 C189 C 0.33869 0.01979 0.31223
 C190 C 0.35271 0.02011 0.29603
 C191 C 0.35881 0.00233 0.28715
 C192 C 0.35197 -0.01628 0.29406
 H193 H 0.30464 -0.04847 0.33303
 H194 H 0.32962 -0.04818 0.30781
 H195 H 0.31128 0.05156 0.34104
 H196 H 0.33668 0.05186 0.31545
 H197 H 0.27168 0.00199 0.37418
 H198 H 0.36995 0.00320 0.27503
 C199 C 0.64707 -0.01254 0.70456
 C200 C 0.64094 0.00611 0.71190
 C201 C 0.64676 0.02390 0.70270
 C202 C 0.65992 0.02353 0.68578
 C203 C 0.66718 0.00503 0.67839
 C204 C 0.66094 -0.01309 0.68784
 C205 C 0.67020 -0.03084 0.68138
 C206 C 0.68408 -0.03109 0.66547
 C207 C 0.68979 -0.01356 0.65544
 C208 C 0.68149 0.00476 0.66212
 C209 C 0.66691 0.04121 0.67681
 C210 C 0.68076 0.04089 0.66088
 C211 C 0.68828 0.02289 0.65328
 C212 C 0.70325 0.02252 0.63784
 C213 C 0.71111 0.00433 0.63145
 C214 C 0.70460 -0.01366 0.63983
 H215 H 0.66784 -0.04477 0.68910
 H216 H 0.69088 -0.04520 0.66168
 H217 H 0.66222 0.05558 0.68238
 H218 H 0.68593 0.05503 0.65504
 H219 H 0.63040 0.00700 0.72456
 H220 H 0.72260 0.00417 0.61962
 C221 C 0.29639 0.97622 0.64427
 C222 C 0.28707 0.99384 0.63828
 C223 C 0.29423 1.01263 0.64427
 C224 C 0.31082 1.01348 0.65823
 C225 C 0.32040 0.99553 0.66461
 C226 C 0.31324 0.97690 0.65745
 C227 C 0.32235 0.95938 0.66458
 C228 C 0.33820 0.95999 0.67846
 C229 C 0.34556 0.97814 0.68589
 C230 C 0.33656 0.99611 0.67899
 C231 C 0.31704 1.03138 0.66745
 C232 C 0.33286 1.03192 0.68140
 C233 C 0.34299 1.01455 0.68724
 C234 C 0.35845 1.01493 0.70217
 C235 C 0.36702 0.99711 0.70877
 C236 C 0.36090 0.97880 0.70093
 H237 H 0.31696 0.94490 0.65998
 H238 H 0.34417 0.94596 0.68373
 H239 H 0.30921 1.04519 0.66503
 H240 H 0.33652 1.04612 0.68813
 H241 H 0.27447 0.99272 0.62774
 H242 H 0.37876 0.99747 0.72034
 C243 C 0.63970 0.97762 0.29781
 C244 C 0.63334 0.99532 0.28891
 C245 C 0.64035 1.01400 0.29538
 C246 C 0.65550 1.01462 0.31096
 C247 C 0.66221 0.99659 0.32019
 C248 C 0.65410 0.97809 0.31365
 C249 C 0.66151 0.96043 0.32219
 C250 C 0.67675 0.96072 0.33669
 C251 C 0.68525 0.97869 0.34333
 C252 C 0.67793 0.99690 0.33514
 C253 C 0.66567 1.03227 0.31614
 C254 C 0.68099 1.03256 0.33067
 C255 C 0.68708 1.01523 0.34096
 C256 C 0.70342 1.01523 0.35527
 C257 C 0.71058 0.99685 0.36242
 C258 C 0.70173 0.97884 0.35699
 H259 H 0.65609 0.94606 0.31728
 H260 H 0.68224 0.94656 0.34209
 H261 H 0.66300 1.04603 0.30820
 H262 H 0.68872 1.04652 0.33261
 H263 H 0.62192 0.99431 0.27707
 H264 H 0.72294 0.99637 0.37330
 O265 O 0.84538 0.81794 0.48128
 O266 O 0.81998 0.84624 0.52142
 O267 O 0.84717 0.81857 0.52077
 O268 O 0.81836 0.84545 0.48197
 O269 O 0.79407 0.82290 0.48334
 O270 O 0.82331 0.79563 0.52268
 O271 O 0.79562 0.82378 0.52298
 O272 O 0.82170 0.79478 0.48289
 Cu273 Cu 0.83512 0.83429 0.50125
 Cu274 Cu 0.80624 0.80693 0.50315
 C275 C 0.83799 0.80159 0.47523
 C276 C 0.80341 0.84005 0.52887
 C277 C 0.84034 0.80255 0.52829
 C278 C 0.80134 0.83888 0.47604
 O279 O 0.17920 0.15246 0.52433
 O280 O 0.15388 0.18156 0.48477
 O281 O 0.18017 0.15345 0.48493
 O282 O 0.15258 0.18069 0.52433
 O283 O 0.17684 0.20327 0.52556
 O284 O 0.20510 0.17533 0.48616
 O285 O 0.17825 0.20404 0.48586
 O286 O 0.20393 0.17451 0.52587
 Cu287 Cu 0.16399 0.16485 0.50454
 Cu288 Cu 0.19353 0.19156 0.50604
 C289 C 0.19593 0.15830 0.53169
 C290 C 0.16168 0.19766 0.47849
 C291 C 0.19728 0.15962 0.47884
 C292 C 0.15980 0.19667 0.53153
 O293 O 0.18002 0.84414 0.48015
 O294 O 0.15457 0.81544 0.51996
 O295 O 0.18172 0.84278 0.51957
 O296 O 0.15256 0.81671 0.48054
 O297 O 0.17615 0.79360 0.47831
 O298 O 0.20591 0.82023 0.51769
 O299 O 0.17808 0.79221 0.51804
 O300 O 0.20412 0.82153 0.47793
 Cu301 Cu 0.16486 0.83203 0.50019
 Cu302 Cu 0.19350 0.80456 0.49777
 C303 C 0.19640 0.83794 0.47233
 C304 C 0.16187 0.79900 0.52582
 C305 C 0.19871 0.83606 0.52533
 C306 C 0.15918 0.80073 0.47285
 O307 O 0.84529 0.18436 0.51219
 O308 O 0.81916 0.15551 0.47293
 O309 O 0.84668 0.18293 0.47275
 O310 O 0.81816 0.15687 0.51233
 O311 O 0.79387 0.17934 0.51074
 O312 O 0.82312 0.20610 0.47089
 O313 O 0.79507 0.17815 0.47101
 O314 O 0.82166 0.20750 0.51063
 Cu315 Cu 0.83469 0.16767 0.49267
 Cu316 Cu 0.80600 0.19511 0.49063
 C317 C 0.83806 0.20081 0.51810
 C318 C 0.80263 0.16169 0.46541
 C319 C 0.84001 0.19897 0.46519
 C320 C 0.80119 0.16348 0.51826
 O321 O 0.48714 0.84658 0.81707
 O322 O 0.52558 0.82006 0.84640
 O323 O 0.52625 0.84783 0.81901
 O324 O 0.48641 0.81899 0.84411
 O325 O 0.48833 0.79600 0.82020
 O326 O 0.52843 0.82542 0.79456
 O327 O 0.52778 0.79715 0.82245
 O328 O 0.48899 0.82424 0.79251
 Cu329 Cu 0.50622 0.83560 0.83406
 Cu330 Cu 0.50864 0.80838 0.80496
 C331 C 0.48147 0.84005 0.79987
 C332 C 0.53310 0.80405 0.83966
 C333 C 0.53396 0.84178 0.80244
 C334 C 0.48052 0.80266 0.83652
 O335 O 0.51795 0.17971 0.15354
 O336 O 0.47834 0.15387 0.18210
 O337 O 0.47871 0.18140 0.15493
 O338 O 0.51749 0.15206 0.18103
 O339 O 0.51970 0.17458 0.20537
 O340 O 0.48050 0.20437 0.17887
 O341 O 0.48023 0.17618 0.20669
 O342 O 0.52002 0.20270 0.17742
 Cu343 Cu 0.49800 0.16452 0.16549
 Cu344 Cu 0.50033 0.19178 0.19454
 C345 C 0.52565 0.19561 0.16040
 C346 C 0.47253 0.16048 0.19921
 C347 C 0.47292 0.19780 0.16238
 C348 C 0.52510 0.15811 0.19766
 O349 O 0.51730 0.15286 0.81777
 O350 O 0.47887 0.17947 0.84715
 O351 O 0.47798 0.15231 0.81919
 O352 O 0.51807 0.17993 0.84533
 O353 O 0.51682 0.20342 0.82182
 O354 O 0.47675 0.17517 0.79506
 O355 O 0.47741 0.20281 0.82351
 O356 O 0.51624 0.17580 0.79370
 Cu357 Cu 0.49810 0.16383 0.83471
 Cu358 Cu 0.49661 0.19165 0.80608
 C359 C 0.52343 0.15975 0.80086
 C360 C 0.47174 0.19573 0.84055
 C361 C 0.47066 0.15885 0.80262
 C362 C 0.52428 0.19633 0.83813
 O363 O 0.47593 0.81807 0.15415
 O364 O 0.51466 0.84399 0.18367
 O365 O 0.51507 0.81657 0.15652
 O366 O 0.47552 0.84552 0.18176
 O367 O 0.47295 0.82288 0.20602
 O368 O 0.51284 0.79342 0.18030
 O369 O 0.51243 0.82153 0.20814
 O370 O 0.47339 0.79494 0.17791
 Cu371 Cu 0.49545 0.83329 0.16663
 Cu372 Cu 0.49264 0.80586 0.19555
 C373 C 0.46817 0.80208 0.16075
 C374 C 0.52020 0.83730 0.20085
 C375 C 0.52075 0.80013 0.16401
 C376 C 0.46761 0.83934 0.19821
 O377 O 0.81419 0.48259 0.84509
 O378 O 0.84217 0.52146 0.81827
 O379 O 0.81453 0.52104 0.84608
 O380 O 0.84178 0.48296 0.81734
 O381 O 0.81849 0.48374 0.79320
 O382 O 0.79062 0.52194 0.82255
 O383 O 0.81882 0.52257 0.79420
 O384 O 0.79025 0.48324 0.82158
 Cu385 Cu 0.83052 0.50195 0.83404
 Cu386 Cu 0.80215 0.50295 0.80543
 C387 C 0.79748 0.47630 0.83808
 C388 C 0.83543 0.52865 0.80174
 C389 C 0.79794 0.52791 0.83939
 C390 C 0.83490 0.47685 0.80043
 O391 O 0.15750 0.52337 0.18230
 O392 O 0.18755 0.48666 0.15454
 O393 O 0.16002 0.48489 0.18241
 O394 O 0.18486 0.52491 0.15423
 O395 O 0.20892 0.52678 0.17755
 O396 O 0.18335 0.48651 0.20647
 O397 O 0.21151 0.48818 0.17798
 O398 O 0.18100 0.52523 0.20618
 Cu399 Cu 0.17010 0.50479 0.16606
 Cu400 Cu 0.19859 0.50683 0.19448
 C401 C 0.16401 0.53056 0.19892
 C402 C 0.20467 0.48127 0.16132
 C403 C 0.16727 0.47888 0.19920
 C404 C 0.20115 0.53255 0.16083
 O405 O 0.84546 0.47654 0.18271
 O406 O 0.81548 0.51433 0.15666
 O407 O 0.84388 0.51486 0.18352
 O408 O 0.81686 0.47583 0.15588
 O409 O 0.79369 0.47439 0.18013
 O410 O 0.82139 0.51347 0.20842
 O411 O 0.79232 0.51311 0.18093
 O412 O 0.82286 0.47478 0.20749
 Cu413 Cu 0.83266 0.49550 0.16724
 Cu414 Cu 0.80522 0.49379 0.19674
 C415 C 0.83949 0.46930 0.19953
 C416 C 0.79887 0.52021 0.16421
 C417 C 0.83742 0.52075 0.20068
 C418 C 0.80068 0.46851 0.16313
 O419 O 0.18473 0.51428 0.84334
 O420 O 0.15691 0.47498 0.81705
 O421 O 0.18671 0.47566 0.84280
 O422 O 0.15548 0.51341 0.81733
 O423 O 0.17714 0.51452 0.79169
 O424 O 0.20910 0.47751 0.81784
 O425 O 0.17870 0.47585 0.79152
 O426 O 0.20683 0.51594 0.81810
 Cu427 Cu 0.16880 0.49438 0.83267
 Cu428 Cu 0.19516 0.49597 0.80219
 C429 C 0.20039 0.52189 0.83530
 C430 C 0.16278 0.46886 0.79978
 C431 C 0.20341 0.47046 0.83486
 C432 C 0.16092 0.52035 0.80019
 C433 C 0.28274 0.39910 0.06650
 N434 N 0.30322 0.39707 0.06708
 N435 N 0.31302 0.38812 0.05184
 C436 C 0.30265 0.38090 0.03556
 N437 N 0.28224 0.38302 0.03503
 N438 N 0.27249 0.39189 0.05021
 C439 C 0.27157 0.40962 0.08255
 N440 N 0.25121 0.41164 0.08087
 N441 N 0.24080 0.42191 0.09461
 C442 C 0.25030 0.43057 0.11062
 N443 N 0.27069 0.42843 0.11248
 N444 N 0.28115 0.41812 0.09867
 C445 C 0.23854 0.44287 0.12480
 N446 N 0.24721 0.45158 0.14132
 N447 N 0.23638 0.46350 0.15336
 C448 C 0.21656 0.46715 0.14922
 N449 N 0.20796 0.45833 0.13281
 N450 N 0.21871 0.44639 0.12088
 C451 C 0.72484 0.60985 0.07356
 N452 N 0.70432 0.60991 0.07196
 N453 N 0.69529 0.61909 0.05638
 C454 C 0.70648 0.62856 0.04194
 N455 N 0.72694 0.62850 0.04362
 N456 N 0.73593 0.61938 0.05915
 C457 C 0.73527 0.59857 0.08958
 N458 N 0.75577 0.59760 0.08943
 N459 N 0.76557 0.58630 0.10279
 C460 C 0.75528 0.57557 0.11690
 N461 N 0.73473 0.57671 0.11731
 N462 N 0.72489 0.58801 0.10384
 C463 C 0.76644 0.56196 0.13030
 N464 N 0.75719 0.55197 0.14573
 N465 N 0.76752 0.53892 0.15698
 C466 C 0.78739 0.53534 0.15304
 N467 N 0.79657 0.54542 0.13770
 N468 N 0.78632 0.55851 0.12661
 C469 C 0.72707 0.38576 0.93104
 N470 N 0.73846 0.37685 0.94560
 N471 N 0.72976 0.36746 0.96115
 C472 C 0.70930 0.36650 0.96271
 N473 N 0.69783 0.37540 0.94814
 N474 N 0.70657 0.38483 0.93254
 C475 C 0.73708 0.39723 0.91486
 N476 N 0.72630 0.40706 0.90038
 N477 N 0.73570 0.41846 0.88666
 C478 C 0.75619 0.42043 0.88699
 N479 N 0.76689 0.41043 0.90134
 N480 N 0.75754 0.39904 0.91497
 C481 C 0.76680 0.43411 0.87318
 N482 N 0.78663 0.43819 0.87648
 N483 N 0.79634 0.45140 0.86499
 C484 C 0.78665 0.46096 0.84965
 N485 N 0.76683 0.45674 0.84611
 N486 N 0.75704 0.44358 0.85774
 C487 C 0.26985 0.61687 0.92403
 N488 N 0.29032 0.61696 0.92617
 N489 N 0.29899 0.62652 0.94170
 C490 C 0.28749 0.63644 0.95553
 N491 N 0.26707 0.63640 0.95325
 N492 N 0.25844 0.62686 0.93779
 C493 C 0.25985 0.60483 0.90831
 N494 N 0.23942 0.60278 0.90865
 N495 N 0.23012 0.59070 0.89565
 C496 C 0.24086 0.58024 0.88171
 N497 N 0.26131 0.58247 0.88110
 N498 N 0.27066 0.59452 0.89423
 C499 C 0.23039 0.56578 0.86868
 N500 N 0.23992 0.55669 0.85288
 N501 N 0.23032 0.54295 0.84185
 C502 C 0.21095 0.53771 0.84641
 N503 N 0.20150 0.54685 0.86215
 N504 N 0.21100 0.56066 0.87301
 C505 C 0.07568 0.27010 0.38261
 N506 N 0.07338 0.29012 0.38366
 N507 N 0.05799 0.29900 0.37417
 C508 C 0.04445 0.28818 0.36320
 N509 N 0.04688 0.26822 0.36209
 N510 N 0.06221 0.25937 0.37156
 C511 C 0.09118 0.25978 0.39463
 N512 N 0.09112 0.23967 0.39540
 N513 N 0.10383 0.23000 0.40758
 C514 C 0.11718 0.24006 0.41941
 N515 N 0.11752 0.26021 0.41844
 N516 N 0.10470 0.26992 0.40629
 C517 C 0.12976 0.22913 0.43404
 N518 N 0.14483 0.23818 0.44465
 N519 N 0.15539 0.22813 0.45860
 C520 C 0.15107 0.20877 0.46252
 N521 N 0.13607 0.19978 0.45185
 N522 N 0.12568 0.20974 0.43783
 C523 C 0.07233 0.72821 0.61984
 N524 N 0.05888 0.73933 0.63047
 N525 N 0.04300 0.73092 0.63950
 C526 C 0.03999 0.71103 0.63837
 N527 N 0.05352 0.69982 0.62784
 N528 N 0.06944 0.70826 0.61877
 C529 C 0.08850 0.73810 0.60826
 N530 N 0.10171 0.72764 0.59657
 N531 N 0.11513 0.73704 0.58477
 C532 C 0.11571 0.75720 0.58420
 N533 N 0.10268 0.76757 0.59609
 N534 N 0.08938 0.75821 0.60791
 C535 C 0.12889 0.76791 0.56988
 N536 N 0.12579 0.78756 0.56665
 N537 N 0.13659 0.79738 0.55281
 C538 C 0.15103 0.78799 0.54176
 N539 N 0.15439 0.76836 0.54513
 N540 N 0.14342 0.75845 0.55890
 C541 C 0.92600 0.72988 0.38077
 N542 N 0.93966 0.74068 0.36999
 N543 N 0.95534 0.73193 0.36102
 C544 C 0.95794 0.71199 0.36236
 N545 N 0.94419 0.70111 0.37302
 N546 N 0.92846 0.70989 0.38202
 C547 C 0.91013 0.74010 0.39240
 N548 N 0.89659 0.72987 0.40396
 N549 N 0.88346 0.73948 0.41585
 C550 C 0.88352 0.75964 0.41665
 N551 N 0.89690 0.76980 0.40490
 N552 N 0.90991 0.76022 0.39298
 C553 C 0.87059 0.77048 0.43104
 N554 N 0.87422 0.78999 0.43460
 N555 N 0.86358 0.79984 0.44849
 C556 C 0.84878 0.79062 0.45928
 N557 N 0.84491 0.77113 0.45559
 N558 N 0.85571 0.76120 0.44176
 C559 C 0.92751 0.27375 0.61072
 N560 N 0.92910 0.29388 0.61058
 N561 N 0.94449 0.30286 0.62004
 C562 C 0.95873 0.29203 0.63003
 N563 N 0.95702 0.27196 0.63020
 N564 N 0.94169 0.26302 0.62079
 C565 C 0.91178 0.26339 0.59897
 N566 N 0.91208 0.24329 0.59790
 N567 N 0.89899 0.23359 0.58617
 C568 C 0.88499 0.24358 0.57506
 N569 N 0.88444 0.26372 0.57630
 N570 N 0.89765 0.27346 0.58802
 C571 C 0.87177 0.23258 0.56102
 N572 N 0.85646 0.24163 0.55076
 N573 N 0.84531 0.23149 0.53735
 C574 C 0.84922 0.21202 0.53365
 N575 N 0.86445 0.20304 0.54399
 N576 N 0.87545 0.21310 0.55745
 C577 C 0.38003 0.07018 0.26988
 N578 N 0.36971 0.05695 0.25828
 N579 N 0.36052 0.04142 0.26677
 C580 C 0.36119 0.03857 0.28723
 N581 N 0.37147 0.05183 0.29891
 N582 N 0.38070 0.06741 0.29039
 C583 C 0.39152 0.08619 0.25998
 N584 N 0.40271 0.09931 0.27098
 N585 N 0.41431 0.11276 0.26160
 C586 C 0.41515 0.11347 0.24092
 N587 N 0.40378 0.10050 0.23001
 N588 N 0.39217 0.08716 0.23935
 C589 C 0.42918 0.12683 0.23024
 N590 N 0.43249 0.12425 0.21003
 N591 N 0.44608 0.13527 0.20022
 C592 C 0.45680 0.14942 0.21020
 N593 N 0.45335 0.15226 0.23040
 N594 N 0.43981 0.14108 0.24029
 C595 C 0.61898 0.07326 0.72941
 N596 N 0.62970 0.06017 0.74082
 N597 N 0.63921 0.04500 0.73213
 C598 C 0.63849 0.04235 0.71165
 N599 N 0.62789 0.05553 0.70015
 N600 N 0.61835 0.07076 0.70887
 C601 C 0.60685 0.08861 0.73954
 N602 N 0.59554 0.10175 0.72871
 N603 N 0.58331 0.11449 0.73824
 C604 C 0.58189 0.11441 0.75890
 N605 N 0.59336 0.10141 0.76966
 N606 N 0.60562 0.08879 0.76017
 C607 C 0.56729 0.12705 0.76964
 N608 N 0.56326 0.12351 0.78958
 N609 N 0.54938 0.13409 0.79943
 C610 C 0.53908 0.14873 0.78976
 N611 N 0.54321 0.15248 0.76983
 N612 N 0.55703 0.14174 0.75990
 C613 C 0.38974 0.93011 0.72795
 N614 N 0.38934 0.93192 0.70733
 N615 N 0.37972 0.94710 0.69855
 C616 C 0.37012 0.96093 0.71010
 N617 N 0.37056 0.95906 0.73068
 N618 N 0.38013 0.94393 0.73942
 C619 C 0.40144 0.91441 0.73806
 N620 N 0.40270 0.91420 0.75868
 N621 N 0.41431 0.90100 0.76818
 C622 C 0.42508 0.88745 0.75745
 N623 N 0.42365 0.88743 0.73678
 N624 N 0.41204 0.90072 0.72724
 C625 C 0.43897 0.87411 0.76827
 N626 N 0.44916 0.85941 0.75849
 N627 N 0.46246 0.84815 0.76854
 C628 C 0.46611 0.85134 0.78866
 N629 N 0.45584 0.86595 0.79837
 N630 N 0.44250 0.87707 0.78839
 C631 C 0.61237 0.92742 0.27209
 N632 N 0.61165 0.93032 0.29257
 N633 N 0.62090 0.94591 0.30098
 C634 C 0.63127 0.95908 0.28921
 N635 N 0.63201 0.95608 0.26878
 N636 N 0.62280 0.94054 0.26041
 C637 C 0.60083 0.91142 0.26225
 N638 N 0.60041 0.91031 0.24163
 N639 N 0.58879 0.89701 0.23228
 C640 C 0.57717 0.88422 0.24318
 N641 N 0.57777 0.88507 0.26386
 N642 N 0.58938 0.89847 0.27325
 C643 C 0.56316 0.87091 0.23242
 N644 N 0.55232 0.85673 0.24239
 N645 N 0.53888 0.84557 0.23236
 C646 C 0.53574 0.84837 0.21209
 N647 N 0.54667 0.86246 0.20220
 N648 N 0.56015 0.87345 0.21215
 C649 C 0.38664 0.26827 0.93764
 N650 N 0.38264 0.28796 0.93597
 N651 N 0.37330 0.29759 0.95103
 C652 C 0.36742 0.28798 0.96830
 N653 N 0.37171 0.26828 0.96984
 N654 N 0.38101 0.25864 0.95486
 C655 C 0.39760 0.25750 0.92162
 N656 N 0.40192 0.23798 0.92422
 N657 N 0.41256 0.22814 0.91031
 C658 C 0.41928 0.23740 0.89323
 N659 N 0.41484 0.25691 0.89049
 N660 N 0.40418 0.26680 0.90445
 C661 C 0.43198 0.22649 0.87867
 N662 N 0.43891 0.23514 0.86129
 N663 N 0.45125 0.22526 0.84878
 C664 C 0.45710 0.20642 0.85329
 N665 N 0.45004 0.19780 0.87058
 N666 N 0.43769 0.20762 0.88300
 C667 C 0.61618 0.73238 0.93901
 N668 N 0.62214 0.71319 0.93712
 N669 N 0.63084 0.70378 0.95274
 C670 C 0.63398 0.71314 0.97085
 N671 N 0.62773 0.73229 0.97257
 N672 N 0.61915 0.74172 0.95702
 C673 C 0.60594 0.74299 0.92239
 N674 N 0.60079 0.76229 0.92501
 N675 N 0.59060 0.77202 0.91067
 C676 C 0.58514 0.76285 0.89313
 N677 N 0.59043 0.74354 0.89035
 N678 N 0.60068 0.73377 0.90475
 C679 C 0.57273 0.77363 0.87822
 N680 N 0.56632 0.76501 0.86064
 N681 N 0.55405 0.77479 0.84796
 C682 C 0.54776 0.79348 0.85248
 N683 N 0.55434 0.80207 0.86994
 N684 N 0.56660 0.79236 0.88253
 C685 C 0.38256 0.73387 0.06088
 N686 N 0.38064 0.74335 0.04278
 N687 N 0.37177 0.73449 0.02707
 C688 C 0.36415 0.71579 0.02869
 N689 N 0.36619 0.70627 0.04690
 N690 N 0.37520 0.71511 0.06270
 C691 C 0.39319 0.74389 0.07765
 N692 N 0.39796 0.73435 0.09528
 N693 N 0.40863 0.74360 0.10974
 C694 C 0.41484 0.76268 0.10704
 N695 N 0.40985 0.77217 0.08951
 N696 N 0.39927 0.76297 0.07512
 C697 C 0.42767 0.77293 0.12200
 N698 N 0.43439 0.79151 0.11779
 N699 N 0.44696 0.80078 0.13042
 C700 C 0.45328 0.79189 0.14783
 N701 N 0.44642 0.77333 0.15226
 N702 N 0.43383 0.76399 0.13953
 C703 C 0.61597 0.26371 0.06452
 N704 N 0.61951 0.25401 0.04681
 N705 N 0.62894 0.26302 0.03149
 C706 C 0.63550 0.28209 0.03313
 N707 N 0.63188 0.29180 0.05095
 N708 N 0.62233 0.28280 0.06636
 C709 C 0.60457 0.25363 0.08074
 N710 N 0.59887 0.23446 0.07808
 N711 N 0.58755 0.22525 0.09192
 C712 C 0.58144 0.23482 0.10901
 N713 N 0.58728 0.25398 0.11186
 N714 N 0.59867 0.26324 0.09795
 C715 C 0.56785 0.22461 0.12332
 N716 N 0.56103 0.23352 0.14058
 N717 N 0.54785 0.22423 0.15276
 C718 C 0.54102 0.20575 0.14801
 N719 N 0.54797 0.19688 0.13085
 N720 N 0.56114 0.20610 0.11878
 C721 C 0.26554 0.06041 0.61698
 N722 N 0.25587 0.04286 0.61964
 N723 N 0.26514 0.02771 0.62865
 C724 C 0.28444 0.02941 0.63567
 N725 N 0.29414 0.04704 0.63280
 N726 N 0.28490 0.06225 0.62368
 C727 C 0.25515 0.07666 0.60635
 N728 N 0.26488 0.09378 0.60136
 N729 N 0.25535 0.10791 0.59080
 C730 C 0.23577 0.10540 0.58494
 N731 N 0.22608 0.08837 0.59013
 N732 N 0.23557 0.07429 0.60061
 C733 C 0.22530 0.12012 0.57224
 N734 N 0.20613 0.11640 0.56587
 N735 N 0.19674 0.12887 0.55334
 C736 C 0.20610 0.14560 0.54670
 N737 N 0.22523 0.14951 0.55322
 N738 N 0.23468 0.13697 0.56578
 C739 C 0.73209 0.06414 0.38045
 N740 N 0.71273 0.06572 0.37364
 N741 N 0.70348 0.05018 0.36508
 C742 C 0.71317 0.03246 0.36298
 N743 N 0.73249 0.03109 0.37001
 N744 N 0.74176 0.04655 0.37842
 C745 C 0.74254 0.08060 0.39074
 N746 N 0.76218 0.07834 0.39626
 N747 N 0.77175 0.09242 0.40667
 C748 C 0.76207 0.10936 0.41203
 N749 N 0.74242 0.11180 0.40636
 N750 N 0.73281 0.09766 0.39586
 C751 C 0.77269 0.12398 0.42478
 N752 N 0.76350 0.14085 0.43133
 N753 N 0.77312 0.15325 0.44393
 C754 C 0.79222 0.14914 0.45041
 N755 N 0.80137 0.13238 0.44369
 N756 N 0.79182 0.12007 0.43111
 C757 C 0.73335 0.93637 0.61527
 N758 N 0.74423 0.95204 0.62224
 N759 N 0.73502 0.96761 0.63053
 C760 C 0.71455 0.96811 0.63228
 N761 N 0.70361 0.95241 0.62532
 N762 N 0.71285 0.93679 0.61700
 C763 C 0.74374 0.92001 0.60484
 N764 N 0.73329 0.90444 0.59690
 N765 N 0.74286 0.89040 0.58629
 C766 C 0.76318 0.89148 0.58324
 N767 N 0.77359 0.90693 0.59137
 N768 N 0.76406 0.92090 0.60198
 C769 C 0.77376 0.87710 0.57024
 N770 N 0.79334 0.88040 0.56498
 N771 N 0.80282 0.86830 0.55213
 C772 C 0.79313 0.85234 0.54414
 N773 N 0.77359 0.84884 0.54958
 N774 N 0.76405 0.86104 0.56238
 C775 C 0.26332 0.93430 0.38285
 N776 N 0.28245 0.93276 0.37540
 N777 N 0.29126 0.94823 0.36621
 C778 C 0.28133 0.96583 0.36411
 N779 N 0.26225 0.96715 0.37176
 N780 N 0.25341 0.95176 0.38079
 C781 C 0.25340 0.91796 0.39386
 N782 N 0.23394 0.92017 0.40002
 N783 N 0.22489 0.90625 0.41113
 C784 C 0.23492 0.88953 0.41659
 N785 N 0.25438 0.88713 0.41029
 N786 N 0.26348 0.90112 0.39909
 C787 C 0.22489 0.87513 0.43008
 N788 N 0.23439 0.85843 0.43667
 N789 N 0.22526 0.84622 0.44986
 C790 C 0.20637 0.85036 0.45690
 N791 N 0.19691 0.86696 0.45015
 N792 N 0.20597 0.87907 0.43700
 C793 C 0.06266 0.38573 0.73022
 N794 N 0.04497 0.38326 0.74035
 N795 N 0.02928 0.37447 0.73144
 C796 C 0.03055 0.36748 0.71205
 N797 N 0.04832 0.37016 0.70186
 N798 N 0.06407 0.37909 0.71074
 C799 C 0.07954 0.39599 0.74034
 N800 N 0.09651 0.40152 0.73005
 N801 N 0.11114 0.41173 0.73943
 C802 C 0.10930 0.41665 0.75944
 N803 N 0.09244 0.41090 0.76968
 N804 N 0.07786 0.40081 0.76033
 C805 C 0.12446 0.42896 0.76991
 N806 N 0.12145 0.43388 0.78970
 N807 N 0.13407 0.44614 0.79921
 C808 C 0.15027 0.45396 0.78935
 N809 N 0.15353 0.44887 0.76957
 N810 N 0.14082 0.43656 0.76001
 C811 C 0.06746 0.61641 0.27005
 N812 N 0.05183 0.62372 0.25895
 N813 N 0.03602 0.63208 0.26808
 C814 C 0.03523 0.63358 0.28868
 N815 N 0.05092 0.62636 0.29985
 N816 N 0.06678 0.61796 0.29069
 C817 C 0.08388 0.60574 0.25968
 N818 N 0.09947 0.59751 0.27023
 N819 N 0.11346 0.58670 0.26063
 C820 C 0.11226 0.58370 0.24019
 N821 N 0.09678 0.59210 0.22970
 N822 N 0.08289 0.60292 0.23924
 C823 C 0.12655 0.57065 0.22950
 N824 N 0.12280 0.56540 0.20991
 N825 N 0.13493 0.55282 0.20022
 C826 C 0.15138 0.54507 0.20968
 N827 N 0.15532 0.55044 0.22924
 N828 N 0.14306 0.56297 0.23902
 C829 C 0.94017 0.38531 0.26717
 N830 N 0.93844 0.37741 0.28614
 N831 N 0.95418 0.36831 0.29484
 C832 C 0.97224 0.36672 0.28496
 N833 N 0.97380 0.37493 0.26608
 N834 N 0.95814 0.38389 0.25735
 C835 C 0.92338 0.39584 0.25727
 N836 N 0.92563 0.40217 0.23778
 N837 N 0.91114 0.41256 0.22866
 C838 C 0.89379 0.41709 0.23867
 N839 N 0.89138 0.41066 0.25817
 N840 N 0.90594 0.40017 0.26732
 C841 C 0.87867 0.42963 0.22851
 N842 N 0.86153 0.43571 0.23814
 N843 N 0.84866 0.44805 0.22886
 C844 C 0.85255 0.45472 0.20969
 N845 N 0.86957 0.44847 0.20011
 N846 N 0.88235 0.43617 0.20932
 C847 C 0.93102 0.61862 0.73468
 N848 N 0.92990 0.62531 0.71517
 N849 N 0.94583 0.63420 0.70649
 C850 C 0.96348 0.63668 0.71693
 N851 N 0.96436 0.62984 0.73640
 N852 N 0.94851 0.62115 0.74511
 C853 C 0.91434 0.60775 0.74447
 N854 N 0.91612 0.60260 0.76436
 N855 N 0.90215 0.59141 0.77335
 C856 C 0.88581 0.58486 0.76282
 N857 N 0.88379 0.59018 0.74292
 N858 N 0.89784 0.60146 0.73389
 C859 C 0.87160 0.57118 0.77286
 N860 N 0.85515 0.56365 0.76308
 N861 N 0.84323 0.55034 0.77230
 C862 C 0.84747 0.54406 0.79154
 N863 N 0.86381 0.55172 0.80125
 N864 N 0.87561 0.56502 0.79211
 C865 C 0.72670 0.61452 0.93530
 N866 N 0.73762 0.62181 0.95112
 N867 N 0.72843 0.63015 0.96698
 C868 C 0.70796 0.63165 0.96761
 N869 N 0.69697 0.62445 0.95174
 N870 N 0.70619 0.61606 0.93583
 C871 C 0.73712 0.60388 0.91882
 N872 N 0.72671 0.59542 0.90320
 N873 N 0.73634 0.58459 0.88921
 C874 C 0.75669 0.58182 0.89041
 N875 N 0.76704 0.59046 0.90589
 N876 N 0.75745 0.60129 0.91980
 C877 C 0.76741 0.56868 0.87618
 N878 N 0.78697 0.56378 0.87991
 N879 N 0.79667 0.55103 0.86794
 C880 C 0.78723 0.54275 0.85168
 N881 N 0.76770 0.54779 0.84774
 N882 N 0.75792 0.56050 0.85984
 C883 C 0.28779 0.39547 0.92947
 N884 N 0.28906 0.37545 0.93144
 N885 N 0.29823 0.36740 0.94755
 C886 C 0.30628 0.37901 0.96245
 N887 N 0.30465 0.39905 0.96049
 N888 N 0.29585 0.40711 0.94422
 C889 C 0.27671 0.40451 0.91248
 N890 N 0.28228 0.42258 0.90521
 N891 N 0.27132 0.43158 0.89089
 C892 C 0.25418 0.42300 0.88361
 N893 N 0.24861 0.40491 0.89088
 N894 N 0.25978 0.39575 0.90494
 C895 C 0.24110 0.43390 0.86945
 N896 N 0.22067 0.43186 0.87048
 N897 N 0.20863 0.44320 0.85908
 C898 C 0.21660 0.45674 0.84599
 N899 N 0.23703 0.45852 0.84468
 N900 N 0.24907 0.44742 0.85634
 C901 C 0.26778 0.61953 0.06175
 N902 N 0.25782 0.62142 0.04383
 N903 N 0.26659 0.63017 0.02796
 C904 C 0.28566 0.63771 0.02927
 N905 N 0.29565 0.63573 0.04731
 N906 N 0.28691 0.62682 0.06325
 C907 C 0.25790 0.60898 0.07866
 N908 N 0.26809 0.60384 0.09588
 N909 N 0.25901 0.59310 0.11038
 C910 C 0.23943 0.58721 0.10814
 N911 N 0.22928 0.59258 0.09105
 N912 N 0.23833 0.60322 0.07661
 C913 C 0.22941 0.57417 0.12302
 N914 N 0.21032 0.56773 0.11921
 N915 N 0.20131 0.55485 0.13160
 C916 C 0.21098 0.54790 0.14837
 N917 N 0.23002 0.55450 0.15243
 N918 N 0.23911 0.56741 0.13993
 C919 C 0.72944 0.37981 0.06936
 N920 N 0.70891 0.37857 0.06868
 N921 N 0.69967 0.37020 0.05276
 C922 C 0.71066 0.36273 0.03703
 N923 N 0.73115 0.36390 0.03784
 N924 N 0.74035 0.37221 0.05370
 C925 C 0.73990 0.39055 0.08574
 N926 N 0.76026 0.39305 0.08474
 N927 N 0.76989 0.40410 0.09844
 C928 C 0.75956 0.41306 0.11373
 N929 N 0.73920 0.41036 0.11497
 N930 N 0.72952 0.39932 0.10118
 C931 C 0.77030 0.42654 0.12760
 N932 N 0.76090 0.43489 0.14390
 N933 N 0.77065 0.44797 0.15562
 C934 C 0.79006 0.45324 0.15131
 N935 N 0.79941 0.44480 0.13509
 N936 N 0.78975 0.43167 0.12351
 C937 C 0.93574 0.73277 0.61767
 N938 N 0.93339 0.71405 0.62504
 N939 N 0.94864 0.70498 0.63464
 C940 C 0.96681 0.71423 0.63727
 N941 N 0.96893 0.73291 0.62969
 N942 N 0.95377 0.74200 0.62024
 C943 C 0.91966 0.74302 0.60631
 N944 N 0.92279 0.76198 0.60009
 N945 N 0.90907 0.77137 0.58885
 C946 C 0.89165 0.76219 0.58331
 N947 N 0.88833 0.74323 0.58965
 N948 N 0.90211 0.73379 0.60098
 C949 C 0.87740 0.77266 0.56986
 N950 N 0.85991 0.76409 0.56333
 N951 N 0.84777 0.77365 0.55034
 C952 C 0.85276 0.79206 0.54341
 N953 N 0.87015 0.80057 0.55007
 N954 N 0.88220 0.79108 0.56304
 C955 C 0.93890 0.26803 0.37928
 N956 N 0.93738 0.28704 0.37252
 N957 N 0.95324 0.29601 0.36380
 C958 C 0.97121 0.28636 0.36148
 N959 N 0.97252 0.26740 0.36848
 N960 N 0.95675 0.25842 0.37705
 C961 C 0.92210 0.25788 0.38968
 N962 N 0.92428 0.23855 0.39503
 N963 N 0.90993 0.22922 0.40554
 C964 C 0.89279 0.23883 0.41117
 N965 N 0.89043 0.25816 0.40567
 N966 N 0.90484 0.26753 0.39507
 C967 C 0.87796 0.22844 0.42406
 N968 N 0.86087 0.23747 0.43091
 N969 N 0.84835 0.22802 0.44365
 C970 C 0.85257 0.20925 0.45000
 N971 N 0.86953 0.20025 0.44297
 N972 N 0.88195 0.20963 0.43025
 C973 C 0.06464 0.27053 0.61688
 N974 N 0.06431 0.29069 0.61741
 N975 N 0.04853 0.30027 0.62543
 C976 C 0.03259 0.29001 0.63327
 N977 N 0.03301 0.26988 0.63275
 N978 N 0.04874 0.26034 0.62477
 C979 C 0.08104 0.25968 0.60668
 N980 N 0.07981 0.23966 0.60483
 N981 N 0.09369 0.22966 0.59436
 C982 C 0.10939 0.23927 0.58536
 N983 N 0.11083 0.25929 0.58741
 N984 N 0.09687 0.26934 0.59787
 C985 C 0.12355 0.22811 0.57247
 N986 N 0.14012 0.23689 0.56406
 N987 N 0.15209 0.22678 0.55139
 C988 C 0.14781 0.20761 0.54662
 N989 N 0.13135 0.19886 0.55515
 N990 N 0.11950 0.20889 0.56787
 C991 C 0.06245 0.73240 0.38387
 N992 N 0.06429 0.71335 0.37738
 N993 N 0.04895 0.70438 0.36783
 C994 C 0.03120 0.71407 0.36432
 N995 N 0.02955 0.73309 0.37105
 N996 N 0.04481 0.74206 0.38049
 C997 C 0.07866 0.74247 0.39517
 N998 N 0.07602 0.76160 0.40100
 N999 N 0.08993 0.77082 0.41216
 C1000 C 0.10706 0.76131 0.41797
 N1001 N 0.10988 0.74218 0.41202
 N1002 N 0.09591 0.73292 0.40079
 C1003 C 0.12152 0.77156 0.43134
 N1004 N 0.13881 0.76268 0.43790
 N1005 N 0.15116 0.77202 0.45086
 C1006 C 0.14656 0.79051 0.45772
 N1007 N 0.12937 0.79934 0.45102
 N1008 N 0.11712 0.79007 0.43808
 C1009 C 0.62010 0.93932 0.73315
 N1010 N 0.62274 0.95679 0.74299
 N1011 N 0.63169 0.97202 0.73376
 C1012 C 0.63865 0.97052 0.71431
 N1013 N 0.63586 0.95296 0.70444
 N1014 N 0.62680 0.93765 0.71366
 C1015 C 0.60940 0.92304 0.74349
 N1016 N 0.60436 0.90600 0.73362
 N1017 N 0.59368 0.89190 0.74311
 C1018 C 0.58772 0.89437 0.76278
 N1019 N 0.59296 0.91130 0.77261
 N1020 N 0.60357 0.92535 0.76316
 C1021 C 0.57486 0.87972 0.77321
 N1022 N 0.56824 0.88353 0.79237
 N1023 N 0.55558 0.87115 0.80172
 C1024 C 0.54907 0.85440 0.79232
 N1025 N 0.55585 0.85039 0.77320
 N1026 N 0.56852 0.86286 0.76379
 C1027 C 0.37932 0.93560 0.26610
 N1028 N 0.37732 0.95321 0.25636
 N1029 N 0.36821 0.96842 0.26537
 C1030 C 0.36044 0.96675 0.28449
 N1031 N 0.36252 0.94902 0.29427
 N1032 N 0.37177 0.93374 0.28527
 C1033 C 0.39033 0.91943 0.25599
 N1034 N 0.39676 0.92199 0.23654
 N1035 N 0.40774 0.90815 0.22731
 C1036 C 0.41278 0.89116 0.23716
 N1037 N 0.40622 0.88842 0.25661
 N1038 N 0.39515 0.90233 0.26587
 C1039 C 0.42605 0.87676 0.22696
 N1040 N 0.43221 0.85981 0.23635
 N1041 N 0.44515 0.84754 0.22712
 C1042 C 0.45240 0.85186 0.20822
 N1043 N 0.44609 0.86871 0.19886
 N1044 N 0.43316 0.88088 0.20803
 C1045 C 0.61256 0.06178 0.26709
 N1046 N 0.62054 0.06394 0.28604
 N1047 N 0.62991 0.04876 0.29515
 C1048 C 0.63170 0.03086 0.28570
 N1049 N 0.62351 0.02891 0.26680
 N1050 N 0.61427 0.04400 0.25767
 C1051 C 0.60148 0.07786 0.25681
 N1052 N 0.59478 0.07501 0.23750
 N1053 N 0.58383 0.08880 0.22811
 C1054 C 0.57907 0.10601 0.23765
 N1055 N 0.58588 0.10902 0.25696
 N1056 N 0.59693 0.09517 0.26639
 C1057 C 0.56595 0.12042 0.22722
 N1058 N 0.55995 0.13755 0.23634
 N1059 N 0.54721 0.14987 0.22686
 C1060 C 0.54002 0.14545 0.20799
 N1061 N 0.54615 0.12842 0.19891
 N1062 N 0.55887 0.11617 0.20832
 C1063 C 0.38254 0.06496 0.73131
 N1064 N 0.37529 0.04937 0.74220
 N1065 N 0.36707 0.03382 0.73285
 C1066 C 0.36566 0.03327 0.71223
 N1067 N 0.37283 0.04891 0.70127
 N1068 N 0.38109 0.06451 0.71065
 C1069 C 0.39313 0.08114 0.74187
 N1070 N 0.40155 0.09652 0.73145
 N1071 N 0.41243 0.11026 0.74118
 C1072 C 0.41529 0.10906 0.76166
 N1073 N 0.40667 0.09381 0.77204
 N1074 N 0.39578 0.08014 0.76235
 C1075 C 0.42862 0.12301 0.77241
 N1076 N 0.43380 0.11938 0.79207
 N1077 N 0.44690 0.13107 0.80171
 C1078 C 0.45525 0.14694 0.79212
 N1079 N 0.44991 0.15078 0.77251
 N1080 N 0.43686 0.13898 0.76280
 C1081 C 0.61527 0.72795 0.07652
 N1082 N 0.62636 0.73877 0.06310
 N1083 N 0.63550 0.73007 0.04742
 C1084 C 0.63402 0.71018 0.04458
 N1085 N 0.62305 0.69927 0.05810
 N1086 N 0.61388 0.70800 0.07383
 C1087 C 0.60352 0.73815 0.09237
 N1088 N 0.59163 0.72793 0.10567
 N1089 N 0.57969 0.73756 0.11875
 C1090 C 0.57915 0.75773 0.11888
 N1091 N 0.59122 0.76786 0.10576
 N1092 N 0.60319 0.75827 0.09279
 C1093 C 0.56475 0.76863 0.13172
 N1094 N 0.56155 0.78821 0.12816
 N1095 N 0.54770 0.79817 0.13871
 C1096 C 0.53660 0.78900 0.15334
 N1097 N 0.53993 0.76943 0.15715
 N1098 N 0.55371 0.75939 0.14644
 C1099 C 0.38006 0.27152 0.07413
 N1100 N 0.38190 0.29147 0.07170
 N1101 N 0.37337 0.30056 0.05580
 C1102 C 0.36257 0.29006 0.04185
 N1103 N 0.36058 0.27016 0.04446
 N1104 N 0.36910 0.26109 0.06030
 C1105 C 0.39141 0.26093 0.09005
 N1106 N 0.39180 0.24080 0.09006
 N1107 N 0.40355 0.23095 0.10306
 C1108 C 0.41533 0.24083 0.11662
 N1109 N 0.41472 0.26099 0.11689
 N1110 N 0.40301 0.27087 0.10378
 C1111 C 0.42953 0.22971 0.12955
 N1112 N 0.44019 0.23872 0.14466
 N1113 N 0.45379 0.22855 0.15550
 C1114 C 0.45731 0.20908 0.15145
 N1115 N 0.44659 0.20013 0.13641
 N1116 N 0.43293 0.21022 0.12572
 C1117 C 0.61885 0.26663 0.92720
 N1118 N 0.61778 0.28662 0.92973
 N1119 N 0.62677 0.29530 0.94560
 C1120 C 0.63724 0.28431 0.95942
 N1121 N 0.63840 0.26438 0.95675
 N1122 N 0.62943 0.25572 0.94093
 C1123 C 0.60724 0.25655 0.91119
 N1124 N 0.60636 0.23644 0.91094
 N1125 N 0.59442 0.22702 0.89778
 C1126 C 0.58296 0.23734 0.88430
 N1127 N 0.58405 0.25748 0.88427
 N1128 N 0.59596 0.26694 0.89753
 C1129 C 0.56854 0.22672 0.87123
 N1130 N 0.55809 0.23619 0.85627
 N1131 N 0.54422 0.22648 0.84533
 C1132 C 0.54022 0.20703 0.84914
 N1133 N 0.55074 0.19761 0.86402
 N1134 N 0.56467 0.20725 0.87481
 C1135 C 0.38441 0.73116 0.92331
 N1136 N 0.37352 0.74211 0.93673
 N1137 N 0.36403 0.73348 0.95228
 C1138 C 0.36494 0.71354 0.95498
 N1139 N 0.37572 0.70249 0.94147
 N1140 N 0.38525 0.71115 0.92587
 C1141 C 0.39649 0.74126 0.90760
 N1142 N 0.40825 0.73094 0.89432
 N1143 N 0.42045 0.74048 0.88135
 C1144 C 0.42136 0.76064 0.88131
 N1145 N 0.40942 0.77087 0.89442
 N1146 N 0.39721 0.76137 0.90727
 C1147 C 0.43600 0.77144 0.86859
 N1148 N 0.43951 0.79094 0.87226
 N1149 N 0.45353 0.80081 0.86180
 C1150 C 0.46451 0.79161 0.84713
 N1151 N 0.46088 0.77212 0.84321
 N1152 N 0.44692 0.76217 0.85384
 C1153 C 0.72895 0.92967 0.38496
 N1154 N 0.74012 0.94305 0.37432
 N1155 N 0.73129 0.95826 0.36494
 C1156 C 0.71091 0.96066 0.36571
 N1157 N 0.69967 0.94726 0.37634
 N1158 N 0.70853 0.93199 0.38574
 C1159 C 0.73920 0.91393 0.39654
 N1160 N 0.72860 0.90033 0.40755
 N1161 N 0.73824 0.88699 0.41905
 C1162 C 0.75880 0.88687 0.41998
 N1163 N 0.76932 0.90035 0.40882
 N1164 N 0.75972 0.91358 0.39730
 C1165 C 0.76972 0.87341 0.43375
 N1166 N 0.78975 0.87637 0.43719
 N1167 N 0.79975 0.86511 0.45044
 C1168 C 0.79017 0.85034 0.46069
 N1169 N 0.77016 0.84715 0.45712
 N1170 N 0.76008 0.85856 0.44392
 C1171 C 0.27016 0.92583 0.61780
 N1172 N 0.29049 0.92874 0.61665
 N1173 N 0.29906 0.94437 0.62568
 C1174 C 0.28761 0.95756 0.63627
 N1175 N 0.26733 0.95455 0.63745
 N1176 N 0.25879 0.93897 0.62845
 C1177 C 0.26017 0.90986 0.60636
 N1178 N 0.23966 0.90890 0.60597
 N1179 N 0.23022 0.89565 0.59433
 C1180 C 0.24091 0.88277 0.58268
 N1181 N 0.26147 0.88346 0.58327
 N1182 N 0.27094 0.89681 0.59488
 C1183 C 0.23011 0.86953 0.56861
 N1184 N 0.23992 0.85523 0.55786
 N1185 N 0.22993 0.84413 0.54432
 C1186 C 0.20985 0.84712 0.54098
 N1187 N 0.20012 0.86134 0.55181
 N1188 N 0.21003 0.87227 0.56540
 C1189 C 0.26625 0.06874 0.38549
 N1190 N 0.28668 0.06634 0.38562
 N1191 N 0.29516 0.05101 0.37602
 C1192 C 0.28352 0.03763 0.36584
 N1193 N 0.26314 0.04012 0.36571
 N1194 N 0.25468 0.05539 0.37529
 C1195 C 0.25647 0.08451 0.39735
 N1196 N 0.23598 0.08501 0.39872
 N1197 N 0.22683 0.09825 0.41057
 C1198 C 0.23778 0.11157 0.42147
 N1199 N 0.25830 0.11130 0.41992
 N1200 N 0.26749 0.09796 0.40809
 C1201 C 0.22739 0.12501 0.43562
 N1202 N 0.23749 0.13962 0.44565
 N1203 N 0.22790 0.15103 0.45918
 C1204 C 0.20794 0.14807 0.46323
 N1205 N 0.19790 0.13353 0.45313
 N1206 N 0.20742 0.12227 0.43955
 C1207 C 0.72999 0.07176 0.60942
 N1208 N 0.74141 0.05780 0.61889
 N1209 N 0.73277 0.04250 0.62832
 C1210 C 0.71233 0.04058 0.62878
 N1211 N 0.70081 0.05454 0.61933
 N1212 N 0.70949 0.06990 0.60984
 C1213 C 0.73999 0.08772 0.59791
 N1214 N 0.72921 0.10155 0.58743
 N1215 N 0.73866 0.11511 0.57600
 C1216 C 0.75920 0.11525 0.57462
 N1217 N 0.76989 0.10154 0.58527
 N1218 N 0.76049 0.08808 0.59670
 C1219 C 0.76994 0.12891 0.56087
 N1220 N 0.78998 0.12616 0.55738
 N1221 N 0.79985 0.13750 0.54408
 C1222 C 0.79014 0.15214 0.53382
 N1223 N 0.77010 0.15513 0.53745
 N1224 N 0.76015 0.14365 0.55072
 C1225 C 0.93001 0.61087 0.27163
 N1226 N 0.94453 0.61984 0.26024
 N1227 N 0.95992 0.62920 0.26909
 C1228 C 0.96136 0.63008 0.28969
 N1229 N 0.94682 0.62113 0.30116
 N1230 N 0.93138 0.61172 0.29227
 C1231 C 0.91399 0.59942 0.26147
 N1232 N 0.89957 0.58956 0.27228
 N1233 N 0.88596 0.57820 0.26277
 C1234 C 0.88636 0.57628 0.24216
 N1235 N 0.90065 0.58631 0.23143
 N1236 N 0.91417 0.59767 0.24089
 C1237 C 0.87260 0.56268 0.23147
 N1238 N 0.87571 0.55878 0.21144
 N1239 N 0.86422 0.54566 0.20168
 C1240 C 0.84907 0.53600 0.21152
 N1241 N 0.84573 0.54003 0.23153
 N1242 N 0.85735 0.55311 0.24136
 C1243 C 0.92553 0.38560 0.72857
 N1244 N 0.92774 0.38599 0.70798
 N1245 N 0.94335 0.37685 0.69912
 C1246 C 0.95721 0.36691 0.71054
 N1247 N 0.95487 0.36647 0.73107
 N1248 N 0.93932 0.37557 0.73990
 C1249 C 0.90964 0.39715 0.73881
 N1250 N 0.90958 0.39841 0.75943
 N1251 N 0.89638 0.41003 0.76899
 C1252 C 0.88265 0.42080 0.75832
 N1253 N 0.88247 0.41936 0.73766
 N1254 N 0.89578 0.40776 0.72806
 C1255 C 0.86931 0.43469 0.76914
 N1256 N 0.85408 0.44442 0.75943
 N1257 N 0.84275 0.45763 0.76940
 C1258 C 0.84641 0.46167 0.78935
 N1259 N 0.86158 0.45189 0.79899
 N1260 N 0.87276 0.43862 0.78910
 C1261 C 0.06736 0.61306 0.73353
 N1262 N 0.06573 0.61411 0.71292
 N1263 N 0.05058 0.62415 0.70429
 C1264 C 0.03664 0.63365 0.71597
 N1265 N 0.03839 0.63264 0.73656
 N1266 N 0.05346 0.62259 0.74516
 C1267 C 0.08291 0.60073 0.74332
 N1268 N 0.08231 0.59769 0.76375
 N1269 N 0.09551 0.58561 0.77273
 C1270 C 0.10989 0.57615 0.76163
 N1271 N 0.11067 0.57934 0.74119
 N1272 N 0.09737 0.59137 0.73218
 C1273 C 0.12368 0.56210 0.77163
 N1274 N 0.13944 0.55387 0.76137
 N1275 N 0.15150 0.54072 0.77050
 C1276 C 0.14812 0.53523 0.79014
 N1277 N 0.13239 0.54347 0.80035
 N1278 N 0.12043 0.55669 0.79129
 C1279 C 0.07752 0.38586 0.26985
 N1280 N 0.06397 0.37581 0.25824
 N1281 N 0.04827 0.36660 0.26674
 C1282 C 0.04553 0.36696 0.28723
 N1283 N 0.05913 0.37695 0.29893
 N1284 N 0.07488 0.38620 0.29039
 C1285 C 0.09361 0.39745 0.25992
 N1286 N 0.10697 0.40848 0.27089
 N1287 N 0.12040 0.42016 0.26148
 C1288 C 0.12088 0.42124 0.24080
 N1289 N 0.10768 0.41002 0.22992
 N1290 N 0.09435 0.39834 0.23928
 C1291 C 0.13416 0.43533 0.23011
 N1292 N 0.13116 0.43884 0.20998
 N1293 N 0.14204 0.45247 0.20021
 C1294 C 0.15647 0.46305 0.21011
 N1295 N 0.15974 0.45941 0.23022
 N1296 N 0.14869 0.44583 0.24009
   
