data_POSCAR
  _audit_creation_date              2014-09-24
  _audit_creation_method            'ToBaCCo'
  _symmetry_space_group_name_H-M    'P1'
  _symmetry_Int_Tables_number       1
  _symmetry_cell_setting            triclinic
  loop_
  _symmetry_equiv_pos_as_xyz
 x,y,z
_cell_length_a 60.5748
_cell_length_b 60.5807
_cell_length_c 60.6388
_cell_angle_alpha 89.988200
_cell_angle_beta 89.991700
_cell_angle_gamma 90.000700
loop_
  _atom_site_label
  _atom_site_type_symbol
  _atom_site_fract_x
  _atom_site_fract_y
  _atom_site_fract_z
C1 C 0.26520 0.95218 -0.01978
 C2 C 0.26460 0.94160 0.00084
 C3 C 0.26484 0.95329 0.02067
 C4 C 0.26565 0.97659 0.02028
 C5 C 0.26588 0.98791 -0.00023
 C6 C 0.26632 0.97570 -0.02030
 C7 C 0.27023 0.98728 -0.04001
 C8 C 0.27131 1.01017 -0.04040
 C9 C 0.26853 1.02276 -0.02111
 C10 C 0.26690 1.01146 -0.00061
 C11 C 0.26766 0.98878 0.03983
 C12 C 0.26889 1.01164 0.03945
 C13 C 0.26752 1.02352 0.01955
 C14 C 0.26892 1.04697 0.01913
 C15 C 0.27036 1.05762 -0.00138
 C16 C 0.26969 1.04622 -0.02153
 H17 H 0.27351 0.97882 -0.05534
 H18 H 0.27532 1.01780 -0.05601
 H19 H 0.26905 0.98075 0.05570
 H20 H 0.27178 1.01975 0.05505
 H21 H 0.26313 0.92377 0.00164
 H22 H 0.27007 1.07552 -0.00169
 C23 C 0.75922 0.54552 0.52132
 C24 C 0.75922 0.55669 0.50114
 C25 C 0.75923 0.54542 0.48103
 C26 C 0.75919 0.52204 0.48096
 C27 C 0.75879 0.51039 0.50129
 C28 C 0.75911 0.52215 0.52155
 C29 C 0.76017 0.51023 0.54141
 C30 C 0.76000 0.48727 0.54149
 C31 C 0.75882 0.47525 0.52171
 C32 C 0.75869 0.48691 0.50137
 C33 C 0.76040 0.51002 0.46119
 C34 C 0.76038 0.48706 0.46127
 C35 C 0.75907 0.47515 0.48112
 C36 C 0.75898 0.45178 0.48135
 C37 C 0.75870 0.44060 0.50152
 C38 C 0.75864 0.45188 0.52164
 H39 H 0.76149 0.51849 0.55715
 H40 H 0.76119 0.47908 0.55729
 H41 H 0.76177 0.51820 0.44540
 H42 H 0.76175 0.47879 0.44553
 H43 H 0.75909 0.57460 0.50110
 H44 H 0.75841 0.42269 0.50156
 C45 C 0.74093 1.01776 0.95431
 C46 C 0.74092 0.99731 0.94366
 C47 C 0.73998 0.97748 0.95543
 C48 C 0.73917 0.97800 0.97877
 C49 C 0.73980 0.99858 0.98992
 C50 C 0.74029 1.01855 0.97763
 C51 C 0.73913 1.03874 0.98895
 C52 C 0.73831 1.03940 1.01182
 C53 C 0.73868 1.01991 1.02439
 C54 C 0.73911 0.99923 1.01339
 C55 C 0.73654 0.95862 0.99117
 C56 C 0.73566 0.95926 1.01408
 C57 C 0.73799 0.97925 1.02572
 C58 C 0.73731 0.98008 1.04924
 C59 C 0.73680 1.00086 1.05955
 C60 C 0.73762 1.02057 1.04763
 H61 H 0.73838 1.05431 0.98027
 H62 H 0.73696 1.05545 1.01950
 H63 H 0.73454 0.94273 0.98329
 H64 H 0.73237 0.94386 1.02243
 H65 H 0.74160 0.99682 0.92579
 H66 H 0.73686 1.00190 1.07741
 C67 C 0.24335 0.51961 0.45312
 C68 C 0.24369 0.49947 0.44186
 C69 C 0.24360 0.47926 0.45303
 C70 C 0.24321 0.47908 0.47639
 C71 C 0.24329 0.49938 0.48814
 C72 C 0.24307 0.51971 0.47647
 C73 C 0.24169 0.53953 0.48846
 C74 C 0.24141 0.53949 0.51140
 C75 C 0.24245 0.51964 0.52334
 C76 C 0.24292 0.49934 0.51160
 C77 C 0.24183 0.45923 0.48830
 C78 C 0.24140 0.45919 0.51124
 C79 C 0.24239 0.47901 0.52325
 C80 C 0.24198 0.47911 0.54660
 C81 C 0.24194 0.49925 0.55786
 C82 C 0.24213 0.51946 0.54670
 H83 H 0.24045 0.55532 0.48026
 H84 H 0.23997 0.55525 0.51963
 H85 H 0.24066 0.44346 0.48004
 H86 H 0.23993 0.44340 0.51940
 H87 H 0.24409 0.49952 0.42397
 H88 H 0.24184 0.49920 0.57576
 C89 C 0.95233 0.25797 -0.01945
 C90 C 0.94207 0.26146 0.00102
 C91 C 0.95395 0.26246 0.02071
 C92 C 0.97721 0.26104 0.02014
 C93 C 0.98818 0.25713 -0.00016
 C94 C 0.97577 0.25550 -0.02006
 C95 C 0.98735 0.25283 -0.03997
 C96 C 1.01012 0.25028 -0.04032
 C97 C 1.02284 0.25235 -0.02103
 C98 C 1.01170 0.25544 -0.00060
 C99 C 0.98979 0.26450 0.03924
 C100 C 1.01264 0.26292 0.03880
 C101 C 1.02398 0.25721 0.01936
 C102 C 1.04736 0.25488 0.01897
 C103 C 1.05782 0.25153 -0.00140
 C104 C 1.04627 0.25060 -0.02142
 H105 H 0.97917 0.25293 -0.05576
 H106 H 1.01750 0.24662 -0.05610
 H107 H 0.98212 0.26905 0.05470
 H108 H 1.02124 0.26683 0.05389
 H109 H 0.92419 0.26224 0.00188
 H110 H 1.07565 0.24987 -0.00171
 C111 C 0.45224 0.74729 0.48195
 C112 C 0.44088 0.74679 0.50202
 C113 C 0.45199 0.74633 0.52223
 C114 C 0.47537 0.74659 0.52251
 C115 C 0.48720 0.74686 0.50228
 C116 C 0.47561 0.74707 0.48192
 C117 C 0.48770 0.74737 0.46214
 C118 C 0.51066 0.74687 0.46226
 C119 C 0.52252 0.74702 0.48217
 C120 C 0.51069 0.74698 0.50240
 C121 C 0.48725 0.74633 0.54242
 C122 C 0.51020 0.74705 0.54254
 C123 C 0.52228 0.74710 0.52276
 C124 C 0.54565 0.74755 0.52273
 C125 C 0.55701 0.74735 0.50266
 C126 C 0.54590 0.74697 0.48246
 H127 H 0.47959 0.74792 0.44627
 H128 H 0.51896 0.74646 0.44648
 H129 H 0.47897 0.74565 0.55819
 H130 H 0.51831 0.74751 0.55841
 H131 H 0.42296 0.74682 0.50191
 H132 H 0.57492 0.74754 0.50277
 C133 C -0.02152 0.74121 0.04902
 C134 C -0.00128 0.74273 0.06027
 C135 C 0.01862 0.74660 0.04931
 C136 C 0.01870 0.74912 0.02614
 C137 C -0.00126 0.74662 0.01414
 C138 C -0.02133 0.74220 0.02553
 C139 C -0.04013 0.73693 0.01300
 C140 C -0.03995 0.73827 -0.00987
 C141 C -0.02094 0.74493 -0.02142
 C142 C -0.00102 0.74785 -0.00936
 C143 C 0.03828 0.75360 0.01462
 C144 C 0.03839 0.75549 -0.00818
 C145 C 0.01922 0.75158 -0.02069
 C146 C 0.01951 0.75233 -0.04413
 C147 C -0.00057 0.75054 -0.05551
 C148 C -0.02082 0.74693 -0.04481
 H149 H -0.05508 0.73094 0.02068
 H150 H -0.05481 0.73327 -0.01837
 H151 H 0.05384 0.75575 0.02305
 H152 H 0.05380 0.76021 -0.01580
 H153 H -0.00093 0.74208 0.07814
 H154 H -0.00041 0.75169 -0.07335
 C155 C 0.52060 0.25000 0.45332
 C156 C 0.50058 0.25002 0.44185
 C157 C 0.48028 0.24987 0.45282
 C158 C 0.47985 0.24986 0.47618
 C159 C 0.50003 0.24971 0.48811
 C160 C 0.52048 0.24969 0.47666
 C161 C 0.54021 0.24963 0.48884
 C162 C 0.53995 0.24904 0.51176
 C163 C 0.51995 0.24936 0.52350
 C164 C 0.49977 0.24960 0.51157
 C165 C 0.45985 0.24972 0.48791
 C166 C 0.45959 0.25009 0.51084
 C167 C 0.47933 0.24975 0.52303
 C168 C 0.47922 0.24985 0.54637
 C169 C 0.49924 0.24948 0.55784
 C170 C 0.51953 0.24916 0.54685
 H171 H 0.55615 0.25001 0.48083
 H172 H 0.55569 0.24838 0.52013
 H173 H 0.44410 0.24936 0.47953
 H174 H 0.44367 0.25062 0.51887
 H175 H 0.50081 0.25019 0.42395
 H176 H 0.49902 0.24946 0.57573
 C177 C 0.95421 -0.01821 0.25023
 C178 C 0.94272 0.00152 0.24684
 C179 C 0.95371 0.02137 0.24250
 C180 C 0.97704 0.02149 0.24101
 C181 C 0.98903 0.00181 0.24516
 C182 C 0.97759 -0.01807 0.25000
 C183 C 0.98981 -0.03715 0.25488
 C184 C 1.01273 -0.03709 0.25380
 C185 C 1.02438 -0.01790 0.24794
 C186 C 1.01251 0.00196 0.24430
 C187 C 0.98866 0.04054 0.23472
 C188 C 1.01160 0.04067 0.23381
 C189 C 1.02402 0.02188 0.23958
 C190 C 1.04756 0.02200 0.23924
 C191 C 1.05873 0.00179 0.24172
 C192 C 1.04761 -0.01797 0.24597
 H193 H 0.98181 -0.05235 0.25974
 H194 H 1.02122 -0.05227 0.25781
 H195 H 0.98010 0.05548 0.22998
 H196 H 1.01943 0.05559 0.22794
 H197 H 0.92482 0.00141 0.24750
 H198 H 1.07662 0.00140 0.24137
 C199 C 0.45247 0.47934 0.75233
 C200 C 0.44142 0.49958 0.75320
 C201 C 0.45277 0.51966 0.75241
 C202 C 0.47610 0.51963 0.75098
 C203 C 0.48764 0.49923 0.75023
 C204 C 0.47579 0.47901 0.75082
 C205 C 0.48761 0.45905 0.75026
 C206 C 0.51050 0.45888 0.74856
 C207 C 0.52263 0.47865 0.74827
 C208 C 0.51110 0.49905 0.74912
 C209 C 0.48823 0.53941 0.75068
 C210 C 0.51113 0.53923 0.74915
 C211 C 0.52295 0.51927 0.74865
 C212 C 0.54629 0.51894 0.74730
 C213 C 0.55733 0.49870 0.74623
 C214 C 0.54597 0.47862 0.74680
 H215 H 0.47933 0.44327 0.75113
 H216 H 0.51853 0.44298 0.74748
 H217 H 0.48017 0.55530 0.75167
 H218 H 0.51943 0.55501 0.74832
 H219 H 0.42353 0.49970 0.75416
 H220 H 0.57522 0.49857 0.74532
 C221 C 1.01845 0.95180 0.74434
 C222 C 0.99789 0.94161 0.74101
 C223 C 0.97822 0.95357 0.74019
 C224 C 0.97888 0.97683 0.74161
 C225 C 0.99928 0.98772 0.74536
 C226 C 1.01916 0.97523 0.74680
 C227 C 1.03917 0.98675 0.74924
 C228 C 1.03962 1.00951 0.75177
 C229 C 1.02033 1.02229 0.74990
 C230 C 0.99982 1.01123 0.74705
 C231 C 0.95979 0.98949 0.73830
 C232 C 0.96033 1.01232 0.73991
 C233 C 0.97987 1.02358 0.74551
 C234 C 0.98035 1.04694 0.74795
 C235 C 1.00081 1.05734 0.75102
 C236 C 1.02083 1.04571 0.75162
 H237 H 1.05495 0.97852 0.74896
 H238 H 1.05549 1.01683 0.75524
 H239 H 0.94426 0.98189 0.73383
 H240 H 0.94523 1.02099 0.73610
 H241 H 0.99697 0.92374 0.74020
 H242 H 1.00121 1.07516 0.75273
 C243 C 0.52066 0.45525 0.25655
 C244 C 0.50071 0.44400 0.25357
 C245 C 0.48074 0.45524 0.25067
 C246 C 0.48071 0.47861 0.25013
 C247 C 0.50069 0.49031 0.25377
 C248 C 0.52068 0.47861 0.25731
 C249 C 0.54001 0.49055 0.26199
 C250 C 0.54000 0.51352 0.26212
 C251 C 0.52066 0.52549 0.25752
 C252 C 0.50070 0.51379 0.25383
 C253 C 0.46138 0.49057 0.24552
 C254 C 0.46140 0.51353 0.24550
 C255 C 0.48073 0.52548 0.25015
 C256 C 0.48077 0.54885 0.25072
 C257 C 0.50068 0.56011 0.25387
 C258 C 0.52062 0.54887 0.25700
 H259 H 0.55534 0.48227 0.26589
 H260 H 0.55532 0.52177 0.26611
 H261 H 0.44606 0.48232 0.24156
 H262 H 0.44607 0.52178 0.24153
 H263 H 0.50072 0.42609 0.25345
 H264 H 0.50066 0.57802 0.25385
 O265 O 0.25251 0.19390 0.21645
 O266 O 0.27600 0.18706 0.24863
 O267 O 0.19433 0.21999 0.24808
 O268 O 0.18636 0.24828 0.27032
 O269 O 0.22135 0.25170 0.19048
 O270 O 0.25187 0.27574 0.18428
 O271 O 0.25201 0.28098 0.30517
 O272 O 0.22640 0.25107 0.31044
 O273 O 0.30899 0.25165 0.27771
 O274 O 0.31460 0.22613 0.25075
 O275 O 0.28144 0.30852 0.24908
 O276 O 0.25130 0.31499 0.22373
 O277 O 0.25233 0.30751 0.27870
 O278 O 0.22418 0.31187 0.24843
 O279 O 0.30800 0.28194 0.24917
 O280 O 0.31311 0.25309 0.22123
 O281 O 0.28258 0.25244 0.30439
 O282 O 0.25606 0.22665 0.31153
 O283 O 0.25298 0.22077 0.19030
 O284 O 0.27653 0.25213 0.18437
 O285 O 0.19459 0.25091 0.21677
 O286 O 0.18933 0.27633 0.24836
 O287 O 0.22103 0.19371 0.24634
 O288 O 0.25208 0.18676 0.27138
 Zr289 Zr 0.25096 0.21130 0.24655
 O290 O 0.27134 0.23036 0.26721
 Zr291 Zr 0.21211 0.24985 0.24683
 O292 O 0.23092 0.27041 0.26778
 Zr293 Zr 0.25112 0.25038 0.20822
 O294 O 0.27127 0.27098 0.22740
 Zr295 Zr 0.25238 0.25131 0.28711
 O296 O 0.23145 0.23029 0.26830
 Zr297 Zr 0.29090 0.25172 0.24828
 O298 O 0.27254 0.23064 0.22726
 Zr299 Zr 0.25181 0.29033 0.24857
 O300 O 0.23133 0.27145 0.22743
 O301 O 0.23054 0.22968 0.22612
 O302 O 0.27263 0.27218 0.26898
 C303 C 0.25352 0.20043 0.19629
 C304 C 0.20072 0.19975 0.24730
 C305 C 0.20101 0.25190 0.19656
 C306 C 0.25206 0.30126 0.29894
 C307 C 0.30285 0.25211 0.29798
 C308 C 0.30174 0.30223 0.24913
 H309 H 0.28055 0.22038 0.27629
 H310 H 0.28059 0.28002 0.21752
 H311 H 0.22127 0.22032 0.21646
 H312 H 0.22093 0.27945 0.27700
 H313 H 0.21677 0.23841 0.30668
 H314 H 0.19194 0.25527 0.28395
 H315 H 0.32815 0.25565 0.22715
 H316 H 0.28833 0.24198 0.18934
 H317 H 0.24761 0.21372 0.30635
 H318 H 0.23900 0.18886 0.28094
 H319 H 0.26261 0.31124 0.21259
 H320 H 0.24178 0.28745 0.18958
 H321 H 0.28673 0.19021 0.23675
 H322 H 0.31256 0.21652 0.23772
 H323 H 0.19301 0.28654 0.23615
 H324 H 0.22876 0.32647 0.25426
 O325 O 0.75051 0.80928 0.22398
 O326 O 0.72791 0.81632 0.25600
 O327 O 0.80865 0.78187 0.25418
 O328 O 0.81670 0.75319 0.27570
 O329 O 0.78075 0.75172 0.19613
 O330 O 0.74980 0.72819 0.19009
 O331 O 0.75147 0.72113 0.31078
 O332 O 0.77626 0.75016 0.31709
 O333 O 0.69378 0.75174 0.28464
 O334 O 0.68845 0.77757 0.25718
 O335 O 0.72013 0.69499 0.25466
 O336 O 0.75101 0.68795 0.22946
 O337 O 0.74997 0.69470 0.28423
 O338 O 0.77533 0.68828 0.25217
 O339 O 0.69394 0.72172 0.25705
 O340 O 0.68918 0.74983 0.22812
 O341 O 0.72069 0.74957 0.31074
 O342 O 0.75106 0.77604 0.31776
 O343 O 0.75015 0.78322 0.19703
 O344 O 0.72528 0.75256 0.19107
 O345 O 0.80749 0.75089 0.22241
 O346 O 0.81296 0.72543 0.25321
 O347 O 0.78224 0.80852 0.25509
 O348 O 0.75170 0.81484 0.27937
 Zr349 Zr 0.75215 0.79131 0.25363
 O350 O 0.73152 0.77234 0.27403
 Zr351 Zr 0.79053 0.75225 0.25262
 O352 O 0.77173 0.73177 0.27353
 Zr353 Zr 0.75119 0.75313 0.21442
 O354 O 0.73083 0.73231 0.23350
 Zr355 Zr 0.75074 0.75098 0.29330
 O356 O 0.77174 0.77167 0.27454
 Zr357 Zr 0.71162 0.75148 0.25496
 O358 O 0.73017 0.77266 0.23416
 Zr359 Zr 0.75019 0.71247 0.25432
 O360 O 0.77074 0.73135 0.23318
 O361 O 0.77225 0.77320 0.23258
 O362 O 0.72991 0.73058 0.27524
 C363 C 0.74967 0.80338 0.20364
 C364 C 0.80248 0.80215 0.25534
 C365 C 0.80106 0.75053 0.20221
 C366 C 0.75086 0.70089 0.30450
 C367 C 0.70031 0.75037 0.30477
 C368 C 0.69997 0.70141 0.25633
 H369 H 0.72228 0.78232 0.28302
 H370 H 0.72135 0.72341 0.22364
 H371 H 0.78168 0.78267 0.22318
 H372 H 0.78173 0.72266 0.28266
 H373 H 0.78764 0.76083 0.31220
 H374 H 0.81173 0.74511 0.28897
 H375 H 0.67415 0.74771 0.23425
 H376 H 0.71391 0.76300 0.19644
 H377 H 0.73854 0.78614 0.31503
 H378 H 0.76159 0.80914 0.29105
 H379 H 0.73958 0.69169 0.21844
 H380 H 0.75956 0.71613 0.19525
 H381 H 0.71633 0.81278 0.24507
 H382 H 0.69022 0.78666 0.24374
 H383 H 0.80816 0.71493 0.24166
 H384 H 0.78558 0.69058 0.26466
 O385 O 0.74749 0.19129 0.78194
 O386 O 0.72669 0.18290 0.75020
 O387 O 0.80619 0.21846 0.75018
 O388 O 0.81501 0.24760 0.73020
 O389 O 0.77843 0.24955 0.80886
 O390 O 0.74763 0.27248 0.81511
 O391 O 0.74869 0.27791 0.69386
 O392 O 0.77317 0.24900 0.68761
 O393 O 0.69135 0.24816 0.72116
 O394 O 0.68577 0.22301 0.74882
 O395 O 0.71825 0.30512 0.74900
 O396 O 0.74869 0.31285 0.77426
 O397 O 0.74808 0.30482 0.71995
 O398 O 0.77362 0.31140 0.75211
 O399 O 0.69161 0.27871 0.74905
 O400 O 0.68736 0.25053 0.77788
 O401 O 0.71788 0.24920 0.69459
 O402 O 0.74866 0.22253 0.68832
 O403 O 0.74817 0.21766 0.80860
 O404 O 0.72286 0.24856 0.81394
 O405 O 0.80545 0.24855 0.78287
 O406 O 0.81018 0.27517 0.75173
 O407 O 0.78022 0.19145 0.75189
 O408 O 0.74954 0.18565 0.72602
 Zr409 Zr 0.75000 0.20878 0.75214
 O410 O 0.72903 0.22748 0.73180
 Zr411 Zr 0.78825 0.24796 0.75259
 O412 O 0.76940 0.26786 0.73118
 Zr413 Zr 0.74895 0.24754 0.79078
 O414 O 0.72877 0.26827 0.77152
 Zr415 Zr 0.74814 0.24839 0.71191
 O416 O 0.76948 0.22821 0.73091
 Zr417 Zr 0.70932 0.24880 0.75065
 O418 O 0.72796 0.22770 0.77140
 Zr419 Zr 0.74812 0.28758 0.75017
 O420 O 0.76852 0.26909 0.77176
 O421 O 0.77004 0.22722 0.77292
 O422 O 0.72752 0.26921 0.72977
 C423 C 0.74711 0.19745 0.80221
 C424 C 0.80035 0.19808 0.75049
 C425 C 0.79881 0.24963 0.80299
 C426 C 0.74852 0.29826 0.69979
 C427 C 0.69759 0.24863 0.70091
 C428 C 0.69798 0.29894 0.74855
 H429 H 0.71968 0.21734 0.72310
 H430 H 0.71943 0.27742 0.78129
 H431 H 0.77940 0.21781 0.78244
 H432 H 0.77939 0.27673 0.72181
 H433 H 0.78501 0.23900 0.69281
 H434 H 0.80951 0.25374 0.71614
 H435 H 0.67222 0.25279 0.77207
 H436 H 0.71202 0.23723 0.80933
 H437 H 0.73592 0.21272 0.69109
 H438 H 0.76095 0.19040 0.71534
 H439 H 0.73741 0.30926 0.78549
 H440 H 0.75652 0.28495 0.80941
 H441 H 0.71368 0.18770 0.75879
 H442 H 0.68782 0.21376 0.76212
 H443 H 0.80624 0.28490 0.76424
 H444 H 0.78363 0.30908 0.73943
 O445 O 0.24852 0.80562 0.78225
 O446 O 0.27404 0.81039 0.75093
 O447 O 0.19122 0.77913 0.74975
 O448 O 0.18216 0.74992 0.72955
 O449 O 0.21743 0.74849 0.80908
 O450 O 0.24793 0.72378 0.81510
 O451 O 0.24849 0.71740 0.69470
 O452 O 0.22270 0.74681 0.68874
 O453 O 0.30534 0.74749 0.72134
 O454 O 0.31037 0.77362 0.74900
 O455 O 0.27796 0.69122 0.75140
 O456 O 0.24676 0.68440 0.77609
 O457 O 0.24786 0.69117 0.72148
 O458 O 0.22288 0.68484 0.75321
 O459 O 0.30472 0.71747 0.74960
 O460 O 0.30972 0.74664 0.77770
 O461 O 0.27863 0.74619 0.69499
 O462 O 0.24885 0.77194 0.68729
 O463 O 0.24929 0.77897 0.80863
 O464 O 0.27256 0.74779 0.81511
 O465 O 0.19098 0.74916 0.78251
 O466 O 0.18567 0.72259 0.75207
 O467 O 0.21746 0.80596 0.75184
 O468 O 0.24621 0.81105 0.72606
 Zr469 Zr 0.24719 0.78791 0.75225
 O470 O 0.26763 0.76863 0.73176
 Zr471 Zr 0.20842 0.74914 0.75253
 O472 O 0.22709 0.72843 0.73176
 Zr473 Zr 0.24725 0.74914 0.79114
 O474 O 0.26766 0.72843 0.77218
 Zr475 Zr 0.24851 0.74738 0.71223
 O476 O 0.22775 0.76834 0.73099
 Zr477 Zr 0.28722 0.74750 0.75090
 O478 O 0.26860 0.76858 0.77174
 Zr479 Zr 0.24813 0.70892 0.75125
 O480 O 0.22751 0.72783 0.77218
 O481 O 0.22678 0.76966 0.77288
 O482 O 0.26892 0.72671 0.73049
 C483 C 0.24969 0.79926 0.80246
 C484 C 0.19729 0.79948 0.75018
 C485 C 0.19715 0.74866 0.80279
 C486 C 0.24808 0.69719 0.70117
 C487 C 0.29895 0.74654 0.70114
 C488 C 0.29827 0.69727 0.75045
 H489 H 0.27704 0.77850 0.72280
 H490 H 0.27699 0.71946 0.78214
 H491 H 0.21748 0.77929 0.78224
 H492 H 0.21707 0.71945 0.72253
 H493 H 0.21184 0.75812 0.69337
 H494 H 0.18729 0.74223 0.71612
 H495 H 0.32467 0.74378 0.77167
 H496 H 0.28466 0.75730 0.80964
 H497 H 0.25977 0.78333 0.69146
 H498 H 0.23606 0.80506 0.71477
 H499 H 0.25801 0.68809 0.78732
 H500 H 0.23731 0.71239 0.81015
 H501 H 0.26869 0.82527 0.75525
 H502 H 0.30617 0.78438 0.76054
 H503 H 0.18982 0.71252 0.76424
 H504 H 0.21212 0.68791 0.74133
 O505 O 0.24739 0.30595 0.71928
 O506 O 0.22471 0.31284 0.75119
 O507 O 0.30620 0.28026 0.75029
 O508 O 0.31481 0.25186 0.77203
 O509 O 0.27957 0.24884 0.69226
 O510 O 0.24923 0.22455 0.68616
 O511 O 0.25007 0.21873 0.80690
 O512 O 0.27428 0.24837 0.81308
 O513 O 0.19196 0.24765 0.78010
 O514 O 0.18616 0.27300 0.75236
 O515 O 0.21995 0.19121 0.75091
 O516 O 0.25105 0.18464 0.72604
 O517 O 0.24988 0.19196 0.78066
 O518 O 0.27540 0.18599 0.74866
 O519 O 0.19314 0.21737 0.75280
 O520 O 0.18785 0.24505 0.72358
 O521 O 0.21874 0.24666 0.80640
 O522 O 0.24849 0.27359 0.81345
 O523 O 0.24822 0.27960 0.69258
 O524 O 0.22405 0.24824 0.68680
 O525 O 0.30614 0.25012 0.71871
 O526 O 0.31186 0.22393 0.74926
 O527 O 0.27920 0.30634 0.75042
 O528 O 0.24838 0.31208 0.77468
 Zr529 Zr 0.24952 0.28837 0.74913
 O530 O 0.22925 0.26907 0.76956
 Zr531 Zr 0.28885 0.25025 0.74874
 O532 O 0.27046 0.22950 0.76973
 Zr533 Zr 0.24981 0.24972 0.71028
 O534 O 0.22986 0.22860 0.72944
 Zr535 Zr 0.24887 0.24839 0.78915
 O536 O 0.26947 0.26943 0.77035
 Zr537 Zr 0.21004 0.24752 0.75056
 O538 O 0.22818 0.26894 0.72968
 Zr539 Zr 0.24957 0.20945 0.75057
 O540 O 0.26979 0.22863 0.72936
 O541 O 0.27014 0.27053 0.72841
 O542 O 0.22869 0.22727 0.77119
 C543 C 0.24702 0.29980 0.69899
 C544 C 0.29957 0.30041 0.75094
 C545 C 0.29986 0.24930 0.69849
 C546 C 0.25032 0.19841 0.80087
 C547 C 0.19840 0.24685 0.80029
 C548 C 0.19964 0.19720 0.75233
 H549 H 0.21970 0.27891 0.77839
 H550 H 0.22067 0.21937 0.71960
 H551 H 0.27932 0.28025 0.71901
 H552 H 0.28062 0.22075 0.77900
 H553 H 0.28549 0.25916 0.80806
 H554 H 0.31007 0.24344 0.78518
 H555 H 0.17283 0.24257 0.72960
 H556 H 0.21247 0.25856 0.69191
 H557 H 0.23606 0.28367 0.81027
 H558 H 0.25856 0.30685 0.78633
 H559 H 0.23975 0.18812 0.71479
 H560 H 0.25924 0.21278 0.69149
 H561 H 0.21314 0.30881 0.74042
 H562 H 0.18779 0.28201 0.73885
 H563 H 0.30764 0.21364 0.73729
 H564 H 0.28568 0.18883 0.76101
 O565 O 0.75121 0.69187 0.72008
 O566 O 0.77550 0.68539 0.75203
 O567 O 0.69348 0.71739 0.75290
 O568 O 0.68535 0.74590 0.77471
 O569 O 0.71937 0.74959 0.69450
 O570 O 0.74970 0.77374 0.68796
 O571 O 0.75105 0.77909 0.80856
 O572 O 0.72592 0.74867 0.81429
 O573 O 0.80808 0.75034 0.78066
 O574 O 0.81346 0.72439 0.75394
 O575 O 0.78013 0.80625 0.75210
 O576 O 0.74825 0.81268 0.72728
 O577 O 0.75008 0.80558 0.78206
 O578 O 0.72504 0.81227 0.75086
 O579 O 0.80691 0.77997 0.75164
 O580 O 0.81150 0.75105 0.72402
 O581 O 0.78196 0.75059 0.80762
 O582 O 0.75581 0.72500 0.81530
 O583 O 0.75122 0.71872 0.69389
 O584 O 0.77438 0.75018 0.68757
 O585 O 0.69297 0.74809 0.72114
 O586 O 0.68782 0.77364 0.75241
 O587 O 0.72031 0.69132 0.75031
 O588 O 0.75154 0.68458 0.77489
 Zr589 Zr 0.75004 0.70923 0.75019
 O590 O 0.77049 0.72847 0.77060
 Zr591 Zr 0.71087 0.74741 0.75097
 O592 O 0.72971 0.76820 0.77159
 Zr593 Zr 0.74938 0.74832 0.71185
 O594 O 0.76972 0.76909 0.73069
 Zr595 Zr 0.75162 0.74934 0.79066
 O596 O 0.73068 0.72807 0.77218
 Zr597 Zr 0.78969 0.74991 0.75140
 O598 O 0.77120 0.72873 0.73061
 Zr599 Zr 0.75035 0.78820 0.75211
 O600 O 0.72963 0.76917 0.73137
 O601 O 0.72919 0.72742 0.73001
 O602 O 0.77161 0.77038 0.77234
 C603 C 0.75190 0.69840 0.69992
 C604 C 0.70001 0.69722 0.75187
 C605 C 0.69913 0.74938 0.70087
 C606 C 0.75033 0.79935 0.80230
 C607 C 0.80216 0.75062 0.80102
 C608 C 0.80047 0.80017 0.75161
 H609 H 0.77986 0.71858 0.77961
 H610 H 0.77877 0.77823 0.72064
 H611 H 0.71986 0.71798 0.72050
 H612 H 0.71971 0.77696 0.78104
 H613 H 0.71643 0.73588 0.81062
 H614 H 0.69111 0.75278 0.78833
 H615 H 0.82668 0.75342 0.72969
 H616 H 0.78637 0.74020 0.69242
 H617 H 0.74829 0.71161 0.80987
 H618 H 0.73873 0.68679 0.78478
 H619 H 0.76020 0.80991 0.71651
 H620 H 0.73970 0.78543 0.69346
 H621 H 0.78570 0.68826 0.73962
 H622 H 0.81139 0.71468 0.74100
 H623 H 0.69180 0.78413 0.74054
 H624 H 0.71418 0.80867 0.76250
 O625 O 0.24880 0.69393 0.28158
 O626 O 0.22355 0.68896 0.25053
 O627 O 0.30637 0.71983 0.24848
 O628 O 0.31570 0.74914 0.22870
 O629 O 0.28076 0.75155 0.30807
 O630 O 0.25027 0.77512 0.31491
 O631 O 0.24972 0.78138 0.19401
 O632 O 0.27396 0.75165 0.18751
 O633 O 0.19219 0.75186 0.22177
 O634 O 0.18703 0.72645 0.24964
 O635 O 0.22032 0.80837 0.25084
 O636 O 0.25180 0.81529 0.27480
 O637 O 0.24962 0.80806 0.22033
 O638 O 0.27571 0.81403 0.25183
 O639 O 0.19335 0.78233 0.24969
 O640 O 0.18871 0.75331 0.27820
 O641 O 0.21830 0.75310 0.19479
 O642 O 0.24803 0.72671 0.18714
 O643 O 0.24988 0.72022 0.30831
 O644 O 0.22533 0.75133 0.31431
 O645 O 0.30726 0.74996 0.28158
 O646 O 0.31212 0.77653 0.25071
 O647 O 0.27995 0.69321 0.25096
 O648 O 0.25095 0.68844 0.22537
 Zr649 Zr 0.25039 0.71147 0.25167
 O650 O 0.22972 0.73078 0.23157
 Zr651 Zr 0.28944 0.74995 0.25166
 O652 O 0.27064 0.77054 0.23084
 Zr653 Zr 0.25089 0.75014 0.29058
 O654 O 0.23063 0.77119 0.27178
 Zr655 Zr 0.24878 0.75167 0.21167
 O656 O 0.26978 0.73086 0.23028
 Zr657 Zr 0.21064 0.75218 0.25094
 O658 O 0.22930 0.73084 0.27143
 Zr659 Zr 0.24998 0.79043 0.25035
 O660 O 0.27052 0.77140 0.27133
 O661 O 0.27114 0.72953 0.27216
 O662 O 0.22875 0.77266 0.23001
 C663 C 0.24866 0.70003 0.30188
 C664 C 0.30014 0.69952 0.24894
 C665 C 0.30101 0.75122 0.30181
 C666 C 0.24992 0.80167 0.20011
 C667 C 0.19811 0.75254 0.20143
 C668 C 0.19995 0.80249 0.25025
 H669 H 0.22010 0.72092 0.22283
 H670 H 0.22154 0.78031 0.28181
 H671 H 0.28056 0.71992 0.28142
 H672 H 0.28066 0.77934 0.22143
 H673 H 0.28517 0.74078 0.19236
 H674 H 0.31022 0.75595 0.21494
 H675 H 0.17370 0.75652 0.27252
 H676 H 0.21397 0.74062 0.30952
 H677 H 0.23636 0.71599 0.19102
 H678 H 0.26119 0.69431 0.21407
 H679 H 0.24085 0.81168 0.28634
 H680 H 0.25996 0.78712 0.30949
 H681 H 0.22894 0.67403 0.25463
 H682 H 0.19163 0.71537 0.26072
 H683 H 0.30828 0.78654 0.26303
 H684 H 0.28578 0.81127 0.23928
 O685 O 0.75083 0.30735 0.28115
 O686 O 0.77407 0.31462 0.24905
 O687 O 0.69271 0.28138 0.25048
 O688 O 0.68418 0.25363 0.22791
 O689 O 0.72030 0.24947 0.30730
 O690 O 0.75079 0.22495 0.31245
 O691 O 0.74987 0.22137 0.19165
 O692 O 0.72409 0.25055 0.18654
 O693 O 0.80689 0.25023 0.21841
 O694 O 0.81279 0.27549 0.24617
 O695 O 0.77964 0.19356 0.24602
 O696 O 0.74952 0.18605 0.27198
 O697 O 0.74858 0.19457 0.21784
 O698 O 0.72448 0.18765 0.25033
 O699 O 0.80653 0.21970 0.24602
 O700 O 0.81172 0.24757 0.27493
 O701 O 0.77989 0.25140 0.19233
 O702 O 0.74949 0.27636 0.18593
 O703 O 0.75221 0.28020 0.30703
 O704 O 0.77566 0.24865 0.31235
 O705 O 0.69346 0.25067 0.28110
 O706 O 0.68763 0.22509 0.25005
 O707 O 0.71916 0.30799 0.25080
 O708 O 0.74940 0.31459 0.22594
 Zr709 Zr 0.74914 0.29025 0.25093
 O710 O 0.76941 0.27148 0.22991
 Zr711 Zr 0.71039 0.25163 0.25089
 O712 O 0.72873 0.23151 0.22931
 Zr713 Zr 0.74988 0.25070 0.28894
 O714 O 0.76985 0.23025 0.26920
 Zr715 Zr 0.74995 0.25093 0.20997
 O716 O 0.72930 0.27145 0.22942
 Zr717 Zr 0.78921 0.24975 0.24819
 O718 O 0.77101 0.27059 0.26967
 Zr719 Zr 0.74997 0.21145 0.24799
 O720 O 0.72980 0.22988 0.26974
 O721 O 0.72909 0.27163 0.27149
 O722 O 0.77053 0.22969 0.22739
 C723 C 0.75234 0.30060 0.30120
 C724 C 0.69889 0.30166 0.25065
 C725 C 0.69994 0.24975 0.30125
 C726 C 0.74883 0.20104 0.19769
 C727 C 0.80028 0.25114 0.19828
 C728 C 0.79998 0.19954 0.24535
 H729 H 0.77871 0.28165 0.22118
 H730 H 0.77925 0.22092 0.27873
 H731 H 0.71998 0.28101 0.28127
 H732 H 0.71855 0.22280 0.22001
 H733 H 0.71289 0.26129 0.19169
 H734 H 0.68866 0.24524 0.21466
 H735 H 0.82671 0.24532 0.26875
 H736 H 0.78744 0.25873 0.30722
 H737 H 0.76023 0.28780 0.19041
 H738 H 0.73867 0.30975 0.21460
 H739 H 0.76117 0.18930 0.28292
 H740 H 0.74081 0.21326 0.30690
 H741 H 0.78509 0.31108 0.26055
 H742 H 0.81094 0.28466 0.25954
 H743 H 0.69183 0.21477 0.26200
 H744 H 0.71369 0.19073 0.23847
 C745 C 0.26557 0.08970 0.07475
 C746 C 0.28110 0.09323 0.05793
 C747 C 0.28242 0.07891 0.03999
 C748 C 0.26831 0.06047 0.03829
 C749 C 0.25265 0.05705 0.05516
 C750 C 0.25146 0.07135 0.07327
 C751 C 0.26384 0.10558 0.09328
 N752 N 0.25220 0.10064 0.11180
 N753 N 0.25059 0.11518 0.12824
 C754 C 0.26045 0.13529 0.12676
 N755 N 0.27206 0.14017 0.10824
 N756 N 0.27376 0.12562 0.09189
 C757 C 0.25850 0.15176 0.14472
 C758 C 0.26408 0.17393 0.14078
 C759 C 0.26233 0.18964 0.15750
 C760 C 0.25519 0.18356 0.17869
 C761 C 0.24968 0.16137 0.18274
 C762 C 0.25118 0.14565 0.16587
 H763 H 0.29232 0.10713 0.05858
 H764 H 0.29483 0.08212 0.02752
 H765 H 0.24070 0.04380 0.05399
 H766 H 0.23907 0.06838 0.08580
 H767 H 0.26969 0.17924 0.12467
 H768 H 0.26678 0.20656 0.15384
 H769 H 0.24402 0.15620 0.19888
 H770 H 0.24680 0.12869 0.16944
 C771 C 0.75929 0.58755 0.57847
 C772 C 0.77659 0.58846 0.56304
 C773 C 0.77678 0.57435 0.54486
 C774 C 0.75966 0.55910 0.54166
 C775 C 0.74237 0.55807 0.55704
 C776 C 0.74230 0.57202 0.57543
 C777 C 0.75868 0.60331 0.59711
 N778 N 0.74544 0.59976 0.61485
 N779 N 0.74465 0.61429 0.63133
 C780 C 0.75695 0.63304 0.63065
 N781 N 0.77019 0.63654 0.61293
 N782 N 0.77108 0.62196 0.59654
 C783 C 0.75573 0.64958 0.64856
 C784 C 0.76284 0.67133 0.64480
 C785 C 0.76148 0.68714 0.66147
 C786 C 0.75329 0.68150 0.68240
 C787 C 0.74637 0.65970 0.68628
 C788 C 0.74740 0.64392 0.66945
 H789 H 0.78996 0.60017 0.56494
 H790 H 0.79019 0.57549 0.53309
 H791 H 0.72879 0.54669 0.55462
 H792 H 0.72866 0.57105 0.58693
 H793 H 0.76924 0.67624 0.62886
 H794 H 0.76703 0.70379 0.65801
 H795 H 0.73988 0.65491 0.70222
 H796 H 0.74185 0.62727 0.67285
 C797 C 0.73976 0.92491 0.09263
 C798 C 0.75330 0.92556 0.07382
 C799 C 0.75239 0.94353 0.05932
 C800 C 0.73758 0.96111 0.06300
 C801 C 0.72404 0.96024 0.08191
 C802 C 0.72509 0.94243 0.09643
 C803 C 0.74120 0.90647 0.10864
 N804 N 0.73194 0.90843 0.12893
 N805 N 0.73336 0.89212 0.14356
 C806 C 0.74402 0.87308 0.13852
 N807 N 0.75323 0.87103 0.11817
 N808 N 0.75190 0.88742 0.10355
 C809 C 0.74563 0.85510 0.15502
 C810 C 0.75203 0.83367 0.14884
 C811 C 0.75322 0.81678 0.16456
 C812 C 0.74832 0.82106 0.18682
 C813 C 0.74209 0.84254 0.19298
 C814 C 0.74065 0.85930 0.17727
 H815 H 0.76504 0.91247 0.07062
 H816 H 0.76394 0.94403 0.04569
 H817 H 0.71225 0.97325 0.08533
 H818 H 0.71432 0.94243 0.11068
 H819 H 0.75593 0.82989 0.13182
 H820 H 0.75817 0.80042 0.15931
 H821 H 0.73812 0.84638 0.20996
 H822 H 0.73575 0.87563 0.18262
 C823 C 0.24094 0.42166 0.58834
 C824 C 0.22376 0.43723 0.58910
 C825 C 0.22389 0.45551 0.57510
 C826 C 0.24123 0.45867 0.56009
 C827 C 0.25841 0.44315 0.55921
 C828 C 0.25816 0.42466 0.57306
 C829 C 0.24119 0.40289 0.60400
 N830 N 0.25443 0.38511 0.60059
 N831 N 0.25491 0.36852 0.61505
 C832 C 0.24228 0.36914 0.63357
 N833 N 0.22905 0.38691 0.63692
 N834 N 0.22847 0.40339 0.62242
 C835 C 0.24323 0.35115 0.65006
 C836 C 0.23573 0.35481 0.67168
 C837 C 0.23700 0.33813 0.68750
 C838 C 0.24548 0.31726 0.68201
 C839 C 0.25270 0.31344 0.66031
 C840 C 0.25176 0.33029 0.64453
 H841 H 0.21023 0.43538 0.60063
 H842 H 0.21056 0.46739 0.57613
 H843 H 0.27215 0.44553 0.54803
 H844 H 0.27172 0.41305 0.57220
 H845 H 0.22915 0.37072 0.67650
 H846 H 0.23121 0.34155 0.70406
 H847 H 0.25941 0.29755 0.65562
 H848 H 0.25760 0.32695 0.62799
 C849 C 0.74121 0.07467 0.91182
 C850 C 0.72402 0.05911 0.91079
 C851 C 0.72384 0.04091 0.92489
 C852 C 0.74086 0.03782 0.94026
 C853 C 0.75814 0.05323 0.94129
 C854 C 0.75820 0.07164 0.92734
 C855 C 0.74159 0.09354 0.89630
 N856 N 0.75475 0.11135 0.89996
 N857 N 0.75522 0.12809 0.88569
 C858 C 0.74266 0.12763 0.86712
 N859 N 0.72951 0.10984 0.86352
 N860 N 0.72894 0.09320 0.87783
 C861 C 0.74356 0.14579 0.85081
 C862 C 0.73607 0.14226 0.82917
 C863 C 0.73725 0.15907 0.81350
 C864 C 0.74564 0.17993 0.81914
 C865 C 0.75285 0.18363 0.84086
 C866 C 0.75199 0.16665 0.85651
 H867 H 0.71067 0.06098 0.89907
 H868 H 0.71044 0.02912 0.92376
 H869 H 0.77162 0.05090 0.95279
 H870 H 0.77176 0.08323 0.92840
 H871 H 0.72956 0.12637 0.82422
 H872 H 0.73146 0.15573 0.79693
 H873 H 0.75948 0.19953 0.84565
 H874 H 0.75782 0.16988 0.87308
 C875 C 0.24275 0.57728 0.41163
 C876 C 0.25973 0.57428 0.42718
 C877 C 0.25987 0.55570 0.44091
 C878 C 0.24281 0.54006 0.43964
 C879 C 0.22573 0.54319 0.42434
 C880 C 0.22571 0.56157 0.41046
 C881 C 0.24309 0.59619 0.39614
 N882 N 0.23050 0.59581 0.37763
 N883 N 0.23112 0.61243 0.36329
 C884 C 0.24426 0.63022 0.36689
 N885 N 0.25674 0.63073 0.38551
 N886 N 0.25622 0.61401 0.39981
 C887 C 0.24523 0.64835 0.35053
 C888 C 0.25364 0.66923 0.35620
 C889 C 0.25450 0.68619 0.34053
 C890 C 0.24732 0.68247 0.31880
 C891 C 0.23899 0.66157 0.31317
 C892 C 0.23781 0.64478 0.32887
 H893 H 0.27318 0.58598 0.42836
 H894 H 0.27340 0.55335 0.45234
 H895 H 0.21250 0.53123 0.42301
 H896 H 0.21236 0.56341 0.39873
 H897 H 0.25942 0.67249 0.37278
 H898 H 0.26109 0.70210 0.34532
 H899 H 0.23323 0.65820 0.29660
 H900 H 0.23133 0.62888 0.32393
 C901 C 0.26182 0.90970 0.92437
 C902 C 0.24946 0.92933 0.92485
 C903 C 0.25067 0.94354 0.94306
 C904 C 0.26457 0.93866 0.96108
 C905 C 0.27691 0.91894 0.96037
 C906 C 0.27560 0.90476 0.94232
 C907 C 0.26007 0.89397 0.90570
 N908 N 0.26874 0.87339 0.90752
 N909 N 0.26706 0.85897 0.89107
 C910 C 0.25670 0.86448 0.87201
 N911 N 0.24809 0.88512 0.87007
 N912 N 0.24970 0.89956 0.88661
 C913 C 0.25475 0.84806 0.85397
 C914 C 0.24816 0.85431 0.83261
 C915 C 0.24663 0.83856 0.81574
 C916 C 0.25141 0.81623 0.81999
 C917 C 0.25786 0.81006 0.84138
 C918 C 0.25960 0.82576 0.85809
 H919 H 0.23844 0.93347 0.91142
 H920 H 0.24008 0.95794 0.94335
 H921 H 0.28802 0.91459 0.97368
 H922 H 0.28547 0.88986 0.94249
 H923 H 0.24434 0.87137 0.82889
 H924 H 0.24154 0.84382 0.79945
 H925 H 0.26175 0.79304 0.84523
 H926 H 0.26464 0.82032 0.87434
 C927 C 0.75936 0.41000 0.42400
 C928 C 0.74240 0.42557 0.42699
 C929 C 0.74235 0.43940 0.44547
 C930 C 0.75948 0.43820 0.46100
 C931 C 0.77655 0.42287 0.45789
 C932 C 0.77648 0.40889 0.43961
 C933 C 0.75893 0.39446 0.40517
 N934 N 0.77144 0.37587 0.40555
 N935 N 0.77071 0.36151 0.38896
 C936 C 0.75754 0.36518 0.37122
 N937 N 0.74514 0.38386 0.37074
 N938 N 0.74576 0.39818 0.38742
 C939 C 0.75646 0.34888 0.35308
 C940 C 0.74787 0.35471 0.33235
 C941 C 0.74680 0.33913 0.31534
 C942 C 0.75397 0.31734 0.31887
 C943 C 0.76250 0.31154 0.33962
 C944 C 0.76388 0.32717 0.35647
 H945 H 0.72889 0.42670 0.41536
 H946 H 0.72881 0.45085 0.44782
 H947 H 0.78983 0.42160 0.46978
 H948 H 0.78982 0.39713 0.43777
 H949 H 0.74209 0.37133 0.32922
 H950 H 0.74006 0.34405 0.29955
 H951 H 0.76825 0.29492 0.34281
 H952 H 0.77051 0.32213 0.37227
 C953 C 0.09008 0.25606 0.07464
 C954 C 0.07035 0.24385 0.07534
 C955 C 0.05603 0.24360 0.05719
 C956 C 0.06092 0.25587 0.03803
 C957 C 0.08072 0.26808 0.03755
 C958 C 0.09499 0.26823 0.05556
 C959 C 0.10590 0.25579 0.09330
 N960 N 0.12637 0.26456 0.09081
 N961 N 0.14089 0.26413 0.10725
 C962 C 0.13558 0.25497 0.12698
 N963 N 0.11506 0.24626 0.12957
 N964 N 0.10052 0.24663 0.11305
 C965 C 0.15208 0.25430 0.14503
 C966 C 0.14601 0.24842 0.16663
 C967 C 0.16180 0.24785 0.18349
 C968 C 0.18402 0.25291 0.17902
 C969 C 0.19003 0.25876 0.15741
 C970 C 0.17426 0.25954 0.14067
 H971 H 0.06622 0.23405 0.08969
 H972 H 0.04152 0.23318 0.05788
 H973 H 0.08505 0.27792 0.02327
 H974 H 0.10997 0.27793 0.05445
 H975 H 0.12905 0.24434 0.17054
 H976 H 0.15666 0.24320 0.19995
 H977 H 0.20696 0.26284 0.15339
 H978 H 0.17955 0.26408 0.12423
 C979 C 0.58738 0.75045 0.58002
 C980 C 0.57304 0.73244 0.57695
 C981 C 0.55916 0.73155 0.55851
 C982 C 0.55906 0.74886 0.54313
 C983 C 0.57311 0.76697 0.54635
 C984 C 0.58715 0.76776 0.56457
 C985 C 0.60312 0.75094 0.59868
 N986 N 0.62088 0.76459 0.59812
 N987 N 0.63550 0.76470 0.61449
 C988 C 0.63293 0.75125 0.63221
 N989 N 0.61506 0.73769 0.63290
 N990 N 0.60049 0.73748 0.61642
 C991 C 0.64959 0.75107 0.65006
 C992 C 0.64460 0.74233 0.67095
 C993 C 0.66055 0.74210 0.68764
 C994 C 0.68191 0.75024 0.68362
 C995 C 0.68687 0.75894 0.66272
 C996 C 0.67085 0.75951 0.64620
 H997 H 0.57297 0.71877 0.58846
 H998 H 0.54873 0.71724 0.55606
 H999 H 0.57338 0.78040 0.53455
 H1000 H 0.59793 0.78189 0.56648
 H1001 H 0.62833 0.73578 0.67443
 H1002 H 0.65630 0.73520 0.70357
 H1003 H 0.70314 0.76543 0.65916
 H1004 H 0.67525 0.76627 0.63026
 C1005 C 0.07620 0.75475 0.91462
 C1006 C 0.07589 0.74091 0.93321
 C1007 C 0.05750 0.74045 0.94719
 C1008 C 0.03908 0.75411 0.94313
 C1009 C 0.03972 0.76818 0.92463
 C1010 C 0.05800 0.76854 0.91066
 C1011 C 0.09483 0.75425 0.89878
 N1012 N 0.09273 0.76392 0.87869
 N1013 N 0.10903 0.76298 0.86402
 C1014 C 0.12819 0.75240 0.86879
 N1015 N 0.13041 0.74285 0.88896
 N1016 N 0.11403 0.74370 0.90363
 C1017 C 0.14600 0.75111 0.85210
 C1018 C 0.16756 0.74477 0.85793
 C1019 C 0.18427 0.74393 0.84197
 C1020 C 0.17965 0.74913 0.81984
 C1021 C 0.15803 0.75524 0.81405
 C1022 C 0.14147 0.75633 0.82998
 H1023 H 0.08955 0.72988 0.93657
 H1024 H 0.05729 0.72863 0.96059
 H1025 H 0.02606 0.77914 0.92100
 H1026 H 0.05773 0.77955 0.89659
 H1027 H 0.17158 0.74070 0.87484
 H1028 H 0.20076 0.73914 0.84694
 H1029 H 0.15390 0.75949 0.79720
 H1030 H 0.12504 0.76117 0.82489
 C1031 C 0.57853 0.25175 0.41239
 C1032 C 0.57494 0.23384 0.42672
 C1033 C 0.55626 0.23331 0.44030
 C1034 C 0.54115 0.25087 0.44009
 C1035 C 0.54488 0.26887 0.42606
 C1036 C 0.56335 0.26931 0.41233
 C1037 C 0.59741 0.25187 0.39689
 N1038 N 0.59730 0.26559 0.37919
 N1039 N 0.61380 0.26535 0.36472
 C1040 C 0.63119 0.25147 0.36736
 N1041 N 0.63145 0.23786 0.38518
 N1042 N 0.61484 0.23800 0.39962
 C1043 C 0.64905 0.25090 0.35073
 C1044 C 0.66992 0.24202 0.35570
 C1045 C 0.68665 0.24175 0.33973
 C1046 C 0.68262 0.24995 0.31843
 C1047 C 0.66171 0.25868 0.31350
 C1048 C 0.64520 0.25929 0.32949
 H1049 H 0.58623 0.21999 0.42701
 H1050 H 0.55342 0.21910 0.45077
 H1051 H 0.53330 0.28250 0.42557
 H1052 H 0.56565 0.28338 0.40155
 H1053 H 0.67337 0.23550 0.37196
 H1054 H 0.70262 0.23492 0.34396
 H1055 H 0.65814 0.26532 0.29730
 H1056 H 0.62929 0.26616 0.32509
 C1057 C 0.92163 0.73945 0.09023
 C1058 C 0.92171 0.75235 0.07097
 C1059 C 0.94014 0.75253 0.05702
 C1060 C 0.95890 0.73957 0.06182
 C1061 C 0.95845 0.72637 0.08097
 C1062 C 0.94012 0.72627 0.09488
 C1063 C 0.90294 0.74036 0.10601
 N1064 N 0.90497 0.73122 0.12636
 N1065 N 0.88867 0.73262 0.14098
 C1066 C 0.86955 0.74316 0.13593
 N1067 N 0.86739 0.75217 0.11551
 N1068 N 0.88378 0.75085 0.10087
 C1069 C 0.85178 0.74510 0.15263
 C1070 C 0.83039 0.75196 0.14678
 C1071 C 0.81379 0.75365 0.16279
 C1072 C 0.81835 0.74877 0.18501
 C1073 C 0.83978 0.74204 0.19080
 C1074 C 0.85623 0.74012 0.17483
 H1075 H 0.90782 0.76289 0.06702
 H1076 H 0.94009 0.76369 0.04307
 H1077 H 0.97229 0.71585 0.08516
 H1078 H 0.94058 0.71596 0.10946
 H1079 H 0.82643 0.75589 0.12981
 H1080 H 0.79745 0.75894 0.15781
 H1081 H 0.84386 0.73804 0.20773
 H1082 H 0.87252 0.73488 0.17996
 C1083 C 0.42144 0.25173 0.58751
 C1084 C 0.43684 0.26909 0.58779
 C1085 C 0.45525 0.26864 0.57397
 C1086 C 0.45869 0.25082 0.55964
 C1087 C 0.44335 0.23346 0.55922
 C1088 C 0.42473 0.23402 0.57288
 C1089 C 0.40262 0.25183 0.60308
 N1090 N 0.38500 0.23825 0.60015
 N1091 N 0.36841 0.23809 0.61462
 C1092 C 0.36888 0.25138 0.63266
 N1093 N 0.38647 0.26496 0.63552
 N1094 N 0.40294 0.26523 0.62102
 C1095 C 0.35098 0.25079 0.64925
 C1096 C 0.35480 0.25893 0.67060
 C1097 C 0.33822 0.25824 0.68652
 C1098 C 0.31728 0.24968 0.68142
 C1099 C 0.31330 0.24174 0.66001
 C1100 C 0.33008 0.24210 0.64412
 H1101 H 0.43477 0.28300 0.59881
 H1102 H 0.46701 0.28209 0.57463
 H1103 H 0.44597 0.21937 0.54853
 H1104 H 0.41327 0.22031 0.57242
 H1105 H 0.37074 0.26565 0.67512
 H1106 H 0.34175 0.26466 0.70282
 H1107 H 0.29732 0.23504 0.65563
 H1108 H 0.32663 0.23578 0.62777
 C1109 C 0.90878 0.25510 0.92560
 C1110 C 0.90705 0.27198 0.94135
 C1111 C 0.92160 0.27295 0.95912
 C1112 C 0.93848 0.25714 0.96169
 C1113 C 0.93988 0.23993 0.94610
 C1114 C 0.92540 0.23910 0.92810
 C1115 C 0.89290 0.25412 0.90704
 N1116 N 0.89700 0.24169 0.88884
 N1117 N 0.88257 0.24103 0.87224
 C1118 C 0.86341 0.25268 0.87324
 N1119 N 0.85934 0.26504 0.89146
 N1120 N 0.87379 0.26579 0.90796
 C1121 C 0.84710 0.25188 0.85507
 C1122 C 0.82529 0.25889 0.85874
 C1123 C 0.80971 0.25813 0.84182
 C1124 C 0.81560 0.25062 0.82070
 C1125 C 0.83746 0.24378 0.81691
 C1126 C 0.85302 0.24425 0.83398
 H1127 H 0.89447 0.28460 0.93991
 H1128 H 0.91988 0.28645 0.97072
 H1129 H 0.95168 0.22666 0.94819
 H1130 H 0.92685 0.22562 0.91647
 H1131 H 0.82015 0.26478 0.87479
 H1132 H 0.79303 0.26358 0.84526
 H1133 H 0.84245 0.23780 0.80084
 H1134 H 0.86971 0.23881 0.83063
 C1135 C 0.41101 0.75068 0.42430
 C1136 C 0.41095 0.76776 0.43999
 C1137 C 0.42475 0.76677 0.45839
 C1138 C 0.43885 0.74869 0.46153
 C1139 C 0.43898 0.73156 0.44595
 C1140 C 0.42534 0.73266 0.42734
 C1141 C 0.39559 0.75143 0.40536
 N1142 N 0.39845 0.73814 0.38753
 N1143 N 0.38419 0.73862 0.37079
 C1144 C 0.36641 0.75229 0.37129
 N1145 N 0.36361 0.76558 0.38909
 N1146 N 0.37792 0.76521 0.40573
 C1147 C 0.35002 0.75237 0.35318
 C1148 C 0.32878 0.76096 0.35680
 C1149 C 0.31297 0.76059 0.34008
 C1150 C 0.31811 0.75194 0.31921
 C1151 C 0.33945 0.74368 0.31540
 C1152 C 0.35521 0.74371 0.33230
 H1153 H 0.40016 0.78188 0.43813
 H1154 H 0.42431 0.78005 0.47034
 H1155 H 0.44946 0.71728 0.44833
 H1156 H 0.42562 0.71915 0.41565
 H1157 H 0.32422 0.76767 0.37271
 H1158 H 0.29670 0.76718 0.34349
 H1159 H 0.34384 0.73682 0.29950
 H1160 H 0.37146 0.73704 0.32900
 C1161 C 0.08909 0.07860 0.23766
 C1162 C 0.06947 0.07882 0.25001
 C1163 C 0.05541 0.06047 0.25009
 C1164 C 0.06046 0.04150 0.23756
 C1165 C 0.07998 0.04164 0.22489
 C1166 C 0.09400 0.05990 0.22490
 C1167 C 0.10495 0.09722 0.23873
 N1168 N 0.12558 0.09493 0.23029
 N1169 N 0.14023 0.11122 0.23179
 C1170 C 0.13491 0.13057 0.24175
 N1171 N 0.11422 0.13297 0.25008
 N1172 N 0.09955 0.11660 0.24866
 C1173 C 0.15156 0.14840 0.24365
 C1174 C 0.14550 0.16995 0.24980
 C1175 C 0.16141 0.18670 0.25114
 C1176 C 0.18373 0.18214 0.24660
 C1177 C 0.18974 0.16052 0.24072
 C1178 C 0.17388 0.14392 0.23917
 H1179 H 0.06531 0.09288 0.26023
 H1180 H 0.04117 0.06075 0.26089
 H1181 H 0.08438 0.02761 0.21472
 H1182 H 0.10888 0.05921 0.21501
 H1183 H 0.12844 0.17395 0.25333
 H1184 H 0.15624 0.20318 0.25571
 H1185 H 0.20674 0.15641 0.23697
 H1186 H 0.17917 0.12750 0.23449
 C1187 C 0.58862 0.57594 0.74722
 C1188 C 0.57400 0.57227 0.76487
 C1189 C 0.55998 0.55392 0.76482
 C1190 C 0.55996 0.53925 0.74691
 C1191 C 0.57430 0.54307 0.72916
 C1192 C 0.58852 0.56120 0.72932
 C1193 C 0.60448 0.59451 0.74774
 N1194 N 0.62255 0.59430 0.73449
 N1195 N 0.63724 0.61061 0.73526
 C1196 C 0.63444 0.62790 0.74921
 N1197 N 0.61628 0.62824 0.76237
 N1198 N 0.60164 0.61182 0.76171
 C1199 C 0.65109 0.64574 0.75021
 C1200 C 0.64589 0.66650 0.75918
 C1201 C 0.66172 0.68333 0.75972
 C1202 C 0.68315 0.67956 0.75167
 C1203 C 0.68837 0.65873 0.74293
 C1204 C 0.67249 0.64208 0.74207
 H1205 H 0.57384 0.58321 0.77898
 H1206 H 0.54934 0.55098 0.77888
 H1207 H 0.57466 0.53182 0.71528
 H1208 H 0.59952 0.56360 0.71545
 H1209 H 0.62951 0.66982 0.76551
 H1210 H 0.65724 0.69922 0.76655
 H1211 H 0.70468 0.65535 0.73643
 H1212 H 0.67706 0.62625 0.73515
 C1213 C 0.92432 0.08929 0.74731
 C1214 C 0.92389 0.06957 0.75953
 C1215 C 0.94220 0.05544 0.75969
 C1216 C 0.96126 0.06051 0.74732
 C1217 C 0.96154 0.08037 0.73523
 C1218 C 0.94336 0.09446 0.73516
 C1219 C 0.90537 0.10478 0.74747
 N1220 N 0.90749 0.12522 0.73854
 N1221 N 0.89074 0.13941 0.73879
 C1222 C 0.87108 0.13380 0.74793
 N1223 N 0.86886 0.11331 0.75681
 N1224 N 0.88568 0.09909 0.75662
 C1225 C 0.85270 0.14995 0.74841
 C1226 C 0.83120 0.14357 0.75441
 C1227 C 0.81405 0.15909 0.75485
 C1228 C 0.81813 0.18131 0.74951
 C1229 C 0.83964 0.18760 0.74350
 C1230 C 0.85666 0.17212 0.74287
 H1231 H 0.90959 0.06525 0.76933
 H1232 H 0.94168 0.04089 0.77006
 H1233 H 0.97574 0.08486 0.72533
 H1234 H 0.94428 0.10946 0.72549
 H1235 H 0.82759 0.12661 0.75872
 H1236 H 0.79768 0.15373 0.75962
 H1237 H 0.84338 0.20455 0.73922
 H1238 H 0.87301 0.17765 0.73822
 C1239 C 0.42298 0.58986 0.24580
 C1240 C 0.44041 0.59207 0.23063
 C1241 C 0.45891 0.57838 0.23194
 C1242 C 0.46039 0.56223 0.24844
 C1243 C 0.44301 0.55992 0.26359
 C1244 C 0.42438 0.57346 0.26216
 C1245 C 0.40391 0.60515 0.24502
 N1246 N 0.38536 0.60112 0.25698
 N1247 N 0.36857 0.61533 0.25680
 C1248 C 0.36968 0.63421 0.24475
 N1249 N 0.38817 0.63815 0.23272
 N1250 N 0.40490 0.62391 0.23281
 C1251 C 0.35151 0.65056 0.24524
 C1252 C 0.35515 0.67218 0.23770
 C1253 C 0.33842 0.68797 0.23884
 C1254 C 0.31754 0.68246 0.24730
 C1255 C 0.31371 0.66073 0.25448
 C1256 C 0.33059 0.64497 0.25360
 H1257 H 0.43985 0.60450 0.21780
 H1258 H 0.47222 0.58051 0.22019
 H1259 H 0.44404 0.54781 0.27670
 H1260 H 0.41134 0.57145 0.27421
 H1261 H 0.37108 0.67707 0.23122
 H1262 H 0.34187 0.70453 0.23306
 H1263 H 0.29780 0.65601 0.26114
 H1264 H 0.32726 0.62842 0.25948
 C1265 C 0.07374 0.90857 0.74631
 C1266 C 0.07126 0.92500 0.76248
 C1267 C 0.05310 0.93931 0.76200
 C1268 C 0.03731 0.93793 0.74497
 C1269 C 0.03978 0.92116 0.72906
 C1270 C 0.05774 0.90679 0.72968
 C1271 C 0.09257 0.89297 0.74684
 N1272 N 0.09198 0.87422 0.73460
 N1273 N 0.10870 0.86000 0.73498
 C1274 C 0.12684 0.86394 0.74751
 N1275 N 0.12753 0.88276 0.75971
 N1276 N 0.11070 0.89696 0.75942
 C1277 C 0.14518 0.84778 0.74801
 C1278 C 0.16609 0.85352 0.75629
 C1279 C 0.18323 0.83800 0.75666
 C1280 C 0.17966 0.81636 0.74907
 C1281 C 0.15875 0.81069 0.74080
 C1282 C 0.14178 0.82623 0.74015
 H1283 H 0.08308 0.92649 0.77580
 H1284 H 0.05109 0.95103 0.77533
 H1285 H 0.02801 0.91944 0.71571
 H1286 H 0.05911 0.89433 0.71695
 H1287 H 0.16923 0.87002 0.76239
 H1288 H 0.19914 0.84282 0.76323
 H1289 H 0.15548 0.79420 0.73475
 H1290 H 0.12588 0.82121 0.73373
 C1291 C 0.57807 0.41348 0.25875
 C1292 C 0.57666 0.43067 0.24323
 C1293 C 0.55824 0.44457 0.24281
 C1294 C 0.54110 0.44183 0.25816
 C1295 C 0.54270 0.42498 0.27395
 C1296 C 0.56097 0.41093 0.27423
 C1297 C 0.59671 0.39766 0.25823
 N1298 N 0.59522 0.37808 0.26902
 N1299 N 0.61152 0.36338 0.26793
 C1300 C 0.63005 0.36766 0.25607
 N1301 N 0.63166 0.38733 0.24543
 N1302 N 0.61528 0.40200 0.24643
 C1303 C 0.64782 0.35095 0.25449
 C1304 C 0.66911 0.35672 0.24725
 C1305 C 0.68579 0.34077 0.24598
 C1306 C 0.68138 0.31868 0.25156
 C1307 C 0.66004 0.31294 0.25859
 C1308 C 0.64351 0.32889 0.26017
 H1309 H 0.58947 0.43297 0.23098
 H1310 H 0.55711 0.45721 0.23021
 H1311 H 0.52959 0.42250 0.28585
 H1312 H 0.56158 0.39791 0.28646
 H1313 H 0.67294 0.37361 0.24281
 H1314 H 0.70209 0.34569 0.24051
 H1315 H 0.65613 0.29611 0.26320
 H1316 H 0.62728 0.32385 0.26570
 C1317 C 0.91329 0.92407 0.25687
 C1318 C 0.91124 0.94180 0.27171
 C1319 C 0.92499 0.96023 0.26993
 C1320 C 0.94102 0.96135 0.25327
 C1321 C 0.94321 0.94363 0.23851
 C1322 C 0.92963 0.92507 0.24042
 C1323 C 0.89783 0.90514 0.25799
 N1324 N 0.90178 0.88629 0.24649
 N1325 N 0.88739 0.86965 0.24690
 C1326 C 0.86840 0.87122 0.25871
 N1327 N 0.86453 0.89002 0.27029
 N1328 N 0.87895 0.90659 0.26997
 C1329 C 0.85186 0.85321 0.25843
 C1330 C 0.83013 0.85725 0.26546
 C1331 C 0.81420 0.84064 0.26449
 C1332 C 0.81966 0.81948 0.25673
 C1333 C 0.84148 0.81526 0.25006
 C1334 C 0.85739 0.83201 0.25075
 H1335 H 0.89887 0.94154 0.28459
 H1336 H 0.92293 0.97380 0.28138
 H1337 H 0.95519 0.94437 0.22527
 H1338 H 0.93152 0.91179 0.22862
 H1339 H 0.82529 0.87340 0.27140
 H1340 H 0.79757 0.84439 0.26988
 H1341 H 0.84617 0.79913 0.24395
 H1342 H 0.87401 0.82836 0.24527
 C1343 C 0.41019 0.42234 0.75406
 C1344 C 0.41054 0.43740 0.77168
 C1345 C 0.42474 0.45554 0.77130
 C1346 C 0.43880 0.45905 0.75326
 C1347 C 0.43850 0.44409 0.73559
 C1348 C 0.42450 0.42573 0.73610
 C1349 C 0.39444 0.40368 0.75416
 N1350 N 0.39736 0.38601 0.74067
 N1351 N 0.38285 0.36947 0.74055
 C1352 C 0.36476 0.37002 0.75379
 N1353 N 0.36187 0.38768 0.76726
 N1354 N 0.37644 0.40412 0.76749
 C1355 C 0.34827 0.35201 0.75329
 C1356 C 0.32676 0.35568 0.76116
 C1357 C 0.31097 0.33892 0.76034
 C1358 C 0.31643 0.31800 0.75197
 C1359 C 0.33802 0.31421 0.74435
 C1360 C 0.35374 0.33112 0.74483
 H1361 H 0.39976 0.43522 0.78576
 H1362 H 0.42460 0.46702 0.78499
 H1363 H 0.44890 0.44679 0.72132
 H1364 H 0.42446 0.41453 0.72219
 H1365 H 0.32201 0.37162 0.76769
 H1366 H 0.29449 0.34229 0.76640
 H1367 H 0.34265 0.29828 0.73769
 H1368 H 0.37020 0.32779 0.73871
 C1369 C 0.08727 0.24586 0.92191
 C1370 C 0.09014 0.23156 0.93990
 C1371 C 0.07624 0.23280 0.95818
 C1372 C 0.05890 0.24828 0.95903
 C1373 C 0.05603 0.26259 0.94092
 C1374 C 0.06991 0.26124 0.92250
 C1375 C 0.10297 0.24520 0.90318
 N1376 N 0.09870 0.25609 0.88406
 N1377 N 0.11323 0.25584 0.86754
 C1378 C 0.13266 0.24479 0.86952
 N1379 N 0.13686 0.23387 0.88862
 N1380 N 0.12231 0.23403 0.90506
 C1381 C 0.14924 0.24499 0.85157
 C1382 C 0.17110 0.23849 0.85582
 C1383 C 0.18699 0.23912 0.83917
 C1384 C 0.18136 0.24602 0.81777
 C1385 C 0.15942 0.25221 0.81339
 C1386 C 0.14355 0.25186 0.83016
 H1387 H 0.10327 0.21943 0.93997
 H1388 H 0.07898 0.22141 0.97169
 H1389 H 0.04365 0.27549 0.94136
 H1390 H 0.06747 0.27273 0.90903
 H1391 H 0.17606 0.23317 0.87213
 H1392 H 0.20370 0.23409 0.84306
 H1393 H 0.15458 0.25763 0.79707
 H1394 H 0.12683 0.25688 0.82634
 C1395 C 0.58849 0.74593 0.42569
 C1396 C 0.58870 0.72853 0.44103
 C1397 C 0.57437 0.72867 0.45906
 C1398 C 0.55960 0.74622 0.46219
 C1399 C 0.55929 0.76362 0.44691
 C1400 C 0.57344 0.76336 0.42866
 C1401 C 0.60446 0.74614 0.40719
 N1402 N 0.60145 0.75953 0.38946
 N1403 N 0.61614 0.75991 0.37309
 C1404 C 0.63451 0.74705 0.37386
 N1405 N 0.63748 0.73367 0.39158
 N1406 N 0.62274 0.73318 0.40786
 C1407 C 0.65118 0.74780 0.35602
 C1408 C 0.67269 0.73996 0.35980
 C1409 C 0.68862 0.74094 0.34319
 C1410 C 0.68334 0.74948 0.32230
 C1411 C 0.66176 0.75708 0.31840
 C1412 C 0.64589 0.75642 0.33516
 H1413 H 0.60003 0.71483 0.43919
 H1414 H 0.57499 0.71519 0.47079
 H1415 H 0.54831 0.77753 0.44930
 H1416 H 0.57302 0.77709 0.41723
 H1417 H 0.67731 0.73328 0.37570
 H1418 H 0.70505 0.73480 0.34666
 H1419 H 0.65721 0.76378 0.30248
 H1420 H 0.62944 0.76250 0.33172
 C1421 C 0.92333 0.74580 0.91274
 C1422 C 0.92246 0.75740 0.93279
 C1423 C 0.94059 0.75742 0.94714
 C1424 C 0.95995 0.74558 0.94189
 C1425 C 0.96046 0.73370 0.92192
 C1426 C 0.94245 0.73376 0.90764
 C1427 C 0.90488 0.74668 0.89670
 N1428 N 0.90778 0.73900 0.87588
 N1429 N 0.89155 0.74004 0.86115
 C1430 C 0.87165 0.74877 0.86658
 N1431 N 0.86865 0.75640 0.88745
 N1432 N 0.88496 0.75544 0.90220
 C1433 C 0.85376 0.74985 0.84994
 C1434 C 0.83191 0.75470 0.85605
 C1435 C 0.81510 0.75505 0.84020
 C1436 C 0.81985 0.75077 0.81790
 C1437 C 0.84178 0.74627 0.81181
 C1438 C 0.85848 0.74573 0.82762
 H1439 H 0.90802 0.76702 0.93711
 H1440 H 0.93981 0.76752 0.96186
 H1441 H 0.97481 0.72404 0.91737
 H1442 H 0.94365 0.72444 0.89245
 H1443 H 0.82773 0.75795 0.87310
 H1444 H 0.79839 0.75869 0.84542
 H1445 H 0.84605 0.74287 0.79480
 H1446 H 0.87514 0.74206 0.82229
 C1447 C 0.42357 0.24937 0.41008
 C1448 C 0.42660 0.26672 0.42520
 C1449 C 0.44484 0.26682 0.43939
 C1450 C 0.46005 0.24934 0.43903
 C1451 C 0.45686 0.23188 0.42419
 C1452 C 0.43885 0.23191 0.40984
 C1453 C 0.40512 0.24972 0.39406
 N1454 N 0.40592 0.23692 0.37571
 N1455 N 0.38969 0.23746 0.36093
 C1456 C 0.37188 0.25073 0.36392
 N1457 N 0.37097 0.26346 0.38235
 N1458 N 0.38731 0.26303 0.39709
 C1459 C 0.35409 0.25140 0.34718
 C1460 C 0.33297 0.25946 0.35242
 C1461 C 0.31620 0.25961 0.33651
 C1462 C 0.32037 0.25206 0.31499
 C1463 C 0.34158 0.24427 0.30974
 C1464 C 0.35818 0.24379 0.32568
 H1465 H 0.41522 0.28050 0.42566
 H1466 H 0.44727 0.28066 0.45043
 H1467 H 0.46852 0.21834 0.42354
 H1468 H 0.43697 0.21826 0.39846
 H1469 H 0.32932 0.26540 0.36886
 H1470 H 0.30004 0.26581 0.34100
 H1471 H 0.34531 0.23826 0.29334
 H1472 H 0.37430 0.23760 0.32108
 C1473 C 0.07577 0.74855 0.09136
 C1474 C 0.06311 0.72923 0.08933
 C1475 C 0.04494 0.72858 0.07521
 C1476 C 0.03895 0.74725 0.06294
 C1477 C 0.05147 0.76665 0.06497
 C1478 C 0.06993 0.76721 0.07885
 C1479 C 0.09444 0.74929 0.10707
 N1480 N 0.11085 0.76445 0.10497
 N1481 N 0.12745 0.76508 0.11941
 C1482 C 0.12817 0.75072 0.13661
 N1483 N 0.11175 0.73561 0.13868
 N1484 N 0.09528 0.73486 0.12418
 C1485 C 0.14618 0.75156 0.15305
 C1486 C 0.14281 0.74287 0.17426
 C1487 C 0.15963 0.74346 0.18994
 C1488 C 0.18037 0.75239 0.18469
 C1489 C 0.18386 0.76100 0.16344
 C1490 C 0.16682 0.76080 0.14782
 H1491 H 0.06721 0.71457 0.09870
 H1492 H 0.03534 0.71353 0.07403
 H1493 H 0.04680 0.78138 0.05597
 H1494 H 0.07925 0.78240 0.08026
 H1495 H 0.12706 0.73576 0.17883
 H1496 H 0.15647 0.73661 0.20614
 H1497 H 0.19966 0.76808 0.15898
 H1498 H 0.16988 0.76756 0.13157
 C1499 C 0.57642 0.24743 0.58931
 C1500 C 0.56091 0.23017 0.58945
 C1501 C 0.54280 0.23057 0.57523
 C1502 C 0.53976 0.24825 0.56061
 C1503 C 0.55519 0.26554 0.56037
 C1504 C 0.57352 0.26502 0.57443
 C1505 C 0.59501 0.24732 0.60516
 N1506 N 0.61291 0.26053 0.60221
 N1507 N 0.62937 0.26059 0.61682
 C1508 C 0.62850 0.24756 0.63504
 N1509 N 0.61062 0.23437 0.63795
 N1510 N 0.59427 0.23420 0.62330
 C1511 C 0.64637 0.24791 0.65169
 C1512 C 0.64236 0.24002 0.67311
 C1513 C 0.65898 0.24042 0.68903
 C1514 C 0.68013 0.24840 0.68385
 C1515 C 0.68426 0.25614 0.66238
 C1516 C 0.66747 0.25608 0.64650
 H1517 H 0.56268 0.21636 0.60065
 H1518 H 0.53097 0.21717 0.57577
 H1519 H 0.55288 0.27954 0.54950
 H1520 H 0.58507 0.27865 0.57406
 H1521 H 0.62627 0.23373 0.67768
 H1522 H 0.65529 0.23424 0.70539
 H1523 H 0.70038 0.26248 0.65795
 H1524 H 0.67107 0.26222 0.63012
 C1525 C 0.91285 0.26324 0.07858
 C1526 C 0.91098 0.27993 0.06256
 C1527 C 0.92499 0.28021 0.04427
 C1528 C 0.94109 0.26378 0.04155
 C1529 C 0.94328 0.24733 0.05773
 C1530 C 0.92944 0.24719 0.07618
 C1531 C 0.89684 0.26199 0.09699
 N1532 N 0.90076 0.24901 0.11485
 N1533 N 0.88589 0.24731 0.13097
 C1534 C 0.86641 0.25836 0.12979
 N1535 N 0.86254 0.27137 0.11196
 N1536 N 0.87745 0.27318 0.09594
 C1537 C 0.84955 0.25611 0.14733
 C1538 C 0.82757 0.26228 0.14324
 C1539 C 0.81156 0.26028 0.15967
 C1540 C 0.81721 0.25235 0.18071
 C1541 C 0.83919 0.24614 0.18484
 C1542 C 0.85517 0.24785 0.16825
 H1543 H 0.89846 0.29260 0.06397
 H1544 H 0.92294 0.29298 0.03192
 H1545 H 0.95529 0.23424 0.05573
 H1546 H 0.93121 0.23404 0.08815
 H1547 H 0.82266 0.26857 0.12725
 H1548 H 0.79480 0.26530 0.15599
 H1549 H 0.84402 0.23990 0.20086
 H1550 H 0.87197 0.24297 0.17191
 C1551 C 0.40985 0.74417 0.57933
 C1552 C 0.42465 0.76183 0.57640
 C1553 C 0.43859 0.76250 0.55800
 C1554 C 0.43833 0.74528 0.54251
 C1555 C 0.42377 0.72754 0.54556
 C1556 C 0.40965 0.72700 0.56374
 C1557 C 0.39415 0.74391 0.59807
 N1558 N 0.37607 0.73067 0.59751
 N1559 N 0.36155 0.73076 0.61399
 C1560 C 0.36455 0.74397 0.63182
 N1561 N 0.38273 0.75710 0.63249
 N1562 N 0.39720 0.75713 0.61592
 C1563 C 0.34802 0.74437 0.64981
 C1564 C 0.35335 0.75288 0.67071
 C1565 C 0.33753 0.75333 0.68755
 C1566 C 0.31598 0.74565 0.68367
 C1567 C 0.31070 0.73714 0.66277
 C1568 C 0.32658 0.73636 0.64610
 H1569 H 0.42506 0.77540 0.58801
 H1570 H 0.44941 0.77654 0.55568
 H1571 H 0.42319 0.71420 0.53368
 H1572 H 0.39850 0.71314 0.56554
 H1573 H 0.36976 0.75909 0.67410
 H1574 H 0.34206 0.76001 0.70348
 H1575 H 0.29430 0.73093 0.65931
 H1576 H 0.32192 0.72974 0.63017
 C1577 C 0.26604 0.08741 0.92174
 C1578 C 0.25281 0.06841 0.92323
 C1579 C 0.25430 0.05447 0.94161
 C1580 C 0.26934 0.05898 0.95880
 C1581 C 0.28281 0.07787 0.95690
 C1582 C 0.28120 0.09180 0.93868
 C1583 C 0.26356 0.10321 0.90324
 N1584 N 0.27219 0.12382 0.90487
 N1585 N 0.26966 0.13839 0.88866
 C1586 C 0.25846 0.13300 0.87005
 N1587 N 0.24991 0.11232 0.86829
 N1588 N 0.25234 0.09774 0.88461
 C1589 C 0.25565 0.14953 0.85226
 C1590 C 0.24940 0.14325 0.83083
 C1591 C 0.24755 0.15906 0.81405
 C1592 C 0.25162 0.18149 0.81849
 C1593 C 0.25746 0.18773 0.84003
 C1594 C 0.25956 0.17196 0.85664
 H1595 H 0.24077 0.06471 0.91057
 H1596 H 0.24290 0.04075 0.94281
 H1597 H 0.29483 0.08184 0.96951
 H1598 H 0.29180 0.10618 0.93798
 H1599 H 0.24629 0.12608 0.82693
 H1600 H 0.24294 0.15373 0.79764
 H1601 H 0.26076 0.20483 0.84405
 H1602 H 0.26424 0.17742 0.87299
 C1603 C 0.75862 0.58770 0.42401
 C1604 C 0.77602 0.58864 0.43932
 C1605 C 0.77648 0.57438 0.45739
 C1606 C 0.75955 0.55893 0.46060
 C1607 C 0.74223 0.55777 0.44526
 C1608 C 0.74188 0.57189 0.42698
 C1609 C 0.75762 0.60381 0.40565
 N1610 N 0.74423 0.60048 0.38797
 N1611 N 0.74310 0.61536 0.37179
 C1612 C 0.75518 0.63425 0.37275
 N1613 N 0.76855 0.63752 0.39041
 N1614 N 0.76978 0.62261 0.40648
 C1615 C 0.75370 0.65116 0.35518
 C1616 C 0.76069 0.67286 0.35938
 C1617 C 0.75949 0.68897 0.34298
 C1618 C 0.75157 0.68371 0.32185
 C1619 C 0.74459 0.66199 0.31757
 C1620 C 0.74547 0.64590 0.33414
 H1621 H 0.78922 0.60055 0.43747
 H1622 H 0.78992 0.57563 0.46911
 H1623 H 0.72879 0.54622 0.44768
 H1624 H 0.72817 0.57087 0.41556
 H1625 H 0.76698 0.67749 0.37544
 H1626 H 0.76507 0.70551 0.34681
 H1627 H 0.73831 0.65748 0.30146
 H1628 H 0.74000 0.62930 0.33041
 C1629 C 0.73846 0.07937 0.08739
 C1630 C 0.75581 0.07506 0.07258
 C1631 C 0.75544 0.05613 0.05936
 C1632 C 0.73752 0.04147 0.06039
 C1633 C 0.72004 0.04595 0.07487
 C1634 C 0.72050 0.06468 0.08825
 C1635 C 0.73944 0.09841 0.10265
 N1636 N 0.72638 0.09890 0.12082
 N1637 N 0.72772 0.11546 0.13515
 C1638 C 0.74210 0.13233 0.13188
 N1639 N 0.75504 0.13202 0.11357
 N1640 N 0.75379 0.11534 0.09928
 C1641 C 0.74397 0.15019 0.14841
 C1642 C 0.75325 0.17078 0.14300
 C1643 C 0.75472 0.18751 0.15889
 C1644 C 0.74734 0.18375 0.18055
 C1645 C 0.73827 0.16310 0.18591
 C1646 C 0.73646 0.14660 0.17001
 H1647 H 0.76995 0.08595 0.07167
 H1648 H 0.76927 0.05272 0.04856
 H1649 H 0.70614 0.03475 0.07600
 H1650 H 0.70686 0.06755 0.09942
 H1651 H 0.75914 0.17401 0.12645
 H1652 H 0.76184 0.20326 0.15433
 H1653 H 0.73229 0.15972 0.20241
 H1654 H 0.72935 0.13090 0.17476
 C1655 C 0.24227 0.57644 0.58913
 C1656 C 0.25914 0.57354 0.57345
 C1657 C 0.25897 0.55526 0.55932
 C1658 C 0.24169 0.53984 0.56030
 C1659 C 0.22464 0.54296 0.57566
 C1660 C 0.22494 0.56102 0.58994
 C1661 C 0.24302 0.59489 0.60516
 N1662 N 0.23074 0.59405 0.62387
 N1663 N 0.23169 0.61026 0.63866
 C1664 C 0.24487 0.62807 0.63533
 N1665 N 0.25707 0.62902 0.61654
 N1666 N 0.25622 0.61271 0.60179
 C1667 C 0.24600 0.64586 0.65206
 C1668 C 0.25407 0.66694 0.64663
 C1669 C 0.25468 0.68372 0.66252
 C1670 C 0.24758 0.67961 0.68421
 C1671 C 0.23979 0.65846 0.68965
 C1672 C 0.23886 0.64184 0.67374
 H1673 H 0.27280 0.58503 0.57253
 H1674 H 0.27250 0.55292 0.54788
 H1675 H 0.21123 0.53118 0.57678
 H1676 H 0.21165 0.56281 0.60174
 H1677 H 0.25966 0.67055 0.63006
 H1678 H 0.26086 0.69983 0.65786
 H1679 H 0.23412 0.65479 0.70619
 H1680 H 0.23267 0.62576 0.67849
 C1681 C 0.74043 0.91954 0.91447
 C1682 C 0.72350 0.93530 0.91262
 C1683 C 0.72303 0.95367 0.92648
 C1684 C 0.73948 0.95673 0.94245
 C1685 C 0.75625 0.94088 0.94462
 C1686 C 0.75662 0.92232 0.93087
 C1687 C 0.74162 0.90098 0.89863
 N1688 N 0.75479 0.88320 0.90243
 N1689 N 0.75619 0.86691 0.88770
 C1690 C 0.74462 0.86784 0.86852
 N1691 N 0.73145 0.88557 0.86479
 N1692 N 0.72995 0.90176 0.87954
 C1693 C 0.74648 0.85019 0.85174
 C1694 C 0.73991 0.85432 0.82991
 C1695 C 0.74146 0.83787 0.81391
 C1696 C 0.74934 0.81676 0.81938
 C1697 C 0.75592 0.81254 0.84122
 C1698 C 0.75467 0.82917 0.85722
 H1699 H 0.71072 0.93361 0.90026
 H1700 H 0.71001 0.96577 0.92449
 H1701 H 0.76930 0.94314 0.95663
 H1702 H 0.76995 0.91053 0.93262
 H1703 H 0.73367 0.87036 0.82511
 H1704 H 0.73617 0.84163 0.79727
 H1705 H 0.76214 0.79645 0.84590
 H1706 H 0.75983 0.82550 0.87392
 C1707 C 0.24463 0.42206 0.41086
 C1708 C 0.22740 0.43756 0.40953
 C1709 C 0.22683 0.45571 0.42369
 C1710 C 0.24350 0.45886 0.43944
 C1711 C 0.26070 0.44337 0.44092
 C1712 C 0.26114 0.42500 0.42691
 C1713 C 0.24567 0.40352 0.39495
 N1714 N 0.25866 0.38561 0.39871
 N1715 N 0.25976 0.36923 0.38404
 C1716 C 0.24805 0.37021 0.36495
 N1717 N 0.23508 0.38810 0.36124
 N1718 N 0.23387 0.40436 0.37594
 C1719 C 0.24950 0.35242 0.34824
 C1720 C 0.24313 0.35663 0.32637
 C1721 C 0.24425 0.34007 0.31044
 C1722 C 0.25147 0.31874 0.31601
 C1723 C 0.25784 0.31444 0.33789
 C1724 C 0.25705 0.33119 0.35382
 H1725 H 0.21439 0.43575 0.39743
 H1726 H 0.21349 0.46752 0.42219
 H1727 H 0.27394 0.44572 0.45269
 H1728 H 0.27472 0.41345 0.42823
 H1729 H 0.23737 0.37283 0.32147
 H1730 H 0.23915 0.34393 0.29376
 H1731 H 0.26358 0.29819 0.34265
 H1732 H 0.26204 0.32744 0.37056
 C1733 C 0.26216 0.91238 0.07868
 C1734 C 0.24610 0.92881 0.07525
 C1735 C 0.24712 0.94246 0.05663
 C1736 C 0.26444 0.94019 0.04139
 C1737 C 0.28070 0.92413 0.04506
 C1738 C 0.27956 0.91035 0.06347
 C1739 C 0.26041 0.89674 0.09738
 N1740 N 0.27176 0.87743 0.09696
 N1741 N 0.26986 0.86291 0.11331
 C1742 C 0.25661 0.86710 0.13087
 N1743 N 0.24536 0.88651 0.13144
 N1744 N 0.24715 0.90100 0.11496
 C1745 C 0.25436 0.85056 0.14871
 C1746 C 0.24661 0.85650 0.16976
 C1747 C 0.24514 0.84069 0.18658
 C1748 C 0.25103 0.81860 0.18252
 C1749 C 0.25842 0.81270 0.16137
 C1750 C 0.26021 0.82849 0.14474
 H1751 H 0.23242 0.93068 0.08658
 H1752 H 0.23421 0.95451 0.05388
 H1753 H 0.29412 0.92205 0.03345
 H1754 H 0.29224 0.89795 0.06566
 H1755 H 0.24201 0.87340 0.17330
 H1756 H 0.23931 0.84571 0.20270
 H1757 H 0.26319 0.79586 0.15770
 H1758 H 0.26610 0.82333 0.12868
 C1759 C 0.75717 0.40978 0.57880
 C1760 C 0.74064 0.42579 0.57567
 C1761 C 0.74125 0.43981 0.55733
 C1762 C 0.75863 0.43837 0.54207
 C1763 C 0.77534 0.42269 0.54541
 C1764 C 0.77460 0.40852 0.56354
 C1765 C 0.75592 0.39384 0.59728
 N1766 N 0.76776 0.37483 0.59659
 N1767 N 0.76635 0.36011 0.61282
 C1768 C 0.75313 0.36381 0.63052
 N1769 N 0.74138 0.38291 0.63133
 N1770 N 0.74268 0.39759 0.61499
 C1771 C 0.75151 0.34716 0.64832
 C1772 C 0.74357 0.35284 0.66936
 C1773 C 0.74262 0.33702 0.68618
 C1774 C 0.74923 0.31514 0.68215
 C1775 C 0.75682 0.30944 0.66101
 C1776 C 0.75810 0.32528 0.64436
 H1777 H 0.72691 0.42705 0.58704
 H1778 H 0.72798 0.45152 0.55480
 H1779 H 0.78882 0.42122 0.53376
 H1780 H 0.78764 0.39645 0.56551
 H1781 H 0.73840 0.36958 0.67291
 H1782 H 0.73660 0.34187 0.70228
 H1783 H 0.76211 0.29275 0.65738
 H1784 H 0.76415 0.32033 0.62830
 C1785 C 0.07802 0.08614 0.75564
 C1786 C 0.06023 0.08916 0.77018
 C1787 C 0.04174 0.07551 0.76912
 C1788 C 0.04050 0.05824 0.75361
 C1789 C 0.05838 0.05524 0.73903
 C1790 C 0.07700 0.06889 0.74018
 C1791 C 0.09697 0.10160 0.75613
 N1792 N 0.11569 0.09749 0.74447
 N1793 N 0.13235 0.11188 0.74451
 C1794 C 0.13091 0.13101 0.75614
 N1795 N 0.11225 0.13502 0.76786
 N1796 N 0.09567 0.12062 0.76789
 C1797 C 0.14888 0.14758 0.75559
 C1798 C 0.14488 0.16921 0.76293
 C1799 C 0.16140 0.18519 0.76187
 C1800 C 0.18244 0.17991 0.75369
 C1801 C 0.18665 0.15819 0.74671
 C1802 C 0.16996 0.14220 0.74750
 H1803 H 0.06047 0.10223 0.78235
 H1804 H 0.02840 0.07834 0.78069
 H1805 H 0.05763 0.04290 0.72613
 H1806 H 0.09029 0.06633 0.72852
 H1807 H 0.12883 0.17394 0.76922
 H1808 H 0.15767 0.20173 0.76756
 H1809 H 0.20271 0.15364 0.74032
 H1810 H 0.17358 0.12565 0.74181
 C1811 C 0.57804 0.59054 0.26113
 C1812 C 0.56066 0.59275 0.27636
 C1813 C 0.54235 0.57877 0.27538
 C1814 C 0.54100 0.56232 0.25916
 C1815 C 0.55837 0.55996 0.24401
 C1816 C 0.57682 0.57379 0.24511
 C1817 C 0.59685 0.60618 0.26146
 N1818 N 0.61546 0.60215 0.24960
 N1819 N 0.63203 0.61663 0.24939
 C1820 C 0.63062 0.63581 0.26093
 N1821 N 0.61206 0.63977 0.27285
 N1822 N 0.59556 0.62526 0.27315
 C1823 C 0.64862 0.65235 0.26012
 C1824 C 0.64480 0.67411 0.26719
 C1825 C 0.66146 0.68997 0.26589
 C1826 C 0.68246 0.68441 0.25773
 C1827 C 0.68643 0.66258 0.25097
 C1828 C 0.66963 0.64675 0.25200
 H1829 H 0.56110 0.60543 0.28893
 H1830 H 0.52905 0.58097 0.28713
 H1831 H 0.55743 0.54765 0.23110
 H1832 H 0.58983 0.57175 0.23304
 H1833 H 0.62880 0.67900 0.27348
 H1834 H 0.65790 0.70660 0.27140
 H1835 H 0.70244 0.65779 0.24460
 H1836 H 0.67313 0.63010 0.24650
 C1837 C 0.08941 0.92479 0.25068
 C1838 C 0.09198 0.94260 0.26533
 C1839 C 0.07797 0.96086 0.26417
 C1840 C 0.06113 0.96173 0.24833
 C1841 C 0.05835 0.94392 0.23379
 C1842 C 0.07224 0.92552 0.23508
 C1843 C 0.10511 0.90605 0.25122
 N1844 N 0.10084 0.88703 0.24013
 N1845 N 0.11535 0.87048 0.24021
 C1846 C 0.13478 0.87234 0.25125
 N1847 N 0.13898 0.89134 0.26236
 N1848 N 0.12445 0.90781 0.26238
 C1849 C 0.15127 0.85430 0.25094
 C1850 C 0.17315 0.85845 0.25744
 C1851 C 0.18889 0.84166 0.25704
 C1852 C 0.18312 0.82020 0.25038
 C1853 C 0.16121 0.81597 0.24399
 C1854 C 0.14548 0.83289 0.24412
 H1855 H 0.10496 0.94255 0.27761
 H1856 H 0.08044 0.97449 0.27547
 H1857 H 0.04567 0.94446 0.22121
 H1858 H 0.06991 0.91214 0.22347
 H1859 H 0.17820 0.87477 0.26269
 H1860 H 0.20559 0.84547 0.26216
 H1861 H 0.15628 0.79962 0.23870
 H1862 H 0.12875 0.82917 0.23905
 C1863 C 0.58742 0.42097 0.74455
 C1864 C 0.58735 0.43626 0.72710
 C1865 C 0.57342 0.45460 0.72764
 C1866 C 0.55933 0.45812 0.74566
 C1867 C 0.55933 0.44291 0.76314
 C1868 C 0.57307 0.42435 0.76247
 C1869 C 0.60298 0.40213 0.74433
 N1870 N 0.59993 0.38444 0.75778
 N1871 N 0.61433 0.36780 0.75788
 C1872 C 0.63244 0.36825 0.74466
 N1873 N 0.63544 0.38592 0.73120
 N1874 N 0.62098 0.40246 0.73099
 C1875 C 0.64894 0.35023 0.74528
 C1876 C 0.67048 0.35391 0.73751
 C1877 C 0.68635 0.33724 0.73863
 C1878 C 0.68095 0.31638 0.74721
 C1879 C 0.65930 0.31252 0.75461
 C1880 C 0.64350 0.32936 0.75385
 H1881 H 0.59817 0.43411 0.71304
 H1882 H 0.57380 0.46626 0.71410
 H1883 H 0.54891 0.44559 0.77741
 H1884 H 0.57289 0.41299 0.77625
 H1885 H 0.67522 0.36982 0.73088
 H1886 H 0.70285 0.34066 0.73265
 H1887 H 0.65470 0.29661 0.76134
 H1888 H 0.62700 0.32602 0.75986
 C1889 C 0.91143 0.07831 0.23824
 C1890 C 0.90849 0.06029 0.22392
 C1891 C 0.92268 0.04214 0.22484
 C1892 C 0.94006 0.04159 0.24012
 C1893 C 0.94319 0.05963 0.25430
 C1894 C 0.92914 0.07792 0.25324
 C1895 C 0.89558 0.09693 0.23811
 N1896 N 0.90018 0.11607 0.24884
 N1897 N 0.88554 0.13249 0.24933
 C1898 C 0.86564 0.13039 0.23922
 N1899 N 0.86108 0.11128 0.22842
 N1900 N 0.87576 0.09493 0.22784
 C1901 C 0.84900 0.14827 0.24039
 C1902 C 0.82683 0.14402 0.23503
 C1903 C 0.81095 0.16064 0.23672
 C1904 C 0.81691 0.18200 0.24354
 C1905 C 0.83913 0.18637 0.24858
 C1906 C 0.85498 0.16964 0.24717
 H1907 H 0.89507 0.06010 0.21212
 H1908 H 0.91990 0.02833 0.21384
 H1909 H 0.95624 0.05935 0.26651
 H1910 H 0.93177 0.09145 0.26460
 H1911 H 0.82165 0.12773 0.22981
 H1912 H 0.79400 0.15678 0.23255
 H1913 H 0.84424 0.20265 0.25389
 H1914 H 0.87194 0.17347 0.25133
 C1915 C 0.41069 0.57684 0.75357
 C1916 C 0.42529 0.57345 0.73584
 C1917 C 0.43933 0.55511 0.73558
 C1918 C 0.43937 0.54014 0.75327
 C1919 C 0.42513 0.54375 0.77114
 C1920 C 0.41090 0.56187 0.77128
 C1921 C 0.39466 0.59528 0.75329
 N1922 N 0.37657 0.59471 0.76649
 N1923 N 0.36172 0.61088 0.76592
 C1924 C 0.36437 0.62840 0.75221
 N1925 N 0.38256 0.62910 0.73910
 N1926 N 0.39736 0.61281 0.73956
 C1927 C 0.34756 0.64611 0.75147
 C1928 C 0.35263 0.66706 0.74288
 C1929 C 0.33668 0.68379 0.74261
 C1930 C 0.31526 0.67974 0.75056
 C1931 C 0.31016 0.65870 0.75887
 C1932 C 0.32616 0.64214 0.75947
 H1933 H 0.42538 0.58459 0.72187
 H1934 H 0.44989 0.55235 0.72143
 H1935 H 0.42479 0.53228 0.78485
 H1936 H 0.39994 0.56405 0.78521
 H1937 H 0.36900 0.67062 0.73663
 H1938 H 0.34106 0.69982 0.73601
 H1939 H 0.29384 0.65509 0.76522
 H1940 H 0.32169 0.62615 0.76608
 C1941 C 0.91986 0.91309 0.73936
 C1942 C 0.92251 0.92950 0.75554
 C1943 C 0.94116 0.94310 0.75546
 C1944 C 0.95728 0.94085 0.73895
 C1945 C 0.95432 0.92492 0.72242
 C1946 C 0.93583 0.91115 0.72264
 C1947 C 0.90127 0.89726 0.74055
 N1948 N 0.90220 0.87792 0.72929
 N1949 N 0.88610 0.86309 0.73109
 C1950 C 0.86830 0.86699 0.74414
 N1951 N 0.86721 0.88644 0.75523
 N1952 N 0.88342 0.90124 0.75354
 C1953 C 0.85083 0.85007 0.74650
 C1954 C 0.82971 0.85560 0.75437
 C1955 C 0.81325 0.83944 0.75613
 C1956 C 0.81776 0.81740 0.75041
 C1957 C 0.83901 0.81190 0.74289
 C1958 C 0.85527 0.82804 0.74082
 H1959 H 0.91059 0.93130 0.76873
 H1960 H 0.94334 0.95499 0.76861
 H1961 H 0.96661 0.92283 0.70961
 H1962 H 0.93423 0.89876 0.70988
 H1963 H 0.82580 0.87245 0.75886
 H1964 H 0.79705 0.84417 0.76202
 H1965 H 0.84301 0.79511 0.73823
 H1966 H 0.87141 0.82320 0.73485
 C1967 C 0.42328 0.41361 0.24677
 C1968 C 0.42455 0.43036 0.26277
 C1969 C 0.44302 0.44419 0.26381
 C1970 C 0.46034 0.44181 0.24860
 C1971 C 0.45891 0.42538 0.23237
 C1972 C 0.44060 0.41141 0.23147
 C1973 C 0.40454 0.39790 0.24652
 N1974 N 0.40608 0.37866 0.23514
 N1975 N 0.38966 0.36408 0.23545
 C1976 C 0.37093 0.36811 0.24707
 N1977 N 0.36926 0.38745 0.25831
 N1978 N 0.38576 0.40201 0.25810
 C1979 C 0.35302 0.35147 0.24775
 C1980 C 0.33158 0.35713 0.25464
 C1981 C 0.31479 0.34122 0.25503
 C1982 C 0.31924 0.31929 0.24887
 C1983 C 0.34073 0.31367 0.24220
 C1984 C 0.35736 0.32957 0.24151
 H1985 H 0.41158 0.43239 0.27489
 H1986 H 0.44400 0.45651 0.27672
 H1987 H 0.47216 0.42318 0.22057
 H1988 H 0.44012 0.39873 0.21889
 H1989 H 0.32772 0.37388 0.25952
 H1990 H 0.29841 0.34603 0.26031
 H1991 H 0.34471 0.29696 0.23724
 H1992 H 0.37371 0.32462 0.23624
   
