data_POSCAR
  _audit_creation_date              2014-09-24
  _audit_creation_method            'ToBaCCo'
  _symmetry_space_group_name_H-M    'P1'
  _symmetry_Int_Tables_number       1
  _symmetry_cell_setting            triclinic
  loop_
  _symmetry_equiv_pos_as_xyz
 x,y,z
_cell_length_a 51.7556
_cell_length_b 52.0739
_cell_length_c 53.1079
_cell_angle_alpha 90.035100
_cell_angle_beta 90.061400
_cell_angle_gamma 89.920300
loop_
  _atom_site_label
  _atom_site_type_symbol
  _atom_site_fract_x
  _atom_site_fract_y
  _atom_site_fract_z
C1 C 0.36791 1.37290 0.33296
 C2 C 0.34850 1.38461 0.34751
 C3 C 0.33677 1.37176 0.36787
 C4 C 0.34615 1.34716 0.37451
 C5 C 0.36635 1.33559 0.36094
 C6 C 0.37693 1.34852 0.34027
 H7 H 0.34021 1.40246 0.34092
 H8 H 0.33798 1.33695 0.39036
 H9 H 0.39290 1.33972 0.33031
 C10 C 0.36532 0.85697 0.82043
 C11 C 0.34177 0.86721 0.82875
 C12 C 0.32921 0.85766 0.85031
 C13 C 0.34132 0.83760 0.86388
 C14 C 0.36488 0.82693 0.85562
 C15 C 0.37668 0.83681 0.83392
 H16 H 0.33391 0.88366 0.81890
 H17 H 0.33208 0.82945 0.88030
 H18 H 0.39436 0.82817 0.82701
 C19 C 0.85811 1.36239 0.82457
 C20 C 0.86931 1.34096 0.83651
 C21 C 0.85987 1.33245 0.85995
 C22 C 0.83889 1.34539 0.87099
 C23 C 0.82770 1.36715 0.85956
 C24 C 0.83795 1.37563 0.83652
 H25 H 0.88510 1.33084 0.82749
 H26 H 0.83170 1.33868 0.88896
 H27 H 0.82933 1.39186 0.82691
 C28 C 0.86437 0.86515 0.32470
 C29 C 0.84412 0.87635 0.33860
 C30 C 0.83394 0.86447 0.36009
 C31 C 0.84449 0.84101 0.36825
 C32 C 0.86521 0.82961 0.35519
 C33 C 0.87468 0.84159 0.33329
 H34 H 0.83482 0.89365 0.33182
 H35 H 0.83704 0.83203 0.38514
 H36 H 0.89070 0.83276 0.32345
 C37 C 0.63151 0.63589 0.33378
 C38 C 0.65585 0.62763 0.34255
 C39 C 0.66775 0.64003 0.36310
 C40 C 0.65495 0.66063 0.37478
 C41 C 0.63089 0.66924 0.36601
 C42 C 0.61924 0.65661 0.34569
 H43 H 0.66565 0.61193 0.33316
 H44 H 0.66377 0.67003 0.39084
 H45 H 0.60111 0.66379 0.33826
 C46 C 0.63540 0.14029 0.82804
 C47 C 0.62276 0.15983 0.84174
 C48 C 0.63461 0.17198 0.86219
 C49 C 0.65926 0.16412 0.86974
 C50 C 0.67238 0.14466 0.85683
 C51 C 0.66055 0.13284 0.83587
 H52 H 0.60438 0.16731 0.83529
 H53 H 0.66833 0.17315 0.88588
 H54 H 0.67083 0.11767 0.82616
 C55 C 1.16016 0.65469 0.80755
 C56 C 1.18169 0.64469 0.82047
 C57 C 1.19177 0.65735 0.84161
 C58 C 1.18025 0.68013 0.84983
 C59 C 1.15863 0.69025 0.83751
 C60 C 1.14838 0.67736 0.81650
 H61 H 1.19068 0.62706 0.81404
 H62 H 1.18770 0.68970 0.86647
 H63 H 1.13184 0.68538 0.80675
 C64 C 1.13113 0.13429 0.32808
 C65 C 1.15461 0.12564 0.33908
 C66 C 1.16354 0.13580 0.36231
 C67 C 1.14935 0.15590 0.37341
 C68 C 1.12716 0.16587 0.36205
 C69 C 1.11786 0.15467 0.33993
 H70 H 1.16474 0.10956 0.33076
 H71 H 1.15628 0.16506 0.39043
 H72 H 1.10114 0.16332 0.33106
 C73 C 0.64983 1.35705 0.68445
 C74 C 0.67152 1.36574 0.67103
 C75 C 0.68084 1.35228 0.64981
 C76 C 0.66743 1.33013 0.64202
 C77 C 0.64519 1.32170 0.65463
 C78 C 0.63663 1.33513 0.67595
 H79 H 0.68172 1.38245 0.67795
 H80 H 0.67377 1.31963 0.62555
 H81 H 0.61980 1.32840 0.68608
 C82 C 0.63918 0.86601 1.17390
 C83 C 0.66143 0.87410 1.16107
 C84 C 0.67032 0.86072 1.13980
 C85 C 0.65638 0.83936 1.13115
 C86 C 0.63408 0.83097 1.14372
 C87 C 0.62554 0.84449 1.16503
 H88 H 0.67249 0.89013 1.16835
 H89 H 0.66285 0.82929 1.11445
 H90 H 0.60852 0.83799 1.17501
 C91 C 1.14284 1.35820 1.17603
 C92 C 1.16425 1.36758 1.16230
 C93 C 1.17449 1.35382 1.14164
 C94 C 1.16182 1.33133 1.13387
 C95 C 1.14012 1.32205 1.14658
 C96 C 1.13088 1.33536 1.16765
 H97 H 1.17461 1.38415 1.16927
 H98 H 1.16809 1.32145 1.11700
 H99 H 1.11389 1.32804 1.17708
 C100 C 1.14892 0.85366 0.68083
 C101 C 1.17085 0.86292 0.66815
 C102 C 1.18014 0.85047 0.64651
 C103 C 1.16716 0.82876 0.63741
 C104 C 1.14507 0.81937 0.64959
 C105 C 1.13608 0.83193 0.67132
 H106 H 1.18090 0.87966 0.67527
 H107 H 1.17446 0.81900 0.62085
 H108 H 1.11924 0.82459 0.68101
 C109 C 0.35721 0.64731 0.68306
 C110 C 0.36935 0.66668 0.66925
 C111 C 0.35906 0.67516 0.64633
 C112 C 0.33620 0.66391 0.63707
 C113 C 0.32337 0.64433 0.65072
 C114 C 0.33441 0.63626 0.67378
 H115 H 0.38685 0.67538 0.67652
 H116 H 0.32811 0.67125 0.61971
 H117 H 0.32578 0.62084 0.68450
 C118 C 0.36630 0.12865 1.17223
 C119 C 0.37799 0.15012 1.16114
 C120 C 0.36661 0.16238 1.14033
 C121 C 0.34315 0.15281 1.13066
 C122 C 0.33118 0.13140 1.14178
 C123 C 0.34310 0.11930 1.16231
 H124 H 0.39571 0.15764 1.16914
 H125 H 0.33398 0.16227 1.11483
 H126 H 0.33390 0.10290 1.17107
 C127 C 0.85438 0.65015 1.18283
 C128 C 0.86132 0.67294 1.17009
 C129 C 0.84722 0.68160 1.14913
 C130 C 0.82572 0.66763 1.14093
 C131 C 0.81832 0.64501 1.15319
 C132 C 0.83278 0.63628 1.17388
 H133 H 0.87813 0.68378 1.17590
 H134 H 0.81464 0.67448 1.12496
 H135 H 0.82634 0.61914 1.18351
 C136 C 0.86570 0.14201 0.67885
 C137 C 0.87625 0.16200 0.66451
 C138 C 0.86492 0.16974 0.64187
 C139 C 0.84218 0.15777 0.63349
 C140 C 0.83066 0.13784 0.64765
 C141 C 0.84311 0.12987 0.67004
 H142 H 0.89385 0.17140 0.67058
 H143 H 0.83308 0.16492 0.61652
 H144 H 0.83496 0.11436 0.68095
 C145 C 1.37352 0.36889 0.66969
 C146 C 1.35047 0.37940 0.66042
 C147 C 1.33817 0.36874 0.63930
 C148 C 1.34905 0.34691 0.62770
 C149 C 1.37263 0.33632 0.63640
 C150 C 1.38467 0.34787 0.65736
 H151 H 1.34187 0.39571 0.66995
 H152 H 1.33970 0.33909 0.61115
 H153 H 1.40177 0.33930 0.66559
 C154 C 1.35220 0.85042 1.18859
 C155 C 1.33328 0.86402 1.17517
 C156 C 1.32382 0.85451 1.15216
 C157 C 1.33410 0.83154 1.14238
 C158 C 1.35299 0.81747 1.15570
 C159 C 1.36177 0.82733 1.17883
 H160 H 1.32539 0.88155 1.18304
 H161 H 1.32651 0.82426 1.12479
 H162 H 1.37734 0.81790 1.18885
 C163 C 0.85969 0.35957 1.17106
 C164 C 0.87218 0.33838 1.15975
 C165 C 0.86272 0.32776 1.13697
 C166 C 0.83977 0.33792 1.12677
 C167 C 0.82640 0.35785 1.13866
 C168 C 0.83675 0.36904 1.16038
 H169 H 0.88998 0.33128 1.16793
 H170 H 0.83128 0.32946 1.11007
 H171 H 0.82641 0.38456 1.16954
 C172 C 0.85911 0.86194 0.67392
 C173 C 0.87218 0.83988 0.66534
 C174 C 0.86323 0.82643 0.64407
 C175 C 0.84107 0.83531 0.63151
 C176 C 0.82765 0.85702 0.64005
 C177 C 0.83696 0.87039 0.66111
 H178 H 0.88909 0.83309 0.67537
 H179 H 0.83433 0.82542 0.61480
 H180 H 0.82634 0.88680 0.66825
 C181 C 0.63854 0.63924 0.67605
 C182 C 0.62597 0.66041 0.66518
 C183 C 0.63700 0.67383 0.64507
 C184 C 0.66095 0.66576 0.63556
 C185 C 0.67409 0.64465 0.64604
 C186 C 0.66272 0.63142 0.66643
 H187 H 0.60785 0.66707 0.67307
 H188 H 0.66922 0.67575 0.61960
 H189 H 0.67268 0.61525 0.67486
 C190 C 0.63983 1.14276 1.17694
 C191 C 0.63116 1.16469 1.16396
 C192 C 0.64522 1.17469 1.14340
 C193 C 0.66765 1.16158 1.13562
 C194 C 0.67615 1.13931 1.14793
 C195 C 0.66216 1.13001 1.16854
 H196 H 0.61450 1.17491 1.17116
 H197 H 0.67802 1.16792 1.11906
 H198 H 0.66887 1.11300 1.17830
 C199 C 0.13450 0.63989 1.17591
 C200 C 0.15856 0.63182 1.16604
 C201 C 0.16966 0.64450 1.14528
 C202 C 0.15671 0.66546 1.13446
 C203 C 0.13343 0.67470 1.14462
 C204 C 0.12248 0.66151 1.16505
 H205 H 0.16848 0.61540 1.17399
 H206 H 0.16568 0.67537 1.11882
 H207 H 0.10448 0.66848 1.17280
 C208 C 0.12750 1.12416 0.66622
 C209 C 0.11589 1.14666 0.65703
 C210 C 0.12644 1.16005 0.63636
 C211 C 0.14884 1.14985 0.62479
 C212 C 0.16013 1.12687 0.63338
 C213 C 0.14929 1.11423 0.65410
 H214 H 0.09943 1.15436 0.66709
 H215 H 0.15700 1.15905 0.60836
 H216 H 0.15862 1.09726 0.66165
 C217 C 1.34562 0.66061 0.31459
 C218 C 1.35529 0.68218 0.32748
 C219 C 1.34159 0.69321 0.34775
 C220 C 1.31809 0.68191 0.35497
 C221 C 1.30864 0.65994 0.34292
 C222 C 1.32249 0.64926 0.32279
 H223 H 1.37309 0.69084 0.32100
 H224 H 1.30775 0.68908 0.37125
 H225 H 1.31484 0.63260 0.31310
 C226 C 1.35715 1.15063 0.81853
 C227 C 1.36543 1.17163 0.83308
 C228 C 1.35115 1.18001 0.85423
 C229 C 1.32861 1.16636 0.86071
 C230 C 1.32054 1.14493 0.84675
 C231 C 1.33473 1.13735 0.82559
 H232 H 1.38248 1.18198 0.82714
 H233 H 1.31754 1.17179 0.87716
 H234 H 1.32821 1.12112 0.81452
 C235 C 0.86002 0.63480 0.82532
 C236 C 0.87155 0.65636 0.83650
 C237 C 0.85996 0.66866 0.85720
 C238 C 0.83637 0.65914 0.86653
 C239 C 0.82446 0.63773 0.85530
 C240 C 0.83661 0.62556 0.83491
 H241 H 0.88946 0.66372 0.82884
 H242 H 0.82712 0.66856 0.88233
 H243 H 0.82759 0.60903 0.82618
 C244 C 0.86160 1.13588 0.32630
 C245 C 0.87451 1.15773 0.33561
 C246 C 0.86479 1.17124 0.35645
 C247 C 0.84218 1.16255 0.36813
 C248 C 0.82893 1.14106 0.35906
 C249 C 0.83887 1.12755 0.33831
 H250 H 0.89194 1.16439 0.32644
 H251 H 0.83488 1.17246 0.38461
 H252 H 0.82836 1.11122 0.33093
 C253 C 0.65673 0.34841 0.30788
 C254 C 0.67993 0.35661 0.31893
 C255 C 0.68922 0.34547 0.34107
 C256 C 0.67544 0.32542 0.35240
 C257 C 0.65266 0.31574 0.34122
 C258 C 0.64338 0.32781 0.31915
 H259 H 0.69016 0.37302 0.31137
 H260 H 0.68355 0.31649 0.36904
 H261 H 0.62563 0.32114 0.31064
 C262 C 0.63614 0.86335 0.82530
 C263 C 0.65706 0.87296 0.83925
 C264 C 0.66468 0.86135 0.86191
 C265 C 0.65097 0.83998 0.87072
 C266 C 0.63005 0.82994 0.85702
 C267 C 0.62251 0.84194 0.83445
 H268 H 0.66735 0.88971 0.83251
 H269 H 0.65695 0.83078 0.88807
 H270 H 0.60681 0.83394 0.82347
 C271 C 0.14172 0.36272 0.82110
 C272 C 0.16198 0.37320 0.83538
 C273 C 0.17002 0.36193 0.85793
 C274 C 0.15829 0.33919 0.86616
 C275 C 0.13779 0.32822 0.85243
 C276 C 0.12919 0.34055 0.83029
 H277 H 0.17139 0.39070 0.82929
 H278 H 0.16540 0.32995 0.88307
 H279 H 0.11357 0.33205 0.81959
 C280 C 0.14511 0.85865 0.31630
 C281 C 0.16602 0.86945 0.32946
 C282 C 0.17389 0.85991 0.35284
 C283 C 0.16132 0.83846 0.36310
 C284 C 0.14003 0.82742 0.35058
 C285 C 0.13176 0.83796 0.32750
 H286 H 0.17592 0.88609 0.32199
 H287 H 0.16762 0.83088 0.38108
 H288 H 0.11597 0.82882 0.31756
 O289 O 0.96952 0.90674 0.87439
 O290 O 0.96825 0.87696 0.84487
 C291 C 0.96008 0.89797 0.85406
 C292 C 0.93873 0.91170 0.84139
 C293 C 0.92814 0.90176 0.81918
 H294 H 0.93665 0.88485 0.81062
 O295 O 1.02605 1.09198 0.87530
 O296 O 1.02603 1.12136 0.84541
 C297 C 1.03458 1.10044 0.85448
 C298 C 1.05484 1.08618 0.84064
 C299 C 1.06327 1.09526 0.81722
 H300 H 1.05424 1.11206 0.80900
 O301 O 0.86861 0.97670 0.91084
 O302 O 0.83845 0.97830 0.88151
 C303 C 0.84730 0.96886 0.90181
 C304 C 0.83321 0.94781 0.91441
 C305 C 0.81041 0.93809 0.90385
 H306 H 0.80225 0.94712 0.88727
 O307 O 1.12781 1.02037 0.90458
 O308 O 1.15699 1.02042 0.87434
 C309 C 1.14849 1.02917 0.89512
 C310 C 1.16230 1.05017 0.90827
 C311 C 1.18662 1.05861 0.89991
 H312 H 1.19585 1.04924 0.88406
 O313 O 0.90143 0.87329 0.97444
 O314 O 0.87053 0.84419 0.97522
 C315 C 0.89155 0.85269 0.96606
 C316 C 0.90433 0.83891 0.94502
 C317 C 0.89384 0.81602 0.93555
 H318 H 0.87691 0.80778 0.94438
 O319 O 1.09550 1.12600 0.97240
 O320 O 1.12631 1.15520 0.97246
 C321 C 1.10483 1.14698 0.96421
 C322 C 1.09077 1.16146 0.94445
 C323 C 1.09894 1.18596 0.93675
 H324 H 1.11546 1.19479 0.94581
 O325 O 0.90639 1.02527 0.87692
 O326 O 0.87623 1.02670 0.84757
 C327 C 0.89770 1.03435 0.85642
 C328 C 0.91248 1.05416 0.84277
 C329 C 0.90519 1.06110 0.81831
 H330 H 0.88865 1.05188 0.80970
 O331 O 1.09074 0.97067 0.87152
 O332 O 1.11963 0.97028 0.84105
 C333 C 1.09884 0.96178 0.85073
 C334 C 1.08417 0.94098 0.83804
 C335 C 1.09200 0.93174 0.81439
 H336 H 1.10826 0.94056 0.80493
 O337 O 1.01972 0.86995 0.90754
 O338 O 1.01828 0.84030 0.87790
 C339 C 1.02796 0.84908 0.89812
 C340 C 1.04987 0.83550 0.91000
 C341 C 1.05905 0.81251 0.89957
 H342 H 1.04918 0.80401 0.88360
 O343 O 0.97602 1.12898 0.90893
 O344 O 0.97600 1.15795 0.87867
 C345 C 0.96717 1.14958 0.89939
 C346 C 0.94587 1.16354 0.91205
 C347 C 0.93551 1.18588 0.90127
 H348 H 0.94397 1.19360 0.88423
 O349 O 0.87348 1.09690 0.97560
 O350 O 0.84368 1.12713 0.97687
 C351 C 0.85225 1.10620 0.96768
 C352 C 0.83798 1.09251 0.94728
 C353 C 0.81336 1.10071 0.93893
 H354 H 0.80412 1.11715 0.94762
 O355 O 1.12846 0.90401 0.96919
 O356 O 1.15778 0.87323 0.96884
 C357 C 1.14920 0.89447 0.96053
 C358 C 1.16309 0.90799 0.94023
 C359 C 1.18758 0.89974 0.93249
 H360 H 1.19639 0.88337 0.94170
 O361 O 0.97588 1.09265 0.87553
 O362 O 0.97598 1.12154 0.84516
 C363 C 0.96725 1.10089 0.85465
 C364 C 0.94652 1.08652 0.84164
 C365 C 0.93926 1.09287 0.81691
 H366 H 0.94978 1.10762 0.80688
 O367 O 1.01999 0.90502 0.87304
 O368 O 1.01855 0.87538 0.84339
 C369 C 1.02819 0.89591 0.85231
 C370 C 1.04959 0.90893 0.83877
 C371 C 1.05781 0.89996 0.81513
 H372 H 1.04813 0.88373 0.80654
 O373 O 1.12879 0.97049 0.90342
 O374 O 1.15801 0.97021 0.87324
 C375 C 1.14960 0.96167 0.89406
 C376 C 1.16350 0.94085 0.90750
 C377 C 1.18823 0.93250 0.90000
 H378 H 1.19794 0.94207 0.88459
 O379 O 0.87069 1.02692 0.91106
 O380 O 0.84041 1.02837 0.88184
 C381 C 0.85000 1.03663 0.90234
 C382 C 0.83711 1.05806 0.91579
 C383 C 0.81254 1.06620 0.90818
 H384 H 0.80279 1.05631 0.89293
 O385 O 0.90924 1.13180 0.97512
 O386 O 0.87974 1.16232 0.97632
 C387 C 0.90017 1.15287 0.96681
 C388 C 0.91310 1.16561 0.94516
 C389 C 0.90304 1.18819 0.93413
 H390 H 0.88612 1.19734 0.94213
 O391 O 1.09243 0.86952 0.96885
 O392 O 1.12161 0.83863 0.96808
 C393 C 1.10073 0.84842 0.95992
 C394 C 1.08606 0.83547 0.93957
 C395 C 1.09526 0.81265 0.92852
 H396 H 1.11300 0.80396 0.93524
 O397 O 1.09200 1.02085 0.87088
 O398 O 1.12083 1.02071 0.84034
 C399 C 1.10041 1.02980 0.85021
 C400 C 1.08676 1.05160 0.83813
 C401 C 1.09493 1.06109 0.81464
 H402 H 1.11080 1.05193 0.80481
 O403 O 0.90279 0.97533 0.87522
 O404 O 0.87256 0.97690 0.84596
 C405 C 0.89316 0.96708 0.85469
 C406 C 0.90577 0.94533 0.84143
 C407 C 0.89532 0.93500 0.81904
 H408 H 0.87821 0.94345 0.81068
 O409 O 1.02655 1.12858 0.90849
 O410 O 1.02655 1.15804 0.87869
 C411 C 1.03547 1.14923 0.89924
 C412 C 1.05686 1.16253 0.91241
 C413 C 1.06536 1.18694 0.90479
 H414 H 1.05553 1.19676 0.88955
 O415 O 0.96907 0.87064 0.90796
 O416 O 0.96776 0.84088 0.87844
 C417 C 0.95941 0.85010 0.89904
 C418 C 0.93764 0.83744 0.91235
 C419 C 0.92687 0.81443 0.90320
 H420 H 0.93505 0.80528 0.88671
 O421 O 1.12875 1.08863 0.97058
 O422 O 1.15971 1.11768 0.97040
 C423 C 1.14982 1.09715 0.96173
 C424 C 1.16281 1.08329 0.94095
 C425 C 1.18716 1.09124 0.93249
 H426 H 1.19659 1.10741 0.94146
 O427 O 0.86633 0.90858 0.97538
 O428 O 0.83522 0.87969 0.97591
 C429 C 0.84490 0.90019 0.96708
 C430 C 0.83186 0.91405 0.94631
 C431 C 0.80898 0.90453 0.93544
 H432 H 0.80006 0.88735 0.94291
 Cu433 Cu 0.99468 0.89102 0.89374
 Cu434 Cu 0.99307 0.85539 0.85820
 Cu435 Cu 1.00114 1.10772 0.89518
 Cu436 Cu 1.00116 1.14270 0.85899
 Cu437 Cu 0.89015 1.00085 0.89645
 Cu438 Cu 0.85382 1.00288 0.86134
 Cu439 Cu 1.10695 0.99550 0.89060
 Cu440 Cu 1.14171 0.99534 0.85412
 C441 C 0.92760 0.93360 0.85226
 H442 H 0.93552 0.94106 0.86968
 C443 C 0.90633 0.91296 0.80803
 C444 C 1.06653 1.06420 0.85090
 H445 H 1.06036 1.05732 0.86917
 C446 C 1.08337 1.08306 0.80422
 C447 C 0.84362 0.93587 0.93580
 H448 H 0.86150 0.94304 0.94373
 C449 C 0.79835 0.91634 0.91401
 C450 C 1.15066 1.06255 0.92891
 H451 H 1.13176 1.05643 0.93525
 C452 C 1.19922 1.07901 0.91210
 C453 C 0.92634 0.84934 0.93342
 H454 H 0.93426 0.86724 0.94037
 C455 C 0.90488 0.80368 0.91462
 C456 C 1.06956 1.15013 0.93236
 H457 H 1.06336 1.13114 0.93804
 C458 C 1.08629 1.19892 0.91699
 C459 C 0.93328 1.06682 0.85428
 H460 H 0.93866 1.06185 0.87339
 C461 C 0.91857 1.08020 0.80507
 C462 C 1.06280 0.92958 0.84997
 H463 H 1.05682 0.93638 0.86835
 C464 C 1.07898 0.91122 0.80279
 C465 C 1.06325 0.84664 0.93024
 H466 H 1.05635 0.86454 0.93818
 C467 C 1.08177 0.80110 0.90851
 C468 C 0.93470 1.15373 0.93407
 H469 H 0.94239 1.13621 0.94214
 C470 C 0.91407 1.19827 0.91198
 C471 C 0.84953 1.07107 0.93555
 H472 H 0.86858 1.06481 0.94139
 C473 C 0.80042 1.08729 0.91958
 C474 C 1.15135 0.92865 0.92782
 H475 H 1.13223 0.93477 0.93357
 C476 C 1.20054 0.91199 0.91261
 O477 O 1.02563 0.90496 1.11894
 O478 O 1.02595 0.87454 1.14783
 C479 C 1.03479 0.89544 1.13908
 C480 C 1.05604 0.90859 1.15251
 C481 C 1.06353 0.90018 1.17647
 H482 H 1.05371 0.88397 1.18487
 O483 O 0.98066 1.08916 1.12694
 O484 O 0.98215 1.11917 1.15621
 C485 C 0.97252 1.09856 1.14754
 C486 C 0.95092 1.08600 1.16101
 C487 C 0.94137 1.09644 1.18351
 H488 H 0.95096 1.11284 1.19189
 O489 O 0.87603 1.02708 1.09223
 O490 O 0.84622 1.02777 1.12186
 C491 C 0.85554 1.03661 1.10145
 C492 C 0.84279 1.05860 1.08870
 C493 C 0.82037 1.06956 1.09904
 H494 H 0.81207 1.06159 1.11605
 O495 O 1.13141 0.96954 1.08612
 O496 O 1.16210 0.96823 1.11493
 C497 C 1.15223 0.95986 1.09463
 C498 C 1.16463 0.93810 1.08126
 C499 C 1.18710 0.92663 1.09106
 H500 H 1.19572 0.93420 1.10811
 O501 O 1.09197 0.86983 1.01770
 O502 O 1.12081 0.83860 1.01705
 C503 C 1.10016 0.84839 1.02576
 C504 C 1.08576 0.83492 1.04574
 C505 C 1.09358 0.81044 1.05367
 H506 H 1.11030 0.80157 1.04503
 O507 O 0.91146 1.12996 1.02456
 O508 O 0.88218 1.16068 1.02623
 C509 C 0.90305 1.15062 1.03433
 C510 C 0.91731 1.16233 1.05589
 C511 C 0.90870 1.18537 1.06711
 H512 H 0.89177 1.19498 1.05966
 O513 O 0.90916 0.97476 1.12566
 O514 O 0.87942 0.97483 1.15534
 C515 C 0.89998 0.96554 1.14589
 C516 C 0.91319 0.94337 1.15790
 C517 C 0.90414 0.93263 1.18059
 H518 H 0.88741 0.94089 1.18980
 O519 O 1.09861 1.02057 1.12207
 O520 O 1.12942 1.01920 1.15075
 C521 C 1.10845 1.02868 1.14253
 C522 C 1.09567 1.04974 1.15657
 C523 C 1.10548 1.05808 1.17985
 H524 H 1.12177 1.04811 1.18814
 O525 O 0.97305 0.87120 1.08604
 O526 O 0.97389 0.84074 1.11488
 C527 C 0.96433 0.85030 1.09496
 C528 C 0.94243 0.83727 1.08251
 C529 C 0.93400 0.81327 1.09110
 H530 H 0.94405 0.80401 1.10654
 O531 O 1.03091 1.12291 1.09097
 O532 O 1.03240 1.15283 1.12034
 C533 C 1.04045 1.14356 1.09966
 C534 C 1.06167 1.15651 1.08605
 C535 C 1.07267 1.17902 1.09586
 H536 H 1.06511 1.18728 1.11308
 O537 O 0.86863 0.90962 1.02435
 O538 O 0.83733 0.88094 1.02517
 C539 C 0.84748 0.90155 1.03341
 C540 C 0.83490 0.91608 1.05405
 C541 C 0.81001 0.90949 1.06235
 H542 H 0.79952 0.89419 1.05305
 O543 O 1.13093 1.08799 1.01962
 O544 O 1.16200 1.11695 1.01931
 C545 C 1.15255 1.09615 1.02771
 C546 C 1.16656 1.08172 1.04752
 C547 C 1.19132 1.08949 1.05508
 H548 H 1.20046 1.10566 1.04588
 O549 O 1.03131 1.08822 1.12590
 O550 O 1.03271 1.11812 1.15529
 C551 C 1.04101 1.09715 1.14611
 C552 C 1.06268 1.08329 1.15847
 C553 C 1.07295 1.09161 1.18167
 H554 H 1.06461 1.10818 1.19094
 O555 O 0.97520 0.90591 1.12089
 O556 O 0.97580 0.87540 1.14967
 C557 C 0.96699 0.89658 1.14148
 C558 C 0.94634 0.90996 1.15564
 C559 C 0.93740 0.89986 1.17845
 H560 H 0.94695 0.88324 1.18646
 O561 O 1.13205 1.01973 1.08573
 O562 O 1.16305 1.01862 1.11422
 C563 C 1.15354 1.02783 1.09402
 C564 C 1.16710 1.04858 1.08020
 C565 C 1.19180 1.05686 1.08765
 H566 H 1.20153 1.04748 1.10320
 O567 O 0.87326 0.97707 1.09171
 O568 O 0.84331 0.97770 1.12121
 C569 C 0.85187 0.96910 1.10043
 C570 C 0.83706 0.94925 1.08661
 C571 C 0.81214 0.94245 1.09454
 H572 H 0.80356 0.95215 1.11053
 O573 O 1.09603 1.12355 1.02153
 O574 O 1.12704 1.15255 1.02162
 C575 C 1.10609 1.14375 1.03061
 C576 C 1.09378 1.15663 1.05237
 C577 C 1.10454 1.17912 1.06251
 H578 H 1.12118 1.18782 1.05359
 O579 O 0.90187 0.87241 1.02338
 O580 O 0.87092 0.84338 1.02449
 C581 C 0.89252 0.85179 1.03229
 C582 C 0.90692 0.83794 1.05220
 C583 C 0.89854 0.81395 1.06124
 H584 H 0.88158 0.80496 1.05318
 O585 O 1.09598 0.97071 1.12042
 O586 O 1.12641 0.96920 1.14949
 C587 C 1.10491 0.96140 1.14072
 C588 C 1.09023 0.94087 1.15369
 C589 C 1.09725 0.93240 1.17791
 H590 H 1.11298 0.94175 1.18775
 O591 O 0.91046 1.02489 1.12759
 O592 O 0.88079 1.02523 1.15734
 C593 C 0.90189 1.03356 1.14836
 C594 C 0.91623 1.05423 1.16154
 C595 C 0.90684 1.06502 1.18408
 H596 H 0.88935 1.05757 1.19252
 O597 O 0.98048 1.12371 1.09164
 O598 O 0.98211 1.15368 1.12094
 C599 C 0.97250 1.14489 1.10062
 C600 C 0.95136 1.15928 1.08795
 C601 C 0.94281 1.18254 1.09829
 H602 H 0.95288 1.19052 1.11436
 O603 O 1.02338 0.87010 1.08396
 O604 O 1.02392 0.83968 1.11284
 C605 C 1.03196 0.84880 1.09212
 C606 C 1.05209 0.83490 1.07782
 C607 C 1.05969 0.81008 1.08504
 H608 H 1.04938 0.80047 1.10004
 O609 O 1.12905 0.90301 1.01835
 O610 O 1.15802 0.87192 1.01802
 C611 C 1.14962 0.89296 1.02698
 C612 C 1.16337 0.90541 1.04822
 C613 C 1.18589 0.89429 1.05827
 H614 H 1.19401 0.87730 1.04954
 O615 O 0.87571 1.09553 1.02480
 O616 O 0.84615 1.12602 1.02633
 C617 C 0.85532 1.10489 1.03444
 C618 C 0.84266 1.09173 1.05592
 C619 C 0.82027 1.10228 1.06664
 H620 H 0.81153 1.11919 1.05834
 Cu621 Cu 0.99930 0.89111 1.09952
 Cu622 Cu 1.00003 0.85455 1.13423
 Cu623 Cu 1.00572 1.10290 1.10601
 Cu624 Cu 1.00741 1.13896 1.14111
 Cu625 Cu 0.88764 0.89387 0.99935
 Cu626 Cu 0.85036 0.85914 1.00035
 Cu627 Cu 1.10761 0.88976 0.99351
 Cu628 Cu 1.14253 0.85250 0.99295
 Cu629 Cu 0.89544 1.11063 0.99972
 Cu630 Cu 0.86004 1.14712 1.00159
 Cu631 Cu 1.10965 1.10369 0.99597
 Cu632 Cu 1.14685 1.13852 0.99589
 Cu633 Cu 0.89527 1.00087 1.10643
 Cu634 Cu 0.85944 1.00141 1.14190
 Cu635 Cu 1.11149 0.99531 1.10071
 Cu636 Cu 1.14838 0.99368 1.13517
 C637 C 1.06934 0.92904 1.14132
 H638 H 1.06383 0.93530 1.12262
 C639 C 1.08383 0.91208 1.18954
 C640 C 0.93843 1.06471 1.15037
 H641 H 0.94548 1.05687 1.13277
 C642 C 0.91921 1.08631 1.19508
 C643 C 0.85373 1.06973 1.06699
 H644 H 0.87128 1.06172 1.05913
 C645 C 0.80916 1.09150 1.08827
 C646 C 1.15305 0.92747 1.05971
 H647 H 1.13546 0.93590 1.05235
 C648 C 1.19778 0.90463 1.07981
 C649 C 1.06493 0.84698 1.05784
 H650 H 1.05926 0.86619 1.05226
 C651 C 1.08065 0.79776 1.07327
 C652 C 0.93870 1.14945 1.06656
 H653 H 0.94511 1.13136 1.05863
 C654 C 0.92129 1.19554 1.08847
 C655 C 0.93436 0.93188 1.14568
 H656 H 0.94111 0.93958 1.12793
 C657 C 0.91611 0.91071 1.19095
 C658 C 1.07413 1.06226 1.14624
 H659 H 1.06666 1.05602 1.12819
 C660 C 1.09438 1.07906 1.19260
 C661 C 0.92899 0.84930 1.06287
 H662 H 0.93535 0.86796 1.05634
 C663 C 0.91218 0.80142 1.08059
 C664 C 1.07219 1.14558 1.06415
 H665 H 1.06406 1.12798 1.05672
 C666 C 1.09416 1.19035 1.08431
 C667 C 0.84817 0.93616 1.06616
 H668 H 0.86753 0.94112 1.06014
 C669 C 0.79846 0.92267 1.08252
 C670 C 1.15474 1.06104 1.05997
 H671 H 1.13551 1.05516 1.05437
 C672 C 1.20406 1.07725 1.07508
 O673 O 1.09565 0.52629 0.62437
 O674 O 1.12525 0.52681 0.65424
 C675 C 1.10458 0.53572 0.64467
 C676 C 1.09114 0.55775 0.65673
 C677 C 1.09991 0.56795 0.67976
 H678 H 1.11607 0.55905 0.68938
 O679 O 0.91060 0.47634 0.62869
 O680 O 0.88123 0.47702 0.65873
 C681 C 0.90186 0.46777 0.64941
 C682 C 0.91556 0.44638 0.66229
 C683 C 0.90818 0.43807 0.68650
 H684 H 0.89271 0.44781 0.69640
 O685 O 1.02641 0.62899 0.58579
 O686 O 1.02669 0.66010 0.61398
 C687 C 1.03524 0.65025 0.59376
 C688 C 1.05633 0.66317 0.57994
 C689 C 1.06551 0.68716 0.58796
 H690 H 1.05607 0.69695 0.60344
 O691 O 0.97489 0.37048 0.59131
 O692 O 0.97456 0.34119 0.62127
 C693 C 0.96557 0.35012 0.60076
 C694 C 0.94346 0.33751 0.58803
 C695 C 0.93278 0.31450 0.59722
 H696 H 0.94130 0.30508 0.61341
 O697 O 1.12989 0.59086 0.52135
 O698 O 1.16054 0.62020 0.52047
 C699 C 1.15106 0.59980 0.52977
 C700 C 1.16455 0.58680 0.55096
 C701 C 1.18833 0.59619 0.55977
 H702 H 1.19689 0.61276 0.55074
 O703 O 0.87115 0.40992 0.52691
 O704 O 0.84014 0.38092 0.52739
 C705 C 0.85001 0.40153 0.53583
 C706 C 0.83738 0.41547 0.55682
 C707 C 0.81306 0.40782 0.56593
 H708 H 0.80275 0.39240 0.55664
 O709 O 0.97749 0.59473 0.62293
 O710 O 0.97801 0.62579 0.65119
 C711 C 0.96928 0.60446 0.64337
 C712 C 0.94881 0.59124 0.65777
 C713 C 0.93994 0.60145 0.68063
 H714 H 0.94920 0.61831 0.68846
 O715 O 1.02622 0.40648 0.62319
 O716 O 1.02629 0.37742 0.65340
 C717 C 1.03501 0.39815 0.64392
 C718 C 1.05546 0.41263 0.65731
 C719 C 1.06256 0.40531 0.68167
 H720 H 1.05330 0.38884 0.69020
 O721 O 1.13099 0.47449 0.59206
 O722 O 1.16072 0.47469 0.62180
 C723 C 1.15167 0.46542 0.60150
 C724 C 1.16459 0.44333 0.58899
 C725 C 1.18794 0.43304 0.59828
 H726 H 1.19717 0.44174 0.61449
 O727 O 0.87524 0.52639 0.59357
 O728 O 0.84557 0.52686 0.62333
 C729 C 0.85418 0.53512 0.60243
 C730 C 0.83964 0.55521 0.58847
 C731 C 0.81531 0.56324 0.59705
 H732 H 0.80706 0.55445 0.61369
 O733 O 0.90579 0.62538 0.52160
 O734 O 0.87530 0.65498 0.52144
 C735 C 0.89654 0.64628 0.53002
 C736 C 0.91010 0.66007 0.55065
 C737 C 0.89959 0.68270 0.56082
 H738 H 0.88228 0.69086 0.55258
 O739 O 1.09324 0.36958 0.52770
 O740 O 1.12323 0.33945 0.52708
 C741 C 1.10225 0.34839 0.53575
 C742 C 1.08862 0.33444 0.55596
 C743 C 1.09779 0.31066 0.56452
 H744 H 1.11392 0.30173 0.55492
 O745 O 0.91099 0.52673 0.62788
 O746 O 0.88145 0.52752 0.65775
 C747 C 0.90222 0.53609 0.64824
 C748 C 0.91594 0.55777 0.66032
 C749 C 0.90714 0.56838 0.68312
 H750 H 0.89053 0.56010 0.69246
 O751 O 1.09397 0.47602 0.62474
 O752 O 1.12334 0.47628 0.65484
 C753 C 1.10241 0.46752 0.64559
 C754 C 1.08802 0.44671 0.65864
 C755 C 1.09458 0.43919 0.68331
 H756 H 1.10955 0.44946 0.69340
 O757 O 1.02539 0.36815 0.59222
 O758 O 1.02533 0.33880 0.62212
 C759 C 1.03415 0.34737 0.60152
 C760 C 1.05542 0.33378 0.58845
 C761 C 1.06523 0.31017 0.59730
 H762 H 1.05673 0.30134 0.61378
 O763 O 0.97573 0.62808 0.58674
 O764 O 0.97609 0.65909 0.61503
 C765 C 0.96665 0.64905 0.59523
 C766 C 0.94433 0.66142 0.58249
 C767 C 0.93339 0.68399 0.59241
 H768 H 0.94176 0.69272 0.60904
 O769 O 0.87023 0.59048 0.52324
 O770 O 0.83959 0.61991 0.52294
 C771 C 0.84935 0.59959 0.53225
 C772 C 0.83695 0.58676 0.55427
 C773 C 0.81267 0.59483 0.56356
 H774 H 0.80226 0.61015 0.55417
 O775 O 1.12830 0.40534 0.52805
 O776 O 1.15820 0.37513 0.52771
 C777 C 1.14930 0.39605 0.53650
 C778 C 1.16317 0.40936 0.55717
 C779 C 1.18646 0.39944 0.56663
 H780 H 1.19491 0.38258 0.55795
 O781 O 0.97617 0.40575 0.62588
 O782 O 0.97627 0.37652 0.65592
 C783 C 0.96786 0.39750 0.64689
 C784 C 0.94799 0.41219 0.66085
 C785 C 0.94071 0.40454 0.68513
 H786 H 0.95006 0.38816 0.69383
 O787 O 1.02772 0.59468 0.62114
 O788 O 1.02811 0.62573 0.64939
 C789 C 1.03684 0.60449 0.64116
 C790 C 1.05806 0.59134 0.65483
 C791 C 1.06704 0.60112 0.67785
 H792 H 1.05818 0.61818 0.68573
 O793 O 0.87520 0.47657 0.59421
 O794 O 0.84562 0.47704 0.62408
 C795 C 0.85421 0.46820 0.60339
 C796 C 0.83979 0.44783 0.59005
 C797 C 0.81568 0.43979 0.59901
 H798 H 0.80775 0.44863 0.61577
 O799 O 1.13059 0.52466 0.58960
 O800 O 1.16049 0.52526 0.61918
 C801 C 1.15155 0.53361 0.59838
 C802 C 1.16500 0.55451 0.58452
 C803 C 1.18890 0.56418 0.59293
 H804 H 1.19827 0.55544 0.60904
 O805 O 0.90584 0.37401 0.52693
 O806 O 0.87487 0.34496 0.52720
 C807 C 0.89619 0.35343 0.53560
 C808 C 0.90946 0.33951 0.55611
 C809 C 0.89904 0.31667 0.56555
 H810 H 0.88184 0.30860 0.55701
 O811 O 1.09480 0.62648 0.51998
 O812 O 1.12536 0.65595 0.51946
 C813 C 1.10409 0.64749 0.52805
 C814 C 1.09024 0.66178 0.54800
 C815 C 1.09922 0.68578 0.55635
 H816 H 1.11619 0.69420 0.54777
 Cu817 Cu 1.10990 0.50031 0.60476
 Cu818 Cu 1.14540 0.50080 0.64049
 Cu819 Cu 0.89611 0.50146 0.60825
 Cu820 Cu 0.86056 0.50218 0.64403
 Cu821 Cu 1.00179 0.60857 0.60124
 Cu822 Cu 1.00231 0.64586 0.63515
 Cu823 Cu 1.00060 0.39044 0.60499
 Cu824 Cu 1.00065 0.35553 0.64116
 C825 C 1.07006 0.56951 0.64455
 H826 H 1.06338 0.56204 0.62665
 C827 C 1.08788 0.58959 0.69051
 C828 C 0.93560 0.43334 0.64973
 H829 H 0.94110 0.43921 0.63092
 C830 C 0.92093 0.41730 0.69812
 C831 C 1.06862 0.65077 0.55976
 H832 H 1.06187 0.63206 0.55375
 C833 C 1.08700 0.69854 0.57639
 C834 C 0.93177 0.34966 0.56728
 H835 H 0.93959 0.36756 0.56027
 C836 C 0.91042 0.30411 0.58609
 C837 C 1.15317 0.56583 0.56334
 H838 H 1.13463 0.55878 0.55688
 C839 C 1.20078 0.58504 0.58064
 C840 C 0.85040 0.43573 0.56883
 H841 H 0.86924 0.44160 0.56211
 C842 C 0.80204 0.41994 0.58705
 C843 C 0.93694 0.56922 0.64796
 H844 H 0.94351 0.56150 0.63013
 C845 C 0.91900 0.59032 0.69336
 C846 C 1.06813 0.43348 0.64594
 H847 H 1.06295 0.43898 0.62693
 C848 C 1.08174 0.41857 0.69504
 C849 C 1.15256 0.43141 0.56832
 H850 H 1.13441 0.43892 0.56127
 C851 C 1.19896 0.41098 0.58724
 C852 C 0.85013 0.56685 0.56690
 H853 H 0.86896 0.56077 0.56026
 C854 C 0.80159 0.58287 0.58478
 C855 C 0.93263 0.64972 0.56150
 H856 H 0.94063 0.63204 0.55406
 C857 C 0.91092 0.69467 0.58185
 C858 C 1.06722 0.34558 0.56773
 H859 H 1.06024 0.36404 0.56121
 C860 C 1.08656 0.29843 0.58541
 O861 O 1.09278 0.46902 0.37332
 O862 O 1.12293 0.46814 0.34403
 C863 C 1.10189 0.45971 0.35303
 C864 C 1.08817 0.43836 0.34035
 C865 C 1.09767 0.42746 0.31792
 H866 H 1.11507 0.43509 0.30945
 O867 O 0.90906 0.52198 0.37131
 O868 O 0.87878 0.52190 0.34209
 C869 C 0.89983 0.53076 0.35092
 C870 C 0.91342 0.55186 0.33769
 C871 C 0.90464 0.56045 0.31417
 H872 H 0.88797 0.55134 0.30569
 O873 O 0.97484 0.62625 0.40650
 O874 O 0.97453 0.65564 0.37668
 C875 C 0.96539 0.64665 0.39713
 C876 C 0.94302 0.65936 0.40983
 C877 C 0.93222 0.68222 0.40019
 H878 H 0.94064 0.69106 0.38367
 O879 O 1.02358 0.37023 0.41102
 O880 O 1.02346 0.33879 0.38319
 C881 C 1.03235 0.34888 0.40317
 C882 C 1.05365 0.33601 0.41691
 C883 C 1.06346 0.31243 0.40822
 H884 H 1.05495 0.30333 0.39184
 O885 O 1.12807 0.40537 0.47874
 O886 O 1.15813 0.37530 0.47865
 C887 C 1.14897 0.39614 0.47004
 C888 C 1.16239 0.40912 0.44911
 C889 C 1.18648 0.40006 0.44103
 H890 H 1.19587 0.38462 0.45121
 O891 O 0.86988 0.58892 0.47350
 O892 O 0.83923 0.61835 0.47316
 C893 C 0.84873 0.59754 0.46469
 C894 C 0.83567 0.58358 0.44383
 C895 C 0.81087 0.59085 0.43547
 H896 H 0.80063 0.60623 0.44493
 O897 O 1.02617 0.59069 0.37324
 O898 O 1.02658 0.61990 0.34322
 C899 C 1.03536 0.59916 0.35269
 C900 C 1.05682 0.58493 0.34016
 C901 C 1.06778 0.59394 0.31754
 H902 H 1.06030 0.61124 0.30887
 O903 O 0.97348 0.40368 0.37427
 O904 O 0.97354 0.37226 0.34641
 C905 C 0.96481 0.39364 0.35415
 C906 C 0.94383 0.40660 0.34004
 C907 C 0.93431 0.39603 0.31759
 H908 H 0.94338 0.37902 0.30984
 O909 O 1.12808 0.51931 0.40766
 O910 O 1.15820 0.51839 0.37832
 C911 C 1.14916 0.52765 0.39861
 C912 C 1.16287 0.54901 0.41117
 C913 C 1.18598 0.55838 0.40097
 H914 H 1.19435 0.54923 0.38455
 O915 O 0.87366 0.47262 0.40642
 O916 O 0.84319 0.47221 0.37736
 C917 C 0.85241 0.46396 0.39805
 C918 C 0.83857 0.44389 0.41242
 C919 C 0.81509 0.43382 0.40353
 H920 H 0.80665 0.44110 0.38626
 O921 O 1.09507 0.62563 0.47097
 O922 O 1.12572 0.65499 0.47048
 C923 C 1.10450 0.64625 0.46204
 C924 C 1.09112 0.65987 0.44119
 C925 C 1.10156 0.68254 0.43119
 H926 H 1.11865 0.69077 0.43976
 O927 O 0.90545 0.37350 0.47790
 O928 O 0.87452 0.34441 0.47822
 C929 C 0.89573 0.35282 0.46947
 C930 C 0.90883 0.33889 0.44875
 C931 C 0.89844 0.31594 0.43923
 H932 H 0.88140 0.30772 0.44788
 O933 O 0.90723 0.47156 0.37032
 O934 O 0.87701 0.47134 0.34105
 C935 C 0.89784 0.46233 0.35008
 C936 C 0.91098 0.44027 0.33774
 C937 C 0.90154 0.42933 0.31521
 H938 H 0.88480 0.43762 0.30603
 O939 O 1.09188 0.51940 0.37414
 O940 O 1.12199 0.51857 0.34480
 C941 C 1.10123 0.52801 0.35375
 C942 C 1.08855 0.54988 0.34073
 C943 C 1.09890 0.55909 0.31812
 H944 H 1.11502 0.54912 0.30952
 O945 O 0.97304 0.37085 0.41090
 O946 O 0.97298 0.33943 0.38304
 C947 C 0.96403 0.34969 0.40292
 C948 C 0.94233 0.33732 0.41637
 C949 C 0.93166 0.31440 0.40717
 H950 H 0.93985 0.30539 0.39060
 O951 O 1.02583 0.62769 0.40581
 O952 O 1.02585 0.65718 0.37608
 C953 C 1.03494 0.64829 0.39653
 C954 C 1.05706 0.66121 0.40919
 C955 C 1.06804 0.68384 0.39926
 H956 H 1.05972 0.69256 0.38262
 O957 O 0.87129 0.40977 0.47758
 O958 O 0.84034 0.38071 0.47821
 C959 C 0.85010 0.40104 0.46912
 C960 C 0.83716 0.41384 0.44772
 C961 C 0.81351 0.40440 0.43879
 H962 H 0.80414 0.38859 0.44838
 O963 O 1.12958 0.58939 0.47195
 O964 O 1.16023 0.61874 0.47108
 C965 C 1.15062 0.59786 0.46294
 C966 C 1.16350 0.58365 0.44228
 C967 C 1.18641 0.59301 0.43144
 H968 H 1.19533 0.61027 0.43878
 O969 O 1.02376 0.40365 0.37490
 O970 O 1.02375 0.37224 0.34701
 C971 C 1.03258 0.39352 0.35492
 C972 C 1.05397 0.40616 0.34129
 C973 C 1.06334 0.39584 0.31868
 H974 H 1.05353 0.37958 0.31032
 O975 O 0.97581 0.59129 0.37162
 O976 O 0.97594 0.62049 0.34159
 C977 C 0.96722 0.59970 0.35074
 C978 C 0.94640 0.58549 0.33745
 C979 C 0.93755 0.59354 0.31365
 H980 H 0.94695 0.60948 0.30435
 O981 O 0.87298 0.52235 0.40527
 O982 O 0.84254 0.52205 0.37617
 C983 C 0.85165 0.53077 0.39669
 C984 C 0.83738 0.55103 0.41057
 C985 C 0.81255 0.55838 0.40275
 H986 H 0.80375 0.54900 0.38667
 O987 O 1.12747 0.46939 0.40874
 O988 O 1.15776 0.46855 0.37958
 C989 C 1.14861 0.46045 0.40031
 C990 C 1.16229 0.44015 0.41466
 C991 C 1.18647 0.43069 0.40671
 H992 H 1.19556 0.43854 0.39005
 O993 O 1.09196 0.37112 0.47878
 O994 O 1.12201 0.34104 0.47833
 C995 C 1.10091 0.35026 0.46998
 C996 C 1.08713 0.33682 0.44941
 C997 C 1.09654 0.31326 0.44045
 H998 H 1.11313 0.30442 0.44941
 O999 O 0.90516 0.62435 0.47235
 O1000 O 0.87469 0.65395 0.47203
 C1001 C 0.89576 0.64497 0.46334
 C1002 C 0.90906 0.65830 0.44214
 C1003 C 0.89884 0.68118 0.43225
 H1004 H 0.88195 0.68967 0.44097
 Cu1005 Cu 1.10697 0.49420 0.39385
 Cu1006 Cu 1.14315 0.49331 0.35866
 Cu1007 Cu 0.89389 0.49714 0.39108
 Cu1008 Cu 0.85742 0.49692 0.35616
 Cu1009 Cu 1.10933 0.60511 0.49613
 Cu1010 Cu 1.14609 0.64034 0.49533
 Cu1011 Cu 1.10741 0.39095 0.50348
 Cu1012 Cu 1.14344 0.35475 0.50289
 Cu1013 Cu 0.89066 0.60426 0.49769
 Cu1014 Cu 0.85417 0.63971 0.49730
 Cu1015 Cu 0.89150 0.39479 0.50234
 Cu1016 Cu 0.85432 0.35986 0.50281
 Cu1017 Cu 1.00062 0.60622 0.39232
 Cu1018 Cu 1.00071 0.64130 0.35651
 Cu1019 Cu 0.99846 0.39025 0.39559
 Cu1020 Cu 0.99844 0.35246 0.36217
 C1021 C 1.06624 0.42763 0.35174
 H1022 H 1.05919 0.43550 0.36933
 C1023 C 1.08541 0.40605 0.30696
 C1024 C 0.93441 0.56440 0.34911
 H1025 H 0.94095 0.55819 0.36752
 C1026 C 0.91664 0.58112 0.30182
 C1027 C 0.93129 0.64768 0.43090
 H1028 H 0.93910 0.62987 0.43821
 C1029 C 0.91003 0.69324 0.41120
 C1030 C 1.06550 0.34798 0.43768
 H1031 H 1.05839 0.36639 0.44422
 C1032 C 1.08501 0.30107 0.41975
 C1033 C 1.15055 0.42933 0.43602
 H1034 H 1.13174 0.43610 0.44204
 C1035 C 1.19857 0.41049 0.41980
 C1036 C 0.84864 0.56351 0.43132
 H1037 H 0.86788 0.55803 0.43731
 C1038 C 0.79908 0.57814 0.41507
 C1039 C 1.06737 0.56278 0.35153
 H1040 H 1.05951 0.55593 0.36918
 C1041 C 1.08898 0.58119 0.30652
 C1042 C 0.93227 0.42883 0.34975
 H1043 H 0.93939 0.43680 0.36728
 C1044 C 0.91307 0.40704 0.30506
 C1045 C 1.15196 0.56152 0.43207
 H1046 H 1.13394 0.55453 0.43982
 C1047 C 1.19768 0.58043 0.41079
 C1048 C 0.84939 0.43385 0.43465
 H1049 H 0.86780 0.44101 0.44133
 C1050 C 0.80252 0.41407 0.41666
 C1051 C 1.06872 0.64956 0.43025
 H1052 H 1.06080 0.63188 0.43769
 C1053 C 1.09048 0.69457 0.41005
 C1054 C 0.93095 0.34931 0.43732
 H1055 H 0.93883 0.36723 0.44425
 C1056 C 0.90965 0.30366 0.41836
 O1057 O 0.47703 0.91006 0.37553
 O1058 O 0.47683 0.87979 0.34645
 C1059 C 0.46828 0.90093 0.35504
 C1060 C 0.44764 0.91497 0.34147
 C1061 C 0.43884 0.90661 0.31778
 H1062 H 0.44748 0.88994 0.30891
 O1063 O 0.52932 1.09595 0.37651
 O1064 O 0.52989 1.12542 0.34672
 C1065 C 0.53851 1.10461 0.35601
 C1066 C 0.55991 1.09069 0.34328
 C1067 C 0.57048 1.10011 0.32068
 H1068 H 0.56257 1.11729 0.31212
 O1069 O 0.37210 0.97759 0.40781
 O1070 O 0.34329 0.97711 0.37720
 C1071 C 0.35174 0.96833 0.39798
 C1072 C 0.33849 0.94657 0.41060
 C1073 C 0.31626 0.93513 0.40009
 H1074 H 0.30793 0.94275 0.38292
 O1075 O 0.63057 1.02424 0.41177
 O1076 O 0.66126 1.02418 0.38299
 C1077 C 0.65194 1.03264 0.40353
 C1078 C 0.66586 1.05282 0.41764
 C1079 C 0.69088 1.05983 0.41045
 H1080 H 0.70019 1.04995 0.39494
 O1081 O 0.40704 0.87535 0.47630
 O1082 O 0.37686 0.84549 0.47565
 C1083 C 0.39815 0.85444 0.46758
 C1084 C 0.41238 0.84103 0.44727
 C1085 C 0.40365 0.81734 0.43781
 H1086 H 0.38705 0.80810 0.44626
 O1087 O 0.59699 1.12914 0.47680
 O1088 O 0.62766 1.15849 0.47714
 C1089 C 0.60664 1.14979 0.46824
 C1090 C 0.59351 1.16351 0.44744
 C1091 C 0.60351 1.18666 0.43807
 H1092 H 0.62096 1.19449 0.44628
 O1093 O 0.40885 1.02818 0.37554
 O1094 O 0.38000 1.02835 0.34494
 C1095 C 0.40062 1.03710 0.35477
 C1096 C 0.41491 1.05823 0.34226
 C1097 C 0.40653 1.06791 0.31892
 H1098 H 0.38979 1.05963 0.30974
 O1099 O 0.59577 0.97543 0.37532
 O1100 O 0.62615 0.97537 0.34625
 C1101 C 0.60501 0.96671 0.35488
 C1102 C 0.59135 0.94563 0.34174
 C1103 C 0.60091 0.93514 0.31914
 H1104 H 0.61808 0.94312 0.31054
 O1105 O 0.52665 0.87498 0.41097
 O1106 O 0.52672 0.84451 0.38211
 C1107 C 0.53539 0.85386 0.40255
 C1108 C 0.55635 0.84055 0.41636
 C1109 C 0.56631 0.81705 0.40764
 H1110 H 0.55810 0.80802 0.39107
 O1111 O 0.47855 1.13236 0.40955
 O1112 O 0.47921 1.16211 0.38002
 C1113 C 0.46995 1.15326 0.40038
 C1114 C 0.44854 1.16685 0.41335
 C1115 C 0.44092 1.19180 0.40623
 H1116 H 0.45118 1.20176 0.39140
 O1117 O 0.37019 1.09706 0.47120
 O1118 O 0.34066 1.12758 0.47051
 C1119 C 0.34950 1.10649 0.46211
 C1120 C 0.33627 1.09278 0.44118
 C1121 C 0.31308 1.10195 0.43033
 H1122 H 0.30408 1.11920 0.43762
 O1123 O 0.62977 0.90926 0.47794
 O1124 O 0.65961 0.87899 0.47890
 C1125 C 0.65066 0.89961 0.46961
 C1126 C 0.66424 0.91192 0.44832
 C1127 C 0.68714 0.90121 0.43885
 H1128 H 0.69559 0.88458 0.44795
 O1129 O 0.47884 1.09533 0.37706
 O1130 O 0.47933 1.12487 0.34734
 C1131 C 0.47025 1.10417 0.35644
 C1132 C 0.44900 1.09077 0.34318
 C1133 C 0.44035 1.10000 0.31988
 H1134 H 0.45011 1.11608 0.31113
 O1135 O 0.52732 0.90960 0.37599
 O1136 O 0.52712 0.87920 0.34706
 C1137 C 0.53610 0.90010 0.35569
 C1138 C 0.55752 0.91301 0.34240
 C1139 C 0.56721 0.90285 0.31987
 H1140 H 0.55795 0.88628 0.31145
 O1141 O 0.63097 0.97434 0.41003
 O1142 O 0.66147 0.97422 0.38106
 C1143 C 0.65203 0.96537 0.40134
 C1144 C 0.66509 0.94400 0.41477
 C1145 C 0.68821 0.93312 0.40563
 H1146 H 0.69722 0.94084 0.38886
 O1147 O 0.37173 1.02786 0.40808
 O1148 O 0.34279 1.02745 0.37757
 C1149 C 0.35109 1.03648 0.39824
 C1150 C 0.33718 1.05799 0.41032
 C1151 C 0.31409 1.06716 0.39992
 H1152 H 0.30555 1.05714 0.38409
 O1153 O 0.40723 1.13082 0.47228
 O1154 O 0.37784 1.16153 0.47199
 C1155 C 0.39898 1.15217 0.46398
 C1156 C 0.41394 1.16611 0.44464
 C1157 C 0.40689 1.19110 0.43761
 H1158 H 0.39062 1.20036 0.44670
 O1159 O 0.59333 0.87549 0.47858
 O1160 O 0.62317 0.84521 0.47941
 C1161 C 0.60236 0.85442 0.47041
 C1162 C 0.58906 0.84096 0.44961
 C1163 C 0.59879 0.81762 0.44054
 H1164 H 0.61533 0.80879 0.44962
 O1165 O 0.59594 1.02562 0.37662
 O1166 O 0.62642 1.02573 0.34765
 C1167 C 0.60546 1.03475 0.35650
 C1168 C 0.59252 1.05656 0.34364
 C1169 C 0.60270 1.06630 0.32113
 H1170 H 0.61925 1.05701 0.31256
 O1171 O 0.40914 0.97821 0.37501
 O1172 O 0.38038 0.97846 0.34432
 C1173 C 0.40107 0.96980 0.35398
 C1174 C 0.41531 0.94917 0.34090
 C1175 C 0.40724 0.94098 0.31703
 H1176 H 0.39123 0.95052 0.30774
 O1177 O 0.52904 1.13114 0.41108
 O1178 O 0.52974 1.16073 0.38140
 C1179 C 0.53825 1.15177 0.40207
 C1180 C 0.55976 1.16477 0.41532
 C1181 C 0.56970 1.18819 0.40649
 H1182 H 0.56034 1.19769 0.39080
 O1183 O 0.47634 0.87582 0.41087
 O1184 O 0.47643 0.84545 0.38191
 C1185 C 0.46755 0.85486 0.40221
 C1186 C 0.44636 0.84148 0.41539
 C1187 C 0.43735 0.81792 0.40621
 H1188 H 0.44634 0.80948 0.38975
 O1189 O 0.63125 1.09279 0.47796
 O1190 O 0.66208 1.12198 0.47817
 C1191 C 0.65266 1.10114 0.46969
 C1192 C 0.66633 1.08661 0.44967
 C1193 C 0.69134 1.09361 0.44189
 H1194 H 0.70118 1.10947 0.45095
 O1195 O 0.37195 0.91062 0.47461
 O1196 O 0.34170 0.88083 0.47426
 C1197 C 0.35126 0.90139 0.46546
 C1198 C 0.33857 0.91399 0.44377
 C1199 C 0.31655 0.90289 0.43300
 H1200 H 0.30811 0.88592 0.44143
 Cu1201 Cu 0.50185 0.89569 0.39624
 Cu1202 Cu 0.50173 0.85915 0.36148
 Cu1203 Cu 0.50392 1.11082 0.39656
 Cu1204 Cu 0.50458 1.14620 0.36085
 Cu1205 Cu 0.39326 1.00292 0.39476
 Cu1206 Cu 0.35868 1.00283 0.35797
 Cu1207 Cu 0.61021 0.99980 0.39627
 Cu1208 Cu 0.64684 1.00000 0.36151
 C1209 C 0.43581 0.93637 0.35281
 H1210 H 0.44197 0.94256 0.37134
 C1211 C 0.41876 0.91972 0.30545
 C1212 C 0.57097 1.06877 0.35449
 H1213 H 0.56327 1.06162 0.37210
 C1214 C 0.59203 1.08815 0.30964
 C1215 C 0.34931 0.93592 0.43259
 H1216 H 0.36662 0.94424 0.44064
 C1217 C 0.30543 0.91306 0.41113
 C1218 C 0.65385 1.06603 0.43751
 H1219 H 0.63441 1.06079 0.44299
 C1220 C 0.70377 1.08008 0.42242
 C1221 C 0.43397 0.85278 0.43610
 H1222 H 0.44060 0.87123 0.44296
 C1223 C 0.41607 0.80568 0.41721
 C1224 C 0.57157 1.15283 0.43604
 H1225 H 0.56413 1.13468 0.44283
 C1226 C 0.59174 1.19927 0.41763
 C1227 C 0.43630 1.06972 0.35419
 H1228 H 0.44267 1.06272 0.37237
 C1229 C 0.41908 1.08890 0.30775
 C1230 C 0.56950 0.93456 0.35301
 H1231 H 0.56228 0.94219 0.37063
 C1232 C 0.58900 0.91357 0.30822
 C1233 C 0.56769 0.85220 0.43756
 H1234 H 0.56042 0.87050 0.44419
 C1235 C 0.58766 0.80566 0.41955
 C1236 C 0.43498 1.15430 0.43267
 H1237 H 0.44040 1.13494 0.43799
 C1238 C 0.42028 1.20415 0.41858
 C1239 C 0.34793 1.07069 0.43106
 H1240 H 0.36597 1.06375 0.43887
 C1241 C 0.30197 1.08922 0.40946
 C1242 C 0.65349 0.93338 0.43628
 H1243 H 0.63556 0.94139 0.44330
 C1244 C 0.69921 0.91155 0.41751
 O1245 O 0.52254 0.91015 0.62530
 O1246 O 0.52169 0.88106 0.65545
 C1247 C 0.53064 0.90179 0.64635
 C1248 C 0.55095 0.91599 0.66025
 C1249 C 0.55771 0.90853 0.68475
 H1250 H 0.54771 0.89264 0.69356
 O1251 O 0.47477 1.09656 0.62512
 O1252 O 0.47418 1.12683 0.65417
 C1253 C 0.46568 1.10574 0.64541
 C1254 C 0.44458 1.09195 0.65843
 C1255 C 0.43644 1.09937 0.68260
 H1256 H 0.44635 1.11478 0.69232
 O1257 O 0.36991 1.03101 0.58830
 O1258 O 0.33961 1.03143 0.61746
 C1259 C 0.34884 1.03994 0.59694
 C1260 C 0.33535 1.06076 0.58315
 C1261 C 0.31138 1.07028 0.59145
 H1262 H 0.30221 1.06198 0.60787
 O1263 O 0.62697 0.97805 0.59382
 O1264 O 0.65653 0.97749 0.62376
 C1265 C 0.64785 0.96920 0.60292
 C1266 C 0.66201 0.94892 0.58922
 C1267 C 0.68689 0.94157 0.59684
 H1268 H 0.69589 0.95100 0.61278
 O1269 O 0.59362 0.87562 0.52765
 O1270 O 0.62371 0.84561 0.52846
 C1271 C 0.60266 0.85488 0.53669
 C1272 C 0.58907 0.84170 0.55748
 C1273 C 0.59951 0.81928 0.56798
 H1274 H 0.61690 0.81098 0.56006
 O1275 O 0.40653 1.13010 0.52131
 O1276 O 0.37697 1.16065 0.52096
 C1277 C 0.39767 1.15108 0.52994
 C1278 C 0.41103 1.16430 0.55104
 C1279 C 0.40167 1.18801 0.55961
 H1280 H 0.38574 1.19709 0.54981
 O1281 O 0.40498 0.98029 0.62238
 O1282 O 0.37461 0.98046 0.65148
 C1283 C 0.39551 0.97135 0.64261
 C1284 C 0.40844 0.94966 0.65557
 C1285 C 0.39810 0.93982 0.67799
 H1286 H 0.38131 0.94882 0.68641
 O1287 O 0.59152 1.02877 0.62729
 O1288 O 0.62112 1.02824 0.65718
 C1289 C 0.60056 1.03756 0.64777
 C1290 C 0.58769 1.05945 0.66038
 C1291 C 0.59793 1.06929 0.68278
 H1292 H 0.61431 1.05985 0.69150
 O1293 O 0.47290 0.87345 0.59112
 O1294 O 0.47233 0.84407 0.62098
 C1295 C 0.46371 0.85285 0.60032
 C1296 C 0.44202 0.83983 0.58725
 C1297 C 0.43094 0.81715 0.59689
 H1298 H 0.43898 0.80827 0.61360
 O1299 O 0.52515 1.13111 0.59041
 O1300 O 0.52455 1.16183 0.61898
 C1301 C 0.53381 1.15219 0.59891
 C1302 C 0.55544 1.16510 0.58577
 C1303 C 0.56445 1.18905 0.59411
 H1304 H 0.55471 1.19875 0.60946
 O1305 O 0.37045 0.91135 0.52376
 O1306 O 0.33997 0.88181 0.52342
 C1307 C 0.34910 0.90275 0.53192
 C1308 C 0.33527 0.91704 0.55197
 C1309 C 0.31120 0.90859 0.56099
 H1310 H 0.30205 0.89196 0.55259
 O1311 O 0.63051 1.09381 0.52711
 O1312 O 0.66123 1.12312 0.52733
 C1313 C 0.65155 1.10254 0.53597
 C1314 C 0.66470 1.08886 0.55678
 C1315 C 0.68939 1.09643 0.56468
 H1316 H 0.69878 1.11236 0.55533
 O1317 O 0.52514 1.09773 0.62651
 O1318 O 0.52482 1.12823 0.65530
 C1319 C 0.53391 1.10722 0.64688
 C1320 C 0.55537 1.09382 0.66023
 C1321 C 0.56607 1.10351 0.68281
 H1322 H 0.55821 1.12077 0.69125
 O1323 O 0.47227 0.91051 0.62352
 O1324 O 0.47142 0.88126 0.65353
 C1325 C 0.46288 0.90198 0.64393
 C1326 C 0.44133 0.91586 0.65626
 C1327 C 0.43074 0.90645 0.67874
 H1328 H 0.43877 0.88939 0.68742
 O1329 O 0.62850 1.02782 0.59454
 O1330 O 0.65821 1.02726 0.62433
 C1331 C 0.64967 1.03606 0.60361
 C1332 C 0.66400 1.05641 0.58997
 C1333 C 0.68892 1.06412 0.59755
 H1334 H 0.69829 1.05444 0.61313
 O1335 O 0.36981 0.98098 0.58787
 O1336 O 0.33938 0.98141 0.61692
 C1337 C 0.34863 0.97248 0.59656
 C1338 C 0.33506 0.95142 0.58334
 C1339 C 0.31098 0.94283 0.59196
 H1340 H 0.30196 0.95225 0.60789
 O1341 O 0.59519 1.12907 0.52581
 O1342 O 0.62570 1.15858 0.52625
 C1343 C 0.60428 1.14995 0.53438
 C1344 C 0.59001 1.16396 0.55434
 C1345 C 0.59868 1.18795 0.56297
 H1346 H 0.61571 1.19655 0.55465
 O1347 O 0.40537 0.87556 0.52527
 O1348 O 0.37497 0.84594 0.52466
 C1349 C 0.39583 0.85481 0.53370
 C1350 C 0.40867 0.84119 0.55469
 C1351 C 0.39791 0.81862 0.56450
 H1352 H 0.38083 0.81049 0.55582
 O1353 O 0.59109 0.97847 0.62792
 O1354 O 0.62036 0.97786 0.65812
 C1355 C 0.59941 0.96951 0.64866
 C1356 C 0.58471 0.94885 0.66151
 C1357 C 0.59132 0.94090 0.68602
 H1358 H 0.60685 0.95041 0.69602
 O1359 O 0.40547 1.03045 0.62300
 O1360 O 0.37530 1.03056 0.65229
 C1361 C 0.39652 1.03900 0.64363
 C1362 C 0.41076 1.05925 0.65746
 C1363 C 0.40293 1.06686 0.68164
 H1364 H 0.38652 1.05757 0.69039
 O1365 O 0.47449 1.13117 0.59014
 O1366 O 0.47366 1.16173 0.61887
 C1367 C 0.46509 1.15207 0.59848
 C1368 C 0.44361 1.16489 0.58461
 C1369 C 0.43351 1.18851 0.59307
 H1370 H 0.44163 1.19756 0.60965
 O1371 O 0.52349 0.87422 0.59155
 O1372 O 0.52315 0.84499 0.62157
 C1373 C 0.53248 0.85376 0.60119
 C1374 C 0.55468 0.84080 0.58897
 C1375 C 0.56541 0.81825 0.59921
 H1376 H 0.55683 0.80953 0.61571
 O1377 O 0.62885 0.91096 0.52711
 O1378 O 0.65901 0.88099 0.52791
 C1379 C 0.64981 0.90208 0.53599
 C1380 C 0.66313 0.91614 0.55638
 C1381 C 0.68800 0.90894 0.56429
 H1382 H 0.69805 0.89351 0.55471
 O1383 O 0.37014 1.09630 0.52041
 O1384 O 0.34046 1.12672 0.51989
 C1385 C 0.34924 1.10581 0.52877
 C1386 C 0.33556 1.09287 0.54962
 C1387 C 0.31175 1.10225 0.55826
 H1388 H 0.30266 1.11833 0.54879
 Cu1389 Cu 0.49789 0.89488 0.60476
 Cu1390 Cu 0.49712 0.85989 0.64088
 Cu1391 Cu 0.49996 1.11112 0.60522
 Cu1392 Cu 0.49918 1.14779 0.63964
 Cu1393 Cu 0.39173 0.89622 0.50011
 Cu1394 Cu 0.35529 0.86056 0.49948
 Cu1395 Cu 0.60842 0.89592 0.50281
 Cu1396 Cu 0.64436 0.85964 0.50380
 Cu1397 Cu 0.39137 1.11041 0.49617
 Cu1398 Cu 0.35602 1.14719 0.49576
 Cu1399 Cu 0.61044 1.10825 0.50186
 Cu1400 Cu 0.64724 1.14349 0.50228
 Cu1401 Cu 0.39058 1.00579 0.60246
 Cu1402 Cu 0.35421 1.00606 0.63749
 Cu1403 Cu 0.60652 1.00330 0.60794
 Cu1404 Cu 0.64190 1.00257 0.64399
 C1405 C 0.56434 0.93637 0.64888
 H1406 H 0.55935 0.94206 0.62987
 C1407 C 0.57772 0.92088 0.69785
 C1408 C 0.43177 1.07172 0.64615
 H1409 H 0.43771 1.06613 0.62737
 C1410 C 0.41572 1.08679 0.69442
 C1411 C 0.34709 1.07201 0.56205
 H1412 H 0.36569 1.06501 0.55571
 C1413 C 0.29952 1.09109 0.57913
 C1414 C 0.65041 0.93632 0.56880
 H1415 H 0.63108 0.94174 0.56303
 C1416 C 0.70006 0.92168 0.58444
 C1417 C 0.56653 0.85220 0.56794
 H1418 H 0.55868 0.86978 0.56016
 C1419 C 0.58800 0.80756 0.58890
 C1420 C 0.43220 1.15296 0.56349
 H1421 H 0.43939 1.13454 0.55710
 C1422 C 0.41245 1.20015 0.58072
 C1423 C 0.43020 0.93765 0.64489
 H1424 H 0.43801 0.94481 0.62734
 C1425 C 0.40906 0.91820 0.68959
 C1426 C 0.56632 1.07167 0.64935
 H1427 H 0.55863 1.06426 0.63182
 C1428 C 0.58760 1.09138 0.69402
 C1429 C 0.43085 0.85147 0.56599
 H1430 H 0.43892 0.86913 0.55869
 C1431 C 0.40871 0.80656 0.58567
 C1432 C 0.56820 1.15282 0.56572
 H1433 H 0.56160 1.13415 0.55945
 C1434 C 0.58603 1.20060 0.58285
 C1435 C 0.34689 0.93863 0.56313
 H1436 H 0.36565 0.94499 0.55664
 C1437 C 0.29891 0.92147 0.58096
 C1438 C 0.65227 1.06874 0.56939
 H1439 H 0.63304 1.06310 0.56353
 C1440 C 0.70188 1.08407 0.58483
 O1441 O 0.47445 0.40643 0.87609
 O1442 O 0.47483 0.37617 0.84703
 C1443 C 0.46578 0.39706 0.85567
 C1444 C 0.44443 0.41041 0.84251
 C1445 C 0.43504 0.40169 0.81914
 H1446 H 0.44399 0.38536 0.80997
 O1447 O 0.52411 0.59230 0.87446
 O1448 O 0.52348 0.62202 0.84494
 C1449 C 0.53301 0.60151 0.85405
 C1450 C 0.55524 0.58850 0.84156
 C1451 C 0.56622 0.59806 0.81912
 H1452 H 0.55788 0.61472 0.80998
 O1453 O 0.37052 0.47173 0.91152
 O1454 O 0.34019 0.47140 0.88231
 C1455 C 0.34963 0.46264 0.90265
 C1456 C 0.33673 0.44114 0.91579
 C1457 C 0.31377 0.43038 0.90625
 H1458 H 0.30480 0.43835 0.88954
 O1459 O 0.62669 0.52523 0.91230
 O1460 O 0.65787 0.52501 0.88404
 C1461 C 0.64801 0.53393 0.90415
 C1462 C 0.66094 0.55511 0.91791
 C1463 C 0.68535 0.56407 0.91037
 H1464 H 0.69535 0.55475 0.89495
 O1465 O 0.40745 0.36980 0.97913
 O1466 O 0.37727 0.33994 0.97871
 C1467 C 0.39841 0.34900 0.97031
 C1468 C 0.41239 0.33591 0.94953
 C1469 C 0.40460 0.31162 0.94069
 H1470 H 0.38886 0.30169 0.94991
 O1471 O 0.58821 0.62868 0.97771
 O1472 O 0.61834 0.65857 0.97783
 C1473 C 0.59750 0.64939 0.96894
 C1474 C 0.58447 0.66239 0.94757
 C1475 C 0.59450 0.68527 0.93764
 H1476 H 0.61092 0.69428 0.94669
 O1477 O 0.40523 0.52250 0.87747
 O1478 O 0.37498 0.52218 0.84818
 C1479 C 0.39602 0.53105 0.85693
 C1480 C 0.40971 0.55171 0.84323
 C1481 C 0.40104 0.55967 0.81944
 H1482 H 0.38440 0.55044 0.81100
 O1483 O 0.59231 0.47535 0.87677
 O1484 O 0.62301 0.47510 0.84801
 C1485 C 0.60174 0.46651 0.85645
 C1486 C 0.58796 0.44562 0.84305
 C1487 C 0.59599 0.43722 0.81912
 H1488 H 0.61197 0.44668 0.80982
 O1489 O 0.52486 0.37285 0.91176
 O1490 O 0.52579 0.34253 0.88276
 C1491 C 0.53417 0.35202 0.90325
 C1492 C 0.55547 0.33921 0.91699
 C1493 C 0.56614 0.31615 0.90797
 H1494 H 0.55826 0.30713 0.89126
 O1495 O 0.47236 0.62555 0.90934
 O1496 O 0.47134 0.65548 0.88001
 C1497 C 0.46275 0.64614 0.90050
 C1498 C 0.44093 0.65887 0.91386
 C1499 C 0.43040 0.68199 0.90466
 H1500 H 0.43860 0.69095 0.88810
 O1501 O 0.36855 0.58950 0.97850
 O1502 O 0.33824 0.61930 0.97786
 C1503 C 0.34751 0.59829 0.96969
 C1504 C 0.33427 0.58434 0.94913
 C1505 C 0.31085 0.59348 0.93909
 H1506 H 0.30172 0.61037 0.94706
 O1507 O 0.62609 0.40893 0.98105
 O1508 O 0.65689 0.37961 0.98159
 C1509 C 0.64741 0.40026 0.97279
 C1510 C 0.66088 0.41355 0.95199
 C1511 C 0.68454 0.40399 0.94325
 H1512 H 0.69379 0.38839 0.95328
 O1513 O 0.47358 0.59025 0.87507
 O1514 O 0.47264 0.61989 0.84544
 C1515 C 0.46436 0.59890 0.85460
 C1516 C 0.44322 0.58475 0.84189
 C1517 C 0.43424 0.59244 0.81808
 H1518 H 0.44365 0.60812 0.80835
 O1519 O 0.52473 0.40773 0.87703
 O1520 O 0.52520 0.37758 0.84785
 C1521 C 0.53367 0.39867 0.85660
 C1522 C 0.55449 0.41255 0.84320
 C1523 C 0.56265 0.40450 0.81928
 H1524 H 0.55328 0.38828 0.81036
 O1525 O 0.62658 0.47510 0.91237
 O1526 O 0.65748 0.47470 0.88383
 C1527 C 0.64776 0.46608 0.90409
 C1528 C 0.66087 0.44504 0.91792
 C1529 C 0.68417 0.43453 0.90892
 H1530 H 0.69259 0.44193 0.89174
 O1531 O 0.37023 0.52171 0.91245
 O1532 O 0.33992 0.52135 0.88322
 C1533 C 0.34897 0.53005 0.90375
 C1534 C 0.33501 0.55068 0.91712
 C1535 C 0.31143 0.55975 0.90767
 H1536 H 0.30298 0.55090 0.89114
 O1537 O 0.40391 0.62457 0.97726
 O1538 O 0.37368 0.65444 0.97681
 C1539 C 0.39462 0.64518 0.96815
 C1540 C 0.40777 0.65822 0.94684
 C1541 C 0.39761 0.68121 0.93721
 H1542 H 0.38087 0.68989 0.94604
 O1543 O 0.59102 0.37387 0.98026
 O1544 O 0.62176 0.34448 0.98051
 C1545 C 0.60077 0.35335 0.97157
 C1546 C 0.58804 0.34004 0.95036
 C1547 C 0.59851 0.31718 0.94094
 H1548 H 0.61529 0.30867 0.94989
 O1549 O 0.59227 0.52545 0.87698
 O1550 O 0.62329 0.52533 0.84855
 C1551 C 0.60208 0.53428 0.85686
 C1552 C 0.58911 0.55562 0.84336
 C1553 C 0.59986 0.56558 0.82121
 H1554 H 0.61716 0.55694 0.81342
 O1555 O 0.40602 0.47255 0.87733
 O1556 O 0.37571 0.47233 0.84809
 C1557 C 0.39690 0.46385 0.85684
 C1558 C 0.41069 0.44319 0.84337
 C1559 C 0.40150 0.43425 0.82017
 H1560 H 0.38488 0.44337 0.81152
 O1561 O 0.52276 0.62700 0.90939
 O1562 O 0.52206 0.65696 0.88008
 C1563 C 0.53109 0.64808 0.90058
 C1564 C 0.55208 0.66180 0.91400
 C1565 C 0.56250 0.68466 0.90426
 H1566 H 0.55466 0.69277 0.88710
 O1567 O 0.47453 0.37260 0.91181
 O1568 O 0.47535 0.34218 0.88291
 C1569 C 0.46624 0.35139 0.90323
 C1570 C 0.44552 0.33743 0.91673
 C1571 C 0.43737 0.31333 0.90814
 H1572 H 0.44644 0.30506 0.89165
 O1573 O 0.62388 0.59350 0.97843
 O1574 O 0.65401 0.62340 0.97876
 C1575 C 0.64513 0.60240 0.97024
 C1576 C 0.65944 0.58852 0.95027
 C1577 C 0.68390 0.59707 0.94255
 H1578 H 0.69255 0.61361 0.95161
 O1579 O 0.37177 0.40451 0.97842
 O1580 O 0.34147 0.37477 0.97837
 C1581 C 0.35085 0.39542 0.96967
 C1582 C 0.33758 0.40836 0.94861
 C1583 C 0.31481 0.39787 0.93879
 H1584 H 0.30632 0.38104 0.94745
 Cu1585 Cu 0.49957 0.39297 0.89704
 Cu1586 Cu 0.50037 0.35652 0.86225
 Cu1587 Cu 0.49834 0.60579 0.89492
 Cu1588 Cu 0.49724 0.64157 0.85967
 Cu1589 Cu 0.39104 0.49717 0.89767
 Cu1590 Cu 0.35463 0.49688 0.86251
 Cu1591 Cu 0.60638 0.50026 0.89745
 Cu1592 Cu 0.64353 0.50000 0.86325
 C1593 C 0.43228 0.43135 0.85427
 H1594 H 0.43913 0.43797 0.87243
 C1595 C 0.41343 0.41352 0.80799
 C1596 C 0.56675 0.56708 0.85327
 H1597 H 0.55870 0.55971 0.87063
 C1598 C 0.58871 0.58675 0.80900
 C1599 C 0.34834 0.43011 0.93715
 H1600 H 0.36622 0.43797 0.94443
 C1601 C 0.30293 0.40856 0.91759
 C1602 C 0.64826 0.56736 0.93803
 H1603 H 0.62927 0.56087 0.94371
 C1604 C 0.69699 0.58501 0.92264
 C1605 C 0.43309 0.34846 0.93757
 H1606 H 0.43908 0.36728 0.94403
 C1607 C 0.41714 0.30011 0.92003
 C1608 C 0.56308 0.65098 0.93578
 H1609 H 0.55550 0.63311 0.94311
 C1610 C 0.58385 0.69642 0.91587
 C1611 C 0.43097 0.56419 0.85419
 H1612 H 0.43754 0.55836 0.87270
 C1613 C 0.41319 0.57993 0.80669
 C1614 C 0.56705 0.43329 0.85477
 H1615 H 0.56099 0.43938 0.87336
 C1616 C 0.58327 0.41676 0.80701
 C1617 C 0.56639 0.35087 0.93840
 H1618 H 0.55853 0.36883 0.94530
 C1619 C 0.58778 0.30525 0.91976
 C1620 C 0.42956 0.64725 0.93512
 H1621 H 0.43725 0.62928 0.94217
 C1622 C 0.40863 0.69314 0.91613
 C1623 C 0.34608 0.56277 0.93812
 H1624 H 0.36448 0.55600 0.94528
 C1625 C 0.29937 0.58120 0.91838
 C1626 C 0.64935 0.43435 0.93948
 H1627 H 0.63098 0.44172 0.94608
 C1628 C 0.69609 0.41383 0.92141
 O1629 O 0.52180 0.40626 1.12662
 O1630 O 0.52244 0.37685 1.15650
 C1631 C 0.53073 0.39779 1.14729
 C1632 C 0.55123 0.41210 1.16067
 C1633 C 0.56030 0.40310 1.18389
 H1634 H 0.55203 0.38590 1.19200
 O1635 O 0.47144 0.59431 1.13070
 O1636 O 0.47055 0.62487 1.15944
 C1637 C 0.46215 0.60368 1.15084
 C1638 C 0.44092 0.58994 1.16384
 C1639 C 0.43098 0.59882 1.18689
 H1640 H 0.43966 0.61535 1.19592
 O1641 O 0.37021 0.52529 1.09473
 O1642 O 0.33963 0.52445 1.12362
 C1643 C 0.34879 0.53342 1.10327
 C1644 C 0.33467 0.55388 1.08967
 C1645 C 0.31008 0.56163 1.09769
 H1646 H 0.30115 0.55217 1.11362
 O1647 O 0.62353 0.47763 1.09549
 O1648 O 0.65385 0.47767 1.12474
 C1649 C 0.64477 0.46913 1.10419
 C1650 C 0.65885 0.44876 1.09061
 C1651 C 0.68385 0.44177 1.09813
 H1652 H 0.69301 0.45172 1.11368
 O1653 O 0.59137 0.37186 1.02916
 O1654 O 0.62203 0.34241 1.02950
 C1655 C 0.60058 0.35088 1.03753
 C1656 C 0.58627 0.33670 1.05721
 C1657 C 0.59388 0.31197 1.06503
 H1658 H 0.60993 0.30253 1.05579
 O1659 O 0.40445 0.62554 1.02658
 O1660 O 0.37421 0.65540 1.02605
 C1661 C 0.39530 0.64656 1.03477
 C1662 C 0.40887 0.66054 1.05513
 C1663 C 0.39965 0.68450 1.06321
 H1664 H 0.38295 0.69296 1.05410
 O1665 O 0.40587 0.47574 1.12953
 O1666 O 0.37540 0.47482 1.15852
 C1667 C 0.39659 0.46646 1.14971
 C1668 C 0.41023 0.44512 1.16240
 C1669 C 0.40162 0.43556 1.18570
 H1670 H 0.38520 0.44432 1.19499
 O1671 O 0.58826 0.52738 1.13059
 O1672 O 0.61855 0.52695 1.15983
 C1673 C 0.59761 0.53596 1.15107
 C1674 C 0.58456 0.55723 1.16439
 C1675 C 0.59483 0.56688 1.18688
 H1676 H 0.61169 0.55788 1.19521
 O1677 O 0.47177 0.36883 1.09418
 O1678 O 0.47223 0.33946 1.12408
 C1679 C 0.46321 0.34802 1.10352
 C1680 C 0.44199 0.33436 1.09052
 C1681 C 0.43186 0.31111 1.09981
 H1682 H 0.44021 0.30232 1.11641
 O1683 O 0.52191 0.62878 1.09597
 O1684 O 0.52139 0.65956 1.12450
 C1685 C 0.53049 0.64997 1.10434
 C1686 C 0.55173 0.66311 1.09079
 C1687 C 0.56251 0.68594 1.10030
 H1688 H 0.55485 0.69444 1.11735
 O1689 O 0.37209 0.40585 1.02746
 O1690 O 0.34137 0.37654 1.02738
 C1691 C 0.35074 0.39746 1.03580
 C1692 C 0.33711 0.41203 1.05584
 C1693 C 0.31205 0.40507 1.06345
 H1694 H 0.30217 0.38953 1.05392
 O1695 O 0.62310 0.59381 1.02752
 O1696 O 0.65329 0.62366 1.02764
 C1697 C 0.64407 0.60285 1.03625
 C1698 C 0.65752 0.58933 1.05700
 C1699 C 0.68195 0.59754 1.06519
 H1700 H 0.69116 0.61366 1.05598
 O1701 O 0.52167 0.59481 1.13151
 O1702 O 0.52123 0.62532 1.16030
 C1703 C 0.53027 0.60429 1.15189
 C1704 C 0.55161 0.59087 1.16514
 C1705 C 0.56203 0.60021 1.18790
 H1706 H 0.55383 0.61709 1.19677
 O1707 O 0.47176 0.40610 1.12651
 O1708 O 0.47247 0.37681 1.15650
 C1709 C 0.46354 0.39754 1.14735
 C1710 C 0.44302 0.41146 1.16094
 C1711 C 0.43447 0.40242 1.18426
 H1712 H 0.44395 0.38604 1.19282
 O1713 O 0.62264 0.52750 1.09523
 O1714 O 0.65304 0.52742 1.12438
 C1715 C 0.64377 0.53614 1.10390
 C1716 C 0.65737 0.55683 1.09018
 C1717 C 0.68185 0.56525 1.09806
 H1718 H 0.69130 0.55592 1.11380
 O1719 O 0.37211 0.47534 1.09363
 O1720 O 0.34149 0.47464 1.12248
 C1721 C 0.35106 0.46627 1.10200
 C1722 C 0.33755 0.44561 1.08809
 C1723 C 0.31270 0.43820 1.09550
 H1724 H 0.30365 0.44773 1.11134
 O1725 O 0.58772 0.62894 1.02716
 O1726 O 0.61788 0.65881 1.02717
 C1727 C 0.59696 0.64972 1.03590
 C1728 C 0.58397 0.66295 1.05713
 C1729 C 0.59438 0.68573 1.06691
 H1730 H 0.61096 0.69442 1.05788
 O1731 O 0.40566 0.36887 1.02819
 O1732 O 0.37514 0.33937 1.02792
 C1733 C 0.39609 0.34817 1.03674
 C1734 C 0.40904 0.33468 1.05767
 C1735 C 0.39905 0.31163 1.06716
 H1736 H 0.38237 0.30293 1.05824
 O1737 O 0.58752 0.47717 1.12922
 O1738 O 0.61774 0.47675 1.15854
 C1739 C 0.59677 0.46800 1.14945
 C1740 C 0.58340 0.44638 1.16199
 C1741 C 0.59224 0.43701 1.18528
 H1742 H 0.60819 0.44640 1.19474
 O1743 O 0.40528 0.52596 1.12962
 O1744 O 0.37478 0.52506 1.15856
 C1745 C 0.39565 0.53442 1.15000
 C1746 C 0.40848 0.55587 1.16341
 C1747 C 0.39878 0.56499 1.18643
 H1748 H 0.38205 0.55585 1.19474
 O1749 O 0.47171 0.62781 1.09477
 O1750 O 0.47081 0.65871 1.12317
 C1751 C 0.46253 0.64889 1.10274
 C1752 C 0.44158 0.66170 1.08840
 C1753 C 0.43211 0.68572 1.09609
 H1754 H 0.44097 0.69546 1.11192
 O1755 O 0.52201 0.37059 1.09275
 O1756 O 0.52249 0.34108 1.12254
 C1757 C 0.53104 0.34995 1.10191
 C1758 C 0.55207 0.33646 1.08870
 C1759 C 0.55998 0.31202 1.09650
 H1760 H 0.55031 0.30303 1.11227
 O1761 O 0.62510 0.40886 1.03007
 O1762 O 0.65596 0.37961 1.03051
 C1763 C 0.64631 0.40041 1.03878
 C1764 C 0.65961 0.41488 1.05890
 C1765 C 0.68463 0.40804 1.06672
 H1766 H 0.69463 0.39235 1.05751
 O1767 O 0.36813 0.59131 1.02763
 O1768 O 0.33774 0.62102 1.02706
 C1769 C 0.34703 0.60041 1.03612
 C1770 C 0.33369 0.58698 1.05707
 C1771 C 0.30913 0.59482 1.06564
 H1772 H 0.29926 0.61066 1.05654
 Cu1773 Cu 0.49672 0.39080 1.10688
 Cu1774 Cu 0.49751 0.35559 1.14295
 Cu1775 Cu 0.49678 0.60833 1.11046
 Cu1776 Cu 0.49586 0.64525 1.14471
 Cu1777 Cu 0.39234 0.39017 1.00338
 Cu1778 Cu 0.35576 0.35469 1.00311
 Cu1779 Cu 0.60529 0.39383 1.00530
 Cu1780 Cu 0.64227 0.35857 1.00561
 Cu1781 Cu 0.38924 0.60471 1.00260
 Cu1782 Cu 0.35300 0.64060 1.00190
 Cu1783 Cu 0.60265 0.60828 1.00263
 Cu1784 Cu 0.63881 0.64419 1.00283
 Cu1785 Cu 0.39153 0.50072 1.10907
 Cu1786 Cu 0.35477 0.49964 1.14372
 Cu1787 Cu 0.60238 0.50246 1.10975
 Cu1788 Cu 0.63876 0.50218 1.14489
 C1789 C 0.56268 0.43393 1.14993
 H1790 H 0.55599 0.44072 1.13178
 C1791 C 0.58075 0.41535 1.19631
 C1792 C 0.42969 0.56831 1.15245
 H1793 H 0.43701 0.56157 1.13452
 C1794 C 0.40989 0.58642 1.19837
 C1795 C 0.34615 0.56641 1.06918
 H1796 H 0.36521 0.56052 1.06304
 C1797 C 0.29709 0.58197 1.08582
 C1798 C 0.64698 0.43543 1.07082
 H1799 H 0.62754 0.44062 1.06514
 C1800 C 0.69691 0.42150 1.08629
 C1801 C 0.56512 0.34853 1.06893
 H1802 H 0.55928 0.36764 1.06320
 C1803 C 0.58064 0.29938 1.08465
 C1804 C 0.43001 0.64937 1.06769
 H1805 H 0.43691 0.63064 1.06184
 C1806 C 0.41106 0.69717 1.08368
 C1807 C 0.43105 0.43301 1.15025
 H1808 H 0.43745 0.43986 1.13205
 C1809 C 0.41362 0.41405 1.19662
 C1810 C 0.56286 0.56915 1.15381
 H1811 H 0.55523 0.56198 1.13616
 C1812 C 0.58382 0.58831 1.19870
 C1813 C 0.43062 0.34570 1.06927
 H1814 H 0.43807 0.36372 1.06219
 C1815 C 0.41023 0.29973 1.08824
 C1816 C 0.56249 0.65189 1.06906
 H1817 H 0.55466 0.63405 1.06187
 C1818 C 0.58402 0.69718 1.08859
 C1819 C 0.34957 0.43259 1.06810
 H1820 H 0.36895 0.43800 1.06257
 C1821 C 0.29966 0.41816 1.08327
 C1822 C 0.64549 0.56882 1.06948
 H1823 H 0.62649 0.56263 1.06347
 C1824 C 0.69431 0.58558 1.08564
 C1825 C 1.09394 1.12321 1.30121
 C1826 C 1.12093 1.12338 1.30556
 C1827 C 1.13713 1.11318 1.28658
 C1828 C 1.12672 1.10445 1.26357
 C1829 C 1.09973 1.10496 1.25962
 C1830 C 1.08355 1.11403 1.27870
 C1831 C 1.08929 1.09656 1.23660
 C1832 C 1.10549 1.08794 1.21708
 C1833 C 1.13240 1.08770 1.22117
 C1834 C 1.14287 1.09573 1.24417
 H1835 H 1.15792 1.11338 1.28889
 H1836 H 1.06277 1.11425 1.27615
 H1837 H 1.06852 1.09658 1.23398
 H1838 H 1.16365 1.09537 1.24667
 H1839 H 1.08048 1.12955 1.31550
 H1840 H 1.14547 1.08162 1.20642
 C1841 C 1.16813 0.63259 0.76634
 C1842 C 1.15055 0.64165 0.78448
 C1843 C 1.12394 0.63799 0.78051
 C1844 C 1.11504 0.62539 0.75875
 C1845 C 1.13294 0.61644 0.74064
 C1846 C 1.15943 0.62015 0.74463
 C1847 C 1.12404 0.60421 0.71869
 C1848 C 1.09742 0.60091 0.71449
 C1849 C 1.07984 0.60956 0.73282
 C1850 C 1.08855 0.62165 0.75474
 H1851 H 1.11022 0.64466 0.79447
 H1852 H 1.17343 0.61351 0.73093
 H1853 H 1.13778 0.59792 0.70458
 H1854 H 1.07454 0.62824 0.76846
 H1855 H 1.18871 0.63544 0.76881
 H1856 H 1.05925 0.60698 0.73018
 C1857 C 0.59600 1.12847 0.80469
 C1858 C 0.62326 1.12993 0.80626
 C1859 C 0.63776 1.12255 0.78495
 C1860 C 0.62534 1.11558 0.76235
 C1861 C 0.59805 1.11486 0.76110
 C1862 C 0.58363 1.12095 0.78251
 C1863 C 0.58564 1.10789 0.73852
 C1864 C 0.60022 1.10153 0.71713
 C1865 C 0.62736 1.10289 0.71844
 C1866 C 0.63979 1.10978 0.74080
 H1867 H 0.65865 1.12384 0.78521
 H1868 H 0.56271 1.12014 0.78208
 H1869 H 0.56474 1.10672 0.73778
 H1870 H 0.66071 1.11045 0.74124
 H1871 H 0.58396 1.13273 0.82082
 H1872 H 0.63903 1.09833 0.70212
 C1873 C 0.59262 0.61915 1.31100
 C1874 C 0.61926 0.62447 1.31114
 C1875 C 0.63351 0.62125 1.28887
 C1876 C 0.62116 0.61358 1.26655
 C1877 C 0.59424 0.60878 1.26650
 C1878 C 0.58023 0.61133 1.28892
 C1879 C 0.58184 0.60143 1.24407
 C1880 C 0.59612 0.59843 1.22182
 C1881 C 0.62282 0.60332 1.22206
 C1882 C 0.63522 0.61094 1.24418
 H1883 H 0.65398 0.62564 1.28870
 H1884 H 0.55964 0.60759 1.28931
 H1885 H 0.56129 0.59739 1.24403
 H1886 H 0.65582 0.61460 1.24382
 H1887 H 0.58129 0.62144 1.32800
 H1888 H 0.63413 0.60110 1.20504
 C1889 C 0.87291 0.90421 1.29982
 C1890 C 0.87355 0.87718 1.30244
 C1891 C 0.88284 0.86251 1.28199
 C1892 C 0.89049 0.87439 1.25946
 C1893 C 0.88980 0.90142 1.25732
 C1894 C 0.88112 0.91612 1.27767
 C1895 C 0.89783 0.91329 1.23488
 C1896 C 0.90630 0.89841 1.21437
 C1897 C 0.90612 0.87145 1.21654
 C1898 C 0.89849 0.85959 1.23888
 H1899 H 0.88285 0.84173 1.28288
 H1900 H 0.88061 0.93689 1.27648
 H1901 H 0.89794 0.93406 1.23357
 H1902 H 0.89881 0.83882 1.24001
 H1903 H 0.86690 0.91646 1.31520
 H1904 H 0.91187 0.85941 1.20089
 C1905 C 0.84753 0.37597 0.78065
 C1906 C 0.86634 0.37092 0.79914
 C1907 C 0.89244 0.37584 0.79373
 C1908 C 0.89951 0.38648 0.77036
 C1909 C 0.88030 0.39195 0.75214
 C1910 C 0.85442 0.38635 0.75739
 C1911 C 0.88727 0.40281 0.72890
 C1912 C 0.91328 0.40797 0.72344
 C1913 C 0.93223 0.40252 0.74168
 C1914 C 0.92542 0.39198 0.76496
 H1915 H 0.90703 0.37217 0.80793
 H1916 H 0.83945 0.39022 0.74362
 H1917 H 0.87257 0.40660 0.71482
 H1918 H 0.94043 0.38800 0.77865
 H1919 H 0.82733 0.37209 0.78435
 H1920 H 0.95241 0.40639 0.73786
 C1921 C 0.40471 0.87081 0.79641
 C1922 C 0.37779 0.86735 0.79745
 C1923 C 0.36263 0.87436 0.77657
 C1924 C 0.37404 0.88516 0.75518
 C1925 C 0.40110 0.88864 0.75434
 C1926 C 0.41628 0.88130 0.77500
 C1927 C 0.41247 0.89950 0.73290
 C1928 C 0.39709 0.90710 0.71239
 C1929 C 0.37021 0.90361 0.71347
 C1930 C 0.35878 0.89266 0.73466
 H1931 H 0.34191 0.87136 0.77692
 H1932 H 0.43705 0.88390 0.77471
 H1933 H 0.43322 0.90231 0.73225
 H1934 H 0.33801 0.89007 0.73500
 H1935 H 0.41679 0.86584 0.81234
 H1936 H 0.35805 0.90900 0.69772
 C1937 C 0.37739 0.41150 1.30772
 C1938 C 0.37662 0.38452 1.31044
 C1939 C 0.38339 0.36921 1.28955
 C1940 C 0.39010 0.38039 1.26655
 C1941 C 0.39093 0.40739 1.26420
 C1942 C 0.38470 0.42277 1.28495
 C1943 C 0.39806 0.41849 1.24115
 C1944 C 0.40421 0.40281 1.22047
 C1945 C 0.40249 0.37597 1.22289
 C1946 C 0.39565 0.36486 1.24574
 H1947 H 0.38200 0.34847 1.29053
 H1948 H 0.38535 0.44351 1.28355
 H1949 H 0.39939 0.43919 1.23947
 H1950 H 0.39475 0.34412 1.24714
 H1951 H 0.37307 0.42408 1.32340
 H1952 H 0.40660 0.36351 1.20706
 C1953 C 0.88928 1.15305 0.71752
 C1954 C 0.87739 1.13463 0.70181
 C1955 C 0.87740 1.10874 0.70958
 C1956 C 0.88887 1.10151 0.73241
 C1957 C 0.89982 1.12036 0.74827
 C1958 C 0.90005 1.14603 0.74059
 C1959 C 0.91003 1.11329 0.77171
 C1960 C 0.90993 1.08745 0.77936
 C1961 C 0.90017 1.06870 0.76279
 C1962 C 0.88952 1.07568 0.73966
 H1963 H 0.86940 1.09397 0.69751
 H1964 H 0.90839 1.16075 0.75251
 H1965 H 0.91726 1.12804 0.78426
 H1966 H 0.88163 1.06089 0.72753
 H1967 H 0.88918 1.17325 0.71269
 H1968 H 0.90049 1.04855 0.76783
 C1969 C 0.88024 0.65933 0.22085
 C1970 C 0.86835 0.64164 0.20431
 C1971 C 0.87030 0.61521 0.21006
 C1972 C 0.88306 0.60680 0.23188
 C1973 C 0.89383 0.62486 0.24868
 C1974 C 0.89255 0.65105 0.24284
 C1975 C 0.90531 0.61646 0.27122
 C1976 C 0.90649 0.59009 0.27705
 C1977 C 0.89675 0.57228 0.25950
 C1978 C 0.88502 0.58054 0.23726
 H1979 H 0.86256 0.60094 0.19728
 H1980 H 0.90076 0.66521 0.25548
 H1981 H 0.91253 0.63052 0.28452
 H1982 H 0.87724 0.56637 0.22438
 H1983 H 0.87887 0.67981 0.21772
 H1984 H 0.89800 0.55185 0.26304
 C1985 C 0.37902 1.09022 0.19779
 C1986 C 0.37717 1.11703 0.19532
 C1987 C 0.38432 1.13279 0.21559
 C1988 C 0.39284 1.12196 0.23824
 C1989 C 0.39453 1.09496 0.24066
 C1990 C 0.38775 1.07926 0.22025
 C1991 C 0.40288 1.08416 0.26347
 C1992 C 0.40958 1.10005 0.28383
 C1993 C 0.40763 1.12685 0.28122
 C1994 C 0.39937 1.13771 0.25863
 H1995 H 0.38252 1.15348 0.21396
 H1996 H 0.38897 1.05854 0.22173
 H1997 H 0.40451 1.06348 0.26527
 H1998 H 0.39801 1.15842 0.25714
 H1999 H 0.37365 1.07777 0.18231
 H2000 H 0.41233 1.13944 0.29680
 C2001 C 0.37647 0.65693 0.72526
 C2002 C 0.36840 0.63876 0.70733
 C2003 C 0.37127 0.61248 0.71258
 C2004 C 0.38210 0.60440 0.73548
 C2005 C 0.39003 0.62283 0.75344
 C2006 C 0.38714 0.64904 0.74815
 C2007 C 0.40053 0.61476 0.77648
 C2008 C 0.40322 0.58846 0.78185
 C2009 C 0.39556 0.57032 0.76371
 C2010 C 0.38509 0.57821 0.74073
 H2011 H 0.36537 0.59835 0.69872
 H2012 H 0.39307 0.66343 0.76171
 H2013 H 0.40605 0.62893 0.79044
 H2014 H 0.37925 0.56382 0.72713
 H2015 H 0.37424 0.67728 0.72166
 H2016 H 0.39773 0.54996 0.76729
 C2017 C 1.15784 0.87372 0.72291
 C2018 C 1.13992 0.86607 0.70446
 C2019 C 1.11338 0.86964 0.70904
 C2020 C 1.10484 0.88036 0.73183
 C2021 C 1.12305 0.88773 0.75031
 C2022 C 1.14949 0.88445 0.74561
 C2023 C 1.11452 0.89798 0.77330
 C2024 C 1.08796 0.90101 0.77815
 C2025 C 1.07005 0.89383 0.75951
 C2026 C 1.07840 0.88363 0.73656
 H2027 H 1.09937 0.86411 0.69485
 H2028 H 1.16372 0.88994 0.75959
 H2029 H 1.12854 0.90309 0.78762
 H2030 H 1.06417 0.87819 0.72257
 H2031 H 1.17835 0.87088 0.72001
 H2032 H 1.04951 0.89627 0.76262
 C2033 C 1.13641 0.39770 0.20113
 C2034 C 1.13406 0.37083 0.19817
 C2035 C 1.12296 0.35668 0.21810
 C2036 C 1.11435 0.36888 0.24008
 C2037 C 1.11622 0.39580 0.24242
 C2038 C 1.12735 0.41002 0.22285
 C2039 C 1.10691 0.40799 0.26427
 C2040 C 1.09606 0.39346 0.28398
 C2041 C 1.09520 0.36655 0.28162
 C2042 C 1.10403 0.35442 0.25986
 H2043 H 1.12196 0.33593 0.21720
 H2044 H 1.12898 0.43071 0.22427
 H2045 H 1.10771 0.42873 0.26570
 H2046 H 1.10282 0.33369 0.25854
 H2047 H 1.14422 0.40956 0.18626
 H2048 H 1.08776 0.35471 0.29671
 C2049 C 0.63012 0.90610 0.19869
 C2050 C 0.63101 0.87916 0.19734
 C2051 C 0.62437 0.86465 0.21865
 C2052 C 0.61664 0.87682 0.24094
 C2053 C 0.61542 0.90393 0.24208
 C2054 C 0.62231 0.91840 0.22086
 C2055 C 0.60703 0.91601 0.26430
 C2056 C 0.59967 0.90126 0.28527
 C2057 C 0.60160 0.87435 0.28402
 C2058 C 0.60998 0.86224 0.26208
 H2059 H 0.62546 0.84387 0.21793
 H2060 H 0.62153 0.93918 0.22135
 H2061 H 0.60553 0.93677 0.26505
 H2062 H 0.61103 0.84146 0.26159
 H2063 H 0.63513 0.91764 0.18246
 H2064 H 0.59651 0.86260 0.30008
 C2065 C 0.66001 0.37782 0.72591
 C2066 C 0.64157 0.37029 0.70790
 C2067 C 0.61525 0.37481 0.71274
 C2068 C 0.60741 0.38626 0.73543
 C2069 C 0.62611 0.39342 0.75355
 C2070 C 0.65236 0.38929 0.74851
 C2071 C 0.61821 0.40407 0.77660
 C2072 C 0.59180 0.40747 0.78190
 C2073 C 0.57344 0.40079 0.76349
 C2074 C 0.58116 0.39033 0.74047
 H2075 H 0.60088 0.36934 0.69887
 H2076 H 0.66696 0.39459 0.76218
 H2077 H 0.63254 0.40890 0.79072
 H2078 H 0.56657 0.38511 0.72675
 H2079 H 0.68038 0.37427 0.72279
 H2080 H 0.55301 0.40355 0.76698
 C2081 C 1.28636 1.11608 1.15049
 C2082 C 1.30575 1.12198 1.13290
 C2083 C 1.30099 1.11794 1.10715
 C2084 C 1.27731 1.10757 1.09914
 C2085 C 1.25810 1.10143 1.11708
 C2086 C 1.26276 1.10592 1.14267
 C2087 C 1.23448 1.09102 1.10915
 C2088 C 1.22963 1.08679 1.08347
 C2089 C 1.24886 1.09287 1.06577
 C2090 C 1.27252 1.10311 1.07353
 H2091 H 1.31590 1.12228 1.09349
 H2092 H 1.24820 1.10148 1.15666
 H2093 H 1.21962 1.08676 1.12291
 H2094 H 1.28701 1.10761 1.05951
 H2095 H 1.28948 1.11936 1.17040
 H2096 H 1.24558 1.08964 1.04587
 C2097 C 1.28149 0.62322 0.65881
 C2098 C 1.30002 0.63306 0.64179
 C2099 C 1.29465 0.63107 0.61573
 C2100 C 1.27188 0.61923 0.60707
 C2101 C 1.25368 0.60969 0.62449
 C2102 C 1.25866 0.61188 0.65028
 C2103 C 1.23071 0.59826 0.61585
 C2104 C 1.22571 0.59595 0.58989
 C2105 C 1.24432 0.60499 0.57274
 C2106 C 1.26707 0.61659 0.58122
 H2107 H 1.30861 0.63760 0.60199
 H2108 H 1.24483 0.60487 0.66394
 H2109 H 1.21652 0.59170 0.62938
 H2110 H 1.28091 0.62353 0.56752
 H2111 H 1.28392 0.62512 0.67895
 H2112 H 1.24131 0.60308 0.55265
 C2113 C 0.78918 1.11718 0.65821
 C2114 C 0.80687 1.12653 0.64012
 C2115 C 0.80002 1.12447 0.61443
 C2116 C 0.77642 1.11339 0.60712
 C2117 C 0.75887 1.10468 0.62558
 C2118 C 0.76550 1.10661 0.65104
 C2119 C 0.73483 1.09454 0.61830
 C2120 C 0.72812 1.09275 0.59268
 C2121 C 0.74625 1.10057 0.57447
 C2122 C 0.77004 1.11090 0.58160
 H2123 H 0.81336 1.13056 0.59992
 H2124 H 0.75225 1.10016 0.66549
 H2125 H 0.72109 1.08880 0.63261
 H2126 H 0.78338 1.11711 0.56713
 H2127 H 0.79284 1.11911 0.67818
 H2128 H 0.74195 1.09886 0.55458
 C2129 C 0.77640 0.62288 1.16236
 C2130 C 0.79489 0.63109 1.14477
 C2131 C 0.79032 0.62708 1.11897
 C2132 C 0.76725 0.61573 1.11077
 C2133 C 0.74849 0.60811 1.12858
 C2134 C 0.75339 0.61149 1.15434
 C2135 C 0.72495 0.59775 1.12031
 C2136 C 0.71985 0.59498 1.09443
 C2137 C 0.73892 0.60208 1.07694
 C2138 C 0.76240 0.61235 1.08503
 H2139 H 0.80462 0.63307 1.10528
 H2140 H 0.73923 0.60574 1.16826
 H2141 H 0.71032 0.59263 1.13399
 H2142 H 0.77664 0.61793 1.07113
 H2143 H 0.77940 0.62600 1.18232
 H2144 H 0.73562 0.59974 1.05693
 C2145 C 1.28756 0.87783 0.83966
 C2146 C 1.30504 0.86809 0.85780
 C2147 C 1.29789 0.86944 0.88342
 C2148 C 1.27436 0.88075 0.89065
 C2149 C 1.25713 0.89013 0.87216
 C2150 C 1.26390 0.88847 0.84674
 C2151 C 1.23332 0.90081 0.87934
 C2152 C 1.22654 0.90256 0.90491
 C2153 C 1.24430 0.89397 0.92319
 C2154 C 1.26786 0.88303 0.91614
 H2155 H 1.31106 0.86290 0.89794
 H2156 H 1.25087 0.89539 0.83226
 H2157 H 1.21983 0.90712 0.86500
 H2158 H 1.28095 0.87630 0.93065
 H2159 H 1.29156 0.87639 0.81971
 H2160 H 1.23992 0.89558 0.94306
 C2161 C 1.31135 0.40956 0.38089
 C2162 C 1.31467 0.38263 0.37958
 C2163 C 1.29439 0.36688 0.38830
 C2164 C 1.27095 0.37765 0.39637
 C2165 C 1.26777 0.40461 0.39673
 C2166 C 1.28829 0.42036 0.38945
 C2167 C 1.24405 0.41534 0.40413
 C2168 C 1.22342 0.39940 0.41113
 C2169 C 1.22678 0.37259 0.41058
 C2170 C 1.25031 0.36182 0.40335
 H2171 H 1.29586 0.34616 0.38708
 H2172 H 1.28637 0.44108 0.38997
 H2173 H 1.24172 0.43603 0.40470
 H2174 H 1.25229 0.34111 0.40302
 H2175 H 1.32673 0.42252 0.37554
 H2176 H 1.21105 0.35990 0.41561
 C2177 C 0.81131 0.90334 0.37716
 C2178 C 0.81166 0.87662 0.37315
 C2179 C 0.78982 0.86209 0.37972
 C2180 C 0.76759 0.87422 0.38925
 C2181 C 0.76725 0.90119 0.39253
 C2182 C 0.78936 0.91550 0.38676
 C2183 C 0.74478 0.91340 0.40139
 C2184 C 0.72272 0.89895 0.40732
 C2185 C 0.72334 0.87214 0.40415
 C2186 C 0.74552 0.85989 0.39514
 H2187 H 0.78978 0.84153 0.37649
 H2188 H 0.78955 0.93614 0.38932
 H2189 H 0.74454 0.93405 0.40402
 H2190 H 0.74537 0.83923 0.39271
 H2191 H 0.82800 0.91492 0.37249
 H2192 H 0.70649 0.86064 0.40846
 C2193 C 0.80219 0.40633 0.86738
 C2194 C 0.80604 0.37964 0.87034
 C2195 C 0.78720 0.36547 0.88354
 C2196 C 0.76489 0.37742 0.89281
 C2197 C 0.76152 0.40417 0.88993
 C2198 C 0.78039 0.41847 0.87736
 C2199 C 0.73922 0.41611 0.89945
 C2200 C 0.71985 0.40148 0.91124
 C2201 C 0.72321 0.37471 0.91325
 C2202 C 0.74560 0.36287 0.90444
 H2203 H 0.78896 0.34482 0.88534
 H2204 H 0.77819 0.43903 0.87501
 H2205 H 0.73707 0.43674 0.89780
 H2206 H 0.74766 0.34226 0.90643
 H2207 H 0.81644 0.41818 0.85808
 H2208 H 0.70836 0.36272 0.92144
 C2209 C 0.71270 0.84933 1.11995
 C2210 C 0.69481 0.86823 1.12733
 C2211 C 0.70072 0.89425 1.12331
 C2212 C 0.72434 0.90131 1.11238
 C2213 C 0.74228 0.88213 1.10527
 C2214 C 0.73620 0.85621 1.10900
 C2215 C 0.76617 0.88919 1.09498
 C2216 C 0.77252 0.91522 1.09183
 C2217 C 0.75438 0.93413 1.09859
 C2218 C 0.73048 0.92724 1.10872
 H2219 H 0.68696 0.90897 1.12870
 H2220 H 0.74974 0.84126 1.10373
 H2221 H 0.78013 0.87446 1.09013
 H2222 H 0.71693 0.94220 1.11394
 H2223 H 0.70876 0.82918 1.12315
 H2224 H 0.75873 0.95430 1.09606
 C2225 C 0.71987 0.34273 0.62499
 C2226 C 0.70318 0.36059 0.63673
 C2227 C 0.70934 0.38694 0.63503
 C2228 C 0.73142 0.39514 0.62205
 C2229 C 0.74817 0.37691 0.61102
 C2230 C 0.74215 0.35079 0.61252
 C2231 C 0.77085 0.38508 0.59900
 C2232 C 0.77691 0.41135 0.59761
 C2233 C 0.75950 0.42937 0.60775
 C2234 C 0.73707 0.42135 0.61997
 H2235 H 0.69651 0.40129 0.64291
 H2236 H 0.75482 0.33651 0.60423
 H2237 H 0.78413 0.37092 0.59148
 H2238 H 0.72426 0.43565 0.62799
 H2239 H 0.71655 0.32227 0.62637
 H2240 H 0.76335 0.44976 0.60646
 C2241 C 0.22298 0.84227 0.62619
 C2242 C 0.20367 0.85973 0.63353
 C2243 C 0.20679 0.88595 0.62814
 C2244 C 0.22895 0.89464 0.61557
 C2245 C 0.24834 0.87691 0.60842
 C2246 C 0.24514 0.85077 0.61379
 C2247 C 0.27077 0.88567 0.59638
 C2248 C 0.27421 0.91196 0.59153
 C2249 C 0.25458 0.92935 0.59829
 C2250 C 0.23214 0.92077 0.61017
 H2251 H 0.19185 0.89951 0.63349
 H2252 H 0.25982 0.83693 0.60851
 H2253 H 0.28592 0.87214 0.59155
 H2254 H 0.21743 0.93461 0.61537
 H2255 H 0.22105 0.82200 0.63034
 H2256 H 0.25671 0.94967 0.59452
 C2257 C 0.21454 0.34335 1.11899
 C2258 C 0.19742 0.36173 1.12933
 C2259 C 0.20392 0.38795 1.12718
 C2260 C 0.22672 0.39551 1.11497
 C2261 C 0.24381 0.37675 1.10535
 C2262 C 0.23748 0.35076 1.10738
 C2263 C 0.26720 0.38422 1.09428
 C2264 C 0.27370 0.41032 1.09239
 C2265 C 0.25596 0.42889 1.10096
 C2266 C 0.23278 0.42156 1.11228
 H2267 H 0.19088 0.40262 1.13413
 H2268 H 0.25040 0.33610 1.10020
 H2269 H 0.28071 0.36965 1.08799
 H2270 H 0.21975 0.43627 1.11917
 H2271 H 0.21098 0.32296 1.12087
 H2272 H 0.26016 0.44918 1.09922
 C2273 C 0.71769 1.15614 0.86850
 C2274 C 0.69848 1.13726 0.86583
 C2275 C 0.70331 1.11233 0.87471
 C2276 C 0.72686 1.10649 0.88673
 C2277 C 0.74601 1.12569 0.88950
 C2278 C 0.74129 1.15039 0.88005
 C2279 C 0.76959 1.11981 0.90147
 C2280 C 0.77437 1.09487 0.91041
 C2281 C 0.75501 1.07609 0.90792
 C2282 C 0.73149 1.08184 0.89628
 H2283 H 0.68839 1.09782 0.87311
 H2284 H 0.75568 1.16536 0.88193
 H2285 H 0.78453 1.13430 0.90301
 H2286 H 0.71704 1.06691 0.89449
 H2287 H 0.71417 1.17554 0.86198
 H2288 H 0.75834 1.05673 0.91464
 C2289 C 0.71222 0.65118 0.37823
 C2290 C 0.69379 0.63229 0.37222
 C2291 C 0.70008 0.60629 0.37591
 C2292 C 0.72426 0.59931 0.38595
 C2293 C 0.74248 0.61854 0.39219
 C2294 C 0.73629 0.64440 0.38810
 C2295 C 0.76662 0.61161 0.40226
 C2296 C 0.77297 0.58564 0.40598
 C2297 C 0.75465 0.56669 0.39985
 C2298 C 0.73053 0.57345 0.39000
 H2299 H 0.68598 0.59158 0.37153
 H2300 H 0.75004 0.65939 0.39260
 H2301 H 0.78070 0.62636 0.40662
 H2302 H 0.71682 0.55843 0.38544
 H2303 H 0.70797 0.67133 0.37525
 H2304 H 0.75903 0.54656 0.40272
 C2305 C 0.18871 1.12750 0.40088
 C2306 C 0.18642 1.12682 0.37432
 C2307 C 0.20791 1.11823 0.36029
 C2308 C 0.23130 1.11186 0.37238
 C2309 C 0.23317 1.11302 0.39892
 C2310 C 0.21165 1.12057 0.41295
 C2311 C 0.25646 1.10643 0.41103
 C2312 C 0.27804 1.09869 0.39690
 C2313 C 0.27614 1.09834 0.37043
 C2314 C 0.25304 1.10473 0.35832
 H2315 H 0.20713 1.11792 0.33991
 H2316 H 0.21255 1.12127 0.43333
 H2317 H 0.25758 1.10665 0.43141
 H2318 H 0.25217 1.10401 0.33794
 H2319 H 0.17249 1.13275 0.41266
 H2320 H 0.29259 1.09289 0.35901
 C2321 C 0.23434 0.66295 0.86310
 C2322 C 0.21400 0.64677 0.85567
 C2323 C 0.21433 0.62084 0.86286
 C2324 C 0.23465 0.61120 0.87756
 C2325 C 0.25499 0.62768 0.88502
 C2326 C 0.25469 0.65349 0.87762
 C2327 C 0.27549 0.61799 0.89940
 C2328 C 0.27615 0.59195 0.90612
 C2329 C 0.25571 0.57579 0.89895
 C2330 C 0.23505 0.58536 0.88489
 H2331 H 0.19852 0.60835 0.85745
 H2332 H 0.27017 0.66634 0.88307
 H2333 H 0.29143 0.63045 0.90452
 H2334 H 0.21959 0.57249 0.87942
 H2335 H 0.23446 0.68299 0.85762
 H2336 H 0.25595 0.55563 0.90399
 C2337 C 1.10014 1.29705 1.13574
 C2338 C 1.12720 1.29842 1.13739
 C2339 C 1.14213 1.27754 1.12899
 C2340 C 1.13034 1.25598 1.11826
 C2341 C 1.10313 1.25493 1.11630
 C2342 C 1.08819 1.27544 1.12533
 C2343 C 1.09139 1.23350 1.10513
 C2344 C 1.10652 1.21317 1.09579
 C2345 C 1.13355 1.21442 1.09796
 C2346 C 1.14536 1.23561 1.10914
 H2347 H 1.16301 1.27819 1.13056
 H2348 H 1.06730 1.27496 1.12397
 H2349 H 1.07053 1.23279 1.10337
 H2350 H 1.16624 1.23611 1.11058
 H2351 H 1.08823 1.31299 1.14184
 H2352 H 1.14557 1.19878 1.09132
 C2353 C 1.12357 0.77683 0.65660
 C2354 C 1.13201 0.79601 0.63992
 C2355 C 1.12887 0.79230 0.61384
 C2356 C 1.11806 0.76953 0.60452
 C2357 C 1.10994 0.75027 0.62147
 C2358 C 1.11258 0.75419 0.64746
 C2359 C 1.09963 0.72728 0.61215
 C2360 C 1.09737 0.72318 0.58606
 C2361 C 1.10538 0.74251 0.56937
 C2362 C 1.11557 0.76553 0.57852
 H2363 H 1.13496 0.80710 0.60080
 H2364 H 1.10650 0.73958 0.66071
 H2365 H 1.09389 0.71234 0.62520
 H2366 H 1.12165 0.78012 0.56526
 H2367 H 1.12606 0.77906 0.67673
 H2368 H 1.10358 0.73987 0.54922
 C2369 C 0.62278 1.27969 0.66238
 C2370 C 0.63133 1.29857 0.64544
 C2371 C 0.62768 1.29475 0.61945
 C2372 C 0.61659 1.27200 0.61042
 C2373 C 0.60853 1.25291 0.62759
 C2374 C 0.61142 1.25707 0.65353
 C2375 C 0.59816 1.22982 0.61849
 C2376 C 0.59595 1.22546 0.59242
 C2377 C 0.60375 1.24472 0.57556
 C2378 C 0.61389 1.26783 0.58448
 H2379 H 0.63377 1.30937 0.60622
 H2380 H 0.60535 1.24263 0.66696
 H2381 H 0.59249 1.21497 0.63166
 H2382 H 0.61991 1.28231 0.57107
 H2383 H 0.62556 1.28208 0.68246
 H2384 H 0.60193 1.24190 0.55543
 C2385 C 0.59326 0.80674 1.13392
 C2386 C 0.62040 0.80755 1.13503
 C2387 C 0.63462 0.78583 1.12761
 C2388 C 0.62206 0.76381 1.11873
 C2389 C 0.59478 0.76325 1.11734
 C2390 C 0.58056 0.78478 1.12513
 C2391 C 0.58229 0.74129 1.10790
 C2392 C 0.59681 0.72005 1.09963
 C2393 C 0.62390 0.72076 1.10154
 C2394 C 0.63640 0.74241 1.11101
 H2395 H 0.65553 0.78604 1.12884
 H2396 H 0.55964 0.78474 1.12421
 H2397 H 0.56140 0.74095 1.10643
 H2398 H 0.65731 0.74247 1.11211
 H2399 H 0.58189 0.82329 1.13941
 H2400 H 0.63546 0.70445 1.09573
 C2401 C 0.87567 1.31060 0.89921
 C2402 C 0.87122 1.30979 0.87306
 C2403 C 0.87624 1.28684 0.85996
 C2404 C 0.88503 1.26490 0.87289
 C2405 C 0.88907 1.26588 0.89923
 C2406 C 0.88450 1.28891 0.91215
 C2407 C 0.89778 1.24389 0.91216
 C2408 C 0.90288 1.22102 0.89900
 C2409 C 0.89858 1.22026 0.87284
 C2410 C 0.88968 1.24192 0.85993
 H2411 H 0.87264 1.28587 0.83987
 H2412 H 0.88763 1.29014 0.93229
 H2413 H 0.90124 1.24474 0.93228
 H2414 H 0.88660 1.24072 0.83978
 H2415 H 0.87221 1.32810 0.90971
 H2416 H 0.90219 1.20279 0.86232
 C2417 C 0.90459 0.80321 0.36537
 C2418 C 0.87750 0.80554 0.36466
 C2419 C 0.86236 0.78481 0.37306
 C2420 C 0.87408 0.76214 0.38193
 C2421 C 0.90132 0.76012 0.38268
 C2422 C 0.91637 0.78080 0.37432
 C2423 C 0.91304 0.73756 0.39191
 C2424 C 0.89787 0.71690 0.40048
 C2425 C 0.87077 0.71907 0.39919
 C2426 C 0.85902 0.74142 0.39010
 H2427 H 0.84147 0.78622 0.37239
 H2428 H 0.93727 0.77968 0.37477
 H2429 H 0.93392 0.73632 0.39291
 H2430 H 0.83812 0.74249 0.38948
 H2431 H 0.91672 0.81896 0.35931
 H2432 H 0.85854 0.70335 0.40511
 C2433 C 0.38144 1.29146 0.34890
 C2434 C 0.37633 1.30973 0.36780
 C2435 C 0.38157 1.30343 0.39302
 C2436 C 0.39199 1.27931 0.39926
 C2437 C 0.39718 1.26118 0.38006
 C2438 C 0.39177 1.26745 0.35495
 C2439 C 0.40735 1.23696 0.38632
 C2440 C 0.41201 1.23049 0.41159
 C2441 C 0.40706 1.24877 0.43049
 C2442 C 0.39725 1.27299 0.42438
 H2443 H 0.37796 1.31744 0.40772
 H2444 H 0.39547 1.25377 0.34000
 H2445 H 0.41083 1.22287 0.37167
 H2446 H 0.39350 1.28664 0.43934
 H2447 H 0.37730 1.29574 0.32935
 H2448 H 0.41065 1.24422 0.45008
 C2449 C 0.40364 0.80350 0.87240
 C2450 C 0.37675 0.80457 0.86865
 C2451 C 0.36153 0.78349 0.87589
 C2452 C 0.37307 0.76140 0.88610
 C2453 C 0.40019 0.76035 0.88931
 C2454 C 0.41525 0.78162 0.88265
 C2455 C 0.41178 0.73800 0.89896
 C2456 C 0.39658 0.71672 0.90565
 C2457 C 0.36963 0.71806 0.90250
 C2458 C 0.35799 0.74015 0.89279
 H2459 H 0.34083 0.78394 0.87279
 H2460 H 0.43603 0.78125 0.88510
 H2461 H 0.43256 0.73723 0.90153
 H2462 H 0.33720 0.74057 0.89040
 H2463 H 0.41575 0.81958 0.86719
 H2464 H 0.35755 0.70182 0.90727
 C2465 C 1.16286 0.73538 0.85245
 C2466 C 1.14699 0.71411 0.84742
 C2467 C 1.12093 0.71471 0.85468
 C2468 C 1.11111 0.73595 0.86791
 C2469 C 1.12747 0.75697 0.87347
 C2470 C 1.15317 0.75668 0.86526
 C2471 C 1.11794 0.77787 0.88730
 C2472 C 1.09218 0.77820 0.89550
 C2473 C 1.07600 0.75734 0.88976
 C2474 C 1.08540 0.73634 0.87616
 H2475 H 1.10873 0.69820 0.85110
 H2476 H 1.16592 0.77268 0.86923
 H2477 H 1.13039 0.79411 0.89127
 H2478 H 1.07259 0.72042 0.87212
 H2479 H 1.18301 0.73519 0.84696
 H2480 H 1.05604 0.75732 0.89587
 C2481 C 1.08784 0.19113 0.37474
 C2482 C 1.11482 0.18926 0.37246
 C2483 C 1.13028 0.21010 0.37983
 C2484 C 1.11908 0.23243 0.38959
 C2485 C 1.09193 0.23416 0.39200
 C2486 C 1.07647 0.21340 0.38449
 C2487 C 1.08080 0.25661 0.40185
 C2488 C 1.09651 0.27727 0.40936
 C2489 C 1.12346 0.27529 0.40671
 C2490 C 1.13464 0.25308 0.39693
 H2491 H 1.15109 0.20905 0.37765
 H2492 H 1.05563 0.21437 0.38618
 H2493 H 1.06001 0.25791 0.40395
 H2494 H 1.15547 0.25208 0.39507
 H2495 H 1.07558 0.17525 0.36921
 H2496 H 1.13592 0.29112 0.41192
 C2497 C 0.59185 0.69361 0.38080
 C2498 C 0.61870 0.69248 0.37688
 C2499 C 0.63387 0.71412 0.38234
 C2500 C 0.62244 0.73666 0.39142
 C2501 C 0.59539 0.73774 0.39507
 C2502 C 0.58029 0.71606 0.38982
 C2503 C 0.58398 0.76045 0.40394
 C2504 C 0.59936 0.78192 0.40947
 C2505 C 0.62620 0.78062 0.40576
 C2506 C 0.63765 0.75820 0.39674
 H2507 H 0.65452 0.71363 0.37898
 H2508 H 0.55956 0.71649 0.39261
 H2509 H 0.56328 0.76134 0.40694
 H2510 H 0.65838 0.75771 0.39397
 H2511 H 0.57980 0.67709 0.37690
 H2512 H 0.63831 0.79709 0.40970
 C2513 C 0.59524 0.19422 0.87911
 C2514 C 0.62196 0.19427 0.87435
 C2515 C 0.63648 0.21629 0.88001
 C2516 C 0.62449 0.23811 0.88997
 C2517 C 0.59753 0.23807 0.89432
 C2518 C 0.58311 0.21597 0.88901
 C2519 C 0.58550 0.26017 0.90383
 C2520 C 0.60018 0.28210 0.90932
 C2521 C 0.62696 0.28188 0.90508
 C2522 C 0.63902 0.26009 0.89540
 H2523 H 0.65701 0.21670 0.87601
 H2524 H 0.56247 0.21554 0.89236
 H2525 H 0.56485 0.26024 0.90728
 H2526 H 0.65968 0.26043 0.89213
 H2527 H 0.58372 0.17737 0.87509
 H2528 H 0.63852 0.29874 0.90905
 C2529 C 0.83659 0.72398 1.12932
 C2530 C 0.85502 0.70516 1.13554
 C2531 C 0.88087 0.70872 1.12837
 C2532 C 0.88831 0.73090 1.11531
 C2533 C 0.86972 0.74992 1.10943
 C2534 C 0.84388 0.74621 1.11644
 C2535 C 0.87737 0.77251 1.09711
 C2536 C 0.90344 0.77643 1.09083
 C2537 C 0.92160 0.75706 1.09615
 C2538 C 0.91411 0.73450 1.10825
 H2539 H 0.89511 0.69411 1.13278
 H2540 H 0.82936 0.76056 1.11212
 H2541 H 0.86327 0.78743 1.09330
 H2542 H 0.92858 0.72004 1.11242
 H2543 H 0.81657 0.72161 1.13475
 H2544 H 0.94174 0.75956 1.09121
 C2545 C 0.90323 0.19166 0.62315
 C2546 C 0.87656 0.19151 0.62810
 C2547 C 0.86177 0.21340 0.62265
 C2548 C 0.87370 0.23566 0.61339
 C2549 C 0.90069 0.23587 0.60910
 C2550 C 0.91519 0.21361 0.61362
 C2551 C 0.91274 0.25839 0.60061
 C2552 C 0.89811 0.28064 0.59615
 C2553 C 0.87129 0.28019 0.60040
 C2554 C 0.85920 0.25793 0.60897
 H2555 H 0.84125 0.21349 0.62676
 H2556 H 0.93585 0.21335 0.61033
 H2557 H 0.93338 0.25855 0.59713
 H2558 H 0.83853 0.25816 0.61223
 H2559 H 0.91492 0.17491 0.62727
 H2560 H 0.85969 0.29721 0.59719
 C2561 C 0.39888 0.69668 0.62987
 C2562 C 0.37189 0.69668 0.63299
 C2563 C 0.35760 0.71826 0.62535
 C2564 C 0.37018 0.73992 0.61548
 C2565 C 0.39739 0.73990 0.61284
 C2566 C 0.41150 0.71804 0.61980
 C2567 C 0.41001 0.76179 0.60343
 C2568 C 0.39574 0.78365 0.59647
 C2569 C 0.36871 0.78341 0.59926
 C2570 C 0.35606 0.76179 0.60865
 H2571 H 0.33683 0.71857 0.62800
 H2572 H 0.43233 0.71759 0.61782
 H2573 H 0.43083 0.76170 0.60118
 H2574 H 0.33523 0.76222 0.61067
 H2575 H 0.41025 0.68020 0.63555
 H2576 H 0.35731 0.80013 0.59431
 C2577 C 0.40565 0.18732 1.12665
 C2578 C 0.37870 0.18590 1.12978
 C2579 C 0.36351 0.20750 1.12398
 C2580 C 0.37507 0.23029 1.11552
 C2581 C 0.40221 0.23158 1.11268
 C2582 C 0.41730 0.20992 1.11817
 C2583 C 0.41376 0.25446 1.10431
 C2584 C 0.39845 0.27596 1.09845
 C2585 C 0.37151 0.27446 1.10150
 C2586 C 0.35993 0.25188 1.11000
 H2587 H 0.34276 0.20679 1.12666
 H2588 H 0.43810 0.21048 1.11600
 H2589 H 0.43453 0.25539 1.10183
 H2590 H 0.33912 0.25129 1.11217
 H2591 H 0.41776 0.17087 1.13078
 H2592 H 0.35936 0.29087 1.09734
 C2593 C 1.11521 1.08552 0.69172
 C2594 C 1.11838 1.11225 0.68988
 C2595 C 1.11429 1.12763 0.71121
 C2596 C 1.10725 1.11651 0.73419
 C2597 C 1.10400 1.08960 0.73594
 C2598 C 1.10794 1.07428 0.71454
 C2599 C 1.09678 1.07856 0.75900
 C2600 C 1.09261 1.09416 0.78022
 C2601 C 1.09634 1.12083 0.77828
 C2602 C 1.10358 1.13190 0.75549
 H2603 H 1.11721 1.14821 0.71006
 H2604 H 1.10555 1.05364 0.71550
 H2605 H 1.09381 1.05800 0.76032
 H2606 H 1.10619 1.15253 0.75451
 H2607 H 1.11833 1.07336 0.67545
 H2608 H 1.09361 1.13316 0.79450
 C2609 C 1.09548 0.62696 0.19907
 C2610 C 1.12271 0.62759 0.19680
 C2611 C 1.13762 0.61712 0.21656
 C2612 C 1.12569 0.60804 0.23863
 C2613 C 1.09846 0.60834 0.24072
 C2614 C 1.08357 0.61737 0.22063
 C2615 C 1.08653 0.59977 0.26291
 C2616 C 1.10148 0.59101 0.28325
 C2617 C 1.12860 0.59101 0.28105
 C2618 C 1.14057 0.59932 0.25895
 H2619 H 1.15852 0.61763 0.21573
 H2620 H 1.06266 0.61736 0.22171
 H2621 H 1.06563 0.59964 0.26425
 H2622 H 1.16147 0.59914 0.25786
 H2623 H 1.08310 0.63348 0.18393
 H2624 H 1.14063 0.58473 0.29657
 C2625 C 0.59939 1.13273 0.20134
 C2626 C 0.62650 1.13389 0.20012
 C2627 C 0.64108 1.12656 0.22128
 C2628 C 0.62889 1.11778 0.24317
 C2629 C 0.60164 1.11635 0.24417
 C2630 C 0.58706 1.12400 0.22317
 C2631 C 0.58953 1.10708 0.26605
 C2632 C 0.60440 1.09902 0.28680
 C2633 C 0.63147 1.10096 0.28562
 C2634 C 0.64359 1.11025 0.26405
 H2635 H 0.66198 1.12786 0.22077
 H2636 H 0.56615 1.12306 0.22355
 H2637 H 0.56865 1.10558 0.26673
 H2638 H 0.66449 1.11139 0.26365
 H2639 H 0.58775 1.13819 0.18525
 H2640 H 0.64332 1.09534 0.30152
 C2641 C 0.59968 0.62086 0.69754
 C2642 C 0.62627 0.62648 0.69805
 C2643 C 0.64017 0.62243 0.72045
 C2644 C 0.62745 0.61382 0.74230
 C2645 C 0.60056 0.60888 0.74170
 C2646 C 0.58697 0.61211 0.71909
 C2647 C 0.58774 0.60081 0.76368
 C2648 C 0.60155 0.59723 0.78620
 C2649 C 0.62826 0.60218 0.78656
 C2650 C 0.64107 0.61049 0.76489
 H2651 H 0.66059 0.62698 0.72115
 H2652 H 0.56642 0.60826 0.71817
 H2653 H 0.56721 0.59675 0.76317
 H2654 H 0.66164 0.61424 0.76579
 H2655 H 0.58859 0.62372 0.68046
 H2656 H 0.63927 0.59958 0.80373
 C2657 C 0.86985 0.90248 0.69720
 C2658 C 0.86760 0.87557 0.69699
 C2659 C 0.87233 0.86180 0.71922
 C2660 C 0.87923 0.87469 0.74143
 C2661 C 0.88179 0.90175 0.74145
 C2662 C 0.87701 0.91545 0.71919
 C2663 C 0.88950 0.91451 0.76358
 C2664 C 0.89493 0.90044 0.78554
 C2665 C 0.89147 0.87365 0.78542
 C2666 C 0.88371 0.86090 0.76361
 H2667 H 0.87020 0.84108 0.71930
 H2668 H 0.87884 0.93617 0.71879
 H2669 H 0.89222 0.93515 0.76349
 H2670 H 0.88160 0.84020 0.76401
 H2671 H 0.86621 0.91344 0.68023
 H2672 H 0.89523 0.86248 0.80224
 C2673 C 0.87170 0.39908 0.19536
 C2674 C 0.87024 0.37213 0.19404
 C2675 C 0.87766 0.35754 0.21510
 C2676 C 0.88593 0.36975 0.23735
 C2677 C 0.88724 0.39687 0.23847
 C2678 C 0.88021 0.41132 0.21728
 C2679 C 0.89560 0.40906 0.26070
 C2680 C 0.90278 0.39448 0.28188
 C2681 C 0.90097 0.36752 0.28060
 C2682 C 0.89271 0.35530 0.25859
 H2683 H 0.87633 0.33678 0.21438
 H2684 H 0.88112 0.43210 0.21771
 H2685 H 0.89704 0.42981 0.26134
 H2686 H 0.89164 0.33452 0.25820
 H2687 H 0.86622 0.41072 0.17932
 H2688 H 0.90593 0.35580 0.29674
 C2689 C 0.36615 0.84322 0.23306
 C2690 C 0.36270 0.86013 0.21269
 C2691 C 0.37112 0.88565 0.21486
 C2692 C 0.38351 0.89401 0.23690
 C2693 C 0.38732 0.87667 0.25708
 C2694 C 0.37834 0.85141 0.25506
 C2695 C 0.39985 0.88493 0.27904
 C2696 C 0.40822 0.91042 0.28128
 C2697 C 0.40441 0.92753 0.26118
 C2698 C 0.39230 0.91936 0.23908
 H2699 H 0.36875 0.89872 0.19913
 H2700 H 0.38093 0.83794 0.27040
 H2701 H 0.40236 0.87180 0.29470
 H2702 H 0.38958 0.93291 0.22382
 H2703 H 0.35961 0.82351 0.23182
 H2704 H 0.41068 0.94731 0.26270
 C2705 C 0.41193 0.38204 0.69549
 C2706 C 0.38509 0.37842 0.69343
 C2707 C 0.36943 0.38231 0.71465
 C2708 C 0.38039 0.38941 0.73775
 C2709 C 0.40743 0.39289 0.73973
 C2710 C 0.42300 0.38929 0.71843
 C2711 C 0.41834 0.40004 0.76291
 C2712 C 0.40248 0.40403 0.78400
 C2713 C 0.37569 0.40021 0.78185
 C2714 C 0.36474 0.39292 0.75895
 H2715 H 0.34877 0.37912 0.71335
 H2716 H 0.44374 0.39194 0.71955
 H2717 H 0.43899 0.40315 0.76442
 H2718 H 0.34402 0.39019 0.75780
 H2719 H 0.42434 0.37917 0.67932
 H2720 H 0.36318 0.40296 0.79797
 C2721 C 1.15690 0.87860 1.27601
 C2722 C 1.13798 0.86857 1.29247
 C2723 C 1.11190 0.86932 1.28476
 C2724 C 1.10491 0.88056 1.26170
 C2725 C 1.12418 0.89022 1.24546
 C2726 C 1.15010 0.88899 1.25274
 C2727 C 1.11727 0.90086 1.22213
 C2728 C 1.09118 0.90247 1.21494
 C2729 C 1.07209 0.89367 1.23174
 C2730 C 1.07889 0.88261 1.25475
 H2731 H 1.09681 0.86247 1.29719
 H2732 H 1.16517 0.89617 1.24047
 H2733 H 1.13225 0.90731 1.20939
 H2734 H 1.06378 0.87570 1.26711
 H2735 H 1.17726 0.87762 1.28061
 H2736 H 1.05179 0.89523 1.22706
 C2737 C 1.15368 0.38560 0.78244
 C2738 C 1.13471 0.37416 0.79793
 C2739 C 1.10877 0.37480 0.78987
 C2740 C 1.10195 0.38702 0.76725
 C2741 C 1.12130 0.39777 0.75176
 C2742 C 1.14708 0.39694 0.75954
 C2743 C 1.11462 0.40885 0.72857
 C2744 C 1.08869 0.40972 0.72078
 C2745 C 1.06946 0.40023 0.73706
 C2746 C 1.07603 0.38876 0.75991
 H2747 H 1.09366 0.36692 0.80166
 H2748 H 1.16220 0.40501 0.74789
 H2749 H 1.12970 0.41594 0.71627
 H2750 H 1.06085 0.38109 0.77175
 H2751 H 1.17396 0.38486 0.78739
 H2752 H 1.04923 0.40130 0.73192
 C2753 C 0.64889 0.88172 0.78353
 C2754 C 0.62934 0.87516 0.80073
 C2755 C 0.60342 0.87996 0.79434
 C2756 C 0.59712 0.89110 0.77104
 C2757 C 0.61695 0.89745 0.75383
 C2758 C 0.64277 0.89274 0.76031
 C2759 C 0.61061 0.90797 0.73027
 C2760 C 0.58465 0.91203 0.72356
 C2761 C 0.56514 0.90616 0.74105
 C2762 C 0.57130 0.89583 0.76457
 H2763 H 0.58822 0.87520 0.80756
 H2764 H 0.65822 0.89739 0.74735
 H2765 H 0.62579 0.91217 0.71685
 H2766 H 0.55586 0.89125 0.77757
 H2767 H 0.66899 0.87796 0.78792
 H2768 H 0.54501 0.90941 0.73643
 C2769 C 0.66373 0.37206 1.26842
 C2770 C 0.64688 0.36116 1.28639
 C2771 C 0.62001 0.36404 1.28280
 C2772 C 0.61032 0.37774 1.26214
 C2773 C 0.62751 0.38826 1.24429
 C2774 C 0.65414 0.38525 1.24757
 C2775 C 0.61780 0.40132 1.22326
 C2776 C 0.59103 0.40411 1.21987
 C2777 C 0.57410 0.39430 1.23817
 C2778 C 0.58365 0.38118 1.25910
 H2779 H 0.60651 0.35681 1.29664
 H2780 H 0.66760 0.39305 1.23396
 H2781 H 0.63102 0.40853 1.20912
 H2782 H 0.57017 0.37350 1.27275
 H2783 H 0.68445 0.36966 1.26984
 H2784 H 0.55340 0.39652 1.23611
 C2785 C 0.87171 1.09548 1.30222
 C2786 C 0.87128 1.12245 1.30346
 C2787 C 0.87996 1.13667 1.28263
 C2788 C 0.88915 1.12421 1.26099
 C2789 C 0.88972 1.09708 1.25998
 C2790 C 0.88090 1.08290 1.28071
 C2791 C 0.89924 1.08467 1.23835
 C2792 C 0.90833 1.09909 1.21777
 C2793 C 0.90725 1.12606 1.21896
 C2794 C 0.89779 1.13849 1.24033
 H2795 H 0.87929 1.15747 1.28315
 H2796 H 0.88119 1.06210 1.28033
 H2797 H 0.90006 1.06388 1.23771
 H2798 H 0.89731 1.15929 1.24071
 H2799 H 0.86527 1.08409 1.31807
 H2800 H 0.91362 1.13763 1.20321
 C2801 C 0.87367 0.59560 0.80134
 C2802 C 0.87174 0.62248 0.80292
 C2803 C 0.88006 0.63755 0.78258
 C2804 C 0.88983 0.62595 0.76074
 C2805 C 0.89161 0.59888 0.75926
 C2806 C 0.88363 0.58390 0.77974
 C2807 C 0.90118 0.58730 0.73728
 C2808 C 0.90890 0.60242 0.71669
 C2809 C 0.90688 0.62931 0.71840
 C2810 C 0.89752 0.64096 0.74022
 H2811 H 0.87830 0.65828 0.78351
 H2812 H 0.88489 0.56314 0.77897
 H2813 H 0.90283 0.56657 0.73628
 H2814 H 0.89612 0.66171 0.74098
 H2815 H 0.86748 0.58364 0.81688
 H2816 H 0.91223 0.64139 0.70266
 C2817 C 0.37939 1.16168 0.77800
 C2818 C 0.37123 1.14300 0.79535
 C2819 C 0.37533 1.11690 0.78982
 C2820 C 0.38657 1.10950 0.76692
 C2821 C 0.39412 1.12841 0.74934
 C2822 C 0.39076 1.15446 0.75521
 C2823 C 0.40430 1.12094 0.72595
 C2824 C 0.40682 1.09477 0.71982
 C2825 C 0.39982 1.07617 0.73773
 C2826 C 0.38983 1.08346 0.76108
 H2827 H 0.36943 1.10235 0.80321
 H2828 H 0.39644 1.16922 0.74196
 H2829 H 0.40940 1.13546 0.71222
 H2830 H 0.38429 1.06871 0.77440
 H2831 H 0.37621 1.18189 0.78170
 H2832 H 0.40196 1.05591 0.73361
 C2833 C 0.36831 0.66776 1.27354
 C2834 C 0.35922 0.65064 1.29198
 C2835 C 0.36275 0.62410 1.28843
 C2836 C 0.37507 0.61479 1.26668
 C2837 C 0.38388 0.63219 1.24818
 C2838 C 0.38049 0.65863 1.25185
 C2839 C 0.39562 0.62288 1.22616
 C2840 C 0.39872 0.59632 1.22230
 C2841 C 0.39026 0.57922 1.24105
 C2842 C 0.37854 0.58835 1.26302
 H2843 H 0.35602 0.61074 1.30263
 H2844 H 0.38707 0.67226 1.23784
 H2845 H 0.40172 0.63630 1.21175
 H2846 H 0.37206 0.57472 1.27705
 H2847 H 0.36553 0.68826 1.27568
 H2848 H 0.39273 0.55871 1.23874
 C2849 C 1.11976 1.28450 0.84254
 C2850 C 1.12634 1.30327 0.86052
 C2851 C 1.12282 1.29763 0.88623
 C2852 C 1.11335 1.27357 0.89385
 C2853 C 1.10692 1.25491 0.87556
 C2854 C 1.11005 1.26064 0.84997
 C2855 C 1.09779 1.23072 0.88318
 C2856 C 1.09524 1.22477 0.90890
 C2857 C 1.10162 1.24354 0.92691
 C2858 C 1.11048 1.26772 0.91947
 H2859 H 1.12749 1.31193 0.90035
 H2860 H 1.10535 1.24653 0.83568
 H2861 H 1.09323 1.21632 0.86911
 H2862 H 1.11527 1.28179 0.93376
 H2863 H 1.12269 1.28799 0.82266
 H2864 H 1.09956 1.23954 0.94681
 C2865 C 1.09957 0.80325 0.36174
 C2866 C 1.12671 0.80452 0.36120
 C2867 C 1.14108 0.78353 0.37027
 C2868 C 1.12856 0.76154 0.37958
 C2869 C 1.10127 0.76053 0.38021
 C2870 C 1.08697 0.78155 0.37126
 C2871 C 1.08879 0.73859 0.38985
 C2872 C 1.10329 0.71758 0.39885
 C2873 C 1.13045 0.71875 0.39756
 C2874 C 1.14292 0.74048 0.38815
 H2875 H 1.16201 0.78412 0.36963
 H2876 H 1.06604 0.78119 0.37156
 H2877 H 1.06788 0.73808 0.39077
 H2878 H 1.16385 0.74078 0.38757
 H2879 H 1.08807 0.81922 0.35496
 H2880 H 1.14217 0.70270 0.40374
 C2881 C 0.62651 1.27667 0.33567
 C2882 C 0.63973 1.29412 0.35148
 C2883 C 0.63999 1.28917 0.37765
 C2884 C 0.62745 1.26756 0.38763
 C2885 C 0.61493 1.25010 0.37137
 C2886 C 0.61452 1.25488 0.34547
 C2887 C 0.60319 1.22802 0.38122
 C2888 C 0.60323 1.22330 0.40732
 C2889 C 0.61506 1.24131 0.42340
 C2890 C 0.62719 1.26310 0.41366
 H2891 H 0.64909 1.30256 0.39051
 H2892 H 0.60506 1.24164 0.33270
 H2893 H 0.59456 1.21426 0.36843
 H2894 H 0.63640 1.27644 0.42649
 H2895 H 0.62643 1.27895 0.31543
 H2896 H 0.61495 1.23860 0.44361
 C2897 C 0.58998 0.80421 0.86593
 C2898 C 0.61706 0.80623 0.86588
 C2899 C 0.63193 0.78556 0.87484
 C2900 C 0.62003 0.76345 0.88433
 C2901 C 0.59279 0.76174 0.88480
 C2902 C 0.57793 0.78217 0.87537
 C2903 C 0.58095 0.73975 0.89490
 C2904 C 0.59606 0.71953 0.90460
 C2905 C 0.62315 0.72138 0.90354
 C2906 C 0.63501 0.74312 0.89355
 H2907 H 0.65284 0.78669 0.87443
 H2908 H 0.55702 0.78120 0.87551
 H2909 H 0.56006 0.73861 0.89569
 H2910 H 0.65592 0.74406 0.89313
 H2911 H 0.57814 0.81993 0.85918
 H2912 H 0.63524 0.70587 0.91031
 C2913 C 0.87411 1.30472 1.09813
 C2914 C 0.87499 1.30687 1.12467
 C2915 C 0.88674 1.28686 1.13845
 C2916 C 0.89549 1.26452 1.12616
 C2917 C 0.89394 1.26261 1.09965
 C2918 C 0.88370 1.28306 1.08582
 C2919 C 0.90235 1.24019 1.08738
 C2920 C 0.91185 1.21926 1.10130
 C2921 C 0.91279 1.22124 1.12777
 C2922 C 0.90497 1.24368 1.14003
 H2923 H 0.88733 1.28766 1.15884
 H2924 H 0.88261 1.28210 1.06546
 H2925 H 0.90165 1.23913 1.06701
 H2926 H 0.90599 1.24457 1.16039
 H2927 H 0.86633 1.32006 1.08664
 H2928 H 0.91938 1.20528 1.13916
 C2929 C 0.90362 0.80184 0.63316
 C2930 C 0.87654 0.80292 0.63485
 C2931 C 0.86194 0.78175 0.62658
 C2932 C 0.87405 0.76022 0.61601
 C2933 C 0.90125 0.75950 0.61389
 C2934 C 0.91588 0.78032 0.62277
 C2935 C 0.91328 0.73811 0.60274
 C2936 C 0.89841 0.71743 0.59364
 C2937 C 0.87138 0.71834 0.59621
 C2938 C 0.85933 0.73950 0.60726
 H2939 H 0.84106 0.78213 0.62821
 H2940 H 0.93676 0.78012 0.62134
 H2941 H 0.93411 0.73774 0.60077
 H2942 H 0.83846 0.73969 0.60889
 H2943 H 0.91528 0.81794 0.63924
 H2944 H 0.85950 0.70248 0.58992
 C2945 C 0.41075 1.31016 0.62561
 C2946 C 0.38370 1.31405 0.62531
 C2947 C 0.36803 1.29458 0.61488
 C2948 C 0.37895 1.27144 0.60633
 C2949 C 0.40600 1.26786 0.60716
 C2950 C 0.42171 1.28750 0.61649
 C2951 C 0.41690 1.24464 0.59884
 C2952 C 0.40105 1.22467 0.58998
 C2953 C 0.37408 1.22835 0.58962
 C2954 C 0.36317 1.25152 0.59753
 H2955 H 0.34718 1.29652 0.61486
 H2956 H 0.44253 1.28524 0.61702
 H2957 H 0.43770 1.24222 0.59904
 H2958 H 0.34236 1.25375 0.59700
 H2959 H 0.42375 1.32490 0.63237
 H2960 H 0.36130 1.21316 0.58341
 C2961 C 0.37184 0.77476 1.16291
 C2962 C 0.36318 0.79411 1.14625
 C2963 C 0.36548 0.78972 1.12010
 C2964 C 0.37683 0.76707 1.11097
 C2965 C 0.38549 0.74814 1.12804
 C2966 C 0.38272 0.75207 1.15391
 C2967 C 0.39680 0.72553 1.11900
 C2968 C 0.39988 0.72157 1.09303
 C2969 C 0.39142 0.74060 1.07614
 C2970 C 0.37995 0.76315 1.08503
 H2971 H 0.35978 0.80435 1.10671
 H2972 H 0.38900 0.73760 1.16724
 H2973 H 0.40281 0.71081 1.13220
 H2974 H 0.37358 0.77751 1.07162
 H2975 H 0.36949 0.77658 1.18308
 H2976 H 0.39379 0.73808 1.05603
 C2977 C 0.89922 0.69291 0.87169
 C2978 C 0.87225 0.69180 0.86846
 C2979 C 0.85721 0.71321 0.87534
 C2980 C 0.86892 0.73544 0.88503
 C2981 C 0.89607 0.73641 0.88793
 C2982 C 0.91101 0.71498 0.88131
 C2983 C 0.90779 0.75876 0.89740
 C2984 C 0.89269 0.78013 0.90422
 C2985 C 0.86571 0.77890 0.90125
 C2986 C 0.85394 0.75681 0.89171
 H2987 H 0.83645 0.71279 0.87265
 H2988 H 0.93182 0.71529 0.88352
 H2989 H 0.92858 0.75942 0.89980
 H2990 H 0.83313 0.75647 0.88955
 H2991 H 0.91123 0.67660 0.86686
 H2992 H 0.85369 0.79522 0.90607
 C2993 C 0.90466 0.19594 0.36856
 C2994 C 0.87766 0.19474 0.36606
 C2995 C 0.86263 0.21582 0.37383
 C2996 C 0.87421 0.23740 0.38473
 C2997 C 0.90133 0.23829 0.38755
 C2998 C 0.91642 0.21756 0.37919
 C2999 C 0.91284 0.25985 0.39877
 C3000 C 0.89754 0.28049 0.40722
 C3001 C 0.87058 0.27933 0.40423
 C3002 C 0.85902 0.25799 0.39307
 H3003 H 0.84181 0.21536 0.37154
 H3004 H 0.93725 0.21793 0.38119
 H3005 H 0.93363 0.26047 0.40113
 H3006 H 0.83820 0.25761 0.39096
 H3007 H 0.91663 0.17988 0.36289
 H3008 H 0.85844 0.29517 0.41014
 C3009 C 0.33408 0.73296 0.37167
 C3010 C 0.35117 0.71481 0.36096
 C3011 C 0.37796 0.71838 0.36440
 C3012 C 0.38732 0.73913 0.37855
 C3013 C 0.36989 0.75722 0.38879
 C3014 C 0.34334 0.75398 0.38518
 C3015 C 0.37929 0.77845 0.40218
 C3016 C 0.40598 0.78176 0.40568
 C3017 C 0.42311 0.76308 0.39626
 C3018 C 0.41388 0.74204 0.38271
 H3019 H 0.39162 0.70441 0.35719
 H3020 H 0.32969 0.76775 0.39278
 H3021 H 0.36588 0.79282 0.40908
 H3022 H 0.42754 0.72818 0.37531
 H3023 H 0.31341 0.73159 0.36886
 H3024 H 0.44375 0.76496 0.39907
 C3025 C 0.34069 0.21793 0.88012
 C3026 C 0.35905 0.20172 0.86843
 C3027 C 0.38547 0.20784 0.87115
 C3028 C 0.39327 0.22958 0.88478
 C3029 C 0.37457 0.24605 0.89549
 C3030 C 0.34835 0.23992 0.89322
 C3031 C 0.38238 0.26863 0.90782
 C3032 C 0.40875 0.27484 0.90979
 C3033 C 0.42719 0.25750 0.90022
 C3034 C 0.41954 0.23521 0.88771
 H3035 H 0.40018 0.19530 0.86341
 H3036 H 0.33371 0.25232 0.90130
 H3037 H 0.36790 0.28179 0.91498
 H3038 H 0.43419 0.22257 0.88001
 H3039 H 0.32017 0.21455 0.87810
 H3040 H 0.44766 0.26139 0.90205
 C3041 C 1.10904 0.71449 1.15163
 C3042 C 1.12173 0.69728 1.13520
 C3043 C 1.12281 0.70340 1.10934
 C3044 C 1.11148 0.72602 1.10019
 C3045 C 1.09963 0.74333 1.11709
 C3046 C 1.09842 0.73735 1.14271
 C3047 C 1.08941 0.76650 1.10819
 C3048 C 1.09014 0.77244 1.08237
 C3049 C 1.10101 0.75453 1.06556
 C3050 C 1.11180 0.73166 1.07441
 H3051 H 1.13161 0.69019 1.09610
 H3052 H 1.08941 0.75044 1.15594
 H3053 H 1.08154 0.78015 1.12155
 H3054 H 1.12045 0.71843 1.06109
 H3055 H 1.10843 0.71112 1.17172
 H3056 H 1.10131 0.75821 1.04550
 C3057 C 1.08841 0.18808 0.63031
 C3058 C 1.11525 0.18350 0.62802
 C3059 C 1.13073 0.20319 0.61775
 C3060 C 1.11986 0.22675 0.61042
 C3061 C 1.09296 0.23076 0.61244
 C3062 C 1.07742 0.21125 0.62236
 C3063 C 1.08207 0.25418 0.60450
 C3064 C 1.09786 0.27390 0.59494
 C3065 C 1.12477 0.26988 0.59397
 C3066 C 1.13560 0.24652 0.60137
 H3067 H 1.15149 0.20088 0.61659
 H3068 H 1.05672 0.21390 0.62402
 H3069 H 1.06132 0.25683 0.60536
 H3070 H 1.15635 0.24398 0.60008
 H3071 H 1.07552 0.17340 0.63734
 H3072 H 1.13762 0.28487 0.58751
 C3073 C 0.59691 0.69674 0.63061
 C3074 C 0.62378 0.69676 0.63458
 C3075 C 0.63795 0.71906 0.62912
 C3076 C 0.62551 0.74103 0.61981
 C3077 C 0.59848 0.74083 0.61589
 C3078 C 0.58436 0.71857 0.62134
 C3079 C 0.58610 0.76281 0.60636
 C3080 C 0.60052 0.78483 0.60042
 C3081 C 0.62733 0.78486 0.60470
 C3082 C 0.63971 0.76319 0.61435
 H3083 H 0.65862 0.71944 0.63247
 H3084 H 0.56365 0.71801 0.61838
 H3085 H 0.56544 0.76260 0.60297
 H3086 H 0.66042 0.76372 0.61737
 H3087 H 0.58560 0.67971 0.63450
 H3088 H 0.63875 0.80175 0.60054
 C3089 C 0.65604 0.21444 1.12071
 C3090 C 0.63748 0.19759 1.13109
 C3091 C 0.61114 0.20422 1.12885
 C3092 C 0.60360 0.22688 1.11655
 C3093 C 0.62250 0.24379 1.10699
 C3094 C 0.64864 0.23732 1.10909
 C3095 C 0.61499 0.26709 1.09586
 C3096 C 0.58870 0.27359 1.09385
 C3097 C 0.57003 0.25592 1.10228
 C3098 C 0.57740 0.23293 1.11370
 H3099 H 0.59632 0.19135 1.13577
 H3100 H 0.66343 0.25007 1.10191
 H3101 H 0.62965 0.28048 1.08962
 H3102 H 0.56258 0.21999 1.12050
 H3103 H 0.67653 0.21070 1.12258
 H3104 H 0.54961 0.26004 1.10036
 C3105 C 1.27845 1.12341 0.83666
 C3106 C 1.29727 1.13043 0.85447
 C3107 C 1.29360 1.12396 0.87988
 C3108 C 1.27109 1.11133 0.88759
 C3109 C 1.25196 1.10485 0.86965
 C3110 C 1.25597 1.11073 0.84418
 C3111 C 1.22890 1.09325 0.87759
 C3112 C 1.22462 1.08841 0.90328
 C3113 C 1.24409 1.09427 0.92082
 C3114 C 1.26716 1.10555 0.91304
 H3115 H 1.30822 1.12894 0.89368
 H3116 H 1.24154 1.10591 0.83017
 H3117 H 1.21389 1.08900 0.86397
 H3118 H 1.28170 1.11024 0.92700
 H3119 H 1.28087 1.12831 0.81698
 H3120 H 1.24129 1.09040 0.94066
 C3121 C 1.26309 0.66339 0.35785
 C3122 C 1.28472 0.64798 0.35250
 C3123 C 1.28432 0.62182 0.35885
 C3124 C 1.26296 0.61141 0.37148
 C3125 C 1.24162 0.62730 0.37745
 C3126 C 1.24169 0.65313 0.37015
 C3127 C 1.22064 0.61717 0.39077
 C3128 C 1.22055 0.59128 0.39805
 C3129 C 1.24165 0.57552 0.39182
 C3130 C 1.26276 0.58553 0.37874
 H3131 H 1.30106 0.60992 0.35500
 H3132 H 1.22542 0.66552 0.37441
 H3133 H 1.20418 0.62928 0.39513
 H3134 H 1.27892 0.57307 0.37434
 H3135 H 1.26304 0.68359 0.35297
 H3136 H 1.24182 0.55546 0.39721
 C3137 C 0.78562 1.15235 0.37656
 C3138 C 0.80429 1.13353 0.37104
 C3139 C 0.79961 1.10789 0.37774
 C3140 C 0.77659 1.10115 0.39001
 C3141 C 0.75793 1.12026 0.39545
 C3142 C 0.76264 1.14579 0.38863
 C3143 C 0.73465 1.11346 0.40716
 C3144 C 0.72960 1.08773 0.41320
 C3145 C 0.74846 1.06895 0.40821
 C3146 C 0.77180 1.07560 0.39679
 H3147 H 0.81403 1.09332 0.37374
 H3148 H 0.74854 1.16066 0.39255
 H3149 H 0.72006 1.12798 0.41065
 H3150 H 0.78590 1.06072 0.39290
 H3151 H 0.78879 1.17221 0.37137
 H3152 H 0.74494 1.04901 0.41284
 C3153 C 0.77982 0.62150 0.84664
 C3154 C 0.79902 0.62825 0.86420
 C3155 C 0.79395 0.62530 0.89005
 C3156 C 0.77018 0.61529 0.89820
 C3157 C 0.75118 0.60832 0.88031
 C3158 C 0.75615 0.61164 0.85460
 C3159 C 0.72749 0.59819 0.88838
 C3160 C 0.72240 0.59498 0.91417
 C3161 C 0.74140 0.60199 0.93182
 C3162 C 0.76509 0.61200 0.92392
 H3163 H 0.80868 0.63027 0.90373
 H3164 H 0.74176 0.60655 0.84064
 H3165 H 0.71284 0.59323 0.87462
 H3166 H 0.77942 0.61717 0.93792
 H3167 H 0.78311 0.62396 0.82666
 H3168 H 0.73799 0.59952 0.95179
 C3169 C 1.30229 0.89486 1.13665
 C3170 C 1.30252 0.86794 1.13875
 C3171 C 1.28205 0.85379 1.12821
 C3172 C 1.26167 0.86625 1.11579
 C3173 C 1.26159 0.89331 1.11383
 C3174 C 1.28204 0.90743 1.12426
 C3175 C 1.24096 0.90577 1.10168
 C3176 C 1.22030 0.89151 1.09157
 C3177 C 1.22074 0.86458 1.09356
 C3178 C 1.24123 0.85208 1.10551
 H3179 H 1.28172 0.83306 1.13008
 H3180 H 1.28234 0.92819 1.12291
 H3181 H 1.24098 0.92652 1.10009
 H3182 H 1.24095 0.83132 1.10693
 H3183 H 1.31793 0.90618 1.14441
 H3184 H 1.20490 0.85316 1.08637
 C3185 C 1.31168 0.40738 0.62762
 C3186 C 1.31390 0.38052 0.62961
 C3187 C 1.29265 0.36515 0.62291
 C3188 C 1.26947 0.37645 0.61457
 C3189 C 1.26748 0.40347 0.61269
 C3190 C 1.28875 0.41874 0.61920
 C3191 C 1.24433 0.41475 0.60419
 C3192 C 1.22312 0.39934 0.59741
 C3193 C 1.22529 0.37249 0.59971
 C3194 C 1.24820 0.36117 0.60817
 H3195 H 1.29401 0.34445 0.62463
 H3196 H 1.28765 0.43947 0.61781
 H3197 H 1.24301 0.43544 0.60234
 H3198 H 1.24928 0.34044 0.60966
 H3199 H 1.32783 0.41965 0.63243
 H3200 H 1.20914 0.36017 0.59502
 C3201 C 0.78490 0.84650 0.62052
 C3202 C 0.80326 0.86502 0.62766
 C3203 C 0.79786 0.89114 0.62360
 C3204 C 0.77424 0.89872 0.61298
 C3205 C 0.75580 0.87994 0.60616
 C3206 C 0.76141 0.85389 0.60982
 C3207 C 0.73188 0.88753 0.59626
 C3208 C 0.72600 0.91369 0.59327
 C3209 C 0.74461 0.93220 0.59972
 C3210 C 0.76856 0.92478 0.60943
 H3211 H 0.81200 0.90556 0.62877
 H3212 H 0.74747 0.83924 0.60477
 H3213 H 0.71753 0.87312 0.59163
 H3214 H 0.78249 0.93943 0.61445
 H3215 H 0.78847 0.82627 0.62375
 H3216 H 0.74058 0.95246 0.59729
 C3217 C 0.78237 0.34732 1.12262
 C3218 C 0.80097 0.36595 1.12875
 C3219 C 0.79528 0.39204 1.12504
 C3220 C 0.77132 0.39942 1.11497
 C3221 C 0.75278 0.38047 1.10880
 C3222 C 0.75847 0.35451 1.11276
 C3223 C 0.72876 0.38779 1.09898
 C3224 C 0.72289 0.41383 1.09526
 C3225 C 0.74152 0.43253 1.10118
 C3226 C 0.76554 0.42538 1.11094
 H3227 H 0.80962 0.40647 1.12960
 H3228 H 0.74446 0.33976 1.10824
 H3229 H 0.71439 0.37326 1.09482
 H3230 H 0.77953 0.44016 1.11544
 H3231 H 0.78631 0.32712 1.12564
 H3232 H 0.73747 0.45271 1.09824
 C3233 C 0.70063 1.09911 1.13701
 C3234 C 0.69983 1.12602 1.13909
 C3235 C 0.72149 1.14043 1.13179
 C3236 C 0.74333 1.12830 1.12177
 C3237 C 0.74382 1.10127 1.11930
 C3238 C 0.72247 1.08683 1.12723
 C3239 C 0.76548 1.08924 1.10863
 C3240 C 0.78653 1.10395 1.10019
 C3241 C 0.78591 1.13078 1.10308
 C3242 C 0.76454 1.14284 1.11381
 H3243 H 0.72127 1.16116 1.13373
 H3244 H 0.72249 1.06610 1.12549
 H3245 H 0.76574 1.06855 1.10635
 H3246 H 0.76450 1.16357 1.11569
 H3247 H 0.68410 1.08762 1.14234
 H3248 H 0.80211 1.14244 1.09714
 C3249 C 0.71796 0.65578 0.62904
 C3250 C 0.69961 0.63691 0.63537
 C3251 C 0.70526 0.61102 0.63008
 C3252 C 0.72863 0.60419 0.61821
 C3253 C 0.74674 0.62341 0.61169
 C3254 C 0.74123 0.64912 0.61737
 C3255 C 0.77014 0.61656 0.59987
 C3256 C 0.77587 0.59066 0.59482
 C3257 C 0.75757 0.57178 0.60116
 C3258 C 0.73418 0.57846 0.61263
 H3259 H 0.69122 0.59631 0.63462
 H3260 H 0.75490 0.66412 0.61270
 H3261 H 0.78421 0.63125 0.59534
 H3262 H 0.72056 0.56344 0.61736
 H3263 H 0.71424 0.67582 0.63312
 H3264 H 0.76149 0.55171 0.59737
 C3265 C 0.18672 1.08976 0.61795
 C3266 C 0.18393 1.11639 0.62158
 C3267 C 0.20450 1.13272 0.61519
 C3268 C 0.22777 1.12256 0.60593
 C3269 C 0.23053 1.09571 0.60291
 C3270 C 0.20979 1.07952 0.60871
 C3271 C 0.25402 1.08550 0.59427
 C3272 C 0.27475 1.10180 0.58840
 C3273 C 0.27173 1.12848 0.59126
 C3274 C 0.24848 1.13877 0.60000
 H3275 H 0.20271 1.15325 0.61816
 H3276 H 0.21148 1.05891 0.60634
 H3277 H 0.25612 1.06492 0.59187
 H3278 H 0.24674 1.15938 0.60224
 H3279 H 0.17103 1.07680 0.62242
 H3280 H 0.28754 1.14137 0.58703
 C3281 C 0.21393 0.65524 1.12948
 C3282 C 0.19510 0.63657 1.13487
 C3283 C 0.20028 0.61073 1.12912
 C3284 C 0.22377 0.60371 1.11769
 C3285 C 0.24244 0.62273 1.11214
 C3286 C 0.23735 0.64841 1.11826
 C3287 C 0.26598 0.61571 1.10085
 C3288 C 0.27129 0.58985 1.09533
 C3289 C 0.25248 0.57116 1.10066
 C3290 C 0.22893 0.57802 1.11165
 H3291 H 0.18582 0.59623 1.13300
 H3292 H 0.25144 0.66323 1.11430
 H3293 H 0.28048 0.63022 1.09710
 H3294 H 0.21486 0.56318 1.11564
 H3295 H 0.21048 0.67525 1.13396
 H3296 H 0.25611 0.55113 1.09645
 C3297 C 0.68739 0.87311 0.90215
 C3298 C 0.68765 0.87086 0.87576
 C3299 C 0.71016 0.87741 0.86252
 C3300 C 0.73203 0.88634 0.87533
 C3301 C 0.73159 0.88872 0.90186
 C3302 C 0.70917 0.88198 0.91509
 C3303 C 0.75347 0.89804 0.91459
 C3304 C 0.77561 0.90525 0.90104
 C3305 C 0.77589 0.90242 0.87472
 C3306 C 0.75433 0.89303 0.86198
 H3307 H 0.71074 0.87531 0.84221
 H3308 H 0.70843 0.88371 0.93541
 H3309 H 0.75308 0.90025 0.93489
 H3310 H 0.75504 0.89117 0.84167
 H3311 H 0.67020 0.86830 0.91274
 H3312 H 0.79290 0.90747 0.86395
 C3313 C 0.73494 0.35986 0.33705
 C3314 C 0.71323 0.35561 0.35234
 C3315 C 0.71380 0.36322 0.37769
 C3316 C 0.73555 0.37585 0.38744
 C3317 C 0.75707 0.38056 0.37170
 C3318 C 0.75672 0.37216 0.34666
 C3319 C 0.77858 0.39364 0.38122
 C3320 C 0.77902 0.40191 0.40635
 C3321 C 0.75766 0.39707 0.42193
 C3322 C 0.73602 0.38422 0.41253
 H3323 H 0.69698 0.36020 0.38948
 H3324 H 0.77311 0.37547 0.33441
 H3325 H 0.79522 0.39692 0.36926
 H3326 H 0.71972 0.38081 0.42485
 H3327 H 0.73485 0.35399 0.31748
 H3328 H 0.75773 0.40327 0.44140
 C3329 C 0.19438 0.89971 0.36966
 C3330 C 0.19534 0.87297 0.36605
 C3331 C 0.21785 0.85949 0.37255
 C3332 C 0.23955 0.87273 0.38173
 C3333 C 0.23854 0.89973 0.38487
 C3334 C 0.21572 0.91297 0.37909
 C3335 C 0.26036 0.91303 0.39370
 C3336 C 0.28307 0.89963 0.39973
 C3337 C 0.28392 0.87284 0.39637
 C3338 C 0.26239 0.85952 0.38743
 H3339 H 0.21878 0.83891 0.36950
 H3340 H 0.21453 0.93360 0.38145
 H3341 H 0.25951 0.93364 0.39648
 H3342 H 0.26360 0.83888 0.38504
 H3343 H 0.17714 0.91041 0.36468
 H3344 H 0.30132 0.86217 0.40080
 C3345 C 0.19142 0.40039 0.87662
 C3346 C 0.19158 0.37382 0.87193
 C3347 C 0.21345 0.35928 0.87830
 C3348 C 0.23540 0.37135 0.88827
 C3349 C 0.23532 0.39823 0.89228
 C3350 C 0.21307 0.41250 0.88678
 C3351 C 0.25755 0.41042 0.90149
 C3352 C 0.27977 0.39603 0.90696
 C3353 C 0.27964 0.36932 0.90304
 C3354 C 0.25766 0.35708 0.89374
 H3355 H 0.21376 0.33883 0.87445
 H3356 H 0.21259 0.43306 0.88987
 H3357 H 0.25751 0.43098 0.90472
 H3358 H 0.25811 0.33650 0.89072
 H3359 H 0.17462 0.41186 0.87190
 H3360 H 0.29668 0.35794 0.90705
   
