data_POSCAR
  _audit_creation_date              2014-09-24
  _audit_creation_method            'ToBaCCo'
  _symmetry_space_group_name_H-M    'P1'
  _symmetry_Int_Tables_number       1
  _symmetry_cell_setting            triclinic
  loop_
  _symmetry_equiv_pos_as_xyz
 x,y,z
_cell_length_a 56.7180
_cell_length_b 56.8672
_cell_length_c 56.5817
_cell_angle_alpha 90.266400
_cell_angle_beta 90.473100
_cell_angle_gamma 90.951700
loop_
  _atom_site_label
  _atom_site_type_symbol
  _atom_site_fract_x
  _atom_site_fract_y
  _atom_site_fract_z
C1 C 0.11678 0.00101 0.23026
 C2 C 0.13500 0.02092 0.23170
 C3 C 0.14836 0.02112 0.25168
 C4 C 0.14254 0.00092 0.26879
 C5 C 0.13082 -0.02146 0.23378
 C6 C 0.14428 -0.02163 0.25380
 C7 C 0.10253 0.00301 0.25317
 C8 C 0.11590 0.00269 0.27335
 H9 H 0.13603 0.03481 0.21867
 H10 H 0.15368 0.00082 0.28502
 H11 H 0.12893 -0.03667 0.22227
 H12 H 0.08350 0.00226 0.25370
 C13 C 0.38847 -0.00128 0.72778
 C14 C 0.37088 -0.02168 0.73069
 C15 C 0.35627 -0.01945 0.74940
 C16 C 0.36059 0.00333 0.76389
 C17 C 0.37343 0.02068 0.72697
 C18 C 0.35858 0.02328 0.74552
 C19 C 0.40084 0.00028 0.75039
 C20 C 0.38571 0.00310 0.77051
 H21 H 0.37082 -0.03721 0.71950
 H22 H 0.34798 0.00533 0.77855
 H23 H 0.37552 0.03381 0.71329
 H24 H 0.41920 -0.00388 0.75250
 C25 C 0.88484 0.49819 0.22939
 C26 C 0.86474 0.48015 0.23101
 C27 C 0.85100 0.48242 0.25032
 C28 C 0.85843 0.50297 0.26669
 C29 C 0.87306 0.52206 0.23130
 C30 C 0.85940 0.52482 0.25069
 C31 C 0.89833 0.49591 0.25304
 C32 C 0.88456 0.49861 0.27257
 H33 H 0.86288 0.46540 0.21889
 H34 H 0.84698 0.50507 0.28236
 H35 H 0.87604 0.53597 0.21858
 H36 H 0.91707 0.49330 0.25456
 C37 C 0.61832 0.49877 0.72989
 C38 C 0.63690 0.51831 0.73215
 C39 C 0.64941 0.51824 0.75265
 C40 C 0.64242 0.49818 0.76948
 C41 C 0.63168 0.47600 0.73405
 C42 C 0.64430 0.47560 0.75456
 C43 C 0.60313 0.50120 0.75217
 C44 C 0.61564 0.50068 0.77292
 H45 H 0.63871 0.53226 0.71925
 H46 H 0.65292 0.49779 0.78612
 H47 H 0.62987 0.46077 0.72255
 H48 H 0.58412 0.50159 0.75192
 C49 C 0.23011 0.11477 1.00046
 C50 C 0.23113 0.13348 1.01981
 C51 C 0.25091 0.14715 1.01979
 C52 C 0.26826 0.14116 1.00003
 C53 C 0.23379 0.12822 0.97737
 C54 C 0.25361 0.14203 0.97706
 C55 C 0.25309 0.10103 1.00341
 C56 C 0.27307 0.11475 1.00303
 H57 H 0.21794 0.13472 1.03351
 H58 H 0.28431 0.15261 0.99977
 H59 H 0.22238 0.12592 0.96205
 H60 H 0.25381 0.08208 1.00385
 C61 C 0.72317 0.38816 0.99536
 C62 C 0.72598 0.37147 0.97627
 C63 C 0.74547 0.35611 0.97900
 C64 C 0.75882 0.36038 1.00111
 C65 C 0.72209 0.37423 1.01666
 C66 C 0.74187 0.35946 1.02072
 C67 C 0.74598 0.40063 0.99666
 C68 C 0.76595 0.38544 0.99998
 H69 H 0.71603 0.37251 0.95984
 H70 H 0.77346 0.34799 1.00352
 H71 H 0.70750 0.37537 1.02885
 H72 H 0.74848 0.41855 0.99087
 C73 C 0.22898 0.88590 0.49768
 C74 C 0.23107 0.86583 0.47988
 C75 C 0.25085 0.85298 0.48215
 C76 C 0.26721 0.86130 0.50251
 C77 C 0.23175 0.87445 0.52187
 C78 C 0.25162 0.86176 0.52464
 C79 C 0.25202 0.90041 0.49473
 C80 C 0.27211 0.88759 0.49750
 H81 H 0.21894 0.86351 0.46512
 H82 H 0.28312 0.85044 0.50481
 H83 H 0.21948 0.87733 0.53614
 H84 H 0.25266 0.91900 0.49107
 C85 C 0.73068 0.61615 0.49586
 C86 C 0.73216 0.63416 0.51583
 C87 C 0.75231 0.64727 0.51637
 C88 C 0.76954 0.64148 0.49641
 C89 C 0.73478 0.63028 0.47325
 C90 C 0.75492 0.64360 0.47353
 C91 C 0.75325 0.60167 0.49833
 C92 C 0.77367 0.61480 0.49851
 H93 H 0.71900 0.63521 0.52957
 H94 H 0.78581 0.65259 0.49648
 H95 H 0.72384 0.62834 0.45755
 H96 H 0.75318 0.58268 0.49859
 C97 C -0.00412 0.22508 0.11411
 C98 C 0.01590 0.22623 0.13221
 C99 C 0.01676 0.24618 0.14540
 C100 C -0.00305 0.26347 0.13964
 C101 C -0.02658 0.22905 0.12831
 C102 C -0.02613 0.24902 0.14166
 C103 C -0.00145 0.24782 0.09961
 C104 C -0.00104 0.26798 0.11288
 H105 H 0.02959 0.21317 0.13302
 H106 H -0.00275 0.27952 0.15087
 H107 H -0.04227 0.21805 0.12642
 H108 H -0.00146 0.24808 0.08053
 C109 C -0.00362 0.72550 0.38758
 C110 C -0.02046 0.72556 0.36837
 C111 C -0.01948 0.74584 0.35366
 C112 C -0.00088 0.76270 0.36087
 C113 C 0.02040 0.72908 0.37599
 C114 C 0.02212 0.74846 0.36205
 C115 C -0.00738 0.74880 0.40100
 C116 C -0.00547 0.76843 0.38717
 H117 H -0.03474 0.71268 0.36729
 H118 H 0.00076 0.77831 0.34928
 H119 H 0.03504 0.71748 0.37916
 H120 H -0.00930 0.75004 0.41990
 C121 C 0.49574 0.23167 0.88866
 C122 C 0.47778 0.23387 0.86859
 C123 C 0.48090 0.25309 0.85484
 C124 C 0.50204 0.26880 0.86227
 C125 C 0.51978 0.23303 0.87673
 C126 C 0.52333 0.25234 0.86308
 C127 C 0.49423 0.25516 0.90226
 C128 C 0.49769 0.27459 0.88849
 H129 H 0.46261 0.22216 0.86665
 H130 H 0.50477 0.28440 0.85084
 H131 H 0.53315 0.21990 0.87946
 H132 H 0.49103 0.25665 0.92097
 C133 C 0.49906 0.72909 0.61535
 C134 C 0.51861 0.73089 0.63391
 C135 C 0.51925 0.75130 0.64634
 C136 C 0.49979 0.76851 0.63935
 C137 C 0.47631 0.73382 0.62879
 C138 C 0.47659 0.75426 0.64138
 C139 C 0.50238 0.75120 0.60002
 C140 C 0.50253 0.77190 0.61248
 H141 H 0.53218 0.71777 0.63565
 H142 H 0.49997 0.78505 0.64985
 H143 H 0.46081 0.72248 0.62746
 H144 H 0.50273 0.75084 0.58095
 C145 C 0.88728 0.99808 0.77141
 C146 C 0.87599 1.02063 0.76955
 C147 C 0.86124 1.02336 0.74910
 C148 C 0.86047 1.00233 0.73401
 C149 C 0.86732 0.97982 0.76972
 C150 C 0.85333 0.98176 0.75030
 C151 C 0.90052 0.99536 0.74791
 C152 C 0.88664 0.99794 0.72827
 H153 H 0.87796 1.03394 0.78321
 H154 H 0.84914 1.00375 0.71805
 H155 H 0.86598 0.96497 0.78161
 H156 H 0.91910 0.99202 0.74650
 C157 C 0.38635 0.50565 0.27205
 C158 C 0.37245 0.52810 0.26768
 C159 C 0.35879 0.52746 0.24778
 C160 C 0.36029 0.50428 0.23374
 C161 C 0.36798 0.48581 0.27155
 C162 C 0.35449 0.48487 0.25171
 C163 C 0.40043 0.50262 0.24914
 C164 C 0.38691 0.50202 0.22905
 H165 H 0.37443 0.54376 0.27854
 H166 H 0.34897 0.50379 0.21765
 H167 H 0.36685 0.47251 0.28519
 H168 H 0.41946 0.50265 0.24862
 C169 C 0.61578 1.00104 0.27116
 C170 C 0.62739 0.97751 0.26596
 C171 C 0.64044 0.97722 0.24587
 C172 C 0.64066 1.00093 0.23255
 C173 C 0.63479 1.01818 0.27100
 C174 C 0.64848 1.01860 0.25000
 C175 C 0.60128 1.00580 0.24858
 C176 C 0.61415 1.00527 0.22823
 H177 H 0.62493 0.96218 0.27703
 H178 H 0.65139 1.00046 0.21624
 H179 H 0.63644 1.03167 0.28455
 H180 H 0.58230 1.00673 0.24818
 C181 C 0.11404 0.50265 0.77420
 C182 C 0.12575 0.47871 0.77246
 C183 C 0.13877 0.47546 0.75270
 C184 C 0.13938 0.49698 0.73627
 C185 C 0.13411 0.52064 0.77158
 C186 C 0.14732 0.51787 0.75196
 C187 C 0.09991 0.50458 0.75090
 C188 C 0.11313 0.50143 0.73105
 H189 H 0.12277 0.46493 0.78531
 H190 H 0.15038 0.49447 0.72035
 H191 H 0.13627 0.53575 0.78321
 H192 H 0.08132 0.50818 0.74980
 C193 C 0.77036 0.88635 -0.00180
 C194 C 0.76486 0.87298 0.02098
 C195 C 0.74403 0.86082 0.02048
 C196 C 0.73011 0.86324 -0.00279
 C197 C 0.76827 0.86800 -0.02142
 C198 C 0.74746 0.85600 -0.02210
 C199 C 0.74877 0.90206 -0.00522
 C200 C 0.72767 0.89006 -0.00553
 H201 H 0.77579 0.87426 0.03675
 H202 H 0.71319 0.85314 -0.00308
 H203 H 0.78177 0.86562 -0.03464
 H204 H 0.74972 0.92104 -0.00533
 C205 C 0.27099 0.38679 0.50380
 C206 C 0.26540 0.37319 0.52641
 C207 C 0.24522 0.36003 0.52524
 C208 C 0.23201 0.36173 0.50152
 C209 C 0.27047 0.36836 0.48414
 C210 C 0.25028 0.35538 0.48270
 C211 C 0.24871 0.40142 0.49957
 C212 C 0.22820 0.38838 0.49862
 H213 H 0.27570 0.37510 0.54254
 H214 H 0.21573 0.35066 0.50081
 H215 H 0.28425 0.36717 0.47104
 H216 H 0.24881 0.42038 0.49897
 C217 C 0.26980 0.61219 0.00485
 C218 C 0.26709 0.62403 -0.01918
 C219 C 0.24701 0.63644 -0.02192
 C220 C 0.23112 0.63619 -0.00001
 C221 C 0.26716 0.63191 0.02294
 C222 C 0.24719 0.64446 0.02055
 C223 C 0.24704 0.59727 0.00725
 C224 C 0.22679 0.60974 0.00442
 H225 H 0.27954 0.62163 -0.03339
 H226 H 0.21486 0.64659 -0.00218
 H227 H 0.27943 0.63470 0.03752
 H228 H 0.24658 0.57849 0.00987
 C229 C 0.77530 0.11003 0.50138
 C230 C 0.77664 0.12671 0.48217
 C231 C 0.75646 0.14126 0.47928
 C232 C 0.73907 0.13754 0.49824
 C233 C 0.77158 0.12398 0.52235
 C234 C 0.75187 0.13924 0.52105
 C235 C 0.75287 0.09737 0.49784
 C236 C 0.73263 0.11237 0.49598
 H237 H 0.79176 0.12768 0.47059
 H238 H 0.72397 0.14957 0.49716
 H239 H 0.78208 0.12204 0.53834
 H240 H 0.75054 0.07885 0.50140
 C241 C 1.00143 0.76766 0.88608
 C242 C 1.02401 0.76354 0.87214
 C243 C 1.02387 0.74334 0.85918
 C244 C 1.00092 0.72868 0.86131
 C245 C 0.98156 0.76588 0.86784
 C246 C 0.98113 0.74575 0.85498
 C247 C 0.99871 0.74525 0.90105
 C248 C 0.99866 0.72482 0.88817
 H249 H 1.03938 0.77506 0.87349
 H250 H 1.00078 0.71229 0.85057
 H251 H 0.96799 0.77899 0.86622
 H252 H 0.99865 0.74518 0.92012
 C253 C 0.50160 0.27200 0.38668
 C254 C 0.52374 0.26718 0.37230
 C255 C 0.52252 0.24720 0.35905
 C256 C 0.49909 0.23346 0.36139
 C257 C 0.48139 0.27130 0.36878
 C258 C 0.47985 0.25138 0.35563
 C259 C 0.49825 0.24947 0.40141
 C260 C 0.49722 0.22921 0.38826
 H261 H 0.53964 0.27795 0.37366
 H262 H 0.49819 0.21733 0.35028
 H263 H 0.46824 0.28490 0.36780
 H264 H 0.49850 0.24923 0.42048
 C265 C 1.00328 0.26921 0.61247
 C266 C 0.97939 0.26641 0.62451
 C267 C 0.97693 0.24670 0.63783
 C268 C 0.99905 0.23129 0.63816
 C269 C 1.02140 0.26762 0.63238
 C270 C 1.01948 0.24798 0.64578
 C271 C 1.00581 0.24611 0.59846
 C272 C 1.00326 0.22624 0.61176
 H273 H 0.96529 0.27880 0.62199
 H274 H 0.99721 0.21533 0.64925
 H275 H 1.03588 0.28017 0.63444
 H276 H 1.00776 0.24516 0.57955
 C277 C 0.50132 0.77479 0.11143
 C278 C 0.47936 0.77477 0.12686
 C279 C 0.47718 0.75610 0.14172
 C280 C 0.49738 0.73839 0.13936
 C281 C 0.52188 0.77211 0.12868
 C282 C 0.52000 0.75333 0.14325
 C283 C 0.49968 0.75110 0.09832
 C284 C 0.49738 0.73205 0.11281
 H285 H 0.46598 0.78804 0.12512
 H286 H 0.49587 0.72308 0.15137
 H287 H 0.53722 0.78375 0.12874
 H288 H 0.49988 0.74920 0.07935
 O289 O 0.05259 1.04439 0.99720
 O290 O 0.03432 1.04818 0.96073
 O291 O -0.00466 1.04733 1.04648
 O292 O -0.03768 1.02719 1.05417
 O293 O 0.04808 0.99317 1.05244
 O294 O 0.05418 0.95713 1.03217
 O295 O -0.06418 0.98162 0.98475
 O296 O -0.06634 1.01924 0.99903
 O297 O -0.01053 0.98202 0.93363
 O298 O 0.03047 0.99507 0.93284
 O299 O -0.01100 0.92981 0.98589
 O300 O 0.00007 0.92821 1.02709
 O301 O -0.04857 0.94928 1.00198
 O302 O -0.02777 0.94405 1.04102
 O303 O 0.00645 0.94574 0.95362
 O304 O 0.04484 0.96781 0.94942
 O305 O -0.04407 0.99717 0.94863
 O306 O -0.04522 1.03699 0.96705
 O307 O 0.06822 1.01182 1.01404
 O308 O 0.06985 0.97120 1.00212
 O309 O 0.01508 1.00956 1.06730
 O310 O -0.02604 0.99414 1.06631
 O311 O 0.01398 1.06295 1.01467
 O312 O -0.00078 1.06205 0.97346
 Zr313 Zr 0.01721 1.03462 0.99102
 O314 O -0.00328 1.01356 0.96784
 Zr315 Zr -0.00826 1.01134 1.03835
 O316 O -0.03030 0.98981 1.01710
 Zr317 Zr 0.03999 0.98756 1.01658
 O318 O 0.02014 0.96447 0.99481
 Zr319 Zr -0.03551 1.00527 0.98392
 O320 O -0.01605 1.02840 1.00635
 Zr321 Zr 0.01283 0.98109 0.96259
 O322 O 0.03490 1.00324 0.98343
 Zr323 Zr -0.01316 0.95818 1.00973
 O324 O 0.00804 0.97875 1.03320
 O325 O 0.02423 1.01949 1.02367
 O326 O -0.02003 0.97300 0.97687
 C327 C 0.06994 1.03284 1.00584
 C328 C 0.00441 1.06472 1.03508
 C329 C 0.03606 1.00164 1.06953
 C330 C -0.06580 0.96053 0.99269
 C331 C -0.03194 0.98876 0.93160
 C332 C -0.00273 0.92838 0.96487
 H333 H -0.00571 1.02208 0.95284
 H334 H 0.02895 0.94979 0.99260
 H335 H 0.03401 1.02990 1.03399
 H336 H -0.04547 0.98722 1.02525
 H337 H -0.06157 1.03424 1.00678
 H338 H -0.05145 1.02349 1.04392
 H339 H 0.04906 0.95397 0.95900
 H340 H 0.07215 0.97803 0.98623
 H341 H -0.06074 1.03431 0.95920
 H342 H 0.00814 1.07704 0.97592
 H343 H 0.01611 0.92549 1.02105
 H344 H 0.04178 0.95054 1.04255
 H345 H 0.04447 1.03557 0.95463
 H346 H 0.02318 1.01027 0.92895
 H347 H -0.01714 0.97975 1.06992
 H348 H -0.04181 0.95331 1.04501
 O349 O 0.48719 0.48834 0.43436
 O350 O 0.52523 0.50268 0.43260
 O351 O 0.49029 0.43376 0.48674
 O352 O 0.49950 0.43036 0.52468
 O353 O 0.43468 0.48565 0.48923
 O354 O 0.43347 0.52526 0.50196
 O355 O 0.55064 0.49705 0.55062
 O356 O 0.55396 0.46134 0.53218
 O357 O 0.55178 0.54871 0.49847
 O358 O 0.53005 0.55543 0.46184
 O359 O 0.49869 0.54970 0.54983
 O360 O 0.46271 0.52810 0.55672
 O361 O 0.51816 0.51277 0.56742
 O362 O 0.47589 0.49819 0.56904
 O363 O 0.51466 0.56667 0.51733
 O364 O 0.50062 0.56825 0.47551
 O365 O 0.56790 0.51635 0.51500
 O366 O 0.56813 0.47717 0.49556
 O367 O 0.45480 0.50494 0.45051
 O368 O 0.44903 0.54075 0.47269
 O369 O 0.45099 0.45314 0.50525
 O370 O 0.47345 0.44919 0.54282
 O371 O 0.50555 0.45061 0.45379
 O372 O 0.54347 0.47266 0.45127
 Zr373 Zr 0.51084 0.48619 0.46285
 O374 O 0.53329 0.50807 0.48327
 Zr375 Zr 0.48676 0.46203 0.51041
 O376 O 0.50889 0.48223 0.53284
 Zr377 Zr 0.46323 0.50954 0.48663
 O378 O 0.48372 0.53191 0.50865
 Zr379 Zr 0.54020 0.49149 0.51551
 O380 O 0.51953 0.46839 0.49420
 Zr381 Zr 0.51621 0.53918 0.49245
 O382 O 0.49470 0.51866 0.46935
 Zr383 Zr 0.49281 0.51443 0.54001
 O384 O 0.46941 0.49320 0.51937
 O385 O 0.47869 0.47774 0.47839
 O386 O 0.52483 0.52338 0.52443
 C387 C 0.46635 0.49678 0.43286
 C388 C 0.49804 0.43272 0.46549
 C389 C 0.43329 0.46463 0.49739
 C390 C 0.53948 0.50538 0.56836
 C391 C 0.56927 0.53748 0.50722
 C392 C 0.50703 0.56752 0.53861
 H393 H 0.54800 0.51115 0.47444
 H394 H 0.47481 0.54636 0.51180
 H395 H 0.46852 0.46757 0.46818
 H396 H 0.51222 0.47323 0.54736
 H397 H 0.55037 0.44783 0.52157
 H398 H 0.51454 0.43434 0.53281
 H399 H 0.48636 0.57243 0.48445
 H400 H 0.46075 0.54707 0.46139
 H401 H 0.58275 0.47826 0.50526
 H402 H 0.54086 0.46398 0.43618
 H403 H 0.45550 0.53943 0.54573
 H404 H 0.43222 0.51886 0.51815
 H405 H 0.51930 0.51895 0.43241
 H406 H 0.54239 0.54514 0.45548
 H407 H 0.46048 0.45964 0.54748
 H408 H 0.48543 0.48461 0.57392
 O409 O 0.45308 -0.04828 0.49581
 O410 O 0.47183 -0.05268 0.46000
 O411 O 0.50970 -0.04973 0.54701
 O412 O 0.54336 -0.02965 0.55381
 O413 O 0.45700 0.00371 0.55105
 O414 O 0.45070 0.03955 0.53033
 O415 O 0.56903 0.01590 0.48489
 O416 O 0.57187 -0.02132 0.50045
 O417 O 0.51622 0.01368 0.43309
 O418 O 0.47521 -0.00032 0.43159
 O419 O 0.51512 0.06694 0.48456
 O420 O 0.50385 0.06858 0.52628
 O421 O 0.55341 0.04863 0.50137
 O422 O 0.53297 0.05444 0.53979
 O423 O 0.49773 0.05014 0.45225
 O424 O 0.46030 0.02716 0.44734
 O425 O 0.54950 -0.00135 0.44919
 O426 O 0.55123 -0.04039 0.46828
 O427 O 0.43691 -0.01568 0.51205
 O428 O 0.43501 0.02480 0.50021
 O429 O 0.49054 -0.01128 0.56675
 O430 O 0.53106 0.00389 0.56642
 O431 O 0.49154 -0.06594 0.51476
 O432 O 0.50695 -0.06583 0.47390
 Zr433 Zr 0.48846 -0.03823 0.49056
 O434 O 0.50885 -0.01740 0.46761
 Zr435 Zr 0.51363 -0.01385 0.53813
 O436 O 0.53542 0.00775 0.51714
 Zr437 Zr 0.46507 0.00896 0.51519
 O438 O 0.48477 0.03186 0.49345
 Zr439 Zr 0.54087 -0.00839 0.48434
 O440 O 0.52161 -0.03143 0.50648
 Zr441 Zr 0.49243 0.01476 0.46149
 O442 O 0.47049 -0.00720 0.48224
 Zr443 Zr 0.51802 0.03906 0.50886
 O444 O 0.49703 0.01849 0.53215
 O445 O 0.48119 -0.02258 0.52291
 O446 O 0.52512 0.02355 0.47638
 C447 C 0.43547 -0.03685 0.50388
 C448 C 0.50065 -0.06735 0.53556
 C449 C 0.46937 -0.00388 0.56849
 C450 C 0.57061 0.03731 0.49220
 C451 C 0.53766 0.00681 0.43174
 C452 C 0.50650 0.06793 0.46348
 H453 H 0.51152 -0.02623 0.45279
 H454 H 0.47571 0.04633 0.49090
 H455 H 0.47138 -0.03282 0.53313
 H456 H 0.55058 0.01079 0.52544
 H457 H 0.56734 -0.03624 0.50829
 H458 H 0.55735 -0.02407 0.54503
 H459 H 0.45540 0.04070 0.45707
 H460 H 0.43284 0.01782 0.48426
 H461 H 0.56686 -0.03773 0.46093
 H462 H 0.49823 -0.08087 0.47641
 H463 H 0.48821 0.07156 0.51913
 H464 H 0.46301 0.04631 0.54097
 H465 H 0.46177 -0.04025 0.45334
 H466 H 0.48314 -0.01521 0.42777
 H467 H 0.52274 0.01885 0.56890
 H468 H 0.54667 0.04497 0.54453
 O469 O -0.05291 0.44712 0.99627
 O470 O -0.03430 0.44312 0.96037
 O471 O 0.00392 0.44635 1.04716
 O472 O 0.03683 0.46668 1.05499
 O473 O -0.04938 0.49957 1.05138
 O474 O -0.05624 0.53494 1.03060
 O475 O 0.06314 0.51163 0.98626
 O476 O 0.06554 0.47397 1.00062
 O477 O 0.01012 0.51044 0.93377
 O478 O -0.03050 0.49651 0.93174
 O479 O 0.00981 0.56256 0.98565
 O480 O -0.00180 0.56512 1.02628
 O481 O 0.04736 0.54404 1.00322
 O482 O 0.02552 0.54929 1.04171
 O483 O -0.00818 0.54666 0.95320
 O484 O -0.04609 0.52327 0.94846
 O485 O 0.04364 0.49594 0.94992
 O486 O 0.04498 0.45604 0.96786
 O487 O -0.06917 0.47971 1.01247
 O488 O -0.07119 0.52034 1.00011
 O489 O -0.01606 0.48413 1.06698
 O490 O 0.02479 0.49988 1.06675
 O491 O -0.01411 0.42962 1.01510
 O492 O 0.00112 0.43027 0.97393
 Zr493 Zr -0.01759 0.45753 0.99089
 O494 O 0.00270 0.47873 0.96802
 Zr495 Zr 0.00730 0.48206 1.03854
 O496 O 0.02926 0.50350 1.01775
 Zr497 Zr -0.04127 0.50463 1.01552
 O498 O -0.02142 0.52781 0.99421
 Zr499 Zr 0.03474 0.48763 0.98479
 O500 O 0.01549 0.46452 1.00689
 Zr501 Zr -0.01369 0.51104 0.96212
 O502 O -0.03557 0.48863 0.98256
 Zr503 Zr 0.01177 0.53476 1.00985
 O504 O -0.00950 0.51426 1.03280
 O505 O -0.02503 0.47313 1.02323
 O506 O 0.01897 0.51962 0.97723
 C507 C -0.07054 0.45847 1.00444
 C508 C -0.00484 0.42854 1.03590
 C509 C -0.03715 0.49172 1.06878
 C510 C 0.06469 0.53281 0.99423
 C511 C 0.03179 0.50430 0.93256
 C512 C 0.00130 0.56404 0.96461
 H513 H 0.00543 0.47013 0.95308
 H514 H -0.03039 0.54236 0.99175
 H515 H -0.03475 0.46279 1.03343
 H516 H 0.04434 0.50637 1.02625
 H517 H 0.06084 0.45891 1.00811
 H518 H 0.05060 0.47042 1.04502
 H519 H -0.05052 0.53726 0.95777
 H520 H -0.07352 0.51288 0.98440
 H521 H 0.06055 0.45891 0.96047
 H522 H -0.00740 0.41512 0.97650
 H523 H -0.01803 0.56720 1.02023
 H524 H -0.04388 0.54220 1.04085
 H525 H -0.04417 0.45566 0.95362
 H526 H -0.02318 0.48121 0.92838
 H527 H 0.01563 0.51414 1.07021
 H528 H 0.03997 0.54066 1.04586
 O529 O 0.01211 0.43147 0.51246
 O530 O -0.00402 0.43064 0.47486
 O531 O 0.06641 0.48436 0.50978
 O532 O 0.06961 0.52241 0.50088
 O533 O 0.01657 0.48470 0.56733
 O534 O -0.02320 0.49601 0.57088
 O535 O 0.00050 0.54899 0.45474
 O536 O 0.03617 0.53168 0.44863
 O537 O -0.05116 0.49563 0.45341
 O538 O -0.05729 0.45885 0.47401
 O539 O -0.04966 0.54566 0.50877
 O540 O -0.02645 0.55084 0.54493
 O541 O -0.01364 0.56417 0.48896
 O542 O 0.00249 0.56491 0.53030
 O543 O -0.06736 0.51376 0.49160
 O544 O -0.06863 0.47135 0.50500
 O545 O -0.01943 0.51341 0.43649
 O546 O 0.01996 0.49528 0.43357
 O547 O -0.00293 0.44627 0.54651
 O548 O -0.03900 0.46679 0.55459
 O549 O 0.04866 0.50181 0.55039
 O550 O 0.05206 0.53960 0.52913
 O551 O 0.04905 0.45195 0.49314
 O552 O 0.02547 0.45056 0.45599
 Zr553 Zr 0.01318 0.46057 0.48987
 O554 O -0.00968 0.48114 0.46942
 Zr555 Zr 0.03842 0.50756 0.51506
 O556 O 0.01727 0.53013 0.49492
 Zr557 Zr -0.00839 0.48219 0.53970
 O558 O -0.03165 0.50426 0.52133
 Zr559 Zr 0.00666 0.51381 0.46314
 O560 O 0.03066 0.49244 0.48176
 Zr561 Zr -0.04020 0.48910 0.48839
 O562 O -0.01875 0.46584 0.50782
 Zr563 Zr -0.01430 0.53603 0.51296
 O564 O 0.00790 0.51523 0.53432
 O565 O 0.02285 0.47521 0.52238
 O566 O -0.02457 0.52146 0.48056
 C567 C 0.00494 0.42928 0.53384
 C568 C 0.06719 0.46351 0.50094
 C569 C 0.03768 0.49325 0.56826
 C570 C -0.00733 0.56603 0.46727
 C571 C -0.04065 0.50514 0.43573
 C572 C -0.06776 0.53479 0.50003
 H573 H -0.01336 0.47276 0.45445
 H574 H -0.04580 0.50686 0.53101
 H575 H 0.03342 0.46505 0.53170
 H576 H 0.02614 0.54489 0.49183
 H577 H 0.04991 0.52143 0.45114
 H578 H 0.06484 0.53163 0.48693
 H579 H -0.07290 0.48047 0.51922
 H580 H -0.04576 0.45595 0.54248
 H581 H 0.01820 0.50536 0.41942
 H582 H 0.03412 0.43560 0.45745
 H583 H -0.03883 0.54020 0.55122
 H584 H -0.01702 0.51233 0.57247
 H585 H -0.01992 0.42967 0.48192
 H586 H -0.04712 0.45264 0.46139
 H587 H 0.04193 0.54386 0.54261
 H588 H 0.01603 0.57003 0.52058
 O589 O 0.56742 0.98918 0.00878
 O590 O 0.56897 1.02784 -0.00341
 O591 O 0.51647 0.98859 0.06438
 O592 O 0.47855 0.99609 0.06926
 O593 O 0.51302 0.93572 0.00837
 O594 O 0.49924 0.93609 -0.03113
 O595 O 0.45134 1.05026 0.00719
 O596 O 0.47094 1.05188 0.04277
 O597 O 0.50090 1.05490 -0.04626
 O598 O 0.53752 1.03558 -0.05553
 O599 O 0.45025 1.00098 -0.04983
 O600 O 0.44362 0.96458 -0.03098
 O601 O 0.43415 1.01857 -0.01108
 O602 O 0.43322 0.97505 0.00128
 O603 O 0.48241 1.01820 -0.06647
 O604 O 0.52458 1.00565 -0.06958
 O605 O 0.48602 1.06912 -0.01200
 O606 O 0.50691 1.06790 0.02669
 O607 O 0.55093 0.95741 -0.01002
 O608 O 0.52788 0.95372 -0.04641
 O609 O 0.49827 0.94996 0.04268
 O610 O 0.46029 0.97067 0.04869
 O611 O 0.54905 1.00574 0.04837
 O612 O 0.55121 1.04440 0.02830
 Zr613 Zr 0.53918 1.01219 0.01295
 O614 O 0.51814 1.03506 -0.00699
 Zr615 Zr 0.49223 0.98571 0.03626
 O616 O 0.46931 1.00825 0.01825
 Zr617 Zr 0.51480 0.96541 -0.01357
 O618 O 0.49205 0.98630 -0.03394
 Zr619 Zr 0.48647 1.04030 0.01095
 O620 O 0.50831 1.01905 0.03208
 Zr621 Zr 0.50799 1.01941 -0.03925
 O622 O 0.53176 0.99769 -0.02073
 Zr623 Zr 0.46122 0.99374 -0.01506
 O624 O 0.48250 0.96982 0.00391
 O625 O 0.52379 0.97942 0.01930
 O626 O 0.47662 1.02640 -0.02196
 C627 C 0.56869 0.96876 -0.00097
 C628 C 0.53763 0.99692 0.06587
 C629 C 0.50600 0.93319 0.02975
 C630 C 0.43345 1.03936 -0.00195
 C631 C 0.49248 1.07151 -0.03354
 C632 C 0.46104 1.01029 -0.06742
 H633 H 0.52676 1.05013 -0.00930
 H634 H 0.48847 0.97807 -0.04901
 H635 H 0.53425 0.96917 0.02865
 H636 H 0.45508 1.01073 0.02787
 H637 H 0.48205 1.04794 0.05570
 H638 H 0.47070 1.01126 0.06668
 H639 H 0.51536 0.99166 -0.07489
 H640 H 0.53961 0.96566 -0.05158
 H641 H 0.49715 1.08221 0.02705
 H642 H 0.56647 1.04177 0.03650
 H643 H 0.45487 0.95722 -0.04191
 H644 H 0.48328 0.93399 -0.02441
 H645 H 0.56851 1.02282 -0.02019
 H646 H 0.54460 1.04688 -0.04407
 H647 H 0.45579 0.95781 0.03761
 H648 H 0.42782 0.98453 0.01485
 O649 O 0.43196 0.51485 0.01259
 O650 O 0.43112 0.47687 -0.00290
 O651 O 0.48469 0.51332 0.06690
 O652 O 0.52301 0.50473 0.07008
 O653 O 0.48517 0.56931 0.01560
 O654 O 0.49781 0.57218 -0.02434
 O655 O 0.54966 0.45752 0.00151
 O656 O 0.53237 0.45252 0.03803
 O657 O 0.49617 0.45475 -0.04933
 O658 O 0.45929 0.47479 -0.05568
 O659 O 0.54666 0.50985 -0.05001
 O660 O 0.55163 0.54691 -0.02751
 O661 O 0.56527 0.49161 -0.01295
 O662 O 0.56633 0.53278 0.00127
 O663 O 0.51432 0.49228 -0.06666
 O664 O 0.47204 0.50529 -0.06816
 O665 O 0.51378 0.43868 -0.01719
 O666 O 0.49580 0.43673 0.02259
 O667 O 0.44743 0.54822 -0.00361
 O668 O 0.46829 0.55574 -0.03988
 O669 O 0.50212 0.55355 0.04827
 O670 O 0.54020 0.53319 0.05181
 O671 O 0.45218 0.49631 0.04991
 O672 O 0.45057 0.45898 0.02748
 Zr673 Zr 0.46099 0.49236 0.01411
 O674 O 0.48167 0.47150 -0.00814
 Zr675 Zr 0.50823 0.51827 0.03865
 O676 O 0.53087 0.49794 0.01778
 Zr677 Zr 0.48332 0.54147 -0.00890
 O678 O 0.50523 0.52272 -0.03187
 Zr679 Zr 0.51444 0.46591 0.00814
 O680 O 0.49291 0.48489 0.03171
 Zr681 Zr 0.48972 0.48969 -0.03925
 O682 O 0.46654 0.50955 -0.01833
 Zr683 Zr 0.53703 0.51507 -0.01448
 O684 O 0.51630 0.53670 0.00746
 O685 O 0.47595 0.52492 0.02287
 O686 O 0.52217 0.48252 -0.02370
 C687 C 0.43020 0.53599 0.00483
 C688 C 0.46370 0.50444 0.06789
 C689 C 0.49318 0.57083 0.03687
 C690 C 0.56689 0.47007 -0.00646
 C691 C 0.50555 0.43744 -0.03841
 C692 C 0.53547 0.50062 -0.06770
 H693 H 0.47321 0.45646 -0.01134
 H694 H 0.50786 0.53197 -0.04637
 H695 H 0.46570 0.53429 0.03324
 H696 H 0.54566 0.49518 0.02664
 H697 H 0.52212 0.45534 0.05180
 H698 H 0.53294 0.49139 0.06545
 H699 H 0.48120 0.51943 -0.07288
 H700 H 0.45742 0.54353 -0.04644
 H701 H 0.50587 0.42271 0.02121
 H702 H 0.43534 0.46055 0.03581
 H703 H 0.54135 0.55235 -0.04052
 H704 H 0.51393 0.57415 -0.01771
 H705 H 0.43001 0.48399 -0.01880
 H706 H 0.45310 0.46233 -0.04517
 H707 H 0.54449 0.54634 0.04119
 H708 H 0.57052 0.52430 0.01590
 O709 O -0.01455 0.00795 0.56698
 O710 O 0.02401 -0.00500 0.56942
 O711 O -0.01171 0.06267 0.51516
 O712 O -0.00246 0.06697 0.47735
 O713 O -0.06633 0.00790 0.51076
 O714 O -0.06684 -0.03162 0.49816
 O715 O 0.05002 0.00329 0.45157
 O716 O 0.05253 0.03897 0.47084
 O717 O 0.05129 -0.04921 0.50257
 O718 O 0.03086 -0.05747 0.53886
 O719 O -0.00156 -0.05198 0.45095
 O720 O -0.03753 -0.03193 0.44349
 O721 O 0.01787 -0.01442 0.43451
 O722 O -0.02472 -0.00107 0.43205
 O723 O 0.01435 -0.06863 0.48364
 O724 O 0.00043 -0.07066 0.52587
 O725 O 0.06744 -0.01582 0.48732
 O726 O 0.06703 0.02310 0.50744
 O727 O -0.04657 -0.00988 0.54971
 O728 O -0.05069 -0.04646 0.52762
 O729 O -0.05052 0.04186 0.49631
 O730 O -0.02835 0.04692 0.45865
 O731 O 0.00388 0.04676 0.54845
 O732 O 0.04203 0.02616 0.55153
 Zr733 Zr 0.00962 0.01131 0.53910
 O734 O 0.03244 -0.00934 0.51872
 Zr735 Zr -0.01467 0.03456 0.49114
 O736 O 0.00788 0.01574 0.46892
 Zr737 Zr -0.03740 -0.01435 0.51400
 O738 O -0.01663 -0.03544 0.49207
 Zr739 Zr 0.03935 0.00783 0.48672
 O740 O 0.01816 0.02967 0.50793
 Zr741 Zr 0.01588 -0.04121 0.50884
 O742 O -0.00587 -0.02196 0.53189
 Zr743 Zr -0.00775 -0.01711 0.46114
 O744 O -0.03153 0.00266 0.48157
 O745 O -0.02252 0.01816 0.52283
 O746 O 0.02434 -0.02466 0.47722
 C747 C -0.03551 -0.00108 0.56772
 C748 C -0.00412 0.06420 0.53659
 C749 C -0.06796 0.02918 0.50355
 C750 C 0.03903 -0.00594 0.43376
 C751 C 0.06872 -0.03724 0.49424
 C752 C 0.00683 -0.06959 0.46215
 H753 H 0.04721 -0.01189 0.52770
 H754 H -0.02535 -0.05027 0.48861
 H755 H -0.03284 0.02780 0.53289
 H756 H 0.01110 0.02503 0.45454
 H757 H 0.04871 0.05209 0.48165
 H758 H 0.01264 0.06380 0.46946
 H759 H -0.01337 -0.07592 0.51631
 H760 H -0.03927 -0.05165 0.53977
 H761 H 0.08165 0.02292 0.49793
 H762 H 0.03922 0.03447 0.56669
 H763 H -0.04473 -0.04366 0.45421
 H764 H -0.06819 -0.02532 0.48193
 H765 H 0.01810 -0.02148 0.56932
 H766 H 0.04200 -0.04603 0.54628
 H767 H -0.04136 0.03602 0.45393
 H768 H -0.01491 0.01255 0.42710
 O769 O 0.74103 0.18259 0.26124
 O770 O 0.78010 0.18586 0.25186
 O771 O 0.73253 0.23601 0.31566
 O772 O 0.73679 0.27470 0.31882
 O773 O 0.68209 0.22870 0.25786
 O774 O 0.68214 0.24191 0.21819
 O775 O 0.78954 0.30623 0.25860
 O776 O 0.79298 0.28806 0.29403
 O777 O 0.80145 0.25441 0.20646
 O778 O 0.78553 0.21453 0.19878
 O779 O 0.74391 0.29723 0.19909
 O780 O 0.70611 0.30025 0.21543
 O781 O 0.75681 0.31796 0.23866
 O782 O 0.71305 0.31294 0.24796
 O783 O 0.76457 0.26685 0.18413
 O784 O 0.75581 0.22386 0.18226
 O785 O 0.81337 0.27299 0.24023
 O786 O 0.81273 0.25403 0.27976
 O787 O 0.70920 0.19382 0.23947
 O788 O 0.70239 0.21556 0.20384
 O789 O 0.69366 0.24730 0.29175
 O790 O 0.71009 0.28823 0.29657
 O791 O 0.75310 0.20520 0.30135
 O792 O 0.79309 0.20734 0.28320
 Zr793 Zr 0.76057 0.21404 0.26585
 O794 O 0.78208 0.23689 0.24579
 Zr795 Zr 0.72879 0.25801 0.28622
 O796 O 0.74971 0.28272 0.26800
 Zr797 Zr 0.71249 0.23074 0.23665
 O798 O 0.73193 0.25491 0.21607
 Zr799 Zr 0.78375 0.26991 0.26244
 O800 O 0.76382 0.24648 0.28379
 Zr801 Zr 0.76663 0.24322 0.21263
 O802 O 0.74659 0.21790 0.23141
 Zr803 Zr 0.73571 0.28729 0.23390
 O804 O 0.71320 0.26410 0.25297
 O805 O 0.72615 0.22508 0.27029
 O806 O 0.77005 0.27616 0.22872
 C807 C 0.72194 0.17814 0.24950
 C808 C 0.74256 0.21609 0.31817
 C809 C 0.67822 0.23638 0.27887
 C810 C 0.77677 0.32211 0.24902
 C811 C 0.81692 0.26557 0.21907
 C812 C 0.75495 0.28704 0.18222
 H813 H 0.79798 0.23018 0.24436
 H814 H 0.72403 0.25670 0.20056
 H815 H 0.71671 0.21355 0.27945
 H816 H 0.75024 0.29754 0.27721
 H817 H 0.78934 0.27723 0.30722
 H818 H 0.75128 0.28423 0.31635
 H819 H 0.74124 0.23098 0.17602
 H820 H 0.71594 0.20629 0.19839
 H821 H 0.82611 0.26549 0.28000
 H822 H 0.79148 0.19254 0.29232
 H823 H 0.69954 0.28712 0.20580
 H824 H 0.67819 0.25750 0.22478
 H825 H 0.77655 0.18523 0.23471
 H826 H 0.79844 0.21096 0.21000
 H827 H 0.69693 0.29004 0.28516
 H828 H 0.72070 0.31960 0.26233
 O829 O 0.75606 0.70453 0.69598
 O830 O 0.79138 0.70030 0.71428
 O831 O 0.70692 0.69718 0.75509
 O832 O 0.69705 0.71669 0.78689
 O833 O 0.69883 0.75506 0.70301
 O834 O 0.71940 0.79032 0.69657
 O835 O 0.76668 0.76207 0.81533
 O836 O 0.75360 0.72466 0.81646
 O837 O 0.81801 0.76531 0.76124
 O838 O 0.81914 0.75525 0.72032
 O839 O 0.76432 0.81651 0.76319
 O840 O 0.72413 0.81774 0.75355
 O841 O 0.74796 0.79417 0.80110
 O842 O 0.70942 0.79922 0.77919
 O843 O 0.79638 0.80291 0.74404
 O844 O 0.80151 0.78126 0.70605
 O845 O 0.80387 0.74684 0.79381
 O846 O 0.78461 0.70768 0.79408
 O847 O 0.73791 0.73682 0.68139
 O848 O 0.74923 0.77776 0.68120
 O849 O 0.68454 0.73582 0.73503
 O850 O 0.68590 0.74929 0.77691
 O851 O 0.73823 0.68327 0.73492
 O852 O 0.77949 0.68514 0.74906
 Zr853 Zr 0.76114 0.71261 0.73192
 O854 O 0.78398 0.73357 0.75293
 Zr855 Zr 0.71369 0.73350 0.75813
 O856 O 0.73471 0.75445 0.78092
 Zr857 Zr 0.73492 0.75978 0.71055
 O858 O 0.75616 0.78263 0.73131
 Zr859 Zr 0.76817 0.73991 0.78566
 O860 O 0.74596 0.71714 0.76547
 Zr861 Zr 0.78880 0.76701 0.73810
 O862 O 0.76831 0.74502 0.71538
 Zr863 Zr 0.74146 0.78710 0.76499
 O864 O 0.71842 0.76690 0.74291
 O865 O 0.72815 0.72690 0.72519
 O866 O 0.77474 0.77328 0.77149
 C867 C 0.74749 0.71661 0.67889
 C868 C 0.71859 0.68038 0.74578
 C869 C 0.68186 0.74597 0.71497
 C870 C 0.75723 0.78229 0.81800
 C871 C 0.82072 0.75605 0.78176
 C872 C 0.78453 0.81951 0.75348
 H873 H 0.79905 0.72526 0.75485
 H874 H 0.75788 0.79771 0.72284
 H875 H 0.71793 0.71661 0.71514
 H876 H 0.72645 0.75594 0.79615
 H877 H 0.74554 0.70988 0.81140
 H878 H 0.70840 0.71745 0.80022
 H879 H 0.79132 0.79454 0.70169
 H880 H 0.76496 0.77107 0.67835
 H881 H 0.79253 0.70946 0.80969
 H882 H 0.77706 0.67029 0.74001
 H883 H 0.72862 0.82045 0.73692
 H884 H 0.70971 0.79702 0.70935
 H885 H 0.79805 0.71379 0.70543
 H886 H 0.82264 0.73932 0.72618
 H887 H 0.68146 0.76357 0.76810
 H888 H 0.70571 0.78962 0.79325
 O889 O 0.29799 0.20093 0.74249
 O890 O 0.29913 0.21805 0.70613
 O891 O 0.30652 0.26206 0.78950
 O892 O 0.28639 0.29398 0.79871
 O893 O 0.25374 0.20712 0.80328
 O894 O 0.21541 0.19897 0.78715
 O895 O 0.23428 0.31521 0.73307
 O896 O 0.27336 0.31897 0.74330
 O897 O 0.22855 0.25935 0.68413
 O898 O 0.24269 0.21913 0.68298
 O899 O 0.18260 0.25956 0.74147
 O900 O 0.18575 0.25142 0.78311
 O901 O 0.20339 0.29920 0.75309
 O902 O 0.20246 0.28090 0.79371
 O903 O 0.19506 0.23996 0.70893
 O904 O 0.21831 0.20368 0.70308
 O905 O 0.24501 0.29395 0.69669
 O906 O 0.28716 0.29698 0.71005
 O907 O 0.26831 0.18564 0.76493
 O908 O 0.22673 0.18196 0.75630
 O909 O 0.27140 0.24125 0.81546
 O910 O 0.25503 0.28150 0.81434
 O911 O 0.31887 0.24148 0.75749
 O912 O 0.31332 0.25420 0.71581
 Zr913 Zr 0.28813 0.23606 0.73685
 O914 O 0.26450 0.25455 0.71516
 Zr915 Zr 0.26961 0.26313 0.78546
 O916 O 0.24572 0.28320 0.76561
 Zr917 Zr 0.24413 0.21312 0.76799
 O918 O 0.21870 0.23090 0.74788
 Zr919 Zr 0.25765 0.28717 0.73087
 O920 O 0.28317 0.26977 0.75153
 Zr921 Zr 0.23166 0.23709 0.71373
 O922 O 0.25615 0.21703 0.73315
 Zr923 Zr 0.21351 0.26470 0.76199
 O924 O 0.23667 0.24552 0.78413
 O925 O 0.27660 0.23031 0.77118
 O926 O 0.22482 0.27027 0.72758
 C927 C 0.28778 0.18395 0.75366
 C928 C 0.32275 0.25279 0.77692
 C929 C 0.26403 0.22007 0.81904
 C930 C 0.21370 0.31636 0.74227
 C931 C 0.23451 0.28103 0.68106
 C932 C 0.17884 0.24902 0.72160
 H933 H 0.27129 0.25663 0.69925
 H934 H 0.20401 0.22131 0.74766
 H935 H 0.28822 0.22150 0.78066
 H936 H 0.24384 0.29868 0.77332
 H937 H 0.28921 0.31499 0.74939
 H938 H 0.28202 0.30686 0.78796
 H939 H 0.20630 0.19871 0.71470
 H940 H 0.23261 0.17864 0.74022
 H941 H 0.28345 0.31195 0.70201
 H942 H 0.32879 0.24645 0.71745
 H943 H 0.18284 0.23486 0.77836
 H944 H 0.21029 0.21148 0.79811
 H945 H 0.28543 0.20850 0.70053
 H946 H 0.25698 0.22726 0.67702
 H947 H 0.24107 0.27228 0.81954
 H948 H 0.21200 0.29546 0.79602
 O949 O 0.19863 0.74731 0.29737
 O950 O 0.21366 0.70953 0.29797
 O951 O 0.26108 0.79142 0.30546
 O952 O 0.29332 0.80062 0.28541
 O953 O 0.20716 0.80532 0.25152
 O954 O 0.19997 0.78914 0.21294
 O955 O 0.31443 0.73354 0.23512
 O956 O 0.31734 0.74436 0.27423
 O957 O 0.25719 0.68571 0.22928
 O958 O 0.21715 0.68495 0.24176
 O959 O 0.26092 0.74219 0.18231
 O960 O 0.25371 0.78268 0.18341
 O961 O 0.30050 0.75548 0.20460
 O962 O 0.28110 0.79521 0.20211
 O963 O 0.23979 0.71037 0.19469
 O964 O 0.20207 0.70585 0.21777
 O965 O 0.29168 0.69787 0.24638
 O966 O 0.29388 0.71184 0.28825
 O967 O 0.18430 0.76710 0.26561
 O968 O 0.18185 0.75895 0.22395
 O969 O 0.24118 0.81718 0.26975
 O970 O 0.28208 0.81542 0.25382
 O971 O 0.23936 0.76009 0.31819
 O972 O 0.24991 0.71836 0.31348
 Zr973 Zr 0.23350 0.73953 0.28748
 O974 O 0.25219 0.71733 0.26454
 Zr975 Zr 0.26254 0.78714 0.26858
 O976 O 0.28286 0.76677 0.24555
 Zr977 Zr 0.21275 0.77009 0.24225
 O978 O 0.23086 0.74954 0.21754
 Zr979 Zr 0.28557 0.73224 0.25806
 O980 O 0.26788 0.75346 0.28287
 Zr981 Zr 0.23577 0.71567 0.23123
 O982 O 0.21536 0.73557 0.25502
 Zr983 Zr 0.26520 0.76313 0.21293
 O984 O 0.24580 0.78570 0.23525
 O985 O 0.22908 0.77355 0.27512
 O986 O 0.26962 0.72888 0.22480
 C987 C 0.18196 0.75775 0.28611
 C988 C 0.25129 0.77921 0.32186
 C989 C 0.22021 0.82091 0.26198
 C990 C 0.31690 0.74420 0.21531
 C991 C 0.27862 0.68233 0.23589
 C992 C 0.24986 0.72260 0.17850
 H993 H 0.25360 0.70156 0.27166
 H994 H 0.22173 0.74924 0.20259
 H995 H 0.22031 0.78329 0.28651
 H996 H 0.29858 0.77435 0.24405
 H997 H 0.31308 0.75062 0.28996
 H998 H 0.30577 0.78899 0.28276
 H999 H 0.19835 0.71652 0.20454
 H1000 H 0.17788 0.74298 0.22973
 H1001 H 0.30882 0.70361 0.28509
 H1002 H 0.24130 0.71998 0.32859
 H1003 H 0.23653 0.77987 0.18173
 H1004 H 0.21284 0.80005 0.20819
 H1005 H 0.20313 0.70522 0.28455
 H1006 H 0.22276 0.68082 0.25778
 H1007 H 0.27278 0.82132 0.24027
 H1008 H 0.29544 0.79785 0.21190
 O1009 O 0.24295 0.68108 0.76107
 O1010 O 0.28234 0.68404 0.75219
 O1011 O 0.23519 0.73335 0.81669
 O1012 O 0.24046 0.77199 0.82096
 O1013 O 0.18473 0.72887 0.75886
 O1014 O 0.18537 0.74247 0.71933
 O1015 O 0.29391 0.80377 0.76180
 O1016 O 0.29681 0.78450 0.79685
 O1017 O 0.30480 0.75296 0.70838
 O1018 O 0.28815 0.71310 0.70019
 O1019 O 0.24883 0.79715 0.70183
 O1020 O 0.21073 0.80044 0.71783
 O1021 O 0.26175 0.81660 0.74163
 O1022 O 0.21774 0.81235 0.75082
 O1023 O 0.26837 0.76619 0.68646
 O1024 O 0.25896 0.72365 0.68343
 O1025 O 0.31691 0.77085 0.74246
 O1026 O 0.31609 0.75067 0.78150
 O1027 O 0.21071 0.69349 0.74071
 O1028 O 0.20538 0.71575 0.70471
 O1029 O 0.19668 0.74643 0.79317
 O1030 O 0.21412 0.78673 0.79906
 O1031 O 0.25439 0.70201 0.80153
 O1032 O 0.29493 0.70444 0.78464
 Zr1033 Zr 0.26294 0.71204 0.76672
 O1034 O 0.28510 0.73482 0.74737
 Zr1035 Zr 0.23210 0.75633 0.78794
 O1036 O 0.25360 0.78098 0.77033
 Zr1037 Zr 0.21530 0.73036 0.73783
 O1038 O 0.23542 0.75451 0.71784
 Zr1039 Zr 0.28735 0.76748 0.76470
 O1040 O 0.26683 0.74401 0.78541
 Zr1041 Zr 0.26985 0.74204 0.71436
 O1042 O 0.24910 0.71680 0.73240
 Zr1043 Zr 0.23988 0.78651 0.73627
 O1044 O 0.21677 0.76343 0.75479
 O1045 O 0.22878 0.72382 0.77130
 O1046 O 0.27392 0.77460 0.73109
 C1047 C 0.22334 0.67725 0.75002
 C1048 C 0.24404 0.71279 0.81849
 C1049 C 0.18099 0.73618 0.78003
 C1050 C 0.28170 0.82009 0.75225
 C1051 C 0.32034 0.76390 0.72112
 C1052 C 0.25966 0.78681 0.68492
 H1053 H 0.30087 0.72783 0.74584
 H1054 H 0.22769 0.75677 0.70232
 H1055 H 0.21892 0.71237 0.78011
 H1056 H 0.25441 0.79560 0.77985
 H1057 H 0.29298 0.77333 0.80968
 H1058 H 0.25505 0.78142 0.81869
 H1059 H 0.24422 0.73077 0.67765
 H1060 H 0.21859 0.70581 0.69961
 H1061 H 0.32965 0.76192 0.78197
 H1062 H 0.29295 0.68930 0.79310
 H1063 H 0.20410 0.78771 0.70771
 H1064 H 0.18188 0.75816 0.72597
 H1065 H 0.27866 0.68362 0.73507
 H1066 H 0.30145 0.70962 0.71096
 H1067 H 0.20118 0.78925 0.78755
 H1068 H 0.22559 0.81870 0.76523
 O1069 O 0.25413 0.20918 0.19693
 O1070 O 0.28961 0.20513 0.21539
 O1071 O 0.20509 0.20031 0.25607
 O1072 O 0.19442 0.21948 0.28782
 O1073 O 0.19652 0.25878 0.20450
 O1074 O 0.21688 0.29483 0.19930
 O1075 O 0.26382 0.26488 0.31743
 O1076 O 0.25046 0.22731 0.31783
 O1077 O 0.31544 0.26900 0.26399
 O1078 O 0.31658 0.25947 0.22245
 O1079 O 0.26136 0.31991 0.26628
 O1080 O 0.22111 0.32102 0.25604
 O1081 O 0.24482 0.29695 0.30348
 O1082 O 0.20646 0.30221 0.28154
 O1083 O 0.29379 0.30687 0.24735
 O1084 O 0.29954 0.28638 0.20918
 O1085 O 0.30092 0.24990 0.29603
 O1086 O 0.28187 0.21075 0.29550
 O1087 O 0.23586 0.24166 0.18293
 O1088 O 0.24673 0.28253 0.18339
 O1089 O 0.18239 0.23851 0.23597
 O1090 O 0.18311 0.25210 0.27794
 O1091 O 0.23640 0.18708 0.23541
 O1092 O 0.27753 0.18896 0.24971
 Zr1093 Zr 0.25908 0.21667 0.23308
 O1094 O 0.28157 0.23736 0.25476
 Zr1095 Zr 0.21127 0.23669 0.25942
 O1096 O 0.23191 0.25747 0.28268
 Zr1097 Zr 0.23255 0.26401 0.21246
 O1098 O 0.25365 0.28658 0.23371
 Zr1099 Zr 0.26539 0.24305 0.28746
 O1100 O 0.24362 0.22046 0.26663
 Zr1101 Zr 0.28637 0.27107 0.24056
 O1102 O 0.26608 0.24947 0.21723
 Zr1103 Zr 0.23859 0.29039 0.26728
 O1104 O 0.21577 0.27039 0.24480
 O1105 O 0.22603 0.23081 0.22647
 O1106 O 0.27190 0.27667 0.27387
 C1107 C 0.24544 0.22150 0.18006
 C1108 C 0.21686 0.18382 0.24635
 C1109 C 0.17968 0.24883 0.21601
 C1110 C 0.25423 0.28502 0.32025
 C1111 C 0.31790 0.25935 0.28436
 C1112 C 0.28174 0.32320 0.25701
 H1113 H 0.29665 0.22908 0.25668
 H1114 H 0.25538 0.30182 0.22553
 H1115 H 0.21602 0.22055 0.21619
 H1116 H 0.22353 0.25870 0.29788
 H1117 H 0.24263 0.21251 0.31248
 H1118 H 0.20553 0.22037 0.30135
 H1119 H 0.28892 0.29926 0.20466
 H1120 H 0.26274 0.27637 0.18083
 H1121 H 0.28945 0.21224 0.31131
 H1122 H 0.27537 0.17434 0.24022
 H1123 H 0.22597 0.32415 0.23959
 H1124 H 0.20661 0.30077 0.21199
 H1125 H 0.29598 0.21879 0.20658
 H1126 H 0.32049 0.24372 0.22857
 H1127 H 0.17860 0.26636 0.26912
 H1128 H 0.20252 0.29213 0.29520
 O1129 O 0.79732 0.70114 0.24341
 O1130 O 0.79889 0.71645 0.20536
 O1131 O 0.80709 0.76318 0.28744
 O1132 O 0.78772 0.79560 0.29650
 O1133 O 0.75163 0.71013 0.30092
 O1134 O 0.71286 0.70430 0.28456
 O1135 O 0.73935 0.81801 0.22821
 O1136 O 0.77833 0.81986 0.23946
 O1137 O 0.73154 0.76145 0.18051
 O1138 O 0.74328 0.72131 0.17978
 O1139 O 0.68440 0.76504 0.23662
 O1140 O 0.68594 0.75829 0.27819
 O1141 O 0.70692 0.80401 0.24730
 O1142 O 0.70438 0.78691 0.28879
 O1143 O 0.69670 0.74415 0.20483
 O1144 O 0.71898 0.70627 0.20070
 O1145 O 0.74953 0.79543 0.19276
 O1146 O 0.79162 0.79639 0.20704
 O1147 O 0.76510 0.68743 0.26307
 O1148 O 0.72341 0.68601 0.25435
 O1149 O 0.77053 0.74365 0.31314
 O1150 O 0.75553 0.78492 0.31079
 O1151 O 0.81900 0.74055 0.25662
 O1152 O 0.81540 0.75222 0.21461
 Zr1153 Zr 0.78863 0.73614 0.23532
 O1154 O 0.76666 0.75538 0.21254
 Zr1155 Zr 0.77025 0.76533 0.28281
 O1156 O 0.74809 0.78621 0.26179
 Zr1157 Zr 0.74260 0.71632 0.26553
 O1158 O 0.71875 0.73499 0.24441
 Zr1159 Zr 0.76116 0.78869 0.22732
 O1160 O 0.78506 0.77043 0.24912
 Zr1161 Zr 0.73299 0.73966 0.21055
 O1162 O 0.75582 0.71869 0.23102
 Zr1163 Zr 0.71505 0.76935 0.25767
 O1164 O 0.73649 0.74941 0.28086
 O1165 O 0.77579 0.73190 0.26935
 O1166 O 0.72759 0.77347 0.22351
 C1167 C 0.78558 0.68475 0.25399
 C1168 C 0.82299 0.75241 0.27566
 C1169 C 0.76243 0.72269 0.31665
 C1170 C 0.71848 0.82036 0.23644
 C1171 C 0.73851 0.78281 0.17723
 C1172 C 0.68061 0.75416 0.21694
 H1173 H 0.77395 0.75676 0.19678
 H1174 H 0.70362 0.72612 0.24404
 H1175 H 0.78677 0.72281 0.27930
 H1176 H 0.74686 0.80198 0.26906
 H1177 H 0.79374 0.81512 0.24610
 H1178 H 0.78550 0.80817 0.28473
 H1179 H 0.70559 0.70268 0.21126
 H1180 H 0.72941 0.68176 0.23855
 H1181 H 0.78888 0.81130 0.19850
 H1182 H 0.83015 0.74324 0.21652
 H1183 H 0.68299 0.74146 0.27459
 H1184 H 0.70863 0.71715 0.29553
 H1185 H 0.78521 0.70634 0.20079
 H1186 H 0.75936 0.72680 0.17570
 H1187 H 0.74139 0.77606 0.31614
 H1188 H 0.71411 0.80142 0.29052
 O1189 O 0.70004 0.24605 0.79769
 O1190 O 0.71542 0.20874 0.80008
 O1191 O 0.76033 0.29232 0.80321
 O1192 O 0.79317 0.30031 0.78325
 O1193 O 0.70671 0.30140 0.74902
 O1194 O 0.70019 0.28328 0.71105
 O1195 O 0.81576 0.23153 0.73634
 O1196 O 0.81866 0.24488 0.77440
 O1197 O 0.76031 0.18229 0.73266
 O1198 O 0.72009 0.18112 0.74505
 O1199 O 0.76084 0.23723 0.68216
 O1200 O 0.75435 0.27783 0.68250
 O1201 O 0.80097 0.24918 0.70354
 O1202 O 0.78280 0.29006 0.70011
 O1203 O 0.74271 0.20455 0.69677
 O1204 O 0.70463 0.20036 0.71971
 O1205 O 0.79394 0.19617 0.75011
 O1206 O 0.79591 0.21309 0.79081
 O1207 O 0.68511 0.26347 0.76481
 O1208 O 0.68287 0.25306 0.72359
 O1209 O 0.74059 0.31524 0.76613
 O1210 O 0.78145 0.31371 0.75035
 O1211 O 0.74115 0.26018 0.81786
 O1212 O 0.75168 0.21840 0.81485
 Zr1213 Zr 0.73496 0.23835 0.78806
 O1214 O 0.75416 0.21552 0.76628
 Zr1215 Zr 0.76273 0.28575 0.76666
 O1216 O 0.78361 0.26469 0.74469
 Zr1217 Zr 0.71345 0.26600 0.74126
 O1218 O 0.73211 0.24470 0.71760
 Zr1219 Zr 0.78707 0.23108 0.75924
 O1220 O 0.76889 0.25307 0.78283
 Zr1221 Zr 0.73795 0.21169 0.73297
 O1222 O 0.71701 0.23225 0.75576
 Zr1223 Zr 0.76615 0.25882 0.71225
 O1224 O 0.74611 0.28203 0.73340
 O1225 O 0.72968 0.27153 0.77391
 O1226 O 0.77142 0.22546 0.72610
 C1227 C 0.68309 0.25542 0.78590
 C1228 C 0.75171 0.28025 0.82038
 C1229 C 0.71934 0.31786 0.75861
 C1230 C 0.81770 0.23916 0.71512
 C1231 C 0.78159 0.17973 0.74017
 C1232 C 0.75129 0.21669 0.67966
 H1233 H 0.75598 0.20020 0.77423
 H1234 H 0.72293 0.24348 0.70271
 H1235 H 0.72069 0.28159 0.78482
 H1236 H 0.79923 0.27232 0.74264
 H1237 H 0.81430 0.25227 0.78961
 H1238 H 0.80635 0.28984 0.77943
 H1239 H 0.70083 0.21016 0.70584
 H1240 H 0.67946 0.23726 0.73011
 H1241 H 0.81102 0.20496 0.78823
 H1242 H 0.74319 0.22061 0.82995
 H1243 H 0.73722 0.27461 0.68084
 H1244 H 0.71253 0.29471 0.70612
 H1245 H 0.70526 0.20337 0.78674
 H1246 H 0.72565 0.17809 0.76134
 H1247 H 0.77241 0.31800 0.73601
 H1248 H 0.79787 0.29216 0.70883
 C1249 C 0.07979 1.00325 1.16261
 C1250 C 0.10332 0.99555 1.16418
 C1251 C 0.11485 0.99496 1.18613
 C1252 C 0.10326 1.00148 1.20696
 C1253 C 0.08014 1.00985 1.20519
 C1254 C 0.06851 1.01057 1.18340
 C1255 C 0.06804 1.00343 1.13882
 C1256 C 0.04460 1.01057 1.13537
 C1257 C 0.03436 1.01015 1.11289
 C1258 C 0.04717 1.00256 1.09324
 C1259 C 0.07058 0.99557 1.09648
 C1260 C 0.08105 0.99593 1.11900
 C1261 C 0.11528 0.98852 1.14386
 C1262 C 0.10438 0.98870 1.12174
 H1263 H 0.13335 0.98269 1.14508
 H1264 H 0.11435 0.98300 1.10655
 H1265 H 0.13303 0.98942 1.18705
 H1266 H 0.07092 1.01641 1.22041
 H1267 H 0.01625 1.01563 1.11097
 H1268 H 0.08073 0.98972 1.08146
 H1269 H 0.05079 1.01713 1.18327
 H1270 H 0.03377 1.01641 1.14975
 C1271 C 0.58638 0.50238 0.65977
 C1272 C 0.57290 0.50827 0.67982
 C1273 C 0.58289 0.50697 0.70256
 C1274 C 0.60621 0.49948 0.70581
 C1275 C 0.61952 0.49403 0.68574
 C1276 C 0.60981 0.49530 0.66313
 C1277 C 0.57509 0.50394 0.63583
 C1278 C 0.58704 0.49842 0.61486
 C1279 C 0.57557 0.49941 0.59305
 C1280 C 0.55188 0.50596 0.59146
 C1281 C 0.53996 0.51210 0.61220
 C1282 C 0.55133 0.51107 0.63429
 C1283 C 0.54956 0.51553 0.67706
 C1284 C 0.53899 0.51685 0.65479
 H1285 H 0.53923 0.52014 0.69238
 H1286 H 0.52083 0.52238 0.65361
 H1287 H 0.57242 0.51232 0.71743
 H1288 H 0.63775 0.48889 0.68758
 H1289 H 0.58531 0.49473 0.57737
 H1290 H 0.52166 0.51724 0.61126
 H1291 H 0.62106 0.49076 0.64862
 H1292 H 0.60518 0.49307 0.61482
 C1293 C 0.42652 -0.00495 0.66123
 C1294 C 0.40163 -0.00587 0.66192
 C1295 C 0.39006 -0.00547 0.68365
 C1296 C 0.40267 -0.00352 0.70511
 C1297 C 0.42745 -0.00230 0.70432
 C1298 C 0.43919 -0.00317 0.68272
 C1299 C 0.43817 -0.00519 0.63756
 C1300 C 0.46283 -0.00546 0.63489
 C1301 C 0.47282 -0.00520 0.61246
 C1302 C 0.45855 -0.00449 0.59212
 C1303 C 0.43398 -0.00456 0.59454
 C1304 C 0.42373 -0.00518 0.61701
 C1305 C 0.38834 -0.00656 0.64096
 C1306 C 0.39915 -0.00595 0.61897
 H1307 H 0.36924 -0.00718 0.64155
 H1308 H 0.38809 -0.00616 0.60325
 H1309 H 0.37093 -0.00601 0.68392
 H1310 H 0.43809 -0.00019 0.72009
 H1311 H 0.49186 -0.00525 0.61107
 H1312 H 0.42279 -0.00443 0.57891
 H1313 H 0.45817 -0.00189 0.68326
 H1314 H 0.47472 -0.00598 0.64984
 C1315 C -0.07917 0.49245 1.16196
 C1316 C -0.10338 0.49772 1.16314
 C1317 C -0.11448 0.49910 1.18507
 C1318 C -0.10189 0.49574 1.20628
 C1319 C -0.07787 0.49026 1.20503
 C1320 C -0.06667 0.48864 1.18321
 C1321 C -0.06791 0.49147 1.13813
 C1322 C -0.04399 0.48614 1.13497
 C1323 C -0.03421 0.48599 1.11247
 C1324 C -0.04795 0.49120 1.09247
 C1325 C -0.07189 0.49618 1.09538
 C1326 C -0.08193 0.49629 1.11794
 C1327 C -0.11640 0.50188 1.14249
 C1328 C -0.10587 0.50128 1.12036
 H1329 H -0.13498 0.50590 1.14345
 H1330 H -0.11664 0.50484 1.10491
 H1331 H -0.13309 0.50311 1.18575
 H1332 H -0.06743 0.48712 1.22066
 H1333 H -0.01568 0.48204 1.11081
 H1334 H -0.08276 0.50004 1.08007
 H1335 H -0.04819 0.48453 1.18344
 H1336 H -0.03247 0.48211 1.14959
 C1337 C -0.08719 0.50243 0.34365
 C1338 C -0.07423 0.51166 0.32442
 C1339 C -0.08352 0.51026 0.30139
 C1340 C -0.10567 0.49969 0.29696
 C1341 C -0.11863 0.49078 0.31601
 C1342 C -0.10954 0.49204 0.33905
 C1343 C -0.07635 0.50395 0.36794
 C1344 C -0.08756 0.49512 0.38828
 C1345 C -0.07625 0.49609 0.41033
 C1346 C -0.05348 0.50595 0.41276
 C1347 C -0.04250 0.51545 0.39270
 C1348 C -0.05364 0.51444 0.37046
 C1349 C -0.05202 0.52218 0.32822
 C1350 C -0.04195 0.52353 0.35073
 H1351 H -0.04215 0.52934 0.31351
 H1352 H -0.02461 0.53164 0.35267
 H1353 H -0.07357 0.51777 0.28692
 H1354 H -0.13573 0.48250 0.31308
 H1355 H -0.08525 0.48869 0.42544
 H1356 H -0.02497 0.52322 0.39423
 H1357 H -0.12025 0.48471 0.35293
 H1358 H -0.10492 0.48711 0.38753
 C1359 C 0.41369 1.00873 -0.15925
 C1360 C 0.42773 1.01435 -0.17901
 C1361 C 0.41827 1.01256 -0.20195
 C1362 C 0.39467 1.00527 -0.20603
 C1363 C 0.38062 1.00036 -0.18617
 C1364 C 0.38996 1.00196 -0.16321
 C1365 C 0.42489 1.01005 -0.13506
 C1366 C 0.41285 1.00391 -0.11423
 C1367 C 0.42442 1.00449 -0.09230
 C1368 C 0.44829 1.01134 -0.09045
 C1369 C 0.46023 1.01809 -0.11105
 C1370 C 0.44885 1.01731 -0.13319
 C1371 C 0.45125 1.02172 -0.17587
 C1372 C 0.46154 1.02325 -0.15348
 H1373 H 0.46197 1.02623 -0.19101
 H1374 H 0.47986 1.02886 -0.15206
 H1375 H 0.42942 1.01764 -0.21657
 H1376 H 0.36257 0.99423 -0.18803
 H1377 H 0.41467 0.99925 -0.07675
 H1378 H 0.47866 1.02337 -0.11000
 H1379 H 0.37835 0.99759 -0.14884
 H1380 H 0.39460 0.99825 -0.11451
 C1381 C 0.58104 0.49765 -0.15943
 C1382 C 0.60309 0.50943 -0.16163
 C1383 C 0.61448 0.51017 -0.18364
 C1384 C 0.60405 0.49954 -0.20367
 C1385 C 0.58244 0.48747 -0.20124
 C1386 C 0.57108 0.48652 -0.17953
 C1387 C 0.56917 0.49768 -0.13584
 C1388 C 0.54705 0.48678 -0.13205
 C1389 C 0.53643 0.48769 -0.10996
 C1390 C 0.54747 0.49943 -0.09089
 C1391 C 0.56970 0.51011 -0.09438
 C1392 C 0.58054 0.50939 -0.11666
 C1393 C 0.61353 0.52053 -0.14191
 C1394 C 0.60251 0.52049 -0.11992
 H1395 H 0.63044 0.52951 -0.14351
 H1396 H 0.61129 0.52944 -0.10527
 H1397 H 0.63123 0.51943 -0.18523
 H1398 H 0.57431 0.47839 -0.21614
 H1399 H 0.51936 0.47914 -0.10791
 H1400 H 0.57848 0.51925 -0.07984
 H1401 H 0.55453 0.47697 -0.17896
 H1402 H 0.53749 0.47758 -0.14589
 C1403 C 0.08382 -0.00518 0.34175
 C1404 C 0.10472 0.00854 0.33931
 C1405 C 0.11539 0.01081 0.31703
 C1406 C 0.10528 -0.00013 0.29703
 C1407 C 0.08493 -0.01419 0.29971
 C1408 C 0.07434 -0.01671 0.32167
 C1409 C 0.07249 -0.00657 0.36556
 C1410 C 0.05143 -0.01934 0.36956
 C1411 C 0.04098 -0.01935 0.39174
 C1412 C 0.05119 -0.00671 0.41068
 C1413 C 0.07254 0.00561 0.40706
 C1414 C 0.08316 0.00587 0.38467
 C1415 C 0.11463 0.02011 0.35902
 C1416 C 0.10409 0.01880 0.38120
 H1417 H 0.13067 0.03055 0.35723
 H1418 H 0.11234 0.02827 0.39582
 H1419 H 0.13124 0.02152 0.31520
 H1420 H 0.07721 -0.02356 0.28477
 H1421 H 0.02464 -0.02921 0.39396
 H1422 H 0.08067 0.01544 0.42152
 H1423 H 0.05871 -0.02770 0.32240
 H1424 H 0.04250 -0.02927 0.35580
 C1425 C 0.16271 1.07735 1.00455
 C1426 C 0.16423 1.10036 0.99526
 C1427 C 0.18614 1.11196 0.99389
 C1428 C 0.20696 1.10095 1.00121
 C1429 C 0.20525 1.07831 1.01097
 C1430 C 0.18352 1.06661 1.01246
 C1431 C 0.13895 1.06556 1.00572
 C1432 C 0.13555 1.04268 1.01461
 C1433 C 0.11313 1.03230 1.01494
 C1434 C 0.09348 1.04440 1.00641
 C1435 C 0.09663 1.06734 0.99782
 C1436 C 0.11911 1.07794 0.99739
 C1437 C 0.14391 1.11174 0.98750
 C1438 C 0.12182 1.10076 0.98851
 H1439 H 0.14510 1.12940 0.98044
 H1440 H 0.10663 1.11026 0.98217
 H1441 H 0.18700 1.12980 0.98725
 H1442 H 0.22046 1.06960 1.01813
 H1443 H 0.11129 1.01458 1.02170
 H1444 H 0.08161 1.07695 0.99120
 H1445 H 0.18345 1.04930 1.02011
 H1446 H 0.14991 1.03237 1.02125
 C1447 C 0.66258 0.58050 0.50247
 C1448 C 0.66463 0.60205 0.49023
 C1449 C 0.68678 0.61298 0.48763
 C1450 C 0.70733 0.60265 0.49662
 C1451 C 0.70507 0.58153 0.50926
 C1452 C 0.68313 0.57047 0.51193
 C1453 C 0.63856 0.56949 0.50506
 C1454 C 0.63465 0.54807 0.51691
 C1455 C 0.61207 0.53813 0.51815
 C1456 C 0.59274 0.54925 0.50768
 C1457 C 0.59634 0.57095 0.49642
 C1458 C 0.61902 0.58105 0.49496
 C1459 C 0.64455 0.61273 0.48089
 C1460 C 0.62224 0.60243 0.48316
 H1461 H 0.64612 0.62929 0.47158
 H1462 H 0.60728 0.61132 0.47547
 H1463 H 0.68792 0.62993 0.47899
 H1464 H 0.72010 0.57371 0.51783
 H1465 H 0.60987 0.52144 0.52707
 H1466 H 0.58158 0.57975 0.48823
 H1467 H 0.68268 0.55432 0.52180
 H1468 H 0.64876 0.53850 0.52509
 C1469 C 0.65853 0.42644 -0.00897
 C1470 C 0.65876 0.40174 -0.01146
 C1471 C 0.68016 0.38987 -0.01091
 C1472 C 0.70191 0.40193 -0.00729
 C1473 C 0.70136 0.42655 -0.00414
 C1474 C 0.68010 0.43859 -0.00524
 C1475 C 0.63517 0.43838 -0.00929
 C1476 C 0.63300 0.46300 -0.00830
 C1477 C 0.61081 0.47321 -0.00777
 C1478 C 0.59025 0.45916 -0.00805
 C1479 C 0.59218 0.43467 -0.00970
 C1480 C 0.61439 0.42425 -0.01063
 C1481 C 0.63761 0.38883 -0.01369
 C1482 C 0.61588 0.39981 -0.01295
 H1483 H 0.63783 0.36985 -0.01552
 H1484 H 0.59999 0.38901 -0.01425
 H1485 H 0.67989 0.37084 -0.01250
 H1486 H 0.71704 0.43683 -0.00006
 H1487 H 0.60977 0.49219 -0.00667
 H1488 H 0.57636 0.42370 -0.01044
 H1489 H 0.68089 0.45735 -0.00240
 H1490 H 0.64817 0.47469 -0.00795
 C1491 C 0.15955 -0.08273 0.49311
 C1492 C 0.17985 -0.06827 0.49004
 C1493 C 0.20248 -0.07804 0.49119
 C1494 C 0.20521 -0.10221 0.49544
 C1495 C 0.18487 -0.11636 0.49812
 C1496 C 0.16248 -0.10690 0.49696
 C1497 C 0.13580 -0.07163 0.49250
 C1498 C 0.11470 -0.08453 0.49597
 C1499 C 0.09306 -0.07333 0.49617
 C1500 C 0.09175 -0.04898 0.49278
 C1501 C 0.11262 -0.03600 0.48872
 C1502 C 0.13458 -0.04710 0.48872
 C1503 C 0.17742 -0.04412 0.48605
 C1504 C 0.15528 -0.03377 0.48537
 H1505 H 0.19289 -0.03299 0.48359
 H1506 H 0.15437 -0.01499 0.48242
 H1507 H 0.21766 -0.06659 0.48898
 H1508 H 0.18638 -0.13505 0.50135
 H1509 H 0.07728 -0.08386 0.49913
 H1510 H 0.11187 -0.01715 0.48610
 H1511 H 0.14779 -0.11890 0.49929
 H1512 H 0.11440 -0.10324 0.49883
 C1513 C 0.34276 -0.08243 0.49960
 C1514 C 0.32331 -0.06894 0.50677
 C1515 C 0.30036 -0.07865 0.50576
 C1516 C 0.29629 -0.10179 0.49765
 C1517 C 0.31566 -0.11507 0.49061
 C1518 C 0.33852 -0.10558 0.49147
 C1519 C 0.36700 -0.07142 0.50103
 C1520 C 0.38750 -0.08333 0.49432
 C1521 C 0.40960 -0.07219 0.49559
 C1522 C 0.41199 -0.04887 0.50363
 C1523 C 0.39169 -0.03696 0.51070
 C1524 C 0.36933 -0.04799 0.50942
 C1525 C 0.32686 -0.04588 0.51504
 C1526 C 0.34935 -0.03564 0.51632
 H1527 H 0.31198 -0.03554 0.52058
 H1528 H 0.35110 -0.01771 0.52277
 H1529 H 0.28574 -0.06827 0.51185
 H1530 H 0.31328 -0.13290 0.48424
 H1531 H 0.42487 -0.08192 0.49006
 H1532 H 0.39317 -0.01894 0.51695
 H1533 H 0.35256 -0.11674 0.48573
 H1534 H 0.38690 -0.10121 0.48790
 C1535 C -0.16344 0.41286 1.00302
 C1536 C -0.18280 0.42723 1.00832
 C1537 C -0.20587 0.41796 1.00733
 C1538 C -0.21047 0.39423 1.00122
 C1539 C -0.19100 0.37990 0.99649
 C1540 C -0.16793 0.38905 0.99728
 C1541 C -0.13908 0.42377 1.00372
 C1542 C -0.11859 0.41134 0.99794
 C1543 C -0.09641 0.42251 0.99839
 C1544 C -0.09398 0.44636 1.00470
 C1545 C -0.11429 0.45878 1.01074
 C1546 C -0.13665 0.44779 1.01015
 C1547 C -0.17913 0.45086 1.01467
 C1548 C -0.15657 0.46087 1.01566
 H1549 H -0.19396 0.46184 1.01889
 H1550 H -0.15473 0.47926 1.02060
 H1551 H -0.22018 0.42935 1.01213
 H1552 H -0.19329 0.36175 0.99112
 H1553 H -0.08112 0.41241 0.99366
 H1554 H -0.11280 0.47723 1.01556
 H1555 H -0.15387 0.37721 0.99316
 H1556 H -0.11930 0.39305 0.99283
 C1557 C -0.15735 0.58347 0.49939
 C1558 C -0.17668 0.57177 0.48827
 C1559 C -0.19895 0.58216 0.48786
 C1560 C -0.20257 0.60413 0.49861
 C1561 C -0.18330 0.61585 0.50931
 C1562 C -0.16101 0.60570 0.50976
 C1563 C -0.13389 0.57156 0.49964
 C1564 C -0.11354 0.58163 0.51025
 C1565 C -0.09220 0.56972 0.51024
 C1566 C -0.09049 0.54739 0.49971
 C1567 C -0.11066 0.53728 0.48896
 C1568 C -0.13220 0.54914 0.48883
 C1569 C -0.17375 0.54971 0.47768
 C1570 C -0.15202 0.53863 0.47798
 H1571 H -0.18856 0.54077 0.46911
 H1572 H -0.15074 0.52151 0.46963
 H1573 H -0.21343 0.57314 0.47886
 H1574 H -0.18544 0.63278 0.51774
 H1575 H -0.07700 0.57805 0.51866
 H1576 H -0.10964 0.52012 0.48064
 H1577 H -0.14698 0.61552 0.51844
 H1578 H -0.11367 0.59866 0.51870
 C1579 C 0.34275 1.08556 0.00115
 C1580 C 0.32355 1.07387 -0.01021
 C1581 C 0.30100 1.08356 -0.00960
 C1582 C 0.29701 1.10476 0.00242
 C1583 C 0.31603 1.11646 0.01349
 C1584 C 0.33862 1.10702 0.01294
 C1585 C 0.36653 1.07442 0.00022
 C1586 C 0.38682 1.08462 0.01081
 C1587 C 0.40845 1.07333 0.00984
 C1588 C 0.41052 1.05154 -0.00168
 C1589 C 0.39047 1.04140 -0.01259
 C1590 C 0.36863 1.05263 -0.01176
 C1591 C 0.32688 1.05251 -0.02205
 C1592 C 0.34891 1.04209 -0.02274
 H1593 H 0.31216 1.04360 -0.03079
 H1594 H 0.35051 1.02546 -0.03199
 H1595 H 0.28658 1.07464 -0.01880
 H1596 H 0.31340 1.13280 0.02294
 H1597 H 0.42358 1.08168 0.01839
 H1598 H 0.39178 1.02465 -0.02170
 H1599 H 0.35251 1.11673 0.02196
 H1600 H 0.38640 1.10124 0.02002
 C1601 C 0.00003 1.15773 1.07756
 C1602 C -0.01106 1.15945 1.09977
 C1603 C -0.01272 1.18135 1.11106
 C1604 C -0.00388 1.20197 1.10047
 C1605 C 0.00769 1.20002 1.07869
 C1606 C 0.00941 1.17833 1.06729
 C1607 C 0.00170 1.13396 1.06622
 C1608 C 0.01234 1.13039 1.04411
 C1609 C 0.01338 1.10793 1.03425
 C1610 C 0.00384 1.08838 1.04608
 C1611 C -0.00669 1.09174 1.06818
 C1612 C -0.00785 1.11427 1.07827
 C1613 C -0.02015 1.13928 1.11078
 C1614 C -0.01858 1.11718 1.10026
 H1615 H -0.02860 1.14060 1.12784
 H1616 H -0.02590 1.10212 1.10950
 H1617 H -0.02056 1.18225 1.12844
 H1618 H 0.01614 1.21507 1.07057
 H1619 H 0.02160 1.10596 1.01716
 H1620 H -0.01417 1.07683 1.07755
 H1621 H 0.01853 1.17810 1.05065
 H1622 H 0.01986 1.14465 1.03404
 C1623 C 0.50211 0.65905 0.58409
 C1624 C 0.50909 0.67886 0.57064
 C1625 C 0.50773 0.70160 0.58033
 C1626 C 0.49914 0.70508 0.60332
 C1627 C 0.49249 0.68525 0.61657
 C1628 C 0.49376 0.66266 0.60714
 C1629 C 0.50407 0.63508 0.57322
 C1630 C 0.49772 0.61430 0.58524
 C1631 C 0.49925 0.59245 0.57415
 C1632 C 0.50717 0.59063 0.55080
 C1633 C 0.51409 0.61119 0.53887
 C1634 C 0.51256 0.63330 0.54985
 C1635 C 0.51761 0.67586 0.54767
 C1636 C 0.51924 0.65359 0.53748
 H1637 H 0.52302 0.69099 0.53735
 H1638 H 0.52579 0.65224 0.51959
 H1639 H 0.51403 0.71628 0.56998
 H1640 H 0.48654 0.68723 0.63461
 H1641 H 0.49386 0.57694 0.58389
 H1642 H 0.52029 0.61010 0.52083
 H1643 H 0.48832 0.64833 0.61835
 H1644 H 0.49132 0.61446 0.60312
 C1645 C -0.00807 0.65841 0.42429
 C1646 C -0.00062 0.65983 0.40056
 C1647 C 0.00071 0.68164 0.38932
 C1648 C -0.00504 0.70251 0.40123
 C1649 C -0.01280 0.70098 0.42470
 C1650 C -0.01421 0.67928 0.43610
 C1651 C -0.00900 0.63472 0.43573
 C1652 C -0.01602 0.63135 0.45931
 C1653 C -0.01588 0.60901 0.46935
 C1654 C -0.00876 0.58944 0.45617
 C1655 C -0.00225 0.59255 0.43251
 C1656 C -0.00226 0.61492 0.42227
 C1657 C 0.00550 0.63953 0.38812
 C1658 C 0.00472 0.61754 0.39876
 H1659 H 0.01114 0.64067 0.36990
 H1660 H 0.00980 0.60236 0.38845
 H1661 H 0.00623 0.68246 0.37102
 H1662 H -0.01821 0.71626 0.43447
 H1663 H -0.02108 0.60717 0.48763
 H1664 H 0.00318 0.57758 0.42206
 H1665 H -0.02025 0.67929 0.45412
 H1666 H -0.02147 0.64570 0.47040
 C1667 C 0.48931 1.16433 -0.07544
 C1668 C 0.49314 1.16567 -0.10004
 C1669 C 0.49448 1.18758 -0.11110
 C1670 C 0.49255 1.20861 -0.09814
 C1671 C 0.48843 1.20722 -0.07373
 C1672 C 0.48679 1.18540 -0.06254
 C1673 C 0.48878 1.14052 -0.06420
 C1674 C 0.48493 1.13717 -0.03988
 C1675 C 0.48569 1.11473 -0.03010
 C1676 C 0.49034 1.09504 -0.04426
 C1677 C 0.49351 1.09811 -0.06861
 C1678 C 0.49271 1.12057 -0.07864
 C1679 C 0.49616 1.14522 -0.11346
 C1680 C 0.49608 1.12314 -0.10296
 H1681 H 0.49904 1.14631 -0.13234
 H1682 H 0.49889 1.10786 -0.11404
 H1683 H 0.49760 1.18839 -0.12997
 H1684 H 0.48665 1.22273 -0.06292
 H1685 H 0.48304 1.11290 -0.01126
 H1686 H 0.49680 1.08301 -0.07981
 H1687 H 0.48387 1.18549 -0.04374
 H1688 H 0.48150 1.15160 -0.02805
 C1689 C 0.50208 0.34537 -0.08371
 C1690 C 0.51071 0.32628 -0.07040
 C1691 C 0.50910 0.30331 -0.07951
 C1692 C 0.49892 0.29886 -0.10182
 C1693 C 0.49051 0.31776 -0.11505
 C1694 C 0.49199 0.34072 -0.10615
 C1695 C 0.50385 0.36961 -0.07312
 C1696 C 0.49569 0.38980 -0.08478
 C1697 C 0.49685 0.41181 -0.07375
 C1698 C 0.50623 0.41440 -0.05081
 C1699 C 0.51509 0.39449 -0.03937
 C1700 C 0.51390 0.37225 -0.05025
 C1701 C 0.52084 0.33017 -0.04804
 C1702 C 0.52237 0.35264 -0.03817
 H1703 H 0.52753 0.31557 -0.03789
 H1704 H 0.53016 0.35466 -0.02071
 H1705 H 0.51615 0.28891 -0.06932
 H1706 H 0.48244 0.31481 -0.13224
 H1707 H 0.48997 0.42681 -0.08313
 H1708 H 0.52249 0.39616 -0.02170
 H1709 H 0.48504 0.35448 -0.11710
 H1710 H 0.48809 0.38897 -0.10229
 C1711 C 0.00109 -0.16110 0.41596
 C1712 C 0.00870 -0.18064 0.42921
 C1713 C 0.00647 -0.20344 0.41975
 C1714 C -0.00357 -0.20736 0.39723
 C1715 C -0.01087 -0.18792 0.38411
 C1716 C -0.00868 -0.16513 0.39329
 C1717 C 0.00355 -0.13705 0.42685
 C1718 C -0.00341 -0.11646 0.41515
 C1719 C -0.00170 -0.09460 0.42641
 C1720 C 0.00703 -0.09259 0.44965
 C1721 C 0.01475 -0.11292 0.46117
 C1722 C 0.01304 -0.13502 0.45001
 C1723 C 0.01842 -0.17737 0.45185
 C1724 C 0.02046 -0.15507 0.46206
 H1725 H 0.02432 -0.19233 0.46196
 H1726 H 0.02783 -0.15354 0.47974
 H1727 H 0.01301 -0.21808 0.42992
 H1728 H -0.01853 -0.19018 0.36672
 H1729 H -0.00766 -0.07927 0.41694
 H1730 H 0.02165 -0.11168 0.47907
 H1731 H -0.01482 -0.15099 0.38234
 H1732 H -0.01048 -0.11681 0.39740
 C1733 C 0.50008 -0.16023 0.57853
 C1734 C 0.51165 -0.16266 0.60063
 C1735 C 0.51244 -0.18479 0.61164
 C1736 C 0.50198 -0.20472 0.60086
 C1737 C 0.49030 -0.20209 0.57909
 C1738 C 0.48938 -0.18027 0.56806
 C1739 C 0.49972 -0.13640 0.56725
 C1740 C 0.48881 -0.13232 0.54525
 C1741 C 0.48912 -0.10997 0.53529
 C1742 C 0.50028 -0.09089 0.54688
 C1743 C 0.51109 -0.09470 0.56896
 C1744 C 0.51093 -0.11726 0.57915
 C1745 C 0.52236 -0.14300 0.61155
 C1746 C 0.52200 -0.12082 0.60106
 H1747 H 0.53121 -0.14479 0.62848
 H1748 H 0.53059 -0.10622 0.61023
 H1749 H 0.52145 -0.18649 0.62847
 H1750 H 0.48137 -0.21689 0.57064
 H1751 H 0.48053 -0.10772 0.51830
 H1752 H 0.51980 -0.08018 0.57816
 H1753 H 0.48007 -0.17956 0.55141
 H1754 H 0.47998 -0.14612 0.53530
 C1755 C -0.00195 0.33754 1.08239
 C1756 C -0.01259 0.31824 1.07031
 C1757 C -0.01228 0.29571 1.08033
 C1758 C -0.00129 0.29186 1.10231
 C1759 C 0.00902 0.31108 1.11434
 C1760 C 0.00878 0.33358 1.10456
 C1761 C -0.00260 0.36130 1.07100
 C1762 C 0.00745 0.38162 1.08155
 C1763 C 0.00656 0.40329 1.07016
 C1764 C -0.00433 0.40541 1.04791
 C1765 C -0.01453 0.38527 1.03729
 C1766 C -0.01376 0.36335 1.04863
 C1767 C -0.02352 0.32148 1.04830
 C1768 C -0.02406 0.34354 1.03768
 H1769 H -0.03172 0.30670 1.03906
 H1770 H -0.03265 0.34508 1.02059
 H1771 H -0.02101 0.28126 1.07108
 H1772 H 0.01758 0.30880 1.13129
 H1773 H 0.01459 0.41845 1.07887
 H1774 H -0.02308 0.38659 1.02015
 H1775 H 0.01715 0.34755 1.11465
 H1776 H 0.01614 0.38122 1.09855
 C1777 C 0.75220 0.33252 0.09028
 C1778 C 0.76235 0.32087 0.07076
 C1779 C 0.75996 0.33017 0.04767
 C1780 C 0.74640 0.35039 0.04366
 C1781 C 0.73693 0.36186 0.06352
 C1782 C 0.73980 0.35324 0.08622
 C1783 C 0.75428 0.32191 0.11443
 C1784 C 0.74510 0.33267 0.13480
 C1785 C 0.74595 0.32151 0.15663
 C1786 C 0.75605 0.29929 0.15903
 C1787 C 0.76626 0.28883 0.13900
 C1788 C 0.76545 0.30000 0.11677
 C1789 C 0.77411 0.29966 0.07443
 C1790 C 0.77542 0.28936 0.09685
 H1791 H 0.78195 0.29058 0.05964
 H1792 H 0.78424 0.27268 0.09858
 H1793 H 0.76739 0.32081 0.03285
 H1794 H 0.72770 0.37828 0.06191
 H1795 H 0.73826 0.33029 0.17167
 H1796 H 0.77441 0.27179 0.14055
 H1797 H 0.73180 0.36307 0.10026
 H1798 H 0.73695 0.34963 0.13437
 C1799 C 0.26353 0.83393 0.59404
 C1800 C 0.26771 0.81975 0.57387
 C1801 C 0.26528 0.82922 0.55101
 C1802 C 0.25838 0.85257 0.54810
 C1803 C 0.25581 0.86692 0.56810
 C1804 C 0.25844 0.85783 0.59075
 C1805 C 0.26386 0.82270 0.61798
 C1806 C 0.25793 0.83487 0.63882
 C1807 C 0.25693 0.82328 0.66048
 C1808 C 0.26200 0.79929 0.66207
 C1809 C 0.26859 0.78715 0.64150
 C1810 C 0.26923 0.79855 0.61951
 C1811 C 0.27349 0.79607 0.57668
 C1812 C 0.27443 0.78576 0.59901
 H1813 H 0.27696 0.78522 0.56134
 H1814 H 0.27865 0.76728 0.60018
 H1815 H 0.26748 0.81813 0.53557
 H1816 H 0.25111 0.88521 0.56619
 H1817 H 0.25197 0.83316 0.67603
 H1818 H 0.27246 0.76857 0.64241
 H1819 H 0.25587 0.86973 0.60535
 H1820 H 0.25349 0.85322 0.63879
 C1821 C 0.75832 0.68193 0.58287
 C1822 C 0.74210 0.69001 0.56573
 C1823 C 0.74175 0.68013 0.54297
 C1824 C 0.75755 0.66246 0.53692
 C1825 C 0.77495 0.65594 0.55314
 C1826 C 0.77545 0.66562 0.57590
 C1827 C 0.75594 0.69048 0.60784
 C1828 C 0.76904 0.68120 0.62677
 C1829 C 0.76574 0.68926 0.64982
 C1830 C 0.74945 0.70693 0.65465
 C1831 C 0.73612 0.71612 0.63593
 C1832 C 0.73894 0.70777 0.61273
 C1833 C 0.72572 0.70719 0.57167
 C1834 C 0.72448 0.71619 0.59458
 H1835 H 0.71352 0.71361 0.55845
 H1836 H 0.71145 0.72941 0.59830
 H1837 H 0.72825 0.68512 0.53034
 H1838 H 0.78706 0.64208 0.54884
 H1839 H 0.77635 0.68190 0.66387
 H1840 H 0.72330 0.72961 0.63944
 H1841 H 0.78880 0.65949 0.58796
 H1842 H 0.78175 0.66753 0.62422
 C1843 C 0.25394 0.18637 0.08383
 C1844 C 0.26956 0.16752 0.08019
 C1845 C 0.27058 0.15642 0.05799
 C1846 C 0.25568 0.16339 0.03957
 C1847 C 0.24109 0.18270 0.04276
 C1848 C 0.24040 0.19431 0.06452
 C1849 C 0.25153 0.19611 0.10838
 C1850 C 0.23594 0.21431 0.11402
 C1851 C 0.23376 0.22222 0.13728
 C1852 C 0.24693 0.21217 0.15562
 C1853 C 0.26257 0.19406 0.15018
 C1854 C 0.26501 0.18606 0.12680
 C1855 C 0.28301 0.15896 0.09904
 C1856 C 0.28077 0.16801 0.12184
 H1857 H 0.29504 0.14462 0.09625
 H1858 H 0.29126 0.16046 0.13590
 H1859 H 0.28143 0.14108 0.05562
 H1860 H 0.22920 0.18797 0.02873
 H1861 H 0.22166 0.23631 0.14089
 H1862 H 0.27312 0.18635 0.16410
 H1863 H 0.22835 0.20868 0.06609
 H1864 H 0.22525 0.22271 0.10079
 C1865 C 0.26869 0.17714 0.91182
 C1866 C 0.26459 0.15251 0.91239
 C1867 C 0.26106 0.14113 0.93396
 C1868 C 0.26128 0.15383 0.95522
 C1869 C 0.26679 0.17790 0.95499
 C1870 C 0.27043 0.18952 0.93350
 C1871 C 0.26984 0.18889 0.88811
 C1872 C 0.27246 0.21344 0.88530
 C1873 C 0.27138 0.22360 0.86282
 C1874 C 0.26761 0.20954 0.84265
 C1875 C 0.26612 0.18504 0.84522
 C1876 C 0.26705 0.17470 0.86761
 C1877 C 0.26309 0.13943 0.89142
 C1878 C 0.26435 0.15028 0.86950
 H1879 H 0.26025 0.12054 0.89194
 H1880 H 0.26250 0.13943 0.85377
 H1881 H 0.25726 0.12237 0.93421
 H1882 H 0.26717 0.18790 0.97133
 H1883 H 0.27272 0.24255 0.86130
 H1884 H 0.26362 0.17393 0.82974
 H1885 H 0.27390 0.20821 0.93419
 H1886 H 0.27480 0.22513 0.90024
 C1887 C 0.76976 0.67646 0.40744
 C1888 C 0.76703 0.69051 0.42794
 C1889 C 0.76398 0.67977 0.45013
 C1890 C 0.76326 0.65521 0.45190
 C1891 C 0.76745 0.64144 0.43189
 C1892 C 0.77089 0.65186 0.40996
 C1893 C 0.77004 0.68826 0.38381
 C1894 C 0.77036 0.67552 0.36242
 C1895 C 0.76838 0.68698 0.34085
 C1896 C 0.76636 0.71149 0.33984
 C1897 C 0.76710 0.72458 0.36094
 C1898 C 0.76847 0.71308 0.38293
 C1899 C 0.76635 0.71506 0.42597
 C1900 C 0.76726 0.72611 0.40398
 H1901 H 0.76456 0.72588 0.44165
 H1902 H 0.76618 0.74510 0.40340
 H1903 H 0.76072 0.69039 0.46569
 H1904 H 0.76715 0.62242 0.43313
 H1905 H 0.76821 0.67651 0.32479
 H1906 H 0.76546 0.74353 0.36029
 H1907 H 0.77364 0.64023 0.39518
 H1908 H 0.77147 0.65663 0.36186
 C1909 C 0.26041 0.81456 0.41831
 C1910 C 0.24262 0.80752 0.43432
 C1911 C 0.24112 0.81853 0.45651
 C1912 C 0.25712 0.83650 0.46308
 C1913 C 0.27586 0.84208 0.44808
 C1914 C 0.27763 0.83116 0.42599
 C1915 C 0.25930 0.80492 0.39355
 C1916 C 0.27435 0.81292 0.37549
 C1917 C 0.27164 0.80456 0.35236
 C1918 C 0.25405 0.78780 0.34657
 C1919 C 0.23922 0.77939 0.36453
 C1920 C 0.24145 0.78810 0.38777
 C1921 C 0.22576 0.79042 0.42766
 C1922 C 0.22539 0.78069 0.40499
 H1923 H 0.21234 0.78480 0.44003
 H1924 H 0.21176 0.76776 0.40062
 H1925 H 0.22651 0.81430 0.46808
 H1926 H 0.28808 0.85623 0.45259
 H1927 H 0.28345 0.81127 0.33895
 H1928 H 0.22544 0.76658 0.36029
 H1929 H 0.29199 0.83670 0.41483
 H1930 H 0.28801 0.82598 0.37871
 C1931 C 0.75929 0.32149 0.91481
 C1932 C 0.75850 0.34630 0.91584
 C1933 C 0.75586 0.35770 0.93757
 C1934 C 0.75446 0.34500 0.95879
 C1935 C 0.75820 0.32069 0.95817
 C1936 C 0.76028 0.30895 0.93634
 C1937 C 0.75831 0.30995 0.89079
 C1938 C 0.75522 0.28550 0.88747
 C1939 C 0.75291 0.27587 0.86468
 C1940 C 0.75402 0.29031 0.84460
 C1941 C 0.75738 0.31461 0.84777
 C1942 C 0.75897 0.32451 0.87052
 C1943 C 0.75947 0.35965 0.89514
 C1944 C 0.76020 0.34899 0.87299
 H1945 H 0.75934 0.37869 0.89605
 H1946 H 0.76073 0.36013 0.85750
 H1947 H 0.75399 0.37667 0.93794
 H1948 H 0.75746 0.31051 0.97430
 H1949 H 0.75038 0.25704 0.86277
 H1950 H 0.75793 0.32600 0.83246
 H1951 H 0.76193 0.29007 0.93656
 H1952 H 0.75401 0.27366 0.90228
 C1953 C 0.81063 0.41919 0.25594
 C1954 C 0.82960 0.42383 0.27185
 C1955 C 0.84094 0.44601 0.27210
 C1956 C 0.83414 0.46342 0.25615
 C1957 C 0.81464 0.45931 0.24131
 C1958 C 0.80277 0.43759 0.24138
 C1959 C 0.80085 0.39451 0.25424
 C1960 C 0.78259 0.38782 0.23839
 C1961 C 0.77493 0.36439 0.23665
 C1962 C 0.78527 0.34692 0.25057
 C1963 C 0.80325 0.35348 0.26664
 C1964 C 0.81102 0.37701 0.26861
 C1965 C 0.83815 0.40589 0.28629
 C1966 C 0.82909 0.38300 0.28468
 H1967 H 0.85257 0.40945 0.29855
 H1968 H 0.83671 0.36965 0.29587
 H1969 H 0.85647 0.44898 0.28310
 H1970 H 0.80950 0.47249 0.22857
 H1971 H 0.76093 0.35992 0.22421
 H1972 H 0.81119 0.34026 0.27777
 H1973 H 0.78833 0.43524 0.22905
 H1974 H 0.77406 0.40035 0.22707
 C1975 C 0.31806 0.91629 0.75893
 C1976 C 0.31193 0.93159 0.74029
 C1977 C 0.32294 0.95379 0.73857
 C1978 C 0.33982 0.96119 0.75535
 C1979 C 0.34437 0.94701 0.77494
 C1980 C 0.33358 0.92477 0.77680
 C1981 C 0.30846 0.89150 0.75820
 C1982 C 0.31590 0.87398 0.77399
 C1983 C 0.30737 0.85086 0.77183
 C1984 C 0.29096 0.84459 0.75408
 C1985 C 0.28330 0.86196 0.73837
 C1986 C 0.29224 0.88513 0.74000
 C1987 C 0.29561 0.92428 0.72293
 C1988 C 0.28567 0.90170 0.72304
 H1989 H 0.29066 0.93613 0.70885
 H1990 H 0.27326 0.89686 0.70910
 H1991 H 0.31947 0.96481 0.72337
 H1992 H 0.35752 0.95244 0.78794
 H1993 H 0.31353 0.83786 0.78426
 H1994 H 0.27084 0.85730 0.72441
 H1995 H 0.33824 0.91421 0.79186
 H1996 H 0.32863 0.87765 0.78785
 C1997 C 0.17860 0.91334 0.26809
 C1998 C 0.15387 0.91404 0.26456
 C1999 C 0.14274 0.93559 0.26157
 C2000 C 0.15581 0.95668 0.26159
 C2001 C 0.18000 0.95633 0.26653
 C2002 C 0.19137 0.93486 0.26977
 C2003 C 0.19004 0.88970 0.26865
 C2004 C 0.21461 0.88679 0.27093
 C2005 C 0.22444 0.86440 0.26943
 C2006 C 0.21002 0.84444 0.26554
 C2007 C 0.18552 0.84710 0.26426
 C2008 C 0.17549 0.86939 0.26571
 C2009 C 0.14044 0.89323 0.26294
 C2010 C 0.15102 0.87138 0.26350
 H2011 H 0.12149 0.89386 0.26050
 H2012 H 0.13990 0.85579 0.26154
 H2013 H 0.12390 0.93594 0.25813
 H2014 H 0.19029 0.97255 0.26671
 H2015 H 0.24341 0.86280 0.27063
 H2016 H 0.17414 0.83177 0.26168
 H2017 H 0.21017 0.93544 0.27277
 H2018 H 0.22655 0.90157 0.27340
 C2019 C 0.67468 0.40864 0.76722
 C2020 C 0.68946 0.42894 0.76626
 C2021 C 0.67947 0.45137 0.76410
 C2022 C 0.65495 0.45361 0.76267
 C2023 C 0.64040 0.43372 0.76539
 C2024 C 0.65007 0.41151 0.76785
 C2025 C 0.68581 0.38493 0.76642
 C2026 C 0.67246 0.36388 0.76456
 C2027 C 0.68351 0.34232 0.76219
 C2028 C 0.70817 0.34099 0.76185
 C2029 C 0.72172 0.36178 0.76430
 C2030 C 0.71072 0.38374 0.76612
 C2031 C 0.71402 0.42660 0.76651
 C2032 C 0.72442 0.40450 0.76674
 H2033 H 0.72539 0.44210 0.76610
 H2034 H 0.74349 0.40365 0.76659
 H2035 H 0.69070 0.46683 0.76202
 H2036 H 0.62140 0.43529 0.76456
 H2037 H 0.67260 0.32656 0.76058
 H2038 H 0.74080 0.36097 0.76391
 H2039 H 0.63792 0.39685 0.76946
 H2040 H 0.65346 0.36363 0.76434
 C2041 C 0.68467 0.58429 0.75896
 C2042 C 0.69319 0.56713 0.74314
 C2043 C 0.68327 0.54437 0.74299
 C2044 C 0.66500 0.53840 0.75847
 C2045 C 0.65811 0.55463 0.77560
 C2046 C 0.66789 0.57736 0.77597
 C2047 C 0.69314 0.60925 0.75613
 C2048 C 0.68352 0.62814 0.76879
 C2049 C 0.69140 0.65118 0.76493
 C2050 C 0.70920 0.65606 0.74847
 C2051 C 0.71879 0.63736 0.73565
 C2052 C 0.71067 0.61416 0.73907
 C2053 C 0.71072 0.57305 0.72682
 C2054 C 0.71955 0.59599 0.72511
 H2055 H 0.71747 0.55981 0.71494
 H2056 H 0.73299 0.59971 0.71208
 H2057 H 0.68854 0.53175 0.72968
 H2058 H 0.64380 0.55038 0.78747
 H2059 H 0.68372 0.66519 0.77519
 H2060 H 0.73242 0.64086 0.72275
 H2061 H 0.66140 0.58946 0.78902
 H2062 H 0.66972 0.62555 0.78157
 C2063 C 0.18365 0.08731 0.25774
 C2064 C 0.19102 0.07079 0.24066
 C2065 C 0.18107 0.04805 0.24029
 C2066 C 0.16399 0.04143 0.25683
 C2067 C 0.15835 0.05697 0.27507
 C2068 C 0.16812 0.07970 0.27562
 C2069 C 0.19200 0.11234 0.25538
 C2070 C 0.18320 0.13073 0.26935
 C2071 C 0.19088 0.15389 0.26592
 C2072 C 0.20769 0.15939 0.24865
 C2073 C 0.21646 0.14121 0.23452
 C2074 C 0.20845 0.11790 0.23747
 C2075 C 0.20746 0.07734 0.22348
 C2076 C 0.21632 0.10030 0.22219
 H2077 H 0.21336 0.06458 0.21062
 H2078 H 0.22892 0.10452 0.20848
 H2079 H 0.18544 0.03593 0.22618
 H2080 H 0.14503 0.05217 0.28785
 H2081 H 0.18386 0.16751 0.27717
 H2082 H 0.22929 0.14524 0.22096
 H2083 H 0.16263 0.09126 0.28962
 H2084 H 0.17017 0.12765 0.28280
 C2085 C 0.32351 0.08949 0.74856
 C2086 C 0.32922 0.07794 0.76990
 C2087 C 0.33970 0.05560 0.76922
 C2088 C 0.34368 0.04443 0.74744
 C2089 C 0.33520 0.05491 0.72666
 C2090 C 0.32545 0.07716 0.72713
 C2091 C 0.31526 0.11428 0.74962
 C2092 C 0.31375 0.12856 0.72939
 C2093 C 0.30575 0.15154 0.73110
 C2094 C 0.29865 0.16066 0.75286
 C2095 C 0.30078 0.14689 0.77331
 C2096 C 0.30986 0.12403 0.77191
 C2097 C 0.32446 0.08889 0.79157
 C2098 C 0.31421 0.11111 0.79253
 H2099 H 0.32836 0.08000 0.80801
 H2100 H 0.31040 0.11863 0.80968
 H2101 H 0.34556 0.04746 0.78547
 H2102 H 0.33682 0.04616 0.70972
 H2103 H 0.30436 0.16200 0.71520
 H2104 H 0.29579 0.15415 0.79027
 H2105 H 0.31962 0.08448 0.71056
 H2106 H 0.31896 0.12238 0.71218
 C2107 C 0.82725 0.59214 0.26009
 C2108 C 0.85120 0.59055 0.25357
 C2109 C 0.86180 0.56856 0.25200
 C2110 C 0.84885 0.54779 0.25626
 C2111 C 0.82553 0.54929 0.26389
 C2112 C 0.81478 0.57122 0.26581
 C2113 C 0.81618 0.61595 0.25974
 C2114 C 0.79232 0.61949 0.26522
 C2115 C 0.78259 0.64182 0.26353
 C2116 C 0.79630 0.66125 0.25627
 C2117 C 0.82019 0.65799 0.25125
 C2118 C 0.83018 0.63562 0.25294
 C2119 C 0.86429 0.61081 0.24785
 C2120 C 0.85400 0.63285 0.24752
 H2121 H 0.88268 0.60953 0.24305
 H2122 H 0.86478 0.64792 0.24254
 H2123 H 0.88009 0.56754 0.24670
 H2124 H 0.81529 0.53345 0.26736
 H2125 H 0.76410 0.64377 0.26764
 H2126 H 0.83107 0.67287 0.24590
 H2127 H 0.79658 0.57134 0.27116
 H2128 H 0.78082 0.60526 0.27061
 C2129 C 0.90944 0.26733 0.17612
 C2130 C 0.90983 0.26249 0.15155
 C2131 C 0.93117 0.25777 0.14037
 C2132 C 0.95236 0.25752 0.15323
 C2133 C 0.95237 0.26368 0.17720
 C2134 C 0.93112 0.26849 0.18862
 C2135 C 0.88585 0.26979 0.18775
 C2136 C 0.88314 0.27322 0.21230
 C2137 C 0.86068 0.27300 0.22245
 C2138 C 0.84044 0.26936 0.20838
 C2139 C 0.84295 0.26736 0.18382
 C2140 C 0.86530 0.26735 0.17349
 C2141 C 0.88888 0.26147 0.13835
 C2142 C 0.86709 0.26390 0.14908
 H2143 H 0.88928 0.25808 0.11949
 H2144 H 0.85134 0.26231 0.13816
 H2145 H 0.93124 0.25349 0.12167
 H2146 H 0.96867 0.26375 0.18731
 H2147 H 0.85923 0.27469 0.24146
 H2148 H 0.82742 0.26492 0.17269
 H2149 H 0.93196 0.27246 0.20727
 H2150 H 0.89812 0.27539 0.22401
 C2151 C 0.41224 0.77017 0.67691
 C2152 C 0.41245 0.76602 0.65221
 C2153 C 0.43380 0.76241 0.64062
 C2154 C 0.45517 0.76258 0.65318
 C2155 C 0.45530 0.76818 0.67729
 C2156 C 0.43405 0.77193 0.68911
 C2157 C 0.38873 0.77121 0.68896
 C2158 C 0.38626 0.77376 0.71364
 C2159 C 0.36397 0.77233 0.72411
 C2160 C 0.34367 0.76831 0.71024
 C2161 C 0.34589 0.76702 0.68559
 C2162 C 0.36808 0.76826 0.67494
 C2163 C 0.39135 0.76445 0.63929
 C2164 C 0.36963 0.76561 0.65041
 H2165 H 0.39160 0.76160 0.62034
 H2166 H 0.35378 0.76364 0.63969
 H2167 H 0.43377 0.75844 0.62184
 H2168 H 0.47173 0.76847 0.68720
 H2169 H 0.36274 0.77352 0.74317
 H2170 H 0.33030 0.76432 0.67462
 H2171 H 0.43500 0.77543 0.70785
 H2172 H 0.40133 0.77623 0.72520
 C2173 C 0.41917 0.26017 0.81267
 C2174 C 0.42324 0.27528 0.83233
 C2175 C 0.44499 0.27503 0.84442
 C2176 C 0.46249 0.25936 0.83767
 C2177 C 0.45899 0.24529 0.81756
 C2178 C 0.43773 0.24588 0.80497
 C2179 C 0.39481 0.25886 0.80206
 C2180 C 0.38867 0.24375 0.78309
 C2181 C 0.36540 0.24197 0.77491
 C2182 C 0.34755 0.25517 0.78538
 C2183 C 0.35361 0.27075 0.80388
 C2184 C 0.37698 0.27270 0.81224
 C2185 C 0.40509 0.28936 0.84078
 C2186 C 0.38246 0.28806 0.83099
 H2187 H 0.40823 0.30103 0.85572
 H2188 H 0.36889 0.29887 0.83860
 H2189 H 0.44749 0.28543 0.86039
 H2190 H 0.47223 0.23278 0.81244
 H2191 H 0.36136 0.22994 0.76049
 H2192 H 0.34010 0.28132 0.81196
 H2193 H 0.43579 0.23412 0.79005
 H2194 H 0.40148 0.23295 0.77445
 C2195 C 0.91910 0.75409 0.31205
 C2196 C 0.93035 0.73215 0.31298
 C2197 C 0.95162 0.72999 0.32544
 C2198 C 0.96251 0.74950 0.33673
 C2199 C 0.95303 0.77184 0.33278
 C2200 C 0.93133 0.77409 0.32096
 C2201 C 0.89453 0.75478 0.30200
 C2202 C 0.87993 0.77447 0.30429
 C2203 C 0.85661 0.77364 0.29595
 C2204 C 0.84752 0.75339 0.28466
 C2205 C 0.86197 0.73381 0.28210
 C2206 C 0.88503 0.73409 0.29129
 C2207 C 0.92004 0.71234 0.30203
 C2208 C 0.89813 0.71346 0.29085
 H2209 H 0.92897 0.69563 0.30227
 H2210 H 0.89085 0.69761 0.28271
 H2211 H 0.95952 0.71279 0.32675
 H2212 H 0.96110 0.78739 0.34050
 H2213 H 0.84570 0.78894 0.29815
 H2214 H 0.85488 0.71793 0.27382
 H2215 H 0.92411 0.79147 0.31944
 H2216 H 0.88604 0.79037 0.31303
 C2217 C 0.08921 0.76103 0.32917
 C2218 C 0.08787 0.75474 0.35327
 C2219 C 0.06589 0.75236 0.36416
 C2220 C 0.04489 0.75542 0.35131
 C2221 C 0.04611 0.76284 0.32781
 C2222 C 0.06802 0.76567 0.31680
 C2223 C 0.11306 0.76150 0.31779
 C2224 C 0.11640 0.76703 0.29381
 C2225 C 0.13877 0.76603 0.28378
 C2226 C 0.15847 0.75943 0.29729
 C2227 C 0.15543 0.75441 0.32132
 C2228 C 0.13300 0.75546 0.33162
 C2229 C 0.10837 0.74990 0.36621
 C2230 C 0.13043 0.75017 0.35560
 H2231 H 0.10729 0.74523 0.38472
 H2232 H 0.14569 0.74579 0.36627
 H2233 H 0.06509 0.74722 0.38257
 H2234 H 0.03011 0.76537 0.31762
 H2235 H 0.14053 0.77012 0.26519
 H2236 H 0.17051 0.74957 0.33204
 H2237 H 0.06793 0.77076 0.29847
 H2238 H 0.10197 0.77194 0.28244
 C2239 C 0.59080 0.26082 0.82965
 C2240 C 0.58923 0.25334 0.85340
 C2241 C 0.56725 0.25188 0.86442
 C2242 C 0.54647 0.25726 0.85210
 C2243 C 0.54801 0.26572 0.82897
 C2244 C 0.56992 0.26750 0.81781
 C2245 C 0.61453 0.26056 0.81809
 C2246 C 0.61801 0.26698 0.79436
 C2247 C 0.64025 0.26547 0.78414
 C2248 C 0.65969 0.25747 0.79721
 C2249 C 0.65650 0.25144 0.82100
 C2250 C 0.63419 0.25291 0.83146
 C2251 C 0.60946 0.24668 0.86586
 C2252 C 0.63145 0.24644 0.85512
 H2253 H 0.60821 0.24111 0.88411
 H2254 H 0.64649 0.24077 0.86543
 H2255 H 0.56627 0.24595 0.88258
 H2256 H 0.53219 0.27004 0.81919
 H2257 H 0.64210 0.27037 0.76576
 H2258 H 0.67134 0.24542 0.83139
 H2259 H 0.57003 0.27360 0.79980
 H2260 H 0.60379 0.27302 0.78331
 C2261 C 0.58578 0.75747 0.68090
 C2262 C 0.56855 0.74142 0.68943
 C2263 C 0.54573 0.74116 0.67968
 C2264 C 0.53974 0.75680 0.66162
 C2265 C 0.55606 0.77410 0.65473
 C2266 C 0.57886 0.77454 0.66431
 C2267 C 0.61076 0.75491 0.68927
 C2268 C 0.62973 0.76783 0.67959
 C2269 C 0.65278 0.76435 0.68749
 C2270 C 0.65759 0.74804 0.70538
 C2271 C 0.63884 0.73488 0.71495
 C2272 C 0.61563 0.73791 0.70679
 C2273 C 0.57445 0.72509 0.70686
 C2274 C 0.59741 0.72366 0.71566
 H2275 H 0.56117 0.71302 0.71361
 H2276 H 0.60110 0.71064 0.72906
 H2277 H 0.53304 0.72775 0.68497
 H2278 H 0.55179 0.78611 0.64060
 H2279 H 0.66685 0.77485 0.67983
 H2280 H 0.64231 0.72207 0.72862
 H2281 H 0.59100 0.78777 0.65785
 H2282 H 0.62718 0.78054 0.66576
 C2283 C 0.08368 0.25427 0.17969
 C2284 C 0.06746 0.23679 0.18736
 C2285 C 0.04471 0.23545 0.17745
 C2286 C 0.03771 0.25151 0.16016
 C2287 C 0.05308 0.26988 0.15387
 C2288 C 0.07582 0.27135 0.16355
 C2289 C 0.10865 0.25334 0.18859
 C2290 C 0.12681 0.26811 0.18000
 C2291 C 0.14990 0.26619 0.18849
 C2292 C 0.15551 0.24965 0.20590
 C2293 C 0.13757 0.23469 0.21439
 C2294 C 0.11440 0.23616 0.20564
 C2295 C 0.07426 0.22027 0.20428
 C2296 C 0.09712 0.22022 0.21351
 H2297 H 0.06175 0.20706 0.21036
 H2298 H 0.10150 0.20704 0.22654
 H2299 H 0.03278 0.22119 0.18227
 H2300 H 0.04812 0.28217 0.14024
 H2301 H 0.16334 0.27803 0.18166
 H2302 H 0.14169 0.22165 0.22766
 H2303 H 0.08716 0.28551 0.15764
 H2304 H 0.12362 0.28111 0.16659
 C2305 C -0.07553 0.99075 0.83868
 C2306 C -0.09996 0.99523 0.83772
 C2307 C -0.11138 0.99745 0.81586
 C2308 C -0.09896 0.99564 0.79452
 C2309 C -0.07461 0.99145 0.79561
 C2310 C -0.06308 0.98902 0.81733
 C2311 C -0.06396 0.98865 0.86244
 C2312 C -0.03988 0.98358 0.86536
 C2313 C -0.02969 0.98295 0.88785
 C2314 C -0.04321 0.98735 0.90800
 C2315 C -0.06740 0.99149 0.90532
 C2316 C -0.07783 0.99212 0.88281
 C2317 C -0.11284 0.99778 0.85855
 C2318 C -0.10196 0.99644 0.88062
 H2319 H -0.13157 1.00121 0.85777
 H2320 H -0.11261 0.99891 0.89623
 H2321 H -0.13016 1.00075 0.81534
 H2322 H -0.06403 0.99003 0.77996
 H2323 H -0.01101 0.97954 0.88939
 H2324 H -0.07813 0.99458 0.92076
 H2325 H -0.04438 0.98599 0.81695
 H2326 H -0.02854 0.98026 0.85057
 C2327 C 0.42328 0.50139 0.33958
 C2328 C 0.40119 0.51244 0.33785
 C2329 C 0.38984 0.51425 0.31585
 C2330 C 0.40022 0.50554 0.29516
 C2331 C 0.42191 0.49408 0.29713
 C2332 C 0.43339 0.49225 0.31891
 C2333 C 0.43467 0.49950 0.36346
 C2334 C 0.45666 0.48887 0.36705
 C2335 C 0.46664 0.48772 0.38958
 C2336 C 0.45504 0.49713 0.40920
 C2337 C 0.43301 0.50755 0.40586
 C2338 C 0.42282 0.50884 0.38323
 C2339 C 0.39036 0.52131 0.35810
 C2340 C 0.40094 0.51956 0.38031
 H2341 H 0.37340 0.52973 0.35676
 H2342 H 0.39186 0.52672 0.39543
 H2343 H 0.37254 0.52203 0.31493
 H2344 H 0.42988 0.48575 0.28205
 H2345 H 0.48366 0.47957 0.39155
 H2346 H 0.42384 0.51495 0.42083
 H2347 H 0.44993 0.48320 0.31914
 H2348 H 0.46657 0.48146 0.35273
 C2349 C 0.58337 0.00366 0.34059
 C2350 C 0.57009 0.01030 0.32051
 C2351 C 0.58014 0.00927 0.29790
 C2352 C 0.60325 0.00116 0.29488
 C2353 C 0.61608 -0.00569 0.31498
 C2354 C 0.60636 -0.00459 0.33740
 C2355 C 0.57232 0.00551 0.36441
 C2356 C 0.58460 0.00040 0.38542
 C2357 C 0.57339 0.00147 0.40713
 C2358 C 0.54962 0.00771 0.40863
 C2359 C 0.53741 0.01375 0.38788
 C2360 C 0.54862 0.01277 0.36584
 C2361 C 0.54687 0.01792 0.32312
 C2362 C 0.53628 0.01888 0.34528
 H2363 H 0.53662 0.02298 0.30777
 H2364 H 0.51818 0.02459 0.34633
 H2365 H 0.56990 0.01528 0.28301
 H2366 H 0.63403 -0.01166 0.31332
 H2367 H 0.58344 -0.00295 0.42281
 H2368 H 0.51910 0.01883 0.38879
 H2369 H 0.61726 -0.01027 0.35190
 H2370 H 0.60285 -0.00456 0.38560
 C2371 C 0.08028 0.50794 0.84283
 C2372 C 0.06628 0.50923 0.82207
 C2373 C 0.07687 0.50800 0.79971
 C2374 C 0.10141 0.50539 0.79767
 C2375 C 0.11509 0.50442 0.81844
 C2376 C 0.10482 0.50574 0.84060
 C2377 C 0.06831 0.50833 0.86630
 C2378 C 0.08074 0.50653 0.88785
 C2379 C 0.06879 0.50567 0.90920
 C2380 C 0.04412 0.50677 0.90978
 C2381 C 0.03155 0.50940 0.88849
 C2382 C 0.04344 0.50999 0.86680
 C2383 C 0.04177 0.51136 0.82376
 C2384 C 0.03060 0.51174 0.84564
 H2385 H 0.03099 0.51246 0.80791
 H2386 H 0.01157 0.51312 0.84598
 H2387 H 0.06570 0.50864 0.78421
 H2388 H 0.13401 0.50232 0.81747
 H2389 H 0.07899 0.50397 0.92535
 H2390 H 0.01247 0.51028 0.88873
 H2391 H 0.11648 0.50472 0.85567
 H2392 H 0.09967 0.50544 0.88871
 C2393 C 0.08379 0.49812 0.66047
 C2394 C 0.07075 0.48951 0.67992
 C2395 C 0.08033 0.49085 0.70283
 C2396 C 0.10286 0.50072 0.70688
 C2397 C 0.11578 0.50922 0.68763
 C2398 C 0.10641 0.50802 0.66473
 C2399 C 0.07282 0.49639 0.63627
 C2400 C 0.08425 0.50439 0.61572
 C2401 C 0.07302 0.50295 0.59369
 C2402 C 0.05009 0.49345 0.59147
 C2403 C 0.03876 0.48497 0.61178
 C2404 C 0.04987 0.48640 0.63402
 C2405 C 0.04822 0.47958 0.67643
 C2406 C 0.03800 0.47810 0.65400
 H2407 H 0.03827 0.47295 0.69132
 H2408 H 0.02046 0.47040 0.65228
 H2409 H 0.07035 0.48376 0.71750
 H2410 H 0.13311 0.51709 0.69027
 H2411 H 0.08228 0.50959 0.57838
 H2412 H 0.02108 0.47752 0.61041
 H2413 H 0.11715 0.51497 0.65068
 H2414 H 0.10179 0.51200 0.61626
 C2415 C 0.58102 0.99882 0.15940
 C2416 C 0.60280 1.01112 0.16206
 C2417 C 0.61357 1.01319 0.18449
 C2418 C 0.60280 1.00345 0.20451
 C2419 C 0.58135 0.99104 0.20168
 C2420 C 0.57059 0.98878 0.17955
 C2421 C 0.56991 0.99722 0.13528
 C2422 C 0.54829 0.98539 0.13092
 C2423 C 0.53822 0.98503 0.10837
 C2424 C 0.54938 0.99636 0.08941
 C2425 C 0.57126 1.00773 0.09344
 C2426 C 0.58153 1.00828 0.11617
 C2427 C 0.61358 1.02139 0.14235
 C2428 C 0.60315 1.02005 0.11993
 H2429 H 0.63027 1.03079 0.14431
 H2430 H 0.61213 1.02847 0.10531
 H2431 H 0.63017 1.02267 0.18636
 H2432 H 0.57295 0.98258 0.21657
 H2433 H 0.52144 0.97594 0.10588
 H2434 H 0.58014 1.01654 0.07899
 H2435 H 0.55414 0.97904 0.17871
 H2436 H 0.53867 0.97644 0.14465
 C2437 C 0.41715 0.50195 0.15923
 C2438 C 0.42872 0.51383 0.17816
 C2439 C 0.41868 0.51388 0.20073
 C2440 C 0.39724 0.50201 0.20504
 C2441 C 0.38569 0.49039 0.18626
 C2442 C 0.39548 0.49029 0.16365
 C2443 C 0.42860 0.50231 0.13539
 C2444 C 0.41851 0.49126 0.11532
 C2445 C 0.42991 0.49203 0.09355
 C2446 C 0.45174 0.50378 0.09113
 C2447 C 0.46191 0.51492 0.11102
 C2448 C 0.45053 0.51434 0.13298
 C2449 C 0.45028 0.52557 0.17454
 C2450 C 0.46098 0.52576 0.15247
 H2451 H 0.45912 0.53469 0.18906
 H2452 H 0.47771 0.53503 0.15064
 H2453 H 0.42752 0.52351 0.21490
 H2454 H 0.36920 0.48101 0.18910
 H2455 H 0.42156 0.48326 0.07857
 H2456 H 0.47868 0.52418 0.10944
 H2457 H 0.38585 0.48089 0.14998
 H2458 H 0.40183 0.48192 0.11599
 C2459 C -0.08353 -0.00113 0.65828
 C2460 C -0.07079 0.00834 0.67780
 C2461 C -0.08081 0.00821 0.70036
 C2462 C -0.10345 -0.00139 0.70407
 C2463 C -0.11634 -0.01016 0.68463
 C2464 C -0.10653 -0.01014 0.66203
 C2465 C -0.07183 -0.00117 0.63456
 C2466 C -0.08267 -0.01065 0.61407
 C2467 C -0.07089 -0.01054 0.59249
 C2468 C -0.04797 -0.00099 0.59068
 C2469 C -0.03708 0.00859 0.61100
 C2470 C -0.04875 0.00852 0.63278
 C2471 C -0.04808 0.01783 0.67480
 C2472 C -0.03732 0.01796 0.65278
 H2473 H -0.03840 0.02518 0.68977
 H2474 H -0.01967 0.02542 0.65143
 H2475 H -0.07093 0.01584 0.71505
 H2476 H -0.13389 -0.01749 0.68689
 H2477 H -0.07981 -0.01806 0.57717
 H2478 H -0.01941 0.01606 0.60994
 H2479 H -0.11721 -0.01734 0.64781
 H2480 H -0.10017 -0.01834 0.61430
 C2481 C -0.15860 0.91629 0.99563
 C2482 C -0.17791 0.92979 0.98791
 C2483 C -0.20097 0.92050 0.98908
 C2484 C -0.20527 0.89789 0.99825
 C2485 C -0.18592 0.88453 1.00552
 C2486 C -0.16302 0.89356 1.00443
 C2487 C -0.13428 0.92677 0.99400
 C2488 C -0.11397 0.91469 1.00118
 C2489 C -0.09179 0.92548 1.00012
 C2490 C -0.08917 0.94858 0.99185
 C2491 C -0.10922 0.96053 0.98398
 C2492 C -0.13166 0.94985 0.98506
 C2493 C -0.17409 0.95242 0.97889
 C2494 C -0.15147 0.96226 0.97756
 H2495 H -0.18884 0.96277 0.97289
 H2496 H -0.14947 0.97992 0.97063
 H2497 H -0.21527 0.93082 0.98221
 H2498 H -0.18853 0.86673 1.01183
 H2499 H -0.07667 0.91573 1.00619
 H2500 H -0.10748 0.97837 0.97746
 H2501 H -0.14910 0.88231 1.01040
 H2502 H -0.11475 0.89701 1.00793
 C2503 C 0.34099 0.41934 0.50295
 C2504 C 0.32133 0.43237 0.49531
 C2505 C 0.29852 0.42234 0.49609
 C2506 C 0.29487 0.39939 0.50470
 C2507 C 0.31456 0.38664 0.51216
 C2508 C 0.33718 0.39642 0.51151
 C2509 C 0.36507 0.43039 0.50128
 C2510 C 0.38569 0.41866 0.50809
 C2511 C 0.40770 0.42971 0.50643
 C2512 C 0.40986 0.45278 0.49794
 C2513 C 0.38943 0.46455 0.49079
 C2514 C 0.36714 0.45355 0.49240
 C2515 C 0.32458 0.45521 0.48660
 C2516 C 0.34697 0.46560 0.48524
 H2517 H 0.30956 0.46524 0.48072
 H2518 H 0.34853 0.48333 0.47842
 H2519 H 0.28397 0.43233 0.48927
 H2520 H 0.31247 0.36867 0.51818
 H2521 H 0.42308 0.42011 0.51205
 H2522 H 0.39079 0.48238 0.48418
 H2523 H 0.35137 0.38554 0.51751
 H2524 H 0.38534 0.40098 0.51486
 C2525 C 0.33931 0.58106 0.00808
 C2526 C 0.31912 0.56650 0.01133
 C2527 C 0.29649 0.57624 0.01081
 C2528 C 0.29364 0.60049 0.00705
 C2529 C 0.31389 0.61479 0.00458
 C2530 C 0.33630 0.60535 0.00511
 C2531 C 0.36302 0.56995 0.00769
 C2532 C 0.38392 0.58288 0.00342
 C2533 C 0.40554 0.57175 0.00261
 C2534 C 0.40704 0.54742 0.00611
 C2535 C 0.38635 0.53434 0.01062
 C2536 C 0.36439 0.54538 0.01123
 C2537 C 0.32166 0.54230 0.01488
 C2538 C 0.34381 0.53199 0.01497
 H2539 H 0.30626 0.53111 0.01754
 H2540 H 0.34482 0.51318 0.01770
 H2541 H 0.28142 0.56468 0.01309
 H2542 H 0.31227 0.63355 0.00187
 H2543 H 0.42119 0.58235 -0.00075
 H2544 H 0.38726 0.51550 0.01325
 H2545 H 0.35093 0.61746 0.00299
 H2546 H 0.38407 0.60157 0.00042
 C2547 C -0.15973 0.07223 0.50368
 C2548 C -0.16029 0.09662 0.50830
 C2549 C -0.18179 0.10829 0.50818
 C2550 C -0.20327 0.09639 0.50281
 C2551 C -0.20231 0.07220 0.49721
 C2552 C -0.18098 0.06031 0.49793
 C2553 C -0.13636 0.06040 0.50414
 C2554 C -0.13404 0.03588 0.50170
 C2555 C -0.11180 0.02578 0.50175
 C2556 C -0.09139 0.03987 0.50399
 C2557 C -0.09350 0.06422 0.50691
 C2558 C -0.11576 0.07449 0.50741
 C2559 C -0.13934 0.10945 0.51233
 C2560 C -0.11751 0.09869 0.51148
 H2561 H -0.13980 0.12822 0.51570
 H2562 H -0.10176 0.10944 0.51426
 H2563 H -0.18182 0.12708 0.51164
 H2564 H -0.21767 0.06218 0.49159
 H2565 H -0.11056 0.00690 0.49968
 H2566 H -0.07777 0.07514 0.50922
 H2567 H -0.18144 0.04190 0.49323
 H2568 H -0.14912 0.02419 0.49993
 C2569 C 0.66383 0.08158 0.48901
 C2570 C 0.66663 0.10446 0.49869
 C2571 C 0.68924 0.11516 0.50023
 C2572 C 0.70946 0.10296 0.49303
 C2573 C 0.70620 0.08037 0.48310
 C2574 C 0.68392 0.06993 0.48103
 C2575 C 0.63967 0.07039 0.48837
 C2576 C 0.63523 0.04783 0.47879
 C2577 C 0.61280 0.03755 0.47972
 C2578 C 0.59398 0.04938 0.49016
 C2579 C 0.59801 0.07228 0.49903
 C2580 C 0.62067 0.08282 0.49818
 C2581 C 0.64692 0.11618 0.50741
 C2582 C 0.62451 0.10555 0.50731
 H2583 H 0.64893 0.13370 0.51485
 H2584 H 0.60997 0.11523 0.51467
 H2585 H 0.69098 0.13234 0.50842
 H2586 H 0.72089 0.07061 0.47626
 H2587 H 0.61033 0.02004 0.47241
 H2588 H 0.58364 0.08178 0.50695
 H2589 H 0.68301 0.05256 0.47336
 H2590 H 0.64881 0.03764 0.47063
 C2591 C 0.15821 0.57636 0.99711
 C2592 C 0.16066 0.59842 1.00867
 C2593 C 0.18305 0.60927 1.01105
 C2594 C 0.20319 0.59826 1.00237
 C2595 C 0.20065 0.57640 0.99096
 C2596 C 0.17856 0.56558 0.98835
 C2597 C 0.13408 0.56528 0.99501
 C2598 C 0.12981 0.54357 0.98352
 C2599 C 0.10725 0.53348 0.98285
 C2600 C 0.08819 0.54469 0.99354
 C2601 C 0.09211 0.56673 1.00438
 C2602 C 0.11483 0.57704 1.00520
 C2603 C 0.14080 0.60938 1.01796
 C2604 C 0.11842 0.59888 1.01637
 H2605 H 0.14262 0.62626 1.02682
 H2606 H 0.10369 0.60798 1.02409
 H2607 H 0.18484 0.62610 1.02001
 H2608 H 0.21579 0.56774 0.98358
 H2609 H 0.10484 0.51660 0.97414
 H2610 H 0.07757 0.57570 1.01262
 H2611 H 0.17789 0.54880 0.97944
 H2612 H 0.14364 0.53394 0.97508
 C2613 C 0.15866 0.41859 0.49755
 C2614 C 0.17794 0.43098 0.50802
 C2615 C 0.20049 0.42116 0.50814
 C2616 C 0.20441 0.39904 0.49782
 C2617 C 0.18524 0.38682 0.48749
 C2618 C 0.16272 0.39642 0.48726
 C2619 C 0.13480 0.42963 0.49805
 C2620 C 0.11441 0.41870 0.48836
 C2621 C 0.09259 0.42969 0.48936
 C2622 C 0.09044 0.45191 0.49997
 C2623 C 0.11067 0.46293 0.50968
 C2624 C 0.13268 0.45200 0.50884
 C2625 C 0.17462 0.45304 0.51846
 C2626 C 0.15251 0.46334 0.51882
 H2627 H 0.18938 0.46253 0.52649
 H2628 H 0.15090 0.48045 0.52711
 H2629 H 0.21486 0.43062 0.51685
 H2630 H 0.18754 0.36978 0.47938
 H2631 H 0.07736 0.42070 0.48170
 H2632 H 0.10934 0.48006 0.51802
 H2633 H 0.14878 0.38614 0.47899
 H2634 H 0.11486 0.40166 0.47996
 C2635 C 0.66082 0.92512 -0.00246
 C2636 C 0.66277 0.90359 -0.01492
 C2637 C 0.68462 0.89226 -0.01601
 C2638 C 0.70467 0.90210 -0.00484
 C2639 C 0.70254 0.92329 0.00770
 C2640 C 0.68102 0.93467 0.00887
 C2641 C 0.63728 0.93675 -0.00176
 C2642 C 0.63369 0.95834 0.00986
 C2643 C 0.61151 0.96852 0.01003
 C2644 C 0.59216 0.95755 -0.00135
 C2645 C 0.59553 0.93599 -0.01302
 C2646 C 0.61789 0.92560 -0.01336
 C2647 C 0.64290 0.89351 -0.02612
 C2648 C 0.62095 0.90423 -0.02530
 H2649 H 0.64433 0.87702 -0.03564
 H2650 H 0.60614 0.89567 -0.03423
 H2651 H 0.68606 0.87591 -0.02577
 H2652 H 0.71749 0.93097 0.01713
 H2653 H 0.60958 0.98513 0.01920
 H2654 H 0.58080 0.92730 -0.02196
 H2655 H 0.68064 0.95081 0.01890
 H2656 H 0.64774 0.96778 0.01890
 C2657 C -0.00049 0.83722 0.91846
 C2658 C -0.00626 0.81722 0.93216
 C2659 C -0.00539 0.79459 0.92209
 C2660 C 0.00140 0.79149 0.89843
 C2661 C 0.00680 0.81154 0.88496
 C2662 C 0.00602 0.83397 0.89475
 C2663 C -0.00168 0.86103 0.92976
 C2664 C 0.00381 0.88191 0.91756
 C2665 C 0.00302 0.90362 0.92893
 C2666 C -0.00332 0.90524 0.95279
 C2667 C -0.00931 0.88458 0.96503
 C2668 C -0.00845 0.86255 0.95373
 C2669 C -0.01303 0.81992 0.95577
 C2670 C -0.01408 0.84209 0.96633
 H2671 H -0.01753 0.80464 0.96630
 H2672 H -0.01930 0.84322 0.98468
 H2673 H -0.01056 0.77972 0.93276
 H2674 H 0.01146 0.80981 0.86651
 H2675 H 0.00759 0.91922 0.91894
 H2676 H -0.01422 0.88555 0.98348
 H2677 H 0.01043 0.84845 0.88331
 H2678 H 0.00896 0.88197 0.89927
 C2679 C 0.50186 0.34135 0.41957
 C2680 C 0.49521 0.32144 0.43304
 C2681 C 0.49559 0.29884 0.42287
 C2682 C 0.50269 0.29568 0.39931
 C2683 C 0.50906 0.31562 0.38610
 C2684 C 0.50884 0.33802 0.39602
 C2685 C 0.50081 0.36517 0.43086
 C2686 C 0.50700 0.38598 0.41883
 C2687 C 0.50581 0.40776 0.43006
 C2688 C 0.49843 0.40949 0.45360
 C2689 C 0.49206 0.38886 0.46572
 C2690 C 0.49322 0.36680 0.45456
 C2691 C 0.48788 0.32424 0.45646
 C2692 C 0.48692 0.34643 0.46699
 H2693 H 0.48275 0.30904 0.46682
 H2694 H 0.48112 0.34765 0.48515
 H2695 H 0.48966 0.28405 0.43328
 H2696 H 0.51392 0.31388 0.36771
 H2697 H 0.51084 0.42331 0.42020
 H2698 H 0.48636 0.38990 0.48393
 H2699 H 0.51391 0.35243 0.38475
 H2700 H 0.51290 0.38595 0.40078
 C2701 C 0.00758 0.33668 0.57644
 C2702 C 0.00185 0.33521 0.60065
 C2703 C 0.00106 0.31332 0.61185
 C2704 C 0.00546 0.29244 0.59933
 C2705 C 0.01180 0.29407 0.57542
 C2706 C 0.01280 0.31583 0.56413
 C2707 C 0.00762 0.36037 0.56498
 C2708 C 0.01287 0.36374 0.54093
 C2709 C 0.01215 0.38609 0.53097
 C2710 C 0.00613 0.40570 0.54466
 C2711 C 0.00113 0.40258 0.56870
 C2712 C 0.00183 0.38018 0.57890
 C2713 C -0.00334 0.35552 0.61354
 C2714 C -0.00338 0.37753 0.60289
 H2715 H -0.00766 0.35436 0.63213
 H2716 H -0.00771 0.39270 0.61358
 H2717 H -0.00337 0.31239 0.63044
 H2718 H 0.01617 0.27881 0.56510
 H2719 H 0.01613 0.38793 0.51237
 H2720 H -0.00340 0.41758 0.57954
 H2721 H 0.01762 0.31586 0.54575
 H2722 H 0.01746 0.34939 0.52943
 C2723 C 0.50666 0.84093 0.07309
 C2724 C 0.50501 0.84035 0.09800
 C2725 C 0.50379 0.81881 0.10975
 C2726 C 0.50364 0.79739 0.09726
 C2727 C 0.50554 0.79799 0.07251
 C2728 C 0.50703 0.81944 0.06060
 C2729 C 0.50746 0.86444 0.06121
 C2730 C 0.50947 0.86710 0.03654
 C2731 C 0.50937 0.88943 0.02634
 C2732 C 0.50716 0.90960 0.04046
 C2733 C 0.50570 0.90713 0.06505
 C2734 C 0.50593 0.88487 0.07548
 C2735 C 0.50420 0.86125 0.11111
 C2736 C 0.50450 0.88304 0.10007
 H2737 H 0.50296 0.86074 0.13021
 H2738 H 0.50350 0.89871 0.11098
 H2739 H 0.50254 0.81862 0.12888
 H2740 H 0.50588 0.78215 0.06200
 H2741 H 0.51062 0.89085 0.00731
 H2742 H 0.50435 0.92262 0.07619
 H2743 H 0.50825 0.81877 0.04160
 H2744 H 0.51101 0.85223 0.02480
 C2745 C 0.48987 0.66282 0.08206
 C2746 C 0.50281 0.66608 0.10337
 C2747 C 0.50451 0.68853 0.11395
 C2748 C 0.49382 0.70791 0.10328
 C2749 C 0.48023 0.70435 0.08272
 C2750 C 0.47820 0.68219 0.07227
 C2751 C 0.48959 0.63900 0.07054
 C2752 C 0.47804 0.63435 0.04885
 C2753 C 0.47911 0.61223 0.03826
 C2754 C 0.49163 0.59398 0.04894
 C2755 C 0.50282 0.59827 0.07085
 C2756 C 0.50202 0.62063 0.08160
 C2757 C 0.51437 0.64705 0.11367
 C2758 C 0.51393 0.62481 0.10306
 H2759 H 0.52417 0.64944 0.13005
 H2760 H 0.52339 0.61076 0.11162
 H2761 H 0.51486 0.69104 0.12996
 H2762 H 0.47114 0.71885 0.07454
 H2763 H 0.47011 0.60950 0.02148
 H2764 H 0.51257 0.58437 0.07934
 H2765 H 0.46764 0.68078 0.05639
 H2766 H 0.46829 0.64756 0.03953
 C2767 C -0.00331 0.15742 0.57948
 C2768 C 0.00763 0.16010 0.60194
 C2769 C 0.00950 0.18250 0.61260
 C2770 C 0.00099 0.20243 0.60097
 C2771 C -0.01020 0.19955 0.57891
 C2772 C -0.01232 0.17747 0.56830
 C2773 C -0.00456 0.13339 0.56845
 C2774 C -0.01501 0.12905 0.54616
 C2775 C -0.01507 0.10660 0.53620
 C2776 C -0.00477 0.08770 0.54811
 C2777 C 0.00524 0.09171 0.57063
 C2778 C 0.00546 0.11436 0.58081
 C2779 C 0.01685 0.14047 0.61346
 C2780 C 0.01583 0.11813 0.60311
 H2781 H 0.02519 0.14245 0.63068
 H2782 H 0.02343 0.10358 0.61267
 H2783 H 0.01798 0.18442 0.62973
 H2784 H -0.01769 0.21442 0.56982
 H2785 H -0.02313 0.10414 0.51893
 H2786 H 0.01321 0.07731 0.58011
 H2787 H -0.02105 0.17660 0.55133
 H2788 H -0.02311 0.14271 0.53594
 C2789 C 0.50037 0.15942 0.41812
 C2790 C 0.51106 0.17880 0.43002
 C2791 C 0.50982 0.20145 0.42033
 C2792 C 0.49777 0.20535 0.39891
 C2793 C 0.48703 0.18612 0.38727
 C2794 C 0.48824 0.16349 0.39669
 C2795 C 0.50234 0.13546 0.42899
 C2796 C 0.49288 0.11496 0.41827
 C2797 C 0.49470 0.09317 0.42931
 C2798 C 0.50598 0.09108 0.45139
 C2799 C 0.51592 0.11136 0.46200
 C2800 C 0.51425 0.13340 0.45097
 C2801 C 0.52294 0.17551 0.45154
 C2802 C 0.52437 0.15335 0.46185
 H2803 H 0.53113 0.19036 0.46067
 H2804 H 0.53358 0.15181 0.47861
 H2805 H 0.51873 0.21596 0.42933
 H2806 H 0.47746 0.18852 0.37087
 H2807 H 0.48691 0.07791 0.42056
 H2808 H 0.52482 0.11006 0.47896
 H2809 H 0.47950 0.14950 0.38694
 H2810 H 0.48392 0.11532 0.40140
 C2811 C 0.00255 0.65670 0.92125
 C2812 C -0.01035 0.65943 0.89993
 C2813 C -0.01155 0.68166 0.88913
 C2814 C -0.00018 0.70133 0.89940
 C2815 C 0.01284 0.69843 0.92034
 C2816 C 0.01420 0.67652 0.93114
 C2817 C 0.00312 0.63284 0.93246
 C2818 C 0.01520 0.62848 0.95381
 C2819 C 0.01475 0.60616 0.96389
 C2820 C 0.00233 0.58743 0.95303
 C2821 C -0.00946 0.59148 0.93151
 C2822 C -0.00923 0.61400 0.92125
 C2823 C -0.02205 0.64001 0.88962
 C2824 C -0.02149 0.61780 0.90003
 H2825 H -0.03190 0.64203 0.87328
 H2826 H -0.03094 0.60340 0.89138
 H2827 H -0.02168 0.68371 0.87296
 H2828 H 0.02239 0.71312 0.92832
 H2829 H 0.02414 0.60364 0.98041
 H2830 H -0.01917 0.57723 0.92289
 H2831 H 0.02451 0.67558 0.94717
 H2832 H 0.02498 0.64204 0.96318
 C2833 C 0.23729 0.66540 0.90905
 C2834 C 0.23337 0.67958 0.92927
 C2835 C 0.23487 0.66975 0.95205
 C2836 C 0.24051 0.64603 0.95478
 C2837 C 0.24263 0.63173 0.93470
 C2838 C 0.24092 0.64119 0.91213
 C2839 C 0.23820 0.67691 0.88529
 C2840 C 0.24435 0.66471 0.86454
 C2841 C 0.24618 0.67640 0.84301
 C2842 C 0.24178 0.70053 0.84145
 C2843 C 0.23531 0.71281 0.86198
 C2844 C 0.23384 0.70128 0.88386
 C2845 C 0.22879 0.70355 0.92661
 C2846 C 0.22875 0.71411 0.90437
 H2847 H 0.22550 0.71441 0.94199
 H2848 H 0.22534 0.73277 0.90329
 H2849 H 0.23303 0.68078 0.96759
 H2850 H 0.24643 0.61321 0.93652
 H2851 H 0.25107 0.66643 0.82750
 H2852 H 0.23201 0.73151 0.86108
 H2853 H 0.24308 0.62931 0.89744
 H2854 H 0.24825 0.64623 0.86455
 C2855 C 0.74501 0.17376 0.41207
 C2856 C 0.75948 0.15395 0.41444
 C2857 C 0.76273 0.14354 0.43652
 C2858 C 0.75189 0.15219 0.45713
 C2859 C 0.73646 0.17117 0.45454
 C2860 C 0.73326 0.18198 0.43239
 C2861 C 0.74306 0.18484 0.38795
 C2862 C 0.73019 0.20536 0.38347
 C2863 C 0.72975 0.21531 0.36083
 C2864 C 0.74202 0.20503 0.34199
 C2865 C 0.75447 0.18437 0.34625
 C2866 C 0.75524 0.17441 0.36889
 C2867 C 0.77078 0.14439 0.39478
 C2868 C 0.76860 0.15430 0.37251
 H2869 H 0.78168 0.12902 0.39666
 H2870 H 0.77787 0.14629 0.35794
 H2871 H 0.77322 0.12783 0.43712
 H2872 H 0.72756 0.17841 0.46969
 H2873 H 0.71990 0.23124 0.35815
 H2874 H 0.76408 0.17619 0.33200
 H2875 H 0.72164 0.19679 0.43153
 H2876 H 0.72067 0.21413 0.39730
 C2877 C 0.24488 0.32026 0.41619
 C2878 C 0.26193 0.31316 0.43298
 C2879 C 0.26235 0.32328 0.45565
 C2880 C 0.24579 0.34018 0.46196
 C2881 C 0.22771 0.34567 0.44608
 C2882 C 0.22715 0.33578 0.42344
 C2883 C 0.24695 0.31150 0.39129
 C2884 C 0.23295 0.32002 0.37265
 C2885 C 0.23590 0.31182 0.34963
 C2886 C 0.25272 0.29473 0.34451
 C2887 C 0.26697 0.28629 0.36291
 C2888 C 0.26451 0.29486 0.38610
 C2889 C 0.27891 0.29666 0.42677
 C2890 C 0.27987 0.28736 0.40395
 H2891 H 0.29176 0.29097 0.43972
 H2892 H 0.29335 0.27467 0.40002
 H2893 H 0.27632 0.31898 0.46802
 H2894 H 0.21500 0.35890 0.45053
 H2895 H 0.22458 0.31861 0.33584
 H2896 H 0.28020 0.27327 0.35914
 H2897 H 0.21317 0.34108 0.41169
 H2898 H 0.21981 0.33322 0.37540
 C2899 C 0.74553 0.81723 0.91386
 C2900 C 0.73060 0.83676 0.91682
 C2901 C 0.72885 0.84772 0.93903
 C2902 C 0.74231 0.83986 0.95815
 C2903 C 0.75588 0.81970 0.95565
 C2904 C 0.75728 0.80828 0.93385
 C2905 C 0.74913 0.80780 0.88936
 C2906 C 0.76456 0.78927 0.88433
 C2907 C 0.76767 0.78146 0.86114
 C2908 C 0.75562 0.79196 0.84230
 C2909 C 0.74039 0.81060 0.84713
 C2910 C 0.73704 0.81851 0.87038
 C2911 C 0.71865 0.84610 0.89736
 C2912 C 0.72175 0.83713 0.87465
 H2913 H 0.70712 0.86094 0.89963
 H2914 H 0.71236 0.84521 0.86012
 H2915 H 0.71875 0.86364 0.94092
 H2916 H 0.76663 0.81369 0.97028
 H2917 H 0.77944 0.76699 0.85801
 H2918 H 0.73074 0.81875 0.83281
 H2919 H 0.76855 0.79324 0.93284
 H2920 H 0.77438 0.78051 0.89799
 C2921 C 0.72849 0.82863 0.08656
 C2922 C 0.73094 0.81442 0.06611
 C2923 C 0.73396 0.82500 0.04385
 C2924 C 0.73494 0.84953 0.04194
 C2925 C 0.73087 0.86348 0.06186
 C2926 C 0.72743 0.85322 0.08389
 C2927 C 0.72861 0.81699 0.11027
 C2928 C 0.72882 0.82985 0.13161
 C2929 C 0.73145 0.81852 0.15320
 C2930 C 0.73358 0.79402 0.15424
 C2931 C 0.73220 0.78083 0.13323
 C2932 C 0.73021 0.79218 0.11124
 C2933 C 0.73152 0.78990 0.06820
 C2934 C 0.73095 0.77900 0.09027
 H2935 H 0.73306 0.77897 0.05256
 H2936 H 0.73202 0.76001 0.09094
 H2937 H 0.73718 0.81426 0.02836
 H2938 H 0.73143 0.88249 0.06051
 H2939 H 0.73212 0.82906 0.16920
 H2940 H 0.73394 0.76189 0.13389
 H2941 H 0.72487 0.86494 0.09863
 H2942 H 0.72772 0.84875 0.13208
 C2943 C 0.22710 0.32725 0.59054
 C2944 C 0.23057 0.31323 0.57012
 C2945 C 0.23458 0.32399 0.54812
 C2946 C 0.23574 0.34853 0.54645
 C2947 C 0.23093 0.36232 0.56630
 C2948 C 0.22642 0.35188 0.58804
 C2949 C 0.22595 0.31539 0.61412
 C2950 C 0.22460 0.32804 0.63552
 C2951 C 0.22649 0.31659 0.65712
 C2952 C 0.22937 0.29218 0.65810
 C2953 C 0.22919 0.27913 0.63697
 C2954 C 0.22792 0.29061 0.61500
 C2955 C 0.23120 0.28869 0.57206
 C2956 C 0.22981 0.27762 0.59400
 H2957 H 0.23354 0.27790 0.55644
 H2958 H 0.23110 0.25864 0.59460
 H2959 H 0.23838 0.31337 0.53268
 H2960 H 0.23159 0.38134 0.56514
 H2961 H 0.22620 0.32700 0.67321
 H2962 H 0.23147 0.26025 0.63758
 H2963 H 0.22333 0.36350 0.60275
 H2964 H 0.22288 0.34688 0.63607
 C2965 C 0.74157 0.17423 0.58590
 C2966 C 0.74361 0.14953 0.58501
 C2967 C 0.74509 0.13800 0.56323
 C2968 C 0.74408 0.15039 0.54180
 C2969 C 0.73896 0.17444 0.54250
 C2970 C 0.73811 0.18638 0.56438
 C2971 C 0.74369 0.18608 0.60974
 C2972 C 0.74561 0.21068 0.61273
 C2973 C 0.74862 0.22064 0.63533
 C2974 C 0.74941 0.20636 0.65553
 C2975 C 0.74753 0.18191 0.65267
 C2976 C 0.74522 0.17173 0.63011
 C2977 C 0.74496 0.13639 0.60582
 C2978 C 0.74523 0.14722 0.62790
 H2979 H 0.74607 0.11739 0.60504
 H2980 H 0.74640 0.13625 0.64346
 H2981 H 0.74775 0.11914 0.56295
 H2982 H 0.73778 0.18440 0.52628
 H2983 H 0.74995 0.23959 0.63705
 H2984 H 0.74845 0.17066 0.66807
 H2985 H 0.73541 0.20512 0.56415
 H2986 H 0.74519 0.22239 0.59778
 C2987 C 0.24160 0.68667 0.08216
 C2988 C 0.22575 0.66745 0.07837
 C2989 C 0.22541 0.65542 0.05659
 C2990 C 0.24123 0.66181 0.03880
 C2991 C 0.25588 0.68163 0.04199
 C2992 C 0.25590 0.69415 0.06327
 C2993 C 0.24357 0.69711 0.10656
 C2994 C 0.25955 0.71552 0.11251
 C2995 C 0.26163 0.72371 0.13579
 C2996 C 0.24792 0.71375 0.15381
 C2997 C 0.23166 0.69568 0.14795
 C2998 C 0.22939 0.68736 0.12462
 C2999 C 0.21148 0.65936 0.09680
 C3000 C 0.21327 0.66909 0.11941
 H3001 H 0.19924 0.64478 0.09388
 H3002 H 0.20222 0.66180 0.13319
 H3003 H 0.21448 0.63973 0.05431
 H3004 H 0.26846 0.68651 0.02848
 H3005 H 0.27418 0.73778 0.13970
 H3006 H 0.22067 0.68802 0.16158
 H3007 H 0.26811 0.70880 0.06495
 H3008 H 0.27075 0.72373 0.09953
 C3009 C 0.18813 0.58055 0.74377
 C3010 C 0.16800 0.57632 0.72926
 C3011 C 0.15629 0.55433 0.72978
 C3012 C 0.16394 0.53672 0.74511
 C3013 C 0.18450 0.54043 0.75852
 C3014 C 0.19669 0.56195 0.75766
 C3015 C 0.19840 0.60507 0.74487
 C3016 C 0.21773 0.61136 0.75953
 C3017 C 0.22573 0.63468 0.76105
 C3018 C 0.21476 0.65247 0.74804
 C3019 C 0.19579 0.64628 0.73299
 C3020 C 0.18758 0.62284 0.73133
 C3021 C 0.15880 0.59447 0.71551
 C3022 C 0.16835 0.61721 0.71653
 H3023 H 0.14349 0.59121 0.70429
 H3024 H 0.16020 0.63074 0.70596
 H3025 H 0.13998 0.55166 0.71990
 H3026 H 0.19033 0.52711 0.77078
 H3027 H 0.24048 0.63879 0.77272
 H3028 H 0.18728 0.65974 0.72262
 H3029 H 0.21202 0.56399 0.76891
 H3030 H 0.22680 0.59864 0.77016
 C3031 C 0.68891 0.08104 0.24334
 C3032 C 0.68937 0.06824 0.26464
 C3033 C 0.67739 0.04660 0.26611
 C3034 C 0.66514 0.03696 0.24649
 C3035 C 0.66772 0.04803 0.22450
 C3036 C 0.67913 0.07007 0.22299
 C3037 C 0.69829 0.10589 0.24375
 C3038 C 0.69461 0.12174 0.22507
 C3039 C 0.70216 0.14522 0.22705
 C3040 C 0.71402 0.15332 0.24746
 C3041 C 0.71812 0.13760 0.26598
 C3042 C 0.70973 0.11427 0.26459
 C3043 C 0.70112 0.07741 0.28460
 C3044 C 0.71164 0.09971 0.28436
 H3045 H 0.70196 0.06729 0.30077
 H3046 H 0.72036 0.10609 0.30032
 H3047 H 0.67707 0.03749 0.28291
 H3048 H 0.65918 0.04093 0.20885
 H3049 H 0.69884 0.15707 0.21251
 H3050 H 0.72691 0.14386 0.28197
 H3051 H 0.67956 0.07855 0.20597
 H3052 H 0.68532 0.11647 0.20913
 C3053 C 0.82694 0.08852 0.73787
 C3054 C 0.84895 0.08757 0.74971
 C3055 C 0.86012 0.06607 0.75279
 C3056 C 0.85016 0.04491 0.74405
 C3057 C 0.82908 0.04607 0.73081
 C3058 C 0.81747 0.06753 0.72799
 C3059 C 0.81484 0.11186 0.73672
 C3060 C 0.79196 0.11480 0.72726
 C3061 C 0.78115 0.13684 0.72790
 C3062 C 0.79296 0.15647 0.73783
 C3063 C 0.81596 0.15370 0.74663
 C3064 C 0.82672 0.13177 0.74648
 C3065 C 0.85982 0.10804 0.75863
 C3066 C 0.84907 0.12970 0.75681
 H3067 H 0.87687 0.10729 0.76737
 H3068 H 0.85815 0.14500 0.76421
 H3069 H 0.87714 0.06614 0.76162
 H3070 H 0.82070 0.03031 0.72370
 H3071 H 0.76341 0.13841 0.72092
 H3072 H 0.82545 0.16860 0.75436
 H3073 H 0.80101 0.06732 0.71828
 H3074 H 0.78199 0.10020 0.71979
 C3075 C 0.32250 0.59099 0.23114
 C3076 C 0.34730 0.59108 0.23436
 C3077 C 0.35904 0.57000 0.23837
 C3078 C 0.34656 0.54860 0.23944
 C3079 C 0.32229 0.54812 0.23477
 C3080 C 0.31030 0.56911 0.23069
 C3081 C 0.31040 0.61428 0.22961
 C3082 C 0.28568 0.61648 0.22793
 C3083 C 0.27528 0.63864 0.22893
 C3084 C 0.28925 0.65908 0.23166
 C3085 C 0.31387 0.65710 0.23199
 C3086 C 0.32447 0.63505 0.23118
 C3087 C 0.36020 0.61226 0.23456
 C3088 C 0.34904 0.63377 0.23293
 H3089 H 0.37921 0.61224 0.23670
 H3090 H 0.35978 0.64971 0.23382
 H3091 H 0.37793 0.57029 0.24159
 H3092 H 0.31245 0.53166 0.23541
 H3093 H 0.25623 0.63971 0.22851
 H3094 H 0.32490 0.67279 0.23368
 H3095 H 0.29148 0.56791 0.22792
 H3096 H 0.27409 0.60130 0.22652
 C3097 C 0.31660 0.41970 0.24987
 C3098 C 0.33510 0.42403 0.23367
 C3099 C 0.34573 0.44649 0.23237
 C3100 C 0.33866 0.46453 0.24751
 C3101 C 0.31971 0.46060 0.26275
 C3102 C 0.30857 0.43856 0.26375
 C3103 C 0.30724 0.39498 0.25233
 C3104 C 0.28931 0.38868 0.26834
 C3105 C 0.28149 0.36534 0.27024
 C3106 C 0.29140 0.34759 0.25638
 C3107 C 0.30940 0.35367 0.24051
 C3108 C 0.31726 0.37711 0.23830
 C3109 C 0.34373 0.40566 0.21984
 C3110 C 0.33503 0.38271 0.22212
 H3111 H 0.35782 0.40896 0.20740
 H3112 H 0.34257 0.36907 0.21124
 H3113 H 0.36082 0.44941 0.22103
 H3114 H 0.31436 0.47432 0.27483
 H3115 H 0.26750 0.36123 0.28253
 H3116 H 0.31701 0.34021 0.22943
 H3117 H 0.29447 0.43645 0.27625
 H3118 H 0.28099 0.40146 0.27949
 C3119 C 0.81800 0.91602 0.74288
 C3120 C 0.80968 0.93274 0.75929
 C3121 C 0.81945 0.95558 0.75979
 C3122 C 0.83731 0.96206 0.74402
 C3123 C 0.84389 0.94629 0.72632
 C3124 C 0.83426 0.92351 0.72562
 C3125 C 0.80986 0.89093 0.74530
 C3126 C 0.81954 0.87242 0.73212
 C3127 C 0.81184 0.84924 0.73545
 C3128 C 0.79415 0.84384 0.75186
 C3129 C 0.78464 0.86212 0.76534
 C3130 C 0.79262 0.88546 0.76248
 C3131 C 0.79253 0.92625 0.77580
 C3132 C 0.78385 0.90321 0.77706
 H3133 H 0.78591 0.93914 0.78815
 H3134 H 0.77066 0.89906 0.79022
 H3135 H 0.81448 0.96779 0.77359
 H3136 H 0.85796 0.95086 0.71430
 H3137 H 0.81945 0.83556 0.72469
 H3138 H 0.77112 0.85818 0.77824
 H3139 H 0.84053 0.91178 0.71211
 H3140 H 0.83322 0.87543 0.71930
 C3141 C 0.67422 0.91181 0.23109
 C3142 C 0.64994 0.91237 0.23658
 C3143 C 0.63875 0.93393 0.23945
 C3144 C 0.65141 0.95524 0.23766
 C3145 C 0.67505 0.95488 0.23083
 C3146 C 0.68640 0.93340 0.22754
 C3147 C 0.68597 0.88830 0.23056
 C3148 C 0.71019 0.88565 0.22608
 C3149 C 0.72056 0.86355 0.22748
 C3150 C 0.70713 0.84350 0.23348
 C3151 C 0.68285 0.84584 0.23713
 C3152 C 0.67224 0.86793 0.23571
 C3153 C 0.63715 0.89146 0.24032
 C3154 C 0.64807 0.86974 0.23995
 H3155 H 0.61851 0.89196 0.24430
 H3156 H 0.63750 0.85413 0.24358
 H3157 H 0.62027 0.93416 0.24425
 H3158 H 0.68509 0.97117 0.22930
 H3159 H 0.73932 0.86229 0.22439
 H3160 H 0.67218 0.83047 0.24140
 H3161 H 0.70484 0.93408 0.22307
 H3162 H 0.72149 0.90044 0.22182
 C3163 C 0.16664 0.40647 0.74126
 C3164 C 0.18061 0.42668 0.73607
 C3165 C 0.17116 0.44933 0.73862
 C3166 C 0.14806 0.45203 0.74667
 C3167 C 0.13394 0.43195 0.75051
 C3168 C 0.14300 0.40951 0.74779
 C3169 C 0.17783 0.38276 0.74031
 C3170 C 0.16584 0.36185 0.74674
 C3171 C 0.17741 0.34039 0.74697
 C3172 C 0.20120 0.33904 0.74065
 C3173 C 0.21314 0.35969 0.73355
 C3174 C 0.20175 0.38148 0.73361
 C3175 C 0.20405 0.42413 0.72902
 C3176 C 0.21434 0.40202 0.72768
 H3177 H 0.21473 0.43950 0.72482
 H3178 H 0.23264 0.40106 0.72245
 H3179 H 0.18208 0.46480 0.73544
 H3180 H 0.11581 0.43362 0.75606
 H3181 H 0.16766 0.32480 0.75235
 H3182 H 0.23156 0.35898 0.72867
 H3183 H 0.13126 0.39486 0.75131
 H3184 H 0.14765 0.36167 0.75210
 C3185 C 0.08850 0.72941 0.82330
 C3186 C 0.08811 0.73257 0.84814
 C3187 C 0.06666 0.73542 0.85978
 C3188 C 0.04536 0.73553 0.84713
 C3189 C 0.04539 0.73096 0.82281
 C3190 C 0.06676 0.72793 0.81094
 C3191 C 0.11210 0.72901 0.81135
 C3192 C 0.11477 0.72721 0.78662
 C3193 C 0.13717 0.72883 0.77637
 C3194 C 0.15737 0.73236 0.79051
 C3195 C 0.15491 0.73314 0.81515
 C3196 C 0.13264 0.73161 0.82559
 C3197 C 0.10913 0.73392 0.86121
 C3198 C 0.13092 0.73342 0.85018
 H3199 H 0.10875 0.73606 0.88025
 H3200 H 0.14669 0.73513 0.86105
 H3201 H 0.06657 0.73867 0.87869
 H3202 H 0.02902 0.73095 0.81282
 H3203 H 0.13859 0.72802 0.75731
 H3204 H 0.17041 0.73544 0.82633
 H3205 H 0.06594 0.72521 0.79207
 H3206 H 0.09979 0.72505 0.77490
 C3207 C 0.58612 0.23075 0.32260
 C3208 C 0.58599 0.23339 0.34751
 C3209 C 0.56478 0.23703 0.35931
 C3210 C 0.54350 0.23851 0.34676
 C3211 C 0.54320 0.23443 0.32236
 C3212 C 0.56431 0.23058 0.31032
 C3213 C 0.60959 0.22965 0.31050
 C3214 C 0.61204 0.22830 0.28571
 C3215 C 0.63438 0.22958 0.27534
 C3216 C 0.65472 0.23232 0.28942
 C3217 C 0.65249 0.23244 0.31408
 C3218 C 0.63028 0.23124 0.32465
 C3219 C 0.60709 0.23354 0.36047
 C3220 C 0.62877 0.23248 0.34929
 H3221 H 0.60689 0.23527 0.37956
 H3222 H 0.64464 0.23337 0.36008
 H3223 H 0.56490 0.23989 0.37829
 H3224 H 0.52682 0.23545 0.31247
 H3225 H 0.63567 0.22929 0.25625
 H3226 H 0.66813 0.23410 0.32516
 H3227 H 0.56328 0.22832 0.29140
 H3228 H 0.59694 0.22684 0.27406
 C3229 C 0.58426 0.74566 0.18150
 C3230 C 0.56883 0.76407 0.18731
 C3231 C 0.54659 0.76517 0.17635
 C3232 C 0.53938 0.74807 0.15977
 C3233 C 0.55373 0.72877 0.15556
 C3234 C 0.57593 0.72747 0.16637
 C3235 C 0.60907 0.74699 0.19091
 C3236 C 0.62665 0.73139 0.18368
 C3237 C 0.64979 0.73404 0.19197
 C3238 C 0.65605 0.75212 0.20791
 C3239 C 0.63865 0.76769 0.21539
 C3240 C 0.61540 0.76554 0.20667
 C3241 C 0.57605 0.78178 0.20321
 C3242 C 0.59871 0.78227 0.21299
 H3243 H 0.56410 0.79568 0.20791
 H3244 H 0.60349 0.79647 0.22504
 H3245 H 0.53543 0.78014 0.17956
 H3246 H 0.54851 0.71558 0.14261
 H3247 H 0.66280 0.72166 0.18600
 H3248 H 0.64332 0.78187 0.22751
 H3249 H 0.58659 0.71257 0.16198
 H3250 H 0.62303 0.71728 0.17132
 C3251 C 0.08271 0.23974 0.68569
 C3252 C 0.06716 0.25809 0.69135
 C3253 C 0.04518 0.25935 0.67988
 C3254 C 0.03835 0.24249 0.66287
 C3255 C 0.05276 0.22317 0.65890
 C3256 C 0.07469 0.22170 0.67023
 C3257 C 0.10737 0.24103 0.69552
 C3258 C 0.12513 0.22557 0.68838
 C3259 C 0.14819 0.22838 0.69683
 C3260 C 0.15421 0.24645 0.71287
 C3261 C 0.13659 0.26175 0.72041
 C3262 C 0.11342 0.25948 0.71149
 C3263 C 0.07407 0.27563 0.70756
 C3264 C 0.09656 0.27608 0.71772
 H3265 H 0.06201 0.28948 0.71218
 H3266 H 0.10112 0.29019 0.72996
 H3267 H 0.03397 0.27431 0.68299
 H3268 H 0.04790 0.21014 0.64567
 H3269 H 0.16138 0.21620 0.69083
 H3270 H 0.14109 0.27593 0.73261
 H3271 H 0.08543 0.20683 0.66595
 H3272 H 0.12172 0.21152 0.67590
 C3273 C 0.90979 0.23460 0.67089
 C3274 C 0.91110 0.24209 0.64713
 C3275 C 0.93303 0.24456 0.63618
 C3276 C 0.95403 0.24030 0.64863
 C3277 C 0.95280 0.23175 0.67174
 C3278 C 0.93094 0.22890 0.68281
 C3279 C 0.88603 0.23404 0.68245
 C3280 C 0.88273 0.22755 0.70619
 C3281 C 0.86050 0.22877 0.71652
 C3282 C 0.84090 0.23652 0.70353
 C3283 C 0.84386 0.24228 0.67964
 C3284 C 0.86614 0.24113 0.66908
 C3285 C 0.89063 0.24792 0.63462
 C3286 C 0.86864 0.24750 0.64537
 H3287 H 0.89168 0.25347 0.61635
 H3288 H 0.85342 0.25269 0.63506
 H3289 H 0.93382 0.25057 0.61804
 H3290 H 0.96881 0.22825 0.68160
 H3291 H 0.85881 0.22402 0.73495
 H3292 H 0.82888 0.24805 0.66929
 H3293 H 0.93104 0.22287 0.70085
 H3294 H 0.89712 0.22180 0.71719
 C3295 C 0.41174 0.75117 0.17901
 C3296 C 0.42329 0.73026 0.17260
 C3297 C 0.44540 0.73155 0.16136
 C3298 C 0.45630 0.75353 0.15721
 C3299 C 0.44588 0.77385 0.16632
 C3300 C 0.42390 0.77276 0.17693
 C3301 C 0.38706 0.74953 0.18792
 C3302 C 0.37274 0.76939 0.19001
 C3303 C 0.34976 0.76718 0.19822
 C3304 C 0.34060 0.74525 0.20496
 C3305 C 0.35447 0.72515 0.20250
 C3306 C 0.37739 0.72709 0.19316
 C3307 C 0.41251 0.70842 0.17738
 C3308 C 0.39040 0.70688 0.18820
 H3309 H 0.42142 0.69229 0.17297
 H3310 H 0.38298 0.68961 0.19189
 H3311 H 0.45354 0.71564 0.15500
 H3312 H 0.45447 0.79090 0.16457
 H3313 H 0.33925 0.78283 0.19987
 H3314 H 0.34718 0.70808 0.20722
 H3315 H 0.41663 0.78902 0.18327
 H3316 H 0.37881 0.78673 0.18497
 C3317 C 0.41330 0.24770 0.32040
 C3318 C 0.43067 0.26410 0.31293
 C3319 C 0.45335 0.26384 0.32302
 C3320 C 0.45913 0.24717 0.34023
 C3321 C 0.44265 0.22961 0.34602
 C3322 C 0.41995 0.22979 0.33619
 C3323 C 0.38848 0.25059 0.31166
 C3324 C 0.36936 0.23740 0.32059
 C3325 C 0.34650 0.24097 0.31224
 C3326 C 0.34199 0.25762 0.29457
 C3327 C 0.36088 0.27118 0.28583
 C3328 C 0.38393 0.26810 0.29456
 C3329 C 0.42507 0.28114 0.29607
 C3330 C 0.40232 0.28278 0.28672
 H3331 H 0.43847 0.29350 0.29009
 H3332 H 0.39890 0.29624 0.27369
 H3333 H 0.46618 0.27741 0.31851
 H3334 H 0.44677 0.21676 0.35943
 H3335 H 0.33235 0.23018 0.31934
 H3336 H 0.35763 0.28427 0.27238
 H3337 H 0.40770 0.21623 0.34174
 H3338 H 0.37163 0.22438 0.33419
 C3339 C 0.91661 0.74451 0.81669
 C3340 C 0.91960 0.72960 0.83646
 C3341 C 0.94189 0.72762 0.84724
 C3342 C 0.96113 0.74081 0.83897
 C3343 C 0.95854 0.75447 0.81864
 C3344 C 0.93663 0.75611 0.80740
 C3345 C 0.89209 0.74820 0.80735
 C3346 C 0.88704 0.76347 0.78846
 C3347 C 0.86386 0.76656 0.78067
 C3348 C 0.84502 0.75465 0.79154
 C3349 C 0.84987 0.73964 0.81058
 C3350 C 0.87311 0.73629 0.81845
 C3351 C 0.90012 0.71785 0.84621
 C3352 C 0.87739 0.72109 0.83737
 H3353 H 0.90240 0.70636 0.86125
 H3354 H 0.86288 0.71183 0.84576
 H3355 H 0.94383 0.71749 0.86332
 H3356 H 0.97321 0.76510 0.81235
 H3357 H 0.86073 0.77815 0.76587
 H3358 H 0.83557 0.73010 0.81903
 H3359 H 0.93557 0.76742 0.79220
 H3360 H 0.90071 0.77314 0.77938
   
