data_POSCAR
  _audit_creation_date              2014-09-24
  _audit_creation_method            'ToBaCCo'
  _symmetry_space_group_name_H-M    'P1'
  _symmetry_Int_Tables_number       1
  _symmetry_cell_setting            triclinic
  loop_
  _symmetry_equiv_pos_as_xyz
 x,y,z
_cell_length_a 86.3756
_cell_length_b 86.3668
_cell_length_c 86.4362
_cell_angle_alpha 89.987500
_cell_angle_beta 89.986800
_cell_angle_gamma 89.967200
loop_
  _atom_site_label
  _atom_site_type_symbol
  _atom_site_fract_x
  _atom_site_fract_y
  _atom_site_fract_z
C1 C 0.35033 0.35019 0.33056
 C2 C 0.36351 0.34341 0.32391
 C3 C 0.37016 0.33001 0.33038
 C4 C 0.36349 0.32352 0.34375
 C5 C 0.35031 0.33017 0.35052
 C6 C 0.34369 0.34355 0.34390
 C7 C 0.34358 0.36341 0.32395
 C8 C 0.33022 0.37010 0.33045
 C9 C 0.32373 0.36343 0.34382
 C10 C 0.33035 0.35021 0.35055
 C11 C 0.32371 0.34345 0.36374
 C12 C 0.33018 0.33005 0.37039
 C13 C 0.34355 0.32354 0.36371
 H14 H 0.36850 0.34854 0.31361
 H15 H 0.36847 0.31319 0.34886
 H16 H 0.34871 0.36840 0.31364
 H17 H 0.31343 0.36843 0.34895
 H18 H 0.31341 0.34860 0.36874
 H19 H 0.34866 0.31321 0.36868
 C20 C 0.35042 0.85039 -0.17003
 C21 C 0.36361 0.84363 -0.17669
 C22 C 0.37036 0.83022 -0.17023
 C23 C 0.36367 0.82380 -0.15678
 C24 C 0.35049 0.83045 -0.15002
 C25 C 0.34382 0.84378 -0.15666
 C26 C 0.34364 0.86358 -0.17668
 C27 C 0.33023 0.87031 -0.17021
 C28 C 0.32382 0.86362 -0.15676
 C29 C 0.33049 0.85044 -0.15001
 C30 C 0.32390 0.84371 -0.13678
 C31 C 0.33041 0.83035 -0.13010
 C32 C 0.34377 0.82385 -0.13679
 H33 H 0.36850 0.84881 -0.18701
 H34 H 0.36862 0.81350 -0.15156
 H35 H 0.34881 0.86848 -0.18700
 H36 H 0.31353 0.86855 -0.15153
 H37 H 0.31360 0.84884 -0.13177
 H38 H 0.34892 0.81355 -0.13179
 C39 C 0.85046 0.35050 -0.16990
 C40 C 0.86367 0.34375 -0.17654
 C41 C 0.87041 0.33034 -0.17008
 C42 C 0.86372 0.32391 -0.15665
 C43 C 0.85052 0.33056 -0.14990
 C44 C 0.84385 0.34389 -0.15655
 C45 C 0.84369 0.36369 -0.17656
 C46 C 0.83026 0.37041 -0.17010
 C47 C 0.82384 0.36371 -0.15667
 C48 C 0.83050 0.35053 -0.14991
 C49 C 0.82390 0.34379 -0.13669
 C50 C 0.83041 0.33043 -0.13001
 C51 C 0.84379 0.32394 -0.13668
 H52 H 0.86857 0.34894 -0.18686
 H53 H 0.86866 0.31362 -0.15143
 H54 H 0.84888 0.36860 -0.18687
 H55 H 0.81353 0.36863 -0.15146
 H56 H 0.81359 0.34891 -0.13170
 H57 H 0.84893 0.31365 -0.13168
 C58 C 0.85011 0.85057 0.33045
 C59 C 0.86332 0.84381 0.32383
 C60 C 0.87001 0.83044 0.33033
 C61 C 0.86336 0.82397 0.34372
 C62 C 0.85015 0.83060 0.35046
 C63 C 0.84349 0.84394 0.34380
 C64 C 0.84334 0.86374 0.32379
 C65 C 0.82991 0.87046 0.33022
 C66 C 0.82346 0.86376 0.34365
 C67 C 0.83013 0.85058 0.35042
 C68 C 0.82351 0.84383 0.36363
 C69 C 0.83002 0.83047 0.37032
 C70 C 0.84341 0.82398 0.36366
 H71 H 0.86830 0.84892 0.31352
 H72 H 0.86836 0.81367 0.34885
 H73 H 0.84854 0.86865 0.31348
 H74 H 0.81315 0.86867 0.34885
 H75 H 0.81319 0.84895 0.36861
 H76 H 0.84855 0.81369 0.36866
 C77 C 0.64959 0.64961 0.33044
 C78 C 0.63640 0.65638 0.32380
 C79 C 0.62972 0.66976 0.33029
 C80 C 0.63637 0.67623 0.34368
 C81 C 0.64956 0.66958 0.35044
 C82 C 0.65621 0.65623 0.34380
 C83 C 0.65636 0.63642 0.32380
 C84 C 0.66974 0.62974 0.33029
 C85 C 0.67621 0.63639 0.34367
 C86 C 0.66956 0.64958 0.35044
 C87 C 0.67618 0.65632 0.36364
 C88 C 0.66967 0.66969 0.37031
 C89 C 0.65630 0.67619 0.36364
 H90 H 0.63143 0.65127 0.31349
 H91 H 0.63137 0.68653 0.34880
 H92 H 0.65125 0.63145 0.31349
 H93 H 0.68651 0.63139 0.34880
 H94 H 0.68648 0.65118 0.36863
 H95 H 0.65117 0.68650 0.36863
 C96 C 0.64982 0.14948 -0.16965
 C97 C 0.63661 0.15623 -0.17627
 C98 C 0.62993 0.16961 -0.16978
 C99 C 0.63660 0.17609 -0.15642
 C100 C 0.64980 0.16946 -0.14968
 C101 C 0.65646 0.15611 -0.15632
 C102 C 0.65658 0.13628 -0.17629
 C103 C 0.67002 0.12957 -0.16986
 C104 C 0.67647 0.13629 -0.15645
 C105 C 0.66981 0.14948 -0.14970
 C106 C 0.67644 0.15624 -0.13651
 C107 C 0.66994 0.16962 -0.12984
 C108 C 0.65656 0.17610 -0.13649
 H109 H 0.63162 0.15111 -0.18657
 H110 H 0.63160 0.18640 -0.15129
 H111 H 0.65137 0.13137 -0.18659
 H112 H 0.68678 0.13137 -0.15125
 H113 H 0.68676 0.15112 -0.13153
 H114 H 0.65142 0.18641 -0.13150
 C115 C 0.14996 0.64952 -0.16973
 C116 C 0.13676 0.65628 -0.17635
 C117 C 0.13008 0.66965 -0.16986
 C118 C 0.13674 0.67614 -0.15649
 C119 C 0.14994 0.66950 -0.14975
 C120 C 0.15659 0.65615 -0.15639
 C121 C 0.15672 0.63632 -0.17637
 C122 C 0.17015 0.62960 -0.16992
 C123 C 0.17660 0.63632 -0.15651
 C124 C 0.16995 0.64951 -0.14976
 C125 C 0.17657 0.65627 -0.13657
 C126 C 0.17007 0.66964 -0.12990
 C127 C 0.15669 0.67613 -0.13656
 H128 H 0.13177 0.65116 -0.18665
 H129 H 0.13174 0.68644 -0.15137
 H130 H 0.15152 0.63141 -0.18667
 H131 H 0.18691 0.63140 -0.15131
 H132 H 0.18688 0.65114 -0.13158
 H133 H 0.15155 0.68644 -0.13157
 C134 C 0.14969 0.14969 0.33011
 C135 C 0.13651 0.15646 0.32346
 C136 C 0.12975 0.16986 0.32993
 C137 C 0.13641 0.17626 0.34339
 C138 C 0.14959 0.16960 0.35015
 C139 C 0.15627 0.15628 0.34349
 C140 C 0.15648 0.13652 0.32346
 C141 C 0.16988 0.12977 0.32993
 C142 C 0.17628 0.13645 0.34338
 C143 C 0.16960 0.14961 0.35015
 C144 C 0.17617 0.15632 0.36339
 C145 C 0.16965 0.16967 0.37008
 C146 C 0.15629 0.17618 0.36339
 H147 H 0.13163 0.15129 0.31312
 H148 H 0.13146 0.18655 0.34861
 H149 H 0.15132 0.13163 0.31312
 H150 H 0.18657 0.13151 0.34861
 H151 H 0.18647 0.15118 0.36840
 H152 H 0.15114 0.18647 0.36840
 C153 C 0.64957 0.35047 0.66938
 C154 C 0.63637 0.34372 0.67601
 C155 C 0.62968 0.33036 0.66950
 C156 C 0.63633 0.32390 0.65611
 C157 C 0.64953 0.33053 0.64935
 C158 C 0.65619 0.34385 0.65601
 C159 C 0.65635 0.36364 0.67604
 C160 C 0.66973 0.37030 0.66955
 C161 C 0.67620 0.36366 0.65616
 C162 C 0.66954 0.35049 0.64938
 C163 C 0.67616 0.34375 0.63617
 C164 C 0.66965 0.33040 0.62948
 C165 C 0.65627 0.32392 0.63614
 H166 H 0.63140 0.34882 0.68633
 H167 H 0.63132 0.31361 0.65097
 H168 H 0.65124 0.36861 0.68636
 H169 H 0.68651 0.36864 0.65104
 H170 H 0.68647 0.34887 0.63119
 H171 H 0.65113 0.31363 0.63114
 C172 C 0.64941 0.85016 1.16974
 C173 C 0.63622 0.84342 1.17639
 C174 C 0.62948 0.83001 1.16995
 C175 C 0.63618 0.82356 1.15652
 C176 C 0.64938 0.83019 1.14976
 C177 C 0.65603 0.84352 1.15639
 C178 C 0.65618 0.86335 1.17636
 C179 C 0.66956 0.87001 1.16987
 C180 C 0.67603 0.86334 1.15649
 C181 C 0.66938 0.85015 1.14974
 C182 C 0.67600 0.84340 1.13654
 C183 C 0.66950 0.83003 1.12988
 C184 C 0.65612 0.82356 1.13656
 H185 H 0.63131 0.84863 1.18670
 H186 H 0.63125 0.81326 1.15132
 H187 H 0.65107 0.86834 1.18667
 H188 H 0.68634 0.86832 1.15136
 H189 H 0.68631 0.84851 1.13155
 H190 H 0.65099 0.81325 1.13158
 C191 C 0.14956 0.35012 1.16991
 C192 C 0.13640 0.34334 1.17657
 C193 C 0.12970 0.32990 1.17014
 C194 C 0.13642 0.32346 1.15671
 C195 C 0.14958 0.33014 1.14994
 C196 C 0.15619 0.34350 1.15655
 C197 C 0.15630 0.36334 1.17652
 C198 C 0.16964 0.37004 1.17001
 C199 C 0.17612 0.36339 1.15663
 C200 C 0.16952 0.35018 1.14989
 C201 C 0.17615 0.34344 1.13669
 C202 C 0.16969 0.33005 1.13004
 C203 C 0.15634 0.32353 1.13673
 H204 H 0.13148 0.34853 1.18688
 H205 H 0.13152 0.31315 1.15151
 H206 H 0.15118 0.36832 1.18683
 H207 H 0.18641 0.36840 1.15148
 H208 H 0.18643 0.34859 1.13168
 H209 H 0.15124 0.31321 1.13175
 C210 C 0.14930 0.85019 0.66974
 C211 C 0.13613 0.84342 0.67640
 C212 C 0.12940 0.83001 0.66993
 C213 C 0.13609 0.82360 0.65648
 C214 C 0.14927 0.83026 0.64972
 C215 C 0.15591 0.84359 0.65636
 C216 C 0.15607 0.86338 0.67638
 C217 C 0.16943 0.87007 0.66987
 C218 C 0.17588 0.86344 0.65647
 C219 C 0.16924 0.85026 0.64970
 C220 C 0.17585 0.84354 0.63648
 C221 C 0.16936 0.83018 0.62980
 C222 C 0.15600 0.82367 0.63649
 H223 H 0.13123 0.84860 0.68672
 H224 H 0.13117 0.81330 0.65127
 H225 H 0.15097 0.86834 0.68671
 H226 H 0.18618 0.86844 0.65133
 H227 H 0.18614 0.84868 0.63148
 H228 H 0.15087 0.81337 0.63149
 C229 C 0.35028 0.64967 0.66944
 C230 C 0.36346 0.65643 0.67607
 C231 C 0.37012 0.66981 0.66958
 C232 C 0.36346 0.67629 0.65620
 C233 C 0.35028 0.66965 0.64944
 C234 C 0.34364 0.65630 0.65609
 C235 C 0.34353 0.63647 0.67608
 C236 C 0.33016 0.62979 0.66959
 C237 C 0.32367 0.63645 0.65621
 C238 C 0.33030 0.64965 0.64945
 C239 C 0.32367 0.65640 0.63625
 C240 C 0.33015 0.66978 0.62958
 C241 C 0.34352 0.67627 0.63625
 H242 H 0.36845 0.65132 0.68638
 H243 H 0.36844 0.68660 0.65108
 H244 H 0.34865 0.63149 0.68639
 H245 H 0.31337 0.63146 0.65109
 H246 H 0.31337 0.65127 0.63127
 H247 H 0.34864 0.68658 0.63126
 C248 C 0.35048 0.14958 1.17003
 C249 C 0.36367 0.15633 1.17667
 C250 C 0.37043 0.16972 1.17019
 C251 C 0.36374 0.17614 1.15675
 C252 C 0.35055 0.16950 1.15000
 C253 C 0.34388 0.15619 1.15667
 C254 C 0.34369 0.13641 1.17670
 C255 C 0.33027 0.12970 1.17025
 C256 C 0.32386 0.13639 1.15680
 C257 C 0.33054 0.14955 1.15003
 C258 C 0.32394 0.15628 1.13681
 C259 C 0.33046 0.16963 1.13011
 C260 C 0.34383 0.17611 1.13678
 H261 H 0.36857 0.15114 1.18699
 H262 H 0.36869 0.18642 1.15152
 H263 H 0.34887 0.13151 1.18702
 H264 H 0.31356 0.13148 1.15159
 H265 H 0.31363 0.15116 1.13182
 H266 H 0.34897 0.18640 1.13176
 C267 C 0.85029 0.64929 1.16979
 C268 C 0.86349 0.65606 1.17641
 C269 C 0.87016 0.66942 1.16989
 C270 C 0.86350 0.67588 1.15651
 C271 C 0.85030 0.66924 1.14977
 C272 C 0.84366 0.65590 1.15643
 C273 C 0.84354 0.63611 1.17646
 C274 C 0.83012 0.62937 1.17002
 C275 C 0.82368 0.63607 1.15659
 C276 C 0.83032 0.64925 1.14981
 C277 C 0.82369 0.65599 1.13660
 C278 C 0.83018 0.66935 1.12991
 C279 C 0.84356 0.67585 1.13656
 H280 H 0.86847 0.65096 1.18672
 H281 H 0.86848 0.68618 1.15136
 H282 H 0.84874 0.63121 1.18677
 H283 H 0.81337 0.63114 1.15139
 H284 H 0.81339 0.65086 1.13162
 H285 H 0.84868 0.68614 1.13156
 C286 C 0.85031 0.14978 0.66957
 C287 C 0.86349 0.15655 0.67621
 C288 C 0.87016 0.16992 0.66971
 C289 C 0.86352 0.17639 0.65632
 C290 C 0.85034 0.16974 0.64955
 C291 C 0.84370 0.15640 0.65620
 C292 C 0.84355 0.13659 0.67621
 C293 C 0.83018 0.12991 0.66971
 C294 C 0.82372 0.13656 0.65631
 C295 C 0.83036 0.14975 0.64955
 C296 C 0.82375 0.15648 0.63633
 C297 C 0.83025 0.16986 0.62966
 C298 C 0.84361 0.17636 0.63634
 H299 H 0.86845 0.15144 0.68653
 H300 H 0.86851 0.18669 0.65119
 H301 H 0.84865 0.13162 0.68653
 H302 H 0.81342 0.13156 0.65118
 H303 H 0.81346 0.15135 0.63134
 H304 H 0.84874 0.18666 0.63134
 C305 C 0.35015 0.35034 0.66960
 C306 C 0.34339 0.36353 0.67623
 C307 C 0.32999 0.37019 0.66976
 C308 C 0.32350 0.36352 0.65640
 C309 C 0.33014 0.35032 0.64964
 C310 C 0.34350 0.34369 0.65626
 C311 C 0.36336 0.34358 0.67621
 C312 C 0.37004 0.33020 0.66972
 C313 C 0.36336 0.32371 0.65636
 C314 C 0.35015 0.33034 0.64962
 C315 C 0.34339 0.32370 0.63645
 C316 C 0.32999 0.33018 0.62980
 C317 C 0.32350 0.34356 0.63647
 H318 H 0.34852 0.36852 0.68652
 H319 H 0.31318 0.36850 0.65129
 H320 H 0.36836 0.34871 0.68650
 H321 H 0.36835 0.31340 0.65124
 H322 H 0.34852 0.31339 0.63146
 H323 H 0.31318 0.34868 0.63149
 C324 C 0.35043 0.85091 0.16934
 C325 C 0.34367 0.86410 0.17598
 C326 C 0.33028 0.87076 0.16951
 C327 C 0.32378 0.86410 0.15615
 C328 C 0.33042 0.85091 0.14938
 C329 C 0.34379 0.84427 0.15600
 C330 C 0.36364 0.84415 0.17595
 C331 C 0.37032 0.83077 0.16946
 C332 C 0.36364 0.82429 0.15609
 C333 C 0.35044 0.83092 0.14935
 C334 C 0.34367 0.82429 0.13617
 C335 C 0.33028 0.83078 0.12952
 C336 C 0.32378 0.84415 0.13620
 H337 H 0.34880 0.86908 0.18628
 H338 H 0.31346 0.86909 0.15104
 H339 H 0.36863 0.84927 0.18625
 H340 H 0.36864 0.81398 0.15096
 H341 H 0.34881 0.81399 0.13118
 H342 H 0.31346 0.84927 0.13122
 C343 C 0.85085 0.35036 0.16938
 C344 C 0.84408 0.36357 0.17600
 C345 C 0.83071 0.37024 0.16950
 C346 C 0.82424 0.36358 0.15613
 C347 C 0.83087 0.35037 0.14939
 C348 C 0.84422 0.34372 0.15604
 C349 C 0.86404 0.34359 0.17602
 C350 C 0.87071 0.33021 0.16955
 C351 C 0.86405 0.32372 0.15618
 C352 C 0.85086 0.33036 0.14941
 C353 C 0.84411 0.32373 0.13622
 C354 C 0.83074 0.33023 0.12955
 C355 C 0.82425 0.34362 0.13620
 H356 H 0.84920 0.36855 0.18630
 H357 H 0.81393 0.36857 0.15100
 H358 H 0.86902 0.34872 0.18633
 H359 H 0.86904 0.31340 0.15107
 H360 H 0.84923 0.31341 0.13125
 H361 H 0.81394 0.34875 0.13121
 C362 C 0.85035 0.85055 0.66960
 C363 C 0.84359 0.86374 0.67624
 C364 C 0.83019 0.87040 0.66978
 C365 C 0.82370 0.86374 0.65641
 C366 C 0.83034 0.85055 0.64965
 C367 C 0.84371 0.84391 0.65626
 C368 C 0.86357 0.84380 0.67621
 C369 C 0.87024 0.83043 0.66971
 C370 C 0.86357 0.82394 0.65635
 C371 C 0.85036 0.83057 0.64961
 C372 C 0.84359 0.82393 0.63643
 C373 C 0.83020 0.83042 0.62979
 C374 C 0.82370 0.84379 0.63647
 H375 H 0.84871 0.86873 0.68654
 H376 H 0.81337 0.86872 0.65131
 H377 H 0.86856 0.84892 0.68651
 H378 H 0.86857 0.81363 0.65122
 H379 H 0.84872 0.81363 0.63144
 H380 H 0.81338 0.84891 0.63150
 C381 C 0.64958 0.64956 0.66986
 C382 C 0.65635 0.63637 0.67650
 C383 C 0.66973 0.62969 0.67001
 C384 C 0.67620 0.63635 0.65662
 C385 C 0.66955 0.64954 0.64986
 C386 C 0.65620 0.65618 0.65650
 C387 C 0.63638 0.65632 0.67650
 C388 C 0.62969 0.66969 0.67000
 C389 C 0.63634 0.67616 0.65661
 C390 C 0.64954 0.66953 0.64985
 C391 C 0.65628 0.67615 0.63665
 C392 C 0.66966 0.66966 0.62998
 C393 C 0.67616 0.65629 0.63665
 H394 H 0.65125 0.63139 0.68681
 H395 H 0.68651 0.63136 0.65149
 H396 H 0.63140 0.65120 0.68681
 H397 H 0.63134 0.68647 0.65148
 H398 H 0.65114 0.68645 0.63165
 H399 H 0.68647 0.65116 0.63166
 C400 C 0.64969 0.14933 0.16928
 C401 C 0.65645 0.13614 0.17592
 C402 C 0.66986 0.12949 0.16947
 C403 C 0.67637 0.13617 0.15612
 C404 C 0.66973 0.14936 0.14934
 C405 C 0.65635 0.15598 0.15595
 C406 C 0.63646 0.15608 0.17587
 C407 C 0.62979 0.16945 0.16938
 C408 C 0.63648 0.17595 0.15602
 C409 C 0.64970 0.16933 0.14930
 C410 C 0.65648 0.17598 0.13612
 C411 C 0.66989 0.16950 0.12949
 C412 C 0.67639 0.15613 0.13617
 H413 H 0.65131 0.13115 0.18621
 H414 H 0.68671 0.13119 0.15102
 H415 H 0.63146 0.15094 0.18617
 H416 H 0.63148 0.18626 0.15089
 H417 H 0.65135 0.18628 0.13113
 H418 H 0.68672 0.15102 0.13121
 C419 C 0.14956 0.64966 0.16935
 C420 C 0.15631 0.63646 0.17597
 C421 C 0.16970 0.62978 0.16950
 C422 C 0.17620 0.63646 0.15613
 C423 C 0.16957 0.64966 0.14938
 C424 C 0.15621 0.65630 0.15601
 C425 C 0.13636 0.65642 0.17597
 C426 C 0.12970 0.66981 0.16949
 C427 C 0.13637 0.67631 0.15613
 C428 C 0.14957 0.66967 0.14938
 C429 C 0.15634 0.67631 0.13619
 C430 C 0.16972 0.66981 0.12953
 C431 C 0.17621 0.65642 0.13619
 H432 H 0.15118 0.63147 0.18627
 H433 H 0.18651 0.63146 0.15101
 H434 H 0.13137 0.65129 0.18627
 H435 H 0.13139 0.68662 0.15101
 H436 H 0.15122 0.68662 0.13121
 H437 H 0.18652 0.65130 0.13121
 C438 C 0.14937 0.14943 0.66988
 C439 C 0.15614 0.13623 0.67652
 C440 C 0.16951 0.12954 0.67002
 C441 C 0.17597 0.13618 0.65662
 C442 C 0.16933 0.14937 0.64986
 C443 C 0.15599 0.15604 0.65651
 C444 C 0.13619 0.15621 0.67652
 C445 C 0.12952 0.16958 0.67003
 C446 C 0.13616 0.17604 0.65663
 C447 C 0.14934 0.16939 0.64986
 C448 C 0.15608 0.17599 0.63665
 C449 C 0.16944 0.16948 0.62997
 C450 C 0.17594 0.15611 0.63664
 H451 H 0.15104 0.13127 0.68684
 H452 H 0.18627 0.13118 0.65149
 H453 H 0.13122 0.15111 0.68685
 H454 H 0.13117 0.18635 0.65150
 H455 H 0.15095 0.18630 0.63165
 H456 H 0.18624 0.15097 0.63165
 C457 C 0.35043 0.64978 0.33028
 C458 C 0.34368 0.63657 0.32366
 C459 C 0.33031 0.62990 0.33015
 C460 C 0.32382 0.63656 0.34352
 C461 C 0.33044 0.64977 0.35027
 C462 C 0.34378 0.65642 0.34362
 C463 C 0.36361 0.65654 0.32364
 C464 C 0.37027 0.66993 0.33011
 C465 C 0.36359 0.67642 0.34348
 C466 C 0.35041 0.66978 0.35025
 C467 C 0.34364 0.67641 0.36343
 C468 C 0.33027 0.66991 0.37011
 C469 C 0.32380 0.65653 0.36345
 H470 H 0.34881 0.63158 0.31335
 H471 H 0.31352 0.63157 0.34865
 H472 H 0.36860 0.65142 0.31333
 H473 H 0.36857 0.68673 0.34860
 H474 H 0.34876 0.68672 0.36841
 H475 H 0.31350 0.65140 0.36844
 C476 C 0.35058 0.14926 0.83064
 C477 C 0.34383 0.13606 0.82402
 C478 C 0.33046 0.12939 0.83051
 C479 C 0.32397 0.13605 0.84389
 C480 C 0.33060 0.14925 0.85064
 C481 C 0.34395 0.15590 0.84399
 C482 C 0.36376 0.15603 0.82399
 C483 C 0.37042 0.16941 0.83047
 C484 C 0.36376 0.17589 0.84385
 C485 C 0.35058 0.16925 0.85062
 C486 C 0.34383 0.17588 0.86381
 C487 C 0.33046 0.16939 0.87049
 C488 C 0.32397 0.15601 0.86383
 H489 H 0.34895 0.13108 0.81371
 H490 H 0.31367 0.13106 0.84902
 H491 H 0.36875 0.15091 0.81368
 H492 H 0.36875 0.18621 0.84896
 H493 H 0.34895 0.18620 0.86879
 H494 H 0.31367 0.15088 0.86883
 C495 C 0.85072 0.64946 0.83055
 C496 C 0.84398 0.63625 0.82393
 C497 C 0.83062 0.62956 0.83043
 C498 C 0.82413 0.63622 0.84380
 C499 C 0.83074 0.64943 0.85055
 C500 C 0.84407 0.65609 0.84390
 C501 C 0.86389 0.65624 0.82390
 C502 C 0.87054 0.66963 0.83037
 C503 C 0.86386 0.67611 0.84375
 C504 C 0.85069 0.66946 0.85052
 C505 C 0.84392 0.67609 0.86371
 C506 C 0.83056 0.66957 0.87039
 C507 C 0.82410 0.65618 0.86374
 H508 H 0.84911 0.63126 0.81363
 H509 H 0.81383 0.63121 0.84894
 H510 H 0.86889 0.65112 0.81360
 H511 H 0.86883 0.68643 0.84886
 H512 H 0.84902 0.68641 0.86868
 H513 H 0.81380 0.65104 0.86873
 C514 C 0.85073 0.14939 0.33033
 C515 C 0.84398 0.13619 0.32371
 C516 C 0.83059 0.12953 0.33019
 C517 C 0.82409 0.13621 0.34355
 C518 C 0.83072 0.14941 0.35030
 C519 C 0.84408 0.15604 0.34367
 C520 C 0.86394 0.15613 0.32371
 C521 C 0.87060 0.16951 0.33018
 C522 C 0.86392 0.17602 0.34354
 C523 C 0.85071 0.16940 0.35029
 C524 C 0.84394 0.17604 0.36347
 C525 C 0.83055 0.16957 0.37013
 C526 C 0.82407 0.15619 0.36347
 H527 H 0.84911 0.13119 0.31342
 H528 H 0.81378 0.13124 0.34867
 H529 H 0.86893 0.15100 0.31341
 H530 H 0.86890 0.18633 0.34866
 H531 H 0.84906 0.18636 0.36845
 H532 H 0.81376 0.15107 0.36845
 C533 C 0.64951 0.35029 0.32996
 C534 C 0.65627 0.36349 0.32333
 C535 C 0.66963 0.37017 0.32983
 C536 C 0.67610 0.36351 0.34321
 C537 C 0.66947 0.35032 0.34997
 C538 C 0.65613 0.34367 0.34333
 C539 C 0.63633 0.34352 0.32332
 C540 C 0.62966 0.33015 0.32982
 C541 C 0.63631 0.32368 0.34320
 C542 C 0.64949 0.33032 0.34997
 C543 C 0.65624 0.32370 0.36317
 C544 C 0.66960 0.33020 0.36985
 C545 C 0.67609 0.34357 0.36318
 H546 H 0.65116 0.36847 0.31301
 H547 H 0.68640 0.36851 0.34835
 H548 H 0.63135 0.34864 0.31301
 H549 H 0.63132 0.31337 0.34833
 H550 H 0.65111 0.31339 0.36816
 H551 H 0.68638 0.34871 0.36817
 C552 C 0.64936 0.85054 0.83070
 C553 C 0.65612 0.86374 0.82408
 C554 C 0.66950 0.87039 0.83056
 C555 C 0.67600 0.86370 0.84392
 C556 C 0.66937 0.85050 0.85066
 C557 C 0.65601 0.84387 0.84403
 C558 C 0.63616 0.84380 0.82407
 C559 C 0.62950 0.83041 0.83054
 C560 C 0.63617 0.82389 0.84390
 C561 C 0.64938 0.83051 0.85065
 C562 C 0.65614 0.82385 0.86382
 C563 C 0.66953 0.83033 0.87049
 C564 C 0.67601 0.84371 0.86383
 H565 H 0.65099 0.86875 0.81379
 H566 H 0.68631 0.86867 0.84904
 H567 H 0.63117 0.84894 0.81378
 H568 H 0.63119 0.81358 0.84901
 H569 H 0.65102 0.81354 0.86880
 H570 H 0.68632 0.84882 0.86882
 C571 C 0.14942 0.35056 0.83088
 C572 C 0.15617 0.36376 0.82426
 C573 C 0.16956 0.37041 0.83073
 C574 C 0.17606 0.36372 0.84409
 C575 C 0.16943 0.35051 0.85083
 C576 C 0.15607 0.34389 0.84421
 C577 C 0.13621 0.34382 0.82426
 C578 C 0.12955 0.33044 0.83073
 C579 C 0.13623 0.32392 0.84408
 C580 C 0.14943 0.33053 0.85083
 C581 C 0.15620 0.32387 0.86400
 C582 C 0.16959 0.33034 0.87066
 C583 C 0.17608 0.34373 0.86400
 H584 H 0.15104 0.36877 0.81397
 H585 H 0.18638 0.36869 0.84920
 H586 H 0.13122 0.34897 0.81397
 H587 H 0.13124 0.31360 0.84919
 H588 H 0.15108 0.31356 0.86898
 H589 H 0.18639 0.34884 0.86898
 C590 C 0.14937 0.85088 0.33031
 C591 C 0.15613 0.86408 0.32368
 C592 C 0.16950 0.87075 0.33018
 C593 C 0.17598 0.86408 0.34355
 C594 C 0.16935 0.85088 0.35030
 C595 C 0.15600 0.84424 0.34366
 C596 C 0.13619 0.84412 0.32367
 C597 C 0.12952 0.83073 0.33015
 C598 C 0.13618 0.82424 0.34352
 C599 C 0.14937 0.83088 0.35029
 C600 C 0.15612 0.82424 0.36348
 C601 C 0.16949 0.83073 0.37015
 C602 C 0.17597 0.84411 0.36350
 H603 H 0.15101 0.86907 0.31338
 H604 H 0.18628 0.86907 0.34868
 H605 H 0.13121 0.84924 0.31336
 H606 H 0.13120 0.81393 0.34864
 H607 H 0.15100 0.81393 0.36846
 H608 H 0.18628 0.84924 0.36849
 O609 O 0.25164 1.01570 0.23035
 O610 O 0.23027 0.98552 0.25157
 O611 O 0.23030 1.01571 0.25159
 O612 O 0.25158 0.98552 0.23030
 O613 O 0.26964 0.98545 0.24839
 O614 O 0.24836 1.01565 0.26969
 O615 O 0.24833 0.98546 0.26966
 O616 O 0.26970 1.01563 0.24845
 Cu617 Cu 0.23913 1.00062 0.23913
 Cu618 Cu 0.26082 1.00054 0.26087
 C619 C 0.26428 1.02084 0.23582
 C620 C 0.23569 0.98032 0.26420
 C621 C 0.23573 1.02085 0.26424
 C622 C 0.26420 0.98031 0.23575
 O623 O 0.25141 0.51521 0.73049
 O624 O 0.23014 0.48507 0.75187
 O625 O 0.23017 0.51526 0.75184
 O626 O 0.25137 0.48502 0.73053
 O627 O 0.26951 0.48500 0.74854
 O628 O 0.24830 0.51525 0.76986
 O629 O 0.24827 0.48506 0.76989
 O630 O 0.26954 0.51519 0.74851
 Cu631 Cu 0.23895 0.50014 0.73937
 Cu632 Cu 0.26073 0.50012 0.76101
 C633 C 0.26407 0.52036 0.73590
 C634 C 0.23562 0.47990 0.76449
 C635 C 0.23566 0.52044 0.76444
 C636 C 0.26402 0.47983 0.73594
 O637 O 0.75168 -0.01534 0.26979
 O638 O 0.73046 0.01485 0.24843
 O639 O 0.73040 -0.01533 0.24849
 O640 O 0.75174 0.01484 0.26972
 O641 O 0.76984 0.01477 0.25165
 O642 O 0.74850 -0.01541 0.23043
 O643 O 0.74856 0.01478 0.23037
 O644 O 0.76978 -0.01542 0.25172
 Cu645 Cu 0.73925 -0.00024 0.26092
 Cu646 Cu 0.76099 -0.00033 0.23923
 C647 C 0.76431 -0.02056 0.26436
 C648 C 0.73592 0.01999 0.23579
 C649 C 0.73585 -0.02054 0.23588
 C650 C 0.76439 0.01997 0.26427
 O651 O 0.73057 0.51490 0.74859
 O652 O 0.75188 0.48466 0.76979
 O653 O 0.75189 0.51484 0.76984
 O654 O 0.73058 0.48471 0.74853
 O655 O 0.74865 0.48474 0.73043
 O656 O 0.76997 0.51486 0.75174
 O657 O 0.76995 0.48467 0.75170
 O658 O 0.74864 0.51492 0.73049
 Cu659 Cu 0.73942 0.49977 0.76101
 Cu660 Cu 0.76112 0.49980 0.73928
 C661 C 0.73601 0.52009 0.73596
 C662 C 0.76451 0.47948 0.76433
 C663 C 0.76453 0.52002 0.76439
 C664 C 0.73601 0.47956 0.73588
 O665 O 0.24836 0.48486 0.23040
 O666 O 0.26967 0.51506 0.25161
 O667 O 0.26965 0.48488 0.25168
 O668 O 0.24839 0.51504 0.23033
 O669 O 0.23030 0.51511 0.24840
 O670 O 0.25156 0.48494 0.26975
 O671 O 0.25158 0.51512 0.26969
 O672 O 0.23027 0.48492 0.24848
 Cu673 Cu 0.26084 0.49995 0.23919
 Cu674 Cu 0.23911 0.50003 0.26089
 C675 C 0.23572 0.47971 0.23586
 C676 C 0.26422 0.52027 0.26423
 C677 C 0.26420 0.47974 0.26432
 C678 C 0.23575 0.52024 0.23576
 O679 O 0.73013 0.98513 0.75185
 O680 O 0.75141 1.01530 0.73053
 O681 O 0.75140 0.98511 0.73054
 O682 O 0.73015 1.01532 0.75185
 O683 O 0.74826 1.01531 0.76989
 O684 O 0.76951 0.98510 0.74859
 O685 O 0.76952 1.01528 0.74857
 O686 O 0.74824 0.98512 0.76990
 Cu687 Cu 0.73895 1.00022 0.73938
 Cu688 Cu 0.76070 1.00020 0.76105
 C689 C 0.73559 0.97996 0.76447
 C690 C 0.76406 1.02046 0.73595
 C691 C 0.76405 0.97993 0.73597
 C692 C 0.73562 1.02049 0.76447
 O693 O 0.75183 0.51517 0.23013
 O694 O 0.73049 0.48496 0.25132
 O695 O 0.73051 0.51514 0.25140
 O696 O 0.75184 0.48498 0.23009
 O697 O 0.76989 0.48494 0.24819
 O698 O 0.74856 0.51509 0.26950
 O699 O 0.74854 0.48490 0.26942
 O700 O 0.76988 0.51513 0.24823
 Cu701 Cu 0.73935 0.50007 0.23892
 Cu702 Cu 0.76103 0.50001 0.26065
 C703 C 0.76445 0.52033 0.23561
 C704 C 0.73591 0.47975 0.26395
 C705 C 0.73594 0.52028 0.26404
 C706 C 0.76446 0.47979 0.23554
 O707 O 0.25169 -0.01546 0.76985
 O708 O 0.23034 0.01477 0.74867
 O709 O 0.23034 -0.01541 0.74864
 O710 O 0.25168 0.01473 0.76991
 O711 O 0.26972 0.01475 0.75179
 O712 O 0.24838 -0.01539 0.73052
 O713 O 0.24839 0.01479 0.73055
 O714 O 0.26974 -0.01544 0.75173
 Cu715 Cu 0.23920 -0.00035 0.76109
 Cu716 Cu 0.26087 -0.00032 0.73933
 C717 C 0.26432 -0.02063 0.76437
 C718 C 0.23576 0.01996 0.73603
 C719 C 0.23575 -0.02057 0.73599
 C720 C 0.26430 0.01990 0.76444
 O721 O 0.24848 0.26950 0.98515
 O722 O 0.26981 0.24822 1.01530
 O723 O 0.26979 0.24821 0.98514
 O724 O 0.24848 0.26950 1.01531
 O725 O 0.23042 0.25140 1.01532
 O726 O 0.25172 0.23011 0.98516
 O727 O 0.25174 0.23012 1.01532
 O728 O 0.23041 0.25141 0.98516
 Cu729 Cu 0.26096 0.26068 1.00022
 Cu730 Cu 0.23926 0.23894 1.00024
 C731 C 0.23584 0.26405 0.97999
 C732 C 0.26438 0.23558 1.02048
 C733 C 0.26435 0.23556 0.97998
 C734 C 0.23585 0.26404 1.02049
 O735 O 0.24817 0.76990 0.48480
 O736 O 0.26946 0.74856 0.51494
 O737 O 0.26948 0.74861 0.48478
 O738 O 0.24813 0.76984 0.51497
 O739 O 0.23006 0.75174 0.51492
 O740 O 0.25141 0.73051 0.48475
 O741 O 0.25139 0.73046 0.51491
 O742 O 0.23010 0.75180 0.48476
 Cu743 Cu 0.26062 0.76105 0.49988
 Cu744 Cu 0.23892 0.73931 0.49983
 C745 C 0.23554 0.76446 0.47962
 C746 C 0.26402 0.73591 0.52009
 C747 C 0.26405 0.73597 0.47959
 C748 C 0.23549 0.76437 0.52011
 O749 O 0.26988 0.75179 -0.01522
 O750 O 0.24858 0.73051 0.01495
 O751 O 0.24863 0.73046 -0.01521
 O752 O 0.26983 0.75184 0.01494
 O753 O 0.25170 0.76991 0.01488
 O754 O 0.23051 0.74852 -0.01527
 O755 O 0.23045 0.74857 0.01489
 O756 O 0.25176 0.76985 -0.01528
 Cu757 Cu 0.26105 0.73934 -0.00013
 Cu758 Cu 0.23929 0.76103 -0.00020
 C759 C 0.26442 0.76441 -0.02042
 C760 C 0.23592 0.73595 0.02009
 C761 C 0.23599 0.73588 -0.02041
 C762 C 0.26434 0.76448 0.02008
 O763 O 0.23003 0.24816 0.48501
 O764 O 0.25129 0.26945 0.51518
 O765 O 0.25133 0.26944 0.48502
 O766 O 0.23001 0.24815 0.51518
 O767 O 0.24810 0.23005 0.51519
 O768 O 0.26942 0.25134 0.48504
 O769 O 0.26938 0.25135 0.51520
 O770 O 0.24812 0.23006 0.48503
 Cu771 Cu 0.23885 0.26061 0.50010
 Cu772 Cu 0.26057 0.23888 0.50012
 C773 C 0.23548 0.23552 0.47985
 C774 C 0.26393 0.26399 0.52036
 C775 C 0.26397 0.26398 0.47986
 C776 C 0.23546 0.23550 0.52035
 O777 O 0.73022 0.75133 1.01517
 O778 O 0.75158 0.73009 0.98500
 O779 O 0.75153 0.73003 1.01516
 O780 O 0.73025 0.75137 0.98500
 O781 O 0.74832 0.76947 0.98505
 O782 O 0.76960 0.74813 1.01521
 O783 O 0.76965 0.74819 0.98505
 O784 O 0.74829 0.76943 1.01521
 Cu785 Cu 0.73908 0.73889 1.00008
 Cu786 Cu 0.76078 0.76062 1.00013
 C787 C 0.73565 0.76396 1.02036
 C788 C 0.76422 0.73555 0.97985
 C789 C 0.76415 0.73548 1.02035
 C790 C 0.73569 0.76402 0.97986
 O791 O 0.76968 0.24845 0.51480
 O792 O 0.74836 0.26970 0.48461
 O793 O 0.74836 0.26974 0.51477
 O794 O 0.76970 0.24843 0.48464
 O795 O 0.75163 0.23032 0.48466
 O796 O 0.73030 0.25164 0.51479
 O797 O 0.73030 0.25160 0.48463
 O798 O 0.75161 0.23035 0.51482
 Cu799 Cu 0.76084 0.26090 0.49970
 Cu800 Cu 0.73915 0.23916 0.49973
 C801 C 0.76424 0.23582 0.51999
 C802 C 0.73573 0.26424 0.47945
 C803 C 0.73573 0.26429 0.51994
 C804 C 0.76427 0.23578 0.47949
 O805 O 0.73061 0.24838 -0.01522
 O806 O 0.75192 0.26965 0.01494
 O807 O 0.75188 0.26970 -0.01523
 O808 O 0.73063 0.24836 0.01494
 O809 O 0.74873 0.23028 0.01491
 O810 O 0.76998 0.25161 -0.01526
 O811 O 0.77002 0.25157 0.01490
 O812 O 0.74871 0.23030 -0.01525
 Cu813 Cu 0.73944 0.26084 -0.00014
 Cu814 Cu 0.76118 0.23912 -0.00018
 C815 C 0.73606 0.23575 -0.02040
 C816 C 0.76457 0.26420 0.02008
 C817 C 0.76452 0.26425 -0.02041
 C818 C 0.73609 0.23572 0.02009
 O819 O 0.76952 0.75166 0.48503
 O820 O 0.74827 0.73033 0.51521
 O821 O 0.74827 0.73033 0.48504
 O822 O 0.76953 0.75165 0.51519
 O823 O 0.75142 0.76972 0.51521
 O824 O 0.73015 0.74840 0.48505
 O825 O 0.73015 0.74840 0.51522
 O826 O 0.75140 0.76973 0.48505
 Cu827 Cu 0.76072 0.73918 0.50012
 Cu828 Cu 0.73896 0.76088 0.50013
 C829 C 0.76404 0.76430 0.47987
 C830 C 0.73562 0.73576 0.52038
 C831 C 0.73562 0.73577 0.47988
 C832 C 0.76407 0.76428 0.52037
 O833 O 0.98539 0.24822 0.26964
 O834 O 1.01558 0.26953 0.24839
 O835 O 0.98540 0.26952 0.24836
 O836 O 1.01558 0.24822 0.26967
 O837 O 1.01561 0.23014 0.25159
 O838 O 0.98543 0.25143 0.23028
 O839 O 1.01562 0.25145 0.23031
 O840 O 0.98543 0.23013 0.25157
 Cu841 Cu 1.00048 0.26069 0.26083
 Cu842 Cu 1.00053 0.23897 0.23912
 C843 C 0.98024 0.23558 0.26419
 C844 C 1.02077 0.26409 0.23577
 C845 C 0.98024 0.26407 0.23573
 C846 C 1.02077 0.23559 0.26422
 O847 O 0.48490 0.25150 0.73028
 O848 O 0.51513 0.23024 0.75154
 O849 O 0.48495 0.23021 0.75157
 O850 O 0.51508 0.25153 0.73025
 O851 O 0.51507 0.26962 0.74831
 O852 O 0.48493 0.24830 0.76964
 O853 O 0.51512 0.24833 0.76961
 O854 O 0.48489 0.26960 0.74834
 Cu855 Cu 0.50002 0.23905 0.73909
 Cu856 Cu 0.50000 0.26078 0.76079
 C857 C 0.47971 0.26414 0.73572
 C858 C 0.52030 0.23569 0.76416
 C859 C 0.47978 0.23566 0.76420
 C860 C 0.52024 0.26417 0.73568
 O861 O -0.01529 0.26999 0.75182
 O862 O 0.01491 0.24863 0.73062
 O863 O -0.01527 0.24869 0.73055
 O864 O 0.01489 0.26993 0.75189
 O865 O 0.01482 0.25185 0.76997
 O866 O -0.01533 0.23060 0.74863
 O867 O 0.01485 0.23055 0.74870
 O868 O -0.01536 0.25190 0.76990
 Cu869 Cu -0.00018 0.26113 0.73940
 Cu870 Cu -0.00026 0.23941 0.76112
 C871 C -0.02050 0.26455 0.76444
 C872 C 0.02006 0.23598 0.73608
 C873 C -0.02046 0.23606 0.73599
 C874 C 0.02002 0.26448 0.76453
 O875 O 0.48472 0.26931 0.25139
 O876 O 0.51488 0.24805 0.23002
 O877 O 0.48469 0.24802 0.23011
 O878 O 0.51490 0.26935 0.25129
 O879 O 0.51498 0.25126 0.26937
 O880 O 0.48477 0.22993 0.24819
 O881 O 0.51496 0.22996 0.24810
 O882 O 0.48480 0.25122 0.26947
 Cu883 Cu 0.49979 0.26050 0.23889
 Cu884 Cu 0.49989 0.23877 0.26060
 C885 C 0.47959 0.26386 0.26403
 C886 C 0.52009 0.23541 0.23545
 C887 C 0.47955 0.23537 0.23557
 C888 C 0.52012 0.26390 0.26391
 O889 O 0.98510 0.75168 0.73022
 O890 O 1.01530 0.73037 0.75148
 O891 O 0.98512 0.73038 0.75151
 O892 O 1.01528 0.75167 0.73020
 O893 O 1.01529 0.76976 0.74827
 O894 O 0.98512 0.74847 0.76958
 O895 O 1.01531 0.74846 0.76955
 O896 O 0.98510 0.76977 0.74829
 Cu897 Cu 1.00020 0.73921 0.73904
 Cu898 Cu 1.00021 0.76093 0.76074
 C899 C 0.97993 0.76432 0.73567
 C900 C 1.02048 0.73582 0.76411
 C901 C 0.97995 0.73583 0.76414
 C902 C 1.02046 0.76431 0.73564
 O903 O 0.48497 0.74870 0.26946
 O904 O 0.51519 0.76996 0.24820
 O905 O 0.48500 0.77000 0.24817
 O906 O 0.51515 0.74867 0.26949
 O907 O 0.51516 0.73058 0.25142
 O908 O 0.48501 0.75191 0.23011
 O909 O 0.51520 0.75187 0.23013
 O910 O 0.48498 0.73061 0.25139
 Cu911 Cu 0.50008 0.76115 0.26064
 Cu912 Cu 0.50009 0.73943 0.23895
 C913 C 0.47980 0.73607 0.26401
 C914 C 0.52037 0.76450 0.23557
 C915 C 0.47984 0.76456 0.23554
 C916 C 0.52032 0.73603 0.26406
 O917 O -0.01527 0.76978 0.25155
 O918 O 0.01493 0.74852 0.23024
 O919 O -0.01526 0.74846 0.23030
 O920 O 0.01491 0.76984 0.25150
 O921 O 0.01498 0.75177 0.26959
 O922 O -0.01518 0.73039 0.24840
 O923 O 0.01500 0.73045 0.24833
 O924 O -0.01520 0.75171 0.26965
 Cu925 Cu -0.00018 0.76096 0.23908
 Cu926 Cu -0.00009 0.73926 0.26081
 C927 C -0.02041 0.76434 0.26420
 C928 C 0.02014 0.73590 0.23569
 C929 C -0.02038 0.73581 0.23577
 C930 C 0.02011 0.76441 0.26412
 O931 O 0.51479 0.75178 0.76981
 O932 O 0.48465 0.73051 0.74846
 O933 O 0.51484 0.73048 0.74854
 O934 O 0.48460 0.75181 0.76973
 O935 O 0.48466 0.76990 0.75165
 O936 O 0.51489 0.74856 0.73046
 O937 O 0.48471 0.74859 0.73038
 O938 O 0.51484 0.76987 0.75172
 Cu939 Cu 0.49971 0.73933 0.76095
 Cu940 Cu 0.49978 0.76104 0.73924
 C941 C 0.51998 0.76442 0.76437
 C942 C 0.47952 0.73596 0.73582
 C943 C 0.52004 0.73592 0.73592
 C944 C 0.47945 0.76446 0.76427
 N945 N 0.40229 0.32195 0.30319
 C946 C 0.40850 0.30887 0.30924
 N947 N 0.40227 0.30278 0.32228
 N948 N 0.39017 0.30955 0.32905
 C949 C 0.38385 0.32266 0.32303
 N950 N 0.39020 0.32872 0.30997
 C951 C 0.42127 0.30136 0.30172
 C952 C 0.43187 0.29495 0.29529
 C953 C 0.44434 0.28721 0.28751
 N954 N 0.45022 0.27383 0.29326
 N955 N 0.46155 0.26645 0.28583
 C956 C 0.46737 0.27218 0.27240
 N957 N 0.46147 0.28560 0.26669
 N958 N 0.45014 0.29298 0.27412
 N959 N 0.40187 0.82253 0.80298
 C960 C 0.40814 0.80951 0.80908
 N961 N 0.40193 0.80345 0.82214
 N962 N 0.38980 0.81020 0.82888
 C963 C 0.38338 0.82325 0.82281
 N964 N 0.38974 0.82927 0.80972
 C965 C 0.42095 0.80203 0.80161
 C966 C 0.43158 0.79562 0.79523
 C967 C 0.44409 0.78786 0.78752
 N968 N 0.44993 0.77449 0.79331
 N969 N 0.46129 0.76708 0.78596
 C970 C 0.46719 0.77281 0.77256
 N971 N 0.46134 0.78623 0.76681
 N972 N 0.44998 0.79363 0.77417
 N973 N -0.09805 0.32267 0.80315
 C974 C -0.09179 0.30964 0.80926
 N975 N -0.09801 0.30358 0.82231
 N976 N -0.11014 0.31033 0.82903
 C977 C -0.11656 0.32338 0.82297
 N978 N -0.11018 0.32941 0.80988
 C979 C -0.07898 0.30216 0.80179
 C980 C -0.06834 0.29575 0.79541
 C981 C -0.05584 0.28798 0.78771
 N982 N -0.05001 0.27460 0.79349
 N983 N -0.03866 0.26719 0.78614
 C984 C -0.03275 0.27291 0.77274
 N985 N -0.03859 0.28633 0.76699
 N986 N -0.04995 0.29375 0.77435
 N987 N -0.09783 0.82239 0.30317
 C988 C -0.09159 0.80934 0.30926
 N989 N -0.09781 0.80328 0.32232
 N990 N -0.10992 0.81004 0.32907
 C991 C -0.11627 0.82311 0.32301
 N992 N -0.10995 0.82915 0.30993
 C993 C -0.07881 0.80184 0.30177
 C994 C -0.06819 0.79543 0.29536
 C995 C -0.05571 0.78769 0.28760
 N996 N -0.04982 0.77433 0.29337
 N997 N -0.03848 0.76694 0.28597
 C998 C -0.03265 0.77266 0.27254
 N999 N -0.03855 0.78607 0.26681
 N1000 N -0.04989 0.79345 0.27421
 N1001 N 0.59762 0.67785 0.30310
 C1002 C 0.59138 0.69090 0.30917
 N1003 N 0.59759 0.69696 0.32223
 N1004 N 0.60968 0.69019 0.32900
 C1005 C 0.61603 0.67711 0.32295
 N1006 N 0.60971 0.67108 0.30987
 C1007 C 0.57862 0.69842 0.30166
 C1008 C 0.56802 0.70484 0.29524
 C1009 C 0.55555 0.71261 0.28748
 N1010 N 0.54971 0.72599 0.29323
 N1011 N 0.53838 0.73340 0.28582
 C1012 C 0.53254 0.72768 0.27241
 N1013 N 0.53840 0.71425 0.26670
 N1014 N 0.54972 0.70684 0.27411
 N1015 N 0.59776 0.17764 0.80308
 C1016 C 0.59153 0.19069 0.80915
 N1017 N 0.59775 0.19677 0.82220
 N1018 N 0.60986 0.19001 0.82894
 C1019 C 0.61621 0.17694 0.82290
 N1020 N 0.60988 0.17089 0.80983
 C1021 C 0.57873 0.19819 0.80166
 C1022 C 0.56811 0.20459 0.79526
 C1023 C 0.55562 0.21234 0.78752
 N1024 N 0.54976 0.22571 0.79328
 N1025 N 0.53841 0.23310 0.78589
 C1026 C 0.53255 0.22737 0.77249
 N1027 N 0.53843 0.21395 0.76677
 N1028 N 0.54978 0.20656 0.77416
 N1029 N 1.09790 0.69683 0.82212
 C1030 C 1.09168 0.69075 0.80907
 N1031 N 1.09792 0.67770 0.80299
 N1032 N 1.11003 0.67095 0.80974
 C1033 C 1.11636 0.67699 0.82281
 N1034 N 1.11001 0.69006 0.82886
 C1035 C 1.07889 0.69826 0.80158
 C1036 C 1.06827 0.70467 0.79518
 C1037 C 1.05578 0.71242 0.78745
 N1038 N 1.04993 0.70666 0.77409
 N1039 N 1.03858 0.71405 0.76670
 C1040 C 1.03272 0.72748 0.77243
 N1041 N 1.03859 0.73321 0.78583
 N1042 N 1.04994 0.72580 0.79321
 N1043 N 1.09827 0.17758 0.30311
 C1044 C 1.09200 0.19059 0.30922
 N1045 N 1.09818 0.19663 0.32229
 N1046 N 1.11030 0.18988 0.32903
 C1047 C 1.11673 0.17683 0.32296
 N1048 N 1.11039 0.17083 0.30986
 C1049 C 1.07920 0.19808 0.30173
 C1050 C 1.06857 0.20448 0.29534
 C1051 C 1.05608 0.21222 0.28759
 N1052 N 1.05021 0.22559 0.29336
 N1053 N 1.03886 0.23299 0.28597
 C1054 C 1.03301 0.22725 0.27256
 N1055 N 1.03889 0.21384 0.26683
 N1056 N 1.05024 0.20645 0.27423
 N1057 N 0.59752 0.30321 0.67753
 C1058 C 0.59132 0.30926 0.69060
 N1059 N 0.59756 0.32229 0.69669
 N1060 N 0.60966 0.32905 0.68993
 C1061 C 0.61598 0.32303 0.67683
 N1062 N 0.60962 0.30997 0.67077
 C1063 C 0.57855 0.30175 0.69810
 C1064 C 0.56794 0.29534 0.70451
 C1065 C 0.55547 0.28758 0.71227
 N1066 N 0.54963 0.29335 0.72564
 N1067 N 0.53830 0.28595 0.73305
 C1068 C 0.53245 0.27252 0.72733
 N1069 N 0.53832 0.26679 0.71392
 N1070 N 0.54964 0.27420 0.70652
 N1071 N 0.59794 0.82240 0.19672
 C1072 C 0.59168 0.80938 0.19064
 N1073 N 0.59791 0.80329 0.17760
 N1074 N 0.61004 0.81001 0.17087
 C1075 C 0.61645 0.82307 0.17691
 N1076 N 0.61007 0.82912 0.18998
 C1077 C 0.57887 0.80191 0.19812
 C1078 C 0.56823 0.79553 0.20451
 C1079 C 0.55572 0.78781 0.21224
 N1080 N 0.54986 0.77445 0.20648
 N1081 N 0.53850 0.76707 0.21385
 C1082 C 0.53263 0.77282 0.22725
 N1083 N 0.53850 0.78623 0.23298
 N1084 N 0.54986 0.79360 0.22560
 N1085 N 1.09819 0.32219 0.19692
 C1086 C 1.09198 0.30915 0.19085
 N1087 N 1.09822 0.30307 0.17781
 N1088 N 1.11033 0.30983 0.17107
 C1089 C 1.11670 0.32292 0.17710
 N1090 N 1.11031 0.32895 0.19018
 C1091 C 1.07919 0.30165 0.19833
 C1092 C 1.06857 0.29524 0.20472
 C1093 C 1.05608 0.28748 0.21245
 N1094 N 1.05025 0.27411 0.20667
 N1095 N 1.03890 0.26670 0.21405
 C1096 C 1.03301 0.27243 0.22745
 N1097 N 1.03886 0.28585 0.23318
 N1098 N 1.05021 0.29325 0.22581
 N1099 N 1.09791 0.82231 0.69674
 C1100 C 1.09166 0.80929 0.69064
 N1101 N 1.09787 0.80323 0.67758
 N1102 N 1.10999 0.80998 0.67084
 C1103 C 1.11639 0.82304 0.67690
 N1104 N 1.11003 0.82905 0.68999
 C1105 C 1.07887 0.80179 0.69812
 C1106 C 1.06824 0.79540 0.70452
 C1107 C 1.05575 0.78766 0.71226
 N1108 N 1.04990 0.77429 0.70650
 N1109 N 1.03856 0.76690 0.71389
 C1110 C 1.03269 0.77264 0.72730
 N1111 N 1.03856 0.78605 0.73302
 N1112 N 1.04990 0.79344 0.72563
 N1113 N 0.40224 0.67788 0.69676
 C1114 C 0.40846 0.69094 0.69069
 N1115 N 0.40224 0.69701 0.67764
 N1116 N 0.39014 0.69024 0.67088
 C1117 C 0.38381 0.67716 0.67692
 N1118 N 0.39015 0.67111 0.68999
 C1119 C 0.42122 0.69844 0.69819
 C1120 C 0.43182 0.70485 0.70461
 C1121 C 0.44429 0.71260 0.71238
 N1122 N 0.45015 0.72597 0.70662
 N1123 N 0.46148 0.73336 0.71404
 C1124 C 0.46730 0.72763 0.72746
 N1125 N 0.46142 0.71421 0.73318
 N1126 N 0.45010 0.70683 0.72577
 N1127 N 0.40202 0.19643 0.17777
 C1128 C 0.40823 0.19038 0.19083
 N1129 N 0.40196 0.17737 0.19695
 N1130 N 0.38982 0.17065 0.19023
 C1131 C 0.38346 0.17667 0.17714
 N1132 N 0.38988 0.18970 0.17106
 C1133 C 0.42105 0.19785 0.19829
 C1134 C 0.43169 0.20424 0.20465
 C1135 C 0.44420 0.21199 0.21235
 N1136 N 0.45010 0.20622 0.22569
 N1137 N 0.46146 0.21361 0.23304
 C1138 C 0.46730 0.22703 0.22729
 N1139 N 0.46139 0.23276 0.21390
 N1140 N 0.45002 0.22536 0.20655
 N1141 N -0.09772 0.67754 0.19704
 C1142 C -0.09149 0.69057 0.19093
 N1143 N -0.09771 0.69661 0.17786
 N1144 N -0.10980 0.68983 0.17112
 C1145 C -0.11615 0.67677 0.17721
 N1146 N -0.10982 0.67076 0.19030
 C1147 C -0.07872 0.69810 0.19841
 C1148 C -0.06811 0.70453 0.20479
 C1149 C -0.05564 0.71232 0.21250
 N1150 N -0.04984 0.72570 0.20671
 N1151 N -0.03851 0.73314 0.21407
 C1152 C -0.03261 0.72744 0.22747
 N1153 N -0.03843 0.71401 0.23323
 N1154 N -0.04976 0.70658 0.22587
 N1155 N -0.09773 0.19712 0.67778
 C1156 C -0.09153 0.19105 0.69084
 N1157 N -0.09775 0.17800 0.69692
 N1158 N -0.10984 0.17123 0.69015
 C1159 C -0.11616 0.17727 0.67706
 N1160 N -0.10981 0.19034 0.67101
 C1161 C -0.07876 0.19856 0.69836
 C1162 C -0.06817 0.20497 0.70478
 C1163 C -0.05570 0.21271 0.71255
 N1164 N -0.04990 0.20694 0.72594
 N1165 N -0.03857 0.21432 0.73335
 C1166 C -0.03269 0.22773 0.72763
 N1167 N -0.03851 0.23347 0.71421
 N1168 N -0.04983 0.22608 0.70679
 N1169 N 0.32221 0.40229 0.30331
 C1170 C 0.30916 0.40853 0.30939
 N1171 N 0.30308 0.40230 0.32244
 N1172 N 0.30983 0.39018 0.32918
 C1173 C 0.32290 0.38382 0.32313
 N1174 N 0.32895 0.39016 0.31006
 C1175 C 0.30167 0.42133 0.30190
 C1176 C 0.29527 0.43195 0.29550
 C1177 C 0.28754 0.44444 0.28774
 N1178 N 0.27417 0.45032 0.29350
 N1179 N 0.26678 0.46167 0.28609
 C1180 C 0.27252 0.46750 0.27267
 N1181 N 0.28594 0.46161 0.26696
 N1182 N 0.29332 0.45027 0.27436
 N1183 N 0.30343 -0.09814 0.82219
 C1184 C 0.30947 -0.09192 0.80913
 N1185 N 0.32249 -0.09817 0.80302
 N1186 N 0.32925 -0.11029 0.80975
 C1187 C 0.32325 -0.11667 0.82284
 N1188 N 0.31019 -0.11026 0.82892
 C1189 C 0.30196 -0.07911 0.80167
 C1190 C 0.29554 -0.06848 0.79530
 C1191 C 0.28777 -0.05598 0.78760
 N1192 N 0.29350 -0.05010 0.77423
 N1193 N 0.28609 -0.03874 0.76688
 C1194 C 0.27268 -0.03289 0.77265
 N1195 N 0.26699 -0.03877 0.78607
 N1196 N 0.27441 -0.05014 0.79341
 N1197 N 0.82257 0.40194 0.80311
 C1198 C 0.80954 0.40818 0.80920
 N1199 N 0.80347 0.40196 0.82225
 N1200 N 0.81022 0.38983 0.82898
 C1201 C 0.82329 0.38343 0.82293
 N1202 N 0.82932 0.38981 0.80985
 C1203 C 0.80204 0.42099 0.80173
 C1204 C 0.79564 0.43162 0.79534
 C1205 C 0.78789 0.44413 0.78762
 N1206 N 0.77453 0.44998 0.79340
 N1207 N 0.76713 0.46134 0.78604
 C1208 C 0.77285 0.46722 0.77263
 N1209 N 0.78626 0.46135 0.76689
 N1210 N 0.79366 0.44999 0.77425
 N1211 N 0.80310 -0.09801 0.32253
 C1212 C 0.80919 -0.09179 0.30949
 N1213 N 0.82224 -0.09803 0.30342
 N1214 N 0.82898 -0.11015 0.31018
 C1215 C 0.82294 -0.11652 0.32325
 N1216 N 0.80985 -0.11013 0.32928
 C1217 C 0.80171 -0.07899 0.30199
 C1218 C 0.79532 -0.06836 0.29557
 C1219 C 0.78760 -0.05587 0.28780
 N1220 N 0.79339 -0.05006 0.27443
 N1221 N 0.78603 -0.03871 0.26701
 C1222 C 0.77262 -0.03280 0.27272
 N1223 N 0.76687 -0.03863 0.28614
 N1224 N 0.77423 -0.04998 0.29355
 N1225 N 0.30299 0.59765 0.67766
 C1226 C 0.30907 0.59144 0.69072
 N1227 N 0.32212 0.59767 0.69678
 N1228 N 0.32887 0.60977 0.69001
 C1229 C 0.32283 0.61609 0.67693
 N1230 N 0.30975 0.60975 0.67090
 C1231 C 0.30157 0.57866 0.69823
 C1232 C 0.29516 0.56806 0.70465
 C1233 C 0.28742 0.55559 0.71243
 N1234 N 0.29322 0.54974 0.72578
 N1235 N 0.28583 0.53842 0.73321
 C1236 C 0.27239 0.53258 0.72753
 N1237 N 0.26663 0.53844 0.71413
 N1238 N 0.27402 0.54976 0.70671
 N1239 N 0.32252 1.09822 0.19706
 C1240 C 0.30949 1.09199 0.19097
 N1241 N 0.30345 1.09821 0.17790
 N1242 N 0.31022 1.11031 0.17116
 C1243 C 0.32328 1.11670 0.17722
 N1244 N 0.32928 1.11033 0.19032
 C1245 C 0.30197 1.07921 0.19845
 C1246 C 0.29554 1.06860 0.20483
 C1247 C 0.28776 1.05612 0.21255
 N1248 N 0.27438 1.05031 0.20675
 N1249 N 0.26695 1.03897 0.21411
 C1250 C 0.27265 1.03307 0.22752
 N1251 N 0.28607 1.03889 0.23327
 N1252 N 0.29349 1.05023 0.22591
 N1253 N 0.82248 0.59786 0.19682
 C1254 C 0.80945 0.59161 0.19074
 N1255 N 0.80337 0.59783 0.17770
 N1256 N 0.81011 0.60995 0.17096
 C1257 C 0.82317 0.61636 0.17699
 N1258 N 0.82921 0.60999 0.19007
 C1259 C 0.80198 0.57880 0.19823
 C1260 C 0.79559 0.56817 0.20462
 C1261 C 0.78784 0.55567 0.21233
 N1262 N 0.77448 0.54983 0.20654
 N1263 N 0.76708 0.53847 0.21390
 C1264 C 0.77280 0.53258 0.22731
 N1265 N 0.78620 0.53844 0.23306
 N1266 N 0.79360 0.54980 0.22570
 N1267 N 0.80301 1.09777 0.67777
 C1268 C 0.80907 1.09157 0.69083
 N1269 N 0.82211 1.09780 0.69691
 N1270 N 0.82888 1.10990 0.69014
 C1271 C 0.82284 1.11622 0.67705
 N1272 N 0.80978 1.10987 0.67100
 C1273 C 0.80157 1.07879 0.69834
 C1274 C 0.79516 1.06819 0.70476
 C1275 C 0.78742 1.05572 0.71253
 N1276 N 0.79320 1.04987 0.72589
 N1277 N 0.78582 1.03854 0.73330
 C1278 C 0.77239 1.03268 0.72760
 N1279 N 0.76664 1.03855 0.71420
 N1280 N 0.77403 1.04988 0.70679
 N1281 N 0.69693 0.59759 0.32222
 C1282 C 0.69086 0.59139 0.30916
 N1283 N 0.67781 0.59763 0.30310
 N1284 N 0.67104 0.60972 0.30987
 C1285 C 0.67708 0.61604 0.32295
 N1286 N 0.69016 0.60969 0.32898
 C1287 C 0.69837 0.57861 0.30165
 C1288 C 0.70478 0.56801 0.29523
 C1289 C 0.71254 0.55554 0.28746
 N1290 N 0.70678 0.54973 0.27407
 N1291 N 0.71418 0.53840 0.26666
 C1292 C 0.72759 0.53251 0.27239
 N1293 N 0.73330 0.53833 0.28582
 N1294 N 0.72590 0.54966 0.29323
 N1295 N 0.69680 1.09802 0.82248
 C1296 C 0.69071 1.09178 0.80946
 N1297 N 0.67766 1.09802 0.80339
 N1298 N 0.67093 1.11015 0.81013
 C1299 C 0.67698 1.11654 0.82319
 N1300 N 0.69006 1.11015 0.82922
 C1301 C 0.69819 1.07897 0.80198
 C1302 C 0.70458 1.06833 0.79559
 C1303 C 0.71230 1.05583 0.78784
 N1304 N 0.70651 1.04998 0.77449
 N1305 N 0.71388 1.03862 0.76709
 C1306 C 0.72730 1.03274 0.77280
 N1307 N 0.73305 1.03860 0.78620
 N1308 N 0.72568 1.04996 0.79359
 N1309 N 0.17779 0.59804 0.80333
 C1310 C 0.19083 0.59179 0.80941
 N1311 N 0.19692 0.59803 0.82244
 N1312 N 0.19018 0.61017 0.82916
 C1313 C 0.17711 0.61657 0.82312
 N1314 N 0.17106 0.61018 0.81007
 C1315 C 0.19830 0.57897 0.80194
 C1316 C 0.20468 0.56833 0.79555
 C1317 C 0.21239 0.55581 0.78781
 N1318 N 0.22578 0.54995 0.79355
 N1319 N 0.23314 0.53858 0.78616
 C1320 C 0.22736 0.53270 0.77278
 N1321 N 0.21393 0.53858 0.76708
 N1322 N 0.20658 0.54995 0.77447
 N1323 N 0.19670 1.09824 0.32229
 C1324 C 0.19067 1.09205 0.30922
 N1325 N 0.17765 1.09831 0.30311
 N1326 N 0.17088 1.11042 0.30985
 C1327 C 0.17688 1.11677 0.32296
 N1328 N 0.18993 1.11035 0.32903
 C1329 C 0.19818 1.07926 0.30173
 C1330 C 0.20459 1.06864 0.29534
 C1331 C 0.21235 1.05615 0.28760
 N1332 N 0.20659 1.05032 0.27422
 N1333 N 0.21399 1.03898 0.26683
 C1334 C 0.22740 1.03309 0.27257
 N1335 N 0.23311 1.03893 0.28599
 N1336 N 0.22571 1.05028 0.29338
 N1337 N 0.69695 0.40238 0.67766
 C1338 C 0.69089 0.40858 0.69072
 N1339 N 0.67783 0.40236 0.69679
 N1340 N 0.67105 0.39029 0.69000
 C1341 C 0.67709 0.38397 0.67691
 N1342 N 0.69017 0.39030 0.67088
 C1343 C 0.69841 0.42133 0.69825
 C1344 C 0.70483 0.43191 0.70468
 C1345 C 0.71260 0.44436 0.71245
 N1346 N 0.70684 0.45018 0.72584
 N1347 N 0.71425 0.46149 0.73326
 C1348 C 0.72766 0.46736 0.72753
 N1349 N 0.73338 0.46152 0.71410
 N1350 N 0.72597 0.45021 0.70669
 N1351 N 0.67765 -0.09786 0.19703
 C1352 C 0.69070 -0.09165 0.19094
 N1353 N 0.69676 -0.09787 0.17788
 N1354 N 0.68999 -0.10997 0.17114
 C1355 C 0.67691 -0.11630 0.17719
 N1356 N 0.67088 -0.10996 0.19027
 C1357 C 0.69822 -0.07888 0.19843
 C1358 C 0.70464 -0.06827 0.20483
 C1359 C 0.71242 -0.05580 0.21256
 N1360 N 0.72581 -0.05000 0.20679
 N1361 N 0.73322 -0.03867 0.21417
 C1362 C 0.72750 -0.03277 0.22756
 N1363 N 0.71406 -0.03859 0.23329
 N1364 N 0.70665 -0.04992 0.22591
 N1365 N 0.17766 0.40221 0.19714
 C1366 C 0.19068 0.40847 0.19103
 N1367 N 0.19674 0.40226 0.17797
 N1368 N 0.19000 0.39014 0.17123
 C1369 C 0.17695 0.38376 0.17732
 N1370 N 0.17092 0.39009 0.19040
 C1371 C 0.19817 0.42127 0.19850
 C1372 C 0.20457 0.43190 0.20488
 C1373 C 0.21232 0.44439 0.21259
 N1374 N 0.22570 0.45021 0.20681
 N1375 N 0.23310 0.46157 0.21417
 C1376 C 0.22737 0.46747 0.22756
 N1377 N 0.21395 0.46163 0.23330
 N1378 N 0.20655 0.45028 0.22594
 N1379 N 0.19661 -0.09780 0.67790
 C1380 C 0.19057 -0.09161 0.69098
 N1381 N 0.17754 -0.09786 0.69709
 N1382 N 0.17077 -0.10994 0.69032
 C1383 C 0.17678 -0.11624 0.67721
 N1384 N 0.18983 -0.10988 0.67114
 C1385 C 0.19809 -0.07885 0.69849
 C1386 C 0.20452 -0.06825 0.70489
 C1387 C 0.21230 -0.05579 0.71264
 N1388 N 0.20657 -0.04996 0.72603
 N1389 N 0.21399 -0.03864 0.73341
 C1390 C 0.22739 -0.03278 0.72766
 N1391 N 0.23309 -0.03863 0.71423
 N1392 N 0.22566 -0.04995 0.70684
 N1393 N 0.32210 0.30286 0.40251
 C1394 C 0.30907 0.30897 0.40874
 N1395 N 0.30301 0.32205 0.40254
 N1396 N 0.30978 0.32880 0.39044
 C1397 C 0.32284 0.32272 0.38409
 N1398 N 0.32887 0.30962 0.39041
 C1399 C 0.30156 0.30148 0.42152
 C1400 C 0.29514 0.29508 0.43213
 C1401 C 0.28738 0.28734 0.44460
 N1402 N 0.27400 0.29312 0.45043
 N1403 N 0.26659 0.28573 0.46177
 C1404 C 0.27232 0.27231 0.46764
 N1405 N 0.28574 0.26657 0.46179
 N1406 N 0.29315 0.27396 0.45046
 N1407 N 0.32245 0.80323 -0.09789
 C1408 C 0.30941 0.80933 -0.09165
 N1409 N 0.30332 0.82238 -0.09788
 N1410 N 0.31005 0.82911 -0.11001
 C1411 C 0.32311 0.82304 -0.11637
 N1412 N 0.32918 0.80997 -0.11002
 C1413 C 0.30193 0.80185 -0.07885
 C1414 C 0.29554 0.79546 -0.06822
 C1415 C 0.28779 0.78774 -0.05572
 N1416 N 0.27440 0.79350 -0.04991
 N1417 N 0.26701 0.78613 -0.03856
 C1418 C 0.27276 0.77273 -0.03266
 N1419 N 0.28619 0.76700 -0.03849
 N1420 N 0.29358 0.77438 -0.04984
 N1421 N 0.82246 0.30329 -0.09783
 C1422 C 0.80940 0.30936 -0.09160
 N1423 N 0.80328 0.32239 -0.09784
 N1424 N 0.81002 0.32914 -0.10995
 C1425 C 0.82311 0.32311 -0.11629
 N1426 N 0.82919 0.31005 -0.10994
 C1427 C 0.80192 0.30185 -0.07881
 C1428 C 0.79554 0.29544 -0.06819
 C1429 C 0.78782 0.28768 -0.05570
 N1430 N 0.77445 0.29344 -0.04983
 N1431 N 0.76708 0.28603 -0.03849
 C1432 C 0.77283 0.27261 -0.03265
 N1433 N 0.78624 0.26689 -0.03854
 N1434 N 0.79361 0.27430 -0.04988
 N1435 N 0.82203 0.80333 0.40249
 C1436 C 0.80896 0.80939 0.40871
 N1437 N 0.80286 0.82243 0.40246
 N1438 N 0.80960 0.82918 0.39035
 C1439 C 0.82270 0.82314 0.38403
 N1440 N 0.82878 0.81009 0.39038
 C1441 C 0.80148 0.80190 0.42149
 C1442 C 0.79509 0.79548 0.43211
 C1443 C 0.78736 0.78772 0.44459
 N1444 N 0.77398 0.79347 0.45045
 N1445 N 0.76660 0.78607 0.46178
 C1446 C 0.77236 0.77265 0.46764
 N1447 N 0.78579 0.76694 0.46177
 N1448 N 0.79316 0.77435 0.45043
 N1449 N 0.67764 0.30327 0.59730
 C1450 C 0.69070 0.30934 0.59108
 N1451 N 0.69680 0.32237 0.59732
 N1452 N 0.69005 0.32911 0.60944
 C1453 C 0.67697 0.32308 0.61577
 N1454 N 0.67090 0.31003 0.60941
 C1455 C 0.69819 0.30184 0.57829
 C1456 C 0.70459 0.29544 0.56768
 C1457 C 0.71234 0.28768 0.55520
 N1458 N 0.72570 0.29346 0.54934
 N1459 N 0.73310 0.28606 0.53801
 C1460 C 0.72738 0.27263 0.53216
 N1461 N 0.71398 0.26690 0.53804
 N1462 N 0.70658 0.27430 0.54937
 N1463 N 0.69664 0.82198 1.09772
 C1464 C 0.69055 0.80893 1.09150
 N1465 N 0.67750 0.80286 1.09774
 N1466 N 0.67076 0.80962 1.10985
 C1467 C 0.67682 0.82270 1.11618
 N1468 N 0.68989 0.82874 1.10983
 C1469 C 0.69805 0.80143 1.07872
 C1470 C 0.70445 0.79503 1.06811
 C1471 C 0.71222 0.78729 1.05563
 N1472 N 0.70646 0.77392 1.04977
 N1473 N 0.71387 0.76654 1.03843
 C1474 C 0.72729 0.77228 1.03259
 N1475 N 0.73300 0.78570 1.03846
 N1476 N 0.72559 0.79307 1.04980
 N1477 N 0.17776 0.30289 1.09790
 C1478 C 0.19078 0.30901 1.09165
 N1479 N 0.19683 0.32208 1.09786
 N1480 N 0.19007 0.32882 1.10997
 C1481 C 0.17702 0.32273 1.11633
 N1482 N 0.17100 0.30964 1.11001
 C1483 C 0.19829 0.30152 1.07886
 C1484 C 0.20470 0.29513 1.06825
 C1485 C 0.21246 0.28739 1.05577
 N1486 N 0.22582 0.29318 1.04992
 N1487 N 0.23323 0.28579 1.03858
 C1488 C 0.22751 0.27237 1.03272
 N1489 N 0.21410 0.26663 1.03858
 N1490 N 0.20670 0.27402 1.04992
 N1491 N 0.17737 0.80308 0.59760
 C1492 C 0.19040 0.80919 0.59135
 N1493 N 0.19647 0.82224 0.59759
 N1494 N 0.18972 0.82896 0.60971
 C1495 C 0.17667 0.82288 0.61607
 N1496 N 0.17063 0.80981 0.60972
 C1497 C 0.19789 0.80173 0.57855
 C1498 C 0.20430 0.79536 0.56792
 C1499 C 0.21206 0.78765 0.55542
 N1500 N 0.22543 0.79344 0.54960
 N1501 N 0.23284 0.78609 0.53825
 C1502 C 0.22713 0.77268 0.53235
 N1503 N 0.21372 0.76692 0.53820
 N1504 N 0.20631 0.77428 0.54955
 N1505 N 0.32210 0.69694 0.59743
 C1506 C 0.30906 0.69085 0.59121
 N1507 N 0.30299 0.67779 0.59744
 N1508 N 0.30975 0.67104 0.60954
 C1509 C 0.32282 0.67710 0.61588
 N1510 N 0.32886 0.69018 0.60954
 C1511 C 0.30155 0.69834 0.57843
 C1512 C 0.29514 0.70475 0.56782
 C1513 C 0.28739 0.71251 0.55535
 N1514 N 0.27403 0.70673 0.54949
 N1515 N 0.26664 0.71413 0.53816
 C1516 C 0.27235 0.72756 0.53231
 N1517 N 0.28576 0.73330 0.53819
 N1518 N 0.29315 0.72589 0.54952
 N1519 N 0.32248 0.19673 1.09789
 C1520 C 0.30943 0.19065 1.09167
 N1521 N 0.30334 0.17762 1.09792
 N1522 N 0.31008 0.17088 1.11004
 C1523 C 0.32315 0.17693 1.11638
 N1524 N 0.32922 0.18999 1.11002
 C1525 C 0.30195 0.19813 1.07887
 C1526 C 0.29554 0.20452 1.06825
 C1527 C 0.28779 0.21225 1.05576
 N1528 N 0.27442 0.20646 1.04993
 N1529 N 0.26702 0.21384 1.03858
 C1530 C 0.27273 0.22726 1.03271
 N1531 N 0.28614 0.23300 1.03856
 N1532 N 0.29354 0.22562 1.04990
 N1533 N 0.80302 0.67736 1.09776
 C1534 C 0.80911 0.69040 1.09151
 N1535 N 0.82217 0.69647 1.09772
 N1536 N 0.82892 0.68972 1.10983
 C1537 C 0.82286 0.67666 1.11620
 N1538 N 0.80978 0.67062 1.10987
 C1539 C 0.80162 0.69789 1.07872
 C1540 C 0.79522 0.70430 1.06811
 C1541 C 0.78749 0.71206 1.05563
 N1542 N 0.79326 0.72545 1.04980
 N1543 N 0.78588 0.73286 1.03847
 C1544 C 0.77248 0.72713 1.03258
 N1545 N 0.76675 0.71370 1.03842
 N1546 N 0.77413 0.70629 1.04976
 N1547 N 0.82226 0.19698 0.59747
 C1548 C 0.80922 0.19089 0.59123
 N1549 N 0.80314 0.17785 0.59746
 N1550 N 0.80988 0.17111 0.60959
 C1551 C 0.82294 0.17717 0.61594
 N1552 N 0.82899 0.19024 0.60959
 C1553 C 0.80174 0.19838 0.57843
 C1554 C 0.79535 0.20477 0.56780
 C1555 C 0.78761 0.21250 0.55530
 N1556 N 0.77425 0.20671 0.54946
 N1557 N 0.76686 0.21408 0.53810
 C1558 C 0.77258 0.22750 0.53223
 N1559 N 0.78598 0.23325 0.53809
 N1560 N 0.79337 0.22587 0.54944
 N1561 N 0.67765 0.69682 0.40248
 C1562 C 0.69070 0.69074 0.40871
 N1563 N 0.69680 0.67770 0.40248
 N1564 N 0.69006 0.67095 0.39037
 C1565 C 0.67699 0.67701 0.38403
 N1566 N 0.67092 0.69008 0.39037
 C1567 C 0.69818 0.69823 0.42150
 C1568 C 0.70457 0.70463 0.43212
 C1569 C 0.71230 0.71238 0.44460
 N1570 N 0.72568 0.70662 0.45045
 N1571 N 0.73306 0.71402 0.46179
 C1572 C 0.72730 0.72743 0.46765
 N1573 N 0.71387 0.73315 0.46179
 N1574 N 0.70650 0.72575 0.45045
 N1575 N 0.69712 0.17767 -0.09772
 C1576 C 0.69103 0.19072 -0.09150
 N1577 N 0.67796 0.19679 -0.09771
 N1578 N 0.67121 0.19003 -0.10981
 C1579 C 0.67728 0.17695 -0.11615
 N1580 N 0.69036 0.17091 -0.10982
 C1581 C 0.69853 0.19822 -0.07873
 C1582 C 0.70493 0.20463 -0.06812
 C1583 C 0.71268 0.21238 -0.05566
 N1584 N 0.70690 0.22575 -0.04980
 N1585 N 0.71430 0.23315 -0.03847
 C1586 C 0.72772 0.22742 -0.03263
 N1587 N 0.73346 0.21400 -0.03849
 N1588 N 0.72606 0.20661 -0.04982
 N1589 N 0.19723 0.67769 -0.09777
 C1590 C 0.19113 0.69073 -0.09154
 N1591 N 0.17807 0.69680 -0.09776
 N1592 N 0.17132 0.69004 -0.10986
 C1593 C 0.17739 0.67697 -0.11620
 N1594 N 0.19048 0.67093 -0.10987
 C1595 C 0.19862 0.69823 -0.07876
 C1596 C 0.20500 0.70465 -0.06815
 C1597 C 0.21272 0.71243 -0.05567
 N1598 N 0.20691 0.72580 -0.04986
 N1599 N 0.21427 0.73322 -0.03852
 C1600 C 0.22769 0.72752 -0.03264
 N1601 N 0.23346 0.71410 -0.03847
 N1602 N 0.22609 0.70668 -0.04980
 N1603 N 0.17757 0.19674 0.40233
 C1604 C 0.19060 0.19063 0.40857
 N1605 N 0.19671 0.17760 0.40232
 N1606 N 0.18999 0.17089 0.39018
 C1607 C 0.17693 0.17696 0.38383
 N1608 N 0.17085 0.19002 0.39018
 C1609 C 0.19806 0.19810 0.42138
 C1610 C 0.20444 0.20447 0.43202
 C1611 C 0.21216 0.21219 0.44453
 N1612 N 0.22553 0.20641 0.45039
 N1613 N 0.23290 0.21378 0.46174
 C1614 C 0.22716 0.22719 0.46761
 N1615 N 0.21375 0.23294 0.46174
 N1616 N 0.20638 0.22556 0.45038
 N1617 N 0.32198 0.40236 0.69691
 C1618 C 0.30891 0.40858 0.69085
 N1619 N 0.30281 0.40235 0.67783
 N1620 N 0.30957 0.39024 0.67107
 C1621 C 0.32266 0.38390 0.67709
 N1622 N 0.32873 0.39025 0.69014
 C1623 C 0.30142 0.42138 0.69836
 C1624 C 0.29503 0.43200 0.70477
 C1625 C 0.28730 0.44449 0.71253
 N1626 N 0.27391 0.45036 0.70680
 N1627 N 0.26655 0.46171 0.71420
 C1628 C 0.27232 0.46758 0.72759
 N1629 N 0.28575 0.46170 0.73328
 N1630 N 0.29311 0.45034 0.72587
 N1631 N 0.32225 0.90291 0.19669
 C1632 C 0.30918 0.90913 0.19064
 N1633 N 0.30308 0.90291 0.17761
 N1634 N 0.30984 0.89080 0.17084
 C1635 C 0.32294 0.88447 0.17686
 N1636 N 0.32900 0.89080 0.18992
 C1637 C 0.30169 0.92192 0.19815
 C1638 C 0.29529 0.93253 0.20457
 C1639 C 0.28755 0.94501 0.21234
 N1640 N 0.27419 0.95090 0.20657
 N1641 N 0.26681 0.96225 0.21398
 C1642 C 0.27253 0.96807 0.22740
 N1643 N 0.28593 0.96216 0.23313
 N1644 N 0.29331 0.95082 0.22572
 N1645 N 0.80353 0.40242 0.17750
 C1646 C 0.80959 0.40864 0.19055
 N1647 N 0.82263 0.40241 0.19664
 N1648 N 0.82940 0.39029 0.18990
 C1649 C 0.82337 0.38396 0.17682
 N1650 N 0.81030 0.39030 0.17076
 C1651 C 0.80207 0.42143 0.19804
 C1652 C 0.79565 0.43204 0.20443
 C1653 C 0.78789 0.44452 0.21218
 N1654 N 0.79363 0.45035 0.22556
 N1655 N 0.78623 0.46169 0.23295
 C1656 C 0.77282 0.46757 0.22721
 N1657 N 0.76711 0.46172 0.21378
 N1658 N 0.77452 0.45039 0.20639
 N1659 N 0.82214 0.90254 0.69695
 C1660 C 0.80907 0.90876 0.69089
 N1661 N 0.80299 0.90254 0.67786
 N1662 N 0.80975 0.89044 0.67109
 C1663 C 0.82285 0.88410 0.67712
 N1664 N 0.82890 0.89044 0.69018
 C1665 C 0.80156 0.92154 0.69840
 C1666 C 0.79516 0.93216 0.70481
 C1667 C 0.78741 0.94464 0.71257
 N1668 N 0.77402 0.95049 0.70683
 N1669 N 0.76663 0.96183 0.71423
 C1670 C 0.77238 0.96769 0.72763
 N1671 N 0.78580 0.96182 0.73333
 N1672 N 0.79319 0.95048 0.72593
 N1673 N 0.67784 0.59756 0.69718
 C1674 C 0.69088 0.59132 0.69108
 N1675 N 0.69693 0.59754 0.67802
 N1676 N 0.69016 0.60965 0.67127
 C1677 C 0.67709 0.61599 0.67734
 N1678 N 0.67106 0.60966 0.69042
 C1679 C 0.69840 0.57854 0.69857
 C1680 C 0.70482 0.56792 0.70496
 C1681 C 0.71259 0.55542 0.71268
 N1682 N 0.72596 0.54959 0.70689
 N1683 N 0.73337 0.53823 0.71425
 C1684 C 0.72766 0.53235 0.72766
 N1685 N 0.71425 0.53820 0.73341
 N1686 N 0.70684 0.54955 0.72604
 N1687 N 0.69707 0.09737 0.17759
 C1688 C 0.69097 0.09114 0.19061
 N1689 N 0.67788 0.09734 0.19665
 N1690 N 0.67112 0.10944 0.18987
 C1691 C 0.67720 0.11579 0.17682
 N1692 N 0.69031 0.10947 0.17081
 C1693 C 0.69847 0.07836 0.19813
 C1694 C 0.70487 0.06775 0.20456
 C1695 C 0.71260 0.05527 0.21234
 N1696 N 0.70682 0.04946 0.22572
 N1697 N 0.71419 0.03812 0.23314
 C1698 C 0.72761 0.03222 0.22743
 N1699 N 0.73336 0.03805 0.21401
 N1700 N 0.72598 0.04939 0.20659
 N1701 N 0.17771 0.59762 0.19666
 C1702 C 0.19078 0.59139 0.19060
 N1703 N 0.19688 0.59762 0.17756
 N1704 N 0.19012 0.60973 0.17080
 C1705 C 0.17703 0.61607 0.17683
 N1706 N 0.17096 0.60973 0.18989
 C1707 C 0.19828 0.57861 0.19811
 C1708 C 0.20467 0.56800 0.20453
 C1709 C 0.21241 0.55552 0.21231
 N1710 N 0.22578 0.54964 0.20656
 N1711 N 0.23317 0.53830 0.21397
 C1712 C 0.22743 0.53247 0.22739
 N1713 N 0.21401 0.53837 0.23310
 N1714 N 0.20663 0.54970 0.22568
 N1715 N 0.17759 0.09742 0.69722
 C1716 C 0.19063 0.09117 0.69112
 N1717 N 0.19668 0.09737 0.67805
 N1718 N 0.18991 0.10947 0.67129
 C1719 C 0.17685 0.11584 0.67736
 N1720 N 0.17083 0.10953 0.69045
 C1721 C 0.19814 0.07839 0.69862
 C1722 C 0.20455 0.06777 0.70502
 C1723 C 0.21233 0.05528 0.71274
 N1724 N 0.22569 0.04943 0.70694
 N1725 N 0.23310 0.03808 0.71431
 C1726 C 0.22740 0.03221 0.72773
 N1727 N 0.21400 0.03808 0.73349
 N1728 N 0.20659 0.04943 0.72612
 N1729 N 0.30317 0.59772 0.32215
 C1730 C 0.30925 0.59149 0.30910
 N1731 N 0.32229 0.59773 0.30302
 N1732 N 0.32904 0.60984 0.30976
 C1733 C 0.32299 0.61618 0.32283
 N1734 N 0.30992 0.60983 0.32889
 C1735 C 0.30176 0.57870 0.30162
 C1736 C 0.29536 0.56808 0.29524
 C1737 C 0.28761 0.55559 0.28752
 N1738 N 0.29338 0.54970 0.27416
 N1739 N 0.28599 0.53835 0.26680
 C1740 C 0.27256 0.53251 0.27253
 N1741 N 0.26683 0.53841 0.28593
 N1742 N 0.27423 0.54976 0.29329
 N1743 N 0.30330 0.09724 0.82249
 C1744 C 0.30937 0.09102 0.80944
 N1745 N 0.32242 0.09725 0.80336
 N1746 N 0.32917 0.10935 0.81011
 C1747 C 0.32313 0.11569 0.82319
 N1748 N 0.31006 0.10934 0.82924
 C1749 C 0.30187 0.07824 0.80194
 C1750 C 0.29547 0.06763 0.79554
 C1751 C 0.28771 0.05516 0.78780
 N1752 N 0.29346 0.04933 0.77441
 N1753 N 0.28605 0.03800 0.76702
 C1754 C 0.27265 0.03212 0.77277
 N1755 N 0.26695 0.03796 0.78620
 N1756 N 0.27435 0.04929 0.79359
 N1757 N 0.80350 0.59737 0.82243
 C1758 C 0.80957 0.59115 0.80938
 N1759 N 0.82261 0.59740 0.80329
 N1760 N 0.82935 0.60951 0.81004
 C1761 C 0.82331 0.61584 0.82311
 N1762 N 0.81025 0.60948 0.82918
 C1763 C 0.80208 0.57837 0.80189
 C1764 C 0.79568 0.56775 0.79549
 C1765 C 0.78792 0.55527 0.78775
 N1766 N 0.79368 0.54943 0.77438
 N1767 N 0.78628 0.53810 0.76698
 C1768 C 0.77287 0.53224 0.77272
 N1769 N 0.76715 0.53809 0.78614
 N1770 N 0.77456 0.54942 0.79353
 N1771 N 0.80342 0.09739 0.32219
 C1772 C 0.80950 0.09115 0.30915
 N1773 N 0.82255 0.09736 0.30307
 N1774 N 0.82931 0.10947 0.30981
 C1775 C 0.82326 0.11582 0.32287
 N1776 N 0.81018 0.10950 0.32893
 C1777 C 0.80200 0.07836 0.30167
 C1778 C 0.79558 0.06774 0.29528
 C1779 C 0.78782 0.05526 0.28756
 N1780 N 0.79359 0.04937 0.27421
 N1781 N 0.78618 0.03803 0.26684
 C1782 C 0.77275 0.03221 0.27258
 N1783 N 0.76702 0.03811 0.28597
 N1784 N 0.77443 0.04945 0.29333
 N1785 N 0.69679 0.40233 0.32183
 C1786 C 0.69075 0.40854 0.30876
 N1787 N 0.67772 0.40230 0.30266
 N1788 N 0.67096 0.39020 0.30941
 C1789 C 0.67697 0.38387 0.32250
 N1790 N 0.69002 0.39022 0.32858
 C1791 C 0.69826 0.42133 0.30129
 C1792 C 0.70469 0.43195 0.29491
 C1793 C 0.71246 0.44444 0.28720
 N1794 N 0.70673 0.45032 0.27383
 N1795 N 0.71414 0.46167 0.26648
 C1796 C 0.72755 0.46751 0.27224
 N1797 N 0.73325 0.46160 0.28565
 N1798 N 0.72583 0.45026 0.29300
 N1799 N 0.69668 0.90254 0.82254
 C1800 C 0.69059 0.90879 0.80951
 N1801 N 0.67753 0.90258 0.80344
 N1802 N 0.67078 0.89047 0.81019
 C1803 C 0.67683 0.88411 0.82324
 N1804 N 0.68992 0.89043 0.82928
 C1805 C 0.69809 0.92158 0.80202
 C1806 C 0.70449 0.93219 0.79561
 C1807 C 0.71224 0.94468 0.78786
 N1808 N 0.70645 0.95054 0.77451
 N1809 N 0.71384 0.96188 0.76711
 C1810 C 0.72726 0.96773 0.77282
 N1811 N 0.73301 0.96185 0.78622
 N1812 N 0.72562 0.95051 0.79361
 N1813 N 0.17757 0.40259 0.80360
 C1814 C 0.19064 0.40879 0.80965
 N1815 N 0.19674 0.40254 0.82268
 N1816 N 0.18998 0.39043 0.82943
 C1817 C 0.17689 0.38412 0.82341
 N1818 N 0.17082 0.39048 0.81036
 C1819 C 0.19814 0.42157 0.80215
 C1820 C 0.20454 0.43218 0.79573
 C1821 C 0.21227 0.44466 0.78795
 N1822 N 0.22567 0.45049 0.79368
 N1823 N 0.23305 0.46182 0.78626
 C1824 C 0.22729 0.46769 0.77286
 N1825 N 0.21385 0.46184 0.76718
 N1826 N 0.20647 0.45051 0.77460
 N1827 N 0.17754 0.90291 0.30303
 C1828 C 0.19058 0.90914 0.30911
 N1829 N 0.19665 0.90291 0.32216
 N1830 N 0.18989 0.89080 0.32891
 C1831 C 0.17683 0.88446 0.32285
 N1832 N 0.17079 0.89080 0.30978
 C1833 C 0.19808 0.92193 0.30162
 C1834 C 0.20450 0.93254 0.29523
 C1835 C 0.21226 0.94503 0.28750
 N1836 N 0.22563 0.95085 0.29328
 N1837 N 0.23305 0.96220 0.28591
 C1838 C 0.22733 0.96808 0.27251
 N1839 N 0.21392 0.96224 0.26676
 N1840 N 0.20651 0.95090 0.27413
 N1841 N 0.40222 0.30304 0.67773
 C1842 C 0.40846 0.30913 0.69077
 N1843 N 0.40222 0.32218 0.69684
 N1844 N 0.39011 0.32893 0.69010
 C1845 C 0.38376 0.32288 0.67704
 N1846 N 0.39010 0.30980 0.67099
 C1847 C 0.42126 0.30163 0.69825
 C1848 C 0.43188 0.29523 0.70464
 C1849 C 0.44438 0.28749 0.71238
 N1850 N 0.45023 0.29327 0.72574
 N1851 N 0.46159 0.28588 0.73312
 C1852 C 0.46746 0.27247 0.72740
 N1853 N 0.46160 0.26673 0.71400
 N1854 N 0.45024 0.27412 0.70662
 N1855 N 0.40248 0.80359 0.17747
 C1856 C 0.40871 0.80966 0.19051
 N1857 N 0.40248 0.82271 0.19659
 N1858 N 0.39037 0.82947 0.18984
 C1859 C 0.38403 0.82343 0.17678
 N1860 N 0.39037 0.81036 0.17072
 C1861 C 0.42149 0.80215 0.19800
 C1862 C 0.43211 0.79573 0.20440
 C1863 C 0.44459 0.78797 0.21215
 N1864 N 0.45043 0.79374 0.22552
 N1865 N 0.46176 0.78633 0.23292
 C1866 C 0.46762 0.77291 0.22720
 N1867 N 0.46176 0.76718 0.21379
 N1868 N 0.45043 0.77459 0.20639
 N1869 N 0.90284 0.32216 0.19672
 C1870 C 0.90907 0.30910 0.19066
 N1871 N 0.90285 0.30301 0.17762
 N1872 N 0.89075 0.30978 0.17086
 C1873 C 0.88441 0.32286 0.17689
 N1874 N 0.89074 0.32892 0.18996
 C1875 C 0.92186 0.30159 0.19817
 C1876 C 0.93247 0.29519 0.20458
 C1877 C 0.94495 0.28744 0.21233
 N1878 N 0.95082 0.27407 0.20657
 N1879 N 0.96217 0.26667 0.21397
 C1880 C 0.96801 0.27241 0.22738
 N1881 N 0.96212 0.28582 0.23311
 N1882 N 0.95078 0.29321 0.22571
 N1883 N 0.90244 0.80327 0.67770
 C1884 C 0.90867 0.80934 0.69074
 N1885 N 0.90244 0.82239 0.69682
 N1886 N 0.89031 0.82914 0.69008
 C1887 C 0.88397 0.82310 0.67702
 N1888 N 0.89032 0.81002 0.67097
 C1889 C 0.92147 0.80185 0.69822
 C1890 C 0.93210 0.79544 0.70461
 C1891 C 0.94460 0.78770 0.71234
 N1892 N 0.95046 0.79347 0.72569
 N1893 N 0.96181 0.78608 0.73308
 C1894 C 0.96768 0.77266 0.72735
 N1895 N 0.96181 0.76693 0.71395
 N1896 N 0.95045 0.77432 0.70657
 N1897 N 0.59752 0.30297 0.32181
 C1898 C 0.59131 0.30903 0.30874
 N1899 N 0.59754 0.32207 0.30265
 N1900 N 0.60964 0.32883 0.30940
 C1901 C 0.61596 0.32281 0.32249
 N1902 N 0.60962 0.30974 0.32855
 C1903 C 0.57853 0.30152 0.30126
 C1904 C 0.56791 0.29510 0.29488
 C1905 C 0.55543 0.28733 0.28716
 N1906 N 0.54953 0.29309 0.27381
 N1907 N 0.53819 0.28568 0.26645
 C1908 C 0.53236 0.27226 0.27220
 N1909 N 0.53827 0.26653 0.28559
 N1910 N 0.54962 0.27395 0.29295
 N1911 N 0.59733 0.82243 0.80340
 C1912 C 0.59111 0.80936 0.80946
 N1913 N 0.59735 0.80326 0.82249
 N1914 N 0.60946 0.81000 0.82924
 C1915 C 0.61579 0.82309 0.82321
 N1916 N 0.60944 0.82917 0.81016
 C1917 C 0.57833 0.80188 0.80195
 C1918 C 0.56772 0.79549 0.79554
 C1919 C 0.55524 0.78775 0.78778
 N1920 N 0.54937 0.77439 0.79355
 N1921 N 0.53803 0.76701 0.78614
 C1922 C 0.53220 0.77274 0.77272
 N1923 N 0.53809 0.78615 0.76700
 N1924 N 0.54942 0.79353 0.77440
 N1925 N 0.09740 0.30329 0.82267
 C1926 C 0.09116 0.30939 0.80964
 N1927 N 0.09738 0.32246 0.80359
 N1928 N 0.10949 0.32920 0.81035
 C1929 C 0.11584 0.32312 0.82340
 N1930 N 0.10951 0.31003 0.82943
 C1931 C 0.07838 0.30191 0.80214
 C1932 C 0.06777 0.29552 0.79573
 C1933 C 0.05529 0.28780 0.78796
 N1934 N 0.04948 0.29358 0.77458
 N1935 N 0.03814 0.28620 0.76717
 C1936 C 0.03225 0.27279 0.77289
 N1937 N 0.03807 0.26705 0.78631
 N1938 N 0.04941 0.27443 0.79372
 N1939 N 0.09741 0.80354 0.32210
 C1940 C 0.09119 0.80961 0.30904
 N1941 N 0.09742 0.82267 0.30296
 N1942 N 0.10951 0.82943 0.30973
 C1943 C 0.11583 0.82339 0.32281
 N1944 N 0.10950 0.81031 0.32886
 C1945 C 0.07842 0.80210 0.30154
 C1946 C 0.06782 0.79567 0.29515
 C1947 C 0.05536 0.78789 0.28742
 N1948 N 0.04948 0.79364 0.27405
 N1949 N 0.03816 0.78621 0.26668
 C1950 C 0.03233 0.77278 0.27243
 N1951 N 0.03822 0.76708 0.28584
 N1952 N 0.04955 0.77451 0.29321
 N1953 N 0.59751 0.69685 0.67801
 C1954 C 0.59130 0.69080 0.69107
 N1955 N 0.59755 0.67776 0.69717
 N1956 N 0.60966 0.67100 0.69042
 C1957 C 0.61598 0.67703 0.67733
 N1958 N 0.60962 0.69009 0.67126
 C1959 C 0.57850 0.69830 0.69855
 C1960 C 0.56788 0.70472 0.70494
 C1961 C 0.55538 0.71249 0.71265
 N1962 N 0.54950 0.70673 0.72601
 N1963 N 0.53814 0.71414 0.73337
 C1964 C 0.53230 0.72756 0.72762
 N1965 N 0.53820 0.73328 0.71423
 N1966 N 0.54955 0.72587 0.70687
 N1967 N 0.59758 0.19659 0.17736
 C1968 C 0.59133 0.19050 0.19039
 N1969 N 0.59756 0.17744 0.19647
 N1970 N 0.60969 0.17070 0.18973
 C1971 C 0.61605 0.17677 0.17668
 N1972 N 0.60971 0.18985 0.17063
 C1973 C 0.57852 0.19798 0.19787
 C1974 C 0.56789 0.20437 0.20427
 C1975 C 0.55539 0.21209 0.21203
 N1976 N 0.54958 0.20631 0.22540
 N1977 N 0.53823 0.21369 0.23281
 C1978 C 0.53232 0.22709 0.22709
 N1979 N 0.53815 0.23284 0.21367
 N1980 N 0.54950 0.22546 0.20627
 N1981 N 0.09755 0.69701 0.17755
 C1982 C 0.09131 0.69092 0.19059
 N1983 N 0.09753 0.67785 0.19665
 N1984 N 0.10964 0.67109 0.18989
 C1985 C 0.11599 0.67715 0.17683
 N1986 N 0.10966 0.69024 0.17079
 C1987 C 0.07853 0.69842 0.19809
 C1988 C 0.06792 0.70482 0.20451
 C1989 C 0.05543 0.71256 0.21227
 N1990 N 0.04963 0.70679 0.22566
 N1991 N 0.03828 0.71417 0.23307
 C1992 C 0.03238 0.72758 0.22734
 N1993 N 0.03820 0.73330 0.21391
 N1994 N 0.04954 0.72592 0.20650
 N1995 N 0.09742 0.17771 0.69723
 C1996 C 0.09118 0.19076 0.69114
 N1997 N 0.09739 0.19680 0.67807
 N1998 N 0.10948 0.19002 0.67131
 C1999 C 0.11583 0.17695 0.67737
 N2000 N 0.10951 0.17093 0.69047
 C2001 C 0.07841 0.19829 0.69864
 C2002 C 0.06781 0.20472 0.70504
 C2003 C 0.05534 0.21251 0.71277
 N2004 N 0.04952 0.22590 0.70699
 N2005 N 0.03819 0.23333 0.71437
 C2006 C 0.03229 0.22762 0.72777
 N2007 N 0.03812 0.21418 0.73351
 N2008 N 0.04946 0.20676 0.72613
 N2009 N 0.40241 0.67799 0.30294
 C2010 C 0.40862 0.69104 0.30901
 N2011 N 0.40239 0.69712 0.32206
 N2012 N 0.39029 0.69035 0.32882
 C2013 C 0.38396 0.67727 0.32278
 N2014 N 0.39031 0.67122 0.30971
 C2015 C 0.42140 0.69855 0.30152
 C2016 C 0.43201 0.70496 0.29511
 C2017 C 0.44449 0.71271 0.28737
 N2018 N 0.45033 0.72608 0.29313
 N2019 N 0.46168 0.73348 0.28574
 C2020 C 0.46755 0.72774 0.27234
 N2021 N 0.46170 0.71432 0.26662
 N2022 N 0.45035 0.70693 0.27401
 N2023 N 0.40253 0.17748 0.80326
 C2024 C 0.40875 0.19054 0.80933
 N2025 N 0.40253 0.19661 0.82238
 N2026 N 0.39044 0.18984 0.82915
 C2027 C 0.38411 0.17675 0.82312
 N2028 N 0.39044 0.17071 0.81004
 C2029 C 0.42151 0.19805 0.80181
 C2030 C 0.43210 0.20447 0.79539
 C2031 C 0.44456 0.21224 0.78762
 N2032 N 0.45039 0.22562 0.79337
 N2033 N 0.46171 0.23303 0.78597
 C2034 C 0.46757 0.22731 0.77255
 N2035 N 0.46172 0.21388 0.76684
 N2036 N 0.45040 0.20647 0.77425
 N2037 N 0.90266 0.67771 0.80319
 C2038 C 0.90886 0.69078 0.80925
 N2039 N 0.90263 0.69685 0.82229
 N2040 N 0.89054 0.69008 0.82906
 C2041 C 0.88422 0.67698 0.82303
 N2042 N 0.89057 0.67094 0.80996
 C2043 C 0.92163 0.69829 0.80174
 C2044 C 0.93223 0.70470 0.79532
 C2045 C 0.94470 0.71246 0.78755
 N2046 N 0.95054 0.72583 0.79331
 N2047 N 0.96187 0.73323 0.78590
 C2048 C 0.96773 0.72750 0.77249
 N2049 N 0.96186 0.71408 0.76677
 N2050 N 0.95053 0.70668 0.77418
 N2051 N 0.90277 0.19666 0.32216
 C2052 C 0.90901 0.19057 0.30912
 N2053 N 0.90278 0.17751 0.30305
 N2054 N 0.89067 0.17077 0.30980
 C2055 C 0.88431 0.17683 0.32286
 N2056 N 0.89065 0.18991 0.32890
 C2057 C 0.92180 0.19805 0.30164
 C2058 C 0.93243 0.20445 0.29524
 C2059 C 0.94492 0.21220 0.28751
 N2060 N 0.95079 0.20643 0.27415
 N2061 N 0.96214 0.21382 0.26678
 C2062 C 0.96800 0.22724 0.27251
 N2063 N 0.96211 0.23297 0.28591
 N2064 N 0.95076 0.22557 0.29329
 N2065 N 0.32197 0.30300 0.59768
 C2066 C 0.30890 0.30906 0.59147
 N2067 N 0.30280 0.32211 0.59770
 N2068 N 0.30956 0.32887 0.60979
 C2069 C 0.32266 0.32284 0.61611
 N2070 N 0.32872 0.30977 0.60977
 C2071 C 0.30140 0.30156 0.57870
 C2072 C 0.29501 0.29514 0.56810
 C2073 C 0.28727 0.28739 0.55563
 N2074 N 0.27390 0.29316 0.54977
 N2075 N 0.26651 0.28576 0.53844
 C2076 C 0.27225 0.27233 0.53259
 N2077 N 0.28567 0.26660 0.53846
 N2078 N 0.29305 0.27400 0.54979
 N2079 N 0.30310 0.82271 0.09742
 C2080 C 0.30920 0.80967 0.09118
 N2081 N 0.32227 0.80361 0.09739
 N2082 N 0.32902 0.81038 0.10948
 C2083 C 0.32295 0.82344 0.11583
 N2084 N 0.30985 0.82947 0.10951
 C2085 C 0.30171 0.80216 0.07841
 C2086 C 0.29533 0.79574 0.06781
 C2087 C 0.28761 0.78796 0.05533
 N2088 N 0.29342 0.77458 0.04952
 N2089 N 0.28606 0.76715 0.03819
 C2090 C 0.27264 0.77285 0.03230
 N2091 N 0.26687 0.78627 0.03813
 N2092 N 0.27423 0.79370 0.04946
 N2093 N 0.80358 0.32222 0.09741
 C2094 C 0.80965 0.30915 0.09120
 N2095 N 0.82269 0.30305 0.09743
 N2096 N 0.82944 0.30980 0.10953
 C2097 C 0.82341 0.32290 0.11585
 N2098 N 0.81034 0.32897 0.10951
 C2099 C 0.80215 0.30166 0.07842
 C2100 C 0.79573 0.29527 0.06782
 C2101 C 0.78797 0.28753 0.05534
 N2102 N 0.79374 0.27416 0.04948
 N2103 N 0.78634 0.26678 0.03814
 C2104 C 0.77291 0.27252 0.03231
 N2105 N 0.76718 0.28593 0.03819
 N2106 N 0.77459 0.29331 0.04952
 N2107 N 0.80300 0.82238 0.59769
 C2108 C 0.80909 0.80933 0.59146
 N2109 N 0.82215 0.80325 0.59766
 N2110 N 0.82892 0.81001 0.60975
 C2111 C 0.82286 0.82309 0.61610
 N2112 N 0.80977 0.82913 0.60978
 C2113 C 0.80158 0.80183 0.57869
 C2114 C 0.79518 0.79542 0.56809
 C2115 C 0.78743 0.78767 0.55562
 N2116 N 0.79322 0.77430 0.54976
 N2117 N 0.78583 0.76690 0.53844
 C2118 C 0.77240 0.77262 0.53259
 N2119 N 0.76665 0.78603 0.53846
 N2120 N 0.77404 0.79343 0.54979
 N2121 N 0.30310 0.67795 0.40225
 C2122 C 0.30916 0.69101 0.40846
 N2123 N 0.32221 0.69709 0.40223
 N2124 N 0.32897 0.69033 0.39013
 C2125 C 0.32294 0.67725 0.38380
 N2126 N 0.30987 0.67119 0.39015
 C2127 C 0.30166 0.69851 0.42124
 C2128 C 0.29524 0.70491 0.43184
 C2129 C 0.28748 0.71264 0.44432
 N2130 N 0.29323 0.72602 0.45018
 N2131 N 0.28582 0.73340 0.46152
 C2132 C 0.27240 0.72765 0.46736
 N2133 N 0.26669 0.71424 0.46149
 N2134 N 0.27410 0.70686 0.45015
 N2135 N 0.30330 0.17744 0.90264
 C2136 C 0.30938 0.19050 0.90885
 N2137 N 0.32242 0.19657 0.90261
 N2138 N 0.32918 0.18981 0.89051
 C2139 C 0.32313 0.17673 0.88419
 N2140 N 0.31006 0.17068 0.89054
 C2141 C 0.30188 0.19800 0.92163
 C2142 C 0.29548 0.20442 0.93224
 C2143 C 0.28773 0.21217 0.94471
 N2144 N 0.29349 0.22556 0.95054
 N2145 N 0.28610 0.23296 0.96187
 C2146 C 0.27269 0.22722 0.96775
 N2147 N 0.26697 0.21380 0.96191
 N2148 N 0.27436 0.20640 0.95057
 N2149 N 0.82245 0.69675 0.90250
 C2150 C 0.80942 0.69064 0.90874
 N2151 N 0.80338 0.67756 0.90253
 N2152 N 0.81016 0.67082 0.89043
 C2153 C 0.82321 0.67690 0.88408
 N2154 N 0.82922 0.69000 0.89040
 C2155 C 0.80190 0.69812 0.92151
 C2156 C 0.79547 0.70451 0.93212
 C2157 C 0.78769 0.71224 0.94459
 N2158 N 0.77431 0.70645 0.95041
 N2159 N 0.76688 0.71382 0.96174
 C2160 C 0.77259 0.72724 0.96763
 N2161 N 0.78601 0.73299 0.96180
 N2162 N 0.79343 0.72561 0.95046
 N2163 N 0.80335 0.17764 0.40223
 C2164 C 0.80941 0.19070 0.40844
 N2165 N 0.82247 0.19677 0.40222
 N2166 N 0.82924 0.19000 0.39014
 C2167 C 0.82320 0.17692 0.38381
 N2168 N 0.81012 0.17087 0.39014
 C2169 C 0.80189 0.19821 0.42120
 C2170 C 0.79547 0.20462 0.43180
 C2171 C 0.78770 0.21238 0.44426
 N2172 N 0.79345 0.22577 0.45009
 N2173 N 0.78603 0.23317 0.46141
 C2174 C 0.77262 0.22743 0.46727
 N2175 N 0.76691 0.21400 0.46143
 N2176 N 0.77433 0.20660 0.45011
 N2177 N 0.67763 0.30305 0.40201
 C2178 C 0.69067 0.30915 0.40825
 N2179 N 0.69673 0.32221 0.40202
 N2180 N 0.68998 0.32895 0.38991
 C2181 C 0.67692 0.32288 0.38356
 N2182 N 0.67088 0.30980 0.38990
 C2183 C 0.69816 0.30167 0.42104
 C2184 C 0.70457 0.29528 0.43166
 C2185 C 0.71233 0.28755 0.44414
 N2186 N 0.72570 0.29334 0.44998
 N2187 N 0.73310 0.28597 0.46133
 C2188 C 0.72739 0.27255 0.46721
 N2189 N 0.71398 0.26680 0.46136
 N2190 N 0.70658 0.27418 0.45001
 N2191 N 0.67759 0.80310 0.90257
 C2192 C 0.69065 0.80916 0.90879
 N2193 N 0.69672 0.82222 0.90258
 N2194 N 0.68995 0.82900 0.89050
 C2195 C 0.67687 0.82297 0.88417
 N2196 N 0.67083 0.80988 0.89049
 C2197 C 0.69815 0.80164 0.92156
 C2198 C 0.70457 0.79522 0.93215
 C2199 C 0.71232 0.78745 0.94462
 N2200 N 0.72568 0.79322 0.95048
 N2201 N 0.73308 0.78580 0.96180
 C2202 C 0.72736 0.77237 0.96764
 N2203 N 0.71395 0.76664 0.96176
 N2204 N 0.70656 0.77406 0.95044
 N2205 N 0.17766 0.30310 0.90274
 C2206 C 0.19072 0.30916 0.90895
 N2207 N 0.19680 0.32222 0.90274
 N2208 N 0.19003 0.32901 0.89066
 C2209 C 0.17694 0.32298 0.88433
 N2210 N 0.17089 0.30989 0.89065
 C2211 C 0.19823 0.30164 0.92171
 C2212 C 0.20465 0.29521 0.93230
 C2213 C 0.21242 0.28745 0.94476
 N2214 N 0.22579 0.29322 0.95059
 N2215 N 0.23320 0.28582 0.96192
 C2216 C 0.22749 0.27239 0.96777
 N2217 N 0.21407 0.26666 0.96192
 N2218 N 0.20667 0.27406 0.95060
 N2219 N 0.17751 0.80354 0.40228
 C2220 C 0.19056 0.80960 0.40851
 N2221 N 0.19664 0.82266 0.40230
 N2222 N 0.18989 0.82943 0.39020
 C2223 C 0.17681 0.82339 0.38385
 N2224 N 0.17076 0.81031 0.39018
 C2225 C 0.19805 0.80209 0.42129
 C2226 C 0.20445 0.79567 0.43189
 C2227 C 0.21219 0.78790 0.44436
 N2228 N 0.22555 0.79366 0.45023
 N2229 N 0.23293 0.78625 0.46156
 C2230 C 0.22721 0.77281 0.46739
 N2231 N 0.21380 0.76709 0.46151
 N2232 N 0.20642 0.77451 0.45018
 N2233 N 0.69679 0.67767 0.59781
 C2234 C 0.69070 0.69072 0.59157
 N2235 N 0.67764 0.69680 0.59780
 N2236 N 0.67090 0.69005 0.60992
 C2237 C 0.67697 0.67698 0.61626
 N2238 N 0.69005 0.67093 0.60992
 C2239 C 0.69818 0.69821 0.57878
 C2240 C 0.70457 0.70461 0.56816
 C2241 C 0.71230 0.71237 0.55567
 N2242 N 0.70651 0.72573 0.54983
 N2243 N 0.71388 0.73313 0.53848
 C2244 C 0.72731 0.72742 0.53262
 N2245 N 0.73306 0.71401 0.53848
 N2246 N 0.72568 0.70661 0.54982
 N2247 N 0.67796 0.19669 0.09737
 C2248 C 0.69104 0.19062 0.09118
 N2249 N 0.69713 0.17757 0.09742
 N2250 N 0.69035 0.17081 0.10951
 C2251 C 0.67725 0.17685 0.11581
 N2252 N 0.67119 0.18992 0.10946
 C2253 C 0.69856 0.19813 0.07841
 C2254 C 0.70497 0.20454 0.06781
 C2255 C 0.71272 0.21231 0.05535
 N2256 N 0.72610 0.20654 0.04950
 N2257 N 0.73350 0.21395 0.03817
 C2258 C 0.72776 0.22737 0.03232
 N2259 N 0.71434 0.23310 0.03819
 N2260 N 0.70695 0.22569 0.04951
 N2261 N 0.19692 0.67786 0.09742
 C2262 C 0.19084 0.69092 0.09120
 N2263 N 0.17779 0.69700 0.09742
 N2264 N 0.17102 0.69024 0.10951
 C2265 C 0.17707 0.67715 0.11584
 N2266 N 0.19015 0.67110 0.10951
 C2267 C 0.19835 0.69842 0.07843
 C2268 C 0.20476 0.70483 0.06782
 C2269 C 0.21252 0.71258 0.05535
 N2270 N 0.20674 0.72594 0.04948
 N2271 N 0.21414 0.73333 0.03814
 C2272 C 0.22758 0.72762 0.03232
 N2273 N 0.23332 0.71421 0.03820
 N2274 N 0.22592 0.70682 0.04954
 N2275 N 0.17743 0.19661 0.59778
 C2276 C 0.19048 0.19052 0.59154
 N2277 N 0.19657 0.17747 0.59778
 N2278 N 0.18982 0.17073 0.60990
 C2279 C 0.17675 0.17679 0.61625
 N2280 N 0.17069 0.18987 0.60990
 C2281 C 0.19796 0.19800 0.57875
 C2282 C 0.20435 0.20440 0.56813
 C2283 C 0.21209 0.21214 0.55564
 N2284 N 0.22547 0.20636 0.54979
 N2285 N 0.23286 0.21375 0.53845
 C2286 C 0.22712 0.22717 0.53258
 N2287 N 0.21370 0.23291 0.53844
 N2288 N 0.20632 0.22552 0.54979
   
