data_POSCAR
  _audit_creation_date              2014-09-24
  _audit_creation_method            'ToBaCCo'
  _symmetry_space_group_name_H-M    'P1'
  _symmetry_Int_Tables_number       1
  _symmetry_cell_setting            triclinic
  loop_
  _symmetry_equiv_pos_as_xyz
 x,y,z
_cell_length_a 40.1691
_cell_length_b 40.0616
_cell_length_c 39.5352
_cell_angle_alpha 89.924900
_cell_angle_beta 90.014200
_cell_angle_gamma 90.169000
loop_
  _atom_site_label
  _atom_site_type_symbol
  _atom_site_fract_x
  _atom_site_fract_y
  _atom_site_fract_z
C1 C 0.41209 0.26841 0.01586
 C2 C 0.41091 0.26800 -0.01876
 C3 C 0.38171 0.28401 -0.02806
 N4 N 0.36493 0.29394 -0.00025
 C5 C 0.38355 0.28457 0.02664
 C6 C 0.37049 0.28778 -0.06183
 C7 C 0.34440 0.30962 -0.07148
 C8 C 0.32991 0.31039 -0.10336
 C9 C 0.30631 0.33513 -0.10285
 C10 C 0.30668 0.34862 -0.07056
 N11 N 0.33019 0.33319 -0.05171
 C12 C 0.28617 0.37530 -0.05981
 C13 C 0.28022 0.38276 -0.02530
 C14 C 0.26262 0.41027 -0.01383
 C15 C 0.26152 0.40788 0.02070
 C16 C 0.27881 0.37922 0.02933
 N17 N 0.29000 0.36373 0.00117
 C18 C 0.28275 0.36738 0.06278
 C19 C 0.30465 0.34145 0.07211
 C20 C 0.30607 0.32701 0.10398
 C21 C 0.33224 0.30492 0.10358
 C22 C 0.34583 0.30629 0.07138
 N23 N 0.32907 0.32880 0.05249
 C24 C 0.37429 0.28855 0.06087
 H25 H 0.43158 0.25769 0.03131
 H26 H 0.42946 0.25714 -0.03525
 H27 H 0.33639 0.33788 0.02907
 H28 H 0.33570 0.29471 -0.12483
 H29 H 0.29044 0.34220 -0.12377
 H30 H 0.25172 0.43009 -0.02876
 H31 H 0.24954 0.42540 0.03755
 H32 H 0.34046 0.28978 0.12466
 H33 H 0.33822 0.34058 -0.02791
 H34 H 0.29027 0.33228 0.12549
 C35 C 0.57882 0.72832 0.01852
 C36 C 0.58114 0.72913 -0.01605
 C37 C 0.61056 0.71313 -0.02444
 N38 N 0.62642 0.70287 0.00384
 C39 C 0.60696 0.71195 0.03014
 C40 C 0.62343 0.71067 -0.05756
 C41 C 0.65171 0.69159 -0.06619
 C42 C 0.66847 0.69393 -0.09674
 C43 C 0.69372 0.67086 -0.09570
 C44 C 0.69158 0.65482 -0.06461
 N45 N 0.66572 0.66749 -0.04688
 C46 C 0.71305 0.62886 -0.05370
 C47 C 0.71473 0.61798 -0.01960
 C48 C 0.73091 0.58935 -0.00870
 C49 C 0.72893 0.58908 0.02587
 C50 C 0.71125 0.61730 0.03501
 N51 N 0.70270 0.63503 0.00722
 C52 C 0.70538 0.62730 0.06872
 C53 C 0.68329 0.65310 0.07782
 C54 C 0.68070 0.66673 0.10993
 C55 C 0.65505 0.68941 0.10880
 C56 C 0.64283 0.68906 0.07599
 N57 N 0.65996 0.66664 0.05740
 C58 C 0.61523 0.70771 0.06461
 H59 H 0.55894 0.73903 0.03341
 H60 H 0.56339 0.74060 -0.03305
 H61 H 0.65366 0.65829 0.03340
 H62 H 0.66319 0.71067 -0.11756
 H63 H 0.71177 0.66655 -0.11554
 H64 H 0.74317 0.57072 -0.02406
 H65 H 0.73944 0.57031 0.04241
 H66 H 0.64624 0.70425 0.12980
 H67 H 0.65622 0.65805 -0.02438
 H68 H 0.69549 0.66068 0.13198
 C69 C 0.61587 0.24032 0.98061
 C70 C 0.61713 0.23930 1.01525
 C71 C 0.63262 0.26855 1.02553
 N72 N 0.64120 0.28716 0.99839
 C73 C 0.63103 0.26994 0.97091
 C74 C 0.63474 0.27962 1.05933
 C75 C 0.65284 0.30841 1.06881
 C76 C 0.64897 0.32523 1.09915
 C77 C 0.67204 0.35065 1.09928
 C78 C 0.68960 0.34844 1.06911
 N79 N 0.67769 0.32263 1.05066
 C80 C 0.71688 0.36910 1.05991
 C81 C 0.72719 0.37260 1.02573
 C82 C 0.75604 0.38870 1.01520
 C83 C 0.75509 0.38960 0.98056
 C84 C 0.72611 0.37337 0.97098
 N85 N 0.70903 0.36304 0.99859
 C86 C 0.71434 0.37121 0.93740
 C87 C 0.68769 0.35032 0.92761
 C88 C 0.67124 0.35202 0.89682
 C89 C 0.64780 0.32688 0.89689
 C90 C 0.65072 0.31050 0.92767
 N91 N 0.67541 0.32466 0.94602
 C92 C 0.63164 0.28248 0.93758
 H93 H 0.60437 0.22177 0.96448
 H94 H 0.60678 0.21981 1.03110
 H95 H 0.68537 0.31552 0.96846
 H96 H 0.63139 0.31973 1.11915
 H97 H 0.67562 0.36859 1.11940
 H98 H 0.77550 0.39923 1.03086
 H99 H 0.77351 0.40113 0.96431
 H100 H 0.63065 0.32125 0.87655
 H101 H 0.68822 0.31312 1.02864
 H102 H 0.67564 0.36954 0.87643
 C103 C 0.26476 0.58067 1.01237
 C104 C 0.26454 0.58316 0.97782
 C105 C 0.28086 0.61265 0.96981
 N106 N 0.29066 0.62850 0.99834
 C107 C 0.28090 0.60892 1.02445
 C108 C 0.28459 0.62523 0.93660
 C109 C 0.30490 0.65285 0.92826
 C110 C 0.30460 0.66927 0.89736
 C111 C 0.32905 0.69338 0.89879
 C112 C 0.34360 0.69092 0.93049
 N113 N 0.32892 0.66599 0.94816
 C114 C 0.37070 0.71045 0.94182
 C115 C 0.38070 0.71195 0.97602
 C116 C 0.40926 0.72782 0.98745
 C117 C 0.40785 0.72730 1.02204
 C118 C 0.37850 0.71102 1.03062
 N119 N 0.36194 0.70165 1.00245
 C120 C 0.36634 0.70741 1.06401
 C121 C 0.34069 0.68462 1.07285
 C122 C 0.32488 0.68358 1.10405
 C123 C 0.30218 0.65789 1.10273
 C124 C 0.30439 0.64416 1.07062
 N125 N 0.32816 0.66033 1.05269
 C126 C 0.28522 0.61668 1.05915
 H127 H 0.25410 0.56040 1.02694
 H128 H 0.25357 0.56529 0.96055
 H129 H 0.33735 0.65314 1.02925
 H130 H 0.28855 0.66428 0.87595
 H131 H 0.33548 0.71064 0.87873
 H132 H 0.42873 0.73925 0.97241
 H133 H 0.42612 0.73805 1.03899
 H134 H 0.28562 0.65040 1.12297
 H135 H 0.33718 0.65617 0.97099
 H136 H 0.32914 0.69972 1.12556
 C137 C 0.00761 0.25324 0.40794
 C138 C -0.02620 0.25051 0.40426
 C139 C -0.03481 0.26986 0.37646
 N140 N -0.00739 0.28467 0.36349
 C141 C 0.01858 0.27456 0.38263
 C142 C -0.06738 0.27281 0.36296
 C143 C -0.07539 0.29442 0.33582
 C144 C -0.10335 0.29100 0.31547
 C145 C -0.10269 0.31697 0.29272
 C146 C -0.07509 0.33628 0.30071
 N147 N -0.05790 0.32176 0.32624
 C148 C -0.06569 0.36612 0.28403
 C149 C -0.03223 0.36709 0.27257
 C150 C -0.02192 0.37385 0.23973
 C151 C 0.01217 0.37292 0.23987
 C152 C 0.02142 0.36387 0.27229
 N153 N -0.00567 0.35976 0.29213
 C154 C 0.05447 0.36261 0.28396
 C155 C 0.06370 0.34492 0.31334
 C156 C 0.09452 0.34686 0.32896
 C157 C 0.09393 0.32434 0.35524
 C158 C 0.06267 0.30946 0.35507
 N159 N 0.04456 0.32191 0.32916
 C160 C 0.05201 0.28500 0.37854
 H161 H 0.02232 0.24134 0.42745
 H162 H -0.04250 0.23590 0.42031
 H163 H 0.02160 0.31333 0.32067
 H164 H -0.12199 0.27147 0.31662
 H165 H -0.12060 0.32139 0.27276
 H166 H -0.03736 0.37859 0.21782
 H167 H 0.02836 0.37778 0.21853
 H168 H 0.11417 0.31967 0.37266
 H169 H -0.03740 0.33201 0.33865
 H170 H 0.11534 0.36264 0.32199
 C171 C -0.01827 0.59236 0.73477
 C172 C 0.01574 0.59115 0.73316
 C173 C 0.02598 0.62037 0.71744
 N174 N -0.00063 0.63949 0.70960
 C175 C -0.02775 0.62234 0.72007
 C176 C 0.05957 0.62945 0.71210
 C177 C 0.06960 0.65722 0.69256
 C178 C 0.10191 0.66935 0.69064
 C179 C 0.10190 0.69413 0.66650
 C180 C 0.06955 0.69647 0.65448
 N181 N 0.05011 0.67383 0.67039
 C182 C 0.05942 0.71697 0.62735
 C183 C 0.02578 0.72327 0.61911
 C184 C 0.01540 0.74064 0.59069
 C185 C -0.01858 0.74243 0.59249
 C186 C -0.02794 0.72620 0.62205
 N187 N -0.00074 0.71464 0.63838
 C188 C -0.06115 0.72335 0.63389
 C189 C -0.07076 0.70156 0.66051
 C190 C -0.10114 0.70293 0.67716
 C191 C -0.10112 0.67780 0.70082
 C192 C -0.07074 0.66164 0.69808
 N193 N -0.05246 0.67615 0.67327
 C194 C -0.06095 0.63405 0.71825
 H195 H -0.03424 0.57336 0.74564
 H196 H 0.03116 0.57107 0.74258
 H197 H -0.03014 0.66733 0.66357
 H198 H 0.12341 0.66066 0.70457
 H199 H 0.12338 0.70832 0.65823
 H200 H 0.03071 0.75099 0.57072
 H201 H -0.03460 0.75429 0.57405
 H202 H -0.12110 0.67231 0.71834
 H203 H 0.02619 0.66707 0.66325
 H204 H -0.12114 0.72051 0.67296
 C205 C 0.98450 0.73020 0.41651
 C206 C 1.01852 0.73104 0.41455
 C207 C 1.02717 0.71408 0.38526
 N208 N 0.99955 0.70284 0.36938
 C209 C 0.97346 0.71262 0.38850
 C210 C 1.06004 0.71115 0.37266
 C211 C 1.06890 0.68908 0.34615
 C212 C 1.09912 0.68967 0.32912
 C213 C 1.09814 0.66433 0.30573
 C214 C 1.06727 0.64909 0.30888
 N215 N 1.04974 0.66405 0.33381
 C216 C 1.05671 0.62126 0.28970
 C217 C 1.02332 0.61025 0.28786
 C218 C 1.01290 0.58152 0.27143
 C219 C 0.97882 0.58102 0.27329
 C220 C 0.96953 0.60950 0.29076
 N221 N 0.99677 0.62744 0.29943
 C222 C 0.93626 0.61949 0.29636
 C223 C 0.92719 0.64731 0.31616
 C224 C 0.89569 0.66138 0.31684
 C225 C 0.89667 0.68671 0.34028
 C226 C 0.92867 0.68721 0.35344
 N227 N 0.94700 0.66294 0.33881
 C228 C 0.93967 0.70869 0.37944
 H229 H 0.96955 0.74164 0.43608
 H230 H 1.03501 0.74311 0.43244
 H231 H 0.97044 0.65514 0.34648
 H232 H 1.11971 0.70672 0.33301
 H233 H 1.11785 0.65801 0.28823
 H234 H 1.02823 0.56305 0.25900
 H235 H 0.96272 0.56209 0.26256
 H236 H 0.87609 0.70273 0.34707
 H237 H 1.02740 0.65565 0.34395
 H238 H 0.87418 0.65409 0.30207
 C239 C 0.97694 0.27272 0.58286
 C240 C 1.01098 0.27124 0.58457
 C241 C 1.01996 0.28369 0.61604
 N242 N 0.99251 0.29315 0.63333
 C243 C 0.96624 0.28668 0.61299
 C244 C 1.05293 0.28555 0.62877
 C245 C 1.06039 0.30263 0.65922
 C246 C 1.08919 0.29842 0.67819
 C247 C 1.08908 0.32281 0.70264
 C248 C 1.06001 0.34082 0.69823
 N249 N 1.04254 0.32823 0.67194
 C250 C 1.05235 0.37073 0.71522
 C251 C 1.01964 0.38340 0.71704
 C252 C 1.01083 0.41371 0.73124
 C253 C 0.97673 0.41551 0.72954
 C254 C 0.96593 0.38640 0.71401
 N255 N 0.99218 0.36668 0.70676
 C256 C 0.93225 0.37773 0.70833
 C257 C 0.92216 0.35050 0.68799
 C258 C 0.88989 0.33827 0.68586
 C259 C 0.88999 0.31378 0.66139
 C260 C 0.92230 0.31179 0.64925
 N261 N 0.94165 0.33435 0.66546
 C262 C 0.93256 0.29166 0.62184
 H263 H 0.96182 0.26477 0.56166
 H264 H 1.02722 0.26214 0.56481
 H265 H 0.96568 0.34113 0.65861
 H266 H 1.10885 0.28049 0.67397
 H267 H 1.10862 0.32745 0.72091
 H268 H 1.02717 0.43244 0.74195
 H269 H 0.96164 0.43595 0.73866
 H270 H 0.86857 0.29959 0.65297
 H271 H 1.02250 0.33975 0.66009
 H272 H 0.86838 0.34657 0.69998
 C273 C 0.25929 -0.01018 0.40763
 C274 C 0.25859 0.02402 0.40719
 C275 C 0.27200 0.03387 0.37645
 N276 N 0.28034 0.00685 0.35787
 C277 C 0.27277 -0.02014 0.37695
 C278 C 0.27569 0.06737 0.36588
 C279 C 0.29436 0.07704 0.33724
 C280 C 0.29496 0.10894 0.32360
 C281 C 0.31958 0.10923 0.29936
 C282 C 0.33328 0.07751 0.29895
 N283 N 0.31768 0.05807 0.32197
 C284 C 0.36211 0.06841 0.28080
 C285 C 0.37290 0.03509 0.27696
 C286 C 0.40354 0.02580 0.26393
 C287 C 0.40411 -0.00841 0.26402
 C288 C 0.37367 -0.01891 0.27682
 N289 N 0.35457 0.00774 0.28453
 C290 C 0.36378 -0.05263 0.28103
 C291 C 0.33460 -0.06161 0.29897
 C292 C 0.31885 -0.09241 0.29685
 C293 C 0.29442 -0.09271 0.32118
 C294 C 0.29593 -0.06208 0.33747
 N295 N 0.32024 -0.04315 0.32354
 C296 C 0.27767 -0.05369 0.36685
 H297 H 0.25117 -0.02586 0.42837
 H298 H 0.24966 0.03981 0.42742
 H299 H 0.32978 -0.02116 0.33365
 H300 H 0.28006 0.13011 0.33123
 H301 H 0.32737 0.13068 0.28465
 H302 H 0.42356 0.04196 0.25558
 H303 H 0.42477 -0.02375 0.25598
 H304 H 0.27809 -0.11348 0.32701
 H305 H 0.32588 0.03497 0.33035
 H306 H 0.32507 -0.11290 0.28021
 C307 C 0.75586 -0.01369 0.61510
 C308 C 0.75729 0.02036 0.61760
 C309 C 0.72849 0.03022 0.63402
 N310 N 0.70925 0.00332 0.64112
 C311 C 0.72582 -0.02358 0.62934
 C312 C 0.71877 0.06373 0.63894
 C313 C 0.69148 0.07303 0.65932
 C314 C 0.67731 0.10456 0.65990
 C315 C 0.65209 0.10351 0.68333
 C316 C 0.65171 0.07145 0.69663
 N317 N 0.67616 0.05322 0.68227
 C318 C 0.62979 0.06038 0.72223
 C319 C 0.62629 0.02665 0.73204
 C320 C 0.60795 0.01577 0.75962
 C321 C 0.60811 -0.01844 0.75856
 C322 C 0.62617 -0.02733 0.73010
 N323 N 0.63729 0.00028 0.71395
 C324 C 0.62909 -0.06023 0.71762
 C325 C 0.64851 -0.06863 0.68907
 C326 C 0.64501 -0.09785 0.67071
 C327 C 0.66834 -0.09671 0.64529
 C328 C 0.68596 -0.06707 0.64916
 N329 N 0.67373 -0.05016 0.67606
 C330 C 0.71278 -0.05654 0.62823
 H331 H 0.77441 -0.02933 0.60324
 H332 H 0.77709 0.03601 0.60787
 H333 H 0.68387 -0.02874 0.68679
 H334 H 0.68437 0.12618 0.64509
 H335 H 0.63600 0.12412 0.68993
 H336 H 0.59530 0.03091 0.77825
 H337 H 0.59552 -0.03487 0.77620
 H338 H 0.67171 -0.11554 0.62601
 H339 H 0.68392 0.02964 0.68979
 H340 H 0.62712 -0.11769 0.67485
 C341 C 0.26731 0.98095 0.58677
 C342 C 0.26778 1.01516 0.58643
 C343 C 0.28166 1.02521 0.61693
 N344 N 0.28976 0.99826 0.63579
 C345 C 0.28124 0.97119 0.61727
 C346 C 0.28597 1.05880 0.62727
 C347 C 0.30451 1.06745 0.65644
 C348 C 0.30250 1.09784 0.67311
 C349 C 0.32681 1.09773 0.69756
 C350 C 0.34300 1.06727 0.69515
 N351 N 0.32907 1.04885 0.67022
 C352 C 0.37187 1.05843 0.71362
 C353 C 0.38180 1.02478 0.71779
 C354 C 0.41158 1.01443 0.73215
 C355 C 0.41075 0.98024 0.73274
 C356 C 0.38081 0.97081 0.71816
 N357 N 0.36303 0.99803 0.70929
 C358 C 0.36964 0.93754 0.71499
 C359 C 0.34180 0.92804 0.69544
 C360 C 0.32738 0.89654 0.69560
 C361 C 0.30321 0.89661 0.67091
 C362 C 0.30350 0.92819 0.65653
 N363 N 0.32713 0.94711 0.67155
 C364 C 0.28474 0.93775 0.62798
 H365 H 0.25802 0.96507 0.56672
 H366 H 0.25908 1.03082 0.56594
 H367 H 0.33567 0.97009 0.66297
 H368 H 0.28577 1.11827 0.66762
 H369 H 0.33252 1.11806 0.71463
 H370 H 0.43184 1.02985 0.74126
 H371 H 0.43008 0.96417 0.74261
 H372 H 0.28772 0.87561 0.66381
 H373 H 0.33878 1.02700 0.66008
 H374 H 0.33414 0.87545 0.71128
 C375 C 0.60921 1.01173 0.23960
 C376 C 0.60853 0.97753 0.23911
 C377 C 0.62669 0.96695 0.26690
 N378 N 0.63823 0.99348 0.28444
 C379 C 0.62753 1.02091 0.26785
 C380 C 0.62887 0.93349 0.27782
 C381 C 0.65000 0.92262 0.30416
 C382 C 0.64889 0.89110 0.31867
 C383 C 0.67347 0.89022 0.34283
 C384 C 0.68873 0.92132 0.34261
 N385 N 0.67472 0.94069 0.31852
 C386 C 0.71552 0.93057 0.36375
 C387 C 0.72625 0.96384 0.36874
 C388 C 0.75299 0.97291 0.38888
 C389 C 0.75316 1.00704 0.39020
 C390 C 0.72663 1.01793 0.37055
 N391 N 0.71010 0.99135 0.35769
 C392 C 0.71593 1.05159 0.36804
 C393 C 0.68958 1.06226 0.34656
 C394 C 0.67524 1.09379 0.34725
 C395 C 0.65104 1.09430 0.32269
 C396 C 0.65148 1.06332 0.30718
 N397 N 0.67542 1.04417 0.32145
 C398 C 0.63039 1.05392 0.28010
 H399 H 0.59665 1.02799 0.22185
 H400 H 0.59541 0.96221 0.22090
 H401 H 0.68352 1.02119 0.31266
 H402 H 0.63211 0.87081 0.31250
 H403 H 0.67924 0.86912 0.35889
 H404 H 0.77002 0.95665 0.40221
 H405 H 0.77033 1.02194 0.40493
 H406 H 0.63501 1.11521 0.31691
 H407 H 0.68346 0.96376 0.31041
 H408 H 0.68142 1.11441 0.36376
 O409 O 0.86261 0.81772 0.47143
 O410 O 0.81221 0.86769 0.52938
 O411 O 0.85910 0.82244 0.53631
 O412 O 0.81300 0.85819 0.46450
 O413 O 0.77473 0.81869 0.46941
 O414 O 0.82261 0.78143 0.53922
 O415 O 0.77563 0.82664 0.53419
 O416 O 0.82497 0.77764 0.47277
 Cu417 Cu 0.84037 0.84558 0.50030
 Cu418 Cu 0.79598 0.79680 0.50444
 C419 C 0.85212 0.78965 0.46127
 C420 C 0.78514 0.85615 0.54111
 C421 C 0.84892 0.79554 0.54991
 C422 C 0.78579 0.84480 0.45511
 O423 O 0.13579 0.18811 0.47504
 O424 O 0.18695 0.14159 0.53580
 O425 O 0.13958 0.18593 0.54042
 O426 O 0.18325 0.14359 0.47091
 O427 O 0.22097 0.18372 0.47039
 O428 O 0.17621 0.22657 0.53878
 O429 O 0.22369 0.18223 0.53627
 O430 O 0.17332 0.22856 0.47407
 Cu431 Cu 0.15761 0.16079 0.50559
 Cu432 Cu 0.20243 0.20923 0.50472
 C433 C 0.14546 0.21659 0.46489
 C434 C 0.21446 0.15353 0.54615
 C435 C 0.14990 0.21404 0.55113
 C436 C 0.21023 0.15585 0.45961
 O437 O 0.18593 0.86143 0.46443
 O438 O 0.13971 0.81419 0.52878
 O439 O 0.18706 0.85930 0.52936
 O440 O 0.13944 0.81580 0.46343
 O441 O 0.17769 0.77658 0.46085
 O442 O 0.22495 0.81960 0.52785
 O443 O 0.17736 0.77421 0.52653
 O444 O 0.22366 0.82199 0.46211
 Cu445 Cu 0.15917 0.84157 0.49677
 Cu446 Cu 0.20475 0.79408 0.49439
 C447 C 0.21311 0.85027 0.45259
 C448 C 0.15012 0.78570 0.53787
 C449 C 0.21474 0.84745 0.53906
 C450 C 0.15042 0.78897 0.45058
 O451 O 0.85735 0.18598 0.52741
 O452 O 0.81009 0.13200 0.46916
 O453 O 0.85561 0.17763 0.46256
 O454 O 0.81324 0.13887 0.53469
 O455 O 0.77307 0.17627 0.53131
 O456 O 0.81612 0.21555 0.45871
 O457 O 0.77050 0.17002 0.46589
 O458 O 0.81771 0.22391 0.52421
 Cu459 Cu 0.83798 0.15479 0.49884
 Cu460 Cu 0.79039 0.20032 0.49485
 C461 C 0.84584 0.21444 0.53524
 C462 C 0.78215 0.14173 0.45778
 C463 C 0.84317 0.20293 0.44805
 C464 C 0.78595 0.15078 0.54527
 O465 O 0.46609 0.86039 0.81693
 O466 O 0.53276 0.81625 0.86218
 O467 O 0.53071 0.86159 0.81481
 O468 O 0.46861 0.81684 0.86580
 O469 O 0.46540 0.77774 0.82688
 O470 O 0.52996 0.82130 0.77665
 O471 O 0.53056 0.77579 0.82446
 O472 O 0.46547 0.82121 0.77767
 Cu473 Cu 0.49976 0.84279 0.84370
 Cu474 Cu 0.49777 0.79485 0.79766
 C475 C 0.45458 0.84850 0.78952
 C476 C 0.54292 0.78833 0.85118
 C477 C 0.54079 0.84924 0.78715
 C478 C 0.45583 0.78996 0.85494
 O479 O 0.53302 0.18414 0.13930
 O480 O 0.46623 0.14312 0.18750
 O481 O 0.46914 0.18775 0.13974
 O482 O 0.53039 0.13646 0.18496
 O483 O 0.53368 0.17450 0.22528
 O484 O 0.47382 0.22716 0.17848
 O485 O 0.46916 0.18255 0.22622
 O486 O 0.53811 0.22209 0.17955
 Cu487 Cu 0.49940 0.15891 0.15900
 Cu488 Cu 0.50420 0.20540 0.20643
 C489 C 0.54644 0.21043 0.15098
 C490 C 0.45642 0.15565 0.21528
 C491 C 0.46170 0.21650 0.15080
 C492 C 0.54191 0.14636 0.21308
 O493 O 0.52908 0.14034 0.81580
 O494 O 0.46334 0.18537 0.86059
 O495 O 0.46511 0.14076 0.81243
 O496 O 0.52806 0.18699 0.86143
 O497 O 0.52824 0.22642 0.82226
 O498 O 0.46454 0.18055 0.77427
 O499 O 0.46315 0.22476 0.82164
 O500 O 0.52884 0.17891 0.77576
 Cu501 Cu 0.49631 0.15958 0.84161
 Cu502 Cu 0.49654 0.20677 0.79466
 C503 C 0.53941 0.15137 0.78765
 C504 C 0.45158 0.21234 0.84883
 C505 C 0.45441 0.15237 0.78449
 C506 C 0.53858 0.21476 0.85019
 O507 O 0.45531 0.81356 0.14183
 O508 O 0.52307 0.85737 0.18563
 O509 O 0.51943 0.80994 0.14079
 O510 O 0.45891 0.86084 0.18754
 O511 O 0.45554 0.82224 0.22685
 O512 O 0.51811 0.77235 0.18167
 O513 O 0.52023 0.82051 0.22720
 O514 O 0.45355 0.77535 0.18194
 Cu515 Cu 0.48929 0.83919 0.15986
 Cu516 Cu 0.48691 0.79380 0.20853
 C517 C 0.44287 0.78700 0.15408
 C518 C 0.53257 0.84686 0.21429
 C519 C 0.52856 0.78212 0.15300
 C520 C 0.44716 0.85061 0.21560
 O521 O 0.86133 0.53582 0.81911
 O522 O 0.81242 0.46982 0.86057
 O523 O 0.85776 0.47174 0.81308
 O524 O 0.81585 0.53407 0.86627
 O525 O 0.77751 0.54113 0.82713
 O526 O 0.81846 0.47734 0.77447
 O527 O 0.77254 0.47652 0.82268
 O528 O 0.82237 0.54198 0.78039
 Cu529 Cu 0.84072 0.50216 0.84359
 Cu530 Cu 0.79373 0.50946 0.79722
 C531 C 0.85028 0.55046 0.79293
 C532 C 0.78372 0.46269 0.84929
 C533 C 0.84574 0.46460 0.78429
 C534 C 0.78983 0.54871 0.85573
 O535 O 0.17927 0.45985 0.14111
 O536 O 0.13549 0.52804 0.18403
 O537 O 0.18288 0.52377 0.13821
 O538 O 0.13280 0.46335 0.18632
 O539 O 0.17130 0.46206 0.22631
 O540 O 0.21990 0.52497 0.17932
 O541 O 0.17258 0.52706 0.22520
 O542 O 0.21795 0.46035 0.18081
 Cu543 Cu 0.15369 0.49402 0.15845
 Cu544 Cu 0.19920 0.49380 0.20706
 C545 C 0.20618 0.44861 0.15344
 C546 C 0.14619 0.53886 0.21219
 C547 C 0.21058 0.53380 0.14996
 C548 C 0.14373 0.45215 0.21420
 O549 O 0.85208 0.46599 0.19010
 O550 O 0.80736 0.53384 0.14765
 O551 O 0.85359 0.52994 0.19359
 O552 O 0.80717 0.46940 0.14258
 O553 O 0.76878 0.46541 0.18246
 O554 O 0.81423 0.52846 0.23262
 O555 O 0.76755 0.53074 0.18601
 O556 O 0.81408 0.46461 0.23025
 Cu557 Cu 0.83380 0.50000 0.16441
 Cu558 Cu 0.78696 0.49712 0.21160
 C559 C 0.84145 0.45443 0.21807
 C560 C 0.77978 0.54383 0.15949
 C561 C 0.84240 0.53874 0.22220
 C562 C 0.78031 0.45698 0.15381
 O563 O 0.18330 0.53224 0.85538
 O564 O 0.13929 0.46473 0.81099
 O565 O 0.18593 0.46801 0.85833
 O566 O 0.13791 0.52905 0.80888
 O567 O 0.17706 0.52927 0.76974
 O568 O 0.22433 0.46700 0.81858
 O569 O 0.17799 0.46441 0.77185
 O570 O 0.22278 0.53170 0.81655
 Cu571 Cu 0.15771 0.49823 0.83736
 Cu572 Cu 0.20442 0.49789 0.79023
 C573 C 0.21052 0.54350 0.84363
 C574 C 0.15033 0.45381 0.78300
 C575 C 0.21400 0.45806 0.84754
 C576 C 0.14910 0.53930 0.78067
 C577 C 0.22845 0.37678 0.09405
 C578 C 0.26276 0.38367 0.08968
 C579 C 0.27810 0.40833 0.10928
 C580 C 0.25953 0.42771 0.13146
 C581 C 0.22504 0.42312 0.13452
 C582 C 0.20938 0.39652 0.11682
 C583 C 0.21272 0.35072 0.07609
 C584 C 0.17900 0.34388 0.08087
 C585 C 0.16044 0.36273 0.10357
 C586 C 0.17535 0.38878 0.12144
 H587 H 0.22642 0.33523 0.05856
 H588 H 0.16727 0.32370 0.06708
 H589 H 0.13435 0.35705 0.10746
 H590 H 0.16004 0.40223 0.13923
 H591 H 0.30440 0.41360 0.10620
 H592 H 0.27195 0.44774 0.14490
 C593 C 0.75830 0.61761 0.10223
 C594 C 0.72441 0.61013 0.09583
 C595 C 0.70880 0.58422 0.11354
 C596 C 0.72681 0.56427 0.13579
 C597 C 0.76094 0.56966 0.14091
 C598 C 0.77667 0.59748 0.12529
 C599 C 0.77431 0.64466 0.08603
 C600 C 0.80756 0.65208 0.09289
 C601 C 0.82532 0.63298 0.11609
 C602 C 0.81011 0.60601 0.13230
 H603 H 0.76120 0.66044 0.06825
 H604 H 0.81950 0.67298 0.08040
 H605 H 0.85098 0.63918 0.12169
 H606 H 0.82462 0.59246 0.15079
 H607 H 0.68283 0.57846 0.10888
 H608 H 0.71437 0.54326 0.14764
 C609 C 0.71644 0.42709 0.90732
 C610 C 0.72899 0.39439 0.91198
 C611 C 0.75746 0.38432 0.89439
 C612 C 0.77430 0.40650 0.87322
 C613 C 0.76275 0.43914 0.86857
 C614 C 0.73339 0.44965 0.88537
 C615 C 0.68779 0.43807 0.92470
 C616 C 0.67620 0.47060 0.92066
 C617 C 0.69289 0.49277 0.89945
 C618 C 0.72122 0.48253 0.88198
 H619 H 0.67419 0.42168 0.94157
 H620 H 0.65424 0.47870 0.93419
 H621 H 0.68390 0.51807 0.89659
 H622 H 0.73347 0.50066 0.86601
 H623 H 0.76737 0.35945 0.89806
 H624 H 0.79693 0.39836 0.86086
 C625 C 0.23121 0.61534 0.90373
 C626 C 0.26538 0.60867 0.90918
 C627 C 0.28129 0.58412 0.89001
 C628 C 0.26339 0.56465 0.86721
 C629 C 0.22903 0.56914 0.86296
 C630 C 0.21292 0.59570 0.88010
 C631 C 0.21485 0.64109 0.92141
 C632 C 0.18132 0.64781 0.91543
 C633 C 0.16362 0.62925 0.89170
 C634 C 0.17917 0.60351 0.87406
 H635 H 0.22789 0.65642 0.93967
 H636 H 0.16910 0.66775 0.92903
 H637 H 0.13773 0.63492 0.88680
 H638 H 0.16467 0.59038 0.85523
 H639 H 0.30749 0.57900 0.89391
 H640 H 0.27617 0.54467 0.85417
 C641 C 0.08572 0.28364 0.43299
 C642 C 0.07743 0.26985 0.40111
 C643 C 0.09215 0.23996 0.39071
 C644 C 0.11459 0.22333 0.41153
 C645 C 0.12329 0.23639 0.44312
 C646 C 0.10891 0.26680 0.45422
 C647 C 0.07094 0.31346 0.44446
 C648 C 0.07867 0.32630 0.47629
 C649 C 0.10110 0.30974 0.49722
 C650 C 0.11612 0.28028 0.48641
 H651 H 0.05324 0.32694 0.42901
 H652 H 0.06708 0.34915 0.48483
 H653 H 0.10684 0.31971 0.52199
 H654 H 0.13316 0.26819 0.50360
 H655 H 0.08568 0.22912 0.36648
 H656 H 0.12513 0.19993 0.40302
 C657 C 0.09772 0.71533 0.57652
 C658 C 0.08550 0.73206 0.60547
 C659 C 0.09578 0.76475 0.61225
 C660 C 0.11749 0.78128 0.59048
 C661 C 0.12959 0.76562 0.56131
 C662 C 0.11966 0.73232 0.55395
 C663 C 0.08764 0.68238 0.56898
 C664 C 0.09846 0.66666 0.53956
 C665 C 0.11918 0.68348 0.51703
 C666 C 0.12963 0.71598 0.52395
 H667 H 0.07118 0.66859 0.58560
 H668 H 0.09044 0.64143 0.53403
 H669 H 0.12708 0.67133 0.49395
 H670 H 0.14510 0.72807 0.50528
 H671 H 0.08624 0.77779 0.63418
 H672 H 0.12454 0.80679 0.59618
 C673 C 0.91353 0.76507 0.39091
 C674 C 0.91488 0.73023 0.39681
 C675 C 0.89396 0.71576 0.42099
 C676 C 0.87289 0.73542 0.44050
 C677 C 0.87233 0.77026 0.43676
 C678 C 0.89225 0.78541 0.41103
 C679 C 0.93303 0.78001 0.36525
 C680 C 0.93180 0.81426 0.35950
 C681 C 0.91101 0.83421 0.37889
 C682 C 0.89135 0.82011 0.40423
 H683 H 0.94916 0.76535 0.34920
 H684 H 0.94687 0.82535 0.33974
 H685 H 0.90987 0.86079 0.37407
 H686 H 0.87527 0.83693 0.41769
 H687 H 0.89474 0.68909 0.42550
 H688 H 0.85790 0.72334 0.45975
 C689 C 0.89272 0.28980 0.57198
 C690 C 0.90689 0.27457 0.60092
 C691 C 0.89990 0.24109 0.60804
 C692 C 0.87961 0.22237 0.58671
 C693 C 0.86564 0.23651 0.55755
 C694 C 0.87224 0.27057 0.54981
 C695 C 0.89951 0.32349 0.56403
 C696 C 0.88683 0.33787 0.53462
 C697 C 0.86756 0.31896 0.51249
 C698 C 0.86041 0.28563 0.51978
 H699 H 0.91477 0.33889 0.58035
 H700 H 0.89231 0.36371 0.52878
 H701 H 0.85826 0.33013 0.48941
 H702 H 0.84609 0.27191 0.50132
 H703 H 0.91102 0.22911 0.62986
 H704 H 0.87512 0.19637 0.59283
 C705 C 0.40765 0.11193 0.28648
 C706 C 0.38352 0.09525 0.26655
 C707 C 0.38211 0.10107 0.23177
 C708 C 0.40509 0.12201 0.21620
 C709 C 0.43031 0.13785 0.23485
 C710 C 0.43143 0.13340 0.27065
 C711 C 0.40939 0.10654 0.32175
 C712 C 0.43398 0.12183 0.34115
 C713 C 0.45747 0.14241 0.32586
 C714 C 0.45645 0.14808 0.29107
 H715 H 0.39189 0.09036 0.33465
 H716 H 0.43502 0.11743 0.36815
 H717 H 0.47685 0.15383 0.34100
 H718 H 0.47603 0.16345 0.28083
 H719 H 0.36381 0.08823 0.21636
 H720 H 0.40375 0.12510 0.18900
 C721 C 0.57509 0.09155 0.72216
 C722 C 0.60646 0.08504 0.73710
 C723 C 0.61572 0.10163 0.76679
 C724 C 0.59402 0.12397 0.78227
 C725 C 0.56280 0.13077 0.76811
 C726 C 0.55308 0.11467 0.73773
 C727 C 0.56493 0.07506 0.69232
 C728 C 0.53365 0.08101 0.67832
 C729 C 0.51199 0.10337 0.69368
 C730 C 0.52149 0.12009 0.72306
 H731 H 0.58093 0.05733 0.67968
 H732 H 0.52613 0.06811 0.65551
 H733 H 0.48766 0.10767 0.68280
 H734 H 0.50387 0.13712 0.73417
 H735 H 0.63965 0.09668 0.77837
 H736 H 0.60145 0.13573 0.80577
 C737 C 0.38031 0.90407 0.76820
 C738 C 0.38788 0.91146 0.73406
 C739 C 0.41459 0.89552 0.71819
 C740 C 0.43500 0.87381 0.73623
 C741 C 0.42917 0.86744 0.77057
 C742 C 0.40082 0.88146 0.78645
 C743 C 0.35276 0.91871 0.78457
 C744 C 0.34512 0.91054 0.81798
 C745 C 0.36455 0.88757 0.83551
 C746 C 0.39206 0.87305 0.81991
 H747 H 0.33675 0.93626 0.77160
 H748 H 0.32381 0.92177 0.83020
 H749 H 0.35818 0.88084 0.86123
 H750 H 0.40594 0.85463 0.83384
 H751 H 0.42045 0.90101 0.69202
 H752 H 0.45644 0.86313 0.72367
 C753 C 0.57146 0.90747 0.27731
 C754 C 0.60413 0.90949 0.26397
 C755 C 0.61296 0.88990 0.23611
 C756 C 0.58965 0.86895 0.22083
 C757 C 0.55710 0.86672 0.23333
 C758 C 0.54774 0.88592 0.26187
 C759 C 0.56171 0.92699 0.30534
 C760 C 0.52919 0.92557 0.31756
 C761 C 0.50588 0.90477 0.30224
 C762 C 0.51497 0.88507 0.27471
 H763 H 0.57902 0.94358 0.31792
 H764 H 0.52201 0.94080 0.33894
 H765 H 0.48061 0.90398 0.31170
 H766 H 0.49613 0.86939 0.26350
 H767 H 0.63785 0.89152 0.22567
 H768 H 0.59688 0.85472 0.19874
 C769 C 0.38308 0.23270 0.91286
 C770 C 0.38584 0.26807 0.91306
 C771 C 0.40584 0.28392 0.88881
 C772 C 0.42554 0.26535 0.86688
 C773 C 0.42543 0.23034 0.86802
 C774 C 0.40235 0.21373 0.88956
 C775 C 0.36062 0.21591 0.93459
 C776 C 0.35700 0.18135 0.93321
 C777 C 0.37503 0.16292 0.90979
 C778 C 0.39723 0.17882 0.88794
 H779 H 0.34520 0.22937 0.95235
 H780 H 0.33962 0.16888 0.94993
 H781 H 0.37148 0.13616 0.90824
 H782 H 0.40930 0.16351 0.86915
 H783 H 0.40786 0.31090 0.88828
 H784 H 0.44233 0.27859 0.85011
 C785 C 0.61409 0.76537 0.91148
 C786 C 0.60712 0.73095 0.91566
 C787 C 0.58239 0.71585 0.89603
 C788 C 0.56314 0.73470 0.87389
 C789 C 0.56794 0.76928 0.87079
 C790 C 0.59458 0.78474 0.88865
 C791 C 0.64008 0.78091 0.92968
 C792 C 0.64717 0.81468 0.92502
 C793 C 0.62867 0.83349 0.90220
 C794 C 0.60266 0.81881 0.88414
 H795 H 0.65532 0.76704 0.94733
 H796 H 0.66731 0.82624 0.93898
 H797 H 0.63457 0.85961 0.89837
 H798 H 0.58956 0.83438 0.86628
 H799 H 0.57701 0.68949 0.89899
 H800 H 0.54312 0.72239 0.86036
 C801 C 0.37748 0.76370 0.08758
 C802 C 0.37999 0.72832 0.08926
 C803 C 0.39837 0.71371 0.11548
 C804 C 0.41696 0.73335 0.13755
 C805 C 0.41731 0.76827 0.13462
 C806 C 0.39564 0.78381 0.11094
 C807 C 0.35634 0.77944 0.06383
 C808 C 0.35315 0.81404 0.06311
 C809 C 0.37015 0.83360 0.08646
 C810 C 0.39089 0.81877 0.11040
 H811 H 0.34161 0.76516 0.04605
 H812 H 0.33685 0.82568 0.04477
 H813 H 0.36689 0.86042 0.08636
 H814 H 0.40210 0.83499 0.12901
 H815 H 0.40021 0.68679 0.11746
 H816 H 0.43268 0.72090 0.15588
 C817 C 0.62714 0.24418 0.11259
 C818 C 0.61364 0.26251 0.08510
 C819 C 0.57902 0.26416 0.08106
 C820 C 0.55783 0.24715 0.10287
 C821 C 0.57051 0.22870 0.12995
 C822 C 0.60528 0.22746 0.13547
 C823 C 0.66183 0.24157 0.11752
 C824 C 0.67460 0.22354 0.14479
 C825 C 0.65319 0.20762 0.16740
 C826 C 0.61881 0.20943 0.16282
 H827 H 0.67932 0.25331 0.10041
 H828 H 0.70126 0.22186 0.14837
 H829 H 0.66327 0.19367 0.18850
 H830 H 0.60293 0.19666 0.18078
 H831 H 0.56836 0.27823 0.06030
 H832 H 0.53122 0.24826 0.09847
 C833 C 0.28820 0.11079 0.59249
 C834 C 0.27023 0.08443 0.60849
 C835 C 0.23559 0.08332 0.60537
 C836 C 0.21863 0.10693 0.58650
 C837 C 0.23533 0.13282 0.56944
 C838 C 0.27074 0.13549 0.57313
 C839 C 0.32342 0.11194 0.59370
 C840 C 0.34108 0.13754 0.57807
 C841 C 0.32429 0.16213 0.56029
 C842 C 0.28973 0.16107 0.55745
 H843 H 0.33782 0.09290 0.60634
 H844 H 0.36798 0.13815 0.57956
 H845 H 0.33821 0.18195 0.54809
 H846 H 0.27900 0.18078 0.54272
 H847 H 0.22136 0.06378 0.61776
 H848 H 0.19182 0.10439 0.58482
 C849 C 0.71361 0.08669 0.41960
 C850 C 0.73046 0.07505 0.39029
 C851 C 0.76321 0.08567 0.38409
 C852 C 0.77936 0.10730 0.40623
 C853 C 0.76309 0.11972 0.43485
 C854 C 0.72979 0.10976 0.44162
 C855 C 0.68139 0.07504 0.42811
 C856 C 0.66514 0.08663 0.45690
 C857 C 0.68061 0.10974 0.47792
 C858 C 0.71260 0.12115 0.47051
 H859 H 0.66856 0.05676 0.41273
 H860 H 0.64044 0.07757 0.46297
 H861 H 0.66789 0.11866 0.50027
 H862 H 0.72367 0.13877 0.48776
 H863 H 0.77654 0.07672 0.36208
 H864 H 0.80482 0.11459 0.40086
 C865 C 0.73012 0.92841 0.56966
 C866 C 0.72677 0.92063 0.60471
 C867 C 0.73983 0.89030 0.61673
 C868 C 0.75781 0.86920 0.59554
 C869 C 0.76393 0.87801 0.56187
 C870 C 0.74974 0.90757 0.54847
 C871 C 0.71347 0.95596 0.55497
 C872 C 0.71777 0.96392 0.52091
 C873 C 0.73823 0.94444 0.50064
 C874 C 0.75396 0.91646 0.51413
 H875 H 0.69670 0.97135 0.56955
 H876 H 0.70507 0.98524 0.51017
 H877 H 0.74153 0.95072 0.47420
 H878 H 0.76905 0.90173 0.49725
 H879 H 0.73745 0.88359 0.64319
 H880 H 0.76825 0.84646 0.60588
 C881 C 0.28313 0.89519 0.40244
 C882 C 0.26356 0.92035 0.38659
 C883 C 0.22903 0.91999 0.39101
 C884 C 0.21373 0.89608 0.41108
 C885 C 0.23209 0.87132 0.42792
 C886 C 0.26738 0.87004 0.42276
 C887 C 0.31832 0.89574 0.40017
 C888 C 0.33751 0.87120 0.41550
 C889 C 0.32233 0.84595 0.43391
 C890 C 0.28788 0.84544 0.43791
 H891 H 0.33154 0.91533 0.38696
 H892 H 0.36435 0.87191 0.41327
 H893 H 0.33743 0.82686 0.44571
 H894 H 0.27847 0.82530 0.45303
 H895 H 0.21362 0.93864 0.37882
 H896 H 0.18694 0.89747 0.41387
 C897 C 0.10447 0.40676 0.71117
 C898 C 0.08010 0.39005 0.73092
 C899 C 0.08162 0.39192 0.76611
 C900 C 0.10571 0.41129 0.78200
 C901 C 0.12962 0.42938 0.76345
 C902 C 0.12997 0.42605 0.72734
 C903 C 0.10343 0.40521 0.67545
 C904 C 0.12753 0.42100 0.65590
 C905 C 0.15292 0.43886 0.67134
 C906 C 0.15411 0.44170 0.70646
 H907 H 0.08398 0.39188 0.66218
 H908 H 0.12649 0.41936 0.62859
 H909 H 0.17174 0.45094 0.65597
 H910 H 0.17457 0.45607 0.71607
 H911 H 0.06335 0.37891 0.78142
 H912 H 0.10505 0.41274 0.80935
 C913 C 0.08662 0.61018 0.23422
 C914 C 0.08188 0.60332 0.26904
 C915 C 0.10051 0.57824 0.28465
 C916 C 0.12247 0.55879 0.26598
 C917 C 0.12651 0.56385 0.23110
 C918 C 0.10945 0.59060 0.21513
 C919 C 0.06917 0.63623 0.21805
 C920 C 0.07457 0.64329 0.18395
 C921 C 0.09753 0.62481 0.16548
 C922 C 0.11497 0.59882 0.18082
 H923 H 0.05150 0.65150 0.23166
 H924 H 0.06114 0.66343 0.17188
 H925 H 0.10200 0.63078 0.13916
 H926 H 0.13323 0.58586 0.16570
 H927 H 0.09718 0.57299 0.31133
 H928 H 0.13532 0.53859 0.27867
 C929 C 0.87575 0.39130 0.28312
 C930 C 0.91010 0.39076 0.27306
 C931 C 0.92017 0.41761 0.25228
 C932 C 0.89744 0.43654 0.23427
 C933 C 0.86317 0.43137 0.23760
 C934 C 0.85186 0.40876 0.26287
 C935 C 0.86468 0.37774 0.31419
 C936 C 0.83084 0.37502 0.32146
 C937 C 0.80739 0.38674 0.29850
 C938 C 0.81766 0.40376 0.26955
 H939 H 0.88205 0.36947 0.33331
 H940 H 0.82279 0.36350 0.34487
 H941 H 0.78110 0.38366 0.30373
 H942 H 0.79850 0.41291 0.25285
 H943 H 0.94592 0.42483 0.24963
 H944 H 0.90703 0.45608 0.21794
 C945 C 0.91659 0.61748 0.77429
 C946 C 0.91481 0.61782 0.73839
 C947 C 0.88940 0.59994 0.72219
 C948 C 0.86801 0.57940 0.74055
 C949 C 0.87075 0.57651 0.77583
 C950 C 0.89405 0.59717 0.79320
 C951 C 0.93955 0.63798 0.79180
 C952 C 0.94039 0.63848 0.82701
 C953 C 0.91804 0.61922 0.84548
 C954 C 0.89494 0.59902 0.82890
 H955 H 0.95661 0.65430 0.77848
 H956 H 0.95806 0.65437 0.84001
 H957 H 0.91827 0.62026 0.87284
 H958 H 0.87731 0.58588 0.84449
 H959 H 0.88737 0.60026 0.69485
 H960 H 0.85008 0.56445 0.72673
 C961 C 0.76922 0.61303 0.92518
 C962 C 0.73392 0.61321 0.92221
 C963 C 0.71898 0.59600 0.89535
 C964 C 0.73783 0.57648 0.87358
 C965 C 0.77244 0.57354 0.87748
 C966 C 0.78868 0.59328 0.90257
 C967 C 0.78563 0.63328 0.94932
 C968 C 0.82020 0.63368 0.95167
 C969 C 0.83919 0.61463 0.92964
 C970 C 0.82376 0.59491 0.90518
 H971 H 0.77195 0.64946 0.96618
 H972 H 0.83234 0.64929 0.97032
 H973 H 0.86609 0.61554 0.93113
 H974 H 0.83989 0.58198 0.88797
 H975 H 0.69215 0.59615 0.89231
 H976 H 0.72482 0.56236 0.85429
 C977 C 0.28789 0.41780 0.89452
 C978 C 0.27013 0.39491 0.91532
 C979 C 0.23538 0.39314 0.91282
 C980 C 0.21811 0.41317 0.89012
 C981 C 0.23474 0.43627 0.86946
 C982 C 0.27007 0.43923 0.87198
 C983 C 0.32285 0.42133 0.89725
 C984 C 0.33990 0.44528 0.87844
 C985 C 0.32258 0.46670 0.85719
 C986 C 0.28811 0.46407 0.85417
 H987 H 0.33733 0.40606 0.91432
 H988 H 0.36664 0.44766 0.88089
 H989 H 0.33589 0.48582 0.84327
 H990 H 0.27619 0.48242 0.83841
 H991 H 0.22145 0.37596 0.92865
 H992 H 0.19125 0.41076 0.88894
 C993 C 0.28578 0.57475 0.10538
 C994 C 0.26852 0.59685 0.08342
 C995 C 0.23369 0.59795 0.08446
 C996 C 0.21585 0.57807 0.10689
 C997 C 0.23198 0.55566 0.12864
 C998 C 0.26741 0.55335 0.12758
 C999 C 0.32086 0.57199 0.10419
 C1000 C 0.33752 0.54875 0.12412
 C1001 C 0.31970 0.52729 0.14500
 C1002 C 0.28510 0.52920 0.14655
 H1003 H 0.33575 0.58732 0.08746
 H1004 H 0.36437 0.54693 0.12284
 H1005 H 0.33274 0.50870 0.15980
 H1006 H 0.27285 0.51085 0.16213
 H1007 H 0.22015 0.61459 0.06779
 H1008 H 0.18895 0.58003 0.10698
 C1009 C 0.74652 0.37626 0.11525
 C1010 C 0.73222 0.38939 0.08496
 C1011 C 0.73312 0.42409 0.07954
 C1012 C 0.74808 0.44544 0.10263
 C1013 C 0.76209 0.43314 0.13242
 C1014 C 0.76110 0.39849 0.13932
 C1015 C 0.74856 0.34152 0.12130
 C1016 C 0.76281 0.32922 0.15096
 C1017 C 0.77602 0.35104 0.17483
 C1018 C 0.77552 0.38535 0.16904
 H1019 H 0.73964 0.32350 0.10308
 H1020 H 0.76388 0.30255 0.15530
 H1021 H 0.78719 0.34131 0.19772
 H1022 H 0.78675 0.40142 0.18786
 H1023 H 0.72198 0.43489 0.05708
 H1024 H 0.74888 0.47195 0.09711
 C1025 C 0.91480 0.77844 0.61828
 C1026 C 0.91408 0.74295 0.61800
 C1027 C 0.88897 0.72652 0.59986
 C1028 C 0.86712 0.74426 0.57940
 C1029 C 0.86893 0.77919 0.57692
 C1030 C 0.89153 0.79673 0.59825
 C1031 C 0.93733 0.79610 0.63916
 C1032 C 0.93698 0.83084 0.64040
 C1033 C 0.91378 0.84865 0.62160
 C1034 C 0.89104 0.83191 0.60102
 H1035 H 0.95496 0.78322 0.65519
 H1036 H 0.95435 0.84398 0.65658
 H1037 H 0.91306 0.87560 0.62336
 H1038 H 0.87249 0.84692 0.58845
 H1039 H 0.88767 0.69948 0.59973
 H1040 H 0.84971 0.73025 0.56399
 C1041 C 0.90635 0.21841 0.37737
 C1042 C 0.90673 0.25384 0.37773
 C1043 C 0.88207 0.27092 0.39582
 C1044 C 0.86014 0.25376 0.41685
 C1045 C 0.86154 0.21890 0.41975
 C1046 C 0.88308 0.20078 0.39796
 C1047 C 0.92811 0.20022 0.35628
 C1048 C 0.92680 0.16548 0.35527
 C1049 C 0.90352 0.14825 0.37469
 C1050 C 0.88168 0.16560 0.39564
 H1051 H 0.94587 0.21275 0.34002
 H1052 H 0.94355 0.15188 0.33890
 H1053 H 0.90213 0.12131 0.37322
 H1054 H 0.86312 0.15116 0.40904
 H1055 H 0.88154 0.29798 0.39585
 H1056 H 0.84340 0.26809 0.43262
 C1057 C 0.10875 0.28561 0.60095
 C1058 C 0.07896 0.26907 0.61121
 C1059 C 0.07555 0.23487 0.60475
 C1060 C 0.09984 0.21740 0.58731
 C1061 C 0.12928 0.23295 0.57619
 C1062 C 0.13497 0.26703 0.58539
 C1063 C 0.11247 0.32059 0.60443
 C1064 C 0.14236 0.33635 0.59650
 C1065 C 0.16911 0.31776 0.58492
 C1066 C 0.16566 0.28357 0.57948
 H1067 H 0.09233 0.33620 0.61318
 H1068 H 0.14495 0.36303 0.59988
 H1069 H 0.19271 0.32994 0.57995
 H1070 H 0.18787 0.27065 0.57194
 H1071 H 0.05352 0.22145 0.61301
 H1072 H 0.09491 0.19139 0.58173
 C1073 C 0.08371 0.76719 0.38471
 C1074 C 0.08493 0.73178 0.38690
 C1075 C 0.11056 0.71669 0.40538
 C1076 C 0.13259 0.73584 0.42437
 C1077 C 0.13030 0.77079 0.42496
 C1078 C 0.10708 0.78685 0.40322
 C1079 C 0.06044 0.78339 0.36349
 C1080 C 0.06023 0.81803 0.36048
 C1081 C 0.08358 0.83717 0.37778
 C1082 C 0.10702 0.82187 0.39864
 H1083 H 0.04264 0.76943 0.34856
 H1084 H 0.04228 0.83004 0.34410
 H1085 H 0.08386 0.86402 0.37464
 H1086 H 0.12561 0.83780 0.41003
 H1087 H 0.11218 0.68972 0.40694
 H1088 H 0.15053 0.72299 0.44013
 C1089 C 0.62146 0.88882 0.75552
 C1090 C 0.60809 0.91333 0.73351
 C1091 C 0.57370 0.91410 0.72760
 C1092 C 0.55238 0.89206 0.74419
 C1093 C 0.56489 0.86834 0.76682
 C1094 C 0.59964 0.86595 0.77209
 C1095 C 0.65595 0.88701 0.76204
 C1096 C 0.66863 0.86289 0.78399
 C1097 C 0.64733 0.84023 0.79979
 C1098 C 0.61313 0.84162 0.79392
 H1099 H 0.67331 0.90417 0.75031
 H1100 H 0.69515 0.86174 0.78873
 H1101 H 0.65734 0.82150 0.81670
 H1102 H 0.59737 0.82343 0.80637
 H1103 H 0.56322 0.93270 0.71080
 H1104 H 0.52578 0.89418 0.74013
 C1105 C 0.39909 0.89665 0.28674
 C1106 C 0.38363 0.92183 0.26677
 C1107 C 0.38849 0.92186 0.23175
 C1108 C 0.40805 0.89787 0.21626
 C1109 C 0.42403 0.87274 0.23494
 C1110 C 0.41919 0.87164 0.27088
 C1111 C 0.39666 0.89712 0.32248
 C1112 C 0.41205 0.87291 0.34217
 C1113 C 0.43074 0.84811 0.32696
 C1114 C 0.43464 0.84752 0.29196
 H1115 H 0.38338 0.91651 0.33577
 H1116 H 0.40983 0.87366 0.36943
 H1117 H 0.44293 0.82950 0.34247
 H1118 H 0.45052 0.82812 0.28270
 H1119 H 0.37678 0.94069 0.21606
 H1120 H 0.41091 0.89932 0.18905
 C1121 C 0.57232 0.07743 0.27212
 C1122 C 0.60706 0.07923 0.26593
 C1123 C 0.61961 0.10386 0.24417
 C1124 C 0.59823 0.12604 0.22785
 C1125 C 0.56375 0.12389 0.23253
 C1126 C 0.55048 0.09939 0.25467
 C1127 C 0.55879 0.05390 0.29501
 C1128 C 0.52447 0.05139 0.29972
 C1129 C 0.50306 0.07217 0.28183
 C1130 C 0.51585 0.09593 0.25951
 H1131 H 0.57455 0.03729 0.30946
 H1132 H 0.51444 0.03313 0.31719
 H1133 H 0.47641 0.06995 0.28535
 H1134 H 0.49847 0.11143 0.24599
 H1135 H 0.64610 0.10540 0.23925
 H1136 H 0.60863 0.14446 0.21078
 C1137 C 0.40632 0.11021 0.71076
 C1138 C 0.39085 0.08394 0.72932
 C1139 C 0.39473 0.08277 0.76446
 C1140 C 0.41408 0.10611 0.78129
 C1141 C 0.43060 0.13191 0.76397
 C1142 C 0.42582 0.13487 0.72809
 C1143 C 0.40439 0.11132 0.67500
 C1144 C 0.41919 0.13702 0.65674
 C1145 C 0.43688 0.16176 0.67342
 C1146 C 0.44051 0.16069 0.70845
 H1147 H 0.39178 0.09219 0.66060
 H1148 H 0.41711 0.13760 0.62944
 H1149 H 0.44840 0.18170 0.65904
 H1150 H 0.45513 0.18058 0.71888
 H1151 H 0.38270 0.06331 0.77915
 H1152 H 0.41653 0.10345 0.80845
 C1153 C 0.56530 0.70865 0.10377
 C1154 C 0.59389 0.72442 0.09014
 C1155 C 0.60093 0.75763 0.09838
 C1156 C 0.57983 0.77557 0.11947
 C1157 C 0.55109 0.76082 0.13300
 C1158 C 0.54346 0.72704 0.12513
 C1159 C 0.55747 0.67522 0.09571
 C1160 C 0.52845 0.66035 0.10795
 C1161 C 0.50667 0.67848 0.12815
 C1162 C 0.51392 0.71149 0.13662
 H1163 H 0.57356 0.66041 0.07975
 H1164 H 0.52268 0.63474 0.10147
 H1165 H 0.48393 0.66696 0.13718
 H1166 H 0.49588 0.72459 0.15179
 H1167 H 0.62258 0.76995 0.08774
 H1168 H 0.58575 0.80141 0.12496
 C1169 C 0.42414 0.28895 0.10020
 C1170 C 0.39559 0.27269 0.08707
 C1171 C 0.38873 0.23969 0.09631
 C1172 C 0.41004 0.22240 0.11779
 C1173 C 0.43889 0.23753 0.13067
 C1174 C 0.44627 0.27118 0.12188
 C1175 C 0.43165 0.32226 0.09126
 C1176 C 0.46062 0.33761 0.10292
 C1177 C 0.48271 0.32008 0.12337
 C1178 C 0.47580 0.28721 0.13272
 H1179 H 0.41531 0.33661 0.07509
 H1180 H 0.46614 0.36312 0.09577
 H1181 H 0.50543 0.33198 0.13192
 H1182 H 0.49417 0.27462 0.14798
 H1183 H 0.36711 0.22700 0.08609
 H1184 H 0.40422 0.19668 0.12399
 C1185 C 0.57459 0.27954 0.91058
 C1186 C 0.60775 0.26778 0.91303
 C1187 C 0.61767 0.24009 0.89403
 C1188 C 0.59502 0.22343 0.87329
 C1189 C 0.56206 0.23437 0.87070
 C1190 C 0.55158 0.26275 0.88914
 C1191 C 0.56367 0.30732 0.92950
 C1192 C 0.53079 0.31821 0.92733
 C1193 C 0.50824 0.30172 0.90644
 C1194 C 0.51842 0.27425 0.88749
 H1195 H 0.58037 0.32079 0.94611
 H1196 H 0.52275 0.33951 0.94201
 H1197 H 0.48271 0.31020 0.90495
 H1198 H 0.50011 0.26208 0.87172
 H1199 H 0.64289 0.23078 0.89605
 H1200 H 0.60314 0.20160 0.85944
 C1201 C 0.38651 0.76754 0.91884
 C1202 C 0.38852 0.73229 0.91721
 C1203 C 0.40985 0.71738 0.89385
 C1204 C 0.43034 0.73674 0.87328
 C1205 C 0.43065 0.77174 0.87567
 C1206 C 0.40795 0.78760 0.89834
 C1207 C 0.36354 0.78317 0.94074
 C1208 C 0.36190 0.81778 0.94290
 C1209 C 0.38280 0.83747 0.92321
 C1210 C 0.40545 0.82273 0.90111
 H1211 H 0.34648 0.76880 0.95618
 H1212 H 0.34424 0.82938 0.95986
 H1213 H 0.38133 0.86439 0.92487
 H1214 H 0.42042 0.83957 0.88639
 H1215 H 0.41147 0.69043 0.89235
 H1216 H 0.44720 0.72403 0.85626
 C1217 C 0.76190 0.88880 0.37326
 C1218 C 0.73204 0.90414 0.38401
 C1219 C 0.71863 0.89618 0.41570
 C1220 C 0.73531 0.87469 0.43752
 C1221 C 0.76609 0.86112 0.42844
 C1222 C 0.77893 0.86687 0.39562
 C1223 C 0.77539 0.89510 0.34092
 C1224 C 0.80471 0.87951 0.33067
 C1225 C 0.82091 0.85735 0.35226
 C1226 C 0.80814 0.85097 0.38444
 H1227 H 0.76327 0.91183 0.32331
 H1228 H 0.81475 0.88438 0.30573
 H1229 H 0.84335 0.84492 0.34396
 H1230 H 0.82069 0.83293 0.40023
 H1231 H 0.69570 0.90772 0.42405
 H1232 H 0.72502 0.87014 0.46244
 C1233 C 0.28698 0.89488 0.58104
 C1234 C 0.26913 0.91122 0.60703
 C1235 C 0.23522 0.90473 0.61134
 C1236 C 0.21853 0.88297 0.58978
 C1237 C 0.23518 0.86705 0.56313
 C1238 C 0.26991 0.87287 0.55857
 C1239 C 0.32130 0.90098 0.57625
 C1240 C 0.33848 0.88600 0.54975
 C1241 C 0.32183 0.86512 0.52734
 C1242 C 0.28791 0.85877 0.53140
 H1243 H 0.33511 0.91745 0.59280
 H1244 H 0.36479 0.89090 0.54638
 H1245 H 0.33526 0.85389 0.50657
 H1246 H 0.27627 0.84308 0.51271
 H1247 H 0.22138 0.91734 0.63104
 H1248 H 0.19207 0.87906 0.59349
 C1249 C 0.28022 0.10943 0.41341
 C1250 C 0.26124 0.09383 0.38768
 C1251 C 0.22722 0.10047 0.38495
 C1252 C 0.21155 0.12160 0.40783
 C1253 C 0.22938 0.13671 0.43422
 C1254 C 0.26420 0.13074 0.43722
 C1255 C 0.31466 0.10318 0.41670
 C1256 C 0.33293 0.11730 0.44301
 C1257 C 0.31727 0.13743 0.46674
 C1258 C 0.28328 0.14393 0.46416
 H1259 H 0.32774 0.08724 0.39911
 H1260 H 0.35931 0.11228 0.44521
 H1261 H 0.33153 0.14791 0.48740
 H1262 H 0.27240 0.15896 0.48381
 H1263 H 0.21249 0.08834 0.36554
 H1264 H 0.18500 0.12563 0.40535
 C1265 C 0.76797 0.10212 0.62651
 C1266 C 0.73580 0.08993 0.61853
 C1267 C 0.71972 0.10131 0.58932
 C1268 C 0.73554 0.12323 0.56727
 C1269 C 0.76838 0.13348 0.57304
 C1270 C 0.78456 0.12387 0.60342
 C1271 C 0.78415 0.09278 0.65672
 C1272 C 0.81601 0.10467 0.66406
 C1273 C 0.83219 0.12608 0.64162
 C1274 C 0.81669 0.13571 0.61159
 H1275 H 0.77226 0.07637 0.67486
 H1276 H 0.82815 0.09735 0.68735
 H1277 H 0.85681 0.13541 0.64759
 H1278 H 0.82983 0.15287 0.59518
 H1279 H 0.69495 0.09241 0.58313
 H1280 H 0.72257 0.13080 0.54463
 C1281 C 0.89573 0.57093 0.29545
 C1282 C 0.90939 0.59976 0.27997
 C1283 C 0.89950 0.60872 0.24729
 C1284 C 0.87680 0.58920 0.22949
 C1285 C 0.86331 0.56018 0.24386
 C1286 C 0.87277 0.55067 0.27715
 C1287 C 0.90532 0.56129 0.32838
 C1288 C 0.89306 0.53196 0.34279
 C1289 C 0.87132 0.51165 0.32466
 C1290 C 0.86129 0.52072 0.29217
 H1291 H 0.92250 0.57619 0.34314
 H1292 H 0.90073 0.52478 0.36801
 H1293 H 0.86226 0.48865 0.33579
 H1294 H 0.84487 0.50376 0.27905
 H1295 H 0.91009 0.63059 0.23521
 H1296 H 0.87017 0.59645 0.20394
 C1297 C 0.89377 0.42784 0.70927
 C1298 C 0.90634 0.39860 0.72479
 C1299 C 0.89719 0.39087 0.75801
 C1300 C 0.87656 0.41204 0.77634
 C1301 C 0.86444 0.44165 0.76204
 C1302 C 0.87298 0.44985 0.72811
 C1303 C 0.90252 0.43624 0.67574
 C1304 C 0.89152 0.46592 0.66119
 C1305 C 0.87197 0.48787 0.67976
 C1306 C 0.86285 0.48012 0.71290
 H1307 H 0.91805 0.42004 0.66061
 H1308 H 0.89851 0.47211 0.63549
 H1309 H 0.86394 0.51114 0.66850
 H1310 H 0.84827 0.49838 0.72634
 H1311 H 0.90699 0.36873 0.77018
 H1312 H 0.87058 0.40562 0.80227
 C1313 C 0.10120 0.58216 0.70864
 C1314 C 0.08567 0.60791 0.72730
 C1315 C 0.09243 0.61140 0.76180
 C1316 C 0.11370 0.58936 0.77821
 C1317 C 0.12895 0.56312 0.76068
 C1318 C 0.12282 0.55931 0.72542
 C1319 C 0.09475 0.57805 0.67378
 C1320 C 0.10910 0.55193 0.65578
 C1321 C 0.12968 0.52923 0.67216
 C1322 C 0.13631 0.53258 0.70662
 H1323 H 0.07850 0.59486 0.66016
 H1324 H 0.10396 0.54909 0.62906
 H1325 H 0.14042 0.50879 0.65808
 H1326 H 0.15170 0.51375 0.71812
 H1327 H 0.08040 0.63088 0.77629
 H1328 H 0.11794 0.59256 0.80509
 C1329 C 0.10637 0.37080 0.24750
 C1330 C 0.07948 0.38394 0.26644
 C1331 C 0.07527 0.41859 0.26852
 C1332 C 0.09680 0.44025 0.25186
 C1333 C 0.12348 0.42793 0.23305
 C1334 C 0.12885 0.39308 0.23100
 C1335 C 0.11106 0.33610 0.24403
 C1336 C 0.13768 0.32366 0.22524
 C1337 C 0.15997 0.34546 0.20959
 C1338 C 0.15571 0.37988 0.21240
 H1339 H 0.09419 0.31836 0.25562
 H1340 H 0.14103 0.29698 0.22280
 H1341 H 0.18059 0.33565 0.19509
 H1342 H 0.17356 0.39602 0.19997
 H1343 H 0.05477 0.42893 0.28287
 H1344 H 0.09245 0.46690 0.25342
   
