data_POSCAR
  _audit_creation_date              2014-09-24
  _audit_creation_method            'ToBaCCo'
  _symmetry_space_group_name_H-M    'P1'
  _symmetry_Int_Tables_number       1
  _symmetry_cell_setting            triclinic
  loop_
  _symmetry_equiv_pos_as_xyz
 x,y,z
_cell_length_a 56.7830
_cell_length_b 53.9835
_cell_length_c 56.9546
_cell_angle_alpha 89.956700
_cell_angle_beta 89.893200
_cell_angle_gamma 90.118400
loop_
  _atom_site_label
  _atom_site_type_symbol
  _atom_site_fract_x
  _atom_site_fract_y
  _atom_site_fract_z
O1 O 0.35196 0.38350 0.02478
 O2 O 0.38549 0.35371 -0.02261
 O3 O 0.35215 0.38720 -0.02067
 O4 O 0.38403 0.34912 0.02289
 O5 O 0.35618 0.32070 0.02049
 O6 O 0.32553 0.35768 -0.02411
 O7 O 0.35851 0.32438 -0.02504
 O8 O 0.32413 0.35517 0.02145
 Cu9 Cu 0.37117 0.37126 0.00132
 Cu10 Cu 0.33838 0.33658 -0.00208
 C11 C 0.33222 0.37463 0.03109
 C12 C 0.37790 0.33381 -0.03179
 C13 C 0.33328 0.37894 -0.02985
 C14 C 0.37540 0.32840 0.02923
 O15 O 0.61947 0.65618 -0.02112
 O16 O 0.65353 0.62123 0.02230
 O17 O 0.62021 0.65435 0.02461
 O18 O 0.65419 0.62475 -0.02320
 O19 O 0.67971 0.65553 -0.02193
 O20 O 0.64689 0.68406 0.02646
 O21 O 0.67993 0.65123 0.02360
 O22 O 0.64502 0.68693 -0.01917
 Cu23 Cu 0.63421 0.63612 0.00049
 Cu24 Cu 0.66548 0.67248 0.00234
 C25 C 0.62628 0.67754 -0.02754
 C26 C 0.67259 0.63012 0.03033
 C27 C 0.62798 0.67420 0.03385
 C28 C 0.67287 0.63516 -0.03077
 O29 O 0.62631 0.34628 1.02585
 O30 O 0.65741 0.37619 0.97664
 O31 O 0.62190 0.34555 0.98037
 O32 O 0.66156 0.37696 1.02193
 O33 O 0.68551 0.34491 1.02092
 O34 O 0.64699 0.31452 0.97764
 O35 O 0.68234 0.34493 0.97520
 O36 O 0.65015 0.31418 1.02317
 Cu37 Cu 0.63931 0.36440 1.00137
 Cu38 Cu 0.66873 0.32648 0.99907
 C39 C 0.63279 0.32500 1.03279
 C40 C 0.67533 0.36578 0.96764
 C41 C 0.62775 0.32474 0.97177
 C42 C 0.68029 0.36629 1.02870
 O43 O 0.37711 0.65739 1.02086
 O44 O 0.34830 0.62075 0.97442
 O45 O 0.37959 0.65617 0.97518
 O46 O 0.34616 0.62181 1.02016
 O47 O 0.31712 0.64862 1.01718
 O48 O 0.35176 0.68460 0.97415
 O49 O 0.32056 0.64915 0.97166
 O50 O 0.34800 0.68434 1.01965
 Cu51 Cu 0.36564 0.63626 0.99783
 Cu52 Cu 0.33151 0.66944 0.99545
 C53 C 0.36738 0.67706 1.02833
 C54 C 0.32953 0.62879 0.96500
 C55 C 0.37154 0.67643 0.96718
 C56 C 0.32579 0.62914 1.02626
 O57 O -0.02397 0.38542 0.34729
 O58 O 0.02383 0.35395 0.37892
 O59 O 0.02157 0.38795 0.34631
 O60 O -0.02208 0.35080 0.37922
 O61 O -0.02173 0.32283 0.35106
 O62 O 0.02353 0.35856 0.31949
 O63 O 0.02412 0.32447 0.35213
 O64 O -0.02224 0.35712 0.31941
 Cu65 Cu -0.00023 0.37236 0.36575
 Cu66 Cu 0.00114 0.33784 0.33280
 C67 C -0.03114 0.37679 0.32783
 C68 C 0.03197 0.33368 0.37109
 C69 C 0.02994 0.37959 0.32718
 C70 C -0.02973 0.33060 0.37056
 O71 O 0.02565 0.64669 0.62432
 O72 O -0.02335 0.61629 0.65547
 O73 O -0.01998 0.64788 0.62091
 O74 O 0.02249 0.61568 0.65917
 O75 O 0.02219 0.64756 0.68337
 O76 O -0.02270 0.67799 0.64686
 O77 O -0.02365 0.64654 0.68149
 O78 O 0.02313 0.67856 0.64841
 Cu79 Cu 0.00131 0.62849 0.63748
 Cu80 Cu -0.00041 0.66576 0.66756
 C81 C 0.03258 0.66797 0.63085
 C82 C -0.03171 0.62607 0.67396
 C83 C -0.02880 0.66841 0.62741
 C84 C 0.02991 0.62634 0.67763
 O85 O 1.02513 0.61670 0.34814
 O86 O 0.97696 0.64968 0.37817
 O87 O 0.97952 0.61431 0.34666
 O88 O 1.02266 0.65210 0.37919
 O89 O 1.02231 0.67979 0.35074
 O90 O 0.97884 0.64250 0.31860
 O91 O 0.97664 0.67759 0.34987
 O92 O 1.02458 0.64464 0.31985
 Cu93 Cu 1.00105 0.63040 0.36590
 Cu94 Cu 1.00050 0.66390 0.33193
 C95 C 1.03307 0.62504 0.32881
 C96 C 0.96873 0.66944 0.36927
 C97 C 0.97194 0.62191 0.32696
 C98 C 1.02994 0.67246 0.37052
 O99 O 0.97277 0.33542 0.63762
 O100 O 1.02067 0.36594 0.67031
 O101 O 1.01838 0.33366 0.63629
 O102 O 0.97490 0.36798 0.67154
 O103 O 0.97435 0.33770 0.69754
 O104 O 1.01789 0.30343 0.66231
 O105 O 1.02018 0.33557 0.69624
 O106 O 0.97220 0.30525 0.66375
 Cu107 Cu 0.99671 0.35381 0.65137
 Cu108 Cu 0.99609 0.31748 0.68259
 C109 C 0.96443 0.31498 0.64499
 C110 C 1.02863 0.35596 0.68889
 C111 C 1.02552 0.31256 0.64315
 C112 C 0.96723 0.35877 0.69061
 O113 O 0.37319 0.02552 0.34324
 O114 O 0.34342 -0.02293 0.37798
 O115 O 0.37378 -0.02248 0.34368
 O116 O 0.34302 0.02554 0.37781
 O117 O 0.31375 0.02485 0.35240
 O118 O 0.34438 -0.02336 0.31842
 O119 O 0.31405 -0.02311 0.35268
 O120 O 0.34394 0.02493 0.31781
 Cu121 Cu 0.36125 0.00150 0.36328
 Cu122 Cu 0.32612 0.00081 0.33275
 C123 C 0.36373 0.03338 0.32446
 C124 C 0.32361 -0.03128 0.37126
 C125 C 0.36436 -0.03113 0.32520
 C126 C 0.32308 0.03336 0.37098
 O127 O 0.65755 -0.02219 0.61773
 O128 O 0.61992 0.02351 0.64761
 O129 O 0.65204 0.02548 0.61447
 O130 O 0.62585 -0.02387 0.65097
 O131 O 0.65396 -0.01859 0.67719
 O132 O 0.67877 0.03223 0.64186
 O133 O 0.64731 0.02887 0.67458
 O134 O 0.68558 -0.01548 0.64373
 Cu135 Cu 0.63610 0.00015 0.62998
 Cu136 Cu 0.66922 0.00724 0.66198
 C137 C 0.67813 -0.02642 0.62543
 C138 C 0.62704 0.03374 0.66640
 C139 C 0.66978 0.03739 0.62207
 C140 C 0.63534 -0.02954 0.67043
 O141 O 0.37864 0.97594 0.65121
 O142 O 0.34799 1.02326 0.61614
 O143 O 0.38132 1.02386 0.64779
 O144 O 0.34558 0.97530 0.61956
 O145 O 0.31855 0.97936 0.64716
 O146 O 0.35463 1.02717 0.67578
 O147 O 0.32147 1.02718 0.64423
 O148 O 0.35141 0.97912 0.67873
 Cu149 Cu 0.36609 0.99926 0.63087
 Cu150 Cu 0.33386 1.00363 0.66429
 C151 C 0.37018 0.96935 0.67092
 C152 C 0.32939 1.03323 0.62415
 C153 C 0.37416 1.03367 0.66676
 C154 C 0.32589 0.96911 0.62847
 O155 O 0.65465 1.02172 0.37909
 O156 O 0.62380 0.97417 0.34416
 O157 O 0.65383 0.97376 0.37886
 O158 O 0.62380 1.02234 0.34492
 O159 O 0.65286 1.02247 0.31917
 O160 O 0.68321 0.97413 0.35348
 O161 O 0.65317 0.97417 0.31878
 O162 O 0.68339 1.02236 0.35305
 Cu163 Cu 0.63608 0.99800 0.36429
 Cu164 Cu 0.67105 0.99825 0.33354
 C165 C 0.67440 1.03015 0.37211
 C166 C 0.63324 0.96606 0.32544
 C167 C 0.67377 0.96581 0.37216
 C168 C 0.63310 1.03066 0.32621
 C169 C 0.82848 0.79017 0.49050
 C170 C 0.82642 0.78948 0.51531
 C171 C 0.80997 0.80504 0.52636
 C172 C 0.79627 0.82179 0.51343
 C173 C 0.79893 0.82302 0.48878
 C174 C 0.81493 0.80713 0.47766
 H175 H 0.81649 0.80762 0.45868
 H176 H 0.80845 0.80487 0.54534
 C177 C 0.16588 0.20339 0.48823
 C178 C 0.16414 0.20200 0.51297
 C179 C 0.17886 0.18572 0.52526
 C180 C 0.19516 0.17071 0.51345
 C181 C 0.19681 0.17204 0.48871
 C182 C 0.18246 0.18871 0.47644
 H183 H 0.18328 0.18924 0.45741
 H184 H 0.17781 0.18493 0.54426
 C185 C 0.17327 0.79166 0.51396
 C186 C 0.17252 0.79143 0.48915
 C187 C 0.18753 0.80716 0.47643
 C188 C 0.20323 0.82307 0.48796
 C189 C 0.20468 0.82256 0.51274
 C190 C 0.18966 0.80681 0.52545
 H191 H 0.19029 0.80683 0.54448
 H192 H 0.18658 0.80747 0.45742
 C193 C 0.82776 0.20557 0.51071
 C194 C 0.82917 0.20749 0.48592
 C195 C 0.81400 0.19301 0.47204
 C196 C 0.79803 0.17622 0.48221
 C197 C 0.79718 0.17398 0.50695
 C198 C 0.81203 0.18860 0.52085
 H199 H 0.81097 0.18708 0.53981
 H200 H 0.81522 0.19417 0.45308
 C201 C 0.49028 0.83661 0.79950
 C202 C 0.51520 0.83629 0.80050
 C203 C 0.52638 0.82293 0.81838
 C204 C 0.51339 0.80930 0.83492
 C205 C 0.48853 0.80891 0.83344
 C206 C 0.47729 0.82250 0.81572
 H207 H 0.45821 0.82282 0.81513
 H208 H 0.54547 0.82264 0.81908
 C209 C 0.48794 0.17476 0.20540
 C210 C 0.51284 0.17305 0.20578
 C211 C 0.52610 0.18761 0.19016
 C212 C 0.51513 0.20317 0.17380
 C213 C 0.49030 0.20479 0.17334
 C214 C 0.47701 0.19049 0.18910
 H215 H 0.45796 0.19193 0.18895
 H216 H 0.54513 0.18599 0.18998
 C217 C 0.51359 0.17718 0.79205
 C218 C 0.48892 0.17443 0.79459
 C219 C 0.47703 0.18837 0.81163
 C220 C 0.48902 0.20497 0.82628
 C221 C 0.51373 0.20761 0.82400
 C222 C 0.52559 0.19385 0.80673
 H223 H 0.54459 0.19535 0.80534
 H224 H 0.45807 0.18657 0.81325
 C225 C 0.50997 0.82313 0.20693
 C226 C 0.48507 0.82488 0.20696
 C227 C 0.47198 0.80961 0.19189
 C228 C 0.48309 0.79316 0.17641
 C229 C 0.50800 0.79226 0.17557
 C230 C 0.52110 0.80702 0.19109
 H231 H 0.54017 0.80614 0.19069
 H232 H 0.45291 0.81070 0.19202
 C233 C 0.79337 0.49067 0.82913
 C234 C 0.79230 0.51682 0.82733
 C235 C 0.80804 0.52922 0.81237
 C236 C 0.82461 0.51612 0.79903
 C237 C 0.82500 0.48996 0.80001
 C238 C 0.80943 0.47755 0.81513
 H239 H 0.81008 0.45751 0.81628
 H240 H 0.80770 0.54929 0.81146
 C241 C 0.19877 0.48858 0.16464
 C242 C 0.19869 0.51474 0.16375
 C243 C 0.18463 0.52802 0.17954
 C244 C 0.17035 0.51584 0.19607
 C245 C 0.17033 0.48960 0.19698
 C246 C 0.18465 0.47637 0.18127
 H247 H 0.18465 0.45629 0.18183
 H248 H 0.18455 0.54810 0.17873
 C249 C 0.80442 0.51477 0.16423
 C250 C 0.80453 0.48864 0.16211
 C251 C 0.81896 0.47472 0.17711
 C252 C 0.83314 0.48615 0.19411
 C253 C 0.83304 0.51228 0.19617
 C254 C 0.81869 0.52619 0.18112
 H255 H 0.81864 0.54623 0.18252
 H256 H 0.81920 0.45470 0.17553
 C257 C 0.20340 0.51096 0.82766
 C258 C 0.20586 0.48483 0.82744
 C259 C 0.19142 0.47076 0.81250
 C260 C 0.17459 0.48199 0.79801
 C261 C 0.17181 0.50803 0.79858
 C262 C 0.18641 0.52215 0.81325
 H263 H 0.18436 0.54211 0.81366
 H264 H 0.19312 0.45075 0.81226
 C265 C 0.32836 0.40729 0.06202
 C266 C 0.31521 0.41984 0.07897
 C267 C 0.29183 0.41300 0.08365
 C268 C 0.28208 0.39266 0.07162
 C269 C 0.29529 0.37997 0.05476
 C270 C 0.31849 0.38733 0.04960
 C271 C 0.27842 0.42729 0.10136
 C272 C 0.25493 0.42983 0.10072
 C273 C 0.24126 0.44494 0.11769
 C274 C 0.21685 0.44102 0.11931
 C275 C 0.20310 0.45510 0.13465
 C276 C 0.21347 0.47357 0.14854
 C277 C 0.23785 0.47755 0.14704
 C278 C 0.25161 0.46355 0.13165
 H279 H 0.34624 0.41330 0.05858
 H280 H 0.32320 0.43527 0.08817
 H281 H 0.26438 0.38630 0.07534
 H282 H 0.28727 0.36454 0.04563
 H283 H 0.28858 0.43663 0.11473
 H284 H 0.24504 0.42053 0.08709
 H285 H 0.20838 0.42698 0.10867
 H286 H 0.18430 0.45178 0.13551
 H287 H 0.24623 0.49156 0.15777
 H288 H 0.27018 0.46780 0.13057
 C289 C 0.68006 0.59104 0.05271
 C290 C 0.69308 0.57723 0.06883
 C291 C 0.71263 0.58765 0.08020
 C292 C 0.71858 0.61252 0.07545
 C293 C 0.70564 0.62628 0.05919
 C294 C 0.68629 0.61566 0.04760
 C295 C 0.72594 0.57204 0.09701
 C296 C 0.74797 0.57707 0.10404
 C297 C 0.76170 0.56089 0.11999
 C298 C 0.78626 0.56389 0.12066
 C299 C 0.80006 0.54900 0.13517
 C300 C 0.78956 0.53075 0.14927
 C301 C 0.76501 0.52802 0.14913
 C302 C 0.75114 0.54299 0.13469
 H303 H 0.66520 0.58232 0.04412
 H304 H 0.68796 0.55823 0.07227
 H305 H 0.73295 0.62164 0.08438
 H306 H 0.71067 0.64532 0.05585
 H307 H 0.71754 0.55504 0.10262
 H308 H 0.75708 0.59298 0.09688
 H309 H 0.79485 0.57765 0.10973
 H310 H 0.81900 0.55144 0.13515
 H311 H 0.75659 0.51432 0.16027
 H312 H 0.73226 0.54062 0.13544
 C313 C 0.70534 0.36526 0.93536
 C314 C 0.71804 0.37721 0.91761
 C315 C 0.71428 0.40238 0.91286
 C316 C 0.69688 0.41520 0.92555
 C317 C 0.68399 0.40319 0.94310
 C318 C 0.68829 0.37818 0.94839
 C319 C 0.72861 0.41474 0.89457
 C320 C 0.73503 0.43857 0.89619
 C321 C 0.75029 0.45100 0.87872
 C322 C 0.76467 0.47062 0.88613
 C323 C 0.77902 0.48314 0.87012
 C324 C 0.77875 0.47673 0.84624
 C325 C 0.76445 0.45704 0.83876
 C326 C 0.75029 0.44427 0.85485
 H327 H 0.70890 0.34591 0.93890
 H328 H 0.73120 0.36692 0.90789
 H329 H 0.69308 0.43444 0.92182
 H330 H 0.67086 0.41359 0.95274
 H331 H 0.73543 0.40343 0.88041
 H332 H 0.73022 0.44905 0.91168
 H333 H 0.76495 0.47614 0.90441
 H334 H 0.79027 0.49796 0.87635
 H335 H 0.76394 0.45186 0.82040
 H336 H 0.73897 0.42961 0.84846
 C337 C 0.32538 0.59019 0.94081
 C338 C 0.31357 0.57617 0.92384
 C339 C 0.29390 0.58585 0.91212
 C340 C 0.28682 0.61027 0.91708
 C341 C 0.29854 0.62422 0.93410
 C342 C 0.31779 0.61425 0.94633
 C343 C 0.28135 0.57003 0.89485
 C344 C 0.25868 0.57348 0.88905
 C345 C 0.24531 0.55726 0.87279
 C346 C 0.22061 0.55820 0.87350
 C347 C 0.20710 0.54330 0.85871
 C348 C 0.21801 0.52712 0.84284
 C349 C 0.24269 0.52647 0.84162
 C350 C 0.25626 0.54142 0.85644
 H351 H 0.34023 0.58202 0.94984
 H352 H 0.31957 0.55753 0.92018
 H353 H 0.27239 0.61885 0.90779
 H354 H 0.29248 0.64285 0.93768
 H355 H 0.29076 0.55420 0.88801
 H356 H 0.24882 0.58804 0.89761
 H357 H 0.21169 0.57035 0.88575
 H358 H 0.18807 0.54411 0.85989
 H359 H 0.25142 0.51441 0.82917
 H360 H 0.27521 0.54068 0.85473
 C361 C 0.06346 0.33287 0.40182
 C362 C 0.08064 0.32027 0.41468
 C363 C 0.08484 0.29505 0.41065
 C364 C 0.07221 0.28281 0.39288
 C365 C 0.05529 0.29549 0.37978
 C366 C 0.05055 0.32056 0.38430
 C367 C 0.10265 0.28203 0.42497
 C368 C 0.10011 0.25829 0.43135
 C369 C 0.11730 0.24515 0.44630
 C370 C 0.10924 0.22609 0.46104
 C371 C 0.12501 0.21283 0.47497
 C372 C 0.14918 0.21817 0.47413
 C373 C 0.15739 0.23696 0.45917
 C374 C 0.14156 0.25048 0.44545
 H375 H 0.06032 0.35225 0.40557
 H376 H 0.09034 0.33012 0.42813
 H377 H 0.07553 0.26351 0.38894
 H378 H 0.04570 0.28555 0.36632
 H379 H 0.11729 0.29276 0.43172
 H380 H 0.08417 0.24843 0.42663
 H381 H 0.09067 0.22150 0.46181
 H382 H 0.11843 0.19814 0.48618
 H383 H 0.17603 0.24112 0.45815
 H384 H 0.14840 0.26462 0.43379
 C385 C 0.06581 0.66734 0.60188
 C386 C 0.08370 0.67933 0.58936
 C387 C 0.08753 0.70482 0.59216
 C388 C 0.07368 0.71801 0.60837
 C389 C 0.05599 0.70597 0.62112
 C390 C 0.05172 0.68056 0.61783
 C391 C 0.10623 0.71709 0.57825
 C392 C 0.10428 0.74050 0.57068
 C393 C 0.12235 0.75278 0.55598
 C394 C 0.11523 0.77118 0.54013
 C395 C 0.13180 0.78354 0.52626
 C396 C 0.15582 0.77794 0.52825
 C397 C 0.16309 0.75986 0.54435
 C398 C 0.14648 0.74724 0.55805
 H399 H 0.06306 0.64770 0.59912
 H400 H 0.09432 0.66877 0.57714
 H401 H 0.07664 0.73756 0.61141
 H402 H 0.04551 0.71661 0.63339
 H403 H 0.12113 0.70600 0.57277
 H404 H 0.08819 0.75064 0.57411
 H405 H 0.09679 0.77592 0.53840
 H406 H 0.12592 0.79771 0.51414
 H407 H 0.18160 0.75552 0.54625
 H408 H 0.15258 0.73362 0.57057
 C409 C 0.93952 0.70404 0.37115
 C410 C 0.92304 0.71820 0.38341
 C411 C 0.91679 0.71219 0.40659
 C412 C 0.92731 0.69140 0.41721
 C413 C 0.94373 0.67713 0.40487
 C414 C 0.95019 0.68346 0.38180
 C415 C 0.90031 0.72890 0.41919
 C416 C 0.88962 0.72334 0.43958
 C417 C 0.87393 0.74086 0.45214
 C418 C 0.85729 0.73142 0.46810
 C419 C 0.84242 0.74737 0.48050
 C420 C 0.84413 0.77310 0.47738
 C421 C 0.86083 0.78262 0.46159
 C422 C 0.87572 0.76672 0.44922
 H423 H 0.94410 0.70942 0.35340
 H424 H 0.91534 0.73415 0.37481
 H425 H 0.92356 0.68635 0.43519
 H426 H 0.95180 0.66150 0.41363
 H427 H 0.89652 0.74644 0.41083
 H428 H 0.89157 0.70508 0.44712
 H429 H 0.85568 0.71163 0.47085
 H430 H 0.82954 0.73964 0.49251
 H431 H 0.86261 0.80244 0.45916
 H432 H 0.88887 0.77486 0.43782
 C433 C 0.93981 0.31025 0.60878
 C434 C 0.92339 0.29716 0.59533
 C435 C 0.91245 0.27571 0.60436
 C436 C 0.91835 0.26784 0.62711
 C437 C 0.93487 0.28083 0.64046
 C438 C 0.94591 0.30208 0.63138
 C439 C 0.89593 0.26020 0.59045
 C440 C 0.88590 0.26733 0.57021
 C441 C 0.87049 0.25102 0.55590
 C442 C 0.85561 0.26190 0.53914
 C443 C 0.84147 0.24722 0.52467
 C444 C 0.84212 0.22131 0.52651
 C445 C 0.85682 0.21034 0.54330
 C446 C 0.87103 0.22498 0.55772
 H447 H 0.94818 0.32644 0.60120
 H448 H 0.91997 0.30367 0.57773
 H449 H 0.91034 0.25134 0.63451
 H450 H 0.93917 0.27403 0.65783
 H451 H 0.89167 0.24218 0.59762
 H452 H 0.88845 0.28602 0.56389
 H453 H 0.85496 0.28185 0.53721
 H454 H 0.83013 0.25604 0.51190
 H455 H 0.85774 0.19036 0.54481
 H456 H 0.88278 0.21570 0.56974
 C457 C 0.36491 0.06282 0.29045
 C458 C 0.37686 0.07986 0.27629
 C459 C 0.40016 0.08675 0.28134
 C460 C 0.41128 0.07616 0.30103
 C461 C 0.39927 0.05922 0.31527
 C462 C 0.37602 0.05222 0.31004
 C463 C 0.41247 0.10384 0.26494
 C464 C 0.43260 0.11576 0.27001
 C465 C 0.44556 0.13163 0.25302
 C466 C 0.46271 0.14807 0.26162
 C467 C 0.47619 0.16247 0.24622
 C468 C 0.47290 0.16054 0.22189
 C469 C 0.45561 0.14441 0.21320
 C470 C 0.44220 0.12992 0.22856
 H471 H 0.34701 0.05780 0.28592
 H472 H 0.36791 0.08755 0.26117
 H473 H 0.42942 0.08024 0.30526
 H474 H 0.40840 0.05120 0.33011
 H475 H 0.40413 0.10693 0.24814
 H476 H 0.43989 0.11442 0.28748
 H477 H 0.46580 0.14966 0.28032
 H478 H 0.48937 0.17492 0.25326
 H479 H 0.45301 0.14250 0.19446
 H480 H 0.42980 0.11698 0.22103
 C481 C 0.58719 0.05165 0.67456
 C482 C 0.57231 0.06697 0.68766
 C483 C 0.58148 0.08241 0.70522
 C484 C 0.60584 0.08210 0.70962
 C485 C 0.62067 0.06654 0.69676
 C486 C 0.61149 0.05109 0.67915
 C487 C 0.56516 0.09745 0.71958
 C488 C 0.57137 0.11920 0.72908
 C489 C 0.55553 0.13368 0.74445
 C490 C 0.55783 0.15954 0.74508
 C491 C 0.54386 0.17366 0.76019
 C492 C 0.52754 0.16214 0.77523
 C493 C 0.52550 0.13620 0.77489
 C494 C 0.53922 0.12210 0.75952
 H495 H 0.57958 0.03980 0.66123
 H496 H 0.55357 0.06672 0.68411
 H497 H 0.61341 0.09328 0.72347
 H498 H 0.63930 0.06644 0.70077
 H499 H 0.54731 0.09071 0.72176
 H500 H 0.58840 0.12717 0.72490
 H501 H 0.57046 0.16884 0.73382
 H502 H 0.54585 0.19362 0.76025
 H503 H 0.51362 0.12681 0.78684
 H504 H 0.53759 0.10213 0.76005
 C505 C 0.37076 0.93855 0.70379
 C506 C 0.38247 0.92098 0.71748
 C507 C 0.40613 0.91526 0.71301
 C508 C 0.41765 0.92667 0.69397
 C509 C 0.40584 0.94396 0.68006
 C510 C 0.38237 0.95031 0.68502
 C511 C 0.41831 0.89739 0.72844
 C512 C 0.44111 0.89980 0.73399
 C513 C 0.45312 0.88323 0.75077
 C514 C 0.47128 0.89294 0.76466
 C515 C 0.48305 0.87790 0.78073
 C516 C 0.47740 0.85264 0.78268
 C517 C 0.45927 0.84285 0.76874
 C518 C 0.44720 0.85801 0.75290
 H519 H 0.35260 0.94290 0.70789
 H520 H 0.37320 0.91225 0.73193
 H521 H 0.43572 0.92213 0.68972
 H522 H 0.41520 0.95262 0.66564
 H523 H 0.40778 0.88321 0.73692
 H524 H 0.45093 0.91560 0.72744
 H525 H 0.47612 0.91231 0.76332
 H526 H 0.49660 0.88602 0.79167
 H527 H 0.45466 0.82341 0.76991
 H528 H 0.43361 0.84987 0.74205
 C529 C 0.63192 0.93660 0.29147
 C530 C 0.61993 0.91963 0.27733
 C531 C 0.59656 0.91289 0.28236
 C532 C 0.58542 0.92357 0.30202
 C533 C 0.59748 0.94046 0.31625
 C534 C 0.62081 0.94730 0.31105
 C535 C 0.58431 0.89574 0.26599
 C536 C 0.56408 0.88391 0.27100
 C537 C 0.55142 0.86765 0.25415
 C538 C 0.53418 0.85133 0.26285
 C539 C 0.52104 0.83649 0.24760
 C540 C 0.52475 0.83782 0.22327
 C541 C 0.54213 0.85383 0.21447
 C542 C 0.55522 0.86876 0.22969
 H543 H 0.64987 0.94148 0.28694
 H544 H 0.62892 0.91187 0.26225
 H545 H 0.56725 0.91958 0.30626
 H546 H 0.58835 0.94856 0.33108
 H547 H 0.59284 0.89243 0.24931
 H548 H 0.55653 0.88553 0.28837
 H549 H 0.53075 0.85016 0.28154
 H550 H 0.50778 0.82414 0.25475
 H551 H 0.54506 0.85531 0.19572
 H552 H 0.56772 0.88156 0.22205
 C553 C 0.41445 0.33019 0.94372
 C554 C 0.42801 0.31795 0.92685
 C555 C 0.41944 0.29659 0.91571
 C556 C 0.39661 0.28817 0.92126
 C557 C 0.38308 0.30035 0.93819
 C558 C 0.39192 0.32138 0.94974
 C559 C 0.43466 0.28394 0.89825
 C560 C 0.43217 0.25997 0.89253
 C561 C 0.44748 0.24669 0.87556
 C562 C 0.44674 0.22069 0.87538
 C563 C 0.46035 0.20722 0.85947
 C564 C 0.47506 0.21947 0.84342
 C565 C 0.47580 0.24544 0.84336
 C566 C 0.46209 0.25898 0.85922
 H567 H 0.42174 0.34641 0.95223
 H568 H 0.44541 0.32501 0.92273
 H569 H 0.38893 0.27237 0.91244
 H570 H 0.36567 0.29329 0.94221
 H571 H 0.44912 0.29456 0.89101
 H572 H 0.41892 0.24898 0.90142
 H573 H 0.43556 0.21072 0.88760
 H574 H 0.45949 0.18717 0.85975
 H575 H 0.48673 0.25523 0.83079
 H576 H 0.46273 0.27895 0.85817
 C577 C 0.59320 0.67993 0.94363
 C578 C 0.57984 0.69292 0.92719
 C579 C 0.58491 0.71776 0.92207
 C580 C 0.60406 0.72928 0.93333
 C581 C 0.61756 0.71622 0.94968
 C582 C 0.61220 0.69144 0.95508
 C583 C 0.57037 0.73066 0.90434
 C584 C 0.56689 0.75522 0.90438
 C585 C 0.55251 0.76843 0.88663
 C586 C 0.55572 0.79408 0.88403
 C587 C 0.54288 0.80733 0.86735
 C588 C 0.52639 0.79522 0.85306
 C589 C 0.52291 0.76965 0.85575
 C590 C 0.53566 0.75638 0.87250
 H591 H 0.58869 0.66081 0.94728
 H592 H 0.56533 0.68357 0.91857
 H593 H 0.60899 0.74817 0.92926
 H594 H 0.63220 0.72554 0.95808
 H595 H 0.56206 0.71919 0.89119
 H596 H 0.57519 0.76642 0.91779
 H597 H 0.56840 0.80388 0.89478
 H598 H 0.54579 0.82708 0.86558
 H599 H 0.51041 0.75990 0.84476
 H600 H 0.53201 0.73682 0.87432
 C601 C 0.36722 0.71226 0.05697
 C602 C 0.37814 0.72643 0.07436
 C603 C 0.40077 0.72041 0.08240
 C604 C 0.41236 0.69986 0.07247
 C605 C 0.40139 0.68562 0.05515
 C606 C 0.37874 0.69171 0.04714
 C607 C 0.41194 0.73671 0.10020
 C608 C 0.43054 0.73007 0.11327
 C609 C 0.44249 0.74675 0.13026
 C610 C 0.45815 0.73628 0.14654
 C611 C 0.47088 0.75127 0.16198
 C612 C 0.46831 0.77709 0.16133
 C613 C 0.45238 0.78766 0.14547
 C614 C 0.43972 0.77270 0.12993
 H615 H 0.34977 0.71748 0.05117
 H616 H 0.36886 0.74224 0.08152
 H617 H 0.43010 0.69497 0.07749
 H618 H 0.41083 0.67005 0.04775
 H619 H 0.40393 0.75464 0.10287
 H620 H 0.43725 0.71139 0.11200
 H621 H 0.46076 0.71641 0.14714
 H622 H 0.48304 0.74277 0.17418
 H623 H 0.45036 0.80759 0.14457
 H624 H 0.42844 0.78175 0.11732
 C625 C 0.60407 0.32588 0.06623
 C626 C 0.59159 0.31396 0.08416
 C627 C 0.59431 0.28846 0.08794
 C628 C 0.61041 0.27520 0.07403
 C629 C 0.62312 0.28716 0.05632
 C630 C 0.61989 0.31257 0.05206
 C631 C 0.58041 0.27623 0.10663
 C632 C 0.57267 0.25287 0.10466
 C633 C 0.55798 0.24069 0.12275
 C634 C 0.54161 0.22267 0.11574
 C635 C 0.52757 0.21061 0.13235
 C636 C 0.52993 0.21612 0.15629
 C637 C 0.54663 0.23372 0.16345
 C638 C 0.56049 0.24604 0.14680
 H639 H 0.60137 0.34553 0.06349
 H640 H 0.57946 0.32458 0.09483
 H641 H 0.61339 0.25564 0.07696
 H642 H 0.63528 0.27644 0.04577
 H643 H 0.57510 0.28731 0.12157
 H644 H 0.57589 0.24275 0.08856
 H645 H 0.53955 0.21808 0.09735
 H646 H 0.51493 0.19685 0.12657
 H647 H 0.54879 0.23800 0.18190
 H648 H 0.57341 0.25935 0.15281
 C649 C 0.32322 0.05655 0.58656
 C650 C 0.31022 0.07302 0.57278
 C651 C 0.29021 0.08482 0.58193
 C652 C 0.28399 0.08058 0.60554
 C653 C 0.29692 0.06407 0.61928
 C654 C 0.31652 0.05166 0.60988
 C655 C 0.27650 0.10159 0.56652
 C656 C 0.25363 0.10663 0.57011
 C657 C 0.23933 0.12298 0.55482
 C658 C 0.21469 0.12188 0.55687
 C659 C 0.20038 0.13727 0.54334
 C660 C 0.21042 0.15409 0.52743
 C661 C 0.23502 0.15542 0.52539
 C662 C 0.24938 0.14008 0.53898
 H663 H 0.33829 0.04737 0.57883
 H664 H 0.31557 0.07620 0.55476
 H665 H 0.26930 0.09006 0.61359
 H666 H 0.29150 0.06097 0.63728
 H667 H 0.28535 0.10874 0.55111
 H668 H 0.24445 0.09757 0.58440
 H669 H 0.20646 0.10905 0.56902
 H670 H 0.18143 0.13601 0.54521
 H671 H 0.24311 0.16864 0.51353
 H672 H 0.26824 0.14218 0.53732
 C673 C 0.67851 0.05442 0.40819
 C674 C 0.69151 0.07074 0.42219
 C675 C 0.71240 0.08139 0.41375
 C676 C 0.72025 0.07533 0.39108
 C677 C 0.70759 0.05860 0.37726
 C678 C 0.68658 0.04778 0.38565
 C679 C 0.72654 0.09734 0.42942
 C680 C 0.73897 0.11680 0.42159
 C681 C 0.75395 0.13180 0.43732
 C682 C 0.75538 0.15752 0.43410
 C683 C 0.76959 0.17195 0.44878
 C684 C 0.78298 0.16082 0.46661
 C685 C 0.78229 0.13493 0.46910
 C686 C 0.76767 0.12059 0.45485
 H687 H 0.66249 0.04651 0.41537
 H688 H 0.68525 0.07502 0.43970
 H689 H 0.73660 0.08286 0.38430
 H690 H 0.71445 0.05403 0.36004
 H691 H 0.72616 0.09333 0.44807
 H692 H 0.73748 0.12247 0.40340
 H693 H 0.74520 0.16646 0.42046
 H694 H 0.77002 0.19185 0.44633
 H695 H 0.79326 0.12574 0.48192
 H696 H 0.76753 0.10067 0.45714
 C697 C 0.71782 0.95498 0.61784
 C698 C 0.73262 0.93916 0.60521
 C699 C 0.72352 0.92378 0.58756
 C700 C 0.69930 0.92478 0.58251
 C701 C 0.68454 0.94079 0.59496
 C702 C 0.69363 0.95607 0.61276
 C703 C 0.73984 0.90778 0.57413
 C704 C 0.73327 0.88616 0.56457
 C705 C 0.74975 0.87009 0.55141
 C706 C 0.74635 0.84434 0.55188
 C707 C 0.76160 0.82864 0.53966
 C708 C 0.78015 0.83850 0.52629
 C709 C 0.78340 0.86425 0.52547
 C710 C 0.76834 0.87995 0.53792
 H711 H 0.72540 0.96665 0.63132
 H712 H 0.75125 0.93888 0.60927
 H713 H 0.69179 0.91368 0.56858
 H714 H 0.66600 0.94131 0.59054
 H715 H 0.75813 0.91344 0.57316
 H716 H 0.71562 0.87920 0.56759
 H717 H 0.73204 0.83634 0.56198
 H718 H 0.75881 0.80880 0.54042
 H719 H 0.79765 0.87216 0.51523
 H720 H 0.77105 0.89976 0.53667
 C721 C 0.32369 0.93546 0.40203
 C722 C 0.31207 0.91711 0.41500
 C723 C 0.28793 0.91276 0.41174
 C724 C 0.27572 0.92657 0.39476
 C725 C 0.28739 0.94463 0.38155
 C726 C 0.31145 0.94939 0.38516
 C727 C 0.27599 0.89340 0.42580
 C728 C 0.25358 0.89564 0.43286
 C729 C 0.24141 0.87666 0.44714
 C730 C 0.22407 0.88422 0.46316
 C731 C 0.21184 0.86676 0.47658
 C732 C 0.21646 0.84142 0.47386
 C733 C 0.23344 0.83371 0.45754
 C734 C 0.24598 0.85121 0.44437
 H735 H 0.34228 0.93859 0.40505
 H736 H 0.32186 0.90652 0.42785
 H737 H 0.25723 0.92319 0.39139
 H738 H 0.27751 0.95499 0.36861
 H739 H 0.28632 0.87769 0.43157
 H740 H 0.24412 0.91261 0.42918
 H741 H 0.22011 0.90369 0.46541
 H742 H 0.19862 0.87297 0.48897
 H743 H 0.23706 0.81418 0.45514
 H744 H 0.25882 0.84480 0.43170
 C745 C 0.05836 0.35629 0.72133
 C746 C 0.07589 0.36817 0.73433
 C747 C 0.08323 0.39229 0.72858
 C748 C 0.07252 0.40432 0.70942
 C749 C 0.05507 0.39236 0.69632
 C750 C 0.04770 0.36828 0.70221
 C751 C 0.10107 0.40447 0.74378
 C752 C 0.11299 0.42505 0.73780
 C753 C 0.12976 0.43805 0.75359
 C754 C 0.14479 0.45608 0.74388
 C755 C 0.15985 0.46991 0.75818
 C756 C 0.16006 0.46609 0.78253
 C757 C 0.14550 0.44779 0.79231
 C758 C 0.13033 0.43403 0.77806
 H759 H 0.05308 0.33774 0.72634
 H760 H 0.08366 0.35851 0.74908
 H761 H 0.07698 0.42314 0.70471
 H762 H 0.04704 0.40219 0.68182
 H763 H 0.10466 0.39560 0.76040
 H764 H 0.11083 0.43276 0.72042
 H765 H 0.14468 0.45969 0.72517
 H766 H 0.17105 0.48391 0.75031
 H767 H 0.14527 0.44478 0.81111
 H768 H 0.11867 0.42095 0.78653
 C769 C 0.05893 0.58785 0.32350
 C770 C 0.07616 0.57488 0.31099
 C771 C 0.08691 0.58544 0.29114
 C772 C 0.08073 0.60974 0.28462
 C773 C 0.06340 0.62261 0.29700
 C774 C 0.05212 0.61172 0.31640
 C775 C 0.10437 0.57062 0.27778
 C776 C 0.10936 0.57483 0.25507
 C777 C 0.12563 0.55952 0.24077
 C778 C 0.12450 0.56173 0.21624
 C779 C 0.13919 0.54769 0.20184
 C780 C 0.15535 0.53108 0.21167
 C781 C 0.15698 0.52912 0.23618
 C782 C 0.14229 0.54324 0.25065
 H783 H 0.05063 0.57899 0.33845
 H784 H 0.08077 0.55633 0.31658
 H785 H 0.08927 0.61903 0.27008
 H786 H 0.05884 0.64115 0.29135
 H787 H 0.11198 0.55484 0.28663
 H788 H 0.10007 0.58935 0.24586
 H789 H 0.11201 0.57423 0.20813
 H790 H 0.13770 0.54948 0.18295
 H791 H 0.16965 0.51668 0.24407
 H792 H 0.14432 0.54148 0.26944
 C793 C 0.94266 0.41351 0.32174
 C794 C 0.92560 0.42618 0.30882
 C795 C 0.91570 0.41556 0.28863
 C796 C 0.92267 0.39151 0.28206
 C797 C 0.93983 0.37891 0.29488
 C798 C 0.95016 0.38985 0.31473
 C799 C 0.89824 0.43009 0.27506
 C800 C 0.89338 0.42578 0.25237
 C801 C 0.87713 0.44113 0.23814
 C802 C 0.87885 0.43979 0.21358
 C803 C 0.86434 0.45420 0.19934
 C804 C 0.84781 0.47028 0.20939
 C805 C 0.84550 0.47121 0.23390
 C806 C 0.85998 0.45673 0.24819
 H807 H 0.95021 0.42240 0.33701
 H808 H 0.92039 0.44455 0.31443
 H809 H 0.91485 0.38217 0.26720
 H810 H 0.94498 0.36054 0.28925
 H811 H 0.89043 0.44585 0.28379
 H812 H 0.90278 0.41134 0.24315
 H813 H 0.89171 0.42778 0.20536
 H814 H 0.86630 0.45317 0.18044
 H815 H 0.83250 0.48319 0.24193
 H816 H 0.85743 0.45771 0.26698
 C817 C 0.93584 0.59465 0.67609
 C818 C 0.91771 0.58276 0.68834
 C819 C 0.91280 0.58908 0.71172
 C820 C 0.92585 0.60811 0.72244
 C821 C 0.94374 0.62027 0.71008
 C822 C 0.94906 0.61351 0.68686
 C823 C 0.89379 0.57586 0.72436
 C824 C 0.89500 0.57093 0.74738
 C825 C 0.87660 0.55687 0.76006
 C826 C 0.88321 0.54187 0.77905
 C827 C 0.86629 0.52847 0.79156
 C828 C 0.84241 0.53021 0.78554
 C829 C 0.83563 0.54559 0.76690
 C830 C 0.85262 0.55872 0.75412
 H831 H 0.93941 0.58920 0.65814
 H832 H 0.90772 0.56830 0.67968
 H833 H 0.92206 0.61384 0.74026
 H834 H 0.95355 0.63481 0.71880
 H835 H 0.87928 0.56857 0.71414
 H836 H 0.91074 0.57593 0.75703
 H837 H 0.90155 0.54035 0.78406
 H838 H 0.87176 0.51686 0.80607
 H839 H 0.81724 0.54726 0.76218
 H840 H 0.84693 0.57064 0.73994
 C841 C 0.70663 0.63584 0.94258
 C842 C 0.72040 0.62463 0.92529
 C843 C 0.71431 0.60137 0.91610
 C844 C 0.69377 0.58963 0.92455
 C845 C 0.67985 0.60094 0.94179
 C846 C 0.68621 0.62411 0.95124
 C847 C 0.73054 0.58996 0.89867
 C848 C 0.72621 0.56891 0.88686
 C849 C 0.74345 0.55715 0.87067
 C850 C 0.73531 0.53933 0.85463
 C851 C 0.75105 0.52673 0.84001
 C852 C 0.77530 0.53157 0.84129
 C853 C 0.78350 0.54965 0.85694
 C854 C 0.76781 0.56218 0.87164
 H855 H 0.71220 0.65369 0.94925
 H856 H 0.73611 0.63413 0.91924
 H857 H 0.68843 0.57157 0.91840
 H858 H 0.66431 0.59124 0.94799
 H859 H 0.74684 0.59976 0.89540
 H860 H 0.70934 0.55983 0.88864
 H861 H 0.71672 0.53494 0.85357
 H862 H 0.74438 0.51286 0.82800
 H863 H 0.80219 0.55340 0.85839
 H864 H 0.77507 0.57508 0.88419
 C865 C 0.32730 0.41799 0.94893
 C866 C 0.31396 0.43252 0.93353
 C867 C 0.29419 0.42258 0.92218
 C868 C 0.28771 0.39792 0.92678
 C869 C 0.30069 0.38354 0.94249
 C870 C 0.32069 0.39334 0.95384
 C871 C 0.27986 0.43849 0.90661
 C872 C 0.26913 0.42965 0.88741
 C873 C 0.25379 0.44497 0.87230
 C874 C 0.25283 0.44000 0.84816
 C875 C 0.23764 0.45331 0.83359
 C876 C 0.22272 0.47154 0.84297
 C877 C 0.22335 0.47618 0.86725
 C878 C 0.23893 0.46325 0.88175
 H879 H 0.34247 0.42630 0.95734
 H880 H 0.31916 0.45156 0.93038
 H881 H 0.27220 0.38992 0.91874
 H882 H 0.29490 0.36472 0.94576
 H883 H 0.27877 0.45806 0.91067
 H884 H 0.27226 0.41068 0.88206
 H885 H 0.26394 0.42580 0.84055
 H886 H 0.23745 0.44929 0.81497
 H887 H 0.21151 0.48954 0.87508
 H888 H 0.23874 0.46694 0.90042
 C889 C 0.32299 0.59534 0.05483
 C890 C 0.31025 0.58219 0.07178
 C891 C 0.28690 0.58854 0.07697
 C892 C 0.27662 0.60875 0.06530
 C893 C 0.28949 0.62227 0.04868
 C894 C 0.31285 0.61568 0.04309
 C895 C 0.27400 0.57444 0.09521
 C896 C 0.25087 0.56973 0.09382
 C897 C 0.23804 0.55541 0.11195
 C898 C 0.21929 0.54003 0.10520
 C899 C 0.20666 0.52655 0.12202
 C900 C 0.21228 0.52868 0.14590
 C901 C 0.23070 0.54441 0.15277
 C902 C 0.24362 0.55754 0.13593
 H903 H 0.34093 0.58970 0.05119
 H904 H 0.31857 0.56681 0.08072
 H905 H 0.25880 0.61444 0.06935
 H906 H 0.28102 0.63781 0.04016
 H907 H 0.28413 0.56656 0.10948
 H908 H 0.24123 0.57535 0.07830
 H909 H 0.21456 0.53828 0.08686
 H910 H 0.19236 0.51462 0.11646
 H911 H 0.23514 0.54636 0.17116
 H912 H 0.25762 0.56972 0.14171
 C913 C 0.71509 0.36595 0.05404
 C914 C 0.72978 0.37777 0.07024
 C915 C 0.72540 0.40226 0.07710
 C916 C 0.70568 0.41459 0.06796
 C917 C 0.69071 0.40267 0.05212
 C918 C 0.69526 0.37820 0.04481
 C919 C 0.74105 0.41417 0.09449
 C920 C 0.74627 0.43838 0.09380
 C921 C 0.76171 0.45040 0.11131
 C922 C 0.77617 0.47018 0.10433
 C923 C 0.79050 0.48227 0.12064
 C924 C 0.79000 0.47536 0.14443
 C925 C 0.77553 0.45554 0.15141
 C926 C 0.76155 0.44313 0.13502
 H927 H 0.71919 0.34709 0.04901
 H928 H 0.74477 0.36785 0.07726
 H929 H 0.70153 0.43330 0.07340
 H930 H 0.67562 0.41275 0.04555
 H931 H 0.74937 0.40243 0.10748
 H932 H 0.73996 0.44958 0.07934
 H933 H 0.77654 0.47611 0.08615
 H934 H 0.80191 0.49711 0.11470
 H935 H 0.77476 0.44993 0.16966
 H936 H 0.75017 0.42830 0.14103
 C937 C 0.94962 0.67178 0.59033
 C938 C 0.93394 0.68451 0.57578
 C939 C 0.92253 0.70592 0.58375
 C940 C 0.92736 0.71470 0.60644
 C941 C 0.94342 0.70234 0.62084
 C942 C 0.95479 0.68066 0.61302
 C943 C 0.90670 0.71951 0.56769
 C944 C 0.88726 0.73114 0.57516
 C945 C 0.87189 0.74542 0.55919
 C946 C 0.84751 0.74577 0.56316
 C947 C 0.83270 0.75969 0.54866
 C948 C 0.84208 0.77394 0.53020
 C949 C 0.86660 0.77409 0.52667
 C950 C 0.88133 0.75974 0.54082
 H951 H 0.95801 0.65526 0.58357
 H952 H 0.93061 0.67755 0.55826
 H953 H 0.91922 0.73151 0.61286
 H954 H 0.94690 0.70985 0.63813
 H955 H 0.91071 0.71909 0.54908
 H956 H 0.88189 0.72940 0.59336
 H957 H 0.83990 0.73509 0.57739
 H958 H 0.81390 0.75935 0.55187
 H959 H 0.87442 0.78558 0.51316
 H960 H 0.90015 0.76046 0.53782
 C961 C 0.94257 0.29588 0.37175
 C962 C 0.92487 0.28249 0.38318
 C963 C 0.91746 0.28920 0.40576
 C964 C 0.92767 0.30999 0.41658
 C965 C 0.94503 0.32379 0.40495
 C966 C 0.95284 0.31685 0.38239
 C967 C 0.89867 0.27459 0.41729
 C968 C 0.89869 0.26978 0.44036
 C969 C 0.88067 0.25386 0.45157
 C970 C 0.88738 0.23793 0.46980
 C971 C 0.87079 0.22255 0.48063
 C972 C 0.84695 0.22349 0.47405
 C973 C 0.84021 0.23955 0.45585
 C974 C 0.85692 0.25455 0.44465
 H975 H 0.94791 0.28994 0.35438
 H976 H 0.91712 0.26661 0.37447
 H977 H 0.92192 0.31587 0.43383
 H978 H 0.95238 0.33982 0.41374
 H979 H 0.88549 0.26602 0.40619
 H980 H 0.91328 0.27610 0.45105
 H981 H 0.90559 0.23706 0.47537
 H982 H 0.87660 0.20987 0.49415
 H983 H 0.82196 0.24067 0.45049
 H984 H 0.85118 0.26701 0.43090
 C985 C 0.05007 0.27595 0.63691
 C986 C 0.06572 0.26242 0.62301
 C987 C 0.07347 0.27157 0.60124
 C988 C 0.06515 0.29483 0.59370
 C989 C 0.04960 0.30846 0.60766
 C990 C 0.04170 0.29917 0.62942
 C991 C 0.08970 0.25590 0.58709
 C992 C 0.10000 0.26293 0.56688
 C993 C 0.11610 0.24676 0.55320
 C994 C 0.13190 0.25782 0.53731
 C995 C 0.14745 0.24333 0.52415
 C996 C 0.14734 0.21746 0.52646
 C997 C 0.13137 0.20630 0.54204
 C998 C 0.11576 0.22074 0.55515
 H999 H 0.04449 0.26806 0.65351
 H1000 H 0.07172 0.24457 0.62931
 H1001 H 0.07021 0.30266 0.57699
 H1002 H 0.04354 0.32621 0.60117
 H1003 H 0.09368 0.23780 0.59419
 H1004 H 0.09752 0.28149 0.56029
 H1005 H 0.13242 0.27776 0.53529
 H1006 H 0.15976 0.25233 0.51235
 H1007 H 0.13082 0.18632 0.54385
 H1008 H 0.10330 0.21133 0.56644
 C1009 C 0.05499 0.70922 0.37313
 C1010 C 0.07109 0.72382 0.38544
 C1011 C 0.07903 0.71674 0.40777
 C1012 C 0.07030 0.69459 0.41763
 C1013 C 0.05430 0.67985 0.40525
 C1014 C 0.04634 0.68699 0.38284
 C1015 C 0.09577 0.73342 0.42013
 C1016 C 0.10760 0.72734 0.43969
 C1017 C 0.12421 0.74433 0.45181
 C1018 C 0.14041 0.73423 0.46776
 C1019 C 0.15622 0.74947 0.47978
 C1020 C 0.15603 0.77517 0.47618
 C1021 C 0.13985 0.78541 0.46037
 C1022 C 0.12394 0.77021 0.44844
 H1023 H 0.04934 0.71547 0.35596
 H1024 H 0.07735 0.74082 0.37742
 H1025 H 0.07533 0.68859 0.43500
 H1026 H 0.04797 0.66299 0.41345
 H1027 H 0.09890 0.75127 0.41208
 H1028 H 0.10596 0.70890 0.44689
 H1029 H 0.14092 0.71443 0.47086
 H1030 H 0.16864 0.74122 0.49187
 H1031 H 0.13925 0.80526 0.45763
 H1032 H 0.11126 0.77899 0.43704
 C1033 C 0.63540 0.94361 0.70636
 C1034 C 0.62410 0.92720 0.72169
 C1035 C 0.60136 0.91833 0.71682
 C1036 C 0.59028 0.92604 0.69593
 C1037 C 0.60166 0.94232 0.68052
 C1038 C 0.62421 0.95155 0.68571
 C1039 C 0.58948 0.90250 0.73465
 C1040 C 0.56963 0.88959 0.73073
 C1041 C 0.55694 0.87529 0.74915
 C1042 C 0.54025 0.85755 0.74213
 C1043 C 0.52698 0.84456 0.75878
 C1044 C 0.52999 0.84922 0.78282
 C1045 C 0.54683 0.86668 0.78996
 C1046 C 0.56006 0.87976 0.77333
 H1047 H 0.65277 0.95038 0.71089
 H1048 H 0.63304 0.92173 0.73765
 H1049 H 0.57257 0.92032 0.69161
 H1050 H 0.59247 0.94827 0.66487
 H1051 H 0.59779 0.90141 0.75169
 H1052 H 0.56231 0.88891 0.71325
 H1053 H 0.53735 0.85384 0.72367
 H1054 H 0.51419 0.83102 0.75291
 H1055 H 0.54925 0.87069 0.80844
 H1056 H 0.57211 0.89377 0.77960
 C1057 C 0.36501 0.93625 0.29391
 C1058 C 0.37688 0.91823 0.28085
 C1059 C 0.40087 0.91365 0.28471
 C1060 C 0.41266 0.92692 0.30240
 C1061 C 0.40073 0.94471 0.31566
 C1062 C 0.37683 0.94970 0.31144
 C1063 C 0.41295 0.89460 0.27044
 C1064 C 0.43580 0.89620 0.26466
 C1065 C 0.44784 0.87763 0.24981
 C1066 C 0.46666 0.88528 0.23554
 C1067 C 0.47855 0.86825 0.22141
 C1068 C 0.47230 0.84306 0.22181
 C1069 C 0.45355 0.83534 0.23618
 C1070 C 0.44142 0.85245 0.25008
 H1071 H 0.34655 0.93954 0.29037
 H1072 H 0.36738 0.90807 0.26747
 H1073 H 0.43100 0.92333 0.30628
 H1074 H 0.41029 0.95467 0.32912
 H1075 H 0.40233 0.87972 0.26331
 H1076 H 0.44578 0.91245 0.26974
 H1077 H 0.47195 0.90457 0.23508
 H1078 H 0.49262 0.87476 0.21012
 H1079 H 0.44849 0.81600 0.23685
 H1080 H 0.42738 0.84583 0.26134
 C1081 C 0.63250 0.06298 0.29455
 C1082 C 0.62068 0.08092 0.28136
 C1083 C 0.59674 0.08576 0.28538
 C1084 C 0.58499 0.07288 0.30342
 C1085 C 0.59689 0.05517 0.31682
 C1086 C 0.62072 0.04988 0.31240
 C1087 C 0.58468 0.10465 0.27088
 C1088 C 0.56179 0.10309 0.26531
 C1089 C 0.54979 0.12134 0.25005
 C1090 C 0.53090 0.11340 0.23610
 C1091 C 0.51908 0.13008 0.22155
 C1092 C 0.52545 0.15524 0.22120
 C1093 C 0.54429 0.16325 0.23524
 C1094 C 0.55636 0.14648 0.24956
 H1095 H 0.65090 0.05945 0.29084
 H1096 H 0.63016 0.09078 0.26772
 H1097 H 0.56671 0.07666 0.30742
 H1098 H 0.58735 0.04548 0.33051
 H1099 H 0.59536 0.11929 0.26334
 H1100 H 0.55174 0.08703 0.27084
 H1101 H 0.52550 0.09414 0.23620
 H1102 H 0.50498 0.12331 0.21049
 H1103 H 0.54949 0.18257 0.23531
 H1104 H 0.57048 0.15333 0.26053
 C1105 C 0.41152 0.05828 0.67043
 C1106 C 0.42567 0.07533 0.68240
 C1107 C 0.41749 0.08687 0.70292
 C1108 C 0.39444 0.08176 0.71071
 C1109 C 0.38034 0.06470 0.69881
 C1110 C 0.38880 0.05256 0.67869
 C1111 C 0.43329 0.10422 0.71557
 C1112 C 0.43128 0.10865 0.73867
 C1113 C 0.44695 0.12544 0.75214
 C1114 C 0.44669 0.12367 0.77674
 C1115 C 0.46049 0.13945 0.79040
 C1116 C 0.47488 0.15738 0.77976
 C1117 C 0.47518 0.15936 0.75519
 C1118 C 0.46132 0.14357 0.74146
 H1119 H 0.41851 0.04934 0.65491
 H1120 H 0.44323 0.07916 0.67586
 H1121 H 0.38709 0.09102 0.72588
 H1122 H 0.36280 0.06097 0.70543
 H1123 H 0.44769 0.11228 0.70572
 H1124 H 0.41809 0.09868 0.74867
 H1125 H 0.43572 0.11003 0.78546
 H1126 H 0.45998 0.13766 0.80934
 H1127 H 0.48588 0.17338 0.74669
 H1128 H 0.46158 0.14610 0.72264
 C1129 C 0.62671 0.70306 0.06807
 C1130 C 0.61463 0.71487 0.08625
 C1131 C 0.59056 0.71044 0.08980
 C1132 C 0.57891 0.69320 0.07535
 C1133 C 0.59112 0.68103 0.05737
 C1134 C 0.61507 0.68611 0.05337
 C1135 C 0.57826 0.72400 0.10875
 C1136 C 0.55580 0.73130 0.10694
 C1137 C 0.54411 0.74686 0.12488
 C1138 C 0.52669 0.76360 0.11771
 C1139 C 0.51535 0.77869 0.13408
 C1140 C 0.52070 0.77682 0.15809
 C1141 C 0.53812 0.76007 0.16533
 C1142 C 0.54973 0.74518 0.14889
 H1143 H 0.64522 0.70717 0.06557
 H1144 H 0.62400 0.72790 0.09728
 H1145 H 0.56046 0.68895 0.07804
 H1146 H 0.58175 0.66797 0.04638
 H1147 H 0.58865 0.73001 0.12363
 H1148 H 0.54619 0.72751 0.09091
 H1149 H 0.52208 0.76524 0.09933
 H1150 H 0.50231 0.79181 0.12801
 H1151 H 0.54245 0.75823 0.18376
 H1152 H 0.56271 0.73207 0.15507
 C1153 C 0.37699 0.29154 0.05588
 C1154 C 0.38870 0.27663 0.07214
 C1155 C 0.41150 0.28264 0.07978
 C1156 C 0.42239 0.30409 0.07062
 C1157 C 0.41058 0.31911 0.05443
 C1158 C 0.38779 0.31295 0.04681
 C1159 C 0.42317 0.26559 0.09668
 C1160 C 0.44334 0.27058 0.10806
 C1161 C 0.45469 0.25320 0.12484
 C1162 C 0.47155 0.26260 0.14054
 C1163 C 0.48296 0.24696 0.15642
 C1164 C 0.47789 0.22152 0.15682
 C1165 C 0.46110 0.21199 0.14121
 C1166 C 0.44975 0.22758 0.12523
 H1167 H 0.35944 0.28623 0.05040
 H1168 H 0.37986 0.26023 0.07873
 H1169 H 0.44010 0.30929 0.07545
 H1170 H 0.41946 0.33538 0.04762
 H1171 H 0.41409 0.24838 0.10031
 H1172 H 0.45168 0.28844 0.10587
 H1173 H 0.47586 0.28216 0.14057
 H1174 H 0.49576 0.25472 0.16843
 H1175 H 0.45715 0.19235 0.14108
 H1176 H 0.43755 0.21928 0.11299
 C1177 C 0.58807 0.31852 0.95352
 C1178 C 0.57309 0.30610 0.93800
 C1179 C 0.58188 0.28759 0.92313
 C1180 C 0.60587 0.28132 0.92437
 C1181 C 0.62075 0.29342 0.94018
 C1182 C 0.61202 0.31219 0.95487
 C1183 C 0.56555 0.27429 0.90732
 C1184 C 0.57215 0.26586 0.88620
 C1185 C 0.55618 0.25177 0.87065
 C1186 C 0.55901 0.25366 0.84625
 C1187 C 0.54485 0.23975 0.83112
 C1188 C 0.52785 0.22335 0.84014
 C1189 C 0.52530 0.22115 0.86460
 C1190 C 0.53916 0.23538 0.87972
 H1191 H 0.58081 0.33277 0.96477
 H1192 H 0.55462 0.31104 0.93749
 H1193 H 0.61305 0.26668 0.91356
 H1194 H 0.63912 0.28811 0.94088
 H1195 H 0.54739 0.27229 0.91290
 H1196 H 0.58961 0.27015 0.87963
 H1197 H 0.57218 0.26597 0.83888
 H1198 H 0.54726 0.24168 0.81234
 H1199 H 0.51290 0.20805 0.87203
 H1200 H 0.53709 0.23290 0.89847
 C1201 C 0.40373 0.67922 0.93715
 C1202 C 0.41681 0.69261 0.92061
 C1203 C 0.41221 0.71779 0.91667
 C1204 C 0.39381 0.72923 0.92914
 C1205 C 0.38046 0.71573 0.94541
 C1206 C 0.38539 0.69063 0.94969
 C1207 C 0.42632 0.73133 0.89892
 C1208 C 0.43156 0.75548 0.90084
 C1209 C 0.44611 0.76883 0.88330
 C1210 C 0.46054 0.78845 0.89071
 C1211 C 0.47443 0.80144 0.87455
 C1212 C 0.47380 0.79527 0.85063
 C1213 C 0.45896 0.77609 0.84307
 C1214 C 0.44531 0.76286 0.85926
 H1215 H 0.40783 0.65986 0.93995
 H1216 H 0.43075 0.68334 0.91105
 H1217 H 0.38942 0.74846 0.92605
 H1218 H 0.36639 0.72501 0.95476
 H1219 H 0.43375 0.72070 0.88459
 H1220 H 0.42623 0.76551 0.91642
 H1221 H 0.46125 0.79354 0.90909
 H1222 H 0.48561 0.81638 0.88065
 H1223 H 0.45813 0.77122 0.82464
 H1224 H 0.43388 0.74828 0.85289
 C1225 C 0.67695 0.93938 0.40822
 C1226 C 0.68908 0.92238 0.42219
 C1227 C 0.71080 0.91268 0.41489
 C1228 C 0.71983 0.91985 0.39283
 C1229 C 0.70772 0.93694 0.37888
 C1230 C 0.68623 0.94703 0.38649
 C1231 C 0.72310 0.89492 0.43060
 C1232 C 0.74625 0.89003 0.42925
 C1233 C 0.75896 0.87278 0.44517
 C1234 C 0.78370 0.87322 0.44500
 C1235 C 0.79660 0.85716 0.45925
 C1236 C 0.78504 0.84033 0.47410
 C1237 C 0.76034 0.83964 0.47429
 C1238 C 0.74738 0.85562 0.45993
 H1239 H 0.66040 0.94673 0.41459
 H1240 H 0.68157 0.91703 0.43895
 H1241 H 0.73604 0.91219 0.38606
 H1242 H 0.71522 0.94224 0.36212
 H1243 H 0.71269 0.88670 0.44447
 H1244 H 0.75687 0.89982 0.41647
 H1245 H 0.79313 0.88606 0.43375
 H1246 H 0.81566 0.85791 0.45878
 H1247 H 0.75110 0.82643 0.48529
 H1248 H 0.72843 0.85398 0.46024
 C1249 C 0.28871 0.94431 0.62558
 C1250 C 0.27462 0.92673 0.61434
 C1251 C 0.28264 0.91447 0.59413
 C1252 C 0.30546 0.91979 0.58571
 C1253 C 0.31952 0.93744 0.59693
 C1254 C 0.31125 0.95000 0.61689
 C1255 C 0.26661 0.89640 0.58268
 C1256 C 0.26959 0.88763 0.56084
 C1257 C 0.25273 0.87045 0.54950
 C1258 C 0.26092 0.85464 0.53174
 C1259 C 0.24543 0.83872 0.52010
 C1260 C 0.22135 0.83867 0.52571
 C1261 C 0.21309 0.85442 0.54348
 C1262 C 0.22859 0.87025 0.55521
 H1263 H 0.28182 0.95360 0.64097
 H1264 H 0.25723 0.92292 0.62133
 H1265 H 0.31276 0.91035 0.57067
 H1266 H 0.33692 0.94123 0.58996
 H1267 H 0.25140 0.89049 0.59273
 H1268 H 0.28486 0.89288 0.55065
 H1269 H 0.27938 0.85455 0.52692
 H1270 H 0.25222 0.82651 0.50663
 H1271 H 0.19453 0.85487 0.54788
 H1272 H 0.22144 0.88275 0.56822
 C1273 C 0.32230 0.06622 0.40208
 C1274 C 0.31021 0.08392 0.41535
 C1275 C 0.28601 0.08767 0.41204
 C1276 C 0.27423 0.07401 0.39461
 C1277 C 0.28637 0.05660 0.38111
 C1278 C 0.31048 0.05234 0.38485
 C1279 C 0.27354 0.10619 0.42659
 C1280 C 0.25113 0.10306 0.43342
 C1281 C 0.23831 0.12113 0.44816
 C1282 C 0.22037 0.11249 0.46304
 C1283 C 0.20722 0.12904 0.47655
 C1284 C 0.21156 0.15459 0.47514
 C1285 C 0.22930 0.16337 0.46010
 C1286 C 0.24271 0.14677 0.44680
 H1287 H 0.34092 0.06348 0.40524
 H1288 H 0.31968 0.09441 0.42852
 H1289 H 0.25571 0.07698 0.39118
 H1290 H 0.27680 0.04628 0.36790
 H1291 H 0.28349 0.12196 0.43293
 H1292 H 0.24209 0.08598 0.42906
 H1293 H 0.21651 0.09286 0.46420
 H1294 H 0.19337 0.12197 0.48783
 H1295 H 0.23271 0.18306 0.45865
 H1296 H 0.25600 0.15406 0.43503
 C1297 C 0.68995 0.07830 0.61850
 C1298 C 0.70113 0.09652 0.60504
 C1299 C 0.70369 0.09345 0.58074
 C1300 C 0.69386 0.07250 0.56986
 C1301 C 0.68200 0.05465 0.58323
 C1302 C 0.68039 0.05718 0.60771
 C1303 C 0.71722 0.11192 0.56718
 C1304 C 0.73430 0.10503 0.55238
 C1305 C 0.75003 0.12315 0.54093
 C1306 C 0.77429 0.11843 0.54024
 C1307 C 0.78966 0.13535 0.52970
 C1308 C 0.78085 0.15674 0.51888
 C1309 C 0.75656 0.16139 0.51925
 C1310 C 0.74123 0.14481 0.53044
 H1311 H 0.68877 0.08066 0.63735
 H1312 H 0.70853 0.11260 0.61370
 H1313 H 0.69544 0.06995 0.55106
 H1314 H 0.67480 0.03847 0.57457
 H1315 H 0.71490 0.13136 0.57133
 H1316 H 0.73836 0.08552 0.55040
 H1317 H 0.78137 0.10181 0.54818
 H1318 H 0.80837 0.13152 0.52948
 H1319 H 0.74955 0.17783 0.51092
 H1320 H 0.72252 0.14864 0.53053
 C1321 C 0.95258 0.58117 0.31831
 C1322 C 0.93782 0.56639 0.30451
 C1323 C 0.92508 0.57678 0.28587
 C1324 C 0.92760 0.60220 0.28105
 C1325 C 0.94261 0.61688 0.29460
 C1326 C 0.95528 0.60653 0.31335
 C1327 C 0.91030 0.56058 0.27100
 C1328 C 0.89056 0.56861 0.26066
 C1329 C 0.87613 0.55296 0.24495
 C1330 C 0.85185 0.55737 0.24352
 C1331 C 0.83786 0.54377 0.22803
 C1332 C 0.84795 0.52575 0.21338
 C1333 C 0.87233 0.52156 0.21456
 C1334 C 0.88628 0.53489 0.23034
 H1335 H 0.96229 0.57263 0.33251
 H1336 H 0.93632 0.54681 0.30840
 H1337 H 0.91853 0.61066 0.26640
 H1338 H 0.94442 0.63634 0.29029
 H1339 H 0.91540 0.54134 0.26924
 H1340 H 0.88419 0.58709 0.26443
 H1341 H 0.84369 0.57137 0.25443
 H1342 H 0.81912 0.54740 0.22737
 H1343 H 0.88064 0.50830 0.20296
 H1344 H 0.90508 0.53161 0.23049
 C1345 C 0.93964 0.36195 0.72490
 C1346 C 0.92370 0.37533 0.73864
 C1347 C 0.91772 0.39980 0.73280
 C1348 C 0.92833 0.41073 0.71294
 C1349 C 0.94418 0.39729 0.69913
 C1350 C 0.95004 0.37278 0.70497
 C1351 C 0.90108 0.41336 0.74831
 C1352 C 0.88956 0.43398 0.74188
 C1353 C 0.87296 0.44760 0.75737
 C1354 C 0.85729 0.46449 0.74705
 C1355 C 0.84161 0.47809 0.76086
 C1356 C 0.84141 0.47524 0.78534
 C1357 C 0.85701 0.45843 0.79578
 C1358 C 0.87278 0.44486 0.78199
 H1359 H 0.94382 0.34312 0.72993
 H1360 H 0.91598 0.36650 0.75392
 H1361 H 0.92494 0.42976 0.70816
 H1362 H 0.95210 0.40627 0.68404
 H1363 H 0.89764 0.40527 0.76535
 H1364 H 0.89148 0.44088 0.72415
 H1365 H 0.85711 0.46712 0.72819
 H1366 H 0.82958 0.49083 0.75243
 H1367 H 0.85727 0.45618 0.81468
 H1368 H 0.88500 0.43272 0.79083
 C1369 C 0.06017 0.62765 0.70956
 C1370 C 0.07740 0.61624 0.72331
 C1371 C 0.08228 0.59094 0.72069
 C1372 C 0.06993 0.57730 0.70363
 C1373 C 0.05292 0.58878 0.68963
 C1374 C 0.04779 0.61406 0.69251
 C1375 C 0.10091 0.57961 0.73534
 C1376 C 0.10040 0.55582 0.74210
 C1377 C 0.11885 0.54455 0.75701
 C1378 C 0.11272 0.52493 0.77201
 C1379 C 0.12977 0.51346 0.78592
 C1380 C 0.15346 0.52090 0.78457
 C1381 C 0.15962 0.54059 0.76966
 C1382 C 0.14251 0.55231 0.75597
 H1383 H 0.05676 0.64720 0.71207
 H1384 H 0.08683 0.62719 0.73618
 H1385 H 0.07372 0.55790 0.70071
 H1386 H 0.04376 0.57786 0.67657
 H1387 H 0.11473 0.59165 0.74179
 H1388 H 0.08531 0.54445 0.73767
 H1389 H 0.09463 0.51860 0.77310
 H1390 H 0.12448 0.49865 0.79763
 H1391 H 0.17779 0.54657 0.76827
 H1392 H 0.14795 0.56698 0.74418
 C1393 C 0.04961 0.42008 0.31795
 C1394 C 0.06460 0.43455 0.30404
 C1395 C 0.07756 0.42382 0.28569
 C1396 C 0.07506 0.39830 0.28134
 C1397 C 0.05985 0.38390 0.29504
 C1398 C 0.04691 0.39463 0.31346
 C1399 C 0.09247 0.43984 0.27063
 C1400 C 0.11206 0.43167 0.26002
 C1401 C 0.12666 0.44741 0.24441
 C1402 C 0.15090 0.44279 0.24278
 C1403 C 0.16507 0.45676 0.22764
 C1404 C 0.15520 0.47540 0.21356
 C1405 C 0.13083 0.47968 0.21481
 C1406 C 0.11670 0.46598 0.23022
 H1407 H 0.03973 0.42893 0.33189
 H1408 H 0.06607 0.45421 0.30759
 H1409 H 0.08430 0.38955 0.26694
 H1410 H 0.05805 0.36437 0.29107
 H1411 H 0.08759 0.45915 0.26900
 H1412 H 0.11827 0.41309 0.26360
 H1413 H 0.15891 0.42840 0.25333
 H1414 H 0.18379 0.45300 0.22689
 H1415 H 0.12267 0.49341 0.20361
 H1416 H 0.09794 0.46944 0.23048
   
