data_POSCAR
  _audit_creation_date              2014-09-24
  _audit_creation_method            'ToBaCCo'
  _symmetry_space_group_name_H-M    'P1'
  _symmetry_Int_Tables_number       1
  _symmetry_cell_setting            triclinic
  loop_
  _symmetry_equiv_pos_as_xyz
 x,y,z
_cell_length_a 33.9763
_cell_length_b 40.7141
_cell_length_c 39.8715
_cell_angle_alpha 90.543600
_cell_angle_beta 90.402300
_cell_angle_gamma 90.648600
loop_
  _atom_site_label
  _atom_site_type_symbol
  _atom_site_fract_x
  _atom_site_fract_y
  _atom_site_fract_z
B1 B 0.27386 0.24081 0.27703
 B2 B 0.22699 0.23095 0.26639
 B3 B 0.23974 0.27013 0.27576
 B4 B 0.28514 0.27786 0.26054
 B5 B 0.30043 0.24272 0.24157
 B6 B 0.26447 0.21333 0.24571
 B7 B 0.23476 0.26326 0.20834
 B8 B 0.28131 0.27339 0.21870
 B9 B 0.26909 0.23404 0.20961
 B10 B 0.22368 0.22641 0.22467
 B11 B 0.20845 0.26179 0.24370
 B12 B 0.24412 0.29087 0.23978
 B13 B 0.74275 0.76245 0.21940
 B14 B 0.72950 0.72413 0.23080
 B15 B 0.77638 0.73278 0.22014
 B16 B 0.78831 0.77079 0.23462
 B17 B 0.74768 0.78574 0.25415
 B18 B 0.71146 0.75678 0.25154
 B19 B 0.77187 0.73101 0.28790
 B20 B 0.78478 0.76940 0.27657
 B21 B 0.73796 0.76087 0.28709
 B22 B 0.72623 0.72279 0.27286
 B23 B 0.76670 0.70776 0.25290
 B24 B 0.80307 0.73697 0.25561
 B25 B 0.72356 0.23425 -0.26656
 B26 B 0.77262 0.23178 -0.25960
 B27 B 0.75176 0.26850 -0.26669
 B28 B 0.70744 0.26929 -0.24811
 B29 B 0.70063 0.23226 -0.22948
 B30 B 0.74085 0.20872 -0.23690
 B31 B 0.76483 0.26241 -0.20010
 B32 B 0.71611 0.26503 -0.20654
 B33 B 0.73608 0.22822 -0.19993
 B34 B 0.78073 0.22750 -0.21832
 B35 B 0.78753 0.26471 -0.23715
 B36 B 0.74703 0.28795 -0.22954
 B37 B 0.26337 0.76688 -0.23067
 B38 B 0.28239 0.73113 -0.24395
 B39 B 0.23472 0.73287 -0.23327
 B40 B 0.21716 0.76946 -0.24557
 B41 B 0.25450 0.79050 -0.26415
 B42 B 0.29534 0.76650 -0.26295
 B43 B 0.23927 0.73444 -0.30085
 B44 B 0.22036 0.77006 -0.28757
 B45 B 0.26812 0.76846 -0.29820
 B46 B 0.28566 0.73180 -0.28601
 B47 B 0.24821 0.71075 -0.26729
 B48 B 0.20750 0.73474 -0.26843
 B49 B 1.24649 1.26361 0.72170
 B50 B 1.24659 1.22263 0.72830
 B51 B 1.28887 1.24290 0.72101
 B52 B 1.28719 1.28033 0.73986
 B53 B 1.24254 1.28268 0.75885
 B54 B 1.21716 1.24680 0.75124
 B55 B 1.28337 1.23236 0.78768
 B56 B 1.28282 1.27329 0.78146
 B57 B 1.24013 1.25312 0.78837
 B58 B 1.24236 1.21564 0.76972
 B59 B 1.28717 1.21349 0.75056
 B60 B 1.31231 1.24936 0.75782
 B61 B 0.76741 0.73291 0.77700
 B62 B 0.71934 0.72389 0.77016
 B63 B 0.73390 0.76294 0.77734
 B64 B 0.77803 0.76922 0.75864
 B65 B 0.79016 0.73320 0.73949
 B66 B 0.75388 0.70484 0.74737
 B67 B 0.72197 0.75466 0.71085
 B68 B 0.76966 0.76341 0.71697
 B69 B 0.75516 0.72414 0.71047
 B70 B 0.71138 0.71826 0.72898
 B71 B 0.69933 0.75450 0.74763
 B72 B 0.73566 0.78252 0.74067
 B73 B 1.23743 0.72634 0.30527
 B74 B 1.21992 0.76322 0.29473
 B75 B 1.26764 0.75965 0.30486
 B76 B 1.28332 0.72312 0.29054
 B77 B 1.24474 0.70409 0.27029
 B78 B 1.20503 0.72932 0.27303
 B79 B 1.26194 0.76117 0.23744
 B80 B 1.27961 0.72435 0.24856
 B81 B 1.23186 0.72804 0.23777
 B82 B 1.21574 0.76478 0.25254
 B83 B 1.25450 0.78356 0.27235
 B84 B 1.29417 0.75839 0.26974
 B85 B 0.76154 1.26774 0.26790
 B86 B 0.78099 1.23113 0.25813
 B87 B 0.73211 1.23446 0.26366
 B88 B 0.71754 1.27111 0.24807
 B89 B 0.75839 1.29026 0.23282
 B90 B 0.79781 1.26538 0.23921
 B91 B 0.74624 1.23299 0.19721
 B92 B 0.72720 1.26970 0.20654
 B93 B 0.77601 1.26651 0.20143
 B94 B 0.79017 1.22997 0.21664
 B95 B 0.74950 1.21072 0.23229
 B96 B 0.71008 1.23566 0.22600
 N97 N 0.57110 1.02035 0.04009
 N98 N 0.59491 1.04610 0.04315
 N99 N 0.54497 0.95106 0.06186
 N100 N 0.54910 0.92497 0.08061
 N101 N 0.57065 0.95117 0.03739
 N102 N 0.59363 0.92513 0.03938
 N103 N 0.54473 1.02030 0.06398
 N104 N 0.54964 1.04617 0.08380
 C105 C 0.58118 1.06189 0.07061
 C106 C 0.57949 0.90903 0.06656
 N107 N 0.43170 0.94826 0.04635
 N108 N 0.40746 0.92367 0.05376
 N109 N 0.46015 1.01823 0.06935
 N110 N 0.45905 1.04399 0.08946
 N111 N 0.42969 1.01766 0.04887
 N112 N 0.40700 1.04334 0.05462
 N113 N 0.46162 0.94922 0.06734
 N114 N 0.45905 0.92519 0.08906
 Mn115 Mn 0.50292 0.98487 0.06592
 C116 C 0.42534 0.90929 0.08035
 C117 C 0.42575 1.05944 0.08021
 N118 N 0.56408 0.95425 -0.03524
 N119 N 0.58833 0.93040 -0.04370
 N120 N 0.53362 1.02469 -0.05182
 N121 N 0.53670 1.05032 -0.07162
 N122 N 0.56429 1.02310 -0.03166
 N123 N 0.58919 1.04758 -0.03738
 N124 N 0.53443 0.95559 -0.05645
 N125 N 0.53729 0.93240 -0.07952
 Mn126 Mn 0.56808 0.98704 0.00263
 C127 C 0.57095 0.91687 -0.07133
 C128 C 0.57144 1.06442 -0.06231
 N129 N 0.42199 1.01919 -0.02298
 N130 N 0.39178 1.03866 -0.02803
 N131 N 0.45067 0.95340 -0.05118
 N132 N 0.44675 0.92908 -0.07288
 N133 N 0.42514 0.95041 -0.02674
 N134 N 0.40247 0.92404 -0.03174
 N135 N 0.44807 1.02247 -0.04694
 N136 N 0.43625 1.04460 -0.06879
 Mn137 Mn 0.42660 0.98367 0.01145
 Mn138 Mn 0.49168 0.98929 -0.05191
 Cl139 Cl 0.49727 0.98623 0.00696
 C140 C 0.40133 1.05476 -0.05637
 C141 C 0.41667 0.91101 -0.06069
 N142 N 1.06732 0.52194 0.53914
 N143 N 1.09157 0.54758 0.54182
 N144 N 1.03427 0.45538 0.56571
 N145 N 1.03691 0.43236 0.58864
 N146 N 1.06297 0.45285 0.54397
 N147 N 1.08622 0.42819 0.55182
 N148 N 1.03855 0.52449 0.56076
 N149 N 1.04213 0.55186 0.57843
 C150 C 1.07533 0.56601 0.56657
 C151 C 1.06941 0.41553 0.57972
 N152 N 0.92190 0.45765 0.54055
 N153 N 0.89125 0.44026 0.55116
 N154 N 0.95440 0.52728 0.55839
 N155 N 0.95095 0.55349 0.57764
 N156 N 0.92661 0.52635 0.53532
 N157 N 0.90305 0.55181 0.53862
 N158 N 0.94963 0.45872 0.56376
 N159 N 0.93855 0.44233 0.59042
 Mn160 Mn 0.99428 0.49144 0.56239
 C161 C 0.90257 0.43035 0.58213
 C162 C 0.91896 0.56859 0.56503
 N163 N 1.06480 0.44734 0.47131
 N164 N 1.08918 0.42255 0.46656
 N165 N 1.04122 0.51542 0.44375
 N166 N 1.04456 0.54080 0.42373
 N167 N 1.06881 0.51636 0.46698
 N168 N 1.09191 0.54241 0.46313
 N169 N 1.03669 0.44659 0.44856
 N170 N 1.04056 0.42124 0.42825
 Mn171 Mn 1.06660 0.48455 0.50538
 C172 C 1.07313 0.40630 0.43974
 C173 C 1.07639 0.55728 0.43587
 N174 N 0.92839 0.52113 0.46280
 N175 N 0.90597 0.54640 0.45468
 N176 N 0.95291 0.44928 0.44632
 N177 N 0.94845 0.42285 0.42744
 N178 N 0.92391 0.45187 0.46774
 N179 N 0.89840 0.42728 0.46353
 N180 N 0.95706 0.51793 0.44119
 N181 N 0.95508 0.54062 0.41803
 Mn182 Mn 0.92459 0.48924 0.50155
 Mn183 Mn 0.99700 0.48227 0.44473
 Cl184 Cl 0.99555 0.48679 0.50356
 C185 C 0.92327 0.55835 0.42656
 C186 C 0.91447 0.40934 0.43831
 N187 N 1.09346 0.52341 0.03116
 N188 N 1.12619 0.54025 0.03799
 N189 N 1.04473 0.46281 0.05384
 N190 N 1.04303 0.43922 0.07612
 N191 N 1.07148 0.45647 0.03117
 N192 N 1.08896 0.42834 0.03765
 N193 N 1.06644 0.52992 0.05363
 N194 N 1.07965 0.55180 0.07574
 C195 C 1.11684 0.55824 0.06562
 C196 C 1.07051 0.41774 0.06568
 N197 N 0.93577 0.48659 0.03168
 N198 N 0.90370 0.46882 0.03708
 N199 N 0.98483 0.54738 0.05419
 N200 N 0.98367 0.56923 0.07871
 N201 N 0.95766 0.55340 0.03155
 N202 N 0.93692 0.57936 0.04051
 N203 N 0.96306 0.48008 0.05403
 N204 N 0.95052 0.45728 0.07495
 Mn205 Mn 1.01480 0.50502 0.05417
 C206 C 0.91349 0.45039 0.06393
 C207 C 0.95410 0.58936 0.06977
 N208 N 1.07085 0.45508 -0.04148
 N209 N 1.09056 0.42819 -0.04949
 N210 N 1.06494 0.52794 -0.06457
 N211 N 1.07785 0.54919 -0.08689
 N212 N 1.09241 0.52206 -0.04208
 N213 N 1.12501 0.53864 -0.04898
 N214 N 1.04339 0.46070 -0.06400
 N215 N 1.04368 0.43791 -0.08767
 Mn216 Mn 1.08254 0.48918 -0.00529
 C217 C 1.07284 0.41746 -0.07829
 C218 C 1.11525 0.55577 -0.07676
 N219 N 0.95653 0.55229 -0.04158
 N220 N 0.93523 0.57784 -0.05067
 N221 N 0.96116 0.47821 -0.06315
 N222 N 0.94765 0.45461 -0.08334
 N223 N 0.93480 0.48562 -0.04045
 N224 N 0.90255 0.46773 -0.04479
 N225 N 0.98284 0.54553 -0.06457
 N226 N 0.98035 0.56645 -0.08951
 Mn227 Mn 0.94590 0.51970 -0.00471
 Mn228 Mn 1.01308 0.50307 -0.06436
 Cl229 Cl 1.01415 0.50436 -0.00510
 C230 C 0.95098 0.58681 -0.08045
 C231 C 0.91109 0.44831 -0.07138
 N232 N 0.58671 1.02744 0.53047
 N233 N 0.61790 1.04666 0.53546
 N234 N 0.54170 0.96405 0.55255
 N235 N 0.54770 0.94231 0.57641
 N236 N 0.56736 0.96007 0.52838
 N237 N 0.59087 0.93543 0.53504
 N238 N 0.56101 1.03164 0.55454
 N239 N 0.57351 1.05431 0.57607
 C240 C 0.60901 1.06347 0.56391
 C241 C 0.57755 0.92385 0.56451
 N242 N 0.43041 0.98813 0.53432
 N243 N 0.39777 0.97155 0.54090
 N244 N 0.47962 1.04780 0.55789
 N245 N 0.48158 1.07036 0.58176
 N246 N 0.45233 1.05501 0.53575
 N247 N 0.43454 1.08258 0.54443
 N248 N 0.45853 0.98040 0.55552
 N249 N 0.44576 0.95808 0.57692
 Mn250 Mn 0.51016 1.00576 0.55544
 C251 C 0.40789 0.95258 0.56721
 C252 C 0.45359 1.09209 0.57306
 N253 N 0.56423 0.96122 0.45681
 N254 N 0.58459 0.93489 0.44867
 N255 N 0.55504 1.03368 0.43540
 N256 N 0.56673 1.05511 0.41277
 N257 N 0.58314 1.02855 0.45747
 N258 N 0.61508 1.04568 0.44989
 N259 N 0.53567 0.96589 0.43512
 N260 N 0.53592 0.94285 0.41158
 Mn261 Mn 0.57573 0.99442 0.49331
 C262 C 0.56633 0.92340 0.42056
 C263 C 0.60410 1.06262 0.42232
 N264 N 0.44825 1.05601 0.46237
 N265 N 0.42859 1.08310 0.45535
 N266 N 0.45285 0.98211 0.43899
 N267 N 0.43943 0.95819 0.41921
 N268 N 0.42699 0.98911 0.46229
 N269 N 0.39520 0.97047 0.45880
 N270 N 0.47350 1.04951 0.43848
 N271 N 0.47233 1.07211 0.41518
 Mn272 Mn 0.43911 1.02240 0.49869
 Mn273 Mn 0.50412 1.00763 0.43668
 Cl274 Cl 0.50728 1.00758 0.49603
 C275 C 0.44458 1.09314 0.42595
 C276 C 0.40349 0.95119 0.43204
 N277 N 1.07203 1.03000 0.53823
 N278 N 1.09616 1.05533 0.54338
 N279 N 1.03616 0.96054 0.54907
 N280 N 1.04175 0.93338 0.56613
 N281 N 1.06096 0.96242 0.52418
 N282 N 1.08404 0.93663 0.52339
 N283 N 1.04616 1.02819 0.56243
 N284 N 1.05143 1.05223 0.58433
 C285 C 1.08294 1.06865 0.57244
 C286 C 1.07146 0.91854 0.54952
 N287 N 0.92274 0.97529 0.53672
 N288 N 0.89073 0.96000 0.54770
 N289 N 0.96324 1.03489 0.56952
 N290 N 0.95859 1.04949 0.59884
 N291 N 0.93459 1.04255 0.54880
 N292 N 0.90996 1.06288 0.56345
 N293 N 0.95306 0.96820 0.55598
 N294 N 0.94255 0.94814 0.57999
 Mn295 Mn 0.99985 0.99786 0.55935
 C296 C 0.90409 0.94257 0.57418
 C297 C 0.92594 1.06747 0.59429
 N298 N 1.05483 0.97561 0.45412
 N299 N 1.07621 0.95162 0.44161
 N300 N 1.03783 1.04976 0.44702
 N301 N 1.04981 1.07231 0.42571
 N302 N 1.06639 1.04260 0.46798
 N303 N 1.09827 1.05996 0.46159
 N304 N 1.02604 0.98279 0.43347
 N305 N 1.02726 0.96428 0.40617
 Mn306 Mn 1.06395 1.00257 0.49617
 C307 C 1.05848 0.94474 0.41175
 C308 C 1.08737 1.07879 0.43561
 N309 N 0.92794 1.05594 0.47768
 N310 N 0.90131 1.07918 0.47418
 N311 N 0.94267 0.99017 0.44050
 N312 N 0.93180 0.97069 0.41543
 N313 N 0.91704 0.98871 0.46499
 N314 N 0.88752 0.96876 0.45695
 N315 N 0.95380 1.05757 0.45336
 N316 N 0.94551 1.08185 0.43302
 Mn317 Mn 0.92516 1.01566 0.50701
 Mn318 Mn 0.98999 1.02018 0.44332
 Cl319 Cl 0.99457 1.00909 0.50142
 C320 C 0.91315 1.09555 0.44647
 C321 C 0.89743 0.95759 0.42611
 N322 N 0.56391 0.52276 0.03788
 N323 N 0.59783 0.53713 0.04558
 N324 N 0.51059 0.46517 0.05736
 N325 N 0.51217 0.44469 0.08266
 N326 N 0.53687 0.45765 0.03457
 N327 N 0.55741 0.43198 0.04444
 N328 N 0.53684 0.53061 0.05980
 N329 N 0.55156 0.55055 0.08302
 C330 C 0.58954 0.55453 0.07368
 C331 C 0.54095 0.42375 0.07420
 N332 N 0.40551 0.49201 0.03179
 N333 N 0.37418 0.47268 0.03457
 N334 N 0.45562 0.55198 0.05856
 N335 N 0.45687 0.57617 0.08091
 N336 N 0.42955 0.55809 0.03516
 N337 N 0.41312 0.58675 0.04020
 N338 N 0.43127 0.48587 0.05552
 N339 N 0.41888 0.46179 0.07455
 Mn340 Mn 0.48359 0.50869 0.05814
 C341 C 0.38333 0.45387 0.06136
 C342 C 0.43051 0.59790 0.06863
 N343 N 0.53833 0.46108 -0.03909
 N344 N 0.55555 0.43358 -0.04851
 N345 N 0.54005 0.53586 -0.05597
 N346 N 0.55534 0.55829 -0.07557
 N347 N 0.56605 0.52606 -0.03383
 N348 N 0.60002 0.54161 -0.03791
 N349 N 0.51375 0.47079 -0.06252
 N350 N 0.51324 0.45013 -0.08808
 Mn351 Mn 0.55168 0.49148 -0.00018
 C352 C 0.53903 0.42683 -0.07896
 C353 C 0.59259 0.56181 -0.06394
 N354 N 0.43193 0.56174 -0.03485
 N355 N 0.41435 0.59005 -0.03876
 N356 N 0.43434 0.49269 -0.06432
 N357 N 0.41933 0.47880 -0.09150
 N358 N 0.40745 0.49597 -0.04108
 N359 N 0.37324 0.48403 -0.05189
 N360 N 0.45948 0.55771 -0.05730
 N361 N 0.46061 0.58295 -0.07787
 Mn362 Mn 0.41810 0.52668 -0.00220
 Mn363 Mn 0.48714 0.51443 -0.06025
 Cl364 Cl 0.48514 0.51010 -0.00113
 C365 C 0.43273 0.60322 -0.06541
 C366 C 0.38144 0.47343 -0.08334
 C367 C 0.32466 1.20569 0.17554
 C368 C 0.33759 1.18206 0.15251
 C369 C 0.31034 1.16626 0.13066
 C370 C 0.27073 1.17559 0.13139
 C371 C 0.25792 1.19882 0.15492
 C372 C 0.28456 1.21359 0.17788
 C373 C 0.32286 1.14044 0.10971
 C374 C 0.36206 1.12974 0.11115
 C375 C 0.38934 1.14638 0.13248
 C376 C 0.37708 1.17267 0.15254
 C377 C 0.42824 1.13569 0.13449
 C378 C 0.43982 1.10791 0.11671
 C379 C 0.41293 1.09041 0.09619
 C380 C 0.37422 1.10192 0.09276
 H381 H 0.34580 1.21614 0.19313
 H382 H 0.24934 1.16390 0.11476
 H383 H 0.22682 1.20417 0.15600
 H384 H 0.30181 1.12784 0.09340
 H385 H 0.39798 1.18489 0.16932
 H386 H 0.44948 1.14826 0.15061
 H387 H 0.46989 1.09979 0.11948
 H388 H 0.35329 1.08855 0.07701
 C389 C 0.80792 0.70051 0.67049
 C390 C 0.82094 0.67842 0.64612
 C391 C 0.79375 0.65726 0.62960
 C392 C 0.75355 0.65962 0.63706
 C393 C 0.74074 0.68171 0.66172
 C394 C 0.76788 0.70204 0.67912
 C395 C 0.80744 0.63332 0.60703
 C396 C 0.84806 0.62984 0.60171
 C397 C 0.87495 0.65179 0.61778
 C398 C 0.86115 0.67628 0.63930
 C399 C 0.91547 0.64788 0.61347
 C400 C 0.92944 0.62134 0.59503
 C401 C 0.90322 0.59883 0.57982
 C402 C 0.86247 0.60375 0.58214
 H403 H 0.82946 0.71601 0.68333
 H404 H 0.73218 0.64367 0.62460
 H405 H 0.70978 0.68206 0.66781
 H406 H 0.78674 0.61654 0.59484
 H407 H 0.88192 0.69267 0.65202
 H408 H 0.93640 0.66452 0.62556
 H409 H 0.96091 0.61791 0.59328
 H410 H 0.84219 0.58613 0.57071
 C411 C 0.68831 0.78192 0.17776
 C412 C 0.67525 0.80141 0.15121
 C413 C 0.70270 0.81948 0.13210
 C414 C 0.74300 0.81607 0.13868
 C415 C 0.75579 0.79652 0.16517
 C416 C 0.72855 0.77997 0.18570
 C417 C 0.68932 0.84172 0.10789
 C418 C 0.64878 0.84653 0.10316
 C419 C 0.62152 0.82707 0.12121
 C420 C 0.63493 0.80439 0.14473
 C421 C 0.58112 0.83188 0.11694
 C422 C 0.56777 0.85740 0.09704
 C423 C 0.59445 0.87821 0.08058
 C424 C 0.63494 0.87182 0.08241
 H425 H 0.66674 0.76977 0.19323
 H426 H 0.76461 0.82936 0.12408
 H427 H 0.78710 0.79523 0.17011
 H428 H 0.71036 0.85635 0.09396
 H429 H 0.61390 0.79026 0.15921
 H430 H 0.55987 0.81701 0.13034
 H431 H 0.53642 0.86178 0.09561
 H432 H 0.65561 0.88802 0.06997
 C433 C 1.18684 0.28705 0.68754
 C434 C 1.17098 0.30854 0.66368
 C435 C 1.19630 0.32561 0.64173
 C436 C 1.23696 0.32089 0.64399
 C437 C 1.25256 0.30044 0.66852
 C438 C 1.22786 0.28290 0.69048
 C439 C 1.18077 0.34821 0.61888
 C440 C 1.14034 0.35494 0.61857
 C441 C 1.11501 0.33787 0.64058
 C442 C 1.13036 0.31437 0.66251
 C443 C 1.07486 0.34540 0.64109
 C444 C 1.06014 0.37033 0.62086
 C445 C 1.08505 0.38769 0.59914
 C446 C 1.12504 0.37937 0.59756
 H447 H 1.16718 0.27499 0.70491
 H448 H 1.25689 0.33403 0.62764
 H449 H 1.28426 0.29890 0.67063
 H450 H 1.20033 0.36144 0.60225
 H451 H 1.11089 0.30150 0.67951
 H452 H 1.05500 0.33259 0.65776
 H453 H 1.02919 0.37620 0.62236
 H454 H 1.14453 0.39285 0.58110
 C455 C 0.68395 1.20281 -0.16025
 C456 C 0.67078 1.17904 -0.13789
 C457 C 0.69798 1.15819 -0.12214
 C458 C 0.73839 1.16252 -0.12858
 C459 C 0.75132 1.18606 -0.15175
 C460 C 0.72410 1.20604 -0.16843
 C461 C 0.68401 1.13272 -0.10150
 C462 C 0.64318 1.12745 -0.09757
 C463 C 0.61638 1.14887 -0.11331
 C464 C 0.63037 1.17481 -0.13271
 C465 C 0.57581 1.14333 -0.11058
 C466 C 0.56160 1.11608 -0.09347
 C467 C 0.58760 1.09428 -0.07805
 C468 C 0.62847 1.10047 -0.07940
 H469 H 0.66211 1.21770 -0.17264
 H470 H 0.75984 1.14684 -0.11672
 H471 H 0.78236 1.18775 -0.15751
 H472 H 0.70471 1.11631 -0.08966
 H473 H 0.60964 1.19086 -0.14507
 H474 H 0.55502 1.15957 -0.12253
 H475 H 0.53008 1.11190 -0.09249
 H476 H 0.64868 1.08357 -0.06770
 C477 C 1.18308 0.70106 0.34277
 C478 C 1.16977 0.67783 0.36575
 C479 C 1.19713 0.65986 0.38481
 C480 C 1.23750 0.66666 0.38143
 C481 C 1.25065 0.68939 0.35770
 C482 C 1.22358 0.70607 0.33734
 C483 C 1.18371 0.63440 0.40556
 C484 C 1.14345 0.62602 0.40629
 C485 C 1.11623 0.64472 0.38764
 C486 C 1.12947 0.67094 0.36818
 C487 C 1.07630 0.63596 0.38734
 C488 C 1.06355 0.60793 0.40394
 C489 C 1.09031 0.58856 0.42174
 C490 C 1.13008 0.59828 0.42387
 H491 H 1.16157 0.71392 0.32777
 H492 H 1.25897 0.65333 0.39601
 H493 H 1.28200 0.69279 0.35437
 H494 H 1.20470 0.62009 0.41971
 H495 H 1.10856 0.68480 0.35345
 H496 H 1.05512 0.65008 0.37322
 H497 H 1.03268 0.60109 0.40246
 H498 H 1.15081 0.58332 0.43755
 C499 C 0.31532 0.78887 -0.18724
 C500 C 0.32665 0.80746 -0.15896
 C501 C 0.29790 0.82364 -0.13966
 C502 C 0.25803 0.81935 -0.14805
 C503 C 0.24690 0.80022 -0.17596
 C504 C 0.27540 0.78513 -0.19625
 C505 C 0.30962 0.84474 -0.11317
 C506 C 0.34979 0.85005 -0.10610
 C507 C 0.37827 0.83235 -0.12448
 C508 C 0.36651 0.81101 -0.15050
 C509 C 0.41831 0.83750 -0.11775
 C510 C 0.43026 0.86175 -0.09493
 C511 C 0.40252 0.88093 -0.07798
 C512 C 0.36218 0.87405 -0.08243
 H513 H 0.33788 0.77780 -0.20260
 H514 H 0.23548 0.83142 -0.13352
 H515 H 0.21592 0.79822 -0.18212
 H516 H 0.28762 0.85794 -0.09900
 H517 H 0.38852 0.79821 -0.16507
 H518 H 0.44046 0.82391 -0.13132
 H519 H 0.46145 0.86650 -0.09147
 H520 H 0.34068 0.88896 -0.06955
 C521 C 0.80934 0.28633 0.31578
 C522 C 0.81994 0.30607 0.34332
 C523 C 0.79206 0.32720 0.35788
 C524 C 0.75319 0.32656 0.34569
 C525 C 0.74266 0.30637 0.31832
 C526 C 0.77085 0.28648 0.30258
 C527 C 0.80405 0.34959 0.38316
 C528 C 0.84373 0.35126 0.39349
 C529 C 0.87093 0.32875 0.37984
 C530 C 0.85876 0.30612 0.35522
 C531 C 0.91053 0.33040 0.38957
 C532 C 0.92382 0.35563 0.41066
 C533 C 0.89771 0.37929 0.42290
 C534 C 0.85731 0.37625 0.41553
 H535 H 0.83193 0.27198 0.30374
 H536 H 0.73125 0.34245 0.35663
 H537 H 0.71283 0.30740 0.30873
 H538 H 0.78303 0.36666 0.39360
 H539 H 0.87999 0.28960 0.34413
 H540 H 0.93163 0.31322 0.37949
 H541 H 0.95500 0.35749 0.41634
 H542 H 0.83717 0.39470 0.42469
 C543 C 1.17439 0.28697 0.17659
 C544 C 1.15777 0.30431 0.15006
 C545 C 1.17958 0.30967 0.12058
 C546 C 1.21652 0.29499 0.11720
 C547 C 1.23293 0.27758 0.14390
 C548 C 1.21311 0.27522 0.17473
 C549 C 1.16481 0.33073 0.09585
 C550 C 1.12884 0.34679 0.10077
 C551 C 1.10612 0.33957 0.12946
 C552 C 1.12051 0.31811 0.15365
 C553 C 1.07020 0.35523 0.13449
 C554 C 1.05797 0.37951 0.11258
 C555 C 1.08129 0.38847 0.08511
 C556 C 1.11604 0.37116 0.07852
 H557 H 1.15766 0.28461 0.19946
 H558 H 1.23350 0.29824 0.09454
 H559 H 1.26237 0.26816 0.14111
 H560 H 1.18207 0.33577 0.07367
 H561 H 1.10361 0.31356 0.17616
 H562 H 1.05227 0.34963 0.15613
 H563 H 1.03077 0.39212 0.11786
 H564 H 1.13410 0.37782 0.05728
 C565 C 0.70304 0.80267 0.67211
 C566 C 0.67807 0.81861 0.65000
 C567 C 0.64690 0.80121 0.63421
 C568 C 0.64226 0.76743 0.64051
 C569 C 0.66728 0.75163 0.66337
 C570 C 0.69775 0.76924 0.67979
 C571 C 0.62044 0.81824 0.61348
 C572 C 0.62474 0.85245 0.60922
 C573 C 0.65654 0.86934 0.62512
 C574 C 0.68310 0.85228 0.64497
 C575 C 0.66121 0.90327 0.62136
 C576 C 0.63452 0.92064 0.60211
 C577 C 0.60287 0.90443 0.58627
 C578 C 0.59790 0.87030 0.58962
 H579 H 0.72553 0.81731 0.68470
 H580 H 0.61848 0.75353 0.62872
 H581 H 0.66172 0.72609 0.66912
 H582 H 0.59620 0.80512 0.60139
 H583 H 0.70721 0.86544 0.65730
 H584 H 0.68554 0.91638 0.63331
 H585 H 0.63877 0.94689 0.59922
 H586 H 0.57362 0.85783 0.57692
 C587 C 1.22600 0.68281 -0.19239
 C588 C 1.20431 0.66509 -0.16844
 C589 C 1.16987 0.67882 -0.15476
 C590 C 1.15920 0.71073 -0.16343
 C591 C 1.18132 0.72843 -0.18659
 C592 C 1.21458 0.71462 -0.20201
 C593 C 1.14598 0.66017 -0.13336
 C594 C 1.15651 0.62810 -0.12478
 C595 C 1.19236 0.61510 -0.13653
 C596 C 1.21582 0.63352 -0.15861
 C597 C 1.20376 0.58366 -0.12636
 C598 C 1.17935 0.56493 -0.10560
 C599 C 1.14272 0.57695 -0.09550
 C600 C 1.13153 0.60865 -0.10494
 H601 H 1.25081 0.67123 -0.20438
 H602 H 1.13311 0.72177 -0.15292
 H603 H 1.17096 0.75249 -0.19340
 H604 H 1.11892 0.67044 -0.12377
 H605 H 1.24270 0.62315 -0.16844
 H606 H 1.23133 0.57341 -0.13476
 H607 H 1.18836 0.54051 -0.09850
 H608 H 1.10339 0.61809 -0.09684
 C609 C 0.71663 1.18416 0.30221
 C610 C 0.69423 1.16767 0.32639
 C611 C 0.66098 1.18299 0.34035
 C612 C 0.65234 1.21539 0.33144
 C613 C 0.67594 1.23222 0.30847
 C614 C 0.70820 1.21681 0.29325
 C615 C 0.63666 1.16549 0.36252
 C616 C 0.64598 1.13320 0.37168
 C617 C 0.68079 1.11878 0.35936
 C618 C 0.70438 1.13592 0.33649
 C619 C 0.69113 1.08717 0.36969
 C620 C 0.66663 1.06951 0.39116
 C621 C 0.63114 1.08290 0.40225
 C622 C 0.62099 1.11488 0.39268
 H623 H 0.74057 1.17131 0.29025
 H624 H 0.62711 1.22765 0.34205
 H625 H 0.66806 1.25704 0.30195
 H626 H 0.61040 1.17687 0.37239
 H627 H 0.73050 1.12447 0.32642
 H628 H 0.71794 1.07595 0.36082
 H629 H 0.67465 1.04481 0.39816
 H630 H 0.59377 1.12539 0.40161
 C631 C 0.83648 0.70645 0.18994
 C632 C 0.85423 0.69012 0.16303
 C633 C 0.83331 0.68530 0.13264
 C634 C 0.79572 0.69884 0.12916
 C635 C 0.77838 0.71556 0.15606
 C636 C 0.79780 0.71835 0.18733
 C637 C 0.84993 0.66631 0.10677
 C638 C 0.88716 0.65208 0.11114
 C639 C 0.90866 0.65849 0.14107
 C640 C 0.89218 0.67753 0.16666
 C641 C 0.94587 0.64479 0.14555
 C642 C 0.96101 0.62356 0.12144
 C643 C 0.93934 0.61553 0.09229
 C644 C 0.90277 0.63063 0.08677
 H645 H 0.85270 0.70870 0.21332
 H646 H 0.77927 0.69576 0.10594
 H647 H 0.74886 0.72466 0.15274
 H648 H 0.83349 0.66187 0.08373
 H649 H 0.90842 0.68167 0.18988
 H650 H 0.96284 0.64974 0.16819
 H651 H 0.98939 0.61259 0.12615
 H652 H 0.88582 0.62465 0.06436
 C653 C 0.35153 1.22220 0.68965
 C654 C 0.36828 1.20470 0.66281
 C655 C 0.34676 1.20008 0.63264
 C656 C 0.30987 1.21452 0.62917
 C657 C 0.29292 1.23086 0.65623
 C658 C 0.31275 1.23401 0.68735
 C659 C 0.36122 1.17939 0.60728
 C660 C 0.39653 1.16249 0.61208
 C661 C 0.41893 1.16827 0.64166
 C662 C 0.40496 1.18967 0.66659
 C663 C 0.45410 1.15136 0.64656
 C664 C 0.46593 1.12763 0.62337
 C665 C 0.44297 1.12039 0.59469
 C666 C 0.40885 1.13870 0.58862
 H667 H 0.36746 1.22395 0.71325
 H668 H 0.29285 1.21118 0.60628
 H669 H 0.26267 1.23806 0.65334
 H670 H 0.34399 1.17514 0.58461
 H671 H 0.42165 1.19323 0.68966
 H672 H 0.47181 1.15565 0.66892
 H673 H 0.49262 1.11422 0.62846
 H674 H 0.39098 1.13342 0.56655
 C675 C 0.77968 0.31207 -0.16019
 C676 C 0.80595 0.33109 -0.14079
 C677 C 0.84207 0.31771 -0.13028
 C678 C 0.84980 0.28456 -0.13737
 C679 C 0.82328 0.26563 -0.15677
 C680 C 0.78855 0.27952 -0.16953
 C681 C 0.87026 0.33805 -0.11408
 C682 C 0.86243 0.37149 -0.10820
 C683 C 0.82514 0.38410 -0.11703
 C684 C 0.79730 0.36390 -0.13334
 C685 C 0.81641 0.41696 -0.10991
 C686 C 0.84453 0.43746 -0.09468
 C687 C 0.88217 0.42575 -0.08716
 C688 C 0.89113 0.39270 -0.09386
 H689 H 0.75347 0.32364 -0.16989
 H690 H 0.87710 0.27365 -0.12912
 H691 H 0.83123 0.24075 -0.16340
 H692 H 0.89848 0.32807 -0.10676
 H693 H 0.76921 0.37394 -0.14096
 H694 H 0.78784 0.42685 -0.11620
 H695 H 0.83714 0.46279 -0.08935
 H696 H 0.92002 0.38351 -0.08744
 C697 C 0.27894 0.81083 0.34363
 C698 C 0.30327 0.83061 0.36403
 C699 C 0.33870 0.81792 0.37692
 C700 C 0.34738 0.78469 0.37137
 C701 C 0.32263 0.76493 0.35118
 C702 C 0.28881 0.77807 0.33600
 C703 C 0.36548 0.83902 0.39377
 C704 C 0.35693 0.87255 0.39792
 C705 C 0.32010 0.88449 0.38693
 C706 C 0.29360 0.86348 0.37004
 C707 C 0.31065 0.91753 0.39230
 C708 C 0.33782 0.93888 0.40758
 C709 C 0.37512 0.92776 0.41704
 C710 C 0.38461 0.89452 0.41244
 H711 H 0.25375 0.82204 0.33177
 H712 H 0.37418 0.77435 0.38141
 H713 H 0.33147 0.73999 0.34580
 H714 H 0.39331 0.82959 0.40277
 H715 H 0.26592 0.87297 0.36072
 H716 H 0.28237 0.92690 0.38440
 H717 H 0.33011 0.96441 0.41125
 H718 H 0.41323 0.88585 0.42034
 C719 C 1.20959 1.18501 0.30923
 C720 C 1.18290 1.16868 0.32998
 C721 C 1.14213 1.17454 0.32662
 C722 C 1.12881 1.19683 0.30288
 C723 C 1.15570 1.21423 0.28365
 C724 C 1.19661 1.20962 0.28758
 C725 C 1.11528 1.15810 0.34704
 C726 C 1.12878 1.13662 0.37156
 C727 C 1.16967 1.13151 0.37573
 C728 C 1.19646 1.14714 0.35452
 C729 C 1.18304 1.11078 0.40105
 C730 C 1.15610 1.09456 0.42143
 C731 C 1.11544 1.09862 0.41652
 C732 C 1.10194 1.12000 0.39187
 H733 H 1.24042 1.17879 0.31044
 H734 H 1.09763 1.20126 0.29958
 H735 H 1.14401 1.23149 0.26581
 H736 H 1.08396 1.16226 0.34406
 H737 H 1.22778 1.14299 0.35747
 H738 H 1.21424 1.10685 0.40486
 H739 H 1.16711 1.07806 0.44037
 H740 H 1.07058 1.12341 0.38826
 C741 C 0.70692 0.67838 -0.18518
 C742 C 0.68267 0.66181 -0.16249
 C743 C 0.64215 0.66922 -0.16130
 C744 C 0.62663 0.69297 -0.18246
 C745 C 0.65107 0.70980 -0.20429
 C746 C 0.69180 0.70370 -0.20509
 C747 C 0.61743 0.65220 -0.13965
 C748 C 0.63257 0.62772 -0.11915
 C749 C 0.67321 0.62068 -0.11938
 C750 C 0.69815 0.63785 -0.14115
 C751 C 0.68777 0.59602 -0.09839
 C752 C 0.66189 0.57756 -0.07865
 C753 C 0.62134 0.58367 -0.07983
 C754 C 0.60714 0.60938 -0.09931
 H755 H 0.73740 0.67134 -0.18733
 H756 H 0.59547 0.69842 -0.18227
 H757 H 0.63753 0.72733 -0.22083
 H758 H 0.58620 0.65754 -0.13925
 H759 H 0.72931 0.63235 -0.14176
 H760 H 0.71886 0.59040 -0.09800
 H761 H 0.67327 0.55771 -0.06368
 H762 H 0.57585 0.61444 -0.09993
 C763 C 0.81006 1.18094 0.71779
 C764 C 0.83481 1.16541 0.69488
 C765 C 0.85442 1.18417 0.67033
 C766 C 0.85105 1.21835 0.67065
 C767 C 0.82670 1.23365 0.69386
 C768 C 0.80384 1.21500 0.71618
 C769 C 0.87699 1.16847 0.64588
 C770 C 0.88061 1.13427 0.64602
 C771 C 0.86274 1.11565 0.67172
 C772 C 0.83966 1.13132 0.69582
 C773 C 0.86792 1.08156 0.67261
 C774 C 0.88982 1.06600 0.64778
 C775 C 0.90587 1.08426 0.62150
 C776 C 0.90156 1.11830 0.62070
 H777 H 0.79461 1.16620 0.73608
 H778 H 0.86720 1.23326 0.65293
 H779 H 0.82612 1.26011 0.69412
 H780 H 0.89141 1.18280 0.62662
 H781 H 0.82511 1.11699 0.71500
 H782 H 0.85482 1.06698 0.69229
 H783 H 0.89332 1.03959 0.64850
 H784 H 0.91447 1.13222 0.60040
 C785 C 0.31405 0.70694 0.19279
 C786 C 0.34267 0.68965 0.17503
 C787 C 0.36873 0.66884 0.19235
 C788 C 0.36641 0.66628 0.22715
 C789 C 0.33816 0.68375 0.24467
 C790 C 0.31152 0.70433 0.22781
 C791 C 0.39575 0.64995 0.17457
 C792 C 0.39624 0.65086 0.13956
 C793 C 0.37117 0.67257 0.12221
 C794 C 0.34488 0.69217 0.14010
 C795 C 0.37122 0.67287 0.08712
 C796 C 0.39325 0.64990 0.06945
 C797 C 0.41613 0.62687 0.08664
 C798 C 0.41927 0.62862 0.12160
 H799 H 0.29323 0.72169 0.17909
 H800 H 0.38612 0.65040 0.24081
 H801 H 0.33731 0.68069 0.27156
 H802 H 0.41506 0.63340 0.18788
 H803 H 0.32504 0.70827 0.12679
 H804 H 0.35255 0.68954 0.07339
 H805 H 0.39078 0.64901 0.04235
 H806 H 0.43673 0.61076 0.13493
 C807 C 1.19036 0.79427 0.65747
 C808 C 1.16228 0.81304 0.64057
 C809 C 1.12992 0.82579 0.65840
 C810 C 1.12579 0.81924 0.69248
 C811 C 1.15427 0.80136 0.70924
 C812 C 1.18740 0.78927 0.69221
 C813 C 1.10288 0.84591 0.64227
 C814 C 1.10868 0.85475 0.60889
 C815 C 1.14067 0.84178 0.59073
 C816 C 1.16683 0.82035 0.60650
 C817 C 1.14695 0.85178 0.55763
 C818 C 1.12314 0.87580 0.54345
 C819 C 1.09229 0.88960 0.56195
 C820 C 1.08427 0.87800 0.59414
 H821 H 1.21479 0.78421 0.64362
 H822 H 1.10103 0.82868 0.70643
 H823 H 1.15013 0.79738 0.73576
 H824 H 1.07839 0.85600 0.65617
 H825 H 1.19168 0.81070 0.59277
 H826 H 1.17126 0.84212 0.54326
 H827 H 1.12970 0.88438 0.51845
 H828 H 1.06061 0.88862 0.60862
 C829 C 0.66825 0.30707 0.18773
 C830 C 0.64692 0.32407 0.16304
 C831 C 0.65905 0.32267 0.12917
 C832 C 0.69105 0.30342 0.12028
 C833 C 0.71151 0.28629 0.14465
 C834 C 0.70124 0.28836 0.17887
 C835 C 0.63938 0.34079 0.10467
 C836 C 0.60734 0.36028 0.11340
 C837 C 0.59406 0.36077 0.14697
 C838 C 0.61398 0.34276 0.17160
 C839 C 0.56155 0.37987 0.15545
 C840 C 0.54333 0.39918 0.13126
 C841 C 0.55739 0.39995 0.09815
 C842 C 0.58898 0.37988 0.08922
 H843 H 0.65935 0.30873 0.21373
 H844 H 0.70052 0.30174 0.09442
 H845 H 0.73607 0.27180 0.13633
 H846 H 0.64937 0.34010 0.07888
 H847 H 0.60419 0.34368 0.19742
 H848 H 0.55072 0.38044 0.18095
 H849 H 0.51896 0.41440 0.13884
 H850 H 0.59995 0.38022 0.06375
 C851 C 0.79797 0.82340 0.30989
 C852 C 0.82090 0.84409 0.33034
 C853 C 0.86031 0.83584 0.33765
 C854 C 0.87549 0.80622 0.32527
 C855 C 0.85158 0.78487 0.30623
 C856 C 0.81245 0.79310 0.29855
 C857 C 0.88362 0.85723 0.35735
 C858 C 0.86736 0.88597 0.37091
 C859 C 0.82726 0.89319 0.36492
 C860 C 0.80454 0.87258 0.34409
 C861 C 0.81043 0.92082 0.38009
 C862 C 0.83314 0.94117 0.40107
 C863 C 0.87321 0.93493 0.40592
 C864 C 0.89035 0.90748 0.39072
 H865 H 0.76825 0.83069 0.30365
 H866 H 0.90564 0.79934 0.33060
 H867 H 0.86397 0.76209 0.29733
 H868 H 0.91409 0.85127 0.36257
 H869 H 0.77394 0.87839 0.33915
 H870 H 0.77974 0.92663 0.37587
 H871 H 0.81971 0.96234 0.41275
 H872 H 0.92134 0.90266 0.39484
 C873 C 0.30010 0.33340 -0.19842
 C874 C 0.30933 0.35666 -0.17312
 C875 C 0.31656 0.34595 -0.14003
 C876 C 0.31558 0.31265 -0.13288
 C877 C 0.30717 0.28993 -0.15802
 C878 C 0.29853 0.29958 -0.19106
 C879 C 0.32570 0.36849 -0.11455
 C880 C 0.33000 0.40170 -0.12189
 C881 C 0.32337 0.41285 -0.15496
 C882 C 0.31202 0.39032 -0.18026
 C883 C 0.33059 0.44596 -0.16243
 C884 C 0.34697 0.46696 -0.13799
 C885 C 0.35438 0.45548 -0.10552
 C886 C 0.34413 0.42339 -0.09713
 H887 H 0.29364 0.34173 -0.22358
 H888 H 0.32127 0.30404 -0.10767
 H889 H 0.30612 0.26496 -0.15028
 H890 H 0.33138 0.35995 -0.08928
 H891 H 0.30701 0.39875 -0.20564
 H892 H 0.32601 0.45502 -0.18760
 H893 H 0.35555 0.49171 -0.14479
 H894 H 0.35110 0.41442 -0.07227
 C895 C 1.17807 0.28128 -0.18668
 C896 C 1.15998 0.29978 -0.16146
 C897 C 1.17522 0.29964 -0.12850
 C898 C 1.20610 0.27808 -0.12095
 C899 C 1.22393 0.25942 -0.14650
 C900 C 1.21237 0.26300 -0.18020
 C901 C 1.15998 0.32162 -0.10428
 C902 C 1.12972 0.34361 -0.11298
 C903 C 1.11323 0.34183 -0.14566
 C904 C 1.12829 0.31997 -0.16948
 C905 C 1.08262 0.36272 -0.15461
 C906 C 1.06921 0.38623 -0.13203
 C907 C 1.08618 0.38976 -0.09993
 C908 C 1.11616 0.36787 -0.09021
 H909 H 1.16696 0.28353 -0.21207
 H910 H 1.21739 0.27652 -0.09556
 H911 H 1.24787 0.24350 -0.13995
 H912 H 1.17239 0.32230 -0.07916
 H913 H 1.11627 0.31960 -0.19478
 H914 H 1.06952 0.36136 -0.17945
 H915 H 1.04605 0.40240 -0.14027
 H916 H 1.12932 0.37013 -0.06545
 C917 C 0.67743 0.78829 0.31586
 C918 C 0.66080 0.80866 0.34036
 C919 C 0.68276 0.81745 0.36931
 C920 C 0.72019 0.80388 0.37407
 C921 C 0.73657 0.78346 0.34944
 C922 C 0.71633 0.77687 0.31914
 C923 C 0.66736 0.84035 0.39231
 C924 C 0.63049 0.85477 0.38632
 C925 C 0.60815 0.84491 0.35782
 C926 C 0.62322 0.82169 0.33531
 C927 C 0.57157 0.85927 0.35156
 C928 C 0.55780 0.88422 0.37247
 C929 C 0.58004 0.89505 0.40033
 C930 C 0.61604 0.87963 0.40763
 H931 H 0.66038 0.78296 0.29339
 H932 H 0.73741 0.80998 0.39629
 H933 H 0.76603 0.77440 0.35341
 H934 H 0.68456 0.84771 0.41419
 H935 H 0.60628 0.81471 0.31315
 H936 H 0.55402 0.85177 0.32996
 H937 H 0.52990 0.89544 0.36647
 H938 H 0.63337 0.88767 0.42917
 C939 C 0.82925 0.70572 -0.19595
 C940 C 0.84857 0.68935 -0.16992
 C941 C 0.83124 0.68756 -0.13794
 C942 C 0.79589 0.70420 -0.13214
 C943 C 0.77687 0.72076 -0.15828
 C944 C 0.79230 0.72042 -0.19099
 C945 C 0.84902 0.66845 -0.11279
 C946 C 0.88390 0.65118 -0.11947
 C947 C 0.90193 0.65453 -0.15116
 C948 C 0.88429 0.67361 -0.17602
 C949 C 0.93684 0.63795 -0.15801
 C950 C 0.95313 0.61708 -0.13432
 C951 C 0.93492 0.61217 -0.10320
 C952 C 0.90061 0.62992 -0.09555
 H953 H 0.84257 0.70549 -0.22052
 H954 H 0.78226 0.70354 -0.10767
 H955 H 0.74876 0.73189 -0.15323
 H956 H 0.83522 0.66635 -0.08845
 H957 H 0.89782 0.67538 -0.20052
 H958 H 0.95114 0.64050 -0.18207
 H959 H 0.97964 0.60403 -0.14084
 H960 H 0.88634 0.62646 -0.07160
 C961 C 0.33398 1.21627 0.30886
 C962 C 0.35094 1.19982 0.33594
 C963 C 0.32955 1.19551 0.36582
 C964 C 0.29264 1.21034 0.36891
 C965 C 0.27606 1.22715 0.34181
 C966 C 0.29548 1.22859 0.31072
 C967 C 0.34493 1.17562 0.39143
 C968 C 0.38144 1.16006 0.38724
 C969 C 0.40364 1.16642 0.35803
 C970 C 0.38839 1.18629 0.33278
 C971 C 0.44024 1.15174 0.35374
 C972 C 0.45390 1.12932 0.37703
 C973 C 0.43136 1.12099 0.40520
 C974 C 0.39559 1.13731 0.41088
 H975 H 0.35045 1.21787 0.28578
 H976 H 0.27596 1.20797 0.39183
 H977 H 0.24679 1.23686 0.34464
 H978 H 0.32798 1.17139 0.41395
 H979 H 0.40507 1.19015 0.31001
 H980 H 0.45780 1.15677 0.33175
 H981 H 0.48179 1.11760 0.37228
 H982 H 0.37809 1.13123 0.43262
 C983 C 1.22382 0.68036 0.19270
 C984 C 1.20272 0.66393 0.16687
 C985 C 1.16751 0.67754 0.15447
 C986 C 1.15547 0.70827 0.16641
 C987 C 1.17723 0.72491 0.19125
 C988 C 1.21138 0.71111 0.20525
 C989 C 1.14432 0.65988 0.13101
 C990 C 1.15636 0.62904 0.11909
 C991 C 1.19298 0.61642 0.12965
 C992 C 1.21570 0.63374 0.15379
 C993 C 1.20580 0.58635 0.11632
 C994 C 1.18196 0.56836 0.09376
 C995 C 1.14448 0.57966 0.08490
 C996 C 1.13205 0.61027 0.09730
 H997 H 1.24902 0.66847 0.20374
 H998 H 1.12871 0.71921 0.15698
 H999 H 1.16614 0.74812 0.20037
 H1000 H 1.11663 0.66992 0.12242
 H1001 H 1.24320 0.62356 0.16265
 H1002 H 1.23395 0.57644 0.12382
 H1003 H 1.19200 0.54481 0.08453
 H1004 H 1.10324 0.61924 0.09027
 C1005 C 0.71568 1.19360 0.68174
 C1006 C 0.69223 1.17543 0.65894
 C1007 C 0.65153 1.18171 0.65659
 C1008 C 0.63554 1.20736 0.67555
 C1009 C 0.65916 1.22543 0.69804
 C1010 C 0.69937 1.21818 0.70236
 C1011 C 0.62734 1.16173 0.63603
 C1012 C 0.64343 1.13555 0.61772
 C1013 C 0.68453 1.13042 0.61858
 C1014 C 0.70868 1.15036 0.63924
 C1015 C 0.70065 1.10496 0.59927
 C1016 C 0.67615 1.08393 0.58034
 C1017 C 0.63517 1.08777 0.58079
 C1018 C 0.61901 1.11398 0.59908
 H1019 H 0.74621 1.18754 0.68388
 H1020 H 0.60447 1.21285 0.67373
 H1021 H 0.64524 1.24415 0.71317
 H1022 H 0.59593 1.16612 0.63483
 H1023 H 0.74008 1.14590 0.64053
 H1024 H 0.73213 1.10096 0.59927
 H1025 H 0.68910 1.06388 0.56638
 H1026 H 0.58739 1.11735 0.59904
 C1027 C 0.79190 0.31791 0.16469
 C1028 C 0.81658 0.33649 0.14394
 C1029 C 0.85181 0.32283 0.13191
 C1030 C 0.86028 0.28993 0.13910
 C1031 C 0.83488 0.27121 0.15913
 C1032 C 0.80072 0.28511 0.17281
 C1033 C 0.87824 0.34252 0.11358
 C1034 C 0.86920 0.37543 0.10648
 C1035 C 0.83263 0.38823 0.11683
 C1036 C 0.80686 0.36886 0.13581
 C1037 C 0.82250 0.42039 0.10829
 C1038 C 0.84855 0.44002 0.09014
 C1039 C 0.88568 0.42827 0.08119
 C1040 C 0.89596 0.39589 0.08932
 H1041 H 0.76633 0.32959 0.17535
 H1042 H 0.88697 0.27886 0.12982
 H1043 H 0.84297 0.24627 0.16499
 H1044 H 0.90585 0.33236 0.10512
 H1045 H 0.77933 0.37906 0.14447
 H1046 H 0.79445 0.43043 0.11575
 H1047 H 0.84016 0.46484 0.08394
 H1048 H 0.92445 0.38662 0.08198
 C1049 C 0.28140 0.82119 0.66591
 C1050 C 0.30553 0.83987 0.64454
 C1051 C 0.33760 0.82488 0.62831
 C1052 C 0.34340 0.79109 0.63198
 C1053 C 0.31919 0.77265 0.65307
 C1054 C 0.28858 0.78752 0.67118
 C1055 C 0.36407 0.84405 0.60958
 C1056 C 0.35862 0.87806 0.60652
 C1057 C 0.32517 0.89269 0.62111
 C1058 C 0.29901 0.87358 0.64018
 C1059 C 0.31870 0.92635 0.61673
 C1060 C 0.34538 0.94548 0.59858
 C1061 C 0.37959 0.93156 0.58535
 C1062 C 0.38609 0.89777 0.58927
 H1063 H 0.25828 0.83335 0.67969
 H1064 H 0.36759 0.77909 0.61945
 H1065 H 0.32605 0.74703 0.65647
 H1066 H 0.38923 0.83261 0.59787
 H1067 H 0.27398 0.88505 0.65207
 H1068 H 0.29304 0.93792 0.62742
 H1069 H 0.33978 0.97142 0.59551
 H1070 H 0.41218 0.88686 0.57857
 C1071 C 0.29074 1.18738 -0.16502
 C1072 C 0.31482 1.16765 -0.14451
 C1073 C 0.35575 1.17427 -0.14238
 C1074 C 0.37170 1.20115 -0.15908
 C1075 C 0.34796 1.22049 -0.17910
 C1076 C 0.30726 1.21367 -0.18319
 C1077 C 0.38054 1.15356 -0.12427
 C1078 C 0.36510 1.12623 -0.10775
 C1079 C 0.32399 1.12025 -0.10826
 C1080 C 0.29909 1.14086 -0.12683
 C1081 C 0.30867 1.09351 -0.09043
 C1082 C 0.33386 1.07274 -0.07281
 C1083 C 0.37482 1.07780 -0.07347
 C1084 C 0.39027 1.10466 -0.09091
 H1085 H 0.25970 1.18150 -0.16778
 H1086 H 0.40291 1.20679 -0.15738
 H1087 H 0.36212 1.24065 -0.19194
 H1088 H 0.41199 1.15847 -0.12341
 H1089 H 0.26770 1.13580 -0.12785
 H1090 H 0.27727 1.08858 -0.09024
 H1091 H 0.32140 1.05211 -0.05942
 H1092 H 0.42185 1.10890 -0.09108
 C1093 C 0.82636 0.69923 0.32002
 C1094 C 0.83881 0.67692 0.34427
 C1095 C 0.81347 0.66783 0.37056
 C1096 C 0.77604 0.68209 0.37228
 C1097 C 0.76328 0.70367 0.34723
 C1098 C 0.78810 0.71222 0.32045
 C1099 C 0.82553 0.64382 0.39370
 C1100 C 0.86222 0.62832 0.39010
 C1101 C 0.88736 0.63808 0.36373
 C1102 C 0.87573 0.66241 0.34137
 C1103 C 0.92360 0.62284 0.35941
 C1104 C 0.93478 0.59752 0.38039
 C1105 C 0.91024 0.58684 0.40648
 C1106 C 0.87402 0.60273 0.41164
 H1107 H 0.84613 0.70469 0.29961
 H1108 H 0.75605 0.67552 0.39223
 H1109 H 0.73345 0.71264 0.34821
 H1110 H 0.80601 0.63657 0.41379
 H1111 H 0.89499 0.66930 0.32094
 H1112 H 0.94311 0.63013 0.33934
 H1113 H 0.96283 0.58600 0.37579
 H1114 H 0.85484 0.59474 0.43165
 C1115 C 0.69468 1.20995 0.15472
 C1116 C 0.68097 1.18475 0.13365
 C1117 C 0.70777 1.16252 0.11936
 C1118 C 0.74829 1.16699 0.12562
 C1119 C 0.76163 1.19150 0.14812
 C1120 C 0.73474 1.21249 0.16394
 C1121 C 0.69334 1.13529 0.10084
 C1122 C 0.65249 1.12932 0.09823
 C1123 C 0.62599 1.15198 0.11253
 C1124 C 0.64041 1.18001 0.12916
 C1125 C 0.58542 1.14550 0.11151
 C1126 C 0.57112 1.11614 0.09769
 C1127 C 0.59697 1.09333 0.08362
 C1128 C 0.63760 1.10036 0.08305
 H1129 H 0.67317 1.22576 0.16635
 H1130 H 0.76939 1.15028 0.11477
 H1131 H 0.79263 1.19275 0.15452
 H1132 H 0.71375 1.11785 0.09016
 H1133 H 0.61997 1.19707 0.14051
 H1134 H 0.56482 1.16267 0.12235
 H1135 H 0.53973 1.11123 0.09794
 H1136 H 0.65762 1.08263 0.07235
 C1137 C 1.18533 0.71216 0.65792
 C1138 C 1.17182 0.68843 0.63477
 C1139 C 1.19899 0.66856 0.61752
 C1140 C 1.23943 0.67413 0.62258
 C1141 C 1.25267 0.69722 0.64650
 C1142 C 1.22574 0.71570 0.66537
 C1143 C 1.18524 0.64232 0.59718
 C1144 C 1.14470 0.63501 0.59509
 C1145 C 1.11770 0.65577 0.61162
 C1146 C 1.13137 0.68269 0.63065
 C1147 C 1.07743 0.64832 0.61044
 C1148 C 1.06404 0.61959 0.59473
 C1149 C 1.09044 0.59804 0.57922
 C1150 C 1.13074 0.60640 0.57842
 H1151 H 1.16389 0.72590 0.67214
 H1152 H 1.26081 0.65929 0.60949
 H1153 H 1.28394 0.69909 0.65150
 H1154 H 1.20610 0.62659 0.58453
 H1155 H 1.11055 0.69798 0.64393
 H1156 H 1.05639 0.66406 0.62282
 H1157 H 1.03288 0.61384 0.59532
 H1158 H 1.15130 0.58980 0.56664
 C1159 C 0.68017 0.78854 -0.18474
 C1160 C 0.66715 0.80989 -0.15973
 C1161 C 0.69460 0.82699 -0.13922
 C1162 C 0.73501 0.82145 -0.14382
 C1163 C 0.74784 0.80010 -0.16930
 C1164 C 0.72050 0.78365 -0.19037
 C1165 C 0.68107 0.85004 -0.11547
 C1166 C 0.64051 0.85655 -0.11287
 C1167 C 0.61340 0.83879 -0.13340
 C1168 C 0.62683 0.81533 -0.15621
 C1169 C 0.57318 0.84554 -0.13181
 C1170 C 0.55980 0.87057 -0.11103
 C1171 C 0.58616 0.88885 -0.09083
 C1172 C 0.62651 0.88126 -0.09115
 H1173 H 0.65829 0.77714 -0.20089
 H1174 H 0.75669 0.83430 -0.12839
 H1175 H 0.77913 0.79707 -0.17300
 H1176 H 0.70203 0.86362 -0.09991
 H1177 H 0.60590 0.80211 -0.17215
 H1178 H 0.55215 0.83208 -0.14738
 H1179 H 0.52867 0.87593 -0.11108
 H1180 H 0.64701 0.89547 -0.07576
 C1181 C 1.18516 0.29011 0.31677
 C1182 C 1.17197 0.30864 0.34418
 C1183 C 1.19906 0.32748 0.36357
 C1184 C 1.23923 0.32619 0.35599
 C1185 C 1.25221 0.30729 0.32885
 C1186 C 1.22529 0.28937 0.30856
 C1187 C 1.18539 0.34807 0.38939
 C1188 C 1.14485 0.35038 0.39562
 C1189 C 1.11806 0.33036 0.37699
 C1190 C 1.13182 0.30945 0.35169
 C1191 C 1.07764 0.33273 0.38275
 C1192 C 1.06356 0.35630 0.40499
 C1193 C 1.08958 0.37749 0.42242
 C1194 C 1.13037 0.37363 0.41873
 H1195 H 1.16376 0.27727 0.30124
 H1196 H 1.26055 0.34029 0.37064
 H1197 H 1.28340 0.30720 0.32352
 H1198 H 1.20608 0.36317 0.40372
 H1199 H 1.11107 0.29474 0.33697
 H1200 H 1.05676 0.31739 0.36893
 H1201 H 1.03202 0.35888 0.40761
 H1202 H 1.15054 0.39019 0.43183
 C1203 C 0.31624 0.78496 0.19846
 C1204 C 0.32934 0.80478 0.17222
 C1205 C 0.30185 0.82060 0.15135
 C1206 C 0.26147 0.81498 0.15641
 C1207 C 0.24857 0.79503 0.18274
 C1208 C 0.27579 0.78026 0.20449
 C1209 C 0.31525 0.84249 0.12663
 C1210 C 0.35580 0.84905 0.12311
 C1211 C 0.38306 0.83217 0.14350
 C1212 C 0.36970 0.80993 0.16752
 C1213 C 0.42336 0.83873 0.14058
 C1214 C 0.43667 0.86301 0.11898
 C1215 C 0.41010 0.88089 0.09935
 C1216 C 0.36964 0.87312 0.10067
 H1217 H 0.33791 0.77377 0.21467
 H1218 H 0.23984 0.82668 0.14056
 H1219 H 0.21726 0.79200 0.18658
 H1220 H 0.29418 0.85519 0.11102
 H1221 H 0.39074 0.79754 0.18347
 H1222 H 0.44457 0.82585 0.15589
 H1223 H 0.46794 0.86837 0.11821
 H1224 H 0.34894 0.88689 0.08570
 C1225 C 0.77961 0.32150 0.70608
 C1226 C 0.79461 0.33929 0.67912
 C1227 C 0.79036 0.32695 0.64609
 C1228 C 0.76966 0.29729 0.64074
 C1229 C 0.75517 0.27935 0.66797
 C1230 C 0.76097 0.29075 0.70113
 C1231 C 0.80815 0.34386 0.61936
 C1232 C 0.83093 0.37243 0.62565
 C1233 C 0.83429 0.38474 0.65891
 C1234 C 0.81564 0.36846 0.68519
 C1235 C 0.85763 0.41249 0.66581
 C1236 C 0.87893 0.42729 0.64034
 C1237 C 0.87660 0.41525 0.60728
 C1238 C 0.85176 0.38824 0.59973
 H1239 H 0.78465 0.33108 0.73120
 H1240 H 0.76597 0.28733 0.61560
 H1241 H 0.74137 0.25586 0.66289
 H1242 H 0.80552 0.33416 0.59401
 H1243 H 0.81895 0.37777 0.71066
 H1244 H 0.86038 0.42218 0.69114
 H1245 H 0.89771 0.44818 0.64661
 H1246 H 0.85025 0.37867 0.57429
 C1247 C 1.19216 1.19731 0.68859
 C1248 C 1.17895 1.17383 0.66488
 C1249 C 1.20460 1.14881 0.65398
 C1250 C 1.24253 1.14714 0.66746
 C1251 C 1.25504 1.16990 0.69157
 C1252 C 1.23044 1.19574 0.70199
 C1253 C 1.19167 1.12523 0.63050
 C1254 C 1.15276 1.12533 0.61883
 C1255 C 1.12675 1.14997 0.63011
 C1256 C 1.14026 1.17450 0.65246
 C1257 C 1.08720 1.14881 0.61992
 C1258 C 1.07327 1.12273 0.60000
 C1259 C 1.09897 1.09823 0.58891
 C1260 C 1.13889 1.10009 0.59752
 H1261 H 1.17246 1.21642 0.69681
 H1262 H 1.26245 1.12797 0.65963
 H1263 H 1.28463 1.16751 0.70137
 H1264 H 1.21144 1.10606 0.62228
 H1265 H 1.12033 1.19337 0.66108
 H1266 H 1.06675 1.16727 0.62846
 H1267 H 1.04222 1.12131 0.59372
 H1268 H 1.15844 1.08067 0.58957
 C1269 C 0.71270 0.67439 0.19092
 C1270 C 0.68615 0.65540 0.17166
 C1271 C 0.64538 0.66166 0.17361
 C1272 C 0.63192 0.68687 0.19438
 C1273 C 0.65860 0.70642 0.21235
 C1274 C 0.69947 0.70120 0.21007
 C1275 C 0.61861 0.64261 0.15487
 C1276 C 0.63209 0.61783 0.13349
 C1277 C 0.67290 0.61201 0.13068
 C1278 C 0.69971 0.63056 0.15017
 C1279 C 0.68608 0.58781 0.10828
 C1280 C 0.65900 0.56943 0.08909
 C1281 C 0.61843 0.57460 0.09257
 C1282 C 0.60520 0.59888 0.11474
 H1283 H 0.74360 0.66827 0.19075
 H1284 H 0.60073 0.69168 0.19655
 H1285 H 0.64679 0.72559 0.22818
 H1286 H 0.58731 0.64728 0.15668
 H1287 H 0.73103 0.62603 0.14824
 H1288 H 0.71723 0.58313 0.10559
 H1289 H 0.66971 0.55078 0.07202
 H1290 H 0.57392 0.60324 0.11719
 C1291 C 1.16544 0.80692 0.30750
 C1292 C 1.14551 0.82761 0.33008
 C1293 C 1.15131 0.82386 0.36501
 C1294 C 1.17557 0.79914 0.37688
 C1295 C 1.19547 0.77915 0.35453
 C1296 C 1.19145 0.78295 0.31953
 C1297 C 1.13401 0.84558 0.38771
 C1298 C 1.11097 0.87132 0.37611
 C1299 C 1.10374 0.87468 0.34134
 C1300 C 1.12106 0.85275 0.31847
 C1301 C 1.07991 0.90034 0.33016
 C1302 C 1.06422 0.92274 0.35318
 C1303 C 1.07267 0.92009 0.38759
 C1304 C 1.09571 0.89413 0.39890
 H1305 H 1.16199 0.81051 0.28075
 H1306 H 1.18051 0.79610 0.40355
 H1307 H 1.21608 0.76218 0.36522
 H1308 H 1.13928 0.84292 0.41442
 H1309 H 1.11624 0.85571 0.29175
 H1310 H 1.07384 0.90334 0.30366
 H1311 H 1.04638 0.94266 0.34399
 H1312 H 1.10191 0.89176 0.42548
 C1313 C 0.65645 0.30098 -0.18842
 C1314 C 0.63493 0.31814 -0.16412
 C1315 C 0.64574 0.31605 -0.12989
 C1316 C 0.67653 0.29569 -0.12033
 C1317 C 0.69767 0.27874 -0.14451
 C1318 C 0.68876 0.28181 -0.17894
 C1319 C 0.62652 0.33510 -0.10581
 C1320 C 0.59686 0.35662 -0.11554
 C1321 C 0.58464 0.35760 -0.14953
 C1322 C 0.60361 0.33822 -0.17360
 C1323 C 0.55460 0.37890 -0.15904
 C1324 C 0.53843 0.40032 -0.13552
 C1325 C 0.55205 0.40081 -0.10212
 C1326 C 0.58039 0.37816 -0.09203
 H1327 H 0.64866 0.30340 -0.21467
 H1328 H 0.68494 0.29350 -0.09419
 H1329 H 0.72189 0.26395 -0.13598
 H1330 H 0.63556 0.33402 -0.07970
 H1331 H 0.59491 0.33961 -0.19977
 H1332 H 0.54450 0.37975 -0.18485
 H1333 H 0.51628 0.41740 -0.14383
 H1334 H 0.59079 0.37819 -0.06626
 C1335 C 0.80251 1.20813 0.31722
 C1336 C 0.82731 1.18931 0.33765
 C1337 C 0.86142 1.17528 0.32372
 C1338 C 0.87009 1.18003 0.28991
 C1339 C 0.84456 1.19757 0.26956
 C1340 C 0.81005 1.21152 0.28263
 C1341 C 0.88615 1.15620 0.34356
 C1342 C 0.87669 1.14995 0.37700
 C1343 C 0.84240 1.16348 0.39114
 C1344 C 0.81820 1.18364 0.37151
 C1345 C 0.83261 1.15587 0.42439
 C1346 C 0.85597 1.13433 0.44299
 C1347 C 0.88991 1.12069 0.42884
 C1348 C 0.90049 1.12934 0.39609
 H1349 H 0.77724 1.21981 0.32833
 H1350 H 0.89637 1.16968 0.27900
 H1351 H 0.85226 1.20005 0.24343
 H1352 H 0.91222 1.14539 0.33267
 H1353 H 0.79184 1.19408 0.38223
 H1354 H 0.80640 1.16591 0.43571
 H1355 H 0.84721 1.12797 0.46819
 H1356 H 0.92657 1.11898 0.38481
 C1357 C 0.31520 0.71184 -0.18835
 C1358 C 0.34409 0.69509 -0.17048
 C1359 C 0.37234 0.67643 -0.18790
 C1360 C 0.37197 0.67579 -0.22295
 C1361 C 0.34357 0.69313 -0.24061
 C1362 C 0.31470 0.71130 -0.22355
 C1363 C 0.39965 0.65788 -0.17002
 C1364 C 0.39846 0.65728 -0.13495
 C1365 C 0.37123 0.67709 -0.11751
 C1366 C 0.34447 0.69614 -0.13541
 C1367 C 0.36968 0.67607 -0.08249
 C1368 C 0.39237 0.65350 -0.06511
 C1369 C 0.41748 0.63220 -0.08248
 C1370 C 0.42211 0.63543 -0.11717
 H1371 H 0.29284 0.72492 -0.17461
 H1372 H 0.39343 0.66165 -0.23674
 H1373 H 0.34430 0.69192 -0.26771
 H1374 H 0.42064 0.64284 -0.18341
 H1375 H 0.32296 0.71069 -0.12207
 H1376 H 0.34933 0.69134 -0.06872
 H1377 H 0.38872 0.65148 -0.03824
 H1378 H 0.44137 0.61895 -0.13066
 C1379 C 0.81046 0.81423 0.69599
 C1380 C 0.82307 0.83508 0.67012
 C1381 C 0.81897 0.82482 0.63627
 C1382 C 0.80175 0.79446 0.62872
 C1383 C 0.78758 0.77478 0.65424
 C1384 C 0.79206 0.78387 0.68837
 C1385 C 0.83114 0.84533 0.61028
 C1386 C 0.84711 0.87635 0.61753
 C1387 C 0.85064 0.88709 0.65134
 C1388 C 0.83867 0.86639 0.67741
 C1389 C 0.86719 0.91803 0.65849
 C1390 C 0.88193 0.93727 0.63258
 C1391 C 0.87964 0.92620 0.59916
 C1392 C 0.86113 0.89623 0.59155
 H1393 H 0.81303 0.82246 0.72185
 H1394 H 0.79745 0.78658 0.60290
 H1395 H 0.77056 0.75362 0.64642
 H1396 H 0.82830 0.83709 0.58441
 H1397 H 0.84162 0.87458 0.70328
 H1398 H 0.87021 0.92675 0.68414
 H1399 H 0.89674 0.96029 0.63873
 H1400 H 0.86016 0.88745 0.56578
 C1401 C 0.29025 0.32325 0.17947
 C1402 C 0.31121 0.34186 0.15636
 C1403 C 0.35149 0.33555 0.15120
 C1404 C 0.36959 0.30989 0.16849
 C1405 C 0.34768 0.29017 0.19015
 C1406 C 0.30750 0.29615 0.19525
 C1407 C 0.37300 0.35528 0.12923
 C1408 C 0.35442 0.38078 0.11206
 C1409 C 0.31358 0.38584 0.11576
 C1410 C 0.29226 0.36648 0.13818
 C1411 C 0.29508 0.41082 0.09764
 C1412 C 0.31736 0.43193 0.07762
 C1413 C 0.35826 0.42833 0.07590
 C1414 C 0.37640 0.40210 0.09218
 H1415 H 0.25985 0.32942 0.18419
 H1416 H 0.40057 0.30492 0.16505
 H1417 H 0.36242 0.27055 0.20309
 H1418 H 0.40420 0.35110 0.12583
 H1419 H 0.26107 0.37070 0.14167
 H1420 H 0.26370 0.41471 0.09986
 H1421 H 0.30305 0.45210 0.06511
 H1422 H 0.40801 0.39910 0.09044
   
