data_POSCAR
  _audit_creation_date              2014-09-24
  _audit_creation_method            'ToBaCCo'
  _symmetry_space_group_name_H-M    'P1'
  _symmetry_Int_Tables_number       1
  _symmetry_cell_setting            triclinic
  loop_
  _symmetry_equiv_pos_as_xyz
 x,y,z
_cell_length_a 80.8559
_cell_length_b 82.2351
_cell_length_c 80.1304
_cell_angle_alpha 89.950300
_cell_angle_beta 90.104000
_cell_angle_gamma 90.070100
loop_
  _atom_site_label
  _atom_site_type_symbol
  _atom_site_fract_x
  _atom_site_fract_y
  _atom_site_fract_z
C1 C 0.32299 0.42521 0.90609
 C2 C 0.33747 0.43203 0.91270
 C3 C 0.34451 0.42554 0.92724
 C4 C 0.33710 0.41217 0.93511
 C5 C 0.32263 0.40534 0.92848
 C6 C 0.31558 0.41186 0.91396
 H7 H 0.34303 0.44254 0.90671
 H8 H 0.34239 0.40725 0.94650
 H9 H 0.30425 0.40672 0.90897
 C10 C 0.42128 0.85083 0.42342
 C11 C 0.42813 0.84428 0.40883
 C12 C 0.42122 0.83029 0.40166
 C13 C 0.40743 0.82290 0.40902
 C14 C 0.40057 0.82944 0.42358
 C15 C 0.40746 0.84343 0.43075
 H16 H 0.43906 0.84975 0.40333
 H17 H 0.40231 0.81186 0.40369
 H18 H 0.40234 0.84826 0.44223
 C19 C 0.92110 0.89935 0.82815
 C20 C 0.92846 0.90603 0.84243
 C21 C 0.92161 0.91988 0.84989
 C22 C 0.90735 0.92697 0.84310
 C23 C 0.90000 0.92029 0.82882
 C24 C 0.90685 0.90646 0.82138
 H25 H 0.93972 0.90073 0.84741
 H26 H 0.90225 0.93793 0.84860
 H27 H 0.90140 0.90152 0.81008
 C28 C 0.41850 -0.10365 0.32995
 C29 C 0.42598 -0.09678 0.34406
 C30 C 0.41944 -0.08264 0.35117
 C31 C 0.40534 -0.07542 0.34422
 C32 C 0.39784 -0.08227 0.33010
 C33 C 0.40440 -0.09642 0.32299
 H34 H 0.43716 -0.10212 0.34917
 H35 H 0.40053 -0.06422 0.34945
 H36 H 0.39888 -0.10148 0.31179
 C37 C 0.82312 0.32611 0.34422
 C38 C 0.83741 0.31896 0.33763
 C39 C 0.84524 0.32594 0.32378
 C40 C 0.83880 0.34011 0.31655
 C41 C 0.82451 0.34725 0.32313
 C42 C 0.81670 0.34027 0.33699
 H43 H 0.84221 0.30783 0.34304
 H44 H 0.84467 0.34534 0.30562
 H45 H 0.80547 0.34563 0.34190
 C46 C -0.17200 0.85187 0.82755
 C47 C -0.15784 0.84465 0.82075
 C48 C -0.15111 0.83070 0.82814
 C49 C -0.15849 0.82400 0.84238
 C50 C -0.17265 0.83120 0.84921
 C51 C -0.17938 0.84516 0.84181
 H52 H -0.15232 0.84959 0.80949
 H53 H -0.15346 0.81299 0.84786
 H54 H -0.19056 0.85053 0.84686
 C55 C 0.92999 0.34361 0.43087
 C56 C 0.91596 0.33647 0.43803
 C57 C 0.90880 0.32271 0.43068
 C58 C 0.91564 0.31612 0.41614
 C59 C 0.92967 0.32326 0.40897
 C60 C 0.93684 0.33702 0.41633
 H61 H 0.91076 0.34147 0.44939
 H62 H 0.91022 0.30533 0.41057
 H63 H 0.94782 0.34244 0.41090
 C64 C 0.42433 0.42268 0.84572
 C65 C 0.43118 0.40871 0.83850
 C66 C 0.42388 0.40182 0.82429
 C67 C 0.40968 0.40886 0.81734
 C68 C 0.40281 0.42282 0.82454
 C69 C 0.41012 0.42971 0.83874
 H70 H 0.44236 0.40341 0.84367
 H71 H 0.40420 0.40370 0.80616
 H72 H 0.40495 0.44070 0.84410
 C73 C 0.83044 0.89718 0.91968
 C74 C 0.84454 0.90438 0.92668
 C75 C 0.85146 0.91827 0.91931
 C76 C 0.84433 0.92487 0.90487
 C77 C 0.83022 0.91767 0.89788
 C78 C 0.82331 0.90381 0.90526
 H79 H 0.84978 0.89952 0.93811
 H80 H 0.84942 0.93587 0.89942
 H81 H 0.81211 0.89851 0.90012
 C82 C 0.32632 0.84937 0.32587
 C83 C 0.31850 0.84247 0.33979
 C84 C 0.32498 0.82839 0.34716
 C85 C 0.33932 0.82126 0.34069
 C86 C 0.34716 0.82816 0.32680
 C87 C 0.34068 0.84223 0.31942
 H88 H 0.30719 0.84775 0.34460
 H89 H 0.34411 0.81015 0.34615
 H90 H 0.34655 0.84732 0.30842
 C91 C 0.82211 0.40628 0.42985
 C92 C 0.83604 0.41365 0.43705
 C93 C 0.84288 0.42763 0.42979
 C94 C 0.83579 0.43421 0.41531
 C95 C 0.82187 0.42687 0.40812
 C96 C 0.81504 0.41289 0.41538
 H97 H 0.84136 0.40863 0.44838
 H98 H 0.84092 0.44515 0.40978
 H99 H 0.80412 0.40732 0.40993
 C100 C 0.91888 0.85475 -0.08069
 C101 C 0.90468 0.84786 -0.07355
 C102 C 0.89744 0.83405 -0.08074
 C103 C 0.90432 0.82720 -0.09514
 C104 C 0.91849 0.83406 -0.10228
 C105 C 0.92575 0.84786 -0.09509
 H106 H 0.89958 0.85288 -0.06215
 H107 H 0.89899 0.81624 -0.10043
 H108 H 0.93701 0.85287 -0.10038
 C109 C 0.32313 0.34614 0.82113
 C110 C 0.31522 0.33916 0.83494
 C111 C 0.32163 0.32505 0.84228
 C112 C 0.33601 0.31794 0.83586
 C113 C 0.34394 0.32491 0.82206
 C114 C 0.33751 0.33903 0.81471
 H115 H 0.30396 0.34453 0.83976
 H116 H 0.34083 0.30687 0.84138
 H117 H 0.34348 0.34427 0.80385
 C118 C 0.15098 0.58080 0.57660
 C119 C 0.15881 0.57330 0.59019
 C120 C 0.17304 0.58025 0.59717
 C121 C 0.17941 0.59475 0.59061
 C122 C 0.17161 0.60224 0.57701
 C123 C 0.15736 0.59529 0.57003
 H124 H 0.15409 0.56189 0.59503
 H125 H 0.19065 0.59994 0.59577
 H126 H 0.15154 0.60088 0.55926
 C127 C 0.59137 0.67833 0.06989
 C128 C 0.58436 0.66440 0.06273
 C129 C 0.57012 0.65747 0.06969
 C130 C 0.56290 0.66445 0.08385
 C131 C 0.56990 0.67840 0.09102
 C132 C 0.58414 0.68532 0.08404
 H133 H 0.58984 0.65910 0.05165
 H134 H 0.55176 0.65920 0.08913
 H135 H 0.58945 0.69622 0.08948
 C136 C 0.68211 0.17898 0.66218
 C137 C 0.66818 0.18634 0.66925
 C138 C 0.66112 0.17987 0.68375
 C139 C 0.66797 0.16601 0.69120
 C140 C 0.68192 0.15862 0.68415
 C141 C 0.68899 0.16512 0.66962
 H142 H 0.66290 0.19711 0.66353
 H143 H 0.66251 0.16107 0.70248
 H144 H 0.69985 0.15950 0.66418
 C145 C 1.09200 0.07183 0.17932
 C146 C 1.08507 0.08586 0.18631
 C147 C 1.07084 0.09274 0.17923
 C148 C 1.06356 0.08560 0.16514
 C149 C 1.07047 0.07155 0.15815
 C150 C 1.08471 0.06468 0.16524
 H151 H 1.09057 0.09126 0.19734
 H152 H 1.05243 0.09083 0.15982
 H153 H 1.08999 0.05370 0.15999
 C154 C 0.07254 0.15393 1.07255
 C155 C 0.08699 0.16091 1.06609
 C156 C 0.09366 0.17492 1.07344
 C157 C 0.08587 0.18193 1.08729
 C158 C 0.07141 0.17495 1.09376
 C159 C 0.06478 0.16092 1.08641
 H160 H 0.09284 0.15565 1.05518
 H161 H 0.09089 0.19294 1.09278
 H162 H 0.05345 0.15564 1.09122
 C163 C 0.15400 0.67574 0.67807
 C164 C 0.16083 0.68275 0.66370
 C165 C 0.17479 0.67580 0.65626
 C166 C 0.18190 0.66179 0.66316
 C167 C 0.17509 0.65478 0.67753
 C168 C 0.16112 0.66173 0.68496
 H169 H 0.15551 0.69378 0.65855
 H170 H 0.19291 0.65660 0.65760
 H171 H 0.15603 0.65647 0.69626
 C172 C 1.17985 0.15680 0.18101
 C173 C 1.18672 0.16340 0.16646
 C174 C 1.17951 0.17707 0.15899
 C175 C 1.16542 0.18415 0.16606
 C176 C 1.15856 0.17756 0.18061
 C177 C 1.16575 0.16387 0.18806
 H178 H 1.19775 0.15804 0.16110
 H179 H 1.15996 0.19486 0.16040
 H180 H 1.16053 0.15887 0.19942
 C181 C 0.66273 1.06763 0.56395
 C182 C 0.67015 1.06055 0.57800
 C183 C 0.68418 1.06769 0.58519
 C184 C 0.69080 1.08196 0.57835
 C185 C 0.68340 1.08909 0.56430
 C186 C 0.66936 1.08192 0.55710
 H187 H 0.66505 1.04950 0.58334
 H188 H 0.70168 1.08746 0.58394
 H189 H 0.66363 1.08740 0.54620
 C190 C 0.57018 0.57315 0.15901
 C191 C 0.56350 0.58722 0.16615
 C192 C 0.57091 0.59412 0.18029
 C193 C 0.58506 0.58698 0.18724
 C194 C 0.59175 0.57291 0.18011
 C195 C 0.58431 0.56600 0.16599
 H196 H 0.55243 0.59264 0.16089
 H197 H 0.59069 0.59221 0.19830
 H198 H 0.58936 0.55498 0.16059
 C199 C 0.66190 0.68274 0.18460
 C200 C 0.66880 0.66858 0.19137
 C201 C 0.68269 0.66150 0.18392
 C202 C 0.68968 0.66859 0.16968
 C203 C 0.68281 0.68278 0.16290
 C204 C 0.66891 0.68984 0.17036
 H205 H 0.66343 0.66313 0.20245
 H206 H 0.70049 0.66315 0.16395
 H207 H 0.66362 0.70085 0.16516
 C208 C 0.16108 0.06868 1.06582
 C209 C 0.16754 0.08298 1.05887
 C210 C 0.18159 0.09025 1.06590
 C211 C 0.18916 0.08324 1.07990
 C212 C 0.18270 0.06895 1.08686
 C213 C 0.16866 0.06168 1.07982
 H214 H 0.16176 0.08839 1.04797
 H215 H 0.20009 0.08883 1.08529
 H216 H 0.16373 0.05056 1.08519
 C217 C 0.59317 0.17532 0.57174
 C218 C 0.58559 0.18245 0.58563
 C219 C 0.57109 0.17568 0.59220
 C220 C 0.56420 0.16176 0.58492
 C221 C 0.57176 0.15462 0.57104
 C222 C 0.58627 0.16139 0.56446
 H223 H 0.59079 0.19338 0.59111
 H224 H 0.55283 0.15666 0.58986
 H225 H 0.59198 0.15601 0.55355
 C226 C 0.09497 0.57726 0.67691
 C227 C 0.08818 0.57070 0.66229
 C228 C 0.07429 0.57796 0.65493
 C229 C 0.06724 0.59180 0.66216
 C230 C 0.07401 0.59834 0.67679
 C231 C 0.08790 0.59110 0.68413
 H232 H 0.09343 0.55977 0.65689
 H233 H 0.05628 0.59721 0.65666
 H234 H 0.09295 0.59599 0.69564
 C235 C 0.66427 0.56770 0.06277
 C236 C 0.67101 0.58172 0.05551
 C237 C 0.68520 0.58885 0.06239
 C238 C 0.69266 0.58197 0.07652
 C239 C 0.68591 0.56797 0.08378
 C240 C 0.67171 0.56084 0.07690
 H241 H 0.66524 0.58703 0.04457
 H242 H 0.70365 0.58750 0.08184
 H243 H 0.66648 0.55000 0.08253
 C244 C 0.07581 0.67242 0.59837
 C245 C 0.06941 0.65819 0.59123
 C246 C 0.07737 0.65102 0.57758
 C247 C 0.09180 0.65805 0.57111
 C248 C 0.09823 0.67228 0.57825
 C249 C 0.09025 0.67943 0.59190
 H250 H 0.05802 0.65297 0.59599
 H251 H 0.09772 0.65276 0.56027
 H252 H 0.09500 0.69065 0.59717
 C253 C 0.56769 1.07056 0.66052
 C254 C 0.58184 1.06352 0.66760
 C255 C 0.58927 1.07058 0.68164
 C256 C 0.58257 1.08473 0.68861
 C257 C 0.56841 1.09180 0.68156
 C258 C 0.56099 1.08472 0.66750
 H259 H 0.58698 1.05248 0.66231
 H260 H 0.58827 1.09009 0.69958
 H261 H 0.54994 1.09010 0.66212
 C262 C 0.42641 0.34551 0.92833
 C263 C 0.43357 0.33910 0.91386
 C264 C 0.42689 0.32513 0.90647
 C265 C 0.41303 0.31759 0.91352
 C266 C 0.40588 0.32398 0.92800
 C267 C 0.41254 0.33795 0.93540
 H268 H 0.44447 0.34479 0.90855
 H269 H 0.40801 0.30663 0.90794
 H270 H 0.40715 0.34277 0.94675
 C271 C 0.93018 0.42676 0.34198
 C272 C 0.91587 0.43371 0.33514
 C273 C 0.90822 0.42652 0.32129
 C274 C 0.91484 0.41235 0.31430
 C275 C 0.92915 0.40540 0.32112
 C276 C 0.93681 0.41259 0.33497
 H277 H 0.91083 0.44480 0.34039
 H278 H 0.90904 0.40690 0.30344
 H279 H 0.94800 0.40728 0.34009
 C280 C 0.33060 0.91794 0.39861
 C281 C 0.32311 0.90457 0.40639
 C282 C 0.33001 0.89802 0.42096
 C283 C 0.34448 0.90477 0.42768
 C284 C 0.35198 0.91813 0.41990
 C285 C 0.34506 0.92468 0.40534
 H286 H 0.31167 0.89964 0.40144
 H287 H 0.34956 0.89998 0.43921
 H288 H 0.35059 0.93532 0.39960
 O289 O 0.24939 0.54465 0.72854
 O290 O 0.27813 0.53907 0.73113
 O291 O 0.22841 0.50384 0.70515
 O292 O 0.22856 0.47642 0.70878
 O293 O 0.20666 0.52273 0.74916
 O294 O 0.21283 0.52007 0.77847
 O295 O 0.27177 0.45842 0.74909
 O296 O 0.26766 0.46360 0.72027
 O297 O 0.29324 0.49778 0.77098
 O298 O 0.28851 0.52768 0.77004
 O299 O 0.25177 0.47814 0.79186
 O300 O 0.22168 0.48022 0.78657
 O301 O 0.25214 0.45811 0.76949
 O302 O 0.22104 0.46395 0.76719
 O303 O 0.27201 0.49742 0.79246
 O304 O 0.27000 0.52799 0.78754
 O305 O 0.29264 0.47859 0.75050
 O306 O 0.28772 0.48550 0.72017
 O307 O 0.22979 0.54443 0.74906
 O308 O 0.23215 0.53778 0.77889
 O309 O 0.20603 0.50380 0.72838
 O310 O 0.21201 0.47399 0.73042
 O311 O 0.24852 0.52333 0.70569
 O312 O 0.27852 0.51851 0.71155
 Zr313 Zr 0.25944 0.52107 0.72949
 O314 O 0.27521 0.50621 0.74384
 Zr315 Zr 0.22967 0.49297 0.72893
 O316 O 0.24439 0.47670 0.74281
 Zr317 Zr 0.23064 0.52073 0.75921
 O318 O 0.24496 0.50554 0.77467
 Zr319 Zr 0.26954 0.48179 0.73885
 O320 O 0.25484 0.49659 0.72312
 Zr321 Zr 0.27010 0.50936 0.76932
 O322 O 0.25580 0.52583 0.75508
 Zr323 Zr 0.24059 0.48107 0.76835
 O324 O 0.22449 0.49625 0.75447
 O325 O 0.23449 0.51718 0.73395
 O326 O 0.26556 0.48504 0.76423
 C327 C 0.23762 0.55121 0.73694
 C328 C 0.23645 0.51578 0.69869
 C329 C 0.19958 0.51537 0.73695
 C330 C 0.26425 0.45178 0.76144
 C331 C 0.29941 0.48568 0.76303
 C332 C 0.26416 0.48529 0.79869
 H333 H 0.28689 0.50860 0.74115
 H334 H 0.24241 0.50774 0.78651
 H335 H 0.22744 0.52438 0.72712
 H336 H 0.24181 0.46534 0.73973
 H337 H 0.26429 0.46921 0.70986
 H338 H 0.23606 0.46733 0.71153
 H339 H 0.26112 0.52551 0.79563
 H340 H 0.24291 0.54341 0.77766
 H341 H 0.29533 0.47605 0.72046
 H342 H 0.27759 0.52755 0.70340
 H343 H 0.22296 0.48988 0.79379
 H344 H 0.20735 0.50932 0.77770
 H345 H 0.27758 0.54362 0.74255
 H346 H 0.29545 0.52648 0.75997
 H347 H 0.20556 0.47583 0.74074
 H348 H 0.22365 0.45602 0.75831
 O349 O 0.20708 0.02064 0.24857
 O350 O 0.21183 0.01680 0.27743
 O351 O 0.25000 0.04352 0.23000
 O352 O 0.27763 0.03925 0.23066
 O353 O 0.23037 0.00209 0.20501
 O354 O 0.23191 -0.02668 0.20990
 O355 O 0.29346 -0.00267 0.27294
 O356 O 0.28914 0.02585 0.27000
 O357 O 0.25238 -0.02398 0.29195
 O358 O 0.22198 -0.02183 0.28619
 O359 O 0.27331 -0.04249 0.25019
 O360 O 0.27178 -0.03599 0.21971
 O361 O 0.29388 -0.02154 0.25208
 O362 O 0.28908 -0.01758 0.22066
 O363 O 0.25306 -0.04356 0.26989
 O364 O 0.22201 -0.03818 0.26663
 O365 O 0.27251 -0.00459 0.29297
 O366 O 0.26627 0.02544 0.28956
 O367 O 0.20738 0.00164 0.22778
 O368 O 0.21340 -0.02759 0.22865
 O369 O 0.25016 0.02184 0.20610
 O370 O 0.28015 0.01898 0.21319
 O371 O 0.22956 0.04251 0.24957
 O372 O 0.23323 0.03513 0.27961
 Zr373 Zr 0.23077 0.01874 0.25931
 O374 O 0.24500 0.00364 0.27498
 Zr375 Zr 0.26027 0.02001 0.23031
 O376 O 0.27600 0.00538 0.24497
 Zr377 Zr 0.23124 -0.00877 0.22878
 O378 O 0.24583 -0.02493 0.24294
 Zr379 Zr 0.27012 0.00815 0.27033
 O380 O 0.25595 0.02454 0.25584
 Zr381 Zr 0.24129 -0.02081 0.26841
 O382 O 0.22539 -0.00585 0.25416
 Zr383 Zr 0.27099 -0.01917 0.23967
 O384 O 0.25643 -0.00449 0.22367
 O385 O 0.23535 0.01556 0.23404
 O386 O 0.26621 -0.01619 0.26485
 C387 C 0.20047 0.01309 0.23619
 C388 C 0.23788 0.04977 0.23813
 C389 C 0.23851 0.01401 0.19869
 C390 C 0.30004 -0.01459 0.26504
 C391 C 0.26486 -0.01702 0.29883
 C392 C 0.26568 -0.04940 0.26230
 H393 H 0.24229 0.00572 0.28682
 H394 H 0.24340 -0.03628 0.23973
 H395 H 0.22841 0.02273 0.22704
 H396 H 0.28771 0.00820 0.24292
 H397 H 0.28381 0.03631 0.26708
 H398 H 0.28642 0.03613 0.23862
 H399 H 0.22493 -0.04597 0.25772
 H400 H 0.20749 -0.02693 0.23944
 H401 H 0.27562 0.02447 0.29753
 H402 H 0.22434 0.04340 0.27877
 H403 H 0.26220 -0.04339 0.22089
 H404 H 0.24317 -0.02627 0.20509
 H405 H 0.20717 0.00570 0.27642
 H406 H 0.22357 -0.01272 0.29408
 H407 H 0.27833 0.00924 0.20616
 H408 H 0.29730 -0.00929 0.22405
 O409 O 0.50097 0.70673 0.23059
 O410 O 0.47230 0.71167 0.23309
 O411 O 0.52092 0.74810 0.20699
 O412 O 0.52040 0.77540 0.21066
 O413 O 0.54353 0.72968 0.25115
 O414 O 0.53740 0.73189 0.28035
 O415 O 0.47677 0.79232 0.25138
 O416 O 0.48096 0.78744 0.22236
 O417 O 0.45662 0.75269 0.27328
 O418 O 0.46197 0.72276 0.27215
 O419 O 0.49755 0.77331 0.29369
 O420 O 0.52788 0.77153 0.28837
 O421 O 0.49656 0.79300 0.27170
 O422 O 0.52788 0.78805 0.26893
 O423 O 0.47765 0.75368 0.29434
 O424 O 0.48071 0.72296 0.28970
 O425 O 0.45666 0.77197 0.25284
 O426 O 0.46133 0.76506 0.22236
 O427 O 0.52074 0.70732 0.25100
 O428 O 0.51850 0.71389 0.28079
 O429 O 0.54361 0.74863 0.23035
 O430 O 0.53682 0.77826 0.23222
 O431 O 0.50123 0.72823 0.20760
 O432 O 0.47119 0.73234 0.21369
 Zr433 Zr 0.49052 0.73012 0.23149
 O434 O 0.47452 0.74459 0.24592
 Zr435 Zr 0.51968 0.75883 0.23082
 O436 O 0.50469 0.77477 0.24475
 Zr437 Zr 0.51952 0.73099 0.26110
 O438 O 0.50500 0.74588 0.27665
 Zr439 Zr 0.47963 0.76913 0.24090
 O440 O 0.49454 0.75470 0.22511
 Zr441 Zr 0.47992 0.74151 0.27138
 O442 O 0.49445 0.72539 0.25706
 Zr443 Zr 0.50881 0.77043 0.27026
 O444 O 0.52510 0.75560 0.25634
 O445 O 0.51546 0.73448 0.23583
 O446 O 0.48395 0.76585 0.26619
 C447 C 0.51286 0.70035 0.23900
 C448 C 0.51299 0.73612 0.20049
 C449 C 0.55043 0.73733 0.23905
 C450 C 0.48407 0.79896 0.26387
 C451 C 0.45023 0.76481 0.26551
 C452 C 0.48515 0.76611 0.30040
 H453 H 0.46286 0.74197 0.24331
 H454 H 0.50767 0.74374 0.28849
 H455 H 0.52263 0.72745 0.22896
 H456 H 0.50697 0.78620 0.24167
 H457 H 0.48423 0.78193 0.21189
 H458 H 0.51244 0.78416 0.21326
 H459 H 0.48920 0.72598 0.29805
 H460 H 0.50780 0.70813 0.27968
 H461 H 0.45351 0.77433 0.22275
 H462 H 0.47225 0.72338 0.20548
 H463 H 0.52641 0.76221 0.29603
 H464 H 0.54237 0.74289 0.27987
 H465 H 0.47272 0.70738 0.24462
 H466 H 0.45468 0.72406 0.26232
 H467 H 0.54331 0.77664 0.24257
 H468 H 0.52477 0.79612 0.26032
 O469 O 0.04174 0.72835 0.75063
 O470 O 0.03629 0.73185 0.77948
 O471 O -0.00095 0.70635 0.73050
 O472 O -0.02869 0.71087 0.73103
 O473 O 0.01981 0.74734 0.70668
 O474 O 0.01828 0.77624 0.71157
 O475 O -0.04479 0.75258 0.77300
 O476 O -0.04078 0.72404 0.76997
 O477 O -0.00372 0.77312 0.79323
 O478 O 0.02676 0.77060 0.78813
 O479 O -0.02358 0.79236 0.75118
 O480 O -0.02156 0.78625 0.72073
 O481 O -0.04450 0.77170 0.75235
 O482 O -0.03904 0.76795 0.72096
 O483 O -0.00374 0.79291 0.77140
 O484 O 0.02731 0.78715 0.76873
 O485 O -0.02426 0.75412 0.79355
 O486 O -0.01837 0.72401 0.79011
 O487 O 0.04216 0.74755 0.72998
 O488 O 0.03646 0.77688 0.73085
 O489 O -0.00040 0.72796 0.70712
 O490 O -0.03052 0.73144 0.71336
 O491 O 0.01918 0.70684 0.75049
 O492 O 0.01457 0.71366 0.78062
 Zr493 Zr 0.01784 0.73041 0.76075
 O494 O 0.00354 0.74558 0.77620
 Zr495 Zr -0.01108 0.72990 0.73102
 O496 O -0.02687 0.74462 0.74543
 Zr497 Zr 0.01842 0.75826 0.73043
 O498 O 0.00379 0.77449 0.74439
 Zr499 Zr -0.02155 0.74149 0.77090
 O500 O -0.00735 0.72502 0.75660
 Zr501 Zr 0.00777 0.77003 0.76992
 O502 O 0.02371 0.75498 0.75593
 Zr503 Zr -0.02138 0.76913 0.74047
 O504 O -0.00673 0.75440 0.72468
 O505 O 0.01380 0.73400 0.73544
 O506 O -0.01715 0.76582 0.76573
 C507 C 0.04870 0.73589 0.73845
 C508 C 0.01113 0.69995 0.73860
 C509 C 0.01170 0.73548 0.70016
 C510 C -0.05105 0.76467 0.76506
 C511 C -0.01650 0.76635 0.79971
 C512 C -0.01613 0.79901 0.76358
 H513 H 0.00598 0.74334 0.78808
 H514 H 0.00645 0.78583 0.74135
 H515 H 0.02084 0.72686 0.72857
 H516 H -0.03858 0.74199 0.74308
 H517 H -0.03553 0.71355 0.76703
 H518 H -0.03779 0.71427 0.73847
 H519 H 0.02461 0.79513 0.75990
 H520 H 0.04215 0.77605 0.74177
 H521 H -0.02786 0.72506 0.79785
 H522 H 0.02339 0.70533 0.77992
 H523 H -0.01176 0.79333 0.72206
 H524 H 0.00716 0.77585 0.70640
 H525 H 0.04126 0.74282 0.77862
 H526 H 0.02485 0.76147 0.79594
 H527 H -0.02828 0.74113 0.70638
 H528 H -0.04749 0.75981 0.72411
 O529 O 0.00117 0.04238 0.02049
 O530 O -0.02751 0.03710 0.01765
 O531 O 0.02144 0.00103 0.04371
 O532 O 0.02109 -0.02628 0.03973
 O533 O 0.04401 0.02018 -0.00002
 O534 O 0.03803 0.01825 -0.02930
 O535 O -0.02201 -0.04330 -0.00155
 O536 O -0.01806 -0.03861 0.02758
 O537 O -0.04248 -0.00375 -0.02328
 O538 O -0.03757 0.02633 -0.02150
 O539 O -0.00129 -0.02340 -0.04352
 O540 O 0.02901 -0.02135 -0.03785
 O541 O -0.00222 -0.04343 -0.02181
 O542 O 0.02902 -0.03818 -0.01870
 O543 O -0.02130 -0.00392 -0.04413
 O544 O -0.01878 0.02667 -0.03893
 O545 O -0.04234 -0.02327 -0.00308
 O546 O -0.03802 -0.01656 0.02755
 O547 O 0.02105 0.04225 0.00026
 O548 O 0.01896 0.03605 -0.02965
 O549 O 0.04419 0.00100 0.02055
 O550 O 0.03774 -0.02866 0.01830
 O551 O 0.00153 0.02066 0.04318
 O552 O -0.02843 0.01622 0.03684
 Zr553 Zr -0.00908 0.01888 0.01920
 O554 O -0.02486 0.00437 0.00446
 Zr555 Zr 0.02037 -0.00948 0.01975
 O556 O 0.00562 -0.02545 0.00549
 Zr557 Zr 0.02006 0.01871 -0.01019
 O558 O 0.00577 0.00384 -0.02603
 Zr559 Zr -0.01952 -0.02017 0.00919
 O560 O -0.00484 -0.00573 0.02530
 Zr561 Zr -0.01938 0.00784 -0.02091
 O562 O -0.00508 0.02397 -0.00628
 Zr563 Zr 0.00981 -0.02074 -0.01994
 O564 O 0.02588 -0.00588 -0.00567
 O565 O 0.01591 0.01486 0.01500
 O566 O -0.01510 -0.01652 -0.01601
 C567 C 0.01308 0.04898 0.01230
 C568 C 0.01338 0.01287 0.05027
 C569 C 0.05092 0.01249 0.01206
 C570 C -0.01464 -0.04967 -0.01411
 C571 C -0.04874 -0.01610 -0.01577
 C572 C -0.01366 -0.01619 -0.05029
 H573 H -0.03657 0.00680 0.00700
 H574 H 0.00848 0.00617 -0.03782
 H575 H 0.02300 0.02189 0.02200
 H576 H 0.00801 -0.03688 0.00844
 H577 H -0.01495 -0.03315 0.03814
 H578 H 0.01331 -0.03514 0.03690
 H579 H -0.01002 0.02405 -0.04709
 H580 H 0.00824 0.04173 -0.02849
 H581 H -0.04571 -0.02595 0.02696
 H582 H -0.02750 0.02511 0.04514
 H583 H 0.02744 -0.01199 -0.04545
 H584 H 0.04313 0.00732 -0.02888
 H585 H -0.02708 0.04150 0.00616
 H586 H -0.04505 0.02462 -0.01190
 H587 H 0.04422 -0.02688 0.00798
 H588 H 0.02596 -0.04637 -0.01020
 O589 O -0.04328 0.49962 0.47673
 O590 O -0.03779 0.52777 0.47795
 O591 O -0.00008 0.47837 0.45654
 O592 O 0.02739 0.47869 0.46189
 O593 O -0.02181 0.45844 0.50029
 O594 O -0.02086 0.46563 0.52934
 O595 O 0.04316 0.52298 0.50094
 O596 O 0.03926 0.51797 0.47204
 O597 O 0.00209 0.54443 0.52011
 O598 O -0.02851 0.53962 0.51703
 O599 O 0.02082 0.50504 0.54347
 O600 O 0.01919 0.47523 0.53953
 O601 O 0.04233 0.50477 0.52242
 O602 O 0.03680 0.47395 0.52102
 O603 O 0.00097 0.52463 0.54213
 O604 O -0.02972 0.52218 0.53546
 O605 O 0.02277 0.54323 0.50088
 O606 O 0.01701 0.53761 0.47026
 O607 O -0.04410 0.48117 0.49805
 O608 O -0.03886 0.48442 0.52801
 O609 O -0.00136 0.45721 0.48078
 O610 O 0.02876 0.46358 0.48433
 O611 O -0.02012 0.49782 0.45501
 O612 O -0.01572 0.52760 0.45985
 Zr613 Zr -0.01933 0.50954 0.47842
 O614 O -0.00518 0.52579 0.49295
 Zr615 Zr 0.00940 0.48057 0.48090
 O616 O 0.02505 0.49578 0.49502
 Zr617 Zr -0.02052 0.48242 0.50936
 O618 O -0.00604 0.49726 0.52506
 Zr619 Zr 0.01993 0.52027 0.48965
 O620 O 0.00591 0.50503 0.47374
 Zr621 Zr -0.00977 0.52170 0.51840
 O622 O -0.02557 0.50692 0.50383
 Zr623 Zr 0.01920 0.49299 0.52040
 O624 O 0.00465 0.47646 0.50639
 O625 O -0.01554 0.48521 0.48418
 O626 O 0.01520 0.51727 0.51491
 C627 C -0.05045 0.48849 0.48538
 C628 C -0.01183 0.48588 0.44897
 C629 C -0.01352 0.45106 0.48895
 C630 C 0.04917 0.51634 0.51411
 C631 C 0.01499 0.55016 0.51286
 C632 C 0.01310 0.51739 0.54931
 H633 H -0.00750 0.53715 0.48966
 H634 H -0.00892 0.49519 0.53685
 H635 H -0.02248 0.47798 0.47725
 H636 H 0.03677 0.49325 0.49270
 H637 H 0.03406 0.51436 0.46148
 H638 H 0.03616 0.48668 0.46454
 H639 H -0.02767 0.51375 0.54403
 H640 H -0.04452 0.49493 0.52611
 H641 H 0.02655 0.54518 0.47085
 H642 H -0.02436 0.52624 0.45114
 H643 H 0.00896 0.47669 0.54612
 H644 H -0.00979 0.46051 0.52960
 H645 H -0.04258 0.52819 0.48930
 H646 H -0.02610 0.54669 0.50734
 H647 H 0.02633 0.45760 0.49477
 H648 H 0.04545 0.47642 0.51268
 O649 O 0.54419 0.01944 0.50071
 O650 O 0.53906 0.01616 0.47198
 O651 O 0.50137 0.04223 0.52003
 O652 O 0.47368 0.03796 0.51919
 O653 O 0.52117 0.00094 0.54456
 O654 O 0.51950 -0.02785 0.53969
 O655 O 0.45763 -0.00381 0.47698
 O656 O 0.46192 0.02471 0.48005
 O657 O 0.49847 -0.02496 0.45773
 O658 O 0.52902 -0.02259 0.46324
 O659 O 0.47801 -0.04373 0.49956
 O660 O 0.47959 -0.03735 0.52997
 O661 O 0.45740 -0.02289 0.49767
 O662 O 0.46229 -0.01891 0.52916
 O663 O 0.49812 -0.04461 0.47972
 O664 O 0.52914 -0.03910 0.48266
 O665 O 0.47839 -0.00557 0.45685
 O666 O 0.48467 0.02445 0.46029
 O667 O 0.54404 0.00038 0.52148
 O668 O 0.53789 -0.02875 0.52082
 O669 O 0.50120 0.02049 0.54367
 O670 O 0.47124 0.01757 0.53675
 O671 O 0.52177 0.04141 0.50042
 O672 O 0.51758 0.03438 0.47026
 Zr673 Zr 0.52034 0.01777 0.49034
 O674 O 0.50606 0.00268 0.47469
 Zr675 Zr 0.49102 0.01874 0.51951
 O676 O 0.47523 0.00413 0.50489
 Zr677 Zr 0.52010 -0.00993 0.52078
 O678 O 0.50545 -0.02606 0.50664
 Zr679 Zr 0.48096 0.00707 0.47951
 O680 O 0.49518 0.02346 0.49399
 Zr681 Zr 0.50983 -0.02180 0.48116
 O682 O 0.52577 -0.00684 0.49537
 Zr683 Zr 0.48030 -0.02042 0.51007
 O684 O 0.49493 -0.00577 0.52604
 O685 O 0.51595 0.01439 0.51563
 O686 O 0.48493 -0.01728 0.48488
 C687 C 0.55094 0.01177 0.51293
 C688 C 0.51353 0.04853 0.51200
 C689 C 0.51297 0.01276 0.55096
 C690 C 0.45115 -0.01587 0.48479
 C691 C 0.48596 -0.01800 0.45094
 C692 C 0.48557 -0.05054 0.48738
 H693 H 0.50869 0.00483 0.46284
 H694 H 0.50792 -0.03742 0.50980
 H695 H 0.52300 0.02148 0.52261
 H696 H 0.46352 0.00690 0.50702
 H697 H 0.46728 0.03518 0.48291
 H698 H 0.46476 0.03475 0.51141
 H699 H 0.52638 -0.04687 0.49167
 H700 H 0.54363 -0.02817 0.50994
 H701 H 0.47524 0.02352 0.45243
 H702 H 0.52641 0.04272 0.47112
 H703 H 0.48930 -0.04456 0.52886
 H704 H 0.50829 -0.02740 0.54461
 H705 H 0.54352 0.00497 0.47259
 H706 H 0.52712 -0.01369 0.45516
 H707 H 0.47307 0.00775 0.54367
 H708 H 0.45391 -0.01083 0.52569
 O709 O 0.54384 0.52107 -0.00037
 O710 O 0.53878 0.51738 -0.02909
 O711 O 0.50115 0.54470 0.01829
 O712 O 0.47343 0.54070 0.01744
 O713 O 0.52039 0.50362 0.04363
 O714 O 0.51834 0.47475 0.03928
 O715 O 0.45697 0.49871 -0.02402
 O716 O 0.46178 0.52702 -0.02167
 O717 O 0.49795 0.47668 -0.04296
 O718 O 0.52830 0.47853 -0.03723
 O719 O 0.47714 0.45856 -0.00055
 O720 O 0.47819 0.46553 0.02943
 O721 O 0.45640 0.47999 -0.00299
 O722 O 0.46140 0.48410 0.02834
 O723 O 0.49738 0.45709 -0.02021
 O724 O 0.52826 0.46256 -0.01761
 O725 O 0.47812 0.49629 -0.04431
 O726 O 0.48463 0.52619 -0.04115
 O727 O 0.54334 0.50232 0.02069
 O728 O 0.53679 0.47329 0.02055
 O729 O 0.50066 0.52337 0.04232
 O730 O 0.47069 0.52064 0.03530
 O731 O 0.52170 0.54334 -0.00112
 O732 O 0.51760 0.53590 -0.03117
 Zr733 Zr 0.52002 0.51955 -0.01083
 O734 O 0.50563 0.50436 -0.02629
 Zr735 Zr 0.49057 0.52132 0.01815
 O736 O 0.47469 0.50667 0.00367
 Zr737 Zr 0.51927 0.49234 0.02006
 O738 O 0.50450 0.47618 0.00611
 Zr739 Zr 0.48056 0.50910 -0.02173
 O740 O 0.49490 0.52555 -0.00744
 Zr741 Zr 0.50905 0.47995 -0.01942
 O742 O 0.52510 0.49495 -0.00537
 Zr743 Zr 0.47940 0.48214 0.00928
 O744 O 0.49413 0.49686 0.02510
 O745 O 0.51546 0.51663 0.01448
 O746 O 0.48411 0.48472 -0.01600
 C747 C 0.55044 0.51347 0.01198
 C748 C 0.51345 0.55074 0.01026
 C749 C 0.51231 0.51563 0.04979
 C750 C 0.45017 0.48706 -0.01586
 C751 C 0.48571 0.48381 -0.05007
 C752 C 0.48491 0.45130 -0.01231
 H753 H 0.50838 0.50631 -0.03815
 H754 H 0.50684 0.46487 0.00952
 H755 H 0.52257 0.52375 0.02137
 H756 H 0.46303 0.50963 0.00571
 H757 H 0.46724 0.53744 -0.01882
 H758 H 0.46454 0.53750 0.00962
 H759 H 0.52566 0.45522 -0.00819
 H760 H 0.54264 0.47364 0.00972
 H761 H 0.47526 0.52528 -0.04910
 H762 H 0.52656 0.54412 -0.03041
 H763 H 0.48819 0.45863 0.02897
 H764 H 0.50720 0.47560 0.04432
 H765 H 0.54322 0.50621 -0.02814
 H766 H 0.52682 0.48757 -0.04524
 H767 H 0.47242 0.51098 0.04247
 H768 H 0.45332 0.49249 0.02491
 O769 O 0.79355 0.25219 0.47791
 O770 O 0.78826 0.22391 0.47915
 O771 O 0.75028 0.27299 0.45710
 O772 O 0.72275 0.27232 0.46216
 O773 O 0.77174 0.29307 0.50076
 O774 O 0.77017 0.28611 0.53001
 O775 O 0.70716 0.22793 0.50139
 O776 O 0.71088 0.23314 0.47265
 O777 O 0.74881 0.20662 0.52019
 O778 O 0.77894 0.21214 0.51833
 O779 O 0.72920 0.24643 0.54404
 O780 O 0.73031 0.27598 0.53992
 O781 O 0.70753 0.24654 0.52249
 O782 O 0.71305 0.27724 0.52130
 O783 O 0.74900 0.22680 0.54282
 O784 O 0.77969 0.22947 0.53652
 O785 O 0.72829 0.20759 0.50070
 O786 O 0.73348 0.21402 0.47043
 O787 O 0.79404 0.27051 0.49933
 O788 O 0.78845 0.26749 0.52915
 O789 O 0.75135 0.29410 0.48108
 O790 O 0.72122 0.28766 0.48460
 O791 O 0.77055 0.25376 0.45588
 O792 O 0.76645 0.22395 0.46069
 Zr793 Zr 0.76967 0.24202 0.47930
 O794 O 0.75554 0.22571 0.49369
 Zr795 Zr 0.74064 0.27071 0.48137
 O796 O 0.72505 0.25539 0.49538
 Zr797 Zr 0.77033 0.26919 0.51018
 O798 O 0.75592 0.25419 0.52574
 Zr799 Zr 0.73038 0.23093 0.49016
 O800 O 0.74440 0.24628 0.47435
 Zr801 Zr 0.75990 0.22977 0.51919
 O802 O 0.77567 0.24472 0.50478
 Zr803 Zr 0.73069 0.25823 0.52082
 O804 O 0.74515 0.27490 0.50690
 O805 O 0.76560 0.26628 0.48496
 O806 O 0.73484 0.23388 0.51553
 C807 C 0.80057 0.26329 0.48673
 C808 C 0.76220 0.26563 0.44972
 C809 C 0.76355 0.30030 0.48918
 C810 C 0.70084 0.23486 0.51423
 C811 C 0.73639 0.20051 0.51241
 C812 C 0.73701 0.23418 0.55003
 H813 H 0.75804 0.21439 0.49039
 H814 H 0.75871 0.25630 0.53755
 H815 H 0.77257 0.27350 0.47807
 H816 H 0.71332 0.25783 0.49296
 H817 H 0.71593 0.23707 0.46214
 H818 H 0.71377 0.26466 0.46503
 H819 H 0.77750 0.23789 0.54503
 H820 H 0.79414 0.25696 0.52751
 H821 H 0.72404 0.20632 0.47080
 H822 H 0.77515 0.22542 0.45210
 H823 H 0.74084 0.27513 0.54615
 H824 H 0.75922 0.29149 0.52970
 H825 H 0.79333 0.22391 0.49040
 H826 H 0.77744 0.20574 0.50799
 H827 H 0.72366 0.29376 0.49496
 H828 H 0.70466 0.27496 0.51261
 O829 O 0.74964 0.70780 0.01926
 O830 O 0.77805 0.71358 0.01685
 O831 O 0.72914 0.74894 0.04370
 O832 O 0.72876 0.77616 0.03997
 O833 O 0.70626 0.72974 0.00008
 O834 O 0.71154 0.73283 -0.02930
 O835 O 0.77155 0.79419 -0.00102
 O836 O 0.76791 0.78889 0.02803
 O837 O 0.79215 0.75532 -0.02364
 O838 O 0.78753 0.72508 -0.02232
 O839 O 0.75062 0.77491 -0.04330
 O840 O 0.72051 0.77260 -0.03760
 O841 O 0.75160 0.79452 -0.02119
 O842 O 0.72035 0.78886 -0.01793
 O843 O 0.77079 0.75562 -0.04434
 O844 O 0.76869 0.72493 -0.03969
 O845 O 0.79205 0.77439 -0.00303
 O846 O 0.78806 0.76704 0.02747
 O847 O 0.72973 0.70813 -0.00100
 O848 O 0.73079 0.71529 -0.03056
 O849 O 0.70610 0.74868 0.02085
 O850 O 0.71206 0.77859 0.01867
 O851 O 0.74898 0.72927 0.04270
 O852 O 0.77889 0.73410 0.03623
 Zr853 Zr 0.75940 0.73154 0.01866
 O854 O 0.77491 0.74645 0.00407
 Zr855 Zr 0.72969 0.75960 0.01984
 O856 O 0.74415 0.77597 0.00579
 Zr857 Zr 0.72994 0.73201 -0.01056
 O858 O 0.74397 0.74727 -0.02623
 Zr859 Zr 0.76937 0.77085 0.00928
 O860 O 0.75497 0.75599 0.02520
 Zr861 Zr 0.76921 0.74342 -0.02132
 O862 O 0.75518 0.72693 -0.00690
 Zr863 Zr 0.73977 0.77170 -0.01969
 O864 O 0.72394 0.75645 -0.00560
 O865 O 0.73434 0.73536 0.01469
 O866 O 0.76476 0.76764 -0.01597
 C867 C 0.73800 0.70115 0.01070
 C868 C 0.73730 0.73704 0.05005
 C869 C 0.69945 0.73710 0.01241
 C870 C 0.76402 0.80071 -0.01345
 C871 C 0.79838 0.76754 -0.01591
 C872 C 0.76300 0.76792 -0.05026
 H873 H 0.78666 0.74408 0.00648
 H874 H 0.74118 0.74514 -0.03804
 H875 H 0.72753 0.72801 0.02163
 H876 H 0.74168 0.78732 0.00896
 H877 H 0.76489 0.78319 0.03849
 H878 H 0.73661 0.78503 0.03737
 H879 H 0.75984 0.72763 -0.04777
 H880 H 0.74172 0.70991 -0.02994
 H881 H 0.79566 0.77650 0.02704
 H882 H 0.77804 0.72517 0.04451
 H883 H 0.72176 0.76307 -0.04501
 H884 H 0.70618 0.74361 -0.02836
 H885 H 0.77789 0.70963 0.00519
 H886 H 0.79529 0.72689 -0.01294
 H887 H 0.70532 0.77670 0.00852
 H888 H 0.72349 0.79702 -0.00942
 O889 O 1.04290 0.22757 0.24905
 O890 O 1.03804 0.23096 0.27789
 O891 O 0.99980 0.20503 0.22999
 O892 O 0.97209 0.20943 0.23110
 O893 O 1.01970 0.24610 0.20543
 O894 O 1.01816 0.27494 0.21019
 O895 O 0.95667 0.25106 0.27327
 O896 O 0.96082 0.22276 0.27038
 O897 O 0.99836 0.27190 0.29255
 O898 O 1.02848 0.26990 0.28658
 O899 O 0.97746 0.29122 0.25044
 O900 O 0.97820 0.28477 0.22037
 O901 O 0.95631 0.27007 0.25253
 O902 O 0.96113 0.26639 0.22110
 O903 O 0.99776 0.29199 0.27016
 O904 O 1.02856 0.28615 0.26723
 O905 O 0.97810 0.25265 0.29359
 O906 O 0.98381 0.22272 0.28975
 O907 O 1.04270 0.24666 0.22831
 O908 O 1.03672 0.27587 0.22898
 O909 O 0.99960 0.22664 0.20643
 O910 O 0.96968 0.22986 0.21346
 O911 O 1.02043 0.20575 0.24943
 O912 O 1.01651 0.21270 0.27962
 Zr913 Zr 1.01919 0.22938 0.25959
 O914 O 1.00520 0.24454 0.27531
 Zr915 Zr 0.98958 0.22855 0.23061
 O916 O 0.97407 0.24323 0.24537
 Zr917 Zr 1.01885 0.25708 0.22915
 O918 O 1.00445 0.27326 0.24340
 Zr919 Zr 0.98001 0.24028 0.27072
 O920 O 0.99395 0.22383 0.25612
 Zr921 Zr 1.00906 0.26901 0.26884
 O922 O 1.02476 0.25397 0.25453
 Zr923 Zr 0.97922 0.26777 0.24019
 O924 O 0.99359 0.25306 0.22408
 O925 O 1.01456 0.23280 0.23435
 O926 O 0.98401 0.26470 0.26542
 C927 C 1.04958 0.23520 0.23679
 C928 C 1.01206 0.19871 0.23786
 C929 C 1.01143 0.23425 0.19911
 C930 C 0.95002 0.26291 0.26530
 C931 C 0.98609 0.26480 0.29962
 C932 C 0.98538 0.29814 0.26236
 H933 H 1.00798 0.24235 0.28712
 H934 H 1.00699 0.28459 0.24018
 H935 H 1.02151 0.22568 0.22735
 H936 H 0.96234 0.24050 0.24330
 H937 H 0.96601 0.21230 0.26724
 H938 H 0.96319 0.21277 0.23881
 H939 H 1.02594 0.29377 0.25804
 H940 H 1.04264 0.27521 0.23978
 H941 H 0.97453 0.22366 0.29776
 H942 H 1.02535 0.20439 0.27873
 H943 H 0.98841 0.29138 0.22083
 H944 H 1.00698 0.27435 0.20516
 H945 H 1.04289 0.24198 0.27694
 H946 H 1.02711 0.26055 0.29423
 H947 H 0.97162 0.23958 0.20643
 H948 H 0.95287 0.25810 0.22440
 O949 O 0.74852 1.04330 0.73007
 O950 O 0.77709 1.03845 0.73308
 O951 O 0.72970 1.00180 0.70496
 O952 O 0.72996 0.97455 0.70844
 O953 O 0.70563 1.01972 0.74859
 O954 O 0.71079 1.01672 0.77796
 O955 O 0.77283 0.95744 0.74998
 O956 O 0.76941 0.96289 0.72091
 O957 O 0.79209 0.99691 0.77316
 O958 O 0.78642 1.02688 0.77226
 O959 O 0.75101 0.97551 0.79194
 O960 O 0.72074 0.97721 0.78591
 O961 O 0.75246 0.95621 0.76962
 O962 O 0.72122 0.96108 0.76621
 O963 O 0.77057 0.99541 0.79352
 O964 O 0.76734 1.02615 0.78930
 O965 O 0.79272 0.97791 0.75248
 O966 O 0.78887 0.98537 0.72199
 O967 O 0.72837 1.04217 0.75000
 O968 O 0.72947 1.03481 0.77958
 O969 O 0.70629 1.00111 0.72753
 O970 O 0.71315 0.97141 0.72940
 O971 O 0.74898 1.02201 0.70649
 O972 O 0.77889 1.01820 0.71349
 Zr973 Zr 0.75906 1.01990 0.73070
 O974 O 0.77482 1.00532 0.74538
 Zr975 Zr 0.73021 0.99095 0.72874
 O976 O 0.74498 0.97490 0.74285
 Zr977 Zr 0.72930 1.01823 0.75943
 O978 O 0.74358 1.00324 0.77518
 Zr979 Zr 0.77008 0.98081 0.73984
 O980 O 0.75544 0.99539 0.72385
 Zr981 Zr 0.76874 1.00793 0.77070
 O982 O 0.75440 1.02413 0.75623
 Zr983 Zr 0.74017 0.97877 0.76831
 O984 O 0.72408 0.99367 0.75412
 O985 O 0.73406 1.01527 0.73421
 O986 O 0.76507 0.98363 0.76503
 C987 C 0.73654 1.04949 0.73846
 C988 C 0.73765 1.01395 0.69885
 C989 C 0.69916 1.01228 0.73609
 C990 C 0.76519 0.95048 0.76207
 C991 C 0.79875 0.98493 0.76544
 C992 C 0.76316 0.98274 0.79911
 H993 H 0.78652 1.00809 0.74317
 H994 H 0.74060 1.00515 0.78697
 H995 H 0.72710 1.02243 0.72722
 H996 H 0.74288 0.96351 0.73952
 H997 H 0.76642 0.96858 0.71044
 H998 H 0.73821 0.96604 0.71097
 H999 H 0.75870 1.02290 0.79737
 H1000 H 0.74019 1.04060 0.77909
 H1001 H 0.79676 0.97615 0.72248
 H1002 H 0.77789 1.02721 0.70531
 H1003 H 0.72196 0.98641 0.79375
 H1004 H 0.70594 1.00569 0.77704
 H1005 H 0.77650 1.04240 0.74472
 H1006 H 0.79417 1.02563 0.76281
 H1007 H 0.70625 0.97295 0.73946
 H1008 H 0.72446 0.95331 0.75739
 O1009 O 0.75050 0.54444 0.22827
 O1010 O 0.77904 0.53920 0.23096
 O1011 O 0.73044 0.50282 0.20461
 O1012 O 0.73011 0.47569 0.20872
 O1013 O 0.70764 0.52212 0.24839
 O1014 O 0.71342 0.51975 0.27768
 O1015 O 0.77343 0.45848 0.24933
 O1016 O 0.76971 0.46353 0.22055
 O1017 O 0.79424 0.49827 0.27137
 O1018 O 0.78912 0.52805 0.27033
 O1019 O 0.75263 0.47825 0.29190
 O1020 O 0.72277 0.47977 0.28626
 O1021 O 0.75360 0.45805 0.26954
 O1022 O 0.72240 0.46362 0.26679
 O1023 O 0.77267 0.49772 0.29267
 O1024 O 0.77041 0.52824 0.28751
 O1025 O 0.79412 0.47896 0.25100
 O1026 O 0.78946 0.48569 0.22059
 O1027 O 0.73073 0.54415 0.24861
 O1028 O 0.73257 0.53750 0.27838
 O1029 O 0.70745 0.50311 0.22770
 O1030 O 0.71378 0.47331 0.23013
 O1031 O 0.75018 0.52265 0.20526
 O1032 O 0.78013 0.51849 0.21179
 Zr1033 Zr 0.76065 0.52091 0.22933
 O1034 O 0.77640 0.50633 0.24400
 Zr1035 Zr 0.73119 0.49250 0.22863
 O1036 O 0.74597 0.47647 0.24274
 Zr1037 Zr 0.73151 0.52044 0.25868
 O1038 O 0.74579 0.50545 0.27442
 Zr1039 Zr 0.77111 0.48182 0.23908
 O1040 O 0.75640 0.49634 0.22309
 Zr1041 Zr 0.77096 0.50951 0.26940
 O1042 O 0.75667 0.52573 0.25486
 Zr1043 Zr 0.74180 0.48089 0.26820
 O1044 O 0.72569 0.49586 0.25407
 O1045 O 0.73565 0.51684 0.23345
 O1046 O 0.76680 0.48511 0.26440
 C1047 C 0.73876 0.55103 0.23668
 C1048 C 0.73853 0.51465 0.19805
 C1049 C 0.70075 0.51458 0.23620
 C1050 C 0.76582 0.45179 0.26159
 C1051 C 0.80067 0.48625 0.26353
 C1052 C 0.76481 0.48559 0.29889
 H1053 H 0.78810 0.50884 0.24146
 H1054 H 0.74305 0.50768 0.28621
 H1055 H 0.72867 0.52395 0.22642
 H1056 H 0.74355 0.46507 0.23966
 H1057 H 0.76643 0.46904 0.21006
 H1058 H 0.73825 0.46707 0.21122
 H1059 H 0.76147 0.52569 0.29551
 H1060 H 0.74332 0.54318 0.27736
 H1061 H 0.79719 0.47635 0.22101
 H1062 H 0.77914 0.52735 0.20344
 H1063 H 0.72358 0.48968 0.29319
 H1064 H 0.70813 0.50890 0.27698
 H1065 H 0.77862 0.54352 0.24247
 H1066 H 0.79618 0.52694 0.26034
 H1067 H 0.70706 0.47526 0.24025
 H1068 H 0.72531 0.45558 0.25811
 O1069 O 0.54362 0.22935 0.74871
 O1070 O 0.53886 0.23272 0.77752
 O1071 O 0.50087 0.20579 0.73001
 O1072 O 0.47313 0.20964 0.73112
 O1073 O 0.51976 0.24729 0.70511
 O1074 O 0.51768 0.27606 0.70981
 O1075 O 0.45697 0.25110 0.77318
 O1076 O 0.46177 0.22285 0.77045
 O1077 O 0.49831 0.27289 0.79224
 O1078 O 0.52844 0.27151 0.78612
 O1079 O 0.47661 0.29150 0.75034
 O1080 O 0.47770 0.28505 0.72007
 O1081 O 0.45607 0.26992 0.75227
 O1082 O 0.46090 0.26641 0.72095
 O1083 O 0.49701 0.29280 0.76993
 O1084 O 0.52802 0.28771 0.76665
 O1085 O 0.47838 0.25332 0.79339
 O1086 O 0.48481 0.22348 0.78978
 O1087 O 0.54290 0.24836 0.72790
 O1088 O 0.53628 0.27742 0.72852
 O1089 O 0.50011 0.22740 0.70630
 O1090 O 0.47019 0.22991 0.71349
 O1091 O 0.52156 0.20701 0.74936
 O1092 O 0.51773 0.21410 0.77953
 Zr1093 Zr 0.51992 0.23068 0.75936
 O1094 O 0.50566 0.24561 0.77508
 Zr1095 Zr 0.49021 0.22912 0.73053
 O1096 O 0.47444 0.24352 0.74528
 Zr1097 Zr 0.51883 0.25827 0.72883
 O1098 O 0.50414 0.27420 0.74306
 Zr1099 Zr 0.48054 0.24081 0.77062
 O1100 O 0.49479 0.22459 0.75604
 Zr1101 Zr 0.50896 0.27013 0.76850
 O1102 O 0.52491 0.25537 0.75419
 Zr1103 Zr 0.47902 0.26815 0.73997
 O1104 O 0.49364 0.25368 0.72388
 O1105 O 0.51512 0.23389 0.73412
 O1106 O 0.48400 0.26526 0.76518
 C1107 C 0.55008 0.23708 0.73639
 C1108 C 0.51323 0.19970 0.73793
 C1109 C 0.51169 0.23527 0.69888
 C1110 C 0.45000 0.26273 0.76512
 C1111 C 0.48613 0.26566 0.79932
 C1112 C 0.48437 0.29858 0.76228
 H1113 H 0.50853 0.24353 0.78689
 H1114 H 0.50640 0.28558 0.73982
 H1115 H 0.52217 0.22688 0.72711
 H1116 H 0.46276 0.24052 0.74327
 H1117 H 0.46720 0.21248 0.76741
 H1118 H 0.46428 0.21273 0.73899
 H1119 H 0.52502 0.29539 0.75764
 H1120 H 0.54225 0.27694 0.73931
 H1121 H 0.47552 0.22427 0.79780
 H1122 H 0.52670 0.20593 0.77861
 H1123 H 0.48748 0.29224 0.72085
 H1124 H 0.50642 0.27537 0.70500
 H1125 H 0.54340 0.24387 0.77656
 H1126 H 0.52732 0.26216 0.79381
 H1127 H 0.47185 0.23965 0.70642
 H1128 H 0.45301 0.25775 0.72414
 O1129 O 0.24875 0.77544 0.45753
 O1130 O 0.22007 0.77287 0.46351
 O1131 O 0.27039 0.79580 0.50049
 O1132 O 0.26980 0.79088 0.52849
 O1133 O 0.29182 0.75448 0.47853
 O1134 O 0.28587 0.72572 0.47971
 O1135 O 0.22716 0.75038 0.54485
 O1136 O 0.23104 0.77883 0.54115
 O1137 O 0.20549 0.73135 0.50327
 O1138 O 0.21011 0.73427 0.47256
 O1139 O 0.24673 0.71020 0.52220
 O1140 O 0.27709 0.71529 0.51979
 O1141 O 0.24690 0.73060 0.54384
 O1142 O 0.27786 0.73309 0.53777
 O1143 O 0.22645 0.71072 0.50244
 O1144 O 0.22865 0.71715 0.47125
 O1145 O 0.20625 0.74987 0.52438
 O1146 O 0.21073 0.77994 0.51893
 O1147 O 0.26842 0.75553 0.45644
 O1148 O 0.26646 0.72614 0.46165
 O1149 O 0.29250 0.77341 0.49933
 O1150 O 0.28667 0.76968 0.52974
 O1151 O 0.25023 0.79644 0.48052
 O1152 O 0.22016 0.79074 0.48575
 Zr1153 Zr 0.23902 0.77328 0.48177
 O1154 O 0.22335 0.75839 0.49619
 Zr1155 Zr 0.26892 0.77216 0.51045
 O1156 O 0.25434 0.75764 0.52634
 Zr1157 Zr 0.26792 0.74436 0.48018
 O1158 O 0.25368 0.72837 0.49487
 Zr1159 Zr 0.22915 0.76175 0.52149
 O1160 O 0.24373 0.77801 0.50721
 Zr1161 Zr 0.22852 0.73382 0.49138
 O1162 O 0.24272 0.74868 0.47532
 Zr1163 Zr 0.25820 0.73308 0.52029
 O1164 O 0.27418 0.74754 0.50552
 O1165 O 0.26398 0.76866 0.48537
 O1166 O 0.23323 0.73734 0.51654
 C1167 C 0.26043 0.76764 0.45020
 C1168 C 0.26252 0.80268 0.48846
 C1169 C 0.29887 0.76594 0.48682
 C1170 C 0.23477 0.73799 0.55086
 C1171 C 0.19951 0.73809 0.51638
 C1172 C 0.23417 0.70409 0.51467
 H1173 H 0.21164 0.76111 0.49397
 H1174 H 0.25619 0.71698 0.49191
 H1175 H 0.27097 0.77564 0.47826
 H1176 H 0.25699 0.75996 0.53816
 H1177 H 0.23430 0.78929 0.53598
 H1178 H 0.26262 0.78747 0.53783
 H1179 H 0.23722 0.70887 0.47356
 H1180 H 0.25562 0.72750 0.45607
 H1181 H 0.20319 0.77897 0.52862
 H1182 H 0.22105 0.79919 0.47695
 H1183 H 0.27532 0.70846 0.50979
 H1184 H 0.29125 0.72578 0.49082
 H1185 H 0.22045 0.76201 0.45822
 H1186 H 0.20286 0.74371 0.47470
 H1187 H 0.29312 0.75975 0.52726
 H1188 H 0.27545 0.74144 0.54629
 O1189 O 0.24855 0.27474 0.95656
 O1190 O 0.22011 0.27266 0.96304
 O1191 O 0.27148 0.29301 1.00010
 O1192 O 0.27210 0.28677 1.02762
 O1193 O 0.29157 0.25170 0.97576
 O1194 O 0.28472 0.22324 0.97566
 O1195 O 0.22858 0.24718 1.04349
 O1196 O 0.23295 0.27543 1.04065
 O1197 O 0.20522 0.23005 1.00174
 O1198 O 0.20907 0.23389 0.97112
 O1199 O 0.24674 0.20692 1.01824
 O1200 O 0.27675 0.21158 1.01598
 O1201 O 0.24755 0.22680 1.04115
 O1202 O 0.27843 0.22869 1.03433
 O1203 O 0.22600 0.20864 0.99906
 O1204 O 0.22701 0.21660 0.96845
 O1205 O 0.20690 0.24794 1.02336
 O1206 O 0.21225 0.27791 1.01900
 O1207 O 0.26761 0.25438 0.95418
 O1208 O 0.26496 0.22496 0.95823
 O1209 O 0.29328 0.26985 0.99719
 O1210 O 0.28800 0.26519 1.02755
 O1211 O 0.25090 0.29492 0.98069
 O1212 O 0.22087 0.28946 0.98599
 Zr1213 Zr 0.23938 0.27189 0.98095
 O1214 O 0.22368 0.25684 0.99517
 Zr1215 Zr 0.26992 0.26890 1.00878
 O1216 O 0.25532 0.25419 1.02445
 Zr1217 Zr 0.26739 0.24237 0.97748
 O1218 O 0.25312 0.22621 0.99191
 Zr1219 Zr 0.23014 0.25911 1.02043
 O1220 O 0.24482 0.27549 1.00643
 Zr1221 Zr 0.22801 0.23233 0.98933
 O1222 O 0.24220 0.24745 0.97349
 Zr1223 Zr 0.25833 0.22978 1.01739
 O1224 O 0.27434 0.24436 1.00276
 O1225 O 0.26433 0.26661 0.98367
 O1226 O 0.23334 0.23471 1.01454
 C1227 C 0.25974 0.26685 0.94858
 C1228 C 0.26330 0.30068 0.98883
 C1229 C 0.29921 0.26251 0.98439
 C1230 C 0.23601 0.23444 1.04888
 C1231 C 0.19960 0.23668 1.01507
 C1232 C 0.23412 0.20120 1.01052
 H1233 H 0.21199 0.25994 0.99336
 H1234 H 0.25532 0.21490 0.98840
 H1235 H 0.27134 0.27376 0.97673
 H1236 H 0.25833 0.25602 1.03627
 H1237 H 0.23641 0.28597 1.03579
 H1238 H 0.26460 0.28351 1.03676
 H1239 H 0.23594 0.20848 0.96969
 H1240 H 0.25405 0.22686 0.95296
 H1241 H 0.20492 0.27686 1.02885
 H1242 H 0.22181 0.29832 0.97763
 H1243 H 0.27521 0.20574 1.00531
 H1244 H 0.29049 0.22274 0.98656
 H1245 H 0.21991 0.26190 0.95752
 H1246 H 0.20226 0.24354 0.97371
 H1247 H 0.29412 0.25521 1.02451
 H1248 H 0.27641 0.23672 1.04327
 C1249 C 0.28541 0.41145 0.78196
 C1250 C 0.28230 0.39534 0.77662
 C1251 C 0.29044 0.38213 0.78459
 C1252 C 0.30168 0.38512 0.79783
 C1253 C 0.30494 0.40126 0.80304
 C1254 C 0.29671 0.41446 0.79515
 C1255 C 0.30019 0.43050 0.80057
 C1256 C 0.31168 0.43340 0.81320
 C1257 C 0.31972 0.42050 0.82091
 C1258 C 0.31640 0.40458 0.81598
 C1259 C 0.28711 0.36612 0.77904
 C1260 C 0.27607 0.36325 0.76599
 C1261 C 0.26812 0.37618 0.75820
 C1262 C 0.27115 0.39207 0.76341
 C1263 C 0.30965 0.37156 0.80619
 C1264 C 0.31597 0.36009 0.81306
 C1265 C 0.27718 0.42500 0.77386
 C1266 C 0.27083 0.43681 0.76769
 H1267 H 0.29432 0.44097 0.79494
 H1268 H 0.31450 0.44574 0.81687
 H1269 H 0.32865 0.42285 0.83070
 H1270 H 0.32301 0.39493 0.82230
 H1271 H 0.29299 0.35566 0.78468
 H1272 H 0.27367 0.35093 0.76190
 H1273 H 0.25956 0.37389 0.74807
 H1274 H 0.26467 0.40173 0.75698
 C1275 C 0.28813 -0.08831 0.28426
 C1276 C 0.28476 -0.10472 0.28021
 C1277 C 0.29301 -0.11741 0.28891
 C1278 C 0.30461 -0.11360 0.30160
 C1279 C 0.30811 -0.09717 0.30554
 C1280 C 0.29981 -0.08449 0.29687
 C1281 C 0.30345 -0.06816 0.30112
 C1282 C 0.31498 -0.06450 0.31350
 C1283 C 0.32312 -0.07690 0.32193
 C1284 C 0.31976 -0.09308 0.31806
 C1285 C 0.28940 -0.13374 0.28466
 C1286 C 0.27798 -0.13742 0.27218
 C1287 C 0.26991 -0.12500 0.26368
 C1288 C 0.27321 -0.10881 0.26760
 C1289 C 0.31279 -0.12662 0.31062
 C1290 C 0.31930 -0.13773 0.31792
 C1291 C 0.27953 -0.07532 0.27559
 C1292 C 0.27278 -0.06396 0.26897
 H1293 H 0.29747 -0.05805 0.29492
 H1294 H 0.31762 -0.05195 0.31659
 H1295 H 0.33207 -0.07396 0.33153
 H1296 H 0.32639 -0.10232 0.32497
 H1297 H 0.29536 -0.14383 0.29091
 H1298 H 0.27537 -0.14998 0.26909
 H1299 H 0.26104 -0.12792 0.25399
 H1300 H 0.26663 -0.09957 0.26064
 C1301 C 0.78798 0.91226 0.78485
 C1302 C 0.80496 0.90941 0.78166
 C1303 C 0.81371 0.89759 0.79113
 C1304 C 0.80541 0.88864 0.80368
 C1305 C 0.78865 0.89201 0.80739
 C1306 C 0.77990 0.90383 0.79792
 C1307 C 0.76320 0.90712 0.80198
 C1308 C 0.75540 0.89900 0.81505
 C1309 C 0.76396 0.88747 0.82433
 C1310 C 0.78039 0.88393 0.82057
 C1311 C 0.83078 0.89529 0.78807
 C1312 C 0.83903 0.90456 0.77613
 C1313 C 0.83049 0.91611 0.76685
 C1314 C 0.81362 0.91849 0.76945
 C1315 C 0.81396 0.87574 0.81253
 C1316 C 0.82073 0.86469 0.81969
 C1317 C 0.77926 0.92486 0.77572
 C1318 C 0.77242 0.93604 0.76887
 H1319 H 0.75603 0.91602 0.79515
 H1320 H 0.74265 0.90172 0.81803
 H1321 H 0.75787 0.88126 0.83453
 H1322 H 0.78656 0.87491 0.82820
 H1323 H 0.83797 0.88652 0.79505
 H1324 H 0.85214 0.90279 0.77410
 H1325 H 0.83696 0.92331 0.75762
 H1326 H 0.80753 0.92767 0.76197
 C1327 C 0.46027 0.83625 0.28702
 C1328 C 0.46793 0.84449 0.30048
 C1329 C 0.45877 0.85594 0.30998
 C1330 C 0.44204 0.85913 0.30591
 C1331 C 0.43415 0.85030 0.29300
 C1332 C 0.44331 0.83885 0.28348
 C1333 C 0.43506 0.82989 0.27088
 C1334 C 0.41821 0.83202 0.26793
 C1335 C 0.40927 0.84321 0.27725
 C1336 C 0.41711 0.85236 0.28958
 C1337 C 0.46662 0.86387 0.32353
 C1338 C 0.48304 0.86056 0.32759
 C1339 C 0.49201 0.84940 0.31826
 C1340 C 0.48461 0.84142 0.30486
 C1341 C 0.43316 0.87183 0.31468
 C1342 C 0.42621 0.88279 0.32176
 C1343 C 0.46943 0.82406 0.27779
 C1344 C 0.47659 0.81317 0.27083
 H1345 H 0.44147 0.82099 0.26335
 H1346 H 0.41205 0.82491 0.25841
 H1347 H 0.39617 0.84478 0.27496
 H1348 H 0.40962 0.86083 0.29659
 H1349 H 0.46012 0.87258 0.33121
 H1350 H 0.48882 0.86667 0.33804
 H1351 H 0.50476 0.84687 0.32147
 H1352 H 0.49207 0.83278 0.29803
 C1353 C -0.03887 0.83752 0.78581
 C1354 C -0.05093 0.83337 0.79792
 C1355 C -0.05943 0.84583 0.80667
 C1356 C -0.05580 0.86235 0.80330
 C1357 C -0.04382 0.86648 0.79113
 C1358 C -0.03533 0.85402 0.78236
 C1359 C -0.02342 0.85844 0.77026
 C1360 C -0.01996 0.87472 0.76691
 C1361 C -0.02825 0.88692 0.77549
 C1362 C -0.04005 0.88292 0.78748
 C1363 C -0.07146 0.84142 0.81867
 C1364 C -0.07499 0.82515 0.82195
 C1365 C -0.06665 0.81297 0.81344
 C1366 C -0.05474 0.81694 0.80156
 C1367 C -0.06428 0.87512 0.81236
 C1368 C -0.07110 0.88599 0.81970
 C1369 C -0.03009 0.82474 0.77704
 C1370 C -0.02325 0.81350 0.77033
 H1371 H -0.01666 0.84938 0.76325
 H1372 H -0.01081 0.87789 0.75761
 H1373 H -0.02553 0.89955 0.77285
 H1374 H -0.04617 0.89285 0.79380
 H1375 H -0.07826 0.85048 0.82563
 H1376 H -0.08423 0.82197 0.83115
 H1377 H -0.06942 0.80034 0.81606
 H1378 H -0.04861 0.80699 0.79529
 C1379 C -0.03830 -0.08699 -0.03757
 C1380 C -0.05518 -0.08978 -0.03381
 C1381 C -0.06448 -0.10110 -0.04341
 C1382 C -0.05683 -0.10961 -0.05665
 C1383 C -0.04019 -0.10624 -0.06092
 C1384 C -0.03088 -0.09492 -0.05133
 C1385 C -0.01434 -0.09158 -0.05598
 C1386 C -0.00722 -0.09916 -0.06975
 C1387 C -0.01633 -0.11020 -0.07915
 C1388 C -0.03261 -0.11379 -0.07481
 C1389 C -0.08145 -0.10334 -0.03975
 C1390 C -0.08907 -0.09449 -0.02710
 C1391 C -0.07999 -0.08343 -0.01770
 C1392 C -0.06321 -0.08112 -0.02090
 C1393 C -0.06593 -0.12206 -0.06565
 C1394 C -0.07323 -0.13276 -0.07286
 C1395 C -0.02906 -0.07482 -0.02831
 C1396 C -0.02195 -0.06392 -0.02127
 H1397 H -0.00677 -0.08304 -0.04910
 H1398 H 0.00542 -0.09640 -0.07318
 H1399 H -0.01077 -0.11599 -0.08988
 H1400 H -0.03923 -0.12239 -0.08256
 H1401 H -0.08905 -0.11172 -0.04680
 H1402 H -0.10211 -0.09621 -0.02460
 H1403 H -0.08598 -0.07655 -0.00792
 H1404 H -0.05669 -0.07232 -0.01330
 C1405 C -0.03323 0.40899 0.47088
 C1406 C -0.05016 0.40975 0.46630
 C1407 C -0.05761 0.39650 0.45774
 C1408 C -0.04818 0.38247 0.45405
 C1409 C -0.03131 0.38165 0.45878
 C1410 C -0.02381 0.39496 0.46720
 C1411 C -0.00692 0.39393 0.47170
 C1412 C 0.00232 0.38011 0.46800
 C1413 C -0.00500 0.36707 0.45978
 C1414 C -0.02162 0.36776 0.45519
 C1415 C -0.07444 0.39768 0.45297
 C1416 C -0.08369 0.41148 0.45673
 C1417 C -0.07647 0.42432 0.46531
 C1418 C -0.05988 0.42360 0.46997
 C1419 C -0.05589 0.36880 0.44562
 C1420 C -0.06233 0.35738 0.43879
 C1421 C -0.02538 0.42311 0.47830
 C1422 C -0.01945 0.43548 0.48371
 H1423 H -0.00070 0.40375 0.47815
 H1424 H 0.01523 0.37951 0.47154
 H1425 H 0.00223 0.35636 0.45693
 H1426 H -0.02676 0.35733 0.44879
 H1427 H -0.08062 0.38797 0.44631
 H1428 H -0.09656 0.41217 0.45304
 H1429 H -0.08377 0.43488 0.46844
 H1430 H -0.05483 0.43396 0.47657
 C1431 C 0.46260 -0.08889 0.46501
 C1432 C 0.44865 -0.09638 0.47242
 C1433 C 0.43942 -0.10814 0.46334
 C1434 C 0.44424 -0.11239 0.44694
 C1435 C 0.45770 -0.10435 0.43925
 C1436 C 0.46695 -0.09259 0.44832
 C1437 C 0.48013 -0.08444 0.44023
 C1438 C 0.48394 -0.08768 0.42361
 C1439 C 0.47489 -0.09919 0.41475
 C1440 C 0.46197 -0.10753 0.42244
 C1441 C 0.42535 -0.11526 0.47089
 C1442 C 0.42051 -0.11084 0.48694
 C1443 C 0.42956 -0.09937 0.49583
 C1444 C 0.44348 -0.09218 0.48872
 C1445 C 0.43562 -0.12530 0.43816
 C1446 C 0.42874 -0.13634 0.43109
 C1447 C 0.47153 -0.07628 0.47394
 C1448 C 0.47842 -0.06506 0.48067
 H1449 H 0.48749 -0.07534 0.44658
 H1450 H 0.49394 -0.08121 0.41757
 H1451 H 0.47788 -0.10164 0.40183
 H1452 H 0.45522 -0.11629 0.41500
 H1453 H 0.41786 -0.12418 0.46443
 H1454 H 0.40965 -0.11632 0.49249
 H1455 H 0.42574 -0.09596 0.50828
 H1456 H 0.45008 -0.08326 0.49610
 C1457 C 0.46422 0.41005 -0.03133
 C1458 C 0.47366 0.39903 -0.04094
 C1459 C 0.46568 0.38605 -0.04945
 C1460 C 0.44830 0.38421 -0.04835
 C1461 C 0.43884 0.39530 -0.03883
 C1462 C 0.44685 0.40815 -0.03013
 C1463 C 0.43716 0.41896 -0.02050
 C1464 C 0.42004 0.41725 -0.01970
 C1465 C 0.41218 0.40486 -0.02843
 C1466 C 0.42142 0.39393 -0.03786
 C1467 C 0.47539 0.37519 -0.05902
 C1468 C 0.49247 0.37714 -0.06016
 C1469 C 0.50026 0.38986 -0.05186
 C1470 C 0.49103 0.40071 -0.04234
 C1471 C 0.44024 0.37073 -0.05675
 C1472 C 0.43379 0.35934 -0.06362
 C1473 C 0.47217 0.42399 -0.02367
 C1474 C 0.47836 0.43610 -0.01798
 H1475 H 0.44269 0.42886 -0.01356
 H1476 H 0.41283 0.42558 -0.01225
 H1477 H 0.39885 0.40367 -0.02783
 H1478 H 0.41476 0.38445 -0.04440
 H1479 H 0.46989 0.36514 -0.06575
 H1480 H 0.49970 0.36874 -0.06755
 H1481 H 0.51353 0.39132 -0.05279
 H1482 H 0.49765 0.41039 -0.03606
 C1483 C 0.78420 0.34108 0.46916
 C1484 C 0.79606 0.33801 0.45654
 C1485 C 0.80408 0.35122 0.44843
 C1486 C 0.80013 0.36740 0.45292
 C1487 C 0.78829 0.37045 0.46555
 C1488 C 0.78031 0.35724 0.47369
 C1489 C 0.76853 0.36057 0.48627
 C1490 C 0.76472 0.37651 0.49068
 C1491 C 0.77251 0.38944 0.48272
 C1492 C 0.78417 0.38651 0.47029
 C1493 C 0.81593 0.34785 0.43591
 C1494 C 0.81973 0.33190 0.43151
 C1495 C 0.81187 0.31899 0.43939
 C1496 C 0.80016 0.32193 0.45176
 C1497 C 0.80815 0.38094 0.44454
 C1498 C 0.81462 0.39238 0.43775
 C1499 C 0.77604 0.32751 0.47732
 C1500 C 0.76982 0.31557 0.48337
 H1501 H 0.76215 0.35090 0.49280
 H1502 H 0.75568 0.37885 0.50033
 H1503 H 0.76951 0.40181 0.48620
 H1504 H 0.78989 0.39698 0.46448
 H1505 H 0.82236 0.35750 0.42941
 H1506 H 0.82881 0.32955 0.42191
 H1507 H 0.81485 0.30661 0.43592
 H1508 H 0.79440 0.31146 0.45752
 C1509 C 0.78753 0.83820 -0.03663
 C1510 C 0.78007 0.84626 -0.05032
 C1511 C 0.78939 0.85757 -0.05989
 C1512 C 0.80608 0.86079 -0.05566
 C1513 C 0.81377 0.85214 -0.04249
 C1514 C 0.80446 0.84083 -0.03292
 C1515 C 0.81252 0.83203 -0.02008
 C1516 C 0.82934 0.83421 -0.01693
 C1517 C 0.83843 0.84526 -0.02630
 C1518 C 0.83079 0.85423 -0.03889
 C1519 C 0.78176 0.86526 -0.07371
 C1520 C 0.76542 0.86182 -0.07799
 C1521 C 0.75630 0.85079 -0.06861
 C1522 C 0.76346 0.84308 -0.05491
 C1523 C 0.81519 0.87322 -0.06464
 C1524 C 0.82238 0.88393 -0.07191
 C1525 C 0.77830 0.82602 -0.02743
 C1526 C 0.77123 0.81506 -0.02045
 H1527 H 0.80600 0.82322 -0.01250
 H1528 H 0.83534 0.82723 -0.00719
 H1529 H 0.85150 0.84687 -0.02384
 H1530 H 0.83840 0.86260 -0.04594
 H1531 H 0.78839 0.87386 -0.08145
 H1532 H 0.75982 0.86773 -0.08867
 H1533 H 0.74361 0.84815 -0.07200
 H1534 H 0.75588 0.83455 -0.04803
 C1535 C 0.78106 0.28706 0.40798
 C1536 C 0.78916 0.27799 0.39542
 C1537 C 0.79782 0.28619 0.38248
 C1538 C 0.79836 0.30340 0.38220
 C1539 C 0.79014 0.31248 0.39469
 C1540 C 0.78136 0.30428 0.40755
 C1541 C 0.77313 0.31361 0.41983
 C1542 C 0.77366 0.33055 0.41948
 C1543 C 0.78239 0.33856 0.40701
 C1544 C 0.79054 0.32969 0.39471
 C1545 C 0.80590 0.27685 0.37010
 C1546 C 0.80543 0.25992 0.37050
 C1547 C 0.79697 0.25191 0.38316
 C1548 C 0.78890 0.26078 0.39552
 C1549 C 0.80724 0.31172 0.36897
 C1550 C 0.81455 0.31841 0.35781
 C1551 C 0.77342 0.27874 0.42197
 C1552 C 0.76778 0.27230 0.43421
 H1553 H 0.76625 0.30795 0.42984
 H1554 H 0.76738 0.33749 0.42903
 H1555 H 0.78289 0.35171 0.40688
 H1556 H 0.79717 0.33646 0.38525
 H1557 H 0.81266 0.28252 0.36000
 H1558 H 0.81168 0.25297 0.36093
 H1559 H 0.79664 0.23875 0.38342
 H1560 H 0.78244 0.25401 0.40509
 C1561 C 0.78540 0.79106 -0.08913
 C1562 C 0.77789 0.80437 -0.09739
 C1563 C 0.78696 0.81336 -0.10947
 C1564 C 0.80347 0.80897 -0.11322
 C1565 C 0.81123 0.79618 -0.10437
 C1566 C 0.80216 0.78715 -0.09233
 C1567 C 0.81029 0.77462 -0.08340
 C1568 C 0.82697 0.77129 -0.08609
 C1569 C 0.83583 0.78013 -0.09786
 C1570 C 0.82809 0.79236 -0.10702
 C1571 C 0.77927 0.82674 -0.11743
 C1572 C 0.76311 0.83117 -0.11349
 C1573 C 0.75424 0.82238 -0.10169
 C1574 C 0.76148 0.80911 -0.09370
 C1575 C 0.81232 0.81735 -0.12642
 C1576 C 0.81949 0.82400 -0.13771
 C1577 C 0.77642 0.78227 -0.07631
 C1578 C 0.76968 0.77535 -0.06493
 H1579 H 0.80395 0.76743 -0.07408
 H1580 H 0.83305 0.76183 -0.07898
 H1581 H 0.84879 0.77752 -0.09988
 H1582 H 0.83552 0.79896 -0.11598
 H1583 H 0.78570 0.83400 -0.12663
 H1584 H 0.75744 0.84150 -0.11962
 H1585 H 0.74171 0.82588 -0.09866
 H1586 H 0.75411 0.80267 -0.08457
 C1587 C 0.28467 0.46382 0.83970
 C1588 C 0.27559 0.45286 0.84978
 C1589 C 0.28363 0.44437 0.86295
 C1590 C 0.30072 0.44684 0.86589
 C1591 C 0.30988 0.45752 0.85557
 C1592 C 0.30179 0.46618 0.84255
 C1593 C 0.31117 0.47696 0.83254
 C1594 C 0.32807 0.47899 0.83520
 C1595 C 0.33604 0.47035 0.84775
 C1596 C 0.32710 0.45976 0.85791
 C1597 C 0.27429 0.43350 0.87289
 C1598 C 0.25749 0.43106 0.86988
 C1599 C 0.24963 0.43934 0.85699
 C1600 C 0.25851 0.45014 0.84702
 C1601 C 0.30874 0.43883 0.87987
 C1602 C 0.31530 0.43246 0.89170
 C1603 C 0.27665 0.47202 0.82585
 C1604 C 0.27051 0.47844 0.81382
 H1605 H 0.30557 0.48390 0.82254
 H1606 H 0.33502 0.48733 0.82749
 H1607 H 0.34920 0.47191 0.84969
 H1608 H 0.33382 0.45333 0.86755
 H1609 H 0.27986 0.42674 0.88303
 H1610 H 0.25053 0.42268 0.87759
 H1611 H 0.23658 0.43740 0.85470
 H1612 H 0.25186 0.45632 0.83715
 C1613 C 0.28802 -0.04078 0.33689
 C1614 C 0.30131 -0.03321 0.34540
 C1615 C 0.31078 -0.04220 0.35716
 C1616 C 0.30686 -0.05869 0.36038
 C1617 C 0.29408 -0.06647 0.35131
 C1618 C 0.28458 -0.05748 0.33956
 C1619 C 0.27210 -0.06560 0.33037
 C1620 C 0.26923 -0.08218 0.33257
 C1621 C 0.27852 -0.09097 0.34406
 C1622 C 0.29075 -0.08324 0.35344
 C1623 C 0.32415 -0.03444 0.36536
 C1624 C 0.32806 -0.01826 0.36201
 C1625 C 0.31876 -0.00945 0.35055
 C1626 C 0.30553 -0.01677 0.34230
 C1627 C 0.31561 -0.06743 0.37342
 C1628 C 0.32261 -0.07432 0.38467
 C1629 C 0.27882 -0.03178 0.32436
 C1630 C 0.27187 -0.02466 0.31324
 H1631 H 0.26460 -0.05931 0.32122
 H1632 H 0.25978 -0.08824 0.32529
 H1633 H 0.27628 -0.10385 0.34569
 H1634 H 0.29774 -0.09060 0.36214
 H1635 H 0.33179 -0.04081 0.37432
 H1636 H 0.33839 -0.01254 0.36832
 H1637 H 0.32186 0.00311 0.34798
 H1638 H 0.29871 -0.00943 0.33345
 C1639 C -0.03632 -0.03913 -0.08912
 C1640 C -0.05317 -0.03548 -0.09218
 C1641 C -0.06227 -0.04472 -0.10404
 C1642 C -0.05443 -0.05746 -0.11285
 C1643 C -0.03779 -0.06155 -0.10928
 C1644 C -0.02870 -0.05235 -0.09738
 C1645 C -0.01215 -0.05678 -0.09387
 C1646 C -0.00479 -0.06995 -0.10187
 C1647 C -0.01369 -0.07897 -0.11349
 C1648 C -0.02999 -0.07485 -0.11723
 C1649 C -0.07923 -0.04120 -0.10652
 C1650 C -0.08703 -0.02902 -0.09739
 C1651 C -0.07814 -0.01996 -0.08581
 C1652 C -0.06138 -0.02302 -0.08326
 C1653 C -0.06331 -0.06604 -0.12590
 C1654 C -0.07050 -0.07283 -0.13709
 C1655 C -0.02734 -0.03025 -0.07636
 C1656 C -0.02054 -0.02337 -0.06500
 H1657 H -0.00474 -0.05016 -0.08489
 H1658 H 0.00786 -0.07321 -0.09899
 H1659 H -0.00794 -0.08923 -0.11961
 H1660 H -0.03644 -0.08228 -0.12629
 H1661 H -0.08669 -0.04800 -0.11531
 H1662 H -0.10006 -0.02662 -0.09929
 H1663 H -0.08427 -0.01053 -0.07872
 H1664 H -0.05502 -0.01569 -0.07405
 C1665 C -0.03006 0.46461 0.40682
 C1666 C -0.03368 0.47327 0.39200
 C1667 C -0.04197 0.46533 0.37863
 C1668 C -0.04662 0.44879 0.38019
 C1669 C -0.04295 0.44011 0.39500
 C1670 C -0.03454 0.44801 0.40831
 C1671 C -0.03097 0.43906 0.42298
 C1672 C -0.03557 0.42279 0.42444
 C1673 C -0.04395 0.41511 0.41151
 C1674 C -0.04762 0.42361 0.39691
 C1675 C -0.04552 0.47427 0.36395
 C1676 C -0.04102 0.49057 0.36252
 C1677 C -0.03293 0.49833 0.37561
 C1678 C -0.02927 0.48984 0.39021
 C1679 C -0.05509 0.44071 0.36652
 C1680 C -0.06205 0.43409 0.35506
 C1681 C -0.02269 0.47294 0.42096
 C1682 C -0.01724 0.47933 0.43334
 H1683 H -0.02452 0.44448 0.43344
 H1684 H -0.03256 0.41608 0.43564
 H1685 H -0.04757 0.40249 0.41276
 H1686 H -0.05413 0.41711 0.38717
 H1687 H -0.05182 0.46878 0.35344
 H1688 H -0.04383 0.49722 0.35121
 H1689 H -0.02946 0.51100 0.37444
 H1690 H -0.02294 0.49638 0.40005
 C1691 C 0.46287 -0.04181 0.41282
 C1692 C 0.46587 -0.03879 0.39571
 C1693 C 0.45684 -0.04747 0.38337
 C1694 C 0.44486 -0.05914 0.38821
 C1695 C 0.44190 -0.06222 0.40532
 C1696 C 0.45091 -0.05351 0.41768
 C1697 C 0.44760 -0.05669 0.43471
 C1698 C 0.43574 -0.06812 0.43938
 C1699 C 0.42703 -0.07671 0.42731
 C1700 C 0.43003 -0.07385 0.41045
 C1701 C 0.46005 -0.04421 0.36632
 C1702 C 0.47182 -0.03271 0.36163
 C1703 C 0.48065 -0.02422 0.37371
 C1704 C 0.47776 -0.02718 0.39058
 C1705 C 0.43554 -0.06781 0.37553
 C1706 C 0.42803 -0.07474 0.36465
 C1707 C 0.47188 -0.03279 0.42547
 C1708 C 0.47883 -0.02564 0.43658
 H1709 H 0.45407 -0.05036 0.44460
 H1710 H 0.43327 -0.07030 0.45246
 H1711 H 0.41786 -0.08560 0.43104
 H1712 H 0.42290 -0.08080 0.40150
 H1713 H 0.45351 -0.05050 0.35645
 H1714 H 0.47411 -0.03037 0.34854
 H1715 H 0.48978 -0.01529 0.37000
 H1716 H 0.48493 -0.02028 0.39953
 C1717 C 0.46438 0.46119 -0.09002
 C1718 C 0.45224 0.44930 -0.08624
 C1719 C 0.44374 0.44119 -0.09937
 C1720 C 0.44754 0.44490 -0.11619
 C1721 C 0.45973 0.45673 -0.11995
 C1722 C 0.46816 0.46491 -0.10683
 C1723 C 0.48024 0.47673 -0.11089
 C1724 C 0.48390 0.48037 -0.12747
 C1725 C 0.47567 0.47237 -0.14031
 C1726 C 0.46372 0.46068 -0.13667
 C1727 C 0.43147 0.42955 -0.09529
 C1728 C 0.42761 0.42611 -0.07872
 C1729 C 0.43590 0.43406 -0.06590
 C1730 C 0.44817 0.44542 -0.06952
 C1731 C 0.43893 0.43662 -0.12965
 C1732 C 0.43197 0.42995 -0.14108
 C1733 C 0.47272 0.46973 -0.07656
 C1734 C 0.47912 0.47650 -0.06488
 H1735 H 0.48697 0.48327 -0.10133
 H1736 H 0.49317 0.48945 -0.13036
 H1737 H 0.47856 0.47524 -0.15316
 H1738 H 0.45766 0.45480 -0.14710
 H1739 H 0.42465 0.42310 -0.10485
 H1740 H 0.41808 0.41731 -0.07580
 H1741 H 0.43266 0.43156 -0.05308
 H1742 H 0.45422 0.45129 -0.05908
 C1743 C 0.46228 0.78962 0.33870
 C1744 C 0.44553 0.78579 0.34207
 C1745 C 0.43659 0.79500 0.35403
 C1746 C 0.44450 0.80786 0.36266
 C1747 C 0.46097 0.81220 0.35868
 C1748 C 0.46990 0.80304 0.34667
 C1749 C 0.48632 0.80768 0.34280
 C1750 C 0.49369 0.82101 0.35057
 C1751 C 0.48494 0.82998 0.36229
 C1752 C 0.46878 0.82567 0.36637
 C1753 C 0.41973 0.79127 0.35686
 C1754 C 0.41186 0.77894 0.34795
 C1755 C 0.42060 0.76992 0.33626
 C1756 C 0.43727 0.77317 0.33338
 C1757 C 0.43592 0.81621 0.37604
 C1758 C 0.42906 0.82281 0.38753
 C1759 C 0.47122 0.78055 0.32608
 C1760 C 0.47808 0.77350 0.31490
 H1761 H 0.49359 0.80113 0.33370
 H1762 H 0.50624 0.82442 0.34743
 H1763 H 0.49070 0.84037 0.36823
 H1764 H 0.46244 0.83308 0.37549
 H1765 H 0.41239 0.79803 0.36574
 H1766 H 0.39891 0.77638 0.35011
 H1767 H 0.41442 0.76037 0.32934
 H1768 H 0.44351 0.76587 0.32410
 C1769 C -0.03969 0.79086 0.83710
 C1770 C -0.05348 0.78390 0.84533
 C1771 C -0.06276 0.79335 0.85682
 C1772 C -0.05815 0.80966 0.86006
 C1773 C -0.04492 0.81687 0.85119
 C1774 C -0.03563 0.80743 0.83970
 C1775 C -0.02268 0.81500 0.83069
 C1776 C -0.01917 0.83146 0.83282
 C1777 C -0.02827 0.84068 0.84405
 C1778 C -0.04094 0.83351 0.85325
 C1779 C -0.07665 0.78623 0.86471
 C1780 C -0.08127 0.77024 0.86128
 C1781 C -0.07217 0.76099 0.85009
 C1782 C -0.05841 0.76767 0.84217
 C1783 C -0.06670 0.81881 0.87289
 C1784 C -0.07357 0.82602 0.88397
 C1785 C -0.03063 0.78143 0.82487
 C1786 C -0.02368 0.77408 0.81395
 H1787 H -0.01530 0.80835 0.82176
 H1788 H -0.00936 0.83710 0.82568
 H1789 H -0.02552 0.85348 0.84563
 H1790 H -0.04776 0.84120 0.86175
 H1791 H -0.08417 0.79297 0.87345
 H1792 H -0.09200 0.76502 0.86734
 H1793 H -0.07581 0.74858 0.84747
 H1794 H -0.05177 0.76001 0.83350
 C1795 C 0.41108 0.78735 0.28764
 C1796 C 0.39436 0.78394 0.28380
 C1797 C 0.38154 0.79248 0.29213
 C1798 C 0.38553 0.80437 0.30428
 C1799 C 0.40226 0.80778 0.30814
 C1800 C 0.41509 0.79926 0.29977
 C1801 C 0.43174 0.80295 0.30378
 C1802 C 0.43557 0.81471 0.31570
 C1803 C 0.42304 0.82297 0.32392
 C1804 C 0.40654 0.81961 0.32023
 C1805 C 0.36488 0.78886 0.28806
 C1806 C 0.36103 0.77715 0.27611
 C1807 C 0.37358 0.76881 0.26796
 C1808 C 0.39007 0.77211 0.27171
 C1809 C 0.37235 0.81309 0.31267
 C1810 C 0.36106 0.82011 0.31932
 C1811 C 0.42421 0.77867 0.27913
 C1812 C 0.43563 0.77188 0.27247
 H1813 H 0.44196 0.79685 0.29776
 H1814 H 0.44837 0.81742 0.31856
 H1815 H 0.42611 0.83207 0.33318
 H1816 H 0.39721 0.82638 0.32692
 H1817 H 0.35468 0.79501 0.29405
 H1818 H 0.34823 0.77454 0.27315
 H1819 H 0.37052 0.75972 0.25868
 H1820 H 0.39941 0.76531 0.26504
 C1821 C -0.08956 0.78808 0.78730
 C1822 C -0.09241 0.80458 0.78309
 C1823 C -0.10422 0.81379 0.79217
 C1824 C -0.11323 0.80641 0.80528
 C1825 C -0.10988 0.79013 0.80995
 C1826 C -0.09802 0.78093 0.80091
 C1827 C -0.09476 0.76474 0.80591
 C1828 C -0.10295 0.75784 0.81947
 C1829 C -0.11451 0.76685 0.82833
 C1830 C -0.11802 0.78280 0.82365
 C1831 C -0.10648 0.83039 0.78811
 C1832 C -0.09719 0.83774 0.77556
 C1833 C -0.08567 0.82874 0.76665
 C1834 C -0.08333 0.81232 0.77024
 C1835 C -0.12624 0.81538 0.81367
 C1836 C -0.13739 0.82254 0.82040
 C1837 C -0.07687 0.77896 0.77859
 C1838 C -0.06561 0.77193 0.77193
 H1839 H -0.08583 0.75726 0.79945
 H1840 H -0.10026 0.74545 0.82316
 H1841 H -0.12078 0.76146 0.83890
 H1842 H -0.12705 0.78935 0.83098
 H1843 H -0.11522 0.83792 0.79477
 H1844 H -0.09892 0.85051 0.77275
 H1845 H -0.07846 0.83451 0.75693
 H1846 H -0.07416 0.80585 0.76302
 C1847 C 0.84286 0.28367 0.46859
 C1848 C 0.85523 0.27459 0.46032
 C1849 C 0.86863 0.28276 0.45247
 C1850 C 0.86953 0.29996 0.45289
 C1851 C 0.85716 0.30904 0.46118
 C1852 C 0.84386 0.30087 0.46919
 C1853 C 0.83176 0.31020 0.47759
 C1854 C 0.83269 0.32712 0.47795
 C1855 C 0.84556 0.33512 0.46991
 C1856 C 0.85772 0.32624 0.46163
 C1857 C 0.88084 0.27342 0.44425
 C1858 C 0.87983 0.25650 0.44378
 C1859 C 0.86671 0.24853 0.45145
 C1860 C 0.85451 0.25741 0.45964
 C1861 C 0.88327 0.30825 0.44494
 C1862 C 0.89483 0.31496 0.43840
 C1863 C 0.82860 0.27548 0.47567
 C1864 C 0.81619 0.26934 0.48107
 H1865 H 0.82143 0.30456 0.48393
 H1866 H 0.82328 0.33407 0.48436
 H1867 H 0.84614 0.34827 0.47008
 H1868 H 0.86751 0.33301 0.45560
 H1869 H 0.89126 0.27906 0.43807
 H1870 H 0.88927 0.24955 0.43743
 H1871 H 0.86598 0.23539 0.45105
 H1872 H 0.84457 0.25067 0.46546
 C1873 C 0.83609 0.79161 -0.03903
 C1874 C 0.85303 0.78896 -0.03558
 C1875 C 0.86527 0.79800 -0.04429
 C1876 C 0.86049 0.80962 -0.05644
 C1877 C 0.84354 0.81225 -0.05993
 C1878 C 0.83130 0.80325 -0.05117
 C1879 C 0.81442 0.80619 -0.05480
 C1880 C 0.80981 0.81764 -0.06676
 C1881 C 0.82178 0.82634 -0.07540
 C1882 C 0.83848 0.82374 -0.07206
 C1883 C 0.88216 0.79514 -0.04060
 C1884 C 0.88679 0.78369 -0.02866
 C1885 C 0.87481 0.77484 -0.02016
 C1886 C 0.85810 0.77740 -0.02353
 C1887 C 0.87309 0.81874 -0.06534
 C1888 C 0.88395 0.82596 -0.07251
 C1889 C 0.82355 0.78239 -0.03016
 C1890 C 0.81257 0.77516 -0.02321
 H1891 H 0.80462 0.79974 -0.04843
 H1892 H 0.79685 0.81978 -0.06932
 H1893 H 0.81810 0.83521 -0.08468
 H1894 H 0.84736 0.83085 -0.07905
 H1895 H 0.89195 0.80170 -0.04687
 H1896 H 0.89976 0.78166 -0.02599
 H1897 H 0.87848 0.76595 -0.01090
 H1898 H 0.84924 0.77022 -0.01660
 C1899 C -0.08683 -0.03947 -0.03912
 C1900 C -0.10374 -0.03656 -0.03578
 C1901 C -0.11610 -0.04541 -0.04456
 C1902 C -0.11147 -0.05713 -0.05663
 C1903 C -0.09456 -0.06000 -0.06002
 C1904 C -0.08219 -0.05117 -0.05122
 C1905 C -0.06536 -0.05430 -0.05480
 C1906 C -0.06090 -0.06579 -0.06674
 C1907 C -0.07299 -0.07438 -0.07537
 C1908 C -0.08965 -0.07158 -0.07208
 C1909 C -0.13295 -0.04227 -0.04100
 C1910 C -0.13743 -0.03072 -0.02913
 C1911 C -0.12534 -0.02208 -0.02056
 C1912 C -0.10866 -0.02491 -0.02379
 C1913 C -0.12417 -0.06617 -0.06550
 C1914 C -0.13506 -0.07343 -0.07260
 C1915 C -0.07416 -0.03048 -0.03015
 C1916 C -0.06307 -0.02345 -0.02313
 H1917 H -0.05547 -0.04794 -0.04845
 H1918 H -0.04797 -0.06804 -0.06932
 H1919 H -0.06942 -0.08327 -0.08464
 H1920 H -0.09862 -0.07859 -0.07910
 H1921 H -0.14282 -0.04867 -0.04735
 H1922 H -0.15037 -0.02848 -0.02658
 H1923 H -0.12888 -0.01312 -0.01135
 H1924 H -0.09970 -0.01788 -0.01681
 C1925 C -0.09233 0.46851 0.46570
 C1926 C -0.10668 0.46508 0.47515
 C1927 C -0.11994 0.45622 0.46782
 C1928 C -0.11874 0.45083 0.45108
 C1929 C -0.10434 0.45419 0.44165
 C1930 C -0.09115 0.46317 0.44894
 C1931 C -0.07693 0.46647 0.43921
 C1932 C -0.07578 0.46104 0.42280
 C1933 C -0.08857 0.45209 0.41574
 C1934 C -0.10274 0.44869 0.42499
 C1935 C -0.13415 0.45289 0.47753
 C1936 C -0.13522 0.45814 0.49403
 C1937 C -0.12225 0.46679 0.50119
 C1938 C -0.10811 0.47026 0.49192
 C1939 C -0.13245 0.44215 0.44346
 C1940 C -0.14397 0.43519 0.43706
 C1941 C -0.07830 0.47656 0.47344
 C1942 C -0.06600 0.48254 0.47935
 H1943 H -0.06659 0.47333 0.44414
 H1944 H -0.06493 0.46386 0.41549
 H1945 H -0.08755 0.44783 0.40300
 H1946 H -0.11239 0.44170 0.41895
 H1947 H -0.14454 0.44616 0.47252
 H1948 H -0.14617 0.45547 0.50129
 H1949 H -0.12315 0.47085 0.51401
 H1950 H -0.09836 0.47705 0.49802
 C1951 C 0.41333 -0.03950 0.46147
 C1952 C 0.40477 -0.05229 0.46955
 C1953 C 0.39309 -0.06176 0.46051
 C1954 C 0.39001 -0.05834 0.44347
 C1955 C 0.39918 -0.04611 0.43517
 C1956 C 0.41084 -0.03661 0.44421
 C1957 C 0.42012 -0.02468 0.43557
 C1958 C 0.41811 -0.02237 0.41845
 C1959 C 0.40672 -0.03168 0.40962
 C1960 C 0.39724 -0.04335 0.41785
 C1961 C 0.38484 -0.07463 0.46879
 C1962 C 0.38808 -0.07808 0.48551
 C1963 C 0.39947 -0.06879 0.49435
 C1964 C 0.40775 -0.05602 0.48654
 C1965 C 0.37703 -0.06704 0.43468
 C1966 C 0.36584 -0.07398 0.42773
 C1967 C 0.42573 -0.03025 0.47051
 C1968 C 0.43677 -0.02316 0.47752
 H1969 H 0.42920 -0.01719 0.44187
 H1970 H 0.42548 -0.01335 0.41200
 H1971 H 0.40525 -0.02989 0.39632
 H1972 H 0.38863 -0.05039 0.41043
 H1973 H 0.37594 -0.08225 0.46240
 H1974 H 0.38174 -0.08803 0.49162
 H1975 H 0.40195 -0.07152 0.50733
 H1976 H 0.41654 -0.04919 0.49393
 C1977 C 0.40934 0.46577 -0.03635
 C1978 C 0.39785 0.45714 -0.02640
 C1979 C 0.38498 0.44807 -0.03411
 C1980 C 0.38354 0.44786 -0.05172
 C1981 C 0.39509 0.45641 -0.06169
 C1982 C 0.40797 0.46548 -0.05397
 C1983 C 0.41927 0.47408 -0.06419
 C1984 C 0.41797 0.47359 -0.08153
 C1985 C 0.40548 0.46457 -0.08907
 C1986 C 0.39411 0.45609 -0.07932
 C1987 C 0.37378 0.43934 -0.02390
 C1988 C 0.37520 0.43967 -0.00657
 C1989 C 0.38769 0.44868 0.00097
 C1990 C 0.39892 0.45734 -0.00877
 C1991 C 0.36976 0.43944 -0.05952
 C1992 C 0.35803 0.43276 -0.06582
 C1993 C 0.42312 0.47415 -0.02854
 C1994 C 0.43509 0.48052 -0.02239
 H1995 H 0.42926 0.48118 -0.05891
 H1996 H 0.42681 0.48012 -0.08915
 H1997 H 0.40463 0.46412 -0.10254
 H1998 H 0.38462 0.44923 -0.08576
 H1999 H 0.36386 0.43214 -0.02919
 H2000 H 0.36654 0.43290 0.00104
 H2001 H 0.38872 0.44891 0.01444
 H2002 H 0.40846 0.46414 -0.00233
 C2003 C 0.33950 0.46338 0.78384
 C2004 C 0.35090 0.47198 0.79394
 C2005 C 0.36330 0.46339 0.80290
 C2006 C 0.36437 0.44625 0.80153
 C2007 C 0.35297 0.43764 0.79142
 C2008 C 0.34058 0.44624 0.78244
 C2009 C 0.32947 0.43739 0.77221
 C2010 C 0.33047 0.42051 0.77103
 C2011 C 0.34245 0.41209 0.77999
 C2012 C 0.35363 0.42049 0.79006
 C2013 C 0.37442 0.47225 0.81310
 C2014 C 0.37342 0.48912 0.81427
 C2015 C 0.36141 0.49754 0.80535
 C2016 C 0.35023 0.48913 0.79530
 C2017 C 0.37762 0.43761 0.80996
 C2018 C 0.38894 0.43070 0.81673
 C2019 C 0.32605 0.47199 0.77571
 C2020 C 0.31430 0.47868 0.76951
 H2021 H 0.31986 0.44338 0.76510
 H2022 H 0.32180 0.41392 0.76326
 H2023 H 0.34306 0.39896 0.77917
 H2024 H 0.36272 0.41341 0.79680
 H2025 H 0.38398 0.46624 0.82028
 H2026 H 0.38203 0.49570 0.82213
 H2027 H 0.36070 0.51065 0.80628
 H2028 H 0.34106 0.49620 0.78864
 C2029 C 0.33790 -0.03839 0.28805
 C2030 C 0.34593 -0.03165 0.30215
 C2031 C 0.35741 -0.04116 0.31140
 C2032 C 0.36082 -0.05733 0.30645
 C2033 C 0.35228 -0.06430 0.29278
 C2034 C 0.34083 -0.05478 0.28350
 C2035 C 0.33220 -0.06212 0.27008
 C2036 C 0.33463 -0.07843 0.26611
 C2037 C 0.34579 -0.08774 0.27521
 C2038 C 0.35463 -0.08079 0.28835
 C2039 C 0.36512 -0.03423 0.32558
 C2040 C 0.36157 -0.01837 0.33051
 C2041 C 0.35038 -0.00906 0.32144
 C2042 C 0.34260 -0.01556 0.30742
 C2043 C 0.37347 -0.06660 0.31512
 C2044 C 0.38436 -0.07396 0.32208
 C2045 C 0.32552 -0.02901 0.27914
 C2046 C 0.31445 -0.02185 0.27225
 H2047 H 0.32332 -0.05541 0.26267
 H2048 H 0.32777 -0.08389 0.25594
 H2049 H 0.34760 -0.10042 0.27211
 H2050 H 0.36310 -0.08854 0.29514
 H2051 H 0.37386 -0.04102 0.33309
 H2052 H 0.36751 -0.01329 0.34145
 H2053 H 0.34765 0.00325 0.32533
 H2054 H 0.33395 -0.00786 0.30080
 C2055 C 0.15825 0.53678 0.71783
 C2056 C 0.15748 0.55398 0.71865
 C2057 C 0.14483 0.56246 0.70992
 C2058 C 0.13286 0.55367 0.70066
 C2059 C 0.13354 0.53648 0.69999
 C2060 C 0.14629 0.52801 0.70858
 C2061 C 0.14679 0.51083 0.70763
 C2062 C 0.13502 0.50225 0.69845
 C2063 C 0.12254 0.51052 0.69006
 C2064 C 0.12174 0.52744 0.69077
 C2065 C 0.14454 0.57965 0.71060
 C2066 C 0.15634 0.58824 0.71974
 C2067 C 0.16860 0.57994 0.72844
 C2068 C 0.16923 0.56302 0.72794
 C2069 C 0.11969 0.56227 0.69206
 C2070 C 0.10855 0.56922 0.68505
 C2071 C 0.17203 0.52829 0.72551
 C2072 C 0.18416 0.52184 0.73123
 H2073 H 0.15624 0.50386 0.71399
 H2074 H 0.13558 0.48912 0.69786
 H2075 H 0.11342 0.50381 0.68294
 H2076 H 0.11182 0.53332 0.68400
 H2077 H 0.13524 0.58664 0.70404
 H2078 H 0.15600 0.60139 0.72005
 H2079 H 0.17776 0.58667 0.73549
 H2080 H 0.17907 0.55713 0.73483
 C2081 C 0.15851 0.03286 0.21646
 C2082 C 0.15820 0.03504 0.19892
 C2083 C 0.14489 0.04357 0.19132
 C2084 C 0.13188 0.04973 0.20128
 C2085 C 0.13223 0.04760 0.21882
 C2086 C 0.14557 0.03912 0.22643
 C2087 C 0.14569 0.03722 0.24398
 C2088 C 0.13299 0.04352 0.25375
 C2089 C 0.11994 0.05181 0.24632
 C2090 C 0.11949 0.05386 0.22906
 C2091 C 0.14495 0.04575 0.17379
 C2092 C 0.15768 0.03950 0.16402
 C2093 C 0.17058 0.03097 0.17143
 C2094 C 0.17097 0.02883 0.18867
 C2095 C 0.11793 0.05785 0.19345
 C2096 C 0.10620 0.06435 0.18698
 C2097 C 0.17263 0.02501 0.22425
 C2098 C 0.18494 0.01908 0.23017
 H2099 H 0.15558 0.03085 0.25032
 H2100 H 0.13327 0.04196 0.26716
 H2101 H 0.11010 0.05669 0.25396
 H2102 H 0.10911 0.06044 0.22386
 H2103 H 0.13516 0.05228 0.16746
 H2104 H 0.15753 0.04127 0.15063
 H2105 H 0.18039 0.02606 0.16377
 H2106 H 0.18134 0.02220 0.19384
 C2107 C 0.59397 0.71861 0.22207
 C2108 C 0.59514 0.70143 0.22135
 C2109 C 0.60904 0.69404 0.21364
 C2110 C 0.62179 0.70385 0.20690
 C2111 C 0.62075 0.72102 0.20789
 C2112 C 0.60678 0.72842 0.21547
 C2113 C 0.60595 0.74559 0.21621
 C2114 C 0.61859 0.75519 0.20966
 C2115 C 0.63226 0.74796 0.20226
 C2116 C 0.63340 0.73108 0.20135
 C2117 C 0.60980 0.67686 0.21280
 C2118 C 0.59726 0.66725 0.21954
 C2119 C 0.58378 0.67447 0.22728
 C2120 C 0.58263 0.69136 0.22815
 C2121 C 0.63597 0.69632 0.19896
 C2122 C 0.64777 0.69011 0.19239
 C2123 C 0.57916 0.72609 0.22878
 C2124 C 0.56637 0.73172 0.23384
 H2125 H 0.59557 0.75176 0.22189
 H2126 H 0.61776 0.76831 0.21034
 H2127 H 0.64204 0.75548 0.19720
 H2128 H 0.64427 0.72603 0.19546
 H2129 H 0.62007 0.67067 0.20695
 H2130 H 0.59802 0.65413 0.21876
 H2131 H 0.57408 0.66696 0.23251
 H2132 H 0.57184 0.69640 0.23420
 C2133 C 0.09015 0.71499 0.71911
 C2134 C 0.09114 0.69780 0.71981
 C2135 C 0.10389 0.68955 0.71105
 C2136 C 0.11576 0.69855 0.70191
 C2137 C 0.11485 0.71574 0.70134
 C2138 C 0.10200 0.72398 0.70995
 C2139 C 0.10127 0.74116 0.70909
 C2140 C 0.11291 0.74995 0.69999
 C2141 C 0.12549 0.74190 0.69158
 C2142 C 0.12652 0.72500 0.69221
 C2143 C 0.10439 0.67235 0.71160
 C2144 C 0.09268 0.66355 0.72062
 C2145 C 0.08034 0.67162 0.72935
 C2146 C 0.07952 0.68855 0.72900
 C2147 C 0.12905 0.69019 0.69331
 C2148 C 0.14030 0.68346 0.68628
 C2149 C 0.07630 0.72327 0.72685
 C2150 C 0.06414 0.72956 0.73263
 H2151 H 0.09173 0.74796 0.71547
 H2152 H 0.11217 0.76309 0.69947
 H2153 H 0.13451 0.74879 0.68452
 H2154 H 0.13652 0.71929 0.68544
 H2155 H 0.11377 0.66553 0.70501
 H2156 H 0.09317 0.65040 0.72081
 H2157 H 0.07125 0.66473 0.73632
 H2158 H 0.06962 0.69426 0.73591
 C2159 C 0.65968 0.21417 0.53466
 C2160 C 0.65887 0.21327 0.55230
 C2161 C 0.64565 0.20475 0.56007
 C2162 C 0.63324 0.19734 0.55017
 C2163 C 0.63409 0.19820 0.53254
 C2164 C 0.64732 0.20670 0.52477
 C2165 C 0.64794 0.20735 0.50713
 C2166 C 0.63586 0.19977 0.49744
 C2167 C 0.62294 0.19144 0.50503
 C2168 C 0.62199 0.19064 0.52238
 C2169 C 0.64520 0.20386 0.57771
 C2170 C 0.65736 0.21132 0.58740
 C2171 C 0.67015 0.21983 0.57981
 C2172 C 0.67102 0.22076 0.56246
 C2173 C 0.61932 0.18927 0.55807
 C2174 C 0.60753 0.18279 0.56443
 C2175 C 0.67365 0.22212 0.52675
 C2176 C 0.68571 0.22829 0.52062
 H2177 H 0.65776 0.21368 0.50065
 H2178 H 0.63654 0.20036 0.48396
 H2179 H 0.61360 0.18556 0.49745
 H2180 H 0.61172 0.18397 0.52770
 H2181 H 0.63547 0.19739 0.58419
 H2182 H 0.65685 0.21049 0.60087
 H2183 H 0.67955 0.22564 0.58739
 H2184 H 0.68129 0.22742 0.55715
 C2185 C 0.65796 0.71661 0.03228
 C2186 C 0.64501 0.71009 0.02243
 C2187 C 0.63165 0.70180 0.03022
 C2188 C 0.63133 0.70009 0.04781
 C2189 C 0.64441 0.70639 0.05764
 C2190 C 0.65772 0.71476 0.04986
 C2191 C 0.67056 0.72113 0.05998
 C2192 C 0.67023 0.71932 0.07726
 C2193 C 0.65732 0.71096 0.08484
 C2194 C 0.64452 0.70456 0.07521
 C2195 C 0.61885 0.69537 0.02012
 C2196 C 0.61925 0.69705 0.00281
 C2197 C 0.63233 0.70514 -0.00479
 C2198 C 0.64510 0.71160 0.00484
 C2199 C 0.61735 0.69219 0.05579
 C2200 C 0.60559 0.68580 0.06231
 C2201 C 0.67191 0.72459 0.02436
 C2202 C 0.68408 0.73074 0.01839
 H2203 H 0.68094 0.72763 0.05468
 H2204 H 0.68008 0.72438 0.08482
 H2205 H 0.65722 0.70945 0.09826
 H2206 H 0.63472 0.69817 0.08167
 H2207 H 0.60843 0.68894 0.02545
 H2208 H 0.60937 0.69204 -0.00473
 H2209 H 0.63259 0.70641 -0.01824
 H2210 H 0.65501 0.71780 -0.00163
 C2211 C 0.09402 0.03188 0.02958
 C2212 C 0.09499 0.04908 0.03008
 C2213 C 0.10877 0.05675 0.03781
 C2214 C 0.12160 0.04718 0.04475
 C2215 C 0.12072 0.03000 0.04406
 C2216 C 0.10686 0.02232 0.03648
 C2217 C 0.10618 0.00513 0.03603
 C2218 C 0.11886 -0.00422 0.04287
 C2219 C 0.13242 0.00327 0.05028
 C2220 C 0.13341 0.02018 0.05091
 C2221 C 0.10933 0.07395 0.03845
 C2222 C 0.09671 0.08331 0.03149
 C2223 C 0.08335 0.07581 0.02373
 C2224 C 0.08240 0.05891 0.02305
 C2225 C 0.13578 0.05500 0.05245
 C2226 C 0.14762 0.06145 0.05878
 C2227 C 0.07939 0.02412 0.02271
 C2228 C 0.06673 0.01829 0.01749
 H2229 H 0.09590 -0.00125 0.03036
 H2230 H 0.11815 -0.01736 0.04241
 H2231 H 0.14224 -0.00405 0.05558
 H2232 H 0.14420 0.02545 0.05683
 H2233 H 0.11949 0.08034 0.04431
 H2234 H 0.09731 0.09645 0.03213
 H2235 H 0.07359 0.08314 0.01833
 H2236 H 0.07169 0.05366 0.01698
 C2237 C 0.08843 0.53923 0.53579
 C2238 C 0.09018 0.55617 0.53302
 C2239 C 0.10230 0.56513 0.54201
 C2240 C 0.11282 0.55706 0.55346
 C2241 C 0.11093 0.54017 0.55639
 C2242 C 0.09867 0.53124 0.54756
 C2243 C 0.09690 0.51441 0.55080
 C2244 C 0.10698 0.50661 0.56243
 C2245 C 0.11899 0.51533 0.57105
 C2246 C 0.12101 0.53192 0.56810
 C2247 C 0.10348 0.58213 0.53943
 C2248 C 0.09296 0.59004 0.52829
 C2249 C 0.08122 0.58126 0.51936
 C2250 C 0.07983 0.56451 0.52160
 C2251 C 0.12592 0.56594 0.56185
 C2252 C 0.13716 0.57294 0.56867
 C2253 C 0.07537 0.53030 0.52740
 C2254 C 0.06388 0.52341 0.52093
 H2255 H 0.08775 0.50710 0.54439
 H2256 H 0.10545 0.49373 0.56477
 H2257 H 0.12679 0.50922 0.58008
 H2258 H 0.13049 0.53818 0.57517
 H2259 H 0.11239 0.58948 0.54612
 H2260 H 0.09392 0.60307 0.52659
 H2261 H 0.07305 0.58747 0.51075
 H2262 H 0.07041 0.55823 0.51447
 C2263 C 0.59412 0.03075 0.53079
 C2264 C 0.59249 0.04168 0.54435
 C2265 C 0.60670 0.04964 0.55090
 C2266 C 0.62248 0.04644 0.54402
 C2267 C 0.62411 0.03543 0.53054
 C2268 C 0.60988 0.02759 0.52388
 C2269 C 0.61180 0.01668 0.51038
 C2270 C 0.62736 0.01357 0.50365
 C2271 C 0.64128 0.02122 0.51017
 C2272 C 0.63975 0.03204 0.52345
 C2273 C 0.60473 0.06073 0.56426
 C2274 C 0.58918 0.06381 0.57101
 C2275 C 0.57531 0.05593 0.56470
 C2276 C 0.57686 0.04498 0.55155
 C2277 C 0.63704 0.05424 0.55102
 C2278 C 0.64911 0.06060 0.55701
 C2279 C 0.57946 0.02313 0.52380
 C2280 C 0.56678 0.01744 0.51845
 H2281 H 0.60133 0.01042 0.50492
 H2282 H 0.62862 0.00518 0.49334
 H2283 H 0.65334 0.01877 0.50490
 H2284 H 0.65094 0.03771 0.52808
 H2285 H 0.61516 0.06715 0.56960
 H2286 H 0.58788 0.07235 0.58120
 H2287 H 0.56329 0.05836 0.56999
 H2288 H 0.56567 0.03923 0.54705
 C2289 C 0.59402 0.53162 0.02973
 C2290 C 0.59277 0.54192 0.04384
 C2291 C 0.60716 0.54954 0.05040
 C2292 C 0.62275 0.54662 0.04297
 C2293 C 0.62401 0.53626 0.02892
 C2294 C 0.60959 0.52876 0.02226
 C2295 C 0.61113 0.51852 0.00818
 C2296 C 0.62650 0.51574 0.00087
 C2297 C 0.64060 0.52306 0.00739
 C2298 C 0.63945 0.53321 0.02125
 C2299 C 0.60557 0.56003 0.06431
 C2300 C 0.59020 0.56285 0.07159
 C2301 C 0.57615 0.55531 0.06526
 C2302 C 0.57733 0.54495 0.05156
 C2303 C 0.63749 0.55415 0.04988
 C2304 C 0.64970 0.56036 0.05572
 C2305 C 0.57918 0.52435 0.02277
 C2306 C 0.56638 0.51892 0.01745
 H2307 H 0.60050 0.51254 0.00268
 H2308 H 0.62746 0.50786 -0.00990
 H2309 H 0.65251 0.52086 0.00167
 H2310 H 0.65077 0.53865 0.02585
 H2311 H 0.61614 0.56618 0.06969
 H2312 H 0.58918 0.57093 0.08219
 H2313 H 0.56428 0.55752 0.07096
 H2314 H 0.56601 0.53944 0.04708
 C2315 C 0.03203 0.03329 0.09272
 C2316 C 0.03204 0.05051 0.09350
 C2317 C 0.04025 0.05857 0.10684
 C2318 C 0.04817 0.04937 0.11947
 C2319 C 0.04801 0.03216 0.11879
 C2320 C 0.03994 0.02410 0.10536
 C2321 C 0.04003 0.00690 0.10488
 C2322 C 0.04786 -0.00210 0.11733
 C2323 C 0.05575 0.00577 0.13047
 C2324 C 0.05586 0.02270 0.13126
 C2325 C 0.04038 0.07579 0.10716
 C2326 C 0.03249 0.08478 0.09474
 C2327 C 0.02426 0.07691 0.08183
 C2328 C 0.02402 0.05997 0.08113
 C2329 C 0.05633 0.05757 0.13327
 C2330 C 0.06302 0.06422 0.14487
 C2331 C 0.02471 0.02516 0.07842
 C2332 C 0.01915 0.01901 0.06596
 H2333 H 0.03403 0.00024 0.09492
 H2334 H 0.04781 -0.01525 0.11678
 H2335 H 0.06182 -0.00127 0.14011
 H2336 H 0.06218 0.02826 0.14172
 H2337 H 0.04660 0.08246 0.11698
 H2338 H 0.03277 0.09794 0.09514
 H2339 H 0.01815 0.08395 0.07222
 H2340 H 0.01755 0.05442 0.07076
 C2341 C 0.03394 0.53936 0.58983
 C2342 C 0.03255 0.55646 0.59142
 C2343 C 0.04150 0.56472 0.60413
 C2344 C 0.05153 0.55580 0.61536
 C2345 C 0.05307 0.53873 0.61364
 C2346 C 0.04427 0.53049 0.60081
 C2347 C 0.04610 0.51344 0.59925
 C2348 C 0.05634 0.50478 0.61007
 C2349 C 0.06493 0.51283 0.62263
 C2350 C 0.06336 0.52960 0.62446
 C2351 C 0.04031 0.58186 0.60518
 C2352 C 0.03056 0.59060 0.59397
 C2353 C 0.02168 0.58252 0.58164
 C2354 C 0.02256 0.56564 0.58036
 C2355 C 0.05988 0.56403 0.62899
 C2356 C 0.06660 0.57055 0.64064
 C2357 C 0.02564 0.53106 0.57621
 C2358 C 0.01941 0.52447 0.56434
 H2359 H 0.03966 0.50664 0.58969
 H2360 H 0.05761 0.49175 0.60869
 H2361 H 0.07287 0.50604 0.63099
 H2362 H 0.07035 0.53532 0.63438
 H2363 H 0.04703 0.58868 0.61454
 H2364 H 0.02992 0.60372 0.59485
 H2365 H 0.01417 0.58937 0.57293
 H2366 H 0.01552 0.55991 0.57048
 C2367 C 0.53055 0.03317 0.59385
 C2368 C 0.53477 0.02412 0.60826
 C2369 C 0.54240 0.03202 0.62205
 C2370 C 0.54580 0.04891 0.62131
 C2371 C 0.54152 0.05797 0.60691
 C2372 C 0.53374 0.05010 0.59319
 C2373 C 0.52940 0.05946 0.57900
 C2374 C 0.53282 0.07606 0.57831
 C2375 C 0.54062 0.08371 0.59163
 C2376 C 0.54491 0.07483 0.60582
 C2377 C 0.54655 0.02270 0.63632
 C2378 C 0.54327 0.00607 0.63693
 C2379 C 0.53582 -0.00164 0.62344
 C2380 C 0.53159 0.00722 0.60923
 C2381 C 0.55371 0.05692 0.63537
 C2382 C 0.56027 0.06341 0.64713
 C2383 C 0.52363 0.02503 0.57936
 C2384 C 0.51839 0.01890 0.56677
 H2385 H 0.52338 0.05407 0.56827
 H2386 H 0.52946 0.08300 0.56737
 H2387 H 0.54332 0.09659 0.59098
 H2388 H 0.55090 0.08133 0.61590
 H2389 H 0.55237 0.02814 0.64713
 H2390 H 0.54653 -0.00087 0.64794
 H2391 H 0.53330 -0.01456 0.62397
 H2392 H 0.52579 0.00070 0.59905
 C2393 C 0.53052 0.53616 0.09234
 C2394 C 0.53455 0.52711 0.10681
 C2395 C 0.54272 0.53482 0.12039
 C2396 C 0.54687 0.55153 0.11938
 C2397 C 0.54274 0.56062 0.10495
 C2398 C 0.53440 0.55295 0.09146
 C2399 C 0.53023 0.56233 0.07722
 C2400 C 0.53438 0.57876 0.07628
 C2401 C 0.54273 0.58621 0.08938
 C2402 C 0.54686 0.57731 0.10361
 C2403 C 0.54666 0.52549 0.13471
 C2404 C 0.54264 0.50903 0.13558
 C2405 C 0.53466 0.50150 0.12229
 C2406 C 0.53064 0.51037 0.10803
 C2407 C 0.55527 0.55936 0.13326
 C2408 C 0.56215 0.56572 0.14491
 C2409 C 0.52324 0.52812 0.07799
 C2410 C 0.51781 0.52195 0.06549
 H2411 H 0.52379 0.55709 0.06667
 H2412 H 0.53112 0.58574 0.06532
 H2413 H 0.54599 0.59895 0.08854
 H2414 H 0.55330 0.58365 0.11350
 H2415 H 0.55288 0.53080 0.14536
 H2416 H 0.54574 0.50208 0.14663
 H2417 H 0.53157 0.48870 0.12303
 H2418 H 0.52439 0.50399 0.09803
 C2419 C 0.21606 0.53806 0.65817
 C2420 C 0.20628 0.52966 0.64633
 C2421 C 0.19730 0.53850 0.63405
 C2422 C 0.19813 0.55571 0.63374
 C2423 C 0.20793 0.56412 0.64559
 C2424 C 0.21704 0.55527 0.65775
 C2425 C 0.22686 0.56394 0.66938
 C2426 C 0.22750 0.58088 0.66913
 C2427 C 0.21843 0.58953 0.65737
 C2428 C 0.20877 0.58132 0.64567
 C2429 C 0.18755 0.52983 0.62238
 C2430 C 0.18667 0.51291 0.62283
 C2431 C 0.19545 0.50427 0.63484
 C2432 C 0.20516 0.51248 0.64649
 C2433 C 0.18911 0.56469 0.62107
 C2434 C 0.18171 0.57193 0.61032
 C2435 C 0.22413 0.52919 0.67156
 C2436 C 0.23022 0.52248 0.68344
 H2437 H 0.23406 0.55776 0.67885
 H2438 H 0.23495 0.58732 0.67821
 H2439 H 0.21885 0.60269 0.65732
 H2440 H 0.20194 0.58858 0.63676
 H2441 H 0.18047 0.53600 0.61281
 H2442 H 0.17914 0.50647 0.61381
 H2443 H 0.19473 0.49112 0.63513
 H2444 H 0.21179 0.50524 0.65557
 C2445 C 0.22029 0.03360 0.15565
 C2446 C 0.20951 0.04701 0.15778
 C2447 C 0.20176 0.05421 0.14366
 C2448 C 0.20502 0.04810 0.12748
 C2449 C 0.21593 0.03480 0.12535
 C2450 C 0.22357 0.02751 0.13949
 C2451 C 0.23436 0.01419 0.13706
 C2452 C 0.23754 0.00824 0.12111
 C2453 C 0.23009 0.01538 0.10728
 C2454 C 0.21940 0.02851 0.10930
 C2455 C 0.19080 0.06740 0.14612
 C2456 C 0.18762 0.07335 0.16207
 C2457 C 0.19527 0.06638 0.17585
 C2458 C 0.20612 0.05339 0.17382
 C2459 C 0.19715 0.05550 0.11306
 C2460 C 0.19057 0.06165 0.10112
 C2461 C 0.22763 0.02593 0.17020
 C2462 C 0.23309 0.02006 0.18285
 H2463 H 0.24046 0.00827 0.14745
 H2464 H 0.24583 -0.00195 0.11948
 H2465 H 0.23261 0.01071 0.09492
 H2466 H 0.21390 0.03365 0.09816
 H2467 H 0.18456 0.07323 0.13578
 H2468 H 0.17916 0.08341 0.16375
 H2469 H 0.19273 0.07101 0.18819
 H2470 H 0.21170 0.04837 0.18497
 C2471 C 0.71837 0.21381 0.59250
 C2472 C 0.70710 0.20075 0.59041
 C2473 C 0.69951 0.19355 0.60460
 C2474 C 0.70344 0.19927 0.62079
 C2475 C 0.71481 0.21223 0.62287
 C2476 C 0.72227 0.21954 0.60868
 C2477 C 0.73354 0.23253 0.61105
 C2478 C 0.73734 0.23813 0.62701
 C2479 C 0.73006 0.23098 0.64090
 C2480 C 0.71892 0.21818 0.63893
 C2481 C 0.68803 0.18076 0.60219
 C2482 C 0.68417 0.17521 0.58622
 C2483 C 0.69167 0.18217 0.57236
 C2484 C 0.70305 0.19476 0.57435
 C2485 C 0.69580 0.19188 0.63532
 C2486 C 0.68953 0.18589 0.64750
 C2487 C 0.72564 0.22150 0.57795
 C2488 C 0.73121 0.22759 0.56549
 H2489 H 0.73953 0.23847 0.60062
 H2490 H 0.74598 0.24808 0.62860
 H2491 H 0.73305 0.23538 0.65327
 H2492 H 0.71357 0.21302 0.65012
 H2493 H 0.68187 0.17496 0.61260
 H2494 H 0.67530 0.16547 0.58459
 H2495 H 0.68858 0.17786 0.56001
 H2496 H 0.70849 0.19981 0.56315
 C2497 C 0.71915 0.71783 0.09331
 C2498 C 0.70892 0.70393 0.09148
 C2499 C 0.70120 0.69694 0.10571
 C2500 C 0.70399 0.70370 0.12172
 C2501 C 0.71429 0.71753 0.12355
 C2502 C 0.72187 0.72463 0.10929
 C2503 C 0.73205 0.73849 0.11141
 C2504 C 0.73469 0.74514 0.12718
 C2505 C 0.72730 0.73820 0.14113
 C2506 C 0.71721 0.72455 0.13941
 C2507 C 0.69076 0.68327 0.10354
 C2508 C 0.68807 0.67664 0.08777
 C2509 C 0.69573 0.68338 0.07389
 C2510 C 0.70604 0.69686 0.07563
 C2511 C 0.69639 0.69634 0.13630
 C2512 C 0.69015 0.69017 0.14842
 C2513 C 0.72645 0.72527 0.07862
 C2514 C 0.73189 0.73102 0.06591
 H2515 H 0.73808 0.74430 0.10093
 H2516 H 0.74252 0.75574 0.12859
 H2517 H 0.72939 0.74342 0.15335
 H2518 H 0.71172 0.71959 0.15062
 H2519 H 0.68453 0.67759 0.11397
 H2520 H 0.68003 0.66620 0.08631
 H2521 H 0.69365 0.67816 0.06170
 H2522 H 0.71164 0.70168 0.06441
 C2523 C 0.53157 0.71604 0.15792
 C2524 C 0.53904 0.72544 0.14519
 C2525 C 0.54700 0.71759 0.13159
 C2526 C 0.54747 0.70039 0.13084
 C2527 C 0.53998 0.69098 0.14357
 C2528 C 0.53190 0.69883 0.15708
 C2529 C 0.52434 0.68916 0.16956
 C2530 C 0.52486 0.67224 0.16878
 C2531 C 0.53295 0.66458 0.15568
 C2532 C 0.54042 0.67378 0.14317
 C2533 C 0.55441 0.72726 0.11903
 C2534 C 0.55399 0.74418 0.11988
 C2535 C 0.54623 0.75184 0.13318
 C2536 C 0.53881 0.74264 0.14573
 C2537 C 0.55552 0.69241 0.11689
 C2538 C 0.56213 0.68593 0.10517
 C2539 C 0.52430 0.72398 0.17232
 C2540 C 0.51876 0.73001 0.18481
 H2541 H 0.51800 0.69454 0.18007
 H2542 H 0.51908 0.66504 0.17847
 H2543 H 0.53344 0.65143 0.15522
 H2544 H 0.54653 0.66726 0.13321
 H2545 H 0.56063 0.72186 0.10845
 H2546 H 0.55974 0.75138 0.11017
 H2547 H 0.54593 0.76498 0.13379
 H2548 H 0.53289 0.74914 0.15581
 C2549 C 0.03210 0.71355 0.65950
 C2550 C 0.03130 0.69634 0.65892
 C2551 C 0.04049 0.68768 0.64672
 C2552 C 0.05022 0.69629 0.63498
 C2553 C 0.05083 0.71350 0.63541
 C2554 C 0.04177 0.72215 0.64772
 C2555 C 0.04268 0.73934 0.64799
 C2556 C 0.05227 0.74776 0.63641
 C2557 C 0.06112 0.73931 0.62436
 C2558 C 0.06046 0.72239 0.62380
 C2559 C 0.03981 0.67048 0.64665
 C2560 C 0.03024 0.66207 0.65825
 C2561 C 0.02110 0.67053 0.67006
 C2562 C 0.02157 0.68746 0.67045
 C2563 C 0.05941 0.68751 0.62230
 C2564 C 0.06696 0.68047 0.61155
 C2565 C 0.02398 0.72223 0.67296
 C2566 C 0.01788 0.72883 0.68488
 H2567 H 0.03597 0.74643 0.65710
 H2568 H 0.05282 0.76090 0.63678
 H2569 H 0.06855 0.74591 0.61539
 H2570 H 0.06760 0.71637 0.61421
 H2571 H 0.04671 0.66337 0.63770
 H2572 H 0.02994 0.64891 0.65809
 H2573 H 0.01371 0.66393 0.67907
 H2574 H 0.01432 0.69348 0.67995
 C2575 C 0.53346 0.65954 0.21923
 C2576 C 0.52920 0.64341 0.22359
 C2577 C 0.53711 0.63016 0.21553
 C2578 C 0.54923 0.63313 0.20315
 C2579 C 0.55355 0.64928 0.19883
 C2580 C 0.54563 0.66254 0.20689
 C2581 C 0.55012 0.67860 0.20232
 C2582 C 0.56208 0.68146 0.19017
 C2583 C 0.56983 0.66849 0.18231
 C2584 C 0.56566 0.65256 0.18654
 C2585 C 0.53262 0.61411 0.22010
 C2586 C 0.52066 0.61127 0.23227
 C2587 C 0.51293 0.62425 0.24014
 C2588 C 0.51710 0.64017 0.23590
 C2589 C 0.55717 0.61955 0.19486
 C2590 C 0.56356 0.60807 0.18811
 C2591 C 0.52533 0.67315 0.22725
 C2592 C 0.51913 0.68511 0.23322
 H2593 H 0.54446 0.68911 0.20807
 H2594 H 0.56535 0.69381 0.18684
 H2595 H 0.57911 0.67078 0.17288
 H2596 H 0.57202 0.64287 0.18008
 H2597 H 0.53828 0.60361 0.21434
 H2598 H 0.51738 0.59892 0.23560
 H2599 H 0.50365 0.62197 0.24958
 H2600 H 0.51076 0.64987 0.24236
 C2601 C 0.03300 0.66057 0.71743
 C2602 C 0.04515 0.66462 0.70538
 C2603 C 0.05381 0.65208 0.69691
 C2604 C 0.05027 0.63560 0.70055
 C2605 C 0.03815 0.63157 0.71262
 C2606 C 0.02949 0.64411 0.72108
 C2607 C 0.01742 0.63982 0.73308
 C2608 C 0.01400 0.62357 0.73663
 C2609 C 0.02247 0.61129 0.72836
 C2610 C 0.03441 0.61517 0.71648
 C2611 C 0.06589 0.65640 0.68492
 C2612 C 0.06931 0.67266 0.68139
 C2613 C 0.06084 0.68493 0.68965
 C2614 C 0.04889 0.68103 0.70151
 C2615 C 0.05901 0.62274 0.69188
 C2616 C 0.06601 0.61179 0.68487
 C2617 C 0.02421 0.67346 0.72597
 C2618 C 0.01761 0.68497 0.73237
 H2619 H 0.01052 0.64895 0.73983
 H2620 H 0.00474 0.62049 0.74584
 H2621 H 0.01977 0.59868 0.73115
 H2622 H 0.04066 0.60518 0.71038
 H2623 H 0.07280 0.64728 0.67817
 H2624 H 0.07858 0.67575 0.67218
 H2625 H 0.06353 0.69754 0.68685
 H2626 H 0.04265 0.69104 0.70758
 C2627 C 0.03401 0.08939 0.03276
 C2628 C 0.04621 0.08610 0.04503
 C2629 C 0.05442 0.09915 0.05320
 C2630 C 0.05040 0.11541 0.04904
 C2631 C 0.03825 0.11869 0.03673
 C2632 C 0.03003 0.10563 0.02857
 C2633 C 0.01792 0.10918 0.01633
 C2634 C 0.01404 0.12520 0.01225
 C2635 C 0.02207 0.13799 0.02021
 C2636 C 0.03405 0.13484 0.03232
 C2637 C 0.06654 0.09556 0.06542
 C2638 C 0.07044 0.07953 0.06948
 C2639 C 0.06242 0.06676 0.06150
 C2640 C 0.05044 0.06993 0.04941
 C2641 C 0.05859 0.12879 0.05751
 C2642 C 0.06513 0.14012 0.06443
 C2643 C 0.02563 0.07598 0.02456
 C2644 C 0.01932 0.06414 0.01840
 H2645 H 0.01134 0.09964 0.00981
 H2646 H 0.00474 0.12771 0.00286
 H2647 H 0.01902 0.15041 0.01699
 H2648 H 0.03996 0.14519 0.03815
 H2649 H 0.07312 0.10509 0.07197
 H2650 H 0.07974 0.07701 0.07886
 H2651 H 0.06549 0.05433 0.06469
 H2652 H 0.04456 0.05956 0.04357
 C2653 C 0.03799 0.58846 0.53542
 C2654 C 0.04945 0.58434 0.54815
 C2655 C 0.05799 0.59682 0.55692
 C2656 C 0.05497 0.61333 0.55295
 C2657 C 0.04362 0.61742 0.54013
 C2658 C 0.03511 0.60495 0.53135
 C2659 C 0.02382 0.60933 0.51860
 C2660 C 0.02101 0.62559 0.51463
 C2661 C 0.02932 0.63780 0.52321
 C2662 C 0.04050 0.63384 0.53582
 C2663 C 0.06941 0.59242 0.56954
 C2664 C 0.07234 0.57615 0.57339
 C2665 C 0.06399 0.56394 0.56484
 C2666 C 0.05266 0.56791 0.55237
 C2667 C 0.06336 0.62619 0.56206
 C2668 C 0.06996 0.63728 0.56933
 C2669 C 0.02918 0.57569 0.52662
 C2670 C 0.02226 0.56452 0.51982
 H2671 H 0.01706 0.60025 0.51157
 H2672 H 0.01233 0.62873 0.50484
 H2673 H 0.02710 0.65042 0.52008
 H2674 H 0.04666 0.64379 0.54212
 H2675 H 0.07620 0.60150 0.57653
 H2676 H 0.08112 0.57299 0.58307
 H2677 H 0.06630 0.55132 0.56789
 H2678 H 0.04649 0.55797 0.54607
 C2679 C 0.53371 0.09000 0.53100
 C2680 C 0.52413 0.10261 0.53809
 C2681 C 0.53207 0.11563 0.54659
 C2682 C 0.54954 0.11597 0.54791
 C2683 C 0.55912 0.10335 0.54083
 C2684 C 0.55119 0.09036 0.53228
 C2685 C 0.56104 0.07795 0.52517
 C2686 C 0.57823 0.07839 0.52644
 C2687 C 0.58597 0.09098 0.53498
 C2688 C 0.57659 0.10335 0.54212
 C2689 C 0.52223 0.12803 0.55370
 C2690 C 0.50504 0.12758 0.55246
 C2691 C 0.49729 0.11484 0.54415
 C2692 C 0.50666 0.10246 0.53702
 C2693 C 0.55763 0.12945 0.55627
 C2694 C 0.56419 0.14083 0.56308
 C2695 C 0.52565 0.07610 0.52336
 C2696 C 0.51958 0.06393 0.51766
 H2697 H 0.55561 0.06783 0.51849
 H2698 H 0.58557 0.06884 0.52086
 H2699 H 0.59931 0.09117 0.53607
 H2700 H 0.58317 0.11291 0.54862
 H2701 H 0.52768 0.13817 0.56033
 H2702 H 0.49770 0.13716 0.55798
 H2703 H 0.48393 0.11454 0.54322
 H2704 H 0.50008 0.09281 0.53067
 C2705 C 0.53333 0.59234 0.02931
 C2706 C 0.55069 0.59248 0.03177
 C2707 C 0.55824 0.60553 0.04055
 C2708 C 0.54842 0.61846 0.04665
 C2709 C 0.53108 0.61833 0.04417
 C2710 C 0.52351 0.60523 0.03547
 C2711 C 0.50614 0.60530 0.03324
 C2712 C 0.49652 0.61797 0.03943
 C2713 C 0.50391 0.63078 0.04795
 C2714 C 0.52098 0.63103 0.05033
 C2715 C 0.57558 0.60530 0.04306
 C2716 C 0.58521 0.59262 0.03688
 C2717 C 0.57785 0.57997 0.02810
 C2718 C 0.56079 0.57976 0.02565
 C2719 C 0.55618 0.63209 0.05510
 C2720 C 0.56258 0.64357 0.06189
 C2721 C 0.52555 0.57837 0.02150
 C2722 C 0.51958 0.56616 0.01577
 H2723 H 0.49984 0.59560 0.02667
 H2724 H 0.48325 0.61783 0.03762
 H2725 H 0.49638 0.64059 0.05275
 H2726 H 0.52615 0.64124 0.05707
 H2727 H 0.58187 0.61489 0.04980
 H2728 H 0.59845 0.59264 0.03889
 H2729 H 0.58540 0.57023 0.02320
 H2730 H 0.55565 0.56958 0.01882
 C2731 C 0.71749 0.15770 0.52991
 C2732 C 0.72776 0.14493 0.53563
 C2733 C 0.72059 0.13080 0.54287
 C2734 C 0.70319 0.12956 0.54440
 C2735 C 0.69291 0.14237 0.53876
 C2736 C 0.70008 0.15642 0.53136
 C2737 C 0.68954 0.16898 0.52559
 C2738 C 0.67244 0.16774 0.52724
 C2739 C 0.66544 0.15411 0.53468
 C2740 C 0.67550 0.14151 0.54037
 C2741 C 0.73112 0.11819 0.54851
 C2742 C 0.74824 0.11951 0.54704
 C2743 C 0.75525 0.13333 0.53997
 C2744 C 0.74519 0.14593 0.53431
 C2745 C 0.69588 0.11503 0.55163
 C2746 C 0.68996 0.10288 0.55758
 C2747 C 0.72479 0.17241 0.52312
 C2748 C 0.73044 0.18499 0.51790
 H2749 H 0.69438 0.17987 0.51979
 H2750 H 0.66457 0.17739 0.52270
 H2751 H 0.65214 0.15327 0.53599
 H2752 H 0.66949 0.13112 0.54602
 H2753 H 0.72626 0.10721 0.55412
 H2754 H 0.75611 0.10975 0.55142
 H2755 H 0.76856 0.13429 0.53887
 H2756 H 0.75121 0.15643 0.52888
 C2757 C 0.71972 0.65765 0.02668
 C2758 C 0.70260 0.65741 0.03045
 C2759 C 0.69543 0.64334 0.03778
 C2760 C 0.70536 0.62951 0.04102
 C2761 C 0.72240 0.62965 0.03693
 C2762 C 0.72960 0.64379 0.02976
 C2763 C 0.74666 0.64371 0.02586
 C2764 C 0.75635 0.63002 0.02894
 C2765 C 0.74931 0.61618 0.03595
 C2766 C 0.73254 0.61593 0.03993
 C2767 C 0.67838 0.64349 0.04176
 C2768 C 0.66866 0.65712 0.03848
 C2769 C 0.67563 0.67082 0.03114
 C2770 C 0.69239 0.67104 0.02715
 C2771 C 0.69810 0.61515 0.04859
 C2772 C 0.69217 0.60318 0.05489
 C2773 C 0.72718 0.67246 0.02033
 C2774 C 0.73269 0.68525 0.01558
 H2775 H 0.75268 0.65418 0.02036
 H2776 H 0.76938 0.63015 0.02587
 H2777 H 0.75688 0.60558 0.03832
 H2778 H 0.72764 0.60489 0.04536
 H2779 H 0.67238 0.63310 0.04743
 H2780 H 0.65564 0.65704 0.04163
 H2781 H 0.66802 0.68135 0.02859
 H2782 H 0.69724 0.68201 0.02151
 C2783 C 0.21596 0.59117 0.71643
 C2784 C 0.21972 0.60751 0.72038
 C2785 C 0.21112 0.62034 0.71225
 C2786 C 0.19880 0.61672 0.70021
 C2787 C 0.19503 0.60036 0.69625
 C2788 C 0.20362 0.58754 0.70439
 C2789 C 0.19962 0.57126 0.70023
 C2790 C 0.18751 0.56776 0.68836
 C2791 C 0.17913 0.58031 0.68040
 C2792 C 0.18279 0.59644 0.68425
 C2793 C 0.21512 0.63660 0.71642
 C2794 C 0.22725 0.64008 0.72827
 C2795 C 0.23565 0.62753 0.73622
 C2796 C 0.23197 0.61140 0.73237
 C2797 C 0.19008 0.62988 0.69192
 C2798 C 0.18309 0.64107 0.68524
 C2799 C 0.22466 0.57799 0.72466
 C2800 C 0.23121 0.56630 0.73086
 H2801 H 0.20577 0.56105 0.70607
 H2802 H 0.18462 0.55525 0.68534
 H2803 H 0.16974 0.57753 0.67119
 H2804 H 0.17593 0.60579 0.67773
 H2805 H 0.20893 0.64680 0.71059
 H2806 H 0.23015 0.65259 0.73130
 H2807 H 0.24506 0.63029 0.74541
 H2808 H 0.23883 0.60204 0.73887
 C2809 C 0.21787 0.09182 0.22045
 C2810 C 0.22728 0.10550 0.21548
 C2811 C 0.21940 0.11878 0.20737
 C2812 C 0.20216 0.11825 0.20421
 C2813 C 0.19272 0.10460 0.20929
 C2814 C 0.20057 0.09142 0.21759
 C2815 C 0.19084 0.07799 0.22274
 C2816 C 0.17390 0.07752 0.21958
 C2817 C 0.16627 0.09030 0.21125
 C2818 C 0.17550 0.10374 0.20618
 C2819 C 0.22908 0.13232 0.20248
 C2820 C 0.24605 0.13271 0.20552
 C2821 C 0.25375 0.11971 0.21343
 C2822 C 0.24453 0.10622 0.21838
 C2823 C 0.19415 0.13179 0.19586
 C2824 C 0.18758 0.14313 0.18902
 C2825 C 0.22599 0.07771 0.22757
 C2826 C 0.23202 0.06535 0.23285
 H2827 H 0.19620 0.06771 0.22920
 H2828 H 0.16667 0.06718 0.22361
 H2829 H 0.15311 0.08982 0.20876
 H2830 H 0.16900 0.11342 0.19979
 H2831 H 0.22366 0.14271 0.19626
 H2832 H 0.25327 0.14316 0.20170
 H2833 H 0.26694 0.12008 0.21576
 H2834 H 0.25105 0.09641 0.22453
 C2835 C 0.71711 1.09223 0.72170
 C2836 C 0.70027 1.09166 0.71681
 C2837 C 0.69293 1.10534 0.70889
 C2838 C 0.70237 1.11963 0.70625
 C2839 C 0.71911 1.12030 0.71146
 C2840 C 0.72651 1.10654 0.71918
 C2841 C 0.74328 1.10744 0.72416
 C2842 C 0.75249 1.12156 0.72161
 C2843 C 0.74526 1.13502 0.71408
 C2844 C 0.72876 1.13447 0.70903
 C2845 C 0.67622 1.10432 0.70366
 C2846 C 0.66699 1.09023 0.70629
 C2847 C 0.67410 1.07693 0.71424
 C2848 C 0.69054 1.07756 0.71946
 C2849 C 0.69489 1.13363 0.69820
 C2850 C 0.68876 1.14533 0.69156
 C2851 C 0.72488 1.07776 0.72847
 C2852 C 0.73073 1.06520 0.73347
 H2853 H 0.74942 1.09728 0.73012
 H2854 H 0.76531 1.12205 0.72552
 H2855 H 0.75247 1.14596 0.71212
 H2856 H 0.72370 1.14525 0.70321
 H2857 H 0.67013 1.11437 0.69747
 H2858 H 0.65424 1.08963 0.70220
 H2859 H 0.66684 1.06608 0.71639
 H2860 H 0.69551 1.06686 0.72553
 C2861 C 0.71991 0.59351 0.21854
 C2862 C 0.71471 0.60642 0.22893
 C2863 C 0.70670 0.62017 0.22185
 C2864 C 0.70392 0.62092 0.20441
 C2865 C 0.70897 0.60792 0.19403
 C2866 C 0.71709 0.59422 0.20109
 C2867 C 0.72221 0.58147 0.19042
 C2868 C 0.71941 0.58225 0.17328
 C2869 C 0.71126 0.59553 0.16641
 C2870 C 0.70608 0.60827 0.17660
 C2871 C 0.70158 0.63292 0.23250
 C2872 C 0.70430 0.63210 0.24966
 C2873 C 0.71213 0.61865 0.25658
 C2874 C 0.71730 0.60592 0.24639
 C2875 C 0.69620 0.63519 0.19711
 C2876 C 0.68997 0.64714 0.19107
 C2877 C 0.72740 0.57910 0.22578
 C2878 C 0.73305 0.56663 0.23123
 H2879 H 0.72850 0.57082 0.19517
 H2880 H 0.72356 0.57249 0.16529
 H2881 H 0.70898 0.59600 0.15310
 H2882 H 0.69983 0.61836 0.17066
 H2883 H 0.69540 0.64362 0.22771
 H2884 H 0.70030 0.64196 0.25763
 H2885 H 0.71422 0.61807 0.26992
 H2886 H 0.72336 0.59571 0.25234
 C2887 C 0.53282 0.15786 0.71914
 C2888 C 0.52284 0.14523 0.71258
 C2889 C 0.53032 0.13179 0.70442
 C2890 C 0.54776 0.13103 0.70291
 C2891 C 0.55774 0.14373 0.70934
 C2892 C 0.55025 0.15715 0.71754
 C2893 C 0.56051 0.16964 0.72398
 C2894 C 0.57765 0.16886 0.72239
 C2895 C 0.58494 0.15583 0.71422
 C2896 C 0.57517 0.14336 0.70775
 C2897 C 0.52007 0.11939 0.69782
 C2898 C 0.50292 0.12026 0.69924
 C2899 C 0.49561 0.13340 0.70722
 C2900 C 0.50539 0.14578 0.71385
 C2901 C 0.55539 0.11704 0.69504
 C2902 C 0.56159 0.10526 0.68864
 C2903 C 0.52518 0.17202 0.72669
 C2904 C 0.51929 0.18429 0.73233
 H2905 H 0.55542 0.18010 0.73034
 H2906 H 0.58530 0.17849 0.72744
 H2907 H 0.59826 0.15537 0.71289
 H2908 H 0.58141 0.13346 0.70151
 H2909 H 0.52517 0.10895 0.69145
 H2910 H 0.49527 0.11068 0.69410
 H2911 H 0.48228 0.13402 0.70828
 H2912 H 0.49914 0.15576 0.71995
 C2913 C 1.03243 0.15799 0.21761
 C2914 C 1.04450 0.16105 0.20519
 C2915 C 1.05256 0.14785 0.19719
 C2916 C 1.04849 0.13167 0.20163
 C2917 C 1.03639 0.12862 0.21402
 C2918 C 1.02834 0.14183 0.22204
 C2919 C 1.01630 0.13850 0.23437
 C2920 C 1.01230 0.12255 0.23868
 C2921 C 1.02016 0.10963 0.23085
 C2922 C 1.03208 0.11255 0.21866
 C2923 C 1.06459 0.15120 0.18483
 C2924 C 1.06853 0.16716 0.18049
 C2925 C 1.06065 0.18008 0.18828
 C2926 C 1.04877 0.17714 0.20050
 C2927 C 1.05666 0.11812 0.19348
 C2928 C 1.06325 0.10667 0.18689
 C2929 C 1.02431 0.17155 0.22575
 C2930 C 1.01817 0.18347 0.23186
 H2931 H 1.00986 0.14817 0.24080
 H2932 H 1.00306 0.12022 0.24814
 H2933 H 1.01701 0.09726 0.23424
 H2934 H 1.03784 0.10209 0.21294
 H2935 H 1.07105 0.14155 0.17841
 H2936 H 1.07775 0.16950 0.17100
 H2937 H 1.06374 0.19245 0.18486
 H2938 H 1.04299 0.18761 0.20619
 C2939 C 0.21167 0.66537 0.53685
 C2940 C 0.19588 0.66035 0.53114
 C2941 C 0.18693 0.64831 0.54010
 C2942 C 0.19393 0.64119 0.55456
 C2943 C 0.20946 0.64660 0.56058
 C2944 C 0.21835 0.65875 0.55171
 C2945 C 0.23378 0.66408 0.55806
 C2946 C 0.24024 0.65759 0.57275
 C2947 C 0.23157 0.64567 0.58141
 C2948 C 0.21636 0.64018 0.57544
 C2949 C 0.17101 0.64375 0.53438
 C2950 C 0.16415 0.65088 0.52019
 C2951 C 0.17297 0.66255 0.51134
 C2952 C 0.18863 0.66731 0.51672
 C2953 C 0.18555 0.62781 0.56281
 C2954 C 0.17897 0.61635 0.56942
 C2955 C 0.22046 0.67820 0.52815
 C2956 C 0.22722 0.68953 0.52149
 H2957 H 0.24099 0.67332 0.55177
 H2958 H 0.25205 0.66181 0.57744
 H2959 H 0.23664 0.64066 0.59282
 H2960 H 0.21003 0.63096 0.58266
 H2961 H 0.16367 0.63475 0.54088
 H2962 H 0.15193 0.64731 0.51602
 H2963 H 0.16765 0.66796 0.50025
 H2964 H 0.19496 0.67652 0.50947
 C2965 C 0.21524 0.15857 1.02838
 C2966 C 0.22570 0.14631 1.03489
 C2967 C 0.21873 0.13245 1.04281
 C2968 C 0.20134 0.13097 1.04424
 C2969 C 0.19087 0.14324 1.03775
 C2970 C 0.19784 0.15701 1.02964
 C2971 C 0.18713 0.16900 1.02300
 C2972 C 0.17003 0.16750 1.02449
 C2973 C 0.16322 0.15418 1.03265
 C2974 C 0.17346 0.14212 1.03920
 C2975 C 0.22944 0.12035 1.04924
 C2976 C 0.24655 0.12192 1.04787
 C2977 C 0.25336 0.13548 1.04013
 C2978 C 0.24312 0.14758 1.03369
 C2979 C 0.19424 0.11667 1.05211
 C2980 C 0.18843 0.10469 1.05849
 C2981 C 0.22235 0.17319 1.02120
 C2982 C 0.22799 0.18571 1.01586
 H2983 H 0.19183 0.17964 1.01662
 H2984 H 0.16203 0.17670 1.01926
 H2985 H 0.14993 0.15313 1.03384
 H2986 H 0.16759 0.13195 1.04539
 H2987 H 0.22473 0.10959 1.05540
 H2988 H 0.25456 0.11256 1.05286
 H2989 H 0.26666 0.13664 1.03909
 H2990 H 0.24900 0.15789 1.02774
 C2991 C 0.21396 0.71548 0.59106
 C2992 C 0.21722 0.71974 0.60784
 C2993 C 0.20902 0.71137 0.62097
 C2994 C 0.19760 0.69881 0.61723
 C2995 C 0.19437 0.69452 0.60043
 C2996 C 0.20259 0.70286 0.58730
 C2997 C 0.19902 0.69847 0.57059
 C2998 C 0.18747 0.68639 0.56698
 C2999 C 0.17952 0.67816 0.57981
 C3000 C 0.18292 0.68209 0.59638
 C3001 C 0.21248 0.71586 0.63768
 C3002 C 0.22370 0.72826 0.64129
 C3003 C 0.23170 0.73643 0.62843
 C3004 C 0.22854 0.73227 0.61187
 C3005 C 0.18920 0.69038 0.63071
 C3006 C 0.18247 0.68361 0.64219
 C3007 C 0.22206 0.72418 0.57758
 C3008 C 0.22830 0.73095 0.56583
 H3009 H 0.20487 0.70449 0.56014
 H3010 H 0.18453 0.68354 0.55414
 H3011 H 0.17058 0.66876 0.57691
 H3012 H 0.17636 0.67541 0.60595
 H3013 H 0.20658 0.70987 0.64811
 H3014 H 0.22619 0.73153 0.65413
 H3015 H 0.24040 0.74605 0.63130
 H3016 H 0.23508 0.73897 0.60230
 C3017 C 0.21682 0.21319 1.09060
 C3018 C 0.20498 0.20073 1.08796
 C3019 C 0.19710 0.19325 1.10183
 C3020 C 0.20127 0.19813 1.11825
 C3021 C 0.21319 0.21051 1.12088
 C3022 C 0.22097 0.21808 1.10700
 C3023 C 0.23279 0.23046 1.10992
 C3024 C 0.23684 0.23523 1.12611
 C3025 C 0.22925 0.22783 1.13968
 C3026 C 0.21755 0.21560 1.13718
 C3027 C 0.18510 0.18104 1.09888
 C3028 C 0.18097 0.17636 1.08269
 C3029 C 0.18872 0.18362 1.06913
 C3030 C 0.20065 0.19561 1.07165
 C3031 C 0.19335 0.19046 1.13246
 C3032 C 0.18695 0.18425 1.14445
 C3033 C 0.22440 0.22117 1.07639
 C3034 C 0.23016 0.22753 1.06416
 H3035 H 0.23904 0.23657 1.09975
 H3036 H 0.24592 0.24472 1.12812
 H3037 H 0.23243 0.23157 1.15223
 H3038 H 0.21199 0.21022 1.14814
 H3039 H 0.17872 0.17505 1.10904
 H3040 H 0.17167 0.16708 1.08064
 H3041 H 0.18538 0.18002 1.05660
 H3042 H 0.20627 0.20092 1.06068
 C3043 C 0.72067 0.53299 0.15426
 C3044 C 0.70638 0.54286 0.15563
 C3045 C 0.69958 0.55034 0.14118
 C3046 C 0.70694 0.54768 0.12539
 C3047 C 0.72118 0.53776 0.12401
 C3048 C 0.72808 0.53042 0.13850
 C3049 C 0.74234 0.52060 0.13684
 C3050 C 0.74957 0.51808 0.12128
 C3051 C 0.74282 0.52525 0.10711
 C3052 C 0.72879 0.53499 0.10838
 C3053 C 0.68549 0.56040 0.14291
 C3054 C 0.67825 0.56292 0.15845
 C3055 C 0.68480 0.55548 0.17255
 C3056 C 0.69868 0.54555 0.17125
 C3057 C 0.69968 0.55494 0.11058
 C3058 C 0.69348 0.56091 0.09833
 C3059 C 0.72779 0.52578 0.16916
 C3060 C 0.73314 0.52031 0.18203
 H3061 H 0.74802 0.51476 0.14751
 H3062 H 0.76047 0.51053 0.12022
 H3063 H 0.74849 0.52326 0.09505
 H3064 H 0.72400 0.54032 0.09701
 H3065 H 0.67994 0.56644 0.13229
 H3066 H 0.66750 0.57067 0.15957
 H3067 H 0.67912 0.55745 0.18457
 H3068 H 0.70333 0.54011 0.18263
 C3069 C 0.72029 1.03296 0.65513
 C3070 C 0.72164 1.02509 0.63949
 C3071 C 0.71427 1.03216 0.62509
 C3072 C 0.70554 1.04702 0.62644
 C3073 C 0.70412 1.05485 0.64210
 C3074 C 0.71163 1.04787 0.65646
 C3075 C 0.71010 1.05598 0.67197
 C3076 C 0.70131 1.07048 0.67325
 C3077 C 0.69385 1.07723 0.65925
 C3078 C 0.69522 1.06958 0.64381
 C3079 C 0.71577 1.02406 0.60959
 C3080 C 0.72428 1.00939 0.60836
 C3081 C 0.73147 1.00247 0.62245
 C3082 C 0.73021 1.01019 0.63787
 C3083 C 0.69803 1.05428 0.61175
 C3084 C 0.69174 1.06039 0.59961
 C3085 C 0.72726 1.02554 0.67001
 C3086 C 0.73246 1.01986 0.68286
 H3087 H 0.71561 1.05121 0.68327
 H3088 H 0.70029 1.07651 0.68516
 H3089 H 0.68699 1.08847 0.66035
 H3090 H 0.68921 1.07531 0.63326
 H3091 H 0.71036 1.02895 0.59829
 H3092 H 0.72529 1.00334 0.59641
 H3093 H 0.73807 0.99107 0.62142
 H3094 H 0.73602 1.00435 0.64847
 C3095 C 0.53019 0.21437 0.65680
 C3096 C 0.53279 0.19735 0.65764
 C3097 C 0.54144 0.18932 0.64462
 C3098 C 0.54712 0.19830 0.63068
 C3099 C 0.54425 0.21526 0.62970
 C3100 C 0.53578 0.22333 0.64283
 C3101 C 0.53315 0.24030 0.64166
 C3102 C 0.53872 0.24907 0.62788
 C3103 C 0.54699 0.24120 0.61502
 C3104 C 0.54976 0.22449 0.61586
 C3105 C 0.54428 0.17238 0.64594
 C3106 C 0.53860 0.16359 0.65968
 C3107 C 0.52992 0.17140 0.67229
 C3108 C 0.52702 0.18808 0.67136
 C3109 C 0.55578 0.19010 0.61725
 C3110 C 0.56285 0.18345 0.60593
 C3111 C 0.52275 0.22270 0.67086
 C3112 C 0.51723 0.22898 0.68321
 H3113 H 0.52674 0.24694 0.65133
 H3114 H 0.53660 0.26205 0.62717
 H3115 H 0.55130 0.24806 0.60435
 H3116 H 0.55628 0.21892 0.60556
 H3117 H 0.55092 0.16576 0.63641
 H3118 H 0.54089 0.15065 0.66051
 H3119 H 0.52544 0.16452 0.68285
 H3120 H 0.52027 0.19360 0.68153
 C3121 C 1.03018 0.21334 0.15710
 C3122 C 1.03031 0.19612 0.15651
 C3123 C 1.03902 0.18800 0.14358
 C3124 C 1.04732 0.19714 0.13117
 C3125 C 1.04693 0.21436 0.13159
 C3126 C 1.03835 0.22248 0.14461
 C3127 C 1.03824 0.23969 0.14486
 C3128 C 1.04636 0.24863 0.13257
 C3129 C 1.05475 0.24070 0.11983
 C3130 C 1.05508 0.22376 0.11929
 C3131 C 1.03926 0.17078 0.14344
 C3132 C 1.03101 0.16184 0.15565
 C3133 C 1.02234 0.16978 0.16818
 C3134 C 1.02198 0.18671 0.16870
 C3135 C 1.05613 0.18890 0.11787
 C3136 C 1.06337 0.18225 0.10665
 C3137 C 1.02262 0.22155 0.17118
 C3138 C 1.01702 0.22784 0.18351
 H3139 H 1.03184 0.24640 0.15449
 H3140 H 1.04614 0.26179 0.13293
 H3141 H 1.06104 0.24770 0.11031
 H3142 H 1.06179 0.21816 0.10914
 H3143 H 1.04582 0.16406 0.13392
 H3144 H 1.03137 0.14869 0.15540
 H3145 H 1.01598 0.16278 0.17765
 H3146 H 1.01515 0.19232 0.17876
 C3147 C 0.59284 0.21810 0.71791
 C3148 C 0.59078 0.20682 0.70471
 C3149 C 0.60477 0.19875 0.69795
 C3150 C 0.62076 0.20217 0.70428
 C3151 C 0.62282 0.21349 0.71743
 C3152 C 0.60880 0.22147 0.72429
 C3153 C 0.61114 0.23269 0.73746
 C3154 C 0.62690 0.23595 0.74369
 C3155 C 0.64061 0.22816 0.73699
 C3156 C 0.63867 0.21705 0.72401
 C3157 C 0.60239 0.18733 0.68494
 C3158 C 0.58663 0.18401 0.67876
 C3159 C 0.57296 0.19195 0.68531
 C3160 C 0.57492 0.20325 0.69810
 C3161 C 0.63508 0.19417 0.69713
 C3162 C 0.64695 0.18760 0.69108
 C3163 C 0.57840 0.22584 0.72511
 C3164 C 0.56584 0.23154 0.73064
 H3165 H 0.60084 0.23905 0.74305
 H3166 H 0.62848 0.24458 0.75377
 H3167 H 0.65283 0.23074 0.74188
 H3168 H 0.64971 0.21128 0.71923
 H3169 H 0.61265 0.18082 0.67945
 H3170 H 0.58501 0.17520 0.66885
 H3171 H 0.56077 0.18929 0.68051
 H3172 H 0.56386 0.20905 0.70280
 C3173 C 1.09203 0.21545 0.21844
 C3174 C 1.10451 0.22481 0.21065
 C3175 C 1.11804 0.21694 0.20276
 C3176 C 1.11895 0.19974 0.20267
 C3177 C 1.10646 0.19036 0.21047
 C3178 C 1.09302 0.19824 0.21849
 C3179 C 1.08079 0.18861 0.22639
 C3180 C 1.08173 0.17170 0.22624
 C3181 C 1.09475 0.16399 0.21819
 C3182 C 1.10703 0.17316 0.21040
 C3183 C 1.13037 0.22656 0.19503
 C3184 C 1.12935 0.24348 0.19508
 C3185 C 1.11612 0.25117 0.20279
 C3186 C 1.10380 0.24201 0.21051
 C3187 C 1.13283 0.19173 0.19472
 C3188 C 1.14448 0.18519 0.18822
 C3189 C 1.07769 0.22337 0.22560
 C3190 C 1.06522 0.22932 0.23107
 H3191 H 1.07035 0.19403 0.23272
 H3192 H 1.07223 0.16453 0.23227
 H3193 H 1.09534 0.15084 0.21797
 H3194 H 1.11694 0.16661 0.20433
 H3195 H 1.14090 0.22114 0.18885
 H3196 H 1.13889 0.25065 0.18910
 H3197 H 1.11539 0.26432 0.20280
 H3198 H 1.09376 0.24854 0.21637
 C3199 C 0.16087 0.71480 0.53876
 C3200 C 0.15930 0.71598 0.55633
 C3201 C 0.14728 0.70645 0.56481
 C3202 C 0.13673 0.69599 0.55566
 C3203 C 0.13848 0.69461 0.53813
 C3204 C 0.15055 0.70408 0.52966
 C3205 C 0.15198 0.70258 0.51213
 C3206 C 0.14176 0.69203 0.50322
 C3207 C 0.13004 0.68268 0.51151
 C3208 C 0.12836 0.68391 0.52877
 C3209 C 0.14617 0.70759 0.58240
 C3210 C 0.15664 0.71785 0.59136
 C3211 C 0.16829 0.72729 0.58306
 C3212 C 0.16964 0.72645 0.56574
 C3213 C 0.12355 0.68723 0.56408
 C3214 C 0.11221 0.68025 0.57074
 C3215 C 0.17372 0.72390 0.53022
 C3216 C 0.18502 0.73088 0.52351
 H3217 H 0.16096 0.70955 0.50512
 H3218 H 0.14302 0.69104 0.48981
 H3219 H 0.12221 0.67442 0.50455
 H3220 H 0.11908 0.67635 0.53466
 H3221 H 0.13733 0.70044 0.58940
 H3222 H 0.15574 0.71845 0.60482
 H3223 H 0.17643 0.73521 0.59008
 H3224 H 0.17897 0.73395 0.55987
 C3225 C 0.15910 0.21547 1.03630
 C3226 C 0.15818 0.21484 1.05394
 C3227 C 0.14528 0.20592 1.06178
 C3228 C 0.13327 0.19783 1.05194
 C3229 C 0.13425 0.19838 1.03430
 C3230 C 0.14715 0.20730 1.02646
 C3231 C 0.14784 0.20772 1.00882
 C3232 C 0.13620 0.19944 0.99919
 C3233 C 0.12364 0.19064 1.00685
 C3234 C 0.12260 0.19009 1.02420
 C3235 C 0.14473 0.20531 1.07943
 C3236 C 0.15652 0.21338 1.08906
 C3237 C 0.16903 0.22225 1.08140
 C3238 C 0.16994 0.22298 1.06405
 C3239 C 0.11957 0.18941 1.05987
 C3240 C 0.10791 0.18266 1.06620
 C3241 C 0.17282 0.22377 1.02831
 C3242 C 0.18468 0.23011 1.02194
 H3243 H 0.15740 0.21437 1.00229
 H3244 H 0.13694 0.19984 0.98571
 H3245 H 0.11465 0.18421 0.99931
 H3246 H 0.11262 0.18305 1.02957
 H3247 H 0.13524 0.19855 1.08595
 H3248 H 0.15597 0.21273 1.10254
 H3249 H 0.17818 0.22848 1.08894
 H3250 H 0.17998 0.22994 1.05868
 C3251 C 0.65842 0.53485 0.21796
 C3252 C 0.65916 0.55178 0.21467
 C3253 C 0.64570 0.55964 0.20660
 C3254 C 0.63144 0.55059 0.20216
 C3255 C 0.63062 0.53372 0.20564
 C3256 C 0.64417 0.52582 0.21353
 C3257 C 0.64313 0.50894 0.21679
 C3258 C 0.62907 0.50009 0.21239
 C3259 C 0.61581 0.50780 0.20468
 C3260 C 0.61651 0.52442 0.20131
 C3261 C 0.64688 0.57648 0.20309
 C3262 C 0.66093 0.58533 0.20754
 C3263 C 0.67401 0.57769 0.21562
 C3264 C 0.67321 0.56112 0.21918
 C3265 C 0.61754 0.55865 0.19417
 C3266 C 0.60587 0.56521 0.18767
 C3267 C 0.67267 0.52671 0.22514
 C3268 C 0.68510 0.52061 0.23058
 H3269 H 0.65312 0.50242 0.22280
 H3270 H 0.62847 0.48718 0.21498
 H3271 H 0.60493 0.50088 0.20128
 H3272 H 0.60589 0.52986 0.19527
 H3273 H 0.63700 0.58296 0.19687
 H3274 H 0.66165 0.59819 0.20475
 H3275 H 0.68483 0.58464 0.21914
 H3276 H 0.68374 0.55573 0.22543
 C3277 C 0.65669 1.03160 0.71706
 C3278 C 0.65693 1.03585 0.69992
 C3279 C 0.64333 1.04431 0.69277
 C3280 C 0.62948 1.04829 0.70275
 C3281 C 0.62924 1.04403 0.71988
 C3282 C 0.64290 1.03567 0.72706
 C3283 C 0.64242 1.03160 0.74421
 C3284 C 0.62882 1.03566 0.75401
 C3285 C 0.61546 1.04382 0.74700
 C3286 C 0.61559 1.04798 0.73014
 C3287 C 0.64396 1.04865 0.67568
 C3288 C 0.65756 1.04459 0.66588
 C3289 C 0.67075 1.03612 0.67281
 C3290 C 0.67057 1.03187 0.68965
 C3291 C 0.61534 1.05645 0.69533
 C3292 C 0.60351 1.06302 0.68911
 C3293 C 0.67104 1.02386 0.72450
 C3294 C 0.68351 1.01807 0.73021
 H3295 H 0.65251 1.02523 0.75021
 H3296 H 0.62865 1.03246 0.76711
 H3297 H 0.60492 1.04695 0.75467
 H3298 H 0.60492 1.05435 0.72526
 H3299 H 0.63397 1.05520 0.66971
 H3300 H 0.65783 1.04795 0.65282
 H3301 H 0.68117 1.03280 0.66510
 H3302 H 0.68118 1.02537 0.69446
 C3303 C 0.84153 0.46517 0.28418
 C3304 C 0.83856 0.45343 0.29680
 C3305 C 0.85207 0.44518 0.30438
 C3306 C 0.86845 0.44885 0.29944
 C3307 C 0.87141 0.46060 0.28685
 C3308 C 0.85790 0.46877 0.27919
 C3309 C 0.86115 0.48043 0.26661
 C3310 C 0.87730 0.48395 0.26175
 C3311 C 0.89052 0.47598 0.26925
 C3312 C 0.88769 0.46443 0.28166
 C3313 C 0.84879 0.43330 0.31673
 C3314 C 0.83262 0.42962 0.32143
 C3315 C 0.81943 0.43771 0.31406
 C3316 C 0.82228 0.44957 0.30196
 C3317 C 0.88231 0.44067 0.30735
 C3318 C 0.89401 0.43409 0.31379
 C3319 C 0.82768 0.47332 0.27626
 C3320 C 0.81571 0.47963 0.27007
 H3321 H 0.85127 0.48695 0.26043
 H3322 H 0.87957 0.49291 0.25211
 H3323 H 0.90304 0.47876 0.26543
 H3324 H 0.89838 0.45856 0.28710
 H3325 H 0.85866 0.42665 0.32279
 H3326 H 0.83031 0.42040 0.33080
 H3327 H 0.80691 0.43469 0.31761
 H3328 H 0.81158 0.45547 0.29656
 C3329 C 0.83725 0.96204 0.78850
 C3330 C 0.83289 0.94948 0.79982
 C3331 C 0.84546 0.94075 0.80840
 C3332 C 0.86229 0.94457 0.80557
 C3333 C 0.86664 0.95714 0.79429
 C3334 C 0.85407 0.96590 0.78574
 C3335 C 0.85870 0.97841 0.77453
 C3336 C 0.87530 0.98216 0.77184
 C3337 C 0.88759 0.97360 0.78019
 C3338 C 0.88339 0.96122 0.79129
 C3339 C 0.84084 0.92831 0.81968
 C3340 C 0.82425 0.92459 0.82243
 C3341 C 0.81196 0.93310 0.81402
 C3342 C 0.81615 0.94540 0.80282
 C3343 C 0.87521 0.93561 0.81416
 C3344 C 0.88630 0.92844 0.82101
 C3345 C 0.82439 0.97090 0.77972
 C3346 C 0.81317 0.97780 0.77280
 H3347 H 0.84958 0.98541 0.76775
 H3348 H 0.87862 0.99177 0.76323
 H3349 H 0.90047 0.97656 0.77806
 H3350 H 0.89341 0.95492 0.79748
 H3351 H 0.84997 0.92134 0.82650
 H3352 H 0.82090 0.91505 0.83111
 H3353 H 0.79910 0.93016 0.81620
 H3354 H 0.80611 0.95167 0.79661
 C3355 C 0.40913 0.28367 0.78565
 C3356 C 0.39756 0.29215 0.77564
 C3357 C 0.38473 0.30127 0.78330
 C3358 C 0.38343 0.30168 0.80091
 C3359 C 0.39502 0.29322 0.81093
 C3360 C 0.40786 0.28411 0.80327
 C3361 C 0.41921 0.27561 0.81354
 C3362 C 0.41801 0.27624 0.83087
 C3363 C 0.40557 0.28530 0.83836
 C3364 C 0.39415 0.29369 0.82856
 C3365 C 0.37346 0.30986 0.77303
 C3366 C 0.37476 0.30935 0.75570
 C3367 C 0.38720 0.30030 0.74822
 C3368 C 0.39851 0.29177 0.75801
 C3369 C 0.36976 0.31023 0.80866
 C3370 C 0.35813 0.31707 0.81489
 C3371 C 0.42293 0.27536 0.77788
 C3372 C 0.43491 0.26909 0.77174
 H3373 H 0.42916 0.26848 0.80830
 H3374 H 0.42688 0.26979 0.83853
 H3375 H 0.40478 0.28586 0.85183
 H3376 H 0.38470 0.30059 0.83496
 H3377 H 0.36358 0.31709 0.77827
 H3378 H 0.36604 0.31601 0.74804
 H3379 H 0.38813 0.29992 0.73475
 H3380 H 0.40800 0.28492 0.75162
 C3381 C 0.90959 0.28433 0.28625
 C3382 C 0.89778 0.29271 0.27644
 C3383 C 0.88512 0.30187 0.28432
 C3384 C 0.88420 0.30241 0.30196
 C3385 C 0.89601 0.29401 0.31177
 C3386 C 0.90868 0.28486 0.30389
 C3387 C 0.92023 0.27641 0.31396
 C3388 C 0.91933 0.27704 0.33131
 C3389 C 0.90705 0.28614 0.33901
 C3390 C 0.89547 0.29454 0.32942
 C3391 C 0.87361 0.31038 0.27424
 C3392 C 0.87455 0.30978 0.25689
 C3393 C 0.88685 0.30071 0.24920
 C3394 C 0.89836 0.29223 0.25880
 C3395 C 0.87073 0.31107 0.30995
 C3396 C 0.85926 0.31800 0.31637
 C3397 C 0.92321 0.27594 0.27824
 C3398 C 0.93506 0.26955 0.27196
 H3399 H 0.93008 0.26925 0.30856
 H3400 H 0.92831 0.27057 0.33883
 H3401 H 0.90651 0.28673 0.35250
 H3402 H 0.88616 0.30146 0.33597
 H3403 H 0.86383 0.31762 0.27965
 H3404 H 0.86566 0.31637 0.24938
 H3405 H 0.88751 0.30025 0.23571
 H3406 H 0.90772 0.28536 0.25224
 C3407 C 0.33909 0.78758 0.46574
 C3408 C 0.34039 0.80467 0.46765
 C3409 C 0.35251 0.81347 0.45851
 C3410 C 0.36344 0.80511 0.44774
 C3411 C 0.36212 0.78803 0.44582
 C3412 C 0.34989 0.77925 0.45483
 C3413 C 0.34871 0.76222 0.45260
 C3414 C 0.35932 0.75408 0.44177
 C3415 C 0.37130 0.76266 0.43298
 C3416 C 0.37274 0.77944 0.43493
 C3417 C 0.35327 0.83058 0.46026
 C3418 C 0.34240 0.83877 0.47078
 C3419 C 0.33068 0.83016 0.47987
 C3420 C 0.32965 0.81330 0.47840
 C3421 C 0.37628 0.81398 0.43894
 C3422 C 0.38719 0.82115 0.43181
 C3423 C 0.32582 0.77886 0.47403
 C3424 C 0.31403 0.77232 0.48033
 H3425 H 0.33961 0.75503 0.45920
 H3426 H 0.35825 0.74105 0.44021
 H3427 H 0.37951 0.75628 0.42458
 H3428 H 0.38222 0.78558 0.42778
 H3429 H 0.36217 0.83782 0.45343
 H3430 H 0.34307 0.85188 0.47186
 H3431 H 0.32223 0.83658 0.48799
 H3432 H 0.32024 0.80716 0.48564
 C3433 C 0.34113 0.28175 0.96430
 C3434 C 0.33980 0.28711 0.94754
 C3435 C 0.35287 0.29618 0.94022
 C3436 C 0.36729 0.29962 0.94961
 C3437 C 0.36869 0.29413 0.96631
 C3438 C 0.35555 0.28517 0.97368
 C3439 C 0.35715 0.27992 0.99042
 C3440 C 0.37135 0.28339 0.99963
 C3441 C 0.38422 0.29214 0.99243
 C3442 C 0.38297 0.29748 0.97596
 C3443 C 0.35112 0.30169 0.92356
 C3444 C 0.33694 0.29817 0.91433
 C3445 C 0.32426 0.28910 0.92143
 C3446 C 0.32554 0.28370 0.93786
 C3447 C 0.38081 0.30854 0.94200
 C3448 C 0.39216 0.31573 0.93563
 C3449 C 0.32711 0.27386 0.97216
 C3450 C 0.31479 0.26810 0.97819
 H3451 H 0.34748 0.27304 0.99654
 H3452 H 0.37238 0.27928 1.01243
 H3453 H 0.39522 0.29482 0.99964
 H3454 H 0.39329 0.30427 0.97092
 H3455 H 0.36068 0.30875 0.91749
 H3456 H 0.33581 0.30242 0.90159
 H3457 H 0.31341 0.28617 0.91414
 H3458 H 0.31530 0.27673 0.94281
 C3459 C 0.78397 0.46467 0.34090
 C3460 C 0.79270 0.47386 0.35297
 C3461 C 0.80066 0.46586 0.36650
 C3462 C 0.79991 0.44870 0.36784
 C3463 C 0.79130 0.43949 0.35569
 C3464 C 0.78315 0.44751 0.34228
 C3465 C 0.77439 0.43806 0.33043
 C3466 C 0.77387 0.42117 0.33170
 C3467 C 0.78206 0.41331 0.34465
 C3468 C 0.79065 0.42231 0.35658
 C3469 C 0.80931 0.47533 0.37842
 C3470 C 0.81009 0.49220 0.37699
 C3471 C 0.80233 0.50001 0.36374
 C3472 C 0.79371 0.49101 0.35183
 C3473 C 0.80774 0.44060 0.38189
 C3474 C 0.81420 0.43415 0.39374
 C3475 C 0.77654 0.47273 0.32661
 C3476 C 0.77083 0.47899 0.31429
 H3477 H 0.76790 0.44359 0.32007
 H3478 H 0.76705 0.41415 0.32261
 H3479 H 0.78168 0.40018 0.34550
 H3480 H 0.79677 0.41566 0.36647
 H3481 H 0.81558 0.46981 0.38894
 H3482 H 0.81678 0.49925 0.38621
 H3483 H 0.80297 0.51312 0.36268
 H3484 H 0.78784 0.49764 0.34177
 C3485 C 0.78663 0.95890 0.83687
 C3486 C 0.80335 0.96309 0.83999
 C3487 C 0.81283 0.95384 0.85154
 C3488 C 0.80548 0.94057 0.86000
 C3489 C 0.78902 0.93591 0.85628
 C3490 C 0.77956 0.94511 0.84468
 C3491 C 0.76319 0.94013 0.84102
 C3492 C 0.75638 0.92641 0.84858
 C3493 C 0.76564 0.91739 0.85990
 C3494 C 0.78177 0.92205 0.86379
 C3495 C 0.82965 0.95793 0.85409
 C3496 C 0.83696 0.97069 0.84533
 C3497 C 0.82770 0.97977 0.83407
 C3498 C 0.81106 0.97614 0.83145
 C3499 C 0.81463 0.93208 0.87293
 C3500 C 0.82194 0.92535 0.88407
 C3501 C 0.77723 0.96796 0.82455
 C3502 C 0.77016 0.97510 0.81352
 H3503 H 0.75552 0.94672 0.83225
 H3504 H 0.74386 0.92272 0.84560
 H3505 H 0.76031 0.90670 0.86569
 H3506 H 0.78852 0.91460 0.87261
 H3507 H 0.83739 0.95114 0.86264
 H3508 H 0.84990 0.97352 0.84728
 H3509 H 0.83345 0.98964 0.82726
 H3510 H 0.80440 0.98350 0.82249
 C3511 C 0.28087 0.78894 0.40921
 C3512 C 0.29040 0.77998 0.39764
 C3513 C 0.29970 0.78827 0.38522
 C3514 C 0.29944 0.80547 0.38447
 C3515 C 0.28993 0.81445 0.39607
 C3516 C 0.28051 0.80615 0.40839
 C3517 C 0.27106 0.81539 0.41982
 C3518 C 0.27111 0.83232 0.41925
 C3519 C 0.28046 0.84043 0.40731
 C3520 C 0.28974 0.83166 0.39579
 C3521 C 0.30921 0.77903 0.37384
 C3522 C 0.30954 0.76211 0.37472
 C3523 C 0.30045 0.75402 0.38688
 C3524 C 0.29097 0.76279 0.39824
 C3525 C 0.30871 0.81388 0.37158
 C3526 C 0.31624 0.82063 0.36061
 C3527 C 0.27255 0.78061 0.42278
 C3528 C 0.26642 0.77419 0.43480
 H3529 H 0.26366 0.80964 0.42941
 H3530 H 0.26396 0.83920 0.42821
 H3531 H 0.28055 0.85359 0.40701
 H3532 H 0.29683 0.83850 0.38675
 H3533 H 0.31652 0.78477 0.36418
 H3534 H 0.31689 0.75524 0.36592
 H3535 H 0.30075 0.74087 0.38751
 H3536 H 0.28408 0.75595 0.40745
 C3537 C 0.27868 0.28799 0.90672
 C3538 C 0.28241 0.27921 0.89203
 C3539 C 0.29135 0.28685 0.87892
 C3540 C 0.29654 0.30322 0.88061
 C3541 C 0.29276 0.31204 0.89528
 C3542 C 0.28369 0.30444 0.90832
 C3543 C 0.28000 0.31352 0.92284
 C3544 C 0.28513 0.32962 0.92442
 C3545 C 0.29417 0.33699 0.91178
 C3546 C 0.29796 0.32836 0.89732
 C3547 C 0.29501 0.27778 0.86439
 C3548 C 0.28999 0.26163 0.86285
 C3549 C 0.28126 0.25417 0.87567
 C3550 C 0.27748 0.26280 0.89013
 C3551 C 0.30563 0.31103 0.86719
 C3552 C 0.31303 0.31746 0.85593
 C3553 C 0.27086 0.27985 0.92072
 C3554 C 0.26519 0.27351 0.93301
 H3555 H 0.27305 0.30834 0.93308
 H3556 H 0.28202 0.33644 0.93549
 H3557 H 0.29820 0.34948 0.91314
 H3558 H 0.30500 0.33462 0.88780
 H3559 H 0.30181 0.28304 0.85409
 H3560 H 0.29290 0.25488 0.85164
 H3561 H 0.27738 0.24162 0.87441
 H3562 H 0.27063 0.25649 0.89975
 C3563 C 0.46592 0.28775 0.83997
 C3564 C 0.47040 0.28405 0.85661
 C3565 C 0.46239 0.29209 0.87004
 C3566 C 0.44993 0.30375 0.86673
 C3567 C 0.44551 0.30753 0.85007
 C3568 C 0.45358 0.29955 0.83664
 C3569 C 0.44891 0.30348 0.82007
 C3570 C 0.43646 0.31477 0.81691
 C3571 C 0.42861 0.32260 0.83003
 C3572 C 0.43306 0.31910 0.84646
 C3573 C 0.46708 0.28817 0.88660
 C3574 C 0.47931 0.27665 0.88978
 C3575 C 0.48712 0.26878 0.87663
 C3576 C 0.48277 0.27239 0.86021
 C3577 C 0.44158 0.31168 0.88050
 C3578 C 0.43479 0.31798 0.89220
 C3579 C 0.47380 0.27933 0.82623
 C3580 C 0.47986 0.27270 0.81433
 H3581 H 0.45462 0.29770 0.80941
 H3582 H 0.43274 0.31729 0.80421
 H3583 H 0.41894 0.33136 0.82747
 H3584 H 0.42656 0.32547 0.85627
 H3585 H 0.46137 0.29396 0.89725
 H3586 H 0.48274 0.27380 0.90252
 H3587 H 0.49662 0.25984 0.87917
 H3588 H 0.48921 0.26597 0.85040
 C3589 C 0.96669 0.28631 0.34103
 C3590 C 0.97080 0.28159 0.35750
 C3591 C 0.96312 0.28940 0.37127
 C3592 C 0.95134 0.30184 0.36846
 C3593 C 0.94721 0.30656 0.35198
 C3594 C 0.95498 0.29883 0.33821
 C3595 C 0.95064 0.30374 0.32183
 C3596 C 0.93879 0.31575 0.31915
 C3597 C 0.93119 0.32329 0.33260
 C3598 C 0.93533 0.31883 0.34886
 C3599 C 0.96743 0.28447 0.38764
 C3600 C 0.97899 0.27218 0.39032
 C3601 C 0.98650 0.26455 0.37685
 C3602 C 0.98249 0.26915 0.36060
 C3603 C 0.94347 0.30971 0.38257
 C3604 C 0.93710 0.31603 0.39449
 C3605 C 0.97424 0.27815 0.32694
 C3606 C 0.98006 0.27171 0.31481
 H3607 H 0.95617 0.29821 0.31093
 H3608 H 0.93538 0.31910 0.30657
 H3609 H 0.92198 0.33260 0.33042
 H3610 H 0.92906 0.32502 0.35893
 H3611 H 0.96193 0.29003 0.39853
 H3612 H 0.98214 0.26857 0.40292
 H3613 H 0.99547 0.25502 0.37900
 H3614 H 0.98866 0.26287 0.35052
 C3615 C 0.46289 0.33866 0.78296
 C3616 C 0.44555 0.34055 0.78135
 C3617 C 0.43729 0.35298 0.79040
 C3618 C 0.44646 0.36367 0.80072
 C3619 C 0.46380 0.36177 0.80233
 C3620 C 0.47203 0.34920 0.79346
 C3621 C 0.48934 0.34746 0.79537
 C3622 C 0.49828 0.35785 0.80575
 C3623 C 0.49025 0.37016 0.81441
 C3624 C 0.47321 0.37216 0.81276
 C3625 C 0.41989 0.35433 0.78898
 C3626 C 0.41092 0.34379 0.77879
 C3627 C 0.41903 0.33181 0.76974
 C3628 C 0.43613 0.33012 0.77098
 C3629 C 0.43818 0.37689 0.80932
 C3630 C 0.43153 0.38812 0.81626
 C3631 C 0.47111 0.32519 0.77471
 C3632 C 0.47754 0.31345 0.76852
 H3633 H 0.49615 0.33809 0.78886
 H3634 H 0.51152 0.35634 0.80707
 H3635 H 0.49725 0.37819 0.82246
 H3636 H 0.46752 0.38188 0.81979
 H3637 H 0.41305 0.36349 0.79575
 H3638 H 0.39761 0.34496 0.77785
 H3639 H 0.41203 0.32379 0.76171
 H3640 H 0.44184 0.32054 0.76376
 C3641 C 0.96555 0.33956 0.28186
 C3642 C 0.94812 0.34127 0.28148
 C3643 C 0.94049 0.35438 0.29006
 C3644 C 0.95034 0.36590 0.29865
 C3645 C 0.96777 0.36422 0.29898
 C3646 C 0.97539 0.35098 0.29060
 C3647 C 0.99282 0.34949 0.29119
 C3648 C 1.00245 0.36076 0.29983
 C3649 C 0.99501 0.37371 0.30802
 C3650 C 0.97788 0.37548 0.30764
 C3651 C 0.92302 0.35560 0.28987
 C3652 C 0.91339 0.34428 0.28130
 C3653 C 0.92087 0.33163 0.27269
 C3654 C 0.93802 0.33004 0.27276
 C3655 C 0.94263 0.37968 0.30683
 C3656 C 0.93638 0.39130 0.31345
 C3657 C 0.97321 0.32551 0.27413
 C3658 C 0.97915 0.31336 0.26829
 H3659 H 0.99918 0.33963 0.28498
 H3660 H 1.01577 0.35943 0.30016
 H3661 H 1.00255 0.38243 0.31471
 H3662 H 0.97266 0.38574 0.31424
 H3663 H 0.91664 0.36528 0.29634
 H3664 H 0.90004 0.34538 0.28128
 H3665 H 0.91335 0.32301 0.26589
 H3666 H 0.94324 0.31992 0.26595
 C3667 C 0.28621 0.84004 0.46540
 C3668 C 0.29759 0.83475 0.45311
 C3669 C 0.30689 0.84636 0.44390
 C3670 C 0.30472 0.86316 0.44702
 C3671 C 0.29339 0.86842 0.45936
 C3672 C 0.28411 0.85681 0.46858
 C3673 C 0.27287 0.86232 0.48083
 C3674 C 0.27085 0.87887 0.48392
 C3675 C 0.27992 0.89025 0.47492
 C3676 C 0.29108 0.88515 0.46277
 C3677 C 0.31821 0.84081 0.43172
 C3678 C 0.32028 0.82426 0.42869
 C3679 C 0.31118 0.81290 0.43766
 C3680 C 0.29996 0.81800 0.44974
 C3681 C 0.31401 0.87509 0.43750
 C3682 C 0.32147 0.88533 0.42981
 C3683 C 0.27677 0.82808 0.47470
 C3684 C 0.26961 0.81718 0.48168
 H3685 H 0.26554 0.85392 0.48815
 H3686 H 0.26220 0.88289 0.49335
 H3687 H 0.27831 0.90309 0.47737
 H3688 H 0.29785 0.89447 0.45611
 H3689 H 0.32556 0.84920 0.42442
 H3690 H 0.32899 0.82022 0.41933
 H3691 H 0.31283 0.80005 0.43526
 H3692 H 0.29319 0.80867 0.45637
 C3693 C 0.28424 0.34209 0.97052
 C3694 C 0.27517 0.35620 0.96628
 C3695 C 0.28303 0.36911 0.95753
 C3696 C 0.29992 0.36780 0.95306
 C3697 C 0.30901 0.35370 0.95735
 C3698 C 0.30119 0.34086 0.96622
 C3699 C 0.31057 0.32692 0.97047
 C3700 C 0.32719 0.32573 0.96607
 C3701 C 0.33478 0.33817 0.95720
 C3702 C 0.32586 0.35204 0.95287
 C3703 C 0.27367 0.38305 0.95331
 C3704 C 0.25702 0.38420 0.95760
 C3705 C 0.24933 0.37157 0.96615
 C3706 C 0.25825 0.35770 0.97047
 C3707 C 0.30797 0.38101 0.94419
 C3708 C 0.31468 0.39204 0.93694
 C3709 C 0.27596 0.32827 0.97809
 C3710 C 0.26967 0.31611 0.98358
 H3711 H 0.30524 0.31687 0.97733
 H3712 H 0.33422 0.31512 0.96964
 H3713 H 0.34766 0.33710 0.95372
 H3714 H 0.33232 0.36143 0.94600
 H3715 H 0.27909 0.39318 0.94664
 H3716 H 0.25003 0.39495 0.95426
 H3717 H 0.23640 0.37253 0.96945
 H3718 H 0.25176 0.34820 0.97715
 C3719 C 0.78673 0.41120 0.28182
 C3720 C 0.77722 0.39963 0.29070
 C3721 C 0.78525 0.38699 0.29969
 C3722 C 0.80272 0.38586 0.29953
 C3723 C 0.81223 0.39738 0.29056
 C3724 C 0.80420 0.41004 0.28160
 C3725 C 0.81396 0.42132 0.27258
 C3726 C 0.83115 0.42019 0.27251
 C3727 C 0.83901 0.40792 0.28143
 C3728 C 0.82972 0.39659 0.29036
 C3729 C 0.77548 0.37575 0.30875
 C3730 C 0.75829 0.37689 0.30882
 C3731 C 0.75044 0.38916 0.29988
 C3732 C 0.75974 0.40043 0.29089
 C3733 C 0.81082 0.37251 0.30812
 C3734 C 0.81725 0.36115 0.31507
 C3735 C 0.77864 0.42488 0.27381
 C3736 C 0.77236 0.43679 0.26778
 H3737 H 0.80843 0.43115 0.26553
 H3738 H 0.83843 0.42897 0.26562
 H3739 H 0.85237 0.40719 0.28147
 H3740 H 0.83638 0.38727 0.29712
 H3741 H 0.78101 0.36599 0.31590
 H3742 H 0.75102 0.36820 0.31583
 H3743 H 0.73708 0.38998 0.29995
 H3744 H 0.75308 0.40977 0.28415
   
