data_POSCAR
  _audit_creation_date              2014-09-24
  _audit_creation_method            'ToBaCCo'
  _symmetry_space_group_name_H-M    'P1'
  _symmetry_Int_Tables_number       1
  _symmetry_cell_setting            triclinic
  loop_
  _symmetry_equiv_pos_as_xyz
 x,y,z
_cell_length_a 42.2613
_cell_length_b 42.7395
_cell_length_c 52.2595
_cell_angle_alpha 90.544700
_cell_angle_beta 90.008200
_cell_angle_gamma 90.135800
loop_
  _atom_site_label
  _atom_site_type_symbol
  _atom_site_fract_x
  _atom_site_fract_y
  _atom_site_fract_z
B1 B 0.26281 0.23465 0.27891
 B2 B 0.22499 0.22833 0.27038
 B3 B 0.23700 0.26467 0.27810
 B4 B 0.27411 0.26955 0.26721
 B5 B 0.28512 0.23557 0.25243
 B6 B 0.25443 0.20972 0.25454
 B7 B 0.23434 0.25979 0.22666
 B8 B 0.27214 0.26620 0.23520
 B9 B 0.26025 0.22982 0.22750
 B10 B 0.22310 0.22492 0.23836
 B11 B 0.21205 0.25894 0.25319
 B12 B 0.24274 0.28478 0.25105
 B13 B 0.73347 0.76244 0.27255
 B14 B 0.77039 0.77406 0.26544
 B15 B 0.76348 0.73652 0.27312
 B16 B 0.72813 0.72592 0.26077
 B17 B 0.71321 0.75766 0.24531
 B18 B 0.73964 0.78759 0.24820
 B19 B 0.76846 0.74028 0.22161
 B20 B 0.73158 0.72847 0.22895
 B21 B 0.73831 0.76607 0.22117
 B22 B 0.77383 0.77661 0.23336
 B23 B 0.78879 0.74524 0.24921
 B24 B 0.76254 0.71510 0.24601
 B25 B 0.73914 0.23638 -0.22625
 B26 B 0.72992 0.27336 -0.23421
 B27 B 0.76736 0.26447 -0.22590
 B28 B 0.77574 0.22861 -0.23743
 B29 B 0.74309 0.21500 -0.25330
 B30 B 0.71446 0.24289 -0.25101
 B31 B 0.76427 0.26771 -0.27745
 B32 B 0.77359 0.23087 -0.26954
 B33 B 0.73618 0.23965 -0.27778
 B34 B 0.72779 0.27562 -0.26619
 B35 B 0.76039 0.28910 -0.25052
 B36 B 0.78903 0.26115 -0.25273
 B37 B 0.27120 0.76143 -0.27554
 B38 B 0.23289 0.76943 -0.26972
 B39 B 0.24375 0.73269 -0.27709
 B40 B 0.27931 0.72595 -0.26357
 B41 B 0.29026 0.75916 -0.24746
 B42 B 0.26119 0.78637 -0.25150
 B43 B 0.23553 0.73676 -0.22598
 B44 B 0.27373 0.72886 -0.23178
 B45 B 0.26289 0.76563 -0.22444
 B46 B 0.22739 0.77230 -0.23792
 B47 B 0.21646 0.73903 -0.25402
 B48 B 0.24547 0.71192 -0.25006
 B49 B 1.23250 1.26204 0.72213
 B50 B 1.22794 1.22404 0.72982
 B51 B 1.26423 1.23839 0.72413
 B52 B 1.26632 1.27506 0.73582
 B53 B 1.23048 1.28366 0.74900
 B54 B 1.20636 1.25186 0.74512
 B55 B 1.25604 1.23453 0.77536
 B56 B 1.26087 1.27241 0.76773
 B57 B 1.22439 1.25833 0.77324
 B58 B 1.22235 1.22142 0.76146
 B59 B 1.25850 1.21305 0.74844
 B60 B 1.28234 1.24483 0.75253
 B61 B 0.76554 0.73647 0.77822
 B62 B 0.72769 0.72877 0.77045
 B63 B 0.73845 0.76538 0.77862
 B64 B 0.77496 0.77214 0.76694
 B65 B 0.78683 0.73905 0.75123
 B66 B 0.75730 0.71190 0.75357
 B67 B 0.73412 0.76186 0.72718
 B68 B 0.77192 0.76959 0.73491
 B69 B 0.76128 0.73295 0.72680
 B70 B 0.72473 0.72623 0.73840
 B71 B 0.71284 0.75931 0.75417
 B72 B 0.74236 0.78644 0.75187
 B73 B 1.23634 0.74019 0.22317
 B74 B 1.27419 0.73278 0.23100
 B75 B 1.26323 0.76937 0.22369
 B76 B 1.22651 0.77556 0.23533
 B77 B 1.21485 0.74192 0.25013
 B78 B 1.24461 0.71534 0.24726
 B79 B 1.26705 0.76525 0.27518
 B80 B 1.22913 0.77275 0.26726
 B81 B 1.24007 0.73598 0.27465
 B82 B 1.27684 0.72998 0.26308
 B83 B 1.28852 0.76330 0.24813
 B84 B 1.25875 0.79005 0.25094
 B85 B 0.76884 1.25913 0.22525
 B86 B 0.73085 1.26682 0.23227
 B87 B 0.74192 1.22987 0.22579
 B88 B 0.77831 1.22436 0.23810
 B89 B 0.78965 1.25856 0.25259
 B90 B 0.75995 1.28512 0.24877
 B91 B 0.73671 1.23650 0.27697
 B92 B 0.77466 1.22886 0.26996
 B93 B 0.76359 1.26583 0.27644
 B94 B 0.72722 1.27127 0.26415
 B95 B 0.71591 1.23711 0.24967
 B96 B 0.74559 1.21057 0.25340
 O97 O 0.54162 1.05895 0.04515
 O98 O 0.57806 1.03146 0.02139
 C99 C 0.57049 1.05207 0.03888
 O100 O 0.45581 0.94363 0.04051
 O101 O 0.41939 0.97440 0.02011
 C102 C 0.42696 0.95144 0.03516
 O103 O 0.54280 0.95002 0.04548
 O104 O 0.57864 0.97699 0.02098
 C105 C 0.57145 0.95769 0.03923
 O106 O 0.45420 1.06127 0.04165
 O107 O 0.41845 1.03064 0.01968
 C108 C 0.42552 1.05317 0.03565
 Zr109 Zr 0.49813 1.04209 0.03103
 O110 O 0.49687 1.03603 0.07110
 O111 O 0.49816 1.09129 0.03594
 Zr112 Zr 0.49903 0.96450 0.03043
 O113 O 0.49663 0.97026 0.07060
 O114 O 0.50201 0.91541 0.03423
 O115 O 0.52740 1.00370 0.03569
 O116 O 0.47014 1.00295 0.03526
 O117 O 0.45490 1.06119 -0.04484
 O118 O 0.41879 1.03115 -0.02320
 C119 C 0.42614 1.05368 -0.03883
 O120 O 0.54285 0.94962 -0.04884
 O121 O 0.57874 0.97710 -0.02448
 C122 C 0.57155 0.95718 -0.04262
 O123 O 0.45560 0.94522 -0.04611
 O124 O 0.41919 0.97410 -0.02352
 C125 C 0.42677 0.95202 -0.03971
 O126 O 0.54208 1.05960 -0.04675
 O127 O 0.57835 1.03131 -0.02385
 C128 C 0.57085 1.05244 -0.04057
 Zr129 Zr 0.49850 1.04242 -0.03338
 O130 O 0.49524 1.04014 -0.07382
 O131 O 0.50080 1.09188 -0.03425
 Zr132 Zr 0.49913 0.96431 -0.03407
 O133 O 0.49543 0.96526 -0.07448
 O134 O 0.50313 0.91492 -0.03496
 Zr135 Zr 0.54684 1.00384 -0.00153
 Zr136 Zr 0.45065 1.00277 -0.00180
 O137 O 0.47078 1.00309 -0.03858
 O138 O 0.52752 1.00372 -0.03878
 O139 O 0.47012 1.04828 -0.00124
 O140 O 0.52684 0.95870 -0.00181
 O141 O 0.52589 1.04849 -0.00103
 O142 O 0.47096 0.95768 -0.00197
 H143 H 0.45543 1.00281 0.05003
 H144 H 0.54109 0.94033 -0.00183
 H145 H 0.45633 1.00300 -0.05352
 H146 H 0.53956 1.06733 -0.00083
 H147 H 0.50140 0.90649 0.01676
 H148 H 0.48589 0.90627 -0.02431
 H149 H 0.51331 0.97783 -0.08103
 H150 H 0.51545 1.03171 -0.08048
 H151 H 0.48629 1.09990 -0.02087
 H152 H 0.50553 1.10045 0.01972
 H153 H 0.49526 1.05732 0.07864
 H154 H 0.49600 0.94890 0.07776
 O155 O 1.04457 0.55990 0.54493
 O156 O 1.08058 0.53191 0.52109
 C157 C 1.07331 0.55282 0.53840
 O158 O 0.95844 0.44435 0.54137
 O159 O 0.92171 0.47432 0.52047
 C160 C 0.92952 0.45164 0.53572
 O161 O 1.04565 0.45046 0.54572
 O162 O 1.08112 0.47756 0.52095
 C163 C 1.07420 0.45812 0.53917
 O164 O 0.95708 0.56204 0.54237
 O165 O 0.92104 0.53128 0.52085
 C166 C 0.92831 0.55396 0.53663
 Zr167 Zr 1.00083 0.54274 0.53145
 O168 O 1.00015 0.53674 0.57153
 O169 O 1.00095 0.59194 0.53626
 Zr170 Zr 1.00167 0.46513 0.53110
 O171 O 0.99979 0.47104 0.57128
 O172 O 1.00445 0.41604 0.53510
 O173 O 1.03013 0.50435 0.53602
 O174 O 0.97283 0.50360 0.53606
 O175 O 0.95661 0.56134 0.45584
 O176 O 0.92078 0.53143 0.47790
 C177 C 0.92795 0.55382 0.46210
 O178 O 1.04454 0.45030 0.45122
 O179 O 1.08067 0.47751 0.47558
 C180 C 1.07330 0.45779 0.45736
 O181 O 0.95734 0.44559 0.45489
 O182 O 0.92121 0.47463 0.47766
 C183 C 0.92859 0.45251 0.46144
 O184 O 1.04377 0.55920 0.45264
 O185 O 1.08022 0.53160 0.47591
 C186 C 1.07261 0.55228 0.45883
 Zr187 Zr 1.00040 0.54265 0.46693
 O188 O 0.99858 0.53839 0.42664
 O189 O 1.00258 0.59208 0.46537
 Zr190 Zr 1.00100 0.46465 0.46656
 O191 O 0.99716 0.46529 0.42617
 O192 O 1.00505 0.41526 0.46589
 Zr193 Zr 1.04904 0.50428 0.49862
 Zr194 Zr 0.95298 0.50328 0.49914
 O195 O 0.97253 0.50338 0.46216
 O196 O 1.02932 0.50399 0.46156
 O197 O 0.97247 0.54876 0.49934
 O198 O 1.02907 0.45915 0.49863
 O199 O 1.02816 0.54893 0.49905
 O200 O 0.97329 0.45819 0.49892
 H201 H 0.95817 0.50343 0.55087
 H202 H 1.04336 0.44080 0.49847
 H203 H 0.95794 0.50324 0.44730
 H204 H 1.04184 0.56777 0.49893
 H205 H 1.00473 0.40706 0.51764
 H206 H 0.98799 0.40669 0.47675
 H207 H 1.01298 0.48043 0.41977
 H208 H 0.99806 0.56002 0.42000
 H209 H 0.98884 0.60030 0.47920
 H210 H 1.00774 0.60101 0.51984
 H211 H 0.99878 0.55805 0.57906
 H212 H 0.99890 0.44969 0.57847
 O213 O 0.94287 0.54088 -0.04242
 O214 O 0.97368 0.57714 -0.02132
 C215 C 0.95068 0.56946 -0.03675
 O216 O 0.94549 0.45760 0.04788
 O217 O 0.97384 0.42091 0.02532
 C218 C 0.95264 0.42889 0.04225
 O219 O 0.94269 0.54368 0.04311
 O220 O 0.97377 0.57853 0.02128
 C221 C 0.95061 0.57190 0.03680
 O222 O 0.94709 0.45446 -0.04549
 O223 O 0.97352 0.41945 -0.02023
 C224 C 0.95444 0.42623 -0.03895
 Zr225 Zr 0.96199 0.49792 -0.03073
 O226 O 0.91200 0.49465 -0.03172
 O227 O 0.96509 0.49889 -0.07109
 Zr228 Zr 0.96296 0.50022 0.03379
 O229 O 0.91336 0.49921 0.03890
 O230 O 0.96829 0.50531 0.07395
 O231 O 0.95631 0.52683 0.00110
 O232 O 0.95613 0.47177 0.00193
 O233 O 1.05658 0.45331 -0.04458
 O234 O 1.02798 0.41890 -0.02021
 C235 C 1.04862 0.42520 -0.03791
 O236 O 1.06128 0.54320 0.04365
 O237 O 1.03159 0.57828 0.02098
 C238 C 1.05422 0.57142 0.03690
 O239 O 1.05804 0.45703 0.04741
 O240 O 1.02891 0.42062 0.02491
 C241 C 1.05048 0.42842 0.04164
 O242 O 1.06112 0.53982 -0.04291
 O243 O 1.03103 0.57664 -0.02196
 C244 C 1.05356 0.56858 -0.03774
 Zr245 Zr 1.04068 0.49734 -0.03147
 O246 O 1.09028 0.49492 -0.03616
 O247 O 1.03580 0.49909 -0.07180
 Zr248 Zr 1.04161 0.49977 0.03307
 O249 O 1.09157 0.49645 0.03435
 O250 O 1.03979 0.50478 0.07341
 Zr251 Zr 1.00229 0.54623 0.00034
 Zr252 Zr 1.00133 0.45124 0.00201
 O253 O 1.04693 0.47128 0.00120
 O254 O 1.04794 0.52627 0.00027
 O255 O 1.00104 0.46906 -0.03550
 O256 O 1.00253 0.52812 0.03762
 O257 O 1.00154 0.52539 -0.03626
 O258 O 1.00208 0.47163 0.03898
 H259 H 0.93723 0.45801 0.00184
 H260 H 1.00271 0.54327 0.05210
 H261 H 1.06577 0.45754 0.00123
 H262 H 1.00149 0.53935 -0.05130
 H263 H 0.97419 0.48469 0.08093
 H264 H 1.02995 0.48564 0.08040
 H265 H 1.10023 0.51147 0.02187
 H266 H 1.09954 0.49488 -0.01883
 H267 H 1.02492 0.47969 -0.07749
 H268 H 0.94303 0.49900 -0.07752
 H269 H 0.90365 0.51027 -0.01937
 H270 H 0.90395 0.49507 0.02190
 O271 O 0.43724 1.03949 0.46110
 O272 O 0.46800 1.07681 0.48095
 C273 C 0.44431 1.06833 0.46652
 O274 O 0.45496 0.95427 0.55112
 O275 O 0.48096 0.91987 0.52451
 C276 C 0.46287 0.92621 0.54408
 O277 O 0.44560 1.04022 0.54813
 O278 O 0.47146 1.07717 0.52435
 C279 C 0.45087 1.06894 0.54155
 O280 O 0.44667 0.95347 0.45598
 O281 O 0.47800 0.91947 0.47840
 C282 C 0.45677 0.92562 0.46110
 Zr283 Zr 0.45953 0.99739 0.47122
 O284 O 0.40997 0.99056 0.47359
 O285 O 0.45821 0.99969 0.43083
 Zr286 Zr 0.46591 0.99793 0.53530
 O287 O 0.41657 0.99151 0.53998
 O288 O 0.47337 1.00059 0.57527
 O289 O 0.45488 1.02528 0.50384
 O290 O 0.45824 0.96982 0.50341
 O291 O 0.55452 0.95943 0.45033
 O292 O 0.53149 0.92252 0.47601
 C293 C 0.54987 0.93070 0.45719
 O294 O 0.56272 1.04627 0.54059
 O295 O 0.52863 1.08022 0.52090
 C296 C 0.55312 1.07422 0.53520
 O297 O 0.56357 0.95998 0.54363
 O298 O 0.53468 0.92270 0.52191
 C299 C 0.55656 0.93113 0.53815
 O300 O 0.55208 1.04611 0.45227
 O301 O 0.52407 1.08001 0.47810
 C302 C 0.54374 1.07399 0.45955
 Zr303 Zr 0.53839 1.00197 0.46615
 O304 O 0.58824 1.00684 0.46351
 O305 O 0.53409 1.00341 0.42582
 Zr306 Zr 0.54469 1.00217 0.53011
 O307 O 0.59463 1.00178 0.52710
 O308 O 0.54759 1.00569 0.57048
 Zr309 Zr 0.49954 1.04718 0.50108
 Zr310 Zr 0.50459 0.95243 0.50041
 O311 O 0.54886 0.97479 0.49760
 O312 O 0.54624 1.03040 0.49793
 O313 O 0.50006 0.97155 0.46355
 O314 O 0.50428 1.02779 0.53769
 O315 O 0.49690 1.02718 0.46421
 O316 O 0.50726 0.97194 0.53752
 H317 H 0.44047 0.95470 0.50431
 H318 H 0.50502 1.04222 0.55263
 H319 H 0.56803 0.96158 0.49666
 H320 H 0.49451 1.04102 0.44922
 H321 H 0.45210 1.00014 0.58325
 H322 H 0.53388 0.98914 0.57764
 H323 H 0.60033 1.01524 0.51249
 H324 H 0.59837 0.98740 0.46949
 H325 H 0.51737 0.98832 0.42080
 H326 H 0.43562 0.99814 0.42588
 H327 H 0.40147 1.00673 0.48535
 H328 H 0.40584 1.00605 0.52823
 O329 O 0.96568 1.07147 0.47009
 O330 O 0.97999 1.03543 0.43952
 C331 C 0.96886 1.06239 0.44649
 O332 O 1.07344 1.02659 0.53531
 O333 O 1.03682 1.00890 0.56408
 C334 C 1.06408 1.02100 0.55843
 O335 O 1.06684 1.03545 0.46441
 O336 O 1.02870 1.01804 0.43646
 C337 C 1.05492 1.03250 0.44161
 O338 O 0.96553 1.06496 0.54138
 O339 O 0.98467 1.02604 0.56705
 C340 C 0.97089 1.05271 0.56358
 Zr341 Zr 0.97488 1.04739 0.50424
 O342 O 0.99144 1.09388 0.50895
 O343 O 0.92755 1.06358 0.50371
 Zr344 Zr 1.04974 1.02049 0.50022
 O345 O 1.06833 1.06624 0.50484
 O346 O 1.09613 1.00311 0.49454
 O347 O 1.01326 1.04121 0.47979
 O348 O 1.01550 1.03808 0.52457
 O349 O 0.92770 0.96286 0.53735
 O350 O 0.96728 0.97743 0.56500
 C351 C 0.93962 0.96568 0.56014
 O352 O 1.02903 0.92730 0.46047
 O353 O 1.01165 0.96694 0.43475
 C354 C 1.02404 0.93959 0.43821
 O355 O 1.03590 0.92465 0.53205
 O356 O 1.01900 0.96005 0.56243
 C357 C 1.03267 0.93426 0.55555
 O358 O 0.92539 0.96363 0.46604
 O359 O 0.96100 0.98388 0.43762
 C360 C 0.93474 0.96973 0.44301
 Zr361 Zr 0.94746 0.97335 0.50135
 O362 O 0.92989 0.92696 0.50249
 O363 O 0.90068 0.99098 0.50093
 Zr364 Zr 1.02223 0.94633 0.49755
 O365 O 1.00421 0.90008 0.49870
 O366 O 1.06866 0.92889 0.49244
 Zr367 Zr 0.99674 0.99928 0.46280
 Zr368 Zr 1.00059 0.99462 0.53876
 O369 O 0.98402 0.95306 0.52144
 O370 O 0.98157 0.95545 0.47639
 O371 O 0.95643 1.01100 0.52588
 O372 O 1.04046 0.98291 0.47645
 O373 O 0.95462 1.01371 0.48080
 O374 O 1.04307 0.97996 0.52132
 H375 H 1.02240 1.05473 0.53668
 H376 H 1.05742 0.97779 0.46402
 H377 H 0.97839 0.93504 0.53234
 H378 H 0.93662 1.02061 0.47012
 H379 H 1.10078 0.98862 0.50869
 H380 H 1.08210 0.93852 0.50587
 H381 H 0.99031 0.89708 0.48363
 H382 H 0.93972 0.91526 0.48815
 H383 H 0.89786 1.00399 0.51651
 H384 H 0.91654 1.05450 0.51861
 H385 H 1.00654 1.09804 0.49493
 H386 H 1.05674 1.08000 0.49298
 O387 O 0.42761 0.45800 -0.03277
 O388 O 0.46166 0.47970 -0.06179
 C389 C 0.43581 0.46499 -0.05591
 O390 O 0.46286 0.56054 0.04260
 O391 O 0.48389 0.52234 0.06799
 C392 C 0.46946 0.54872 0.06470
 O393 O 0.45328 0.56269 -0.02838
 O394 O 0.47428 0.53065 -0.05938
 C395 C 0.45763 0.55445 -0.05206
 O396 O 0.43629 0.44834 0.03794
 O397 O 0.47258 0.46948 0.06583
 C398 C 0.44802 0.45236 0.06070
 Zr399 Zr 0.45117 0.46559 0.00218
 O400 O 0.40309 0.47715 0.00850
 O401 O 0.43821 0.41807 -0.00303
 Zr402 Zr 0.47003 0.54208 0.00549
 O403 O 0.42178 0.55316 0.01151
 O404 O 0.48152 0.59031 0.00434
 O405 O 0.45292 0.50681 -0.01860
 O406 O 0.45638 0.50359 0.02638
 O407 O 0.54067 0.42420 0.03184
 O408 O 0.52254 0.45810 0.06276
 C409 C 0.53642 0.43252 0.05554
 O410 O 0.56512 0.53708 -0.03517
 O411 O 0.52734 0.51857 -0.06292
 C412 C 0.55349 0.53334 -0.05795
 O413 O 0.56799 0.53632 0.03596
 O414 O 0.53581 0.51144 0.06460
 C415 C 0.55972 0.52913 0.05903
 O416 O 0.53969 0.43085 -0.03948
 O417 O 0.51575 0.46745 -0.06475
 C418 C 0.53256 0.44252 -0.06155
 Zr419 Zr 0.52854 0.44723 -0.00236
 O420 O 0.57735 0.43615 -0.00218
 O421 O 0.51698 0.39933 -0.00734
 Zr422 Zr 0.54744 0.52361 0.00077
 O423 O 0.59563 0.51004 0.00089
 O424 O 0.56115 0.57121 -0.00024
 Zr425 Zr 0.49658 0.49726 -0.03660
 Zr426 Zr 0.50189 0.49208 0.03947
 O427 O 0.54521 0.48263 0.02120
 O428 O 0.54244 0.48559 -0.02401
 O429 O 0.48997 0.44881 0.02227
 O430 O 0.50850 0.54006 -0.01875
 O431 O 0.48688 0.45229 -0.02254
 O432 O 0.51183 0.53739 0.02605
 H433 H 0.43924 0.50677 0.03908
 H434 H 0.51194 0.55887 -0.02934
 H435 H 0.56391 0.47775 0.03187
 H436 H 0.48165 0.43520 -0.03478
 H437 H 0.49679 0.59466 0.01828
 H438 H 0.54830 0.58246 0.01267
 H439 H 0.60021 0.49979 -0.01576
 H440 H 0.58731 0.44733 -0.01658
 H441 H 0.50320 0.39324 0.00708
 H442 H 0.45113 0.40559 0.00889
 H443 H 0.39663 0.49175 -0.00509
 H444 H 0.40951 0.54347 -0.00261
 C445 C 0.29695 1.17318 0.16243
 C446 C 0.26431 1.17400 0.16754
 C447 C 0.25241 1.19256 0.18760
 C448 C 0.27284 1.21093 0.20288
 C449 C 0.30542 1.21033 0.19738
 C450 C 0.31721 1.19206 0.17733
 C451 C 0.31039 1.15220 0.14228
 C452 C 0.33934 1.13700 0.14662
 C453 C 0.35387 1.11968 0.12722
 C454 C 0.33965 1.11667 0.10309
 C455 C 0.30996 1.13033 0.09890
 C456 C 0.29541 1.14803 0.11838
 C457 C 0.35800 1.10227 0.08203
 C458 C 0.34956 1.07323 0.07112
 C459 C 0.37058 1.05765 0.05448
 C460 C 0.40014 1.07106 0.04870
 C461 C 0.40723 1.10110 0.05833
 C462 C 0.38650 1.11642 0.07486
 H463 H 0.24809 1.15950 0.15659
 H464 H 0.22732 1.19167 0.19153
 H465 H 0.32210 1.22377 0.20874
 H466 H 0.34241 1.19257 0.17362
 H467 H 0.35112 1.13895 0.16497
 H468 H 0.37675 1.10921 0.13082
 H469 H 0.29879 1.12846 0.08030
 H470 H 0.27315 1.15949 0.11439
 H471 H 0.32765 1.06192 0.07657
 H472 H 0.36457 1.03448 0.04741
 H473 H 0.42959 1.11230 0.05398
 H474 H 0.39332 1.13886 0.08297
 C475 C 0.79868 0.67733 0.66140
 C476 C 0.81819 0.69822 0.67513
 C477 C 0.80605 0.71644 0.69509
 C478 C 0.77381 0.71494 0.70169
 C479 C 0.75403 0.69473 0.68740
 C480 C 0.76629 0.67625 0.66743
 C481 C 0.81277 0.65602 0.64174
 C482 C 0.79727 0.64934 0.61842
 C483 C 0.81220 0.63113 0.59942
 C484 C 0.84281 0.61950 0.60348
 C485 C 0.85758 0.62499 0.62714
 C486 C 0.84271 0.64281 0.64606
 C487 C 0.86123 0.60437 0.58272
 C488 C 0.88999 0.61800 0.57551
 C489 C 0.91057 0.60223 0.55916
 C490 C 0.90312 0.57220 0.54968
 C491 C 0.87332 0.55929 0.55545
 C492 C 0.85242 0.57536 0.57192
 H493 H 0.84313 0.70019 0.67068
 H494 H 0.82229 0.73128 0.70569
 H495 H 0.72928 0.69221 0.69219
 H496 H 0.75065 0.66022 0.65739
 H497 H 0.77422 0.65917 0.61449
 H498 H 0.80049 0.62730 0.58122
 H499 H 0.88109 0.61598 0.63074
 H500 H 0.85494 0.64662 0.66404
 H501 H 0.89709 0.64049 0.58341
 H502 H 0.93308 0.61312 0.55478
 H503 H 0.86697 0.53618 0.54846
 H504 H 0.83027 0.56446 0.57730
 C505 C 0.69787 0.81960 0.15622
 C506 C 0.68033 0.79594 0.16829
 C507 C 0.69349 0.77831 0.18800
 C508 C 0.72490 0.78313 0.19601
 C509 C 0.74308 0.80562 0.18293
 C510 C 0.72974 0.82364 0.16337
 C511 C 0.68215 0.84121 0.13772
 C512 C 0.69833 0.85358 0.11649
 C513 C 0.68326 0.87451 0.09982
 C514 C 0.65170 0.88368 0.10406
 C515 C 0.63557 0.87095 0.12510
 C516 C 0.65055 0.85030 0.14170
 C517 C 0.63511 0.90628 0.08693
 C518 C 0.61324 0.92761 0.09741
 C519 C 0.59405 0.94565 0.08163
 C520 C 0.59664 0.94353 0.05492
 C521 C 0.61997 0.92408 0.04421
 C522 C 0.63903 0.90550 0.06011
 H523 H 0.65598 0.79146 0.16296
 H524 H 0.67841 0.76178 0.19754
 H525 H 0.76738 0.81019 0.18837
 H526 H 0.74405 0.84168 0.15467
 H527 H 0.72259 0.84698 0.11265
 H528 H 0.69647 0.88387 0.08387
 H529 H 0.61107 0.87681 0.12877
 H530 H 0.63735 0.84189 0.15800
 H531 H 0.61017 0.92968 0.11792
 H532 H 0.57624 0.96055 0.09031
 H533 H 0.62207 0.92179 0.02362
 H534 H 0.65558 0.88935 0.05134
 C535 C 1.19453 0.31621 0.65663
 C536 C 1.17510 0.29560 0.67041
 C537 C 1.18739 0.27742 0.69013
 C538 C 1.21974 0.27848 0.69644
 C539 C 1.23959 0.29779 0.68165
 C540 C 1.22716 0.31640 0.66204
 C541 C 1.18019 0.33878 0.63817
 C542 C 1.19580 0.34761 0.61551
 C543 C 1.18196 0.36916 0.59868
 C544 C 1.15227 0.38255 0.60417
 C545 C 1.13676 0.37352 0.62677
 C546 C 1.15053 0.35222 0.64351
 C547 C 1.13683 0.40545 0.58660
 C548 C 1.11843 0.43000 0.59679
 C549 C 1.09982 0.44855 0.58090
 C550 C 1.09964 0.44365 0.55434
 C551 C 1.11966 0.42079 0.54374
 C552 C 1.13811 0.40179 0.55975
 H553 H 1.14998 0.29415 0.66649
 H554 H 1.17097 0.26375 0.70116
 H555 H 1.26462 0.29951 0.68584
 H556 H 1.24292 0.33204 0.65197
 H557 H 1.21856 0.33765 0.61065
 H558 H 1.19466 0.37559 0.58152
 H559 H 1.11361 0.38269 0.63149
 H560 H 1.13794 0.34662 0.66091
 H561 H 1.11749 0.43421 0.61723
 H562 H 1.08443 0.46597 0.58948
 H563 H 1.11946 0.41628 0.52331
 H564 H 1.15189 0.38312 0.55120
 C565 C 0.69894 1.18144 -0.16211
 C566 C 0.72786 1.17292 -0.17337
 C567 C 0.74101 1.19090 -0.19295
 C568 C 0.72582 1.21817 -0.20168
 C569 C 0.69704 1.22675 -0.19011
 C570 C 0.68405 1.20893 -0.17043
 C571 C 0.68333 1.16102 -0.14284
 C572 C 0.65031 1.15714 -0.14328
 C573 C 0.63513 1.13886 -0.12504
 C574 C 0.65249 1.12369 -0.10589
 C575 C 0.68560 1.12650 -0.10582
 C576 C 0.70090 1.14512 -0.12408
 C577 C 0.63527 1.10618 -0.08578
 C578 C 0.64331 1.07527 -0.07927
 C579 C 0.62355 1.05779 -0.06304
 C580 C 0.59565 1.07114 -0.05327
 C581 C 0.58911 1.10267 -0.05838
 C582 C 0.60865 1.11994 -0.07436
 H583 H 0.73979 1.15168 -0.16774
 H584 H 0.76284 1.18291 -0.20162
 H585 H 0.68367 1.24654 -0.19668
 H586 H 0.66189 1.21646 -0.16203
 H587 H 0.63607 1.16813 -0.15787
 H588 H 0.60962 1.13655 -0.12589
 H589 H 0.69950 1.11508 -0.09123
 H590 H 0.72637 1.14765 -0.12315
 H591 H 0.66381 1.06417 -0.08781
 H592 H 0.62901 1.03349 -0.05941
 H593 H 0.56802 1.11371 -0.05075
 H594 H 0.60230 1.14390 -0.07855
 C595 C 1.20562 0.67995 0.34047
 C596 C 1.23296 0.67117 0.32700
 C597 C 1.24402 0.68923 0.30664
 C598 C 1.22810 0.71668 0.29917
 C599 C 1.20054 0.72511 0.31263
 C600 C 1.18966 0.70722 0.33310
 C601 C 1.19283 0.66027 0.36145
 C602 C 1.18041 0.67431 0.38368
 C603 C 1.16526 0.65626 0.40219
 C604 C 1.16193 0.62370 0.39889
 C605 C 1.17585 0.60940 0.37734
 C606 C 1.19116 0.62750 0.35882
 C607 C 1.14097 0.60558 0.41628
 C608 C 1.14855 0.57509 0.42433
 C609 C 1.12708 0.55779 0.43920
 C610 C 1.09753 0.57057 0.44576
 C611 C 1.09049 0.60123 0.43820
 C612 C 1.11186 0.61847 0.42376
 H613 H 1.24583 0.65030 0.33222
 H614 H 1.26505 0.68142 0.29666
 H615 H 1.18659 0.74496 0.30718
 H616 H 1.16804 0.71422 0.34267
 H617 H 1.18189 0.69940 0.38652
 H618 H 1.15531 0.66792 0.41881
 H619 H 1.17341 0.58445 0.37410
 H620 H 1.20032 0.61601 0.34182
 H621 H 1.17088 0.56459 0.41892
 H622 H 1.13303 0.53416 0.44472
 H623 H 1.06801 0.61183 0.44311
 H624 H 1.10499 0.64161 0.41761
 C625 C 0.29393 0.81997 -0.15606
 C626 C 0.31441 0.79871 -0.16816
 C627 C 0.30446 0.78142 -0.18950
 C628 C 0.27332 0.78402 -0.19883
 C629 C 0.25281 0.80541 -0.18659
 C630 C 0.26306 0.82329 -0.16553
 C631 C 0.30561 0.83936 -0.13431
 C632 C 0.30301 0.87214 -0.13463
 C633 C 0.31842 0.89055 -0.11604
 C634 C 0.33647 0.87646 -0.09669
 C635 C 0.33691 0.84356 -0.09540
 C636 C 0.32194 0.82527 -0.11411
 C637 C 0.35786 0.89547 -0.07994
 C638 C 0.38850 0.88447 -0.07497
 C639 C 0.41006 0.90263 -0.06123
 C640 C 0.40185 0.93252 -0.05199
 C641 C 0.37092 0.94342 -0.05612
 C642 C 0.34914 0.92511 -0.07016
 H643 H 0.33856 0.79618 -0.16157
 H644 H 0.32143 0.76621 -0.19884
 H645 H 0.22905 0.80904 -0.19360
 H646 H 0.24692 0.83976 -0.15665
 H647 H 0.29061 0.88355 -0.15008
 H648 H 0.31772 0.91577 -0.11773
 H649 H 0.34988 0.83190 -0.08040
 H650 H 0.32386 0.80003 -0.11323
 H651 H 0.39637 0.86215 -0.08255
 H652 H 0.43359 0.89335 -0.05826
 H653 H 0.36396 0.96639 -0.04928
 H654 H 0.32565 0.93421 -0.07358
 C655 C 0.79646 0.32216 0.34321
 C656 C 0.81717 0.30190 0.33025
 C657 C 0.80678 0.28429 0.30921
 C658 C 0.77501 0.28548 0.30115
 C659 C 0.75434 0.30605 0.31414
 C660 C 0.76502 0.32433 0.33484
 C661 C 0.80828 0.34133 0.36500
 C662 C 0.80585 0.37411 0.36487
 C663 C 0.82115 0.39226 0.38370
 C664 C 0.83883 0.37788 0.40314
 C665 C 0.83910 0.34495 0.40418
 C666 C 0.82435 0.32694 0.38517
 C667 C 0.85992 0.39663 0.42039
 C668 C 0.89016 0.38513 0.42619
 C669 C 0.91152 0.40301 0.44037
 C670 C 0.90356 0.43314 0.44918
 C671 C 0.87300 0.44453 0.44430
 C672 C 0.85139 0.42647 0.42986
 H673 H 0.84171 0.30024 0.33607
 H674 H 0.82379 0.26969 0.29929
 H675 H 0.73002 0.30859 0.30811
 H676 H 0.74870 0.34004 0.34441
 H677 H 0.79360 0.38570 0.34943
 H678 H 0.82058 0.41749 0.38217
 H679 H 0.85170 0.33303 0.41924
 H680 H 0.82614 0.30168 0.38587
 H681 H 0.89797 0.36266 0.41888
 H682 H 0.93478 0.39337 0.44393
 H683 H 0.86627 0.46772 0.45078
 H684 H 0.82821 0.43598 0.42585
 C685 C 1.18101 0.29997 0.16176
 C686 C 1.17645 0.26861 0.16869
 C687 C 1.19450 0.25532 0.18823
 C688 C 1.21769 0.27299 0.20136
 C689 C 1.22280 0.30409 0.19383
 C690 C 1.20503 0.31724 0.17413
 C691 C 1.15975 0.31533 0.14287
 C692 C 1.15058 0.34662 0.14673
 C693 C 1.13169 0.36179 0.12887
 C694 C 1.12107 0.34609 0.10677
 C695 C 1.12896 0.31446 0.10321
 C696 C 1.14826 0.29922 0.12107
 C697 C 1.10393 0.36401 0.08697
 C698 C 1.07395 0.35488 0.07773
 C699 C 1.05658 0.37493 0.06174
 C700 C 1.06918 0.40417 0.05490
 C701 C 1.10001 0.41197 0.06286
 C702 C 1.11707 0.39224 0.07867
 H703 H 1.15794 0.25471 0.15984
 H704 H 1.18907 0.23160 0.19376
 H705 H 1.23996 0.31873 0.20363
 H706 H 1.20971 0.34128 0.16897
 H707 H 1.15801 0.35951 0.16362
 H708 H 1.12556 0.38609 0.13221
 H709 H 1.12117 0.30195 0.08622
 H710 H 1.15488 0.27513 0.11746
 H711 H 1.06341 0.33309 0.08387
 H712 H 1.03291 0.36833 0.05583
 H713 H 1.11072 0.43401 0.05748
 H714 H 1.14035 0.39952 0.08510
 C715 C 0.68030 0.80230 0.66255
 C716 C 0.67741 0.77034 0.66823
 C717 C 0.69527 0.75712 0.68798
 C718 C 0.71658 0.77550 0.70245
 C719 C 0.71977 0.80733 0.69633
 C720 C 0.70227 0.82038 0.67650
 C721 C 0.65971 0.81738 0.64306
 C722 C 0.64836 0.84785 0.64746
 C723 C 0.63085 0.86325 0.62885
 C724 C 0.62381 0.84854 0.60541
 C725 C 0.63369 0.81756 0.60127
 C726 C 0.65162 0.80211 0.61993
 C727 C 0.60818 0.86690 0.58509
 C728 C 0.57996 0.85690 0.57323
 C729 C 0.56350 0.87701 0.55673
 C730 C 0.57524 0.90722 0.55190
 C731 C 0.60453 0.91607 0.56254
 C732 C 0.62068 0.89626 0.57893
 H733 H 0.66047 0.75578 0.65809
 H734 H 0.69140 0.73276 0.69242
 H735 H 0.73551 0.82250 0.70711
 H736 H 0.70570 0.84492 0.67233
 H737 H 0.65318 0.86000 0.66532
 H738 H 0.62309 0.88699 0.63264
 H739 H 0.62861 0.80581 0.58328
 H740 H 0.66001 0.77866 0.61591
 H741 H 0.56993 0.83427 0.57773
 H742 H 0.54100 0.86957 0.54881
 H743 H 0.61461 0.93893 0.55888
 H744 H 0.64264 0.90429 0.58748
 C745 C 1.17780 0.69715 -0.16281
 C746 C 1.17630 0.72927 -0.16831
 C747 C 1.19518 0.74214 -0.18768
 C748 C 1.21618 0.72327 -0.20195
 C749 C 1.21795 0.69127 -0.19601
 C750 C 1.19937 0.67853 -0.17662
 C751 C 1.15647 0.68251 -0.14346
 C752 C 1.14414 0.65237 -0.14801
 C753 C 1.12637 0.63714 -0.12937
 C754 C 1.12002 0.65168 -0.10573
 C755 C 1.13074 0.68243 -0.10150
 C756 C 1.14892 0.69770 -0.12019
 C757 C 1.10457 0.63322 -0.08525
 C758 C 1.07661 0.64313 -0.07300
 C759 C 1.06040 0.62294 -0.05627
 C760 C 1.07215 0.59273 -0.05155
 C761 C 1.10124 0.58403 -0.06259
 C762 C 1.11708 0.60387 -0.07924
 H763 H 1.15979 0.74427 -0.15823
 H764 H 1.19252 0.76669 -0.19192
 H765 H 1.23359 0.67577 -0.20650
 H766 H 1.20180 0.65386 -0.17257
 H767 H 1.14852 0.64029 -0.16596
 H768 H 1.11797 0.61360 -0.13326
 H769 H 1.12622 0.69407 -0.08337
 H770 H 1.15802 0.72090 -0.11603
 H771 H 1.06656 0.66575 -0.07732
 H772 H 1.03807 0.63033 -0.04808
 H773 H 1.11138 0.56121 -0.05910
 H774 H 1.13884 0.59589 -0.08808
 C775 C 0.68094 1.19817 0.34155
 C776 C 0.70379 1.17989 0.32888
 C777 C 0.72220 1.19243 0.30930
 C778 C 0.71886 1.22388 0.30202
 C779 C 0.69690 1.24256 0.31545
 C780 C 0.67825 1.22990 0.33503
 C781 C 0.65867 1.18341 0.36007
 C782 C 0.64891 1.19899 0.38258
 C783 C 0.62777 1.18460 0.39962
 C784 C 0.61572 1.15449 0.39436
 C785 C 0.62558 1.13909 0.37184
 C786 C 0.64658 1.15334 0.35495
 C787 C 0.59343 1.13846 0.41214
 C788 C 0.56899 1.11955 0.40217
 C789 C 0.55131 1.10024 0.41814
 C790 C 0.55711 1.09981 0.44453
 C791 C 0.57979 1.12029 0.45498
 C792 C 0.59787 1.13950 0.43888
 H793 H 0.70698 1.15552 0.33373
 H794 H 0.73857 1.17705 0.29943
 H795 H 0.69303 1.26666 0.31021
 H796 H 0.66069 1.24459 0.34421
 H797 H 0.65787 1.22212 0.38715
 H798 H 0.62061 1.19715 0.41675
 H799 H 0.61733 1.11567 0.36734
 H800 H 0.65309 1.14082 0.33764
 H801 H 0.56433 1.11874 0.38180
 H802 H 0.53397 1.08450 0.40973
 H803 H 0.58493 1.11989 0.47529
 H804 H 0.61656 1.15369 0.44717
 C805 C 0.82300 0.70874 0.15314
 C806 C 0.83619 0.70787 0.17780
 C807 C 0.81897 0.71797 0.19910
 C808 C 0.78782 0.72923 0.19659
 C809 C 0.77456 0.73007 0.17188
 C810 C 0.79194 0.72011 0.15046
 C811 C 0.84105 0.69588 0.13082
 C812 C 0.82552 0.67859 0.11153
 C813 C 0.84280 0.66293 0.09253
 C814 C 0.87612 0.66372 0.09247
 C815 C 0.89158 0.68265 0.11073
 C816 C 0.87425 0.69863 0.12959
 C817 C 0.89443 0.64199 0.07555
 C818 C 0.92408 0.65021 0.06510
 C819 C 0.94219 0.62804 0.05146
 C820 C 0.93105 0.59723 0.04828
 C821 C 0.90097 0.58958 0.05792
 C822 C 0.88305 0.61149 0.07136
 H823 H 0.85965 0.69850 0.18084
 H824 H 0.83021 0.71637 0.21764
 H825 H 0.75049 0.73768 0.16899
 H826 H 0.78094 0.72121 0.13179
 H827 H 0.80007 0.67576 0.11178
 H828 H 0.83001 0.64916 0.07843
 H829 H 0.91715 0.68382 0.11134
 H830 H 0.88701 0.71240 0.14372
 H831 H 0.93345 0.67361 0.06780
 H832 H 0.96525 0.63464 0.04424
 H833 H 0.89142 0.56617 0.05567
 H834 H 0.86076 0.60395 0.07945
 C835 C 0.32157 1.20642 0.65756
 C836 C 0.28980 1.21532 0.65432
 C837 C 0.27177 1.22573 0.67516
 C838 C 0.28508 1.22807 0.69979
 C839 C 0.31711 1.21988 0.70284
 C840 C 0.33502 1.20913 0.68208
 C841 C 0.33992 1.19215 0.63602
 C842 C 0.37286 1.19664 0.63392
 C843 C 0.39051 1.17997 0.61565
 C844 C 0.37559 1.15852 0.59903
 C845 C 0.34246 1.15561 0.60004
 C846 C 0.32490 1.17202 0.61837
 C847 C 0.39447 1.13673 0.58272
 C848 C 0.38560 1.10511 0.58123
 C849 C 0.40373 1.08367 0.56749
 C850 C 0.43143 1.09305 0.55475
 C851 C 0.44019 1.12481 0.55566
 C852 C 0.42194 1.14646 0.56970
 H853 H 0.27865 1.21388 0.63571
 H854 H 0.24713 1.23106 0.67191
 H855 H 0.32838 1.22096 0.72141
 H856 H 0.35916 1.20189 0.68551
 H857 H 0.38517 1.21245 0.64683
 H858 H 0.41598 1.18272 0.61542
 H859 H 0.33015 1.13972 0.58719
 H860 H 0.29970 1.16768 0.61941
 H861 H 0.36501 1.09661 0.59138
 H862 H 0.39606 1.05947 0.56710
 H863 H 0.46141 1.13273 0.54607
 H864 H 0.42933 1.17072 0.57043
 C865 C 0.82590 0.29793 -0.16059
 C866 C 0.82002 0.31715 -0.18165
 C867 C 0.80045 0.30701 -0.20157
 C868 C 0.78634 0.27710 -0.20119
 C869 C 0.79173 0.25816 -0.17969
 C870 C 0.81102 0.26861 -0.15947
 C871 C 0.84870 0.30843 -0.14069
 C872 C 0.84025 0.30987 -0.11469
 C873 C 0.86053 0.32421 -0.09675
 C874 C 0.88964 0.33704 -0.10457
 C875 C 0.89892 0.33325 -0.13026
 C876 C 0.87862 0.31936 -0.14810
 C877 C 0.90838 0.35791 -0.08730
 C878 C 0.91998 0.38623 -0.09697
 C879 C 0.93575 0.40744 -0.08118
 C880 C 0.94054 0.40115 -0.05515
 C881 C 0.92998 0.37245 -0.04534
 C882 C 0.91366 0.35107 -0.06129
 H883 H 0.83097 0.34004 -0.18283
 H884 H 0.79715 0.32252 -0.21759
 H885 H 0.78200 0.23490 -0.17869
 H886 H 0.81534 0.25331 -0.14344
 H887 H 0.81729 0.30152 -0.10854
 H888 H 0.85265 0.32691 -0.07714
 H889 H 0.92145 0.34225 -0.13680
 H890 H 0.88591 0.31797 -0.16796
 H891 H 0.91589 0.39260 -0.11670
 H892 H 0.94380 0.42927 -0.08935
 H893 H 0.93329 0.36712 -0.02530
 H894 H 0.90501 0.32938 -0.05332
 C895 C 0.32672 0.79867 0.33994
 C896 C 0.32240 0.81688 0.31805
 C897 C 0.30238 0.80686 0.29839
 C898 C 0.28607 0.77811 0.29986
 C899 C 0.28970 0.76035 0.32227
 C900 C 0.30956 0.77067 0.34220
 C901 C 0.35001 0.80886 0.35966
 C902 C 0.34189 0.81070 0.38572
 C903 C 0.36270 0.82466 0.40345
 C904 C 0.39202 0.83678 0.39540
 C905 C 0.40094 0.83262 0.36967
 C906 C 0.38017 0.81900 0.35203
 C907 C 0.41137 0.85731 0.41252
 C908 C 0.42326 0.88552 0.40284
 C909 C 0.43903 0.90670 0.41870
 C910 C 0.44366 0.90035 0.44473
 C911 C 0.43304 0.87166 0.45449
 C912 C 0.41666 0.85038 0.43851
 H913 H 0.33493 0.83885 0.31598
 H914 H 0.30051 0.82147 0.28166
 H915 H 0.27816 0.73804 0.32427
 H916 H 0.31248 0.75617 0.35892
 H917 H 0.31880 0.80297 0.39209
 H918 H 0.35509 0.82764 0.42311
 H919 H 0.42361 0.84109 0.36295
 H920 H 0.38731 0.81720 0.33216
 H921 H 0.41922 0.89191 0.38311
 H922 H 0.44703 0.92863 0.41067
 H923 H 0.43617 0.86637 0.47456
 H924 H 0.40782 0.82876 0.44647
 C925 C 1.15833 1.17269 0.31601
 C926 C 1.18010 1.19271 0.32818
 C927 C 1.20079 1.21079 0.31382
 C928 C 1.20038 1.20905 0.28698
 C929 C 1.17787 1.18955 0.27488
 C930 C 1.15709 1.17159 0.28925
 C931 C 1.13843 1.15165 0.33131
 C932 C 1.13481 1.12008 0.32405
 C933 C 1.11956 1.09920 0.34026
 C934 C 1.10809 1.10966 0.36396
 C935 C 1.11011 1.14146 0.37060
 C936 C 1.12507 1.16236 0.35433
 C937 C 1.09634 1.08729 0.38279
 C938 C 1.10911 1.08781 0.40751
 C939 C 1.09682 1.06849 0.42625
 C940 C 1.07127 1.04850 0.42064
 C941 C 1.05949 1.04689 0.39548
 C942 C 1.07212 1.06611 0.37659
 H943 H 1.18187 1.19364 0.34884
 H944 H 1.21758 1.22551 0.32390
 H945 H 1.17633 1.18769 0.25426
 H946 H 1.14020 1.15662 0.27944
 H947 H 1.14517 1.11121 0.30648
 H948 H 1.11820 1.07468 0.33495
 H949 H 1.10085 1.14993 0.38870
 H950 H 1.12697 1.18671 0.36007
 H951 H 1.12823 1.10370 0.41243
 H952 H 1.10650 1.07027 0.44540
 H953 H 1.03981 1.03168 0.39061
 H954 H 1.06216 1.06540 0.35750
 C955 C 0.66417 0.66988 -0.18326
 C956 C 0.68595 0.69013 -0.17131
 C957 C 0.70577 0.70902 -0.18584
 C958 C 0.70453 0.70791 -0.21270
 C959 C 0.68237 0.68781 -0.22458
 C960 C 0.66243 0.66907 -0.21003
 C961 C 0.64408 0.64906 -0.16775
 C962 C 0.63895 0.61775 -0.17528
 C963 C 0.62255 0.59735 -0.15929
 C964 C 0.61142 0.60797 -0.13552
 C965 C 0.61523 0.63952 -0.12853
 C966 C 0.63126 0.65993 -0.14456
 C967 C 0.59820 0.58600 -0.11691
 C968 C 0.61114 0.58524 -0.09227
 C969 C 0.59752 0.56672 -0.07358
 C970 C 0.57038 0.54878 -0.07905
 C971 C 0.55829 0.54837 -0.10414
 C972 C 0.57228 0.56679 -0.12304
 H973 H 0.68819 0.69091 -0.15067
 H974 H 0.72237 0.72409 -0.17590
 H975 H 0.68029 0.68629 -0.24518
 H976 H 0.64556 0.65399 -0.21973
 H977 H 0.64878 0.60868 -0.19298
 H978 H 0.61991 0.57301 -0.16487
 H979 H 0.60636 0.64816 -0.11034
 H980 H 0.63418 0.68410 -0.13858
 H981 H 0.63148 0.59957 -0.08736
 H982 H 0.60766 0.56745 -0.05455
 H983 H 0.53744 0.53473 -0.10894
 H984 H 0.56213 0.56706 -0.14207
 C985 C 0.83969 1.17214 0.68606
 C986 C 0.81600 1.18878 0.67336
 C987 C 0.79507 1.20759 0.68725
 C988 C 0.79693 1.20927 0.71411
 C989 C 0.82086 1.19220 0.72657
 C990 C 0.84213 1.17404 0.71265
 C991 C 0.86246 1.15331 0.67158
 C992 C 0.89428 1.16254 0.67054
 C993 C 0.91580 1.14526 0.65598
 C994 C 0.90579 1.11823 0.64288
 C995 C 0.87415 1.10845 0.64468
 C996 C 0.85249 1.12611 0.65878
 C997 C 0.92723 1.10195 0.62516
 C998 C 0.93133 1.06947 0.62660
 C999 C 0.94765 1.05353 0.60729
 C1000 C 0.95930 1.06988 0.58610
 C1001 C 0.95646 1.10255 0.58535
 C1002 C 0.94078 1.11852 0.60490
 H1003 H 0.81421 1.18775 0.65269
 H1004 H 0.77788 1.22116 0.67684
 H1005 H 0.82368 1.19298 0.74714
 H1006 H 0.86047 1.16135 0.72262
 H1007 H 0.90218 1.18351 0.68047
 H1008 H 0.94012 1.15315 0.65463
 H1009 H 0.86600 1.08784 0.63438
 H1010 H 0.82798 1.11872 0.65962
 H1011 H 0.92096 1.05639 0.64216
 H1012 H 0.94944 1.02829 0.60814
 H1013 H 0.96535 1.11560 0.56919
 H1014 H 0.93757 1.14358 0.60344
 C1015 C 0.34032 0.67557 0.18482
 C1016 C 0.31648 0.69270 0.17270
 C1017 C 0.29584 0.71129 0.18712
 C1018 C 0.29804 0.71232 0.21399
 C1019 C 0.32232 0.69515 0.22588
 C1020 C 0.34331 0.67718 0.21144
 C1021 C 0.36212 0.65588 0.16982
 C1022 C 0.39494 0.66049 0.17173
 C1023 C 0.41562 0.64196 0.15732
 C1024 C 0.40372 0.61812 0.14139
 C1025 C 0.37093 0.61310 0.13991
 C1026 C 0.35023 0.63209 0.15385
 C1027 C 0.42506 0.60007 0.12467
 C1028 C 0.42478 0.56724 0.12498
 C1029 C 0.44158 0.55024 0.10651
 C1030 C 0.45808 0.56598 0.08721
 C1031 C 0.45949 0.59878 0.08763
 C1032 C 0.44341 0.61572 0.10646
 H1033 H 0.31417 0.69202 0.15206
 H1034 H 0.27836 0.72494 0.17710
 H1035 H 0.32541 0.69545 0.24642
 H1036 H 0.36162 0.66409 0.22109
 H1037 H 0.40444 0.67880 0.18398
 H1038 H 0.44085 0.64625 0.15849
 H1039 H 0.36137 0.59505 0.12741
 H1040 H 0.32497 0.62815 0.15230
 H1041 H 0.41066 0.55485 0.13893
 H1042 H 0.43990 0.52493 0.10624
 H1043 H 0.47201 0.61128 0.07278
 H1044 H 0.44372 0.64105 0.10588
 C1045 C 1.16752 0.82001 0.67994
 C1046 C 1.16087 0.81657 0.70604
 C1047 C 1.18233 0.80187 0.72202
 C1048 C 1.21078 0.78958 0.71224
 C1049 C 1.21736 0.79305 0.68607
 C1050 C 1.19626 0.80856 0.67020
 C1051 C 1.14416 0.83480 0.66288
 C1052 C 1.14058 0.82430 0.63749
 C1053 C 1.11925 0.83888 0.62122
 C1054 C 1.10048 0.86375 0.63018
 C1055 C 1.10314 0.87336 0.65586
 C1056 C 1.12509 0.85939 0.67191
 C1057 C 1.07998 0.88109 0.61235
 C1058 C 1.07683 0.91368 0.61504
 C1059 C 1.06002 0.93063 0.59707
 C1060 C 1.04673 0.91549 0.57576
 C1061 C 1.04907 0.88293 0.57320
 C1062 C 1.06522 0.86576 0.59159
 H1063 H 1.13864 0.82439 0.71411
 H1064 H 1.17581 0.79922 0.74190
 H1065 H 1.23797 0.78267 0.67735
 H1066 H 1.20233 0.81113 0.65021
 H1067 H 1.15432 0.80490 0.63008
 H1068 H 1.11820 0.83116 0.60146
 H1069 H 1.08859 0.89202 0.66354
 H1070 H 1.12745 0.86834 0.69127
 H1071 H 1.08848 0.92641 0.63037
 H1072 H 1.05883 0.95583 0.59917
 H1073 H 1.03871 0.87088 0.55690
 H1074 H 1.06661 0.84061 0.58927
 C1075 C 0.66330 0.31595 0.18285
 C1076 C 0.68711 0.29739 0.17193
 C1077 C 0.70926 0.28277 0.18744
 C1078 C 0.70776 0.28601 0.21421
 C1079 C 0.68425 0.30541 0.22495
 C1080 C 0.66232 0.32029 0.20941
 C1081 C 0.63949 0.33074 0.16647
 C1082 C 0.63230 0.36254 0.16965
 C1083 C 0.61133 0.37703 0.15300
 C1084 C 0.59708 0.35984 0.13303
 C1085 C 0.60327 0.32768 0.13061
 C1086 C 0.62443 0.31327 0.14714
 C1087 C 0.57831 0.37607 0.11345
 C1088 C 0.58300 0.36887 0.08747
 C1089 C 0.56842 0.38655 0.06867
 C1090 C 0.54903 0.41193 0.07547
 C1091 C 0.54319 0.41828 0.10147
 C1092 C 0.55771 0.40046 0.12031
 H1093 H 0.68856 0.29419 0.15138
 H1094 H 0.72704 0.26833 0.17834
 H1095 H 0.68220 0.30882 0.24542
 H1096 H 0.64408 0.33456 0.21818
 H1097 H 0.64385 0.37643 0.18439
 H1098 H 0.60738 0.40195 0.15505
 H1099 H 0.59220 0.31382 0.11562
 H1100 H 0.62929 0.28854 0.14471
 H1101 H 0.59909 0.35047 0.08162
 H1102 H 0.57332 0.38100 0.04880
 H1103 H 0.52800 0.43744 0.10729
 H1104 H 0.55337 0.40615 0.14024
 C1105 C 0.82006 0.84413 0.31291
 C1106 C 0.82480 0.84321 0.28644
 C1107 C 0.80981 0.82045 0.27153
 C1108 C 0.78999 0.79793 0.28288
 C1109 C 0.78670 0.79812 0.30966
 C1110 C 0.80125 0.82125 0.32449
 C1111 C 0.83475 0.86889 0.32855
 C1112 C 0.81633 0.88634 0.34579
 C1113 C 0.83059 0.90822 0.36203
 C1114 C 0.86356 0.91256 0.36157
 C1115 C 0.88173 0.89598 0.34347
 C1116 C 0.86737 0.87444 0.32696
 C1117 C 0.87936 0.93139 0.38172
 C1118 C 0.90668 0.94893 0.37633
 C1119 C 0.92413 0.96263 0.39618
 C1120 C 0.91447 0.95903 0.42171
 C1121 C 0.88616 0.94304 0.42690
 C1122 C 0.86888 0.92928 0.40714
 H1123 H 0.83944 0.86064 0.27723
 H1124 H 0.81344 0.82105 0.25105
 H1125 H 0.77234 0.78087 0.31925
 H1126 H 0.79785 0.82128 0.34503
 H1127 H 0.79100 0.88268 0.34691
 H1128 H 0.81594 0.92112 0.37543
 H1129 H 0.90722 0.89844 0.34291
 H1130 H 0.88190 0.86106 0.31377
 H1131 H 0.91504 0.95128 0.35686
 H1132 H 0.94573 0.97505 0.39156
 H1133 H 0.87796 0.93997 0.44634
 H1134 H 0.84821 0.91555 0.41199
 C1135 C 0.31015 0.34032 -0.18195
 C1136 C 0.31503 0.34061 -0.20848
 C1137 C 0.29916 0.31941 -0.22434
 C1138 C 0.27812 0.29722 -0.21404
 C1139 C 0.27319 0.29717 -0.18745
 C1140 C 0.28878 0.31860 -0.17164
 C1141 C 0.32805 0.36181 -0.16493
 C1142 C 0.33914 0.35117 -0.14124
 C1143 C 0.35550 0.37126 -0.12486
 C1144 C 0.36149 0.40227 -0.13194
 C1145 C 0.35126 0.41290 -0.15581
 C1146 C 0.33442 0.39285 -0.17216
 C1147 C 0.37809 0.42314 -0.11390
 C1148 C 0.40628 0.43823 -0.12088
 C1149 C 0.42458 0.45354 -0.10226
 C1150 C 0.41467 0.45397 -0.07657
 C1151 C 0.38521 0.44083 -0.07021
 C1152 C 0.36721 0.42544 -0.08867
 H1153 H 0.33171 0.35674 -0.21696
 H1154 H 0.30390 0.32030 -0.24466
 H1155 H 0.25764 0.28031 -0.17863
 H1156 H 0.28413 0.31808 -0.15128
 H1157 H 0.33545 0.32719 -0.13543
 H1158 H 0.36373 0.36253 -0.10664
 H1159 H 0.35566 0.43682 -0.16150
 H1160 H 0.32595 0.40177 -0.19022
 H1161 H 0.41497 0.43661 -0.14034
 H1162 H 0.44711 0.46359 -0.10772
 H1163 H 0.37660 0.44118 -0.05069
 H1164 H 0.34527 0.41425 -0.08307
 C1165 C 1.16237 0.29137 -0.16361
 C1166 C 1.17840 0.31256 -0.17936
 C1167 C 1.19832 0.30197 -0.19879
 C1168 C 1.20310 0.26975 -0.20306
 C1169 C 1.18742 0.24845 -0.18700
 C1170 C 1.16745 0.25916 -0.16732
 C1171 C 1.14036 0.30350 -0.14370
 C1172 C 1.14141 0.29259 -0.11838
 C1173 C 1.12400 0.30776 -0.09904
 C1174 C 1.10524 0.33379 -0.10489
 C1175 C 1.10266 0.34335 -0.13037
 C1176 C 1.11990 0.32830 -0.14959
 C1177 C 1.09250 0.35438 -0.08458
 C1178 C 1.10728 0.38329 -0.08031
 C1179 C 1.09361 0.40547 -0.06411
 C1180 C 1.06466 0.39936 -0.05183
 C1181 C 1.05058 0.36969 -0.05503
 C1182 C 1.06443 0.34730 -0.07142
 H1183 H 1.17553 0.33755 -0.17663
 H1184 H 1.20994 0.31930 -0.21051
 H1185 H 1.18994 0.22353 -0.18990
 H1186 H 1.15531 0.24229 -0.15548
 H1187 H 1.15702 0.27358 -0.11332
 H1188 H 1.12654 0.30034 -0.07939
 H1189 H 1.08840 0.36349 -0.13519
 H1190 H 1.11816 0.33683 -0.16899
 H1191 H 1.12895 0.38911 -0.09029
 H1192 H 1.10532 0.42790 -0.06183
 H1193 H 1.02822 0.36441 -0.04590
 H1194 H 1.05262 0.32511 -0.07468
 C1195 C 0.67931 0.79650 0.33994
 C1196 C 0.67918 0.76455 0.33350
 C1197 C 0.69671 0.75353 0.31250
 C1198 C 0.71444 0.77431 0.29735
 C1199 C 0.71362 0.80642 0.30356
 C1200 C 0.69670 0.81726 0.32474
 C1201 C 0.66099 0.80886 0.36201
 C1202 C 0.67537 0.82997 0.37915
 C1203 C 0.65737 0.84577 0.39750
 C1204 C 0.62446 0.84115 0.39897
 C1205 C 0.61039 0.81832 0.38307
 C1206 C 0.62856 0.80222 0.36474
 C1207 C 0.60490 0.86301 0.41458
 C1208 C 0.57928 0.85282 0.42965
 C1209 C 0.56118 0.87450 0.44384
 C1210 C 0.56816 0.90668 0.44277
 C1211 C 0.59365 0.91654 0.42749
 C1212 C 0.61166 0.89511 0.41369
 H1213 H 0.66573 0.74812 0.34482
 H1214 H 0.69593 0.72881 0.30800
 H1215 H 0.72625 0.82336 0.29215
 H1216 H 0.69671 0.84211 0.32900
 H1217 H 0.70042 0.83508 0.37771
 H1218 H 0.66901 0.86273 0.40986
 H1219 H 0.58509 0.81435 0.38372
 H1220 H 0.61695 0.78604 0.35170
 H1221 H 0.57352 0.82817 0.43062
 H1222 H 0.54169 0.86619 0.45540
 H1223 H 0.59997 0.94104 0.42619
 H1224 H 0.63075 0.90384 0.40189
 C1225 C 0.82048 0.69634 -0.15760
 C1226 C 0.82493 0.72766 -0.16471
 C1227 C 0.80670 0.74079 -0.18423
 C1228 C 0.78338 0.72303 -0.19710
 C1229 C 0.77875 0.69181 -0.18967
 C1230 C 0.79663 0.67884 -0.16997
 C1231 C 0.84149 0.68131 -0.13835
 C1232 C 0.85052 0.64989 -0.14164
 C1233 C 0.86903 0.63501 -0.12336
 C1234 C 0.87941 0.65118 -0.10140
 C1235 C 0.87169 0.68292 -0.09842
 C1236 C 0.85273 0.69784 -0.11668
 C1237 C 0.89642 0.63373 -0.08129
 C1238 C 0.92667 0.64273 -0.07262
 C1239 C 0.94416 0.62283 -0.05664
 C1240 C 0.93143 0.59386 -0.04923
 C1241 C 0.90028 0.58630 -0.05645
 C1242 C 0.88307 0.60591 -0.07230
 H1243 H 0.84339 0.74170 -0.15594
 H1244 H 0.81196 0.76451 -0.18984
 H1245 H 0.76172 0.67699 -0.19942
 H1246 H 0.79205 0.65482 -0.16473
 H1247 H 0.84330 0.63665 -0.15842
 H1248 H 0.87510 0.61062 -0.12625
 H1249 H 0.87937 0.69579 -0.08157
 H1250 H 0.84619 0.72203 -0.11348
 H1251 H 0.93737 0.66420 -0.07931
 H1252 H 0.96811 0.62921 -0.05133
 H1253 H 0.88954 0.56444 -0.05065
 H1254 H 0.85960 0.59876 -0.07835
 C1255 C 0.31359 1.19422 0.34516
 C1256 C 0.31983 1.22502 0.33743
 C1257 C 0.30293 1.23830 0.31722
 C1258 C 0.27917 1.22124 0.30426
 C1259 C 0.27280 1.19054 0.31226
 C1260 C 0.28933 1.17745 0.33265
 C1261 C 0.33336 1.17884 0.36506
 C1262 C 0.34097 1.14695 0.36253
 C1263 C 0.35878 1.13194 0.38119
 C1264 C 0.36988 1.14839 0.40277
 C1265 C 0.36334 1.18048 0.40509
 C1266 C 0.34507 1.19556 0.38646
 C1267 C 0.38735 1.13121 0.42283
 C1268 C 0.41729 1.14112 0.43155
 C1269 C 0.43551 1.12165 0.44732
 C1270 C 0.42388 1.09216 0.45451
 C1271 C 0.39298 1.08360 0.44729
 C1272 C 0.37501 1.10282 0.43165
 H1273 H 0.33870 1.23847 0.34626
 H1274 H 0.30958 1.26151 0.31117
 H1275 H 0.25543 1.17618 0.30244
 H1276 H 0.28342 1.15385 0.33831
 H1277 H 0.33339 1.13351 0.34597
 H1278 H 0.36404 1.10730 0.37869
 H1279 H 0.37163 1.19363 0.42160
 H1280 H 0.33960 1.22011 0.38909
 H1281 H 0.42727 1.16298 0.42500
 H1282 H 0.45927 1.12879 0.45257
 H1283 H 0.38309 1.06127 0.45288
 H1284 H 0.35177 1.09494 0.42561
 C1285 C 1.18432 0.70389 0.15526
 C1286 C 1.18035 0.73495 0.16345
 C1287 C 1.19750 0.74670 0.18435
 C1288 C 1.21884 0.72756 0.19780
 C1289 C 1.22224 0.69623 0.18973
 C1290 C 1.20563 0.68472 0.16847
 C1291 C 1.16562 0.69097 0.13356
 C1292 C 1.18073 0.67449 0.11374
 C1293 C 1.16304 0.65968 0.09453
 C1294 C 1.12970 0.66032 0.09499
 C1295 C 1.11466 0.67818 0.11419
 C1296 C 1.13247 0.69352 0.13319
 C1297 C 1.11104 0.63960 0.07738
 C1298 C 1.08097 0.64812 0.06797
 C1299 C 1.06267 0.62672 0.05357
 C1300 C 1.07406 0.59641 0.04860
 C1301 C 1.10457 0.58858 0.05709
 C1302 C 1.12265 0.60969 0.07130
 H1303 H 1.16393 0.75014 0.15365
 H1304 H 1.19332 0.77064 0.19024
 H1305 H 1.23765 0.68045 0.19992
 H1306 H 1.20874 0.66049 0.16275
 H1307 H 1.20629 0.67265 0.11337
 H1308 H 1.17554 0.64694 0.07968
 H1309 H 1.08910 0.67900 0.11536
 H1310 H 1.12028 0.70609 0.14833
 H1311 H 1.07139 0.67109 0.07209
 H1312 H 1.03923 0.63339 0.04729
 H1313 H 1.11425 0.56552 0.05341
 H1314 H 1.14528 0.60187 0.07849
 C1315 C 0.68265 1.20451 0.65477
 C1316 C 0.67984 1.23576 0.66271
 C1317 C 0.69761 1.24713 0.68340
 C1318 C 0.71828 1.22737 0.69692
 C1319 C 0.72048 1.19583 0.68907
 C1320 C 0.70334 1.18471 0.66794
 C1321 C 0.66341 1.19220 0.63324
 C1322 C 0.67819 1.17909 0.61170
 C1323 C 0.66018 1.16517 0.59224
 C1324 C 0.62695 1.16315 0.59424
 C1325 C 0.61216 1.17758 0.61541
 C1326 C 0.63023 1.19218 0.63461
 C1327 C 0.60846 1.14309 0.57598
 C1328 C 0.57682 1.14982 0.56930
 C1329 C 0.55885 1.12844 0.55463
 C1330 C 0.57221 1.09994 0.54658
 C1331 C 0.60419 1.09415 0.55211
 C1332 C 0.62195 1.11523 0.56663
 H1333 H 0.66385 1.25136 0.65289
 H1334 H 0.69437 1.27129 0.68908
 H1335 H 0.73534 1.17961 0.69934
 H1336 H 0.70553 1.16036 0.66227
 H1337 H 0.70375 1.17929 0.61012
 H1338 H 0.67244 1.15521 0.57592
 H1339 H 0.58676 1.17627 0.61783
 H1340 H 0.61840 1.20219 0.65114
 H1341 H 0.56575 1.17124 0.57588
 H1342 H 0.53422 1.13345 0.55070
 H1343 H 0.61531 1.07251 0.54601
 H1344 H 0.64588 1.10872 0.57159
 C1345 C 0.82230 0.29447 0.15823
 C1346 C 0.79956 0.31321 0.17056
 C1347 C 0.78237 0.30184 0.19135
 C1348 C 0.78680 0.27109 0.20005
 C1349 C 0.80956 0.25232 0.18756
 C1350 C 0.82714 0.26390 0.16696
 C1351 C 0.84158 0.30755 0.13702
 C1352 C 0.87471 0.30421 0.13662
 C1353 C 0.89306 0.32014 0.11851
 C1354 C 0.87859 0.33959 0.10040
 C1355 C 0.84532 0.34107 0.09979
 C1356 C 0.82709 0.32543 0.11794
 C1357 C 0.89768 0.36114 0.08424
 C1358 C 0.88766 0.39219 0.08159
 C1359 C 0.90544 0.41349 0.06766
 C1360 C 0.93401 0.40462 0.05586
 C1361 C 0.94409 0.37341 0.05806
 C1362 C 0.92617 0.35187 0.07234
 H1363 H 0.79575 0.33711 0.16460
 H1364 H 0.76587 0.31743 0.20083
 H1365 H 0.81454 0.22890 0.19402
 H1366 H 0.84459 0.24898 0.15789
 H1367 H 0.88653 0.29063 0.15116
 H1368 H 0.91860 0.31863 0.11959
 H1369 H 0.83337 0.35525 0.08572
 H1370 H 0.80160 0.32791 0.11745
 H1371 H 0.86630 0.40039 0.09089
 H1372 H 0.89669 0.43722 0.06634
 H1373 H 0.96600 0.36587 0.04924
 H1374 H 0.93450 0.32805 0.07405
 C1375 C 0.32836 0.79791 0.65967
 C1376 C 0.31182 0.81830 0.67615
 C1377 C 0.29350 0.80672 0.69623
 C1378 C 0.29096 0.77433 0.70045
 C1379 C 0.30764 0.75394 0.68400
 C1380 C 0.32601 0.76555 0.66386
 C1381 C 0.34864 0.81072 0.63881
 C1382 C 0.37846 0.79762 0.63313
 C1383 C 0.39882 0.81197 0.61551
 C1384 C 0.38969 0.83962 0.60332
 C1385 C 0.35946 0.85185 0.60804
 C1386 C 0.33909 0.83748 0.62542
 C1387 C 0.41276 0.85857 0.58882
 C1388 C 0.42300 0.88691 0.59960
 C1389 C 0.44116 0.90764 0.58538
 C1390 C 0.44935 0.90076 0.55984
 C1391 C 0.44085 0.87143 0.54945
 C1392 C 0.42256 0.85039 0.56392
 H1393 H 0.31358 0.84340 0.67393
 H1394 H 0.28137 0.82335 0.70849
 H1395 H 0.30705 0.72896 0.68685
 H1396 H 0.33835 0.74915 0.65153
 H1397 H 0.38672 0.77720 0.64322
 H1398 H 0.42224 0.80245 0.61240
 H1399 H 0.35205 0.87326 0.59887
 H1400 H 0.31609 0.84782 0.62884
 H1401 H 0.41592 0.89350 0.61883
 H1402 H 0.44773 0.92981 0.59411
 H1403 H 0.44675 0.86557 0.52982
 H1404 H 0.41484 0.82853 0.55531
 C1405 C 0.29352 1.18378 -0.15705
 C1406 C 0.26396 1.17598 -0.16757
 C1407 C 0.25157 1.19287 -0.18808
 C1408 C 0.26837 1.21814 -0.19879
 C1409 C 0.29801 1.22590 -0.18813
 C1410 C 0.31021 1.20925 -0.16735
 C1411 C 0.30761 1.16462 -0.13621
 C1412 C 0.32291 1.17907 -0.11536
 C1413 C 0.33804 1.16115 -0.09671
 C1414 C 0.33879 1.12822 -0.09857
 C1415 C 0.32244 1.11372 -0.11895
 C1416 C 0.30694 1.13170 -0.13747
 C1417 C 0.35899 1.10953 -0.08077
 C1418 C 0.35049 1.07914 -0.07279
 C1419 C 0.37136 1.06111 -0.05791
 C1420 C 0.40121 1.07306 -0.05101
 C1421 C 0.40897 1.10378 -0.05816
 C1422 C 0.38834 1.12164 -0.07280
 H1423 H 0.25049 1.15653 -0.16007
 H1424 H 0.22920 1.18523 -0.19602
 H1425 H 0.31233 1.24432 -0.19627
 H1426 H 0.33333 1.21553 -0.15998
 H1427 H 0.32335 1.20433 -0.11358
 H1428 H 0.34965 1.17321 -0.08100
 H1429 H 0.32276 1.08853 -0.12127
 H1430 H 0.29553 1.11984 -0.15340
 H1431 H 0.32794 1.06914 -0.07835
 H1432 H 0.36475 1.03750 -0.05277
 H1433 H 0.43167 1.11388 -0.05304
 H1434 H 0.39616 1.14457 -0.07878
 C1435 C 0.80296 0.68361 0.33883
 C1436 C 0.82024 0.70804 0.32744
 C1437 C 0.80745 0.72532 0.30730
 C1438 C 0.77659 0.71946 0.29836
 C1439 C 0.75897 0.69563 0.31028
 C1440 C 0.77193 0.67801 0.33018
 C1441 C 0.81788 0.66322 0.35866
 C1442 C 0.80008 0.65014 0.37879
 C1443 C 0.81460 0.63130 0.39733
 C1444 C 0.84727 0.62552 0.39631
 C1445 C 0.86485 0.63798 0.37598
 C1446 C 0.85039 0.65633 0.35737
 C1447 C 0.86400 0.60812 0.41679
 C1448 C 0.89105 0.62154 0.42789
 C1449 C 0.91018 0.60428 0.44419
 C1450 C 0.90301 0.57295 0.44983
 C1451 C 0.87467 0.56000 0.44031
 C1452 C 0.85521 0.57756 0.42388
 H1453 H 0.84396 0.71364 0.33381
 H1454 H 0.82218 0.74286 0.29839
 H1455 H 0.73550 0.68955 0.30365
 H1456 H 0.75799 0.65915 0.33806
 H1457 H 0.77506 0.65500 0.38060
 H1458 H 0.80055 0.62209 0.41287
 H1459 H 0.89001 0.63348 0.37451
 H1460 H 0.86482 0.66494 0.34184
 H1461 H 0.89808 0.64518 0.42313
 H1462 H 0.93162 0.61509 0.45149
 H1463 H 0.86866 0.53586 0.44423
 H1464 H 0.83437 0.56671 0.41559
 C1465 C 0.70791 1.17567 0.15826
 C1466 C 0.68720 1.19453 0.17256
 C1467 C 0.69798 1.21128 0.19388
 C1468 C 0.73010 1.21060 0.20102
 C1469 C 0.75078 1.19129 0.18682
 C1470 C 0.73974 1.17386 0.16574
 C1471 C 0.69557 1.15770 0.13597
 C1472 C 0.69918 1.12506 0.13428
 C1473 C 0.68286 1.10775 0.11547
 C1474 C 0.66289 1.12289 0.09798
 C1475 C 0.66147 1.15579 0.09855
 C1476 C 0.67737 1.17294 0.11745
 C1477 C 0.64057 1.10480 0.08139
 C1478 C 0.60921 1.11513 0.07921
 C1479 C 0.58714 1.09815 0.06503
 C1480 C 0.59553 1.07009 0.05253
 C1481 C 0.62704 1.05975 0.05421
 C1482 C 0.64936 1.07688 0.06871
 H1483 H 0.66239 1.19586 0.16747
 H1484 H 0.68100 1.22501 0.20464
 H1485 H 0.77539 1.18921 0.19212
 H1486 H 0.75608 1.15920 0.15512
 H1487 H 0.71306 1.11281 0.14841
 H1488 H 0.68436 1.08246 0.11562
 H1489 H 0.64695 1.16825 0.08497
 H1490 H 0.67461 1.19813 0.11814
 H1491 H 0.60134 1.13608 0.08911
 H1492 H 0.56319 1.10704 0.06411
 H1493 H 0.63421 1.03820 0.04484
 H1494 H 0.67339 1.06833 0.07002
 C1495 C 1.21189 0.67925 0.65430
 C1496 C 1.19272 0.70252 0.66529
 C1497 C 1.20293 0.71946 0.68670
 C1498 C 1.23313 0.71451 0.69726
 C1499 C 1.25220 0.69090 0.68630
 C1500 C 1.24169 0.67346 0.66508
 C1501 C 1.19957 0.66015 0.63260
 C1502 C 1.20050 0.62728 0.63326
 C1503 C 1.18417 0.60939 0.61487
 C1504 C 1.16678 0.62411 0.59547
 C1505 C 1.16797 0.65692 0.59380
 C1506 C 1.18401 0.67472 0.61222
 C1507 C 1.14430 0.60600 0.57913
 C1508 C 1.11376 0.61785 0.57519
 C1509 C 1.09133 0.60064 0.56156
 C1510 C 1.09866 0.57101 0.55133
 C1511 C 1.12942 0.55924 0.55459
 C1512 C 1.15202 0.57650 0.56862
 H1513 H 1.16921 0.70682 0.65788
 H1514 H 1.18656 0.73583 0.69531
 H1515 H 1.27496 0.68517 0.69446
 H1516 H 1.25676 0.65534 0.65717
 H1517 H 1.21221 0.61547 0.64885
 H1518 H 1.18355 0.58419 0.61677
 H1519 H 1.15537 0.66893 0.57876
 H1520 H 1.18339 0.70000 0.61103
 H1521 H 1.10678 0.64016 0.58339
 H1522 H 1.06794 0.61055 0.55925
 H1523 H 1.13568 0.53643 0.54697
 H1524 H 1.17540 0.56680 0.57134
 C1525 C 0.70392 0.81888 -0.15369
 C1526 C 0.68307 0.80086 -0.16880
 C1527 C 0.69416 0.78340 -0.18966
 C1528 C 0.72651 0.78315 -0.19598
 C1529 C 0.74743 0.80099 -0.18070
 C1530 C 0.73630 0.81856 -0.15980
 C1531 C 0.69135 0.83905 -0.13260
 C1532 C 0.70274 0.86976 -0.12867
 C1533 C 0.68762 0.89012 -0.11137
 C1534 C 0.66087 0.88010 -0.09782
 C1535 C 0.65073 0.84896 -0.10054
 C1536 C 0.66589 0.82861 -0.11759
 C1537 C 0.64021 0.90276 -0.08434
 C1538 C 0.60956 0.90708 -0.09374
 C1539 C 0.58822 0.92602 -0.08066
 C1540 C 0.59670 0.94100 -0.05753
 C1541 C 0.62798 0.93795 -0.04862
 C1542 C 0.64970 0.91896 -0.06206
 H1543 H 0.65788 0.80106 -0.16507
 H1544 H 0.67712 0.77048 -0.20109
 H1545 H 0.77235 0.80215 -0.18517
 H1546 H 0.75302 0.83210 -0.14855
 H1547 H 0.72215 0.87864 -0.14003
 H1548 H 0.69554 0.91418 -0.10979
 H1549 H 0.63008 0.84080 -0.09026
 H1550 H 0.65695 0.80496 -0.11967
 H1551 H 0.60193 0.89521 -0.11109
 H1552 H 0.56459 0.92823 -0.08847
 H1553 H 0.63522 0.94919 -0.03091
 H1554 H 0.67340 0.91599 -0.05460
 C1555 C 1.20319 0.31963 0.34513
 C1556 C 1.18188 0.30282 0.32953
 C1557 C 1.19266 0.28516 0.30870
 C1558 C 1.22513 0.28346 0.30298
 C1559 C 1.24644 0.30033 0.31861
 C1560 C 1.23562 0.31813 0.33945
 C1561 C 1.19109 0.33969 0.36640
 C1562 C 1.20325 0.37004 0.37066
 C1563 C 1.18858 0.39045 0.38815
 C1564 C 1.16159 0.38079 0.40156
 C1565 C 1.15071 0.34994 0.39852
 C1566 C 1.16539 0.32955 0.38125
 C1567 C 1.14138 0.40367 0.41512
 C1568 C 1.11114 0.40922 0.40534
 C1569 C 1.08999 0.42817 0.41860
 C1570 C 1.09834 0.44188 0.44226
 C1571 C 1.12929 0.43770 0.45154
 C1572 C 1.15080 0.41868 0.43795
 H1573 H 1.15665 0.30403 0.33297
 H1574 H 1.17536 0.27305 0.29694
 H1575 H 1.27149 0.30046 0.31454
 H1576 H 1.25264 0.33083 0.35108
 H1577 H 1.22288 0.37863 0.35941
 H1578 H 1.19703 0.41431 0.39000
 H1579 H 1.12985 0.34210 0.40869
 H1580 H 1.15589 0.30616 0.37885
 H1581 H 1.10362 0.39823 0.38758
 H1582 H 1.06660 0.43132 0.41057
 H1583 H 1.13637 0.44798 0.46969
 H1584 H 1.17419 0.41470 0.44570
 C1585 C 0.30049 0.82505 0.15890
 C1586 C 0.26831 0.82674 0.16559
 C1587 C 0.25611 0.80833 0.18539
 C1588 C 0.27573 0.78760 0.19890
 C1589 C 0.30776 0.78560 0.19176
 C1590 C 0.31981 0.80367 0.17189
 C1591 C 0.31454 0.84623 0.13934
 C1592 C 0.34526 0.85820 0.14295
 C1593 C 0.35975 0.87620 0.12416
 C1594 C 0.34384 0.88318 0.10137
 C1595 C 0.31259 0.87270 0.09806
 C1596 C 0.29806 0.85425 0.11687
 C1597 C 0.36145 0.89907 0.08068
 C1598 C 0.35238 0.92851 0.07137
 C1599 C 0.37264 0.94524 0.05500
 C1600 C 0.40207 0.93257 0.04783
 C1601 C 0.40970 0.90214 0.05574
 C1602 C 0.38974 0.88571 0.07201
 H1603 H 0.25279 0.84316 0.15620
 H1604 H 0.23155 0.81129 0.19063
 H1605 H 0.32394 0.77051 0.20186
 H1606 H 0.34456 0.80116 0.16696
 H1607 H 0.35834 0.85345 0.16029
 H1608 H 0.38377 0.88435 0.12723
 H1609 H 0.29995 0.87772 0.08055
 H1610 H 0.27440 0.84541 0.11344
 H1611 H 0.33059 0.93923 0.07788
 H1612 H 0.36620 0.96865 0.04924
 H1613 H 0.43194 0.89145 0.05024
 H1614 H 0.39702 0.86291 0.07870
 C1615 C 0.80348 0.32154 0.65749
 C1616 C 0.77154 0.32478 0.66453
 C1617 C 0.75870 0.30683 0.68431
 C1618 C 0.77744 0.28513 0.69762
 C1619 C 0.80922 0.28160 0.69020
 C1620 C 0.82188 0.29912 0.67022
 C1621 C 0.81818 0.34231 0.63794
 C1622 C 0.84970 0.35231 0.64095
 C1623 C 0.86433 0.37059 0.62241
 C1624 C 0.84779 0.37985 0.60048
 C1625 C 0.81593 0.37111 0.59772
 C1626 C 0.80128 0.35233 0.61623
 C1627 C 0.86505 0.39682 0.58016
 C1628 C 0.85560 0.42659 0.57179
 C1629 C 0.87549 0.44421 0.55576
 C1630 C 0.90492 0.43209 0.54798
 C1631 C 0.91291 0.40139 0.55490
 C1632 C 0.89332 0.38408 0.57082
 H1633 H 0.75672 0.34207 0.65546
 H1634 H 0.73438 0.31098 0.68974
 H1635 H 0.82476 0.26578 0.70020
 H1636 H 0.84639 0.29539 0.66505
 H1637 H 0.86324 0.34604 0.65771
 H1638 H 0.88883 0.37739 0.62510
 H1639 H 0.80278 0.37787 0.58087
 H1640 H 0.77703 0.34500 0.61318
 H1641 H 0.83381 0.43684 0.57879
 H1642 H 0.86880 0.46782 0.55076
 H1643 H 0.93516 0.39116 0.54889
 H1644 H 0.90088 0.36102 0.57670
 C1645 C 1.18361 1.14724 0.68545
 C1646 C 1.16537 1.17274 0.69407
 C1647 C 1.17932 1.19728 0.70781
 C1648 C 1.21207 1.19766 0.71232
 C1649 C 1.23022 1.17207 0.70374
 C1650 C 1.21618 1.14715 0.69070
 C1651 C 1.16892 1.12120 0.67060
 C1652 C 1.18611 1.10575 0.65125
 C1653 C 1.17164 1.08322 0.63578
 C1654 C 1.13932 1.07632 0.63863
 C1655 C 1.12254 1.09043 0.65886
 C1656 C 1.13729 1.11236 0.67485
 C1657 C 1.12241 1.05783 0.61870
 C1658 C 1.09580 1.03944 0.62467
 C1659 C 1.07728 1.02626 0.60515
 C1660 C 1.08536 1.03089 0.57938
 C1661 C 1.11301 1.04765 0.57358
 C1662 C 1.13109 1.06116 0.59292
 H1663 H 1.14024 1.17388 0.69023
 H1664 H 1.16415 1.21543 0.71538
 H1665 H 1.25532 1.17069 0.70764
 H1666 H 1.23092 1.12756 0.68516
 H1667 H 1.21042 1.11192 0.64718
 H1668 H 1.18554 1.07216 0.62084
 H1669 H 1.09759 1.08580 0.66163
 H1670 H 1.12357 1.12296 0.69010
 H1671 H 1.08875 1.03597 0.64435
 H1672 H 1.05614 1.01337 0.61024
 H1673 H 1.11997 1.05179 0.55395
 H1674 H 1.15093 1.07568 0.58744
 C1675 C 0.67469 0.65784 0.18786
 C1676 C 0.65997 0.68133 0.20238
 C1677 C 0.67802 0.70390 0.21497
 C1678 C 0.71124 0.70395 0.21288
 C1679 C 0.72592 0.67962 0.19905
 C1680 C 0.70780 0.65692 0.18649
 C1681 C 0.65540 0.63554 0.17296
 C1682 C 0.66287 0.60352 0.17225
 C1683 C 0.64623 0.58321 0.15602
 C1684 C 0.62233 0.59494 0.14025
 C1685 C 0.61401 0.62659 0.14175
 C1686 C 0.63033 0.64675 0.15807
 C1687 C 0.60862 0.57556 0.11988
 C1688 C 0.61340 0.58451 0.09451
 C1689 C 0.59844 0.56845 0.07475
 C1690 C 0.57809 0.54330 0.08004
 C1691 C 0.57409 0.53366 0.10550
 C1692 C 0.58953 0.54964 0.12538
 H1693 H 0.63444 0.68211 0.20409
 H1694 H 0.66571 0.72113 0.22652
 H1695 H 0.75138 0.67764 0.19821
 H1696 H 0.71965 0.63892 0.17537
 H1697 H 0.68198 0.59443 0.18380
 H1698 H 0.65295 0.55880 0.15484
 H1699 H 0.59563 0.63589 0.12954
 H1700 H 0.62435 0.67138 0.15814
 H1701 H 0.62822 0.60447 0.09007
 H1702 H 0.60195 0.57659 0.05539
 H1703 H 0.55858 0.51429 0.11007
 H1704 H 0.58571 0.54260 0.14499
 C1705 C 1.15989 0.82841 0.31175
 C1706 C 1.19184 0.82830 0.31909
 C1707 C 1.21406 0.81110 0.30507
 C1708 C 1.20480 0.79365 0.28338
 C1709 C 1.17278 0.79464 0.27578
 C1710 C 1.15064 0.81164 0.28986
 C1711 C 1.13605 0.84531 0.32721
 C1712 C 1.10722 0.83077 0.33335
 C1713 C 1.08515 0.84611 0.34882
 C1714 C 1.09140 0.87635 0.35822
 C1715 C 1.11990 0.89119 0.35158
 C1716 C 1.14212 0.87573 0.33631
 C1717 C 1.06954 0.89148 0.37655
 C1718 C 1.06192 0.92328 0.37429
 C1719 C 1.04490 0.93852 0.39360
 C1720 C 1.03568 0.92226 0.41562
 C1721 C 1.04174 0.89004 0.41716
 C1722 C 1.05838 0.87474 0.39771
 H1723 H 1.19951 0.84098 0.33604
 H1724 H 1.23820 0.81153 0.31155
 H1725 H 1.16452 0.78196 0.25903
 H1726 H 1.12622 0.81173 0.28357
 H1727 H 1.10213 0.80720 0.32675
 H1728 H 1.06334 0.83423 0.35370
 H1729 H 1.12544 0.91435 0.35892
 H1730 H 1.16410 0.88747 0.33170
 H1731 H 1.07004 0.93656 0.35799
 H1732 H 1.04070 0.96341 0.39199
 H1733 H 1.03479 0.87693 0.43389
 H1734 H 1.06408 0.85022 0.39993
 C1735 C 0.66314 0.33298 -0.19116
 C1736 C 0.65504 0.32082 -0.21521
 C1737 C 0.67647 0.30239 -0.22874
 C1738 C 0.70647 0.29542 -0.21841
 C1739 C 0.71431 0.30767 -0.19416
 C1740 C 0.69295 0.32649 -0.18078
 C1741 C 0.63994 0.35116 -0.17634
 C1742 C 0.64852 0.37993 -0.16523
 C1743 C 0.62716 0.39600 -0.14964
 C1744 C 0.59720 0.38319 -0.14468
 C1745 C 0.58832 0.35484 -0.15635
 C1746 C 0.60948 0.33904 -0.17229
 C1747 C 0.57677 0.39776 -0.12525
 C1748 C 0.56657 0.38003 -0.10436
 C1749 C 0.55112 0.39448 -0.08393
 C1750 C 0.54518 0.42673 -0.08434
 C1751 C 0.55383 0.44418 -0.10588
 C1752 C 0.56990 0.42982 -0.12612
 H1753 H 0.63208 0.32559 -0.22351
 H1754 H 0.66918 0.29330 -0.24723
 H1755 H 0.73642 0.30245 -0.18501
 H1756 H 0.69934 0.33526 -0.16196
 H1757 H 0.67189 0.38966 -0.16829
 H1758 H 0.63451 0.41769 -0.14051
 H1759 H 0.56531 0.34463 -0.15264
 H1760 H 0.60255 0.31676 -0.18063
 H1761 H 0.57196 0.35531 -0.10329
 H1762 H 0.54451 0.38060 -0.06753
 H1763 H 0.54962 0.46916 -0.10649
 H1764 H 0.57767 0.44379 -0.14213
 C1765 C 0.83901 1.17709 0.32039
 C1766 C 0.81569 1.19671 0.33082
 C1767 C 0.79491 1.21251 0.31494
 C1768 C 0.79723 1.20949 0.28822
 C1769 C 0.82045 1.18950 0.27784
 C1770 C 0.84107 1.17343 0.29377
 C1771 C 0.86121 1.16077 0.33738
 C1772 C 0.89346 1.15828 0.33102
 C1773 C 0.91453 1.14400 0.34779
 C1774 C 0.90361 1.13249 0.37119
 C1775 C 0.87139 1.13444 0.37732
 C1776 C 0.85033 1.14829 0.36050
 C1777 C 0.92530 1.11804 0.38943
 C1778 C 0.92467 1.12770 0.41510
 C1779 C 0.94069 1.11067 0.43349
 C1780 C 0.95733 1.08348 0.42651
 C1781 C 0.95987 1.07518 0.40048
 C1782 C 0.94398 1.09248 0.38201
 H1783 H 0.81386 1.20036 0.35130
 H1784 H 0.77745 1.22756 0.32378
 H1785 H 0.82300 1.18625 0.25739
 H1786 H 0.85853 1.15803 0.28525
 H1787 H 0.90248 1.16801 0.31341
 H1788 H 0.93937 1.14256 0.34283
 H1789 H 0.86250 1.12502 0.39511
 H1790 H 0.82551 1.14919 0.36559
 H1791 H 0.91062 1.14766 0.42103
 H1792 H 0.93856 1.11790 0.45333
 H1793 H 0.97284 1.05453 0.39452
 H1794 H 0.94469 1.08481 0.36220
 C1795 C 0.33078 0.67020 -0.18102
 C1796 C 0.30821 0.69071 -0.17074
 C1797 C 0.29016 0.70925 -0.18675
 C1798 C 0.29439 0.70783 -0.21340
 C1799 C 0.31711 0.68717 -0.22361
 C1800 C 0.33512 0.66853 -0.20755
 C1801 C 0.35012 0.65111 -0.16389
 C1802 C 0.38287 0.64848 -0.16786
 C1803 C 0.40148 0.63235 -0.15043
 C1804 C 0.38754 0.61888 -0.12883
 C1805 C 0.35470 0.62060 -0.12534
 C1806 C 0.33610 0.63655 -0.14278
 C1807 C 0.40716 0.60384 -0.10944
 C1808 C 0.40234 0.61097 -0.08352
 C1809 C 0.41961 0.59565 -0.06486
 C1810 C 0.44187 0.57282 -0.07187
 C1811 C 0.44743 0.56643 -0.09792
 C1812 C 0.43020 0.58194 -0.11660
 H1813 H 0.30484 0.69278 -0.15024
 H1814 H 0.27307 0.72483 -0.17806
 H1815 H 0.32113 0.68518 -0.24400
 H1816 H 0.35227 0.65263 -0.21587
 H1817 H 0.39418 0.65977 -0.18392
 H1818 H 0.42684 0.63130 -0.15333
 H1819 H 0.34350 0.60977 -0.10901
 H1820 H 0.31079 0.63777 -0.13967
 H1821 H 0.38496 0.62822 -0.07770
 H1822 H 0.41489 0.60114 -0.04495
 H1823 H 0.46457 0.54902 -0.10387
 H1824 H 0.43416 0.57617 -0.13658
 C1825 C 0.83206 0.83037 0.68744
 C1826 C 0.83506 0.83089 0.71415
 C1827 C 0.81643 0.81129 0.72914
 C1828 C 0.79442 0.79069 0.71771
 C1829 C 0.79215 0.78974 0.69089
 C1830 C 0.81057 0.80945 0.67597
 C1831 C 0.85040 0.85220 0.67143
 C1832 C 0.86210 0.84218 0.64760
 C1833 C 0.87630 0.86341 0.63118
 C1834 C 0.87946 0.89492 0.63841
 C1835 C 0.86938 0.90479 0.66270
 C1836 C 0.85473 0.88358 0.67908
 C1837 C 0.89213 0.91730 0.61992
 C1838 C 0.91886 0.93548 0.62574
 C1839 C 0.93351 0.95292 0.60659
 C1840 C 0.92134 0.95252 0.58152
 C1841 C 0.89313 0.93614 0.57642
 C1842 C 0.87880 0.91854 0.59542
 H1843 H 0.85179 0.84647 0.72348
 H1844 H 0.81924 0.81267 0.74969
 H1845 H 0.77571 0.77421 0.68126
 H1846 H 0.80734 0.80882 0.65542
 H1847 H 0.85983 0.81800 0.64147
 H1848 H 0.88453 0.85533 0.61263
 H1849 H 0.87172 0.92908 0.66852
 H1850 H 0.84571 0.89199 0.69727
 H1851 H 0.92936 0.93478 0.64464
 H1852 H 0.95513 0.96544 0.61113
 H1853 H 0.88294 0.93553 0.55741
 H1854 H 0.85789 0.90492 0.59076
 C1855 C 0.34057 0.31938 0.18930
 C1856 C 0.34155 0.32106 0.21604
 C1857 C 0.31988 0.30423 0.23052
 C1858 C 0.29667 0.28546 0.21852
 C1859 C 0.29596 0.28379 0.19167
 C1860 C 0.31767 0.30057 0.17723
 C1861 C 0.36238 0.33822 0.17382
 C1862 C 0.37609 0.32527 0.15172
 C1863 C 0.39292 0.34418 0.13503
 C1864 C 0.39632 0.37626 0.14024
 C1865 C 0.38459 0.38884 0.16319
 C1866 C 0.36761 0.36990 0.17991
 C1867 C 0.40907 0.39689 0.12046
 C1868 C 0.43227 0.41936 0.12628
 C1869 C 0.44445 0.43824 0.10697
 C1870 C 0.43327 0.43502 0.08173
 C1871 C 0.40929 0.41317 0.07627
 C1872 C 0.39739 0.39425 0.09545
 H1873 H 0.35915 0.33530 0.22574
 H1874 H 0.32152 0.30613 0.25113
 H1875 H 0.27862 0.26963 0.18167
 H1876 H 0.31612 0.29933 0.15656
 H1877 H 0.37292 0.30074 0.14697
 H1878 H 0.40235 0.33401 0.11757
 H1879 H 0.38693 0.41359 0.16744
 H1880 H 0.35711 0.38040 0.19682
 H1881 H 0.44142 0.42174 0.14556
 H1882 H 0.46297 0.45486 0.11171
 H1883 H 0.40016 0.41008 0.05705
 H1884 H 0.37901 0.37745 0.09073
   
