data_POSCAR
  _audit_creation_date              2014-09-24
  _audit_creation_method            'ToBaCCo'
  _symmetry_space_group_name_H-M    'P1'
  _symmetry_Int_Tables_number       1
  _symmetry_cell_setting            triclinic
  loop_
  _symmetry_equiv_pos_as_xyz
 x,y,z
_cell_length_a 36.8526
_cell_length_b 36.7516
_cell_length_c 36.6749
_cell_angle_alpha 90.290600
_cell_angle_beta 90.662800
_cell_angle_gamma 90.025300
loop_
  _atom_site_label
  _atom_site_type_symbol
  _atom_site_fract_x
  _atom_site_fract_y
  _atom_site_fract_z
C1 C 0.38813 0.00557 0.25776
 C2 C 0.10828 0.00730 0.75265
 C3 C 0.60633 0.50457 0.24298
 C4 C 0.87814 0.50849 0.74216
 C5 C 0.25296 0.34471 0.99565
 C6 C 0.75590 0.15266 1.00720
 C7 C 0.24331 0.64399 0.49717
 C8 C 0.75029 0.85185 0.50856
 C9 C 0.00784 0.24318 0.38009
 C10 C 0.00470 0.74479 0.12602
 C11 C 0.50599 0.25481 0.62091
 C12 C 0.49538 0.76113 0.88837
 C13 C -0.24893 0.59774 1.00547
 C14 C -0.25866 0.39418 0.50419
 C15 C 0.25706 -0.10367 0.00187
 C16 C 0.25447 1.10008 0.49162
 C17 C 0.12941 0.50611 0.24433
 C18 C -0.12697 1.00306 0.25137
 C19 C 0.36134 0.50192 -0.26305
 C20 C 0.61852 0.00254 -0.23912
 C21 C 0.00823 0.24337 0.86762
 C22 C 0.50489 0.26615 0.13074
 C23 C -0.00872 0.74855 0.63512
 C24 C 0.50658 0.75685 0.37552
 Zr25 Zr 0.02045 -0.03481 1.04742
 O26 O 0.05794 -0.01917 1.08879
 O27 O 0.00887 -0.08855 1.06176
 O28 O -0.00410 -0.03416 1.09914
 O29 O 0.08670 -0.05225 0.98403
 O30 O -0.05474 0.00047 1.09024
 O31 O 0.06993 -0.06328 1.04269
 O32 O -0.03274 -0.10719 1.01907
 O33 O -0.03532 -0.03832 1.03647
 O34 O 0.01517 -0.05983 0.99636
 O35 O 0.00147 0.01913 1.04912
 O36 O 0.05021 -0.00195 1.01138
 Zr37 Zr -0.03216 0.02442 0.94773
 Zr38 Zr -0.05368 0.01562 1.03517
 Zr39 Zr 0.04184 -0.02611 0.96003
 Zr40 Zr -0.04009 -0.06153 0.98463
 O41 O 0.09048 -0.00047 0.94382
 O42 O -0.09177 -0.07465 1.00571
 O43 O -0.01330 -0.02981 0.94561
 O44 O -0.06140 -0.00855 0.98384
 O45 O -0.02697 0.04978 0.99869
 O46 O 0.02344 0.02739 0.95917
 C47 C -0.01260 -0.11243 1.04752
 C48 C 0.09219 -0.06559 1.01598
 C49 C -0.03327 -0.01865 1.11034
 O50 O -0.10519 -0.00748 1.04519
 O51 O -0.09421 0.05005 1.01391
 O52 O -0.07883 0.05716 0.95427
 C53 C -0.09900 0.06379 0.98203
 O54 O 0.06727 0.05455 1.05381
 Zr55 Zr 0.02840 0.05090 1.01067
 O56 O -0.01951 0.07792 0.93299
 O57 O -0.05749 0.06259 1.06854
 O58 O 0.01164 0.09381 1.04549
 O59 O 0.07943 0.06660 0.98971
 O60 O 0.01941 0.09722 0.97791
 C61 C 0.00066 0.10218 0.94854
 O62 O -0.07223 0.01048 0.90827
 O63 O 0.04918 -0.07612 0.93216
 O64 O -0.00972 0.02007 0.89495
 O65 O 0.03833 -0.01825 0.90351
 O66 O -0.02421 -0.10588 0.95123
 O67 O -0.07609 -0.06700 0.93923
 C68 C 0.01723 0.00109 0.88324
 H69 H 0.02580 -0.08455 0.99548
 H70 H -0.08744 -0.00930 0.97695
 H71 H 0.03698 0.04153 0.94088
 H72 H 0.00511 0.02993 1.07368
 H73 H -0.09587 -0.10096 1.00131
 H74 H -0.11725 0.00854 1.06317
 H75 H -0.08172 0.06202 1.07998
 H76 H 0.02772 0.11490 1.04100
 H77 H -0.04068 -0.12650 0.95642
 H78 H 0.07328 -0.07502 0.92052
 H79 H 0.10278 -0.01745 0.92693
 H80 H 0.08278 0.09282 0.99524
 H81 H -0.08915 -0.09048 0.94082
 H82 H -0.07539 0.03193 0.89223
 H83 H 0.06169 -0.04057 1.10479
 H84 H 0.07618 0.07991 1.05588
 Zr85 Zr 0.51416 0.47419 0.53435
 O86 O 0.54751 0.49887 0.57491
 O87 O 0.51102 0.42039 0.55261
 O88 O 0.48916 0.47420 0.58579
 O89 O 0.58301 0.46265 0.47271
 O90 O 0.43393 0.50020 0.57477
 O91 O 0.56836 0.45561 0.53250
 O92 O 0.47153 0.39335 0.51245
 O93 O 0.45969 0.46137 0.52360
 O94 O 0.51339 0.44460 0.48553
 O95 O 0.48699 0.52447 0.53174
 O96 O 0.53867 0.50825 0.49557
 Zr97 Zr 0.45406 0.51610 0.42980
 Zr98 Zr 0.43318 0.51145 0.51827
 Zr99 Zr 0.53491 0.47896 0.44644
 Zr100 Zr 0.45905 0.43378 0.47373
 O101 O 0.57938 0.51027 0.42826
 O102 O 0.40925 0.41454 0.49471
 O103 O 0.48122 0.46562 0.43206
 O104 O 0.42979 0.48244 0.46892
 O105 O 0.45461 0.54601 0.47865
 O106 O 0.50837 0.52859 0.44127
 C107 C 0.49234 0.39310 0.54083
 C108 C 0.59096 0.45474 0.50599
 C109 C 0.45793 0.48571 0.59611
 O110 O 0.38550 0.48178 0.52977
 O111 O 0.38876 0.53849 0.49394
 O112 O 0.40246 0.54123 0.43343
 C113 C 0.38175 0.54798 0.46082
 O114 O 0.54601 0.57049 0.53320
 Zr115 Zr 0.50889 0.55673 0.49053
 O116 O 0.45784 0.56905 0.41007
 O117 O 0.42198 0.55945 0.54821
 O118 O 0.48454 0.59921 0.52096
 O119 O 0.55722 0.57883 0.46892
 O120 O 0.49342 0.59736 0.45296
 C121 C 0.47431 0.59695 0.42329
 O122 O 0.41770 0.49200 0.39171
 O123 O 0.54987 0.42846 0.42304
 O124 O 0.47860 0.51235 0.37762
 O125 O 0.53169 0.48229 0.38942
 O126 O 0.48227 0.38936 0.44519
 O127 O 0.42555 0.41946 0.42832
 C128 C 0.50869 0.49736 0.36770
 H129 H 0.52782 0.42192 0.48691
 H130 H 0.40424 0.47713 0.46215
 H131 H 0.51997 0.54319 0.42203
 H132 H 0.48869 0.53758 0.55535
 H133 H 0.40917 0.38768 0.49219
 H134 H 0.37091 0.49723 0.54626
 H135 H 0.39790 0.55606 0.55947
 H136 H 0.49670 0.62221 0.51415
 H137 H 0.46866 0.36717 0.45192
 H138 H 0.57384 0.43210 0.41165
 H139 H 0.59456 0.49399 0.41314
 H140 H 0.55596 0.60562 0.47190
 H141 H 0.41648 0.39429 0.43133
 H142 H 0.41140 0.51106 0.37366
 H143 H 0.55453 0.47967 0.59257
 H144 H 0.54979 0.59717 0.53363
 Zr145 Zr 0.49259 1.02917 0.55944
 O146 O 0.46081 1.01166 0.60380
 O147 O 0.49840 1.08481 0.57081
 O148 O 0.52091 1.03307 0.61015
 O149 O 0.41980 1.03511 0.49894
 O150 O 0.57640 1.00901 0.59726
 O151 O 0.43878 1.04932 0.55676
 O152 O 0.53369 1.10581 0.52467
 O153 O 0.54613 1.04002 0.54421
 O154 O 0.49007 1.05146 0.50704
 O155 O 0.51944 0.97872 0.56170
 O156 O 0.46509 0.99035 0.52659
 Zr157 Zr 0.54538 0.97202 0.45882
 Zr158 Zr 0.57213 0.98948 0.54382
 Zr159 Zr 0.46560 1.01222 0.47379
 Zr160 Zr 0.54332 1.06015 0.49117
 O161 O 0.41939 0.97943 0.46328
 O162 O 0.59459 1.08165 0.50695
 O163 O 0.51834 1.02263 0.45550
 O164 O 0.57226 1.01109 0.49124
 O165 O 0.54789 0.94940 0.51095
 O166 O 0.49170 0.96204 0.47395
 C167 C 0.51558 1.11011 0.55418
 C168 C 0.41461 1.04846 0.53103
 C169 C 0.55372 1.02400 0.61889
 O170 O 0.62038 1.02040 0.54935
 O171 O 0.61581 0.96108 0.52128
 O172 O 0.59660 0.94614 0.46374
 C173 C 0.61989 0.94544 0.49028
 O174 O 0.46095 0.93414 0.57282
 Zr175 Zr 0.49427 0.94121 0.52646
 O176 O 0.54026 0.91658 0.44724
 O177 O 0.58544 0.94568 0.57874
 O178 O 0.52059 0.90260 0.56041
 O179 O 0.44381 0.91789 0.51063
 O180 O 0.50549 0.89527 0.49364
 C181 C 0.52345 0.89119 0.46397
 O182 O 0.57989 0.98954 0.41664
 O183 O 0.44993 1.05847 0.44328
 O184 O 0.51879 0.96971 0.40752
 O185 O 0.46543 0.99941 0.41773
 O186 O 0.51802 1.10025 0.45818
 O187 O 0.57320 1.06781 0.44257
 C188 C 0.48800 0.98270 0.39687
 H189 H 0.47608 1.07442 0.50596
 H190 H 0.59726 1.01523 0.48257
 H191 H 0.47878 0.94506 0.45727
 H192 H 0.51963 0.96883 0.58676
 H193 H 0.59450 1.10792 0.50100
 H194 H 0.63635 1.00740 0.56689
 H195 H 0.61021 0.95044 0.58847
 H196 H 0.50744 0.87922 0.55752
 H197 H 0.53202 1.12312 0.46125
 H198 H 0.42544 1.05329 0.43307
 H199 H 0.40373 0.99308 0.44599
 H200 H 0.44462 0.89175 0.51710
 H201 H 0.58282 1.09296 0.44204
 H202 H 0.58524 0.96789 0.40136
 H203 H 0.45563 1.03340 0.61904
 H204 H 0.45643 0.90786 0.57651
 Zr205 Zr -0.00792 0.52233 1.04679
 O206 O -0.03713 0.50336 1.09230
 O207 O -0.00037 0.57726 1.05993
 O208 O 0.02389 0.52484 1.09550
 O209 O -0.08442 0.53230 0.99164
 O210 O 0.07736 0.49873 1.07865
 O211 O -0.06081 0.54450 1.04829
 O212 O 0.03273 0.59974 1.01294
 O213 O 0.04480 0.53239 1.02872
 O214 O -0.01329 0.54675 0.99556
 O215 O 0.01759 0.47119 1.04559
 O216 O -0.03860 0.48561 1.01429
 Zr217 Zr 0.03652 0.46808 0.94095
 Zr218 Zr 0.06929 0.48115 1.02472
 Zr219 Zr -0.04095 0.50949 0.96233
 Zr220 Zr 0.03907 0.55499 0.97694
 O221 O -0.08836 0.47803 0.95341
 O222 O 0.09177 0.57440 0.99036
 O223 O 0.01087 0.51951 0.94138
 O224 O 0.06646 0.50512 0.97319
 O225 O 0.04185 0.44321 0.99185
 O226 O -0.01623 0.45862 0.95906
 C227 C 0.01649 0.60307 1.04369
 C228 C -0.08672 0.54505 1.02436
 C229 C 0.05682 0.51445 1.10198
 O230 O 0.11900 0.50993 1.02780
 O231 O 0.10982 0.45118 0.99811
 O232 O 0.08795 0.44274 0.94029
 C233 C 0.11231 0.43865 0.96540
 O234 O -0.04241 0.42870 1.05818
 Zr235 Zr -0.01083 0.43579 1.01061
 O236 O 0.02918 0.41285 0.92803
 O237 O 0.08333 0.43598 1.05754
 O238 O 0.01571 0.39580 1.04274
 O239 O -0.06212 0.41349 0.99613
 O240 O -0.00127 0.39024 0.97677
 C241 C 0.01422 0.38674 0.94570
 O242 O 0.06798 0.48649 0.89671
 O243 O -0.05749 0.55735 0.93496
 O244 O 0.00681 0.46842 0.89154
 O245 O -0.04495 0.49934 0.90556
 O246 O 0.01297 0.59707 0.94721
 O247 O 0.06612 0.56378 0.92687
 C248 C -0.02394 0.48277 0.88295
 H249 H -0.02662 0.57012 0.99629
 H250 H 0.09094 0.50900 0.96306
 H251 H -0.03037 0.44243 0.94258
 H252 H 0.01901 0.46052 1.07029
 H253 H 0.09208 0.60089 0.98550
 H254 H 0.13549 0.49567 1.04377
 H255 H 0.10891 0.43949 1.06543
 H256 H 0.00164 0.37293 1.04023
 H257 H 0.02784 0.61939 0.95025
 H258 H -0.08270 0.55314 0.92624
 H259 H -0.10484 0.49282 0.93794
 H260 H -0.06148 0.38724 1.00218
 H261 H 0.07645 0.58865 0.92674
 H262 H 0.07166 0.46542 0.88012
 H263 H -0.04088 0.52451 1.10875
 H264 H -0.04778 0.40252 1.06140
 Zr265 Zr -0.03354 0.48570 0.43818
 O266 O -0.06514 0.51027 0.39647
 O267 O -0.02877 0.43218 0.41930
 O268 O -0.00601 0.48491 0.38829
 O269 O -0.10544 0.47347 0.49598
 O270 O 0.04895 0.51024 0.40244
 O271 O -0.08710 0.46540 0.43730
 O272 O 0.00777 0.40508 0.46187
 O273 O 0.02025 0.47297 0.45195
 O274 O -0.03546 0.45671 0.48696
 O275 O -0.00632 0.53589 0.44193
 O276 O -0.06041 0.52017 0.47521
 Zr277 Zr 0.02065 0.52923 0.54540
 Zr278 Zr 0.04666 0.52303 0.45862
 Zr279 Zr -0.05916 0.49166 0.52461
 Zr280 Zr 0.01806 0.44588 0.50163
 O281 O -0.10451 0.52337 0.53986
 O282 O 0.06906 0.42650 0.48371
 O283 O -0.00627 0.47858 0.54172
 O284 O 0.04698 0.49469 0.50808
 O285 O 0.02295 0.55834 0.49652
 O286 O -0.03297 0.54151 0.53104
 C287 C -0.01097 0.40493 0.43196
 C288 C -0.11098 0.46380 0.46258
 C289 C 0.02604 0.49553 0.37990
 O290 O 0.09490 0.49330 0.44961
 O291 O 0.09033 0.54926 0.48568
 O292 O 0.07276 0.55315 0.54507
 C293 C 0.09553 0.55865 0.51926
 O294 O -0.06613 0.58068 0.43695
 Zr295 Zr -0.03075 0.56869 0.48147
 O296 O 0.01539 0.58313 0.56387
 O297 O 0.05958 0.57077 0.42949
 O298 O -0.00572 0.61052 0.45107
 O299 O -0.07974 0.59136 0.50112
 O300 O -0.01651 0.61076 0.51807
 C301 C 0.00057 0.61107 0.54881
 O302 O 0.05500 0.50645 0.58595
 O303 O -0.07560 0.44176 0.54784
 O304 O -0.00559 0.52478 0.59634
 O305 O -0.05835 0.49532 0.58176
 O306 O -0.00688 0.40175 0.52870
 O307 O 0.04869 0.43193 0.54899
 C308 C -0.03576 0.50936 0.60487
 H309 H -0.04957 0.43385 0.48484
 H310 H 0.07206 0.48931 0.51637
 H311 H -0.04538 0.55640 0.54969
 H312 H -0.00663 0.54857 0.41817
 H313 H 0.06887 0.39965 0.48601
 H314 H 0.11030 0.50848 0.43377
 H315 H 0.08415 0.56707 0.41941
 H316 H -0.01874 0.63350 0.45640
 H317 H 0.00691 0.37946 0.52250
 H318 H -0.10002 0.44575 0.55815
 H319 H -0.12038 0.50742 0.55444
 H320 H -0.07860 0.61801 0.49723
 H321 H 0.05799 0.40678 0.54642
 H322 H 0.06028 0.52591 0.60411
 H323 H -0.07125 0.49103 0.37833
 H324 H -0.07081 0.60720 0.43624
 Zr325 Zr 0.49141 -0.01539 -0.03862
 O326 O 0.46157 0.00420 -0.08414
 O327 O 0.49887 -0.06987 -0.05274
 O328 O 0.52262 -0.01592 -0.08674
 O329 O 0.41653 -0.02899 0.01533
 O330 O 0.57492 0.01285 -0.06930
 O331 O 0.43902 -0.03822 -0.04172
 O332 O 0.53372 -0.09294 -0.00653
 O333 O 0.54486 -0.02411 -0.02087
 O334 O 0.48815 -0.04184 0.01161
 O335 O 0.51477 0.03661 -0.03554
 O336 O 0.45992 0.01870 -0.00504
 Zr337 Zr 0.53588 0.03723 0.06974
 Zr338 Zr 0.56712 0.02798 -0.01476
 Zr339 Zr 0.46000 -0.00701 0.04589
 Zr340 Zr 0.54122 -0.04862 0.03007
 O341 O 0.41241 0.02282 0.05773
 O342 O 0.59373 -0.06559 0.01426
 O343 O 0.51262 -0.01537 0.06667
 O344 O 0.56638 0.00237 0.03604
 O345 O 0.53894 0.06365 0.01942
 O346 O 0.48237 0.04478 0.05157
 C347 C 0.51575 -0.09601 -0.03676
 C348 C 0.41370 -0.04017 -0.01793
 C349 C 0.55473 -0.00357 -0.09294
 O350 O 0.61791 0.00145 -0.01868
 O351 O 0.60699 0.05842 0.01262
 O352 O 0.58683 0.06447 0.07085
 C353 C 0.61031 0.07004 0.04558
 O354 O 0.45303 0.07683 -0.04696
 Zr355 Zr 0.48560 0.06932 0.00061
 O356 O 0.52606 0.09188 0.08406
 O357 O 0.57857 0.07497 -0.04573
 O358 O 0.50982 0.11175 -0.02965
 O359 O 0.43344 0.08827 0.01546
 O360 O 0.49321 0.11380 0.03581
 C361 C 0.50925 0.11743 0.06683
 O362 O 0.56922 0.01986 0.11372
 O363 O 0.44424 -0.05687 0.06976
 O364 O 0.50694 0.03215 0.11933
 O365 O 0.45832 -0.00311 0.10287
 O366 O 0.51746 -0.09150 0.06005
 O367 O 0.57152 -0.05865 0.07865
 C368 C 0.47819 0.01351 0.12664
 H369 H 0.47524 -0.06543 0.01026
 H370 H 0.59126 -0.00088 0.04597
 H371 H 0.46788 0.05947 0.06879
 H372 H 0.51531 0.04817 -0.05985
 H373 H 0.59504 -0.09229 0.01761
 H374 H 0.63342 0.01680 -0.03428
 H375 H 0.60401 0.07275 -0.05394
 H376 H 0.49463 0.13379 -0.02666
 H377 H 0.53208 -0.11371 0.05573
 H378 H 0.41904 -0.05374 0.07841
 H379 H 0.39674 0.00659 0.07221
 H380 H 0.43252 0.11472 0.01038
 H381 H 0.58227 -0.08331 0.07742
 H382 H 0.57175 0.04075 0.13081
 H383 H 0.45800 -0.01656 -0.10122
 H384 H 0.44629 0.10282 -0.04911
 Zr385 Zr 0.51345 0.53176 -0.05891
 O386 O 0.55030 0.51551 -0.09979
 O387 O 0.50578 0.58731 -0.07008
 O388 O 0.49016 0.53605 -0.11170
 O389 O 0.58027 0.54084 0.00747
 O390 O 0.43755 0.50389 -0.10701
 O391 O 0.56486 0.55576 -0.05106
 O392 O 0.46542 0.60606 -0.02717
 O393 O 0.45809 0.53923 -0.04951
 O394 O 0.50961 0.55395 -0.00651
 O395 O 0.49048 0.47952 -0.06412
 O396 O 0.53977 0.49423 -0.02393
 Zr397 Zr 0.45409 0.47174 0.03560
 Zr398 Zr 0.43565 0.48698 -0.05233
 Zr399 Zr 0.53314 0.51609 0.02846
 Zr400 Zr 0.45450 0.55939 0.00371
 O401 O 0.57975 0.48571 0.04333
 O402 O 0.40425 0.57827 -0.01764
 O403 O 0.47820 0.52364 0.04151
 O404 O 0.42870 0.50880 0.00005
 O405 O 0.45818 0.44862 -0.01652
 O406 O 0.50958 0.46459 0.02600
 C407 C 0.48616 0.61170 -0.05452
 C408 C 0.58701 0.55535 -0.02370
 C409 C 0.46065 0.52258 -0.12521
 O410 O 0.38708 0.51556 -0.06393
 O411 O 0.39157 0.45612 -0.03455
 O412 O 0.40367 0.44509 0.02560
 C413 C 0.38381 0.44216 -0.00360
 O414 O 0.55172 0.43689 -0.06886
 Zr415 Zr 0.51350 0.44331 -0.02634
 O416 O 0.46100 0.41670 0.04788
 O417 O 0.42824 0.44182 -0.08770
 O418 O 0.49252 0.40333 -0.06275
 O419 O 0.56347 0.42334 -0.00530
 O420 O 0.50142 0.39688 0.00545
 C421 C 0.48078 0.39203 0.03321
 O422 O 0.41482 0.48710 0.07444
 O423 O 0.54353 0.56318 0.06037
 O424 O 0.47567 0.47247 0.08958
 O425 O 0.52908 0.50339 0.08404
 O426 O 0.47339 0.60061 0.03991
 O427 O 0.41901 0.56435 0.04874
 C428 C 0.50524 0.48633 0.10288
 H429 H 0.52214 0.57764 -0.00374
 H430 H 0.40268 0.51168 0.00584
 H431 H 0.52160 0.44843 0.04395
 H432 H 0.49374 0.46967 -0.08904
 H433 H 0.40208 0.60436 -0.01105
 H434 H 0.37397 0.50147 -0.08307
 H435 H 0.40451 0.44514 -0.10025
 H436 H 0.50604 0.38047 -0.05820
 H437 H 0.45798 0.62239 0.03609
 H438 H 0.56744 0.55950 0.07244
 H439 H 0.59327 0.50037 0.06172
 H440 H 0.56460 0.39697 -0.01097
 H441 H 0.40742 0.58865 0.04838
 H442 H 0.40948 0.46520 0.08915
 H443 H 0.55609 0.53739 -0.11438
 H444 H 0.55787 0.41079 -0.07158
 Zr445 Zr 0.02006 1.01543 0.44467
 O446 O 0.05687 0.99511 0.40560
 O447 O 0.01304 1.06973 0.42818
 O448 O -0.00353 1.01446 0.39187
 O449 O 0.08720 1.03129 0.50948
 O450 O -0.05567 0.98220 0.39984
 O451 O 0.07112 1.04032 0.44986
 O452 O -0.02811 1.09238 0.46838
 O453 O -0.03517 1.02431 0.45340
 O454 O 0.01655 1.04254 0.49473
 O455 O -0.00319 0.96316 0.44460
 O456 O 0.04646 0.98125 0.48296
 Zr457 Zr -0.03935 0.96527 0.54449
 Zr458 Zr -0.05788 0.97227 0.45583
 Zr459 Zr 0.04020 1.00806 0.53306
 Zr460 Zr -0.03844 1.04944 0.50449
 O461 O 0.08660 0.97861 0.55024
 O462 O -0.08905 1.06638 0.48233
 O463 O -0.01474 1.01723 0.54539
 O464 O -0.06465 0.99904 0.50582
 O465 O -0.03550 0.93733 0.49486
 O466 O 0.01611 0.95668 0.53565
 C467 C -0.00707 1.09539 0.44089
 C468 C 0.09336 1.04305 0.47697
 C469 C -0.03272 0.99900 0.37995
 O470 O -0.10561 1.00064 0.44063
 O471 O -0.10272 0.94505 0.47653
 O472 O -0.08971 0.93752 0.53703
 C473 C -0.11006 0.93312 0.50834
 O474 O 0.05929 0.92093 0.44489
 Zr475 Zr 0.01974 0.93059 0.48554
 O476 O -0.03347 0.91158 0.56174
 O477 O -0.06629 0.92338 0.42613
 O478 O 0.00016 0.88807 0.45130
 O479 O 0.06824 0.91094 0.51012
 O480 O 0.00446 0.88682 0.51959
 C481 C -0.01608 0.88480 0.54779
 O482 O -0.07832 0.98483 0.58173
 O483 O 0.05121 1.05763 0.56066
 O484 O -0.01758 0.97049 0.59794
 O485 O 0.03585 1.00078 0.58969
 O486 O -0.01891 1.09415 0.53581
 O487 O -0.07306 1.05908 0.54947
 C488 C 0.01187 0.98559 0.60994
 H489 H 0.02906 1.06637 0.49516
 H490 H -0.09061 1.00271 0.51144
 H491 H 0.02774 0.94188 0.55500
 H492 H 0.00007 0.95085 0.42080
 H493 H -0.09102 1.09300 0.48633
 H494 H -0.11915 0.98476 0.42330
 H495 H -0.08986 0.92572 0.41305
 H496 H 0.01356 0.86564 0.45792
 H497 H -0.03429 1.11547 0.52981
 H498 H 0.07509 1.05473 0.57300
 H499 H 0.10030 0.99472 0.56721
 H500 H 0.06868 0.88420 0.50654
 H501 H -0.08450 1.08332 0.54696
 H502 H -0.08409 0.96442 0.59829
 H503 H 0.06245 1.01533 0.38873
 H504 H 0.06607 0.89485 0.44488
 Zr505 Zr 0.72859 0.28478 0.20348
 O506 O 0.74752 0.31582 0.15907
 O507 O 0.67370 0.27852 0.18988
 O508 O 0.72652 0.25502 0.15369
 O509 O 0.71556 0.35869 0.26180
 O510 O 0.75136 0.20032 0.16925
 O511 O 0.70689 0.33782 0.20354
 O512 O 0.65128 0.24325 0.23545
 O513 O 0.71809 0.23128 0.21962
 O514 O 0.70412 0.28800 0.25463
 O515 O 0.77942 0.25898 0.20420
 O516 O 0.76516 0.31432 0.23715
 Zr517 Zr 0.78239 0.23574 0.30787
 Zr518 Zr 0.76899 0.20641 0.22320
 Zr519 Zr 0.74111 0.31456 0.28887
 Zr520 Zr 0.69572 0.23488 0.27148
 O521 O 0.77239 0.36205 0.29811
 O522 O 0.67616 0.18275 0.25589
 O523 O 0.73119 0.26172 0.30804
 O524 O 0.74529 0.20708 0.27465
 O525 O 0.80705 0.23247 0.25702
 O526 O 0.79184 0.28944 0.29170
 C527 C 0.64790 0.26126 0.20557
 C528 C 0.70383 0.36221 0.22868
 C529 C 0.73644 0.22210 0.14642
 O530 O 0.73982 0.15697 0.21805
 O531 O 0.79774 0.16409 0.24823
 O532 O 0.80899 0.18464 0.30602
 C533 C 0.81170 0.16078 0.28027
 O534 O 0.82168 0.31987 0.19408
 Zr535 Zr 0.81477 0.28605 0.24032
 O536 O 0.83727 0.24224 0.32150
 O537 O 0.81415 0.19342 0.19047
 O538 O 0.85454 0.26104 0.20723
 O539 O 0.83760 0.33649 0.25711
 O540 O 0.86026 0.27424 0.27393
 C541 C 0.86355 0.25724 0.30439
 O542 O 0.76389 0.20217 0.35056
 O543 O 0.69407 0.32966 0.31785
 O544 O 0.78271 0.26352 0.35820
 O545 O 0.75209 0.31608 0.34551
 O546 O 0.65384 0.25976 0.30195
 O547 O 0.68674 0.20570 0.32044
 C548 C 0.76864 0.29416 0.36752
 H549 H 0.68078 0.30130 0.25436
 H550 H 0.74140 0.18214 0.28394
 H551 H 0.80814 0.30288 0.30868
 H552 H 0.79012 0.25848 0.17956
 H553 H 0.64970 0.18241 0.26036
 H554 H 0.75379 0.14096 0.20151
 H555 H 0.81038 0.16825 0.18136
 H556 H 0.87736 0.27503 0.21043
 H557 H 0.63151 0.24513 0.29808
 H558 H 0.69840 0.35452 0.32758
 H559 H 0.75812 0.37774 0.31466
 H560 H 0.86373 0.33588 0.25105
 H561 H 0.66202 0.19514 0.31983
 H562 H 0.78502 0.19737 0.36683
 H563 H 0.72643 0.32032 0.14264
 H564 H 0.84775 0.32562 0.19131
 Zr565 Zr 0.77092 0.72282 0.71479
 O566 O 0.75118 0.69077 0.67069
 O567 O 0.82520 0.73035 0.69975
 O568 O 0.76939 0.75179 0.66476
 O569 O 0.78007 0.64904 0.77253
 O570 O 0.74264 0.80551 0.68028
 O571 O 0.79219 0.66905 0.71506
 O572 O 0.84896 0.76624 0.74502
 O573 O 0.78152 0.77669 0.73077
 O574 O 0.79718 0.72012 0.76560
 O575 O 0.71993 0.74862 0.71664
 O576 O 0.73526 0.69426 0.74918
 Zr577 Zr 0.72064 0.77335 0.82066
 Zr578 Zr 0.73059 0.80152 0.73550
 Zr579 Zr 0.76086 0.69477 0.80058
 Zr580 Zr 0.80604 0.77357 0.78224
 O581 O 0.72996 0.64788 0.81280
 O582 O 0.82485 0.82590 0.76729
 O583 O 0.77191 0.74753 0.81972
 O584 O 0.75654 0.80132 0.78646
 O585 O 0.69400 0.77601 0.77007
 O586 O 0.71034 0.71970 0.80431
 C587 C 0.85126 0.74858 0.71467
 C588 C 0.79181 0.64434 0.74003
 C589 C 0.75656 0.78354 0.65699
 O590 O 0.76060 0.84998 0.72820
 O591 O 0.70351 0.84470 0.76133
 O592 O 0.69623 0.82563 0.81985
 C593 C 0.69216 0.84916 0.79409
 O594 O 0.67699 0.68778 0.70716
 Zr595 Zr 0.68585 0.72229 0.75309
 O596 O 0.66568 0.76762 0.83379
 O597 O 0.68322 0.81485 0.70522
 O598 O 0.64498 0.74680 0.72025
 O599 O 0.66430 0.67186 0.77058
 O600 O 0.64155 0.73452 0.78658
 C601 C 0.63903 0.75219 0.81673
 O602 O 0.74040 0.80637 0.86400
 O603 O 0.80995 0.67954 0.82684
 O604 O 0.72194 0.74501 0.87088
 O605 O 0.75275 0.69299 0.85715
 O606 O 0.84921 0.74832 0.81130
 O607 O 0.81719 0.80278 0.83128
 C608 C 0.73635 0.71422 0.87962
 H609 H 0.82033 0.70652 0.76467
 H610 H 0.76104 0.82635 0.79555
 H611 H 0.69464 0.70644 0.82148
 H612 H 0.70786 0.74861 0.69240
 H613 H 0.85146 0.82642 0.77148
 H614 H 0.74568 0.86596 0.71234
 H615 H 0.68661 0.83984 0.69579
 H616 H 0.62229 0.73277 0.72354
 H617 H 0.87144 0.76281 0.80705
 H618 H 0.80627 0.65466 0.83638
 H619 H 0.74543 0.63205 0.82830
 H620 H 0.63786 0.67219 0.76533
 H621 H 0.84224 0.81249 0.83070
 H622 H 0.71978 0.81088 0.88058
 H623 H 0.77187 0.68635 0.65415
 H624 H 0.65088 0.68160 0.70520
 Zr625 Zr 0.22812 0.21166 0.78791
 O626 O 0.24641 0.17686 0.83012
 O627 O 0.17389 0.21988 0.80245
 O628 O 0.22888 0.23818 0.83957
 O629 O 0.21542 0.14206 0.72488
 O630 O 0.25995 0.29091 0.82931
 O631 O 0.20490 0.15872 0.78393
 O632 O 0.15231 0.25923 0.75947
 O633 O 0.21952 0.26663 0.77539
 O634 O 0.20263 0.21258 0.73665
 O635 O 0.27992 0.23597 0.78862
 O636 O 0.26337 0.18382 0.75227
 Zr637 Zr 0.28122 0.26584 0.68652
 Zr638 Zr 0.27124 0.29024 0.77332
 Zr639 Zr 0.23852 0.18781 0.70061
 Zr640 Zr 0.19576 0.26703 0.72340
 O641 O 0.26775 0.14009 0.68720
 O642 O 0.17835 0.31911 0.74118
 O643 O 0.22928 0.24171 0.68467
 O644 O 0.24606 0.29338 0.72200
 O645 O 0.30735 0.26533 0.73748
 O646 O 0.28983 0.21124 0.69950
 C647 C 0.14885 0.23998 0.78841
 C648 C 0.20348 0.13587 0.75700
 C649 C 0.24374 0.26830 0.85030
 O650 O 0.24197 0.33842 0.78454
 O651 O 0.29860 0.33442 0.74927
 O652 O 0.30789 0.31637 0.69045
 C653 C 0.31113 0.33921 0.71695
 O654 O 0.32090 0.17347 0.79473
 Zr655 Zr 0.31373 0.21060 0.75099
 O656 O 0.33580 0.25959 0.67323
 O657 O 0.31917 0.30122 0.80376
 O658 O 0.35487 0.23239 0.78564
 O659 O 0.33447 0.16060 0.73100
 O660 O 0.35862 0.22331 0.71828
 C661 C 0.36183 0.24255 0.68932
 O662 O 0.26199 0.30158 0.64553
 O663 O 0.18989 0.17627 0.67157
 O664 O 0.28127 0.24045 0.63472
 O665 O 0.24908 0.18845 0.64430
 O666 O 0.15191 0.24500 0.69249
 O667 O 0.18664 0.29892 0.67598
 C668 C 0.26686 0.21035 0.62375
 H669 H 0.17896 0.19984 0.73628
 H670 H 0.24238 0.31891 0.71432
 H671 H 0.30550 0.19836 0.68191
 H672 H 0.29160 0.23413 0.81298
 H673 H 0.15186 0.32068 0.73652
 H674 H 0.25760 0.35345 0.80083
 H675 H 0.31628 0.32574 0.81472
 H676 H 0.37728 0.21815 0.78145
 H677 H 0.13032 0.26034 0.69715
 H678 H 0.19298 0.15195 0.66025
 H679 H 0.25236 0.12586 0.66997
 H680 H 0.36082 0.16014 0.73669
 H681 H 0.16201 0.30963 0.67674
 H682 H 0.28265 0.30677 0.62925
 H683 H 0.22539 0.17218 0.84610
 H684 H 0.34692 0.16710 0.79718
 Zr685 Zr 0.28230 0.77686 0.30468
 O686 O 0.26315 0.80538 0.35091
 O687 O 0.33684 0.76832 0.31883
 O688 O 0.28285 0.74377 0.35210
 O689 O 0.29536 0.85393 0.25226
 O690 O 0.25694 0.69069 0.33226
 O691 O 0.30498 0.82979 0.30880
 O692 O 0.35974 0.73782 0.26983
 O693 O 0.29241 0.72448 0.28431
 O694 O 0.30718 0.78342 0.25407
 O695 O 0.23122 0.75134 0.30123
 O696 O 0.24605 0.80853 0.27293
 Zr697 Zr 0.22913 0.73556 0.19587
 Zr698 Zr 0.24131 0.70012 0.27811
 Zr699 Zr 0.27054 0.81214 0.22154
 Zr700 Zr 0.31542 0.73161 0.23313
 O701 O 0.23998 0.86055 0.21590
 O702 O 0.33465 0.67861 0.24521
 O703 O 0.28055 0.76097 0.19814
 O704 O 0.26569 0.70446 0.22718
 O705 O 0.20375 0.72858 0.24602
 O706 O 0.21969 0.78777 0.21652
 C707 C 0.36280 0.75284 0.30156
 C708 C 0.30757 0.85567 0.28529
 C709 C 0.27171 0.71082 0.35698
 O710 O 0.27051 0.65060 0.28033
 O711 O 0.21298 0.65988 0.24839
 O712 O 0.20360 0.68423 0.19201
 C713 C 0.20037 0.65857 0.21552
 O714 O 0.18879 0.81117 0.31597
 Zr715 Zr 0.19622 0.78081 0.26714
 O716 O 0.17433 0.74294 0.18234
 O717 O 0.19531 0.68467 0.30839
 O718 O 0.15610 0.75325 0.29746
 O719 O 0.17383 0.83250 0.25473
 O720 O 0.15104 0.77198 0.23198
 C721 C 0.14805 0.75720 0.20012
 O722 O 0.24875 0.70632 0.15029
 O723 O 0.31807 0.82861 0.19427
 O724 O 0.22738 0.76793 0.14880
 O725 O 0.25958 0.81866 0.16530
 O726 O 0.35749 0.75836 0.20475
 O727 O 0.32500 0.70528 0.18240
 C728 C 0.24132 0.79924 0.14217
 H729 H 0.33061 0.79654 0.25559
 H730 H 0.26970 0.68026 0.21594
 H731 H 0.20350 0.80265 0.20087
 H732 H 0.22010 0.74922 0.32557
 H733 H 0.36118 0.67849 0.24114
 H734 H 0.25583 0.63340 0.29478
 H735 H 0.19871 0.65879 0.31509
 H736 H 0.13326 0.76730 0.29507
 H737 H 0.37984 0.74363 0.20775
 H738 H 0.31431 0.85423 0.18684
 H739 H 0.25469 0.87737 0.20108
 H740 H 0.14760 0.83149 0.26032
 H741 H 0.34977 0.69485 0.18254
 H742 H 0.22801 0.70298 0.13311
 H743 H 0.28404 0.80838 0.36798
 H744 H 0.16262 0.81621 0.31918
 Zr745 Zr 0.21738 0.78037 0.70261
 O746 O 0.23291 0.81399 0.65873
 O747 O 0.16278 0.76961 0.68915
 O748 O 0.21804 0.75198 0.65193
 O749 O 0.20174 0.85221 0.76282
 O750 O 0.25159 0.70125 0.66432
 O751 O 0.19246 0.83219 0.70439
 O752 O 0.14371 0.73193 0.73432
 O753 O 0.21125 0.72576 0.71730
 O754 O 0.19318 0.78062 0.75393
 O755 O 0.27026 0.75870 0.70289
 O756 O 0.25227 0.81128 0.73700
 Zr757 Zr 0.27514 0.73256 0.80597
 Zr758 Zr 0.26409 0.70487 0.72014
 Zr759 Zr 0.22863 0.80865 0.78877
 Zr760 Zr 0.18893 0.72654 0.76945
 O761 O 0.25652 0.85797 0.79947
 O762 O 0.17296 0.67343 0.75301
 O763 O 0.22233 0.75487 0.80677
 O764 O 0.24025 0.70245 0.77156
 O765 O 0.30021 0.73233 0.75509
 O766 O 0.28091 0.78713 0.79111
 C767 C 0.13861 0.74992 0.70477
 C768 C 0.18944 0.85612 0.73005
 C769 C 0.23401 0.72219 0.64238
 O770 O 0.23676 0.65501 0.71068
 O771 O 0.29343 0.66289 0.74547
 O772 O 0.30310 0.68235 0.80392
 C773 C 0.30623 0.65883 0.77799
 O774 O 0.30889 0.82230 0.69444
 Zr775 Zr 0.30389 0.78679 0.73969
 O776 O 0.32943 0.74307 0.81991
 O777 O 0.31176 0.69493 0.69004
 O778 O 0.34517 0.76522 0.70607
 O779 O 0.32261 0.83851 0.75768
 O780 O 0.35012 0.77775 0.77310
 C781 C 0.35446 0.76086 0.80349
 O782 O 0.25928 0.69707 0.84826
 O783 O 0.18044 0.81941 0.81775
 O784 O 0.27258 0.75892 0.85704
 O785 O 0.24006 0.81047 0.84519
 O786 O 0.14549 0.74765 0.80055
 O787 O 0.18279 0.69573 0.81790
 C788 C 0.25755 0.78897 0.86680
 H789 H 0.16901 0.79235 0.75398
 H790 H 0.23769 0.67707 0.78009
 H791 H 0.29618 0.80132 0.80842
 H792 H 0.28126 0.76008 0.67845
 H793 H 0.14674 0.67087 0.75816
 H794 H 0.25259 0.64012 0.69485
 H795 H 0.30980 0.66986 0.68009
 H796 H 0.36711 0.78046 0.70975
 H797 H 0.12442 0.73117 0.79699
 H798 H 0.18281 0.84434 0.82793
 H799 H 0.24117 0.87232 0.81626
 H800 H 0.34881 0.84002 0.75208
 H801 H 0.15883 0.68354 0.81748
 H802 H 0.28056 0.69386 0.86478
 H803 H 0.21123 0.81716 0.64274
 H804 H 0.33459 0.82964 0.69192
 Zr805 Zr 0.28353 0.23123 0.20098
 O806 O 0.26581 0.19832 0.15664
 O807 O 0.33733 0.24274 0.18695
 O808 O 0.28209 0.26018 0.15138
 O809 O 0.30004 0.15826 0.25764
 O810 O 0.25166 0.31225 0.16589
 O811 O 0.30922 0.18002 0.20030
 O812 O 0.35787 0.27946 0.23311
 O813 O 0.29044 0.28538 0.21761
 O814 O 0.30913 0.22961 0.25215
 O815 O 0.23094 0.25341 0.20173
 O816 O 0.24935 0.19960 0.23414
 Zr817 Zr 0.22858 0.27662 0.30603
 Zr818 Zr 0.23796 0.30663 0.22105
 Zr819 Zr 0.27425 0.20089 0.28590
 Zr820 Zr 0.31407 0.28324 0.26958
 O821 O 0.24675 0.15120 0.29475
 O822 O 0.32972 0.33697 0.25592
 O823 O 0.28134 0.25409 0.30596
 O824 O 0.26284 0.30750 0.27267
 O825 O 0.20254 0.27838 0.25502
 O826 O 0.22216 0.22260 0.28886
 C827 C 0.36182 0.26246 0.20262
 C828 C 0.31214 0.15533 0.22491
 C829 C 0.26811 0.29128 0.14330
 O830 O 0.26462 0.35720 0.21500
 O831 O 0.20783 0.34727 0.24723
 O832 O 0.20076 0.32717 0.30545
 C833 C 0.19592 0.35077 0.27989
 O834 O 0.19182 0.19040 0.19081
 Zr835 Zr 0.19806 0.22446 0.23748
 O836 O 0.17443 0.26640 0.31923
 O837 O 0.19057 0.31719 0.18974
 O838 O 0.15611 0.24741 0.20491
 O839 O 0.17931 0.17235 0.25324
 O840 O 0.15282 0.23263 0.27132
 C841 C 0.14909 0.24904 0.30210
 O842 O 0.24568 0.31054 0.34979
 O843 O 0.32302 0.18935 0.31457
 O844 O 0.23128 0.24794 0.35598
 O845 O 0.26346 0.19675 0.34204
 O846 O 0.35867 0.26093 0.29891
 O847 O 0.32177 0.31214 0.31942
 C848 C 0.24603 0.21723 0.36448
 H849 H 0.33331 0.21791 0.25157
 H850 H 0.26554 0.33264 0.28214
 H851 H 0.20711 0.20794 0.30546
 H852 H 0.21953 0.25292 0.17717
 H853 H 0.35613 0.33917 0.26087
 H854 H 0.24891 0.37233 0.19906
 H855 H 0.19259 0.34249 0.18074
 H856 H 0.13416 0.23218 0.20794
 H857 H 0.37966 0.27739 0.29553
 H858 H 0.32108 0.16393 0.32321
 H859 H 0.26284 0.13611 0.31036
 H860 H 0.15299 0.17118 0.24745
 H861 H 0.34597 0.32386 0.31964
 H862 H 0.22469 0.31339 0.36627
 H863 H 0.28661 0.19538 0.13992
 H864 H 0.16597 0.18353 0.18780
 Zr865 Zr 0.72868 0.72247 0.30141
 O866 O 0.74695 0.69036 0.34576
 O867 O 0.67463 0.73279 0.31579
 O868 O 0.73096 0.75225 0.35122
 O869 O 0.71064 0.64958 0.24346
 O870 O 0.76127 0.80399 0.33610
 O871 O 0.70456 0.67016 0.30195
 O872 O 0.65315 0.76912 0.27012
 O873 O 0.72075 0.77647 0.28509
 O874 O 0.70251 0.72033 0.25048
 O875 O 0.78092 0.74555 0.29972
 O876 O 0.76282 0.69130 0.26735
 Zr877 Zr 0.78147 0.76864 0.19576
 Zr878 Zr 0.77285 0.79861 0.28074
 Zr879 Zr 0.73722 0.69209 0.21588
 Zr880 Zr 0.69644 0.77375 0.23340
 O881 O 0.76545 0.64277 0.20711
 O882 O 0.68008 0.82716 0.24794
 O883 O 0.72912 0.74513 0.19638
 O884 O 0.74708 0.79895 0.22966
 O885 O 0.80820 0.77085 0.24632
 O886 O 0.78904 0.71470 0.21227
 C887 C 0.64964 0.75199 0.30034
 C888 C 0.69991 0.64605 0.27663
 C889 C 0.74548 0.78332 0.35917
 O890 O 0.74506 0.84836 0.28861
 O891 O 0.80075 0.84048 0.25427
 O892 O 0.80707 0.82031 0.19580
 C893 C 0.81147 0.84432 0.22126
 O894 O 0.82032 0.68218 0.30908
 Zr895 Zr 0.81369 0.71698 0.26337
 O896 O 0.83622 0.76131 0.18296
 O897 O 0.82120 0.81014 0.31030
 O898 O 0.85549 0.73944 0.29677
 O899 O 0.83367 0.66581 0.24567
 O900 O 0.85882 0.72763 0.23013
 C901 C 0.86224 0.74537 0.20018
 O902 O 0.76279 0.80120 0.15192
 O903 O 0.68864 0.67978 0.18706
 O904 O 0.77956 0.73967 0.14592
 O905 O 0.74741 0.68845 0.15949
 O906 O 0.65202 0.75053 0.20424
 O907 O 0.68747 0.80248 0.18395
 C908 C 0.76465 0.70908 0.13720
 H909 H 0.67850 0.70829 0.25122
 H910 H 0.74358 0.82398 0.22043
 H911 H 0.80438 0.70055 0.19536
 H912 H 0.79282 0.74526 0.32405
 H913 H 0.65361 0.82896 0.24327
 H914 H 0.76097 0.86395 0.30409
 H915 H 0.81901 0.83534 0.31978
 H916 H 0.87751 0.72438 0.29334
 H917 H 0.63074 0.76654 0.20796
 H918 H 0.69103 0.65450 0.17786
 H919 H 0.74977 0.62756 0.19105
 H920 H 0.86004 0.66528 0.25125
 H921 H 0.66314 0.81389 0.18429
 H922 H 0.78358 0.80492 0.13537
 H923 H 0.72619 0.68735 0.36247
 H924 H 0.84608 0.67481 0.31135
 Zr925 Zr 0.78315 0.27649 0.79768
 O926 O 0.76601 0.30958 0.84168
 O927 O 0.83787 0.26786 0.81133
 O928 O 0.78410 0.24838 0.84812
 O929 O 0.79504 0.34879 0.73812
 O930 O 0.75590 0.19479 0.83426
 O931 O 0.80598 0.32932 0.79626
 O932 O 0.85847 0.23150 0.76539
 O933 O 0.79163 0.22221 0.78223
 O934 O 0.80695 0.27776 0.74616
 O935 O 0.73152 0.25203 0.79793
 O936 O 0.74675 0.30578 0.76393
 Zr937 Zr 0.72662 0.22592 0.69458
 Zr938 Zr 0.73992 0.19864 0.77966
 Zr939 Zr 0.76996 0.30403 0.71186
 Zr940 Zr 0.81350 0.22394 0.73002
 O941 O 0.74015 0.35220 0.70167
 O942 O 0.83201 0.17163 0.74573
 O943 O 0.77840 0.25061 0.69324
 O944 O 0.76324 0.19731 0.72802
 O945 O 0.70224 0.22464 0.74573
 O946 O 0.71873 0.28016 0.71030
 C947 C 0.86276 0.24937 0.79544
 C948 C 0.80751 0.35337 0.77081
 C949 C 0.77191 0.21665 0.85664
 O950 O 0.76864 0.14923 0.78638
 O951 O 0.71005 0.15610 0.75539
 O952 O 0.70004 0.17482 0.69699
 C953 C 0.69664 0.15174 0.72313
 O954 O 0.69057 0.31380 0.80783
 Zr955 Zr 0.69641 0.27882 0.76194
 O956 O 0.67192 0.23389 0.68141
 O957 O 0.69425 0.18716 0.81215
 O958 O 0.65637 0.25524 0.79555
 O959 O 0.67496 0.32965 0.74506
 O960 O 0.65053 0.26794 0.72875
 C961 C 0.64659 0.25066 0.69834
 O962 O 0.74404 0.19144 0.65181
 O963 O 0.81732 0.31667 0.68241
 O964 O 0.72545 0.25290 0.64405
 O965 O 0.75715 0.30519 0.65561
 O966 O 0.85579 0.24710 0.69899
 O967 O 0.82095 0.19350 0.68124
 C968 C 0.73912 0.28353 0.63431
 H969 H 0.83059 0.29057 0.74610
 H970 H 0.76650 0.17203 0.71917
 H971 H 0.70256 0.29380 0.69353
 H972 H 0.72087 0.25263 0.82258
 H973 H 0.85834 0.17045 0.74068
 H974 H 0.75421 0.13394 0.80303
 H975 H 0.69759 0.16224 0.82185
 H976 H 0.63378 0.26953 0.79227
 H977 H 0.87770 0.23186 0.70266
 H978 H 0.81375 0.34141 0.67237
 H979 H 0.75484 0.36710 0.68491
 H980 H 0.64885 0.32988 0.75122
 H981 H 0.84552 0.18260 0.68141
 H982 H 0.72267 0.18679 0.63575
 H983 H 0.78748 0.31385 0.85773
 H984 H 0.66460 0.31979 0.81099
 C985 C 0.40702 1.00937 0.29475
 C986 C 0.43534 0.98953 0.30625
 C987 C 0.44818 0.99437 0.34424
 C988 C 0.47745 0.97768 0.35811
 H989 H 0.44794 0.96979 0.28839
 H990 H 0.43267 1.01236 0.36167
 H991 H 0.39534 1.02845 0.31407
 H992 H 0.49377 0.96026 0.34090
 C993 C -0.10456 0.51267 0.78001
 C994 C -0.07622 0.49333 0.79239
 C995 C -0.06440 0.49722 0.83089
 C996 C -0.03566 0.47938 0.84436
 H997 H -0.06270 0.47412 0.77462
 H998 H -0.07971 0.51507 0.84863
 H999 H -0.11775 0.53071 0.79931
 H1000 H -0.01990 0.46212 0.82647
 C1001 C 0.07848 0.00735 0.78126
 C1002 C 0.06317 -0.02332 0.79348
 C1003 C 0.04401 -0.02524 0.82853
 C1004 C 0.02609 0.00244 0.84416
 H1005 H 0.07029 -0.04905 0.78095
 H1006 H 0.04713 -0.05054 0.84329
 H1007 H 0.07181 0.03299 0.79427
 H1008 H 0.01998 0.02696 0.82906
 C1009 C 0.57791 0.50261 0.27299
 C1010 C 0.55272 0.52834 0.27942
 C1011 C 0.52903 0.52782 0.31208
 C1012 C 0.51917 0.49719 0.32909
 H1013 H 0.55225 0.55254 0.26270
 H1014 H 0.52198 0.55386 0.32404
 H1015 H 0.57918 0.47923 0.29081
 H1016 H 0.52622 0.47102 0.31753
 C1017 C 0.59031 0.49793 0.20481
 C1018 C 0.55577 0.49033 0.19534
 C1019 C 0.54612 0.48992 0.15603
 C1020 C 0.51287 0.48264 0.14254
 H1021 H 0.53511 0.48607 0.21560
 H1022 H 0.56744 0.49695 0.13717
 H1023 H 0.60946 0.50162 0.18281
 H1024 H 0.49131 0.47444 0.16057
 C1025 C 0.09309 1.00657 0.71370
 C1026 C 0.05939 0.99729 0.70299
 C1027 C 0.05041 0.99769 0.66367
 C1028 C 0.01903 0.98513 0.64974
 H1029 H 0.03906 0.98921 0.72240
 H1030 H 0.07074 1.00828 0.64539
 H1031 H 0.11248 1.01298 0.69257
 H1032 H -0.00128 0.97392 0.66763
 C1033 C -0.09227 0.50775 0.71290
 C1034 C -0.08645 0.47921 0.69059
 C1035 C -0.06762 0.48098 0.65528
 C1036 C -0.04611 0.50795 0.64368
 H1037 H -0.10019 0.45371 0.69534
 H1038 H -0.07389 0.45876 0.63668
 H1039 H -0.07732 0.53269 0.70863
 H1040 H -0.03698 0.52933 0.66198
 C1041 C 0.41495 0.00701 0.22626
 C1042 C 0.44186 0.03163 0.22300
 C1043 C 0.46299 0.03578 0.18879
 C1044 C 0.46659 0.00865 0.16454
 H1045 H 0.44605 0.05164 0.24440
 H1046 H 0.47383 0.06241 0.18262
 H1047 H 0.40865 -0.01029 0.20311
 H1048 H 0.45634 -0.01815 0.17081
 C1049 C 0.28758 0.36780 -0.00478
 C1050 C 0.30243 0.38298 0.02551
 C1051 C 0.33655 0.40451 0.02613
 C1052 C 0.34952 0.42146 -0.00317
 H1053 H 0.29018 0.37788 0.05168
 H1054 H 0.35085 0.40700 0.05199
 H1055 H 0.29955 0.37301 -0.03100
 H1056 H 0.33434 0.42069 -0.02857
 C1057 C -0.21633 0.87603 0.51453
 C1058 C -0.18546 0.86497 0.53123
 C1059 C -0.15247 0.88797 0.53467
 C1060 C -0.14469 0.91345 0.51012
 H1061 H -0.18411 0.83813 0.54318
 H1062 H -0.13268 0.88124 0.55563
 H1063 H -0.21774 0.90330 0.50359
 H1064 H -0.16290 0.91756 0.48714
 C1065 C -0.21426 0.12411 1.01330
 C1066 C -0.18203 0.12433 0.99642
 C1067 C -0.15492 0.09530 1.00166
 C1068 C -0.12880 0.09012 0.97699
 H1069 H -0.17531 0.14590 0.97769
 H1070 H -0.15637 0.07821 1.02560
 H1071 H -0.21964 0.10252 1.03256
 H1072 H -0.12883 0.10636 0.95238
 C1073 C 0.27539 0.61781 0.50146
 C1074 C 0.29489 0.60444 0.47366
 C1075 C 0.32644 0.58045 0.48064
 C1076 C 0.34808 0.56898 0.45370
 H1077 H 0.28833 0.61204 0.44586
 H1078 H 0.33283 0.57326 0.50861
 H1079 H 0.28167 0.60824 0.52875
 H1080 H 0.34187 0.57665 0.42582
 C1081 C 0.20987 0.62033 0.48973
 C1082 C 0.18757 0.60739 0.51531
 C1083 C 0.15474 0.58654 0.50477
 C1084 C 0.12977 0.57736 0.52934
 H1085 H 0.19278 0.61302 0.54391
 H1086 H 0.15036 0.57978 0.47624
 H1087 H 0.20442 0.61247 0.46162
 H1088 H 0.13408 0.58470 0.55773
 C1089 C 0.71932 0.13305 0.00531
 C1090 C 0.70059 0.12116 0.03419
 C1091 C 0.66643 0.10094 0.02787
 C1092 C 0.64365 0.09110 0.05444
 H1093 H 0.71034 0.12607 0.06175
 H1094 H 0.65970 0.09395 -0.00016
 H1095 H 0.70835 0.12674 -0.02156
 H1096 H 0.64946 0.09862 0.08251
 C1097 C 0.71703 0.87631 0.50320
 C1098 C 0.68658 0.86593 0.48527
 C1099 C 0.65387 0.88913 0.48106
 C1100 C 0.65384 0.92524 0.48607
 H1101 H 0.68463 0.83852 0.47447
 H1102 H 0.62847 0.87546 0.47479
 H1103 H 0.71776 0.90254 0.51670
 H1104 H 0.67859 0.93969 0.49277
 C1105 C 0.22160 0.37141 1.00012
 C1106 C 0.20110 0.38499 0.97292
 C1107 C 0.17004 0.40874 0.98134
 C1108 C 0.14509 0.41761 0.95608
 H1109 H 0.20629 0.37785 0.94479
 H1110 H 0.16667 0.41770 1.00932
 H1111 H 0.21605 0.38065 1.02768
 H1112 H 0.14800 0.40791 0.92830
 C1113 C 0.00527 0.27416 0.40767
 C1114 C -0.00152 0.30812 0.39659
 C1115 C -0.00095 0.33934 0.42168
 C1116 C -0.01226 0.37169 0.40974
 H1117 H -0.00709 0.31302 0.36792
 H1118 H 0.00889 0.33603 0.44943
 H1119 H 0.01153 0.26923 0.43618
 H1120 H -0.02312 0.37402 0.38222
 C1121 C 0.49298 -0.20544 -0.08716
 C1122 C 0.48794 -0.17262 -0.10217
 C1123 C 0.49085 -0.13801 -0.08241
 C1124 C 0.51308 -0.13227 -0.05375
 H1125 H 0.48135 -0.17080 -0.13097
 H1126 H 0.47578 -0.11557 -0.09419
 H1127 H 0.49895 -0.20789 -0.05829
 H1128 H 0.52930 -0.15420 -0.04260
 C1129 C 0.00535 -0.22052 1.10342
 C1130 C -0.00320 -0.18811 1.11810
 C1131 C -0.00082 -0.15345 1.09863
 C1132 C -0.01378 -0.14853 1.06477
 H1133 H -0.01059 -0.18628 1.14648
 H1134 H 0.00897 -0.13034 1.11435
 H1135 H 0.01490 -0.22157 1.07558
 H1136 H -0.02650 -0.17093 1.05013
 C1137 C 0.51180 0.28920 0.59890
 C1138 C 0.51188 0.32242 0.61420
 C1139 C 0.51223 0.35604 0.59280
 C1140 C 0.49481 0.35873 0.56074
 H1141 H 0.51050 0.32559 0.64340
 H1142 H 0.52416 0.37993 0.60553
 H1143 H 0.51431 0.28681 0.56957
 H1144 H 0.48045 0.33548 0.54938
 C1145 C 0.50197 1.22213 0.59568
 C1146 C 0.52794 1.21195 0.57241
 C1147 C 0.52816 1.17595 0.55462
 C1148 C 0.51386 1.14652 0.57043
 H1149 H 0.55079 1.22976 0.56758
 H1150 H 0.54293 1.17329 0.52938
 H1151 H 0.47855 1.20464 0.59903
 H1152 H 0.50097 1.14872 0.59673
 C1153 C 0.00538 0.71143 1.10126
 C1154 C 0.00451 0.67795 1.11582
 C1155 C 0.00393 0.64359 1.09516
 C1156 C 0.01697 0.63914 1.06148
 H1157 H 0.00256 0.67532 1.14514
 H1158 H -0.00614 0.62026 1.10988
 H1159 H 0.00576 0.71467 1.07193
 H1160 H 0.02901 0.66175 1.04718
 C1161 C 0.49925 0.72585 -0.09063
 C1162 C 0.47643 0.71521 -0.06462
 C1163 C 0.47564 0.67771 -0.05040
 C1164 C 0.48813 0.64876 -0.06895
 H1165 H 0.45719 0.73429 -0.05340
 H1166 H 0.46252 0.67384 -0.02443
 H1167 H 0.51965 0.70690 -0.10001
 H1168 H 0.50019 0.65179 -0.09549
 C1169 C 0.01117 1.20663 0.39889
 C1170 C 0.01691 1.17585 0.37984
 C1171 C 0.01601 1.13940 0.39627
 C1172 C -0.00586 1.13142 0.42394
 H1173 H 0.02280 1.17734 0.35102
 H1174 H 0.03229 1.11831 0.38381
 H1175 H 0.00652 1.20528 0.42796
 H1176 H -0.02371 1.15207 0.43489
 C1177 C 0.75766 0.62128 0.97194
 C1178 C 0.74239 0.65365 0.96464
 C1179 C 0.74838 0.67026 0.92857
 C1180 C 0.73281 0.70143 0.91771
 H1181 H 0.72466 0.66671 0.98407
 H1182 H 0.76526 0.65539 0.90960
 H1183 H 0.77391 0.60895 0.95066
 H1184 H 0.71613 0.71680 0.93642
 C1185 C 0.25574 0.12053 0.45542
 C1186 C 0.24685 0.15540 0.44908
 C1187 C 0.25136 0.17015 0.41188
 C1188 C 0.24183 0.20407 0.40240
 H1189 H 0.23637 0.17267 0.47047
 H1190 H 0.26272 0.15224 0.39138
 H1191 H 0.26451 0.10441 0.43223
 H1192 H 0.22979 0.22202 0.42242
 C1193 C 0.73530 0.37201 0.46942
 C1194 C 0.75721 0.34561 0.45751
 C1195 C 0.75205 0.33169 0.42005
 C1196 C 0.77250 0.30523 0.40608
 H1197 H 0.77986 0.33635 0.47412
 H1198 H 0.73140 0.34431 0.40301
 H1199 H 0.71377 0.38100 0.45112
 H1200 H 0.79240 0.29154 0.42314
 C1201 C 0.25386 0.87993 0.96374
 C1202 C 0.25761 0.84472 0.95505
 C1203 C 0.25290 0.83322 0.91679
 C1204 C 0.26130 0.79969 0.90545
 H1205 H 0.26421 0.82464 0.97557
 H1206 H 0.24304 0.85306 0.89726
 H1207 H 0.24790 0.89901 0.94196
 H1208 H 0.27230 0.78014 0.92466
 C1209 C 0.26534 0.86834 0.03157
 C1210 C 0.24330 0.85931 0.05883
 C1211 C 0.25608 0.83716 0.08955
 C1212 C 0.23305 0.81518 0.10650
 H1213 H 0.21590 0.86933 0.06036
 H1214 H 0.28366 0.84050 0.09961
 H1215 H 0.29228 0.85638 0.03147
 H1216 H 0.20638 0.81013 0.09473
 C1217 C 0.75328 0.37118 0.53650
 C1218 C 0.73637 0.34116 0.54782
 C1219 C 0.74721 0.32536 0.58319
 C1220 C 0.73191 0.29537 0.59650
 H1221 H 0.71377 0.32988 0.53234
 H1222 H 0.76722 0.33985 0.59962
 H1223 H 0.77537 0.38156 0.55348
 H1224 H 0.71238 0.28029 0.58006
 C1225 C 0.24708 0.12321 0.52543
 C1226 C 0.26490 0.15336 0.53585
 C1227 C 0.25669 0.16911 0.57195
 C1228 C 0.27254 0.19913 0.58540
 H1229 H 0.28594 0.16488 0.51904
 H1230 H 0.23768 0.15449 0.58884
 H1231 H 0.22711 0.11259 0.54420
 H1232 H 0.29117 0.21450 0.56879
 C1233 C 0.74601 0.61787 0.04148
 C1234 C 0.76062 0.65005 0.05071
 C1235 C 0.75487 0.66455 0.08780
 C1236 C 0.76873 0.69634 0.09916
 H1237 H 0.77728 0.66489 0.03173
 H1238 H 0.73932 0.64822 0.10659
 H1239 H 0.73095 0.60348 0.06223
 H1240 H 0.78422 0.71284 0.08050
 C1241 C 0.15772 0.53608 0.24086
 C1242 C 0.15658 0.56444 0.21799
 C1243 C 0.18137 0.59536 0.22440
 C1244 C 0.17996 0.62569 0.20442
 H1245 H 0.13612 0.56652 0.19677
 H1246 H 0.19968 0.59415 0.24773
 H1247 H 0.17916 0.53578 0.26146
 H1248 H 0.16246 0.62693 0.18051
 C1249 C 0.64494 0.03469 0.76126
 C1250 C 0.64838 0.05993 0.73503
 C1251 C 0.67219 0.09186 0.74083
 C1252 C 0.67540 0.11821 0.71582
 H1253 H 0.63300 0.05804 0.70982
 H1254 H 0.68642 0.09439 0.76676
 H1255 H 0.66178 0.03755 0.78559
 H1256 H 0.66140 0.11556 0.68979
 C1257 C 0.84583 0.03387 0.25731
 C1258 C 0.85517 0.06788 0.26732
 C1259 C 0.82844 0.09757 0.26722
 C1260 C 0.83368 0.12798 0.28693
 H1261 H 0.88306 0.07479 0.27376
 H1262 H 0.80502 0.09525 0.24917
 H1263 H 0.81771 0.02890 0.24963
 H1264 H 0.85580 0.12952 0.30660
 C1265 C 0.33728 0.53507 0.74333
 C1266 C 0.34242 0.56193 0.76779
 C1267 C 0.32077 0.59543 0.76424
 C1268 C 0.32567 0.62459 0.78578
 H1269 H 0.36343 0.56075 0.78849
 H1270 H 0.30119 0.59685 0.74198
 H1271 H 0.31542 0.53846 0.72349
 H1272 H 0.34416 0.62337 0.80893
 C1273 C 0.33581 0.46941 0.73324
 C1274 C 0.34653 0.43665 0.72129
 C1275 C 0.32392 0.40413 0.72675
 C1276 C 0.33125 0.37289 0.70960
 H1277 H 0.37310 0.43320 0.70954
 H1278 H 0.30150 0.40552 0.74560
 H1279 H 0.30933 0.47135 0.74580
 H1280 H 0.35223 0.37210 0.68913
 C1281 C 0.85153 0.96755 0.25350
 C1282 C 0.84962 0.94135 0.22782
 C1283 C 0.83087 0.90685 0.23573
 C1284 C 0.82964 0.87892 0.21203
 H1285 H 0.86250 0.94450 0.20170
 H1286 H 0.81818 0.90414 0.26211
 H1287 H 0.83799 0.96278 0.27918
 H1288 H 0.84186 0.88161 0.18544
 C1289 C 0.64178 0.96808 0.75859
 C1290 C 0.64694 0.94324 0.78505
 C1291 C 0.66811 0.90982 0.77767
 C1292 C 0.67283 0.88352 0.80262
 H1293 H 0.63525 0.94687 0.81174
 H1294 H 0.67934 0.90633 0.75068
 H1295 H 0.65523 0.96346 0.73280
 H1296 H 0.66167 0.88696 0.82963
 C1297 C 0.15069 0.47051 0.24400
 C1298 C 0.15177 0.44503 0.27019
 C1299 C 0.17261 0.41131 0.26385
 C1300 C 0.17541 0.38439 0.28833
 H1301 H 0.13734 0.44843 0.29549
 H1302 H 0.18593 0.40843 0.23778
 H1303 H 0.16612 0.46546 0.21942
 H1304 H 0.16265 0.38711 0.31467
 C1305 C 0.04125 0.23752 0.84372
 C1306 C 0.07323 0.22718 0.85822
 C1307 C 0.10722 0.22404 0.83771
 C1308 C 0.11351 0.24156 0.80649
 H1309 H 0.07472 0.22029 0.88689
 H1310 H 0.12871 0.20833 0.85045
 H1311 H 0.03915 0.24417 0.81509
 H1312 H 0.09298 0.25888 0.79439
 C1313 C 0.54054 0.75133 0.35297
 C1314 C 0.57225 0.74172 0.36871
 C1315 C 0.60695 0.73827 0.34944
 C1316 C 0.61411 0.75481 0.31791
 H1317 H 0.57299 0.73544 0.39753
 H1318 H 0.62805 0.72285 0.36316
 H1319 H 0.53944 0.75771 0.32424
 H1320 H 0.59390 0.77173 0.30475
 C1321 C 0.53839 0.27495 0.15359
 C1322 C 0.57065 0.28031 0.13794
 C1323 C 0.60527 0.28160 0.15809
 C1324 C 0.61170 0.26236 0.18841
 H1325 H 0.57230 0.28283 0.10866
 H1326 H 0.62717 0.29621 0.14522
 H1327 H 0.53678 0.27312 0.18300
 H1328 H 0.59041 0.24614 0.20036
 C1329 C 0.02668 0.75465 0.65611
 C1330 C 0.05815 0.75968 0.63859
 C1331 C 0.09373 0.76364 0.65672
 C1332 C 0.10210 0.74768 0.68837
 H1333 H 0.05819 0.76133 0.60919
 H1334 H 0.11450 0.77793 0.64179
 H1335 H 0.02644 0.75392 0.68562
 H1336 H 0.08204 0.73147 0.70228
 C1337 C 0.95935 0.74402 0.66075
 C1338 C 0.94943 0.76928 0.68531
 C1339 C 0.91547 0.76712 0.70654
 C1340 C 0.88591 0.74884 0.69493
 H1341 H 0.96662 0.79279 0.68996
 H1342 H 0.91418 0.78326 0.73128
 H1343 H 0.94295 0.71969 0.65777
 H1344 H 0.88628 0.73441 0.66915
 C1345 C 0.47169 0.26171 0.15453
 C1346 C 0.45967 0.28761 0.17732
 C1347 C 0.42494 0.28457 0.19687
 C1348 C 0.39673 0.26517 0.18384
 H1349 H 0.47580 0.31187 0.18197
 H1350 H 0.42209 0.30039 0.22167
 H1351 H 0.45616 0.23679 0.15163
 H1352 H 0.39865 0.25119 0.15790
 C1353 C 0.47266 0.76295 0.35216
 C1354 C 0.46519 0.74465 0.32112
 C1355 C 0.42936 0.74530 0.30260
 C1356 C 0.39843 0.75302 0.31991
 H1357 H 0.48562 0.72739 0.30905
 H1358 H 0.42844 0.73710 0.27420
 H1359 H 0.45221 0.78083 0.36330
 H1360 H 0.39874 0.75994 0.34861
 C1361 C 0.97366 0.25060 0.84575
 C1362 C 0.96408 0.23220 0.81540
 C1363 C 0.92807 0.23494 0.79743
 C1364 C 0.89857 0.24889 0.81341
 H1365 H 0.98318 0.21378 0.80289
 H1366 H 0.92566 0.22316 0.77037
 H1367 H 0.95474 0.26963 0.85762
 H1368 H 0.89992 0.25991 0.84074
 C1369 C 0.59347 1.00306 0.72749
 C1370 C 0.56608 1.02684 0.72239
 C1371 C 0.54800 1.03018 0.68624
 C1372 C 0.56796 1.02968 0.65600
 H1373 H 0.55725 1.04420 0.74450
 H1374 H 0.51872 1.03210 0.68460
 H1375 H 0.60049 0.98530 0.70492
 H1376 H 0.59728 1.02887 0.65879
 C1377 C 0.10310 0.50450 1.21182
 C1378 C 0.07624 0.52839 1.20477
 C1379 C 0.05647 0.52810 1.16912
 C1380 C 0.07380 0.51979 1.13820
 H1381 H 0.06901 0.54861 1.22498
 H1382 H 0.02798 0.53527 1.16837
 H1383 H 0.10823 0.48361 1.19153
 H1384 H 0.10277 0.51478 1.13945
 C1385 C -0.10992 0.00929 1.21430
 C1386 C -0.08144 -0.00926 1.20148
 C1387 C -0.06997 -0.00393 1.16364
 C1388 C -0.04288 -0.02306 1.14895
 H1389 H -0.06776 -0.02945 1.21790
 H1390 H -0.08473 0.01567 1.14717
 H1391 H -0.12341 0.02826 1.19603
 H1392 H -0.02767 -0.04225 1.16546
 C1393 C 0.37987 0.50879 0.70064
 C1394 C 0.41009 0.49271 0.68858
 C1395 C 0.42047 0.49790 0.65005
 C1396 C 0.44928 0.48168 0.63523
 H1397 H 0.42566 0.47473 0.70607
 H1398 H 0.40336 0.51499 0.63303
 H1399 H 0.36490 0.52545 0.68124
 H1400 H 0.46698 0.46514 0.65215
 C1401 C 0.38661 0.49363 -0.23087
 C1402 C 0.41456 0.51406 -0.21909
 C1403 C 0.42961 0.50655 -0.18233
 C1404 C 0.45228 0.52890 -0.16426
 H1405 H 0.42313 0.53773 -0.23424
 H1406 H 0.41954 0.48272 -0.16830
 H1407 H 0.37859 0.47112 -0.21361
 H1408 H 0.46383 0.55227 -0.17778
 C1409 C -0.09845 1.00303 0.28195
 C1410 C -0.07802 0.97398 0.29024
 C1411 C -0.05789 0.97185 0.32494
 C1412 C -0.04139 1.00037 0.34092
 H1413 H -0.08114 0.94898 0.27480
 H1414 H -0.05926 0.94613 0.33921
 H1415 H -0.09671 1.02612 0.30024
 H1416 H -0.03698 1.02545 0.32621
 C1417 C 0.11086 0.51306 0.28056
 C1418 C 0.08028 0.49712 0.29149
 C1419 C 0.06802 0.50360 0.32911
 C1420 C 0.03708 0.48995 0.34172
 H1421 H 0.06537 0.47892 0.27344
 H1422 H 0.08513 0.51984 0.34713
 H1423 H 0.12516 0.53020 0.30024
 H1424 H 0.01948 0.47429 0.32368
 C1425 C 0.59663 0.00457 -0.20419
 C1426 C 0.57025 -0.01905 -0.19549
 C1427 C 0.55262 -0.01837 -0.15932
 C1428 C 0.57071 -0.00756 -0.12927
 H1429 H 0.56144 -0.03934 -0.21519
 H1430 H 0.52487 -0.02781 -0.15744
 H1431 H 0.60337 0.02616 -0.18504
 H1432 H 0.59909 -0.00020 -0.13117
 C1433 C 0.71719 0.57435 0.00004
 C1434 C 0.68530 0.58710 -0.01237
 C1435 C 0.65178 0.56543 -0.00933
 C1436 C 0.62193 0.57420 -0.02837
 H1437 H 0.68328 0.61427 -0.02335
 H1438 H 0.65133 0.54247 0.00912
 H1439 H 0.71753 0.54723 0.01165
 H1440 H 0.62316 0.59580 -0.04834
 C1441 C 0.22389 1.07212 0.48975
 C1442 C 0.18988 1.08121 0.48011
 C1443 C 0.15863 1.05706 0.48682
 C1444 C 0.12700 1.06332 0.46986
 H1445 H 0.18462 1.10791 0.46882
 H1446 H 0.16123 1.03483 0.50599
 H1447 H 0.22845 1.04560 0.50188
 H1448 H 0.12564 1.08422 0.44911
 C1449 C 0.22234 -0.08203 1.00769
 C1450 C 0.18936 -0.09725 1.00642
 C1451 C 0.15665 -0.07466 1.00611
 C1452 C 0.12605 -0.08578 1.02163
 H1453 H 0.18645 -0.12655 1.00438
 H1454 H 0.15748 -0.04870 0.99219
 H1455 H 0.22402 -0.05258 1.00970
 H1456 H 0.12575 -0.11023 1.03803
 C1457 C 0.70544 0.41254 0.51286
 C1458 C 0.69296 0.43995 0.49214
 C1459 C 0.65514 0.45281 0.49070
 C1460 C 0.62870 0.44372 0.51381
 H1461 H 0.71050 0.45118 0.47153
 H1462 H 0.64870 0.47019 0.46773
 H1463 H 0.68755 0.39947 0.53199
 H1464 H 0.63442 0.42828 0.53823
 C1465 C -0.22951 0.42332 0.50016
 C1466 C -0.20621 0.42606 0.47252
 C1467 C -0.17394 0.44921 0.47689
 C1468 C -0.14665 0.44807 0.45321
 H1469 H -0.20861 0.40900 0.44851
 H1470 H -0.17092 0.46481 0.50194
 H1471 H -0.22570 0.44129 0.52350
 H1472 H -0.14962 0.43294 0.42790
 C1473 C 0.28856 -0.07702 0.00405
 C1474 C 0.31792 -0.07866 -0.01714
 C1475 C 0.35006 -0.05653 -0.00843
 C1476 C 0.37950 -0.05768 -0.02932
 H1477 H 0.31943 -0.09801 -0.03944
 H1478 H 0.35026 -0.04050 0.01648
 H1479 H 0.28882 -0.05807 0.02686
 H1480 H 0.37895 -0.07299 -0.05467
 C1481 C 0.29011 1.07892 0.49397
 C1482 C 0.31627 1.08192 0.51964
 C1483 C 0.35110 1.06262 0.51454
 C1484 C 0.37874 1.06493 0.53855
 H1485 H 0.31301 1.09929 0.54325
 H1486 H 0.35459 1.04708 0.48961
 H1487 H 0.29509 1.06051 0.47130
 H1488 H 0.37531 1.07999 0.56376
 C1489 C -0.21660 0.57187 1.00808
 C1490 C -0.18441 0.58060 1.02324
 C1491 C -0.15199 0.55807 1.01631
 C1492 C -0.12084 0.56325 1.03479
 H1493 H -0.18121 0.60555 1.03874
 H1494 H -0.15323 0.53796 0.99460
 H1495 H -0.21808 0.54706 0.99192
 H1496 H -0.12005 0.58220 1.05753
 C1497 C -0.00679 0.71383 0.61241
 C1498 C 0.01060 0.68372 0.62380
 C1499 C 0.01120 0.64911 0.60324
 C1500 C 0.00216 0.64619 0.56789
 H1501 H 0.02413 0.68372 0.65016
 H1502 H 0.01963 0.62514 0.61817
 H1503 H -0.02358 0.71276 0.58806
 H1504 H -0.00552 0.66987 0.55225
 C1505 C 0.51051 0.22986 0.11149
 C1506 C 0.52260 0.20029 0.12947
 C1507 C 0.52542 0.16368 0.11310
 C1508 C 0.50697 0.15374 0.08312
 H1509 H 0.53121 0.20290 0.15769
 H1510 H 0.54230 0.14402 0.12720
 H1511 H 0.50164 0.22751 0.08344
 H1512 H 0.48883 0.17256 0.06959
 C1513 C 0.00174 0.20996 0.89108
 C1514 C -0.00139 0.17667 0.87611
 C1515 C -0.00785 0.14313 0.89670
 C1516 C 0.00366 0.13795 0.93102
 H1517 H 0.00031 0.17344 0.84689
 H1518 H -0.01966 0.12067 0.88142
 H1519 H -0.00175 0.21330 0.92018
 H1520 H 0.01797 0.15937 0.94561
 C1521 C 0.50145 0.72426 0.40029
 C1522 C 0.48907 0.69223 0.38837
 C1523 C 0.48788 0.66100 0.41275
 C1524 C 0.47225 0.63018 0.40169
 H1525 H 0.48057 0.68848 0.36033
 H1526 H 0.50080 0.66291 0.43942
 H1527 H 0.51122 0.72620 0.42827
 H1528 H 0.45889 0.62881 0.37520
 C1529 C 0.51235 0.79091 0.39833
 C1530 C 0.49261 0.79849 0.42801
 C1531 C 0.49625 0.83222 0.44961
 C1532 C 0.52400 0.85542 0.44656
 H1533 H 0.47151 0.77982 0.43620
 H1534 H 0.47431 0.83854 0.46801
 H1535 H 0.53111 0.81087 0.38795
 H1536 H 0.54635 0.84991 0.42856
 C1537 C 0.01538 0.27680 0.89129
 C1538 C 0.02318 0.30903 0.87603
 C1539 C 0.02718 0.34377 0.89594
 C1540 C 0.01358 0.35020 0.92906
 H1541 H 0.02661 0.31033 0.84676
 H1542 H 0.03951 0.36582 0.88101
 H1543 H 0.01280 0.27471 0.92055
 H1544 H -0.00025 0.32893 0.94372
 C1545 C 0.49749 0.29723 0.10421
 C1546 C 0.51072 0.29924 0.07018
 C1547 C 0.50686 0.33187 0.04701
 C1548 C 0.48041 0.35644 0.05122
 H1549 H 0.52792 0.27782 0.05982
 H1550 H 0.52743 0.33614 0.02660
 H1551 H 0.48369 0.32070 0.11530
 H1552 H 0.45913 0.35188 0.07075
 C1553 C -0.01555 0.78180 0.61126
 C1554 C -0.00314 0.78515 0.57699
 C1555 C -0.00248 0.81967 0.55643
 C1556 C -0.02013 0.84983 0.56649
 H1557 H 0.01035 0.76242 0.56411
 H1558 H 0.01428 0.82017 0.53237
 H1559 H -0.02668 0.80528 0.62491
 H1560 H -0.03805 0.84968 0.58959
 C1561 C 0.25249 0.31945 0.02836
 C1562 C 0.28136 0.30034 0.04011
 C1563 C 0.28275 0.28529 0.07744
 C1564 C 0.26939 0.30434 0.10553
 H1565 H 0.30528 0.29804 0.02340
 H1566 H 0.29660 0.25971 0.08200
 H1567 H 0.22803 0.31870 0.04456
 H1568 H 0.25774 0.33098 0.10057
 C1569 C 0.74489 0.82839 0.54210
 C1570 C 0.73802 0.84424 0.57423
 C1571 C 0.73727 0.82581 0.60955
 C1572 C 0.75657 0.79611 0.61876
 H1573 H 0.73261 0.87319 0.57512
 H1574 H 0.72199 0.84021 0.63013
 H1575 H 0.75003 0.79940 0.54073
 H1576 H 0.77258 0.78168 0.59879
 C1577 C 0.23822 0.66749 0.53148
 C1578 C 0.26610 0.67826 0.55280
 C1579 C 0.26262 0.69370 0.58989
 C1580 C 0.23371 0.71129 0.60345
 H1581 H 0.29348 0.67145 0.54488
 H1582 H 0.28628 0.69000 0.60730
 H1583 H 0.21091 0.67494 0.53913
 H1584 H 0.21080 0.71840 0.58621
 C1585 C 0.75683 0.17898 0.03919
 C1586 C 0.73305 0.20644 0.04349
 C1587 C 0.73014 0.22567 0.07889
 C1588 C 0.73165 0.20659 0.10980
 H1589 H 0.71483 0.21400 0.02143
 H1590 H 0.72710 0.25497 0.07944
 H1591 H 0.77581 0.17327 0.06127
 H1592 H 0.73335 0.17716 0.10810
 C1593 C 0.76100 0.17304 0.97132
 C1594 C 0.76303 0.15443 0.93982
 C1595 C 0.76505 0.17013 0.90320
 C1596 C 0.77492 0.20426 0.89484
 H1597 H 0.76110 0.12501 0.94055
 H1598 H 0.75786 0.15121 0.88155
 H1599 H 0.76156 0.20250 0.97120
 H1600 H 0.78397 0.22315 0.91578
 C1601 C 0.24783 0.66913 0.46459
 C1602 C 0.27617 0.69164 0.45972
 C1603 C 0.28090 0.71097 0.42466
 C1604 C 0.27410 0.69367 0.39310
 H1605 H 0.29615 0.69563 0.48120
 H1606 H 0.28987 0.73902 0.42494
 H1607 H 0.22721 0.66806 0.44324
 H1608 H 0.26695 0.66504 0.39386
 C1609 C 0.75566 0.82876 0.47446
 C1610 C 0.76257 0.84485 0.44258
 C1611 C 0.76360 0.82660 0.40689
 C1612 C 0.74493 0.79648 0.39735
 H1613 H 0.76792 0.87384 0.44228
 H1614 H 0.77867 0.84124 0.38645
 H1615 H 0.75066 0.79973 0.47531
 H1616 H 0.72889 0.78203 0.41714
 C1617 C 0.24819 0.32158 0.96102
 C1618 C 0.27615 0.30779 0.94236
 C1619 C 0.27307 0.29353 0.90468
 C1620 C 0.24370 0.27752 0.88957
 H1621 H 0.30349 0.31164 0.95274
 H1622 H 0.29711 0.29685 0.88826
 H1623 H 0.22092 0.31679 0.95077
 H1624 H 0.22040 0.27061 0.90586
 C1625 C 0.85324 0.47512 0.73929
 C1626 C 0.85001 0.44861 0.76420
 C1627 C 0.82850 0.41553 0.75588
 C1628 C 0.82593 0.38816 0.77978
 H1629 H 0.86421 0.45022 0.79011
 H1630 H 0.81568 0.41303 0.72923
 H1631 H 0.83814 0.47220 0.71385
 H1632 H 0.83867 0.39088 0.80645
 C1633 C 0.36662 0.97026 0.25389
 C1634 C 0.35804 0.94706 0.28067
 C1635 C 0.33605 0.91450 0.27172
 C1636 C 0.32730 0.88917 0.29633
 H1637 H 0.36683 0.95183 0.30855
 H1638 H 0.32752 0.91080 0.24355
 H1639 H 0.35590 0.96446 0.22676
 H1640 H 0.33627 0.89221 0.32442
 C1641 C 0.13452 0.97550 0.75935
 C1642 C 0.14075 0.94823 0.73556
 C1643 C 0.16377 0.91671 0.74522
 C1644 C 0.16938 0.88979 0.72107
 H1645 H 0.12792 0.94809 0.70887
 H1646 H 0.17521 0.91503 0.77252
 H1647 H 0.14772 0.97437 0.78591
 H1648 H 0.15782 0.89195 0.69384
 C1649 C 0.63586 0.47635 0.25207
 C1650 C 0.64741 0.44986 0.22954
 C1651 C 0.67287 0.42109 0.24177
 C1652 C 0.68367 0.39539 0.21819
 H1653 H 0.63709 0.44800 0.20187
 H1654 H 0.68097 0.41972 0.27023
 H1655 H 0.64731 0.47728 0.27945
 H1656 H 0.67490 0.39726 0.18993
 C1657 C 0.62421 0.54208 0.24142
 C1658 C 0.64361 0.55796 0.26831
 C1659 C 0.66356 0.59204 0.26046
 C1660 C 0.68013 0.61231 0.28617
 H1661 H 0.64583 0.54538 0.29489
 H1662 H 0.66455 0.60093 0.23233
 H1663 H 0.62254 0.55658 0.21570
 H1664 H 0.67798 0.60484 0.31460
 C1665 C 0.12986 0.04260 0.75634
 C1666 C 0.14507 0.05500 0.78764
 C1667 C 0.16587 0.08963 0.78906
 C1668 C 0.18637 0.09994 0.76105
 H1669 H 0.14060 0.04064 0.81289
 H1670 H 0.16400 0.10664 0.81316
 H1671 H 0.13288 0.05906 0.73210
 H1672 H 0.18936 0.08152 0.73811
 C1673 C 0.35997 0.03581 0.25594
 C1674 C 0.35826 0.06265 0.23139
 C1675 C 0.33355 0.09347 0.23766
 C1676 C 0.33220 0.12202 0.21528
 H1677 H 0.37623 0.06338 0.20830
 H1678 H 0.31773 0.09375 0.26242
 H1679 H 0.34062 0.03633 0.27807
 H1680 H 0.34752 0.12164 0.19022
 C1681 C 0.85320 0.54145 0.73731
 C1682 C 0.85369 0.56569 0.70969
 C1683 C 0.83340 0.60073 0.71011
 C1684 C 0.80586 0.60762 0.73260
 H1685 H 0.87186 0.56188 0.68708
 H1686 H 0.84331 0.62229 0.69282
 H1687 H 0.83485 0.54589 0.75965
 H1688 H 0.79516 0.58636 0.74962
 C1689 C 0.96871 0.74335 0.14582
 C1690 C 0.96408 0.73402 0.18078
 C1691 C 0.92788 0.73178 0.19769
 C1692 C 0.89829 0.74824 0.18391
 H1693 H 0.98711 0.72584 0.19732
 H1694 H 0.92593 0.71639 0.22270
 H1695 H 0.94524 0.74822 0.12857
 H1696 H 0.90007 0.76528 0.16007
 C1697 C 0.47135 0.25773 0.64251
 C1698 C 0.43982 0.26637 0.62614
 C1699 C 0.40460 0.26535 0.64431
 C1700 C 0.39797 0.24465 0.67341
 H1701 H 0.43963 0.27445 0.59777
 H1702 H 0.38282 0.28061 0.63151
 H1703 H 0.47204 0.25034 0.67103
 H1704 H 0.41902 0.22794 0.68548
 C1705 C 0.46178 0.75798 0.86387
 C1706 C 0.42832 0.76168 0.87756
 C1707 C 0.39443 0.75609 0.85683
 C1708 C 0.39042 0.76312 0.82125
 H1709 H 0.42512 0.76782 0.90619
 H1710 H 0.37094 0.74886 0.87274
 H1711 H 0.46486 0.74969 0.83569
 H1712 H 0.41303 0.77329 0.80568
 C1713 C 0.97344 0.24269 0.35677
 C1714 C 0.94103 0.23706 0.37210
 C1715 C 0.90592 0.23812 0.35265
 C1716 C 0.90007 0.25529 0.32096
 H1717 H 0.94001 0.23084 0.40093
 H1718 H 0.88338 0.22576 0.36668
 H1719 H 0.97524 0.24776 0.32781
 H1720 H 0.92196 0.26907 0.30729
 C1721 C 0.04137 0.24939 0.35728
 C1722 C 0.07413 0.25289 0.37328
 C1723 C 0.10824 0.25783 0.35357
 C1724 C 0.11335 0.24672 0.31920
 H1725 H 0.07617 0.25292 0.40278
 H1726 H 0.13081 0.26875 0.36933
 H1727 H 0.03865 0.25053 0.32789
 H1728 H 0.09168 0.23360 0.30390
 C1729 C 0.52949 0.76517 0.86591
 C1730 C 0.56175 0.77080 0.88256
 C1731 C 0.59675 0.77162 0.86398
 C1732 C 0.60283 0.75405 0.83269
 H1733 H 0.56278 0.77497 0.91182
 H1734 H 0.61898 0.78477 0.87845
 H1735 H 0.52783 0.76202 0.83658
 H1736 H 0.58119 0.73929 0.81895
 C1737 C 0.53841 0.24781 0.64578
 C1738 C 0.54625 0.26730 0.67588
 C1739 C 0.58115 0.26422 0.69572
 C1740 C 0.61111 0.25081 0.68026
 H1741 H 0.52682 0.28652 0.68649
 H1742 H 0.58260 0.27563 0.72299
 H1743 H 0.55701 0.22672 0.63743
 H1744 H 0.61069 0.24091 0.65248
 C1745 C 0.03880 0.74371 0.15006
 C1746 C 0.04615 0.76690 0.17762
 C1747 C 0.08159 0.76765 0.19711
 C1748 C 0.11248 0.75651 0.18163
 H1749 H 0.02552 0.78545 0.18702
 H1750 H 0.08228 0.77924 0.22432
 H1751 H 0.05922 0.72389 0.14275
 H1752 H 0.11232 0.74683 0.15373
   
