data_POSCAR
  _audit_creation_date              2014-09-24
  _audit_creation_method            'ToBaCCo'
  _symmetry_space_group_name_H-M    'P1'
  _symmetry_Int_Tables_number       1
  _symmetry_cell_setting            triclinic
  loop_
  _symmetry_equiv_pos_as_xyz
 x,y,z
_cell_length_a 58.1761
_cell_length_b 58.7555
_cell_length_c 58.2605
_cell_angle_alpha 90.170500
_cell_angle_beta 89.972200
_cell_angle_gamma 90.249100
loop_
  _atom_site_label
  _atom_site_type_symbol
  _atom_site_fract_x
  _atom_site_fract_y
  _atom_site_fract_z
N1 N 0.17397 0.22759 0.23147
 N2 N 0.18059 0.20980 0.24338
 C3 C 0.16612 0.20684 0.26120
 C4 C 0.14973 0.22367 0.26028
 C5 C 0.15510 0.23657 0.24130
 H6 H 0.16729 0.19346 0.27385
 H7 H 0.14592 0.25128 0.23508
 Cu8 Cu 0.20735 0.19215 0.23435
 Cu9 Cu 0.19023 0.23773 0.20412
 Cu10 Cu 0.23739 0.20603 0.18701
 N11 N 0.23354 0.17425 0.22420
 N12 N 0.24521 0.17974 0.20566
 C13 C 0.26227 0.16462 0.20253
 C14 C 0.26111 0.14893 0.22003
 C15 C 0.24278 0.15541 0.23349
 H16 H 0.27456 0.16499 0.18860
 H17 H 0.23670 0.14700 0.24883
 N18 N 0.22683 0.23322 0.17039
 N19 N 0.20887 0.24530 0.17692
 C20 C 0.20606 0.26273 0.16222
 C21 C 0.22303 0.26145 0.14581
 C22 C 0.23592 0.24265 0.15135
 H23 H 0.19271 0.27545 0.16334
 H24 H 0.25079 0.23639 0.14221
 H25 H 0.20281 0.20606 0.19525
 H26 H 0.22199 0.22474 0.21288
 N27 N 0.67321 0.72554 0.73188
 N28 N 0.68031 0.70821 0.74420
 C29 C 0.66580 0.70515 0.76198
 C30 C 0.64888 0.72142 0.76058
 C31 C 0.65399 0.73410 0.74138
 H32 H 0.66737 0.69212 0.77496
 H33 H 0.64446 0.74846 0.73486
 Cu34 Cu 0.70778 0.69133 0.73581
 Cu35 Cu 0.68941 0.73575 0.70451
 Cu36 Cu 0.73775 0.70534 0.68842
 N37 N 0.73460 0.67411 0.72614
 N38 N 0.74622 0.67963 0.70758
 C39 C 0.76369 0.66492 0.70474
 C40 C 0.76287 0.64948 0.72246
 C41 C 0.74430 0.65565 0.73575
 H42 H 0.77598 0.66535 0.69082
 H43 H 0.73830 0.64725 0.75113
 N44 N 0.72650 0.73187 0.67124
 N45 N 0.70807 0.74347 0.67737
 C46 C 0.70491 0.76061 0.66240
 C47 C 0.72214 0.75964 0.64623
 C48 C 0.73554 0.74134 0.65221
 H49 H 0.69119 0.77295 0.66320
 H50 H 0.75077 0.73547 0.64338
 H51 H 0.70311 0.70432 0.69638
 H52 H 0.72149 0.72397 0.71380
 N53 N 0.32650 0.77351 0.73385
 N54 N 0.32031 0.79174 0.74545
 C55 C 0.33488 0.79480 0.76320
 C56 C 0.35087 0.77758 0.76252
 C57 C 0.34518 0.76437 0.74379
 H58 H 0.33400 0.80848 0.77562
 H59 H 0.35401 0.74931 0.73782
 Cu60 Cu 0.29384 0.80959 0.73611
 Cu61 Cu 0.30995 0.76302 0.70674
 Cu62 Cu 0.26269 0.79462 0.68986
 N63 N 0.26733 0.82721 0.72650
 N64 N 0.25520 0.82122 0.70838
 C65 C 0.23797 0.83616 0.70543
 C66 C 0.23952 0.85224 0.72262
 C67 C 0.25823 0.84621 0.73572
 H68 H 0.22535 0.83542 0.69181
 H69 H 0.26469 0.85502 0.75073
 N70 N 0.27301 0.76716 0.67337
 N71 N 0.29103 0.75514 0.67979
 C72 C 0.29371 0.73756 0.66512
 C73 C 0.27660 0.73870 0.64886
 C74 C 0.26376 0.75755 0.65446
 H75 H 0.30710 0.72490 0.66611
 H76 H 0.24886 0.76377 0.64538
 H77 H 0.29741 0.79450 0.69721
 H78 H 0.27847 0.77658 0.71571
 N79 N 0.82803 0.27305 0.23323
 N80 N 0.82163 0.29098 0.24519
 C81 C 0.83609 0.29380 0.26306
 C82 C 0.85222 0.27671 0.26208
 C83 C 0.84675 0.26383 0.24305
 H84 H 0.83503 0.30721 0.27577
 H85 H 0.85569 0.24895 0.23680
 Cu86 Cu 0.79501 0.30878 0.23616
 Cu87 Cu 0.81171 0.26303 0.20581
 Cu88 Cu 0.76457 0.29488 0.18908
 N89 N 0.76877 0.32674 0.22641
 N90 N 0.75690 0.32116 0.20800
 C91 C 0.73970 0.33617 0.20519
 C92 C 0.74098 0.35187 0.22275
 C93 C 0.75951 0.34552 0.23594
 H94 H 0.72719 0.33568 0.19147
 H95 H 0.76568 0.35393 0.25129
 N96 N 0.77507 0.26771 0.17220
 N97 N 0.79303 0.25559 0.17858
 C98 C 0.79582 0.23821 0.16370
 C99 C 0.77883 0.23957 0.14733
 C100 C 0.76596 0.25835 0.15309
 H101 H 0.80916 0.22549 0.16466
 H102 H 0.75109 0.26465 0.14402
 H103 H 0.79917 0.29471 0.19698
 H104 H 0.78003 0.27622 0.21473
 N105 N 0.82653 0.72763 0.26459
 N106 N 0.82003 0.70980 0.25247
 C107 C 0.83463 0.70707 0.23471
 C108 C 0.85095 0.72409 0.23589
 C109 C 0.84543 0.73685 0.25496
 H110 H 0.83361 0.69367 0.22198
 H111 H 0.85457 0.75160 0.26142
 Cu112 Cu 0.79334 0.69174 0.26124
 Cu113 Cu 0.81025 0.73735 0.29208
 Cu114 Cu 0.76329 0.70492 0.30883
 N115 N 0.76732 0.67338 0.27127
 N116 N 0.75563 0.67863 0.28987
 C117 C 0.73873 0.66320 0.29292
 C118 C 0.74001 0.64755 0.27532
 C119 C 0.75825 0.65437 0.26186
 H120 H 0.72650 0.66329 0.30691
 H121 H 0.76444 0.64606 0.24648
 N122 N 0.77370 0.73215 0.32577
 N123 N 0.79161 0.74450 0.31937
 C124 C 0.79441 0.76182 0.33433
 C125 C 0.77751 0.76017 0.35079
 C126 C 0.76464 0.74130 0.34497
 H127 H 0.80770 0.77471 0.33337
 H128 H 0.74981 0.73479 0.35406
 H129 H 0.79786 0.70538 0.30055
 H130 H 0.77856 0.72394 0.28320
 N131 N 0.32507 0.23023 -0.23591
 N132 N 0.31852 0.21219 -0.24769
 C133 C 0.33306 0.20912 -0.26545
 C134 C 0.34937 0.22618 -0.26461
 C135 C 0.34395 0.23928 -0.24574
 H136 H 0.33205 0.19543 -0.27786
 H137 H 0.35317 0.25408 -0.23950
 Cu138 Cu 0.29198 0.19418 -0.23841
 Cu139 Cu 0.30900 0.24031 -0.20841
 Cu140 Cu 0.26222 0.20800 -0.19085
 N141 N 0.26606 0.17592 -0.22795
 N142 N 0.25446 0.18143 -0.20937
 C143 C 0.23765 0.16598 -0.20595
 C144 C 0.23889 0.15005 -0.22330
 C145 C 0.25702 0.15672 -0.23697
 H146 H 0.22551 0.16624 -0.19189
 H147 H 0.26315 0.14817 -0.25224
 N148 N 0.27272 0.23548 -0.17437
 N149 N 0.29056 0.24778 -0.18106
 C150 C 0.29351 0.26523 -0.16627
 C151 C 0.27677 0.26372 -0.14964
 C152 C 0.26386 0.24478 -0.15515
 H153 H 0.30686 0.27805 -0.16742
 H154 H 0.24920 0.23829 -0.14579
 H155 H 0.29676 0.20847 -0.19935
 H156 H 0.27730 0.22671 -0.21685
 N157 N 0.67249 0.27192 -0.23275
 N158 N 0.67923 0.28960 -0.24487
 C159 C 0.66454 0.29260 -0.26248
 C160 C 0.64790 0.27590 -0.26117
 C161 C 0.65332 0.26303 -0.24221
 H162 H 0.66580 0.30588 -0.27525
 H163 H 0.64405 0.24837 -0.23580
 Cu164 Cu 0.70646 0.30704 -0.23643
 Cu165 Cu 0.68900 0.26177 -0.20561
 Cu166 Cu 0.73704 0.29308 -0.18955
 N167 N 0.73310 0.32478 -0.22677
 N168 N 0.74499 0.31922 -0.20844
 C169 C 0.76226 0.33430 -0.20556
 C170 C 0.76100 0.35003 -0.22300
 C171 C 0.74239 0.34363 -0.23616
 H172 H 0.77468 0.33396 -0.19176
 H173 H 0.73606 0.35217 -0.25130
 N174 N 0.72628 0.26609 -0.17261
 N175 N 0.70796 0.25417 -0.17871
 C176 C 0.70507 0.23687 -0.16382
 C177 C 0.72237 0.23809 -0.14774
 C178 C 0.73553 0.25669 -0.15369
 H179 H 0.69145 0.22431 -0.16459
 H180 H 0.75068 0.26285 -0.14486
 H181 H 0.70231 0.29340 -0.19716
 H182 H 0.72082 0.27442 -0.21501
 N183 N 0.17488 0.77270 0.26858
 N184 N 0.18148 0.79065 0.25681
 C185 C 0.16701 0.79362 0.23903
 C186 C 0.15065 0.77662 0.23982
 C187 C 0.15602 0.76362 0.25869
 H188 H 0.16815 0.80714 0.22652
 H189 H 0.14686 0.74877 0.26480
 Cu190 Cu 0.20818 0.80852 0.26599
 Cu191 Cu 0.19110 0.76257 0.29590
 Cu192 Cu 0.23822 0.79464 0.31321
 N193 N 0.23431 0.82663 0.27624
 N194 N 0.24601 0.82113 0.29472
 C195 C 0.26303 0.83642 0.29795
 C196 C 0.26178 0.85221 0.28057
 C197 C 0.24347 0.84565 0.26707
 H198 H 0.27533 0.83609 0.31187
 H199 H 0.23733 0.85411 0.25181
 N200 N 0.22767 0.76725 0.32967
 N201 N 0.20971 0.75504 0.32307
 C202 C 0.20686 0.73754 0.33771
 C203 C 0.22379 0.73891 0.35415
 C204 C 0.23671 0.75782 0.34868
 H205 H 0.19349 0.72474 0.33655
 H206 H 0.25154 0.76420 0.35789
 H207 H 0.20363 0.79433 0.30501
 H208 H 0.22285 0.77596 0.28726
 N209 N 0.47601 0.42154 0.48447
 N210 N 0.45748 0.42746 0.49595
 C211 C 0.45437 0.41287 0.51351
 C212 C 0.47188 0.39716 0.51283
 C213 C 0.48530 0.40303 0.49429
 H214 H 0.44041 0.41350 0.52576
 H215 H 0.50057 0.39439 0.48831
 Cu216 Cu 0.43917 0.45349 0.48662
 Cu217 Cu 0.48653 0.43796 0.45747
 Cu218 Cu 0.45480 0.48493 0.44097
 N219 N 0.42188 0.48026 0.47748
 N220 N 0.42813 0.49249 0.45962
 C221 C 0.41336 0.50988 0.45706
 C222 C 0.39712 0.50839 0.47421
 C223 C 0.40290 0.48949 0.48689
 H224 H 0.41432 0.52263 0.44374
 H225 H 0.39393 0.48301 0.50177
 N226 N 0.48233 0.47458 0.42429
 N227 N 0.49445 0.45670 0.43062
 C228 C 0.51205 0.45392 0.41586
 C229 C 0.51083 0.47081 0.39960
 C230 C 0.49192 0.48364 0.40531
 H231 H 0.52477 0.44059 0.41676
 H232 H 0.48563 0.49839 0.39626
 H233 H 0.47271 0.46895 0.46690
 H234 H 0.45480 0.45042 0.44785
 N235 N -0.02185 -0.07669 0.98235
 N236 N -0.04018 -0.07063 0.99408
 C237 C -0.04326 -0.08529 1.01159
 C238 C -0.02595 -0.10121 1.01060
 C239 C -0.01266 -0.09536 0.99195
 H240 H -0.05698 -0.08450 1.02410
 H241 H 0.00254 -0.10403 0.98587
 Cu242 Cu -0.05809 -0.04419 0.98520
 Cu243 Cu -0.01119 -0.05998 0.95557
 Cu244 Cu -0.04288 -0.01277 0.93949
 N245 N -0.07575 -0.01769 0.97601
 N246 N -0.06967 -0.00548 0.95808
 C247 C -0.08465 0.01171 0.95543
 C248 C -0.10086 0.01011 0.97259
 C249 C -0.09485 -0.00865 0.98537
 H250 H -0.08385 0.02440 0.94204
 H251 H -0.10375 -0.01516 1.00028
 N252 N -0.01522 -0.02288 0.92288
 N253 N -0.00316 -0.04087 0.92901
 C254 C 0.01454 -0.04343 0.91431
 C255 C 0.01346 -0.02625 0.89835
 C256 C -0.00549 -0.01352 0.90413
 H257 H 0.02722 -0.05681 0.91506
 H258 H -0.01174 0.00135 0.89525
 H259 H -0.02467 -0.02893 0.96513
 H260 H -0.04293 -0.04733 0.94629
 N261 N 1.02234 0.57679 0.98443
 N262 N 1.04083 0.57083 0.99589
 C263 C 1.04421 0.58568 1.01325
 C264 C 1.02692 0.60162 1.01248
 C265 C 1.01333 0.59560 0.99407
 H266 H 1.05821 0.58509 1.02545
 H267 H 0.99815 0.60431 0.98809
 Cu268 Cu 1.05874 0.54442 0.98673
 Cu269 Cu 1.01142 0.55993 0.95774
 Cu270 Cu 1.04264 0.51236 0.94156
 N271 N 1.07591 0.51748 0.97770
 N272 N 1.06949 0.50502 0.96000
 C273 C 1.08429 0.48767 0.95732
 C274 C 1.10075 0.48943 0.97422
 C275 C 1.09506 0.50844 0.98689
 H276 H 1.08327 0.47483 0.94401
 H277 H 1.10426 0.51518 1.00154
 N278 N 1.01498 0.52255 0.92509
 N279 N 1.00310 0.54069 0.93124
 C280 C 0.98541 0.54333 0.91658
 C281 C 0.98632 0.52605 0.90060
 C282 C 1.00516 0.51317 0.90636
 H283 H 0.97287 0.55684 0.91732
 H284 H 1.01127 0.49821 0.89745
 H285 H 1.02496 0.52893 0.96738
 H286 H 1.04296 0.54696 0.94803
 N287 N 0.52305 0.07498 0.48399
 N288 N 0.54169 0.06899 0.49519
 C289 C 0.54520 0.08368 0.51266
 C290 C 0.52784 0.09956 0.51223
 C291 C 0.51408 0.09366 0.49391
 H292 H 0.55930 0.08299 0.52472
 H293 H 0.49877 0.10236 0.48820
 Cu294 Cu 0.55956 0.04268 0.48568
 Cu295 Cu 0.51187 0.05829 0.45731
 Cu296 Cu 0.54294 0.01084 0.44052
 N297 N 0.57657 0.01576 0.47633
 N298 N 0.56996 0.00338 0.45865
 C299 C 0.58466 -0.01405 0.45583
 C300 C 0.60123 -0.01241 0.47264
 C301 C 0.59573 0.00660 0.48538
 H302 H 0.58343 -0.02689 0.44255
 H303 H 0.60502 0.01321 0.50004
 N304 N 0.51513 0.02114 0.42437
 N305 N 0.50330 0.03923 0.43077
 C306 C 0.48550 0.04200 0.41626
 C307 C 0.48628 0.02485 0.40013
 C308 C 0.50516 0.01192 0.40563
 H309 H 0.47301 0.05554 0.41719
 H310 H 0.51124 -0.00294 0.39652
 H311 H 0.52557 0.02726 0.46666
 H312 H 0.54332 0.04541 0.44719
 N313 N -0.02328 0.07748 0.51750
 N314 N -0.04188 0.07151 0.50609
 C315 C -0.04494 0.08605 0.48852
 C316 C -0.02734 0.10182 0.48911
 C317 C -0.01390 0.09601 0.50762
 H318 H -0.05886 0.08530 0.47624
 H319 H 0.00150 0.10463 0.51346
 Cu320 Cu -0.06026 0.04534 0.51533
 Cu321 Cu -0.01264 0.06090 0.54430
 Cu322 Cu -0.04445 0.01363 0.56062
 N323 N -0.07754 0.01838 0.52437
 N324 N -0.07126 0.00607 0.54211
 C325 C -0.08603 -0.01146 0.54458
 C326 C -0.10230 -0.00996 0.52749
 C327 C -0.09653 0.00906 0.51494
 H328 H -0.08502 -0.02432 0.55778
 H329 H -0.10551 0.01556 0.50010
 N330 N -0.01680 0.02397 0.57719
 N331 N -0.00464 0.04196 0.57094
 C332 C 0.01311 0.04463 0.58556
 C333 C 0.01195 0.02754 0.60163
 C334 C -0.00710 0.01473 0.59596
 H335 H 0.02591 0.05800 0.58468
 H336 H -0.01339 -0.00015 0.60490
 H337 H -0.02661 0.02992 0.53464
 H338 H -0.04434 0.04821 0.55398
 N339 N 0.47832 0.57924 0.01899
 N340 N 0.46003 0.57313 0.00716
 C341 C 0.45738 0.58752 -0.01060
 C342 C 0.47493 0.60333 -0.00971
 C343 C 0.48792 0.59771 0.00918
 H344 H 0.44371 0.58672 -0.02314
 H345 H 0.50308 0.60647 0.01540
 Cu346 Cu 0.44136 0.54715 0.01628
 Cu347 Cu 0.48815 0.56302 0.04634
 Cu348 Cu 0.45564 0.51613 0.06250
 N349 N 0.42361 0.52050 0.02527
 N350 N 0.42930 0.50844 0.04337
 C351 C 0.41432 0.49107 0.04574
 C352 C 0.39853 0.49242 0.02821
 C353 C 0.40479 0.51119 0.01549
 H354 H 0.41486 0.47843 0.05919
 H355 H 0.39626 0.51752 0.00033
 N356 N 0.48289 0.52659 0.07966
 N357 N 0.49531 0.54443 0.07349
 C358 C 0.51270 0.54718 0.08853
 C359 C 0.51101 0.53029 0.10478
 C360 C 0.49205 0.51752 0.09878
 H361 H 0.52565 0.56041 0.08776
 H362 H 0.48550 0.50273 0.10768
 H363 H 0.47434 0.53192 0.03684
 H364 H 0.45612 0.55058 0.05533
 N365 N 0.52078 -0.07491 0.01568
 N366 N 0.53956 -0.06920 0.00446
 C367 C 0.54283 -0.08408 -0.01288
 C368 C 0.52517 -0.09977 -0.01235
 C369 C 0.51148 -0.09359 0.00591
 H370 H 0.55703 -0.08370 -0.02486
 H371 H 0.49604 -0.10213 0.01173
 Cu372 Cu 0.55801 -0.04309 0.01383
 Cu373 Cu 0.50998 -0.05796 0.04231
 Cu374 Cu 0.54200 -0.01076 0.05880
 N375 N 0.57558 -0.01633 0.02302
 N376 N 0.56917 -0.00373 0.04059
 C377 C 0.58416 0.01360 0.04323
 C378 C 0.60074 0.01164 0.02646
 C379 C 0.59490 -0.00743 0.01390
 H380 H 0.58311 0.02662 0.05635
 H381 H 0.60406 -0.01423 -0.00074
 N382 N 0.51399 -0.02066 0.07504
 N383 N 0.50182 -0.03867 0.06877
 C384 C 0.48402 -0.04122 0.08336
 C385 C 0.48515 -0.02401 0.09941
 C386 C 0.50425 -0.01128 0.09379
 H387 H 0.47131 -0.05468 0.08257
 H388 H 0.51065 0.00353 0.10285
 H389 H 0.52435 -0.02710 0.03282
 H390 H 0.54173 -0.04531 0.05239
 N391 N 1.02040 0.42329 0.51516
 N392 N 1.03892 0.42947 0.50375
 C393 C 1.04229 0.41479 0.48625
 C394 C 1.02496 0.39874 0.48688
 C395 C 1.01136 0.40451 0.50534
 H396 H 1.05634 0.41554 0.47411
 H397 H 0.99618 0.39561 0.51128
 Cu398 Cu 1.05694 0.45582 0.51330
 Cu399 Cu 1.00956 0.43979 0.54208
 Cu400 Cu 1.04132 0.48704 0.55908
 N401 N 1.07452 0.48248 0.52277
 N402 N 1.06832 0.49458 0.54076
 C403 C 1.08336 0.51183 0.54373
 C404 C 1.09973 0.51036 0.52671
 C405 C 1.09375 0.49164 0.51368
 H406 H 1.08250 0.52443 0.55727
 H407 H 1.10277 0.48521 0.49880
 N408 N 1.01346 0.47666 0.57533
 N409 N 1.00136 0.45868 0.56885
 C410 C 0.98354 0.45593 0.58337
 C411 C 0.98457 0.47297 0.59960
 C412 C 1.00364 0.48582 0.59414
 H413 H 0.97080 0.44251 0.58234
 H414 H 1.00989 0.50064 0.60329
 H415 H 1.02337 0.47098 0.53307
 H416 H 1.04122 0.45256 0.55198
 C417 C 0.37273 0.00044 0.25016
 C418 C 0.12754 -0.00028 0.74915
 C419 C 0.62620 0.49841 0.25165
 C420 C 0.87319 0.49980 0.75064
 C421 C 0.25060 0.37743 -0.00064
 C422 C 0.75104 0.12408 -0.00015
 C423 C 0.24976 0.62341 0.50108
 C424 C 0.75004 0.87456 0.49902
 C425 C 0.00043 0.24882 0.37459
 C426 C 0.00205 0.75155 0.12441
 C427 C 0.50033 0.24854 0.62475
 C428 C 0.50060 0.75032 0.87536
 C429 C 0.05690 0.23895 0.33313
 C430 C 0.06165 0.21708 0.32408
 C431 C 0.08092 0.21389 0.30943
 C432 C 0.09530 0.23260 0.30389
 C433 C 0.09066 0.25443 0.31312
 C434 C 0.07139 0.25761 0.32778
 C435 C 0.06705 0.27960 0.33675
 C436 C 0.08138 0.29791 0.33145
 C437 C 0.10024 0.29479 0.31714
 C438 C 0.10490 0.27334 0.30802
 C439 C 0.08533 0.19187 0.30060
 C440 C 0.07110 0.17352 0.30608
 C441 C 0.05224 0.17666 0.32037
 C442 C 0.04747 0.19815 0.32932
 C443 C 0.11470 0.22945 0.28852
 C444 C 0.13073 0.22683 0.27567
 C445 C 0.03705 0.24230 0.34782
 C446 C 0.02053 0.24520 0.35995
 H447 H 0.05259 0.28288 0.34797
 H448 H 0.07782 0.31460 0.33848
 H449 H 0.11132 0.30906 0.31308
 H450 H 0.11978 0.27177 0.29699
 H451 H 0.09981 0.18857 0.28942
 H452 H 0.07474 0.15679 0.29919
 H453 H 0.04123 0.16236 0.32457
 H454 H 0.03260 0.19973 0.34037
 C455 C 0.55667 0.73939 0.83363
 C456 C 0.56950 0.75804 0.82504
 C457 C 0.58857 0.75414 0.81032
 C458 C 0.59471 0.73160 0.80426
 C459 C 0.58196 0.71294 0.81298
 C460 C 0.56288 0.71685 0.82771
 C461 C 0.55035 0.69794 0.83617
 C462 C 0.55651 0.67579 0.83027
 C463 C 0.57518 0.67197 0.81589
 C464 C 0.58782 0.69026 0.80729
 C465 C 0.60112 0.77307 0.80192
 C466 C 0.59498 0.79521 0.80790
 C467 C 0.57632 0.79902 0.82229
 C468 C 0.56366 0.78072 0.83081
 C469 C 0.61398 0.72769 0.78890
 C470 C 0.62993 0.72470 0.77603
 C471 C 0.53702 0.74339 0.84842
 C472 C 0.52062 0.74662 0.86063
 H473 H 0.53570 0.70004 0.84742
 H474 H 0.54675 0.66153 0.83691
 H475 H 0.57990 0.65473 0.81135
 H476 H 0.60221 0.68643 0.79618
 H477 H 0.61578 0.77098 0.79069
 H478 H 0.60477 0.80948 0.80132
 H479 H 0.57162 0.81625 0.82688
 H480 H 0.54928 0.78455 0.84195
 C481 C 0.44350 0.76024 0.83492
 C482 C 0.43245 0.74147 0.82429
 C483 C 0.41321 0.74509 0.80975
 C484 C 0.40512 0.76747 0.80597
 C485 C 0.41602 0.78622 0.81682
 C486 C 0.43526 0.78259 0.83136
 C487 C 0.44588 0.80158 0.84204
 C488 C 0.43775 0.82355 0.83843
 C489 C 0.41895 0.82711 0.82418
 C490 C 0.40814 0.80872 0.81346
 C491 C 0.40249 0.72605 0.79925
 C492 C 0.41053 0.70407 0.80305
 C493 C 0.42933 0.70054 0.81729
 C494 C 0.44024 0.71895 0.82784
 C495 C 0.38575 0.77120 0.79074
 C496 C 0.36977 0.77418 0.77795
 C497 C 0.46351 0.75661 0.84927
 C498 C 0.48022 0.75369 0.86109
 H499 H 0.46051 0.79967 0.85332
 H500 H 0.44606 0.83788 0.84675
 H501 H 0.41268 0.84421 0.82144
 H502 H 0.39356 0.81235 0.80256
 H503 H 0.38779 0.72793 0.78805
 H504 H 0.40211 0.68971 0.79490
 H505 H 0.43551 0.68343 0.82020
 H506 H 0.45477 0.71533 0.83881
 C507 C -0.05651 0.25922 0.33405
 C508 C -0.06934 0.24044 0.32568
 C509 C -0.08857 0.24412 0.31114
 C510 C -0.09484 0.26658 0.30505
 C511 C -0.08218 0.28538 0.31370
 C512 C -0.06296 0.28169 0.32826
 C513 C -0.05055 0.30073 0.33668
 C514 C -0.05695 0.32281 0.33089
 C515 C -0.07573 0.32642 0.31664
 C516 C -0.08826 0.30799 0.30808
 C517 C -0.10111 0.22506 0.30294
 C518 C -0.09484 0.20300 0.30897
 C519 C -0.07603 0.19941 0.32318
 C520 C -0.06334 0.21784 0.33147
 C521 C -0.11409 0.27031 0.28966
 C522 C -0.12997 0.27335 0.27675
 C523 C -0.03654 0.25544 0.34841
 C524 C -0.01986 0.25238 0.36026
 H525 H -0.03582 0.29879 0.34783
 H526 H -0.04728 0.33718 0.33751
 H527 H -0.08064 0.34360 0.31219
 H528 H -0.10274 0.31166 0.29707
 H529 H -0.11587 0.22699 0.29184
 H530 H -0.10464 0.18863 0.30257
 H531 H -0.07121 0.18225 0.32779
 H532 H -0.04883 0.21419 0.34244
 C533 C -0.05523 0.74131 0.16469
 C534 C -0.06217 0.71888 0.17028
 C535 C -0.08167 0.71529 0.18456
 C536 C -0.09412 0.73417 0.19311
 C537 C -0.08730 0.75660 0.18731
 C538 C -0.06779 0.76017 0.17307
 C539 C -0.06123 0.78274 0.16757
 C540 C -0.07364 0.80126 0.17587
 C541 C -0.09274 0.79776 0.18978
 C542 C -0.09957 0.77573 0.19550
 C543 C -0.08822 0.69271 0.18999
 C544 C -0.07589 0.67421 0.18154
 C545 C -0.05684 0.67772 0.16755
 C546 C -0.04998 0.69976 0.16193
 C547 C -0.11374 0.73053 0.20811
 C548 C -0.12991 0.72756 0.22071
 C549 C -0.03510 0.74497 0.15045
 C550 C -0.01833 0.74798 0.13868
 H551 H -0.04648 0.78632 0.15684
 H552 H -0.06838 0.81840 0.17151
 H553 H -0.10231 0.81220 0.19620
 H554 H -0.11454 0.77388 0.20638
 H555 H -0.10293 0.68912 0.20079
 H556 H -0.08115 0.65705 0.18586
 H557 H -0.04733 0.66329 0.16101
 H558 H -0.03506 0.70162 0.15099
 C559 C 0.44267 0.23957 0.66483
 C560 C 0.43202 0.25895 0.67459
 C561 C 0.41244 0.25627 0.68894
 C562 C 0.40359 0.23423 0.69341
 C563 C 0.41408 0.21488 0.68341
 C564 C 0.43368 0.21756 0.66908
 C565 C 0.44389 0.19798 0.65929
 C566 C 0.43498 0.17634 0.66354
 C567 C 0.41582 0.17371 0.67756
 C568 C 0.40542 0.19269 0.68744
 C569 C 0.40215 0.27590 0.69856
 C570 C 0.41093 0.29755 0.69408
 C571 C 0.43007 0.30016 0.68002
 C572 C 0.44057 0.28115 0.67035
 C573 C 0.38387 0.23142 0.70846
 C574 C 0.36760 0.22899 0.72107
 C575 C 0.46296 0.24233 0.65061
 C576 C 0.47985 0.24494 0.63889
 H577 H 0.45880 0.19918 0.64826
 H578 H 0.44297 0.16155 0.65590
 H579 H 0.40896 0.15686 0.68079
 H580 H 0.39054 0.18976 0.69820
 H581 H 0.38723 0.27474 0.70960
 H582 H 0.40284 0.31238 0.70156
 H583 H 0.43683 0.31701 0.67658
 H584 H 0.45540 0.28406 0.65951
 C585 C 0.55629 0.25935 0.66675
 C586 C 0.56932 0.24053 0.67433
 C587 C 0.58842 0.24403 0.68914
 C588 C 0.59439 0.26636 0.69627
 C589 C 0.58145 0.28520 0.68854
 C590 C 0.56233 0.28168 0.67374
 C591 C 0.54961 0.30076 0.66628
 C592 C 0.55562 0.32271 0.67322
 C593 C 0.57433 0.32616 0.68767
 C594 C 0.58715 0.30768 0.69531
 C595 C 0.60116 0.22493 0.69652
 C596 C 0.59521 0.20301 0.68946
 C597 C 0.57653 0.19958 0.67497
 C598 C 0.56367 0.21806 0.66744
 C599 C 0.61376 0.26990 0.71161
 C600 C 0.62982 0.27275 0.72439
 C601 C 0.53660 0.25571 0.65188
 C602 C 0.52022 0.25253 0.63959
 H603 H 0.53493 0.29894 0.65501
 H604 H 0.54571 0.33711 0.66734
 H605 H 0.57893 0.34324 0.69300
 H606 H 0.60155 0.31123 0.70653
 H607 H 0.61584 0.22673 0.70780
 H608 H 0.60515 0.18860 0.69526
 H609 H 0.57196 0.18252 0.66953
 H610 H 0.54929 0.21453 0.65618
 C611 C 0.05836 0.76118 0.16623
 C612 C 0.07021 0.74203 0.17487
 C613 C 0.08934 0.74517 0.18974
 C614 C 0.09649 0.76744 0.19588
 C615 C 0.08476 0.78659 0.18705
 C616 C 0.06563 0.78344 0.17220
 C617 C 0.05414 0.80283 0.16363
 C618 C 0.06137 0.82472 0.16955
 C619 C 0.08009 0.82780 0.18406
 C620 C 0.09171 0.80902 0.19277
 C621 C 0.10091 0.72577 0.19816
 C622 C 0.09379 0.70390 0.19207
 C623 C 0.07508 0.70083 0.17754
 C624 C 0.06335 0.71961 0.16899
 C625 C 0.11577 0.77065 0.21140
 C626 C 0.13171 0.77335 0.22435
 C627 C 0.03860 0.75794 0.15137
 C628 C 0.02212 0.75512 0.13913
 H629 H 0.03950 0.80130 0.15226
 H630 H 0.05240 0.83936 0.16282
 H631 H 0.08565 0.84483 0.18860
 H632 H 0.10619 0.81229 0.20398
 H633 H 0.11557 0.72729 0.20950
 H634 H 0.10285 0.68925 0.19866
 H635 H 0.06962 0.68380 0.17286
 H636 H 0.04891 0.71635 0.15773
 C637 C 0.33140 0.05594 0.23863
 C638 C 0.30781 0.05485 0.24448
 C639 C 0.29341 0.07389 0.24038
 C640 C 0.30271 0.09391 0.23048
 C641 C 0.32627 0.09488 0.22441
 C642 C 0.34066 0.07583 0.22848
 C643 C 0.36414 0.07715 0.22220
 C644 C 0.37315 0.09675 0.21216
 C645 C 0.35909 0.11540 0.20821
 C646 C 0.33591 0.11458 0.21425
 C647 C 0.26986 0.07238 0.24634
 C648 C 0.26078 0.05260 0.25597
 C649 C 0.27487 0.03398 0.25995
 C650 C 0.29813 0.03502 0.25436
 C651 C 0.28805 0.11348 0.22660
 C652 C 0.27581 0.12969 0.22351
 C653 C 0.34610 0.03654 0.24290
 C654 C 0.35821 0.02031 0.24632
 H655 H 0.37575 0.06309 0.22495
 H656 H 0.39113 0.09745 0.20742
 H657 H 0.36617 0.13059 0.20041
 H658 H 0.32567 0.12951 0.21081
 H659 H 0.25821 0.08642 0.24357
 H660 H 0.24272 0.05172 0.26036
 H661 H 0.26775 0.01864 0.26743
 H662 H 0.30841 0.02013 0.25785
 C663 C 0.83385 0.55697 0.74061
 C664 C 0.83143 0.56590 0.71821
 C665 C 0.81721 0.58515 0.71447
 C666 C 0.80557 0.59537 0.73318
 C667 C 0.80838 0.58669 0.75565
 C668 C 0.82259 0.56744 0.75938
 C669 C 0.82519 0.55908 0.78199
 C670 C 0.81405 0.56945 0.80041
 C671 C 0.80011 0.58825 0.79677
 C672 C 0.79723 0.59684 0.77469
 C673 C 0.81499 0.59372 0.69191
 C674 C 0.82655 0.58362 0.67358
 C675 C 0.84051 0.56484 0.67726
 C676 C 0.84295 0.55598 0.69928
 C677 C 0.79057 0.61467 0.72930
 C678 C 0.77798 0.63060 0.72615
 C679 C 0.84772 0.53687 0.74429
 C680 C 0.85920 0.52011 0.74723
 H681 H 0.83590 0.54453 0.78569
 H682 H 0.81626 0.56286 0.81760
 H683 H 0.79149 0.59623 0.81113
 H684 H 0.78625 0.61152 0.77273
 H685 H 0.80436 0.60833 0.68819
 H686 H 0.82468 0.59041 0.65644
 H687 H 0.84950 0.55708 0.66299
 H688 H 0.85400 0.54135 0.70128
 C689 C 0.83135 0.44401 0.76061
 C690 C 0.83990 0.42195 0.75600
 C691 C 0.82554 0.40261 0.75935
 C692 C 0.80271 0.40546 0.76727
 C693 C 0.79417 0.42755 0.77188
 C694 C 0.80854 0.44689 0.76853
 C695 C 0.79965 0.46880 0.77324
 C696 C 0.77718 0.47154 0.78104
 C697 C 0.76313 0.45263 0.78433
 C698 C 0.77143 0.43086 0.77982
 C699 C 0.83448 0.38072 0.75465
 C700 C 0.85696 0.37802 0.74684
 C701 C 0.87099 0.39694 0.74355
 C702 C 0.86266 0.41869 0.74806
 C703 C 0.78800 0.38572 0.77069
 C704 C 0.77572 0.36939 0.77355
 C705 C 0.84600 0.46373 0.75717
 C706 C 0.85824 0.48007 0.75425
 H707 H 0.80993 0.48403 0.77096
 H708 H 0.77066 0.48842 0.78456
 H709 H 0.74569 0.45485 0.79040
 H710 H 0.75984 0.41669 0.78263
 H711 H 0.82422 0.36549 0.75695
 H712 H 0.86351 0.36115 0.74334
 H713 H 0.88843 0.39476 0.73748
 H714 H 0.87424 0.43287 0.74527
 C715 C 0.33131 -0.05529 0.26201
 C716 C 0.34047 -0.07493 0.27256
 C717 C 0.32606 -0.09406 0.27678
 C718 C 0.30258 -0.09343 0.27040
 C719 C 0.29337 -0.07367 0.26008
 C720 C 0.30779 -0.05454 0.25587
 C721 C 0.29821 -0.03496 0.24557
 C722 C 0.27501 -0.03425 0.23969
 C723 C 0.26091 -0.05296 0.24380
 C724 C 0.26990 -0.07250 0.25383
 C725 C 0.33560 -0.11350 0.28738
 C726 C 0.35870 -0.11398 0.29370
 C727 C 0.37278 -0.09526 0.28958
 C728 C 0.36387 -0.07593 0.27911
 C729 C 0.28794 -0.11313 0.27429
 C730 C 0.27570 -0.12945 0.27734
 C731 C 0.34602 -0.03579 0.25765
 C732 C 0.35816 -0.01950 0.25414
 H733 H 0.30851 -0.02002 0.24195
 H734 H 0.26796 -0.01910 0.23190
 H735 H 0.24290 -0.05234 0.23918
 H736 H 0.25824 -0.08661 0.25668
 H737 H 0.32532 -0.12847 0.29095
 H738 H 0.36569 -0.12896 0.30185
 H739 H 0.39071 -0.09571 0.29451
 H740 H 0.37551 -0.06181 0.27622
 C741 C 0.16897 -0.05600 0.73846
 C742 C 0.19074 -0.05303 0.72800
 C743 C 0.20544 -0.07204 0.72485
 C744 C 0.19821 -0.09394 0.73202
 C745 C 0.17639 -0.09692 0.74240
 C746 C 0.16173 -0.07789 0.74565
 C747 C 0.14002 -0.08126 0.75610
 C748 C 0.13297 -0.10284 0.76313
 C749 C 0.14730 -0.12145 0.75996
 C750 C 0.16877 -0.11863 0.74972
 C751 C 0.22721 -0.06861 0.71453
 C752 C 0.23421 -0.04702 0.70745
 C753 C 0.21977 -0.02847 0.71040
 C754 C 0.19826 -0.03134 0.72055
 C755 C 0.21316 -0.11340 0.72866
 C756 C 0.22556 -0.12955 0.72584
 C757 C 0.15417 -0.03651 0.74210
 C758 C 0.14203 -0.02021 0.74522
 H759 H 0.12827 -0.06731 0.75891
 H760 H 0.11630 -0.10513 0.77105
 H761 H 0.14175 -0.13818 0.76547
 H762 H 0.17931 -0.13363 0.74764
 H763 H 0.23904 -0.08253 0.71184
 H764 H 0.25092 -0.04470 0.69960
 H765 H 0.22523 -0.01175 0.70478
 H766 H 0.18761 -0.01641 0.72240
 C767 C 0.66809 0.44309 0.24086
 C768 C 0.65927 0.42230 0.23219
 C769 C 0.67426 0.40359 0.22855
 C770 C 0.69798 0.40580 0.23361
 C771 C 0.70677 0.42660 0.24237
 C772 C 0.69178 0.44530 0.24600
 C773 C 0.70095 0.46592 0.25477
 C774 C 0.72427 0.46800 0.25985
 C775 C 0.73893 0.44970 0.25632
 C776 C 0.73038 0.42920 0.24768
 C777 C 0.66503 0.38295 0.21988
 C778 C 0.64167 0.38087 0.21497
 C779 C 0.62702 0.39917 0.21853
 C780 C 0.63562 0.41969 0.22705
 C781 C 0.71330 0.38671 0.22979
 C782 C 0.72596 0.37083 0.22660
 C783 C 0.65287 0.46226 0.24450
 C784 C 0.64057 0.47843 0.24764
 H785 H 0.69024 0.48063 0.25781
 H786 H 0.73098 0.48389 0.26657
 H787 H 0.75703 0.45139 0.26031
 H788 H 0.74246 0.41545 0.24524
 H789 H 0.67573 0.36823 0.21684
 H790 H 0.63490 0.36496 0.20838
 H791 H 0.60889 0.39746 0.21470
 H792 H 0.62355 0.43344 0.22956
 C793 C 0.66866 0.55400 0.26037
 C794 C 0.66344 0.57478 0.24935
 C795 C 0.67834 0.59384 0.25201
 C796 C 0.69831 0.59203 0.26577
 C797 C 0.70369 0.57112 0.27653
 C798 C 0.68882 0.55205 0.27380
 C799 C 0.69457 0.53131 0.28464
 C800 C 0.71450 0.52943 0.29773
 C801 C 0.72903 0.54808 0.30043
 C802 C 0.72376 0.56874 0.29002
 C803 C 0.67284 0.61439 0.24068
 C804 C 0.65320 0.61603 0.22708
 C805 C 0.63860 0.59740 0.22455
 C806 C 0.64355 0.57699 0.23558
 C807 C 0.71318 0.61169 0.26903
 C808 C 0.72546 0.62805 0.27185
 C809 C 0.65349 0.53454 0.25762
 C810 C 0.64103 0.51829 0.25512
 H811 H 0.68376 0.51634 0.28311
 H812 H 0.71866 0.51341 0.30584
 H813 H 0.74449 0.54654 0.31064
 H814 H 0.73561 0.58276 0.29259
 H815 H 0.68367 0.62934 0.24212
 H816 H 0.64929 0.63185 0.21848
 H817 H 0.62336 0.59876 0.21401
 H818 H 0.63162 0.56301 0.23318
 C819 C 0.16897 0.05563 0.76053
 C820 C 0.19290 0.05405 0.75647
 C821 C 0.20726 0.07339 0.75998
 C822 C 0.19760 0.09415 0.76763
 C823 C 0.17370 0.09562 0.77201
 C824 C 0.15934 0.07628 0.76847
 C825 C 0.13552 0.07812 0.77302
 C826 C 0.12612 0.09849 0.78084
 C827 C 0.14014 0.11742 0.78426
 C828 C 0.16366 0.11610 0.77992
 C829 C 0.23113 0.07141 0.75571
 C830 C 0.24055 0.05090 0.74828
 C831 C 0.22651 0.03197 0.74494
 C832 C 0.20296 0.03344 0.74895
 C833 C 0.21222 0.11399 0.77093
 C834 C 0.22439 0.13045 0.77359
 C835 C 0.15427 0.03603 0.75645
 C836 C 0.14213 0.01968 0.75307
 H837 H 0.12392 0.06385 0.77065
 H838 H 0.10787 0.09958 0.78426
 H839 H 0.13276 0.13321 0.79033
 H840 H 0.17387 0.13127 0.78288
 H841 H 0.24275 0.08564 0.75812
 H842 H 0.25884 0.04967 0.74515
 H843 H 0.23392 0.01606 0.73926
 H844 H 0.19275 0.01825 0.74619
 C845 C 0.23992 0.33526 0.05474
 C846 C 0.24989 0.34017 0.07637
 C847 C 0.24645 0.32501 0.09504
 C848 C 0.23311 0.30501 0.09197
 C849 C 0.22313 0.30012 0.07033
 C850 C 0.22649 0.31532 0.05168
 C851 C 0.21625 0.31014 0.03025
 C852 C 0.20318 0.29043 0.02727
 C853 C 0.19997 0.27551 0.04548
 C854 C 0.20977 0.28023 0.06680
 C855 C 0.25659 0.33028 0.11650
 C856 C 0.26973 0.34996 0.11943
 C857 C 0.27310 0.36477 0.10116
 C858 C 0.26334 0.36001 0.07983
 C859 C 0.22959 0.28952 0.11105
 C860 C 0.22662 0.27668 0.12690
 C861 C 0.24372 0.35050 0.03554
 C862 C 0.24685 0.36286 0.01935
 H863 H 0.21817 0.32126 0.01560
 H864 H 0.19548 0.28673 0.01076
 H865 H 0.18979 0.26022 0.04309
 H866 H 0.20676 0.26812 0.08044
 H867 H 0.25448 0.31927 0.13122
 H868 H 0.27734 0.35373 0.13597
 H869 H 0.28332 0.38004 0.10352
 H870 H 0.26643 0.37206 0.06614
 C871 C 0.73889 0.83282 0.55465
 C872 C 0.72653 0.81225 0.55140
 C873 C 0.72316 0.79718 0.57015
 C874 C 0.73202 0.80285 0.59208
 C875 C 0.74428 0.82349 0.59534
 C876 C 0.74774 0.83851 0.57656
 C877 C 0.76010 0.85901 0.58021
 C878 C 0.76879 0.86452 0.60182
 C879 C 0.76542 0.84983 0.62019
 C880 C 0.75332 0.82953 0.61709
 C881 C 0.71093 0.77662 0.56643
 C882 C 0.70223 0.77114 0.54482
 C883 C 0.70541 0.78594 0.52651
 C884 C 0.71738 0.80630 0.52968
 C885 C 0.72850 0.78749 0.61127
 C886 C 0.72559 0.77476 0.62721
 C887 C 0.74280 0.84790 0.53534
 C888 C 0.74608 0.86013 0.51908
 H889 H 0.76316 0.87098 0.56645
 H890 H 0.77820 0.88027 0.60432
 H891 H 0.77221 0.85418 0.63694
 H892 H 0.75116 0.81865 0.63189
 H893 H 0.70798 0.76457 0.58014
 H894 H 0.69293 0.75533 0.54227
 H895 H 0.69857 0.78164 0.50977
 H896 H 0.71931 0.81730 0.51495
 C897 C 0.76075 0.83260 0.44330
 C898 C 0.75606 0.80905 0.44559
 C899 C 0.75944 0.79417 0.42661
 C900 C 0.76758 0.80293 0.40548
 C901 C 0.77234 0.82648 0.40323
 C902 C 0.76890 0.84136 0.42220
 C903 C 0.77378 0.86483 0.41954
 C904 C 0.78183 0.87336 0.39874
 C905 C 0.78523 0.85882 0.38019
 C906 C 0.78055 0.83564 0.38231
 C907 C 0.75458 0.77070 0.42931
 C908 C 0.74665 0.76217 0.45017
 C909 C 0.74338 0.77671 0.46874
 C910 C 0.74802 0.79988 0.46658
 C911 C 0.77107 0.78773 0.38609
 C912 C 0.77399 0.77513 0.36999
 C913 C 0.75713 0.84775 0.46267
 C914 C 0.75400 0.86006 0.47896
 H915 H 0.77145 0.87680 0.43350
 H916 H 0.78548 0.89136 0.39700
 H917 H 0.79154 0.86552 0.36408
 H918 H 0.78347 0.82501 0.36740
 H919 H 0.75687 0.75872 0.41537
 H920 H 0.74306 0.74417 0.45195
 H921 H 0.73726 0.77000 0.48492
 H922 H 0.74532 0.81049 0.48153
 C923 C 0.26100 0.33579 -0.05666
 C924 C 0.27091 0.34427 -0.07714
 C925 C 0.27424 0.32948 -0.09620
 C926 C 0.26760 0.30631 -0.09467
 C927 C 0.25775 0.29783 -0.07415
 C928 C 0.25447 0.31261 -0.05509
 C929 C 0.24465 0.30373 -0.03473
 C930 C 0.23822 0.28091 -0.03326
 C931 C 0.24140 0.26646 -0.05192
 C932 C 0.25104 0.27473 -0.07217
 C933 C 0.28420 0.33834 -0.11648
 C934 C 0.29070 0.36115 -0.11789
 C935 C 0.28744 0.37561 -0.09925
 C936 C 0.27767 0.36736 -0.07906
 C937 C 0.27088 0.29122 -0.11419
 C938 C 0.27357 0.27868 -0.13037
 C939 C 0.25749 0.35086 -0.03721
 C940 C 0.25445 0.36307 -0.02083
 H941 H 0.24188 0.31429 -0.01976
 H942 H 0.23076 0.27441 -0.01756
 H943 H 0.23638 0.24875 -0.05070
 H944 H 0.25319 0.26282 -0.08620
 H945 H 0.28710 0.32775 -0.13142
 H946 H 0.29830 0.36764 -0.13353
 H947 H 0.29251 0.39331 -0.10043
 H948 H 0.27549 0.37925 -0.06502
 C949 C 0.73995 0.16544 -0.05599
 C950 C 0.74953 0.16025 -0.07771
 C951 C 0.74587 0.17512 -0.09655
 C952 C 0.73269 0.19512 -0.09354
 C953 C 0.72308 0.20029 -0.07181
 C954 C 0.72666 0.18536 -0.05301
 C955 C 0.71677 0.19080 -0.03148
 C956 C 0.70385 0.21050 -0.02856
 C957 C 0.70045 0.22517 -0.04691
 C958 C 0.70988 0.22019 -0.06833
 C959 C 0.75562 0.16955 -0.11810
 C960 C 0.76863 0.14987 -0.12094
 C961 C 0.77220 0.13535 -0.10251
 C962 C 0.76281 0.14039 -0.08110
 C963 C 0.72902 0.21037 -0.11277
 C964 C 0.72599 0.22303 -0.12873
 C965 C 0.74397 0.15050 -0.03663
 C966 C 0.74723 0.13838 -0.02030
 H967 H 0.71885 0.17988 -0.01672
 H968 H 0.69640 0.21437 -0.01198
 H969 H 0.69041 0.24046 -0.04456
 H970 H 0.70670 0.23209 -0.08210
 H971 H 0.75331 0.18031 -0.13296
 H972 H 0.77596 0.14587 -0.13754
 H973 H 0.78227 0.12006 -0.10481
 H974 H 0.76606 0.12857 -0.06728
 C975 C 0.23959 0.66539 0.44553
 C976 C 0.22855 0.68654 0.44906
 C977 C 0.22551 0.70172 0.43036
 C978 C 0.23333 0.69555 0.40818
 C979 C 0.24428 0.67434 0.40463
 C980 C 0.24744 0.65923 0.42338
 C981 C 0.25849 0.63816 0.41944
 C982 C 0.26618 0.63216 0.39760
 C983 C 0.26307 0.64692 0.37927
 C984 C 0.25226 0.66778 0.38264
 C985 C 0.21463 0.72286 0.43437
 C986 C 0.20694 0.72882 0.45623
 C987 C 0.20979 0.71393 0.47448
 C988 C 0.22041 0.69299 0.47103
 C989 C 0.23003 0.71096 0.38902
 C990 C 0.22722 0.72374 0.37311
 C991 C 0.24316 0.65019 0.46477
 C992 C 0.24615 0.63787 0.48100
 H993 H 0.26128 0.62611 0.43316
 H994 H 0.27459 0.61598 0.39490
 H995 H 0.26907 0.64218 0.36233
 H996 H 0.25025 0.67869 0.36785
 H997 H 0.21198 0.73500 0.42071
 H998 H 0.19868 0.74507 0.45900
 H999 H 0.20373 0.71860 0.49142
 H1000 H 0.22210 0.68192 0.48572
 C1001 C 0.26014 0.66552 0.55680
 C1002 C 0.26557 0.65663 0.57868
 C1003 C 0.26893 0.67163 0.59759
 C1004 C 0.26675 0.69543 0.59451
 C1005 C 0.26131 0.70431 0.57261
 C1006 C 0.25805 0.68932 0.55370
 C1007 C 0.25273 0.69859 0.53195
 C1008 C 0.25058 0.72200 0.52898
 C1009 C 0.25369 0.73667 0.54749
 C1010 C 0.25902 0.72803 0.56909
 C1011 C 0.27441 0.66233 0.61928
 C1012 C 0.27648 0.63889 0.62221
 C1013 C 0.27316 0.62424 0.60372
 C1014 C 0.26776 0.63291 0.58216
 C1015 C 0.27016 0.71076 0.61383
 C1016 C 0.27306 0.72350 0.62984
 C1017 C 0.25660 0.65027 0.53748
 C1018 C 0.25357 0.63792 0.52119
 H1019 H 0.25024 0.68788 0.51702
 H1020 H 0.24650 0.72879 0.51222
 H1021 H 0.25200 0.75485 0.54510
 H1022 H 0.26132 0.74012 0.58295
 H1023 H 0.27715 0.67304 0.63418
 H1024 H 0.28069 0.63207 0.63892
 H1025 H 0.27478 0.60605 0.60609
 H1026 H 0.26532 0.62083 0.56830
 C1027 C 0.76173 0.16645 0.05534
 C1028 C 0.77159 0.15823 0.07589
 C1029 C 0.77511 0.17326 0.09475
 C1030 C 0.76871 0.19642 0.09294
 C1031 C 0.75886 0.20464 0.07236
 C1032 C 0.75538 0.18962 0.05350
 C1033 C 0.74557 0.19824 0.03308
 C1034 C 0.73932 0.22103 0.03135
 C1035 C 0.74269 0.23572 0.04981
 C1036 C 0.75234 0.22771 0.07011
 C1037 C 0.78504 0.16466 0.11511
 C1038 C 0.79130 0.14186 0.11680
 C1039 C 0.78783 0.12716 0.09838
 C1040 C 0.77811 0.13516 0.07811
 C1041 C 0.77227 0.21176 0.11222
 C1042 C 0.77525 0.22447 0.12824
 C1043 C 0.75809 0.15115 0.03607
 C1044 C 0.75496 0.13872 0.01985
 H1045 H 0.74267 0.18749 0.01825
 H1046 H 0.73186 0.22734 0.01560
 H1047 H 0.73784 0.25342 0.04838
 H1048 H 0.75464 0.23979 0.08399
 H1049 H 0.78809 0.17543 0.12991
 H1050 H 0.79890 0.13557 0.13250
 H1051 H 0.79271 0.10946 0.09978
 H1052 H 0.77578 0.12308 0.06423
 C1053 C 0.48978 0.30423 0.58337
 C1054 C 0.49611 0.30342 0.55992
 C1055 C 0.49231 0.32261 0.54565
 C1056 C 0.48212 0.34248 0.55491
 C1057 C 0.47573 0.34325 0.57836
 C1058 C 0.47957 0.32406 0.59263
 C1059 C 0.47301 0.32520 0.61601
 C1060 C 0.46292 0.34474 0.62503
 C1061 C 0.45918 0.36352 0.61108
 C1062 C 0.46548 0.36288 0.58800
 C1063 C 0.49884 0.32140 0.52227
 C1064 C 0.50877 0.30177 0.51324
 C1065 C 0.51241 0.28298 0.52719
 C1066 C 0.50621 0.28371 0.55028
 C1067 C 0.47826 0.36206 0.54028
 C1068 C 0.47523 0.37817 0.52789
 C1069 C 0.49366 0.28464 0.59793
 C1070 C 0.49677 0.26835 0.61004
 H1071 H 0.47560 0.31104 0.62755
 H1072 H 0.45799 0.34530 0.64294
 H1073 H 0.45135 0.37867 0.61818
 H1074 H 0.46221 0.37791 0.57783
 H1075 H 0.49634 0.33557 0.51072
 H1076 H 0.51364 0.30114 0.49531
 H1077 H 0.52007 0.26776 0.52008
 H1078 H 0.50938 0.26868 0.56044
 C1079 C -0.00791 0.80718 0.08282
 C1080 C 0.00483 0.80925 0.06221
 C1081 C 0.00107 0.82811 0.04748
 C1082 C -0.01537 0.84481 0.05348
 C1083 C -0.02805 0.84277 0.07413
 C1084 C -0.02432 0.82388 0.08883
 C1085 C -0.03726 0.82215 0.10934
 C1086 C -0.05341 0.83862 0.11518
 C1087 C -0.05704 0.85711 0.10082
 C1088 C -0.04455 0.85926 0.08052
 C1089 C 0.01397 0.82976 0.02694
 C1090 C 0.03011 0.81325 0.02113
 C1091 C 0.03381 0.79483 0.03555
 C1092 C 0.02137 0.79277 0.05589
 C1093 C -0.01927 0.86403 0.03839
 C1094 C -0.02242 0.87994 0.02578
 C1095 C -0.00429 0.78776 0.09767
 C1096 C -0.00137 0.77149 0.10985
 H1097 H -0.03503 0.80808 0.12105
 H1098 H -0.06316 0.83703 0.13093
 H1099 H -0.06961 0.86987 0.10543
 H1100 H -0.04798 0.87394 0.06991
 H1101 H 0.01174 0.84379 0.01518
 H1102 H 0.03982 0.81478 0.00534
 H1103 H 0.04640 0.78208 0.03100
 H1104 H 0.02489 0.77817 0.06658
 C1105 C 0.01189 0.69535 0.08322
 C1106 C 0.00802 0.67324 0.09202
 C1107 C 0.01115 0.65392 0.07763
 C1108 C 0.01815 0.65684 0.05454
 C1109 C 0.02197 0.67898 0.04574
 C1110 C 0.01883 0.69830 0.06012
 C1111 C 0.02270 0.72027 0.05094
 C1112 C 0.02947 0.72308 0.02817
 C1113 C 0.03256 0.70419 0.01410
 C1114 C 0.02888 0.68236 0.02269
 C1115 C 0.00711 0.63198 0.08680
 C1116 C 0.00016 0.62921 0.10952
 C1117 C -0.00287 0.64811 0.12360
 C1118 C 0.00101 0.66991 0.11505
 C1119 C 0.02131 0.63712 0.03979
 C1120 C 0.02391 0.62086 0.02742
 C1121 C 0.00855 0.71508 0.09785
 C1122 C 0.00568 0.73153 0.10991
 H1123 H 0.02052 0.73547 0.06121
 H1124 H 0.03232 0.74000 0.02142
 H1125 H 0.03782 0.70646 -0.00357
 H1126 H 0.03150 0.66821 0.01107
 H1127 H 0.00924 0.61676 0.07652
 H1128 H -0.00286 0.61231 0.11625
 H1129 H -0.00826 0.64587 0.14124
 H1130 H -0.00154 0.68408 0.12666
 C1131 C 0.51201 0.19234 0.58402
 C1132 C 0.50435 0.17054 0.59102
 C1133 C 0.50786 0.15138 0.57651
 C1134 C 0.51905 0.15413 0.55510
 C1135 C 0.52699 0.17590 0.54824
 C1136 C 0.52350 0.19505 0.56277
 C1137 C 0.53169 0.21661 0.55561
 C1138 C 0.54295 0.21920 0.53466
 C1139 C 0.54627 0.20050 0.52040
 C1140 C 0.53842 0.17905 0.52702
 C1141 C 0.49999 0.12977 0.58385
 C1142 C 0.48904 0.12715 0.60497
 C1143 C 0.48568 0.14588 0.61919
 C1144 C 0.49318 0.16737 0.61237
 C1145 C 0.52227 0.13465 0.54006
 C1146 C 0.52487 0.11858 0.52744
 C1147 C 0.50788 0.21201 0.59853
 C1148 C 0.50443 0.22845 0.61045
 H1149 H 0.52959 0.23165 0.56614
 H1150 H 0.54918 0.23580 0.52949
 H1151 H 0.55502 0.20259 0.50414
 H1152 H 0.54146 0.16502 0.51536
 H1153 H 0.50224 0.11468 0.57341
 H1154 H 0.48317 0.11049 0.61035
 H1155 H 0.47726 0.14374 0.63561
 H1156 H 0.49022 0.18142 0.62403
 C1157 C -0.00964 0.19324 0.41634
 C1158 C 0.00331 0.19127 0.43680
 C1159 C -0.00033 0.17240 0.45158
 C1160 C -0.01689 0.15559 0.44580
 C1161 C -0.02978 0.15753 0.42529
 C1162 C -0.02615 0.17642 0.41052
 C1163 C -0.03928 0.17805 0.39015
 C1164 C -0.05553 0.16147 0.38451
 C1165 C -0.05906 0.14297 0.39892
 C1166 C -0.04638 0.14093 0.41910
 C1167 C 0.01279 0.17083 0.47197
 C1168 C 0.02903 0.18744 0.47759
 C1169 C 0.03260 0.20588 0.46311
 C1170 C 0.01996 0.20785 0.44292
 C1171 C -0.02071 0.13641 0.46101
 C1172 C -0.02380 0.12058 0.47377
 C1173 C -0.00612 0.21266 0.40143
 C1174 C -0.00317 0.22892 0.38920
 H1175 H -0.03713 0.19212 0.37839
 H1176 H -0.06543 0.16299 0.36886
 H1177 H -0.07170 0.13013 0.39446
 H1178 H -0.04974 0.12624 0.42976
 H1179 H 0.01065 0.15679 0.48377
 H1180 H 0.03891 0.18598 0.49325
 H1181 H 0.04526 0.21873 0.46752
 H1182 H 0.02341 0.22246 0.43218
 C1183 C 0.49134 0.69500 0.91758
 C1184 C 0.48843 0.69860 0.94144
 C1185 C 0.48533 0.67971 0.95631
 C1186 C 0.48501 0.65733 0.94719
 C1187 C 0.48803 0.65374 0.92333
 C1188 C 0.49125 0.67264 0.90848
 C1189 C 0.49434 0.66866 0.88471
 C1190 C 0.49424 0.64662 0.87584
 C1191 C 0.49103 0.62812 0.89034
 C1192 C 0.48794 0.63154 0.91382
 C1193 C 0.48259 0.68374 0.98012
 C1194 C 0.48294 0.70580 0.98898
 C1195 C 0.48592 0.72428 0.97442
 C1196 C 0.48858 0.72083 0.95091
 C1197 C 0.48152 0.63806 0.96236
 C1198 C 0.47855 0.62216 0.97506
 C1199 C 0.49450 0.71431 0.90246
 C1200 C 0.49719 0.73050 0.89009
 H1201 H 0.49688 0.68250 0.87274
 H1202 H 0.49665 0.64388 0.85761
 H1203 H 0.49095 0.61103 0.88336
 H1204 H 0.48552 0.61662 0.92441
 H1205 H 0.48019 0.66992 0.99214
 H1206 H 0.48087 0.70857 1.00724
 H1207 H 0.48614 0.74140 0.98137
 H1208 H 0.49073 0.73574 0.94027
 C1209 C 0.51024 0.80662 0.91655
 C1210 C 0.51756 0.80371 0.93952
 C1211 C 0.52050 0.82299 0.95402
 C1212 C 0.51619 0.84509 0.94543
 C1213 C 0.50873 0.84799 0.92248
 C1214 C 0.50573 0.82868 0.90801
 C1215 C 0.49820 0.83196 0.88516
 C1216 C 0.49369 0.85370 0.87686
 C1217 C 0.49661 0.87258 0.89100
 C1218 C 0.50407 0.86986 0.91356
 C1219 C 0.52770 0.81963 0.97696
 C1220 C 0.53183 0.79783 0.98535
 C1221 C 0.52900 0.77898 0.97115
 C1222 C 0.52201 0.78179 0.94847
 C1223 C 0.51936 0.86479 0.96023
 C1224 C 0.52201 0.88102 0.97267
 C1225 C 0.50708 0.78691 0.90183
 C1226 C 0.50428 0.77045 0.88974
 H1227 H 0.49572 0.81780 0.87350
 H1228 H 0.48792 0.85589 0.85934
 H1229 H 0.49311 0.88944 0.88446
 H1230 H 0.50610 0.88507 0.92390
 H1231 H 0.53018 0.83376 0.98867
 H1232 H 0.53730 0.79557 1.00295
 H1233 H 0.53227 0.76208 0.97771
 H1234 H 0.52018 0.76662 0.93805
 C1235 C 0.01038 0.30508 0.41577
 C1236 C 0.01664 0.30211 0.43904
 C1237 C 0.01967 0.32141 0.45350
 C1238 C 0.01643 0.34357 0.44460
 C1239 C 0.01010 0.34653 0.42132
 C1240 C 0.00709 0.32722 0.40686
 C1241 C 0.00074 0.33057 0.38366
 C1242 C -0.00259 0.35238 0.37501
 C1243 C 0.00033 0.37127 0.38915
 C1244 C 0.00662 0.36848 0.41205
 C1245 C 0.02585 0.31799 0.47673
 C1246 C 0.02894 0.29613 0.48541
 C1247 C 0.02599 0.27727 0.47126
 C1248 C 0.01991 0.28012 0.44832
 C1249 C 0.01949 0.36328 0.45941
 C1250 C 0.02201 0.37953 0.47186
 C1251 C 0.00706 0.28536 0.40110
 C1252 C 0.00416 0.26889 0.38905
 H1253 H -0.00170 0.31640 0.37199
 H1254 H -0.00747 0.35463 0.35723
 H1255 H -0.00229 0.38818 0.38234
 H1256 H 0.00869 0.38369 0.42237
 H1257 H 0.02834 0.33213 0.48843
 H1258 H 0.03364 0.29383 0.50323
 H1259 H 0.02839 0.26033 0.47808
 H1260 H 0.01780 0.26493 0.43799
 C1261 C 0.30528 0.58126 0.49094
 C1262 C 0.30146 0.55747 0.48980
 C1263 C 0.32031 0.54247 0.48664
 C1264 C 0.34286 0.55137 0.48446
 C1265 C 0.34668 0.57517 0.48556
 C1266 C 0.32783 0.59016 0.48886
 C1267 C 0.33208 0.61388 0.49002
 C1268 C 0.35431 0.62255 0.48791
 C1269 C 0.37273 0.60791 0.48460
 C1270 C 0.36906 0.58448 0.48342
 C1271 C 0.31606 0.51874 0.48572
 C1272 C 0.29382 0.51008 0.48784
 C1273 C 0.27538 0.52475 0.49082
 C1274 C 0.27905 0.54818 0.49175
 C1275 C 0.36210 0.53606 0.48097
 C1276 C 0.37807 0.52339 0.47795
 C1277 C 0.28602 0.59650 0.49441
 C1278 C 0.26979 0.60886 0.49737
 H1279 H 0.31830 0.62594 0.49256
 H1280 H 0.35725 0.64073 0.48885
 H1281 H 0.38996 0.61473 0.48294
 H1282 H 0.38393 0.57378 0.48084
 H1283 H 0.32985 0.50665 0.48338
 H1284 H 0.29090 0.49189 0.48712
 H1285 H 0.25813 0.51795 0.49240
 H1286 H 0.26415 0.55891 0.49394
 C1287 C 0.80673 0.08219 -0.01045
 C1288 C 0.82942 0.09097 -0.00988
 C1289 C 0.84838 0.07615 -0.01329
 C1290 C 0.84453 0.05262 -0.01710
 C1291 C 0.82183 0.04383 -0.01757
 C1292 C 0.80287 0.05868 -0.01434
 C1293 C 0.78033 0.04954 -0.01508
 C1294 C 0.77662 0.02636 -0.01867
 C1295 C 0.79516 0.01182 -0.02174
 C1296 C 0.81754 0.02037 -0.02127
 C1297 C 0.87090 0.08535 -0.01279
 C1298 C 0.87459 0.10850 -0.00893
 C1299 C 0.85605 0.12296 -0.00550
 C1300 C 0.83368 0.11440 -0.00597
 C1301 C 0.86389 0.03749 -0.02064
 C1302 C 0.87997 0.02496 -0.02367
 C1303 C 0.78734 0.09726 -0.00691
 C1304 C 0.77107 0.10955 -0.00390
 H1305 H 0.76537 0.06019 -0.01298
 H1306 H 0.75926 0.01966 -0.01911
 H1307 H 0.79220 -0.00617 -0.02456
 H1308 H 0.83140 0.00841 -0.02382
 H1309 H 0.88587 0.07479 -0.01539
 H1310 H 0.89193 0.11524 -0.00859
 H1311 H 0.85901 0.14092 -0.00247
 H1312 H 0.81981 0.12632 -0.00327
 C1313 C 0.69463 0.08279 0.01050
 C1314 C 0.67210 0.09149 0.00831
 C1315 C 0.65283 0.07687 0.01145
 C1316 C 0.65622 0.05360 0.01671
 C1317 C 0.67878 0.04489 0.01885
 C1318 C 0.69803 0.05956 0.01589
 C1319 C 0.72041 0.05054 0.01839
 C1320 C 0.72370 0.02762 0.02340
 C1321 C 0.70488 0.01322 0.02610
 C1322 C 0.68264 0.02167 0.02392
 C1323 C 0.63046 0.08597 0.00919
 C1324 C 0.62722 0.10886 0.00396
 C1325 C 0.64607 0.12316 0.00088
 C1326 C 0.66829 0.11467 0.00300
 C1327 C 0.63654 0.03869 0.02006
 C1328 C 0.62019 0.02634 0.02294
 C1329 C 0.71432 0.09760 0.00689
 C1330 C 0.73082 0.10970 0.00377
 H1331 H 0.73557 0.06110 0.01659
 H1332 H 0.74094 0.02100 0.02520
 H1333 H 0.70751 -0.00459 0.02995
 H1334 H 0.66854 0.00981 0.02622
 H1335 H 0.61527 0.07552 0.01140
 H1336 H 0.60999 0.11553 0.00228
 H1337 H 0.64346 0.14093 -0.00318
 H1338 H 0.68240 0.12645 0.00044
 C1339 C 0.19334 0.58204 0.51132
 C1340 C 0.17092 0.58987 0.50637
 C1341 C 0.15172 0.57515 0.50950
 C1342 C 0.15507 0.55266 0.51747
 C1343 C 0.17752 0.54483 0.52241
 C1344 C 0.19669 0.55961 0.51945
 C1345 C 0.21894 0.55151 0.52474
 C1346 C 0.22220 0.52934 0.53248
 C1347 C 0.20348 0.51483 0.53522
 C1348 C 0.18135 0.52241 0.53032
 C1349 C 0.12945 0.58340 0.50451
 C1350 C 0.12626 0.60553 0.49661
 C1351 C 0.14504 0.61989 0.49351
 C1352 C 0.16716 0.61224 0.49830
 C1353 C 0.13545 0.53762 0.52068
 C1354 C 0.11915 0.52517 0.52339
 C1355 C 0.21300 0.59691 0.50779
 C1356 C 0.22950 0.60904 0.50479
 H1357 H 0.23401 0.56221 0.52306
 H1358 H 0.23935 0.52342 0.53639
 H1359 H 0.20610 0.49762 0.54123
 H1360 H 0.16732 0.51051 0.53280
 H1361 H 0.11430 0.57287 0.50666
 H1362 H 0.10911 0.61155 0.49288
 H1363 H 0.14248 0.63706 0.48737
 H1364 H 0.18123 0.62406 0.49565
 C1365 C 0.19430 0.41849 -0.01068
 C1366 C 0.19779 0.44180 -0.01575
 C1367 C 0.17860 0.45639 -0.01861
 C1368 C 0.15601 0.44754 -0.01660
 C1369 C 0.15252 0.42418 -0.01168
 C1370 C 0.17173 0.40962 -0.00867
 C1371 C 0.16783 0.38636 -0.00369
 C1372 C 0.14558 0.37771 -0.00177
 C1373 C 0.12679 0.39193 -0.00474
 C1374 C 0.13012 0.41491 -0.00964
 C1375 C 0.18254 0.47968 -0.02346
 C1376 C 0.20481 0.48829 -0.02547
 C1377 C 0.22358 0.47398 -0.02280
 C1378 C 0.22021 0.45098 -0.01805
 C1379 C 0.13638 0.46241 -0.01972
 C1380 C 0.12011 0.47475 -0.02241
 C1381 C 0.21393 0.40373 -0.00726
 C1382 C 0.23039 0.39170 -0.00432
 H1383 H 0.18190 0.37462 -0.00126
 H1384 H 0.14291 0.35987 0.00204
 H1385 H 0.10953 0.38512 -0.00324
 H1386 H 0.11496 0.42529 -0.01180
 H1387 H 0.16849 0.49147 -0.02574
 H1388 H 0.20752 0.50614 -0.02917
 H1389 H 0.24085 0.48072 -0.02444
 H1390 H 0.23533 0.44050 -0.01629
 C1391 C 0.69403 0.91583 0.48830
 C1392 C 0.69775 0.93895 0.48256
 C1393 C 0.67871 0.95371 0.47956
 C1394 C 0.65604 0.94519 0.48207
 C1395 C 0.65232 0.92203 0.48769
 C1396 C 0.67138 0.90731 0.49084
 C1397 C 0.66726 0.88425 0.49653
 C1398 C 0.64492 0.87596 0.49905
 C1399 C 0.62628 0.89034 0.49595
 C1400 C 0.62983 0.91312 0.49033
 C1401 C 0.68288 0.97682 0.47410
 C1402 C 0.70523 0.98511 0.47163
 C1403 C 0.72385 0.97063 0.47442
 C1404 C 0.72025 0.94780 0.47976
 C1405 C 0.63657 0.96022 0.47879
 C1406 C 0.62043 0.97271 0.47601
 C1407 C 0.71353 0.90096 0.49194
 C1408 C 0.72990 0.88886 0.49509
 H1409 H 0.68121 0.87240 0.49909
 H1410 H 0.64207 0.85827 0.50341
 H1411 H 0.60896 0.88382 0.49792
 H1412 H 0.61478 0.92365 0.48811
 H1413 H 0.66895 0.98873 0.47171
 H1414 H 0.70810 1.00284 0.46748
 H1415 H 0.74118 0.97712 0.47241
 H1416 H 0.73527 0.93717 0.48158
 C1417 C 0.80563 0.91686 0.51001
 C1418 C 0.82834 0.90832 0.50967
 C1419 C 0.84724 0.92336 0.51315
 C1420 C 0.84331 0.94686 0.51687
 C1421 C 0.82058 0.95539 0.51717
 C1422 C 0.80169 0.94033 0.51384
 C1423 C 0.77912 0.94922 0.51442
 C1424 C 0.77532 0.97236 0.51798
 C1425 C 0.79380 0.98711 0.52111
 C1426 C 0.81621 0.97882 0.52077
 C1427 C 0.86979 0.91441 0.51280
 C1428 C 0.87355 0.89128 0.50909
 C1429 C 0.85507 0.87659 0.50566
 C1430 C 0.83268 0.88492 0.50593
 C1431 C 0.86261 0.96220 0.52053
 C1432 C 0.87863 0.97492 0.52365
 C1433 C 0.78632 0.90160 0.50621
 C1434 C 0.77008 0.88918 0.50299
 H1435 H 0.76420 0.93840 0.51223
 H1436 H 0.75793 0.97886 0.51833
 H1437 H 0.79076 1.00507 0.52388
 H1438 H 0.83002 0.99095 0.52334
 H1439 H 0.88472 0.92516 0.51537
 H1440 H 0.89091 0.88472 0.50889
 H1441 H 0.85808 0.85864 0.50279
 H1442 H 0.81886 0.87283 0.50319
 C1443 C 0.30628 0.41969 0.00999
 C1444 C 0.30237 0.44303 0.01460
 C1445 C 0.32130 0.45804 0.01795
 C1446 C 0.34403 0.44957 0.01691
 C1447 C 0.34794 0.42623 0.01227
 C1448 C 0.32900 0.41125 0.00877
 C1449 C 0.33332 0.38800 0.00410
 C1450 C 0.35572 0.37978 0.00294
 C1451 C 0.37424 0.39442 0.00638
 C1452 C 0.37050 0.41739 0.01100
 C1453 C 0.31695 0.48134 0.02232
 C1454 C 0.29454 0.48956 0.02337
 C1455 C 0.27602 0.47485 0.02023
 C1456 C 0.27979 0.45183 0.01594
 C1457 C 0.36336 0.46481 0.02079
 C1458 C 0.37941 0.47743 0.02412
 C1459 C 0.28692 0.40446 0.00633
 C1460 C 0.27065 0.39207 0.00322
 H1461 H 0.31947 0.37596 0.00131
 H1462 H 0.35872 0.36195 -0.00065
 H1463 H 0.39162 0.38795 0.00546
 H1464 H 0.38546 0.42811 0.01353
 H1465 H 0.33079 0.49344 0.02491
 H1466 H 0.29152 0.50744 0.02669
 H1467 H 0.25864 0.48129 0.02114
 H1468 H 0.26485 0.44104 0.01377
 C1469 C 0.58421 0.48785 0.30753
 C1470 C 0.59290 0.48858 0.33021
 C1471 C 0.57786 0.48490 0.34908
 C1472 C 0.55421 0.48057 0.34516
 C1473 C 0.54555 0.47973 0.32245
 C1474 C 0.56060 0.48340 0.30358
 C1475 C 0.55156 0.48250 0.28103
 C1476 C 0.52833 0.47805 0.27723
 C1477 C 0.51361 0.47445 0.29568
 C1478 C 0.52203 0.47528 0.31807
 C1479 C 0.58695 0.48567 0.37160
 C1480 C 0.61024 0.48993 0.37536
 C1481 C 0.62493 0.49355 0.35690
 C1482 C 0.61645 0.49292 0.33454
 C1483 C 0.53881 0.47707 0.36446
 C1484 C 0.52604 0.47421 0.38049
 C1485 C 0.59949 0.49165 0.28823
 C1486 C 0.61182 0.49475 0.27191
 H1487 H 0.56231 0.48522 0.26612
 H1488 H 0.52172 0.47740 0.25987
 H1489 H 0.49557 0.47101 0.29265
 H1490 H 0.50991 0.47237 0.33186
 H1491 H 0.57621 0.48295 0.38652
 H1492 H 0.61691 0.49044 0.39270
 H1493 H 0.64300 0.49688 0.35990
 H1494 H 0.62855 0.49585 0.32073
 C1495 C 0.08625 -0.01023 0.80567
 C1496 C 0.07885 -0.03240 0.81169
 C1497 C 0.06415 -0.03557 0.83091
 C1498 C 0.05687 -0.01652 0.84394
 C1499 C 0.06439 0.00565 0.83798
 C1500 C 0.07914 0.00880 0.81879
 C1501 C 0.08644 0.03111 0.81313
 C1502 C 0.07934 0.04979 0.82606
 C1503 C 0.06489 0.04672 0.84481
 C1504 C 0.05746 0.02494 0.85080
 C1505 C 0.05699 -0.05791 0.83661
 C1506 C 0.06412 -0.07657 0.82366
 C1507 C 0.07847 -0.07346 0.80484
 C1508 C 0.08581 -0.05167 0.79884
 C1509 C 0.04153 -0.01976 0.86333
 C1510 C 0.02874 -0.02264 0.87935
 C1511 C 0.10097 -0.00695 0.78585
 C1512 C 0.11306 -0.00406 0.76932
 H1513 H 0.09769 0.03437 0.79869
 H1514 H 0.08509 0.06673 0.82148
 H1515 H 0.05940 0.06129 0.85478
 H1516 H 0.04625 0.02341 0.86555
 H1517 H 0.04585 -0.06121 0.85111
 H1518 H 0.05846 -0.09353 0.82824
 H1519 H 0.08394 -0.08800 0.79483
 H1520 H 0.09695 -0.05010 0.78406
 C1521 C 0.08518 0.01023 0.69358
 C1522 C 0.06160 0.00445 0.69542
 C1523 C 0.04666 0.00794 0.67646
 C1524 C 0.05538 0.01723 0.65581
 C1525 C 0.07896 0.02304 0.65399
 C1526 C 0.09390 0.01954 0.67294
 C1527 C 0.11739 0.02553 0.67075
 C1528 C 0.12589 0.03469 0.65039
 C1529 C 0.11129 0.03808 0.63184
 C1530 C 0.08808 0.03236 0.63353
 C1531 C 0.02316 0.00200 0.67869
 C1532 C 0.01465 -0.00709 0.69908
 C1533 C 0.02924 -0.01045 0.71763
 C1534 C 0.05246 -0.00479 0.71592
 C1535 C 0.04008 0.02090 0.63650
 C1536 C 0.02728 0.02393 0.62054
 C1537 C 0.10041 0.00659 0.71293
 C1538 C 0.11283 0.00351 0.72917
 H1539 H 0.12941 0.02321 0.68471
 H1540 H 0.14390 0.03919 0.64901
 H1541 H 0.11798 0.04520 0.61606
 H1542 H 0.07740 0.03534 0.61864
 H1543 H 0.01112 0.00432 0.66475
 H1544 H -0.00338 -0.01152 0.70048
 H1545 H 0.02254 -0.01748 0.73344
 H1546 H 0.06312 -0.00772 0.73083
 C1547 C 0.58357 0.51029 0.19665
 C1548 C 0.58815 0.52874 0.18173
 C1549 C 0.57312 0.53319 0.16308
 C1550 C 0.55366 0.51908 0.15938
 C1551 C 0.54893 0.50080 0.17448
 C1552 C 0.56392 0.49641 0.19320
 C1553 C 0.55878 0.47814 0.20815
 C1554 C 0.53935 0.46459 0.20474
 C1555 C 0.52473 0.46884 0.18640
 C1556 C 0.52939 0.48669 0.17138
 C1557 C 0.57795 0.55185 0.14851
 C1558 C 0.59708 0.56573 0.15231
 C1559 C 0.61182 0.56133 0.17052
 C1560 C 0.60753 0.54303 0.18507
 C1561 C 0.53858 0.52328 0.14002
 C1562 C 0.52602 0.52658 0.12393
 C1563 C 0.59884 0.50583 0.21576
 C1564 C 0.61136 0.50232 0.23182
 H1565 H 0.56966 0.47413 0.22263
 H1566 H 0.53564 0.45073 0.21638
 H1567 H 0.50967 0.45826 0.18379
 H1568 H 0.51747 0.48934 0.15739
 H1569 H 0.56699 0.55596 0.13412
 H1570 H 0.60048 0.57998 0.14105
 H1571 H 0.62666 0.57214 0.17339
 H1572 H 0.61953 0.54023 0.19894
 C1573 C 0.41342 -0.00918 0.19314
 C1574 C 0.41965 0.00988 0.17964
 C1575 C 0.43413 0.00696 0.16020
 C1576 C 0.44225 -0.01500 0.15437
 C1577 C 0.43580 -0.03408 0.16774
 C1578 C 0.42134 -0.03116 0.18719
 C1579 C 0.41517 -0.05047 0.20034
 C1580 C 0.42305 -0.07207 0.19442
 C1581 C 0.43718 -0.07494 0.17540
 C1582 C 0.44353 -0.05623 0.16214
 C1583 C 0.44019 0.02627 0.14702
 C1584 C 0.43217 0.04785 0.15286
 C1585 C 0.41799 0.05069 0.17186
 C1586 C 0.41175 0.03199 0.18516
 C1587 C 0.45738 -0.01797 0.13476
 C1588 C 0.47002 -0.02062 0.11858
 C1589 C 0.39902 -0.00610 0.21323
 C1590 C 0.38713 -0.00332 0.22993
 H1591 H 0.40421 -0.04910 0.21529
 H1592 H 0.41817 -0.08666 0.20466
 H1593 H 0.44327 -0.09175 0.17088
 H1594 H 0.45453 -0.05933 0.14749
 H1595 H 0.45116 0.02491 0.13207
 H1596 H 0.43699 0.06244 0.14260
 H1597 H 0.41179 0.06748 0.17633
 H1598 H 0.40069 0.03507 0.19977
 C1599 C 0.91284 0.48927 0.69305
 C1600 C 0.91811 0.50779 0.67847
 C1601 C 0.93238 0.50440 0.65895
 C1602 C 0.94123 0.48248 0.65412
 C1603 C 0.93549 0.46385 0.66843
 C1604 C 0.92125 0.46726 0.68796
 C1605 C 0.91576 0.44839 0.70203
 C1606 C 0.92407 0.42675 0.69692
 C1607 C 0.93799 0.42341 0.67782
 C1608 C 0.94371 0.44168 0.66369
 C1609 C 0.93749 0.52320 0.64467
 C1610 C 0.92868 0.54472 0.64948
 C1611 C 0.91467 0.54802 0.66852
 C1612 C 0.90942 0.52984 0.68294
 C1613 C 0.95644 0.47915 0.63464
 C1614 C 0.96923 0.47635 0.61860
 C1615 C 0.89892 0.49290 0.71338
 C1616 C 0.88737 0.49598 0.73027
 H1617 H 0.90497 0.45014 0.71706
 H1618 H 0.91967 0.41251 0.70783
 H1619 H 0.94439 0.40657 0.67391
 H1620 H 0.95455 0.43822 0.64900
 H1621 H 0.94827 0.52147 0.62963
 H1622 H 0.93272 0.55890 0.63834
 H1623 H 0.90783 0.56475 0.67217
 H1624 H 0.89847 0.53326 0.69755
 C1625 C 0.91441 0.50921 0.80735
 C1626 C 0.91772 0.53140 0.81631
 C1627 C 0.93218 0.53481 0.83569
 C1628 C 0.94322 0.51599 0.84599
 C1629 C 0.93965 0.49375 0.83721
 C1630 C 0.92521 0.49036 0.81781
 C1631 C 0.92194 0.46798 0.80930
 C1632 C 0.93260 0.44949 0.81968
 C1633 C 0.94670 0.45281 0.83866
 C1634 C 0.95026 0.47465 0.84739
 C1635 C 0.93527 0.55716 0.84431
 C1636 C 0.92436 0.57562 0.83410
 C1637 C 0.91021 0.57228 0.81516
 C1638 C 0.90686 0.55047 0.80629
 C1639 C 0.95839 0.51953 0.86547
 C1640 C 0.97109 0.52249 0.88155
 C1641 C 0.89996 0.50580 0.78735
 C1642 C 0.88792 0.50305 0.77073
 H1643 H 0.91110 0.46454 0.79459
 H1644 H 0.92990 0.43248 0.81297
 H1645 H 0.95493 0.43838 0.84668
 H1646 H 0.96137 0.47636 0.86220
 H1647 H 0.94608 0.56061 0.85904
 H1648 H 0.92690 0.59260 0.84093
 H1649 H 0.90177 0.58667 0.80729
 H1650 H 0.89567 0.54873 0.79155
 C1651 C 0.41401 0.01016 0.30678
 C1652 C 0.42318 0.03194 0.31191
 C1653 C 0.43775 0.03489 0.33129
 C1654 C 0.44306 0.01603 0.34539
 C1655 C 0.43374 -0.00572 0.34033
 C1656 C 0.41916 -0.00866 0.32097
 C1657 C 0.41006 -0.03056 0.31622
 C1658 C 0.41524 -0.04904 0.33019
 C1659 C 0.42952 -0.04618 0.34912
 C1660 C 0.43871 -0.02480 0.35421
 C1661 C 0.44675 0.05682 0.33606
 C1662 C 0.44152 0.07530 0.32208
 C1663 C 0.42728 0.07240 0.30313
 C1664 C 0.41817 0.05101 0.29802
 C1665 C 0.45827 0.01900 0.36494
 C1666 C 0.47100 0.02159 0.38106
 C1667 C 0.39942 0.00706 0.28682
 C1668 C 0.38735 0.00424 0.27024
 H1669 H 0.39887 -0.03364 0.30171
 H1670 H 0.40813 -0.06567 0.32631
 H1671 H 0.43351 -0.06059 0.35991
 H1672 H 0.44972 -0.02342 0.36912
 H1673 H 0.45789 0.05994 0.35061
 H1674 H 0.44856 0.09195 0.32597
 H1675 H 0.42328 0.08680 0.29232
 H1676 H 0.40717 0.04960 0.28310
   
