data_POSCAR
  _audit_creation_date              2014-09-24
  _audit_creation_method            'ToBaCCo'
  _symmetry_space_group_name_H-M    'P1'
  _symmetry_Int_Tables_number       1
  _symmetry_cell_setting            triclinic
  loop_
  _symmetry_equiv_pos_as_xyz
 x,y,z
_cell_length_a 60.8482
_cell_length_b 60.9078
_cell_length_c 61.1640
_cell_angle_alpha 88.807100
_cell_angle_beta 91.820600
_cell_angle_gamma 88.931600
loop_
  _atom_site_label
  _atom_site_type_symbol
  _atom_site_fract_x
  _atom_site_fract_y
  _atom_site_fract_z
C1 C 0.12446 -0.00073 0.25244
 C2 C 0.37625 -0.00251 0.74416
 C3 C 0.87589 0.49844 0.24597
 C4 C 0.62422 0.49907 0.75535
 C5 C 0.24858 0.12570 0.99827
 C6 C 0.75122 0.37322 1.00050
 C7 C 0.25251 0.87405 0.50362
 C8 C 0.74887 0.62814 0.50041
 C9 C -0.00374 0.25033 0.12469
 C10 C 0.00373 0.75042 0.37447
 C11 C 0.50378 0.24993 0.87405
 C12 C 0.49404 0.75349 0.62513
 C13 C 0.87684 0.99471 0.74510
 C14 C 0.37721 0.49455 0.24754
 C15 C 0.62294 1.00310 0.25145
 C16 C 0.12477 0.50166 0.75337
 C17 C 0.75272 0.87394 -0.00443
 C18 C 0.25242 0.37466 0.49298
 C19 C 0.24683 0.62585 0.00846
 C20 C 0.74773 0.12689 0.50592
 C21 C 1.00191 0.75566 0.87553
 C22 C 0.50376 0.25852 0.37521
 C23 C 0.99605 0.24631 0.62270
 C24 C 0.49606 0.74537 0.12334
 O25 O -0.01017 0.99085 0.93730
 O26 O 0.02743 1.00107 0.93921
 O27 O -0.01077 0.94120 0.98940
 O28 O -0.00451 0.93949 1.02530
 O29 O -0.06254 0.99157 0.98230
 O30 O -0.06382 1.02842 0.99507
 O31 O 0.04015 1.00160 1.05010
 O32 O 0.04496 0.96608 1.03489
 O33 O 0.04665 1.04632 0.99806
 O34 O 0.02821 1.05014 0.96073
 O35 O -0.00521 1.05221 1.04015
 O36 O -0.04231 1.03450 1.03997
 O37 O 0.00888 1.01827 1.06140
 O38 O -0.02857 1.00665 1.06043
 O39 O 0.01147 1.06565 1.01016
 O40 O 0.00036 1.06703 0.97387
 O41 O 0.06026 1.01622 1.01680
 O42 O 0.06296 0.97841 1.00691
 O43 O -0.04134 1.00781 0.94835
 O44 O -0.04730 1.04247 0.96606
 O45 O -0.04867 0.96147 1.00097
 O46 O -0.03138 0.95870 1.03777
 O47 O 0.00576 0.95486 0.95937
 O48 O 0.03963 0.97331 0.95604
 Zr49 Zr 0.01001 0.98829 0.96584
 O50 O 0.03000 1.00832 0.98536
 Zr51 Zr -0.01566 0.96875 1.00892
 O52 O 0.00332 0.98799 1.03036
 Zr53 Zr -0.03576 1.01296 0.98199
 O54 O -0.01753 1.03406 1.00220
 Zr55 Zr 0.03387 0.99448 1.01700
 O56 O 0.01605 0.97290 0.99668
 Zr57 Zr 0.01387 1.03854 0.98981
 O58 O -0.00522 1.01947 0.96808
 Zr59 Zr -0.01174 1.01916 1.03314
 O60 O -0.03200 0.99885 1.01364
 O61 O -0.02096 0.98233 0.97775
 O62 O 0.01932 1.02525 1.02122
 C63 C -0.02942 0.99942 0.93356
 C64 C -0.00204 0.93896 0.97068
 C65 C -0.06448 0.97230 0.99096
 C66 C 0.02858 1.01068 1.06479
 C67 C 0.06226 1.03556 1.00842
 C68 C 0.00345 1.06786 1.02916
 H69 H 0.04423 1.01021 0.97829
 H70 H -0.02569 1.04820 1.00322
 H71 H -0.02964 0.97280 0.96795
 H72 H 0.00528 0.98024 1.04466
 H73 H 0.04003 0.95326 1.02646
 H74 H 0.00649 0.94362 1.03665
 H75 H -0.01170 1.06204 0.96407
 H76 H -0.06121 1.03955 0.95779
 H77 H 0.06653 0.98438 0.99232
 H78 H 0.04485 0.96352 0.96832
 H79 H -0.04029 1.04400 1.05284
 H80 H -0.06683 1.02078 1.00907
 H81 H 0.02144 1.01608 0.93614
 H82 H 0.04176 1.04136 0.95851
 H83 H -0.04323 0.96963 1.04027
 H84 H -0.02208 0.99209 1.06454
 O85 O 0.54643 0.54800 0.49904
 O86 O 0.52793 0.55195 0.46371
 O87 O 0.49157 0.55459 0.54181
 O88 O 0.46051 0.53708 0.54811
 O89 O 0.54131 0.50293 0.55257
 O90 O 0.54469 0.46728 0.53681
 O91 O 0.43779 0.49162 0.48706
 O92 O 0.43569 0.52934 0.49777
 O93 O 0.48866 0.49123 0.44065
 O94 O 0.52760 0.50322 0.44238
 O95 O 0.48705 0.44347 0.49072
 O96 O 0.50187 0.44411 0.52979
 O97 O 0.45230 0.46163 0.50541
 O98 O 0.46987 0.45736 0.54040
 O99 O 0.50454 0.45702 0.46127
 O100 O 0.53828 0.47310 0.45874
 O101 O 0.45709 0.50693 0.45227
 O102 O 0.44974 0.54106 0.46746
 O103 O 0.56064 0.51797 0.51750
 O104 O 0.56217 0.47979 0.50755
 O105 O 0.51000 0.51944 0.56398
 O106 O 0.47230 0.50626 0.56276
 O107 O 0.50952 0.56767 0.51241
 O108 O 0.49982 0.56765 0.47459
 Zr109 Zr 0.51328 0.54025 0.49249
 O110 O 0.49427 0.52080 0.47146
 Zr111 Zr 0.48857 0.52080 0.53616
 O112 O 0.46865 0.50031 0.51692
 Zr113 Zr 0.53417 0.49637 0.51955
 O114 O 0.51616 0.47509 0.49939
 Zr115 Zr 0.46393 0.51385 0.48531
 O116 O 0.48183 0.53582 0.50522
 Zr117 Zr 0.50972 0.48999 0.46859
 O118 O 0.53015 0.51029 0.48781
 Zr119 Zr 0.48505 0.47010 0.51222
 O120 O 0.50385 0.48977 0.53374
 O121 O 0.51920 0.52694 0.52368
 O122 O 0.47887 0.48328 0.48083
 C123 C 0.56245 0.53713 0.50863
 C124 C 0.50013 0.57024 0.53072
 C125 C 0.52965 0.51166 0.56737
 C126 C 0.43621 0.47231 0.49579
 C127 C 0.46889 0.49860 0.43735
 C128 C 0.49560 0.44134 0.47190
 H129 H 0.49238 0.52853 0.45715
 H130 H 0.52451 0.46108 0.49821
 H131 H 0.52804 0.53678 0.53299
 H132 H 0.45444 0.49844 0.52405
 H133 H 0.44077 0.54247 0.50564
 H134 H 0.44745 0.53104 0.54051
 H135 H 0.55054 0.47829 0.46816
 H136 H 0.57488 0.48177 0.51788
 H137 H 0.46147 0.54803 0.45912
 H138 H 0.48462 0.56980 0.47955
 H139 H 0.49453 0.43007 0.52656
 H140 H 0.53356 0.46397 0.54782
 H141 H 0.53909 0.54079 0.45984
 H142 H 0.51945 0.51634 0.43643
 H143 H 0.48040 0.49244 0.56679
 H144 H 0.45912 0.46848 0.54522
 O145 O 0.45038 -0.03778 0.48960
 O146 O 0.46908 -0.04101 0.45617
 O147 O 0.50354 -0.04718 0.53719
 O148 O 0.53517 -0.03122 0.54567
 O149 O 0.45561 0.00600 0.54404
 O150 O 0.45107 0.04038 0.52792
 O151 O 0.56003 0.01635 0.48616
 O152 O 0.56152 -0.02129 0.49644
 O153 O 0.50990 0.02106 0.43624
 O154 O 0.47328 0.01240 0.43245
 O155 O 0.51209 0.06589 0.48702
 O156 O 0.49742 0.06408 0.52470
 O157 O 0.54619 0.04596 0.50353
 O158 O 0.52812 0.04834 0.53806
 O159 O 0.49387 0.05455 0.45648
 O160 O 0.45716 0.03364 0.45181
 O161 O 0.54089 0.00393 0.45017
 O162 O 0.54639 -0.03226 0.46593
 O163 O 0.43641 -0.00851 0.50734
 O164 O 0.43676 0.03044 0.49508
 O165 O 0.48634 -0.01189 0.55775
 O166 O 0.52465 -0.00045 0.55915
 O167 O 0.48633 -0.05877 0.50614
 O168 O 0.49748 -0.05703 0.46893
 Zr169 Zr 0.48368 -0.03048 0.48589
 O170 O 0.50301 -0.01031 0.46629
 Zr171 Zr 0.50795 -0.01339 0.53152
 O172 O 0.52871 0.00724 0.51382
 Zr173 Zr 0.46314 0.01273 0.51126
 O174 O 0.48210 0.03475 0.49304
 Zr175 Zr 0.53335 -0.00490 0.48246
 O176 O 0.51493 -0.02728 0.50115
 Zr177 Zr 0.48842 0.02108 0.46257
 O178 O 0.46754 -0.00003 0.47989
 Zr179 Zr 0.51320 0.03811 0.50823
 O180 O 0.49335 0.01806 0.52791
 O181 O 0.47741 -0.01830 0.51660
 O182 O 0.51927 0.02631 0.47719
 C183 C 0.43444 -0.02715 0.49807
 C184 C 0.49490 -0.06220 0.52540
 C185 C 0.46706 -0.00330 0.55982
 C186 C 0.56204 0.03523 0.49499
 C187 C 0.52964 0.01353 0.43448
 C188 C 0.50331 0.06936 0.46785
 H189 H 0.50477 -0.01721 0.45196
 H190 H 0.47420 0.04908 0.49168
 H191 H 0.46818 -0.02815 0.52537
 H192 H 0.54292 0.00828 0.52198
 H193 H 0.55629 -0.03436 0.50450
 H194 H 0.54851 -0.02563 0.53880
 H195 H 0.45455 0.04764 0.45933
 H196 H 0.42306 0.02795 0.50310
 H197 H 0.53539 -0.03677 0.45474
 H198 H 0.51242 -0.05973 0.47542
 H199 H 0.50575 0.07777 0.52257
 H200 H 0.46338 0.04569 0.53720
 H201 H 0.45872 -0.02914 0.45102
 H202 H 0.47658 -0.00336 0.43037
 H203 H 0.51706 0.01353 0.56255
 H204 H 0.53995 0.03764 0.54243
 O205 O -0.05037 0.46026 0.99297
 O206 O -0.03250 0.45742 0.95838
 O207 O 0.00394 0.45077 1.03879
 O208 O 0.03594 0.46680 1.04642
 O209 O -0.04365 0.50385 1.04644
 O210 O -0.04648 0.53991 1.02957
 O211 O 0.05960 0.51400 0.98675
 O212 O 0.06079 0.47593 0.99776
 O213 O 0.00901 0.51789 0.93725
 O214 O -0.03056 0.50640 0.93674
 O215 O 0.01144 0.56344 0.98742
 O216 O -0.00289 0.56180 1.02552
 O217 O 0.04583 0.54387 1.00373
 O218 O 0.02877 0.54711 1.03805
 O219 O -0.00660 0.55163 0.95695
 O220 O -0.04034 0.53624 0.95180
 O221 O 0.04011 0.50092 0.95110
 O222 O 0.04611 0.46553 0.96677
 O223 O -0.06362 0.48985 1.01073
 O224 O -0.06458 0.52818 0.99965
 O225 O -0.01277 0.48590 1.05970
 O226 O 0.02529 0.49757 1.06046
 O227 O -0.01408 0.43926 1.00813
 O228 O -0.00454 0.44044 0.97086
 Zr229 Zr -0.01717 0.46750 0.98791
 O230 O 0.00234 0.48708 0.96784
 Zr231 Zr 0.00831 0.48458 1.03301
 O232 O 0.02869 0.50517 1.01482
 Zr233 Zr -0.03673 0.51091 1.01358
 O234 O -0.01825 0.53231 0.99427
 Zr235 Zr 0.03288 0.49262 0.98357
 O236 O 0.01445 0.47048 1.00253
 Zr237 Zr -0.01225 0.51842 0.96386
 O238 O -0.03321 0.49808 0.98208
 Zr239 Zr 0.01303 0.53595 1.00901
 O240 O -0.00618 0.51610 1.02955
 O241 O -0.02253 0.47984 1.01874
 O242 O 0.01877 0.52375 0.97804
 C243 C -0.06592 0.47098 1.00203
 C244 C -0.00505 0.43579 1.02719
 C245 C -0.03207 0.49437 1.06201
 C246 C 0.06161 0.53306 0.99520
 C247 C 0.02873 0.51032 0.93538
 C248 C 0.00271 0.56663 0.96818
 H249 H 0.00399 0.47987 0.95366
 H250 H -0.02626 0.54656 0.99256
 H251 H -0.03153 0.47000 1.02774
 H252 H 0.04300 0.50639 1.02277
 H253 H 0.05542 0.46268 1.00542
 H254 H 0.04917 0.47297 1.03983
 H255 H -0.05257 0.53180 0.96109
 H256 H -0.07719 0.52632 1.00940
 H257 H 0.03438 0.45979 0.95706
 H258 H 0.01071 0.43781 0.97659
 H259 H 0.00495 0.57569 1.02282
 H260 H -0.03531 0.54263 1.04127
 H261 H -0.04342 0.46905 0.95394
 H262 H -0.02241 0.49367 0.93101
 H263 H 0.01789 0.51168 1.06375
 H264 H 0.03970 0.53579 1.04318
 O265 O 0.01243 0.43562 0.51006
 O266 O 0.00210 0.43723 0.47228
 O267 O 0.06234 0.48634 0.51187
 O268 O 0.06393 0.52211 0.50678
 O269 O 0.01179 0.48213 0.56182
 O270 O -0.02504 0.49607 0.56114
 O271 O 0.00139 0.54845 0.45862
 O272 O 0.03696 0.53176 0.45564
 O273 O -0.04332 0.49790 0.45040
 O274 O -0.04717 0.46096 0.46886
 O275 O -0.04896 0.54142 0.50142
 O276 O -0.03129 0.54125 0.53904
 O277 O -0.01516 0.56103 0.48886
 O278 O -0.00305 0.56011 0.52683
 O279 O -0.06261 0.51157 0.48446
 O280 O -0.06391 0.47534 0.49571
 O281 O -0.01322 0.51526 0.43821
 O282 O 0.02471 0.50363 0.43750
 O283 O -0.00440 0.44800 0.54017
 O284 O -0.03907 0.46723 0.54422
 O285 O 0.04198 0.49921 0.54932
 O286 O 0.04460 0.53578 0.53179
 O287 O 0.04858 0.45628 0.49530
 O288 O 0.02961 0.45275 0.46116
 Zr289 Zr 0.01496 0.46385 0.48991
 O290 O -0.00522 0.48390 0.46894
 Zr291 Zr 0.03462 0.50680 0.51604
 O292 O 0.01528 0.52876 0.49606
 Zr293 Zr -0.00956 0.48188 0.53409
 O294 O -0.03077 0.50272 0.51483
 Zr295 Zr 0.00863 0.51506 0.46548
 O296 O 0.03028 0.49412 0.48440
 Zr297 Zr -0.03544 0.48994 0.48347
 O298 O -0.01623 0.46768 0.50350
 Zr299 Zr -0.01587 0.53309 0.50955
 O300 O 0.00452 0.51302 0.53079
 O301 O 0.02113 0.47608 0.52094
 O302 O -0.02212 0.52083 0.47846
 C303 C 0.00379 0.43255 0.52876
 C304 C 0.06462 0.46742 0.50318
 C305 C 0.03102 0.49020 0.56467
 C306 C -0.00771 0.56376 0.46958
 C307 C -0.03257 0.50757 0.43532
 C308 C -0.06473 0.53091 0.49218
 H309 H -0.00717 0.47662 0.45475
 H310 H -0.04489 0.50449 0.52227
 H311 H 0.03078 0.46605 0.53006
 H312 H 0.02305 0.54276 0.49435
 H313 H 0.04984 0.52292 0.46122
 H314 H 0.05993 0.53285 0.49491
 H315 H -0.05884 0.46545 0.50795
 H316 H -0.03612 0.45905 0.55827
 H317 H 0.01837 0.48940 0.43346
 H318 H 0.03916 0.46469 0.45609
 H319 H -0.04051 0.55473 0.53647
 H320 H -0.01767 0.51008 0.56420
 H321 H -0.01298 0.43500 0.47741
 H322 H -0.03835 0.45805 0.45589
 H323 H 0.03378 0.53887 0.54313
 H324 H 0.01119 0.56394 0.52057
 O325 O 0.51179 0.93418 0.00978
 O326 O 0.50300 0.93495 -0.02840
 O327 O 0.56105 0.98522 0.01293
 O328 O 0.56251 1.02089 0.00572
 O329 O 0.50911 0.98181 0.06047
 O330 O 0.47202 0.99547 0.05826
 O331 O 0.50132 1.04598 -0.04419
 O332 O 0.53724 1.02934 -0.04567
 O333 O 0.45759 0.99405 -0.05294
 O334 O 0.45338 0.95785 -0.03347
 O335 O 0.44960 1.03913 -0.00306
 O336 O 0.46596 1.03987 0.03509
 O337 O 0.48368 1.05890 -0.01474
 O338 O 0.49431 1.05887 0.02344
 O339 O 0.43679 1.00878 -0.01976
 O340 O 0.43551 0.97282 -0.00786
 O341 O 0.48785 1.01157 -0.06454
 O342 O 0.52551 1.00117 -0.06397
 O343 O 0.49390 0.94700 0.03909
 O344 O 0.45896 0.96594 0.04175
 O345 O 0.53940 0.99914 0.04851
 O346 O 0.54237 1.03517 0.03033
 O347 O 0.54825 0.95468 -0.00351
 O348 O 0.53090 0.95059 -0.03861
 Zr349 Zr 0.51484 0.96202 -0.01076
 O350 O 0.49512 0.98140 -0.03275
 Zr351 Zr 0.53308 1.00577 0.01492
 O352 O 0.51412 1.02709 -0.00606
 Zr353 Zr 0.48858 0.98074 0.03215
 O354 O 0.46776 1.00090 0.01177
 Zr355 Zr 0.50864 1.01269 -0.03651
 O356 O 0.52998 0.99234 -0.01651
 Zr357 Zr 0.46429 0.98739 -0.01940
 O358 O 0.48312 0.96579 0.00170
 Zr359 Zr 0.48248 1.03132 0.00632
 O360 O 0.50243 1.01197 0.02859
 O361 O 0.51974 0.97504 0.02010
 O362 O 0.47736 1.01838 -0.02470
 C363 C 0.50262 0.93140 0.02825
 C364 C 0.56380 0.96597 0.00509
 C365 C 0.52817 0.99021 0.06368
 C366 C 0.49182 1.06144 -0.03373
 C367 C 0.46883 1.00326 -0.06793
 C368 C 0.43422 1.02826 -0.01249
 H369 H 0.49379 0.97372 -0.04678
 H370 H 0.45336 1.00267 0.01869
 H371 H 0.52911 0.96530 0.02981
 H372 H 0.52177 1.04116 -0.00778
 H373 H 0.55000 1.02056 -0.03966
 H374 H 0.55859 1.03189 -0.00594
 H375 H 0.44018 0.96361 0.00503
 H376 H 0.46157 0.95821 0.05608
 H377 H 0.52078 0.98602 -0.06676
 H378 H 0.54098 0.96230 -0.04312
 H379 H 0.45660 1.05316 0.03196
 H380 H 0.47932 1.00950 0.06139
 H381 H 0.48783 0.93247 -0.02363
 H382 H 0.46282 0.95453 -0.04589
 H383 H 0.53106 1.03852 0.04113
 H384 H 0.50882 1.06263 0.01775
 O385 O 0.48783 0.50925 0.06147
 O386 O 0.52596 0.49982 0.06187
 O387 O 0.48421 0.55936 0.00978
 O388 O 0.49050 0.56163 -0.02565
 O389 O 0.43555 0.50768 0.01274
 O390 O 0.43652 0.47100 0.00016
 O391 O 0.53870 0.50080 -0.04829
 O392 O 0.54138 0.53627 -0.03237
 O393 O 0.54788 0.45559 0.00354
 O394 O 0.52989 0.45091 0.03976
 O395 O 0.49672 0.44926 -0.04185
 O396 O 0.45857 0.46565 -0.04377
 O397 O 0.50850 0.48349 -0.06164
 O398 O 0.47003 0.49465 -0.06270
 O399 O 0.51406 0.43567 -0.01092
 O400 O 0.50279 0.43368 0.02475
 O401 O 0.55960 0.48618 -0.01409
 O402 O 0.56024 0.52380 -0.00344
 O403 O 0.45764 0.49191 0.04822
 O404 O 0.45403 0.45714 0.03003
 O405 O 0.44760 0.53825 -0.00478
 O406 O 0.46494 0.54209 -0.04016
 O407 O 0.50166 0.54582 0.04071
 O408 O 0.53662 0.52790 0.04598
 Zr409 Zr 0.50784 0.51252 0.03421
 O410 O 0.52900 0.49309 0.01575
 Zr411 Zr 0.48108 0.53194 -0.01035
 O412 O 0.50115 0.51336 -0.03079
 Zr413 Zr 0.46365 0.48702 0.01495
 O414 O 0.48306 0.46654 -0.00435
 Zr415 Zr 0.53203 0.50741 -0.01552
 O416 O 0.51297 0.52836 0.00390
 Zr417 Zr 0.51471 0.46258 0.00996
 O418 O 0.49455 0.48103 0.03071
 Zr419 Zr 0.48793 0.48193 -0.03476
 O420 O 0.46654 0.50156 -0.01632
 O421 O 0.47653 0.51793 0.02038
 O422 O 0.51933 0.47642 -0.02094
 C423 C 0.46906 0.50031 0.06387
 C424 C 0.49289 0.56165 0.02902
 C425 C 0.43243 0.52689 0.00393
 C426 C 0.52772 0.49151 -0.06373
 C427 C 0.56274 0.46675 -0.00590
 C428 C 0.50638 0.43364 -0.03056
 H429 H 0.54335 0.49140 0.02367
 H430 H 0.47579 0.45224 -0.00605
 H431 H 0.46723 0.52719 0.02964
 H432 H 0.50263 0.52132 -0.04489
 H433 H 0.53589 0.54886 -0.02397
 H434 H 0.50183 0.55789 -0.03627
 H435 H 0.49077 0.43839 0.03421
 H436 H 0.43999 0.45965 0.03753
 H437 H 0.56417 0.51770 0.01130
 H438 H 0.54124 0.53793 0.03411
 H439 H 0.46121 0.45677 -0.05689
 H440 H 0.43335 0.47828 -0.01425
 H441 H 0.52101 0.48460 0.06429
 H442 H 0.54286 0.46000 0.04292
 H443 H 0.45391 0.53085 -0.04372
 H444 H 0.47636 0.50891 -0.06690
 O445 O 0.04129 0.00282 0.45104
 O446 O 0.04488 0.03749 0.46857
 O447 O 0.04937 -0.04225 0.50622
 O448 O 0.03246 -0.04992 0.53693
 O449 O -0.00309 -0.04998 0.45686
 O450 O -0.03897 -0.03306 0.45333
 O451 O -0.01327 0.01209 0.55904
 O452 O 0.02430 0.00062 0.56137
 O453 O -0.01593 0.06064 0.50804
 O454 O -0.00455 0.06029 0.46918
 O455 O -0.06244 0.01108 0.51055
 O456 O -0.06156 -0.02735 0.49637
 O457 O -0.04327 -0.00516 0.54512
 O458 O -0.04708 -0.03982 0.52808
 O459 O -0.05011 0.04107 0.49240
 O460 O -0.03448 0.04487 0.45883
 O461 O 0.00067 0.04725 0.53945
 O462 O 0.03610 0.03054 0.54615
 O463 O 0.01129 -0.01440 0.43719
 O464 O -0.02715 -0.00325 0.43561
 O465 O 0.01433 -0.06306 0.48804
 O466 O 0.00155 -0.06295 0.52571
 O467 O 0.06180 -0.01224 0.48811
 O468 O 0.06099 0.02552 0.49701
 Zr469 Zr 0.03385 0.00844 0.48386
 O470 O 0.01432 0.02932 0.50250
 Zr471 Zr 0.01554 -0.03604 0.50905
 O472 O -0.00475 -0.01699 0.52878
 Zr473 Zr -0.00995 -0.01691 0.46358
 O474 O -0.03128 0.00303 0.48141
 Zr475 Zr 0.00832 0.01430 0.53289
 O476 O 0.03022 -0.00560 0.51529
 Zr477 Zr -0.01693 0.03346 0.48732
 O478 O 0.00345 0.01452 0.46716
 Zr479 Zr -0.03537 -0.01104 0.51258
 O480 O -0.01578 -0.03230 0.49392
 O481 O 0.02098 -0.02237 0.47841
 O482 O -0.02268 0.02000 0.51821
 C483 C 0.03036 -0.00598 0.43527
 C484 C 0.06477 -0.03107 0.49773
 C485 C 0.00617 -0.06552 0.46859
 C486 C -0.03239 0.00369 0.56089
 C487 C -0.00829 0.06291 0.52768
 C488 C -0.06530 0.03026 0.50166
 H489 H 0.02179 0.04348 0.50410
 H490 H -0.04549 0.00479 0.47317
 H491 H 0.03088 -0.03162 0.46975
 H492 H -0.00617 -0.02466 0.54305
 H493 H 0.03715 -0.00798 0.55651
 H494 H 0.02690 -0.04241 0.54988
 H495 H -0.02930 0.03581 0.44671
 H496 H -0.02515 -0.01310 0.42306
 H497 H 0.04120 0.04109 0.53500
 H498 H 0.06325 0.02014 0.51231
 H499 H -0.07541 -0.02434 0.50400
 H500 H -0.04209 -0.04432 0.46465
 H501 H 0.03322 0.04225 0.45774
 H502 H 0.00862 0.06565 0.47715
 H503 H -0.01222 -0.06649 0.51759
 H504 H -0.03592 -0.04492 0.53923
 O505 O 0.74790 0.29009 0.20225
 O506 O 0.71339 0.29633 0.21931
 O507 O 0.79408 0.29700 0.25573
 O508 O 0.80150 0.28100 0.28825
 O509 O 0.79941 0.24189 0.21155
 O510 O 0.78160 0.20841 0.20941
 O511 O 0.73894 0.23964 0.31464
 O512 O 0.75131 0.27636 0.31380
 O513 O 0.68951 0.23843 0.26396
 O514 O 0.68701 0.24572 0.22691
 O515 O 0.73838 0.18878 0.27064
 O516 O 0.77658 0.18690 0.25638
 O517 O 0.75540 0.20825 0.30328
 O518 O 0.79007 0.20209 0.28634
 O519 O 0.70842 0.20230 0.25145
 O520 O 0.70561 0.22190 0.21315
 O521 O 0.70386 0.25509 0.29391
 O522 O 0.72139 0.28955 0.29755
 O523 O 0.76437 0.25876 0.19082
 O524 O 0.74951 0.22131 0.19332
 O525 O 0.81342 0.25974 0.24101
 O526 O 0.81383 0.24890 0.27984
 O527 O 0.76376 0.31064 0.23710
 O528 O 0.72600 0.31237 0.24677
 Zr529 Zr 0.74236 0.28401 0.23559
 O530 O 0.72145 0.26629 0.25580
 Zr531 Zr 0.78690 0.26380 0.26201
 O532 O 0.76782 0.24538 0.28359
 Zr533 Zr 0.76616 0.23805 0.21885
 O534 O 0.74644 0.21831 0.23873
 Zr535 Zr 0.73686 0.26043 0.28666
 O536 O 0.75692 0.28054 0.26722
 Zr537 Zr 0.71642 0.23485 0.24341
 O538 O 0.73520 0.25366 0.22155
 Zr539 Zr 0.76100 0.21462 0.27013
 O540 O 0.78210 0.23229 0.24956
 O541 O 0.77271 0.26897 0.23106
 O542 O 0.73030 0.22934 0.27471
 C543 C 0.75652 0.27832 0.18744
 C544 C 0.78301 0.31274 0.24595
 C545 C 0.81538 0.25054 0.22240
 C546 C 0.74693 0.22011 0.31808
 C547 C 0.68777 0.24687 0.28294
 C548 C 0.71898 0.18681 0.26205
 H549 H 0.70740 0.27458 0.25673
 H550 H 0.74449 0.20388 0.23186
 H551 H 0.78217 0.27784 0.22157
 H552 H 0.77568 0.24404 0.29796
 H553 H 0.76007 0.28854 0.30787
 H554 H 0.79422 0.27629 0.30174
 H555 H 0.71243 0.20712 0.21191
 H556 H 0.75821 0.22236 0.17990
 H557 H 0.71088 0.29495 0.28592
 H558 H 0.73219 0.31509 0.26161
 H559 H 0.77353 0.17361 0.26536
 H560 H 0.79122 0.20327 0.22189
 H561 H 0.70844 0.28480 0.20920
 H562 H 0.68595 0.26182 0.22859
 H563 H 0.81676 0.23453 0.27314
 H564 H 0.79508 0.21298 0.29708
 O565 O 0.74869 0.70700 0.70102
 O566 O 0.78416 0.70105 0.71859
 O567 O 0.70612 0.70062 0.75574
 O568 O 0.70167 0.71692 0.78767
 O569 O 0.69658 0.75422 0.70851
 O570 O 0.71412 0.78888 0.70534
 O571 O 0.76590 0.75970 0.81011
 O572 O 0.75304 0.72283 0.81192
 O573 O 0.81069 0.76019 0.75899
 O574 O 0.80779 0.74902 0.71982
 O575 O 0.76211 0.80930 0.76237
 O576 O 0.72275 0.81056 0.74907
 O577 O 0.74855 0.79081 0.79686
 O578 O 0.71215 0.79621 0.78059
 O579 O 0.79085 0.79538 0.74399
 O580 O 0.79240 0.77987 0.71014
 O581 O 0.79899 0.74359 0.79000
 O582 O 0.78200 0.70935 0.79625
 O583 O 0.73093 0.73790 0.68792
 O584 O 0.74256 0.77569 0.68717
 O585 O 0.68516 0.73740 0.73958
 O586 O 0.68796 0.74890 0.77742
 O587 O 0.73493 0.68691 0.73723
 O588 O 0.77317 0.68523 0.74660
 Zr589 Zr 0.75611 0.71356 0.73404
 O590 O 0.77851 0.73163 0.75296
 Zr591 Zr 0.71357 0.73388 0.76005
 O592 O 0.73422 0.75295 0.78008
 Zr593 Zr 0.73031 0.75889 0.71487
 O594 O 0.75178 0.77883 0.73301
 Zr595 Zr 0.76547 0.73809 0.78362
 O596 O 0.74411 0.71749 0.76570
 Zr597 Zr 0.78231 0.76274 0.73837
 O598 O 0.76172 0.74374 0.71793
 Zr599 Zr 0.73977 0.78336 0.76442
 O600 O 0.71700 0.76513 0.74555
 O601 O 0.72519 0.72818 0.72910
 O602 O 0.77087 0.76885 0.76948
 C603 C 0.73918 0.71855 0.68551
 C604 C 0.71644 0.68484 0.74655
 C605 C 0.68157 0.74603 0.72039
 C606 C 0.75846 0.77944 0.81227
 C607 C 0.81403 0.75208 0.77842
 C608 C 0.78083 0.81113 0.75341
 H609 H 0.79263 0.72337 0.75431
 H610 H 0.75330 0.79300 0.72503
 H611 H 0.71517 0.71909 0.72018
 H612 H 0.72758 0.75467 0.79450
 H613 H 0.74416 0.71031 0.80692
 H614 H 0.70949 0.72255 0.80076
 H615 H 0.78241 0.77544 0.69801
 H616 H 0.73191 0.77437 0.67463
 H617 H 0.79114 0.70337 0.78462
 H618 H 0.76827 0.68288 0.76174
 H619 H 0.72637 0.82410 0.75707
 H620 H 0.70383 0.79265 0.71695
 H621 H 0.78861 0.71253 0.70802
 H622 H 0.81367 0.73573 0.72772
 H623 H 0.68469 0.76335 0.77021
 H624 H 0.70825 0.78563 0.79225
 O625 O 0.29194 0.19931 0.74184
 O626 O 0.29671 0.21840 0.70788
 O627 O 0.30078 0.25211 0.78749
 O628 O 0.28487 0.28434 0.79388
 O629 O 0.24718 0.20654 0.79416
 O630 O 0.21261 0.20443 0.77705
 O631 O 0.23905 0.31186 0.73107
 O632 O 0.27665 0.31132 0.74363
 O633 O 0.23634 0.26226 0.68339
 O634 O 0.24363 0.22565 0.68155
 O635 O 0.18905 0.26599 0.73263
 O636 O 0.19013 0.25130 0.77122
 O637 O 0.20877 0.29924 0.74777
 O638 O 0.20527 0.28169 0.78301
 O639 O 0.20108 0.24784 0.70315
 O640 O 0.22211 0.21017 0.70102
 O641 O 0.25365 0.29212 0.69669
 O642 O 0.28830 0.29637 0.71389
 O643 O 0.26177 0.18688 0.75880
 O644 O 0.22332 0.18940 0.74542
 O645 O 0.26491 0.23632 0.80726
 O646 O 0.25349 0.27502 0.80661
 O647 O 0.31315 0.23421 0.75794
 O648 O 0.31282 0.24553 0.72019
 Zr649 Zr 0.28541 0.23314 0.73654
 O650 O 0.26604 0.25369 0.71535
 Zr651 Zr 0.26718 0.25807 0.78022
 O652 O 0.24727 0.27999 0.76082
 Zr653 Zr 0.24106 0.21479 0.76091
 O654 O 0.21984 0.23494 0.74092
 Zr655 Zr 0.26043 0.28423 0.72983
 O656 O 0.28210 0.26449 0.75016
 Zr657 Zr 0.23450 0.24083 0.71077
 O658 O 0.25483 0.21876 0.72991
 Zr659 Zr 0.21639 0.26603 0.75462
 O660 O 0.23564 0.24510 0.77600
 O661 O 0.27217 0.22737 0.76693
 O662 O 0.22915 0.27180 0.72378
 C663 C 0.28061 0.18387 0.75032
 C664 C 0.31610 0.24273 0.77683
 C665 C 0.25627 0.21735 0.80976
 C666 C 0.21978 0.31463 0.73883
 C667 C 0.24478 0.28134 0.68100
 C668 C 0.18593 0.25750 0.71377
 H669 H 0.27355 0.25515 0.70132
 H670 H 0.20546 0.22772 0.73935
 H671 H 0.28169 0.21754 0.77641
 H672 H 0.24610 0.29421 0.76823
 H673 H 0.28959 0.30534 0.75218
 H674 H 0.27938 0.29802 0.78643
 H675 H 0.20776 0.20823 0.70790
 H676 H 0.22509 0.17567 0.75439
 H677 H 0.29422 0.28452 0.70484
 H678 H 0.31583 0.26010 0.72639
 H679 H 0.17636 0.25994 0.76800
 H680 H 0.20795 0.21660 0.78643
 H681 H 0.28494 0.20857 0.70273
 H682 H 0.25970 0.22729 0.68045
 H683 H 0.23929 0.26809 0.80965
 H684 H 0.21623 0.29263 0.78751
 O685 O 0.21281 0.79864 0.25218
 O686 O 0.20669 0.78099 0.21808
 O687 O 0.20698 0.74521 0.29826
 O688 O 0.22358 0.71314 0.30599
 O689 O 0.26153 0.79075 0.30424
 O690 O 0.29447 0.79387 0.28703
 O691 O 0.26533 0.68682 0.24370
 O692 O 0.22879 0.68681 0.25551
 O693 O 0.26601 0.73732 0.19502
 O694 O 0.25796 0.77418 0.19231
 O695 O 0.31553 0.73203 0.24424
 O696 O 0.31725 0.74626 0.28223
 O697 O 0.29657 0.69880 0.26055
 O698 O 0.30212 0.71631 0.29552
 O699 O 0.30176 0.75103 0.21442
 O700 O 0.28113 0.78898 0.21143
 O701 O 0.24964 0.70708 0.20884
 O702 O 0.21487 0.70315 0.22607
 O703 O 0.24390 0.81104 0.26893
 O704 O 0.28166 0.80895 0.25479
 O705 O 0.24431 0.76091 0.31800
 O706 O 0.25561 0.72200 0.31826
 O707 O 0.19294 0.76333 0.26795
 O708 O 0.19144 0.75311 0.23035
 Zr709 Zr 0.21954 0.76523 0.24698
 O710 O 0.23771 0.74523 0.22631
 Zr711 Zr 0.24031 0.73958 0.29149
 O712 O 0.25903 0.71804 0.27264
 Zr713 Zr 0.26519 0.78329 0.27119
 O714 O 0.28538 0.76347 0.25193
 Zr715 Zr 0.24406 0.71447 0.24162
 O716 O 0.22364 0.73369 0.26147
 Zr717 Zr 0.26896 0.75827 0.22183
 O718 O 0.24962 0.77995 0.24022
 Zr719 Zr 0.28961 0.73206 0.26632
 O720 O 0.27159 0.75268 0.28705
 O721 O 0.23449 0.77046 0.27738
 O722 O 0.27498 0.72702 0.23558
 C723 C 0.22432 0.81393 0.26070
 C724 C 0.19101 0.75453 0.28705
 C725 C 0.25333 0.77973 0.32007
 C726 C 0.28494 0.68371 0.25180
 C727 C 0.25788 0.71811 0.19306
 C728 C 0.31744 0.74076 0.22510
 H729 H 0.22948 0.74405 0.21221
 H730 H 0.29969 0.77066 0.25024
 H731 H 0.22548 0.77993 0.28670
 H732 H 0.26058 0.70368 0.28040
 H733 H 0.21665 0.69246 0.26437
 H734 H 0.22811 0.69965 0.29848
 H735 H 0.29597 0.79056 0.21824
 H736 H 0.28006 0.82265 0.26315
 H737 H 0.20980 0.71425 0.21492
 H738 H 0.18903 0.73822 0.23652
 H739 H 0.33059 0.73722 0.27952
 H740 H 0.30054 0.78118 0.29577
 H741 H 0.21812 0.79110 0.21303
 H742 H 0.24185 0.77235 0.19110
 H743 H 0.26987 0.72903 0.32140
 H744 H 0.29174 0.70483 0.29986
 O745 O 0.24014 0.68783 0.77203
 O746 O 0.27770 0.68687 0.76164
 O747 O 0.24053 0.74024 0.81844
 O748 O 0.24741 0.77564 0.81886
 O749 O 0.18876 0.73766 0.76685
 O750 O 0.18725 0.74725 0.73039
 O751 O 0.29259 0.79789 0.75703
 O752 O 0.29755 0.78158 0.79269
 O753 O 0.29804 0.74476 0.71405
 O754 O 0.28150 0.71133 0.70892
 O755 O 0.24730 0.79111 0.70617
 O756 O 0.21047 0.79380 0.72272
 O757 O 0.26157 0.81115 0.73928
 O758 O 0.22366 0.81217 0.75095
 O759 O 0.26261 0.75961 0.69393
 O760 O 0.25035 0.71909 0.69773
 O761 O 0.31200 0.76300 0.74321
 O762 O 0.31503 0.75262 0.78116
 O763 O 0.20911 0.70124 0.75449
 O764 O 0.20665 0.71854 0.71735
 O765 O 0.20288 0.75507 0.79653
 O766 O 0.22153 0.79037 0.79876
 O767 O 0.25708 0.70911 0.80664
 O768 O 0.29079 0.70329 0.78847
 Zr769 Zr 0.26114 0.71501 0.77306
 O770 O 0.28126 0.73324 0.75237
 Zr771 Zr 0.23625 0.76014 0.79005
 O772 O 0.25564 0.78035 0.77041
 Zr773 Zr 0.21593 0.73423 0.74683
 O774 O 0.23410 0.75372 0.72529
 Zr775 Zr 0.28589 0.76482 0.76481
 O776 O 0.26773 0.74567 0.78696
 Zr777 Zr 0.26521 0.73891 0.72185
 O778 O 0.24619 0.71816 0.74166
 Zr779 Zr 0.24053 0.78425 0.73911
 O780 O 0.22003 0.76581 0.75959
 O781 O 0.23040 0.72918 0.77787
 O782 O 0.27131 0.77010 0.73383
 C783 C 0.22059 0.68557 0.76384
 C784 C 0.24923 0.72101 0.82176
 C785 C 0.18683 0.74677 0.78548
 C786 C 0.28116 0.81342 0.74728
 C787 C 0.31378 0.75431 0.72437
 C788 C 0.25531 0.77939 0.69101
 H789 H 0.29533 0.72515 0.75079
 H790 H 0.22578 0.75555 0.71118
 H791 H 0.22138 0.72025 0.78776
 H792 H 0.25785 0.79450 0.77769
 H793 H 0.29262 0.77326 0.80567
 H794 H 0.25933 0.78555 0.81470
 H795 H 0.23865 0.72802 0.69001
 H796 H 0.19312 0.71007 0.71973
 H797 H 0.31819 0.73771 0.77586
 H798 H 0.29623 0.71528 0.79775
 H799 H 0.21290 0.80705 0.71345
 H800 H 0.18628 0.76299 0.73397
 H801 H 0.27121 0.68395 0.74696
 H802 H 0.28990 0.70394 0.72116
 H803 H 0.20974 0.79388 0.78764
 H804 H 0.23140 0.81691 0.76446
 O805 O 0.25270 0.20583 0.19898
 O806 O 0.28810 0.20050 0.21733
 O807 O 0.20924 0.19880 0.25290
 O808 O 0.20441 0.21477 0.28499
 O809 O 0.19957 0.25235 0.20590
 O810 O 0.21679 0.28717 0.20279
 O811 O 0.26632 0.25859 0.30863
 O812 O 0.25470 0.22076 0.30942
 O813 O 0.31283 0.25993 0.25805
 O814 O 0.31078 0.24867 0.21893
 O815 O 0.26350 0.30824 0.26078
 O816 O 0.22454 0.30911 0.24653
 O817 O 0.24894 0.28949 0.29492
 O818 O 0.21311 0.29445 0.27756
 O819 O 0.29266 0.29482 0.24268
 O820 O 0.29510 0.27927 0.20895
 O821 O 0.30084 0.24343 0.28897
 O822 O 0.28561 0.20975 0.29539
 O823 O 0.23442 0.23638 0.18572
 O824 O 0.24569 0.27428 0.18509
 O825 O 0.18809 0.23526 0.23680
 O826 O 0.19009 0.24639 0.27468
 O827 O 0.23846 0.18547 0.23475
 O828 O 0.27661 0.18417 0.24479
 Zr829 Zr 0.25943 0.21240 0.23216
 O830 O 0.28117 0.23084 0.25154
 Zr831 Zr 0.21626 0.23206 0.25754
 O832 O 0.23613 0.25153 0.27785
 Zr833 Zr 0.23320 0.25739 0.21263
 O834 O 0.25407 0.27765 0.23108
 Zr835 Zr 0.26756 0.23719 0.28197
 O836 O 0.24697 0.21612 0.26366
 Zr837 Zr 0.28475 0.26202 0.23701
 O838 O 0.26482 0.24272 0.21619
 Zr839 Zr 0.24142 0.28202 0.26224
 O840 O 0.21930 0.26339 0.24307
 O841 O 0.22838 0.22659 0.22677
 O842 O 0.27270 0.26805 0.26792
 C843 C 0.24309 0.21720 0.18338
 C844 C 0.21980 0.18320 0.24372
 C845 C 0.18456 0.24395 0.21765
 C846 C 0.25826 0.27811 0.31066
 C847 C 0.31597 0.25204 0.27758
 C848 C 0.28228 0.31039 0.25204
 H849 H 0.29539 0.22280 0.25322
 H850 H 0.25552 0.29185 0.22313
 H851 H 0.21860 0.21741 0.21767
 H852 H 0.22907 0.25310 0.29207
 H853 H 0.24716 0.20758 0.30395
 H854 H 0.21222 0.22029 0.29813
 H855 H 0.28534 0.27475 0.19667
 H856 H 0.23525 0.27283 0.17241
 H857 H 0.29187 0.20173 0.28310
 H858 H 0.27101 0.18124 0.25957
 H859 H 0.22771 0.32265 0.25473
 H860 H 0.20634 0.29088 0.21428
 H861 H 0.29236 0.21195 0.20663
 H862 H 0.31667 0.23544 0.22691
 H863 H 0.18657 0.26079 0.26748
 H864 H 0.20906 0.28382 0.28912
 O865 O 0.79193 0.70161 0.24470
 O866 O 0.79510 0.71961 0.20984
 O867 O 0.80056 0.75535 0.28848
 O868 O 0.78425 0.78757 0.29444
 O869 O 0.74799 0.70910 0.29755
 O870 O 0.71332 0.70562 0.28133
 O871 O 0.73649 0.81274 0.23222
 O872 O 0.77419 0.81330 0.24341
 O873 O 0.73282 0.76192 0.18595
 O874 O 0.74148 0.72536 0.18471
 O875 O 0.68741 0.76612 0.23607
 O876 O 0.68951 0.75232 0.27490
 O877 O 0.70688 0.80004 0.25000
 O878 O 0.70467 0.78303 0.28589
 O879 O 0.69904 0.74725 0.20688
 O880 O 0.72063 0.70988 0.20515
 O881 O 0.74973 0.79253 0.19799
 O882 O 0.78556 0.79742 0.21407
 O883 O 0.76249 0.68891 0.26270
 O884 O 0.72367 0.69024 0.24971
 O885 O 0.76542 0.73950 0.30958
 O886 O 0.75339 0.77809 0.30818
 O887 O 0.81256 0.73727 0.25888
 O888 O 0.81087 0.74769 0.22082
 Zr889 Zr 0.78432 0.73506 0.23833
 O890 O 0.76400 0.75466 0.21709
 Zr891 Zr 0.76671 0.76066 0.28192
 O892 O 0.74595 0.78172 0.26246
 Zr893 Zr 0.74106 0.71637 0.26429
 O894 O 0.71891 0.73565 0.24446
 Zr895 Zr 0.75820 0.78542 0.23099
 O896 O 0.78071 0.76665 0.25130
 Zr897 Zr 0.73268 0.74102 0.21380
 O898 O 0.75397 0.71981 0.23287
 Zr899 Zr 0.71521 0.76705 0.25744
 O900 O 0.73538 0.74695 0.27880
 O901 O 0.77198 0.72977 0.26920
 O902 O 0.72709 0.77222 0.22618
 C903 C 0.78130 0.68617 0.25407
 C904 C 0.81578 0.74608 0.27759
 C905 C 0.75718 0.72042 0.31269
 C906 C 0.71741 0.81539 0.24041
 C907 C 0.74037 0.78129 0.18291
 C908 C 0.68403 0.75710 0.21750
 H909 H 0.77099 0.75594 0.20277
 H910 H 0.70466 0.72812 0.24344
 H911 H 0.78191 0.72042 0.27874
 H912 H 0.74470 0.79611 0.26954
 H913 H 0.78732 0.80783 0.25200
 H914 H 0.77841 0.80095 0.28670
 H915 H 0.70648 0.70789 0.21240
 H916 H 0.72606 0.67671 0.25887
 H917 H 0.79053 0.78593 0.20408
 H918 H 0.81351 0.76260 0.22637
 H919 H 0.67563 0.76082 0.27192
 H920 H 0.70828 0.71807 0.29016
 H921 H 0.78345 0.70932 0.20539
 H922 H 0.75745 0.72738 0.18315
 H923 H 0.73943 0.77097 0.31180
 H924 H 0.71531 0.79455 0.28960
 O925 O 0.70507 0.24408 0.79486
 O926 O 0.72342 0.20902 0.79962
 O927 O 0.75890 0.28816 0.80340
 O928 O 0.79070 0.29484 0.78772
 O929 O 0.71110 0.29792 0.74973
 O930 O 0.70719 0.28235 0.71539
 O931 O 0.81511 0.23335 0.74309
 O932 O 0.81647 0.24412 0.78035
 O933 O 0.76436 0.18660 0.74004
 O934 O 0.72775 0.18511 0.74774
 O935 O 0.76738 0.23756 0.69301
 O936 O 0.75308 0.27648 0.69328
 O937 O 0.80161 0.25182 0.71274
 O938 O 0.78424 0.28751 0.70858
 O939 O 0.74912 0.20786 0.70535
 O940 O 0.71208 0.20556 0.72536
 O941 O 0.79536 0.19853 0.75731
 O942 O 0.80129 0.21417 0.79218
 O943 O 0.69156 0.26258 0.76455
 O944 O 0.69207 0.25030 0.72638
 O945 O 0.74186 0.30988 0.76757
 O946 O 0.78018 0.30917 0.75631
 O947 O 0.74104 0.25817 0.81578
 O948 O 0.75165 0.22016 0.81595
 Zr949 Zr 0.73841 0.23802 0.78843
 O950 O 0.75776 0.21724 0.76959
 Zr951 Zr 0.76338 0.28233 0.77007
 O952 O 0.78411 0.26334 0.75065
 Zr953 Zr 0.71854 0.26478 0.74393
 O954 O 0.73744 0.24534 0.72317
 Zr955 Zr 0.78834 0.23157 0.76411
 O956 O 0.76989 0.25138 0.78528
 Zr957 Zr 0.74332 0.21440 0.73822
 O958 O 0.72242 0.23303 0.75803
 Zr959 Zr 0.76870 0.25870 0.71985
 O960 O 0.74894 0.27969 0.73861
 O961 O 0.73267 0.26920 0.77489
 O962 O 0.77436 0.22714 0.73299
 C963 C 0.68932 0.25362 0.78355
 C964 C 0.74986 0.27693 0.81859
 C965 C 0.72245 0.31298 0.75892
 C966 C 0.81729 0.24205 0.72393
 C967 C 0.78389 0.18349 0.74828
 C968 C 0.75857 0.21877 0.69026
 H969 H 0.75931 0.20278 0.77716
 H970 H 0.72961 0.24445 0.70880
 H971 H 0.72348 0.27848 0.78422
 H972 H 0.79842 0.27061 0.74953
 H973 H 0.81121 0.25241 0.79299
 H974 H 0.80402 0.28737 0.78244
 H975 H 0.70975 0.21317 0.71101
 H976 H 0.67855 0.25942 0.72802
 H977 H 0.78976 0.20443 0.79759
 H978 H 0.76660 0.22580 0.81883
 H979 H 0.76116 0.27367 0.67974
 H980 H 0.71935 0.29174 0.71071
 H981 H 0.71270 0.20484 0.78799
 H982 H 0.73065 0.18299 0.76365
 H983 H 0.77253 0.31309 0.74219
 H984 H 0.79564 0.29149 0.71960
 C985 C 0.08664 1.00653 1.19061
 C986 C 0.10387 0.99111 1.19267
 C987 C 0.11569 0.98831 1.21247
 C988 C 0.11014 1.00046 1.23104
 C989 C 0.09310 1.01652 1.22838
 C990 C 0.08129 1.01930 1.20847
 C991 C 0.07525 1.00956 1.16975
 C992 C 0.06656 1.01132 1.15179
 C993 C 0.05716 1.01244 1.12990
 C994 C 0.06970 1.00532 1.11255
 C995 C 0.06053 1.00514 1.09135
 C996 C 0.03858 1.01209 1.08714
 C997 C 0.02620 1.01966 1.10465
 C998 C 0.03544 1.01978 1.12590
 H999 H 0.10853 0.98152 1.17877
 H1000 H 0.12964 0.97705 1.21278
 H1001 H 0.08910 1.02710 1.24175
 H1002 H 0.06825 1.03164 1.20693
 H1003 H 0.08653 0.99958 1.11546
 H1004 H 0.07060 0.99929 1.07830
 H1005 H 0.00927 1.02512 1.10201
 H1006 H 0.02556 1.02530 1.13924
 C1007 C 0.58740 0.50769 0.69313
 C1008 C 0.60484 0.49251 0.69502
 C1009 C 0.61642 0.48938 0.71489
 C1010 C 0.61038 0.50092 0.73369
 C1011 C 0.59324 0.51687 0.73119
 C1012 C 0.58166 0.51999 0.71120
 C1013 C 0.57607 0.51082 0.67230
 C1014 C 0.56743 0.51253 0.65433
 C1015 C 0.55809 0.51351 0.63245
 C1016 C 0.57058 0.50602 0.61522
 C1017 C 0.56144 0.50573 0.59402
 C1018 C 0.53959 0.51294 0.58973
 C1019 C 0.52724 0.52080 0.60713
 C1020 C 0.53645 0.52104 0.62838
 H1021 H 0.60979 0.48331 0.68095
 H1022 H 0.63050 0.47829 0.71512
 H1023 H 0.58890 0.52703 0.74477
 H1024 H 0.56844 0.53215 0.70978
 H1025 H 0.58734 0.50012 0.61822
 H1026 H 0.57145 0.49963 0.58105
 H1027 H 0.51038 0.52646 0.60442
 H1028 H 0.52663 0.52681 0.64164
 C1029 C 0.41541 -0.00069 0.68538
 C1030 C 0.40478 0.01850 0.69193
 C1031 C 0.39316 0.01859 0.71129
 C1032 C 0.39111 -0.00087 0.72404
 C1033 C 0.40409 -0.01930 0.71843
 C1034 C 0.41568 -0.01937 0.69905
 C1035 C 0.42505 -0.00150 0.66418
 C1036 C 0.43248 -0.00224 0.64614
 C1037 C 0.44090 -0.00307 0.62440
 C1038 C 0.42872 0.00635 0.60668
 C1039 C 0.43698 0.00591 0.58559
 C1040 C 0.45760 -0.00399 0.58192
 C1041 C 0.46956 -0.01369 0.59984
 C1042 C 0.46126 -0.01322 0.62089
 H1043 H 0.40510 0.03333 0.68185
 H1044 H 0.38565 0.03394 0.71593
 H1045 H 0.40419 -0.03414 0.72850
 H1046 H 0.42432 -0.03420 0.69445
 H1047 H 0.41290 0.01420 0.60918
 H1048 H 0.42733 0.01357 0.57224
 H1049 H 0.48548 -0.02144 0.59767
 H1050 H 0.47080 -0.02063 0.63446
 C1051 C -0.08773 0.49388 1.18561
 C1052 C -0.07635 0.49099 1.20575
 C1053 C -0.08758 0.49247 1.22535
 C1054 C -0.11039 0.49744 1.22511
 C1055 C -0.12160 0.49938 1.20453
 C1056 C -0.11039 0.49790 1.18510
 C1057 C -0.07653 0.49276 1.16525
 C1058 C -0.06815 0.49227 1.14765
 C1059 C -0.05913 0.49222 1.12616
 C1060 C -0.03817 0.48326 1.12290
 C1061 C -0.02945 0.48368 1.10199
 C1062 C -0.04160 0.49309 1.08404
 C1063 C -0.06275 0.50184 1.08751
 C1064 C -0.07141 0.50139 1.10840
 H1065 H -0.05883 0.48741 1.20631
 H1066 H -0.07837 0.48925 1.24050
 H1067 H -0.13923 0.50227 1.20357
 H1068 H -0.11945 0.49987 1.16962
 H1069 H -0.02852 0.47610 1.13652
 H1070 H -0.01312 0.47681 1.09996
 H1071 H -0.07258 0.50920 1.07413
 H1072 H -0.08767 0.50834 1.11073
 C1073 C -0.08841 0.50527 0.30864
 C1074 C -0.10482 0.48971 0.30649
 C1075 C -0.11580 0.48699 0.28642
 C1076 C -0.11021 0.49937 0.26761
 C1077 C -0.09394 0.51547 0.27027
 C1078 C -0.08297 0.51819 0.29050
 C1079 C -0.07798 0.50818 0.32981
 C1080 C -0.07002 0.50973 0.34801
 C1081 C -0.06114 0.51057 0.37008
 C1082 C -0.07286 0.50146 0.38727
 C1083 C -0.06384 0.50095 0.40859
 C1084 C -0.04288 0.50953 0.41303
 C1085 C -0.03144 0.51911 0.39567
 C1086 C -0.04051 0.51958 0.37436
 H1087 H -0.10955 0.47996 0.32055
 H1088 H -0.12924 0.47564 0.28610
 H1089 H -0.08998 0.52622 0.25670
 H1090 H -0.07054 0.53062 0.29207
 H1091 H -0.08884 0.49441 0.38414
 H1092 H -0.07312 0.49348 0.42150
 H1093 H -0.01529 0.52589 0.39846
 H1094 H -0.03128 0.52664 0.36118
 C1095 C 0.41881 0.99687 -0.19694
 C1096 C 0.40893 0.97739 -0.20337
 C1097 C 0.39647 0.97680 -0.22296
 C1098 C 0.39283 0.99604 -0.23601
 C1099 C 0.40530 1.01466 -0.23063
 C1100 C 0.41772 1.01523 -0.21104
 C1101 C 0.42857 0.99845 -0.17528
 C1102 C 0.43584 0.99987 -0.15678
 C1103 C 0.44382 1.00146 -0.13445
 C1104 C 0.43160 0.99270 -0.11745
 C1105 C 0.43942 0.99378 -0.09576
 C1106 C 0.45964 1.00365 -0.09073
 C1107 C 0.47161 1.01279 -0.10793
 C1108 C 0.46374 1.01168 -0.12962
 H1109 H 0.41029 0.96281 -0.19293
 H1110 H 0.38937 0.96133 -0.22739
 H1111 H 0.40411 1.02936 -0.24090
 H1112 H 0.42574 1.03028 -0.20650
 H1113 H 0.41610 0.98483 -0.12099
 H1114 H 0.42978 0.98654 -0.08299
 H1115 H 0.48724 1.02050 -0.10471
 H1116 H 0.47330 1.01861 -0.14263
 C1117 C 0.58702 0.49165 -0.18512
 C1118 C 0.60942 0.49613 -0.18412
 C1119 C 0.62098 0.49845 -0.20329
 C1120 C 0.61028 0.49698 -0.22404
 C1121 C 0.58783 0.49133 -0.22472
 C1122 C 0.57626 0.48901 -0.20542
 C1123 C 0.57532 0.49003 -0.16514
 C1124 C 0.56641 0.48927 -0.14785
 C1125 C 0.55674 0.48909 -0.12673
 C1126 C 0.56848 0.49758 -0.10890
 C1127 C 0.55914 0.49814 -0.08837
 C1128 C 0.53785 0.49020 -0.08538
 C1129 C 0.52626 0.48142 -0.10339
 C1130 C 0.53567 0.48091 -0.12395
 H1131 H 0.61800 0.49787 -0.16846
 H1132 H 0.63840 0.50172 -0.20198
 H1133 H 0.57915 0.48829 -0.24001
 H1134 H 0.55897 0.48506 -0.20632
 H1135 H 0.58483 0.50395 -0.11090
 H1136 H 0.56857 0.50494 -0.07490
 H1137 H 0.50985 0.47516 -0.10167
 H1138 H 0.52645 0.47430 -0.13768
 C1139 C 0.08867 -0.00583 0.31312
 C1140 C 0.11111 -0.00151 0.31342
 C1141 C 0.12221 0.00004 0.29390
 C1142 C 0.11103 -0.00208 0.27346
 C1143 C 0.08854 -0.00754 0.27352
 C1144 C 0.07743 -0.00908 0.29318
 C1145 C 0.07746 -0.00682 0.33345
 C1146 C 0.06881 -0.00724 0.35089
 C1147 C 0.05919 -0.00727 0.37207
 C1148 C 0.07051 0.00205 0.38973
 C1149 C 0.06123 0.00236 0.41033
 C1150 C 0.04043 -0.00668 0.41354
 C1151 C 0.02923 -0.01615 0.39566
 C1152 C 0.03857 -0.01642 0.37507
 H1153 H 0.12008 0.00070 0.32879
 H1154 H 0.13967 0.00322 0.29468
 H1155 H 0.07948 -0.01102 0.25855
 H1156 H 0.06012 -0.01294 0.29283
 H1157 H 0.08651 0.00918 0.38757
 H1158 H 0.07032 0.00977 0.42368
 H1159 H 0.01321 -0.02327 0.39752
 H1160 H 0.02968 -0.02369 0.36149
 C1161 C 0.18658 1.09173 1.00634
 C1162 C 0.18763 1.10954 0.99173
 C1163 C 0.20746 1.12012 0.98876
 C1164 C 0.22706 1.11269 0.99986
 C1165 C 0.22547 1.09520 1.01526
 C1166 C 0.20551 1.08461 1.01821
 C1167 C 0.16580 1.08131 1.00920
 C1168 C 0.14793 1.07328 1.01071
 C1169 C 0.12625 1.06430 1.01151
 C1170 C 0.10833 1.07608 1.00195
 C1171 C 0.08741 1.06698 1.00140
 C1172 C 0.08411 1.04588 1.01039
 C1173 C 0.10217 1.03437 1.02042
 C1174 C 0.12310 1.04352 1.02093
 H1175 H 0.17296 1.11554 0.98283
 H1176 H 0.20713 1.13451 0.97810
 H1177 H 0.23971 1.08983 1.02515
 H1178 H 0.20479 1.07108 1.02993
 H1179 H 0.11060 1.09218 0.99459
 H1180 H 0.07393 1.07633 0.99358
 H1181 H 0.10026 1.01810 1.02751
 H1182 H 0.13686 1.03424 1.02834
 C1183 C 0.68691 0.59344 0.50567
 C1184 C 0.68841 0.61119 0.49104
 C1185 C 0.70826 0.62198 0.48892
 C1186 C 0.72745 0.61484 0.50093
 C1187 C 0.72538 0.59734 0.51624
 C1188 C 0.70540 0.58656 0.51834
 C1189 C 0.66606 0.58296 0.50790
 C1190 C 0.64820 0.57485 0.50909
 C1191 C 0.62659 0.56569 0.50980
 C1192 C 0.60862 0.57715 0.49993
 C1193 C 0.58769 0.56805 0.49981
 C1194 C 0.58444 0.54728 0.50957
 C1195 C 0.60259 0.53602 0.51973
 C1196 C 0.62351 0.54517 0.51981
 H1197 H 0.67406 0.61702 0.48153
 H1198 H 0.70822 0.63635 0.47824
 H1199 H 0.73924 0.59217 0.52676
 H1200 H 0.70431 0.57309 0.53008
 H1201 H 0.61083 0.59305 0.49211
 H1202 H 0.57414 0.57719 0.49185
 H1203 H 0.60073 0.52002 0.52742
 H1204 H 0.63730 0.53615 0.52749
 C1205 C 0.68859 0.40933 -0.00626
 C1206 C 0.70807 0.42044 -0.01005
 C1207 C 0.72838 0.40925 -0.00798
 C1208 C 0.72952 0.38684 -0.00144
 C1209 C 0.70951 0.37580 0.00121
 C1210 C 0.68937 0.38697 -0.00087
 C1211 C 0.66762 0.42056 -0.00769
 C1212 C 0.64958 0.42906 -0.00831
 C1213 C 0.62771 0.43837 -0.00839
 C1214 C 0.62329 0.45930 -0.01747
 C1215 C 0.60208 0.46844 -0.01692
 C1216 C 0.58502 0.45674 -0.00724
 C1217 C 0.58963 0.43558 0.00160
 C1218 C 0.61084 0.42649 0.00102
 H1219 H 0.70757 0.43770 -0.01472
 H1220 H 0.74296 0.41817 -0.01191
 H1221 H 0.70956 0.35840 0.00521
 H1222 H 0.67437 0.37812 0.00177
 H1223 H 0.63625 0.46862 -0.02480
 H1224 H 0.59913 0.48476 -0.02391
 H1225 H 0.57692 0.42609 0.00915
 H1226 H 0.61412 0.41025 0.00808
 C1227 C 0.19066 -0.08860 0.50593
 C1228 C 0.21047 -0.07763 0.50903
 C1229 C 0.23051 -0.08928 0.50875
 C1230 C 0.23104 -0.11205 0.50464
 C1231 C 0.21075 -0.12292 0.50300
 C1232 C 0.19085 -0.11130 0.50332
 C1233 C 0.16996 -0.07685 0.50521
 C1234 C 0.15211 -0.06795 0.50423
 C1235 C 0.13036 -0.05834 0.50285
 C1236 C 0.12648 -0.03798 0.49230
 C1237 C 0.10512 -0.02910 0.49049
 C1238 C 0.08738 -0.04055 0.49919
 C1239 C 0.09153 -0.06105 0.50973
 C1240 C 0.11286 -0.06985 0.51152
 H1241 H 0.21043 -0.06010 0.51166
 H1242 H 0.24539 -0.08033 0.51195
 H1243 H 0.21039 -0.14052 0.50088
 H1244 H 0.17559 -0.12003 0.50132
 H1245 H 0.13993 -0.02901 0.48542
 H1246 H 0.10254 -0.01329 0.48230
 H1247 H 0.07831 -0.07032 0.51664
 H1248 H 0.11570 -0.08570 0.51960
 C1249 C 0.31258 -0.08822 0.49782
 C1250 C 0.29424 -0.08329 0.48413
 C1251 C 0.27504 -0.09537 0.48611
 C1252 C 0.27354 -0.11212 0.50232
 C1253 C 0.29278 -0.11756 0.51507
 C1254 C 0.31186 -0.10551 0.51306
 C1255 C 0.33251 -0.07611 0.49612
 C1256 C 0.34971 -0.06669 0.49548
 C1257 C 0.37068 -0.05625 0.49539
 C1258 C 0.37353 -0.03606 0.50549
 C1259 C 0.39426 -0.02653 0.50638
 C1260 C 0.41243 -0.03716 0.49721
 C1261 C 0.40931 -0.05743 0.48700
 C1262 C 0.38858 -0.06689 0.48613
 H1263 H 0.29481 -0.07024 0.47187
 H1264 H 0.26120 -0.09154 0.47503
 H1265 H 0.29349 -0.13142 0.52640
 H1266 H 0.32622 -0.10989 0.52329
 H1267 H 0.35979 -0.02778 0.51285
 H1268 H 0.39605 -0.01092 0.51433
 H1269 H 0.42288 -0.06606 0.47974
 H1270 H 0.38657 -0.08261 0.47842
 C1271 C -0.18817 0.41057 1.00437
 C1272 C -0.20601 0.41649 1.01699
 C1273 C -0.22549 0.40464 1.01555
 C1274 C -0.22775 0.38712 1.00090
 C1275 C -0.20902 0.38080 0.98921
 C1276 C -0.18969 0.39261 0.99067
 C1277 C -0.16792 0.42232 1.00555
 C1278 C -0.15048 0.43134 1.00569
 C1279 C -0.12929 0.44133 1.00505
 C1280 C -0.12597 0.46200 1.01395
 C1281 C -0.10537 0.47168 1.01295
 C1282 C -0.08780 0.46077 1.00300
 C1283 C -0.09135 0.43996 0.99413
 C1284 C -0.11195 0.43033 0.99515
 H1285 H -0.20482 0.43009 1.02807
 H1286 H -0.23889 0.40916 1.02590
 H1287 H -0.20892 0.36639 0.97919
 H1288 H -0.17574 0.38750 0.98129
 H1289 H -0.13930 0.47066 1.02161
 H1290 H -0.10323 0.48770 1.01998
 H1291 H -0.07823 0.43108 0.98638
 H1292 H -0.11438 0.41432 0.98818
 C1293 C -0.18964 0.59057 0.49553
 C1294 C -0.18963 0.61258 0.50138
 C1295 C -0.20942 0.62415 0.50327
 C1296 C -0.22986 0.61387 0.49992
 C1297 C -0.22956 0.59174 0.49334
 C1298 C -0.20962 0.58016 0.49144
 C1299 C -0.16894 0.57908 0.49345
 C1300 C -0.15110 0.57034 0.49212
 C1301 C -0.12938 0.56071 0.49110
 C1302 C -0.11129 0.57217 0.49929
 C1303 C -0.09020 0.56270 0.49919
 C1304 C -0.08688 0.54156 0.49088
 C1305 C -0.10515 0.53034 0.48227
 C1306 C -0.12625 0.53986 0.48241
 H1307 H -0.17427 0.62093 0.50427
 H1308 H -0.20882 0.64136 0.50730
 H1309 H -0.24458 0.58344 0.48903
 H1310 H -0.20978 0.56320 0.48645
 H1311 H -0.11353 0.58834 0.50603
 H1312 H -0.07657 0.57184 0.50593
 H1313 H -0.10322 0.51404 0.47575
 H1314 H -0.14014 0.53085 0.47599
 C1315 C 0.30930 1.08737 -0.00876
 C1316 C 0.30980 1.10938 -0.00295
 C1317 C 0.29027 1.12120 -0.00035
 C1318 C 0.26961 1.11116 -0.00292
 C1319 C 0.26937 1.08903 -0.00949
 C1320 C 0.28907 1.07720 -0.01210
 C1321 C 0.32976 1.07564 -0.01145
 C1322 C 0.34753 1.06686 -0.01318
 C1323 C 0.36931 1.05742 -0.01447
 C1324 C 0.38741 1.06960 -0.00755
 C1325 C 0.40858 1.06034 -0.00751
 C1326 C 0.41199 1.03867 -0.01441
 C1327 C 0.39372 1.02673 -0.02190
 C1328 C 0.37251 1.03605 -0.02188
 H1329 H 0.32535 1.11754 -0.00063
 H1330 H 0.29125 1.13840 0.00362
 H1331 H 0.25411 1.08093 -0.01324
 H1332 H 0.28850 1.06023 -0.01704
 H1333 H 0.38512 1.08618 -0.00181
 H1334 H 0.42221 1.07005 -0.00169
 H1335 H 0.39573 1.01000 -0.02729
 H1336 H 0.35861 1.02648 -0.02729
 C1337 C 0.00047 1.19294 1.08320
 C1338 C -0.01909 1.20530 1.08380
 C1339 C -0.02000 1.22422 1.09633
 C1340 C -0.00167 1.23050 1.10937
 C1341 C 0.01850 1.21913 1.10655
 C1342 C 0.01940 1.20030 1.09399
 C1343 C 0.00096 1.17209 1.07266
 C1344 C 0.00158 1.15419 1.06468
 C1345 C 0.00239 1.13251 1.05586
 C1346 C 0.01205 1.12893 1.03578
 C1347 C 0.01275 1.10782 1.02725
 C1348 C 0.00377 1.09000 1.03874
 C1349 C -0.00565 1.09377 1.05908
 C1350 C -0.00632 1.11489 1.06756
 H1351 H -0.03376 1.20003 1.07506
 H1352 H -0.03539 1.23340 1.09675
 H1353 H 0.03370 1.22446 1.11415
 H1354 H 0.03482 1.19124 1.09304
 H1355 H 0.01894 1.14245 1.02666
 H1356 H 0.02013 1.10554 1.01156
 H1357 H -0.01271 1.08047 1.06837
 H1358 H -0.01374 1.11750 1.08319
 C1359 C 0.49650 0.69578 0.58386
 C1360 C 0.51567 0.70263 0.59462
 C1361 C 0.51534 0.72151 0.60715
 C1362 C 0.49550 0.73348 0.60994
 C1363 C 0.47695 0.72763 0.59699
 C1364 C 0.47729 0.70866 0.58450
 C1365 C 0.49642 0.67496 0.57321
 C1366 C 0.49665 0.65708 0.56513
 C1367 C 0.49719 0.63541 0.55625
 C1368 C 0.48808 0.61790 0.56778
 C1369 C 0.48907 0.59668 0.55955
 C1370 C 0.49924 0.59269 0.53962
 C1371 C 0.50834 0.61045 0.52815
 C1372 C 0.50732 0.63165 0.53643
 H1373 H 0.53084 0.69314 0.59366
 H1374 H 0.53070 0.72644 0.61471
 H1375 H 0.46181 0.73723 0.59741
 H1376 H 0.46245 0.70380 0.57578
 H1377 H 0.48028 0.62063 0.58320
 H1378 H 0.48188 0.58344 0.56881
 H1379 H 0.51628 0.60801 0.51277
 H1380 H 0.51452 0.64508 0.52743
 C1381 C -0.00484 0.68884 0.41102
 C1382 C 0.01072 0.69001 0.39479
 C1383 C 0.01382 0.70966 0.38332
 C1384 C 0.00187 0.72898 0.38829
 C1385 C -0.01446 0.72721 0.40416
 C1386 C -0.01754 0.70743 0.41563
 C1387 C -0.00791 0.66820 0.42228
 C1388 C -0.00955 0.65038 0.43093
 C1389 C -0.01043 0.62861 0.44041
 C1390 C -0.00309 0.61073 0.42845
 C1391 C -0.00257 0.58962 0.43780
 C1392 C -0.00938 0.58604 0.45935
 C1393 C -0.01716 0.60409 0.47112
 C1394 C -0.01763 0.62525 0.46170
 H1395 H 0.02025 0.67554 0.39068
 H1396 H 0.02525 0.70933 0.37016
 H1397 H -0.02492 0.74120 0.40760
 H1398 H -0.03000 0.70659 0.42787
 H1399 H 0.00256 0.61316 0.41197
 H1400 H 0.00343 0.57615 0.42821
 H1401 H -0.02254 0.60194 0.48772
 H1402 H -0.02329 0.63899 0.47113
 C1403 C 0.49676 1.18751 -0.09035
 C1404 C 0.51224 1.18933 -0.10661
 C1405 C 0.51500 1.20932 -0.11762
 C1406 C 0.50276 1.22833 -0.11219
 C1407 C 0.48671 1.22596 -0.09612
 C1408 C 0.48395 1.20585 -0.08512
 C1409 C 0.49375 1.16647 -0.07981
 C1410 C 0.49197 1.14841 -0.07166
 C1411 C 0.49073 1.12649 -0.06255
 C1412 C 0.49936 1.10878 -0.07395
 C1413 C 0.49931 1.08757 -0.06480
 C1414 C 0.49062 1.08373 -0.04404
 C1415 C 0.48157 1.10161 -0.03289
 C1416 C 0.48167 1.12284 -0.04208
 H1417 H 0.52188 1.17511 -0.11117
 H1418 H 0.52629 1.20944 -0.13090
 H1419 H 0.47606 1.23970 -0.09229
 H1420 H 0.47158 1.20453 -0.07283
 H1421 H 0.50644 1.11143 -0.08980
 H1422 H 0.50638 1.07424 -0.07388
 H1423 H 0.47474 1.09928 -0.01689
 H1424 H 0.47496 1.13642 -0.03310
 C1425 C 0.50882 0.31056 -0.08915
 C1426 C 0.51196 0.29035 -0.07807
 C1427 C 0.51035 0.27069 -0.08947
 C1428 C 0.50495 0.27092 -0.11214
 C1429 C 0.50282 0.29157 -0.12307
 C1430 C 0.50444 0.31108 -0.11169
 C1431 C 0.50995 0.33095 -0.07770
 C1432 C 0.51038 0.34853 -0.06899
 C1433 C 0.51025 0.36996 -0.05946
 C1434 C 0.51861 0.37289 -0.03817
 C1435 C 0.51773 0.39368 -0.02886
 C1436 C 0.50841 0.41182 -0.04074
 C1437 C 0.50037 0.40869 -0.06227
 C1438 C 0.50129 0.38793 -0.07152
 H1439 H 0.51582 0.28979 -0.06065
 H1440 H 0.51377 0.25549 -0.08048
 H1441 H 0.49965 0.29253 -0.14059
 H1442 H 0.50228 0.32662 -0.12052
 H1443 H 0.52560 0.35910 -0.02869
 H1444 H 0.52408 0.39546 -0.01226
 H1445 H 0.49313 0.42223 -0.07192
 H1446 H 0.49479 0.38585 -0.08803
 C1447 C 0.00908 -0.18908 0.41134
 C1448 C 0.01174 -0.20930 0.42247
 C1449 C 0.01015 -0.22891 0.41102
 C1450 C 0.00522 -0.22861 0.38825
 C1451 C 0.00374 -0.20795 0.37727
 C1452 C 0.00534 -0.18848 0.38871
 C1453 C 0.00992 -0.16875 0.42284
 C1454 C 0.01007 -0.15118 0.43153
 C1455 C 0.00962 -0.12971 0.44089
 C1456 C 0.01794 -0.12648 0.46214
 C1457 C 0.01703 -0.10556 0.47114
 C1458 C 0.00773 -0.08761 0.45897
 C1459 C -0.00043 -0.09108 0.43755
 C1460 C 0.00052 -0.11197 0.42862
 H1461 H 0.01513 -0.20991 0.43997
 H1462 H 0.01316 -0.24415 0.42007
 H1463 H 0.00098 -0.20695 0.35970
 H1464 H 0.00358 -0.17291 0.37986
 H1465 H 0.02503 -0.14012 0.47178
 H1466 H 0.02346 -0.10350 0.48767
 H1467 H -0.00767 -0.07769 0.42769
 H1468 H -0.00596 -0.11430 0.41214
 C1469 C 0.49201 -0.18865 0.58154
 C1470 C 0.51094 -0.20197 0.58355
 C1471 C 0.51108 -0.22098 0.59675
 C1472 C 0.49259 -0.22650 0.60904
 C1473 C 0.47296 -0.21409 0.60488
 C1474 C 0.47284 -0.19512 0.59164
 C1475 C 0.49257 -0.16770 0.57031
 C1476 C 0.49311 -0.14971 0.56176
 C1477 C 0.49381 -0.12789 0.55239
 C1478 C 0.50331 -0.11106 0.56447
 C1479 C 0.50370 -0.08970 0.55571
 C1480 C 0.49454 -0.08487 0.53470
 C1481 C 0.48506 -0.10196 0.52266
 C1482 C 0.48469 -0.12332 0.53148
 H1483 H 0.52577 -0.19737 0.57540
 H1484 H 0.52605 -0.23085 0.59828
 H1485 H 0.45762 -0.21871 0.61193
 H1486 H 0.45788 -0.18526 0.58965
 H1487 H 0.51036 -0.11443 0.58071
 H1488 H 0.51113 -0.07700 0.56544
 H1489 H 0.47786 -0.09886 0.50645
 H1490 H 0.47724 -0.13622 0.52202
 C1491 C -0.00683 0.30874 1.08192
 C1492 C -0.02588 0.30180 1.09195
 C1493 C -0.02546 0.28261 1.10486
 C1494 C -0.00564 0.27045 1.10877
 C1495 C 0.01271 0.27643 1.09649
 C1496 C 0.01226 0.29565 1.08361
 C1497 C -0.00654 0.32991 1.07111
 C1498 C -0.00620 0.34803 1.06288
 C1499 C -0.00572 0.36995 1.05376
 C1500 C -0.01531 0.37472 1.03310
 C1501 C -0.01510 0.39613 1.02445
 C1502 C -0.00527 0.41310 1.03640
 C1503 C 0.00435 0.40809 1.05718
 C1504 C 0.00411 0.38665 1.06577
 H1505 H -0.04098 0.31149 1.09017
 H1506 H -0.04070 0.27765 1.11190
 H1507 H 0.02783 0.26677 1.09784
 H1508 H 0.02700 0.30061 1.07550
 H1509 H -0.02301 0.36191 1.02369
 H1510 H -0.02267 0.39937 1.00842
 H1511 H 0.01205 0.42070 1.06682
 H1512 H 0.01154 0.38312 1.08182
 C1513 C 0.75835 0.33709 0.06290
 C1514 C 0.77137 0.33134 0.04540
 C1515 C 0.76898 0.34289 0.02542
 C1516 C 0.75296 0.35989 0.02231
 C1517 C 0.74095 0.36616 0.04068
 C1518 C 0.74337 0.35465 0.06054
 C1519 C 0.76028 0.32547 0.08357
 C1520 C 0.76084 0.31658 0.10135
 C1521 C 0.76042 0.30694 0.12296
 C1522 C 0.76820 0.28546 0.12711
 C1523 C 0.76700 0.27610 0.14811
 C1524 C 0.75794 0.28814 0.16518
 C1525 C 0.75028 0.30978 0.16078
 C1526 C 0.75152 0.31907 0.13983
 H1527 H 0.78342 0.31806 0.04723
 H1528 H 0.77957 0.33846 0.01225
 H1529 H 0.72985 0.38024 0.04005
 H1530 H 0.73366 0.35964 0.07420
 H1531 H 0.77505 0.27592 0.11413
 H1532 H 0.77308 0.25942 0.15092
 H1533 H 0.74326 0.31955 0.17350
 H1534 H 0.74539 0.33570 0.13674
 C1535 C 0.25223 0.83689 0.56550
 C1536 C 0.24850 0.82584 0.54594
 C1537 C 0.24830 0.83738 0.52589
 C1538 C 0.25250 0.86014 0.52507
 C1539 C 0.25501 0.87107 0.54515
 C1540 C 0.25518 0.85954 0.56504
 C1541 C 0.25288 0.82534 0.58625
 C1542 C 0.25358 0.81664 0.60412
 C1543 C 0.25439 0.80723 0.62588
 C1544 C 0.26260 0.78586 0.62981
 C1545 C 0.26326 0.77688 0.65106
 C1546 C 0.25569 0.78920 0.66865
 C1547 C 0.24772 0.81078 0.66450
 C1548 C 0.24708 0.81969 0.64327
 H1549 H 0.24561 0.80834 0.54620
 H1550 H 0.24454 0.82841 0.51124
 H1551 H 0.25727 0.88866 0.54533
 H1552 H 0.25767 0.86834 0.58011
 H1553 H 0.26839 0.77612 0.61646
 H1554 H 0.26949 0.76022 0.65365
 H1555 H 0.24177 0.82074 0.67761
 H1556 H 0.24080 0.83630 0.64040
 C1557 C 0.74246 0.66378 0.56128
 C1558 C 0.73021 0.67050 0.54251
 C1559 C 0.73273 0.65942 0.52288
 C1560 C 0.74803 0.64178 0.52145
 C1561 C 0.75962 0.63485 0.54088
 C1562 C 0.75710 0.64594 0.56038
 C1563 C 0.73972 0.67446 0.58182
 C1564 C 0.73818 0.68256 0.59954
 C1565 C 0.73727 0.69137 0.62116
 C1566 C 0.72867 0.71249 0.62436
 C1567 C 0.72885 0.72122 0.64535
 C1568 C 0.73773 0.70893 0.66343
 C1569 C 0.74598 0.68757 0.66002
 C1570 C 0.74575 0.67890 0.63906
 H1571 H 0.71847 0.68404 0.54312
 H1572 H 0.72251 0.66447 0.50879
 H1573 H 0.77025 0.62042 0.54138
 H1574 H 0.76627 0.64024 0.57496
 H1575 H 0.72209 0.72230 0.61060
 H1576 H 0.72237 0.73771 0.64735
 H1577 H 0.75291 0.67761 0.67350
 H1578 H 0.75247 0.66254 0.63677
 C1579 C 0.24497 0.16192 0.05910
 C1580 C 0.23233 0.16882 0.04064
 C1581 C 0.23400 0.15760 0.02097
 C1582 C 0.24881 0.13960 0.01919
 C1583 C 0.26086 0.13255 0.03832
 C1584 C 0.25918 0.14377 0.05785
 C1585 C 0.24296 0.17267 0.07972
 C1586 C 0.24191 0.18086 0.09746
 C1587 C 0.24140 0.18983 0.11905
 C1588 C 0.23214 0.21066 0.12233
 C1589 C 0.23237 0.21947 0.14329
 C1590 C 0.24193 0.20755 0.16128
 C1591 C 0.25094 0.18650 0.15781
 C1592 C 0.25067 0.17775 0.13686
 H1593 H 0.22090 0.18259 0.04153
 H1594 H 0.22344 0.16278 0.00717
 H1595 H 0.27117 0.11789 0.03857
 H1596 H 0.26865 0.13794 0.07219
 H1597 H 0.22492 0.22017 0.10866
 H1598 H 0.22529 0.23571 0.14534
 H1599 H 0.25841 0.17683 0.17122
 H1600 H 0.25789 0.16160 0.13452
 C1601 C 0.25269 0.16139 0.93584
 C1602 C 0.25777 0.17223 0.95526
 C1603 C 0.25621 0.16125 0.97551
 C1604 C 0.24899 0.13933 0.97666
 C1605 C 0.24470 0.12858 0.95676
 C1606 C 0.24625 0.13954 0.93668
 C1607 C 0.25438 0.17223 0.91485
 C1608 C 0.25542 0.18044 0.89681
 C1609 C 0.25624 0.18950 0.87494
 C1610 C 0.26597 0.20978 0.87112
 C1611 C 0.26629 0.21869 0.84988
 C1612 C 0.25685 0.20740 0.83213
 C1613 C 0.24734 0.18688 0.83615
 C1614 C 0.24705 0.17803 0.85741
 H1615 H 0.26324 0.18905 0.95475
 H1616 H 0.26123 0.16982 0.99007
 H1617 H 0.24014 0.11148 0.95679
 H1618 H 0.24262 0.13086 0.92174
 H1619 H 0.27316 0.21879 0.88457
 H1620 H 0.27375 0.23452 0.84743
 H1621 H 0.23991 0.17775 0.82293
 H1622 H 0.23950 0.16228 0.86019
 C1623 C 0.75477 0.66493 0.43884
 C1624 C 0.75878 0.67557 0.45858
 C1625 C 0.75671 0.66421 0.47855
 C1626 C 0.75000 0.64210 0.47907
 C1627 C 0.74689 0.63154 0.45887
 C1628 C 0.74895 0.64288 0.43907
 C1629 C 0.75671 0.67619 0.41811
 C1630 C 0.75781 0.68456 0.40016
 C1631 C 0.75846 0.69346 0.37823
 C1632 C 0.76711 0.71422 0.37417
 C1633 C 0.76707 0.72288 0.35280
 C1634 C 0.75832 0.71087 0.33521
 C1635 C 0.74994 0.68988 0.33950
 C1636 C 0.75003 0.68128 0.36084
 H1637 H 0.76375 0.69256 0.45855
 H1638 H 0.76088 0.67268 0.49342
 H1639 H 0.74277 0.61433 0.45847
 H1640 H 0.74614 0.63437 0.42389
 H1641 H 0.77370 0.72377 0.38752
 H1642 H 0.77363 0.73908 0.35011
 H1643 H 0.74309 0.68016 0.32642
 H1644 H 0.74331 0.66518 0.36381
 C1645 C 0.25589 0.83727 0.44309
 C1646 C 0.24054 0.85439 0.44471
 C1647 C 0.23920 0.86602 0.46401
 C1648 C 0.25275 0.86032 0.48259
 C1649 C 0.26892 0.84363 0.48024
 C1650 C 0.27024 0.83199 0.46081
 C1651 C 0.25708 0.82585 0.42282
 C1652 C 0.25729 0.81705 0.40537
 C1653 C 0.25686 0.80732 0.38415
 C1654 C 0.26543 0.81869 0.36633
 C1655 C 0.26419 0.80979 0.34547
 C1656 C 0.25430 0.78936 0.34213
 C1657 C 0.24576 0.77804 0.36020
 C1658 C 0.24702 0.78700 0.38105
 H1659 H 0.22978 0.85905 0.43086
 H1660 H 0.22781 0.87984 0.46392
 H1661 H 0.28058 0.83962 0.49354
 H1662 H 0.28258 0.81906 0.45954
 H1663 H 0.27294 0.83451 0.36854
 H1664 H 0.27098 0.81894 0.33199
 H1665 H 0.23808 0.76228 0.35826
 H1666 H 0.24019 0.77815 0.39472
 C1667 C 0.74692 0.33497 0.94100
 C1668 C 0.75044 0.35752 0.94007
 C1669 C 0.75160 0.36940 0.95923
 C1670 C 0.74991 0.35892 0.97993
 C1671 C 0.74506 0.33630 0.98049
 C1672 C 0.74392 0.32439 0.96117
 C1673 C 0.74664 0.32301 0.92104
 C1674 C 0.74693 0.31405 0.90371
 C1675 C 0.74776 0.30445 0.88251
 C1676 C 0.75770 0.31590 0.86553
 C1677 C 0.75845 0.30694 0.84475
 C1678 C 0.74924 0.28635 0.84068
 C1679 C 0.73931 0.27493 0.85792
 C1680 C 0.73858 0.28396 0.87871
 H1681 H 0.75240 0.36594 0.92449
 H1682 H 0.75425 0.38691 0.95798
 H1683 H 0.74182 0.32774 0.99565
 H1684 H 0.74065 0.30697 0.96196
 H1685 H 0.76483 0.33181 0.86835
 H1686 H 0.76620 0.31618 0.83190
 H1687 H 0.73204 0.25906 0.85537
 H1688 H 0.73083 0.27500 0.89177
 C1689 C 0.84056 0.43666 0.24240
 C1690 C 0.86321 0.43687 0.24666
 C1691 C 0.87413 0.45674 0.24763
 C1692 C 0.86260 0.47703 0.24493
 C1693 C 0.83985 0.47650 0.23953
 C1694 C 0.82892 0.45648 0.23858
 C1695 C 0.82956 0.41595 0.24209
 C1696 C 0.82110 0.39821 0.24225
 C1697 C 0.81162 0.37673 0.24286
 C1698 C 0.82323 0.35916 0.25319
 C1699 C 0.81404 0.33830 0.25408
 C1700 C 0.79306 0.33472 0.24463
 C1701 C 0.78159 0.35252 0.23414
 C1702 C 0.79082 0.37335 0.23329
 H1703 H 0.87248 0.42163 0.24932
 H1704 H 0.89174 0.45635 0.25087
 H1705 H 0.83043 0.49137 0.23570
 H1706 H 0.81141 0.45645 0.23478
 H1707 H 0.83937 0.36160 0.26065
 H1708 H 0.82334 0.32502 0.26227
 H1709 H 0.76541 0.35040 0.22668
 H1710 H 0.78170 0.38684 0.22523
 C1711 C 0.33551 0.93899 0.74267
 C1712 C 0.33693 0.95165 0.76146
 C1713 C 0.34906 0.97095 0.76142
 C1714 C 0.36095 0.97740 0.74293
 C1715 C 0.35719 0.96570 0.72345
 C1716 C 0.34503 0.94647 0.72349
 C1717 C 0.32527 0.91785 0.74325
 C1718 C 0.31738 0.89982 0.74366
 C1719 C 0.30846 0.87806 0.74415
 C1720 C 0.28769 0.87426 0.73469
 C1721 C 0.27897 0.85318 0.73538
 C1722 C 0.29093 0.83554 0.74557
 C1723 C 0.31195 0.83950 0.75479
 C1724 C 0.32062 0.86061 0.75408
 H1725 H 0.32914 0.94635 0.77629
 H1726 H 0.35015 0.98028 0.77628
 H1727 H 0.36376 0.97106 0.70807
 H1728 H 0.34339 0.93721 0.70861
 H1729 H 0.27816 0.88762 0.72689
 H1730 H 0.26276 0.85078 0.72810
 H1731 H 0.32161 0.82636 0.76277
 H1732 H 0.33676 0.86335 0.76139
 C1733 C 0.16319 0.93817 0.25878
 C1734 C 0.14064 0.93795 0.25384
 C1735 C 0.12859 0.95761 0.25181
 C1736 C 0.13890 0.97808 0.25406
 C1737 C 0.16154 0.97793 0.26011
 C1738 C 0.17359 0.95815 0.26213
 C1739 C 0.17537 0.91772 0.26033
 C1740 C 0.18471 0.90009 0.26114
 C1741 C 0.19480 0.87855 0.26147
 C1742 C 0.18299 0.86098 0.25304
 C1743 C 0.19256 0.83999 0.25292
 C1744 C 0.21416 0.83622 0.26126
 C1745 C 0.22589 0.85398 0.26985
 C1746 C 0.21625 0.87503 0.26993
 H1747 H 0.13233 0.92255 0.25156
 H1748 H 0.11108 0.95690 0.24824
 H1749 H 0.17001 0.99291 0.26376
 H1750 H 0.19099 0.95844 0.26646
 H1751 H 0.16637 0.86354 0.24646
 H1752 H 0.18301 0.82675 0.24621
 H1753 H 0.24254 0.85167 0.27640
 H1754 H 0.22552 0.88854 0.27651
 C1755 C 0.66254 0.43767 0.76008
 C1756 C 0.64005 0.43776 0.75493
 C1757 C 0.62815 0.45751 0.75348
 C1758 C 0.63856 0.47782 0.75655
 C1759 C 0.66114 0.47735 0.76280
 C1760 C 0.67306 0.45745 0.76424
 C1761 C 0.67452 0.41709 0.76101
 C1762 C 0.68361 0.39935 0.76126
 C1763 C 0.69346 0.37773 0.76099
 C1764 C 0.68175 0.36063 0.75150
 C1765 C 0.69112 0.33956 0.75092
 C1766 C 0.71241 0.33528 0.75985
 C1767 C 0.72403 0.35260 0.76947
 C1768 C 0.71459 0.37369 0.77002
 H1769 H 0.63165 0.42250 0.75202
 H1770 H 0.61066 0.45701 0.74966
 H1771 H 0.66966 0.49216 0.76699
 H1772 H 0.69043 0.45748 0.76874
 H1773 H 0.66536 0.36359 0.74448
 H1774 H 0.68169 0.32667 0.74341
 H1775 H 0.74044 0.34991 0.77650
 H1776 H 0.72379 0.38684 0.77741
 C1777 C 0.65934 0.56091 0.75134
 C1778 C 0.64237 0.55858 0.76597
 C1779 C 0.63140 0.53876 0.76772
 C1780 C 0.63761 0.52043 0.75530
 C1781 C 0.65433 0.52340 0.74003
 C1782 C 0.66528 0.54332 0.73830
 C1783 C 0.66994 0.58172 0.74935
 C1784 C 0.67824 0.59949 0.74819
 C1785 C 0.68766 0.62095 0.74732
 C1786 C 0.67685 0.63864 0.75684
 C1787 C 0.68609 0.65947 0.75646
 C1788 C 0.70634 0.66288 0.74654
 C1789 C 0.71700 0.64497 0.73686
 C1790 C 0.70771 0.62416 0.73727
 H1791 H 0.63725 0.57229 0.77574
 H1792 H 0.61760 0.53825 0.77839
 H1793 H 0.65877 0.51027 0.72926
 H1794 H 0.67812 0.54511 0.72656
 H1795 H 0.66131 0.63631 0.76467
 H1796 H 0.67742 0.67284 0.76405
 H1797 H 0.73259 0.64698 0.72907
 H1798 H 0.71621 0.61056 0.72986
 C1799 C 0.16050 0.06043 0.24642
 C1800 C 0.14360 0.05879 0.26122
 C1801 C 0.13220 0.03928 0.26345
 C1802 C 0.13791 0.02057 0.25137
 C1803 C 0.15438 0.02291 0.23573
 C1804 C 0.16579 0.04253 0.23353
 C1805 C 0.17182 0.08082 0.24430
 C1806 C 0.18064 0.09833 0.24326
 C1807 C 0.19043 0.11962 0.24284
 C1808 C 0.17947 0.13734 0.25213
 C1809 C 0.18896 0.15802 0.25233
 C1810 C 0.20963 0.16129 0.24322
 C1811 C 0.22048 0.14336 0.23377
 C1812 C 0.21092 0.12265 0.23361
 H1813 H 0.13897 0.07278 0.27086
 H1814 H 0.11855 0.03925 0.27434
 H1815 H 0.15841 0.00946 0.22518
 H1816 H 0.17855 0.04378 0.22164
 H1817 H 0.16360 0.13514 0.25934
 H1818 H 0.18012 0.17142 0.25971
 H1819 H 0.23639 0.14527 0.22661
 H1820 H 0.21955 0.10901 0.22640
 C1821 C 0.33345 0.05585 0.74721
 C1822 C 0.34451 0.04786 0.76616
 C1823 C 0.35733 0.02865 0.76566
 C1824 C 0.36020 0.01747 0.74585
 C1825 C 0.34672 0.02430 0.72762
 C1826 C 0.33394 0.04364 0.72811
 C1827 C 0.32283 0.07719 0.74726
 C1828 C 0.31489 0.09547 0.74766
 C1829 C 0.30622 0.11761 0.74838
 C1830 C 0.31814 0.13498 0.73966
 C1831 C 0.31000 0.15656 0.74055
 C1832 C 0.28976 0.16110 0.75021
 C1833 C 0.27798 0.14350 0.75908
 C1834 C 0.28618 0.12193 0.75818
 H1835 H 0.34364 0.05676 0.78128
 H1836 H 0.36517 0.02292 0.78087
 H1837 H 0.34707 0.01529 0.71255
 H1838 H 0.32496 0.04935 0.71345
 H1839 H 0.33375 0.13184 0.73214
 H1840 H 0.31950 0.16964 0.73352
 H1841 H 0.26234 0.14634 0.76662
 H1842 H 0.27686 0.10864 0.76509
 C1843 C 0.83856 0.56019 0.25070
 C1844 C 0.85523 0.55839 0.23566
 C1845 C 0.86678 0.53859 0.23361
 C1846 C 0.86152 0.51972 0.24616
 C1847 C 0.84499 0.52207 0.26174
 C1848 C 0.83344 0.54200 0.26378
 C1849 C 0.82757 0.58111 0.25308
 C1850 C 0.81917 0.59911 0.25438
 C1851 C 0.80988 0.62099 0.25514
 C1852 C 0.82120 0.63858 0.24606
 C1853 C 0.81207 0.65981 0.24598
 C1854 C 0.79141 0.66378 0.25501
 C1855 C 0.78028 0.64600 0.26438
 C1856 C 0.78946 0.62475 0.26442
 H1857 H 0.85971 0.57252 0.22582
 H1858 H 0.88036 0.53855 0.22265
 H1859 H 0.84123 0.50848 0.27259
 H1860 H 0.82084 0.54332 0.27582
 H1861 H 0.83702 0.63586 0.23882
 H1862 H 0.82112 0.67305 0.23864
 H1863 H 0.76436 0.64842 0.27147
 H1864 H 0.78055 0.61125 0.27149
 C1865 C 0.93897 0.24780 0.16597
 C1866 C 0.95149 0.26675 0.16476
 C1867 C 0.97026 0.26705 0.15219
 C1868 C 0.97635 0.24871 0.13977
 C1869 C 0.96472 0.22907 0.14304
 C1870 C 0.94598 0.22880 0.15563
 C1871 C 0.91839 0.24812 0.17688
 C1872 C 0.90077 0.24845 0.18533
 C1873 C 0.87943 0.24887 0.19477
 C1874 C 0.87640 0.25871 0.21494
 C1875 C 0.85556 0.25933 0.22391
 C1876 C 0.83743 0.25011 0.21278
 C1877 C 0.84069 0.24029 0.19248
 C1878 C 0.86155 0.23970 0.18356
 H1879 H 0.94650 0.28145 0.17311
 H1880 H 0.97957 0.28201 0.15134
 H1881 H 0.96986 0.21382 0.13589
 H1882 H 0.93676 0.21381 0.15704
 H1883 H 0.89013 0.26592 0.22371
 H1884 H 0.85368 0.26701 0.23956
 H1885 H 0.82716 0.23304 0.18346
 H1886 H 0.86372 0.23210 0.16789
 C1887 C 0.43666 0.75282 0.66638
 C1888 C 0.44327 0.73353 0.65630
 C1889 C 0.46204 0.73320 0.64374
 C1890 C 0.47411 0.75252 0.64025
 C1891 C 0.46842 0.77116 0.65242
 C1892 C 0.44961 0.77146 0.66495
 C1893 C 0.41609 0.75368 0.67732
 C1894 C 0.39849 0.75428 0.68581
 C1895 C 0.37719 0.75477 0.69535
 C1896 C 0.35932 0.74533 0.68436
 C1897 C 0.33862 0.74545 0.69363
 C1898 C 0.33551 0.75502 0.71408
 C1899 C 0.35357 0.76470 0.72488
 C1900 C 0.37426 0.76455 0.71556
 H1901 H 0.43372 0.71877 0.65788
 H1902 H 0.46684 0.71775 0.63677
 H1903 H 0.47805 0.78589 0.65139
 H1904 H 0.44493 0.78637 0.67312
 H1905 H 0.36141 0.73776 0.66867
 H1906 H 0.32513 0.73786 0.68485
 H1907 H 0.35179 0.77221 0.74064
 H1908 H 0.38798 0.77195 0.72418
 C1909 C 0.44205 0.24524 0.83589
 C1910 C 0.46022 0.23205 0.83100
 C1911 C 0.48011 0.23403 0.84288
 C1912 C 0.48244 0.24966 0.85954
 C1913 C 0.46357 0.26227 0.86462
 C1914 C 0.44380 0.26028 0.85272
 C1915 C 0.42119 0.24298 0.82445
 C1916 C 0.40324 0.24180 0.81567
 C1917 C 0.38137 0.24120 0.80604
 C1918 C 0.37764 0.23248 0.78529
 C1919 C 0.35637 0.23268 0.77585
 C1920 C 0.33855 0.24168 0.78706
 C1921 C 0.34251 0.25017 0.80803
 C1922 C 0.36374 0.24992 0.81740
 H1923 H 0.45892 0.22000 0.81827
 H1924 H 0.49370 0.22313 0.83924
 H1925 H 0.46362 0.27326 0.87826
 H1926 H 0.42967 0.27019 0.85703
 H1927 H 0.39117 0.22571 0.77634
 H1928 H 0.35394 0.22602 0.75970
 H1929 H 0.32924 0.25719 0.81716
 H1930 H 0.36645 0.25673 0.83347
 C1931 C 0.94235 0.74733 0.33549
 C1932 C 0.94429 0.76230 0.35236
 C1933 C 0.96398 0.76379 0.36448
 C1934 C 0.98262 0.75074 0.35960
 C1935 C 0.98011 0.73521 0.34287
 C1936 C 0.96028 0.73373 0.33076
 C1937 C 0.92148 0.74552 0.32397
 C1938 C 0.90347 0.74474 0.31524
 C1939 C 0.88150 0.74460 0.30576
 C1940 C 0.86420 0.75405 0.31707
 C1941 C 0.84284 0.75443 0.30798
 C1942 C 0.83843 0.74533 0.28737
 C1943 C 0.85594 0.73573 0.27616
 C1944 C 0.87733 0.73539 0.28531
 H1945 H 0.93034 0.77252 0.35656
 H1946 H 0.96411 0.77473 0.37816
 H1947 H 0.99348 0.72399 0.33938
 H1948 H 0.95881 0.72172 0.31801
 H1949 H 0.86725 0.76124 0.33291
 H1950 H 0.82982 0.76193 0.31709
 H1951 H 0.85317 0.72857 0.26028
 H1952 H 0.89060 0.72804 0.27641
 C1953 C 0.06620 0.75347 0.34118
 C1954 C 0.06557 0.74849 0.36351
 C1955 C 0.04548 0.74743 0.37376
 C1956 C 0.02537 0.75076 0.36182
 C1957 C 0.02633 0.75665 0.33939
 C1958 C 0.04657 0.75771 0.32915
 C1959 C 0.08714 0.75444 0.33094
 C1960 C 0.10504 0.75496 0.32305
 C1961 C 0.12666 0.75527 0.31417
 C1962 C 0.12991 0.76509 0.29369
 C1963 C 0.15088 0.76508 0.28498
 C1964 C 0.16893 0.75519 0.29666
 C1965 C 0.16549 0.74553 0.31735
 C1966 C 0.14450 0.74558 0.32601
 H1967 H 0.08067 0.74551 0.37309
 H1968 H 0.04557 0.74384 0.39118
 H1969 H 0.01165 0.76096 0.32974
 H1970 H 0.04692 0.76207 0.31190
 H1971 H 0.11622 0.77267 0.28440
 H1972 H 0.15288 0.77267 0.26903
 H1973 H 0.17896 0.73778 0.32679
 H1974 H 0.14216 0.73795 0.34191
 C1975 C 0.56528 0.25417 0.83921
 C1976 C 0.54532 0.25810 0.82767
 C1977 C 0.52540 0.25678 0.83845
 C1978 C 0.52509 0.25090 0.86093
 C1979 C 0.54552 0.24801 0.87239
 C1980 C 0.56531 0.24933 0.86161
 C1981 C 0.58589 0.25507 0.82836
 C1982 C 0.60359 0.25540 0.82005
 C1983 C 0.62508 0.25533 0.81089
 C1984 C 0.64286 0.24548 0.82267
 C1985 C 0.66377 0.24506 0.81387
 C1986 C 0.66722 0.25451 0.79309
 C1987 C 0.64923 0.26451 0.78142
 C1988 C 0.62831 0.26489 0.79027
 H1989 H 0.54516 0.26234 0.81038
 H1990 H 0.51043 0.26081 0.82914
 H1991 H 0.54610 0.24446 0.88982
 H1992 H 0.58067 0.24659 0.87081
 H1993 H 0.64054 0.23804 0.83866
 H1994 H 0.67719 0.23724 0.82333
 H1995 H 0.65126 0.27194 0.76539
 H1996 H 0.61466 0.27257 0.78102
 C1997 C 0.55272 0.75340 0.66816
 C1998 C 0.54585 0.77289 0.65736
 C1999 C 0.52649 0.77356 0.64444
 C2000 C 0.51411 0.75439 0.64131
 C2001 C 0.51999 0.73566 0.65441
 C2002 C 0.53937 0.73501 0.66729
 C2003 C 0.57417 0.75188 0.67871
 C2004 C 0.59256 0.75059 0.68658
 C2005 C 0.61486 0.74917 0.69510
 C2006 C 0.63184 0.75742 0.68261
 C2007 C 0.65357 0.75615 0.69069
 C2008 C 0.65863 0.74658 0.71143
 C2009 C 0.64141 0.73817 0.72379
 C2010 C 0.61968 0.73946 0.71565
 H2011 H 0.55574 0.78746 0.65848
 H2012 H 0.52162 0.78908 0.63671
 H2013 H 0.51017 0.72103 0.65361
 H2014 H 0.54429 0.71994 0.67598
 H2015 H 0.62828 0.76490 0.66663
 H2016 H 0.66636 0.76281 0.68074
 H2017 H 0.64468 0.73072 0.73982
 H2018 H 0.60665 0.73296 0.72541
 C2019 C 0.05514 0.25111 0.16722
 C2020 C 0.04779 0.27058 0.15670
 C2021 C 0.02827 0.27101 0.14405
 C2022 C 0.01625 0.25161 0.14090
 C2023 C 0.02254 0.23292 0.15387
 C2024 C 0.04208 0.23251 0.16648
 C2025 C 0.07681 0.24978 0.17723
 C2026 C 0.09536 0.24856 0.18469
 C2027 C 0.11774 0.24708 0.19285
 C2028 C 0.13453 0.25585 0.18043
 C2029 C 0.15634 0.25452 0.18828
 C2030 C 0.16164 0.24438 0.20871
 C2031 C 0.14461 0.23539 0.22094
 C2032 C 0.12283 0.23674 0.21304
 H2033 H 0.05747 0.28530 0.15775
 H2034 H 0.02305 0.28649 0.13646
 H2035 H 0.01300 0.21811 0.15307
 H2036 H 0.04739 0.21746 0.17499
 H2037 H 0.13075 0.26381 0.16472
 H2038 H 0.16899 0.26164 0.17846
 H2039 H 0.14806 0.22748 0.23673
 H2040 H 0.10995 0.22982 0.22272
 C2041 C -0.08497 0.99887 0.80674
 C2042 C -0.10158 0.98353 0.80466
 C2043 C -0.11360 0.98191 0.78503
 C2044 C -0.10884 0.99517 0.76653
 C2045 C -0.09258 1.01127 0.76928
 C2046 C -0.08055 1.01288 0.78908
 C2047 C -0.07343 1.00055 0.82751
 C2048 C -0.06476 1.00117 0.84547
 C2049 C -0.05546 1.00128 0.86737
 C2050 C -0.03471 0.99176 0.87215
 C2051 C -0.02624 0.99101 0.89370
 C2052 C -0.03848 0.99974 0.91076
 C2053 C -0.05934 1.00928 0.90572
 C2054 C -0.06774 1.01001 0.88419
 H2055 H -0.10561 0.97306 0.81845
 H2056 H -0.12706 0.97060 0.78487
 H2057 H -0.08927 1.02269 0.75605
 H2058 H -0.06805 1.02523 0.79069
 H2059 H -0.02515 0.98480 0.85927
 H2060 H -0.01013 0.98360 0.89696
 H2061 H -0.06921 1.01619 0.91839
 H2062 H -0.08390 1.01726 0.88069
 C2063 C 0.41355 0.49770 0.31032
 C2064 C 0.39673 0.48269 0.30761
 C2065 C 0.38531 0.48139 0.28760
 C2066 C 0.39090 0.49464 0.26936
 C2067 C 0.40736 0.51043 0.27275
 C2068 C 0.41879 0.51171 0.29292
 C2069 C 0.42456 0.49899 0.33140
 C2070 C 0.43290 0.49931 0.34952
 C2071 C 0.44203 0.49914 0.37150
 C2072 C 0.46304 0.49018 0.37613
 C2073 C 0.47165 0.48963 0.39761
 C2074 C 0.45932 0.49803 0.41478
 C2075 C 0.43811 0.50681 0.40993
 C2076 C 0.42956 0.50734 0.38845
 H2077 H 0.39209 0.47221 0.32117
 H2078 H 0.37166 0.47032 0.28692
 H2079 H 0.41129 0.52186 0.25972
 H2080 H 0.43148 0.52381 0.29501
 H2081 H 0.47277 0.48363 0.36315
 H2082 H 0.48804 0.48279 0.40071
 H2083 H 0.42817 0.51346 0.42269
 H2084 H 0.41320 0.51416 0.38506
 C2085 C 0.58732 0.01016 0.31205
 C2086 C 0.58090 0.02254 0.29333
 C2087 C 0.59200 0.01983 0.27382
 C2088 C 0.60936 0.00421 0.27242
 C2089 C 0.61603 -0.00752 0.29179
 C2090 C 0.60493 -0.00480 0.31120
 C2091 C 0.57647 0.01305 0.33243
 C2092 C 0.56805 0.01478 0.34994
 C2093 C 0.55870 0.01595 0.37126
 C2094 C 0.53716 0.02380 0.37364
 C2095 C 0.52784 0.02361 0.39430
 C2096 C 0.53995 0.01546 0.41284
 C2097 C 0.56177 0.00808 0.41028
 C2098 C 0.57103 0.00832 0.38966
 H2099 H 0.56755 0.03451 0.29389
 H2100 H 0.58715 0.03013 0.25979
 H2101 H 0.63025 -0.01844 0.29231
 H2102 H 0.61040 -0.01410 0.32572
 H2103 H 0.52744 0.02972 0.35951
 H2104 H 0.51101 0.02939 0.39564
 H2105 H 0.57162 0.00174 0.42414
 H2106 H 0.58771 0.00220 0.38802
 C2107 C 0.08773 0.50760 0.81331
 C2108 C 0.08158 0.52012 0.79459
 C2109 C 0.09316 0.51779 0.77530
 C2110 C 0.11077 0.50242 0.77409
 C2111 C 0.11717 0.49057 0.79347
 C2112 C 0.10559 0.49291 0.81266
 C2113 C 0.07639 0.51014 0.83351
 C2114 C 0.06761 0.51162 0.85089
 C2115 C 0.05797 0.51255 0.87213
 C2116 C 0.03629 0.52010 0.87438
 C2117 C 0.02685 0.51989 0.89501
 C2118 C 0.03898 0.51203 0.91367
 C2119 C 0.06090 0.50487 0.91121
 C2120 C 0.07026 0.50513 0.89064
 H2121 H 0.06805 0.53190 0.79498
 H2122 H 0.08847 0.52818 0.76129
 H2123 H 0.13154 0.47983 0.79416
 H2124 H 0.11088 0.48352 0.82719
 H2125 H 0.02659 0.52587 0.86018
 H2126 H 0.00996 0.52549 0.89626
 H2127 H 0.07078 0.49875 0.92514
 H2128 H 0.08705 0.49924 0.88913
 C2129 C 0.08847 0.49600 0.69085
 C2130 C 0.11038 0.50240 0.69163
 C2131 C 0.12156 0.50459 0.71171
 C2132 C 0.11096 0.50100 0.73168
 C2133 C 0.08896 0.49386 0.73058
 C2134 C 0.07778 0.49166 0.71036
 C2135 C 0.07737 0.49354 0.66988
 C2136 C 0.06891 0.49186 0.65188
 C2137 C 0.05961 0.49042 0.62998
 C2138 C 0.07148 0.49815 0.61227
 C2139 C 0.06240 0.49762 0.59101
 C2140 C 0.04122 0.48932 0.58709
 C2141 C 0.02956 0.48119 0.60499
 C2142 C 0.03870 0.48177 0.62628
 H2143 H 0.11897 0.50547 0.67665
 H2144 H 0.13871 0.50900 0.71168
 H2145 H 0.08046 0.48933 0.74521
 H2146 H 0.06093 0.48624 0.70996
 H2147 H 0.08770 0.50486 0.61492
 H2148 H 0.07188 0.50401 0.57770
 H2149 H 0.01321 0.47473 0.60262
 H2150 H 0.02936 0.47571 0.63985
 C2151 C 0.58535 0.99710 0.18976
 C2152 C 0.57500 0.99315 0.20953
 C2153 C 0.58660 0.99546 0.22949
 C2154 C 0.60869 1.00234 0.23006
 C2155 C 0.61894 1.00554 0.20984
 C2156 C 0.60734 1.00324 0.19002
 C2157 C 0.57385 0.99450 0.16904
 C2158 C 0.56519 0.99272 0.15115
 C2159 C 0.55592 0.99120 0.12926
 C2160 C 0.53491 0.98280 0.12549
 C2161 C 0.52596 0.98203 0.10412
 C2162 C 0.53793 0.98973 0.08626
 C2163 C 0.55917 0.99783 0.09029
 C2164 C 0.56805 0.99855 0.11159
 H2165 H 0.55808 0.98793 0.20952
 H2166 H 0.57834 0.99123 0.24434
 H2167 H 0.63614 1.00973 0.20943
 H2168 H 0.61567 1.00600 0.17483
 H2169 H 0.52537 0.97704 0.13904
 H2170 H 0.50956 0.97573 0.10165
 H2171 H 0.56891 1.00387 0.07700
 H2172 H 0.58435 1.00505 0.11430
 C2173 C 0.41444 0.49266 0.18760
 C2174 C 0.39160 0.49523 0.18688
 C2175 C 0.38008 0.49533 0.20617
 C2176 C 0.39115 0.49344 0.22683
 C2177 C 0.41413 0.48942 0.22722
 C2178 C 0.42568 0.48937 0.20775
 C2179 C 0.42596 0.49360 0.16744
 C2180 C 0.43445 0.49471 0.14993
 C2181 C 0.44338 0.49616 0.12846
 C2182 C 0.43130 0.48822 0.11057
 C2183 C 0.43952 0.48984 0.08956
 C2184 C 0.46001 0.49947 0.08609
 C2185 C 0.47199 0.50756 0.10420
 C2186 C 0.46370 0.50592 0.12524
 H2187 H 0.38266 0.49741 0.17135
 H2188 H 0.36237 0.49754 0.20508
 H2189 H 0.42332 0.48615 0.24237
 H2190 H 0.44335 0.48678 0.20843
 H2191 H 0.41549 0.48076 0.11287
 H2192 H 0.42984 0.48341 0.07606
 H2193 H 0.48782 0.51503 0.10215
 H2194 H 0.47312 0.51224 0.13898
 C2195 C -0.08754 -0.00648 0.68420
 C2196 C -0.07572 -0.00957 0.70406
 C2197 C -0.08676 -0.00997 0.72382
 C2198 C -0.10980 -0.00657 0.72401
 C2199 C -0.12144 -0.00510 0.70363
 C2200 C -0.11043 -0.00475 0.68403
 C2201 C -0.07651 -0.00465 0.66382
 C2202 C -0.06827 -0.00276 0.64624
 C2203 C -0.05939 -0.00046 0.62483
 C2204 C -0.03894 0.00917 0.62206
 C2205 C -0.03037 0.01110 0.60117
 C2206 C -0.04218 0.00340 0.58278
 C2207 C -0.06293 -0.00586 0.58575
 C2208 C -0.07144 -0.00776 0.60663
 H2209 H -0.05798 -0.01152 0.70429
 H2210 H -0.07710 -0.01296 0.73874
 H2211 H -0.13920 -0.00335 0.70300
 H2212 H -0.11979 -0.00275 0.66873
 H2213 H -0.02954 0.01499 0.63605
 H2214 H -0.01434 0.01827 0.59950
 H2215 H -0.07248 -0.01197 0.57201
 H2216 H -0.08736 -0.01510 0.60859
 C2217 C -0.18679 0.91125 0.99062
 C2218 C -0.20558 0.91757 0.97811
 C2219 C -0.22503 0.90582 0.98001
 C2220 C -0.22631 0.88791 0.99497
 C2221 C -0.20680 0.88127 1.00668
 C2222 C -0.18745 0.89301 1.00477
 C2223 C -0.16653 0.92292 0.98875
 C2224 C -0.14909 0.93198 0.98790
 C2225 C -0.12783 0.94200 0.98775
 C2226 C -0.12534 0.96319 0.97897
 C2227 C -0.10469 0.97300 0.97969
 C2228 C -0.08625 0.96172 0.98926
 C2229 C -0.08894 0.94031 0.99777
 C2230 C -0.10955 0.93058 0.99702
 H2231 H -0.20515 0.93140 0.96672
 H2232 H -0.23913 0.91068 0.96967
 H2233 H -0.20618 0.86666 1.01706
 H2234 H -0.17285 0.88760 1.01413
 H2235 H -0.13938 0.97221 0.97178
 H2236 H -0.10324 0.98948 0.97299
 H2237 H -0.07517 0.93110 1.00523
 H2238 H -0.11127 0.91417 1.00388
 C2239 C 0.31355 0.41172 0.49722
 C2240 C 0.29595 0.41717 0.51041
 C2241 C 0.27648 0.40521 0.50914
 C2242 C 0.27387 0.38810 0.49404
 C2243 C 0.29251 0.38203 0.48204
 C2244 C 0.31183 0.39392 0.48335
 C2245 C 0.33375 0.42373 0.49799
 C2246 C 0.35116 0.43291 0.49786
 C2247 C 0.37241 0.44296 0.49723
 C2248 C 0.37477 0.46370 0.48737
 C2249 C 0.39555 0.47313 0.48648
 C2250 C 0.41430 0.46190 0.49544
 C2251 C 0.41172 0.44094 0.50510
 C2252 C 0.39096 0.43158 0.50596
 H2253 H 0.29730 0.43056 0.52172
 H2254 H 0.26327 0.40949 0.51981
 H2255 H 0.29259 0.36782 0.47176
 H2256 H 0.32560 0.38905 0.47360
 H2257 H 0.36055 0.47260 0.48040
 H2258 H 0.39689 0.48929 0.47898
 H2259 H 0.42572 0.43180 0.51219
 H2260 H 0.38938 0.41545 0.51348
 C2261 C 0.30772 0.58687 0.00462
 C2262 C 0.30607 0.60316 0.02020
 C2263 C 0.28673 0.61556 0.02163
 C2264 C 0.26811 0.61149 0.00793
 C2265 C 0.27053 0.59568 -0.00849
 C2266 C 0.29001 0.58326 -0.00990
 C2267 C 0.32809 0.57473 0.00323
 C2268 C 0.34570 0.56542 0.00272
 C2269 C 0.36722 0.55530 0.00258
 C2270 C 0.38447 0.56669 -0.00670
 C2271 C 0.40567 0.55750 -0.00614
 C2272 C 0.40995 0.53671 0.00377
 C2273 C 0.39246 0.52536 0.01306
 C2274 C 0.37123 0.53463 0.01248
 H2275 H 0.31995 0.60657 0.03106
 H2276 H 0.28686 0.62869 0.03323
 H2277 H 0.25722 0.59292 -0.02022
 H2278 H 0.29132 0.57105 -0.02244
 H2279 H 0.38157 0.58277 -0.01427
 H2280 H 0.41868 0.56670 -0.01350
 H2281 H 0.39515 0.50933 0.02077
 H2282 H 0.35799 0.52575 0.01986
 C2283 C -0.19059 0.08925 0.50154
 C2284 C -0.19230 0.10592 0.51668
 C2285 C -0.21191 0.11783 0.51830
 C2286 C -0.23076 0.11287 0.50526
 C2287 C -0.22833 0.09666 0.48924
 C2288 C -0.20856 0.08472 0.48764
 C2289 C -0.16996 0.07756 0.50010
 C2290 C -0.15215 0.06861 0.49974
 C2291 C -0.13049 0.05875 0.49995
 C2292 C -0.11318 0.07018 0.49079
 C2293 C -0.09193 0.06106 0.49160
 C2294 C -0.08767 0.04034 0.50163
 C2295 C -0.10521 0.02903 0.51092
 C2296 C -0.12646 0.03821 0.51008
 H2297 H -0.17827 0.11002 0.52707
 H2298 H -0.21182 0.13130 0.52950
 H2299 H -0.24183 0.09324 0.47793
 H2300 H -0.20724 0.07217 0.47543
 H2301 H -0.11610 0.08619 0.48307
 H2302 H -0.07887 0.07022 0.48426
 H2303 H -0.10256 0.01304 0.51874
 H2304 H -0.13972 0.02931 0.51739
 C2305 C 0.68650 0.09063 0.50737
 C2306 C 0.68635 0.11350 0.50576
 C2307 C 0.70608 0.12472 0.50603
 C2308 C 0.72655 0.11331 0.50730
 C2309 C 0.72636 0.09027 0.51062
 C2310 C 0.70647 0.07902 0.51028
 C2311 C 0.66597 0.07941 0.50549
 C2312 C 0.64826 0.07105 0.50349
 C2313 C 0.62666 0.06208 0.50094
 C2314 C 0.60850 0.07377 0.50846
 C2315 C 0.58743 0.06528 0.50607
 C2316 C 0.58420 0.04492 0.49609
 C2317 C 0.60256 0.03344 0.48827
 C2318 C 0.62365 0.04199 0.49069
 H2319 H 0.67097 0.12270 0.50389
 H2320 H 0.70544 0.14246 0.50438
 H2321 H 0.74137 0.08077 0.51347
 H2322 H 0.70670 0.06129 0.51213
 H2323 H 0.61065 0.08941 0.51629
 H2324 H 0.57372 0.07457 0.51230
 H2325 H 0.60070 0.01772 0.48054
 H2326 H 0.63760 0.03289 0.48468
 C2327 C 0.18539 0.58982 1.00788
 C2328 C 0.18532 0.61271 1.00649
 C2329 C 0.20508 0.62390 1.00744
 C2330 C 0.22549 0.61242 1.00911
 C2331 C 0.22515 0.58935 1.01225
 C2332 C 0.20527 0.57816 1.01126
 C2333 C 0.16493 0.57857 1.00546
 C2334 C 0.14733 0.57004 1.00314
 C2335 C 0.12586 0.56082 1.00041
 C2336 C 0.10745 0.57281 1.00686
 C2337 C 0.08651 0.56400 1.00464
 C2338 C 0.08366 0.54300 0.99590
 C2339 C 0.10227 0.53122 0.98905
 C2340 C 0.12325 0.54011 0.99131
 H2341 H 0.16998 0.62195 1.00431
 H2342 H 0.20454 0.64165 1.00598
 H2343 H 0.24006 0.57978 1.01547
 H2344 H 0.20542 0.56042 1.01299
 H2345 H 0.10929 0.58892 1.01381
 H2346 H 0.07260 0.57355 1.01007
 H2347 H 0.10070 0.51501 0.98230
 H2348 H 0.13742 0.53075 0.98616
 C2349 C 0.19042 0.41224 0.48912
 C2350 C 0.21009 0.42340 0.48641
 C2351 C 0.23020 0.41172 0.48654
 C2352 C 0.23094 0.38871 0.49018
 C2353 C 0.21069 0.37774 0.49102
 C2354 C 0.19076 0.38937 0.49080
 C2355 C 0.16975 0.42386 0.49100
 C2356 C 0.15189 0.43235 0.49313
 C2357 C 0.13009 0.44127 0.49593
 C2358 C 0.12697 0.46149 0.50595
 C2359 C 0.10567 0.46984 0.50878
 C2360 C 0.08719 0.45801 0.50164
 C2361 C 0.09058 0.43755 0.49185
 C2362 C 0.11185 0.42928 0.48905
 H2363 H 0.20994 0.44112 0.48449
 H2364 H 0.24494 0.42088 0.48394
 H2365 H 0.21042 0.36003 0.49293
 H2366 H 0.17562 0.38049 0.49251
 H2367 H 0.14098 0.47085 0.51149
 H2368 H 0.10371 0.48565 0.51632
 H2369 H 0.07680 0.42799 0.48611
 H2370 H 0.11406 0.41352 0.48142
 C2371 C 0.69033 0.91001 0.00049
 C2372 C 0.69086 0.88819 -0.00604
 C2373 C 0.71091 0.87708 -0.00794
 C2374 C 0.73109 0.88767 -0.00395
 C2375 C 0.73022 0.90954 0.00337
 C2376 C 0.71002 0.92066 0.00528
 C2377 C 0.66938 0.92102 0.00261
 C2378 C 0.65136 0.92935 0.00399
 C2379 C 0.62940 0.93841 0.00508
 C2380 C 0.61160 0.92636 -0.00282
 C2381 C 0.59025 0.93515 -0.00246
 C2382 C 0.58636 0.95621 0.00583
 C2383 C 0.60436 0.96809 0.01405
 C2384 C 0.62574 0.95924 0.01365
 H2385 H 0.67571 0.87964 -0.00943
 H2386 H 0.71071 0.86000 -0.01247
 H2387 H 0.74500 0.91798 0.00823
 H2388 H 0.70977 0.93744 0.01083
 H2389 H 0.61425 0.91020 -0.00947
 H2390 H 0.57685 0.92552 -0.00892
 H2391 H 0.60199 0.98435 0.02053
 H2392 H 0.63940 0.96871 0.01984
 C2393 C 0.00418 0.81543 0.91381
 C2394 C 0.00764 0.79510 0.92456
 C2395 C 0.00732 0.77570 0.91266
 C2396 C 0.00283 0.77632 0.88982
 C2397 C 0.00072 0.79715 0.87924
 C2398 C 0.00107 0.81640 0.89111
 C2399 C 0.00374 0.83551 0.92572
 C2400 C 0.00305 0.85295 0.93463
 C2401 C 0.00206 0.87433 0.94409
 C2402 C -0.00784 0.87743 0.96416
 C2403 C -0.00930 0.89847 0.97283
 C2404 C -0.00089 0.91667 0.96148
 C2405 C 0.00902 0.91329 0.94130
 C2406 C 0.01046 0.89229 0.93270
 H2407 H 0.01065 0.79425 0.94211
 H2408 H 0.01087 0.76044 0.92147
 H2409 H -0.00175 0.79843 0.86164
 H2410 H -0.00122 0.83207 0.88256
 H2411 H -0.01451 0.86363 0.97304
 H2412 H -0.01702 0.90045 0.98840
 H2413 H 0.01571 0.92687 0.93212
 H2414 H 0.01806 0.89007 0.91709
 C2415 C 0.50385 0.31858 0.41324
 C2416 C 0.50740 0.29835 0.42415
 C2417 C 0.50806 0.27890 0.41233
 C2418 C 0.50446 0.27933 0.38936
 C2419 C 0.50247 0.30010 0.37864
 C2420 C 0.50184 0.31941 0.39044
 C2421 C 0.50214 0.33866 0.42511
 C2422 C 0.50050 0.35604 0.43407
 C2423 C 0.49867 0.37736 0.44364
 C2424 C 0.48994 0.37987 0.46437
 C2425 C 0.48846 0.40074 0.47348
 C2426 C 0.49572 0.41935 0.46192
 C2427 C 0.50414 0.41660 0.44094
 C2428 C 0.50558 0.39579 0.43192
 H2429 H 0.50962 0.29760 0.44180
 H2430 H 0.51150 0.26374 0.42135
 H2431 H 0.50062 0.30125 0.36098
 H2432 H 0.49953 0.33501 0.38176
 H2433 H 0.48444 0.36570 0.47355
 H2434 H 0.48194 0.40224 0.48966
 H2435 H 0.50985 0.43050 0.43153
 H2436 H 0.51224 0.39405 0.41581
 C2437 C -0.00696 0.30456 0.57976
 C2438 C 0.01126 0.29027 0.58006
 C2439 C 0.01135 0.27101 0.59282
 C2440 C -0.00644 0.26604 0.60631
 C2441 C -0.02568 0.27933 0.60374
 C2442 C -0.02573 0.29867 0.59095
 C2443 C -0.00562 0.32595 0.56948
 C2444 C -0.00394 0.34421 0.56178
 C2445 C -0.00167 0.36632 0.55347
 C2446 C -0.00874 0.38399 0.56586
 C2447 C -0.00654 0.40553 0.55805
 C2448 C 0.00283 0.40974 0.53765
 C2449 C 0.01017 0.39184 0.52543
 C2450 C 0.00794 0.37028 0.53331
 H2451 H 0.02576 0.29442 0.57112
 H2452 H 0.02600 0.26060 0.59332
 H2453 H -0.04063 0.27525 0.61184
 H2454 H -0.04020 0.30932 0.59030
 H2455 H -0.01607 0.38112 0.58156
 H2456 H -0.01240 0.41885 0.56791
 H2457 H 0.01739 0.39444 0.50965
 H2458 H 0.01360 0.35671 0.52364
 C2459 C 0.49304 0.80379 0.08061
 C2460 C 0.47414 0.79755 0.09140
 C2461 C 0.47424 0.77817 0.10411
 C2462 C 0.49365 0.76517 0.10702
 C2463 C 0.51165 0.77049 0.09395
 C2464 C 0.51150 0.78980 0.08126
 C2465 C 0.49417 0.82518 0.07031
 C2466 C 0.49562 0.84343 0.06250
 C2467 C 0.49764 0.86547 0.05393
 C2468 C 0.50805 0.86930 0.03417
 C2469 C 0.51008 0.89077 0.02599
 C2470 C 0.50172 0.90873 0.03751
 C2471 C 0.49152 0.90466 0.05750
 C2472 C 0.48952 0.88320 0.06562
 H2473 H 0.45949 0.80796 0.09046
 H2474 H 0.45919 0.77382 0.11188
 H2475 H 0.52645 0.76031 0.09472
 H2476 H 0.52611 0.79422 0.07263
 H2477 H 0.51452 0.85570 0.02504
 H2478 H 0.51797 0.89325 0.01054
 H2479 H 0.48486 0.91803 0.06681
 H2480 H 0.48155 0.88043 0.08100
 C2481 C 0.49739 0.68713 0.08268
 C2482 C 0.51684 0.69376 0.09317
 C2483 C 0.51703 0.71287 0.10546
 C2484 C 0.49747 0.72526 0.10825
 C2485 C 0.47863 0.71949 0.09566
 C2486 C 0.47847 0.70039 0.08340
 C2487 C 0.49655 0.66618 0.07222
 C2488 C 0.49570 0.64828 0.06420
 C2489 C 0.49470 0.62658 0.05535
 C2490 C 0.50343 0.60862 0.06757
 C2491 C 0.50258 0.58749 0.05915
 C2492 C 0.49294 0.58398 0.03831
 C2493 C 0.48403 0.60215 0.02621
 C2494 C 0.48491 0.62330 0.03469
 H2495 H 0.53179 0.68395 0.09216
 H2496 H 0.53255 0.71764 0.11279
 H2497 H 0.46362 0.72927 0.09625
 H2498 H 0.46341 0.69569 0.07496
 H2499 H 0.51098 0.61096 0.08362
 H2500 H 0.50962 0.57394 0.06893
 H2501 H 0.47651 0.60009 0.01011
 H2502 H 0.47803 0.63708 0.02511
 C2503 C -0.00455 0.18805 0.58201
 C2504 C 0.01526 0.19445 0.59194
 C2505 C 0.01606 0.21353 0.60426
 C2506 C -0.00325 0.22613 0.60765
 C2507 C -0.02252 0.22056 0.59562
 C2508 C -0.02328 0.20150 0.58333
 C2509 C -0.00592 0.16717 0.57148
 C2510 C -0.00707 0.14930 0.56342
 C2511 C -0.00822 0.12761 0.55456
 C2512 C -0.00057 0.10951 0.56724
 C2513 C -0.00107 0.08843 0.55869
 C2514 C -0.00925 0.08510 0.53723
 C2515 C -0.01728 0.10339 0.52473
 C2516 C -0.01675 0.12450 0.53335
 H2517 H 0.03007 0.18450 0.59045
 H2518 H 0.03184 0.21814 0.61110
 H2519 H -0.03738 0.23051 0.59665
 H2520 H -0.03863 0.19697 0.57533
 H2521 H 0.00600 0.11171 0.58371
 H2522 H 0.00524 0.07479 0.56881
 H2523 H -0.02365 0.10147 0.50816
 H2524 H -0.02277 0.13840 0.52340
 C2525 C 0.50183 0.19600 0.41182
 C2526 C 0.51700 0.19881 0.39544
 C2527 C 0.51780 0.21866 0.38380
 C2528 C 0.50386 0.23667 0.38874
 C2529 C 0.48783 0.23308 0.40462
 C2530 C 0.48705 0.21307 0.41628
 C2531 C 0.50114 0.17511 0.42317
 C2532 C 0.50125 0.15712 0.43177
 C2533 C 0.50177 0.13521 0.44105
 C2534 C 0.49296 0.11803 0.42898
 C2535 C 0.49380 0.09659 0.43755
 C2536 C 0.50350 0.09198 0.45839
 C2537 C 0.51250 0.10936 0.47035
 C2538 C 0.51165 0.13083 0.46171
 H2539 H 0.52804 0.18545 0.39136
 H2540 H 0.52909 0.21941 0.37055
 H2541 H 0.47591 0.24588 0.40802
 H2542 H 0.47481 0.21087 0.42857
 H2543 H 0.48544 0.12121 0.41290
 H2544 H 0.48669 0.08367 0.42787
 H2545 H 0.52005 0.10643 0.48644
 H2546 H 0.51867 0.14400 0.47112
 C2547 C -0.00027 0.69295 0.91163
 C2548 C 0.01440 0.69560 0.89479
 C2549 C 0.01521 0.71550 0.88326
 C2550 C 0.00182 0.73370 0.88880
 C2551 C -0.01385 0.73027 0.90506
 C2552 C -0.01462 0.71021 0.91662
 C2553 C -0.00079 0.67209 0.92301
 C2554 C -0.00047 0.65412 0.93165
 C2555 C 0.00039 0.63226 0.94099
 C2556 C -0.00807 0.61490 0.92895
 C2557 C -0.00692 0.59351 0.93762
 C2558 C 0.00274 0.58915 0.95852
 C2559 C 0.01143 0.60672 0.97042
 C2560 C 0.01027 0.62814 0.96168
 H2561 H 0.02509 0.68210 0.89031
 H2562 H 0.02613 0.71621 0.86969
 H2563 H -0.02541 0.74324 0.90890
 H2564 H -0.02650 0.70813 0.92929
 H2565 H -0.01557 0.61789 0.91284
 H2566 H -0.01380 0.58043 0.92799
 H2567 H 0.01894 0.60399 0.98656
 H2568 H 0.01703 0.64146 0.97106
 C2569 C 0.25095 0.66425 0.94744
 C2570 C 0.26543 0.66813 0.96509
 C2571 C 0.26387 0.65598 0.98466
 C2572 C 0.24736 0.64016 0.98721
 C2573 C 0.23366 0.63588 0.96869
 C2574 C 0.23523 0.64802 0.94927
 C2575 C 0.25247 0.67602 0.92694
 C2576 C 0.25292 0.68493 0.90919
 C2577 C 0.25275 0.69454 0.88751
 C2578 C 0.24286 0.71516 0.88319
 C2579 C 0.24166 0.72383 0.86181
 C2580 C 0.25030 0.71189 0.84445
 C2581 C 0.26029 0.69120 0.84905
 C2582 C 0.26148 0.68262 0.87041
 H2583 H 0.27807 0.68032 0.96366
 H2584 H 0.27562 0.65889 0.99790
 H2585 H 0.22199 0.62273 0.96867
 H2586 H 0.22438 0.64440 0.93547
 H2587 H 0.23589 0.72445 0.89629
 H2588 H 0.23389 0.73980 0.85888
 H2589 H 0.26716 0.68157 0.83615
 H2590 H 0.26902 0.66655 0.87355
 C2591 C 0.74951 0.16445 0.44423
 C2592 C 0.76439 0.16886 0.46140
 C2593 C 0.76366 0.15691 0.48116
 C2594 C 0.74757 0.14079 0.48439
 C2595 C 0.73351 0.13593 0.46629
 C2596 C 0.73427 0.14786 0.44668
 C2597 C 0.75019 0.17599 0.42354
 C2598 C 0.75001 0.18463 0.40565
 C2599 C 0.74931 0.19382 0.38381
 C2600 C 0.74012 0.21474 0.37944
 C2601 C 0.73898 0.22323 0.35800
 C2602 C 0.74701 0.21084 0.34067
 C2603 C 0.75604 0.18974 0.34530
 C2604 C 0.75716 0.18132 0.36670
 H2605 H 0.77669 0.18132 0.45944
 H2606 H 0.77567 0.16026 0.49404
 H2607 H 0.72216 0.12252 0.46678
 H2608 H 0.72315 0.14383 0.43323
 H2609 H 0.73382 0.22446 0.39258
 H2610 H 0.73197 0.23954 0.35504
 H2611 H 0.76240 0.17973 0.33241
 H2612 H 0.76413 0.16503 0.36991
 C2613 C 0.25242 0.33599 0.43343
 C2614 C 0.25418 0.35879 0.43259
 C2615 C 0.25357 0.37077 0.45172
 C2616 C 0.25182 0.36021 0.47239
 C2617 C 0.24852 0.33728 0.47281
 C2618 C 0.24917 0.32527 0.45350
 C2619 C 0.25396 0.32400 0.41347
 C2620 C 0.25540 0.31513 0.39610
 C2621 C 0.25693 0.30580 0.37474
 C2622 C 0.24989 0.31831 0.35631
 C2623 C 0.25088 0.30949 0.33546
 C2624 C 0.25896 0.28795 0.33268
 C2625 C 0.26642 0.27562 0.35129
 C2626 C 0.26539 0.28451 0.37219
 H2627 H 0.25625 0.36736 0.41710
 H2628 H 0.25518 0.38843 0.45052
 H2629 H 0.24526 0.32846 0.48781
 H2630 H 0.24713 0.30764 0.45425
 H2631 H 0.24343 0.33486 0.35806
 H2632 H 0.24501 0.31950 0.32156
 H2633 H 0.27267 0.25897 0.34978
 H2634 H 0.27099 0.27471 0.38635
 C2635 C 0.75949 0.83775 0.93501
 C2636 C 0.74513 0.85585 0.93560
 C2637 C 0.74263 0.86720 0.95497
 C2638 C 0.75394 0.86029 0.97456
 C2639 C 0.76915 0.84254 0.97338
 C2640 C 0.77163 0.83117 0.95390
 C2641 C 0.76187 0.82650 0.91469
 C2642 C 0.76298 0.81788 0.89717
 C2643 C 0.76326 0.80844 0.87576
 C2644 C 0.75506 0.82078 0.85765
 C2645 C 0.75396 0.81150 0.83696
 C2646 C 0.76103 0.78965 0.83402
 C2647 C 0.76971 0.77750 0.85227
 C2648 C 0.77076 0.78684 0.87301
 H2649 H 0.73605 0.86146 0.92094
 H2650 H 0.73212 0.88172 0.95431
 H2651 H 0.77921 0.83752 0.98759
 H2652 H 0.78318 0.81744 0.95353
 H2653 H 0.74919 0.83751 0.85958
 H2654 H 0.74725 0.82139 0.82333
 H2655 H 0.77529 0.76064 0.85064
 H2656 H 0.77710 0.77711 0.88693
 C2657 C 0.74606 0.83718 0.05710
 C2658 C 0.75263 0.85901 0.05694
 C2659 C 0.75520 0.87031 0.03717
 C2660 C 0.75186 0.85991 0.01692
 C2661 C 0.74458 0.83798 0.01737
 C2662 C 0.74199 0.82667 0.03729
 C2663 C 0.74317 0.82603 0.07779
 C2664 C 0.74122 0.81769 0.09567
 C2665 C 0.73961 0.80877 0.11755
 C2666 C 0.74635 0.82138 0.13531
 C2667 C 0.74600 0.81266 0.15659
 C2668 C 0.73888 0.79110 0.16048
 C2669 C 0.73160 0.77871 0.14254
 C2670 C 0.73201 0.78750 0.12121
 H2671 H 0.75550 0.86745 0.07217
 H2672 H 0.75967 0.88742 0.03766
 H2673 H 0.74021 0.82966 0.00246
 H2674 H 0.73644 0.80987 0.03723
 H2675 H 0.75223 0.83788 0.13268
 H2676 H 0.75168 0.82271 0.16995
 H2677 H 0.72607 0.76206 0.14491
 H2678 H 0.72673 0.77759 0.10757
 C2679 C 0.25369 0.33854 0.55586
 C2680 C 0.23931 0.35640 0.55219
 C2681 C 0.23901 0.36802 0.53234
 C2682 C 0.25258 0.36159 0.51508
 C2683 C 0.26818 0.34447 0.51969
 C2684 C 0.26844 0.33278 0.53972
 C2685 C 0.25329 0.32686 0.57656
 C2686 C 0.25197 0.31812 0.59435
 C2687 C 0.24982 0.30879 0.61601
 C2688 C 0.25660 0.32077 0.63419
 C2689 C 0.25436 0.31210 0.65532
 C2690 C 0.24527 0.29124 0.65863
 C2691 C 0.23814 0.27945 0.64022
 C2692 C 0.24041 0.28819 0.61906
 H2693 H 0.22835 0.36153 0.56483
 H2694 H 0.22819 0.38227 0.53089
 H2695 H 0.27998 0.33996 0.50760
 H2696 H 0.28015 0.31934 0.54262
 H2697 H 0.26371 0.33682 0.63205
 H2698 H 0.26006 0.32166 0.66903
 H2699 H 0.23116 0.26332 0.64213
 H2700 H 0.23492 0.27885 0.60510
 C2701 C 0.74879 0.16378 0.56641
 C2702 C 0.74505 0.17517 0.54650
 C2703 C 0.74400 0.16371 0.52689
 C2704 C 0.74741 0.14068 0.52688
 C2705 C 0.74959 0.12948 0.54733
 C2706 C 0.75059 0.14091 0.56679
 C2707 C 0.75093 0.17520 0.58665
 C2708 C 0.75293 0.18361 0.60422
 C2709 C 0.75516 0.19241 0.62576
 C2710 C 0.76433 0.21303 0.62902
 C2711 C 0.76605 0.22145 0.65010
 C2712 C 0.75857 0.20930 0.66816
 C2713 C 0.74980 0.18839 0.66467
 C2714 C 0.74813 0.18004 0.64364
 H2715 H 0.74300 0.19288 0.54613
 H2716 H 0.74044 0.17305 0.51195
 H2717 H 0.75129 0.11175 0.54812
 H2718 H 0.75304 0.13189 0.58216
 H2719 H 0.76994 0.22267 0.61526
 H2720 H 0.77283 0.23761 0.65220
 H2721 H 0.74392 0.17855 0.67815
 H2722 H 0.74114 0.16399 0.64129
 C2723 C 0.24701 0.66175 0.06962
 C2724 C 0.24386 0.67346 0.04982
 C2725 C 0.24311 0.66233 0.03000
 C2726 C 0.24623 0.63927 0.02968
 C2727 C 0.24780 0.62775 0.04999
 C2728 C 0.24850 0.63887 0.06966
 C2729 C 0.24901 0.67292 0.09005
 C2730 C 0.25097 0.68138 0.10762
 C2731 C 0.25331 0.69055 0.12903
 C2732 C 0.26235 0.71131 0.13177
 C2733 C 0.26434 0.72013 0.15266
 C2734 C 0.25728 0.70826 0.17109
 C2735 C 0.24856 0.68724 0.16813
 C2736 C 0.24660 0.67849 0.14726
 H2737 H 0.24207 0.69119 0.04967
 H2738 H 0.24002 0.67194 0.01515
 H2739 H 0.24926 0.60999 0.05053
 H2740 H 0.25053 0.62958 0.08493
 H2741 H 0.26769 0.72073 0.11776
 H2742 H 0.27109 0.73636 0.15432
 H2743 H 0.24297 0.67763 0.18189
 H2744 H 0.23970 0.66234 0.14532
 C2745 C 0.16152 0.56237 0.76074
 C2746 C 0.16764 0.54357 0.77315
 C2747 C 0.15606 0.52408 0.77049
 C2748 C 0.13852 0.52277 0.75486
 C2749 C 0.13206 0.54228 0.74323
 C2750 C 0.14363 0.56166 0.74591
 C2751 C 0.17300 0.58270 0.76340
 C2752 C 0.18185 0.60022 0.76487
 C2753 C 0.19151 0.62164 0.76571
 C2754 C 0.21310 0.62427 0.77373
 C2755 C 0.22252 0.64510 0.77352
 C2756 C 0.21046 0.66358 0.76521
 C2757 C 0.18866 0.66074 0.75749
 C2758 C 0.17931 0.63996 0.75775
 H2759 H 0.18118 0.54402 0.78506
 H2760 H 0.16076 0.50995 0.78074
 H2761 H 0.11772 0.54288 0.73232
 H2762 H 0.13837 0.57626 0.73660
 H2763 H 0.22272 0.61020 0.77990
 H2764 H 0.23933 0.64666 0.77956
 H2765 H 0.17883 0.67453 0.75101
 H2766 H 0.16260 0.63815 0.75148
 C2767 C 0.65951 0.06392 0.25843
 C2768 C 0.66586 0.04512 0.27073
 C2769 C 0.65448 0.02553 0.26803
 C2770 C 0.63686 0.02412 0.25250
 C2771 C 0.63029 0.04357 0.24082
 C2772 C 0.64168 0.06306 0.24354
 C2773 C 0.67064 0.08440 0.26134
 C2774 C 0.67929 0.10199 0.26308
 C2775 C 0.68891 0.12341 0.26426
 C2776 C 0.71013 0.12599 0.27326
 C2777 C 0.71975 0.14671 0.27314
 C2778 C 0.70827 0.16515 0.26390
 C2779 C 0.68675 0.16241 0.25536
 C2780 C 0.67720 0.14172 0.25554
 H2781 H 0.67938 0.04567 0.28265
 H2782 H 0.65928 0.01144 0.27828
 H2783 H 0.61592 0.04410 0.22996
 H2784 H 0.63627 0.07765 0.23429
 H2785 H 0.71938 0.11193 0.28004
 H2786 H 0.73633 0.14819 0.27983
 H2787 H 0.67738 0.17617 0.24816
 H2788 H 0.66076 0.13994 0.24852
 C2789 C 0.84020 0.05708 0.74829
 C2790 C 0.85650 0.05454 0.73299
 C2791 C 0.86805 0.03469 0.73172
 C2792 C 0.86311 0.01642 0.74530
 C2793 C 0.84725 0.01968 0.76140
 C2794 C 0.83567 0.03969 0.76265
 C2795 C 0.82900 0.07799 0.74947
 C2796 C 0.82047 0.09600 0.74968
 C2797 C 0.81114 0.11787 0.74939
 C2798 C 0.82329 0.13506 0.75813
 C2799 C 0.81460 0.15647 0.75743
 C2800 C 0.79358 0.16099 0.74794
 C2801 C 0.78156 0.14358 0.73901
 C2802 C 0.79031 0.12218 0.73973
 H2803 H 0.86061 0.06812 0.72223
 H2804 H 0.88129 0.03416 0.72037
 H2805 H 0.84385 0.00666 0.77305
 H2806 H 0.82342 0.04167 0.77496
 H2807 H 0.83951 0.13193 0.76548
 H2808 H 0.82431 0.16941 0.76449
 H2809 H 0.76533 0.14644 0.73161
 H2810 H 0.78084 0.10900 0.73275
 C2811 C 0.34090 0.55711 0.25085
 C2812 C 0.35764 0.55471 0.23599
 C2813 C 0.36906 0.53478 0.23464
 C2814 C 0.36355 0.51631 0.24768
 C2815 C 0.34720 0.51938 0.26332
 C2816 C 0.33577 0.53947 0.26466
 C2817 C 0.32984 0.57809 0.25220
 C2818 C 0.32139 0.59612 0.25261
 C2819 C 0.31207 0.61801 0.25257
 C2820 C 0.32428 0.63514 0.26137
 C2821 C 0.31560 0.65656 0.26087
 C2822 C 0.29453 0.66115 0.25151
 C2823 C 0.28244 0.64380 0.24257
 C2824 C 0.29118 0.62239 0.24309
 H2825 H 0.36220 0.56846 0.22567
 H2826 H 0.38263 0.53434 0.22369
 H2827 H 0.34334 0.50617 0.27459
 H2828 H 0.32316 0.54130 0.27663
 H2829 H 0.34054 0.63195 0.26861
 H2830 H 0.32536 0.66946 0.26793
 H2831 H 0.26618 0.64671 0.23526
 H2832 H 0.28166 0.60926 0.23608
 C2833 C 0.33981 0.43401 0.24545
 C2834 C 0.32860 0.45413 0.24208
 C2835 C 0.34021 0.47379 0.24208
 C2836 C 0.36323 0.47361 0.24614
 C2837 C 0.37426 0.45298 0.24800
 C2838 C 0.36267 0.43349 0.24796
 C2839 C 0.32820 0.41369 0.24659
 C2840 C 0.31953 0.39610 0.24787
 C2841 C 0.31022 0.37462 0.24944
 C2842 C 0.28998 0.37159 0.25919
 C2843 C 0.28107 0.35061 0.26054
 C2844 C 0.29234 0.33238 0.25212
 C2845 C 0.31286 0.33561 0.24267
 C2846 C 0.32170 0.35657 0.24136
 H2847 H 0.31090 0.45463 0.23954
 H2848 H 0.33103 0.48890 0.23881
 H2849 H 0.39198 0.45206 0.25025
 H2850 H 0.37158 0.41799 0.25017
 H2851 H 0.28102 0.38544 0.26562
 H2852 H 0.26524 0.34874 0.26789
 H2853 H 0.32200 0.32201 0.23603
 H2854 H 0.33745 0.35873 0.23390
 C2855 C 0.83953 0.93407 0.74479
 C2856 C 0.86244 0.93360 0.74660
 C2857 C 0.87399 0.95312 0.74608
 C2858 C 0.86289 0.97371 0.74437
 C2859 C 0.83979 0.97381 0.74101
 C2860 C 0.82822 0.95414 0.74156
 C2861 C 0.82795 0.91377 0.74647
 C2862 C 0.81920 0.89625 0.74813
 C2863 C 0.80968 0.87490 0.75009
 C2864 C 0.82082 0.85663 0.74205
 C2865 C 0.81170 0.83581 0.74361
 C2866 C 0.79122 0.83295 0.75327
 C2867 C 0.78031 0.85140 0.76168
 C2868 C 0.78950 0.87224 0.76008
 H2869 H 0.87142 0.91813 0.74869
 H2870 H 0.89176 0.95225 0.74777
 H2871 H 0.83049 0.98888 0.73785
 H2872 H 0.81046 0.95461 0.73954
 H2873 H 0.83652 0.85850 0.73440
 H2874 H 0.82057 0.82203 0.73698
 H2875 H 0.76453 0.84982 0.76919
 H2876 H 0.78080 0.88627 0.76646
 C2877 C 0.65944 0.94103 0.24556
 C2878 C 0.63752 0.94137 0.25167
 C2879 C 0.62628 0.96131 0.25391
 C2880 C 0.63682 0.98157 0.25069
 C2881 C 0.65881 0.98092 0.24384
 C2882 C 0.67005 0.96083 0.24159
 C2883 C 0.67062 0.92019 0.24311
 C2884 C 0.67917 0.90228 0.24145
 C2885 C 0.68853 0.88045 0.24010
 C2886 C 0.67690 0.86253 0.24805
 C2887 C 0.68608 0.84135 0.24767
 C2888 C 0.70710 0.83771 0.23931
 C2889 C 0.71850 0.85580 0.23092
 C2890 C 0.70926 0.87703 0.23135
 H2891 H 0.62899 0.92615 0.25447
 H2892 H 0.60914 0.96097 0.25811
 H2893 H 0.66726 0.99579 0.23960
 H2894 H 0.68691 0.96076 0.23640
 H2895 H 0.66082 0.86497 0.25483
 H2896 H 0.67679 0.82787 0.25424
 H2897 H 0.73471 0.85364 0.22439
 H2898 H 0.71841 0.89078 0.22511
 C2899 C 0.16198 0.44008 0.74681
 C2900 C 0.14007 0.44008 0.75295
 C2901 C 0.12861 0.45986 0.75552
 C2902 C 0.13891 0.48028 0.75259
 C2903 C 0.16092 0.47997 0.74575
 C2904 C 0.17238 0.46006 0.74317
 C2905 C 0.17334 0.41942 0.74383
 C2906 C 0.18199 0.40162 0.74169
 C2907 C 0.19134 0.37984 0.73976
 C2908 C 0.17911 0.36169 0.74606
 C2909 C 0.18818 0.34050 0.74522
 C2910 C 0.20972 0.33706 0.73805
 C2911 C 0.22175 0.35539 0.73127
 C2912 C 0.21262 0.37665 0.73216
 H2913 H 0.13170 0.42473 0.75547
 H2914 H 0.11146 0.45925 0.75964
 H2915 H 0.16921 0.49498 0.74169
 H2916 H 0.18922 0.46026 0.73795
 H2917 H 0.16262 0.36393 0.75192
 H2918 H 0.17837 0.32683 0.75051
 H2919 H 0.23837 0.35338 0.72570
 H2920 H 0.22224 0.39058 0.72722
 C2921 C 0.06280 0.75821 0.83968
 C2922 C 0.06315 0.75545 0.86238
 C2923 C 0.04356 0.75532 0.87350
 C2924 C 0.02300 0.75732 0.86213
 C2925 C 0.02300 0.76176 0.83935
 C2926 C 0.04276 0.76183 0.82820
 C2927 C 0.08316 0.75679 0.82850
 C2928 C 0.10078 0.75511 0.82020
 C2929 C 0.12228 0.75286 0.81136
 C2930 C 0.14052 0.76060 0.82312
 C2931 C 0.16155 0.75826 0.81491
 C2932 C 0.16465 0.74808 0.79475
 C2933 C 0.14619 0.74013 0.78314
 C2934 C 0.12514 0.74251 0.79142
 H2935 H 0.07860 0.75302 0.87149
 H2936 H 0.04435 0.75283 0.89109
 H2937 H 0.00795 0.76523 0.82998
 H2938 H 0.04239 0.76457 0.81063
 H2939 H 0.13848 0.76851 0.83866
 H2940 H 0.17534 0.76461 0.82428
 H2941 H 0.14796 0.73226 0.76756
 H2942 H 0.11112 0.73632 0.78226
 C2943 C 0.56446 0.25995 0.33886
 C2944 C 0.54433 0.26309 0.32741
 C2945 C 0.52465 0.26358 0.33871
 C2946 C 0.52478 0.26015 0.36166
 C2947 C 0.54543 0.25880 0.37294
 C2948 C 0.56497 0.25837 0.36166
 C2949 C 0.58473 0.25779 0.32752
 C2950 C 0.60222 0.25558 0.31902
 C2951 C 0.62361 0.25285 0.30994
 C2952 C 0.62598 0.24360 0.28937
 C2953 C 0.64690 0.24113 0.28072
 C2954 C 0.66571 0.24791 0.29258
 C2955 C 0.66310 0.25686 0.31341
 C2956 C 0.64223 0.25929 0.32198
 H2957 H 0.54382 0.26496 0.30975
 H2958 H 0.50954 0.26655 0.32930
 H2959 H 0.54634 0.25707 0.39060
 H2960 H 0.58048 0.25635 0.37075
 H2961 H 0.61168 0.23843 0.27996
 H2962 H 0.64828 0.23423 0.26464
 H2963 H 0.67716 0.26226 0.32302
 H2964 H 0.64059 0.26634 0.33798
 C2965 C 0.55547 0.75078 0.16502
 C2966 C 0.54651 0.76942 0.15423
 C2967 C 0.52709 0.76807 0.14164
 C2968 C 0.51660 0.74771 0.13876
 C2969 C 0.52453 0.72967 0.15184
 C2970 C 0.54409 0.73103 0.16439
 C2971 C 0.57692 0.75184 0.17553
 C2972 C 0.59529 0.75309 0.18335
 C2973 C 0.61755 0.75467 0.19179
 C2974 C 0.62206 0.76525 0.21147
 C2975 C 0.64375 0.76658 0.21959
 C2976 C 0.66124 0.75731 0.20811
 C2977 C 0.65650 0.74706 0.18813
 C2978 C 0.63483 0.74576 0.18006
 H2979 H 0.55479 0.78499 0.15517
 H2980 H 0.52059 0.78309 0.13403
 H2981 H 0.51611 0.71417 0.15146
 H2982 H 0.55060 0.71657 0.17315
 H2983 H 0.60882 0.77233 0.22061
 H2984 H 0.64676 0.77456 0.23503
 H2985 H 0.66949 0.73972 0.17885
 H2986 H 0.63154 0.73765 0.16473
 C2987 C 0.05681 0.25127 0.66248
 C2988 C 0.04757 0.26999 0.65206
 C2989 C 0.02771 0.26877 0.64017
 C2990 C 0.01704 0.24847 0.63757
 C2991 C 0.02529 0.23036 0.65035
 C2992 C 0.04530 0.23159 0.66222
 C2993 C 0.07857 0.25226 0.67236
 C2994 C 0.09711 0.25356 0.67977
 C2995 C 0.11946 0.25530 0.68796
 C2996 C 0.12406 0.26613 0.70747
 C2997 C 0.14576 0.26749 0.71553
 C2998 C 0.16321 0.25800 0.70415
 C2999 C 0.15841 0.24757 0.68428
 C3000 C 0.13670 0.24624 0.67627
 H3001 H 0.05594 0.28552 0.65277
 H3002 H 0.02104 0.28384 0.63281
 H3003 H 0.01678 0.21491 0.65024
 H3004 H 0.05202 0.21707 0.67073
 H3005 H 0.11086 0.27333 0.71659
 H3006 H 0.14879 0.27561 0.73089
 H3007 H 0.17137 0.24003 0.67510
 H3008 H 0.13335 0.23793 0.66106
 C3009 C 0.94090 0.24310 0.66696
 C3010 C 0.94830 0.22407 0.65696
 C3011 C 0.96641 0.22471 0.64352
 C3012 C 0.97702 0.24472 0.63896
 C3013 C 0.97082 0.26317 0.65118
 C3014 C 0.95260 0.26251 0.66459
 C3015 C 0.92059 0.24283 0.67847
 C3016 C 0.90304 0.24241 0.68714
 C3017 C 0.88159 0.24197 0.69648
 C3018 C 0.87863 0.23231 0.71713
 C3019 C 0.85768 0.23197 0.72597
 C3020 C 0.83938 0.24130 0.71425
 C3021 C 0.84256 0.25075 0.69340
 C3022 C 0.86348 0.25106 0.68463
 H3023 H 0.93981 0.20874 0.65921
 H3024 H 0.97179 0.20942 0.63661
 H3025 H 0.97950 0.27844 0.64951
 H3026 H 0.94736 0.27728 0.67269
 H3027 H 0.89252 0.22512 0.72642
 H3028 H 0.85587 0.22459 0.74206
 H3029 H 0.82892 0.25809 0.68388
 H3030 H 0.86553 0.25849 0.66859
 C3031 C 0.44020 0.74129 0.16662
 C3032 C 0.45177 0.76081 0.16459
 C3033 C 0.47013 0.76175 0.15141
 C3034 C 0.47666 0.74348 0.13911
 C3035 C 0.46608 0.72336 0.14324
 C3036 C 0.44781 0.72244 0.15645
 C3037 C 0.41989 0.74073 0.17808
 C3038 C 0.40240 0.74018 0.18682
 C3039 C 0.38107 0.73969 0.19637
 C3040 C 0.36285 0.74890 0.18478
 C3041 C 0.34210 0.74882 0.19393
 C3042 C 0.33922 0.73948 0.21488
 C3043 C 0.35761 0.72992 0.22628
 C3044 C 0.37838 0.73004 0.21707
 H3045 H 0.44635 0.77544 0.17282
 H3046 H 0.47873 0.77710 0.15003
 H3047 H 0.47165 0.70818 0.13625
 H3048 H 0.43940 0.70703 0.15845
 H3049 H 0.36471 0.75632 0.16871
 H3050 H 0.32838 0.75632 0.18465
 H3051 H 0.35602 0.72263 0.24243
 H3052 H 0.39236 0.72277 0.22615
 C3053 C 0.44178 0.25449 0.33709
 C3054 C 0.44381 0.26968 0.35374
 C3055 C 0.46350 0.27119 0.36584
 C3056 C 0.48210 0.25798 0.36113
 C3057 C 0.47932 0.24194 0.34492
 C3058 C 0.45950 0.24045 0.33280
 C3059 C 0.42105 0.25301 0.32524
 C3060 C 0.40321 0.25239 0.31614
 C3061 C 0.38147 0.25208 0.30617
 C3062 C 0.37735 0.26110 0.28517
 C3063 C 0.35603 0.26130 0.27588
 C3064 C 0.33851 0.25250 0.28754
 C3065 C 0.34287 0.24356 0.30869
 C3066 C 0.36418 0.24338 0.31790
 H3067 H 0.42997 0.28017 0.35768
 H3068 H 0.46365 0.28243 0.37927
 H3069 H 0.49262 0.23054 0.34162
 H3070 H 0.45793 0.22820 0.32028
 H3071 H 0.39061 0.26802 0.27600
 H3072 H 0.35329 0.26828 0.25958
 H3073 H 0.32985 0.23662 0.31814
 H3074 H 0.36715 0.23650 0.33423
 C3075 C 0.94013 0.75261 0.83708
 C3076 C 0.95789 0.73878 0.83239
 C3077 C 0.97766 0.73991 0.84465
 C3078 C 0.98032 0.75541 0.86138
 C3079 C 0.96168 0.76836 0.86651
 C3080 C 0.94204 0.76720 0.85428
 C3081 C 0.91947 0.75147 0.82512
 C3082 C 0.90162 0.75111 0.81602
 C3083 C 0.87983 0.75108 0.80620
 C3084 C 0.86258 0.74248 0.81806
 C3085 C 0.84119 0.74299 0.80909
 C3086 C 0.83670 0.75215 0.78805
 C3087 C 0.85418 0.76081 0.77625
 C3088 C 0.87560 0.76029 0.78530
 H3089 H 0.95639 0.72697 0.81946
 H3090 H 0.99100 0.72869 0.84103
 H3091 H 0.96180 0.77913 0.88032
 H3092 H 0.92816 0.77749 0.85851
 H3093 H 0.86565 0.73545 0.83432
 H3094 H 0.82820 0.73614 0.81866
 H3095 H 0.85133 0.76796 0.76003
 H3096 H 0.88883 0.76714 0.77605
   
