data_POSCAR
  _audit_creation_date              2014-09-24
  _audit_creation_method            'ToBaCCo'
  _symmetry_space_group_name_H-M    'P1'
  _symmetry_Int_Tables_number       1
  _symmetry_cell_setting            triclinic
  loop_
  _symmetry_equiv_pos_as_xyz
 x,y,z
_cell_length_a 39.0244
_cell_length_b 39.4639
_cell_length_c 49.7963
_cell_angle_alpha 89.758400
_cell_angle_beta 89.586100
_cell_angle_gamma 89.943900
loop_
  _atom_site_label
  _atom_site_type_symbol
  _atom_site_fract_x
  _atom_site_fract_y
  _atom_site_fract_z
B1 B 0.27143 0.24093 0.28138
 B2 B 0.23022 0.23646 0.27199
 B3 B 0.24570 0.27527 0.27856
 B4 B 0.28689 0.27724 0.26783
 B5 B 0.29668 0.23882 0.25396
 B6 B 0.26129 0.21346 0.25684
 B7 B 0.24477 0.26725 0.22477
 B8 B 0.28582 0.27194 0.23438
 B9 B 0.27039 0.23313 0.22748
 B10 B 0.22931 0.23091 0.23826
 B11 B 0.21942 0.26908 0.25202
 B12 B 0.25464 0.29459 0.24952
 B13 B 0.71729 0.75538 0.22943
 B14 B 0.70860 0.71508 0.23780
 B15 B 0.74833 0.72555 0.22745
 B16 B 0.75765 0.76452 0.23935
 B17 B 0.72305 0.77782 0.25762
 B18 B 0.69247 0.74692 0.25657
 B19 B 0.74859 0.72033 0.28136
 B20 B 0.75745 0.76074 0.27316
 B21 B 0.71775 0.75019 0.28337
 B22 B 0.70839 0.71136 0.27143
 B23 B 0.74296 0.69803 0.25324
 B24 B 0.77364 0.72890 0.25436
 B25 B 0.72945 0.24714 -0.27714
 B26 B 0.76918 0.23283 -0.27084
 B27 B 0.76342 0.27289 -0.28149
 B28 B 0.72675 0.28806 -0.26773
 B29 B 0.71009 0.25667 -0.24804
 B30 B 0.73655 0.22222 -0.25001
 B31 B 0.77303 0.27424 -0.22799
 B32 B 0.73312 0.28844 -0.23432
 B33 B 0.73872 0.24841 -0.22354
 B34 B 0.77553 0.23319 -0.23727
 B35 B 0.79213 0.26453 -0.25719
 B36 B 0.76552 0.29894 -0.25524
 B37 B 0.26733 0.76602 -0.27853
 B38 B 0.22566 0.77127 -0.26987
 B39 B 0.24024 0.73319 -0.27957
 B40 B 0.28056 0.72779 -0.26779
 B41 B 0.29063 0.76357 -0.25036
 B42 B 0.25630 0.79044 -0.25211
 B43 B 0.23579 0.73346 -0.22528
 B44 B 0.27725 0.72851 -0.23407
 B45 B 0.26273 0.76689 -0.22426
 B46 B 0.22230 0.77195 -0.23604
 B47 B 0.21235 0.73614 -0.25349
 B48 B 0.24653 0.70944 -0.25217
 B49 B 1.22744 1.26400 0.77390
 B50 B 1.26687 1.27684 0.76501
 B51 B 1.26053 1.23635 0.77455
 B52 B 1.22188 1.22372 0.76304
 B53 B 1.20464 1.25712 0.74593
 B54 B 1.23272 1.29017 0.74726
 B55 B 1.26450 1.23853 0.72063
 B56 B 1.22484 1.22554 0.72916
 B57 B 1.23132 1.26593 0.71990
 B58 B 1.26968 1.27852 0.73144
 B59 B 1.28700 1.24525 0.74850
 B60 B 1.25893 1.21203 0.74702
 B61 B 0.75965 0.72647 0.71917
 B62 B 0.76780 0.76642 0.72902
 B63 B 0.72767 0.75499 0.72066
 B64 B 0.72086 0.71488 0.73117
 B65 B 0.75732 0.70161 0.74675
 B66 B 0.78675 0.73353 0.74495
 B67 B 0.73184 0.75567 0.77461
 B68 B 0.72395 0.71582 0.76495
 B69 B 0.76409 0.72720 0.77330
 B70 B 0.77098 0.76732 0.76265
 B71 B 0.73432 0.78049 0.74744
 B72 B 0.70507 0.74836 0.74878
 B73 B 1.24389 0.73450 0.22798
 B74 B 1.28334 0.72011 0.23515
 B75 B 1.27815 0.76043 0.22513
 B76 B 1.24091 0.77522 0.23813
 B77 B 1.22333 0.74303 0.25687
 B78 B 1.24994 0.70883 0.25477
 B79 B 1.28511 0.75988 0.27911
 B80 B 1.24565 0.77465 0.27163
 B81 B 1.25096 0.73397 0.28195
 B82 B 1.28817 0.71937 0.26881
 B83 B 1.30555 0.75115 0.25007
 B84 B 1.27936 0.78568 0.25217
 B85 B 0.75440 1.27805 0.27995
 B86 B 0.76088 1.23635 0.27347
 B87 B 0.72159 1.25069 0.28255
 B88 B 0.71539 1.28894 0.26846
 B89 B 0.75129 1.29871 0.25044
 B90 B 0.77978 1.26628 0.25384
 B91 B 0.72283 1.24170 0.22876
 B92 B 0.71653 1.28303 0.23502
 B93 B 0.75564 1.26943 0.22609
 B94 B 0.76202 1.23071 0.24002
 B95 B 0.72581 1.22098 0.25816
 B96 B 0.69784 1.25380 0.25466
 N97 N 0.56335 1.03672 0.02655
 N98 N 0.58859 1.05713 0.03341
 N99 N 0.53764 0.96591 0.04522
 N100 N 0.54489 0.94473 0.06503
 N101 N 0.56227 0.96571 0.02711
 N102 N 0.58688 0.94456 0.03419
 N103 N 0.53882 1.03725 0.04476
 N104 N 0.54675 1.05824 0.06435
 C105 C 0.57767 1.07085 0.05682
 C106 C 0.57549 0.93121 0.05768
 N107 N 0.44006 0.96815 0.02481
 N108 N 0.41457 0.94737 0.03074
 N109 N 0.46469 1.03851 0.04323
 N110 N 0.45631 1.05991 0.06248
 N111 N 0.44179 1.03933 0.02400
 N112 N 0.41735 1.06145 0.02974
 N113 N 0.46341 0.96727 0.04367
 N114 N 0.45445 0.94570 0.06281
 Mn115 Mn 0.50111 1.00220 0.04440
 C116 C 0.42411 0.93314 0.05432
 C117 C 0.42703 1.07447 0.05366
 N118 N 0.56459 0.96531 -0.03074
 N119 N 0.58991 0.94430 -0.03634
 N120 N 0.54308 1.03653 -0.05082
 N121 N 0.55281 1.05756 -0.07020
 N122 N 0.56586 1.03617 -0.03150
 N123 N 0.59165 1.05658 -0.03737
 N124 N 0.54165 0.96512 -0.04994
 N125 N 0.55086 0.94374 -0.06904
 Mn126 Mn 0.56412 1.00101 -0.00215
 C127 C 0.58080 0.93059 -0.06005
 C128 C 0.58301 1.07022 -0.06134
 N129 N 0.44401 1.03830 -0.03429
 N130 N 0.42017 1.06043 -0.04122
 N131 N 0.46694 0.96638 -0.05161
 N132 N 0.45990 0.94327 -0.06995
 N133 N 0.44279 0.96694 -0.03308
 N134 N 0.41911 0.94396 -0.03809
 N135 N 0.46880 1.03777 -0.05228
 N136 N 0.46261 1.05973 -0.07172
 Mn137 Mn 0.44192 1.00325 -0.00467
 Mn138 Mn 0.50510 1.00142 -0.05141
 Cl139 Cl 0.50305 1.00199 -0.00348
 C140 C 0.43237 1.07399 -0.06443
 C141 C 0.43017 0.92912 -0.06104
 N142 N 0.97057 0.56185 0.52866
 N143 N 0.94588 0.58406 0.53343
 N144 N 1.04206 0.53613 0.54625
 N145 N 1.06614 0.54097 0.56420
 N146 N 1.04266 0.56022 0.52799
 N147 N 1.06705 0.58242 0.53331
 N148 N 0.97009 0.53764 0.54681
 N149 N 0.94504 0.54244 0.56421
 C150 C 0.93004 0.57136 0.55563
 C151 C 1.08175 0.56973 0.55584
 N152 N 1.04005 0.43990 0.52811
 N153 N 1.06495 0.41783 0.53204
 N154 N 0.96837 0.46504 0.54704
 N155 N 0.94281 0.46101 0.56425
 N156 N 0.96808 0.44108 0.52886
 N157 N 0.94251 0.41986 0.53334
 N158 N 1.04075 0.46375 0.54634
 N159 N 1.06643 0.45891 0.56300
 Mn160 Mn 1.00529 0.50064 0.54687
 C161 C 1.08136 0.43023 0.55376
 C162 C 0.92681 0.43278 0.55541
 N163 N 1.04206 0.56017 0.46970
 N164 N 1.06697 0.58189 0.46431
 N165 N 0.96886 0.53801 0.45245
 N166 N 0.94473 0.54474 0.43474
 N167 N 0.97020 0.56196 0.47067
 N168 N 0.94728 0.58571 0.46570
 N169 N 1.04108 0.53634 0.45139
 N170 N 1.06548 0.54093 0.43330
 Mn171 Mn 1.00644 0.56150 0.49924
 C172 C 1.08156 0.56931 0.44165
 C173 C 0.93130 0.57445 0.44342
 N174 N 0.96779 0.44100 0.47113
 N175 N 0.94426 0.41792 0.46621
 N176 N 1.03975 0.46353 0.45169
 N177 N 1.06538 0.45882 0.43469
 N178 N 1.03980 0.44003 0.47041
 N179 N 1.06544 0.41866 0.46665
 N180 N 0.96754 0.46475 0.45260
 N181 N 0.94375 0.45846 0.43458
 Mn182 Mn 1.00394 0.44012 0.49963
 Mn183 Mn 1.00422 0.50067 0.45172
 Cl184 Cl 1.00495 0.50078 0.49933
 C185 C 0.92919 0.42931 0.44350
 C186 C 1.08127 0.43077 0.44429
 N187 N 1.03349 0.53943 0.05394
 N188 N 1.05553 0.54636 0.07305
 N189 N 0.96078 0.56017 0.03461
 N190 N 0.93699 0.58283 0.04073
 N191 N 0.96145 0.53590 0.05274
 N192 N 0.93788 0.54115 0.07137
 N193 N 1.03263 0.56403 0.03610
 N194 N 1.05399 0.58858 0.04290
 C195 C 1.06844 0.57690 0.06589
 C196 C 0.92254 0.57028 0.06353
 N197 N 0.96496 0.53685 -0.04203
 N198 N 0.94331 0.54259 -0.06171
 N199 N 1.03480 0.56479 -0.02216
 N200 N 1.05541 0.59039 -0.02792
 N201 N 1.03696 0.54131 -0.04075
 N202 N 1.05921 0.55042 -0.05955
 N203 N 0.96306 0.56102 -0.02398
 N204 N 0.94025 0.58412 -0.03130
 Mn205 Mn 0.99776 0.56283 0.00614
 C206 C 0.92771 0.57188 -0.05472
 C207 C 1.07089 0.58090 -0.05112
 N208 N 0.96536 0.46314 0.05242
 N209 N 0.94176 0.45570 0.07057
 N210 N 1.03920 0.44286 0.03508
 N211 N 1.06243 0.41986 0.04139
 N212 N 1.03746 0.46644 0.05357
 N213 N 1.05972 0.46023 0.07281
 N214 N 0.96745 0.43920 0.03426
 N215 N 0.94553 0.41454 0.03984
 Mn216 Mn 0.99946 0.50124 0.05334
 C217 C 0.92936 0.42548 0.06240
 C218 C 1.07539 0.43129 0.06481
 N219 N 1.04103 0.46785 -0.04106
 N220 N 1.06258 0.46094 -0.06082
 N221 N 0.96946 0.44001 -0.02375
 N222 N 0.94955 0.41442 -0.03044
 N223 N 0.96909 0.46365 -0.04241
 N224 N 0.94883 0.45461 -0.06227
 N225 N 1.04111 0.44332 -0.02310
 N226 N 1.06248 0.41897 -0.03050
 Mn227 Mn 1.00305 0.50246 -0.04172
 Mn228 Mn 1.00431 0.44113 0.00564
 Cl229 Cl 1.00117 0.50194 0.00581
 C230 C 1.07622 0.43067 -0.05383
 C231 C 0.93641 0.42404 -0.05435
 N232 N 0.56642 1.04165 0.52960
 N233 N 0.59102 1.06369 0.53435
 N234 N 0.53894 0.97484 0.55284
 N235 N 0.54134 0.95195 0.57205
 N236 N 0.56345 0.97076 0.53498
 N237 N 0.58339 0.94501 0.54166
 N238 N 0.54091 1.04575 0.54658
 N239 N 0.54739 1.07078 0.56328
 C240 C 0.57856 1.08204 0.55516
 C241 C 0.56910 0.93344 0.56486
 N242 N 0.44329 0.97310 0.53158
 N243 N 0.42063 0.94949 0.53818
 N244 N 0.46698 1.04711 0.54442
 N245 N 0.45837 1.07119 0.56153
 N246 N 0.44349 1.04395 0.52584
 N247 N 0.41828 1.06567 0.52991
 N248 N 0.46608 0.97645 0.55063
 N249 N 0.45987 0.95529 0.57049
 Mn250 Mn 0.50324 1.01127 0.54882
 C251 C 0.43165 0.93847 0.56252
 C252 C 0.42819 1.08292 0.55195
 N253 N 0.56693 0.96427 0.47723
 N254 N 0.58974 0.93981 0.47432
 N255 N 0.54636 1.03447 0.45340
 N256 N 0.55250 1.05877 0.43570
 N257 N 0.56939 1.03494 0.47248
 N258 N 0.59176 1.05941 0.46835
 N259 N 0.54418 0.96317 0.45796
 N260 N 0.55054 0.93757 0.44171
 Mn261 Mn 0.56692 1.00273 0.50357
 C262 C 0.57887 0.92305 0.45229
 C263 C 0.58095 1.07409 0.44536
 N264 N 0.44688 1.03733 0.46848
 N265 N 0.42517 1.06164 0.46209
 N266 N 0.47080 0.96478 0.45553
 N267 N 0.46491 0.94009 0.43841
 N268 N 0.44617 0.96643 0.47358
 N269 N 0.42271 0.94307 0.46904
 N270 N 0.47221 1.03598 0.45101
 N271 N 0.46842 1.05945 0.43226
 Mn272 Mn 0.44456 1.00503 0.49985
 Mn273 Mn 0.50843 0.99970 0.45412
 Cl274 Cl 0.50575 1.00469 0.50156
 C275 C 0.43899 1.07536 0.43953
 C276 C 0.43499 0.92652 0.44719
 N277 N 1.05514 1.03242 0.52636
 N278 N 1.07946 1.05328 0.53443
 N279 N 1.03442 0.95880 0.54158
 N280 N 1.04281 0.93686 0.56039
 N281 N 1.05902 0.96159 0.52357
 N282 N 1.08523 0.94193 0.53018
 N283 N 1.03113 1.02968 0.54488
 N284 N 1.03842 1.04853 0.56583
 C285 C 1.06829 1.06355 0.55895
 C286 C 1.07427 0.92609 0.55295
 N287 N 0.93605 0.95603 0.52561
 N288 N 0.91280 0.93303 0.53232
 N289 N 0.95763 1.02629 0.54613
 N290 N 0.94961 1.04527 0.56696
 N291 N 0.93300 1.02692 0.52829
 N292 N 0.90752 1.04641 0.53667
 N293 N 0.96150 0.95540 0.54268
 N294 N 0.95677 0.93170 0.56097
 Mn295 Mn 0.99616 0.99255 0.54386
 C296 C 0.92663 0.91761 0.55412
 C297 C 0.91855 1.05808 0.56069
 N298 N 1.05754 0.96567 0.46497
 N299 N 1.08297 0.94617 0.45643
 N300 N 1.02912 1.03629 0.45022
 N301 N 1.03508 1.05863 0.43103
 N302 N 1.05385 1.03656 0.46798
 N303 N 1.07737 1.05921 0.46113
 N304 N 1.03226 0.96537 0.44768
 N305 N 1.03951 0.94539 0.42732
 Mn306 Mn 1.05678 0.99910 0.49570
 C307 C 1.07094 0.93321 0.43312
 C308 C 1.06494 1.07315 0.43821
 N309 N 0.93143 1.03068 0.46984
 N310 N 0.90506 1.05007 0.46323
 N311 N 0.95877 0.96222 0.44879
 N312 N 0.95187 0.94211 0.42848
 N313 N 0.93496 0.95978 0.46747
 N314 N 0.91124 0.93780 0.46028
 N315 N 0.95576 1.03313 0.45156
 N316 N 0.94686 1.05447 0.43244
 Mn317 Mn 0.93349 0.99338 0.49781
 Mn318 Mn 0.99400 0.99924 0.44949
 Cl319 Cl 0.99512 0.99614 0.49671
 C320 C 0.91546 1.06529 0.44008
 C321 C 0.92245 0.92664 0.43604
 N322 N 0.53249 0.54928 0.03170
 N323 N 0.53604 0.56808 0.05337
 N324 N 0.56239 0.53176 -0.02426
 N325 N 0.58499 0.53578 -0.04370
 N326 N 0.53945 0.55609 -0.02464
 N327 N 0.54563 0.57719 -0.04479
 N328 N 0.55546 0.52499 0.03126
 N329 N 0.57545 0.52670 0.05239
 C330 C 0.56288 0.55350 0.06612
 C331 C 0.57434 0.56418 -0.05629
 N332 N 0.53544 0.43746 -0.03366
 N333 N 0.53884 0.42230 -0.05709
 N334 N 0.55293 0.45311 0.02591
 N335 N 0.56986 0.44715 0.04820
 N336 N 0.52891 0.43039 0.02244
 N337 N 0.52907 0.40797 0.04217
 N338 N 0.56000 0.45965 -0.03019
 N339 N 0.58101 0.45993 -0.05108
 Mn340 Mn 0.55808 0.49232 0.00071
 C341 C 0.56755 0.43638 -0.06763
 C342 C 0.55476 0.41888 0.05806
 N343 N 0.46622 0.55957 -0.02930
 N344 N 0.46485 0.58362 -0.04773
 N345 N 0.43461 0.53026 0.02285
 N346 N 0.41103 0.53272 0.04182
 N347 N 0.45924 0.55232 0.02669
 N348 N 0.45325 0.57019 0.04858
 N349 N 0.44198 0.53708 -0.03304
 N350 N 0.42346 0.54521 -0.05419
 Mn351 Mn 0.49938 0.55483 0.00117
 C352 C 0.43810 0.57430 -0.06317
 C353 C 0.42304 0.55766 0.05775
 N354 N 0.45577 0.43345 0.01755
 N355 N 0.45050 0.41207 0.03754
 N356 N 0.43976 0.46437 -0.03844
 N357 N 0.41976 0.46134 -0.05959
 N358 N 0.46276 0.44012 -0.03810
 N359 N 0.45914 0.41996 -0.05881
 N360 N 0.43268 0.45768 0.01775
 N361 N 0.41115 0.45346 0.03808
 Mn362 Mn 0.49572 0.43495 -0.00794
 Mn363 Mn 0.43674 0.49737 -0.00781
 Cl364 Cl 0.49741 0.49493 -0.00346
 C365 C 0.42246 0.42470 0.05009
 C366 C 0.43248 0.43359 -0.07218
 C367 C 0.29664 1.17732 0.20840
 C368 C 0.31340 1.15853 0.18866
 C369 C 0.31816 1.17171 0.16288
 C370 C 0.30493 1.20391 0.15669
 C371 C 0.28829 1.22306 0.17663
 C372 C 0.28444 1.21029 0.20300
 N373 N 0.33869 1.15260 0.14437
 N374 N 0.34108 1.15888 0.11933
 C375 C 0.36355 1.13902 0.10267
 C376 C 0.35802 1.13718 0.07493
 C377 C 0.37878 1.11642 0.05875
 C378 C 0.40593 1.09789 0.07007
 C379 C 0.41211 1.10077 0.09771
 C380 C 0.39100 1.12085 0.11388
 H381 H 0.29463 1.16620 0.22824
 H382 H 0.32358 1.13378 0.19369
 H383 H 0.30872 1.21479 0.13691
 H384 H 0.28037 1.24855 0.17169
 H385 H 0.33709 1.15114 0.06597
 H386 H 0.37353 1.11473 0.03748
 H387 H 0.43280 1.08681 0.10702
 H388 H 0.39611 1.12214 0.13519
 C389 C 0.78104 0.72919 0.66865
 C390 C 0.79689 0.71460 0.64619
 C391 C 0.80585 0.68030 0.64636
 C392 C 0.79783 0.66049 0.66902
 C393 C 0.78243 0.67505 0.69148
 C394 C 0.77444 0.70987 0.69201
 N395 N 0.82490 0.66633 0.62429
 N396 N 0.83156 0.63478 0.62360
 C397 C 0.85278 0.61924 0.60364
 C398 C 0.85900 0.58451 0.60598
 C399 C 0.88318 0.56881 0.58951
 C400 C 0.90149 0.58764 0.57023
 C401 C 0.89396 0.62222 0.56680
 C402 C 0.86981 0.63806 0.58356
 H403 H 0.77422 0.75569 0.66761
 H404 H 0.80265 0.73018 0.62878
 H405 H 0.80438 0.63384 0.66975
 H406 H 0.77754 0.65877 0.70861
 H407 H 0.84601 0.56981 0.62139
 H408 H 0.88823 0.54205 0.59241
 H409 H 0.90776 0.63724 0.55204
 H410 H 0.86537 0.66502 0.58148
 C411 C 0.66314 0.77049 0.20141
 C412 C 0.64587 0.78827 0.18146
 C413 C 0.66356 0.80981 0.16399
 C414 C 0.69931 0.81303 0.16645
 C415 C 0.71680 0.79525 0.18668
 C416 C 0.69891 0.77368 0.20449
 N417 N 0.64399 0.82918 0.14513
 N418 N 0.65721 0.84723 0.12653
 C419 C 0.63609 0.86706 0.10892
 C420 C 0.65080 0.88241 0.08623
 C421 C 0.63090 0.90257 0.06916
 C422 C 0.59597 0.90815 0.07477
 C423 C 0.58119 0.89259 0.09746
 C424 C 0.60098 0.87208 0.11430
 H425 H 0.64804 0.75461 0.21471
 H426 H 0.61833 0.78570 0.17988
 H427 H 0.71349 0.82992 0.15329
 H428 H 0.74404 0.79921 0.18880
 H429 H 0.67778 0.87886 0.08184
 H430 H 0.64304 0.91437 0.05188
 H431 H 0.55436 0.89644 0.10228
 H432 H 0.58895 0.86063 0.13176
 C433 C 1.18132 0.27548 0.68638
 C434 C 1.16662 0.29071 0.66399
 C435 C 1.18499 0.31447 0.64892
 C436 C 1.21894 0.32200 0.65578
 C437 C 1.23420 0.30580 0.67770
 C438 C 1.21552 0.28233 0.69336
 N439 N 1.16758 0.33199 0.62793
 N440 N 1.17679 0.36110 0.61958
 C441 C 1.15713 0.37838 0.59967
 C442 C 1.15549 0.41378 0.60019
 C443 C 1.13150 0.43096 0.58449
 C444 C 1.10963 0.41286 0.56748
 C445 C 1.11316 0.37759 0.56543
 C446 C 1.13647 0.36039 0.58168
 H447 H 1.16562 0.25844 0.69828
 H448 H 1.14026 0.28509 0.65904
 H449 H 1.23347 0.34053 0.64436
 H450 H 1.26023 0.31249 0.68275
 H451 H 1.17127 0.42788 0.61402
 H452 H 1.12933 0.45823 0.58621
 H453 H 1.09659 0.36314 0.55242
 H454 H 1.13756 0.33300 0.58087
 C455 C 0.68956 1.24473 -0.18773
 C456 C 0.67127 1.22733 -0.16788
 C457 C 0.68513 1.19873 -0.15551
 C458 C 0.71867 1.18864 -0.16231
 C459 C 0.73713 1.20605 -0.18243
 C460 C 0.72255 1.23404 -0.19588
 N461 N 0.66327 1.17905 -0.13816
 N462 N 0.67384 1.15465 -0.12360
 C463 C 0.65047 1.13456 -0.10776
 C464 C 0.66317 1.11471 -0.08671
 C465 C 0.64106 1.09442 -0.07129
 C466 C 0.60587 1.09292 -0.07712
 C467 C 0.59314 1.11262 -0.09839
 C468 C 0.61517 1.13354 -0.11342
 H469 H 0.67651 1.26521 -0.19787
 H470 H 0.64540 1.23528 -0.16300
 H471 H 0.72989 1.16638 -0.15311
 H472 H 0.76202 1.19645 -0.18841
 H473 H 0.69026 1.11505 -0.08218
 H474 H 0.65166 1.07936 -0.05513
 H475 H 0.56617 1.11193 -0.10333
 H476 H 0.60474 1.14840 -0.12976
 C477 C 1.21555 0.73487 0.32766
 C478 C 1.19959 0.71841 0.34923
 C479 C 1.20349 0.68358 0.35290
 C480 C 1.22536 0.66556 0.33561
 C481 C 1.24190 0.68217 0.31429
 C482 C 1.23650 0.71706 0.30939
 N483 N 1.18317 0.66694 0.37306
 N484 N 1.18047 0.63484 0.37424
 C485 C 1.15843 0.61830 0.39332
 C486 C 1.15152 0.58381 0.39005
 C487 C 1.12713 0.56767 0.40629
 C488 C 1.10962 0.58573 0.42641
 C489 C 1.11776 0.61996 0.43058
 C490 C 1.14181 0.63624 0.41402
 H491 H 1.21115 0.76151 0.32577
 H492 H 1.18301 0.73269 0.36256
 H493 H 1.22904 0.63855 0.33816
 H494 H 1.25788 0.66717 0.30104
 H495 H 1.16413 0.56972 0.37419
 H496 H 1.12150 0.54119 0.40276
 H497 H 1.10461 0.63444 0.44596
 H498 H 1.14682 0.66293 0.41698
 C499 C 0.28182 0.82305 -0.20094
 C500 C 0.30037 0.84094 -0.18195
 C501 C 0.31334 0.82482 -0.15929
 C502 C 0.30564 0.79035 -0.15495
 C503 C 0.28704 0.77202 -0.17433
 C504 C 0.27629 0.78777 -0.19837
 N505 N 0.33589 0.84411 -0.14256
 N506 N 0.34453 0.83625 -0.11872
 C507 C 0.36793 0.85759 -0.10427
 C508 C 0.36576 0.85959 -0.07622
 C509 C 0.38630 0.88255 -0.06211
 C510 C 0.41022 0.90315 -0.07575
 C511 C 0.41350 0.89998 -0.10374
 C512 C 0.39227 0.87776 -0.11790
 H513 H 0.27341 0.83719 -0.21831
 H514 H 0.30564 0.86756 -0.18537
 H515 H 0.31519 0.77734 -0.13735
 H516 H 0.28258 0.74527 -0.17106
 H517 H 0.34725 0.84426 -0.06537
 H518 H 0.38332 0.88438 -0.04053
 H519 H 0.43162 0.91554 -0.11479
 H520 H 0.39471 0.87648 -0.13954
 C521 C 0.76444 0.33504 0.30516
 C522 C 0.78021 0.35512 0.32448
 C523 C 0.80103 0.34040 0.34397
 C524 C 0.80514 0.30509 0.34443
 C525 C 0.78968 0.28500 0.32492
 C526 C 0.76958 0.29960 0.30456
 N527 N 0.81947 0.36194 0.36183
 N528 N 0.83660 0.35022 0.38143
 C529 C 0.85708 0.37151 0.39807
 C530 C 0.87241 0.35752 0.42086
 C531 C 0.89496 0.37674 0.43622
 C532 C 0.90289 0.41022 0.42874
 C533 C 0.88685 0.42455 0.40623
 C534 C 0.86398 0.40539 0.39105
 H535 H 0.74891 0.34769 0.29023
 H536 H 0.77678 0.38234 0.32391
 H537 H 0.82114 0.29306 0.35938
 H538 H 0.79419 0.25826 0.32598
 H539 H 0.86738 0.33142 0.42641
 H540 H 0.90698 0.36505 0.45347
 H541 H 0.89244 0.45032 0.40008
 H542 H 0.85254 0.41672 0.37342
 C543 C 1.21229 0.26228 0.17871
 C544 C 1.19478 0.27697 0.15700
 C545 C 1.19345 0.31231 0.15401
 C546 C 1.21103 0.33263 0.17236
 C547 C 1.22829 0.31814 0.19384
 C548 C 1.22919 0.28276 0.19759
 N549 N 1.17240 0.32745 0.13366
 N550 N 1.16716 0.35933 0.13365
 C551 C 1.14571 0.37679 0.11494
 C552 C 1.13061 0.36052 0.09297
 C553 C 1.10845 0.37852 0.07605
 C554 C 1.10079 0.41277 0.08115
 C555 C 1.11646 0.42893 0.10288
 C556 C 1.13888 0.41110 0.11947
 H557 H 1.21181 0.23500 0.18111
 H558 H 1.18122 0.26089 0.14310
 H559 H 1.21045 0.35999 0.17071
 H560 H 1.23944 0.33526 0.20814
 H561 H 1.13562 0.33399 0.08909
 H562 H 1.09663 0.36545 0.05944
 H563 H 1.11115 0.45530 0.10723
 H564 H 1.15042 0.42388 0.13635
 C565 C 0.69014 0.80189 0.69868
 C566 C 0.67202 0.81625 0.67763
 C567 C 0.66957 0.79954 0.65296
 C568 C 0.68491 0.76766 0.64996
 C569 C 0.70257 0.75276 0.67147
 C570 C 0.70677 0.77039 0.69578
 N571 N 0.65189 0.81529 0.63107
 N572 N 0.62882 0.83723 0.63608
 C573 C 0.61200 0.85723 0.61617
 C574 C 0.58259 0.87500 0.62386
 C575 C 0.56798 0.89877 0.60665
 C576 C 0.58296 0.90564 0.58149
 C577 C 0.61190 0.88696 0.57331
 C578 C 0.62631 0.86272 0.59055
 H579 H 0.69104 0.81594 0.71726
 H580 H 0.66030 0.84086 0.68055
 H581 H 0.68265 0.75412 0.63120
 H582 H 0.71266 0.72745 0.66901
 H583 H 0.57155 0.87113 0.64365
 H584 H 0.54562 0.91263 0.61349
 H585 H 0.62388 0.89175 0.55399
 H586 H 0.64937 0.84950 0.58441
 C587 C 1.20962 0.67938 -0.20302
 C588 C 1.19341 0.66165 -0.18245
 C589 C 1.18450 0.67763 -0.15858
 C590 C 1.19249 0.71214 -0.15524
 C591 C 1.20932 0.73017 -0.17602
 C592 C 1.21840 0.71387 -0.20021
 N593 N 1.16614 0.65776 -0.13912
 N594 N 1.15462 0.66836 -0.11671
 C595 C 1.13551 0.64575 -0.09949
 C596 C 1.12175 0.65756 -0.07520
 C597 C 1.10140 0.63628 -0.05903
 C598 C 1.09442 0.60280 -0.06698
 C599 C 1.10891 0.59080 -0.09100
 C600 C 1.12923 0.61196 -0.10705
 H601 H 1.21449 0.66562 -0.22136
 H602 H 1.18698 0.63523 -0.18540
 H603 H 1.18542 0.72513 -0.13692
 H604 H 1.21461 0.75685 -0.17335
 H605 H 1.12628 0.68344 -0.06904
 H606 H 1.09056 0.64624 -0.04061
 H607 H 1.10411 0.56516 -0.09764
 H608 H 1.13954 0.60196 -0.12564
 C609 C 0.66439 1.24225 0.30928
 C610 C 0.64544 1.22871 0.33049
 C611 C 0.66194 1.21485 0.35264
 C612 C 0.69767 1.21782 0.35474
 C613 C 0.71674 1.23205 0.33360
 C614 C 0.70061 1.24211 0.30968
 N615 N 0.64212 1.19439 0.37063
 N616 N 0.65513 1.17775 0.38994
 C617 C 0.63482 1.15444 0.40531
 C618 C 0.64940 1.13810 0.42741
 C619 C 0.63145 1.11251 0.44091
 C620 C 0.59877 1.10261 0.43220
 C621 C 0.58381 1.11956 0.41043
 C622 C 0.60161 1.14538 0.39714
 H623 H 0.65023 1.25129 0.29210
 H624 H 0.61783 1.22703 0.32886
 H625 H 0.71095 1.20778 0.37205
 H626 H 0.74411 1.23317 0.33559
 H627 H 0.67503 1.14465 0.43375
 H628 H 0.64356 1.09984 0.45768
 H629 H 0.55859 1.11253 0.40344
 H630 H 0.58984 1.15747 0.37997
 C631 C 0.78538 0.73207 0.18327
 C632 C 0.80358 0.71820 0.16152
 C633 C 0.80298 0.68323 0.15678
 C634 C 0.78290 0.66242 0.17353
 C635 C 0.76475 0.67616 0.19510
 C636 C 0.76583 0.71119 0.20050
 N637 N 0.82437 0.66899 0.13608
 N638 N 0.82774 0.63701 0.13386
 C639 C 0.84965 0.62100 0.11447
 C640 C 0.85489 0.58604 0.11665
 C641 C 0.87800 0.56953 0.09963
 C642 C 0.89598 0.58768 0.07974
 C643 C 0.88977 0.62262 0.07681
 C644 C 0.86693 0.63928 0.09422
 H645 H 0.78771 0.75891 0.18705
 H646 H 0.81913 0.73458 0.14891
 H647 H 0.78183 0.63532 0.17036
 H648 H 0.75028 0.65899 0.20782
 H649 H 0.84169 0.57167 0.13215
 H650 H 0.88214 0.54258 0.10228
 H651 H 0.90339 0.63721 0.06168
 H652 H 0.86319 0.66634 0.09213
 C653 C 0.30649 1.24731 0.67981
 C654 C 0.32681 1.23487 0.65878
 C655 C 0.32593 1.20049 0.65217
 C656 C 0.30504 1.17844 0.66714
 C657 C 0.28568 1.19055 0.68868
 C658 C 0.28552 1.22530 0.69504
 N659 N 0.34789 1.18776 0.63142
 N660 N 0.33963 1.16155 0.61819
 C661 C 0.36231 1.14588 0.59931
 C662 C 0.34862 1.12439 0.57989
 C663 C 0.37023 1.10535 0.56334
 C664 C 0.40591 1.10678 0.56660
 C665 C 0.41970 1.12903 0.58561
 C666 C 0.39804 1.14878 0.60168
 H667 H 0.30802 1.27399 0.68448
 H668 H 0.34326 1.25204 0.64762
 H669 H 0.30463 1.15159 0.66275
 H670 H 0.27082 1.17255 0.70036
 H671 H 0.32111 1.12177 0.57806
 H672 H 0.35895 1.08823 0.54895
 H673 H 0.44715 1.13051 0.58847
 H674 H 0.40909 1.16497 0.61682
 C675 C 0.81317 0.32215 -0.21086
 C676 C 0.83213 0.33858 -0.19142
 C677 C 0.83645 0.32424 -0.16614
 C678 C 0.82256 0.29201 -0.16066
 C679 C 0.80359 0.27503 -0.18047
 C680 C 0.79764 0.29047 -0.20562
 N681 N 0.85447 0.34402 -0.14682
 N682 N 0.85972 0.33553 -0.12253
 C683 C 0.87774 0.35828 -0.10513
 C684 C 0.88633 0.34795 -0.07910
 C685 C 0.90483 0.36957 -0.06228
 C686 C 0.91489 0.40197 -0.07126
 C687 C 0.90557 0.41254 -0.09712
 C688 C 0.88726 0.39096 -0.11389
 H689 H 0.81047 0.33509 -0.22989
 H690 H 0.84305 0.36321 -0.19594
 H691 H 0.82595 0.28031 -0.14116
 H692 H 0.79267 0.25054 -0.17579
 H693 H 0.87912 0.32298 -0.07198
 H694 H 0.91167 0.36075 -0.04240
 H695 H 0.91290 0.43732 -0.10460
 H696 H 0.88080 0.39983 -0.13382
 C697 C 0.34313 0.78157 0.29867
 C698 C 0.36302 0.79618 0.31864
 C699 C 0.34904 0.80293 0.34390
 C700 C 0.31514 0.79323 0.34952
 C701 C 0.29525 0.77805 0.32958
 C702 C 0.30851 0.77295 0.30352
 N703 N 0.36926 0.82173 0.36249
 N704 N 0.35790 0.83237 0.38495
 C705 C 0.37872 0.85306 0.40193
 C706 C 0.36449 0.86679 0.42539
 C707 C 0.38315 0.88991 0.44075
 C708 C 0.41636 0.89963 0.43277
 C709 C 0.43105 0.88480 0.40983
 C710 C 0.41244 0.86176 0.39454
 H711 H 0.35500 0.77811 0.27919
 H712 H 0.38917 0.80351 0.31408
 H713 H 0.30375 0.79820 0.36900
 H714 H 0.26907 0.77214 0.33437
 H715 H 0.33855 0.86035 0.43132
 H716 H 0.37122 0.90090 0.45838
 H717 H 0.45665 0.89164 0.40327
 H718 H 0.42414 0.85148 0.37656
 C719 C 1.17711 1.19668 0.28045
 C720 C 1.15462 1.17903 0.29755
 C721 C 1.15671 1.18280 0.32545
 C722 C 1.18048 1.20561 0.33600
 C723 C 1.20254 1.22343 0.31902
 C724 C 1.20196 1.21872 0.29102
 N725 N 1.13564 1.16237 0.34277
 N726 N 1.14136 1.16031 0.36789
 C727 C 1.12103 1.13982 0.38565
 C728 C 1.13242 1.13410 0.41191
 C729 C 1.11402 1.11282 0.42934
 C730 C 1.08364 1.09736 0.42078
 C731 C 1.07177 1.10398 0.39466
 C732 C 1.09039 1.12484 0.37719
 H733 H 1.17547 1.19237 0.25905
 H734 H 1.13626 1.16158 0.28910
 H735 H 1.18260 1.20914 0.35747
 H736 H 1.22140 1.23925 0.32826
 H737 H 1.15600 1.14559 0.41867
 H738 H 1.12371 1.10818 0.44935
 H739 H 1.04844 1.09241 0.38748
 H740 H 1.08097 1.12905 0.35705
 C741 C 0.67389 0.67240 -0.22769
 C742 C 0.65225 0.65323 -0.21099
 C743 C 0.65818 0.65178 -0.18335
 C744 C 0.68543 0.67008 -0.17247
 C745 C 0.70630 0.68976 -0.18885
 C746 C 0.70125 0.69104 -0.21677
 N747 N 0.63609 0.63275 -0.16600
 N748 N 0.64817 0.62077 -0.14432
 C749 C 0.62790 0.60459 -0.12419
 C750 C 0.64441 0.58316 -0.10608
 C751 C 0.62661 0.56969 -0.08426
 C752 C 0.59214 0.57830 -0.07983
 C753 C 0.57537 0.59978 -0.09804
 C754 C 0.59314 0.61266 -0.12037
 H755 H 0.66863 0.67320 -0.24899
 H756 H 0.63103 0.63945 -0.21957
 H757 H 0.68985 0.67013 -0.15103
 H758 H 0.72533 0.70510 -0.17911
 H759 H 0.67134 0.57727 -0.10873
 H760 H 0.64009 0.55318 -0.07047
 H761 H 0.54872 0.60653 -0.09502
 H762 H 0.58023 0.62978 -0.13401
 C763 C 0.81221 1.18255 0.72087
 C764 C 0.83018 1.16038 0.70392
 C765 C 0.82381 1.16008 0.67628
 C766 C 0.79890 1.18191 0.66579
 C767 C 0.78128 1.20416 0.68254
 C768 C 0.78766 1.20510 0.71038
 N769 N 0.84385 1.13873 0.65901
 N770 N 0.83750 1.13640 0.63402
 C771 C 0.85795 1.11644 0.61607
 C772 C 0.84700 1.11209 0.58957
 C773 C 0.86667 1.09321 0.57138
 C774 C 0.89785 1.07876 0.57943
 C775 C 0.90893 1.08346 0.60597
 C776 C 0.88909 1.10200 0.62418
 H777 H 0.81818 1.18247 0.74206
 H778 H 0.84947 1.14375 0.71229
 H779 H 0.79368 1.18253 0.64447
 H780 H 0.76365 1.22160 0.67319
 H781 H 0.82311 1.12330 0.58304
 H782 H 0.85754 1.08999 0.55107
 H783 H 0.93283 1.07254 0.61278
 H784 H 0.89821 1.10523 0.64449
 C785 C 0.32855 0.67181 0.22746
 C786 C 0.34733 0.65000 0.21081
 C787 C 0.34038 0.64852 0.18333
 C788 C 0.31494 0.66947 0.17253
 C789 C 0.29701 0.69187 0.18888
 C790 C 0.30309 0.69318 0.21668
 N791 N 0.36051 0.62737 0.16612
 N792 N 0.34816 0.61677 0.14414
 C793 C 0.36802 0.59884 0.12466
 C794 C 0.35093 0.57999 0.10519
 C795 C 0.36912 0.56547 0.08394
 C796 C 0.40460 0.57052 0.08147
 C797 C 0.42188 0.58896 0.10126
 C798 C 0.40373 0.60278 0.12292
 H799 H 0.33459 0.67239 0.24863
 H800 H 0.36727 0.63425 0.21932
 H801 H 0.30984 0.66947 0.15119
 H802 H 0.27924 0.70893 0.17926
 H803 H 0.32336 0.57714 0.10623
 H804 H 0.35523 0.55141 0.06889
 H805 H 0.44927 0.59303 0.09979
 H806 H 0.41729 0.61771 0.13761
 C807 C 1.16773 0.77872 0.70449
 C808 C 1.14800 0.79405 0.68447
 C809 C 1.15983 0.82311 0.67118
 C810 C 1.19038 0.83830 0.67961
 C811 C 1.20971 0.82346 0.70005
 C812 C 1.19969 0.79244 0.71172
 N813 N 1.14049 0.83666 0.64925
 N814 N 1.15362 0.85673 0.63191
 C815 C 1.13386 0.87101 0.61047
 C816 C 1.15033 0.89020 0.59042
 C817 C 1.13125 0.90663 0.57045
 C818 C 1.09535 0.90441 0.57059
 C819 C 1.07905 0.88414 0.59012
 C820 C 1.09808 0.86744 0.60977
 H821 H 1.15870 0.75518 0.71322
 H822 H 1.12414 0.78242 0.67849
 H823 H 1.19944 0.86146 0.67025
 H824 H 1.23298 0.83590 0.70607
 H825 H 1.17791 0.89310 0.59068
 H826 H 1.14440 0.92231 0.55576
 H827 H 1.05138 0.88196 0.59065
 H828 H 1.08471 0.85271 0.62494
 C829 C 0.67385 0.33311 0.22670
 C830 C 0.65226 0.35211 0.21017
 C831 C 0.64921 0.34392 0.18303
 C832 C 0.66922 0.31782 0.17217
 C833 C 0.69143 0.29957 0.18838
 C834 C 0.69337 0.30617 0.21607
 N835 N 0.62687 0.36294 0.16622
 N836 N 0.61320 0.34899 0.14599
 C837 C 0.59420 0.36772 0.12663
 C838 C 0.57422 0.35008 0.10816
 C839 C 0.55965 0.36710 0.08643
 C840 C 0.56583 0.40180 0.08268
 C841 C 0.58477 0.41972 0.10179
 C842 C 0.59864 0.40283 0.12380
 H843 H 0.67499 0.33951 0.24779
 H844 H 0.63736 0.37269 0.21860
 H845 H 0.66804 0.31192 0.15098
 H846 H 0.70698 0.28025 0.17899
 H847 H 0.57092 0.32294 0.11012
 H848 H 0.54511 0.35286 0.07188
 H849 H 0.58960 0.44658 0.09933
 H850 H 0.61432 0.41683 0.13775
 C851 C 0.80529 0.80675 0.27992
 C852 C 0.82660 0.82638 0.29621
 C853 C 0.82495 0.82325 0.32422
 C854 C 0.80213 0.79991 0.33577
 C855 C 0.78122 0.78024 0.31964
 C856 C 0.78212 0.78342 0.29144
 N857 N 0.84641 0.84386 0.34070
 N858 N 0.84253 0.84436 0.36610
 C859 C 0.86352 0.86426 0.38339
 C860 C 0.85422 0.86717 0.41048
 C861 C 0.87359 0.88711 0.42784
 C862 C 0.90287 0.90406 0.41830
 C863 C 0.91262 0.90044 0.39122
 C864 C 0.89300 0.88084 0.37383
 H865 H 0.80703 0.80993 0.25835
 H866 H 0.84420 0.84424 0.28702
 H867 H 0.80049 0.79672 0.35735
 H868 H 0.76427 0.76250 0.32958
 H869 H 0.83160 0.85434 0.41806
 H870 H 0.86556 0.88944 0.44861
 H871 H 0.93507 0.91327 0.38333
 H872 H 0.90079 0.87873 0.35300
 C873 C 0.30331 0.33200 -0.23034
 C874 C 0.32128 0.35574 -0.21523
 C875 C 0.32446 0.35126 -0.18756
 C876 C 0.30807 0.32396 -0.17482
 C877 C 0.28937 0.30085 -0.18970
 C878 C 0.28759 0.30383 -0.21779
 N879 N 0.34525 0.37369 -0.17241
 N880 N 0.36337 0.36150 -0.15363
 C881 C 0.38302 0.38181 -0.13597
 C882 C 0.40912 0.36612 -0.12155
 C883 C 0.42629 0.38373 -0.10167
 C884 C 0.41688 0.41716 -0.09546
 C885 C 0.39131 0.43337 -0.11048
 C886 C 0.37457 0.41580 -0.13089
 H887 H 0.30185 0.33587 -0.25182
 H888 H 0.33363 0.37695 -0.22517
 H889 H 0.30962 0.32070 -0.15326
 H890 H 0.27615 0.28089 -0.17896
 H891 H 0.41557 0.33986 -0.12532
 H892 H 0.44594 0.37063 -0.09041
 H893 H 0.38376 0.45917 -0.10604
 H894 H 0.35410 0.42814 -0.14177
 C895 C 1.19024 0.25922 -0.18163
 C896 C 1.17355 0.27390 -0.15941
 C897 C 1.17456 0.30906 -0.15542
 C898 C 1.19264 0.32929 -0.17390
 C899 C 1.20913 0.31481 -0.19589
 C900 C 1.20863 0.27949 -0.20006
 N901 N 1.15632 0.32415 -0.13328
 N902 N 1.15546 0.35626 -0.13073
 C903 C 1.13736 0.37385 -0.10988
 C904 C 1.12086 0.35700 -0.08849
 C905 C 1.10200 0.37555 -0.06942
 C906 C 1.09907 0.41100 -0.07178
 C907 C 1.11630 0.42760 -0.09288
 C908 C 1.13541 0.40918 -0.11158
 H909 H 1.18815 0.23220 -0.18456
 H910 H 1.15937 0.25792 -0.14554
 H911 H 1.19381 0.35652 -0.17156
 H912 H 1.22233 0.33169 -0.20965
 H913 H 1.12213 0.32968 -0.08675
 H914 H 1.08881 0.36213 -0.05341
 H915 H 1.11458 0.45485 -0.09517
 H916 H 1.14811 0.42244 -0.12793
 C917 C 0.67867 0.74335 0.32623
 C918 C 0.66110 0.75690 0.34837
 C919 C 0.66571 0.79085 0.35550
 C920 C 0.68772 0.81128 0.34010
 C921 C 0.70423 0.79822 0.31755
 C922 C 0.70045 0.76392 0.31044
 N923 N 0.64581 0.80536 0.37679
 N924 N 0.65708 0.83067 0.38977
 C925 C 0.63649 0.84916 0.40851
 C926 C 0.65270 0.86994 0.42723
 C927 C 0.63360 0.89260 0.44279
 C928 C 0.59808 0.89550 0.43916
 C929 C 0.58165 0.87381 0.42105
 C930 C 0.60069 0.85050 0.40602
 H931 H 0.67429 0.71712 0.32108
 H932 H 0.64370 0.74102 0.35984
 H933 H 0.69097 0.83783 0.34484
 H934 H 0.71977 0.81530 0.30555
 H935 H 0.68033 0.86938 0.42909
 H936 H 0.64686 0.90918 0.45653
 H937 H 0.55426 0.87559 0.41796
 H938 H 0.58775 0.83499 0.39136
 C939 C 0.79950 0.73304 -0.18207
 C940 C 0.81700 0.71917 -0.16009
 C941 C 0.81959 0.68398 -0.15682
 C942 C 0.80428 0.66279 -0.17590
 C943 C 0.78689 0.67655 -0.19779
 C944 C 0.78398 0.71192 -0.20119
 N945 N 0.83856 0.67018 -0.13463
 N946 N 0.84223 0.63828 -0.13181
 C947 C 0.86158 0.62261 -0.11075
 C948 C 0.86631 0.58752 -0.11170
 C949 C 0.88696 0.57113 -0.09292
 C950 C 0.90307 0.58950 -0.07248
 C951 C 0.89730 0.62463 -0.07078
 C952 C 0.87683 0.64119 -0.08994
 H953 H 0.79855 0.76027 -0.18418
 H954 H 0.82888 0.73589 -0.14571
 H955 H 0.80587 0.63550 -0.17401
 H956 H 0.77542 0.65924 -0.21191
 H957 H 0.85464 0.57291 -0.12756
 H958 H 0.89079 0.54404 -0.09469
 H959 H 0.90953 0.63940 -0.05529
 H960 H 0.87344 0.66837 -0.08876
 C961 C 0.27597 1.19300 0.31751
 C962 C 0.29244 1.17649 0.33854
 C963 C 0.32198 1.19016 0.34971
 C964 C 0.33396 1.22176 0.34066
 C965 C 0.31659 1.23912 0.32022
 C966 C 0.28741 1.22482 0.30814
 N967 N 0.34013 1.17024 0.36900
 N968 N 0.37223 1.17299 0.37278
 C969 C 0.38940 1.15117 0.39143
 C970 C 0.42459 1.14520 0.38833
 C971 C 0.44103 1.12080 0.40420
 C972 C 0.42255 1.10265 0.42384
 C973 C 0.38764 1.10990 0.42779
 C974 C 0.37111 1.13369 0.41156
 H975 H 0.25498 1.17997 0.30799
 H976 H 0.28327 1.15190 0.34512
 H977 H 0.35687 1.23274 0.34911
 H978 H 0.32680 1.26311 0.31326
 H979 H 0.43897 1.15846 0.37287
 H980 H 0.46803 1.11584 0.40090
 H981 H 0.37280 1.09635 0.44282
 H982 H 0.34394 1.13802 0.41445
 C983 C 1.20609 0.74120 0.18445
 C984 C 1.18661 0.72756 0.16347
 C985 C 1.18227 0.69241 0.16119
 C986 C 1.19777 0.67110 0.18023
 C987 C 1.21700 0.68459 0.20108
 C988 C 1.22177 0.71985 0.20349
 N989 N 1.16156 0.67865 0.14006
 N990 N 1.15711 0.64675 0.13830
 C991 C 1.13635 0.63042 0.11856
 C992 C 1.13213 0.59535 0.12061
 C993 C 1.11069 0.57813 0.10304
 C994 C 1.09315 0.59564 0.08273
 C995 C 1.09816 0.63082 0.08001
 C996 C 1.11952 0.64821 0.09794
 H997 H 1.20847 0.76841 0.18587
 H998 H 1.17464 0.74442 0.14911
 H999 H 1.19491 0.64386 0.17915
 H1000 H 1.22845 0.66704 0.21516
 H1001 H 1.14502 0.58136 0.13634
 H1002 H 1.10754 0.55104 0.10560
 H1003 H 1.08485 0.64494 0.06457
 H1004 H 1.12251 0.67537 0.09595
 C1005 C 0.68867 1.25469 0.68158
 C1006 C 0.66891 1.24153 0.66070
 C1007 C 0.66745 1.20652 0.65655
 C1008 C 0.68464 1.18467 0.67414
 C1009 C 0.70333 1.19762 0.69546
 C1010 C 0.70647 1.23284 0.69906
 N1011 N 0.64779 1.19304 0.63496
 N1012 N 0.65768 1.16620 0.62314
 C1013 C 0.63759 1.14928 0.60345
 C1014 C 0.65387 1.12676 0.58590
 C1015 C 0.63462 1.10624 0.56894
 C1016 C 0.59868 1.10728 0.56997
 C1017 C 0.58233 1.13061 0.58701
 C1018 C 0.60169 1.15180 0.60347
 H1019 H 0.68985 1.28188 0.68401
 H1020 H 0.65533 1.25862 0.64744
 H1021 H 0.68317 1.15747 0.67159
 H1022 H 0.71606 1.17987 0.70868
 H1023 H 0.68152 1.12442 0.58593
 H1024 H 0.64781 1.08834 0.55608
 H1025 H 0.55463 1.13183 0.58811
 H1026 H 0.58864 1.16877 0.61717
 C1027 C 0.79615 0.26048 0.18400
 C1028 C 0.81512 0.27331 0.16210
 C1029 C 0.81264 0.30760 0.15482
 C1030 C 0.79001 0.32858 0.16915
 C1031 C 0.77132 0.31595 0.19085
 C1032 C 0.77405 0.28174 0.19880
 N1033 N 0.83473 0.32149 0.13432
 N1034 N 0.83569 0.35341 0.13045
 C1035 C 0.85765 0.37024 0.11150
 C1036 C 0.85923 0.40560 0.11246
 C1037 C 0.88201 0.42341 0.09599
 C1038 C 0.90335 0.40617 0.07782
 C1039 C 0.90089 0.37068 0.07600
 C1040 C 0.87834 0.35271 0.09295
 H1041 H 0.79981 0.23432 0.18988
 H1042 H 0.83267 0.25681 0.15144
 H1043 H 0.78746 0.35517 0.16412
 H1044 H 0.75542 0.33362 0.20187
 H1045 H 0.84335 0.41936 0.12663
 H1046 H 0.88323 0.45074 0.09773
 H1047 H 0.91719 0.35682 0.06219
 H1048 H 0.87743 0.32533 0.09185
 C1049 C 0.29375 0.76413 0.67272
 C1050 C 0.31019 0.77950 0.65075
 C1051 C 0.32054 0.81333 0.65222
 C1052 C 0.31383 0.83180 0.67567
 C1053 C 0.29688 0.81678 0.69726
 C1054 C 0.28569 0.78295 0.69593
 N1055 N 0.33929 0.82852 0.63053
 N1056 N 0.36018 0.85226 0.63567
 C1057 C 0.37904 0.87072 0.61586
 C1058 C 0.40710 0.88944 0.62450
 C1059 C 0.42465 0.91048 0.60675
 C1060 C 0.41395 0.91378 0.57999
 C1061 C 0.38602 0.89450 0.57104
 C1062 C 0.36870 0.87279 0.58892
 H1063 H 0.28793 0.73741 0.67158
 H1064 H 0.31595 0.76473 0.63301
 H1065 H 0.32185 0.85796 0.67735
 H1066 H 0.29289 0.83190 0.71508
 H1067 H 0.41504 0.88812 0.64528
 H1068 H 0.44606 0.92496 0.61429
 H1069 H 0.37735 0.89661 0.55049
 H1070 H 0.34672 0.85865 0.58203
 C1071 C 0.25857 1.19777 -0.18219
 C1072 C 0.27468 1.18050 -0.16109
 C1073 C 0.30994 1.18409 -0.15689
 C1074 C 0.32872 1.20622 -0.17349
 C1075 C 0.31268 1.22363 -0.19436
 C1076 C 0.27736 1.21957 -0.19922
 N1077 N 0.32652 1.16383 -0.13677
 N1078 N 0.35907 1.16201 -0.13558
 C1079 C 0.37688 1.14143 -0.11641
 C1080 C 0.41220 1.13672 -0.11976
 C1081 C 0.43031 1.11523 -0.10258
 C1082 C 0.41344 1.09844 -0.08138
 C1083 C 0.37815 1.10402 -0.07744
 C1084 C 0.35990 1.12516 -0.09497
 H1085 H 0.23172 1.19298 -0.18567
 H1086 H 0.25989 1.16332 -0.14859
 H1087 H 0.35598 1.20961 -0.17068
 H1088 H 0.32832 1.23989 -0.20699
 H1089 H 0.42558 1.14916 -0.13618
 H1090 H 0.45749 1.11151 -0.10603
 H1091 H 0.36450 1.09133 -0.06129
 H1092 H 0.33262 1.12854 -0.09192
 C1093 C 0.74645 0.67796 0.32217
 C1094 C 0.76239 0.65911 0.34246
 C1095 C 0.79729 0.66353 0.34770
 C1096 C 0.81625 0.68665 0.33218
 C1097 C 0.80071 0.70460 0.31143
 C1098 C 0.76544 0.70101 0.30633
 N1099 N 0.81380 0.64310 0.36762
 N1100 N 0.84068 0.65359 0.37927
 C1101 C 0.86011 0.63297 0.39728
 C1102 C 0.88191 0.64877 0.41553
 C1103 C 0.90400 0.62952 0.43143
 C1104 C 0.90536 0.59415 0.42865
 C1105 C 0.88311 0.57821 0.41061
 C1106 C 0.86030 0.59747 0.39523
 H1107 H 0.71950 0.67376 0.31852
 H1108 H 0.74757 0.64100 0.35408
 H1109 H 0.84343 0.68994 0.33549
 H1110 H 0.81658 0.72121 0.29929
 H1111 H 0.88220 0.67613 0.41707
 H1112 H 0.92102 0.64243 0.44508
 H1113 H 0.88371 0.55095 0.40816
 H1114 H 0.84394 0.58484 0.38095
 C1115 C 0.66798 1.22416 0.20262
 C1116 C 0.65063 1.20662 0.18275
 C1117 C 0.66848 1.18700 0.16414
 C1118 C 0.70446 1.18535 0.16542
 C1119 C 0.72208 1.20293 0.18558
 C1120 C 0.70402 1.22258 0.20454
 N1121 N 0.64883 1.16824 0.14512
 N1122 N 0.66169 1.15160 0.12567
 C1123 C 0.64008 1.13261 0.10799
 C1124 C 0.65419 1.11781 0.08493
 C1125 C 0.63371 1.09844 0.06783
 C1126 C 0.59881 1.09323 0.07378
 C1127 C 0.58463 1.10836 0.09677
 C1128 C 0.60499 1.12798 0.11366
 H1129 H 0.65273 1.23899 0.21649
 H1130 H 0.62294 1.20808 0.18199
 H1131 H 0.71878 1.17004 0.15126
 H1132 H 0.74963 1.20062 0.18657
 H1133 H 0.68113 1.12112 0.08028
 H1134 H 0.64537 1.08698 0.05028
 H1135 H 0.55783 1.10480 0.10184
 H1136 H 0.59336 1.13907 0.13136
 C1137 C 1.21888 0.73335 0.67020
 C1138 C 1.20441 0.71732 0.64801
 C1139 C 1.19866 0.68238 0.64836
 C1140 C 1.20872 0.66340 0.67089
 C1141 C 1.22297 0.67939 0.69311
 C1142 C 1.22757 0.71481 0.69346
 N1143 N 1.18068 0.66701 0.62656
 N1144 N 1.17477 0.63531 0.62634
 C1145 C 1.15482 0.61906 0.60614
 C1146 C 1.14836 0.58441 0.60892
 C1147 C 1.12560 0.56820 0.59179
 C1148 C 1.10899 0.58641 0.57137
 C1149 C 1.11679 0.62088 0.56762
 C1150 C 1.13946 0.63722 0.58502
 H1151 H 1.22279 0.76040 0.66907
 H1152 H 1.19697 0.73229 0.63074
 H1153 H 1.20471 0.63628 0.67168
 H1154 H 1.22954 0.66379 0.71023
 H1155 H 1.16005 0.57019 0.62510
 H1156 H 1.12029 0.54155 0.59500
 H1157 H 1.10430 0.63546 0.55202
 H1158 H 1.14412 0.66408 0.58251
 C1159 C 0.67947 0.76492 -0.19361
 C1160 C 0.66192 0.78196 -0.17343
 C1161 C 0.67833 0.80647 -0.15822
 C1162 C 0.71329 0.81315 -0.16281
 C1163 C 0.73112 0.79597 -0.18325
 C1164 C 0.71436 0.77164 -0.19906
 N1165 N 0.65774 0.82589 -0.14010
 N1166 N 0.66967 0.84713 -0.12349
 C1167 C 0.64690 0.86693 -0.10717
 C1168 C 0.65976 0.88434 -0.08503
 C1169 C 0.63801 0.90435 -0.06924
 C1170 C 0.60316 0.90779 -0.07575
 C1171 C 0.59028 0.89035 -0.09797
 C1172 C 0.61189 0.86988 -0.11344
 H1173 H 0.66490 0.74737 -0.20561
 H1174 H 0.63490 0.77693 -0.17027
 H1175 H 0.72634 0.83250 -0.15144
 H1176 H 0.75743 0.80290 -0.18740
 H1177 H 0.68665 0.88240 -0.08002
 H1178 H 0.64865 0.91773 -0.05229
 H1179 H 0.56356 0.89261 -0.10343
 H1180 H 0.60135 0.85689 -0.13061
 C1181 C 1.20524 0.32328 0.29511
 C1182 C 1.19104 0.34445 0.31436
 C1183 C 1.20163 0.34264 0.34091
 C1184 C 1.22838 0.32052 0.34795
 C1185 C 1.24380 0.29995 0.32823
 C1186 C 1.23132 0.29992 0.30172
 N1187 N 1.18351 0.36310 0.35988
 N1188 N 1.18295 0.35804 0.38511
 C1189 C 1.16166 0.37905 0.40176
 C1190 C 1.15108 0.36732 0.42707
 C1191 C 1.12563 0.38469 0.44151
 C1192 C 1.11073 0.41427 0.43085
 C1193 C 1.12299 0.42711 0.40629
 C1194 C 1.14809 0.40965 0.39185
 H1195 H 1.19534 0.32544 0.27494
 H1196 H 1.17070 0.36172 0.30869
 H1197 H 1.23728 0.31920 0.36847
 H1198 H 1.26450 0.28336 0.33402
 H1199 H 1.16124 0.34379 0.43497
 H1200 H 1.11683 0.37440 0.46053
 H1201 H 1.11229 0.45002 0.39771
 H1202 H 1.15604 0.41950 0.37246
 C1203 C 0.32878 0.76641 0.19095
 C1204 C 0.34592 0.78277 0.17000
 C1205 C 0.32985 0.80834 0.15535
 C1206 C 0.29559 0.81667 0.16130
 C1207 C 0.27828 0.80031 0.18252
 C1208 C 0.29477 0.77509 0.19785
 N1209 N 0.35014 0.82715 0.13640
 N1210 N 0.33789 0.84890 0.12015
 C1211 C 0.36003 0.86844 0.10291
 C1212 C 0.34608 0.88672 0.08146
 C1213 C 0.36708 0.90699 0.06508
 C1214 C 0.40232 0.90986 0.07033
 C1215 C 0.41631 0.89139 0.09177
 C1216 C 0.39544 0.87066 0.10779
 H1217 H 0.34298 0.74787 0.20243
 H1218 H 0.37239 0.77633 0.16578
 H1219 H 0.28278 0.83674 0.15041
 H1220 H 0.25264 0.80859 0.18762
 H1221 H 0.31886 0.88539 0.07751
 H1222 H 0.35559 0.92111 0.04876
 H1223 H 0.44336 0.89313 0.09625
 H1224 H 0.40687 0.85700 0.12436
 C1225 C 0.81086 0.27667 0.68143
 C1226 C 0.82619 0.29156 0.65901
 C1227 C 0.81060 0.31883 0.64609
 C1228 C 0.77820 0.32991 0.65486
 C1229 C 0.76198 0.31393 0.67675
 C1230 C 0.77830 0.28724 0.69057
 N1231 N 0.82976 0.33618 0.62568
 N1232 N 0.82540 0.36738 0.62018
 C1233 C 0.84717 0.38416 0.60102
 C1234 C 0.85223 0.41914 0.60316
 C1235 C 0.87760 0.43525 0.58778
 C1236 C 0.89766 0.41665 0.56950
 C1237 C 0.89102 0.38198 0.56610
 C1238 C 0.86624 0.36576 0.58195
 H1239 H 0.82534 0.25755 0.69205
 H1240 H 0.85142 0.28319 0.65268
 H1241 H 0.76579 0.35116 0.64513
 H1242 H 0.73743 0.32355 0.68350
 H1243 H 0.83779 0.43360 0.61783
 H1244 H 0.88208 0.46208 0.59062
 H1245 H 0.90608 0.36710 0.55210
 H1246 H 0.86263 0.33870 0.57984
 C1247 C 1.17936 1.17754 0.72092
 C1248 C 1.15975 1.15716 0.70386
 C1249 C 1.16419 1.15916 0.67594
 C1250 C 1.18850 1.18162 0.66527
 C1251 C 1.20767 1.20200 0.68211
 C1252 C 1.20357 1.20044 0.71023
 N1253 N 1.14332 1.13912 0.65857
 N1254 N 1.14876 1.13880 0.63333
 C1255 C 1.12808 1.12015 0.61500
 C1256 C 1.13851 1.11795 0.58809
 C1257 C 1.11894 1.09990 0.56960
 C1258 C 1.08839 1.08413 0.57782
 C1259 C 1.07767 1.08691 0.60476
 C1260 C 1.09743 1.10463 0.62325
 H1261 H 1.17515 1.17566 0.74238
 H1262 H 1.14095 1.13999 0.71238
 H1263 H 1.19228 1.18402 0.64379
 H1264 H 1.22514 1.21966 0.67267
 H1265 H 1.16203 1.13004 0.58151
 H1266 H 1.12775 1.09815 0.54898
 H1267 H 1.05423 1.07496 0.61168
 H1268 H 1.08874 1.10626 0.64390
 C1269 C 0.65802 0.67200 0.23245
 C1270 C 0.63613 0.65224 0.21681
 C1271 C 0.63990 0.65195 0.18889
 C1272 C 0.66449 0.67275 0.17659
 C1273 C 0.68555 0.69313 0.19201
 C1274 C 0.68341 0.69240 0.22022
 N1275 N 0.61898 0.63056 0.17284
 N1276 N 0.63216 0.61642 0.15233
 C1277 C 0.61277 0.59752 0.13347
 C1278 C 0.63006 0.57442 0.11710
 C1279 C 0.61319 0.55886 0.09593
 C1280 C 0.57897 0.56707 0.09037
 C1281 C 0.56126 0.58964 0.10723
 C1282 C 0.57802 0.60458 0.12890
 H1283 H 0.65496 0.67121 0.25406
 H1284 H 0.61691 0.63652 0.22647
 H1285 H 0.66708 0.67350 0.15493
 H1286 H 0.70337 0.70953 0.18156
 H1287 H 0.65696 0.56915 0.12036
 H1288 H 0.62742 0.54159 0.08319
 H1289 H 0.53481 0.59621 0.10331
 H1290 H 0.56443 0.62281 0.14120
 C1291 C 1.24386 0.82856 0.30228
 C1292 C 1.22691 0.84934 0.32080
 C1293 C 1.19160 0.84607 0.32500
 C1294 C 1.17294 0.82366 0.30886
 C1295 C 1.18985 0.80280 0.29047
 C1296 C 1.22588 0.80326 0.28839
 N1297 N 1.17548 0.86444 0.34643
 N1298 N 1.14370 0.86090 0.35159
 C1299 C 1.12662 0.87791 0.37319
 C1300 C 1.09088 0.87658 0.37437
 C1301 C 1.07299 0.89374 0.39447
 C1302 C 1.09063 0.91214 0.41409
 C1303 C 1.12662 0.91244 0.41361
 C1304 C 1.14458 0.89561 0.39312
 H1305 H 1.27123 0.83152 0.29970
 H1306 H 1.24150 0.86724 0.33252
 H1307 H 1.14545 0.82126 0.31117
 H1308 H 1.17477 0.78477 0.27930
 H1309 H 1.07682 0.86278 0.35928
 H1310 H 1.04524 0.89303 0.39443
 H1311 H 1.14076 0.92663 0.42843
 H1312 H 1.17230 0.89664 0.39272
 C1313 C 0.72461 0.32044 -0.18889
 C1314 C 0.70791 0.34323 -0.17218
 C1315 C 0.67944 0.36102 -0.18121
 C1316 C 0.66850 0.35699 -0.20780
 C1317 C 0.68636 0.33510 -0.22511
 C1318 C 0.71465 0.31623 -0.21577
 N1319 N 0.66109 0.38080 -0.16200
 N1320 N 0.62919 0.38695 -0.16350
 C1321 C 0.61240 0.40442 -0.14199
 C1322 C 0.57791 0.39750 -0.13648
 C1323 C 0.56291 0.40859 -0.11248
 C1324 C 0.58213 0.42741 -0.09402
 C1325 C 0.61596 0.43640 -0.10051
 C1326 C 0.63110 0.42475 -0.12419
 H1327 H 0.74401 0.30498 -0.17987
 H1328 H 0.71594 0.34553 -0.15149
 H1329 H 0.64623 0.37050 -0.21504
 H1330 H 0.67731 0.33220 -0.24546
 H1331 H 0.56328 0.38176 -0.14996
 H1332 H 0.53660 0.40170 -0.10805
 H1333 H 0.63120 0.45114 -0.08673
 H1334 H 0.65777 0.43058 -0.12816
 C1335 C 0.81982 1.21587 0.29243
 C1336 C 0.83947 1.19656 0.31015
 C1337 C 0.82400 1.17222 0.32669
 C1338 C 0.78892 1.16543 0.32384
 C1339 C 0.76934 1.18421 0.30564
 C1340 C 0.78405 1.21128 0.29109
 N1341 N 0.84445 1.15529 0.34639
 N1342 N 0.83157 1.13832 0.36578
 C1343 C 0.85286 1.12173 0.38520
 C1344 C 0.83774 1.10530 0.40731
 C1345 C 0.85805 1.08799 0.42602
 C1346 C 0.89380 1.08666 0.42262
 C1347 C 0.90889 1.10383 0.40078
 C1348 C 0.88869 1.12128 0.38231
 H1349 H 0.83252 1.23548 0.28084
 H1350 H 0.86667 1.20149 0.31175
 H1351 H 0.77662 1.14594 0.33584
 H1352 H 0.74232 1.17851 0.30394
 H1353 H 0.81016 1.10555 0.40984
 H1354 H 0.84577 1.07480 0.44258
 H1355 H 0.93639 1.10330 0.39768
 H1356 H 0.90109 1.13385 0.36550
 C1357 C 0.29543 0.67072 -0.21305
 C1358 C 0.31539 0.65087 -0.19612
 C1359 C 0.34318 0.66490 -0.18276
 C1360 C 0.35211 0.69888 -0.18759
 C1361 C 0.33220 0.71884 -0.20484
 C1362 C 0.30259 0.70539 -0.21677
 N1363 N 0.36032 0.64431 -0.16338
 N1364 N 0.38503 0.65474 -0.14913
 C1365 C 0.39964 0.63337 -0.12889
 C1366 C 0.42704 0.64535 -0.11368
 C1367 C 0.44011 0.62584 -0.09259
 C1368 C 0.42571 0.59410 -0.08633
 C1369 C 0.39871 0.58181 -0.10196
 C1370 C 0.38581 0.60122 -0.12308
 H1371 H 0.27410 0.65865 -0.22281
 H1372 H 0.30861 0.62456 -0.19283
 H1373 H 0.37386 0.71014 -0.17765
 H1374 H 0.33930 0.74507 -0.20804
 H1375 H 0.43788 0.67008 -0.11789
 H1376 H 0.46103 0.63588 -0.08087
 H1377 H 0.38724 0.55739 -0.09765
 H1378 H 0.36457 0.59133 -0.13450
 C1379 C 0.77526 0.82197 0.70096
 C1380 C 0.79131 0.84026 0.68040
 C1381 C 0.82248 0.82918 0.66963
 C1382 C 0.83873 0.80077 0.68092
 C1383 C 0.82264 0.78237 0.70144
 C1384 C 0.78976 0.79168 0.71064
 N1385 N 0.83649 0.84651 0.64677
 N1386 N 0.86486 0.83778 0.63615
 C1387 C 0.87876 0.85493 0.61320
 C1388 C 0.91366 0.85131 0.60747
 C1389 C 0.92888 0.87051 0.58708
 C1390 C 0.90915 0.89294 0.57162
 C1391 C 0.87367 0.89489 0.57609
 C1392 C 0.85856 0.87624 0.59701
 H1393 H 0.75092 0.83100 0.70847
 H1394 H 0.77893 0.86260 0.67228
 H1395 H 0.86317 0.79202 0.67322
 H1396 H 0.83501 0.75959 0.70873
 H1397 H 0.92939 0.83481 0.61971
 H1398 H 0.95633 0.86872 0.58396
 H1399 H 0.85807 0.91229 0.56455
 H1400 H 0.83139 0.87906 0.60094
 C1401 C 0.34001 0.27307 0.20290
 C1402 C 0.36031 0.28902 0.18334
 C1403 C 0.35502 0.32319 0.17703
 C1404 C 0.33128 0.34201 0.19209
 C1405 C 0.31119 0.32616 0.21165
 C1406 C 0.31351 0.29096 0.21592
 N1407 N 0.37239 0.33779 0.15439
 N1408 N 0.36393 0.36674 0.14522
 C1409 C 0.37973 0.38134 0.12192
 C1410 C 0.36704 0.41205 0.11192
 C1411 C 0.38079 0.42624 0.08846
 C1412 C 0.40762 0.40988 0.07476
 C1413 C 0.42060 0.37925 0.08502
 C1414 C 0.40672 0.36501 0.10838
 H1415 H 0.34422 0.24645 0.20696
 H1416 H 0.37919 0.27439 0.17233
 H1417 H 0.32759 0.36879 0.18829
 H1418 H 0.29328 0.34159 0.22284
 H1419 H 0.34617 0.42478 0.12219
 H1420 H 0.37045 0.44996 0.08106
 H1421 H 0.44136 0.36615 0.07490
 H1422 H 0.41692 0.34123 0.11573
   
