data_POSCAR
  _audit_creation_date              2014-09-24
  _audit_creation_method            'ToBaCCo'
  _symmetry_space_group_name_H-M    'P1'
  _symmetry_Int_Tables_number       1
  _symmetry_cell_setting            triclinic
  loop_
  _symmetry_equiv_pos_as_xyz
 x,y,z
_cell_length_a 32.6173
_cell_length_b 32.4661
_cell_length_c 32.8046
_cell_angle_alpha 90.992400
_cell_angle_beta 89.306700
_cell_angle_gamma 90.931400
loop_
  _atom_site_label
  _atom_site_type_symbol
  _atom_site_fract_x
  _atom_site_fract_y
  _atom_site_fract_z
C1 C 0.12288 -0.00877 0.25312
 C2 C 0.37240 0.00500 0.75806
 C3 C 0.87365 0.50930 0.24660
 C4 C 0.63560 0.49332 0.74919
 C5 C 0.25724 0.12681 1.00409
 C6 C 0.75518 0.36914 0.99482
 C7 C 0.24479 0.87169 0.51113
 C8 C 0.74379 0.62543 0.49342
 C9 C -0.00291 0.24675 0.12369
 C10 C 0.00639 0.74381 0.36946
 C11 C 0.50657 0.25710 0.86895
 C12 C 0.50309 0.76193 0.62749
 C13 C 0.87536 0.99960 0.74414
 C14 C 0.38205 0.50252 0.25148
 C15 C 0.62043 0.99811 0.24681
 C16 C 0.12627 0.49291 0.74375
 C17 C 0.75731 0.87518 -0.00678
 C18 C 0.24335 0.37424 0.50857
 C19 C 0.26306 0.63229 -0.00015
 C20 C 0.74767 0.11598 0.48493
 C21 C 0.99689 0.74354 0.87397
 C22 C 0.49337 0.25189 0.38173
 C23 C 0.99929 0.24859 0.62835
 C24 C 0.50807 0.76361 0.12400
 O25 O 0.01864 1.08930 1.07467
 O26 O -0.04561 1.06186 1.09266
 O27 O 0.08953 0.97576 1.07461
 O28 O 0.08927 0.91571 1.03873
 O29 O 0.10802 1.06752 0.98584
 O30 O 0.07033 1.07454 0.91771
 O31 O -0.03827 0.88965 0.97138
 O32 O -0.01536 0.88521 1.03987
 O33 O -0.11237 0.99940 0.97415
 O34 O -0.10311 1.06556 0.99976
 O35 O -0.03306 0.98167 0.88091
 O36 O 0.03754 0.98885 0.86830
 O37 O -0.00714 0.90935 0.91233
 O38 O 0.06309 0.94138 0.89688
 O39 O -0.07629 1.02545 0.91400
 O40 O -0.06258 1.09263 0.95910
 O41 O -0.09583 0.93618 0.99686
 O42 O -0.07070 0.92191 1.06046
 O43 O 0.02872 1.11324 1.01088
 O44 O 0.04154 1.11901 0.94811
 O45 O 0.12614 1.00251 1.00151
 O46 O 0.11032 0.93105 0.98295
 O47 O 0.04313 1.01536 1.10848
 O48 O -0.03014 1.00627 1.11496
 Zr49 Zr 0.00051 1.02785 1.06206
 O50 O -0.04818 0.99996 1.02908
 Zr51 Zr 0.06971 0.97151 1.01378
 O52 O 0.02413 0.93974 0.97973
 Zr53 Zr 0.04455 1.06066 0.97552
 O54 O -0.00124 1.03309 0.93877
 Zr55 Zr -0.03252 0.94011 1.01117
 O56 O 0.01468 0.96622 1.04829
 Zr57 Zr -0.05569 1.02979 0.97337
 O58 O -0.01121 1.05963 1.00810
 Zr59 Zr 0.01272 0.97101 0.92528
 O60 O 0.06143 1.00071 0.95776
 O61 O 0.05656 1.03210 1.03064
 O62 O -0.04311 0.96899 0.95636
 C63 C 0.02000 1.11855 1.04893
 C64 C 0.07540 0.99316 1.10734
 C65 C 0.13498 1.03985 0.99163
 C66 C -0.02597 0.88264 0.93471
 C67 C -0.12144 0.96215 0.98278
 C68 C -0.06506 1.00456 0.88262
 H69 H -0.07376 0.99977 1.04557
 H70 H -0.00441 1.04948 0.91390
 H71 H 0.07757 1.04658 1.04737
 H72 H 0.03402 0.91143 0.97485
 H73 H -0.00146 0.89335 1.06553
 H74 H 0.06465 0.89766 1.04056
 H75 H -0.05622 1.09576 0.92973
 H76 H 0.01336 1.12126 0.93740
 H77 H -0.06177 0.93827 1.08444
 H78 H -0.01964 0.97847 1.12039
 H79 H 0.03996 1.01923 0.86895
 H80 H 0.09184 1.05399 0.91195
 H81 H -0.05831 1.07907 1.07181
 H82 H -0.10813 1.05562 1.02773
 H83 H 0.11652 0.94316 0.95604
 H84 H 0.06736 0.91536 0.91141
 O85 O 0.44847 0.39231 0.48538
 O86 O 0.46896 0.38500 0.55236
 O87 O 0.37290 0.49910 0.49341
 O88 O 0.38353 0.56838 0.50943
 O89 O 0.46749 0.48679 0.39422
 O90 O 0.53763 0.49354 0.39225
 O91 O 0.50137 0.58751 0.59563
 O92 O 0.43535 0.56617 0.60821
 O93 O 0.57128 0.48022 0.59686
 O94 O 0.56992 0.41600 0.55807
 O95 O 0.59402 0.56910 0.50867
 O96 O 0.56484 0.58930 0.44775
 O97 O 0.53061 0.61509 0.53897
 O98 O 0.51321 0.61652 0.46330
 O99 O 0.61047 0.50693 0.53412
 O100 O 0.59879 0.43603 0.50770
 O101 O 0.51787 0.51471 0.62573
 O102 O 0.43971 0.50805 0.62410
 O103 O 0.48715 0.41134 0.43063
 O104 O 0.55480 0.44089 0.41941
 O105 O 0.41820 0.52805 0.42158
 O106 O 0.41536 0.58896 0.46243
 O107 O 0.39002 0.43730 0.51928
 O108 O 0.42506 0.42118 0.58042
 Zr109 Zr 0.45364 0.44161 0.52597
 O110 O 0.49680 0.46890 0.56512
 Zr111 Zr 0.43006 0.53040 0.48490
 O112 O 0.47134 0.56242 0.52351
 Zr113 Zr 0.50447 0.47354 0.44420
 O114 O 0.54909 0.50466 0.47998
 Zr115 Zr 0.47947 0.52966 0.57740
 O116 O 0.43373 0.50105 0.54140
 Zr117 Zr 0.55427 0.47439 0.53565
 O118 O 0.51228 0.44127 0.49837
 Zr119 Zr 0.53029 0.56449 0.49677
 O120 O 0.48812 0.53533 0.45614
 O121 O 0.44580 0.47008 0.47007
 O122 O 0.53833 0.53476 0.55196
 C123 C 0.46601 0.38476 0.45115
 C124 C 0.36369 0.46367 0.50853
 C125 C 0.43725 0.51124 0.39116
 C126 C 0.51807 0.61738 0.57629
 C127 C 0.55153 0.49491 0.62756
 C128 C 0.62000 0.54328 0.52219
 H129 H 0.49767 0.45206 0.58989
 H130 H 0.57541 0.50537 0.46475
 H131 H 0.42540 0.45607 0.45224
 H132 H 0.46039 0.59021 0.52895
 H133 H 0.42382 0.58485 0.58797
 H134 H 0.38041 0.56107 0.53848
 H135 H 0.61039 0.45048 0.48378
 H136 H 0.56153 0.41946 0.43924
 H137 H 0.45111 0.48221 0.63441
 H138 H 0.40745 0.44375 0.59064
 H139 H 0.57660 0.56588 0.43217
 H140 H 0.53546 0.52392 0.39212
 H141 H 0.49648 0.37782 0.54163
 H142 H 0.54953 0.40850 0.57935
 H143 H 0.43821 0.59738 0.44410
 H144 H 0.49130 0.63063 0.47899
 O145 O 0.41031 0.02340 0.58598
 O146 O 0.41661 0.08829 0.55402
 O147 O 0.38699 -0.06043 0.49060
 O148 O 0.41487 -0.07342 0.42796
 O149 O 0.48041 -0.09276 0.57293
 O150 O 0.54509 -0.06589 0.59125
 O151 O 0.52138 0.02249 0.38621
 O152 O 0.45017 0.01433 0.38266
 O153 O 0.53797 0.11168 0.48233
 O154 O 0.51486 0.11269 0.55642
 O155 O 0.60980 0.00182 0.48167
 O156 O 0.59799 -0.06752 0.49318
 O157 O 0.57035 -0.01899 0.41120
 O158 O 0.56375 -0.08671 0.44789
 O159 O 0.59489 0.06328 0.51202
 O160 O 0.56275 0.07988 0.57340
 O161 O 0.50357 0.09434 0.42451
 O162 O 0.43795 0.07385 0.41100
 O163 O 0.45582 -0.02015 0.61365
 O164 O 0.52997 -0.01105 0.61829
 O165 O 0.44768 -0.11126 0.51442
 O166 O 0.46704 -0.11082 0.44498
 O167 O 0.37220 0.00077 0.52184
 O168 O 0.38607 0.06995 0.50013
 Zr169 Zr 0.42935 0.03062 0.52610
 O170 O 0.47352 0.06328 0.49243
 Zr171 Zr 0.45080 -0.05755 0.47935
 O172 O 0.49572 -0.02840 0.44277
 Zr173 Zr 0.49872 -0.03047 0.56505
 O174 O 0.54611 -0.00099 0.53166
 Zr175 Zr 0.48192 0.03408 0.43558
 O176 O 0.43386 0.00357 0.46769
 Zr177 Zr 0.53085 0.06041 0.52053
 O178 O 0.48516 0.03215 0.55780
 Zr179 Zr 0.55237 -0.02735 0.47287
 O180 O 0.50822 -0.06026 0.50810
 O181 O 0.44240 -0.03100 0.53676
 O182 O 0.54002 0.03457 0.46224
 C183 C 0.42350 0.00228 0.61541
 C184 C 0.36202 -0.03486 0.50762
 C185 C 0.46292 -0.11955 0.54916
 C186 C 0.55267 -0.00061 0.38196
 C187 C 0.52367 0.12000 0.44711
 C188 C 0.62024 0.03665 0.49791
 H189 H 0.46407 0.09189 0.49010
 H190 H 0.57168 -0.00280 0.54736
 H191 H 0.42180 -0.04630 0.55324
 H192 H 0.49692 -0.04335 0.41629
 H193 H 0.42294 0.00373 0.39166
 H194 H 0.42970 -0.06327 0.40355
 H195 H 0.57183 0.05481 0.58714
 H196 H 0.52201 0.01783 0.62388
 H197 H 0.42662 0.09081 0.43362
 H198 H 0.37822 0.05740 0.47355
 H199 H 0.60165 -0.06191 0.52264
 H200 H 0.55535 -0.08458 0.56939
 H201 H 0.43818 0.09355 0.57451
 H202 H 0.49419 0.12817 0.54135
 H203 H 0.49305 -0.12076 0.45617
 H204 H 0.54851 -0.08957 0.42207
 O205 O 0.03066 0.51807 0.88832
 O206 O -0.03368 0.52489 0.88458
 O207 O 0.04223 0.61697 0.98987
 O208 O 0.01289 0.61540 1.05578
 O209 O 0.13031 0.52559 0.98518
 O210 O 0.13371 0.45660 0.99234
 O211 O -0.06771 0.50039 1.09279
 O212 O -0.08525 0.55809 1.06215
 O213 O -0.07009 0.41212 0.99060
 O214 O -0.04152 0.41209 0.92678
 O215 O 0.01878 0.40523 1.07544
 O216 O 0.07725 0.43453 1.09306
 O217 O -0.00867 0.47402 1.11672
 O218 O 0.06958 0.49271 1.11082
 O219 O -0.00121 0.38029 1.01349
 O220 O 0.01664 0.38862 0.94071
 O221 O -0.10213 0.46501 1.02327
 O222 O -0.10271 0.54327 1.00459
 O223 O 0.09270 0.49793 0.91076
 O224 O 0.10454 0.43332 0.94374
 O225 O 0.10342 0.57606 1.02575
 O226 O 0.05905 0.58725 1.08342
 O227 O 0.01254 0.59525 0.93088
 O228 O -0.06056 0.55917 0.92854
 Zr229 Zr -0.00338 0.53234 0.94090
 O230 O -0.04160 0.48888 0.97104
 Zr231 Zr 0.03999 0.56428 1.02575
 O232 O 0.00176 0.52512 1.06009
 Zr233 Zr 0.08018 0.48620 0.97321
 O234 O 0.04598 0.44371 1.00755
 Zr235 Zr -0.05405 0.51059 1.03051
 O236 O -0.01805 0.55594 0.99899
 Zr237 Zr -0.01075 0.43347 0.97956
 O238 O 0.02431 0.47411 0.94370
 Zr239 Zr 0.03030 0.46802 1.06540
 O240 O 0.07018 0.50817 1.03339
 O241 O 0.05389 0.54351 0.96671
 O242 O -0.02615 0.45388 1.03860
 C243 C 0.06704 0.50469 0.88226
 C244 C 0.02942 0.62326 0.95381
 C245 C 0.13351 0.55707 1.00907
 C246 C -0.04446 0.48928 1.12187
 C247 C -0.10186 0.42842 1.00693
 C248 C 0.01049 0.37575 1.05025
 H249 H -0.06691 0.48391 0.95527
 H250 H 0.06237 0.41849 1.00951
 H251 H 0.07297 0.56113 0.95068
 H252 H -0.00232 0.53997 1.08634
 H253 H -0.06381 0.57760 1.07203
 H254 H -0.01367 0.61998 1.04242
 H255 H 0.04182 0.37910 0.95391
 H256 H 0.08531 0.42501 0.92188
 H257 H -0.11492 0.52570 0.98283
 H258 H -0.06180 0.58538 0.94439
 H259 H 0.09601 0.42534 1.07092
 H260 H 0.13379 0.45902 1.02246
 H261 H -0.04559 0.49663 0.88416
 H262 H -0.03434 0.43181 0.90507
 H263 H 0.07925 0.56787 1.09403
 H264 H 0.05341 0.51221 1.12776
 O265 O -0.00519 0.37881 0.52994
 O266 O -0.02695 0.37182 0.46274
 O267 O 0.10422 0.45642 0.51578
 O268 O 0.12012 0.51945 0.49735
 O269 O 0.01588 0.47502 0.61236
 O270 O -0.04529 0.51350 0.61717
 O271 O 0.01747 0.56922 0.40753
 O272 O 0.06779 0.52317 0.39811
 O273 O -0.09281 0.50379 0.41642
 O274 O -0.11370 0.44302 0.44572
 O275 O -0.07778 0.59131 0.49716
 O276 O -0.04068 0.60658 0.55494
 O277 O -0.00634 0.60912 0.46013
 O278 O 0.01811 0.61357 0.53479
 O279 O -0.11883 0.53603 0.48206
 O280 O -0.12760 0.46193 0.50670
 O281 O -0.03243 0.51509 0.38273
 O282 O 0.03103 0.46894 0.38091
 O283 O -0.03311 0.41644 0.58210
 O284 O -0.08469 0.46951 0.59406
 O285 O 0.07626 0.49480 0.58252
 O286 O 0.09126 0.55851 0.54069
 O287 O 0.06564 0.40081 0.49553
 O288 O 0.02493 0.39233 0.43147
 Zr289 Zr 0.00629 0.42351 0.48556
 O290 O -0.02656 0.46029 0.44541
 Zr291 Zr 0.06150 0.50341 0.52086
 O292 O 0.03357 0.54275 0.47983
 Zr293 Zr -0.02685 0.47852 0.56536
 O294 O -0.05849 0.51949 0.52872
 Zr295 Zr 0.01182 0.50956 0.42859
 O296 O 0.04591 0.47130 0.46644
 Zr297 Zr -0.07656 0.48793 0.47545
 O298 O -0.04798 0.44549 0.51374
 Zr299 Zr -0.01933 0.56703 0.50775
 O300 O 0.01064 0.52978 0.55060
 O301 O 0.02519 0.45347 0.53853
 O302 O -0.03966 0.53677 0.45549
 C303 C -0.02258 0.38221 0.56503
 C304 C 0.09964 0.41820 0.50656
 C305 C 0.05458 0.48251 0.61301
 C306 C 0.00893 0.60407 0.42396
 C307 C -0.07173 0.51345 0.38466
 C308 C -0.11299 0.57455 0.48953
 H309 H -0.03589 0.44382 0.42156
 H310 H -0.08191 0.53017 0.54491
 H311 H 0.03941 0.43401 0.55621
 H312 H 0.05385 0.56431 0.47221
 H313 H 0.08909 0.50663 0.41113
 H314 H 0.11590 0.53025 0.46976
 H315 H -0.13549 0.48158 0.52871
 H316 H -0.09936 0.44768 0.57835
 H317 H 0.00676 0.45409 0.36988
 H318 H 0.05070 0.40586 0.42211
 H319 H -0.05326 0.58865 0.57586
 H320 H -0.02729 0.53834 0.61809
 H321 H -0.05496 0.37356 0.47454
 H322 H -0.09817 0.41715 0.44537
 H323 H 0.07654 0.56834 0.56549
 H324 H 0.04202 0.61812 0.51648
 O325 O 0.50469 0.88769 0.00598
 O326 O 0.49077 0.89409 -0.06533
 O327 O 0.61959 0.96295 0.00998
 O328 O 0.63674 1.02824 0.00094
 O329 O 0.52447 0.97354 0.10468
 O330 O 0.45954 1.00976 0.10659
 O331 O 0.53807 1.09833 -0.08118
 O332 O 0.59549 1.05320 -0.08821
 O333 O 0.43525 1.02150 -0.09940
 O334 O 0.41250 0.95261 -0.06620
 O335 O 0.43656 1.10042 0.00246
 O336 O 0.47423 1.09994 0.06976
 O337 O 0.51032 1.12658 -0.02341
 O338 O 0.52507 1.12381 0.04595
 O339 O 0.39998 1.05036 -0.03080
 O340 O 0.38349 0.98361 -0.02136
 O341 O 0.49802 1.04355 -0.12168
 O342 O 0.55977 1.00933 -0.12624
 O343 O 0.48181 0.91671 0.06548
 O344 O 0.42666 0.96231 0.07674
 O345 O 0.58731 0.99438 0.08131
 O346 O 0.60691 1.05973 0.05194
 O347 O 0.58122 0.91224 -0.02045
 O348 O 0.54786 0.91147 -0.08415
 Zr349 Zr 0.52371 0.93813 -0.02990
 O350 O 0.49679 0.98221 -0.06692
 Zr351 Zr 0.57708 1.01040 0.02053
 O352 O 0.55121 1.05763 -0.01349
 Zr353 Zr 0.48540 0.98007 0.05469
 O354 O 0.45542 1.02499 0.02122
 Zr355 Zr 0.53523 1.03466 -0.07132
 O356 O 0.56477 0.98813 -0.03891
 Zr357 Zr 0.44321 1.00354 -0.03837
 O358 O 0.46793 0.95621 -0.00284
 Zr359 Zr 0.49505 1.07580 0.01297
 O360 O 0.52391 1.03237 0.05028
 O361 O 0.53942 0.95867 0.02824
 O362 O 0.48019 1.05611 -0.04597
 C363 C 0.48936 0.88563 0.04221
 C364 C 0.61512 0.92692 -0.00639
 C365 C 0.56292 0.98107 0.10921
 C366 C 0.52737 1.12910 -0.05873
 C367 C 0.45995 1.03539 -0.12702
 C368 C 0.40323 1.08576 -0.01323
 H369 H 0.49106 0.96950 -0.09388
 H370 H 0.43002 1.03228 0.03623
 H371 H 0.55249 0.93690 0.04413
 H372 H 0.57111 1.08083 -0.01531
 H373 H 0.61395 1.03067 -0.08073
 H374 H 0.63397 1.05149 -0.01785
 H375 H 0.38167 0.98604 0.00869
 H376 H 0.41351 0.94586 0.05467
 H377 H 0.54622 0.98232 -0.13126
 H378 H 0.57100 0.92949 -0.09290
 H379 H 0.44687 1.08763 0.07550
 H380 H 0.47825 1.03296 0.11393
 H381 H 0.46209 0.89433 -0.05514
 H382 H 0.42534 0.94745 -0.09326
 H383 H 0.58757 1.06985 0.07320
 H384 H 0.55463 1.12229 0.03915
 O385 O 0.39791 0.52118 0.01240
 O386 O 0.39644 0.45458 0.02293
 O387 O 0.50009 0.52104 0.11716
 O388 O 0.56498 0.53316 0.11930
 O389 O 0.50203 0.62555 0.01547
 O390 O 0.49376 0.62711 -0.04958
 O391 O 0.60824 0.43542 -0.00074
 O392 O 0.58033 0.42893 0.06878
 O393 O 0.50012 0.41448 -0.07388
 O394 O 0.44231 0.44820 -0.08560
 O395 O 0.59132 0.51521 -0.09128
 O396 O 0.59230 0.58839 -0.05454
 O397 O 0.63026 0.49514 -0.02968
 O398 O 0.63053 0.56370 -0.01253
 O399 O 0.53995 0.47033 -0.10836
 O400 O 0.46637 0.50379 -0.11305
 O401 O 0.53579 0.39227 -0.01939
 O402 O 0.52905 0.39187 0.04968
 O403 O 0.42187 0.58530 -0.00126
 O404 O 0.45405 0.58703 -0.07204
 O405 O 0.51700 0.60225 0.07822
 O406 O 0.58867 0.57077 0.07926
 O407 O 0.43637 0.50694 0.09393
 O408 O 0.43374 0.43522 0.06315
 Zr409 Zr 0.45030 0.49025 0.03289
 O410 O 0.48587 0.45160 -0.00474
 Zr411 Zr 0.53245 0.54076 0.06467
 O412 O 0.57203 0.50435 0.02826
 Zr413 Zr 0.48306 0.57242 -0.01684
 O414 O 0.52032 0.53761 -0.05713
 Zr415 Zr 0.54593 0.44564 0.01759
 O416 O 0.50851 0.48052 0.05838
 Zr417 Zr 0.49550 0.47771 -0.06230
 O418 O 0.45578 0.51391 -0.02609
 Zr419 Zr 0.57744 0.52995 -0.03020
 O420 O 0.54196 0.56834 0.00764
 O421 O 0.47361 0.54976 0.04204
 O422 O 0.55424 0.47015 -0.03972
 C423 C 0.39263 0.55875 0.00205
 C424 C 0.46222 0.51100 0.12292
 C425 C 0.51262 0.63123 0.05266
 C426 C 0.63622 0.45865 -0.01746
 C427 C 0.51568 0.38614 -0.05261
 C428 C 0.57450 0.48847 -0.11508
 H429 H 0.47042 0.42519 -0.00627
 H430 H 0.52301 0.55114 -0.08382
 H431 H 0.45592 0.56739 0.05960
 H432 H 0.59885 0.50226 0.04176
 H433 H 0.56667 0.44160 0.09290
 H434 H 0.57769 0.50569 0.11729
 H435 H 0.48775 0.51438 -0.13198
 H436 H 0.43188 0.56628 -0.07630
 H437 H 0.49877 0.39012 0.04952
 H438 H 0.45334 0.43211 0.08567
 H439 H 0.58332 0.58846 -0.08324
 H440 H 0.52249 0.62594 -0.05964
 H441 H 0.39880 0.44302 -0.00513
 H442 H 0.41885 0.45966 -0.06998
 H443 H 0.59158 0.59475 0.06114
 H444 H 0.63565 0.55738 0.01632
 O445 O -0.11074 0.04224 0.51640
 O446 O -0.12672 -0.02597 0.51443
 O447 O -0.01217 0.04115 0.61050
 O448 O 0.05182 0.02118 0.61316
 O449 O -0.00508 0.11825 0.50253
 O450 O 0.02189 0.09723 0.43153
 O451 O 0.07071 -0.09337 0.52682
 O452 O 0.03634 -0.08431 0.58610
 O453 O -0.01580 -0.10644 0.43442
 O454 O -0.08517 -0.06599 0.42844
 O455 O 0.07264 -0.02666 0.40600
 O456 O 0.09829 0.04214 0.43626
 O457 O 0.10606 -0.05304 0.48190
 O458 O 0.12629 0.01390 0.48109
 O459 O 0.00947 -0.05026 0.38715
 O460 O -0.05469 -0.02485 0.38627
 O461 O 0.00941 -0.12383 0.49584
 O462 O -0.02415 -0.10722 0.56523
 O463 O -0.07820 0.07737 0.46583
 O464 O -0.03676 0.08861 0.41642
 O465 O 0.02128 0.09889 0.56287
 O466 O 0.08350 0.05642 0.56926
 O467 O -0.07518 0.01696 0.59194
 O468 O -0.10056 -0.04782 0.56471
 Zr469 Zr -0.06790 -0.00327 0.53037
 O470 O -0.04237 -0.05552 0.50078
 Zr471 Zr 0.02322 0.03448 0.55749
 O472 O 0.05251 -0.01585 0.52959
 Zr473 Zr -0.01622 0.06152 0.47047
 O474 O 0.01116 0.01205 0.43843
 Zr475 Zr 0.01321 -0.06790 0.52873
 O476 O -0.01433 -0.01884 0.56101
 Zr477 Zr -0.02556 -0.04194 0.44048
 O478 O -0.05509 0.00889 0.46849
 Zr479 Zr 0.06546 -0.00457 0.46760
 O480 O 0.04018 0.04850 0.49728
 O481 O -0.03206 0.05050 0.53105
 O482 O 0.02922 -0.05767 0.46765
 C483 C -0.11045 0.06698 0.48626
 C484 C -0.04952 0.03132 0.61845
 C485 C 0.01027 0.12636 0.53791
 C486 C 0.10309 -0.08330 0.50701
 C487 C -0.00134 -0.13276 0.45923
 C488 C 0.04710 -0.04125 0.37924
 H489 H -0.06159 -0.07931 0.50181
 H490 H 0.01580 0.02149 0.41024
 H491 H -0.04701 0.07309 0.54509
 H492 H 0.07778 -0.02055 0.54506
 H493 H 0.02299 -0.06635 0.60688
 H494 H 0.06067 -0.00775 0.61131
 H495 H -0.06945 0.00088 0.39279
 H496 H -0.04079 0.06577 0.39638
 H497 H -0.04250 -0.12390 0.54743
 H498 H -0.08096 -0.05898 0.58432
 H499 H 0.08255 0.04845 0.41160
 H500 H 0.04606 0.10625 0.44756
 H501 H -0.12628 -0.02945 0.48439
 H502 H -0.08758 -0.09392 0.43993
 H503 H 0.09162 0.07467 0.54657
 H504 H 0.12675 0.02049 0.51064
 O505 O 0.83466 0.24753 0.17240
 O506 O 0.79529 0.18575 0.15835
 O507 O 0.74054 0.34023 0.16697
 O508 O 0.69164 0.36572 0.20302
 O509 O 0.83088 0.33416 0.27002
 O510 O 0.83193 0.29301 0.32930
 O511 O 0.62140 0.25047 0.26234
 O512 O 0.62803 0.27014 0.19575
 O513 O 0.70069 0.14216 0.26293
 O514 O 0.76744 0.12997 0.24786
 O515 O 0.70226 0.22866 0.35933
 O516 O 0.73271 0.29501 0.37153
 O517 O 0.64728 0.26979 0.32401
 O518 O 0.69373 0.33002 0.34126
 O519 O 0.73174 0.17106 0.33259
 O520 O 0.79945 0.15702 0.29428
 O521 O 0.64880 0.17860 0.23623
 O522 O 0.65164 0.21530 0.16989
 O523 O 0.85925 0.26931 0.23385
 O524 O 0.85324 0.23909 0.30125
 O525 O 0.78278 0.36970 0.23620
 O526 O 0.70991 0.37630 0.26202
 O527 O 0.76846 0.28325 0.13693
 O528 O 0.74642 0.21351 0.13051
 Zr529 Zr 0.77089 0.24030 0.18432
 O530 O 0.72653 0.20337 0.21436
 Zr531 Zr 0.73476 0.32600 0.22859
 O532 O 0.68831 0.29284 0.25872
 Zr533 Zr 0.80798 0.27382 0.27235
 O534 O 0.76502 0.23935 0.30628
 Zr535 Zr 0.67372 0.23795 0.22676
 O536 O 0.71651 0.27376 0.19357
 Zr537 Zr 0.74723 0.18695 0.27215
 O538 O 0.79404 0.21919 0.23969
 Zr539 Zr 0.71096 0.27295 0.31453
 O540 O 0.75656 0.30986 0.28600
 O541 O 0.78783 0.29371 0.21602
 O542 O 0.69304 0.21893 0.28371
 C543 C 0.86383 0.25972 0.19600
 C544 C 0.75257 0.31917 0.13587
 C545 C 0.81741 0.36700 0.25407
 C546 C 0.61759 0.26267 0.29956
 C547 C 0.66426 0.14508 0.24901
 C548 C 0.71406 0.19137 0.36160
 H549 H 0.72051 0.17855 0.19750
 H550 H 0.77751 0.23215 0.33245
 H551 H 0.80738 0.31075 0.19998
 H552 H 0.66458 0.31123 0.26182
 H553 H 0.64251 0.28974 0.17755
 H554 H 0.66515 0.35048 0.20244
 H555 H 0.80634 0.16979 0.32099
 H556 H 0.85692 0.21366 0.28461
 H557 H 0.66368 0.18803 0.16409
 H558 H 0.71856 0.22472 0.12781
 H559 H 0.75845 0.28062 0.37720
 H560 H 0.81225 0.31294 0.34116
 H561 H 0.81323 0.17392 0.17912
 H562 H 0.76903 0.13295 0.21794
 H563 H 0.72708 0.38074 0.28645
 H564 H 0.67193 0.34156 0.32436
 O565 O 0.74265 0.68081 0.64413
 O566 O 0.80771 0.65733 0.67769
 O567 O 0.65842 0.67545 0.74579
 O568 O 0.64324 0.71038 0.80146
 O569 O 0.67492 0.78987 0.66691
 O570 O 0.72607 0.84120 0.66457
 O571 O 0.77975 0.75139 0.86136
 O572 O 0.73656 0.69379 0.85455
 O573 O 0.87007 0.74457 0.77326
 O574 O 0.87564 0.73144 0.70418
 O575 O 0.80179 0.85610 0.77789
 O576 O 0.72666 0.86994 0.76268
 O577 O 0.76592 0.81711 0.84377
 O578 O 0.71019 0.84749 0.81729
 O579 O 0.85228 0.81947 0.74651
 O580 O 0.85566 0.78277 0.67805
 O581 O 0.83350 0.70987 0.82152
 O582 O 0.78653 0.65655 0.82026
 O583 O 0.72894 0.74668 0.62698
 O584 O 0.77165 0.80740 0.63563
 O585 O 0.63793 0.75415 0.71399
 O586 O 0.63891 0.77193 0.78808
 O587 O 0.70971 0.63933 0.71503
 O588 O 0.77239 0.62209 0.71537
 Zr589 Zr 0.75635 0.68422 0.70723
 O590 O 0.80031 0.70511 0.74955
 Zr591 Zr 0.68248 0.73554 0.75622
 O592 O 0.72375 0.75863 0.80050
 Zr593 Zr 0.73548 0.77963 0.68191
 O594 O 0.77860 0.80473 0.72249
 Zr595 Zr 0.77258 0.71813 0.80629
 O596 O 0.72926 0.69277 0.76561
 Zr597 Zr 0.82528 0.76207 0.73144
 O598 O 0.78445 0.73871 0.68643
 Zr599 Zr 0.75196 0.81358 0.78072
 O600 O 0.70685 0.79296 0.73841
 O601 O 0.70782 0.72388 0.69889
 O602 O 0.80058 0.77385 0.78944
 C603 C 0.73350 0.70847 0.61815
 C604 C 0.67411 0.64170 0.73190
 C605 C 0.64112 0.77658 0.68206
 C606 C 0.77530 0.78977 0.87003
 C607 C 0.86717 0.72280 0.80550
 C608 C 0.83760 0.85304 0.76144
 H609 H 0.82153 0.68389 0.75183
 H610 H 0.78835 0.83056 0.70985
 H611 H 0.68695 0.71195 0.68023
 H612 H 0.70930 0.76265 0.82692
 H613 H 0.71548 0.67558 0.84192
 H614 H 0.65911 0.70980 0.82693
 H615 H 0.84576 0.81077 0.67259
 H616 H 0.79298 0.78744 0.62743
 H617 H 0.76583 0.63878 0.80646
 H618 H 0.78511 0.62069 0.74252
 H619 H 0.74442 0.88106 0.74066
 H620 H 0.70895 0.85416 0.68618
 H621 H 0.81748 0.67677 0.65662
 H622 H 0.86897 0.70163 0.70409
 H623 H 0.64007 0.79966 0.77596
 H624 H 0.68682 0.82877 0.82346
 O625 O 0.23010 0.18598 0.85608
 O626 O 0.16453 0.18387 0.82217
 O627 O 0.30969 0.14657 0.75674
 O628 O 0.32550 0.16695 0.69387
 O629 O 0.34463 0.25305 0.83085
 O630 O 0.32143 0.32220 0.83374
 O631 O 0.23105 0.25905 0.63874
 O632 O 0.23685 0.18582 0.64891
 O633 O 0.14185 0.29043 0.73203
 O634 O 0.13849 0.27860 0.80739
 O635 O 0.24874 0.36506 0.72175
 O636 O 0.32051 0.35540 0.73654
 O637 O 0.26783 0.31612 0.65802
 O638 O 0.33515 0.31866 0.69045
 O639 O 0.18964 0.35264 0.75709
 O640 O 0.17200 0.32698 0.82187
 O641 O 0.15800 0.24810 0.67859
 O642 O 0.17419 0.18328 0.67494
 O643 O 0.27055 0.24103 0.87383
 O644 O 0.26848 0.31277 0.86602
 O645 O 0.35961 0.20968 0.77785
 O646 O 0.36143 0.22195 0.70584
 O647 O 0.25193 0.13496 0.79457
 O648 O 0.18234 0.14244 0.77646
 Zr649 Zr 0.22206 0.19201 0.79274
 O650 O 0.18932 0.22839 0.75208
 Zr651 Zr 0.30798 0.20877 0.74087
 O652 O 0.27923 0.24637 0.69866
 Zr653 Zr 0.28377 0.27071 0.81850
 O654 O 0.25289 0.31044 0.77980
 Zr655 Zr 0.21727 0.22892 0.69393
 O656 O 0.24709 0.18783 0.73321
 Zr657 Zr 0.19196 0.29016 0.77184
 O658 O 0.22135 0.25328 0.81496
 Zr659 Zr 0.27837 0.30768 0.72065
 O660 O 0.31218 0.27072 0.76058
 O661 O 0.28336 0.20929 0.79967
 O662 O 0.21675 0.29095 0.71269
 C663 C 0.24848 0.20915 0.88250
 C664 C 0.28553 0.12325 0.77759
 C665 C 0.36918 0.22960 0.81051
 C666 C 0.25117 0.29247 0.63090
 C667 C 0.13319 0.27162 0.69830
 C668 C 0.21501 0.37666 0.73867
 H669 H 0.16080 0.21775 0.75055
 H670 H 0.25463 0.33841 0.79211
 H671 H 0.29796 0.19160 0.81886
 H672 H 0.29404 0.24356 0.67233
 H673 H 0.24385 0.16017 0.66304
 H674 H 0.31251 0.17589 0.66850
 H675 H 0.19583 0.34371 0.83119
 H676 H 0.23882 0.30883 0.87170
 H677 H 0.16594 0.16792 0.69950
 H678 H 0.19261 0.13108 0.75012
 H679 H 0.31148 0.36736 0.76303
 H680 H 0.34118 0.32572 0.81086
 H681 H 0.16010 0.20878 0.83939
 H682 H 0.12385 0.25452 0.79527
 H683 H 0.37166 0.24943 0.71495
 H684 H 0.33956 0.29583 0.67061
 O685 O 0.15768 0.75287 0.31659
 O686 O 0.18479 0.68515 0.32639
 O687 O 0.27290 0.82219 0.35020
 O688 O 0.33245 0.83669 0.32430
 O689 O 0.19589 0.85585 0.24730
 O690 O 0.19181 0.82913 0.17811
 O691 O 0.37336 0.71804 0.23867
 O692 O 0.36711 0.73548 0.31169
 O693 O 0.27145 0.64078 0.21566
 O694 O 0.19922 0.64453 0.22642
 O695 O 0.29972 0.74039 0.13998
 O696 O 0.28923 0.81203 0.14146
 O697 O 0.36006 0.75849 0.18462
 O698 O 0.33264 0.83074 0.18131
 O699 O 0.25685 0.68628 0.15342
 O700 O 0.18378 0.68295 0.18218
 O701 O 0.32585 0.65518 0.25644
 O702 O 0.33123 0.67749 0.32137
 O703 O 0.14527 0.79179 0.26121
 O704 O 0.15321 0.77934 0.19057
 O705 O 0.25010 0.87101 0.28830
 O706 O 0.32401 0.86266 0.26795
 O707 O 0.22165 0.77618 0.36467
 O708 O 0.23370 0.70191 0.36301
 Zr709 Zr 0.22079 0.73760 0.31154
 O710 O 0.25691 0.69656 0.27606
 Zr711 Zr 0.28294 0.81582 0.28800
 O712 O 0.32188 0.77841 0.25285
 Zr713 Zr 0.20211 0.79365 0.23037
 O714 O 0.23759 0.75575 0.19179
 Zr715 Zr 0.31822 0.71750 0.27312
 O716 O 0.28320 0.75615 0.31252
 Zr717 Zr 0.23822 0.69584 0.21485
 O718 O 0.19860 0.73276 0.25144
 Zr719 Zr 0.29911 0.77580 0.19335
 O720 O 0.26257 0.81702 0.22759
 O721 O 0.22136 0.79735 0.29043
 O722 O 0.29958 0.71478 0.21260
 C723 C 0.13364 0.77344 0.29379
 C724 C 0.24491 0.80748 0.37350
 C725 C 0.21726 0.88057 0.26985
 C726 C 0.38381 0.73630 0.20551
 C727 C 0.30444 0.63068 0.23376
 C728 C 0.28099 0.70698 0.12983
 H729 H 0.25498 0.66882 0.28795
 H730 H 0.22634 0.75627 0.16397
 H731 H 0.20365 0.81520 0.30763
 H732 H 0.35015 0.78976 0.25433
 H733 H 0.35474 0.74748 0.33685
 H734 H 0.35386 0.81555 0.32185
 H735 H 0.18355 0.70118 0.15832
 H736 H 0.14425 0.75080 0.19660
 H737 H 0.30534 0.67341 0.33680
 H738 H 0.26005 0.71250 0.37400
 H739 H 0.26052 0.80732 0.13302
 H740 H 0.21638 0.84705 0.17434
 H741 H 0.16877 0.67793 0.30176
 H742 H 0.20380 0.63621 0.25483
 H743 H 0.31115 0.87610 0.24456
 H744 H 0.35638 0.83204 0.19981
 O745 O 0.20868 0.63602 0.76941
 O746 O 0.28214 0.62700 0.75701
 O747 O 0.21220 0.73229 0.86316
 O748 O 0.22836 0.79833 0.86918
 O749 O 0.13108 0.74306 0.75466
 O750 O 0.14643 0.75789 0.68433
 O751 O 0.33820 0.82871 0.77666
 O752 O 0.32864 0.79586 0.83909
 O753 O 0.35311 0.73918 0.68800
 O754 O 0.31274 0.66815 0.67775
 O755 O 0.26827 0.82458 0.66141
 O756 O 0.19895 0.84407 0.69309
 O757 O 0.29469 0.86055 0.73407
 O758 O 0.22688 0.87497 0.73887
 O759 O 0.29612 0.76365 0.64127
 O760 O 0.27509 0.69585 0.63734
 O761 O 0.37035 0.76619 0.74989
 O762 O 0.35722 0.73817 0.81840
 O763 O 0.16179 0.66970 0.73208
 O764 O 0.16940 0.70179 0.66783
 O765 O 0.15051 0.76366 0.81815
 O766 O 0.18907 0.82813 0.82789
 O767 O 0.24014 0.67151 0.84245
 O768 O 0.29868 0.64832 0.81335
 Zr769 Zr 0.25490 0.68124 0.78058
 O770 O 0.30486 0.71197 0.75226
 Zr771 Zr 0.21445 0.77026 0.81217
 O772 O 0.26173 0.80454 0.78415
 Zr773 Zr 0.18676 0.72872 0.72433
 O774 O 0.23373 0.75985 0.69229
 Zr775 Zr 0.31486 0.76912 0.78149
 O776 O 0.26887 0.73634 0.81284
 Zr777 Zr 0.28894 0.72691 0.69275
 O778 O 0.23992 0.69266 0.71965
 Zr779 Zr 0.24811 0.81567 0.72268
 O780 O 0.19776 0.78620 0.75275
 O781 O 0.20048 0.71404 0.78413
 O782 O 0.30264 0.78338 0.72092
 C783 C 0.17499 0.63757 0.74951
 C784 C 0.22520 0.69590 0.86985
 C785 C 0.12321 0.75514 0.79142
 C786 C 0.32651 0.85998 0.75694
 C787 C 0.37914 0.75491 0.71339
 C788 C 0.28446 0.80032 0.63432
 H789 H 0.32949 0.69468 0.75241
 H790 H 0.22350 0.76376 0.66441
 H791 H 0.17871 0.69882 0.79920
 H792 H 0.26598 0.83052 0.79979
 H793 H 0.31219 0.78067 0.85968
 H794 H 0.25329 0.81565 0.86546
 H795 H 0.24694 0.70370 0.63017
 H796 H 0.18866 0.67911 0.66205
 H797 H 0.36918 0.71507 0.80248
 H798 H 0.31617 0.66932 0.82719
 H799 H 0.19408 0.82868 0.66724
 H800 H 0.14246 0.78619 0.69520
 H801 H 0.27243 0.62321 0.72870
 H802 H 0.34001 0.66597 0.69035
 H803 H 0.17191 0.83631 0.80479
 H804 H 0.22181 0.87498 0.76865
 O805 O 0.24438 0.15660 0.18004
 O806 O 0.30486 0.14545 0.21672
 O807 O 0.15641 0.16748 0.28057
 O808 O 0.14807 0.20740 0.33453
 O809 O 0.15144 0.24677 0.17954
 O810 O 0.19010 0.30875 0.16106
 O811 O 0.27107 0.28843 0.36784
 O812 O 0.24354 0.22178 0.37930
 O813 O 0.36114 0.26045 0.27060
 O814 O 0.36082 0.24777 0.20325
 O815 O 0.27036 0.36588 0.26328
 O816 O 0.20310 0.37075 0.24930
 O817 O 0.24404 0.34137 0.33318
 O818 O 0.17439 0.34558 0.29683
 O819 O 0.32978 0.33369 0.24762
 O820 O 0.32903 0.29119 0.17651
 O821 O 0.33456 0.24771 0.33370
 O822 O 0.29769 0.19083 0.35464
 O823 O 0.21993 0.21042 0.14477
 O824 O 0.23932 0.27921 0.13453
 O825 O 0.12620 0.22721 0.24143
 O826 O 0.13007 0.26535 0.30768
 O827 O 0.20808 0.13262 0.24915
 O828 O 0.27950 0.12989 0.27200
 Zr829 Zr 0.25395 0.17868 0.23934
 O830 O 0.29631 0.21783 0.26853
 Zr831 Zr 0.17613 0.22852 0.28012
 O832 O 0.21486 0.26856 0.31288
 Zr833 Zr 0.21482 0.25723 0.19012
 O834 O 0.25472 0.30009 0.21905
 Zr835 Zr 0.27113 0.24040 0.32374
 O836 O 0.22969 0.19759 0.29615
 Zr837 Zr 0.30942 0.27156 0.23494
 O838 O 0.27117 0.22897 0.20227
 Zr839 Zr 0.22925 0.31830 0.27529
 O840 O 0.18688 0.28035 0.24383
 O841 O 0.19957 0.20620 0.22475
 O842 O 0.28560 0.29307 0.29040
 C843 C 0.23276 0.17333 0.14710
 C844 C 0.17218 0.13460 0.26582
 C845 C 0.12217 0.23515 0.20369
 C846 C 0.25843 0.32554 0.36545
 C847 C 0.36460 0.25107 0.30826
 C848 C 0.30910 0.36608 0.25751
 H849 H 0.32060 0.20059 0.27235
 H850 H 0.25979 0.32387 0.20114
 H851 H 0.18120 0.18687 0.20975
 H852 H 0.20094 0.27704 0.33854
 H853 H 0.22595 0.19739 0.37299
 H854 H 0.16329 0.22006 0.35756
 H855 H 0.32450 0.32119 0.17495
 H856 H 0.26827 0.27058 0.13339
 H857 H 0.31002 0.17235 0.33380
 H858 H 0.26462 0.12858 0.29846
 H859 H 0.20642 0.36764 0.21941
 H860 H 0.16966 0.32077 0.18019
 H861 H 0.31776 0.16241 0.19517
 H862 H 0.35891 0.21749 0.20574
 H863 H 0.12240 0.28628 0.28767
 H864 H 0.17002 0.33748 0.32552
 O865 O 0.81984 0.65876 0.23013
 O866 O 0.84250 0.69824 0.17621
 O867 O 0.83429 0.74423 0.33196
 O868 O 0.80829 0.80670 0.35141
 O869 O 0.72723 0.66731 0.32032
 O870 O 0.66650 0.67122 0.28478
 O871 O 0.75159 0.87860 0.23866
 O872 O 0.81926 0.86915 0.25876
 O873 O 0.74004 0.79686 0.13482
 O874 O 0.74697 0.73039 0.12125
 O875 O 0.64621 0.80460 0.22454
 O876 O 0.63280 0.77816 0.28829
 O877 O 0.68940 0.85857 0.26388
 O878 O 0.67030 0.81249 0.32439
 O879 O 0.66750 0.77275 0.16596
 O880 O 0.69968 0.70099 0.15006
 O881 O 0.77661 0.84542 0.17020
 O882 O 0.84324 0.83894 0.21102
 O883 O 0.75504 0.63784 0.24690
 O884 O 0.68478 0.65182 0.22913
 O885 O 0.76095 0.71579 0.35849
 O886 O 0.74930 0.79018 0.36826
 O887 O 0.86449 0.72114 0.27331
 O888 O 0.87114 0.74666 0.20350
 Zr889 Zr 0.81608 0.72368 0.22993
 O890 O 0.78855 0.76907 0.19434
 Zr891 Zr 0.77612 0.76221 0.31589
 O892 O 0.75079 0.81164 0.28475
 Zr893 Zr 0.72401 0.69230 0.26237
 O894 O 0.69326 0.73834 0.23139
 Zr895 Zr 0.78280 0.82304 0.22988
 O896 O 0.81268 0.77849 0.26486
 Zr897 Zr 0.72762 0.75276 0.17911
 O898 O 0.75754 0.70445 0.20876
 Zr899 Zr 0.69211 0.79361 0.26606
 O900 O 0.71620 0.74499 0.29998
 O901 O 0.78291 0.70784 0.28198
 O902 O 0.72312 0.80828 0.21204
 C903 C 0.79193 0.63077 0.23501
 C904 C 0.86519 0.73099 0.31162
 C905 C 0.74141 0.68125 0.35417
 C906 C 0.71546 0.88626 0.25234
 C907 C 0.75985 0.83104 0.13744
 C908 C 0.64077 0.79224 0.18779
 H909 H 0.80552 0.77350 0.16958
 H910 H 0.66540 0.72789 0.22496
 H911 H 0.79648 0.68576 0.29703
 H912 H 0.75050 0.83617 0.30303
 H913 H 0.81036 0.87059 0.28767
 H914 H 0.82767 0.82075 0.33259
 H915 H 0.67108 0.69874 0.16029
 H916 H 0.69821 0.64617 0.20245
 H917 H 0.84760 0.82763 0.18313
 H918 H 0.87958 0.77111 0.21998
 H919 H 0.62653 0.74975 0.27869
 H920 H 0.65697 0.69227 0.30477
 H921 H 0.81945 0.68721 0.15974
 H922 H 0.77696 0.72681 0.12275
 H923 H 0.72140 0.77810 0.37140
 H924 H 0.68835 0.83519 0.33437
 O925 O 0.65087 0.25033 0.80492
 O926 O 0.66808 0.18127 0.81237
 O927 O 0.76165 0.31548 0.83690
 O928 O 0.82514 0.31990 0.81445
 O929 O 0.69529 0.34949 0.72553
 O930 O 0.68609 0.31737 0.66156
 O931 O 0.86073 0.19547 0.73016
 O932 O 0.85774 0.21257 0.79768
 O933 O 0.75270 0.12561 0.70542
 O934 O 0.67814 0.14002 0.71820
 O935 O 0.78731 0.22194 0.62748
 O936 O 0.78503 0.29791 0.63083
 O937 O 0.85065 0.23295 0.67339
 O938 O 0.83393 0.30574 0.66491
 O939 O 0.74099 0.17091 0.64132
 O940 O 0.67175 0.17194 0.66677
 O941 O 0.80852 0.13900 0.74464
 O942 O 0.81054 0.16803 0.81669
 O943 O 0.64060 0.29053 0.74997
 O944 O 0.64477 0.27141 0.67869
 O945 O 0.75046 0.36239 0.76574
 O946 O 0.82319 0.34589 0.75572
 O947 O 0.71745 0.26278 0.85166
 O948 O 0.71945 0.18942 0.84712
 Zr949 Zr 0.71048 0.22874 0.79738
 O950 O 0.74290 0.18399 0.76366
 Zr951 Zr 0.77671 0.30387 0.77468
 O952 O 0.81303 0.26180 0.74087
 Zr953 Zr 0.69576 0.28522 0.71602
 O954 O 0.72881 0.24350 0.67883
 Zr955 Zr 0.80503 0.20143 0.76200
 O956 O 0.77325 0.24421 0.79954
 Zr957 Zr 0.72437 0.18370 0.70253
 O958 O 0.68779 0.22490 0.73766
 Zr959 Zr 0.79181 0.25816 0.68070
 O960 O 0.75805 0.30328 0.71350
 O961 O 0.71457 0.28905 0.77641
 O962 O 0.78708 0.19788 0.70116
 C963 C 0.62879 0.27363 0.78338
 C964 C 0.73918 0.29452 0.86186
 C965 C 0.71988 0.37416 0.74454
 C966 C 0.87263 0.21033 0.69601
 C967 C 0.78548 0.11464 0.72342
 C968 C 0.76561 0.19019 0.61723
 H969 H 0.73842 0.15682 0.77619
 H970 H 0.71800 0.24468 0.65086
 H971 H 0.69913 0.30936 0.79314
 H972 H 0.84218 0.27051 0.74230
 H973 H 0.84964 0.23209 0.81974
 H974 H 0.84670 0.29923 0.80986
 H975 H 0.66843 0.19574 0.64876
 H976 H 0.63269 0.24514 0.68845
 H977 H 0.79048 0.14485 0.81636
 H978 H 0.74802 0.19410 0.85616
 H979 H 0.75904 0.29030 0.61718
 H980 H 0.71273 0.33033 0.65404
 H981 H 0.65243 0.17486 0.78732
 H982 H 0.68673 0.12606 0.74319
 H983 H 0.81581 0.35505 0.72817
 H984 H 0.85439 0.30830 0.68685
 C985 C 0.11892 0.98394 1.20642
 C986 C 0.15084 0.96938 1.18195
 C987 C 0.13798 0.97085 1.14308
 C988 C 0.09936 0.98703 1.14510
 O989 O 0.08749 0.99548 1.18354
 H990 H 0.18108 0.96004 1.19078
 H991 H 0.15535 0.96200 1.11608
 C992 C 0.60230 0.48021 0.71936
 C993 C 0.56303 0.46727 0.73097
 C994 C 0.53962 0.47064 0.69759
 C995 C 0.56578 0.48514 0.66794
 O996 O 0.60381 0.49081 0.68053
 H997 H 0.55150 0.45975 0.76101
 H998 H 0.50696 0.46465 0.69538
 C999 C 0.37551 0.00845 0.71202
 C1000 C 0.34199 0.01551 0.68773
 C1001 C 0.35605 0.01288 0.64903
 C1002 C 0.39701 0.00365 0.65185
 O1003 O 0.40901 0.00013 0.69003
 H1004 H 0.31064 0.02132 0.69706
 H1005 H 0.33850 0.01731 0.62168
 C1006 C -0.09124 0.51443 1.21635
 C1007 C -0.05135 0.52548 1.22592
 C1008 C -0.02876 0.51585 1.19206
 C1009 C -0.05633 0.50025 1.16401
 O1010 O -0.09430 0.49982 1.17835
 H1011 H -0.03955 0.53725 1.25456
 H1012 H 0.00400 0.52014 1.18807
 C1013 C -0.11770 0.52583 0.28979
 C1014 C -0.14656 0.54561 0.31449
 C1015 C -0.13163 0.54534 0.35273
 C1016 C -0.09500 0.52532 0.34924
 O1017 O -0.08622 0.51350 0.31148
 H1018 H -0.17668 0.55611 0.30661
 H1019 H -0.14669 0.55636 0.38033
 C1020 C 0.40778 1.02478 -0.21894
 C1021 C 0.44141 1.04607 -0.23440
 C1022 C 0.46518 1.05525 -0.20127
 C1023 C 0.44395 1.03939 -0.16827
 O1024 O 0.40920 1.02148 -0.17888
 H1025 H 0.44842 1.05324 -0.26580
 H1026 H 0.49505 1.07026 -0.20136
 C1027 C 0.62415 0.47754 -0.20869
 C1028 C 0.61902 0.43601 -0.19988
 C1029 C 0.60091 0.43501 -0.16262
 C1030 C 0.59690 0.47564 -0.15120
 O1031 O 0.61116 0.50159 -0.17852
 H1032 H 0.62432 0.40960 -0.21965
 H1033 H 0.59013 0.40805 -0.14645
 C1034 C 0.09006 -0.02832 0.28050
 C1035 C 0.05707 -0.05273 0.26900
 C1036 C 0.03751 -0.06283 0.30483
 C1037 C 0.06021 -0.04433 0.33570
 O1038 O 0.09194 -0.02347 0.32088
 H1039 H 0.04808 -0.06165 0.23843
 H1040 H 0.00932 -0.08058 0.30800
 C1041 C 0.23227 1.08968 0.98853
 C1042 C 0.24576 1.04979 0.98253
 C1043 C 0.21098 1.02552 0.98192
 C1044 C 0.17876 1.05213 0.98737
 O1045 O 0.19157 1.09078 0.99102
 H1046 H 0.27688 1.03890 0.98228
 H1047 H 0.20939 0.99225 0.97944
 C1048 C 0.71807 0.58954 0.50968
 C1049 C 0.73104 0.55362 0.52701
 C1050 C 0.69578 0.53153 0.53528
 C1051 C 0.66392 0.55566 0.52270
 O1052 O 0.67743 0.59073 0.50755
 H1053 H 0.76207 0.54426 0.53268
 H1054 H 0.69360 0.50112 0.54821
 C1055 C 0.73062 0.40684 -0.01596
 C1056 C 0.74470 0.44180 -0.03540
 C1057 C 0.71093 0.46584 -0.03925
 C1058 C 0.67860 0.44365 -0.02240
 O1059 O 0.69044 0.40795 -0.00896
 H1060 H 0.77548 0.44893 -0.04595
 H1061 H 0.71004 0.49607 -0.05256
 C1062 C 0.20011 -0.12440 0.52322
 C1063 C 0.17701 -0.15443 0.54276
 C1064 C 0.13747 -0.14300 0.53878
 C1065 C 0.13913 -0.10733 0.51651
 O1066 O 0.17687 -0.09586 0.50722
 H1067 H 0.18741 -0.18247 0.55637
 H1068 H 0.11048 -0.15917 0.55009
 C1069 C 0.26921 -0.08892 0.51734
 C1070 C 0.25660 -0.05298 0.53660
 C1071 C 0.28962 -0.02672 0.53428
 C1072 C 0.31962 -0.04868 0.51385
 O1073 O 0.30740 -0.08621 0.50378
 H1074 H 0.22733 -0.04681 0.55109
 H1075 H 0.29196 0.00423 0.54692
 C1076 C -0.19813 0.37570 0.99699
 C1077 C -0.17227 0.34251 0.99880
 C1078 C -0.13432 0.35858 1.00468
 C1079 C -0.13876 0.40076 1.00655
 O1080 O -0.17778 0.41154 1.00229
 H1081 H -0.18044 0.31011 0.99665
 H1082 H -0.10623 0.34145 1.00673
 C1083 C -0.20946 0.62259 0.49520
 C1084 C -0.18424 0.65743 0.49507
 C1085 C -0.14530 0.64377 0.49282
 C1086 C -0.14891 0.60154 0.49080
 O1087 O -0.18780 0.58836 0.49165
 H1088 H -0.19338 0.68933 0.49593
 H1089 H -0.11748 0.66242 0.49235
 C1090 C 0.30419 1.12673 0.00031
 C1091 C 0.32757 1.16023 0.01374
 C1092 C 0.36721 1.14991 0.00795
 C1093 C 0.36597 1.11061 -0.00829
 O1094 O 0.32775 1.09620 -0.01311
 H1095 H 0.31683 1.18865 0.02749
 H1096 H 0.39395 1.16818 0.01633
 C1097 C -0.01267 1.21004 1.09640
 C1098 C -0.03645 1.21192 1.06194
 C1099 C -0.02613 1.17821 1.03898
 C1100 C 0.00269 1.15808 1.06134
 O1101 O 0.01044 1.17676 1.09628
 H1102 H -0.05610 1.23672 1.05316
 H1103 H -0.03796 1.16937 1.00936
 C1104 C 0.51011 0.71556 0.62278
 C1105 C 0.52120 0.69261 0.65604
 C1106 C 0.52886 0.65443 0.64155
 C1107 C 0.52206 0.65588 0.60032
 O1108 O 0.51075 0.69307 0.58842
 H1109 H 0.52348 0.70282 0.68753
 H1110 H 0.53674 0.62790 0.65925
 C1111 C 0.02044 0.69992 0.37649
 C1112 C 0.03939 0.67549 0.34697
 C1113 C 0.03867 0.63690 0.36184
 C1114 C 0.01868 0.63995 0.39898
 O1115 O 0.00749 0.67792 0.40803
 H1116 H 0.05032 0.68411 0.31699
 H1117 H 0.04989 0.60939 0.34660
 C1118 C 0.52751 1.22441 -0.10636
 C1119 C 0.56250 1.23091 -0.08348
 C1120 C 0.56755 1.19539 -0.06264
 C1121 C 0.53544 1.17009 -0.07446
 O1122 O 0.51110 1.18741 -0.10058
 H1123 H 0.58112 1.25874 -0.08134
 H1124 H 0.59127 1.18889 -0.04099
 C1125 C 0.49526 0.29118 -0.10114
 C1126 C 0.47249 0.28481 -0.06591
 C1127 C 0.47904 0.31909 -0.04221
 C1128 C 0.50497 0.34390 -0.06475
 O1129 O 0.51446 0.32751 -0.10062
 H1130 H 0.45540 0.25730 -0.05759
 H1131 H 0.46617 0.32553 -0.01225
 C1132 C 0.01173 -0.22785 0.40663
 C1133 C 0.03069 -0.23772 0.44257
 C1134 C 0.02694 -0.20382 0.46725
 C1135 C 0.00626 -0.17541 0.44478
 O1136 O -0.00280 -0.18977 0.40790
 H1137 H 0.04578 -0.26598 0.45001
 H1138 H 0.03880 -0.19990 0.49777
 C1139 C 0.48279 -0.21513 0.59325
 C1140 C 0.46570 -0.23072 0.55778
 C1141 C 0.45305 -0.19682 0.53715
 C1142 C 0.46309 -0.16315 0.56164
 O1143 O 0.48048 -0.17437 0.59563
 H1144 H 0.46333 -0.26249 0.54760
 H1145 H 0.43994 -0.19658 0.50701
 C1146 C 0.01475 0.28016 1.09668
 C1147 C 0.04665 0.27463 1.06902
 C1148 C 0.04850 0.30983 1.04712
 C1149 C 0.01805 0.33415 1.06340
 O1150 O -0.00236 0.31659 1.09337
 H1151 H 0.06513 0.24751 1.06450
 H1152 H 0.06958 0.31712 1.02246
 C1153 C 0.74028 0.35506 0.03683
 C1154 C 0.69963 0.34598 0.04672
 C1155 C 0.69974 0.33321 0.08566
 C1156 C 0.74018 0.33431 0.09664
 O1157 O 0.76512 0.34722 0.06743
 H1158 H 0.67308 0.34644 0.02733
 H1159 H 0.67367 0.32245 0.10349
 C1160 C 0.26589 0.84060 0.53754
 C1161 C 0.29191 0.80966 0.52484
 C1162 C 0.30448 0.79171 0.55987
 C1163 C 0.28590 0.81341 0.59143
 O1164 O 0.26286 0.84317 0.57792
 H1165 H 0.30090 0.80113 0.49406
 H1166 H 0.32394 0.76518 0.56211
 C1167 C 0.73154 0.66094 0.52127
 C1168 C 0.71258 0.69691 0.51065
 C1169 C 0.71019 0.71968 0.54599
 C1170 C 0.72744 0.69575 0.57544
 O1171 O 0.74021 0.66025 0.56059
 H1172 H 0.70227 0.70582 0.48091
 H1173 H 0.69771 0.75021 0.54979
 C1174 C 0.24780 0.12822 0.04981
 C1175 C 0.25370 0.09407 0.07366
 C1176 C 0.24554 0.10623 0.11233
 C1177 C 0.23605 0.14729 0.11013
 O1178 O 0.23728 0.16099 0.07217
 H1179 H 0.26408 0.06394 0.06396
 H1180 H 0.24846 0.08785 0.13934
 C1181 C 0.24410 0.16319 0.97899
 C1182 C 0.24226 0.20394 0.99212
 C1183 C 0.24253 0.22667 0.95748
 C1184 C 0.24420 0.19843 0.92574
 O1185 O 0.24511 0.16018 0.93855
 H1186 H 0.24425 0.21626 1.02283
 H1187 H 0.24314 0.25992 0.95557
 C1188 C 0.73351 0.63135 0.44869
 C1189 C 0.71435 0.60169 0.42430
 C1190 C 0.71469 0.61704 0.38629
 C1191 C 0.73450 0.65471 0.38950
 O1192 O 0.74632 0.66354 0.42720
 H1193 H 0.70250 0.57166 0.43271
 H1194 H 0.70252 0.60213 0.35915
 C1195 C 0.24352 0.86302 0.46549
 C1196 C 0.23246 0.89345 0.43879
 C1197 C 0.22765 0.87450 0.40240
 C1198 C 0.23621 0.83382 0.40877
 O1199 O 0.24593 0.82632 0.44708
 H1200 H 0.22770 0.92580 0.44552
 H1201 H 0.22078 0.88894 0.37381
 C1202 C 0.74566 0.33572 0.96251
 C1203 C 0.73135 0.29633 0.97106
 C1204 C 0.72634 0.27709 0.93457
 C1205 C 0.73861 0.30527 0.90582
 O1206 O 0.75079 0.34092 0.92251
 H1207 H 0.72568 0.28257 1.00042
 H1208 H 0.71589 0.24562 0.92950
 C1209 C 0.86850 0.46288 0.25108
 C1210 C 0.90082 0.43864 0.26287
 C1211 C 0.88545 0.40003 0.26582
 C1212 C 0.84496 0.40289 0.25525
 O1213 O 0.83436 0.44085 0.24613
 H1214 H 0.93212 0.44824 0.26887
 H1215 H 0.90188 0.37290 0.27448
 C1216 C 0.37013 0.95925 0.76654
 C1217 C 0.40148 0.93709 0.78349
 C1218 C 0.38914 0.89720 0.78133
 C1219 C 0.35152 0.89741 0.76272
 O1220 O 0.33986 0.93487 0.75340
 H1221 H 0.43058 0.94829 0.79506
 H1222 H 0.40574 0.87090 0.79188
 C1223 C 0.16135 0.97063 0.26747
 C1224 C 0.19355 0.98696 0.29014
 C1225 C 0.21983 0.95496 0.29491
 C1226 C 0.20135 0.92193 0.27514
 O1227 O 0.16603 0.93115 0.25939
 H1228 H 0.19749 1.01796 0.30218
 H1229 H 0.24880 0.95566 0.31065
 C1230 C 0.67612 0.47283 0.73861
 C1231 C 0.71278 0.48484 0.75650
 C1232 C 0.73561 0.44996 0.75876
 C1233 C 0.71144 0.41884 0.74236
 O1234 O 0.67605 0.43275 0.72944
 H1235 H 0.71976 0.51411 0.77132
 H1236 H 0.76473 0.44696 0.77380
 C1237 C 0.63563 0.54067 0.74895
 C1238 C 0.60087 0.56283 0.75910
 C1239 C 0.61049 0.60292 0.75250
 C1240 C 0.65036 0.60309 0.73836
 O1241 O 0.66590 0.56531 0.73592
 H1242 H 0.57157 0.55083 0.76973
 H1243 H 0.59090 0.62910 0.75792
 C1244 C 0.12394 0.03726 0.26105
 C1245 C 0.09107 0.05964 0.27587
 C1246 C 0.10533 0.09884 0.28000
 C1247 C 0.14564 0.09785 0.26689
 O1248 O 0.15691 0.06076 0.25461
 H1249 H 0.06040 0.04865 0.28318
 H1250 H 0.08826 0.12518 0.29105
 C1251 C 0.33556 0.02885 0.77332
 C1252 C 0.30196 0.01504 0.79564
 C1253 C 0.27776 0.04896 0.80114
 C1254 C 0.29861 0.08056 0.78183
 O1255 O 0.33337 0.06842 0.76534
 H1256 H 0.29578 -0.01574 0.80650
 H1257 H 0.24850 0.05040 0.81696
 C1258 C 0.83791 0.53360 0.23040
 C1259 C 0.79767 0.52018 0.22573
 C1260 C 0.77512 0.55519 0.22418
 C1261 C 0.80296 0.58740 0.22772
 O1262 O 0.84088 0.57447 0.23053
 H1263 H 0.78505 0.48932 0.22680
 H1264 H 0.74204 0.55698 0.22330
 C1265 C 0.96070 0.26342 0.14764
 C1266 C 0.96500 0.29695 0.17392
 C1267 C 0.92893 0.29979 0.19417
 C1268 C 0.90489 0.26791 0.17909
 O1269 O 0.92387 0.24552 0.15062
 H1270 H 0.99212 0.31598 0.17874
 H1271 H 0.92119 0.32200 0.21789
 C1272 C 0.47449 0.76798 0.66376
 C1273 C 0.48360 0.78922 0.69951
 C1274 C 0.44931 0.78581 0.72313
 C1275 C 0.42160 0.76309 0.70014
 O1276 O 0.43664 0.75235 0.66407
 H1277 H 0.51160 0.80557 0.70749
 H1278 H 0.44466 0.79920 0.75325
 C1279 C 0.47012 0.23736 0.84725
 C1280 C 0.47462 0.20373 0.82124
 C1281 C 0.43687 0.19537 0.80650
 C1282 C 0.41171 0.22472 0.82391
 O1283 O 0.43173 0.25049 0.84883
 H1284 H 0.50257 0.18765 0.81361
 H1285 H 0.42886 0.17157 0.78434
 C1286 C 0.96026 0.73872 0.36221
 C1287 C 0.93460 0.72699 0.39404
 C1288 C 0.89773 0.71908 0.37760
 C1289 C 0.90226 0.72684 0.33664
 O1290 O 0.94051 0.73859 0.32674
 H1291 H 0.94233 0.72384 0.42583
 H1292 H 0.86995 0.71040 0.39397
 C1293 C 0.03391 0.76240 0.33646
 C1294 C 0.02261 0.78182 0.30134
 C1295 C 0.05878 0.79030 0.28110
 C1296 C 0.08949 0.77542 0.30526
 O1297 O 0.07442 0.75912 0.33890
 H1298 H -0.00798 0.78846 0.29127
 H1299 H 0.06223 0.80442 0.25159
 C1300 C 0.53540 0.27385 0.83640
 C1301 C 0.52561 0.30355 0.80850
 C1302 C 0.55967 0.30810 0.78421
 C1303 C 0.58745 0.28086 0.79923
 O1304 O 0.57287 0.26019 0.83062
 H1305 H 0.49692 0.31956 0.80610
 H1306 H 0.56372 0.32859 0.75875
 C1307 C 0.54548 0.78068 0.63519
 C1308 C 0.56685 0.80725 0.60965
 C1309 C 0.60487 0.81122 0.62566
 C1310 C 0.60436 0.78651 0.65941
 O1311 O 0.56861 0.76813 0.66537
 H1312 H 0.55701 0.82047 0.58143
 H1313 H 0.63064 0.82824 0.61289
 C1314 C 0.02781 0.23355 0.15463
 C1315 C 0.01838 0.20531 0.18450
 C1316 C 0.05303 0.20205 0.20630
 C1317 C 0.08110 0.22821 0.18793
 O1318 O 0.06611 0.24742 0.15647
 H1319 H -0.01059 0.18943 0.18974
 H1320 H 0.05739 0.18301 0.23262
 C1321 C -0.11782 1.00889 0.78927
 C1322 C -0.14777 1.02431 0.81539
 C1323 C -0.13138 1.02417 0.85285
 C1324 C -0.09272 1.00816 0.84776
 O1325 O -0.08431 0.99835 0.80921
 H1326 H -0.17860 1.03353 0.80846
 H1327 H -0.14622 1.03412 0.88095
 C1328 C 0.40414 0.51923 0.28955
 C1329 C 0.42302 0.55752 0.29337
 C1330 C 0.43638 0.56003 0.33266
 C1331 C 0.42559 0.52289 0.34977
 O1332 O 0.40684 0.49785 0.32367
 H1333 H 0.42624 0.58091 0.27040
 H1334 H 0.45288 0.58550 0.34695
 C1335 C 0.59149 -0.01304 0.28192
 C1336 C 0.55300 -0.03114 0.27719
 C1337 C 0.53525 -0.03020 0.31463
 C1338 C 0.56363 -0.01161 0.33980
 O1339 O 0.59785 -0.00083 0.32033
 H1340 H 0.53826 -0.04167 0.24948
 H1341 H 0.50439 -0.04024 0.32251
 C1342 C 0.10067 0.48277 0.78162
 C1343 C 0.06210 0.46415 0.78072
 C1344 C 0.04627 0.46904 0.81864
 C1345 C 0.07570 0.49036 0.84042
 O1346 O 0.10903 0.49865 0.81842
 H1347 H 0.04563 0.45115 0.75506
 H1348 H 0.01592 0.45969 0.82894
 C1349 C 0.10634 0.47536 0.70517
 C1350 C 0.09906 0.43366 0.69779
 C1351 C 0.07873 0.43132 0.66201
 C1352 C 0.07591 0.47139 0.64970
 O1353 O 0.09277 0.49825 0.67530
 H1354 H 0.10612 0.40815 0.71715
 H1355 H 0.06691 0.40380 0.64683
 C1356 C 0.60545 0.97880 0.20666
 C1357 C 0.60060 0.93675 0.19993
 C1358 C 0.58398 0.93228 0.16233
 C1359 C 0.58060 0.97168 0.14846
 O1360 O 0.59372 1.00007 0.17483
 H1361 H 0.60709 0.91244 0.22081
 H1362 H 0.57511 0.90388 0.14684
 C1363 C 0.41387 0.49340 0.21833
 C1364 C 0.44956 0.47225 0.22477
 C1365 C 0.47256 0.47705 0.19015
 C1366 C 0.44911 0.50011 0.16465
 O1367 O 0.41344 0.50995 0.18147
 H1368 H 0.45842 0.45684 0.25222
 H1369 H 0.50280 0.46500 0.18402
 C1370 C -0.09192 0.01818 0.71639
 C1371 C -0.05990 0.04423 0.72758
 C1372 C -0.04056 0.05427 0.69187
 C1373 C -0.06249 0.03418 0.66152
 O1374 O -0.09353 0.01239 0.67631
 H1375 H -0.05164 0.05474 0.75790
 H1376 H -0.01325 0.07334 0.68840
 C1377 C -0.21666 0.91078 0.97784
 C1378 C -0.22928 0.94718 0.96117
 C1379 C -0.19467 0.97160 0.95967
 C1380 C -0.16382 0.94819 0.97549
 O1381 O -0.17694 0.91137 0.98575
 H1382 H -0.25993 0.95568 0.95284
 H1383 H -0.19246 1.00309 0.94948
 C1384 C 0.26833 0.41246 0.52107
 C1385 C 0.25428 0.45228 0.52672
 C1386 C 0.28815 0.47751 0.52229
 C1387 C 0.32035 0.45143 0.51474
 O1388 O 0.30856 0.41237 0.51462
 H1389 H 0.22306 0.46238 0.53038
 H1390 H 0.28912 0.51083 0.52376
 C1391 C 0.29769 0.60502 -0.01532
 C1392 C 0.29253 0.57115 -0.04099
 C1393 C 0.32741 0.54885 -0.03731
 C1394 C 0.35150 0.57098 -0.01023
 O1395 O 0.33388 0.60504 0.00284
 H1396 H 0.26537 0.56231 -0.05783
 H1397 H 0.33435 0.51976 -0.05222
 C1398 C -0.21136 0.09910 0.46913
 C1399 C -0.19945 0.09208 0.42895
 C1400 C -0.15935 0.08129 0.43040
 C1401 C -0.14986 0.08111 0.47115
 O1402 O -0.18131 0.09104 0.49473
 H1403 H -0.21733 0.09356 0.40156
 H1404 H -0.13976 0.07276 0.40486
 C1405 C 0.71960 0.08075 0.49911
 C1406 C 0.73057 0.03967 0.50031
 C1407 C 0.69468 0.01759 0.50124
 C1408 C 0.66428 0.04646 0.50097
 O1409 O 0.67912 0.08451 0.50033
 H1410 H 0.76095 0.02694 0.49755
 H1411 H 0.69107 -0.01561 0.50052
 C1412 C 0.22962 0.60440 1.01667
 C1413 C 0.23394 0.57714 1.04821
 C1414 C 0.19768 0.55567 1.04989
 C1415 C 0.17445 0.57146 1.01927
 O1416 O 0.19347 0.60065 0.99909
 H1417 H 0.26066 0.57285 1.06680
 H1418 H 0.18934 0.53111 1.07044
 C1419 C 0.19684 0.37451 0.51477
 C1420 C 0.17314 0.33851 0.51305
 C1421 C 0.13370 0.35026 0.51041
 C1422 C 0.13569 0.39248 0.50999
 O1423 O 0.17371 0.40746 0.51226
 H1424 H 0.18347 0.30704 0.51172
 H1425 H 0.10678 0.33045 0.50806
 C1426 C 0.71116 0.87857 -0.01280
 C1427 C 0.68615 0.84545 -0.02415
 C1428 C 0.64738 0.85948 -0.02281
 C1429 C 0.65080 0.89994 -0.00999
 O1430 O 0.68936 0.91169 -0.00330
 H1431 H 0.69496 0.81426 -0.03191
 H1432 H 0.61973 0.84214 -0.03013
 C1433 C -0.02206 0.78059 0.89612
 C1434 C -0.05472 0.77643 0.92312
 C1435 C -0.06214 0.81475 0.93782
 C1436 C -0.03325 0.84007 0.91958
 O1437 O -0.00865 0.81950 0.89408
 H1438 H -0.07065 0.74841 0.93186
 H1439 H -0.08462 0.82301 0.96098
 C1440 C 0.47637 0.28480 0.41014
 C1441 C 0.44665 0.27638 0.43925
 C1442 C 0.43737 0.31331 0.45639
 C1443 C 0.46223 0.34179 0.43679
 O1444 O 0.48611 0.32462 0.40863
 H1445 H 0.43321 0.24670 0.44663
 H1446 H 0.41585 0.31874 0.48120
 C1447 C -0.02383 0.28634 0.61331
 C1448 C -0.05566 0.30533 0.63483
 C1449 C -0.06044 0.34258 0.61797
 C1450 C -0.03108 0.34466 0.58780
 O1451 O -0.00867 0.31105 0.58485
 H1452 H -0.07101 0.29560 0.66248
 H1453 H -0.08116 0.36647 0.62813
 C1454 C 0.48708 0.79377 0.09642
 C1455 C 0.45654 0.78327 0.06899
 C1456 C 0.45309 0.81662 0.04450
 C1457 C 0.48127 0.84500 0.05920
 O1458 O 0.50173 0.83146 0.09049
 H1459 H 0.44063 0.75390 0.06578
 H1460 H 0.43301 0.81971 0.01875
 C1461 C 0.52393 0.72917 0.09700
 C1462 C 0.54956 0.73510 0.06366
 C1463 C 0.54885 0.69859 0.04275
 C1464 C 0.52343 0.67313 0.06520
 O1465 O 0.50837 0.69129 0.09807
 H1466 H 0.56465 0.76346 0.05450
 H1467 H 0.56426 0.69149 0.01413
 C1468 C 0.01310 0.22125 0.59239
 C1469 C 0.03327 0.23439 0.55745
 C1470 C 0.03358 0.20097 0.53130
 C1471 C 0.01446 0.16958 0.55234
 O1472 O 0.00243 0.18163 0.58926
 H1473 H 0.04545 0.26486 0.55128
 H1474 H 0.04692 0.19941 0.50096
 C1475 C 0.51351 0.21913 0.40719
 C1476 C 0.54517 0.22784 0.43383
 C1477 C 0.55456 0.19132 0.45081
 C1478 C 0.52819 0.16274 0.43328
 O1479 O 0.50314 0.17945 0.40681
 H1480 H 0.55929 0.25759 0.44034
 H1481 H 0.57713 0.18627 0.47404
 C1482 C 0.01986 0.71749 0.90444
 C1483 C 0.03913 0.73261 0.93904
 C1484 C 0.04817 0.69877 0.96113
 C1485 C 0.03415 0.66544 0.93831
 O1486 O 0.01852 0.67666 0.90345
 H1487 H 0.04340 0.76451 0.94838
 H1488 H 0.06078 0.69861 0.99149
 C1489 C 0.24364 0.65869 0.96765
 C1490 C 0.21381 0.68711 0.97772
 C1491 C 0.20174 0.70294 0.94206
 C1492 C 0.22472 0.68308 0.91249
 O1493 O 0.25032 0.65604 0.92774
 H1494 H 0.20221 0.69507 1.00785
 H1495 H 0.17949 0.72688 0.93807
 C1496 C 0.72389 0.14040 0.45379
 C1497 C 0.68921 0.16283 0.46372
 C1498 C 0.67945 0.18322 0.42948
 C1499 C 0.70866 0.17181 0.40105
 O1500 O 0.73567 0.14623 0.41562
 H1501 H 0.67397 0.16533 0.49313
 H1502 H 0.65508 0.20511 0.42610
 C1503 C 0.24940 0.37185 0.46246
 C1504 C 0.24037 0.40525 0.43856
 C1505 C 0.24600 0.39267 0.39973
 C1506 C 0.25751 0.35219 0.40192
 O1507 O 0.25957 0.33913 0.44000
 H1508 H 0.22929 0.43506 0.44842
 H1509 H 0.23946 0.41016 0.37288
 C1510 C 0.77236 0.83904 0.96705
 C1511 C 0.78927 0.80271 0.97952
 C1512 C 0.79397 0.77935 0.94451
 C1513 C 0.77993 0.80322 0.91324
 O1514 O 0.76710 0.83926 0.92692
 H1515 H 0.79627 0.79376 1.01023
 H1516 H 0.80537 0.74827 0.94218
 C1517 C 0.76427 0.87385 0.03941
 C1518 C 0.77449 0.90866 0.06279
 C1519 C 0.77492 0.89663 0.10194
 C1520 C 0.76373 0.85575 0.10057
 O1521 O 0.75656 0.84168 0.06289
 H1522 H 0.78024 0.93979 0.05266
 H1523 H 0.78155 0.91569 0.12854
 C1524 C 0.25828 0.33914 0.53455
 C1525 C 0.26529 0.29895 0.52169
 C1526 C 0.26395 0.27608 0.55631
 C1527 C 0.25683 0.30374 0.58780
 O1528 O 0.25381 0.34181 0.57485
 H1529 H 0.26734 0.28669 0.49096
 H1530 H 0.26658 0.24298 0.55827
 C1531 C 0.75937 0.14682 0.51829
 C1532 C 0.78431 0.18060 0.50994
 C1533 C 0.79041 0.20001 0.54607
 C1534 C 0.76863 0.17714 0.57421
 O1535 O 0.74950 0.14463 0.55758
 H1536 H 0.79689 0.18952 0.48064
 H1537 H 0.80823 0.22799 0.55126
 C1538 C 0.27961 0.66127 0.03249
 C1539 C 0.30994 0.69052 0.02522
 C1540 C 0.31516 0.71078 0.06130
 C1541 C 0.28754 0.69254 0.08788
 O1542 O 0.26584 0.66253 0.07059
 H1543 H 0.32589 0.69641 -0.00326
 H1544 H 0.33609 0.73631 0.06738
 C1545 C 0.12814 0.53960 0.74243
 C1546 C 0.09375 0.56319 0.73698
 C1547 C 0.10707 0.60285 0.73919
 C1548 C 0.14843 0.60085 0.74679
 O1549 O 0.16143 0.56258 0.74920
 H1550 H 0.06259 0.55245 0.73203
 H1551 H 0.08882 0.63011 0.73586
 C1552 C 0.62043 0.04506 0.24452
 C1553 C 0.58564 0.06710 0.23614
 C1554 C 0.59743 0.10743 0.23720
 C1555 C 0.63844 0.10746 0.24674
 O1556 O 0.65249 0.06975 0.25158
 H1557 H 0.55526 0.05491 0.22976
 H1558 H 0.57846 0.13371 0.23149
 C1559 C 0.83673 0.02088 0.73062
 C1560 C 0.80211 0.00441 0.71221
 C1561 C 0.77732 0.03759 0.70573
 C1562 C 0.79884 0.07150 0.72067
 O1563 O 0.83454 0.06131 0.73529
 H1564 H 0.79571 -0.02755 0.70444
 H1565 H 0.74716 0.03702 0.69234
 C1566 C 0.35171 0.53374 0.23563
 C1567 C 0.32448 0.52526 0.20447
 C1568 C 0.30294 0.56042 0.19973
 C1569 C 0.31862 0.58804 0.22811
 O1570 O 0.34806 0.57198 0.25000
 H1571 H 0.32084 0.49665 0.18737
 H1572 H 0.27888 0.56545 0.17803
 C1573 C 0.35703 0.46461 0.26422
 C1574 C 0.32953 0.46718 0.29646
 C1575 C 0.31202 0.42961 0.29921
 C1576 C 0.32867 0.40625 0.26788
 O1577 O 0.35633 0.42739 0.24608
 H1578 H 0.32281 0.49389 0.31545
 H1579 H 0.28794 0.42070 0.32032
 C1580 C 0.87515 0.95280 0.74015
 C1581 C 0.90865 0.93043 0.72662
 C1582 C 0.89979 0.89057 0.73527
 C1583 C 0.86176 0.89095 0.75396
 O1584 O 0.84671 0.92865 0.75721
 H1585 H 0.93699 0.94187 0.71318
 H1586 H 0.91849 0.86415 0.72797
 C1587 C 0.66227 0.97970 0.25383
 C1588 C 0.69859 0.99393 0.23635
 C1589 C 0.72482 0.96166 0.23686
 C1590 C 0.70256 0.92958 0.25356
 O1591 O 0.66503 0.94048 0.26412
 H1592 H 0.70416 1.02265 0.22088
 H1593 H 0.75511 0.96051 0.22310
 C1594 C 0.16787 0.47296 0.74515
 C1595 C 0.20114 0.48464 0.72100
 C1596 C 0.22508 0.45064 0.71704
 C1597 C 0.20433 0.42040 0.73815
 O1598 O 0.17023 0.43386 0.75544
 H1599 H 0.20525 0.51298 0.70447
 H1600 H 0.25249 0.44740 0.69842
 C1601 C 0.02662 0.75644 0.84023
 C1602 C 0.01610 0.77714 0.80541
 C1603 C 0.05079 0.77836 0.78174
 C1604 C 0.08018 0.75936 0.80417
 O1605 O 0.06585 0.74628 0.83961
 H1606 H -0.01345 0.78935 0.79783
 H1607 H 0.05448 0.79213 0.75208
 C1608 C 0.52478 0.26965 0.35241
 C1609 C 0.51604 0.29696 0.32185
 C1610 C 0.54989 0.29746 0.29715
 C1611 C 0.57669 0.27107 0.31494
 O1612 O 0.56193 0.25443 0.34834
 H1613 H 0.48745 0.31249 0.31695
 H1614 H 0.55451 0.31473 0.26950
 C1615 C 0.54258 0.78571 0.14626
 C1616 C 0.53594 0.81802 0.17329
 C1617 C 0.57287 0.82636 0.19014
 C1618 C 0.59973 0.79917 0.17180
 O1619 O 0.58140 0.77412 0.14527
 H1620 H 0.50702 0.83209 0.18128
 H1621 H 0.57887 0.84761 0.21513
 C1622 C 0.03428 0.26600 0.65469
 C1623 C 0.02730 0.29480 0.68556
 C1624 C 0.06381 0.30210 0.70338
 C1625 C 0.09104 0.27678 0.68321
 O1626 O 0.07336 0.25456 0.65343
 H1627 H -0.00145 0.30830 0.69493
 H1628 H 0.06952 0.32220 0.72945
 C1629 C 0.97058 0.22236 0.65486
 C1630 C 0.98169 0.19999 0.68841
 C1631 C 0.94560 0.18837 0.70683
 C1632 C 0.91528 0.20413 0.68292
 O1633 O 0.93036 0.22319 0.65087
 H1634 H 1.01228 0.19547 0.69976
 H1635 H 0.94196 0.17354 0.73597
 C1636 C 0.47900 0.74571 0.15585
 C1637 C 0.49062 0.71830 0.18530
 C1638 C 0.45613 0.71025 0.20781
 C1639 C 0.42608 0.73326 0.19043
 O1640 O 0.43978 0.75480 0.15905
 H1641 H 0.52083 0.70599 0.18979
 H1642 H 0.45330 0.69045 0.23393
 C1643 C 0.45843 0.23498 0.35600
 C1644 C 0.46320 0.20688 0.32420
 C1645 C 0.42848 0.20964 0.30176
 C1646 C 0.40499 0.23869 0.32180
 O1647 O 0.42267 0.25379 0.35470
 H1648 H 0.49014 0.18916 0.31659
 H1649 H 0.42132 0.19301 0.27380
 C1650 C 0.96084 0.71908 0.85564
 C1651 C 0.94084 0.68572 0.87380
 C1652 C 0.90489 0.68071 0.85432
 C1653 C 0.90434 0.71175 0.82651
 O1654 O 0.93786 0.73499 0.82702
 H1655 H 0.94809 0.66967 0.90126
 H1656 H 0.88024 0.65946 0.86220
   
