data_POSCAR
  _audit_creation_date              2014-09-24
  _audit_creation_method            'ToBaCCo'
  _symmetry_space_group_name_H-M    'P1'
  _symmetry_Int_Tables_number       1
  _symmetry_cell_setting            triclinic
  loop_
  _symmetry_equiv_pos_as_xyz
 x,y,z
_cell_length_a 56.9850
_cell_length_b 56.4264
_cell_length_c 56.6126
_cell_angle_alpha 89.574800
_cell_angle_beta 90.050300
_cell_angle_gamma 88.001400
loop_
  _atom_site_label
  _atom_site_type_symbol
  _atom_site_fract_x
  _atom_site_fract_y
  _atom_site_fract_z
C1 C 0.74584 0.61503 1.03196
 C2 C 0.75734 0.62604 1.01328
 C3 C 0.77907 0.63625 1.01713
 C4 C 0.78948 0.63585 1.03980
 C5 C 0.77793 0.62357 1.05809
 C6 C 0.75597 0.61332 1.05460
 C7 C 0.74642 0.62644 0.98961
 C8 C 0.72331 0.63536 0.98670
 C9 C 0.71192 0.63356 0.96490
 C10 C 0.72371 0.62257 0.94596
 C11 C 0.74710 0.61403 0.94838
 C12 C 0.75839 0.61630 0.97034
 H13 H 0.72952 0.60654 1.02818
 H14 H 0.78684 0.64565 1.00255
 H15 H 0.71405 0.64333 1.00153
 H16 H 0.77635 0.60979 0.97268
 H17 H 0.78590 0.62225 1.07535
 H18 H 0.71454 0.62070 0.92936
 C19 C 0.73742 0.38898 0.47149
 C20 C 0.74941 0.38045 0.49166
 C21 C 0.77236 0.37092 0.48951
 C22 C 0.78325 0.36960 0.46734
 C23 C 0.77137 0.37891 0.44743
 C24 C 0.74840 0.38869 0.44923
 C25 C 0.73782 0.38113 0.51500
 C26 C 0.71589 0.37104 0.51817
 C27 C 0.70519 0.37073 0.54055
 C28 C 0.71661 0.38124 0.55969
 C29 C 0.73827 0.39199 0.55655
 C30 C 0.74886 0.39162 0.53420
 H31 H 0.71955 0.39589 0.47329
 H32 H 0.78138 0.36369 0.50496
 H33 H 0.70731 0.36324 0.50318
 H34 H 0.76577 0.39951 0.53171
 H35 H 0.78033 0.37881 0.43058
 H36 H 0.70871 0.38108 0.57708
 C37 C 0.23308 -0.11166 -0.03550
 C38 C 0.24543 -0.12013 -0.01558
 C39 C 0.26834 -0.12971 -0.01812
 C40 C 0.27906 -0.13130 -0.04054
 C41 C 0.26658 -0.12166 -0.06014
 C42 C 0.24364 -0.11189 -0.05791
 C43 C 0.23429 -0.11919 0.00801
 C44 C 0.21218 -0.12877 0.01168
 C45 C 0.20136 -0.12822 0.03416
 C46 C 0.21342 -0.11726 0.05279
 C47 C 0.23543 -0.10736 0.04920
 C48 C 0.24579 -0.10857 0.02681
 H49 H 0.21526 -0.10472 -0.03337
 H50 H 0.27699 -0.13722 -0.00263
 H51 H 0.20340 -0.13613 -0.00339
 H52 H 0.26288 -0.10120 0.02395
 H53 H 0.27517 -0.12065 -0.07712
 H54 H 0.20625 -0.11688 0.07045
 C55 C 0.25160 0.11021 0.52872
 C56 C 0.26226 0.12179 0.50977
 C57 C 0.28453 0.13120 0.51279
 C58 C 0.29612 0.12898 0.53461
 C59 C 0.28533 0.11720 0.55341
 C60 C 0.26303 0.10779 0.55060
 C61 C 0.25016 0.12359 0.48673
 C62 C 0.22732 0.13353 0.48523
 C63 C 0.21525 0.13428 0.46360
 C64 C 0.22615 0.12436 0.44352
 C65 C 0.24904 0.11422 0.44475
 C66 C 0.26106 0.11435 0.46645
 H67 H 0.23433 0.10308 0.52639
 H68 H 0.29280 0.14023 0.49821
 H69 H 0.21892 0.14054 0.50099
 H70 H 0.27879 0.10690 0.46778
 H71 H 0.29426 0.11549 0.57028
 H72 H 0.21670 0.12446 0.42693
 C73 C 0.11015 0.52753 0.24458
 C74 C 0.12223 0.50822 0.25525
 C75 C 0.13561 0.51160 0.27561
 C76 C 0.13738 0.53434 0.28520
 C77 C 0.12513 0.55358 0.27434
 C78 C 0.11133 0.55055 0.25394
 C79 C 0.12123 0.48455 0.24457
 C80 C 0.13032 0.48067 0.22188
 C81 C 0.12921 0.45829 0.21133
 C82 C 0.11801 0.44006 0.22357
 C83 C 0.10911 0.44356 0.24651
 C84 C 0.11111 0.46593 0.25697
 H85 H 0.10056 0.52445 0.22844
 H86 H 0.14523 0.49663 0.28346
 H87 H 0.13892 0.49496 0.21286
 H88 H 0.10475 0.46903 0.27474
 H89 H 0.12552 0.57076 0.28266
 H90 H 0.11600 0.42315 0.21504
 C91 C -0.10517 -0.02481 0.25161
 C92 C -0.11578 -0.00577 0.26367
 C93 C -0.12596 -0.00954 0.28585
 C94 C -0.12623 -0.03245 0.29609
 C95 C -0.11557 -0.05143 0.28333
 C96 C -0.10492 -0.04780 0.26123
 C97 C -0.11646 0.01814 0.25280
 C98 C -0.12635 0.02169 0.23030
 C99 C -0.12791 0.04448 0.21979
 C100 C -0.11836 0.06348 0.23233
 C101 C -0.10810 0.06005 0.25474
 C102 C -0.10754 0.03733 0.26497
 H103 H -0.09676 -0.02148 0.23482
 H104 H -0.13325 0.00573 0.29508
 H105 H -0.13406 0.00668 0.22186
 H106 H -0.10006 0.03449 0.28241
 H107 H -0.11672 -0.06944 0.28975
 H108 H -0.11770 0.08088 0.22429
 C109 C 0.39151 0.47695 0.74615
 C110 C 0.38016 0.49549 0.75838
 C111 C 0.37057 0.49128 0.78077
 C112 C 0.37158 0.46836 0.79102
 C113 C 0.38285 0.44989 0.77804
 C114 C 0.39310 0.45401 0.75586
 C115 C 0.37814 0.51935 0.74752
 C116 C 0.36719 0.52250 0.72548
 C117 C 0.36486 0.54512 0.71505
 C118 C 0.37410 0.56458 0.72685
 C119 C 0.38537 0.56166 0.74886
 C120 C 0.38711 0.53891 0.75914
 H121 H 0.39946 0.48065 0.72921
 H122 H 0.36272 0.50621 0.79010
 H123 H 0.35989 0.50736 0.71682
 H124 H 0.39602 0.53620 0.77590
 H125 H 0.38254 0.43180 0.78439
 H126 H 0.37251 0.58206 0.71888
 C127 C 0.61438 1.02834 0.74806
 C128 C 0.62595 1.00904 0.75918
 C129 C 0.63833 1.01237 0.78027
 C130 C 0.63968 1.03515 0.79036
 C131 C 0.62740 1.05422 0.77892
 C132 C 0.61483 1.05097 0.75795
 C133 C 0.62496 0.98532 0.74856
 C134 C 0.63456 0.98113 0.72613
 C135 C 0.63303 0.95880 0.71553
 C136 C 0.62088 0.94101 0.72743
 C137 C 0.61152 0.94479 0.75014
 C138 C 0.61394 0.96706 0.76067
 H139 H 0.60492 1.02566 0.73173
 H140 H 0.64781 0.99720 0.78783
 H141 H 0.64379 0.99515 0.71733
 H142 H 0.60715 0.97039 0.77825
 H143 H 0.62639 1.07164 0.78676
 H144 H 0.61845 0.92422 0.71881
 C145 C -0.02969 0.24021 -0.10686
 C146 C -0.01137 0.25206 -0.11765
 C147 C -0.01602 0.27365 -0.12943
 C148 C -0.03917 0.28327 -0.13143
 C149 C -0.05741 0.27078 -0.12054
 C150 C -0.05284 0.24948 -0.10799
 C151 C 0.01260 0.24126 -0.11753
 C152 C 0.01682 0.21885 -0.12759
 C153 C 0.03966 0.20831 -0.12821
 C154 C 0.05809 0.22094 -0.11805
 C155 C 0.05398 0.24327 -0.10780
 C156 C 0.03119 0.25338 -0.10766
 H157 H -0.02569 0.22390 -0.09724
 H158 H -0.00159 0.28192 -0.13832
 H159 H 0.00196 0.20965 -0.13446
 H160 H 0.02792 0.27072 -0.09998
 H161 H -0.07527 0.27782 -0.12121
 H162 H 0.07603 0.21404 -0.11872
 C163 C 0.53140 0.24087 0.11053
 C164 C 0.51227 0.25318 0.12079
 C165 C 0.51581 0.27430 0.13302
 C166 C 0.53851 0.28297 0.13543
 C167 C 0.55752 0.27047 0.12492
 C168 C 0.55410 0.24953 0.11235
 C169 C 0.48857 0.24372 0.11899
 C170 C 0.48348 0.22236 0.13034
 C171 C 0.46084 0.21334 0.12909
 C172 C 0.44349 0.22591 0.11590
 C173 C 0.44838 0.24728 0.10420
 C174 C 0.47110 0.25608 0.10600
 H175 H 0.52858 0.22454 0.10113
 H176 H 0.50097 0.28355 0.14117
 H177 H 0.49702 0.21321 0.14071
 H178 H 0.47547 0.27230 0.09692
 H179 H 0.57498 0.27740 0.12594
 H180 H 0.42602 0.21907 0.11488
 C181 C 1.03454 0.73648 0.61421
 C182 C 1.01527 0.74968 0.62300
 C183 C 1.01854 0.77210 0.63284
 C184 C 1.04115 0.78148 0.63440
 C185 C 1.06020 0.76795 0.62489
 C186 C 1.05708 0.74565 0.61472
 C187 C 0.99155 0.74007 0.62177
 C188 C 0.98668 0.71875 0.63336
 C189 C 0.96402 0.70971 0.63261
 C190 C 0.94642 0.72216 0.61963
 C191 C 0.95107 0.74347 0.60772
 C192 C 0.97379 0.75230 0.60903
 H193 H 1.03186 0.71919 0.60667
 H194 H 1.00340 0.78143 0.64026
 H195 H 1.00040 0.70969 0.64356
 H196 H 0.97796 0.76847 0.59973
 H197 H 1.07746 0.77528 0.62392
 H198 H 0.92894 0.71531 0.61897
 C199 C 0.47385 0.74573 0.38915
 C200 C 0.49218 0.75723 0.37791
 C201 C 0.48751 0.77848 0.36555
 C202 C 0.46442 0.78784 0.36363
 C203 C 0.44610 0.77587 0.37467
 C204 C 0.45060 0.75485 0.38770
 C205 C 0.51603 0.74623 0.37810
 C206 C 0.51993 0.72372 0.36820
 C207 C 0.54249 0.71294 0.36814
 C208 C 0.56117 0.72490 0.37828
 C209 C 0.55746 0.74736 0.38839
 C210 C 0.53481 0.75801 0.38816
 H211 H 0.47795 0.72973 0.39922
 H212 H 0.50171 0.78715 0.35663
 H213 H 0.50535 0.71461 0.36054
 H214 H 0.53179 0.77540 0.39581
 H215 H 0.42828 0.78295 0.37290
 H216 H 0.57867 0.71672 0.37830
 C217 C 0.38789 -0.02782 0.27974
 H218 H 0.37621 -0.01668 0.29014
 C219 C 0.39998 -0.04678 0.29076
 H220 H 0.39699 -0.05014 0.30935
 C221 C 0.40555 -0.03740 0.24307
 H222 H 0.40808 -0.03354 0.22459
 C223 C 0.41792 -0.05668 0.25337
 H224 H 0.42963 -0.06756 0.24259
 N225 N 0.39027 -0.02382 0.25613
 C226 C 0.37475 0.04163 0.21652
 H227 H 0.35582 0.04061 0.21639
 C228 C 0.38527 0.06132 0.20680
 H229 H 0.37441 0.07545 0.19899
 C230 C 0.41188 0.02470 0.22757
 H231 H 0.42206 0.01057 0.23612
 C232 C 0.42323 0.04399 0.21754
 H233 H 0.44218 0.04466 0.21831
 Zn234 Zn 0.37049 0.00037 0.24184
 N235 N 0.38802 0.02411 0.22711
 C236 C 0.35727 0.03713 0.27312
 N237 N 0.35178 0.01504 0.26594
 C238 C 0.33446 0.00303 0.27679
 C239 C 0.32147 0.01349 0.29512
 C240 C 0.34499 0.04809 0.29157
 C241 C 0.36241 -0.02299 0.19915
 C242 C 0.34961 -0.03288 0.18091
 C243 C 0.31388 -0.02049 0.20079
 C244 C 0.32741 -0.01091 0.21874
 N245 N 0.35129 -0.01274 0.21792
 H246 H 0.37168 0.04610 0.26504
 H247 H 0.33090 -0.01484 0.27137
 H248 H 0.30749 0.00374 0.30313
 H249 H 0.35025 0.06537 0.29733
 H250 H 0.38129 -0.02318 0.19803
 H251 H 0.35897 -0.04141 0.16648
 H252 H 0.29493 -0.01862 0.20171
 H253 H 0.31869 -0.00162 0.23300
 C254 C 0.40974 0.06275 0.20748
 C255 C 0.41484 -0.06183 0.27745
 C256 C 0.32497 -0.03180 0.18159
 C257 C 0.32673 0.03634 0.30284
 C258 C 0.08623 1.02215 0.76750
 H259 H 0.07996 1.00454 0.77020
 C260 C 0.07666 1.04093 0.78083
 H261 H 0.06300 1.03751 0.79357
 C262 C 0.11284 1.04783 0.74921
 H263 H 0.12768 1.05047 0.73781
 C264 C 0.10380 1.06699 0.76207
 H265 H 0.11125 1.08422 0.75956
 N266 N 0.10406 1.02586 0.75204
 C267 C 0.10327 0.97465 0.69833
 H268 H 0.11539 0.98500 0.68834
 C269 C 0.09246 0.95600 0.68718
 H270 H 0.09604 0.95278 0.66868
 C271 C 0.08474 0.96547 0.73448
 H272 H 0.08261 0.96841 0.75318
 C273 C 0.07377 0.94633 0.72405
 H274 H 0.06318 0.93500 0.73491
 Zn275 Zn 0.12038 1.00007 0.73695
 N276 N 0.09994 0.97864 0.72179
 C277 C 0.13577 0.96038 0.76527
 N278 N 0.13824 0.98384 0.76068
 C279 C 0.15296 0.99694 0.77374
 C280 C 0.16562 0.98660 0.79251
 C281 C 0.14759 0.94946 0.78426
 C282 C 0.13168 1.02770 0.69736
 C283 C 0.14602 1.03783 0.68039
 C284 C 0.17922 1.01565 0.69694
 C285 C 0.16427 1.00614 0.71384
 N286 N 0.14099 1.01243 0.71386
 H287 H 0.12436 0.95007 0.75452
 H288 H 0.15476 1.01554 0.76962
 H289 H 0.17750 0.99740 0.80228
 H290 H 0.14438 0.93105 0.78809
 H291 H 0.11307 1.03217 0.69759
 H292 H 0.13831 1.05002 0.66746
 H293 H 0.19774 1.01068 0.69725
 H294 H 0.17127 0.99371 0.72687
 C295 C 0.07834 0.94085 0.70029
 C296 C 0.08579 1.06363 0.77848
 C297 C 0.17012 1.03190 0.68012
 C298 C 0.16271 0.96259 0.79837
 C299 C 0.58488 0.52322 0.26626
 H300 H 0.57455 0.50785 0.26330
 C301 C 0.57515 0.54251 0.27880
 H302 H 0.55744 0.54164 0.28558
 C303 C 0.62062 0.54295 0.26174
 H304 H 0.63836 0.54313 0.25503
 C305 C 0.61162 0.56251 0.27396
 H306 H 0.62254 0.57764 0.27628
 N307 N 0.60745 0.52362 0.25842
 C308 C 0.60800 0.47024 0.20641
 H309 H 0.62085 0.47972 0.19646
 C310 C 0.59725 0.45122 0.19587
 H311 H 0.60163 0.44672 0.17780
 C312 C 0.58774 0.46353 0.24222
 H313 H 0.58496 0.46765 0.26065
 C314 C 0.57657 0.44423 0.23231
 H315 H 0.56504 0.43386 0.24314
 Zn316 Zn 0.62383 0.49781 0.24376
 N317 N 0.60368 0.47568 0.22942
 C318 C 0.63963 0.45899 0.27271
 N319 N 0.64282 0.48215 0.26716
 C320 C 0.65879 0.49493 0.27901
 C321 C 0.67182 0.48468 0.29755
 C322 C 0.65188 0.44819 0.29148
 C323 C 0.63193 0.52572 0.20418
 C324 C 0.64468 0.53677 0.18652
 C325 C 0.68007 0.51746 0.20189
 C326 C 0.66656 0.50657 0.21919
 N327 N 0.64296 0.51098 0.22007
 H328 H 0.62722 0.44887 0.26297
 H329 H 0.66139 0.51319 0.27414
 H330 H 0.68459 0.49523 0.30643
 H331 H 0.64809 0.43010 0.29615
 H332 H 0.61313 0.52884 0.20529
 H333 H 0.63541 0.54809 0.17384
 H334 H 0.69889 0.51413 0.20177
 H335 H 0.67495 0.49472 0.23195
 C336 C 0.58197 0.43741 0.20908
 C337 C 0.58879 0.56231 0.28317
 C338 C 0.66914 0.53289 0.18529
 C339 C 0.66810 0.46111 0.30443
 C340 C 0.89397 0.47172 0.78650
 H341 H 0.88478 0.48461 0.79741
 C342 C 0.90547 0.45223 0.79725
 H343 H 0.90459 0.45021 0.81626
 C344 C 0.90570 0.45827 0.74867
 H345 H 0.90588 0.46057 0.72978
 C346 C 0.91728 0.43838 0.75869
 H347 H 0.92619 0.42562 0.74731
 N348 N 0.89363 0.47407 0.76255
 C349 C 0.87831 0.54007 0.72381
 H350 H 0.85936 0.53942 0.72411
 C351 C 0.88899 0.55953 0.71379
 H352 H 0.87822 0.57385 0.70622
 C353 C 0.91538 0.52237 0.73389
 H354 H 0.92546 0.50794 0.74210
 C355 C 0.92688 0.54142 0.72356
 H356 H 0.94587 0.54167 0.72380
 Zn357 Zn 0.87394 0.49874 0.74907
 N358 N 0.89150 0.52231 0.73410
 C359 C 0.86080 0.53573 0.78030
 N360 N 0.85601 0.51324 0.77383
 C361 C 0.83978 0.50066 0.78572
 C362 C 0.82697 0.51101 0.80424
 C363 C 0.84869 0.54662 0.79890
 C364 C 0.86472 0.47820 0.70542
 C365 C 0.85165 0.46856 0.68725
 C366 C 0.81645 0.47680 0.70982
 C367 C 0.83027 0.48614 0.72769
 N368 N 0.85406 0.48619 0.72546
 H369 H 0.87446 0.54516 0.77146
 H370 H 0.83684 0.48249 0.78087
 H371 H 0.81374 0.50083 0.81299
 H372 H 0.85330 0.56432 0.80398
 H373 H 0.88343 0.47967 0.70329
 H374 H 0.86074 0.46175 0.67182
 H375 H 0.79756 0.47714 0.71189
 H376 H 0.82181 0.49360 0.74308
 C377 C 0.91351 0.56046 0.71384
 C378 C 0.91678 0.43491 0.78326
 C379 C 0.82714 0.46765 0.68930
 C380 C 0.83134 0.53436 0.81108
 C381 C 0.27472 0.41275 -0.02409
 H382 H 0.27942 0.41570 -0.00585
 C383 C 0.28685 0.42407 -0.04224
 H384 H 0.30079 0.43585 -0.03786
 C385 C 0.25223 0.39231 -0.05211
 H386 H 0.23947 0.37924 -0.05607
 C387 C 0.26393 0.40308 -0.07067
 H388 H 0.25952 0.39860 -0.08867
 N389 N 0.25797 0.39698 -0.02932
 C390 C 0.21970 0.38109 0.03538
 H391 H 0.22025 0.36203 0.03333
 C392 C 0.20911 0.39117 0.05518
 H393 H 0.20145 0.37984 0.06841
 C394 C 0.22948 0.41899 0.02077
 H395 H 0.23758 0.42966 0.00732
 C396 C 0.21860 0.42993 0.04026
 H397 H 0.21847 0.44904 0.04192
 Zn398 Zn 0.24561 0.37755 -0.00519
 N399 N 0.23025 0.39492 0.01905
 C400 C 0.27572 0.35991 0.03135
 N401 N 0.27120 0.35935 0.00778
 C402 C 0.28571 0.34709 -0.00719
 C403 C 0.30576 0.33487 0.00143
 C404 C 0.29524 0.34761 0.04076
 C405 C 0.20349 0.36913 -0.02754
 C406 C 0.18570 0.35618 -0.03755
 C407 C 0.20739 0.32006 -0.02700
 C408 C 0.22505 0.33376 -0.01751
 N409 N 0.22285 0.35784 -0.01817
 H410 H 0.26444 0.37014 0.04301
 H411 H 0.28197 0.34726 -0.02593
 H412 H 0.31740 0.32587 -0.01093
 H413 H 0.29803 0.34798 0.05966
 H414 H 0.20206 0.38830 -0.02742
 H415 H 0.17047 0.36545 -0.04510
 H416 H 0.20933 0.30090 -0.02654
 H417 H 0.24039 0.32518 -0.00956
 C418 C 0.20879 0.41580 0.05793
 C419 C 0.28189 0.41870 -0.06586
 C420 C 0.18755 0.33135 -0.03738
 C421 C 0.31084 0.33510 0.02576
 C422 C 0.79237 0.09647 1.02689
 H423 H 0.80281 0.10405 1.01302
 C424 C 0.80357 0.08601 1.04650
 H425 H 0.82254 0.08604 1.04764
 C426 C 0.75509 0.08829 1.04280
 H427 H 0.73621 0.08946 1.04158
 C428 C 0.76555 0.07772 1.06273
 H429 H 0.75453 0.07069 1.07650
 N430 N 0.76851 0.09824 1.02578
 C431 C 0.72729 0.11335 0.96218
 H432 H 0.72502 0.13232 0.96443
 C433 C 0.71792 0.10260 0.94245
 H434 H 0.70829 0.11332 0.92950
 C435 C 0.74325 0.07642 0.97606
 H436 H 0.75348 0.06648 0.98911
 C437 C 0.73375 0.06480 0.95664
 H438 H 0.73665 0.04584 0.95469
 Zn439 Zn 0.75414 0.11812 1.00216
 N440 N 0.74024 0.10035 0.97811
 C441 C 0.78130 0.13653 0.96479
 N442 N 0.77744 0.13743 0.98848
 C443 C 0.79083 0.15090 1.00266
 C444 C 0.80913 0.16380 0.99315
 C445 C 0.79903 0.14950 0.95451
 C446 C 0.70962 0.12600 1.02140
 C447 C 0.69063 0.13853 1.03134
 C448 C 0.71273 0.17420 1.02884
 C449 C 0.73145 0.16088 1.01911
 N450 N 0.72969 0.13713 1.01588
 H451 H 0.77092 0.12549 0.95372
 H452 H 0.78772 0.15105 1.02151
 H453 H 0.82005 0.17366 1.00493
 H454 H 0.80133 0.14873 0.93555
 H455 H 0.70823 0.10731 1.01781
 H456 H 0.67513 0.12904 1.03611
 H457 H 0.71438 0.19311 1.03100
 H458 H 0.74724 0.16961 1.01400
 C459 C 0.72142 0.07815 0.93936
 C460 C 0.79009 0.07724 1.06515
 C461 C 0.69196 0.16300 1.03520
 C462 C 0.81357 0.16310 0.96871
 C463 C 0.29240 0.60186 0.52098
 H464 H 0.30368 0.61078 0.50871
 C465 C 0.30215 0.59075 0.54097
 H466 H 0.32087 0.59158 0.54392
 C467 C 0.25420 0.59141 0.53273
 H468 H 0.23545 0.59234 0.52965
 C469 C 0.26323 0.58000 0.55294
 H470 H 0.25130 0.57174 0.56510
 N471 N 0.26877 0.60256 0.51758
 C472 C 0.23374 0.61732 0.45019
 H473 H 0.23444 0.63646 0.45009
 C474 C 0.22468 0.60579 0.43076
 H475 H 0.21830 0.61611 0.41572
 C476 C 0.24141 0.58061 0.46988
 H477 H 0.24819 0.57094 0.48511
 C478 C 0.23194 0.56832 0.45088
 H479 H 0.23142 0.54916 0.45150
 Zn480 Zn 0.25548 0.62255 0.49380
 N481 N 0.24220 0.60470 0.46912
 C482 C 0.28631 0.63809 0.45812
 N483 N 0.27950 0.64165 0.48089
 C484 C 0.29048 0.65755 0.49466
 C485 C 0.30901 0.67051 0.48563
 C486 C 0.30421 0.65108 0.44823
 C487 C 0.20913 0.64185 0.49932
 C488 C 0.19088 0.65425 0.51070
 C489 C 0.21830 0.66560 0.54074
 C490 C 0.23611 0.65308 0.52867
 N491 N 0.23133 0.64159 0.50825
 H492 H 0.27828 0.62480 0.44754
 H493 H 0.28541 0.65973 0.51289
 H494 H 0.31794 0.68239 0.49725
 H495 H 0.30862 0.64820 0.42987
 H496 H 0.20523 0.63194 0.48369
 H497 H 0.17330 0.65380 0.50348
 H498 H 0.22242 0.67456 0.55700
 H499 H 0.25359 0.65188 0.53606
 C500 C 0.22381 0.58104 0.43094
 C501 C 0.28747 0.58016 0.55763
 C502 C 0.19531 0.66625 0.53176
 C503 C 0.31618 0.66736 0.46205
 C504 C 0.77972 0.91019 0.48207
 H505 H 0.78498 0.91112 0.50040
 C506 C 0.79174 0.92287 0.46483
 H507 H 0.80602 0.93387 0.47005
 C508 C 0.75547 0.89382 0.45282
 H509 H 0.74207 0.88174 0.44794
 C510 C 0.76684 0.90628 0.43511
 H511 H 0.76182 0.90368 0.41689
 N512 N 0.76206 0.89586 0.47580
 C513 C 0.72254 0.87864 0.53933
 H514 H 0.72264 0.85963 0.53690
 C515 C 0.71201 0.88859 0.55925
 H516 H 0.70392 0.87722 0.57217
 C517 C 0.73344 0.91652 0.52563
 H518 H 0.74199 0.92723 0.51251
 C519 C 0.72262 0.92734 0.54522
 H520 H 0.72298 0.94639 0.54725
 Zn521 Zn 0.74907 0.87559 0.49887
 N522 N 0.73363 0.89250 0.52342
 C523 C 0.77837 0.85659 0.53538
 N524 N 0.77423 0.85665 0.51172
 C525 C 0.78887 0.84459 0.49672
 C526 C 0.80868 0.83199 0.50540
 C527 C 0.79765 0.84394 0.54482
 C528 C 0.70703 0.86842 0.47563
 C529 C 0.68931 0.85600 0.46481
 C530 C 0.71066 0.81937 0.47424
 C531 C 0.72828 0.83257 0.48452
 N532 N 0.72623 0.85667 0.48479
 H533 H 0.76699 0.86665 0.54708
 H534 H 0.78545 0.84525 0.47792
 H535 H 0.82046 0.82316 0.49304
 H536 H 0.80017 0.84389 0.56377
 H537 H 0.70568 0.88757 0.47654
 H538 H 0.67424 0.86564 0.45741
 H539 H 0.71247 0.80021 0.47396
 H540 H 0.74347 0.82358 0.49233
 C541 C 0.71227 0.91315 0.56251
 C542 C 0.78547 0.92077 0.44094
 C543 C 0.69104 0.83118 0.46401
 C544 C 0.81340 0.83167 0.52980
 C545 C -0.02985 0.29335 0.40080
 H546 H -0.02146 0.30279 0.38670
 C547 C -0.04830 0.30456 0.41302
 H548 H -0.05410 0.32231 0.40780
 C549 C -0.03312 0.25870 0.42422
 H550 H -0.02685 0.24098 0.42882
 C551 C -0.05182 0.26917 0.43679
 H552 H -0.06008 0.25923 0.45074
 N553 N -0.02322 0.27048 0.40590
 C554 C 0.02859 0.21561 0.39910
 H555 H 0.01995 0.20696 0.38471
 C556 C 0.04717 0.20380 0.41072
 H557 H 0.05261 0.18617 0.40504
 C558 C 0.03303 0.24960 0.42283
 H559 H 0.02756 0.26760 0.42715
 C560 C 0.05192 0.23848 0.43482
 H561 H 0.06083 0.24794 0.44856
 Zn562 Zn -0.00096 0.25425 0.38623
 N563 N 0.02215 0.23822 0.40501
 C564 C 0.03653 0.28164 0.36957
 N565 N 0.01368 0.27645 0.36600
 C566 C 0.00084 0.28738 0.34853
 C567 C 0.01083 0.30446 0.33407
 C568 C 0.04710 0.29889 0.35580
 C569 C -0.03042 0.21582 0.37911
 C570 C -0.04102 0.19782 0.36669
 C571 C -0.02266 0.21174 0.33103
 C572 C -0.01231 0.22948 0.34417
 N573 N -0.01640 0.23129 0.36780
 H574 H 0.04656 0.27279 0.38342
 H575 H -0.01729 0.28293 0.34595
 H576 H 0.00030 0.31264 0.32013
 H577 H 0.06502 0.30328 0.35968
 H578 H -0.03308 0.21705 0.39789
 H579 H -0.05216 0.18577 0.37608
 H580 H -0.01882 0.21028 0.31236
 H581 H -0.00048 0.24130 0.33555
 C582 C 0.05940 0.21538 0.42852
 C583 C -0.06002 0.29217 0.43077
 C584 C -0.03709 0.19550 0.34235
 C585 C 0.03422 0.31070 0.33779
 C586 C 1.01553 0.78286 0.09041
 H587 H 0.99734 0.78879 0.08884
 C588 C 1.03291 0.79467 0.07799
 H589 H 1.02792 0.80946 0.06655
 C590 C 1.04428 0.75700 0.10798
 H591 H 1.04888 0.74299 0.12038
 C592 C 1.06212 0.76816 0.09586
 H593 H 1.08017 0.76240 0.09906
 N594 N 1.02149 0.76444 0.10513
 C595 C 0.95827 0.72566 0.12025
 H596 H 0.96046 0.72467 0.13922
 C597 C 0.93881 0.71588 0.10978
 H598 H 0.92602 0.70728 0.12075
 C599 C 0.97224 0.73835 0.08296
 H600 H 0.98533 0.74722 0.07268
 C601 C 0.95309 0.72836 0.07163
 H602 H 0.95136 0.72972 0.05261
 Zn603 Zn 0.99819 0.75113 0.12456
 N604 N 0.97412 0.73724 0.10693
 C605 C 0.96154 0.78040 0.14376
 N606 N 0.98513 0.77582 0.14355
 C607 C 0.99993 0.78943 0.15600
 C608 C 0.99111 0.80856 0.16927
 C609 C 0.95197 0.79898 0.15712
 C610 C 1.02109 0.70749 0.13200
 C611 C 1.03112 0.68839 0.14459
 C612 C 1.02074 0.70839 0.18089
 C613 C 1.01122 0.72735 0.16754
 N614 N 1.01173 0.72660 0.14355
 H615 H 0.94999 0.76984 0.13343
 H616 H 1.01866 0.78565 0.15525
 H617 H 1.00331 0.81953 0.17845
 H618 H 0.93309 0.80177 0.15736
 H619 H 1.02097 0.70727 0.11289
 H620 H 1.03915 0.67379 0.13488
 H621 H 1.01974 0.70915 0.19996
 H622 H 1.00317 0.74249 0.17636
 C623 C 0.93588 0.71748 0.08525
 C624 C 1.05661 0.78744 0.08082
 C625 C 1.03097 0.68855 0.16942
 C626 C 0.96676 0.81362 0.16993
 C627 C 0.51806 0.27940 0.59150
 H628 H 0.49990 0.28493 0.58867
 C629 C 0.53591 0.29071 0.57929
 H630 H 0.53131 0.30466 0.56672
 C631 C 0.54617 0.25509 0.61198
 H632 H 0.55028 0.24189 0.62537
 C633 C 0.56447 0.26589 0.60025
 H634 H 0.58237 0.26067 0.60484
 N635 N 0.52348 0.26200 0.60757
 C636 C 0.46022 0.22333 0.62284
 H637 H 0.46125 0.22418 0.64190
 C638 C 0.44244 0.21087 0.61226
 H639 H 0.42956 0.20270 0.62342
 C640 C 0.47578 0.23348 0.58546
 H641 H 0.48906 0.24206 0.57517
 C642 C 0.45831 0.22092 0.57406
 H643 H 0.45835 0.21992 0.55497
 Zn644 Zn 0.49969 0.24957 0.62696
 N645 N 0.47626 0.23454 0.60946
 C646 C 0.46266 0.27952 0.64448
 N647 N 0.48625 0.27502 0.64459
 C648 C 0.50096 0.28938 0.65625
 C649 C 0.49205 0.30923 0.66835
 C650 C 0.45297 0.29885 0.65672
 C651 C 0.52148 0.20604 0.63599
 C652 C 0.53133 0.18718 0.64903
 C653 C 0.52315 0.20914 0.68475
 C654 C 0.51351 0.22773 0.67095
 N655 N 0.51303 0.22586 0.64702
 H656 H 0.45121 0.26829 0.63477
 H657 H 0.51970 0.28564 0.65573
 H658 H 0.50420 0.32075 0.67688
 H659 H 0.43409 0.30160 0.65678
 H660 H 0.52068 0.20501 0.61693
 H661 H 0.53845 0.17184 0.63976
 H662 H 0.52319 0.21076 0.70379
 H663 H 0.50630 0.24351 0.67934
 C664 C 0.44136 0.20932 0.58754
 C665 C 0.55953 0.28416 0.58384
 C666 C 0.53221 0.18850 0.67377
 C667 C 0.46769 0.31425 0.66870
 C668 C 0.46877 0.79135 0.90081
 H669 H 0.47975 0.80204 0.88982
 C670 C 0.44978 0.80220 0.91256
 H671 H 0.44621 0.82103 0.91010
 C672 C 0.45942 0.75392 0.91665
 H673 H 0.46327 0.73518 0.91850
 C674 C 0.44010 0.76401 0.92853
 H675 H 0.42913 0.75281 0.93913
 N676 N 0.47272 0.76744 0.90224
 C677 C 0.53527 0.72451 0.88417
 H678 H 0.53347 0.72588 0.86518
 C679 C 0.55411 0.71154 0.89396
 H680 H 0.56693 0.70335 0.88222
 C681 C 0.52103 0.73472 0.92221
 H682 H 0.50808 0.74393 0.93304
 C683 C 0.53958 0.72161 0.93283
 H684 H 0.54058 0.72061 0.95191
 Zn685 Zn 0.49552 0.75305 0.88162
 N686 N 0.51935 0.73595 0.89826
 C687 C 0.53224 0.78263 0.86838
 N688 N 0.50969 0.77726 0.86345
 C689 C 0.49708 0.78969 0.84678
 C690 C 0.50743 0.80762 0.83367
 C691 C 0.54313 0.80067 0.85603
 C692 C 0.47187 0.71150 0.87274
 C693 C 0.46068 0.69427 0.85980
 C694 C 0.46966 0.71568 0.82407
 C695 C 0.48050 0.73271 0.83777
 N696 N 0.48093 0.73066 0.86177
 H697 H 0.54175 0.77327 0.88230
 H698 H 0.47891 0.78569 0.84368
 H699 H 0.49721 0.81672 0.82005
 H700 H 0.56089 0.80489 0.86077
 H701 H 0.47378 0.70920 0.89156
 H702 H 0.45361 0.67918 0.86893
 H703 H 0.46921 0.71771 0.80503
 H704 H 0.48877 0.74728 0.82909
 C705 C 0.55650 0.70983 0.91862
 C706 C 0.43469 0.78834 0.92595
 C707 C 0.45930 0.69634 0.83515
 C708 C 0.53083 0.81335 0.83819
 C709 C 0.44861 -0.14812 0.32386
 C710 C 0.46818 -0.14962 0.33900
 C711 C 0.47351 -0.17049 0.35170
 C712 C 0.45928 -0.19022 0.34965
 C713 C 0.43989 -0.18880 0.33430
 C714 C 0.43463 -0.16801 0.32153
 C715 C 0.44214 -0.12569 0.31118
 C716 C 0.43400 -0.12609 0.28774
 C717 C 0.42599 -0.10520 0.27649
 C718 C 0.42586 -0.08347 0.28845
 C719 C 0.43478 -0.08294 0.31159
 C720 C 0.44288 -0.10382 0.32282
 H721 H 0.48851 -0.17106 0.36348
 H722 H 0.42878 -0.20382 0.33211
 H723 H 0.41905 -0.10622 0.25873
 H724 H 0.43514 -0.06642 0.32117
 H725 H 0.41928 -0.16733 0.31022
 H726 H 0.43349 -0.14264 0.27822
 H727 H 0.47936 -0.13464 0.34102
 H728 H 0.44892 -0.10296 0.34092
 C729 C 0.94600 0.34735 0.83007
 C730 C 0.96792 0.34332 0.84093
 C731 C 0.97292 0.32223 0.85339
 C732 C 0.95595 0.30464 0.85568
 C733 C 0.93395 0.30900 0.84464
 C734 C 0.92914 0.32994 0.83199
 C735 C 0.94041 0.36980 0.81713
 C736 C 0.92863 0.36948 0.79533
 C737 C 0.92178 0.39065 0.78392
 C738 C 0.92639 0.41261 0.79416
 C739 C 0.93876 0.41295 0.81565
 C740 C 0.94581 0.39175 0.82696
 H741 H 0.98983 0.32037 0.86201
 H742 H 0.92051 0.29593 0.84482
 H743 H 0.91208 0.38981 0.76751
 H744 H 0.94269 0.42963 0.82385
 H745 H 0.91203 0.33262 0.82386
 H746 H 0.92447 0.35281 0.78724
 H747 H 0.98125 0.35649 0.83973
 H748 H 0.95476 0.39252 0.84380
 C749 C 0.05554 1.14322 0.83648
 C750 C 0.06908 1.15022 0.85574
 C751 C 0.06357 1.17124 0.86767
 C752 C 0.04420 1.18602 0.86079
 C753 C 0.02998 1.17819 0.84210
 C754 C 0.03565 1.15718 0.83010
 C755 C 0.06300 1.12221 0.82231
 C756 C 0.04651 1.10669 0.81318
 C757 C 0.05382 1.08745 0.79916
 C758 C 0.07773 1.08348 0.79388
 C759 C 0.09416 1.09882 0.80331
 C760 C 0.08690 1.11795 0.81727
 H761 H 0.07438 1.17544 0.88268
 H762 H 0.01526 1.18890 0.83550
 H763 H 0.04075 1.07595 0.79209
 H764 H 0.11275 1.09602 0.79993
 H765 H 0.02501 1.15242 0.81512
 H766 H 0.02799 1.10940 0.81692
 H767 H 0.08411 1.13944 0.86159
 H768 H 0.10004 1.12971 0.82374
 C769 C 0.55698 0.64533 0.33548
 C770 C 0.54274 0.66273 0.32401
 C771 C 0.53755 0.68448 0.33486
 C772 C 0.54665 0.68935 0.35730
 C773 C 0.56034 0.67178 0.36905
 C774 C 0.56533 0.64997 0.35833
 C775 C 0.56433 0.62308 0.32315
 C776 C 0.58734 0.61370 0.32586
 C777 C 0.59493 0.59367 0.31336
 C778 C 0.57981 0.58257 0.29759
 C779 C 0.55659 0.59151 0.29527
 C780 C 0.54893 0.61158 0.30791
 H781 H 0.52708 0.69781 0.32536
 H782 H 0.56722 0.67495 0.38653
 H783 H 0.61279 0.58698 0.31592
 H784 H 0.54454 0.58339 0.28322
 H785 H 0.57590 0.63678 0.36790
 H786 H 0.59980 0.62222 0.33716
 H787 H 0.53629 0.65991 0.30630
 H788 H 0.53099 0.61817 0.30565
 C789 C 0.55285 0.34798 0.17131
 C790 C 0.56762 0.32774 0.17433
 C791 C 0.56255 0.30653 0.16324
 C792 C 0.54261 0.30504 0.14877
 C793 C 0.52728 0.32503 0.14651
 C794 C 0.53234 0.34630 0.15773
 C795 C 0.55979 0.37102 0.18111
 C796 C 0.54354 0.38618 0.19274
 C797 C 0.55060 0.40781 0.20199
 C798 C 0.57391 0.41475 0.19935
 C799 C 0.59002 0.39958 0.18760
 C800 C 0.58307 0.37800 0.17863
 H801 H 0.57438 0.29129 0.16583
 H802 H 0.51186 0.32448 0.13537
 H803 H 0.53784 0.41919 0.21097
 H804 H 0.60819 0.40426 0.18562
 H805 H 0.52073 0.36169 0.15501
 H806 H 0.52550 0.38115 0.19496
 H807 H 0.58332 0.32841 0.18508
 H808 H 0.59591 0.36682 0.16951
 C809 C 0.05348 0.84929 0.66394
 C810 C 0.07101 0.83123 0.66422
 C811 C 0.06681 0.80898 0.65491
 C812 C 0.04483 0.80390 0.64493
 C813 C 0.02694 0.82192 0.64560
 C814 C 0.03126 0.84429 0.65493
 C815 C 0.05887 0.87335 0.67240
 C816 C 0.04295 0.88658 0.68648
 C817 C 0.04893 0.90875 0.69526
 C818 C 0.07086 0.91816 0.68994
 C819 C 0.08649 0.90505 0.67546
 C820 C 0.08055 0.88303 0.66676
 H821 H 0.08084 0.79563 0.65631
 H822 H 0.00989 0.81946 0.63779
 H823 H 0.03647 0.91846 0.70628
 H824 H 0.10370 0.91149 0.67134
 H825 H 0.01744 0.85795 0.65433
 H826 H 0.02614 0.87951 0.69118
 H827 H 0.08810 0.83429 0.67178
 H828 H 0.09306 0.87346 0.65567
 C829 C 0.94728 0.64567 0.67049
 C830 C 0.93107 0.66500 0.66904
 C831 C 0.93665 0.68574 0.65706
 C832 C 0.95847 0.68766 0.64580
 C833 C 0.97476 0.66837 0.64721
 C834 C 0.96925 0.64764 0.65947
 C835 C 0.94087 0.62352 0.68307
 C836 C 0.94807 0.60103 0.67451
 C837 C 0.94012 0.58032 0.68521
 C838 C 0.92462 0.58179 0.70440
 C839 C 0.91815 0.60409 0.71353
 C840 C 0.92637 0.62470 0.70316
 H841 H 0.92382 0.70035 0.65675
 H842 H 0.99166 0.66916 0.63857
 H843 H 0.94518 0.56323 0.67785
 H844 H 0.90637 0.60554 0.72850
 H845 H 0.98226 0.63322 0.66040
 H846 H 0.95905 0.59940 0.65897
 H847 H 0.91380 0.66405 0.67688
 H848 H 0.92101 0.64161 0.71070
 C849 C 0.44352 0.14880 0.16580
 C850 C 0.42726 0.16808 0.16421
 C851 C 0.43303 0.18899 0.15264
 C852 C 0.45509 0.19113 0.14191
 C853 C 0.47142 0.17189 0.14347
 C854 C 0.46574 0.15100 0.15534
 C855 C 0.43694 0.12645 0.17792
 C856 C 0.44461 0.10412 0.16933
 C857 C 0.43665 0.08322 0.17962
 C858 C 0.42066 0.08433 0.19842
 C859 C 0.41365 0.10648 0.20756
 C860 C 0.42189 0.12729 0.19761
 H861 H 0.42015 0.20355 0.15222
 H862 H 0.48850 0.17283 0.13523
 H863 H 0.44213 0.06625 0.17226
 H864 H 0.40149 0.10765 0.22224
 H865 H 0.47880 0.13664 0.15641
 H866 H 0.45600 0.10276 0.15408
 H867 H 0.40983 0.16696 0.17161
 H868 H 0.41615 0.14407 0.20518
 C869 C 0.33762 0.45162 -0.14414
 C870 C 0.35721 0.43813 -0.15186
 C871 C 0.36879 0.44406 -0.17266
 C872 C 0.36102 0.46365 -0.18669
 C873 C 0.34195 0.47784 -0.17807
 C874 C 0.33046 0.47187 -0.15711
 C875 C 0.32384 0.44354 -0.12357
 C876 C 0.31565 0.45950 -0.10621
 C877 C 0.30226 0.45151 -0.08716
 C878 C 0.29652 0.42754 -0.08546
 C879 C 0.30481 0.41167 -0.10278
 C880 C 0.31834 0.41955 -0.12156
 H881 H 0.38414 0.43331 -0.17735
 H882 H 0.33468 0.49274 -0.18807
 H883 H 0.29605 0.46407 -0.07402
 H884 H 0.30091 0.39304 -0.10173
 H885 H 0.31523 0.48247 -0.15165
 H886 H 0.31974 0.47807 -0.10731
 H887 H 0.36352 0.42278 -0.14181
 H888 H 0.32418 0.40691 -0.13480
 C889 C 0.83889 0.95414 0.36133
 C890 C 0.85776 0.93941 0.35390
 C891 C 0.86942 0.94398 0.33274
 C892 C 0.86262 0.96354 0.31822
 C893 C 0.84402 0.97866 0.32628
 C894 C 0.83234 0.97396 0.34742
 C895 C 0.82534 0.94805 0.38283
 C896 C 0.80067 0.94983 0.38261
 C897 C 0.78775 0.94190 0.40190
 C898 C 0.79918 0.93205 0.42187
 C899 C 0.82385 0.93123 0.42253
 C900 C 0.83679 0.93910 0.40319
 H901 H 0.88416 0.93230 0.32825
 H902 H 0.83738 0.99353 0.31581
 H903 H 0.76876 0.94298 0.40098
 H904 H 0.83316 0.92356 0.43759
 H905 H 0.81793 0.98573 0.35275
 H906 H 0.79131 0.95646 0.36714
 H907 H 0.86320 0.92392 0.36420
 H908 H 0.85578 0.93779 0.40400
 C909 C 0.83735 0.05568 1.15364
 C910 C 0.83863 0.07408 1.17005
 C911 C 0.85027 0.07051 1.19156
 C912 C 0.86093 0.04827 1.19750
 C913 C 0.85969 0.02990 1.18071
 C914 C 0.84818 0.03363 1.15909
 C915 C 0.82463 0.05964 1.13100
 C916 C 0.83433 0.05163 1.10956
 C917 C 0.82288 0.05675 1.08814
 C918 C 0.80139 0.06978 1.08779
 C919 C 0.79140 0.07714 1.10933
 C920 C 0.80289 0.07216 1.13066
 H921 H 0.84980 0.08510 1.20385
 H922 H 0.86823 0.01273 1.18371
 H923 H 0.83092 0.05073 1.07183
 H924 H 0.77503 0.08748 1.10966
 H925 H 0.84751 0.01912 1.14671
 H926 H 0.85112 0.04203 1.10929
 H927 H 0.83059 0.09137 1.16625
 H928 H 0.79485 0.07829 1.14694
 C929 C 0.32941 0.55534 0.64812
 C930 C 0.32617 0.57183 0.66642
 C931 C 0.33754 0.56843 0.68811
 C932 C 0.35256 0.54851 0.69202
 C933 C 0.35572 0.53191 0.67378
 C934 C 0.34427 0.53528 0.65209
 C935 C 0.31782 0.55952 0.62482
 C936 C 0.32991 0.55450 0.60370
 C937 C 0.31971 0.56028 0.58184
 C938 C 0.29721 0.57129 0.58057
 C939 C 0.28480 0.57548 0.60167
 C940 C 0.29495 0.56960 0.62350
 H941 H 0.33444 0.58138 0.70188
 H942 H 0.36733 0.51648 0.67616
 H943 H 0.32963 0.55651 0.56592
 H944 H 0.26756 0.58417 0.60141
 H945 H 0.34699 0.52213 0.63845
 H946 H 0.34761 0.54688 0.60406
 H947 H 0.31514 0.58766 0.66388
 H948 H 0.28498 0.57332 0.63941
 C949 C 0.17916 0.54704 0.34718
 C950 C 0.16639 0.52623 0.34544
 C951 C 0.15301 0.52190 0.32526
 C952 C 0.15216 0.53826 0.30638
 C953 C 0.16531 0.55878 0.30798
 C954 C 0.17848 0.56319 0.32813
 C955 C 0.19240 0.55262 0.36900
 C956 C 0.21342 0.56491 0.36748
 C957 C 0.22416 0.57322 0.38780
 C958 C 0.21443 0.56900 0.41010
 C959 C 0.19438 0.55541 0.41192
 C960 C 0.18335 0.54739 0.39151
 H961 H 0.14296 0.50599 0.32466
 H962 H 0.16539 0.57156 0.29361
 H963 H 0.23977 0.58352 0.38610
 H964 H 0.18654 0.55214 0.42901
 H965 H 0.18770 0.57961 0.32896
 H966 H 0.22126 0.56868 0.35052
 H967 H 0.16669 0.51331 0.35968
 H968 H 0.16711 0.53816 0.39335
 C969 C 0.67908 0.04740 0.85308
 C970 C 0.67071 0.02480 0.84846
 C971 C 0.65792 0.02060 0.82785
 C972 C 0.65299 0.03898 0.81123
 C973 C 0.66180 0.06155 0.81606
 C974 C 0.67443 0.06566 0.83662
 C975 C 0.69212 0.05245 0.87515
 C976 C 0.71052 0.06842 0.87469
 C977 C 0.72066 0.07592 0.89563
 C978 C 0.71298 0.06730 0.91746
 C979 C 0.69574 0.05017 0.91805
 C980 C 0.68528 0.04286 0.89703
 H981 H 0.65119 0.00308 0.82568
 H982 H 0.65978 0.07618 0.80372
 H983 H 0.73412 0.08900 0.89486
 H984 H 0.68954 0.04342 0.93480
 H985 H 0.68035 0.08341 0.83969
 H986 H 0.71667 0.07564 0.85814
 H987 H 0.67404 0.01031 0.86079
 H988 H 0.67108 0.03064 0.89802
 C989 C 0.66837 0.94352 0.64953
 C990 C 0.65768 0.96601 0.65339
 C991 C 0.64597 0.97099 0.67463
 C992 C 0.64479 0.95363 0.69254
 C993 C 0.65545 0.93118 0.68858
 C994 C 0.66686 0.92614 0.66734
 C995 C 0.68094 0.93788 0.62709
 C996 C 0.70092 0.92250 0.62734
 C997 C 0.71144 0.91513 0.60629
 C998 C 0.70258 0.92333 0.58451
 C999 C 0.68347 0.93967 0.58407
 C1000 C 0.67262 0.94679 0.60520
 H1001 H 0.63774 0.98839 0.67694
 H1002 H 0.65529 0.91747 0.70205
 H1003 H 0.72634 0.90267 0.60696
 H1004 H 0.67633 0.94607 0.56738
 H1005 H 0.67440 0.90846 0.66486
 H1006 H 0.70829 0.91584 0.64382
 H1007 H 0.65860 0.97987 0.64014
 H1008 H 0.65720 0.95851 0.60431
 C1009 C 0.16421 0.44466 0.14489
 C1010 C 0.15236 0.46656 0.14880
 C1011 C 0.14067 0.47095 0.17016
 C1012 C 0.14064 0.45356 0.18812
 C1013 C 0.15232 0.43163 0.18406
 C1014 C 0.16377 0.42719 0.16272
 C1015 C 0.17695 0.43973 0.12242
 C1016 C 0.19790 0.42578 0.12266
 C1017 C 0.20866 0.41884 0.10160
 C1018 C 0.19902 0.42608 0.07983
 C1019 C 0.17892 0.44112 0.07938
 C1020 C 0.16787 0.44782 0.10054
 H1021 H 0.13162 0.48794 0.17258
 H1022 H 0.15301 0.41794 0.19757
 H1023 H 0.22428 0.40735 0.10225
 H1024 H 0.17116 0.44671 0.06269
 H1025 H 0.17224 0.40992 0.16017
 H1026 H 0.20578 0.41981 0.13916
 H1027 H 0.15242 0.48045 0.13551
 H1028 H 0.15171 0.45845 0.09969
 C1029 C -0.14895 0.33480 0.45875
 C1030 C -0.15264 0.35138 0.47689
 C1031 C -0.17475 0.36257 0.47995
 C1032 C -0.19336 0.35765 0.46465
 C1033 C -0.18961 0.34105 0.44656
 C1034 C -0.16769 0.32969 0.44371
 C1035 C -0.12551 0.32334 0.45475
 C1036 C -0.12342 0.29899 0.44988
 C1037 C -0.10182 0.28864 0.44330
 C1038 C -0.08189 0.30248 0.44126
 C1039 C -0.08375 0.32663 0.44716
 C1040 C -0.10535 0.33695 0.45397
 H1041 H -0.17721 0.37536 0.49398
 H1042 H -0.20374 0.33677 0.43469
 H1043 H -0.10098 0.27005 0.43866
 H1044 H -0.06861 0.33766 0.44591
 H1045 H -0.16524 0.31720 0.42941
 H1046 H -0.13867 0.28807 0.45059
 H1047 H -0.13847 0.35558 0.48874
 H1048 H -0.10651 0.35578 0.45755
 C1049 C 0.34572 0.83342 0.95032
 C1050 C 0.34030 0.84485 0.97163
 C1051 C 0.31839 0.85641 0.97480
 C1052 C 0.30149 0.85728 0.95647
 C1053 C 0.30740 0.84593 0.93501
 C1054 C 0.32908 0.83409 0.93209
 C1055 C 0.36870 0.82092 0.94673
 C1056 C 0.36969 0.79812 0.93696
 C1057 C 0.39125 0.78712 0.93130
 C1058 C 0.41228 0.79880 0.93507
 C1059 C 0.41136 0.82130 0.94561
 C1060 C 0.38975 0.83220 0.95157
 H1061 H 0.31523 0.86537 0.99138
 H1062 H 0.29497 0.84512 0.92060
 H1063 H 0.39139 0.76990 0.92297
 H1064 H 0.42733 0.83064 0.94879
 H1065 H 0.33290 0.82548 0.91542
 H1066 H 0.35369 0.78900 0.93324
 H1067 H 0.35296 0.84465 0.98592
 H1068 H 0.38941 0.84983 0.95902
 C1069 C 1.13625 0.83879 0.04731
 C1070 C 1.14318 0.85788 0.06111
 C1071 C 1.16427 0.86896 0.05658
 C1072 C 1.17927 0.86131 0.03804
 C1073 C 1.17172 0.84250 0.02382
 C1074 C 1.15062 0.83145 0.02844
 C1075 C 1.11481 0.82581 0.05346
 C1076 C 1.11508 0.80091 0.05279
 C1077 C 1.09579 0.78850 0.06074
 C1078 C 1.07577 0.80068 0.06957
 C1079 C 1.07507 0.82561 0.06930
 C1080 C 1.09439 0.83804 0.06135
 H1081 H 1.16832 0.88394 0.06747
 H1082 H 1.18253 0.83519 0.00980
 H1083 H 1.09674 0.76930 0.06046
 H1084 H 1.05997 0.83550 0.07615
 H1085 H 1.14568 0.81687 0.01736
 H1086 H 1.13057 0.79093 0.04701
 H1087 H 1.13255 0.86394 0.07586
 H1088 H 1.09352 0.85723 0.06178
 C1089 C 0.64000 0.33558 0.55214
 C1090 C 0.64452 0.35696 0.56366
 C1091 C 0.66542 0.36858 0.55959
 C1092 C 0.68242 0.35903 0.54403
 C1093 C 0.67771 0.33790 0.53219
 C1094 C 0.65673 0.32639 0.53610
 C1095 C 0.61855 0.32233 0.55783
 C1096 C 0.61970 0.29744 0.55957
 C1097 C 0.60021 0.28502 0.56692
 C1098 C 0.57911 0.29714 0.57296
 C1099 C 0.57763 0.32194 0.57031
 C1100 C 0.59711 0.33438 0.56278
 H1101 H 0.66828 0.38501 0.56872
 H1102 H 0.69049 0.32988 0.52027
 H1103 H 0.60184 0.26589 0.56839
 H1104 H 0.56172 0.33186 0.57497
 H1105 H 0.65371 0.31016 0.52666
 H1106 H 0.63593 0.28755 0.55613
 H1107 H 0.63219 0.36442 0.57636
 H1108 H 0.59548 0.35350 0.56123
 C1109 C 0.36222 0.16031 0.54912
 C1110 C 0.34346 0.17401 0.53931
 C1111 C 0.32227 0.16362 0.53369
 C1112 C 0.31926 0.13943 0.53814
 C1113 C 0.33810 0.12554 0.54720
 C1114 C 0.35944 0.13580 0.55237
 C1115 C 0.38386 0.17177 0.55750
 C1116 C 0.39532 0.16341 0.57810
 C1117 C 0.41448 0.17506 0.58719
 C1118 C 0.42252 0.19570 0.57625
 C1119 C 0.41161 0.20369 0.55523
 C1120 C 0.39256 0.19180 0.54591
 H1121 H 0.30785 0.17466 0.52684
 H1122 H 0.33620 0.10677 0.55048
 H1123 H 0.42279 0.16804 0.60309
 H1124 H 0.41728 0.21956 0.54637
 H1125 H 0.37364 0.12453 0.55927
 H1126 H 0.38905 0.14829 0.58777
 H1127 H 0.34474 0.19296 0.53686
 H1128 H 0.38447 0.19852 0.52978
 C1129 C 0.85182 0.67331 0.05391
 C1130 C 0.83575 0.66856 0.07194
 C1131 C 0.81546 0.65634 0.06729
 C1132 C 0.81050 0.64804 0.04439
 C1133 C 0.82690 0.65277 0.02633
 C1134 C 0.84725 0.66516 0.03106
 C1135 C 0.87325 0.68657 0.05937
 C1136 C 0.89520 0.67989 0.04961
 C1137 C 0.91565 0.69079 0.05707
 C1138 C 0.91441 0.70832 0.07452
 C1139 C 0.89243 0.71581 0.08334
 C1140 C 0.87207 0.70521 0.07572
 H1141 H 0.80331 0.65452 0.08178
 H1142 H 0.82465 0.64631 0.00857
 H1143 H 0.93249 0.68474 0.05011
 H1144 H 0.89110 0.72954 0.09660
 H1145 H 0.85933 0.66852 0.01676
 H1146 H 0.89673 0.66554 0.03707
 H1147 H 0.83884 0.67428 0.08985
 H1148 H 0.85541 0.71128 0.08308
 C1149 C 0.64217 0.66260 0.95269
 C1150 C 0.64745 0.63831 0.94908
 C1151 C 0.67005 0.62881 0.95331
 C1152 C 0.68769 0.64322 0.96179
 C1153 C 0.68231 0.66717 0.96643
 C1154 C 0.65986 0.67683 0.96173
 C1155 C 0.61889 0.67333 0.94560
 C1156 C 0.60888 0.69291 0.95770
 C1157 C 0.58825 0.70437 0.94944
 C1158 C 0.57697 0.69634 0.92905
 C1159 C 0.58631 0.67601 0.91775
 C1160 C 0.60708 0.66484 0.92573
 H1161 H 0.67381 0.61020 0.94990
 H1162 H 0.69576 0.67860 0.97286
 H1163 H 0.58164 0.72001 0.95856
 H1164 H 0.57782 0.66894 0.90234
 H1165 H 0.65669 0.69564 0.96436
 H1166 H 0.61716 0.69968 0.97335
 H1167 H 0.63421 0.62663 0.94274
 H1168 H 0.61425 0.65003 0.91571
 C1169 C 0.14656 0.16811 0.45667
 C1170 C 0.15176 0.14627 0.44572
 C1171 C 0.17387 0.13509 0.44832
 C1172 C 0.19133 0.14549 0.46191
 C1173 C 0.18600 0.16706 0.47331
 C1174 C 0.16386 0.17826 0.47070
 C1175 C 0.12362 0.18073 0.45236
 C1176 C 0.12251 0.20534 0.44817
 C1177 C 0.10136 0.21682 0.44155
 C1178 C 0.08088 0.20393 0.43892
 C1179 C 0.08174 0.17954 0.44421
 C1180 C 0.10286 0.16807 0.45089
 H1181 H 0.17734 0.11833 0.43958
 H1182 H 0.19915 0.17560 0.48377
 H1183 H 0.10131 0.23556 0.43731
 H1184 H 0.06614 0.16923 0.44268
 H1185 H 0.16033 0.19496 0.47954
 H1186 H 0.13823 0.21555 0.44889
 H1187 H 0.13894 0.13811 0.43455
 H1188 H 0.10304 0.14919 0.45448
 C1189 C 0.57747 0.10999 0.72479
 C1190 C 0.60059 0.11229 0.73298
 C1191 C 0.61265 0.09317 0.74382
 C1192 C 0.60196 0.07127 0.74655
 C1193 C 0.57886 0.06893 0.73847
 C1194 C 0.56671 0.08811 0.72780
 C1195 C 0.56491 0.13012 0.71257
 C1196 C 0.55047 0.12601 0.69300
 C1197 C 0.53944 0.14490 0.68084
 C1198 C 0.54272 0.16843 0.68778
 C1199 C 0.55676 0.17256 0.70766
 C1200 C 0.56770 0.15362 0.71993
 H1201 H 0.63054 0.09535 0.74969
 H1202 H 0.57010 0.05234 0.74069
 H1203 H 0.52842 0.14105 0.66586
 H1204 H 0.55978 0.19046 0.71338
 H1205 H 0.54880 0.08584 0.72208
 H1206 H 0.54812 0.10819 0.68668
 H1207 H 0.60956 0.12873 0.73057
 H1208 H 0.57842 0.15739 0.73516
 C1209 C 1.07515 0.60916 0.22054
 C1210 C 1.06614 0.58631 0.21971
 C1211 C 1.07802 0.56708 0.23055
 C1212 C 1.09913 0.57011 0.24307
 C1213 C 1.10779 0.59322 0.24428
 C1214 C 1.09612 0.61233 0.23300
 C1215 C 1.06306 0.62944 0.20798
 C1216 C 1.06350 0.65257 0.21705
 C1217 C 1.05300 0.67170 0.20469
 C1218 C 1.04148 0.66815 0.18309
 C1219 C 1.04052 0.64493 0.17435
 C1220 C 1.05134 0.62590 0.18649
 H1221 H 1.06997 0.55001 0.22983
 H1222 H 1.12431 0.59656 0.25286
 H1223 H 1.05434 0.68931 0.21189
 H1224 H 1.03140 0.64137 0.15805
 H1225 H 1.10397 0.62951 0.23355
 H1226 H 1.07198 0.65598 0.23374
 H1227 H 1.04967 0.58324 0.21089
 H1228 H 1.05086 0.60846 0.17872
 C1229 C 0.92673 0.89345 0.22256
 C1230 C 0.91537 0.91258 0.21063
 C1231 C 0.90494 0.93138 0.22314
 C1232 C 0.90601 0.93193 0.24795
 C1233 C 0.91765 0.91298 0.25990
 C1234 C 0.92770 0.89391 0.24739
 C1235 C 0.93719 0.87306 0.20912
 C1236 C 0.95762 0.86077 0.21718
 C1237 C 0.96718 0.84150 0.20459
 C1238 C 0.95678 0.83420 0.18343
 C1239 C 0.93655 0.84671 0.17525
 C1240 C 0.92676 0.86565 0.18803
 H1241 H 0.89582 0.94539 0.21327
 H1242 H 0.91916 0.91291 0.27896
 H1243 H 0.98259 0.83217 0.21164
 H1244 H 0.92825 0.84204 0.15882
 H1245 H 0.93597 0.87940 0.25726
 H1246 H 0.96640 0.86613 0.23313
 H1247 H 0.91459 0.91317 0.19154
 H1248 H 0.91082 0.87431 0.18141
 C1249 C 0.42699 0.39589 0.71808
 C1250 C 0.41497 0.41439 0.70580
 C1251 C 0.40397 0.43314 0.71798
 C1252 C 0.40507 0.43419 0.74277
 C1253 C 0.41754 0.41597 0.75501
 C1254 C 0.42814 0.39698 0.74286
 C1255 C 0.43784 0.37533 0.70516
 C1256 C 0.45845 0.36365 0.71356
 C1257 C 0.46810 0.34388 0.70184
 C1258 C 0.45764 0.33548 0.68114
 C1259 C 0.43731 0.34748 0.67249
 C1260 C 0.42742 0.36694 0.68445
 H1261 H 0.39431 0.44662 0.70790
 H1262 H 0.41918 0.41634 0.77405
 H1263 H 0.48359 0.33501 0.70925
 H1264 H 0.42898 0.34196 0.65636
 H1265 H 0.43690 0.38297 0.75303
 H1266 H 0.46726 0.36978 0.72919
 H1267 H 0.41405 0.41449 0.68671
 H1268 H 0.41136 0.37514 0.67756
 C1269 C 0.41535 0.62107 0.78419
 C1270 C 0.40391 0.60350 0.79712
 C1271 C 0.39402 0.58441 0.78566
 C1272 C 0.39547 0.58227 0.76098
 C1273 C 0.40688 0.59984 0.74803
 C1274 C 0.41662 0.61904 0.75948
 C1275 C 0.42612 0.64120 0.79651
 C1276 C 0.44760 0.65007 0.78877
 C1277 C 0.45813 0.66838 0.80097
 C1278 C 0.44753 0.67803 0.82127
 C1279 C 0.42590 0.66949 0.82878
 C1280 C 0.41526 0.65138 0.81649
 H1281 H 0.38512 0.57137 0.79616
 H1282 H 0.40859 0.59860 0.72903
 H1283 H 0.47494 0.67448 0.79496
 H1284 H 0.41719 0.67688 0.84419
 H1285 H 0.42505 0.63238 0.74894
 H1286 H 0.45663 0.64244 0.77367
 H1287 H 0.40289 0.60428 0.81619
 H1288 H 0.39848 0.64537 0.82263
 C1289 C -0.07754 0.11828 0.29123
 C1290 C -0.06636 0.09569 0.29139
 C1291 C -0.07626 0.07685 0.27954
 C1292 C -0.09760 0.08015 0.26729
 C1293 C -0.10874 0.10279 0.26704
 C1294 C -0.09879 0.12166 0.27885
 C1295 C -0.06717 0.13814 0.30420
 C1296 C -0.06688 0.16100 0.29417
 C1297 C -0.05703 0.17963 0.30647
 C1298 C -0.04742 0.17581 0.32911
 C1299 C -0.04773 0.15295 0.33910
 C1300 C -0.05747 0.13433 0.32678
 H1301 H -0.06702 0.05975 0.27969
 H1302 H -0.12535 0.10581 0.25802
 H1303 H -0.05717 0.19709 0.29840
 H1304 H -0.04020 0.14939 0.35639
 H1305 H -0.10796 0.13880 0.27869
 H1306 H -0.07405 0.16441 0.27670
 H1307 H -0.04978 0.09265 0.30046
 H1308 H -0.05764 0.11698 0.33506
 C1309 C 0.07668 0.38638 0.28424
 C1310 C 0.06850 0.41001 0.28709
 C1311 C 0.07884 0.42846 0.27474
 C1312 C 0.09790 0.42387 0.25949
 C1313 C 0.10618 0.40027 0.25677
 C1314 C 0.09559 0.38178 0.26880
 C1315 C 0.06568 0.36670 0.29745
 C1316 C 0.07930 0.34694 0.30537
 C1317 C 0.06905 0.32862 0.31799
 C1318 C 0.04496 0.32972 0.32341
 C1319 C 0.03132 0.34945 0.31543
 C1320 C 0.04149 0.36758 0.30246
 H1321 H 0.07172 0.44633 0.27705
 H1322 H 0.12106 0.39603 0.24550
 H1323 H 0.08009 0.31357 0.32344
 H1324 H 0.01279 0.35116 0.31952
 H1325 H 0.10218 0.36383 0.26582
 H1326 H 0.09803 0.34573 0.30218
 H1327 H 0.05425 0.41436 0.29909
 H1328 H 0.03032 0.38226 0.29633
 C1329 C 0.57641 0.88864 0.78685
 C1330 C 0.56888 0.91247 0.78962
 C1331 C 0.58007 0.93062 0.77761
 C1332 C 0.59936 0.92548 0.76279
 C1333 C 0.60697 0.90167 0.76014
 C1334 C 0.59552 0.88350 0.77181
 C1335 C 0.56458 0.86926 0.79974
 C1336 C 0.57753 0.84907 0.80771
 C1337 C 0.56653 0.83087 0.81977
 C1338 C 0.54233 0.83251 0.82467
 C1339 C 0.52937 0.85272 0.81676
 C1340 C 0.54031 0.87075 0.80431
 H1341 H 0.57345 0.94867 0.77983
 H1342 H 0.62198 0.89698 0.74922
 H1343 H 0.57707 0.81544 0.82516
 H1344 H 0.51079 0.85484 0.82044
 H1345 H 0.60162 0.86539 0.76886
 H1346 H 0.59629 0.84737 0.80491
 H1347 H 0.55447 0.91721 0.80130
 H1348 H 0.52965 0.88580 0.79815
 C1349 C 0.72059 0.57905 0.11087
 C1350 C 0.74518 0.57887 0.11026
 C1351 C 0.75688 0.59019 0.09189
 C1352 C 0.74425 0.60173 0.07334
 C1353 C 0.71947 0.60149 0.07407
 C1354 C 0.70787 0.59047 0.09262
 C1355 C 0.70810 0.56748 0.13050
 C1356 C 0.68907 0.57930 0.14153
 C1357 C 0.67675 0.56823 0.15956
 C1358 C 0.68301 0.54495 0.16680
 C1359 C 0.70230 0.53325 0.15592
 C1360 C 0.71479 0.54446 0.13803
 H1361 H 0.77586 0.58893 0.09193
 H1362 H 0.70876 0.61070 0.06089
 H1363 H 0.66237 0.57799 0.16792
 H1364 H 0.70741 0.51522 0.16083
 H1365 H 0.68886 0.59079 0.09266
 H1366 H 0.68382 0.59721 0.13629
 H1367 H 0.75539 0.57012 0.12415
 H1368 H 0.72930 0.53491 0.12964
 C1369 C 0.22741 1.07401 0.60798
 C1370 C 0.23858 1.09551 0.61150
 C1371 C 0.25062 1.10622 0.59300
 C1372 C 0.25144 1.09578 0.57056
 C1373 C 0.24053 1.07413 0.56712
 C1374 C 0.22874 1.06328 0.58569
 C1375 C 0.21359 1.06328 0.62718
 C1376 C 0.21565 1.03884 0.63201
 C1377 C 0.20187 1.02867 0.64956
 C1378 C 0.18557 1.04272 0.66233
 C1379 C 0.18369 1.06719 0.65763
 C1380 C 0.19765 1.07739 0.64032
 H1381 H 0.25877 1.12298 0.59605
 H1382 H 0.24108 1.06564 0.55002
 H1383 H 0.20356 1.00974 0.65278
 H1384 H 0.17138 1.07843 0.66737
 H1385 H 0.22012 1.04680 0.58247
 H1386 H 0.22791 1.02761 0.62221
 H1387 H 0.23793 1.10406 0.62856
 H1388 H 0.19559 1.09624 0.63681
 C1389 C 0.20840 0.91906 0.88082
 C1390 C 0.20399 0.92806 0.90358
 C1391 C 0.21536 0.91809 0.92335
 C1392 C 0.23104 0.89843 0.92107
 C1393 C 0.23495 0.88902 0.89840
 C1394 C 0.22407 0.89937 0.87856
 C1395 C 0.19688 0.93022 0.85959
 C1396 C 0.19158 0.91660 0.83968
 C1397 C 0.18104 0.92712 0.81973
 C1398 C 0.17487 0.95149 0.81928
 C1399 C 0.18002 0.96508 0.83926
 C1400 C 0.19113 0.95468 0.85895
 H1401 H 0.21208 0.92613 0.94038
 H1402 H 0.24646 0.87359 0.89587
 H1403 H 0.17784 0.91603 0.80464
 H1404 H 0.17522 0.98378 0.83994
 H1405 H 0.22830 0.89206 0.86142
 H1406 H 0.19530 0.89767 0.83949
 H1407 H 0.19169 0.94282 0.90625
 H1408 H 0.19530 0.96597 0.87363
 C1409 C 0.71389 0.41883 0.38728
 C1410 C 0.72939 0.39898 0.38542
 C1411 C 0.74012 0.38893 0.40549
 C1412 C 0.73609 0.39874 0.42796
 C1413 C 0.72057 0.41856 0.42984
 C1414 C 0.70943 0.42829 0.40983
 C1415 C 0.70253 0.42967 0.36585
 C1416 C 0.69745 0.45423 0.36460
 C1417 C 0.68635 0.46435 0.34477
 C1418 C 0.68048 0.45032 0.32533
 C1419 C 0.68601 0.42583 0.32638
 C1420 C 0.69663 0.41562 0.34644
 H1421 H 0.75156 0.37339 0.40330
 H1422 H 0.71723 0.42688 0.44672
 H1423 H 0.68207 0.48318 0.34493
 H1424 H 0.68219 0.41444 0.31168
 H1425 H 0.69725 0.44323 0.41215
 H1426 H 0.70211 0.46577 0.37890
 H1427 H 0.73359 0.39133 0.36841
 H1428 H 0.69990 0.39662 0.34678
 C1429 C 0.77350 0.42564 0.61401
 C1430 C 0.77050 0.43724 0.59207
 C1431 C 0.75898 0.42632 0.57352
 C1432 C 0.74991 0.40369 0.57653
 C1433 C 0.75236 0.39226 0.59855
 C1434 C 0.76415 0.40306 0.61706
 C1435 C 0.78681 0.43685 0.63336
 C1436 C 0.78019 0.43403 0.65712
 C1437 C 0.79312 0.44413 0.67524
 C1438 C 0.81293 0.45742 0.67005
 C1439 C 0.81932 0.46051 0.64627
 C1440 C 0.80653 0.45026 0.62820
 H1441 H 0.75699 0.43565 0.55681
 H1442 H 0.74570 0.37470 0.60124
 H1443 H 0.78782 0.44117 0.69335
 H1444 H 0.83421 0.47096 0.64155
 H1445 H 0.76642 0.39345 0.63357
 H1446 H 0.76492 0.42409 0.66174
 H1447 H 0.77698 0.45483 0.58922
 H1448 H 0.81238 0.45255 0.61017
 C1449 C 0.27192 -0.07403 0.10609
 C1450 C 0.26144 -0.09599 0.10963
 C1451 C 0.24942 -0.10673 0.09125
 C1452 C 0.24773 -0.09582 0.06890
 C1453 C 0.25806 -0.07384 0.06538
 C1454 C 0.26994 -0.06303 0.08377
 C1455 C 0.28520 -0.06284 0.12544
 C1456 C 0.30595 -0.05098 0.12053
 C1457 C 0.31865 -0.04071 0.13867
 C1458 C 0.31104 -0.04218 0.16224
 C1459 C 0.29022 -0.05392 0.16716
 C1460 C 0.27743 -0.06410 0.14898
 H1461 H 0.24187 -0.12382 0.09436
 H1462 H 0.25673 -0.06489 0.04841
 H1463 H 0.33441 -0.03151 0.13417
 H1464 H 0.28397 -0.05558 0.18513
 H1465 H 0.27740 -0.04592 0.08055
 H1466 H 0.31260 -0.04990 0.10266
 H1467 H 0.26295 -0.10514 0.12646
 H1468 H 0.26138 -0.07285 0.15335
 C1469 C 0.28057 0.08092 0.38341
 C1470 C 0.26606 0.10148 0.38101
 C1471 C 0.25610 0.11245 0.40085
 C1472 C 0.26011 0.10296 0.42360
 C1473 C 0.27451 0.08233 0.42597
 C1474 C 0.28474 0.07157 0.40619
 C1475 C 0.29153 0.06939 0.36234
 C1476 C 0.29501 0.04461 0.36144
 C1477 C 0.30619 0.03388 0.34211
 C1478 C 0.31389 0.04762 0.32299
 C1479 C 0.30984 0.07234 0.32361
 C1480 C 0.29899 0.08310 0.34309
 H1481 H 0.24538 0.12849 0.39833
 H1482 H 0.27769 0.07425 0.44313
 H1483 H 0.30922 0.01484 0.34246
 H1484 H 0.31511 0.08349 0.30905
 H1485 H 0.29613 0.05602 0.40883
 H1486 H 0.28912 0.03341 0.37570
 H1487 H 0.26216 0.10904 0.36377
 H1488 H 0.29689 0.10223 0.34321
 C1489 C 0.78240 0.57977 0.88960
 C1490 C 0.76657 0.59913 0.88586
 C1491 C 0.75540 0.61038 0.90489
 C1492 C 0.75945 0.60236 0.92816
 C1493 C 0.77518 0.58292 0.93190
 C1494 C 0.78662 0.57189 0.91290
 C1495 C 0.79456 0.56800 0.86932
 C1496 C 0.79960 0.54341 0.86959
 C1497 C 0.81143 0.53249 0.85075
 C1498 C 0.81827 0.54581 0.83098
 C1499 C 0.81287 0.57032 0.83055
 C1500 C 0.80136 0.58129 0.84953
 H1501 H 0.74369 0.62550 0.90131
 H1502 H 0.77848 0.57599 0.94952
 H1503 H 0.81552 0.51364 0.85189
 H1504 H 0.81747 0.58113 0.81549
 H1505 H 0.79895 0.55729 0.91654
 H1506 H 0.79431 0.53251 0.88433
 H1507 H 0.76258 0.60551 0.86819
 H1508 H 0.79811 0.60029 0.84877
 C1509 C 0.11636 0.71054 0.58094
 C1510 C 0.11894 0.72142 0.60300
 C1511 C 0.09962 0.73232 0.61422
 C1512 C 0.07728 0.73262 0.60363
 C1513 C 0.07461 0.72131 0.58182
 C1514 C 0.09391 0.71038 0.57062
 C1515 C 0.13702 0.69975 0.56852
 C1516 C 0.13931 0.70230 0.54392
 C1517 C 0.15843 0.69178 0.53209
 C1518 C 0.17576 0.67853 0.54457
 C1519 C 0.17374 0.67633 0.56922
 C1520 C 0.15456 0.68680 0.58107
 H1521 H 0.10219 0.74066 0.63115
 H1522 H 0.05770 0.72142 0.57308
 H1523 H 0.15971 0.69409 0.51313
 H1524 H 0.18665 0.66594 0.57927
 H1525 H 0.09126 0.70182 0.55382
 H1526 H 0.12639 0.71260 0.53380
 H1527 H 0.13601 0.72200 0.61135
 H1528 H 0.15317 0.68428 0.59999
 C1529 C 0.61293 0.21370 1.07867
 C1530 C 0.61447 0.22114 1.10227
 C1531 C 0.59538 0.23276 1.11320
 C1532 C 0.57424 0.23696 1.10087
 C1533 C 0.57257 0.22945 1.07737
 C1534 C 0.59174 0.21808 1.06634
 C1535 C 0.63322 0.20121 1.06706
 C1536 C 0.62957 0.18276 1.05105
 C1537 C 0.64857 0.17073 1.04043
 C1538 C 0.67176 0.17660 1.04574
 C1539 C 0.67544 0.19519 1.06158
 C1540 C 0.65640 0.20740 1.07203
 H1541 H 0.59702 0.23819 1.13142
 H1542 H 0.55656 0.23279 1.06739
 H1543 H 0.64502 0.15682 1.02801
 H1544 H 0.69304 0.20006 1.06627
 H1545 H 0.59004 0.21303 1.04803
 H1546 H 0.61201 0.17729 1.04699
 H1547 H 0.63031 0.21767 1.11247
 H1548 H 0.65989 0.22176 1.08397
 C1549 C 0.89085 0.21281 0.92611
 C1550 C 0.89073 0.23774 0.92538
 C1551 C 0.90905 0.24961 0.91458
 C1552 C 0.92778 0.23688 0.90384
 C1553 C 0.92788 0.21196 0.90455
 C1554 C 0.90981 0.20011 0.91573
 C1555 C 0.87117 0.20009 0.93729
 C1556 C 0.86401 0.17841 0.92811
 C1557 C 0.84565 0.16637 0.93850
 C1558 C 0.83349 0.17588 0.95807
 C1559 C 0.84057 0.19760 0.96724
 C1560 C 0.85927 0.20946 0.95709
 H1561 H 0.90854 0.26880 0.91482
 H1562 H 0.94180 0.20151 0.89623
 H1563 H 0.84114 0.14945 0.93119
 H1564 H 0.83152 0.20565 0.98211
 H1565 H 0.91084 0.18093 0.91629
 H1566 H 0.87240 0.17075 0.91268
 H1567 H 0.87633 0.24818 0.93287
 H1568 H 0.86447 0.22591 0.96492
 C1569 C 0.39393 0.71799 0.42120
 C1570 C 0.39296 0.74286 0.41897
 C1571 C 0.41140 0.75482 0.40847
 C1572 C 0.43110 0.74222 0.39940
 C1573 C 0.43200 0.71736 0.40155
 C1574 C 0.41390 0.70547 0.41259
 C1575 C 0.37413 0.70507 0.43200
 C1576 C 0.36891 0.68221 0.42429
 C1577 C 0.35055 0.66994 0.43435
 C1578 C 0.33627 0.68038 0.45197
 C1579 C 0.34137 0.70330 0.45964
 C1580 C 0.36018 0.71538 0.44997
 H1581 H 0.41017 0.77398 0.40761
 H1582 H 0.44658 0.70687 0.39446
 H1583 H 0.34772 0.65213 0.42829
 H1584 H 0.33070 0.71212 0.47295
 H1585 H 0.41569 0.68640 0.41438
 H1586 H 0.37881 0.67373 0.41021
 H1587 H 0.37781 0.75319 0.42502
 H1588 H 0.36381 0.73275 0.45674
 C1589 C 0.61532 0.78196 0.42042
 C1590 C 0.61718 0.77328 0.39729
 C1591 C 0.59838 0.76196 0.38691
 C1592 C 0.57726 0.75954 0.39931
 C1593 C 0.57530 0.76845 0.42234
 C1594 C 0.59426 0.77938 0.43290
 C1595 C 0.63519 0.79402 0.43137
 C1596 C 0.64313 0.78747 0.45408
 C1597 C 0.66171 0.79914 0.46450
 C1598 C 0.67231 0.81786 0.45256
 C1599 C 0.66439 0.82436 0.42985
 C1600 C 0.64613 0.81239 0.41926
 H1601 H 0.60023 0.75529 0.36909
 H1602 H 0.55922 0.76663 0.43227
 H1603 H 0.66746 0.79395 0.48209
 H1604 H 0.67238 0.83869 0.42029
 H1605 H 0.59239 0.78610 0.45069
 H1606 H 0.63501 0.77325 0.46368
 H1607 H 0.63328 0.77502 0.38738
 H1608 H 0.64022 0.81781 0.40178
 C1609 C 0.11167 0.27984 -0.07783
 C1610 C 0.09114 0.27662 -0.06464
 C1611 C 0.07222 0.26504 -0.07451
 C1612 C 0.07370 0.25613 -0.09757
 C1613 C 0.09427 0.25923 -0.11070
 C1614 C 0.11302 0.27115 -0.10099
 C1615 C 0.13151 0.29255 -0.06762
 C1616 C 0.14182 0.31087 -0.08042
 C1617 C 0.16014 0.32334 -0.07061
 C1618 C 0.16874 0.31748 -0.04798
 C1619 C 0.15876 0.29885 -0.03535
 C1620 C 0.14014 0.28662 -0.04500
 H1621 H 0.05656 0.26273 -0.06404
 H1622 H 0.09572 0.25261 -0.12857
 H1623 H 0.16766 0.33757 -0.08072
 H1624 H 0.16503 0.29413 -0.01781
 H1625 H 0.12870 0.27336 -0.11145
 H1626 H 0.13538 0.31583 -0.09783
 H1627 H 0.08965 0.28335 -0.04682
 H1628 H 0.13254 0.27244 -0.03489
 C1629 C 0.39259 0.28553 0.06664
 C1630 C 0.39394 0.26059 0.06678
 C1631 C 0.41232 0.24825 0.07835
 C1632 C 0.42965 0.26047 0.09055
 C1633 C 0.42853 0.28540 0.09009
 C1634 C 0.41040 0.29775 0.07811
 C1635 C 0.37228 0.29867 0.05540
 C1636 C 0.36342 0.32002 0.06513
 C1637 C 0.34393 0.33200 0.05520
 C1638 C 0.33233 0.32275 0.03553
 C1639 C 0.34130 0.30153 0.02561
 C1640 C 0.36112 0.28975 0.03530
 H1641 H 0.41283 0.22907 0.07780
 H1642 H 0.44136 0.29549 0.09943
 H1643 H 0.33798 0.34857 0.06305
 H1644 H 0.33279 0.29371 0.01061
 H1645 H 0.41033 0.31693 0.07801
 H1646 H 0.37122 0.32735 0.08078
 H1647 H 0.38049 0.25047 0.05843
 H1648 H 0.36762 0.27361 0.02700
 C1649 C 0.89485 0.78163 0.57073
 C1650 C 0.89619 0.75669 0.57088
 C1651 C 0.91466 0.74436 0.58235
 C1652 C 0.93210 0.75661 0.59435
 C1653 C 0.93095 0.78154 0.59390
 C1654 C 0.91272 0.79387 0.58208
 C1655 C 0.87452 0.79479 0.55956
 C1656 C 0.86562 0.81605 0.56944
 C1657 C 0.84620 0.82815 0.55950
 C1658 C 0.83474 0.81912 0.53965
 C1659 C 0.84372 0.79796 0.52960
 C1660 C 0.86343 0.78604 0.53934
 H1661 H 0.91518 0.72518 0.58184
 H1662 H 0.94386 0.79164 0.60312
 H1663 H 0.84022 0.84465 0.56746
 H1664 H 0.83529 0.79033 0.51444
 H1665 H 0.91262 0.81305 0.58197
 H1666 H 0.87336 0.82324 0.58519
 H1667 H 0.88268 0.74658 0.56261
 H1668 H 0.86997 0.76994 0.53097
   
