data_POSCAR
  _audit_creation_date              2014-09-24
  _audit_creation_method            'ToBaCCo'
  _symmetry_space_group_name_H-M    'P1'
  _symmetry_Int_Tables_number       1
  _symmetry_cell_setting            triclinic
  loop_
  _symmetry_equiv_pos_as_xyz
 x,y,z
_cell_length_a 72.8581
_cell_length_b 72.4627
_cell_length_c 78.8541
_cell_angle_alpha 90.072400
_cell_angle_beta 90.434900
_cell_angle_gamma 90.142500
loop_
  _atom_site_label
  _atom_site_type_symbol
  _atom_site_fract_x
  _atom_site_fract_y
  _atom_site_fract_z
C1 C 0.39903 -0.02614 0.24874
 C2 C 0.40721 -0.00932 0.24410
 C3 C 0.41586 -0.00766 0.22840
 C4 C 0.41703 -0.02284 0.21744
 C5 C 0.40902 -0.03969 0.22234
 C6 C 0.39936 -0.04160 0.23777
 C7 C 0.40687 0.00660 0.25579
 C8 C 0.41573 0.00543 0.27160
 C9 C 0.41590 0.02047 0.28303
 C10 C 0.40631 0.03661 0.27810
 C11 C 0.39697 0.03778 0.26245
 C12 C 0.39767 0.02281 0.25120
 H13 H 0.39169 -0.02653 0.26060
 H14 H 0.42178 0.00549 0.22482
 H15 H 0.42204 -0.00758 0.27491
 H16 H 0.39048 0.02347 0.23913
 H17 H 0.41116 -0.05151 0.21424
 H18 H 0.40653 0.04880 0.28601
 C19 C 0.10399 -0.02471 0.74789
 C20 C 0.09546 -0.00807 0.75243
 C21 C 0.08653 -0.00663 0.76806
 C22 C 0.08551 -0.02181 0.77907
 C23 C 0.09396 -0.03845 0.77424
 C24 C 0.10366 -0.03997 0.75890
 C25 C 0.09551 0.00787 0.74075
 C26 C 0.08681 0.00645 0.72488
 C27 C 0.08572 0.02173 0.71380
 C28 C 0.09401 0.03845 0.71923
 C29 C 0.10341 0.03991 0.73487
 C30 C 0.10381 0.02453 0.74567
 H31 H 0.11133 -0.02548 0.73601
 H32 H 0.08034 0.00640 0.77156
 H33 H 0.08124 -0.00685 0.72128
 H34 H 0.11092 0.02527 0.75776
 H35 H 0.09276 -0.05040 0.78238
 H36 H 0.09250 0.05082 0.71173
 C37 C 0.60380 0.47778 0.25089
 C38 C 0.59507 0.49425 0.25564
 C39 C 0.58630 0.49543 0.27137
 C40 C 0.58570 0.48012 0.28226
 C41 C 0.59431 0.46366 0.27721
 C42 C 0.60382 0.46243 0.26178
 C43 C 0.59503 0.51026 0.24410
 C44 C 0.58635 0.50890 0.22822
 C45 C 0.58599 0.52401 0.21707
 C46 C 0.59503 0.54042 0.22193
 C47 C 0.60419 0.54184 0.23766
 C48 C 0.60375 0.52678 0.24886
 H49 H 0.61102 0.47721 0.23894
 H50 H 0.57993 0.50831 0.27506
 H51 H 0.57993 0.49597 0.22460
 H52 H 0.61083 0.52761 0.26097
 H53 H 0.59342 0.45163 0.28529
 H54 H 0.59482 0.55225 0.21355
 C55 C 0.89611 0.47730 0.75150
 C56 C 0.90487 0.49379 0.74680
 C57 C 0.91345 0.49507 0.73098
 C58 C 0.91386 0.47984 0.71995
 C59 C 0.90522 0.46335 0.72494
 C60 C 0.89590 0.46201 0.74049
 C61 C 0.90533 0.50973 0.75848
 C62 C 0.91435 0.50824 0.77419
 C63 C 0.91573 0.52347 0.78535
 C64 C 0.90745 0.54021 0.78015
 C65 C 0.89771 0.54173 0.76470
 C66 C 0.89702 0.52641 0.75381
 H67 H 0.88905 0.47666 0.76353
 H68 H 0.91984 0.50797 0.72735
 H69 H 0.91988 0.49491 0.77762
 H70 H 0.88962 0.52720 0.74186
 H71 H 0.90598 0.45137 0.71676
 H72 H 0.90916 0.55256 0.78769
 C73 C 0.25308 0.34768 1.02322
 C74 C 0.25608 0.35756 1.00817
 C75 C 0.27278 0.36689 1.00580
 C76 C 0.28647 0.36645 1.01840
 C77 C 0.28355 0.35588 1.03305
 C78 C 0.26684 0.34644 1.03595
 C79 C 0.24173 0.35797 0.99478
 C80 C 0.22525 0.36767 0.99730
 C81 C 0.21188 0.36854 0.98432
 C82 C 0.21508 0.35918 0.96902
 C83 C 0.23126 0.34918 0.96649
 C84 C 0.24460 0.34865 0.97940
 H85 H 0.23978 0.34132 1.02484
 H86 H 0.27488 0.37481 0.99433
 H87 H 0.22310 0.37492 1.00914
 H88 H 0.25724 0.34110 0.97745
 H89 H 0.29499 0.35448 1.04173
 H90 H 0.20472 0.35932 0.95907
 C91 C 0.74864 0.15144 1.02368
 C92 C 0.74550 0.14167 1.00852
 C93 C 0.72909 0.13174 1.00624
 C94 C 0.71583 0.13145 1.01907
 C95 C 0.71889 0.14183 1.03387
 C96 C 0.73530 0.15191 1.03667
 C97 C 0.75927 0.14235 0.99481
 C98 C 0.77591 0.13264 0.99630
 C99 C 0.78906 0.13352 0.98331
 C100 C 0.78555 0.14475 0.96913
 C101 C 0.76914 0.15476 0.96759
 C102 C 0.75591 0.15323 0.98040
 H103 H 0.76170 0.15838 1.02517
 H104 H 0.72683 0.12404 0.99463
 H105 H 0.77839 0.12416 1.00738
 H106 H 0.74322 0.16095 0.97944
 H107 H 0.70771 0.14265 1.04274
 H108 H 0.79571 0.14574 0.95921
 C109 C 0.24632 0.64921 0.51997
 C110 C 0.24327 0.63927 0.50488
 C111 C 0.22702 0.62888 0.50285
 C112 C 0.21411 0.62797 0.51603
 C113 C 0.21749 0.63793 0.53101
 C114 C 0.23343 0.64859 0.53308
 C115 C 0.25709 0.63992 0.49124
 C116 C 0.27358 0.62996 0.49276
 C117 C 0.28691 0.63085 0.47994
 C118 C 0.28369 0.64227 0.46584
 C119 C 0.26743 0.65255 0.46428
 C120 C 0.25405 0.65106 0.47696
 H121 H 0.25878 0.65727 0.52154
 H122 H 0.22467 0.62124 0.49121
 H123 H 0.27584 0.62132 0.50378
 H124 H 0.24150 0.65901 0.47603
 H125 H 0.20742 0.63773 0.54106
 H126 H 0.29397 0.64326 0.45603
 C127 C 0.75519 0.84800 0.52305
 C128 C 0.75864 0.85767 0.50805
 C129 C 0.77551 0.86689 0.50599
 C130 C 0.78893 0.86706 0.51912
 C131 C 0.78492 0.85724 0.53413
 C132 C 0.76835 0.84768 0.53604
 C133 C 0.74450 0.85818 0.49452
 C134 C 0.72805 0.86800 0.49691
 C135 C 0.71479 0.86892 0.48386
 C136 C 0.71802 0.85947 0.46863
 C137 C 0.73421 0.84942 0.46618
 C138 C 0.74746 0.84886 0.47916
 H139 H 0.74229 0.84074 0.52461
 H140 H 0.77755 0.87464 0.49444
 H141 H 0.72586 0.87529 0.50873
 H142 H 0.76010 0.84129 0.47730
 H143 H 0.79499 0.85603 0.54422
 H144 H 0.70770 0.85962 0.45866
 C145 C -0.02783 0.25485 0.36411
 C146 C -0.01181 0.24505 0.36808
 C147 C -0.01310 0.22657 0.37307
 C148 C -0.03020 0.21768 0.37441
 C149 C -0.04614 0.22797 0.37088
 C150 C -0.04522 0.24656 0.36565
 C151 C 0.00631 0.25434 0.36808
 C152 C 0.00814 0.27222 0.37470
 C153 C 0.02538 0.28075 0.37575
 C154 C 0.04091 0.27122 0.37027
 C155 C 0.03934 0.25334 0.36361
 C156 C 0.02199 0.24503 0.36237
 H157 H -0.02664 0.26918 0.36045
 H158 H -0.00069 0.21954 0.37699
 H159 H -0.00376 0.27931 0.37965
 H160 H 0.02075 0.23125 0.35714
 H161 H -0.05926 0.22097 0.37072
 H162 H 0.05422 0.27793 0.37081
 C163 C -0.02369 0.74398 0.13566
 C164 C -0.00705 0.75172 0.13024
 C165 C -0.00718 0.76871 0.12182
 C166 C -0.02367 0.77798 0.11877
 C167 C -0.04021 0.77000 0.12393
 C168 C -0.04054 0.75292 0.13249
 C169 C 0.01046 0.74175 0.13266
 C170 C 0.01138 0.72276 0.12935
 C171 C 0.02822 0.71322 0.13009
 C172 C 0.04414 0.72329 0.13438
 C173 C 0.04336 0.74225 0.13782
 C174 C 0.02649 0.75137 0.13714
 H175 H -0.02339 0.73069 0.14189
 H176 H 0.00555 0.77456 0.11724
 H177 H -0.00092 0.71583 0.12490
 H178 H 0.02591 0.76603 0.13981
 H179 H -0.05267 0.77790 0.12220
 H180 H 0.05720 0.71636 0.13581
 C181 C 0.47097 0.24748 0.64144
 C182 C 0.48672 0.25712 0.63640
 C183 C 0.48523 0.27556 0.63128
 C184 C 0.46808 0.28429 0.63080
 C185 C 0.45242 0.27448 0.63574
 C186 C 0.45378 0.25608 0.64110
 C187 C 0.50452 0.24759 0.63537
 C188 C 0.50555 0.23041 0.62728
 C189 C 0.52241 0.22145 0.62567
 C190 C 0.53834 0.22967 0.63219
 C191 C 0.53758 0.24705 0.64001
 C192 C 0.52059 0.25592 0.64168
 H193 H 0.47205 0.23320 0.64539
 H194 H 0.49730 0.28282 0.62686
 H195 H 0.49327 0.22410 0.62198
 H196 H 0.51989 0.26935 0.64770
 H197 H 0.43919 0.28127 0.63565
 H198 H 0.55135 0.22260 0.63093
 C199 C 0.47953 0.75255 0.85633
 C200 C 0.49568 0.74520 0.86325
 C201 C 0.49525 0.72794 0.87121
 C202 C 0.47890 0.71763 0.87210
 C203 C 0.46293 0.72504 0.86467
 C204 C 0.46307 0.74259 0.85717
 C205 C 0.51298 0.75579 0.86297
 C206 C 0.51329 0.77421 0.86839
 C207 C 0.52996 0.78383 0.86977
 C208 C 0.54629 0.77496 0.86532
 C209 C 0.54616 0.75654 0.85988
 C210 C 0.52945 0.74706 0.85860
 H211 H 0.47971 0.76609 0.85052
 H212 H 0.50789 0.72249 0.87647
 H213 H 0.50067 0.78072 0.87242
 H214 H 0.52928 0.73276 0.85455
 H215 H 0.45002 0.71766 0.86544
 H216 H 0.55916 0.78246 0.86603
 C217 C -0.27629 0.64319 0.99920
 C218 C -0.25944 0.65112 1.00409
 C219 C -0.25772 0.65994 1.01981
 C220 C -0.27283 0.66151 1.03056
 C221 C -0.28970 0.65376 1.02545
 C222 C -0.29171 0.64392 1.01000
 C223 C -0.24347 0.65050 0.99271
 C224 C -0.24400 0.66003 0.97725
 C225 C -0.22847 0.66085 0.96664
 C226 C -0.21251 0.65136 0.97205
 C227 C -0.21199 0.64119 0.98725
 C228 C -0.22752 0.64110 0.99764
 H229 H -0.27677 0.63575 0.98732
 H230 H -0.24455 0.66566 1.02357
 H231 H -0.25678 0.66654 0.97363
 H232 H -0.22742 0.63347 1.00945
 H233 H -0.30144 0.65624 1.03342
 H234 H -0.19994 0.65255 0.96495
 C235 C -0.27597 0.35557 0.49945
 C236 C -0.25917 0.34765 0.49477
 C237 C -0.25748 0.33909 0.47894
 C238 C -0.27259 0.33770 0.46790
 C239 C -0.28942 0.34549 0.47284
 C240 C -0.29140 0.35506 0.48842
 C241 C -0.24334 0.34783 0.50662
 C242 C -0.24480 0.33917 0.52245
 C243 C -0.22961 0.33816 0.53350
 C244 C -0.21296 0.34635 0.52852
 C245 C -0.21140 0.35580 0.51297
 C246 C -0.22669 0.35615 0.50196
 H247 H -0.27641 0.36281 0.51143
 H248 H -0.24435 0.33334 0.47536
 H249 H -0.25780 0.33309 0.52605
 H250 H -0.22589 0.36328 0.48992
 H251 H -0.30116 0.34319 0.46467
 H252 H -0.20102 0.34509 0.53668
 C253 C 0.22777 -0.14378 -0.00090
 C254 C 0.24401 -0.15283 -0.00539
 C255 C 0.24520 -0.16191 -0.02106
 C256 C 0.23011 -0.16251 -0.03241
 C257 C 0.21383 -0.15344 -0.02743
 C258 C 0.21265 -0.14369 -0.01203
 C259 C 0.25993 -0.15293 0.00630
 C260 C 0.25877 -0.16220 0.02185
 C261 C 0.27405 -0.16336 0.03294
 C262 C 0.29049 -0.15452 0.02787
 C263 C 0.29166 -0.14455 0.01257
 C264 C 0.27629 -0.14411 0.00174
 H265 H 0.22718 -0.13638 0.01103
 H266 H 0.25821 -0.16804 -0.02436
 H267 H 0.24565 -0.16812 0.02519
 H268 H 0.27681 -0.13657 -0.01010
 H269 H 0.20156 -0.15449 -0.03515
 H270 H 0.30287 -0.15599 0.03536
 C271 C 0.22657 1.14177 0.49906
 C272 C 0.24301 1.15036 0.50415
 C273 C 0.24420 1.15900 0.52003
 C274 C 0.22892 1.15965 0.53075
 C275 C 0.21247 1.15118 0.52540
 C276 C 0.21121 1.14180 0.50977
 C277 C 0.25889 1.15091 0.49266
 C278 C 0.25747 1.16033 0.47720
 C279 C 0.27266 1.16196 0.46626
 C280 C 0.28927 1.15347 0.47140
 C281 C 0.29070 1.14335 0.48660
 C282 C 0.27544 1.14245 0.49732
 H283 H 0.22597 1.13471 0.48695
 H284 H 0.25705 1.16532 0.52393
 H285 H 0.24424 1.16598 0.47377
 H286 H 0.27619 1.13479 0.50909
 H287 H 0.20047 1.15216 0.53335
 H288 H 0.30158 1.15530 0.46403
 C289 C 0.09743 0.50405 0.23150
 C290 C 0.10857 0.50734 0.24577
 C291 C 0.11834 0.52405 0.24715
 C292 C 0.11726 0.53737 0.23417
 C293 C 0.10583 0.53389 0.22008
 C294 C 0.09576 0.51739 0.21866
 C295 C 0.10949 0.49342 0.25944
 C296 C 0.11981 0.47720 0.25735
 C297 C 0.12057 0.46383 0.27031
 C298 C 0.11065 0.46691 0.28528
 C299 C 0.10003 0.48286 0.28735
 C300 C 0.09952 0.49610 0.27440
 H301 H 0.08965 0.49131 0.23067
 H302 H 0.12701 0.52649 0.25816
 H303 H 0.12741 0.47516 0.24575
 H304 H 0.09137 0.50848 0.27595
 H305 H 0.10470 0.54414 0.21014
 H306 H 0.11068 0.45658 0.29520
 C307 C -0.09908 1.00045 0.22214
 C308 C -0.10874 0.99723 0.23718
 C309 C -0.11897 0.98092 0.23907
 C310 C -0.11979 0.96764 0.22596
 C311 C -0.10926 0.97091 0.21130
 C312 C -0.09895 0.98726 0.20892
 C313 C -0.10774 1.01083 0.25119
 C314 C -0.11698 1.02781 0.25000
 C315 C -0.11619 1.04084 0.26341
 C316 C -0.10512 1.03650 0.27766
 C317 C -0.09550 1.01977 0.27883
 C318 C -0.09719 1.00683 0.26567
 H319 H -0.09190 1.01345 0.22094
 H320 H -0.12679 0.97919 0.25056
 H321 H -0.12544 1.03023 0.23889
 H322 H -0.08983 0.99388 0.26640
 H323 H -0.10783 0.95976 0.20234
 H324 H -0.10333 1.04636 0.28784
 C325 C 0.39963 0.49551 -0.27357
 C326 C 0.38934 0.49290 -0.25877
 C327 C 0.37824 0.47715 -0.25711
 C328 C 0.37695 0.46423 -0.27037
 C329 C 0.38703 0.46723 -0.28522
 C330 C 0.39858 0.48275 -0.28709
 C331 C 0.39043 0.50662 -0.24490
 C332 C 0.38060 0.52327 -0.24598
 C333 C 0.38142 0.53647 -0.23271
 C334 C 0.39297 0.53257 -0.21868
 C335 C 0.40310 0.51613 -0.21765
 C336 C 0.40150 0.50307 -0.23070
 H337 H 0.40793 0.50787 -0.27462
 H338 H 0.37047 0.47511 -0.24560
 H339 H 0.37175 0.52531 -0.25688
 H340 H 0.40926 0.49034 -0.23006
 H341 H 0.38672 0.45663 -0.29491
 H342 H 0.39471 0.54254 -0.20859
 C343 C 0.59809 0.00470 -0.27043
 C344 C 0.60909 0.00768 -0.25598
 C345 C 0.61878 0.02435 -0.25414
 C346 C 0.61776 0.03797 -0.26677
 C347 C 0.60639 0.03494 -0.28097
 C348 C 0.59621 0.01845 -0.28303
 C349 C 0.60956 -0.00621 -0.24227
 C350 C 0.62020 -0.02230 -0.24380
 C351 C 0.62097 -0.03523 -0.23046
 C352 C 0.61074 -0.03189 -0.21574
 C353 C 0.59979 -0.01611 -0.21427
 C354 C 0.59925 -0.00329 -0.22756
 H355 H 0.59019 -0.00795 -0.27112
 H356 H 0.62729 0.02655 -0.24299
 H357 H 0.62812 -0.02452 -0.25520
 H358 H 0.59093 0.00903 -0.22640
 H359 H 0.60593 0.04550 -0.29064
 H360 H 0.61085 -0.04184 -0.20549
 C361 C 0.00207 0.22436 0.88368
 C362 C -0.00888 0.23969 0.87968
 C363 C -0.02764 0.23717 0.87639
 C364 C -0.03548 0.21950 0.87681
 C365 C -0.02438 0.20430 0.88063
 C366 C -0.00560 0.20664 0.88405
 C367 C -0.00059 0.25819 0.87806
 C368 C 0.01588 0.26035 0.86922
 C369 C 0.02381 0.27781 0.86743
 C370 C 0.01519 0.29324 0.87436
 C371 C -0.00153 0.29137 0.88291
 C372 C -0.00930 0.27377 0.88485
 H373 H 0.01657 0.22619 0.88632
 H374 H -0.03598 0.24889 0.87273
 H375 H 0.02254 0.24846 0.86365
 H376 H -0.02212 0.27221 0.89157
 H377 H -0.03044 0.19064 0.88121
 H378 H 0.02153 0.30670 0.87305
 C379 C 0.49334 0.22436 0.11570
 C380 C 0.50229 0.24077 0.12045
 C381 C 0.52043 0.24003 0.12645
 C382 C 0.52964 0.22313 0.12772
 C383 C 0.52051 0.20686 0.12304
 C384 C 0.50233 0.20736 0.11708
 C385 C 0.49252 0.25861 0.11966
 C386 C 0.47419 0.25972 0.12481
 C387 C 0.46489 0.27661 0.12465
 C388 C 0.47415 0.29256 0.11945
 C389 C 0.49250 0.29168 0.11427
 C390 C 0.50158 0.27465 0.11427
 H391 H 0.47936 0.22480 0.11095
 H392 H 0.52723 0.25255 0.13066
 H393 H 0.46731 0.24752 0.12954
 H394 H 0.51572 0.27394 0.11016
 H395 H 0.52774 0.19383 0.12360
 H396 H 0.46693 0.30561 0.11909
 C397 C -0.00854 0.72589 0.61253
 C398 C 0.00121 0.74177 0.61752
 C399 C 0.01896 0.73992 0.62430
 C400 C 0.02693 0.72247 0.62623
 C401 C 0.01698 0.70675 0.62142
 C402 C -0.00077 0.70834 0.61456
 C403 C -0.00741 0.76020 0.61652
 C404 C -0.02571 0.76247 0.62143
 C405 C -0.03389 0.78006 0.62190
 C406 C -0.02316 0.79541 0.61729
 C407 C -0.00491 0.79329 0.61211
 C408 C 0.00286 0.77566 0.61165
 H409 H -0.02221 0.72716 0.60718
 H410 H 0.02637 0.75203 0.62865
 H411 H -0.03310 0.75053 0.62604
 H412 H 0.01696 0.77403 0.60766
 H413 H 0.02329 0.69328 0.62259
 H414 H -0.02921 0.80903 0.61678
 C415 C 0.50440 0.72300 0.38691
 C416 C 0.49480 0.73897 0.38214
 C417 C 0.47633 0.73754 0.37718
 C418 C 0.46749 0.72035 0.37679
 C419 C 0.47727 0.70451 0.38143
 C420 C 0.49575 0.70573 0.38641
 C421 C 0.50431 0.75698 0.38142
 C422 C 0.52198 0.75811 0.37458
 C423 C 0.53097 0.77513 0.37321
 C424 C 0.52210 0.79117 0.37865
 C425 C 0.50442 0.79029 0.38555
 C426 C 0.49561 0.77313 0.38695
 H427 H 0.51867 0.72396 0.39080
 H428 H 0.46905 0.74972 0.37292
 H429 H 0.52853 0.74577 0.36980
 H430 H 0.48198 0.77237 0.39230
 H431 H 0.47040 0.69123 0.38142
 H432 H 0.52920 0.80431 0.37794
 Zr433 Zr 0.01550 -0.01895 1.02188
 O434 O 0.03750 -0.01242 1.03854
 O435 O 0.00555 -0.04341 1.03245
 O436 O 0.00568 -0.01376 1.04659
 O437 O 0.04127 -0.03941 0.99054
 O438 O -0.01565 0.00891 1.04280
 O439 O 0.03776 -0.03758 1.01922
 O440 O -0.02027 -0.04956 1.01693
 O441 O -0.01291 -0.01535 1.01955
 O442 O 0.00717 -0.03381 1.00040
 O443 O 0.01140 0.00973 1.02009
 O444 O 0.03089 -0.00803 1.00166
 Zr445 Zr -0.01113 0.00986 0.97460
 Zr446 Zr -0.01688 0.01303 1.01642
 Zr447 Zr 0.02112 -0.02214 0.98014
 Zr448 Zr -0.02085 -0.02941 0.99764
 O449 O 0.04701 -0.01603 0.96947
 O450 O -0.04668 -0.02905 1.00986
 O451 O -0.00720 -0.01899 0.97626
 O452 O -0.02621 -0.00122 0.99487
 O453 O -0.00294 0.02501 0.99605
 O454 O 0.01720 0.00610 0.97722
 C455 C -0.00893 -0.05296 1.02914
 C456 C 0.04579 -0.04377 1.00581
 C457 C -0.00648 -0.00240 1.05214
 O458 O -0.04364 0.00761 1.02546
 O459 O -0.03550 0.03216 1.00615
 O460 O -0.03230 0.02967 0.97750
 C461 C -0.04002 0.03640 0.99084
 O462 O 0.04719 0.02071 1.01682
 Zr463 Zr 0.02516 0.02026 0.99899
 O464 O -0.00071 0.03415 0.96391
 O465 O -0.01203 0.03875 1.02838
 O466 O 0.02286 0.04539 1.01261
 O467 O 0.05070 0.02142 0.98630
 O468 O 0.02368 0.04159 0.98090
 C469 C 0.01301 0.04445 0.96810
 O470 O -0.03405 0.00440 0.95868
 O471 O 0.01720 -0.04878 0.96967
 O472 O -0.00322 0.00269 0.94959
 O473 O 0.01763 -0.02032 0.95378
 O474 O -0.01912 -0.05540 0.98537
 O475 O -0.04140 -0.03134 0.97843
 C476 C 0.00804 -0.00968 0.94415
 H477 H 0.00989 -0.04716 1.00123
 H478 H -0.03957 0.00044 0.99307
 H479 H 0.02426 0.01055 0.96735
 H480 H 0.01570 0.01609 1.03051
 H481 H -0.05157 -0.04183 1.00969
 H482 H -0.04697 0.01803 1.03298
 H483 H -0.02324 0.04173 1.03486
 H484 H 0.03241 0.05389 1.00829
 H485 H -0.02894 -0.06334 0.99005
 H486 H 0.02841 -0.05174 0.96317
 H487 H 0.05025 -0.02659 0.96209
 H488 H 0.05530 0.03428 0.98712
 H489 H -0.04979 -0.04171 0.98102
 H490 H -0.03454 0.01435 0.95005
 H491 H 0.03818 -0.02245 1.04707
 H492 H 0.05371 0.03268 1.01608
 Zr493 Zr 0.51220 0.47936 0.52568
 O494 O 0.53371 0.48651 0.54267
 O495 O 0.50183 0.45542 0.53684
 O496 O 0.50171 0.48560 0.55005
 O497 O 0.53889 0.45772 0.49553
 O498 O 0.47965 0.50705 0.54451
 O499 O 0.53462 0.46066 0.52407
 O500 O 0.47648 0.44865 0.52086
 O501 O 0.48385 0.48263 0.52230
 O502 O 0.50471 0.46371 0.50439
 O503 O 0.50787 0.50792 0.52292
 O504 O 0.52818 0.48969 0.50558
 Zr505 Zr 0.48696 0.50637 0.47680
 Zr506 Zr 0.47971 0.51080 0.51818
 Zr507 Zr 0.51924 0.47483 0.48416
 Zr508 Zr 0.47676 0.46774 0.50063
 O509 O 0.54559 0.48072 0.47439
 O510 O 0.45034 0.46839 0.51171
 O511 O 0.49105 0.47761 0.47937
 O512 O 0.47123 0.49577 0.49684
 O513 O 0.49431 0.52227 0.49802
 O514 O 0.51523 0.50293 0.48039
 C515 C 0.48730 0.44591 0.53361
 C516 C 0.54291 0.45388 0.51103
 C517 C 0.48872 0.49657 0.55469
 O518 O 0.45255 0.50567 0.52631
 O519 O 0.46150 0.52963 0.50689
 O520 O 0.46552 0.52608 0.47844
 C521 C 0.45742 0.53331 0.49137
 O522 O 0.54377 0.51891 0.52040
 Zr523 Zr 0.52233 0.51782 0.50199
 O524 O 0.49747 0.53050 0.46587
 O525 O 0.48399 0.53677 0.52986
 O526 O 0.51947 0.54331 0.51493
 O527 O 0.54825 0.51889 0.48995
 O528 O 0.52120 0.53864 0.48339
 C529 C 0.51089 0.54110 0.47027
 O530 O 0.46472 0.50008 0.46033
 O531 O 0.51567 0.44796 0.47409
 O532 O 0.49589 0.49867 0.45232
 O533 O 0.51694 0.47612 0.45762
 O534 O 0.47929 0.44119 0.48955
 O535 O 0.45717 0.46475 0.48070
 C536 C 0.50762 0.48646 0.44748
 H537 H 0.50742 0.45041 0.50575
 H538 H 0.45794 0.49728 0.49457
 H539 H 0.52262 0.50719 0.47066
 H540 H 0.51170 0.51468 0.53328
 H541 H 0.44555 0.45558 0.51180
 H542 H 0.44890 0.51626 0.53349
 H543 H 0.47250 0.53986 0.53587
 H544 H 0.52915 0.55173 0.51070
 H545 H 0.46939 0.43337 0.49424
 H546 H 0.52711 0.44488 0.46798
 H547 H 0.54913 0.47003 0.46728
 H548 H 0.55269 0.53182 0.49058
 H549 H 0.44884 0.45431 0.48328
 H550 H 0.46439 0.50976 0.45144
 H551 H 0.53417 0.47676 0.55149
 H552 H 0.55030 0.53086 0.51952
 Zr553 Zr 0.48839 1.02026 0.52562
 O554 O 0.46654 1.01382 0.54216
 O555 O 0.49851 1.04481 0.53624
 O556 O 0.49825 1.01494 0.55044
 O557 O 0.46194 1.04014 0.49409
 O558 O 0.52023 0.99300 0.54663
 O559 O 0.46602 1.03880 0.52279
 O560 O 0.52352 1.05149 0.52011
 O561 O 0.51682 1.01702 0.52330
 O562 O 0.49617 1.03495 0.50401
 O563 O 0.49283 0.99162 0.52394
 O564 O 0.47281 1.00891 0.50546
 Zr565 Zr 0.51459 0.99132 0.47849
 Zr566 Zr 0.52110 0.98866 0.52030
 Zr567 Zr 0.48201 1.02289 0.48382
 Zr568 Zr 0.52420 1.03090 0.50124
 O569 O 0.45601 1.01624 0.47331
 O570 O 0.55012 1.03101 0.51366
 O571 O 0.51031 1.02010 0.47996
 O572 O 0.52990 1.00278 0.49866
 O573 O 0.50696 0.97629 0.50003
 O574 O 0.48625 0.99468 0.48105
 C575 C 0.51258 1.05471 0.53251
 C576 C 0.45775 1.04477 0.50932
 C577 C 0.51075 1.00387 0.55603
 O578 O 0.54794 0.99449 0.52929
 O579 O 0.53975 0.96961 0.51015
 O580 O 0.53597 0.97176 0.48149
 C581 C 0.54399 0.96524 0.49485
 O582 O 0.45703 0.98013 0.52066
 Zr583 Zr 0.47885 0.98067 0.50293
 O584 O 0.50450 0.96670 0.46804
 O585 O 0.51678 0.96300 0.53243
 O586 O 0.48155 0.95579 0.51684
 O587 O 0.45322 0.97901 0.49007
 O588 O 0.48058 0.95898 0.48514
 C589 C 0.49116 0.95610 0.47241
 O590 O 0.53718 0.99697 0.46256
 O591 O 0.48533 1.04945 0.47312
 O592 O 0.50621 0.99810 0.45346
 O593 O 0.48514 1.02089 0.45747
 O594 O 0.52198 1.05662 0.48858
 O595 O 0.54451 1.03285 0.48211
 C596 C 0.49475 1.01030 0.44793
 H597 H 0.49333 1.04828 0.50474
 H598 H 0.54324 1.00126 0.49687
 H599 H 0.47913 0.98998 0.47120
 H600 H 0.48877 0.98527 0.53438
 H601 H 0.55486 1.04384 0.51343
 H602 H 0.55153 0.98418 0.53686
 H603 H 0.52816 0.96020 0.53889
 H604 H 0.47204 0.94711 0.51258
 H605 H 0.53182 1.06476 0.49310
 H606 H 0.47397 1.05215 0.46659
 H607 H 0.45249 1.02664 0.46581
 H608 H 0.44887 0.96607 0.49085
 H609 H 0.55292 1.04323 0.48476
 H610 H 0.53771 0.98693 0.45400
 H611 H 0.46590 1.02391 0.55065
 H612 H 0.45049 0.96816 0.51983
 Zr613 Zr -0.01598 0.51676 1.02891
 O614 O -0.03818 0.50968 1.04482
 O615 O -0.00604 0.54069 1.04059
 O616 O -0.00645 0.51082 1.05370
 O617 O -0.04146 0.53819 0.99760
 O618 O 0.01554 0.48893 1.04966
 O619 O -0.03818 0.53553 1.02629
 O620 O 0.02018 0.54704 1.02611
 O621 O 0.01246 0.51336 1.02702
 O622 O -0.00756 0.53231 1.00804
 O623 O -0.01164 0.48817 1.02652
 O624 O -0.03119 0.50640 1.00812
 Zr625 Zr 0.01105 0.48946 0.98147
 Zr626 Zr 0.01669 0.48514 1.02325
 Zr627 Zr -0.02132 0.52114 0.98717
 Zr628 Zr 0.02049 0.52812 1.00570
 O629 O -0.04717 0.51521 0.97595
 O630 O 0.04654 0.52737 1.01786
 O631 O 0.00703 0.51824 0.98378
 O632 O 0.02602 0.50005 1.00226
 O633 O 0.00285 0.47370 1.00237
 O634 O -0.01730 0.49298 0.98364
 C635 C 0.00881 0.54992 1.03826
 C636 C -0.04604 0.54216 1.01288
 C637 C 0.00607 0.49971 1.05916
 O638 O 0.04344 0.49028 1.03282
 O639 O 0.03545 0.46637 1.01280
 O640 O 0.03229 0.46974 0.98419
 C641 C 0.04003 0.46266 0.99744
 O642 O -0.04754 0.47756 1.02219
 Zr643 Zr -0.02529 0.47823 1.00493
 O644 O 0.00102 0.46522 0.97015
 O645 O 0.01181 0.45915 1.03456
 O646 O -0.02326 0.45287 1.01819
 O647 O -0.05058 0.47702 0.99148
 O648 O -0.02326 0.45714 0.98666
 C649 C -0.01244 0.45456 0.97407
 O650 O 0.03394 0.49560 0.96605
 O651 O -0.01740 0.54803 0.97737
 O652 O 0.00314 0.49707 0.95652
 O653 O -0.01774 0.51997 0.96080
 O654 O 0.01853 0.55475 0.99471
 O655 O 0.04074 0.53100 0.98661
 C656 C -0.00812 0.50953 0.95113
 H657 H -0.01028 0.54562 1.00928
 H658 H 0.03939 0.49852 1.00062
 H659 H -0.02426 0.48868 0.97355
 H660 H -0.01595 0.48152 1.03671
 H661 H 0.05137 0.54017 1.01818
 H662 H 0.04674 0.47968 1.04016
 H663 H 0.02299 0.45607 1.04120
 H664 H -0.03284 0.44451 1.01354
 H665 H 0.02832 0.56247 0.99991
 H666 H -0.02859 0.55112 0.97074
 H667 H -0.05042 0.52594 0.96876
 H668 H -0.05509 0.46411 0.99203
 H669 H 0.04901 0.54141 0.98954
 H670 H 0.03461 0.48585 0.95723
 H671 H -0.03897 0.51941 1.05364
 H672 H -0.05416 0.46567 1.02104
 Zr673 Zr -0.01340 0.47957 0.47602
 O674 O -0.03475 0.48619 0.45874
 O675 O -0.00294 0.45540 0.46544
 O676 O -0.00266 0.48517 0.45160
 O677 O -0.04039 0.45872 0.50639
 O678 O 0.01931 0.50692 0.45684
 O679 O -0.03583 0.46081 0.47784
 O680 O 0.02223 0.44909 0.48177
 O681 O 0.01493 0.48305 0.47951
 O682 O -0.00607 0.46453 0.49767
 O683 O -0.00910 0.50821 0.47825
 O684 O -0.02953 0.49036 0.49581
 Zr685 Zr 0.01148 0.50797 0.52454
 Zr686 Zr 0.01901 0.51134 0.48310
 Zr687 Zr -0.02076 0.47611 0.51757
 Zr688 Zr 0.02184 0.46879 0.50154
 O689 O -0.04713 0.48218 0.52714
 O690 O 0.04832 0.46929 0.49054
 O691 O 0.00740 0.47914 0.52249
 O692 O 0.02734 0.49693 0.50479
 O693 O 0.00429 0.52326 0.50295
 O694 O -0.01676 0.50432 0.52085
 C695 C 0.01151 0.44599 0.46901
 C696 C -0.04428 0.45441 0.49095
 C697 C 0.01031 0.49614 0.44682
 O698 O 0.04626 0.50617 0.47528
 O699 O 0.03706 0.53060 0.49408
 O700 O 0.03305 0.52763 0.52259
 C701 C 0.04114 0.53460 0.50954
 O702 O -0.04502 0.51910 0.48037
 Zr703 Zr -0.02370 0.51860 0.49890
 O704 O 0.00092 0.53238 0.53490
 O705 O 0.01476 0.53696 0.47086
 O706 O -0.02079 0.54375 0.48545
 O707 O -0.04967 0.51984 0.51082
 O708 O -0.02263 0.53996 0.51703
 C709 C -0.01242 0.54282 0.53016
 O710 O 0.03358 0.50228 0.54133
 O711 O -0.01733 0.44948 0.52810
 O712 O 0.00241 0.50075 0.54914
 O713 O -0.01857 0.47795 0.54407
 O714 O 0.01929 0.44254 0.51317
 O715 O 0.04131 0.46644 0.52163
 C716 C -0.00929 0.48852 0.55410
 H717 H -0.00879 0.45119 0.49657
 H718 H 0.04062 0.49855 0.50710
 H719 H -0.02420 0.50879 0.53046
 H720 H -0.01285 0.51467 0.46773
 H721 H 0.05312 0.45651 0.49074
 H722 H 0.04994 0.51657 0.46788
 H723 H 0.02630 0.53999 0.46489
 H724 H -0.03050 0.55222 0.48944
 H725 H 0.02928 0.43467 0.50875
 H726 H -0.02881 0.44649 0.53418
 H727 H -0.05076 0.47162 0.53437
 H728 H -0.05411 0.53273 0.50993
 H729 H 0.04974 0.45608 0.51926
 H730 H 0.03382 0.51222 0.55000
 H731 H -0.03514 0.47621 0.45011
 H732 H -0.05162 0.53101 0.48104
 Zr733 Zr 0.48825 -0.01891 -0.02543
 O734 O 0.46637 -0.01162 -0.04190
 O735 O 0.49799 -0.04295 -0.03682
 O736 O 0.49817 -0.01285 -0.05002
 O737 O 0.46218 -0.04034 0.00526
 O738 O 0.52043 0.00870 -0.04504
 O739 O 0.46577 -0.03755 -0.02336
 O740 O 0.52370 -0.04982 -0.02143
 O741 O 0.51671 -0.01574 -0.02274
 O742 O 0.49620 -0.03456 -0.00434
 O743 O 0.49290 0.00964 -0.02274
 O744 O 0.47291 -0.00850 -0.00496
 Zr745 Zr 0.51503 0.00804 0.02289
 Zr746 Zr 0.52120 0.01243 -0.01868
 Zr747 Zr 0.48232 -0.02337 0.01621
 Zr748 Zr 0.52426 -0.03062 -0.00125
 O749 O 0.45635 -0.01737 0.02671
 O750 O 0.55031 -0.03007 -0.01306
 O751 O 0.51065 -0.02069 0.02035
 O752 O 0.53011 -0.00261 0.00245
 O753 O 0.50726 0.02395 0.00185
 O754 O 0.48666 0.00471 0.01996
 C755 C 0.51245 -0.05259 -0.03388
 C756 C 0.45774 -0.04424 -0.01014
 C757 C 0.51099 -0.00181 -0.05498
 O758 O 0.54806 0.00723 -0.02751
 O759 O 0.53992 0.03115 -0.00777
 O760 O 0.53656 0.02767 0.02077
 C761 C 0.54441 0.03482 0.00768
 O762 O 0.45720 0.02082 -0.01938
 Zr763 Zr 0.47911 0.01962 -0.00146
 O764 O 0.50504 0.03222 0.03412
 O765 O 0.51680 0.03843 -0.03016
 O766 O 0.48184 0.04510 -0.01439
 O767 O 0.45353 0.02077 0.01117
 O768 O 0.48092 0.04041 0.01716
 C769 C 0.49159 0.04284 0.03006
 O770 O 0.53767 0.00170 0.03882
 O771 O 0.48588 -0.05028 0.02608
 O772 O 0.50671 0.00036 0.04759
 O773 O 0.48546 -0.02222 0.04267
 O774 O 0.52185 -0.05709 0.00997
 O775 O 0.54447 -0.03365 0.01812
 C776 C 0.49511 -0.01192 0.05263
 H777 H 0.49333 -0.04785 -0.00564
 H778 H 0.54348 -0.00116 0.00441
 H779 H 0.47958 0.00898 0.02987
 H780 H 0.48884 0.01639 -0.03301
 H781 H 0.55499 -0.04290 -0.01329
 H782 H 0.55156 0.01780 -0.03478
 H783 H 0.52816 0.04152 -0.03639
 H784 H 0.47238 0.05356 -0.00990
 H785 H 0.53149 -0.06501 0.00498
 H786 H 0.47460 -0.05333 0.03246
 H787 H 0.45289 -0.02809 0.03381
 H788 H 0.44920 0.03372 0.01070
 H789 H 0.55263 -0.04411 0.01530
 H790 H 0.53832 0.01139 0.04772
 H791 H 0.46555 -0.02137 -0.05072
 H792 H 0.45080 0.03279 -0.01829
 Zr793 Zr 0.51174 0.51862 -0.02657
 O794 O 0.53328 0.51195 -0.04335
 O795 O 0.50121 0.54274 -0.03753
 O796 O 0.50146 0.51256 -0.05110
 O797 O 0.53872 0.53970 0.00405
 O798 O 0.47947 0.49073 -0.04647
 O799 O 0.53405 0.53744 -0.02454
 O800 O 0.47666 0.54978 -0.02093
 O801 O 0.48338 0.51523 -0.02365
 O802 O 0.50437 0.53381 -0.00511
 O803 O 0.50744 0.48999 -0.02427
 O804 O 0.52781 0.50793 -0.00650
 Zr805 Zr 0.48666 0.49071 0.02158
 Zr806 Zr 0.47927 0.48693 -0.02005
 Zr807 Zr 0.51903 0.52241 0.01502
 Zr808 Zr 0.47643 0.52961 -0.00172
 O809 O 0.54533 0.51626 0.02507
 O810 O 0.45026 0.52922 -0.01367
 O811 O 0.49084 0.51948 0.01949
 O812 O 0.47088 0.50151 0.00148
 O813 O 0.49388 0.47520 0.00020
 O814 O 0.51493 0.49424 0.01843
 C815 C 0.48727 0.55270 -0.03363
 C816 C 0.54253 0.54392 -0.01136
 C817 C 0.48878 0.50138 -0.05625
 O818 O 0.45219 0.49225 -0.02858
 O819 O 0.46101 0.46793 -0.00920
 O820 O 0.46530 0.47087 0.01936
 C821 C 0.45708 0.46390 0.00624
 O822 O 0.54331 0.47892 -0.02146
 Zr823 Zr 0.52191 0.47971 -0.00330
 O824 O 0.49713 0.46651 0.03237
 O825 O 0.48344 0.46106 -0.03185
 O826 O 0.51898 0.45444 -0.01664
 O827 O 0.54784 0.47857 0.00908
 O828 O 0.52070 0.45852 0.01499
 C829 C 0.51043 0.45593 0.02799
 O830 O 0.46438 0.49656 0.03781
 O831 O 0.51579 0.54916 0.02537
 O832 O 0.49553 0.49826 0.04633
 O833 O 0.51658 0.52096 0.04146
 O834 O 0.47879 0.55565 0.01042
 O835 O 0.45657 0.53183 0.01778
 C836 C 0.50717 0.51060 0.05140
 H837 H 0.50713 0.54714 -0.00615
 H838 H 0.45759 0.49992 0.00355
 H839 H 0.52229 0.48987 0.02822
 H840 H 0.51129 0.48342 -0.03466
 H841 H 0.44548 0.54201 -0.01357
 H842 H 0.44849 0.48173 -0.03591
 H843 H 0.47193 0.45800 -0.03803
 H844 H 0.52864 0.44597 -0.01240
 H845 H 0.46879 0.56358 0.00597
 H846 H 0.52729 0.55213 0.03161
 H847 H 0.54898 0.52685 0.03231
 H848 H 0.55222 0.46565 0.00841
 H849 H 0.44802 0.54203 0.01508
 H850 H 0.46409 0.48674 0.04657
 H851 H 0.53372 0.52182 -0.05206
 H852 H 0.54989 0.46702 -0.02055
 Zr853 Zr 0.01400 1.01775 0.46990
 O854 O 0.03571 1.01105 0.45331
 O855 O 0.00354 1.04173 0.45878
 O856 O 0.00377 1.01189 0.44530
 O857 O 0.04036 1.03917 0.50073
 O858 O -0.01807 0.98983 0.44969
 O859 O 0.03620 1.03670 0.47210
 O860 O -0.02207 1.04779 0.47422
 O861 O -0.01435 1.01406 0.47254
 O862 O 0.00620 1.03300 0.49118
 O863 O 0.00988 0.98909 0.47213
 O864 O 0.02991 1.00731 0.49016
 Zr865 Zr -0.01136 0.98975 0.51779
 Zr866 Zr -0.01831 0.98577 0.47611
 Zr867 Zr 0.02068 1.02178 0.51154
 Zr868 Zr -0.02174 1.02851 0.49426
 O869 O 0.04693 1.01606 0.52194
 O870 O -0.04811 1.02767 0.48270
 O871 O -0.00753 1.01857 0.51569
 O872 O -0.02704 1.00036 0.49752
 O873 O -0.00379 0.97423 0.49651
 O874 O 0.01688 0.99357 0.51488
 C875 C -0.01115 1.05093 0.46177
 C876 C 0.04443 1.04331 0.48536
 C877 C -0.00890 1.00075 0.44004
 O878 O -0.04538 0.99076 0.46735
 O879 O -0.03664 0.96673 0.48690
 O880 O -0.03248 0.96973 0.51545
 C881 C -0.04065 0.96274 0.50234
 O882 O 0.04582 0.97850 0.47529
 Zr883 Zr 0.02423 0.97903 0.49326
 O884 O -0.00076 0.96566 0.52873
 O885 O -0.01372 0.95995 0.46435
 O886 O 0.02166 0.95370 0.47997
 O887 O 0.05006 0.97809 0.50582
 O888 O 0.02311 0.95792 0.51160
 C889 C 0.01274 0.95525 0.52452
 O890 O -0.03385 0.99547 0.53381
 O891 O 0.01689 1.04852 0.52173
 O892 O -0.00275 0.99726 0.54260
 O893 O 0.01803 1.02026 0.53799
 O894 O -0.01959 1.05498 0.50562
 O895 O -0.04145 1.03091 0.51387
 C896 C 0.00870 1.00969 0.54782
 H897 H 0.00881 1.04635 0.49002
 H898 H -0.04033 0.99867 0.49951
 H899 H 0.02420 0.98929 0.52474
 H900 H 0.01388 0.98257 0.46176
 H901 H -0.05301 1.04041 0.48268
 H902 H -0.04889 0.98020 0.45999
 H903 H -0.02512 0.95680 0.45806
 H904 H 0.03136 0.94534 0.48430
 H905 H -0.02958 1.06267 0.50082
 H906 H 0.02824 1.05168 0.52811
 H907 H 0.05035 1.02675 0.52916
 H908 H 0.05460 0.96523 0.50511
 H909 H -0.04988 1.04124 0.51127
 H910 H -0.03416 0.98567 0.54259
 H911 H 0.03619 1.02090 0.44458
 H912 H 0.05241 0.96660 0.47613
 Zr913 Zr 0.73089 0.26672 0.22477
 O914 O 0.73724 0.28904 0.20853
 O915 O 0.70685 0.25636 0.21361
 O916 O 0.73631 0.25701 0.20001
 O917 O 0.70983 0.29203 0.25616
 O918 O 0.75906 0.23578 0.20384
 O919 O 0.71194 0.28875 0.22746
 O920 O 0.70119 0.23010 0.22859
 O921 O 0.73488 0.23820 0.22680
 O922 O 0.71606 0.25799 0.24591
 O923 O 0.75946 0.26299 0.22690
 O924 O 0.74140 0.28221 0.24535
 Zr925 Zr 0.75956 0.24007 0.27210
 Zr926 Zr 0.76312 0.23458 0.23026
 Zr927 Zr 0.72733 0.27206 0.26653
 Zr928 Zr 0.72084 0.22987 0.24838
 O929 O 0.73291 0.29816 0.27752
 O930 O 0.72174 0.20388 0.23603
 O931 O 0.73083 0.24361 0.27009
 O932 O 0.74892 0.22486 0.25147
 O933 O 0.77469 0.24863 0.25098
 O934 O 0.75545 0.26851 0.26979
 C935 C 0.69773 0.24148 0.21645
 C936 C 0.70551 0.29658 0.24089
 C937 C 0.74771 0.24485 0.19447
 O938 O 0.75823 0.20763 0.22085
 O939 O 0.78232 0.21610 0.24058
 O940 O 0.77961 0.21911 0.26923
 C941 C 0.78650 0.21151 0.25588
 O942 O 0.76996 0.29906 0.23078
 Zr943 Zr 0.76961 0.27684 0.24834
 O944 O 0.78347 0.25079 0.28325
 O945 O 0.78867 0.23991 0.21866
 O946 O 0.79474 0.27491 0.23509
 O947 O 0.77025 0.30247 0.26136
 O948 O 0.79071 0.27557 0.26678
 C949 C 0.79356 0.26476 0.27947
 O950 O 0.75428 0.21687 0.28764
 O951 O 0.70086 0.26761 0.27664
 O952 O 0.75224 0.24786 0.29711
 O953 O 0.72911 0.26853 0.29289
 O954 O 0.69475 0.23119 0.26005
 O955 O 0.71900 0.20924 0.26744
 C956 C 0.73980 0.25903 0.30254
 H957 H 0.70275 0.26049 0.24489
 H958 H 0.75075 0.21145 0.25314
 H959 H 0.75971 0.27563 0.27980
 H960 H 0.76579 0.26744 0.21662
 H961 H 0.70911 0.19876 0.23595
 H962 H 0.76871 0.20446 0.21346
 H963 H 0.79187 0.22869 0.21214
 H964 H 0.80304 0.28460 0.23965
 H965 H 0.68710 0.22118 0.25510
 H966 H 0.69771 0.27880 0.28325
 H967 H 0.72233 0.30122 0.28482
 H968 H 0.78299 0.30727 0.26084
 H969 H 0.70884 0.20064 0.26461
 H970 H 0.76412 0.21645 0.29640
 H971 H 0.72733 0.28965 0.19985
 H972 H 0.78174 0.30582 0.23185
 Zr973 Zr 0.77469 0.74002 0.72712
 O974 O 0.76790 0.71773 0.71084
 O975 O 0.79801 0.75072 0.71544
 O976 O 0.76791 0.74961 0.70249
 O977 O 0.79712 0.71450 0.75789
 O978 O 0.74606 0.77141 0.70735
 O979 O 0.79377 0.71797 0.72927
 O980 O 0.80426 0.77694 0.73044
 O981 O 0.77082 0.76852 0.72960
 O982 O 0.79039 0.74853 0.74805
 O983 O 0.74623 0.74380 0.72985
 O984 O 0.76508 0.72431 0.74775
 Zr985 Zr 0.74789 0.76614 0.77529
 Zr986 Zr 0.74276 0.77216 0.73372
 Zr987 Zr 0.77993 0.73428 0.76879
 Zr988 Zr 0.78575 0.77662 0.75096
 O989 O 0.77487 0.70799 0.77949
 O990 O 0.78430 0.80292 0.73926
 O991 O 0.77655 0.76267 0.77272
 O992 O 0.75780 0.78162 0.75472
 O993 O 0.73199 0.75780 0.75438
 O994 O 0.75192 0.73774 0.77255
 C995 C 0.80701 0.76575 0.71800
 C996 C 0.80077 0.71005 0.74249
 C997 C 0.75655 0.76214 0.69745
 O998 O 0.74720 0.79928 0.72467
 O999 O 0.72384 0.79042 0.74459
 O1000 O 0.72785 0.78722 0.77313
 C1001 C 0.72033 0.79487 0.76003
 O1002 O 0.73639 0.70749 0.73356
 Zr1003 Zr 0.73702 0.72964 0.75126
 O1004 O 0.72413 0.75550 0.78655
 O1005 O 0.71684 0.76696 0.72241
 O1006 O 0.71149 0.73144 0.73827
 O1007 O 0.73656 0.70398 0.76416
 O1008 O 0.71645 0.73095 0.76981
 C1009 C 0.71381 0.74170 0.78255
 O1010 O 0.75395 0.78903 0.79111
 O1011 O 0.80670 0.73884 0.77853
 O1012 O 0.75584 0.75787 0.79999
 O1013 O 0.77889 0.73730 0.79527
 O1014 O 0.81244 0.77498 0.76178
 O1015 O 0.78858 0.79685 0.77035
 C1016 C 0.76833 0.74654 0.80514
 H1017 H 0.80365 0.74606 0.74665
 H1018 H 0.75603 0.79501 0.75661
 H1019 H 0.74793 0.73049 0.78250
 H1020 H 0.73948 0.73947 0.71965
 H1021 H 0.79691 0.80805 0.73898
 H1022 H 0.73650 0.80249 0.71742
 H1023 H 0.71341 0.77826 0.71610
 H1024 H 0.70341 0.72164 0.74283
 H1025 H 0.81989 0.78498 0.75669
 H1026 H 0.81017 0.72759 0.78493
 H1027 H 0.78574 0.70486 0.78655
 H1028 H 0.72380 0.69921 0.76363
 H1029 H 0.79879 0.80533 0.76754
 H1030 H 0.74440 0.78944 0.80002
 H1031 H 0.77748 0.71723 0.70198
 H1032 H 0.72466 0.70068 0.73463
 Zr1033 Zr 0.22419 0.24030 0.77386
 O1034 O 0.23008 0.21977 0.79216
 O1035 O 0.19980 0.25159 0.78316
 O1036 O 0.22932 0.25222 0.79804
 O1037 O 0.20438 0.21140 0.74393
 O1038 O 0.25088 0.27421 0.79259
 O1039 O 0.20553 0.21771 0.77230
 O1040 O 0.19369 0.27529 0.76495
 O1041 O 0.22779 0.26856 0.76931
 O1042 O 0.20999 0.24637 0.75138
 O1043 O 0.25276 0.24444 0.77238
 O1044 O 0.23557 0.22295 0.75515
 Zr1045 Zr 0.25395 0.26246 0.72537
 Zr1046 Zr 0.25605 0.27241 0.76655
 Zr1047 Zr 0.22209 0.23043 0.73257
 Zr1048 Zr 0.21438 0.27419 0.74648
 O1049 O 0.22850 0.20339 0.72440
 O1050 O 0.21442 0.30122 0.75682
 O1051 O 0.22526 0.25843 0.72656
 O1052 O 0.24245 0.27955 0.74404
 O1053 O 0.26850 0.25649 0.74772
 O1054 O 0.25023 0.23430 0.73005
 C1055 C 0.19021 0.26545 0.77811
 C1056 C 0.19957 0.20846 0.75934
 C1057 C 0.24004 0.26557 0.80265
 O1058 O 0.25072 0.30024 0.77302
 O1059 O 0.27566 0.28979 0.75550
 O1060 O 0.27362 0.28405 0.72712
 C1061 C 0.28020 0.29289 0.74004
 O1062 O 0.26390 0.20828 0.77212
 Zr1063 Zr 0.26377 0.22861 0.75271
 O1064 O 0.27836 0.25122 0.71618
 O1065 O 0.28111 0.26887 0.77988
 O1066 O 0.28839 0.23245 0.76681
 O1067 O 0.26521 0.20180 0.74196
 O1068 O 0.28555 0.22862 0.73520
 C1069 C 0.28865 0.23812 0.72172
 O1070 O 0.24888 0.28382 0.70764
 O1071 O 0.19594 0.23309 0.72096
 O1072 O 0.24736 0.25212 0.70094
 O1073 O 0.22467 0.23118 0.70609
 O1074 O 0.18896 0.27098 0.73352
 O1075 O 0.21293 0.29293 0.72580
 C1076 C 0.23535 0.24007 0.69605
 H1077 H 0.19669 0.24369 0.75205
 H1078 H 0.24418 0.29276 0.74127
 H1079 H 0.25492 0.22629 0.72089
 H1080 H 0.25887 0.24126 0.78324
 H1081 H 0.20173 0.30604 0.75593
 H1082 H 0.26087 0.30439 0.78056
 H1083 H 0.28395 0.28082 0.78544
 H1084 H 0.29698 0.22252 0.76347
 H1085 H 0.18088 0.28122 0.73711
 H1086 H 0.19322 0.22120 0.71524
 H1087 H 0.21830 0.19930 0.71690
 H1088 H 0.27802 0.19742 0.74331
 H1089 H 0.20259 0.30156 0.72753
 H1090 H 0.25900 0.28356 0.69929
 H1091 H 0.21989 0.21989 0.80045
 H1092 H 0.27576 0.20164 0.77203
 Zr1093 Zr 0.27070 0.76394 0.27476
 O1094 O 0.26428 0.78630 0.29094
 O1095 O 0.29436 0.75344 0.28632
 O1096 O 0.26462 0.75437 0.29942
 O1097 O 0.29253 0.78930 0.24379
 O1098 O 0.24229 0.73273 0.29504
 O1099 O 0.28987 0.78592 0.27244
 O1100 O 0.30017 0.72721 0.27132
 O1101 O 0.26665 0.73542 0.27250
 O1102 O 0.28586 0.75530 0.25379
 O1103 O 0.24216 0.76014 0.27222
 O1104 O 0.26064 0.77952 0.25413
 Zr1105 Zr 0.24270 0.73746 0.22690
 Zr1106 Zr 0.23847 0.73174 0.26861
 Zr1107 Zr 0.27499 0.76945 0.23308
 Zr1108 Zr 0.28102 0.72719 0.25108
 O1109 O 0.26968 0.79562 0.22223
 O1110 O 0.27978 0.70105 0.26309
 O1111 O 0.27142 0.74101 0.22932
 O1112 O 0.25297 0.72215 0.24754
 O1113 O 0.22729 0.74592 0.24786
 O1114 O 0.24689 0.76589 0.22943
 C1115 C 0.30337 0.73849 0.28364
 C1116 C 0.29664 0.79375 0.25915
 C1117 C 0.25325 0.74200 0.30470
 O1118 O 0.24301 0.70471 0.27786
 O1119 O 0.21929 0.71333 0.25792
 O1120 O 0.22259 0.71640 0.22933
 C1121 C 0.21539 0.70878 0.24252
 O1122 O 0.23219 0.79635 0.26836
 Zr1123 Zr 0.23247 0.77411 0.25076
 O1124 O 0.21885 0.74809 0.21561
 O1125 O 0.21279 0.73705 0.27994
 O1126 O 0.20720 0.77230 0.26382
 O1127 O 0.23194 0.79971 0.23774
 O1128 O 0.21151 0.77271 0.23224
 C1129 C 0.20867 0.76191 0.21952
 O1130 O 0.24823 0.71441 0.21123
 O1131 O 0.30157 0.76501 0.22324
 O1132 O 0.25033 0.74545 0.20207
 O1133 O 0.27355 0.76607 0.20666
 O1134 O 0.30740 0.72867 0.23996
 O1135 O 0.28321 0.70676 0.23184
 C1136 C 0.26289 0.75665 0.19685
 H1137 H 0.29917 0.75778 0.25506
 H1138 H 0.25112 0.70875 0.24576
 H1139 H 0.24275 0.77304 0.21943
 H1140 H 0.23568 0.76455 0.28244
 H1141 H 0.29239 0.69595 0.26334
 H1142 H 0.23242 0.70154 0.28513
 H1143 H 0.20946 0.72581 0.28639
 H1144 H 0.19904 0.78204 0.25923
 H1145 H 0.31491 0.71866 0.24500
 H1146 H 0.30489 0.77623 0.21677
 H1147 H 0.28038 0.79874 0.21510
 H1148 H 0.21921 0.80448 0.23823
 H1149 H 0.29335 0.69821 0.23471
 H1150 H 0.23850 0.71398 0.20235
 H1151 H 0.27402 0.78686 0.29979
 H1152 H 0.22047 0.80315 0.26724
 Zr1153 Zr 0.22772 0.76087 0.72466
 O1154 O 0.23456 0.78167 0.70696
 O1155 O 0.20300 0.75080 0.71473
 O1156 O 0.23226 0.74921 0.70029
 O1157 O 0.20887 0.78952 0.75497
 O1158 O 0.25294 0.72639 0.70574
 O1159 O 0.20976 0.78393 0.72648
 O1160 O 0.19623 0.72628 0.73169
 O1161 O 0.23025 0.73241 0.72862
 O1162 O 0.21320 0.75461 0.74674
 O1163 O 0.25609 0.75572 0.72648
 O1164 O 0.23961 0.77734 0.74397
 Zr1165 Zr 0.25650 0.73640 0.77310
 Zr1166 Zr 0.25831 0.72753 0.73179
 Zr1167 Zr 0.22582 0.76960 0.76615
 Zr1168 Zr 0.21650 0.72654 0.75101
 O1169 O 0.23320 0.79614 0.77517
 O1170 O 0.21574 0.69965 0.74037
 O1171 O 0.22794 0.74135 0.77149
 O1172 O 0.24437 0.72020 0.75388
 O1173 O 0.27126 0.74255 0.75111
 O1174 O 0.25381 0.76479 0.76904
 C1175 C 0.19316 0.73676 0.71878
 C1176 C 0.20409 0.79299 0.73957
 C1177 C 0.24233 0.73544 0.69568
 O1178 O 0.25207 0.70000 0.72474
 O1179 O 0.27733 0.70933 0.74271
 O1180 O 0.27550 0.71431 0.77118
 C1181 C 0.28185 0.70569 0.75813
 O1182 O 0.26813 0.79170 0.72791
 Zr1183 Zr 0.26755 0.77069 0.74668
 O1184 O 0.28147 0.74645 0.78274
 O1185 O 0.28344 0.73063 0.71882
 O1186 O 0.29191 0.76677 0.73258
 O1187 O 0.27018 0.79695 0.75837
 O1188 O 0.28951 0.76913 0.76417
 C1189 C 0.29240 0.75911 0.77738
 O1190 O 0.25057 0.71477 0.79026
 O1191 O 0.19951 0.76748 0.77722
 O1192 O 0.25028 0.74633 0.79767
 O1193 O 0.22817 0.76791 0.79265
 O1194 O 0.19093 0.73032 0.76320
 O1195 O 0.21403 0.70756 0.77139
 C1196 C 0.23854 0.75846 0.80265
 H1197 H 0.20000 0.75771 0.74587
 H1198 H 0.24564 0.70689 0.75639
 H1199 H 0.25884 0.77234 0.77846
 H1200 H 0.26233 0.75896 0.71577
 H1201 H 0.20288 0.69522 0.74086
 H1202 H 0.26211 0.69570 0.71730
 H1203 H 0.28586 0.71874 0.71305
 H1204 H 0.30080 0.77639 0.73623
 H1205 H 0.18254 0.72048 0.75906
 H1206 H 0.19723 0.77927 0.78321
 H1207 H 0.22309 0.80034 0.78256
 H1208 H 0.28313 0.80093 0.75721
 H1209 H 0.20334 0.69937 0.76932
 H1210 H 0.26069 0.71444 0.79875
 H1211 H 0.22442 0.78213 0.69851
 H1212 H 0.28014 0.79813 0.72837
 Zr1213 Zr 0.26648 0.23215 0.22434
 O1214 O 0.25850 0.21091 0.20735
 O1215 O 0.29153 0.24058 0.21403
 O1216 O 0.26225 0.24275 0.19967
 O1217 O 0.28257 0.20302 0.25557
 O1218 O 0.24156 0.26600 0.20338
 O1219 O 0.28306 0.20820 0.22705
 O1220 O 0.29909 0.26593 0.22974
 O1221 O 0.26513 0.26087 0.22698
 O1222 O 0.28165 0.23878 0.24612
 O1223 O 0.23835 0.23859 0.22577
 O1224 O 0.25404 0.21730 0.24419
 Zr1225 Zr 0.23945 0.26029 0.27147
 Zr1226 Zr 0.23730 0.26714 0.22971
 Zr1227 Zr 0.26855 0.22543 0.26603
 Zr1228 Zr 0.27945 0.26721 0.24919
 O1229 O 0.26003 0.20032 0.27727
 O1230 O 0.28139 0.29368 0.23787
 O1231 O 0.26772 0.25398 0.27018
 O1232 O 0.25192 0.27490 0.25157
 O1233 O 0.22404 0.25374 0.24970
 O1234 O 0.24086 0.23164 0.26864
 C1235 C 0.30169 0.25467 0.21735
 C1236 C 0.28694 0.19854 0.24035
 C1237 C 0.25202 0.25596 0.19410
 O1238 O 0.24504 0.29368 0.22110
 O1239 O 0.21964 0.28713 0.23994
 O1240 O 0.22134 0.28292 0.26855
 C1241 C 0.21543 0.29149 0.25525
 O1242 O 0.22443 0.20351 0.22849
 Zr1243 Zr 0.22648 0.22526 0.24652
 O1244 O 0.21440 0.25164 0.28171
 O1245 O 0.21158 0.26464 0.21729
 O1246 O 0.20197 0.22971 0.23245
 O1247 O 0.22320 0.19959 0.25905
 O1248 O 0.20516 0.22833 0.26415
 C1249 C 0.20302 0.23897 0.27705
 O1250 O 0.24642 0.28267 0.28759
 O1251 O 0.29554 0.22629 0.27612
 O1252 O 0.24590 0.25158 0.29646
 O1253 O 0.26745 0.22926 0.29236
 O1254 O 0.30514 0.26281 0.26133
 O1255 O 0.28295 0.28685 0.26900
 C1256 C 0.25761 0.23960 0.30193
 H1257 H 0.29463 0.23487 0.24532
 H1258 H 0.25131 0.28838 0.25353
 H1259 H 0.23577 0.22485 0.27843
 H1260 H 0.23181 0.23498 0.21522
 H1261 H 0.29445 0.29752 0.23837
 H1262 H 0.23506 0.29805 0.21350
 H1263 H 0.20959 0.27627 0.21095
 H1264 H 0.19272 0.22073 0.23654
 H1265 H 0.31380 0.27215 0.25686
 H1266 H 0.29731 0.21473 0.28262
 H1267 H 0.27030 0.19600 0.28455
 H1268 H 0.21007 0.19608 0.25815
 H1269 H 0.29414 0.29426 0.26693
 H1270 H 0.23652 0.28379 0.29611
 H1271 H 0.26849 0.20960 0.19895
 H1272 H 0.21215 0.19770 0.22922
 Zr1273 Zr 0.73210 0.73879 0.27385
 O1274 O 0.74123 0.71938 0.29207
 O1275 O 0.70650 0.74630 0.28347
 O1276 O 0.73585 0.75141 0.29795
 O1277 O 0.71793 0.70632 0.24449
 O1278 O 0.75385 0.77631 0.29205
 O1279 O 0.71679 0.71379 0.27259
 O1280 O 0.69712 0.76944 0.26590
 O1281 O 0.73155 0.76725 0.26925
 O1282 O 0.71673 0.74265 0.25162
 O1283 O 0.75976 0.74699 0.27190
 O1284 O 0.74556 0.72329 0.25498
 Zr1285 Zr 0.75759 0.76500 0.22488
 Zr1286 Zr 0.75891 0.77511 0.26601
 Zr1287 Zr 0.73074 0.72868 0.23263
 Zr1288 Zr 0.71704 0.77084 0.24667
 O1289 O 0.74090 0.70332 0.22322
 O1290 O 0.71348 0.79781 0.25656
 O1291 O 0.72978 0.75683 0.22661
 O1292 O 0.74405 0.78024 0.24372
 O1293 O 0.77318 0.76115 0.24702
 O1294 O 0.75796 0.73658 0.22957
 C1295 C 0.69522 0.75906 0.27902
 C1296 C 0.71352 0.70290 0.25993
 C1297 C 0.74454 0.76626 0.30229
 O1298 O 0.74980 0.80197 0.27230
 O1299 O 0.77597 0.79485 0.25479
 O1300 O 0.77473 0.78874 0.22646
 C1301 C 0.78032 0.79830 0.23936
 O1302 O 0.77620 0.71295 0.27151
 Zr1303 Zr 0.77258 0.73290 0.25205
 O1304 O 0.78307 0.75714 0.21513
 O1305 O 0.78430 0.77525 0.27922
 O1306 O 0.79672 0.74033 0.26564
 O1307 O 0.77736 0.70651 0.24132
 O1308 O 0.79368 0.73591 0.23411
 C1309 C 0.79518 0.74561 0.22053
 O1310 O 0.74944 0.78573 0.20751
 O1311 O 0.70386 0.72693 0.22237
 O1312 O 0.75158 0.75408 0.20051
 O1313 O 0.73185 0.73041 0.20612
 O1314 O 0.69192 0.76375 0.23452
 O1315 O 0.71234 0.78881 0.22581
 C1316 C 0.74083 0.74078 0.19586
 H1317 H 0.70401 0.73793 0.25259
 H1318 H 0.74394 0.79355 0.24090
 H1319 H 0.76347 0.72937 0.22024
 H1320 H 0.76646 0.74477 0.28267
 H1321 H 0.70021 0.80074 0.25589
 H1322 H 0.75934 0.80757 0.27973
 H1323 H 0.78550 0.78752 0.28469
 H1324 H 0.80657 0.73177 0.26214
 H1325 H 0.68255 0.77268 0.23838
 H1326 H 0.70286 0.71477 0.21667
 H1327 H 0.73100 0.69772 0.21623
 H1328 H 0.79069 0.70399 0.24228
 H1329 H 0.70077 0.79567 0.22757
 H1330 H 0.75929 0.78683 0.19895
 H1331 H 0.73129 0.71805 0.30052
 H1332 H 0.78883 0.70796 0.27102
 Zr1333 Zr 0.76888 0.26538 0.77715
 O1334 O 0.76249 0.28730 0.79384
 O1335 O 0.79279 0.25482 0.78820
 O1336 O 0.76337 0.25517 0.80172
 O1337 O 0.78966 0.29183 0.74634
 O1338 O 0.74142 0.23316 0.79724
 O1339 O 0.78780 0.28763 0.77496
 O1340 O 0.79849 0.22895 0.77264
 O1341 O 0.76520 0.23686 0.77432
 O1342 O 0.78373 0.25750 0.75574
 O1343 O 0.74035 0.26118 0.77501
 O1344 O 0.75815 0.28131 0.75703
 Zr1345 Zr 0.74032 0.23967 0.72918
 Zr1346 Zr 0.73703 0.23282 0.77085
 Zr1347 Zr 0.77221 0.27199 0.73553
 Zr1348 Zr 0.77926 0.22940 0.75249
 O1349 O 0.76633 0.29835 0.72532
 O1350 O 0.77863 0.20280 0.76368
 O1351 O 0.76902 0.24362 0.73120
 O1352 O 0.75123 0.22400 0.74933
 O1353 O 0.72525 0.24734 0.75060
 O1354 O 0.74409 0.26810 0.73226
 C1355 C 0.80172 0.23991 0.78520
 C1356 C 0.79411 0.29591 0.76170
 C1357 C 0.75236 0.24243 0.80693
 O1358 O 0.74217 0.20563 0.77940
 O1359 O 0.71789 0.21442 0.76008
 O1360 O 0.72064 0.21822 0.73151
 C1361 C 0.71379 0.21020 0.74465
 O1362 O 0.72993 0.29745 0.77196
 Zr1363 Zr 0.73001 0.27553 0.75402
 O1364 O 0.71597 0.25006 0.71865
 O1365 O 0.71152 0.23744 0.78276
 O1366 O 0.70516 0.27322 0.76768
 O1367 O 0.72869 0.30130 0.74133
 O1368 O 0.70847 0.27396 0.73609
 C1369 C 0.70549 0.26341 0.72322
 O1370 O 0.74586 0.21715 0.71288
 O1371 O 0.79864 0.26815 0.72517
 O1372 O 0.74737 0.24839 0.70438
 O1373 O 0.77030 0.26930 0.70908
 O1374 O 0.80551 0.23166 0.74124
 O1375 O 0.78146 0.20970 0.73262
 C1376 C 0.75966 0.25993 0.69921
 H1377 H 0.79702 0.26013 0.75688
 H1378 H 0.74955 0.21063 0.74727
 H1379 H 0.73959 0.27539 0.72247
 H1380 H 0.73401 0.26523 0.78543
 H1381 H 0.79131 0.19790 0.76359
 H1382 H 0.73178 0.20210 0.78678
 H1383 H 0.70851 0.22600 0.78902
 H1384 H 0.69679 0.28298 0.76348
 H1385 H 0.81321 0.22162 0.74597
 H1386 H 0.80168 0.27955 0.71885
 H1387 H 0.77686 0.30180 0.71809
 H1388 H 0.71589 0.30580 0.74213
 H1389 H 0.79186 0.20131 0.73504
 H1390 H 0.73593 0.21678 0.70420
 H1391 H 0.77238 0.28778 0.80255
 H1392 H 0.71818 0.30423 0.77110
 C1393 C 0.44434 1.01764 0.33067
 C1394 C 0.42985 1.03010 0.32819
 C1395 C 0.42046 1.03092 0.31270
 C1396 C 0.42534 1.01942 0.29896
 C1397 C 0.43996 1.00687 0.30165
 C1398 C 0.44921 1.00597 0.31726
 C1399 C 0.45415 1.01694 0.34723
 N1400 N 0.46543 1.00266 0.35131
 N1401 N 0.47377 1.00196 0.36643
 C1402 C 0.47127 1.01560 0.37804
 N1403 N 0.46013 1.02991 0.37385
 N1404 N 0.45175 1.03057 0.35882
 C1405 C 0.47964 1.01467 0.39526
 C1406 C 0.47798 1.02980 0.40630
 C1407 C 0.48381 1.02855 0.42312
 C1408 C 0.49153 1.01216 0.42943
 C1409 C 0.49423 0.99733 0.41822
 C1410 C 0.48830 0.99857 0.40126
 H1411 H 0.42549 1.03910 0.33835
 H1412 H 0.40891 1.04021 0.31197
 H1413 H 0.44498 0.99813 0.29160
 H1414 H 0.46044 0.99632 0.31870
 H1415 H 0.47165 1.04252 0.40211
 H1416 H 0.48175 1.04033 0.43136
 H1417 H 0.50009 0.98451 0.42274
 H1418 H 0.48987 0.98669 0.39307
 C1419 C -0.05628 0.51958 0.83317
 C1420 C -0.05217 0.50731 0.81997
 C1421 C -0.06127 0.50854 0.80429
 C1422 C -0.07492 0.52207 0.80129
 C1423 C -0.07901 0.53419 0.81481
 C1424 C -0.06981 0.53301 0.83037
 C1425 C -0.04674 0.51848 0.84985
 N1426 N -0.04870 0.53223 0.86139
 N1427 N -0.04066 0.53122 0.87656
 C1428 C -0.03028 0.51641 0.88094
 N1429 N -0.02819 0.50265 0.86937
 N1430 N -0.03621 0.50370 0.85412
 C1431 C -0.02234 0.51509 0.89832
 C1432 C -0.01377 0.49886 0.90417
 C1433 C -0.00815 0.49726 0.92118
 C1434 C -0.01109 0.51183 0.93263
 C1435 C -0.01878 0.52832 0.92652
 C1436 C -0.02427 0.52994 0.90963
 H1437 H -0.04170 0.49688 0.82165
 H1438 H -0.05689 0.49921 0.79442
 H1439 H -0.08988 0.54427 0.81386
 H1440 H -0.07358 0.54252 0.84035
 H1441 H -0.01200 0.48717 0.89577
 H1442 H -0.00232 0.48436 0.92554
 H1443 H -0.02106 0.53989 0.93496
 H1444 H -0.03056 0.54274 0.90559
 C1445 C 0.05754 -0.01788 0.82719
 C1446 C 0.07356 -0.02849 0.82553
 C1447 C 0.08264 -0.02960 0.81003
 C1448 C 0.07586 -0.02031 0.79565
 C1449 C 0.05984 -0.00963 0.79732
 C1450 C 0.05085 -0.00834 0.81293
 C1451 C 0.04799 -0.01699 0.84374
 N1452 N 0.03559 -0.00351 0.84719
 N1453 N 0.02743 -0.00268 0.86228
 C1454 C 0.03123 -0.01540 0.87447
 N1455 N 0.04351 -0.02891 0.87091
 N1456 N 0.05171 -0.02967 0.85592
 C1457 C 0.02291 -0.01439 0.89160
 C1458 C 0.02497 -0.02931 0.90279
 C1459 C 0.01917 -0.02799 0.91954
 C1460 C 0.01113 -0.01170 0.92566
 C1461 C 0.00804 0.00292 0.91428
 C1462 C 0.01389 0.00158 0.89737
 H1463 H 0.07923 -0.03585 0.83629
 H1464 H 0.09515 -0.03759 0.80939
 H1465 H 0.05404 -0.00248 0.78650
 H1466 H 0.03850 -0.00011 0.81376
 H1467 H 0.03155 -0.04194 0.89876
 H1468 H 0.02155 -0.03963 0.92788
 H1469 H 0.00192 0.01566 0.91863
 H1470 H 0.01204 0.01331 0.88905
 C1471 C 0.55838 0.48231 0.33068
 C1472 C 0.57492 0.47262 0.32877
 C1473 C 0.58383 0.47217 0.31318
 C1474 C 0.57636 0.48123 0.29897
 C1475 C 0.55989 0.49110 0.30090
 C1476 C 0.55103 0.49170 0.31661
 C1477 C 0.54895 0.48237 0.34730
 N1478 N 0.53536 0.49461 0.35077
 N1479 N 0.52725 0.49470 0.36590
 C1480 C 0.53232 0.48245 0.37811
 N1481 N 0.54580 0.47017 0.37454
 N1482 N 0.55394 0.47014 0.35950
 C1483 C 0.52401 0.48275 0.39524
 C1484 C 0.52797 0.46850 0.40675
 C1485 C 0.52185 0.46938 0.42344
 C1486 C 0.51160 0.48454 0.42914
 C1487 C 0.50681 0.49841 0.41745
 C1488 C 0.51297 0.49751 0.40064
 H1489 H 0.58111 0.46542 0.33939
 H1490 H 0.59670 0.46480 0.31229
 H1491 H 0.55364 0.49807 0.29019
 H1492 H 0.53828 0.49925 0.31764
 H1493 H 0.53620 0.45678 0.40302
 H1494 H 0.52565 0.45834 0.43201
 H1495 H 0.49897 0.51030 0.42145
 H1496 H 0.50963 0.50870 0.39207
 C1497 C 0.55815 0.52006 0.16854
 C1498 C 0.55102 0.51110 0.18284
 C1499 C 0.55997 0.51244 0.19858
 C1500 C 0.57640 0.52258 0.20034
 C1501 C 0.58360 0.53135 0.18594
 C1502 C 0.57455 0.53019 0.17029
 C1503 C 0.54864 0.51902 0.15185
 N1504 N 0.55301 0.53109 0.13937
 N1505 N 0.54475 0.53019 0.12429
 C1506 C 0.53177 0.51717 0.12095
 N1507 N 0.52735 0.50506 0.13344
 N1508 N 0.53556 0.50603 0.14861
 C1509 C 0.52330 0.51602 0.10380
 C1510 C 0.51339 0.50032 0.09840
 C1511 C 0.50722 0.49878 0.08153
 C1512 C 0.51088 0.51291 0.06981
 C1513 C 0.51989 0.52896 0.07553
 C1514 C 0.52600 0.53048 0.09225
 H1515 H 0.53837 0.50328 0.18195
 H1516 H 0.55385 0.50574 0.20942
 H1517 H 0.59639 0.53894 0.18668
 H1518 H 0.58054 0.53711 0.15949
 H1519 H 0.51102 0.48896 0.10702
 H1520 H 0.50035 0.48624 0.07749
 H1521 H 0.52272 0.54023 0.06693
 H1522 H 0.53329 0.54289 0.09599
 C1523 C 0.05825 1.01822 0.66568
 C1524 C 0.05386 1.00591 0.67877
 C1525 C 0.06281 1.00701 0.69453
 C1526 C 0.07658 1.02043 0.69774
 C1527 C 0.08096 1.03258 0.68433
 C1528 C 0.07192 1.03152 0.66868
 C1529 C 0.04880 1.01728 0.64892
 N1530 N 0.05128 1.03092 0.63737
 N1531 N 0.04323 1.03009 0.62219
 C1532 C 0.03233 1.01559 0.61780
 N1533 N 0.02975 1.00194 0.62937
 N1534 N 0.03778 1.00280 0.64463
 C1535 C 0.02424 1.01452 0.60045
 C1536 C 0.01493 0.99863 0.59466
 C1537 C 0.00898 0.99727 0.57771
 C1538 C 0.01229 1.01176 0.56627
 C1539 C 0.02080 1.02792 0.57234
 C1540 C 0.02666 1.02929 0.58916
 H1541 H 0.04327 0.99557 0.67694
 H1542 H 0.05821 0.99768 0.70431
 H1543 H 0.09192 1.04260 0.68546
 H1544 H 0.07590 1.04106 0.65880
 H1545 H 0.01277 0.98701 0.60304
 H1546 H 0.00251 0.98461 0.57341
 H1547 H 0.02340 1.03943 0.56393
 H1548 H 0.03355 1.04183 0.59316
 C1549 C -0.05924 0.48287 0.67130
 C1550 C -0.05183 0.49217 0.68544
 C1551 C -0.06051 0.49124 0.70122
 C1552 C -0.07689 0.48112 0.70318
 C1553 C -0.08440 0.47210 0.68893
 C1554 C -0.07565 0.47287 0.67325
 C1555 C -0.05000 0.48334 0.65458
 N1556 N -0.05497 0.47119 0.64226
 N1557 N -0.04699 0.47155 0.62715
 C1558 C -0.03369 0.48410 0.62362
 N1559 N -0.02865 0.49629 0.63594
 N1560 N -0.03660 0.49587 0.65114
 C1561 C -0.02549 0.48466 0.60643
 C1562 C -0.01484 0.49975 0.60097
 C1563 C -0.00877 0.50076 0.58412
 C1564 C -0.01323 0.48669 0.57247
 C1565 C -0.02309 0.47125 0.57825
 C1566 C -0.02912 0.47026 0.59494
 H1567 H -0.03917 0.49993 0.68438
 H1568 H -0.05421 0.49818 0.71195
 H1569 H -0.09719 0.46453 0.68982
 H1570 H -0.08187 0.46571 0.66260
 H1571 H -0.01175 0.51106 0.60952
 H1572 H -0.00124 0.51286 0.58007
 H1573 H -0.02661 0.46004 0.56971
 H1574 H -0.03703 0.45830 0.59872
 C1575 C 0.44482 -0.01914 0.16930
 C1576 C 0.45162 -0.00951 0.18351
 C1577 C 0.44263 -0.01062 0.19912
 C1578 C 0.42654 -0.02125 0.20083
 C1579 C 0.41961 -0.03057 0.18649
 C1580 C 0.42868 -0.02962 0.17099
 C1581 C 0.45441 -0.01853 0.15278
 N1582 N 0.45023 -0.03106 0.14054
 N1583 N 0.45848 -0.03054 0.12556
 C1584 C 0.47127 -0.01745 0.12209
 N1585 N 0.47553 -0.00488 0.13433
 N1586 N 0.46732 -0.00546 0.14940
 C1587 C 0.47963 -0.01665 0.10498
 C1588 C 0.48961 -0.00112 0.09951
 C1589 C 0.49561 0.00014 0.08266
 C1590 C 0.49169 -0.01409 0.07103
 C1591 C 0.48260 -0.02998 0.07683
 C1592 C 0.47667 -0.03124 0.09354
 H1593 H 0.46406 -0.00136 0.18264
 H1594 H 0.44848 -0.00344 0.20994
 H1595 H 0.40705 -0.03854 0.18720
 H1596 H 0.42291 -0.03703 0.16027
 H1597 H 0.49217 0.01034 0.10803
 H1598 H 0.50253 0.01259 0.07856
 H1599 H 0.47953 -0.04131 0.06829
 H1600 H 0.46928 -0.04353 0.09733
 C1601 C 0.33848 0.39505 0.01465
 C1602 C 0.32842 0.39524 0.02979
 C1603 C 0.31142 0.38635 0.03077
 C1604 C 0.30398 0.37697 0.01667
 C1605 C 0.31375 0.37714 0.00138
 C1606 C 0.33084 0.38605 0.00039
 C1607 C 0.35686 0.40405 0.01391
 N1608 N 0.36678 0.40390 -0.00060
 N1609 N 0.38322 0.41199 -0.00123
 C1610 C 0.39051 0.42055 0.01263
 N1611 N 0.38061 0.42065 0.02716
 N1612 N 0.36417 0.41256 0.02779
 C1613 C 0.40856 0.43018 0.01167
 C1614 C 0.41600 0.43961 0.02578
 C1615 C 0.43228 0.44986 0.02435
 C1616 C 0.44143 0.45098 0.00874
 C1617 C 0.43438 0.44090 -0.00513
 C1618 C 0.41821 0.43064 -0.00368
 H1619 H 0.33372 0.40214 0.04099
 H1620 H 0.30409 0.38674 0.04266
 H1621 H 0.30844 0.36997 -0.00967
 H1622 H 0.33815 0.38568 -0.01150
 H1623 H 0.40901 0.43947 0.03785
 H1624 H 0.43729 0.45749 0.03526
 H1625 H 0.44110 0.44131 -0.01732
 H1626 H 0.41304 0.42345 -0.01478
 C1627 C -0.15921 0.89441 0.51435
 C1628 C -0.16710 0.89160 0.53031
 C1629 C -0.18414 0.88289 0.53183
 C1630 C -0.19401 0.87661 0.51740
 C1631 C -0.18615 0.87992 0.50135
 C1632 C -0.16901 0.88857 0.49988
 C1633 C -0.14087 0.90335 0.51289
 N1634 N -0.13272 0.90532 0.49756
 N1635 N -0.11632 0.91338 0.49628
 C1636 C -0.10731 0.91981 0.51026
 N1637 N -0.11544 0.91780 0.52559
 N1638 N -0.13183 0.90972 0.52688
 C1639 C -0.08930 0.92936 0.50867
 C1640 C -0.08053 0.93739 0.52286
 C1641 C -0.06426 0.94757 0.52100
 C1642 C -0.05640 0.94996 0.50491
 C1643 C -0.06479 0.94126 0.49088
 C1644 C -0.08099 0.93113 0.49273
 H1645 H -0.16012 0.89616 0.54175
 H1646 H -0.18970 0.88174 0.54445
 H1647 H -0.19268 0.87509 0.48980
 H1648 H -0.16335 0.89051 0.48735
 H1649 H -0.08647 0.93624 0.53535
 H1650 H -0.05821 0.95408 0.53209
 H1651 H -0.05912 0.94268 0.47829
 H1652 H -0.08721 0.92502 0.48153
 C1653 C -0.15895 0.10482 0.98531
 C1654 C -0.16611 0.11324 0.99995
 C1655 C -0.18317 0.12216 0.99947
 C1656 C -0.19344 0.12294 0.98433
 C1657 C -0.18646 0.11417 0.96982
 C1658 C -0.16947 0.10524 0.97030
 C1659 C -0.14059 0.09580 0.98561
 N1660 N -0.13373 0.08765 0.97147
 N1661 N -0.11731 0.07957 0.97173
 C1662 C -0.10696 0.07932 0.98614
 N1663 N -0.11380 0.08753 1.00026
 N1664 N -0.13022 0.09560 1.00000
 C1665 C -0.08888 0.06976 0.98669
 C1666 C -0.07873 0.06905 1.00190
 C1667 C -0.06247 0.05892 1.00294
 C1668 C -0.05581 0.04921 0.98880
 C1669 C -0.06550 0.05055 0.97335
 C1670 C -0.08188 0.06068 0.97232
 H1671 H -0.15844 0.11315 1.01176
 H1672 H -0.18808 0.12890 1.01082
 H1673 H -0.19416 0.11424 0.95802
 H1674 H -0.16453 0.09879 0.95882
 H1675 H -0.08355 0.07596 1.01319
 H1676 H -0.05535 0.05832 1.01503
 H1677 H -0.06083 0.04319 0.96224
 H1678 H -0.08928 0.06100 0.96037
 C1679 C 0.33879 0.60192 0.48260
 C1680 C 0.33136 0.61029 0.49715
 C1681 C 0.31434 0.61926 0.49643
 C1682 C 0.30437 0.62019 0.48113
 C1683 C 0.31162 0.61151 0.46669
 C1684 C 0.32857 0.60249 0.46741
 C1685 C 0.35711 0.59283 0.48322
 N1686 N 0.36410 0.58429 0.46932
 N1687 N 0.38051 0.57616 0.46991
 C1688 C 0.39070 0.57627 0.48442
 N1689 N 0.38372 0.58485 0.49829
 N1690 N 0.36733 0.59296 0.49770
 C1691 C 0.40877 0.56669 0.48541
 C1692 C 0.41889 0.56679 0.50065
 C1693 C 0.43509 0.55666 0.50222
 C1694 C 0.44174 0.54612 0.48858
 C1695 C 0.43213 0.54667 0.47306
 C1696 C 0.41580 0.55682 0.47149
 H1697 H 0.33878 0.61009 0.50909
 H1698 H 0.30923 0.62593 0.50774
 H1699 H 0.30416 0.61171 0.45476
 H1700 H 0.33374 0.59612 0.45598
 H1701 H 0.41407 0.57435 0.51159
 H1702 H 0.44217 0.55672 0.51434
 H1703 H 0.43682 0.53867 0.46232
 H1704 H 0.40844 0.55651 0.45952
 C1705 C 0.16215 0.59922 0.51373
 C1706 C 0.16852 0.60918 0.49959
 C1707 C 0.18574 0.61789 0.49998
 C1708 C 0.19692 0.61690 0.51454
 C1709 C 0.19086 0.60636 0.52838
 C1710 C 0.17373 0.59764 0.52799
 C1711 C 0.14345 0.59086 0.51383
 N1712 N 0.13729 0.58152 0.52762
 N1713 N 0.12050 0.57416 0.52780
 C1714 C 0.10906 0.57589 0.51421
 N1715 N 0.11521 0.58528 0.50044
 N1716 N 0.13200 0.59263 0.50026
 C1717 C 0.09058 0.56706 0.51403
 C1718 C 0.07939 0.56816 0.49948
 C1719 C 0.06284 0.55844 0.49850
 C1720 C 0.05692 0.54737 0.51206
 C1721 C 0.06754 0.54706 0.52701
 C1722 C 0.08423 0.55677 0.52797
 H1723 H 0.16004 0.61059 0.48834
 H1724 H 0.19000 0.62599 0.48916
 H1725 H 0.19929 0.60510 0.53969
 H1726 H 0.16944 0.58994 0.53904
 H1727 H 0.08367 0.57607 0.48855
 H1728 H 0.05495 0.55912 0.48682
 H1729 H 0.06342 0.53861 0.53765
 H1730 H 0.09241 0.55572 0.53944
 C1731 C 0.66403 0.10235 0.01546
 C1732 C 0.67106 0.11182 0.00132
 C1733 C 0.68812 0.12082 0.00222
 C1734 C 0.69850 0.12060 0.01732
 C1735 C 0.69170 0.11069 0.03126
 C1736 C 0.67472 0.10171 0.03036
 C1737 C 0.64560 0.09341 0.01485
 N1738 N 0.63878 0.08455 0.02864
 N1739 N 0.62227 0.07658 0.02814
 C1740 C 0.61179 0.07716 0.01382
 N1741 N 0.61859 0.08607 0.00005
 N1742 N 0.63510 0.09403 0.00055
 C1743 C 0.59360 0.06775 0.01298
 C1744 C 0.58332 0.06785 -0.00217
 C1745 C 0.56696 0.05785 -0.00355
 C1746 C 0.56032 0.04748 0.01020
 C1747 C 0.57012 0.04802 0.02562
 C1748 C 0.58660 0.05802 0.02699
 H1749 H 0.66325 0.11255 -0.01040
 H1750 H 0.69293 0.12842 -0.00870
 H1751 H 0.69950 0.11001 0.04300
 H1752 H 0.66990 0.09444 0.04146
 H1753 H 0.58813 0.07528 -0.01318
 H1754 H 0.55974 0.05787 -0.01560
 H1755 H 0.56545 0.04015 0.03644
 H1756 H 0.59409 0.05772 0.03890
 C1757 C 0.66310 0.89770 0.48782
 C1758 C 0.67375 0.89898 0.47308
 C1759 C 0.69071 0.89013 0.47207
 C1760 C 0.69751 0.87967 0.48575
 C1761 C 0.68719 0.87882 0.50071
 C1762 C 0.67015 0.88772 0.50173
 C1763 C 0.64469 0.90653 0.48849
 N1764 N 0.63452 0.90601 0.50284
 N1765 N 0.61803 0.91393 0.50337
 C1766 C 0.61094 0.92265 0.48954
 N1767 N 0.62108 0.92310 0.47516
 N1768 N 0.63757 0.91520 0.47465
 C1769 C 0.59283 0.93207 0.49035
 C1770 C 0.58528 0.94089 0.47600
 C1771 C 0.56892 0.95095 0.47719
 C1772 C 0.55979 0.95251 0.49277
 C1773 C 0.56698 0.94306 0.50692
 C1774 C 0.58323 0.93296 0.50571
 H1775 H 0.66891 0.90669 0.46218
 H1776 H 0.69849 0.89135 0.46048
 H1777 H 0.69200 0.87078 0.51141
 H1778 H 0.66237 0.88649 0.51331
 H1779 H 0.59222 0.94040 0.46392
 H1780 H 0.56381 0.95809 0.46607
 H1781 H 0.56028 0.94383 0.51911
 H1782 H 0.58851 0.92625 0.51699
 C1783 C 0.15995 0.39675 0.98893
 C1784 C 0.17040 0.39823 0.97409
 C1785 C 0.18744 0.38954 0.97286
 C1786 C 0.19451 0.37908 0.98641
 C1787 C 0.18437 0.37804 1.00148
 C1788 C 0.16726 0.38676 1.00272
 C1789 C 0.14145 0.40537 0.98984
 N1790 N 0.13142 0.40457 1.00427
 N1791 N 0.11484 0.41228 1.00500
 C1792 C 0.10752 0.42106 0.99132
 N1793 N 0.11753 0.42181 0.97687
 N1794 N 0.13411 0.41412 0.97615
 C1795 C 0.08929 0.43022 0.99234
 C1796 C 0.08156 0.43918 0.97815
 C1797 C 0.06507 0.44898 0.97953
 C1798 C 0.05597 0.45013 0.99516
 C1799 C 0.06332 0.44053 1.00914
 C1800 C 0.07972 0.43069 1.00774
 H1801 H 0.16536 0.40596 0.96328
 H1802 H 0.19506 0.39091 0.96119
 H1803 H 0.18939 0.37000 1.01210
 H1804 H 0.15964 0.38539 1.01438
 H1805 H 0.08847 0.43901 0.96605
 H1806 H 0.05984 0.45623 0.96852
 H1807 H 0.05667 0.44100 1.02136
 H1808 H 0.08514 0.42387 1.01890
 C1809 C 0.02913 0.33463 0.39797
 C1810 C 0.01581 0.33078 0.38546
 C1811 C 0.01480 0.31334 0.37805
 C1812 C 0.02716 0.29948 0.38290
 C1813 C 0.04087 0.30347 0.39496
 C1814 C 0.04182 0.32088 0.40248
 C1815 C 0.02897 0.35248 0.40699
 N1816 N 0.03973 0.35529 0.42090
 N1817 N 0.03841 0.37081 0.42986
 C1818 C 0.02630 0.38413 0.42525
 N1819 N 0.01580 0.38145 0.41117
 N1820 N 0.01710 0.36594 0.40223
 C1821 C 0.02359 0.40061 0.43594
 C1822 C 0.01043 0.41385 0.43132
 C1823 C 0.00667 0.42863 0.44202
 C1824 C 0.01600 0.43056 0.45758
 C1825 C 0.02956 0.41764 0.46200
 C1826 C 0.03330 0.40279 0.45129
 H1827 H 0.00585 0.34107 0.38168
 H1828 H 0.00426 0.31062 0.36860
 H1829 H 0.05049 0.29294 0.39896
 H1830 H 0.05226 0.32343 0.41205
 H1831 H 0.00277 0.41266 0.41955
 H1832 H -0.00367 0.43849 0.43810
 H1833 H 0.03706 0.41882 0.47386
 H1834 H 0.04356 0.39284 0.45519
 C1835 C 0.53026 -0.16249 -0.10724
 C1836 C 0.51703 -0.16698 -0.11966
 C1837 C 0.51713 -0.18429 -0.12744
 C1838 C 0.53049 -0.19737 -0.12298
 C1839 C 0.54401 -0.19269 -0.11094
 C1840 C 0.54392 -0.17542 -0.10317
 C1841 C 0.52921 -0.14490 -0.09784
 N1842 N 0.54111 -0.14124 -0.08493
 N1843 N 0.53939 -0.12602 -0.07564
 C1844 C 0.52571 -0.11383 -0.07889
 N1845 N 0.51398 -0.11735 -0.09196
 N1846 N 0.51568 -0.13258 -0.10125
 C1847 C 0.52301 -0.09761 -0.06785
 C1848 C 0.50872 -0.08514 -0.07122
 C1849 C 0.50541 -0.07047 -0.06025
 C1850 C 0.51630 -0.06794 -0.04564
 C1851 C 0.53085 -0.08016 -0.04245
 C1852 C 0.53417 -0.09486 -0.05345
 H1853 H 0.50635 -0.15730 -0.12312
 H1854 H 0.50668 -0.18752 -0.13683
 H1855 H 0.55433 -0.20260 -0.10709
 H1856 H 0.55430 -0.17242 -0.09366
 H1857 H 0.49991 -0.08682 -0.08224
 H1858 H 0.49421 -0.06119 -0.06319
 H1859 H 0.53955 -0.07854 -0.03135
 H1860 H 0.54530 -0.10421 -0.05049
 C1861 C -0.02332 -0.16886 1.09487
 C1862 C -0.01052 -0.17309 1.10769
 C1863 C -0.01064 -0.19037 1.11542
 C1864 C -0.02359 -0.20375 1.11052
 C1865 C -0.03651 -0.19951 1.09783
 C1866 C -0.03637 -0.18224 1.09005
 C1867 C -0.02270 -0.15080 1.08627
 N1868 N -0.03429 -0.14695 1.07318
 N1869 N -0.03316 -0.13096 1.06498
 C1870 C -0.02040 -0.11816 1.06954
 N1871 N -0.00896 -0.12193 1.08274
 N1872 N -0.01009 -0.13792 1.09094
 C1873 C -0.01834 -0.10088 1.05984
 C1874 C -0.00455 -0.08814 1.06424
 C1875 C -0.00170 -0.07245 1.05441
 C1876 C -0.01260 -0.06913 1.03996
 C1877 C -0.02675 -0.08160 1.03583
 C1878 C -0.02958 -0.09733 1.04566
 H1879 H -0.00030 -0.16310 1.11173
 H1880 H -0.00071 -0.19322 1.12536
 H1881 H -0.04655 -0.20967 1.09376
 H1882 H -0.04640 -0.17943 1.08019
 H1883 H 0.00429 -0.09040 1.07514
 H1884 H 0.00921 -0.06303 1.05806
 H1885 H -0.03543 -0.07940 1.02481
 H1886 H -0.04037 -0.10685 1.04196
 C1887 C 0.46576 0.33826 0.60873
 C1888 C 0.45238 0.32496 0.60462
 C1889 C 0.45273 0.30763 0.61228
 C1890 C 0.46649 0.30326 0.62416
 C1891 C 0.47938 0.31680 0.62883
 C1892 C 0.47899 0.33415 0.62123
 C1893 C 0.46683 0.35571 0.59913
 N1894 N 0.47987 0.36848 0.60297
 N1895 N 0.48198 0.38341 0.59339
 C1896 C 0.47116 0.38619 0.57954
 N1897 N 0.45789 0.37359 0.57585
 N1898 N 0.45578 0.35865 0.58545
 C1899 C 0.47456 0.40199 0.56816
 C1900 C 0.46430 0.40419 0.55313
 C1901 C 0.46836 0.41848 0.54190
 C1902 C 0.48278 0.43084 0.54547
 C1903 C 0.49279 0.42882 0.56066
 C1904 C 0.48872 0.41458 0.57187
 H1905 H 0.44197 0.32770 0.59508
 H1906 H 0.44272 0.29737 0.60837
 H1907 H 0.48998 0.31381 0.63813
 H1908 H 0.48945 0.34412 0.62476
 H1909 H 0.45330 0.39471 0.54990
 H1910 H 0.46033 0.41972 0.53034
 H1911 H 0.50384 0.43823 0.56391
 H1912 H 0.49686 0.41333 0.58335
 C1913 C 0.52511 1.17038 0.59870
 C1914 C 0.51848 1.18634 0.59068
 C1915 C 0.51749 1.20293 0.59957
 C1916 C 0.52346 1.20388 0.61647
 C1917 C 0.53040 1.18807 0.62446
 C1918 C 0.53101 1.17133 0.61568
 C1919 C 0.52540 1.15278 0.58942
 N1920 N 0.52380 1.13649 0.59776
 N1921 N 0.52304 1.12065 0.58920
 C1922 C 0.52404 1.12052 0.57202
 N1923 N 0.52592 1.13680 0.56372
 N1924 N 0.52651 1.15263 0.57225
 C1925 C 0.52219 1.10320 0.56241
 C1926 C 0.52919 1.10190 0.54592
 C1927 C 0.52642 1.08594 0.53634
 C1928 C 0.51629 1.07114 0.54298
 C1929 C 0.50949 1.07235 0.55956
 C1930 C 0.51257 1.08818 0.56926
 H1931 H 0.51373 1.18593 0.57764
 H1932 H 0.51218 1.21508 0.59323
 H1933 H 0.53504 1.18864 0.63753
 H1934 H 0.53621 1.15920 0.62210
 H1935 H 0.53672 1.11327 0.54038
 H1936 H 0.53180 1.08539 0.52359
 H1937 H 0.50171 1.06109 0.56499
 H1938 H 0.50695 1.08889 0.58192
 C1939 C 0.02944 0.65747 1.11372
 C1940 C 0.04512 0.66862 1.11234
 C1941 C 0.04504 0.68671 1.11839
 C1942 C 0.02913 0.69426 1.12580
 C1943 C 0.01385 0.68254 1.12805
 C1944 C 0.01404 0.66441 1.12215
 C1945 C 0.02845 0.63946 1.10500
 N1946 N 0.01355 0.62840 1.10685
 N1947 N 0.01155 0.61325 1.09748
 C1948 C 0.02434 0.60857 1.08582
 N1949 N 0.03945 0.61940 1.08423
 N1950 N 0.04147 0.63454 1.09363
 C1951 C 0.02109 0.59287 1.07422
 C1952 C 0.03285 0.58964 1.06048
 C1953 C 0.02889 0.57571 1.04876
 C1954 C 0.01311 0.56473 1.05056
 C1955 C 0.00158 0.56773 1.06451
 C1956 C 0.00553 0.58163 1.07619
 H1957 H 0.05725 0.66362 1.10597
 H1958 H 0.05709 0.69504 1.11600
 H1959 H 0.00164 0.68724 1.13447
 H1960 H 0.00181 0.65608 1.12368
 H1961 H 0.04494 0.59808 1.05859
 H1962 H 0.03813 0.57366 1.03824
 H1963 H -0.01058 0.55939 1.06641
 H1964 H -0.00378 0.58370 1.08666
 C1965 C 0.47694 0.66704 -0.10114
 C1966 C 0.48879 0.68118 -0.09585
 C1967 C 0.48973 0.69764 -0.10488
 C1968 C 0.47841 0.70060 -0.11922
 C1969 C 0.46641 0.68629 -0.12437
 C1970 C 0.46591 0.66959 -0.11557
 C1971 C 0.47618 0.64978 -0.09149
 N1972 N 0.47365 0.63334 -0.09945
 N1973 N 0.47392 0.61766 -0.09066
 C1974 C 0.47647 0.61791 -0.07358
 N1975 N 0.47872 0.63438 -0.06563
 N1976 N 0.47868 0.65001 -0.07443
 C1977 C 0.47777 0.60070 -0.06386
 C1978 C 0.47264 0.60042 -0.04675
 C1979 C 0.47523 0.58456 -0.03705
 C1980 C 0.48339 0.56889 -0.04423
 C1981 C 0.48825 0.56907 -0.06142
 C1982 C 0.48525 0.58480 -0.07123
 H1983 H 0.49745 0.67947 -0.08474
 H1984 H 0.49872 0.70834 -0.10000
 H1985 H 0.45783 0.68764 -0.13556
 H1986 H 0.45671 0.65876 -0.11988
 H1987 H 0.46679 0.61252 -0.04083
 H1988 H 0.47140 0.58476 -0.02381
 H1989 H 0.49446 0.55708 -0.06722
 H1990 H 0.48940 0.58476 -0.08439
 C1991 C -0.03199 1.16221 0.39157
 C1992 C -0.01720 1.16855 0.38189
 C1993 C -0.01678 1.18664 0.37597
 C1994 C -0.03126 1.19895 0.37944
 C1995 C -0.04656 1.19215 0.38840
 C1996 C -0.04684 1.17406 0.39445
 C1997 C -0.03118 1.14390 0.39970
 N1998 N -0.04349 1.13910 0.41177
 N1999 N -0.04158 1.12343 0.42039
 C2000 C -0.02730 1.11195 0.41729
 N2001 N -0.01524 1.11656 0.40496
 N2002 N -0.01713 1.13222 0.39636
 C2003 C -0.02406 1.09555 0.42798
 C2004 C -0.00913 1.08388 0.42472
 C2005 C -0.00503 1.06934 0.43564
 C2006 C -0.01577 1.06613 0.45007
 C2007 C -0.03101 1.07750 0.45309
 C2008 C -0.03511 1.09206 0.44215
 H2009 H -0.00562 1.15969 0.37924
 H2010 H -0.00514 1.19076 0.36842
 H2011 H -0.05789 1.20100 0.39178
 H2012 H -0.05848 1.16957 0.40186
 H2013 H -0.00038 1.08613 0.41387
 H2014 H 0.00668 1.06071 0.43281
 H2015 H -0.03965 1.07531 0.46402
 H2016 H -0.04672 1.10079 0.44501
 C2017 C 0.77142 0.69163 0.92037
 C2018 C 0.75901 0.69590 0.93330
 C2019 C 0.75894 0.68582 0.94844
 C2020 C 0.77127 0.67101 0.95114
 C2021 C 0.78349 0.66673 0.93786
 C2022 C 0.78360 0.67690 0.92284
 C2023 C 0.77171 0.70226 0.90429
 N2024 N 0.78565 0.69996 0.89317
 N2025 N 0.78581 0.70900 0.87850
 C2026 C 0.77204 0.72076 0.87425
 N2027 N 0.75813 0.72319 0.88541
 N2028 N 0.75799 0.71417 0.90016
 C2029 C 0.77185 0.72976 0.85733
 C2030 C 0.75643 0.73962 0.85148
 C2031 C 0.75563 0.74612 0.83474
 C2032 C 0.77020 0.74281 0.82355
 C2033 C 0.78599 0.73389 0.82974
 C2034 C 0.78681 0.72748 0.84639
 H2035 H 0.74951 0.70727 0.93185
 H2036 H 0.74963 0.69035 0.95820
 H2037 H 0.79265 0.65504 0.93857
 H2038 H 0.79315 0.67297 0.91302
 H2039 H 0.74470 0.74170 0.85959
 H2040 H 0.74325 0.75289 0.83033
 H2041 H 0.79754 0.73126 0.82152
 H2042 H 0.79901 0.72018 0.85049
 C2043 C 0.26877 0.19116 0.41924
 C2044 C 0.28216 0.17753 0.42176
 C2045 C 0.28337 0.16795 0.43707
 C2046 C 0.27131 0.17176 0.45060
 C2047 C 0.25788 0.18557 0.44791
 C2048 C 0.25661 0.19504 0.43247
 C2049 C 0.26754 0.20100 0.40277
 N2050 N 0.25262 0.21134 0.39857
 N2051 N 0.25141 0.21953 0.38345
 C2052 C 0.26512 0.21780 0.37196
 N2053 N 0.28007 0.20763 0.37629
 N2054 N 0.28125 0.19942 0.39133
 C2055 C 0.26359 0.22578 0.35466
 C2056 C 0.27834 0.22404 0.34341
 C2057 C 0.27653 0.22941 0.32654
 C2058 C 0.25996 0.23679 0.32040
 C2059 C 0.24548 0.23961 0.33180
 C2060 C 0.24727 0.23409 0.34880
 H2061 H 0.29159 0.17395 0.41174
 H2062 H 0.29340 0.15701 0.43781
 H2063 H 0.24864 0.18978 0.45783
 H2064 H 0.24624 0.20561 0.43099
 H2065 H 0.29120 0.21797 0.34747
 H2066 H 0.28802 0.22729 0.31813
 H2067 H 0.23254 0.24522 0.32739
 H2068 H 0.23566 0.23572 0.35716
 C2069 C 0.73167 0.30957 0.41959
 C2070 C 0.72075 0.32543 0.42133
 C2071 C 0.71957 0.33459 0.43688
 C2072 C 0.72909 0.32804 0.45123
 C2073 C 0.74009 0.31219 0.44948
 C2074 C 0.74145 0.30313 0.43382
 C2075 C 0.73259 0.29988 0.40301
 N2076 N 0.74611 0.28753 0.39957
 N2077 N 0.74694 0.27921 0.38447
 C2078 C 0.73417 0.28278 0.37225
 N2079 N 0.72063 0.29502 0.37578
 N2080 N 0.71986 0.30338 0.39078
 C2081 C 0.73516 0.27427 0.35511
 C2082 C 0.72024 0.27609 0.34386
 C2083 C 0.72154 0.27015 0.32711
 C2084 C 0.73780 0.26218 0.32104
 C2085 C 0.75242 0.25930 0.33248
 C2086 C 0.75111 0.26531 0.34939
 H2087 H 0.71319 0.33091 0.41060
 H2088 H 0.71130 0.34695 0.43761
 H2089 H 0.74743 0.30657 0.46028
 H2090 H 0.74991 0.29091 0.43293
 H2091 H 0.70763 0.28261 0.34785
 H2092 H 0.70992 0.27237 0.31871
 H2093 H 0.76514 0.25326 0.32818
 H2094 H 0.76283 0.26363 0.35776
 C2095 C 0.23283 0.80952 0.91984
 C2096 C 0.22028 0.82388 0.92246
 C2097 C 0.21951 0.83309 0.93798
 C2098 C 0.23119 0.82819 0.95165
 C2099 C 0.24391 0.81377 0.94882
 C2100 C 0.24471 0.80464 0.93317
 C2101 C 0.23337 0.79989 0.90321
 N2102 N 0.24732 0.78830 0.89913
 N2103 N 0.24782 0.78014 0.88395
 C2104 C 0.23433 0.78317 0.87227
 N2105 N 0.22036 0.79462 0.87646
 N2106 N 0.21989 0.80279 0.89156
 C2107 C 0.23500 0.77494 0.85502
 C2108 C 0.22032 0.77780 0.84368
 C2109 C 0.22131 0.77175 0.82694
 C2110 C 0.23697 0.76258 0.82100
 C2111 C 0.25136 0.75886 0.83248
 C2112 C 0.25040 0.76503 0.84935
 H2113 H 0.21111 0.82827 0.91237
 H2114 H 0.21012 0.84456 0.93881
 H2115 H 0.25286 0.80883 0.95881
 H2116 H 0.25448 0.79354 0.93161
 H2117 H 0.20814 0.78516 0.84758
 H2118 H 0.20987 0.77466 0.81851
 H2119 H 0.26362 0.75185 0.82827
 H2120 H 0.26192 0.76252 0.85778
 C2121 C 0.27116 0.80750 0.08009
 C2122 C 0.25889 0.80337 0.06683
 C2123 C 0.25981 0.81284 0.05137
 C2124 C 0.27300 0.82691 0.04867
 C2125 C 0.28515 0.83101 0.06225
 C2126 C 0.28428 0.82143 0.07759
 C2127 C 0.27036 0.79756 0.09654
 N2128 N 0.28413 0.79953 0.10810
 N2129 N 0.28337 0.79110 0.12306
 C2130 C 0.26881 0.78031 0.12719
 N2131 N 0.25504 0.77821 0.11560
 N2132 N 0.25583 0.78662 0.10057
 C2133 C 0.26775 0.77192 0.14436
 C2134 C 0.25165 0.76320 0.15010
 C2135 C 0.25029 0.75720 0.16698
 C2136 C 0.26497 0.75989 0.17840
 C2137 C 0.28134 0.76770 0.17236
 C2138 C 0.28272 0.77359 0.15560
 H2139 H 0.24870 0.79260 0.06828
 H2140 H 0.25050 0.80841 0.04143
 H2141 H 0.29500 0.84214 0.06154
 H2142 H 0.29379 0.82522 0.08763
 H2143 H 0.23988 0.76163 0.14176
 H2144 H 0.23747 0.75131 0.17128
 H2145 H 0.29299 0.76979 0.18076
 H2146 H 0.29542 0.77999 0.15162
 C2147 C 0.76673 0.31053 0.58202
 C2148 C 0.75708 0.30367 0.56784
 C2149 C 0.75824 0.31258 0.55211
 C2150 C 0.76893 0.32866 0.55023
 C2151 C 0.77834 0.33562 0.56451
 C2152 C 0.77734 0.32662 0.58014
 C2153 C 0.76597 0.30105 0.59869
 N2154 N 0.77842 0.30525 0.61099
 N2155 N 0.77780 0.29707 0.62607
 C2156 C 0.76467 0.28433 0.62960
 N2157 N 0.75218 0.28006 0.61730
 N2158 N 0.75286 0.28820 0.60213
 C2159 C 0.76386 0.27594 0.64678
 C2160 C 0.74833 0.26610 0.65234
 C2161 C 0.74717 0.25998 0.66921
 C2162 C 0.76153 0.26361 0.68078
 C2163 C 0.77738 0.27259 0.67489
 C2164 C 0.77851 0.27866 0.65818
 H2165 H 0.74885 0.29126 0.56883
 H2166 H 0.75101 0.30666 0.54136
 H2167 H 0.78636 0.34817 0.56369
 H2168 H 0.78480 0.33243 0.59082
 H2169 H 0.73681 0.26372 0.64385
 H2170 H 0.73476 0.25314 0.67336
 H2171 H 0.78881 0.27543 0.68337
 H2172 H 0.79080 0.28592 0.65433
 C2173 C 0.23137 0.18727 0.57932
 C2174 C 0.22146 0.17074 0.57725
 C2175 C 0.22089 0.16173 0.56159
 C2176 C 0.23004 0.16911 0.54751
 C2177 C 0.24008 0.18559 0.54959
 C2178 C 0.24080 0.19454 0.56534
 C2179 C 0.23163 0.19678 0.59598
 N2180 N 0.24389 0.21047 0.59952
 N2181 N 0.24412 0.21870 0.61468
 C2182 C 0.23200 0.21365 0.62686
 N2183 N 0.21972 0.20005 0.62324
 N2184 N 0.21954 0.19180 0.60817
 C2185 C 0.23234 0.22217 0.64399
 C2186 C 0.21809 0.21837 0.65535
 C2187 C 0.21884 0.22484 0.67197
 C2188 C 0.23389 0.23533 0.67778
 C2189 C 0.24783 0.23988 0.66626
 C2190 C 0.24706 0.23335 0.64949
 H2191 H 0.21419 0.16463 0.58778
 H2192 H 0.21336 0.14887 0.56058
 H2193 H 0.24711 0.19179 0.53896
 H2194 H 0.24849 0.20729 0.56649
 H2195 H 0.20641 0.21003 0.65153
 H2196 H 0.20773 0.22123 0.68041
 H2197 H 0.25963 0.24790 0.67035
 H2198 H 0.25825 0.23657 0.64103
 C2199 C 0.73162 0.68936 0.07892
 C2200 C 0.72095 0.67327 0.07707
 C2201 C 0.71969 0.66423 0.06147
 C2202 C 0.72891 0.67111 0.04721
 C2203 C 0.73969 0.68715 0.04906
 C2204 C 0.74109 0.69614 0.06476
 C2205 C 0.73263 0.69887 0.09557
 N2206 N 0.74542 0.71215 0.09885
 N2207 N 0.74634 0.72030 0.11404
 C2208 C 0.73442 0.71557 0.12650
 N2209 N 0.72162 0.70240 0.12312
 N2210 N 0.72075 0.69424 0.10803
 C2211 C 0.73555 0.72390 0.14369
 C2212 C 0.72184 0.71987 0.15555
 C2213 C 0.72335 0.72603 0.17222
 C2214 C 0.73861 0.73647 0.17759
 C2215 C 0.75197 0.74135 0.16560
 C2216 C 0.75046 0.73508 0.14877
 H2217 H 0.71363 0.66753 0.08774
 H2218 H 0.71160 0.65171 0.06062
 H2219 H 0.74681 0.69295 0.03829
 H2220 H 0.74937 0.70853 0.06574
 H2221 H 0.71003 0.71154 0.15210
 H2222 H 0.71267 0.72224 0.18104
 H2223 H 0.76389 0.74936 0.16938
 H2224 H 0.76123 0.73850 0.13992
 C2225 C 0.14610 0.58965 0.23615
 C2226 C 0.13795 0.58228 0.25081
 C2227 C 0.12896 0.56514 0.25032
 C2228 C 0.12784 0.55500 0.23514
 C2229 C 0.13630 0.56220 0.22059
 C2230 C 0.14531 0.57927 0.22108
 C2231 C 0.15522 0.60808 0.23650
 N2232 N 0.16341 0.61503 0.22243
 N2233 N 0.17159 0.63152 0.22275
 C2234 C 0.17190 0.64184 0.23715
 N2235 N 0.16365 0.63491 0.25119
 N2236 N 0.15549 0.61843 0.25087
 C2237 C 0.18157 0.65998 0.23780
 C2238 C 0.18209 0.67021 0.25295
 C2239 C 0.19236 0.68647 0.25414
 C2240 C 0.20241 0.69306 0.24022
 C2241 C 0.20125 0.68333 0.22480
 C2242 C 0.19096 0.66695 0.22361
 H2243 H 0.13832 0.58983 0.26266
 H2244 H 0.12247 0.56006 0.26171
 H2245 H 0.13595 0.55461 0.20875
 H2246 H 0.15152 0.58439 0.20957
 H2247 H 0.17493 0.66543 0.26410
 H2248 H 0.19280 0.69364 0.26620
 H2249 H 0.20885 0.68795 0.21385
 H2250 H 0.19079 0.65951 0.21170
 C2251 C 0.64627 0.09029 0.73644
 C2252 C 0.63776 0.08270 0.75084
 C2253 C 0.62893 0.06550 0.74997
 C2254 C 0.62834 0.05554 0.73467
 C2255 C 0.63722 0.06292 0.72042
 C2256 C 0.64605 0.08005 0.72129
 C2257 C 0.65512 0.10882 0.73713
 N2258 N 0.66329 0.11613 0.72322
 N2259 N 0.67121 0.13274 0.72382
 C2260 C 0.67125 0.14281 0.73836
 N2261 N 0.66303 0.13552 0.75226
 N2262 N 0.65512 0.11892 0.75166
 C2263 C 0.68064 0.16106 0.73930
 C2264 C 0.68122 0.17091 0.75467
 C2265 C 0.69127 0.18728 0.75609
 C2266 C 0.70102 0.19436 0.74219
 C2267 C 0.69977 0.18502 0.72658
 C2268 C 0.68972 0.16853 0.72516
 H2269 H 0.63769 0.09014 0.76275
 H2270 H 0.62211 0.06025 0.76112
 H2271 H 0.63727 0.05545 0.70852
 H2272 H 0.65256 0.08534 0.70999
 H2273 H 0.67429 0.16573 0.76579
 H2274 H 0.69179 0.19414 0.76830
 H2275 H 0.70715 0.19003 0.71563
 H2276 H 0.68948 0.16140 0.71309
 C2277 C 0.85571 0.09267 0.26174
 C2278 C 0.86054 0.08353 0.24668
 C2279 C 0.86942 0.06638 0.24714
 C2280 C 0.87402 0.05788 0.26273
 C2281 C 0.86873 0.06708 0.27776
 C2282 C 0.85976 0.08410 0.27725
 C2283 C 0.84657 0.11102 0.26133
 N2284 N 0.84046 0.11906 0.27582
 N2285 N 0.83224 0.13548 0.27547
 C2286 C 0.82984 0.14465 0.26060
 N2287 N 0.83600 0.13664 0.24613
 N2288 N 0.84418 0.12021 0.24648
 C2289 C 0.82019 0.16274 0.26001
 C2290 C 0.81868 0.17240 0.24463
 C2291 C 0.80847 0.18865 0.24359
 C2292 C 0.79942 0.19577 0.25788
 C2293 C 0.80156 0.18657 0.27347
 C2294 C 0.81183 0.17023 0.27452
 H2295 H 0.85761 0.08970 0.23446
 H2296 H 0.87339 0.06037 0.23517
 H2297 H 0.87087 0.06098 0.29012
 H2298 H 0.85602 0.09056 0.28912
 H2299 H 0.82506 0.16721 0.23323
 H2300 H 0.80728 0.19537 0.23137
 H2301 H 0.79475 0.19161 0.28472
 H2302 H 0.81277 0.16321 0.28660
 C2303 C 0.35205 0.58756 0.76564
 C2304 C 0.35665 0.57932 0.78117
 C2305 C 0.36604 0.56252 0.78170
 C2306 C 0.37118 0.55324 0.76666
 C2307 C 0.36601 0.56140 0.75107
 C2308 C 0.35672 0.57831 0.75060
 C2309 C 0.34257 0.60573 0.76514
 N2310 N 0.33641 0.61385 0.77958
 N2311 N 0.32797 0.63016 0.77910
 C2312 C 0.32541 0.63912 0.76414
 N2313 N 0.33161 0.63101 0.74973
 N2314 N 0.33999 0.61470 0.75021
 C2315 C 0.31563 0.65712 0.76333
 C2316 C 0.31432 0.66661 0.74785
 C2317 C 0.30406 0.68276 0.74650
 C2318 C 0.29472 0.68999 0.76058
 C2319 C 0.29663 0.68101 0.77629
 C2320 C 0.30698 0.66473 0.77765
 H2321 H 0.35306 0.58588 0.79303
 H2322 H 0.36865 0.55665 0.79408
 H2323 H 0.36985 0.55533 0.73908
 H2324 H 0.35337 0.58423 0.73836
 H2325 H 0.32094 0.66136 0.73659
 H2326 H 0.30308 0.68935 0.73420
 H2327 H 0.28960 0.68617 0.78737
 H2328 H 0.30777 0.65783 0.78981
 C2329 C 0.34743 0.41259 0.73265
 C2330 C 0.34634 0.42358 0.71801
 C2331 C 0.35536 0.44061 0.71730
 C2332 C 0.36572 0.44712 0.73120
 C2333 C 0.36630 0.43647 0.74607
 C2334 C 0.35728 0.41939 0.74679
 C2335 C 0.33866 0.39403 0.73305
 N2336 N 0.33985 0.38328 0.74711
 N2337 N 0.33211 0.36661 0.74743
 C2338 C 0.32288 0.35988 0.73370
 N2339 N 0.32173 0.37059 0.71961
 N2340 N 0.32948 0.38728 0.71928
 C2341 C 0.31364 0.34156 0.73444
 C2342 C 0.30370 0.33450 0.72046
 C2343 C 0.29365 0.31803 0.72186
 C2344 C 0.29323 0.30837 0.73730
 C2345 C 0.30391 0.31498 0.75096
 C2346 C 0.31399 0.33129 0.74955
 H2347 H 0.33875 0.41892 0.70694
 H2348 H 0.35443 0.44862 0.70574
 H2349 H 0.37428 0.44103 0.75694
 H2350 H 0.35835 0.41136 0.75832
 H2351 H 0.30324 0.34197 0.70859
 H2352 H 0.28552 0.31334 0.71113
 H2353 H 0.30403 0.30781 0.76301
 H2354 H 0.32161 0.33614 0.76053
 C2355 C 0.84943 0.91739 0.22942
 C2356 C 0.85305 0.92549 0.21365
 C2357 C 0.86284 0.94205 0.21260
 C2358 C 0.86947 0.95120 0.22730
 C2359 C 0.86521 0.94327 0.24316
 C2360 C 0.85547 0.92659 0.24417
 C2361 C 0.83965 0.89937 0.23040
 N2362 N 0.83727 0.89084 0.24554
 N2363 N 0.82872 0.87459 0.24641
 C2364 C 0.82217 0.86611 0.23221
 N2365 N 0.82452 0.87465 0.21704
 N2366 N 0.83310 0.89090 0.21617
 C2367 C 0.81242 0.84808 0.23343
 C2368 C 0.80425 0.83960 0.21914
 C2369 C 0.79429 0.82306 0.22078
 C2370 C 0.79229 0.81472 0.23676
 C2371 C 0.80100 0.82295 0.25086
 C2372 C 0.81088 0.83934 0.24923
 H2373 H 0.84837 0.91901 0.20202
 H2374 H 0.86467 0.94784 0.20008
 H2375 H 0.87012 0.94929 0.25490
 H2376 H 0.85288 0.92078 0.25657
 H2377 H 0.80524 0.84592 0.20674
 H2378 H 0.78775 0.81711 0.20967
 H2379 H 0.79997 0.81688 0.26337
 H2380 H 0.81709 0.84528 0.26050
 C2381 C 0.65090 0.91338 0.76697
 C2382 C 0.65126 0.92420 0.78179
 C2383 C 0.64200 0.94107 0.78241
 C2384 C 0.63210 0.94759 0.76826
 C2385 C 0.63213 0.93706 0.75329
 C2386 C 0.64139 0.92014 0.75266
 C2387 C 0.66015 0.89509 0.76656
 N2388 N 0.65954 0.88443 0.75238
 N2389 N 0.66777 0.86804 0.75202
 C2390 C 0.67695 0.86149 0.76582
 N2391 N 0.67754 0.87212 0.78003
 N2392 N 0.66930 0.88854 0.78039
 C2393 C 0.68664 0.84344 0.76511
 C2394 C 0.69667 0.83670 0.77913
 C2395 C 0.70692 0.82038 0.77785
 C2396 C 0.70742 0.81050 0.76250
 C2397 C 0.69674 0.81685 0.74876
 C2398 C 0.68650 0.83304 0.75005
 H2399 H 0.65853 0.91956 0.79301
 H2400 H 0.64249 0.94898 0.79407
 H2401 H 0.62452 0.94161 0.74222
 H2402 H 0.64085 0.91223 0.74101
 H2403 H 0.69700 0.84427 0.79097
 H2404 H 0.71501 0.81592 0.78866
 H2405 H 0.69667 0.80955 0.73676
 H2406 H 0.67883 0.83766 0.73903
 C2407 C 0.14945 0.41201 0.26549
 C2408 C 0.15000 0.42204 0.28076
 C2409 C 0.14106 0.43902 0.28214
 C2410 C 0.13126 0.44645 0.26831
 C2411 C 0.13107 0.43667 0.25290
 C2412 C 0.14005 0.41965 0.25151
 C2413 C 0.15842 0.39361 0.26427
 N2414 N 0.15855 0.38416 0.24938
 N2415 N 0.16652 0.36767 0.24831
 C2416 C 0.17468 0.35983 0.26209
 N2417 N 0.17451 0.36926 0.27699
 N2418 N 0.16655 0.38577 0.27806
 C2419 C 0.18398 0.34162 0.26072
 C2420 C 0.19199 0.33312 0.27501
 C2421 C 0.20162 0.31647 0.27343
 C2422 C 0.20355 0.30798 0.25749
 C2423 C 0.19504 0.31622 0.24332
 C2424 C 0.18538 0.33276 0.24492
 H2425 H 0.15723 0.41671 0.29175
 H2426 H 0.14176 0.44634 0.29411
 H2427 H 0.12352 0.44190 0.24206
 H2428 H 0.13936 0.41236 0.23953
 H2429 H 0.19110 0.33948 0.28741
 H2430 H 0.20802 0.31056 0.28460
 H2431 H 0.19613 0.31007 0.23085
 H2432 H 0.17934 0.33880 0.23364
 C2433 C 0.07433 0.28252 0.84064
 C2434 C 0.05870 0.27509 0.83262
 C2435 C 0.04223 0.27362 0.84136
 C2436 C 0.04106 0.27990 0.85812
 C2437 C 0.05648 0.28779 0.86604
 C2438 C 0.07310 0.28891 0.85741
 C2439 C 0.09198 0.28277 0.83174
 N2440 N 0.10805 0.28206 0.84053
 N2441 N 0.12396 0.28092 0.83242
 C2442 C 0.12439 0.28061 0.81521
 N2443 N 0.10833 0.28165 0.80644
 N2444 N 0.09243 0.28263 0.81454
 C2445 C 0.14177 0.27803 0.80617
 C2446 C 0.14318 0.28316 0.78907
 C2447 C 0.15912 0.27944 0.78007
 C2448 C 0.17382 0.27024 0.78793
 C2449 C 0.17257 0.26540 0.80512
 C2450 C 0.15672 0.26941 0.81421
 H2451 H 0.05933 0.26994 0.81973
 H2452 H 0.03038 0.26757 0.83508
 H2453 H 0.05575 0.29265 0.87902
 H2454 H 0.08496 0.29473 0.86384
 H2455 H 0.13187 0.28990 0.78260
 H2456 H 0.15975 0.28331 0.76682
 H2457 H 0.18381 0.25845 0.81150
 H2458 H 0.15595 0.26525 0.82737
 C2459 C 0.58380 0.77586 0.34964
 C2460 C 0.57066 0.78933 0.34552
 C2461 C 0.55365 0.78944 0.35354
 C2462 C 0.54947 0.77605 0.36577
 C2463 C 0.56281 0.76298 0.37031
 C2464 C 0.57982 0.76291 0.36236
 C2465 C 0.60113 0.77464 0.34013
 N2466 N 0.61381 0.76162 0.34412
 N2467 N 0.62890 0.75972 0.33491
 C2468 C 0.63194 0.77072 0.32130
 N2469 N 0.61936 0.78388 0.31740
 N2470 N 0.60426 0.78580 0.32663
 C2471 C 0.64828 0.76799 0.31062
 C2472 C 0.65089 0.77869 0.29598
 C2473 C 0.66608 0.77573 0.28567
 C2474 C 0.67898 0.76203 0.28977
 C2475 C 0.67639 0.75140 0.30446
 C2476 C 0.66121 0.75435 0.31476
 H2477 H 0.57332 0.79954 0.33583
 H2478 H 0.54353 0.79959 0.34977
 H2479 H 0.55998 0.75268 0.37988
 H2480 H 0.58967 0.75241 0.36591
 H2481 H 0.64117 0.78929 0.29242
 H2482 H 0.66768 0.78421 0.27447
 H2483 H 0.68610 0.74078 0.30805
 H2484 H 0.65961 0.74586 0.32595
 C2485 C 0.58445 0.22242 0.14799
 C2486 C 0.57167 0.20888 0.15279
 C2487 C 0.55396 0.20891 0.14596
 C2488 C 0.54870 0.22247 0.13421
 C2489 C 0.56160 0.23568 0.12903
 C2490 C 0.57932 0.23565 0.13584
 C2491 C 0.60262 0.22342 0.15636
 N2492 N 0.61466 0.23703 0.15236
 N2493 N 0.63045 0.23881 0.16079
 C2494 C 0.63484 0.22706 0.17358
 N2495 N 0.62293 0.21326 0.17740
 N2496 N 0.60714 0.21149 0.16896
 C2497 C 0.65163 0.22996 0.18385
 C2498 C 0.65559 0.21842 0.19770
 C2499 C 0.67067 0.22203 0.20818
 C2500 C 0.68211 0.23727 0.20505
 C2501 C 0.67842 0.24852 0.19093
 C2502 C 0.66335 0.24490 0.18044
 H2503 H 0.57517 0.19849 0.16211
 H2504 H 0.54421 0.19865 0.15025
 H2505 H 0.55795 0.24610 0.11978
 H2506 H 0.58886 0.24622 0.13181
 H2507 H 0.64686 0.20676 0.20064
 H2508 H 0.67320 0.21302 0.21889
 H2509 H 0.68706 0.26027 0.18804
 H2510 H 0.66073 0.25403 0.16984
 C2511 C 0.08042 0.71909 0.64905
 C2512 C 0.07691 0.73173 0.63591
 C2513 C 0.05962 0.73258 0.62829
 C2514 C 0.04553 0.72073 0.63357
 C2515 C 0.04915 0.70766 0.64627
 C2516 C 0.06644 0.70687 0.65398
 C2517 C 0.09818 0.71948 0.65817
 N2518 N 0.10084 0.70926 0.67241
 N2519 N 0.11637 0.71073 0.68133
 C2520 C 0.12985 0.72246 0.67636
 N2521 N 0.12729 0.73243 0.66198
 N2522 N 0.11178 0.73098 0.65308
 C2523 C 0.14652 0.72520 0.68684
 C2524 C 0.15985 0.73810 0.68189
 C2525 C 0.17500 0.74172 0.69224
 C2526 C 0.17723 0.73249 0.70778
 C2527 C 0.16414 0.71925 0.71257
 C2528 C 0.14891 0.71566 0.70221
 H2529 H 0.08738 0.74130 0.63176
 H2530 H 0.05719 0.74260 0.61835
 H2531 H 0.03845 0.69844 0.65061
 H2532 H 0.06871 0.69695 0.66403
 H2533 H 0.15849 0.74566 0.67011
 H2534 H 0.18495 0.75184 0.68805
 H2535 H 0.16552 0.71185 0.72443
 H2536 H 0.13889 0.70562 0.70637
 C2537 C 0.91219 0.78472 0.64126
 C2538 C 0.91730 0.76919 0.63181
 C2539 C 0.93485 0.76787 0.62506
 C2540 C 0.94779 0.78218 0.62740
 C2541 C 0.94212 0.79830 0.63597
 C2542 C 0.92460 0.79945 0.64294
 C2543 C 0.89465 0.78472 0.65050
 N2544 N 0.89172 0.79680 0.66338
 N2545 N 0.87688 0.79533 0.67303
 C2546 C 0.86437 0.78173 0.67017
 N2547 N 0.86709 0.76997 0.65702
 N2548 N 0.88193 0.77141 0.64741
 C2549 C 0.84893 0.77872 0.68188
 C2550 C 0.83635 0.76438 0.67877
 C2551 C 0.82276 0.76028 0.69049
 C2552 C 0.82137 0.77044 0.70561
 C2553 C 0.83361 0.78514 0.70855
 C2554 C 0.84729 0.78923 0.69679
 H2555 H 0.90798 0.75766 0.63009
 H2556 H 0.93811 0.75562 0.61784
 H2557 H 0.95151 0.80959 0.63843
 H2558 H 0.92100 0.81164 0.65012
 H2559 H 0.83715 0.75606 0.66739
 H2560 H 0.81338 0.74905 0.68769
 H2561 H 0.83281 0.79331 0.72003
 H2562 H 0.85678 0.80037 0.69956
 C2563 C 0.41041 0.27693 0.14471
 C2564 C 0.41556 0.26355 0.13276
 C2565 C 0.43307 0.26384 0.12577
 C2566 C 0.44574 0.27755 0.13054
 C2567 C 0.44031 0.29149 0.14179
 C2568 C 0.42280 0.29118 0.14883
 C2569 C 0.39289 0.27515 0.15385
 N2570 N 0.38871 0.28693 0.16664
 N2571 N 0.37378 0.28432 0.17594
 C2572 C 0.36242 0.26980 0.17286
 N2573 N 0.36641 0.25820 0.15988
 N2574 N 0.38136 0.26081 0.15058
 C2575 C 0.34659 0.26617 0.18396
 C2576 C 0.33494 0.25103 0.18087
 C2577 C 0.32045 0.24718 0.19179
 C2578 C 0.31731 0.25840 0.20602
 C2579 C 0.32891 0.27360 0.20904
 C2580 C 0.34337 0.27744 0.19813
 H2581 H 0.40630 0.25247 0.12920
 H2582 H 0.43686 0.25312 0.11688
 H2583 H 0.44987 0.30216 0.14573
 H2584 H 0.41924 0.30175 0.15793
 H2585 H 0.33704 0.24207 0.17006
 H2586 H 0.31170 0.23545 0.18902
 H2587 H 0.32683 0.28258 0.21984
 H2588 H 0.35211 0.28919 0.20089
 C2589 C 0.41262 0.71792 0.35684
 C2590 C 0.42553 0.70440 0.35242
 C2591 C 0.44320 0.70488 0.35930
 C2592 C 0.44830 0.71887 0.37075
 C2593 C 0.43520 0.73191 0.37574
 C2594 C 0.41751 0.73143 0.36887
 C2595 C 0.39474 0.71882 0.34795
 N2596 N 0.38263 0.73246 0.35153
 N2597 N 0.36733 0.73439 0.34240
 C2598 C 0.36352 0.72279 0.32930
 N2599 N 0.37545 0.70893 0.32594
 N2600 N 0.39075 0.70699 0.33507
 C2601 C 0.34743 0.72602 0.31821
 C2602 C 0.34426 0.71486 0.30389
 C2603 C 0.32988 0.71881 0.29270
 C2604 C 0.31840 0.73403 0.29558
 C2605 C 0.32134 0.74493 0.31011
 C2606 C 0.33567 0.74096 0.32131
 H2607 H 0.42220 0.69378 0.34322
 H2608 H 0.45309 0.69473 0.35515
 H2609 H 0.43873 0.74266 0.38476
 H2610 H 0.40786 0.74198 0.37264
 H2611 H 0.35306 0.70323 0.30115
 H2612 H 0.32792 0.71007 0.28168
 H2613 H 0.31263 0.75664 0.31283
 H2614 H 0.33769 0.74981 0.33224
 C2615 C 0.90878 0.21501 0.85971
 C2616 C 0.92184 0.20187 0.85472
 C2617 C 0.93979 0.20282 0.86090
 C2618 C 0.94501 0.21691 0.87220
 C2619 C 0.93170 0.22931 0.87803
 C2620 C 0.91374 0.22835 0.87187
 C2621 C 0.89086 0.21607 0.85092
 N2622 N 0.87877 0.22963 0.85480
 N2623 N 0.86371 0.23214 0.84546
 C2624 C 0.86014 0.22122 0.83182
 N2625 N 0.87199 0.20737 0.82819
 N2626 N 0.88705 0.20486 0.83754
 C2627 C 0.84455 0.22531 0.82038
 C2628 C 0.84157 0.21475 0.80565
 C2629 C 0.82770 0.21949 0.79418
 C2630 C 0.81655 0.23492 0.79720
 C2631 C 0.81934 0.24529 0.81207
 C2632 C 0.83317 0.24052 0.82354
 H2633 H 0.91844 0.19135 0.84544
 H2634 H 0.94981 0.19313 0.85616
 H2635 H 0.93535 0.24010 0.88697
 H2636 H 0.90397 0.23859 0.87610
 H2637 H 0.85011 0.20295 0.80282
 H2638 H 0.82581 0.21113 0.78290
 H2639 H 0.81087 0.25715 0.81488
 H2640 H 0.83508 0.24895 0.83477
 C2641 C 0.56240 1.01148 0.67294
 C2642 C 0.56985 0.99608 0.68130
 C2643 C 0.58057 0.99825 0.69599
 C2644 C 0.58445 1.01597 0.70263
 C2645 C 0.57642 1.03129 0.69436
 C2646 C 0.56557 1.02906 0.67983
 C2647 C 0.55205 1.00941 0.65675
 N2648 N 0.54329 1.02406 0.64964
 N2649 N 0.53495 1.02254 0.63460
 C2650 C 0.53505 1.00629 0.62599
 N2651 N 0.54362 0.99158 0.63319
 N2652 N 0.55190 0.99309 0.64825
 C2653 C 0.52709 1.00497 0.60864
 C2654 C 0.53080 0.98954 0.59843
 C2655 C 0.52495 0.98899 0.58154
 C2656 C 0.51506 1.00376 0.57444
 C2657 C 0.51056 1.01882 0.58484
 C2658 C 0.51663 1.01948 0.60174
 H2659 H 0.56765 0.98230 0.67633
 H2660 H 0.58657 0.98598 0.70149
 H2661 H 0.57797 1.04515 0.69927
 H2662 H 0.55988 1.04124 0.67386
 H2663 H 0.53876 0.97809 0.60330
 H2664 H 0.52852 0.97709 0.57392
 H2665 H 0.50295 1.03040 0.57976
 H2666 H 0.51343 1.03153 0.60928
 C2667 C 0.06129 0.50905 1.17453
 C2668 C 0.07203 0.49453 1.18103
 C2669 C 0.08296 0.49711 1.19551
 C2670 C 0.08346 0.51428 1.20379
 C2671 C 0.07243 0.52866 1.19753
 C2672 C 0.06147 0.52608 1.18309
 C2673 C 0.05055 0.50669 1.15858
 N2674 N 0.04028 0.52074 1.15220
 N2675 N 0.03144 0.51895 1.13742
 C2676 C 0.03247 0.50301 1.12839
 N2677 N 0.04256 0.48890 1.13487
 N2678 N 0.05139 0.49069 1.14964
 C2679 C 0.02381 0.50141 1.11133
 C2680 C 0.02701 0.48575 1.10126
 C2681 C 0.02057 0.48493 1.08456
 C2682 C 0.01060 0.49967 1.07752
 C2683 C 0.00658 0.51497 1.08781
 C2684 C 0.01319 0.51586 1.10453
 H2685 H 0.07223 0.48122 1.17478
 H2686 H 0.09141 0.48580 1.19996
 H2687 H 0.07228 0.54196 1.20380
 H2688 H 0.05333 0.53755 1.17852
 H2689 H 0.03504 0.47431 1.10606
 H2690 H 0.02380 0.47289 1.07701
 H2691 H -0.00098 0.52659 1.08273
 H2692 H 0.01038 0.52810 1.11195
 C2693 C -0.06632 -0.00732 1.16430
 C2694 C -0.06236 0.00340 1.17869
 C2695 C -0.07315 0.00193 1.19329
 C2696 C -0.08845 -0.01017 1.19384
 C2697 C -0.09273 -0.02010 1.17882
 C2698 C -0.08170 -0.01891 1.16448
 C2699 C -0.05461 -0.00662 1.14906
 N2700 N -0.05316 -0.02163 1.13883
 N2701 N -0.04328 -0.02096 1.12471
 C2702 C -0.03454 -0.00519 1.12014
 N2703 N -0.03589 0.00983 1.13042
 N2704 N -0.04562 0.00909 1.14466
 C2705 C -0.02497 -0.00409 1.10366
 C2706 C -0.02377 0.01280 1.09502
 C2707 C -0.01705 0.01345 1.07847
 C2708 C -0.01096 -0.00268 1.07039
 C2709 C -0.01113 -0.01939 1.07938
 C2710 C -0.01827 -0.02013 1.09580
 H2711 H -0.05054 0.01250 1.17886
 H2712 H -0.06874 0.00969 1.20430
 H2713 H -0.10490 -0.02858 1.17772
 H2714 H -0.08543 -0.02692 1.15336
 H2715 H -0.02888 0.02537 1.10072
 H2716 H -0.01705 0.02652 1.07181
 H2717 H -0.00666 -0.03205 1.07338
 H2718 H -0.01896 -0.03333 1.10220
 C2719 C 0.42978 0.48852 0.66776
 C2720 C 0.43676 0.49516 0.68324
 C2721 C 0.42632 0.49380 0.69807
 C2722 C 0.40891 0.48512 0.69786
 C2723 C 0.40216 0.47848 0.68217
 C2724 C 0.41234 0.48035 0.66737
 C2725 C 0.44015 0.49047 0.65183
 N2726 N 0.43098 0.49338 0.63706
 N2727 N 0.43998 0.49495 0.62254
 C2728 C 0.45853 0.49343 0.62210
 N2729 N 0.46780 0.49037 0.63685
 N2730 N 0.45876 0.48902 0.65149
 C2731 C 0.46807 0.49543 0.60573
 C2732 C 0.48355 0.48481 0.60159
 C2733 C 0.49085 0.48546 0.58514
 C2734 C 0.48293 0.49699 0.57272
 C2735 C 0.46806 0.50827 0.57735
 C2736 C 0.46068 0.50737 0.59354
 H2737 H 0.45016 0.50163 0.68383
 H2738 H 0.43236 0.49881 0.70979
 H2739 H 0.38862 0.47240 0.68104
 H2740 H 0.40656 0.47524 0.65556
 H2741 H 0.48946 0.47544 0.61081
 H2742 H 0.50228 0.47660 0.58201
 H2743 H 0.46160 0.51744 0.56829
 H2744 H 0.44890 0.51586 0.59644
 C2745 C 0.43694 0.50773 -0.17325
 C2746 C 0.42589 0.49333 -0.17967
 C2747 C 0.41528 0.49585 -0.19436
 C2748 C 0.41541 0.51286 -0.20287
 C2749 C 0.42687 0.52705 -0.19676
 C2750 C 0.43754 0.52451 -0.18216
 C2751 C 0.44707 0.50560 -0.15696
 N2752 N 0.45803 0.51935 -0.15090
 N2753 N 0.46622 0.51790 -0.13579
 C2754 C 0.46379 0.50263 -0.12608
 N2755 N 0.45301 0.48880 -0.13223
 N2756 N 0.44485 0.49024 -0.14734
 C2757 C 0.47173 0.50153 -0.10871
 C2758 C 0.46677 0.48699 -0.09789
 C2759 C 0.47279 0.48671 -0.08105
 C2760 C 0.48408 0.50087 -0.07459
 C2761 C 0.48975 0.51500 -0.08559
 C2762 C 0.48356 0.51538 -0.10245
 H2763 H 0.42514 0.48019 -0.17318
 H2764 H 0.40652 0.48470 -0.19875
 H2765 H 0.42748 0.54020 -0.20324
 H2766 H 0.44594 0.53587 -0.17766
 H2767 H 0.45776 0.47604 -0.10226
 H2768 H 0.46828 0.47551 -0.07299
 H2769 H 0.49850 0.52607 -0.08104
 H2770 H 0.48776 0.52672 -0.11047
 C2771 C -0.06236 1.01035 0.32361
 C2772 C -0.07364 0.99622 0.31699
 C2773 C -0.08405 0.99907 0.30221
 C2774 C -0.08351 1.01614 0.29380
 C2775 C -0.07186 1.03006 0.30014
 C2776 C -0.06140 1.02720 0.31484
 C2777 C -0.05224 1.00786 0.33989
 N2778 N -0.04124 1.02146 0.34618
 N2779 N -0.03293 1.01964 0.36120
 C2780 C -0.03525 1.00413 0.37061
 N2781 N -0.04610 0.99046 0.36424
 N2782 N -0.05440 0.99227 0.34922
 C2783 C -0.02699 1.00255 0.38785
 C2784 C -0.03120 0.98736 0.39820
 C2785 C -0.02479 0.98653 0.41492
 C2786 C -0.01387 1.00079 0.42174
 C2787 C -0.00902 1.01565 0.41122
 C2788 C -0.01555 1.01655 0.39447
 H2789 H -0.07468 0.98304 0.32337
 H2790 H -0.09296 0.98812 0.29766
 H2791 H -0.07091 1.04325 0.29377
 H2792 H -0.05282 1.03836 0.31947
 H2793 H -0.03988 0.97628 0.39355
 H2794 H -0.02872 0.97483 0.42263
 H2795 H -0.00071 1.02691 0.41609
 H2796 H -0.01197 1.02842 0.38685
 C2797 C 0.06937 0.48839 0.33347
 C2798 C 0.08857 0.48646 0.33390
 C2799 C 0.09848 0.48477 0.31889
 C2800 C 0.08947 0.48542 0.30312
 C2801 C 0.07033 0.48767 0.30260
 C2802 C 0.06032 0.48893 0.31767
 C2803 C 0.05908 0.49003 0.34953
 N2804 N 0.04126 0.48454 0.35069
 N2805 N 0.03231 0.48580 0.36537
 C2806 C 0.04080 0.49280 0.37938
 N2807 N 0.05856 0.49834 0.37814
 N2808 N 0.06753 0.49691 0.36357
 C2809 C 0.03123 0.49451 0.39582
 C2810 C 0.03723 0.50789 0.40747
 C2811 C 0.02973 0.50883 0.42362
 C2812 C 0.01612 0.49624 0.42877
 C2813 C 0.00953 0.48323 0.41690
 C2814 C 0.01696 0.48246 0.40050
 H2815 H 0.09592 0.48594 0.34588
 H2816 H 0.11323 0.48300 0.31956
 H2817 H 0.06313 0.48806 0.29054
 H2818 H 0.04556 0.49051 0.31697
 H2819 H 0.04801 0.51754 0.40418
 H2820 H 0.03509 0.51919 0.43225
 H2821 H -0.00089 0.47332 0.42045
 H2822 H 0.01208 0.47199 0.39174
 C2823 C 0.56876 -0.00927 -0.16858
 C2824 C 0.58803 -0.01002 -0.16805
 C2825 C 0.59807 -0.01216 -0.18294
 C2826 C 0.58906 -0.01313 -0.19869
 C2827 C 0.56983 -0.01203 -0.19934
 C2828 C 0.55972 -0.01034 -0.18437
 C2829 C 0.55835 -0.00730 -0.15264
 N2830 N 0.54101 -0.01410 -0.15112
 N2831 N 0.53203 -0.01269 -0.13647
 C2832 C 0.53999 -0.00424 -0.12287
 N2833 N 0.55724 0.00262 -0.12450
 N2834 N 0.56626 0.00106 -0.13903
 C2835 C 0.53049 -0.00265 -0.10639
 C2836 C 0.53586 0.01131 -0.09506
 C2837 C 0.52871 0.01202 -0.07876
 C2838 C 0.51608 -0.00134 -0.07319
 C2839 C 0.50996 -0.01486 -0.08478
 C2840 C 0.51706 -0.01545 -0.10130
 H2841 H 0.59537 -0.00931 -0.15607
 H2842 H 0.61289 -0.01303 -0.18219
 H2843 H 0.56266 -0.01289 -0.21140
 H2844 H 0.54490 -0.00967 -0.18514
 H2845 H 0.54596 0.02154 -0.09867
 H2846 H 0.53362 0.02279 -0.07033
 H2847 H 0.50027 -0.02536 -0.08090
 H2848 H 0.51267 -0.02637 -0.10981
 C2849 C 0.65730 0.61718 -0.00212
 C2850 C 0.66205 0.62155 0.01467
 C2851 C 0.67873 0.63007 0.01856
 C2852 C 0.69135 0.63493 0.00576
 C2853 C 0.68651 0.63026 -0.01117
 C2854 C 0.66979 0.62146 -0.01501
 C2855 C 0.63934 0.60823 -0.00578
 N2856 N 0.63608 0.59881 -0.02045
 N2857 N 0.62008 0.59016 -0.02306
 C2858 C 0.60666 0.59072 -0.01115
 N2859 N 0.60992 0.60036 0.00333
 N2860 N 0.62587 0.60888 0.00597
 C2861 C 0.58916 0.58029 -0.01312
 C2862 C 0.57547 0.58235 -0.00081
 C2863 C 0.55999 0.57107 -0.00093
 C2864 C 0.55757 0.55748 -0.01344
 C2865 C 0.57053 0.55609 -0.02648
 C2866 C 0.58629 0.56739 -0.02629
 H2867 H 0.65296 0.61807 0.02500
 H2868 H 0.68180 0.63205 0.03187
 H2869 H 0.69517 0.63394 -0.02171
 H2870 H 0.66647 0.61835 -0.02811
 H2871 H 0.57696 0.59229 0.00937
 H2872 H 0.55008 0.57264 0.00915
 H2873 H 0.56898 0.54569 -0.03626
 H2874 H 0.59652 0.56551 -0.03602
 C2875 C 0.16050 1.11380 0.49672
 C2876 C 0.17108 1.12207 0.48397
 C2877 C 0.18760 1.13110 0.48808
 C2878 C 0.19396 1.13184 0.50500
 C2879 C 0.18358 1.12300 0.51757
 C2880 C 0.16704 1.11427 0.51352
 C2881 C 0.14247 1.10510 0.49297
 N2882 N 0.13002 1.10323 0.50554
 N2883 N 0.11390 1.09518 0.50263
 C2884 C 0.10945 1.08853 0.48703
 N2885 N 0.12188 1.09038 0.47435
 N2886 N 0.13805 1.09861 0.47725
 C2887 C 0.09164 1.07885 0.48452
 C2888 C 0.08852 1.06652 0.47095
 C2889 C 0.07253 1.05557 0.47042
 C2890 C 0.05956 1.05681 0.48348
 C2891 C 0.06218 1.07003 0.49630
 C2892 C 0.07794 1.08089 0.49680
 H2893 H 0.16636 1.12197 0.47092
 H2894 H 0.19515 1.13785 0.47807
 H2895 H 0.18826 1.12273 0.53063
 H2896 H 0.15939 1.10778 0.52362
 H2897 H 0.09879 1.06470 0.46125
 H2898 H 0.07083 1.04546 0.46040
 H2899 H 0.05228 1.07153 0.50639
 H2900 H 0.07965 1.09048 0.50724
 C2901 C 0.16241 -0.11426 0.99856
 C2902 C 0.17215 -0.12286 1.01182
 C2903 C 0.18859 -0.13228 1.00855
 C2904 C 0.19565 -0.13314 0.99198
 C2905 C 0.18615 -0.12393 0.97893
 C2906 C 0.16975 -0.11477 0.98214
 C2907 C 0.14442 -0.10521 1.00135
 N2908 N 0.13304 -0.10223 0.98795
 N2909 N 0.11693 -0.09400 0.99000
 C2910 C 0.11141 -0.08829 1.00554
 N2911 N 0.12276 -0.09124 1.01905
 N2912 N 0.13892 -0.09963 1.01700
 C2913 C 0.09356 -0.07858 1.00719
 C2914 C 0.08927 -0.06769 1.02144
 C2915 C 0.07320 -0.05693 1.02158
 C2916 C 0.06128 -0.05690 1.00746
 C2917 C 0.06513 -0.06864 0.99376
 C2918 C 0.08097 -0.07930 0.99363
 H2919 H 0.16684 -0.12272 1.02461
 H2920 H 0.19551 -0.13926 1.01890
 H2921 H 0.19141 -0.12380 0.96612
 H2922 H 0.16279 -0.10804 0.97167
 H2923 H 0.09866 -0.06690 1.03212
 H2924 H 0.07056 -0.04802 1.03233
 H2925 H 0.05608 -0.06924 0.98281
 H2926 H 0.08358 -0.08778 0.98259
 C2927 C 0.65784 0.38175 0.50063
 C2928 C 0.67047 0.37727 0.51349
 C2929 C 0.68706 0.36843 0.50961
 C2930 C 0.69168 0.36395 0.49265
 C2931 C 0.67889 0.36893 0.47987
 C2932 C 0.66231 0.37747 0.48381
 C2933 C 0.64001 0.39075 0.50441
 N2934 N 0.62629 0.39034 0.49269
 N2935 N 0.61040 0.39874 0.49555
 C2936 C 0.60744 0.40803 0.51024
 N2937 N 0.62113 0.40842 0.52207
 N2938 N 0.63707 0.39988 0.51924
 C2939 C 0.58988 0.41816 0.51257
 C2940 C 0.58756 0.43147 0.52544
 C2941 C 0.57167 0.44251 0.52584
 C2942 C 0.55799 0.44042 0.51331
 C2943 C 0.55987 0.42635 0.50120
 C2944 C 0.57551 0.41537 0.50086
 H2945 H 0.66737 0.38026 0.52662
 H2946 H 0.69577 0.36461 0.52017
 H2947 H 0.68173 0.36701 0.46656
 H2948 H 0.65308 0.38105 0.47351
 H2949 H 0.59833 0.43391 0.53471
 H2950 H 0.57058 0.45332 0.53527
 H2951 H 0.54944 0.42425 0.49152
 H2952 H 0.57657 0.40508 0.49095
 C2953 C -0.16038 0.38358 0.50095
 C2954 C -0.17107 0.37557 0.48797
 C2955 C -0.18762 0.36653 0.49176
 C2956 C -0.19394 0.36554 0.50859
 C2957 C -0.18339 0.37404 0.52142
 C2958 C -0.16682 0.38277 0.51768
 C2959 C -0.14239 0.39244 0.49745
 N2960 N -0.12990 0.39436 0.51017
 N2961 N -0.11382 0.40251 0.50747
 C2962 C -0.10946 0.40924 0.49195
 N2963 N -0.12194 0.40736 0.47913
 N2964 N -0.13806 0.39903 0.48182
 C2965 C -0.09165 0.41896 0.48964
 C2966 C -0.08852 0.43120 0.47607
 C2967 C -0.07249 0.44211 0.47567
 C2968 C -0.05946 0.44091 0.48887
 C2969 C -0.06210 0.42777 0.50170
 C2970 C -0.07790 0.41697 0.50208
 H2971 H -0.16644 0.37590 0.47496
 H2972 H -0.19525 0.36003 0.48154
 H2973 H -0.18800 0.37412 0.53444
 H2974 H -0.15908 0.38903 0.52797
 H2975 H -0.09882 0.43298 0.46624
 H2976 H -0.07079 0.45215 0.46564
 H2977 H -0.05217 0.42630 0.51190
 H2978 H -0.07960 0.40745 0.51253
 C2979 C 0.34207 -0.11576 0.00049
 C2980 C 0.33136 -0.12370 -0.01251
 C2981 C 0.31500 -0.13305 -0.00869
 C2982 C 0.30890 -0.13446 0.00819
 C2983 C 0.31947 -0.12603 0.02105
 C2984 C 0.33585 -0.11697 0.01727
 C2985 C 0.35989 -0.10660 -0.00306
 N2986 N 0.37247 -0.10466 0.00958
 N2987 N 0.38844 -0.09633 0.00681
 C2988 C 0.39261 -0.08946 -0.00870
 N2989 N 0.38003 -0.09136 -0.02144
 N2990 N 0.36402 -0.09986 -0.01869
 C2991 C 0.41033 -0.07963 -0.01111
 C2992 C 0.41321 -0.06720 -0.02458
 C2993 C 0.42921 -0.05626 -0.02507
 C2994 C 0.44245 -0.05762 -0.01208
 C2995 C 0.44003 -0.07092 0.00066
 C2996 C 0.42425 -0.08175 0.00113
 H2997 H 0.33582 -0.12306 -0.02556
 H2998 H 0.30735 -0.13949 -0.01894
 H2999 H 0.31502 -0.12632 0.03411
 H3000 H 0.34362 -0.11077 0.02758
 H3001 H 0.40276 -0.06532 -0.03425
 H3002 H 0.43074 -0.04610 -0.03503
 H3003 H 0.45013 -0.07253 0.01070
 H3004 H 0.42274 -0.09142 0.01149
 C3005 C 0.34166 1.11542 0.49845
 C3006 C 0.33114 1.12317 0.51151
 C3007 C 0.31457 1.13222 0.50778
 C3008 C 0.30811 1.13352 0.49093
 C3009 C 0.31847 1.12529 0.47801
 C3010 C 0.33504 1.11651 0.48169
 C3011 C 0.35963 1.10653 0.50188
 N3012 N 0.37175 1.10436 0.48907
 N3013 N 0.38782 1.09618 0.49173
 C3014 C 0.39255 1.08970 0.50730
 N3015 N 0.38045 1.09185 0.52021
 N3016 N 0.36434 1.10019 0.51757
 C3017 C 0.41032 1.07994 0.50958
 C3018 C 0.41393 1.06851 0.52367
 C3019 C 0.42993 1.05766 0.52428
 C3020 C 0.44243 1.05807 0.51078
 C3021 C 0.43927 1.07036 0.49732
 C3022 C 0.42350 1.08112 0.49674
 H3023 H 0.33590 1.12260 0.52454
 H3024 H 0.30705 1.13852 0.51805
 H3025 H 0.31372 1.12551 0.46497
 H3026 H 0.34263 1.11045 0.47134
 H3027 H 0.40407 1.06737 0.53382
 H3028 H 0.43205 1.04830 0.53481
 H3029 H 0.44880 1.07127 0.48687
 H3030 H 0.42142 1.09001 0.48586
 C3031 C -0.16212 0.61207 1.00037
 C3032 C -0.17275 0.62020 1.01315
 C3033 C -0.18904 0.62953 1.00902
 C3034 C -0.19511 0.63072 0.99204
 C3035 C -0.18473 0.62199 0.97942
 C3036 C -0.16842 0.61293 0.98350
 C3037 C -0.14425 0.60318 1.00418
 N3038 N -0.13175 0.60118 0.99166
 N3039 N -0.11569 0.59313 0.99466
 C3040 C -0.11135 0.58662 1.01032
 N3041 N -0.12384 0.58857 1.02293
 N3042 N -0.13994 0.59679 1.01994
 C3043 C -0.09355 0.57707 1.01298
 C3044 C -0.09050 0.56494 1.02667
 C3045 C -0.07444 0.55418 1.02743
 C3046 C -0.06134 0.55543 1.01448
 C3047 C -0.06393 0.56847 1.00153
 C3048 C -0.07976 0.57912 1.00080
 H3049 H -0.16822 0.61980 1.02625
 H3050 H -0.19661 0.63620 1.01906
 H3051 H -0.18920 0.62214 0.96630
 H3052 H -0.16073 0.60656 0.97337
 H3053 H -0.10085 0.56312 1.03631
 H3054 H -0.07277 0.54422 1.03755
 H3055 H -0.05392 0.57000 0.99153
 H3056 H -0.08143 0.58858 0.99027
 C3057 C -0.02406 0.65800 0.59588
 C3058 C -0.02595 0.67437 0.58648
 C3059 C -0.01929 0.69105 0.59296
 C3060 C -0.01070 0.69161 0.60894
 C3061 C -0.01021 0.67557 0.61889
 C3062 C -0.01684 0.65892 0.61243
 C3063 C -0.02711 0.63990 0.58769
 N3064 N -0.02127 0.62422 0.59542
 N3065 N -0.02117 0.60824 0.58711
 C3066 C -0.02691 0.60727 0.57073
 N3067 N -0.03332 0.62282 0.56316
 N3068 N -0.03337 0.63882 0.57146
 C3069 C -0.02444 0.59017 0.56084
 C3070 C -0.03178 0.58861 0.54438
 C3071 C -0.02798 0.57316 0.53445
 C3072 C -0.01662 0.55905 0.54073
 C3073 C -0.00958 0.56044 0.55731
 C3074 C -0.01352 0.57580 0.56729
 H3075 H -0.03153 0.67416 0.57372
 H3076 H -0.01982 0.70324 0.58504
 H3077 H -0.00402 0.67578 0.63143
 H3078 H -0.01543 0.64661 0.62010
 H3079 H -0.04026 0.59944 0.53906
 H3080 H -0.03369 0.57243 0.52174
 H3081 H -0.00099 0.54967 0.56258
 H3082 H -0.00760 0.57660 0.57990
 C3083 C 0.48079 0.15607 0.09876
 C3084 C 0.47729 0.17250 0.08985
 C3085 C 0.48348 0.18938 0.09623
 C3086 C 0.49319 0.19011 0.11165
 C3087 C 0.49539 0.17392 0.12119
 C3088 C 0.48925 0.15704 0.11480
 C3089 C 0.47796 0.13802 0.09044
 N3090 N 0.48519 0.12250 0.09738
 N3091 N 0.48528 0.10672 0.08875
 C3092 C 0.47815 0.10581 0.07283
 N3093 N 0.47038 0.12118 0.06609
 N3094 N 0.47033 0.13698 0.07471
 C3095 C 0.48046 0.08906 0.06242
 C3096 C 0.47216 0.08775 0.04634
 C3097 C 0.47572 0.07270 0.03585
 C3098 C 0.48777 0.05872 0.04119
 C3099 C 0.49580 0.05985 0.05740
 C3100 C 0.49213 0.07483 0.06794
 H3101 H 0.47073 0.17224 0.07748
 H3102 H 0.48162 0.20167 0.08862
 H3103 H 0.50247 0.17422 0.13332
 H3104 H 0.49193 0.14467 0.12209
 H3105 H 0.46309 0.09848 0.04173
 H3106 H 0.46923 0.07217 0.02346
 H3107 H 0.50495 0.04916 0.06197
 H3108 H 0.49878 0.07544 0.08025
 C3109 C 0.02176 0.15762 0.90014
 C3110 C 0.01213 0.15794 0.88463
 C3111 C 0.00410 0.17421 0.87887
 C3112 C 0.00570 0.19047 0.88843
 C3113 C 0.01675 0.19062 0.90307
 C3114 C 0.02472 0.17430 0.90890
 C3115 C 0.02601 0.13980 0.90832
 N3116 N 0.03281 0.13926 0.92439
 N3117 N 0.03340 0.12345 0.93296
 C3118 C 0.02713 0.10757 0.92581
 N3119 N 0.02097 0.10798 0.90954
 N3120 N 0.02042 0.12377 0.90097
 C3121 C 0.02492 0.09075 0.93613
 C3122 C 0.01384 0.07618 0.93019
 C3123 C 0.00992 0.06120 0.94062
 C3124 C 0.01715 0.06037 0.95715
 C3125 C 0.02871 0.07463 0.96293
 C3126 C 0.03248 0.08973 0.95254
 H3127 H 0.00980 0.14540 0.87743
 H3128 H -0.00408 0.17392 0.86734
 H3129 H 0.01820 0.20306 0.91059
 H3130 H 0.03219 0.17456 0.92082
 H3131 H 0.00774 0.07655 0.91763
 H3132 H 0.00120 0.05026 0.93572
 H3133 H 0.03458 0.07430 0.97558
 H3134 H 0.04108 0.10074 0.95747
 C3135 C 0.51988 0.65526 0.40341
 C3136 C 0.52312 0.67173 0.41241
 C3137 C 0.51609 0.68842 0.40643
 C3138 C 0.50573 0.68887 0.39137
 C3139 C 0.50376 0.67271 0.38170
 C3140 C 0.51080 0.65606 0.38764
 C3141 C 0.52355 0.63722 0.41141
 N3142 N 0.51729 0.62146 0.40403
 N3143 N 0.51774 0.60553 0.41237
 C3144 C 0.52447 0.60469 0.42844
 N3145 N 0.53132 0.62032 0.43562
 N3146 N 0.53084 0.63627 0.42729
 C3147 C 0.52244 0.58769 0.43854
 C3148 C 0.53024 0.58647 0.45484
 C3149 C 0.52663 0.57124 0.46510
 C3150 C 0.51504 0.55701 0.45930
 C3151 C 0.50764 0.55800 0.44284
 C3152 C 0.51138 0.57314 0.43253
 H3153 H 0.53016 0.67161 0.42455
 H3154 H 0.51781 0.70074 0.41408
 H3155 H 0.49616 0.67285 0.36984
 H3156 H 0.50828 0.64368 0.38028
 H3157 H 0.53885 0.59744 0.45982
 H3158 H 0.53264 0.57081 0.47770
 H3159 H 0.49889 0.54710 0.43791
 H3160 H 0.50514 0.57366 0.42003
 C3161 C 0.48337 0.84075 0.40584
 C3162 C 0.48100 0.82410 0.41469
 C3163 C 0.48708 0.80750 0.40774
 C3164 C 0.49559 0.80727 0.39184
 C3165 C 0.49681 0.82370 0.38250
 C3166 C 0.49073 0.84028 0.38942
 C3167 C 0.48024 0.85863 0.41435
 N3168 N 0.48571 0.87457 0.40690
 N3169 N 0.48533 0.89044 0.41537
 C3170 C 0.47946 0.89103 0.43165
 N3171 N 0.47348 0.87519 0.43896
 N3172 N 0.47391 0.85929 0.43049
 C3173 C 0.48121 0.90818 0.44166
 C3174 C 0.47364 0.90944 0.45795
 C3175 C 0.47669 0.92511 0.46792
 C3176 C 0.48753 0.93969 0.46184
 C3177 C 0.49479 0.93856 0.44543
 C3178 C 0.49159 0.92302 0.43541
 H3179 H 0.47532 0.82398 0.42734
 H3180 H 0.48601 0.79501 0.41521
 H3181 H 0.50298 0.82379 0.37005
 H3182 H 0.49255 0.85282 0.38217
 H3183 H 0.46556 0.89824 0.46310
 H3184 H 0.47086 0.92564 0.48050
 H3185 H 0.50300 0.94970 0.44030
 H3186 H 0.49765 0.92248 0.42293
 C3187 C -0.02232 0.34074 0.90544
 C3188 C -0.01686 0.34064 0.88839
 C3189 C -0.01099 0.32435 0.88081
 C3190 C -0.01044 0.30786 0.89011
 C3191 C -0.01714 0.30765 0.90675
 C3192 C -0.02307 0.32396 0.91435
 C3193 C -0.02500 0.35842 0.91437
 N3194 N -0.03062 0.35876 0.93074
 N3195 N -0.03060 0.37447 0.93949
 C3196 C -0.02484 0.39044 0.93226
 N3197 N -0.01965 0.39019 0.91578
 N3198 N -0.01974 0.37450 0.90701
 C3199 C -0.02270 0.40735 0.94252
 C3200 C -0.01196 0.42209 0.93658
 C3201 C -0.00855 0.43740 0.94685
 C3202 C -0.01600 0.43837 0.96320
 C3203 C -0.02712 0.42385 0.96898
 C3204 C -0.03035 0.40844 0.95877
 H3205 H -0.01637 0.35328 0.88110
 H3206 H -0.00628 0.32475 0.86782
 H3207 H -0.01683 0.29510 0.91419
 H3208 H -0.02725 0.32357 0.92749
 H3209 H -0.00580 0.42162 0.92413
 H3210 H -0.00011 0.44849 0.94198
 H3211 H -0.03309 0.42424 0.98151
 H3212 H -0.03871 0.39731 0.96368
 C3213 C 0.51585 0.34179 0.09535
 C3214 C 0.51883 0.32502 0.08683
 C3215 C 0.51194 0.30853 0.09337
 C3216 C 0.50193 0.30856 0.10850
 C3217 C 0.49998 0.32510 0.11757
 C3218 C 0.50691 0.34155 0.11109
 C3219 C 0.51994 0.35955 0.08701
 N3220 N 0.51484 0.37566 0.09436
 N3221 N 0.51591 0.39148 0.08589
 C3222 C 0.52212 0.39185 0.06972
 N3223 N 0.52778 0.37582 0.06254
 N3224 N 0.52669 0.35998 0.07100
 C3225 C 0.52077 0.40890 0.05957
 C3226 C 0.52806 0.40971 0.04314
 C3227 C 0.52496 0.42513 0.03292
 C3228 C 0.51437 0.43991 0.03889
 C3229 C 0.50755 0.43931 0.05549
 C3230 C 0.51079 0.42402 0.06575
 H3231 H 0.52572 0.32471 0.07472
 H3232 H 0.51360 0.29593 0.08615
 H3233 H 0.49261 0.32537 0.12945
 H3234 H 0.50453 0.35419 0.11807
 H3235 H 0.53584 0.39829 0.03805
 H3236 H 0.53049 0.42527 0.02021
 H3237 H 0.49959 0.45063 0.06055
 H3238 H 0.50498 0.42385 0.07834
 C3239 C 0.02062 0.84226 0.59326
 C3240 C 0.02270 0.82543 0.58460
 C3241 C 0.01527 0.80921 0.59120
 C3242 C 0.00565 0.80957 0.60655
 C3243 C 0.00485 0.82606 0.61584
 C3244 C 0.01231 0.84225 0.60929
 C3245 C 0.02465 0.85992 0.58471
 N3246 N 0.01965 0.87612 0.59198
 N3247 N 0.02033 0.89181 0.58328
 C3248 C 0.02603 0.89196 0.56694
 N3249 N 0.03164 0.87588 0.55983
 N3250 N 0.03093 0.86016 0.56853
 C3251 C 0.02413 0.90881 0.55657
 C3252 C 0.03132 0.90957 0.54010
 C3253 C 0.02782 0.92476 0.52971
 C3254 C 0.01688 0.93936 0.53554
 C3255 C 0.01008 0.93879 0.55214
 C3256 C 0.01374 0.92373 0.56258
 H3257 H 0.02912 0.82493 0.57227
 H3258 H 0.01607 0.79663 0.58381
 H3259 H -0.00219 0.82657 0.62788
 H3260 H 0.01068 0.85493 0.61640
 H3261 H 0.03940 0.89829 0.53513
 H3262 H 0.03334 0.92489 0.51700
 H3263 H 0.00185 0.94998 0.55708
 H3264 H 0.00796 0.92357 0.57518
 C3265 C 0.26073 0.31396 0.08085
 C3266 C 0.24925 0.31090 0.06678
 C3267 C 0.25107 0.32157 0.05207
 C3268 C 0.26429 0.33590 0.05109
 C3269 C 0.27520 0.33922 0.06573
 C3270 C 0.27362 0.32828 0.08019
 C3271 C 0.25933 0.30253 0.09632
 N3272 N 0.27420 0.30012 0.10656
 N3273 N 0.27290 0.29056 0.12091
 C3274 C 0.25663 0.28312 0.12569
 N3275 N 0.24175 0.28542 0.11540
 N3276 N 0.24310 0.29483 0.10094
 C3277 C 0.25493 0.27397 0.14237
 C3278 C 0.23817 0.27434 0.15105
 C3279 C 0.23709 0.26788 0.16770
 C3280 C 0.25263 0.26049 0.17586
 C3281 C 0.26914 0.25915 0.16688
 C3282 C 0.27033 0.26604 0.15034
 H3283 H 0.23918 0.29988 0.06697
 H3284 H 0.24253 0.31782 0.04135
 H3285 H 0.28472 0.35063 0.06653
 H3286 H 0.28232 0.33131 0.09105
 H3287 H 0.22610 0.28043 0.14527
 H3288 H 0.22419 0.26903 0.17436
 H3289 H 0.28134 0.25363 0.17293
 H3290 H 0.28341 0.26551 0.14392
 C3291 C 0.76116 0.81768 0.58238
 C3292 C 0.76321 0.80818 0.56695
 C3293 C 0.76493 0.81794 0.55173
 C3294 C 0.76501 0.83730 0.55178
 C3295 C 0.76300 0.84680 0.56713
 C3296 C 0.76087 0.83709 0.58227
 C3297 C 0.75944 0.80760 0.59859
 N3298 N 0.75085 0.81560 0.61190
 N3299 N 0.74960 0.80690 0.62668
 C3300 C 0.75701 0.78989 0.62888
 N3301 N 0.76566 0.78184 0.61557
 N3302 N 0.76676 0.79050 0.60069
 C3303 C 0.75594 0.78080 0.64564
 C3304 C 0.76893 0.76760 0.65089
 C3305 C 0.76884 0.76083 0.66757
 C3306 C 0.75563 0.76703 0.67919
 C3307 C 0.74210 0.77944 0.67352
 C3308 C 0.74231 0.78628 0.65704
 H3309 H 0.76339 0.79324 0.56667
 H3310 H 0.76663 0.81043 0.53996
 H3311 H 0.76317 0.86175 0.56738
 H3312 H 0.75942 0.84479 0.59396
 H3313 H 0.77960 0.76312 0.64235
 H3314 H 0.77947 0.75131 0.67153
 H3315 H 0.73156 0.78441 0.68199
 H3316 H 0.73195 0.79621 0.65333
 C3317 C 0.23825 0.67793 0.58039
 C3318 C 0.23552 0.65871 0.58000
 C3319 C 0.23448 0.64924 0.56463
 C3320 C 0.23636 0.65867 0.54923
 C3321 C 0.23964 0.67779 0.54948
 C3322 C 0.24043 0.68739 0.56495
 C3323 C 0.23876 0.68769 0.59695
 N3324 N 0.23690 0.70634 0.59813
 N3325 N 0.23712 0.71473 0.61325
 C3326 C 0.23930 0.70476 0.62773
 N3327 N 0.24112 0.68618 0.62645
 N3328 N 0.24080 0.67784 0.61144
 C3329 C 0.24022 0.71357 0.64472
 C3330 C 0.24809 0.70365 0.65817
 C3331 C 0.24884 0.71104 0.67440
 C3332 C 0.24161 0.72861 0.67790
 C3333 C 0.23369 0.73872 0.66450
 C3334 C 0.23316 0.73131 0.64796
 H3335 H 0.23379 0.65094 0.59160
 H3336 H 0.23200 0.63449 0.56474
 H3337 H 0.24100 0.68535 0.53772
 H3338 H 0.24269 0.70216 0.56483
 H3339 H 0.25377 0.69003 0.65619
 H3340 H 0.25492 0.70267 0.68432
 H3341 H 0.22797 0.75227 0.66678
 H3342 H 0.22695 0.73927 0.63783
 C3343 C 0.74120 0.18442 0.08180
 C3344 C 0.72901 0.16949 0.08114
 C3345 C 0.72758 0.15852 0.06664
 C3346 C 0.73791 0.16240 0.05191
 C3347 C 0.75053 0.17730 0.05290
 C3348 C 0.75222 0.18802 0.06766
 C3349 C 0.74224 0.19606 0.09724
 N3350 N 0.75800 0.20496 0.10169
 N3351 N 0.75900 0.21471 0.11603
 C3352 C 0.74422 0.21615 0.12638
 N3353 N 0.72841 0.20747 0.12178
 N3354 N 0.72747 0.19758 0.10755
 C3355 C 0.74556 0.22583 0.14290
 C3356 C 0.72976 0.23294 0.15068
 C3357 C 0.73068 0.24026 0.16710
 C3358 C 0.74733 0.24021 0.17620
 C3359 C 0.76323 0.23369 0.16820
 C3360 C 0.76240 0.22678 0.15164
 H3361 H 0.72070 0.16604 0.09203
 H3362 H 0.71860 0.14668 0.06745
 H3363 H 0.75862 0.18146 0.04214
 H3364 H 0.76176 0.19950 0.06782
 H3365 H 0.71661 0.23246 0.14420
 H3366 H 0.71819 0.24504 0.17302
 H3367 H 0.77624 0.23348 0.17494
 H3368 H 0.77477 0.22135 0.14601
 C3369 C 0.76115 0.18825 0.92286
 C3370 C 0.74666 0.17753 0.92933
 C3371 C 0.74908 0.16698 0.94404
 C3372 C 0.76607 0.16684 0.95258
 C3373 C 0.78040 0.17790 0.94637
 C3374 C 0.77797 0.18848 0.93171
 C3375 C 0.75900 0.19854 0.90666
 N3376 N 0.77296 0.20894 0.90043
 N3377 N 0.77135 0.21741 0.88549
 C3378 C 0.75569 0.21584 0.87612
 N3379 N 0.74168 0.20559 0.88243
 N3380 N 0.74328 0.19715 0.89737
 C3381 C 0.75424 0.22424 0.85896
 C3382 C 0.73882 0.22064 0.84865
 C3383 C 0.73800 0.22712 0.83199
 C3384 C 0.75251 0.23750 0.82519
 C3385 C 0.76763 0.24177 0.83568
 C3386 C 0.76852 0.23515 0.85236
 H3387 H 0.73350 0.17704 0.92287
 H3388 H 0.73783 0.15852 0.94846
 H3389 H 0.79357 0.17832 0.95283
 H3390 H 0.78941 0.19662 0.92719
 H3391 H 0.72752 0.21236 0.85327
 H3392 H 0.72609 0.22365 0.82431
 H3393 H 0.77908 0.24965 0.83080
 H3394 H 0.78059 0.23825 0.85996
 C3395 C 0.26026 0.68702 0.42011
 C3396 C 0.24556 0.67642 0.42632
 C3397 C 0.24773 0.66552 0.44085
 C3398 C 0.26468 0.66491 0.44944
 C3399 C 0.27923 0.67585 0.44348
 C3400 C 0.27704 0.68678 0.42901
 C3401 C 0.25833 0.69768 0.40411
 N3402 N 0.27259 0.70774 0.39796
 N3403 N 0.27116 0.71651 0.38316
 C3404 C 0.25542 0.71562 0.37385
 N3405 N 0.24111 0.70573 0.38009
 N3406 N 0.24252 0.69697 0.39489
 C3407 C 0.25419 0.72424 0.35679
 C3408 C 0.23863 0.72126 0.34650
 C3409 C 0.23808 0.72771 0.32983
 C3410 C 0.25303 0.73744 0.32302
 C3411 C 0.26826 0.74122 0.33352
 C3412 C 0.26887 0.73462 0.35022
 H3413 H 0.23242 0.67627 0.41981
 H3414 H 0.23631 0.65717 0.44507
 H3415 H 0.29236 0.67593 0.45000
 H3416 H 0.28863 0.69482 0.42468
 H3417 H 0.22703 0.71343 0.35113
 H3418 H 0.22608 0.72467 0.32213
 H3419 H 0.28002 0.74860 0.32862
 H3420 H 0.28104 0.73724 0.35781
 C3421 C 0.73948 0.82158 0.41827
 C3422 C 0.73555 0.84056 0.41905
 C3423 C 0.73427 0.84956 0.43462
 C3424 C 0.73708 0.83990 0.44980
 C3425 C 0.74149 0.82105 0.44914
 C3426 C 0.74254 0.81191 0.43349
 C3427 C 0.74029 0.81227 0.40155
 N3428 N 0.73947 0.79357 0.40003
 N3429 N 0.73991 0.78554 0.38477
 C3430 C 0.74126 0.79593 0.37048
 N3431 N 0.74208 0.81456 0.37209
 N3432 N 0.74155 0.82254 0.38725
 C3433 C 0.74225 0.78752 0.35336
 C3434 C 0.74885 0.79823 0.33992
 C3435 C 0.74962 0.79110 0.32360
 C3436 C 0.74373 0.77300 0.32006
 C3437 C 0.73708 0.76211 0.33346
 C3438 C 0.73648 0.76929 0.35004
 H3439 H 0.73311 0.84846 0.40761
 H3440 H 0.73093 0.86412 0.43482
 H3441 H 0.74359 0.81331 0.46074
 H3442 H 0.74572 0.79732 0.43329
 H3443 H 0.75351 0.81227 0.34197
 H3444 H 0.75471 0.80003 0.31367
 H3445 H 0.73242 0.74813 0.33114
 H3446 H 0.73126 0.76072 0.36017
 C3447 C 0.23634 0.32117 0.91863
 C3448 C 0.23361 0.34036 0.91935
 C3449 C 0.23230 0.34941 0.93492
 C3450 C 0.23403 0.33957 0.95014
 C3451 C 0.23724 0.32047 0.94954
 C3452 C 0.23820 0.31130 0.93389
 C3453 C 0.23721 0.31178 0.90194
 N3454 N 0.23356 0.29344 0.90023
 N3455 N 0.23400 0.28534 0.88501
 C3456 C 0.23824 0.29526 0.87094
 N3457 N 0.24192 0.31354 0.87273
 N3458 N 0.24135 0.32163 0.88785
 C3459 C 0.23911 0.28664 0.85390
 C3460 C 0.24934 0.29535 0.84121
 C3461 C 0.24981 0.28819 0.82485
 C3462 C 0.23993 0.27212 0.82054
 C3463 C 0.22982 0.26316 0.83327
 C3464 C 0.22952 0.27030 0.84986
 H3465 H 0.23210 0.34837 0.90784
 H3466 H 0.22981 0.36414 0.93510
 H3467 H 0.23849 0.31262 0.96116
 H3468 H 0.24042 0.29653 0.93373
 H3469 H 0.25701 0.30785 0.84389
 H3470 H 0.25777 0.29556 0.81549
 H3471 H 0.22205 0.25077 0.83038
 H3472 H 0.22146 0.26332 0.85940
 C3473 C 0.86665 0.41156 0.75222
 C3474 C 0.86732 0.41839 0.73557
 C3475 C 0.87651 0.43481 0.73194
 C3476 C 0.88559 0.44480 0.74480
 C3477 C 0.88468 0.43816 0.76157
 C3478 C 0.87521 0.42175 0.76525
 C3479 C 0.85741 0.39365 0.75554
 N3480 N 0.85119 0.38899 0.77121
 N3481 N 0.84257 0.37293 0.77373
 C3482 C 0.84000 0.36083 0.76070
 N3483 N 0.84635 0.36552 0.74515
 N3484 N 0.85481 0.38154 0.74261
 C3485 C 0.83000 0.34309 0.76284
 C3486 C 0.83124 0.32965 0.75007
 C3487 C 0.82025 0.31394 0.75041
 C3488 C 0.80766 0.31108 0.76356
 C3489 C 0.80719 0.32380 0.77703
 C3490 C 0.81829 0.33975 0.77666
 H3491 H 0.86063 0.41106 0.72525
 H3492 H 0.87638 0.43971 0.71898
 H3493 H 0.89159 0.44541 0.77180
 H3494 H 0.87497 0.41682 0.77821
 H3495 H 0.84034 0.33151 0.73941
 H3496 H 0.82120 0.30423 0.73999
 H3497 H 0.79761 0.32192 0.78732
 H3498 H 0.81709 0.34981 0.78675
 C3499 C 0.37171 0.90776 0.24949
 C3500 C 0.37603 0.91240 0.23273
 C3501 C 0.38490 0.92895 0.22896
 C3502 C 0.39014 0.94153 0.24186
 C3503 C 0.38558 0.93677 0.25875
 C3504 C 0.37644 0.92019 0.26247
 C3505 C 0.36231 0.88997 0.25305
 N3506 N 0.35330 0.88690 0.26785
 N3507 N 0.34432 0.87105 0.27044
 C3508 C 0.34413 0.85760 0.25839
 N3509 N 0.35332 0.86068 0.24375
 N3510 N 0.36217 0.87647 0.24113
 C3511 C 0.33345 0.84022 0.26042
 C3512 C 0.33502 0.82630 0.24810
 C3513 C 0.32361 0.81089 0.24838
 C3514 C 0.31032 0.80877 0.26103
 C3515 C 0.30940 0.82199 0.27405
 C3516 C 0.32086 0.83767 0.27372
 H3517 H 0.37225 0.90334 0.22234
 H3518 H 0.38685 0.93197 0.21568
 H3519 H 0.38958 0.94535 0.26937
 H3520 H 0.37340 0.91695 0.27555
 H3521 H 0.34472 0.82755 0.23783
 H3522 H 0.32486 0.80079 0.23831
 H3523 H 0.29925 0.82069 0.28394
 H3524 H 0.31936 0.84809 0.28346
 C3525 C 0.13255 0.90924 0.74782
 C3526 C 0.13145 0.91610 0.76446
 C3527 C 0.12236 0.93260 0.76789
 C3528 C 0.11380 0.94268 0.75482
 C3529 C 0.11513 0.93599 0.73808
 C3530 C 0.12448 0.91949 0.73461
 C3531 C 0.14174 0.89128 0.74471
 N3532 N 0.14801 0.88639 0.72911
 N3533 N 0.15656 0.87028 0.72677
 C3534 C 0.15900 0.85836 0.73991
 N3535 N 0.15262 0.86328 0.75540
 N3536 N 0.14423 0.87934 0.75775
 C3537 C 0.16887 0.84053 0.73797
 C3538 C 0.16752 0.82731 0.75090
 C3539 C 0.17830 0.81150 0.75070
 C3540 C 0.19079 0.80831 0.73755
 C3541 C 0.19140 0.82081 0.72394
 C3542 C 0.18051 0.83687 0.72416
 H3543 H 0.13774 0.90875 0.77494
 H3544 H 0.12217 0.93752 0.78085
 H3545 H 0.10862 0.94328 0.72769
 H3546 H 0.12505 0.91455 0.72166
 H3547 H 0.15847 0.82941 0.76156
 H3548 H 0.17725 0.80197 0.76123
 H3549 H 0.20093 0.81868 0.71365
 H3550 H 0.18180 0.84675 0.71395
 C3551 C 0.63312 0.41212 0.25028
 C3552 C 0.63237 0.41904 0.26691
 C3553 C 0.62318 0.43544 0.27045
 C3554 C 0.61418 0.44531 0.25752
 C3555 C 0.61519 0.43860 0.24077
 C3556 C 0.62465 0.42220 0.23718
 C3557 C 0.64235 0.39422 0.24708
 N3558 N 0.64840 0.38936 0.23141
 N3559 N 0.65703 0.37331 0.22899
 C3560 C 0.65975 0.36144 0.24213
 N3561 N 0.65356 0.36633 0.25768
 N3562 N 0.64510 0.38233 0.26011
 C3563 C 0.66978 0.34375 0.24009
 C3564 C 0.66891 0.33058 0.25310
 C3565 C 0.67988 0.31491 0.25272
 C3566 C 0.69207 0.31182 0.23930
 C3567 C 0.69220 0.32431 0.22566
 C3568 C 0.68113 0.34021 0.22606
 H3569 H 0.63900 0.41181 0.27728
 H3570 H 0.62323 0.44041 0.28340
 H3571 H 0.60835 0.44578 0.23050
 H3572 H 0.62496 0.41720 0.22424
 H3573 H 0.66009 0.33260 0.26393
 H3574 H 0.67918 0.30539 0.26329
 H3575 H 0.70147 0.32226 0.21516
 H3576 H 0.68204 0.35006 0.21579
 C3577 C 0.63723 0.58977 0.24964
 C3578 C 0.62536 0.58232 0.26185
 C3579 C 0.61453 0.56678 0.25804
 C3580 C 0.61514 0.55861 0.24185
 C3581 C 0.62680 0.56626 0.22962
 C3582 C 0.63774 0.58156 0.23347
 C3583 C 0.64935 0.60577 0.25352
 N3584 N 0.66380 0.60950 0.24333
 N3585 N 0.67465 0.62393 0.24633
 C3586 C 0.67158 0.63539 0.25964
 N3587 N 0.65713 0.63169 0.26994
 N3588 N 0.64628 0.61712 0.26698
 C3589 C 0.68347 0.65193 0.26208
 C3590 C 0.67867 0.66653 0.27302
 C3591 C 0.68905 0.68296 0.27332
 C3592 C 0.70426 0.68497 0.26261
 C3593 C 0.70959 0.66995 0.25255
 C3594 C 0.69942 0.65369 0.25232
 H3595 H 0.62467 0.58829 0.27443
 H3596 H 0.60562 0.56119 0.26769
 H3597 H 0.62776 0.56014 0.21712
 H3598 H 0.64665 0.58695 0.22372
 H3599 H 0.66651 0.66557 0.28078
 H3600 H 0.68464 0.69437 0.28116
 H3601 H 0.72140 0.67103 0.24433
 H3602 H 0.70379 0.64269 0.24397
 C3603 C 0.13032 0.09145 0.74798
 C3604 C 0.12244 0.08050 0.76071
 C3605 C 0.11371 0.06377 0.75657
 C3606 C 0.11293 0.05751 0.73964
 C3607 C 0.12135 0.06829 0.72707
 C3608 C 0.12976 0.08506 0.73116
 C3609 C 0.13876 0.10967 0.75182
 N3610 N 0.14023 0.12243 0.73934
 N3611 N 0.14802 0.13873 0.74234
 C3612 C 0.15482 0.14305 0.75793
 N3613 N 0.15337 0.13030 0.77051
 N3614 N 0.14540 0.11396 0.76753
 C3615 C 0.16426 0.16106 0.76052
 C3616 C 0.17669 0.16414 0.77404
 C3617 C 0.18750 0.18028 0.77456
 C3618 C 0.18599 0.19346 0.76156
 C3619 C 0.17262 0.19091 0.74885
 C3620 C 0.16191 0.17500 0.74835
 H3621 H 0.12261 0.08509 0.77379
 H3622 H 0.10726 0.05596 0.76659
 H3623 H 0.12156 0.06375 0.71399
 H3624 H 0.13595 0.09300 0.72107
 H3625 H 0.17875 0.15369 0.78366
 H3626 H 0.19776 0.18191 0.78446
 H3627 H 0.17098 0.20097 0.73879
 H3628 H 0.15223 0.17333 0.73797
 C3629 C 0.36360 0.08545 0.25099
 C3630 C 0.37519 0.07799 0.23855
 C3631 C 0.38608 0.06251 0.24217
 C3632 C 0.38577 0.05435 0.25836
 C3633 C 0.37431 0.06194 0.27077
 C3634 C 0.36336 0.07721 0.26713
 C3635 C 0.35157 0.10154 0.24742
 N3636 N 0.33803 0.10590 0.25842
 N3637 N 0.32729 0.12041 0.25572
 C3638 C 0.32954 0.13133 0.24190
 N3639 N 0.34307 0.12700 0.23079
 N3640 N 0.35383 0.11236 0.23347
 C3641 C 0.31771 0.14789 0.23971
 C3642 C 0.32113 0.16145 0.22729
 C3643 C 0.31065 0.17776 0.22675
 C3644 C 0.29675 0.18075 0.23871
 C3645 C 0.29287 0.16679 0.25049
 C3646 C 0.30311 0.15064 0.25095
 H3647 H 0.37569 0.08399 0.22599
 H3648 H 0.39485 0.05699 0.23238
 H3649 H 0.37358 0.05583 0.28328
 H3650 H 0.35466 0.08256 0.27706
 H3651 H 0.33223 0.15972 0.21838
 H3652 H 0.31390 0.18831 0.21752
 H3653 H 0.28203 0.16852 0.25969
 H3654 H 0.29978 0.14048 0.26051
 C3655 C 0.87036 0.59313 0.75262
 C3656 C 0.87808 0.58242 0.73964
 C3657 C 0.88695 0.56572 0.74344
 C3658 C 0.88808 0.55930 0.76029
 C3659 C 0.87984 0.56985 0.77312
 C3660 C 0.87127 0.58657 0.76936
 C3661 C 0.86171 0.61127 0.74912
 N3662 N 0.86011 0.62378 0.76183
 N3663 N 0.85214 0.64000 0.75912
 C3664 C 0.84530 0.64450 0.74361
 N3665 N 0.84688 0.63200 0.73081
 N3666 N 0.85502 0.61574 0.73349
 C3667 C 0.83574 0.66242 0.74130
 C3668 C 0.82341 0.66561 0.72776
 C3669 C 0.81264 0.68172 0.72736
 C3670 C 0.81407 0.69478 0.74051
 C3671 C 0.82729 0.69208 0.75332
 C3672 C 0.83795 0.67619 0.75371
 H3673 H 0.87765 0.58715 0.72662
 H3674 H 0.89325 0.55807 0.73323
 H3675 H 0.87990 0.56516 0.78614
 H3676 H 0.86522 0.59432 0.77964
 H3677 H 0.82146 0.65530 0.71796
 H3678 H 0.80254 0.68346 0.71735
 H3679 H 0.82896 0.70204 0.76348
 H3680 H 0.84755 0.67443 0.76413
 C3681 C 0.90851 0.73533 0.15240
 C3682 C 0.92499 0.72979 0.16016
 C3683 C 0.94185 0.73471 0.15317
 C3684 C 0.94264 0.74553 0.13831
 C3685 C 0.92599 0.74968 0.12991
 C3686 C 0.90920 0.74464 0.13684
 C3687 C 0.89086 0.73334 0.16129
 N3688 N 0.87527 0.74047 0.15444
 N3689 N 0.85982 0.74097 0.16329
 C3690 C 0.85931 0.73440 0.17938
 N3691 N 0.87477 0.72683 0.18610
 N3692 N 0.89024 0.72634 0.17725
 C3693 C 0.84268 0.73667 0.18973
 C3694 C 0.84185 0.72932 0.20618
 C3695 C 0.82647 0.73232 0.21625
 C3696 C 0.81167 0.74283 0.21010
 C3697 C 0.81249 0.75013 0.19363
 C3698 C 0.82780 0.74703 0.18354
 H3699 H 0.92492 0.72247 0.17213
 H3700 H 0.95409 0.73124 0.16032
 H3701 H 0.92577 0.75690 0.11790
 H3702 H 0.89675 0.74874 0.13029
 H3703 H 0.85310 0.72131 0.21134
 H3704 H 0.82624 0.72646 0.22887
 H3705 H 0.80124 0.75813 0.18844
 H3706 H 0.82803 0.75296 0.17095
 C3707 C 0.40428 0.23106 0.65885
 C3708 C 0.42079 0.22883 0.66797
 C3709 C 0.43713 0.23623 0.66180
 C3710 C 0.43720 0.24604 0.64648
 C3711 C 0.42100 0.24722 0.63683
 C3712 C 0.40470 0.23973 0.64292
 C3713 C 0.38650 0.22663 0.66677
 N3714 N 0.37056 0.23046 0.65850
 N3715 N 0.35458 0.22936 0.66646
 C3716 C 0.35386 0.22439 0.68303
 N3717 N 0.36973 0.21993 0.69115
 N3718 N 0.38574 0.22105 0.68318
 C3719 C 0.33653 0.22603 0.69248
 C3720 C 0.33536 0.22008 0.70939
 C3721 C 0.31965 0.22368 0.71887
 C3722 C 0.30494 0.23347 0.71165
 C3723 C 0.30589 0.23889 0.69459
 C3724 C 0.32146 0.23512 0.68508
 H3725 H 0.42095 0.22214 0.68024
 H3726 H 0.44950 0.23515 0.66944
 H3727 H 0.42084 0.25443 0.62481
 H3728 H 0.39228 0.24155 0.63549
 H3729 H 0.34673 0.21301 0.71543
 H3730 H 0.31922 0.21924 0.73198
 H3731 H 0.29463 0.24619 0.68859
 H3732 H 0.32189 0.23990 0.67209
 C3733 C 0.41189 0.76245 0.83742
 C3734 C 0.41310 0.75548 0.85401
 C3735 C 0.42987 0.74959 0.86057
 C3736 C 0.44579 0.75060 0.85072
 C3737 C 0.44487 0.75853 0.83452
 C3738 C 0.42803 0.76439 0.82790
 C3739 C 0.39373 0.76598 0.82966
 N3740 N 0.39221 0.77198 0.81341
 N3741 N 0.37585 0.77310 0.80585
 C3742 C 0.36037 0.76820 0.81423
 N3743 N 0.36186 0.76260 0.83059
 N3744 N 0.37819 0.76152 0.83815
 C3745 C 0.34250 0.76735 0.80532
 C3746 C 0.32761 0.75812 0.81274
 C3747 C 0.31127 0.75560 0.80372
 C3748 C 0.30942 0.76244 0.78714
 C3749 C 0.32406 0.77226 0.77993
 C3750 C 0.34048 0.77462 0.78891
 H3751 H 0.40099 0.75398 0.86176
 H3752 H 0.43035 0.74389 0.87326
 H3753 H 0.45701 0.75947 0.82673
 H3754 H 0.42757 0.76976 0.81509
 H3755 H 0.32870 0.75234 0.82537
 H3756 H 0.30014 0.74818 0.80969
 H3757 H 0.32301 0.77775 0.76720
 H3758 H 0.35169 0.78186 0.78288
 C3759 C 0.90507 0.27165 0.34994
 C3760 C 0.90536 0.25951 0.36379
 C3761 C 0.92181 0.25187 0.36942
 C3762 C 0.93854 0.25629 0.36149
 C3763 C 0.93835 0.26992 0.34870
 C3764 C 0.92178 0.27736 0.34291
 C3765 C 0.88745 0.27612 0.34155
 N3766 N 0.88712 0.28392 0.32589
 N3767 N 0.87153 0.28489 0.31702
 C3768 C 0.85567 0.27805 0.32344
 N3769 N 0.85589 0.27090 0.33934
 N3770 N 0.87145 0.26994 0.34819
 C3771 C 0.83908 0.27627 0.31269
 C3772 C 0.82433 0.26530 0.31813
 C3773 C 0.80960 0.26160 0.30730
 C3774 C 0.80916 0.26895 0.29084
 C3775 C 0.82354 0.28050 0.28557
 C3776 C 0.83843 0.28404 0.29637
 H3777 H 0.89276 0.25509 0.36977
 H3778 H 0.92129 0.24238 0.37999
 H3779 H 0.95070 0.27378 0.34204
 H3780 H 0.92202 0.28682 0.33229
 H3781 H 0.82437 0.25907 0.33060
 H3782 H 0.79857 0.25291 0.31183
 H3783 H 0.82348 0.28647 0.27299
 H3784 H 0.84958 0.29257 0.29182
 C3785 C 0.08891 0.23089 0.34372
 C3786 C 0.07230 0.22874 0.33473
 C3787 C 0.05590 0.23515 0.34160
 C3788 C 0.05588 0.24375 0.35754
 C3789 C 0.07220 0.24455 0.36707
 C3790 C 0.08857 0.23816 0.36024
 C3791 C 0.10662 0.22790 0.33520
 N3792 N 0.12247 0.23375 0.34261
 N3793 N 0.13813 0.23370 0.33406
 C3794 C 0.13858 0.22782 0.31773
 N3795 N 0.12284 0.22145 0.31046
 N3796 N 0.10716 0.22154 0.31901
 C3797 C 0.15544 0.22983 0.30766
 C3798 C 0.15648 0.22219 0.29132
 C3799 C 0.17193 0.22519 0.28136
 C3800 C 0.18658 0.23602 0.28749
 C3801 C 0.18561 0.24352 0.30388
 C3802 C 0.17023 0.24038 0.31389
 H3803 H 0.07208 0.22311 0.32201
 H3804 H 0.04346 0.23438 0.33402
 H3805 H 0.07241 0.25078 0.37957
 H3806 H 0.10108 0.23978 0.36759
 H3807 H 0.14530 0.21400 0.28616
 H3808 H 0.17231 0.21917 0.26879
 H3809 H 0.19677 0.25174 0.30903
 H3810 H 0.16981 0.24654 0.32641
 C3811 C 0.59800 0.73408 0.84541
 C3812 C 0.58218 0.73024 0.83570
 C3813 C 0.56511 0.73685 0.84077
 C3814 C 0.56359 0.74736 0.85565
 C3815 C 0.57915 0.75002 0.86598
 C3816 C 0.59620 0.74344 0.86092
 C3817 C 0.61640 0.73054 0.83844
 N3818 N 0.63151 0.73796 0.84600
 N3819 N 0.64775 0.73736 0.83845
 C3820 C 0.64955 0.72929 0.82301
 N3821 N 0.63457 0.72133 0.81570
 N3822 N 0.61831 0.72197 0.82324
 C3823 C 0.66685 0.73098 0.81354
 C3824 C 0.66897 0.72183 0.79798
 C3825 C 0.68436 0.72512 0.78804
 C3826 C 0.69790 0.73772 0.79341
 C3827 C 0.69608 0.74643 0.80922
 C3828 C 0.68074 0.74304 0.81922
 H3829 H 0.58309 0.72301 0.82371
 H3830 H 0.55329 0.73460 0.83261
 H3831 H 0.57822 0.75770 0.87773
 H3832 H 0.60807 0.74641 0.86881
 H3833 H 0.65854 0.71241 0.79328
 H3834 H 0.68542 0.71809 0.77596
 H3835 H 0.70641 0.75602 0.81382
 H3836 H 0.67951 0.75033 0.83115
 C3837 C 0.58824 0.26837 0.65989
 C3838 C 0.58724 0.26148 0.64325
 C3839 C 0.57060 0.25524 0.63657
 C3840 C 0.55462 0.25578 0.64637
 C3841 C 0.55533 0.26373 0.66260
 C3842 C 0.57201 0.26998 0.66931
 C3843 C 0.60629 0.27191 0.66791
 N3844 N 0.60751 0.27827 0.68408
 N3845 N 0.62368 0.27921 0.69202
 C3846 C 0.63925 0.27375 0.68412
 N3847 N 0.63808 0.26782 0.66781
 N3848 N 0.62193 0.26694 0.65987
 C3849 C 0.65678 0.27256 0.69354
 C3850 C 0.67147 0.26242 0.68686
 C3851 C 0.68735 0.25957 0.69646
 C3852 C 0.68895 0.26697 0.71287
 C3853 C 0.67454 0.27768 0.71933
 C3854 C 0.65857 0.28037 0.70978
 H3855 H 0.59944 0.26025 0.63557
 H3856 H 0.57029 0.24954 0.62386
 H3857 H 0.54317 0.26428 0.67040
 H3858 H 0.57230 0.27527 0.68216
 H3859 H 0.67053 0.25619 0.67439
 H3860 H 0.69832 0.25145 0.69106
 H3861 H 0.67542 0.28363 0.73192
 H3862 H 0.64751 0.28830 0.71525
 C3863 C 0.09399 0.76726 0.15337
 C3864 C 0.07771 0.77124 0.16211
 C3865 C 0.06099 0.76386 0.15658
 C3866 C 0.06032 0.75235 0.14227
 C3867 C 0.07630 0.74948 0.13285
 C3868 C 0.09298 0.75691 0.13830
 C3869 C 0.11205 0.77160 0.16102
 N3870 N 0.12764 0.76528 0.15373
 N3871 N 0.14366 0.76638 0.16186
 C3872 C 0.14476 0.77384 0.17763
 N3873 N 0.12929 0.78077 0.18468
 N3874 N 0.11325 0.77965 0.17655
 C3875 C 0.16189 0.77242 0.18764
 C3876 C 0.16336 0.78079 0.20367
 C3877 C 0.17870 0.77761 0.21395
 C3878 C 0.19277 0.76586 0.20845
 C3879 C 0.19156 0.75795 0.19222
 C3880 C 0.17632 0.76126 0.18189
 H3881 H 0.07800 0.77925 0.17372
 H3882 H 0.04879 0.76628 0.16402
 H3883 H 0.07599 0.74094 0.12156
 H3884 H 0.10520 0.75375 0.13115
 H3885 H 0.15249 0.78949 0.20844
 H3886 H 0.17931 0.78400 0.22637
 H3887 H 0.20232 0.74906 0.18752
 H3888 H 0.17563 0.75459 0.16961
   
