data_POSCAR
  _audit_creation_date              2014-09-24
  _audit_creation_method            'ToBaCCo'
  _symmetry_space_group_name_H-M    'P1'
  _symmetry_Int_Tables_number       1
  _symmetry_cell_setting            triclinic
  loop_
  _symmetry_equiv_pos_as_xyz
 x,y,z
_cell_length_a 66.1511
_cell_length_b 65.9218
_cell_length_c 65.9515
_cell_angle_alpha 88.815600
_cell_angle_beta 88.787700
_cell_angle_gamma 88.517500
loop_
  _atom_site_label
  _atom_site_type_symbol
  _atom_site_fract_x
  _atom_site_fract_y
  _atom_site_fract_z
C1 C 0.78158 0.64717 0.99622
 C2 C 0.78374 0.63036 0.98052
 C3 C 0.76691 0.61915 0.97852
 C4 C 0.74908 0.62615 0.99238
 C5 C 0.76310 0.65978 0.98914
 C6 C 0.74585 0.64900 0.98721
 C7 C 0.77446 0.63637 1.01573
 C8 C 0.75739 0.62559 1.01398
 H9 H 0.79634 0.62903 0.96993
 H10 H 0.73552 0.61688 0.99119
 H11 H 0.76420 0.67568 0.98506
 H12 H 0.78239 0.63745 1.02985
 C13 C 0.79214 0.37136 0.46910
 C14 C 0.79572 0.38787 0.48470
 C15 C 0.77872 0.39854 0.49034
 C16 C 0.75958 0.39210 0.47971
 C17 C 0.77535 0.35847 0.47875
 C18 C 0.75829 0.36921 0.48420
 C19 C 0.78194 0.38300 0.45153
 C20 C 0.76485 0.39370 0.45693
 H21 H 0.81007 0.39080 0.49137
 H22 H 0.74584 0.40097 0.48439
 H23 H 0.77668 0.34211 0.48041
 H24 H 0.78800 0.38294 0.43615
 C25 C 0.28497 -0.13163 -0.02295
 C26 C 0.29058 -0.11622 -0.00874
 C27 C 0.27402 -0.10364 -0.00161
 C28 C 0.25473 -0.10890 -0.01054
 C29 C 0.26917 -0.14285 -0.01207
 C30 C 0.25196 -0.13057 -0.00564
 C31 C 0.27463 -0.12067 -0.03920
 C32 C 0.25803 -0.10791 -0.03262
 H33 H 0.30534 -0.11631 -0.00191
 H34 H 0.24208 -0.09888 -0.00574
 H35 H 0.27165 -0.15798 -0.00593
 H36 H 0.27995 -0.12118 -0.05484
 C37 C 0.28850 0.13787 0.50502
 C38 C 0.29042 0.11978 0.49072
 C39 C 0.27309 0.10951 0.48874
 C40 C 0.25514 0.11825 0.50111
 C41 C 0.27100 0.15087 0.49608
 C42 C 0.25348 0.14063 0.49403
 C43 C 0.27990 0.12912 0.52493
 C44 C 0.26242 0.11898 0.52306
 H45 H 0.30343 0.11710 0.48079
 H46 H 0.24106 0.10969 0.49962
 H47 H 0.27284 0.16618 0.49023
 H48 H 0.28703 0.13113 0.53936
 C49 C 0.13700 0.50599 0.28531
 C50 C 0.11915 0.49159 0.28770
 C51 C 0.10887 0.48900 0.27034
 C52 C 0.11721 0.50110 0.25203
 C53 C 0.14988 0.49683 0.26791
 C54 C 0.13958 0.49441 0.25047
 C55 C 0.12771 0.52561 0.27633
 C56 C 0.11746 0.52325 0.25888
 H57 H 0.11663 0.48173 0.30075
 H58 H 0.10876 0.49869 0.23796
 H59 H 0.16569 0.49251 0.26939
 H60 H 0.12894 0.54009 0.28359
 C61 C -0.13145 -0.02186 0.28805
 C62 C -0.11565 -0.00561 0.29153
 C63 C -0.10432 -0.00092 0.27474
 C64 C -0.10978 -0.01274 0.25588
 C65 C -0.14385 -0.01299 0.27036
 C66 C -0.13266 -0.00843 0.25332
 C67 C -0.12009 -0.03891 0.27962
 C68 C -0.10802 -0.03418 0.26194
 H69 H -0.11444 0.00285 0.30530
 H70 H -0.10073 -0.00844 0.24228
 H71 H -0.16002 -0.01019 0.27155
 H72 H -0.11950 -0.05356 0.28734
 C73 C 0.36975 0.46633 0.78519
 C74 C 0.38196 0.48456 0.79111
 C75 C 0.39333 0.49284 0.77577
 C76 C 0.39172 0.48165 0.75564
 C77 C 0.35751 0.47382 0.76676
 C78 C 0.36893 0.48200 0.75132
 C79 C 0.38537 0.45133 0.77606
 C80 C 0.39691 0.45926 0.76068
 H81 H 0.38147 0.49035 0.80637
 H82 H 0.40121 0.48792 0.74309
 H83 H 0.34128 0.47270 0.76598
 H84 H 0.38582 0.43529 0.77994
 C85 C 0.64703 1.00202 0.77705
 C86 C 0.62937 0.98765 0.78045
 C87 C 0.61875 0.98401 0.76352
 C88 C 0.62666 0.99552 0.74455
 C89 C 0.65978 0.99210 0.75988
 C90 C 0.64909 0.98868 0.74283
 C91 C 0.63827 1.02022 0.76775
 C92 C 0.62694 1.01698 0.74989
 H93 H 0.62712 0.97920 0.79455
 H94 H 0.61812 0.99219 0.73083
 H95 H 0.67568 0.98823 0.76069
 H96 H 0.63941 1.03489 0.77463
 C97 C -0.03354 0.29150 -0.12424
 C98 C -0.01611 0.29368 -0.10937
 C99 C -0.01075 0.27610 -0.09944
 C100 C -0.02333 0.25787 -0.10502
 C101 C -0.02619 0.27431 -0.13814
 C102 C -0.02096 0.25676 -0.12817
 C103 C -0.05060 0.28238 -0.11115
 C104 C -0.04540 0.26487 -0.10101
 H105 H -0.00749 0.30719 -0.10774
 H106 H -0.01874 0.24366 -0.09684
 H107 H -0.02467 0.27612 -0.15447
 H108 H -0.06561 0.28929 -0.11021
 C109 C 0.50123 0.28211 0.13947
 C110 C 0.48404 0.28591 0.12454
 C111 C 0.47878 0.26924 0.11438
 C112 C 0.49128 0.25006 0.11981
 C113 C 0.49386 0.26439 0.15326
 C114 C 0.48862 0.24758 0.14295
 C115 C 0.51855 0.27258 0.12680
 C116 C 0.51344 0.25588 0.11655
 H117 H 0.47534 0.30005 0.12376
 H118 H 0.48728 0.23673 0.11089
 H119 H 0.49214 0.26509 0.16952
 H120 H 0.53394 0.27778 0.12718
 C121 C 1.00789 0.78541 0.65264
 C122 C 0.99442 0.79011 0.63590
 C123 C 0.98930 0.77297 0.62416
 C124 C 0.99971 0.75426 0.63109
 C125 C 0.99795 0.76917 0.66434
 C126 C 0.99350 0.75174 0.65250
 C127 C 1.02566 0.77539 0.64360
 C128 C 1.02136 0.75844 0.63137
 H129 H 0.98617 0.80450 0.63492
 H130 H 0.99652 0.74122 0.62160
 H131 H 0.99713 0.76838 0.68069
 H132 H 1.04084 0.78073 0.64550
 C133 C 0.47610 0.78375 0.37549
 C134 C 0.49388 0.78576 0.38997
 C135 C 0.49891 0.76827 0.40025
 C136 C 0.48569 0.75028 0.39530
 C137 C 0.48274 0.76609 0.36188
 C138 C 0.48775 0.74861 0.37212
 C139 C 0.45900 0.77538 0.38899
 C140 C 0.46386 0.75799 0.39947
 H141 H 0.50316 0.79892 0.39076
 H142 H 0.48998 0.73617 0.40379
 H143 H 0.48401 0.76759 0.34552
 H144 H 0.44417 0.78269 0.38989
 C145 C 0.37918 -0.00727 0.26801
 H146 H 0.37785 0.00711 0.27560
 C147 C 0.38977 -0.02354 0.27706
 H148 H 0.39645 -0.02152 0.29171
 C149 C 0.37093 -0.02758 0.24030
 H150 H 0.36320 -0.02929 0.22621
 C151 C 0.38147 -0.04420 0.24874
 H152 H 0.38212 -0.05837 0.24071
 N153 N 0.37004 -0.00954 0.24996
 C154 C 0.36137 0.05100 0.22347
 H155 H 0.34541 0.05044 0.22031
 C156 C 0.37209 0.06834 0.21834
 H157 H 0.36430 0.08101 0.21094
 C158 C 0.39086 0.03488 0.23665
 H159 H 0.39811 0.02178 0.24375
 C160 C 0.40221 0.05198 0.23174
 H161 H 0.41810 0.05194 0.23536
 Zn162 Zn 0.35425 0.01268 0.23992
 N163 N 0.37074 0.03486 0.23278
 C164 C 0.33732 0.03902 0.26913
 N165 N 0.33609 0.02022 0.26120
 C166 C 0.32447 0.00578 0.27031
 C167 C 0.31433 0.00971 0.28872
 C168 C 0.32744 0.04358 0.28739
 C169 C 0.35308 0.00117 0.20001
 C170 C 0.34492 -0.00412 0.18162
 C171 C 0.31147 0.00019 0.19657
 C172 C 0.32034 0.00521 0.21485
 N173 N 0.34082 0.00545 0.21621
 H174 H 0.34688 0.05021 0.26198
 H175 H 0.32407 -0.00918 0.26390
 H176 H 0.30605 -0.00228 0.29636
 H177 H 0.32915 0.05843 0.29376
 H178 H 0.36932 0.00168 0.20148
 H179 H 0.35513 -0.00809 0.16921
 H180 H 0.29515 0.00028 0.19568
 H181 H 0.31089 0.00904 0.22786
 C182 C 0.39275 0.06910 0.22268
 C183 C 0.39092 -0.04239 0.26748
 C184 C 0.32383 -0.00459 0.17961
 C185 C 0.31637 0.02861 0.29780
 C186 C 0.08354 1.04558 0.78167
 H187 H 0.08304 1.03103 0.78954
 C188 C 0.07223 1.06207 0.78924
 H189 H 0.06322 1.05998 0.80297
 C190 C 0.09705 1.06619 0.75515
 H191 H 0.10699 1.06794 0.74208
 C192 C 0.08578 1.08296 0.76198
 H193 H 0.08691 1.09724 0.75368
 N194 N 0.09598 1.04798 0.76514
 C195 C 0.10909 0.98987 0.73687
 H196 H 0.12480 0.99222 0.73293
 C197 C 0.09966 0.97279 0.72990
 H198 H 0.10841 0.96187 0.72108
 C199 C 0.07861 1.00144 0.75275
 H200 H 0.07036 1.01275 0.76141
 C201 C 0.06856 0.98441 0.74617
 H202 H 0.05264 0.98280 0.74984
 Zn203 Zn 0.11348 1.02628 0.75648
 N204 N 0.09861 1.00373 0.74820
 C205 C 0.14444 1.00223 0.77435
 N206 N 0.13080 1.01760 0.77792
 C207 C 0.12885 1.02583 0.79664
 C208 C 0.13980 1.01770 0.81290
 C209 C 0.15598 0.99390 0.79007
 C210 C 0.11922 1.03761 0.71585
 C211 C 0.12967 1.04383 0.69832
 C212 C 0.16022 1.04469 0.71770
 C213 C 0.14914 1.03848 0.73492
 N214 N 0.12902 1.03511 0.73368
 H215 H 0.14627 0.99623 0.75930
 H216 H 0.11844 1.03841 0.79924
 H217 H 0.13711 1.02387 0.82782
 H218 H 0.16671 0.98168 0.78674
 H219 H 0.10322 1.03470 0.71530
 H220 H 0.12161 1.04552 0.68424
 H221 H 0.17617 1.04758 0.71899
 H222 H 0.15659 1.03650 0.74928
 C223 C 0.07914 0.96986 0.73453
 C224 C 0.07349 1.08121 0.77953
 C225 C 0.15045 1.04749 0.69909
 C226 C 0.15333 1.00120 0.80985
 C227 C 0.58828 0.53862 0.27385
 H228 H 0.59000 0.52421 0.28185
 C229 C 0.57778 0.55474 0.28308
 H230 H 0.57161 0.55256 0.29827
 C231 C 0.59553 0.55922 0.24489
 H232 H 0.60276 0.56107 0.23017
 C233 C 0.58496 0.57564 0.25342
 H234 H 0.58384 0.58979 0.24485
 N235 N 0.59710 0.54119 0.25519
 C236 C 0.60773 0.48543 0.22252
 H237 H 0.62358 0.48735 0.21880
 C238 C 0.59753 0.46927 0.21460
 H239 H 0.60565 0.45872 0.20482
 C240 C 0.57806 0.49669 0.24018
 H241 H 0.57060 0.50747 0.25014
 C242 C 0.56730 0.48049 0.23280
 H243 H 0.55150 0.47891 0.23703
 Zn244 Zn 0.61366 0.51982 0.24482
 N245 N 0.59794 0.49874 0.23502
 C246 C 0.62907 0.48931 0.27118
 N247 N 0.62983 0.50940 0.26620
 C248 C 0.64079 0.52227 0.27721
 C249 C 0.65152 0.51501 0.29403
 C250 C 0.63950 0.48145 0.28784
 C251 C 0.62030 0.53316 0.20492
 C252 C 0.63119 0.53964 0.18775
 C253 C 0.66155 0.53849 0.20753
 C254 C 0.65009 0.53179 0.22431
 N255 N 0.62981 0.52945 0.22276
 H256 H 0.62011 0.47934 0.26245
 H257 H 0.64083 0.53826 0.27316
 H258 H 0.65986 0.52551 0.30286
 H259 H 0.63874 0.46539 0.29146
 H260 H 0.60419 0.53098 0.20405
 H261 H 0.62331 0.54271 0.17375
 H262 H 0.67768 0.54026 0.20897
 H263 H 0.65743 0.52844 0.23850
 C264 C 0.57708 0.46661 0.21976
 C265 C 0.57623 0.57369 0.27296
 C266 C 0.65208 0.54244 0.18895
 C267 C 0.65075 0.49437 0.29965
 C268 C 0.87201 0.49980 0.76386
 H269 H 0.87076 0.51445 0.77095
 C270 C 0.88225 0.48369 0.77358
 H271 H 0.88873 0.48607 0.78825
 C272 C 0.86397 0.47872 0.73666
 H273 H 0.85643 0.47665 0.72253
 C274 C 0.87416 0.46225 0.74578
 H275 H 0.87475 0.44783 0.73820
 N276 N 0.86310 0.49706 0.74576
 C277 C 0.85505 0.55840 0.72065
 H278 H 0.83884 0.55882 0.71870
 C279 C 0.86629 0.57552 0.71584
 H280 H 0.85869 0.58913 0.71009
 C281 C 0.88469 0.54002 0.73039
 H282 H 0.89177 0.52611 0.73596
 C283 C 0.89658 0.55670 0.72539
 H284 H 0.91278 0.55561 0.72738
 Zn285 Zn 0.84764 0.51905 0.73479
 N286 N 0.86428 0.54126 0.72817
 C287 C 0.82955 0.54468 0.76411
 N288 N 0.82828 0.52642 0.75508
 C289 C 0.81505 0.51232 0.76210
 C290 C 0.80255 0.51632 0.77900
 C291 C 0.81742 0.54927 0.78100
 C292 C 0.84872 0.50666 0.69512
 C293 C 0.84172 0.49954 0.67690
 C294 C 0.80749 0.50310 0.69013
 C295 C 0.81520 0.51003 0.70828
 N296 N 0.83554 0.51123 0.71054
 H297 H 0.84069 0.55538 0.75893
 H298 H 0.81469 0.49771 0.75497
 H299 H 0.79228 0.50483 0.78452
 H300 H 0.81941 0.56355 0.78843
 H301 H 0.86479 0.50809 0.69723
 H302 H 0.85250 0.49565 0.66493
 H303 H 0.79132 0.50167 0.68865
 H304 H 0.80497 0.51414 0.72059
 C305 C 0.88731 0.57478 0.71827
 C306 C 0.88328 0.46452 0.76461
 C307 C 0.82090 0.49736 0.67434
 C308 C 0.80387 0.53491 0.78888
 C309 C 0.25644 0.37957 -0.00450
 H310 H 0.26291 0.37976 0.01042
 C311 C 0.26609 0.38944 -0.02083
 H312 H 0.28001 0.39720 -0.01832
 C313 C 0.23120 0.36796 -0.02610
 H314 H 0.21800 0.35908 -0.02831
 C315 C 0.24031 0.37763 -0.04280
 H316 H 0.23359 0.37650 -0.05755
 N317 N 0.23937 0.36902 -0.00740
 C318 C 0.21092 0.36021 0.05241
 H319 H 0.20888 0.34399 0.05207
 C320 C 0.20478 0.37102 0.06952
 H321 H 0.19787 0.36303 0.08228
 C322 C 0.22231 0.39029 0.03605
 H323 H 0.22913 0.39772 0.02296
 C324 C 0.21620 0.40175 0.05282
 H325 H 0.21861 0.41793 0.05260
 Zn326 Zn 0.22887 0.35332 0.01461
 N327 N 0.21994 0.36984 0.03634
 C328 C 0.25635 0.33540 0.04264
 N329 N 0.25016 0.33559 0.02310
 C330 C 0.26037 0.32475 0.00865
 C331 C 0.27788 0.31353 0.01353
 C332 C 0.27355 0.32413 0.04824
 C333 C 0.19008 0.34991 0.00007
 C334 C 0.17320 0.34043 -0.00720
 C335 C 0.18966 0.30790 -0.00041
 C336 C 0.20646 0.31805 0.00642
 N337 N 0.20645 0.33870 0.00622
 H338 H 0.24846 0.34451 0.05382
 H339 H 0.25530 0.32543 -0.00685
 H340 H 0.28618 0.30540 0.00179
 H341 H 0.27859 0.32464 0.06373
 H342 H 0.19039 0.36630 0.00042
 H343 H 0.16043 0.34957 -0.01242
 H344 H 0.18988 0.29147 -0.00051
 H345 H 0.21952 0.30946 0.01171
 C346 C 0.20762 0.39202 0.06996
 C347 C 0.25818 0.38828 -0.04036
 C348 C 0.17295 0.31918 -0.00765
 C349 C 0.28474 0.31334 0.03353
 C350 C 0.77444 0.08340 1.03696
 H351 H 0.78194 0.08458 1.02226
 C352 C 0.78385 0.07275 1.05282
 H353 H 0.79850 0.06547 1.05015
 C354 C 0.74646 0.09198 1.05842
 H355 H 0.73214 0.09992 1.06070
 C356 C 0.75526 0.08138 1.07466
 H357 H 0.74757 0.08131 1.08932
 N358 N 0.75615 0.09283 1.04004
 C359 C 0.72678 0.10315 0.98235
 H360 H 0.72327 0.11919 0.98375
 C361 C 0.72002 0.09276 0.96572
 H362 H 0.71140 0.10091 0.95424
 C363 C 0.74243 0.07311 0.99564
 H364 H 0.75099 0.06551 1.00745
 C365 C 0.73618 0.06214 0.97905
 H366 H 0.73994 0.04609 0.97821
 Zn367 Zn 0.74558 0.10918 1.01871
 N368 N 0.73776 0.09328 0.99686
 C369 C 0.77326 0.12593 0.99031
 N370 N 0.76621 0.12684 1.00980
 C371 C 0.77471 0.13914 1.02339
 C372 C 0.79076 0.15145 1.01742
 C373 C 0.78940 0.13777 0.98378
 C374 C 0.70522 0.11296 1.03119
 C375 C 0.68714 0.12265 1.03722
 C376 C 0.70431 0.15455 1.03628
 C377 C 0.72201 0.14428 1.02999
 N378 N 0.72220 0.12381 1.02778
 H379 H 0.76664 0.11576 0.97984
 H380 H 0.76916 0.13918 1.03894
 H381 H 0.79748 0.16106 1.02842
 H382 H 0.79481 0.13686 0.96821
 H383 H 0.70571 0.09674 1.02898
 H384 H 0.67375 0.11370 1.03938
 H385 H 0.70466 0.17077 1.03841
 H386 H 0.73553 0.15271 1.02690
 C387 C 0.72473 0.07200 0.96392
 C388 C 0.77432 0.07182 1.07203
 C389 C 0.68649 0.14374 1.03994
 C390 C 0.79837 0.15069 0.99742
 C391 C 0.27465 0.58459 0.53981
 H392 H 0.28116 0.58354 0.52467
 C393 C 0.28367 0.57392 0.55592
 H394 H 0.29720 0.56478 0.55297
 C395 C 0.24993 0.59896 0.56210
 H396 H 0.23726 0.60927 0.56468
 C397 C 0.25830 0.58839 0.57857
 H398 H 0.25137 0.59021 0.59346
 N399 N 0.25809 0.59682 0.54313
 C400 C 0.23400 0.60696 0.48269
 H401 H 0.23350 0.62338 0.48277
 C402 C 0.22842 0.59685 0.46545
 H403 H 0.22344 0.60556 0.45229
 C404 C 0.24101 0.57572 0.49992
 H405 H 0.24590 0.56763 0.51344
 C406 C 0.23522 0.56492 0.48301
 H407 H 0.23582 0.54849 0.48350
 Zn408 Zn 0.24838 0.61263 0.52086
 N409 N 0.24052 0.59637 0.49930
 C410 C 0.27947 0.62519 0.49383
 N411 N 0.26993 0.62914 0.51184
 C412 C 0.27654 0.64376 0.52418
 C413 C 0.29316 0.65536 0.51833
 C414 C 0.29616 0.63631 0.48747
 C415 C 0.20947 0.61877 0.53733
 C416 C 0.19197 0.62955 0.54322
 C417 C 0.20636 0.65995 0.52864
 C418 C 0.22390 0.64868 0.52369
 N419 N 0.22525 0.62852 0.52836
 H420 H 0.27447 0.61309 0.48451
 H421 H 0.26897 0.64627 0.53865
 H422 H 0.29834 0.66683 0.52838
 H423 H 0.30344 0.63301 0.47300
 H424 H 0.21067 0.60259 0.54030
 H425 H 0.18025 0.62142 0.55136
 H426 H 0.20558 0.67583 0.52420
 H427 H 0.23627 0.65599 0.51573
 C428 C 0.22913 0.57558 0.46542
 C429 C 0.27559 0.57585 0.57569
 C430 C 0.19010 0.65052 0.53890
 C431 C 0.30326 0.65158 0.49979
 C432 C 0.75046 0.88017 0.49126
 H433 H 0.74682 0.88672 0.50581
 C434 C 0.75725 0.89263 0.47528
 H435 H 0.75875 0.90871 0.47768
 C436 C 0.75274 0.85138 0.47032
 H437 H 0.75108 0.83523 0.46862
 C438 C 0.75950 0.86327 0.45393
 H439 H 0.76325 0.85608 0.43967
 N440 N 0.74875 0.85988 0.48863
 C441 C 0.71233 0.85777 0.53909
 H442 H 0.70143 0.84947 0.53080
 C443 C 0.70595 0.86870 0.55606
 H444 H 0.69008 0.86893 0.56045
 C445 C 0.74613 0.86768 0.54334
 H446 H 0.76181 0.86701 0.53833
 C447 C 0.74042 0.87878 0.56044
 H448 H 0.75186 0.88651 0.56861
 Zn449 Zn 0.74083 0.84233 0.51029
 N450 N 0.73210 0.85757 0.53300
 C451 C 0.76183 0.81408 0.53539
 N452 N 0.76329 0.82577 0.51821
 C453 C 0.78121 0.82751 0.50789
 C454 C 0.79863 0.81760 0.51496
 C455 C 0.77896 0.80395 0.54308
 C456 C 0.70498 0.83735 0.49040
 C457 C 0.68851 0.82744 0.48280
 C458 C 0.70146 0.79603 0.49767
 C459 C 0.71794 0.80654 0.50476
 N460 N 0.71928 0.82686 0.50114
 H461 H 0.74750 0.81324 0.54355
 H462 H 0.78229 0.83724 0.49459
 H463 H 0.81285 0.81993 0.50693
 H464 H 0.77762 0.79506 0.55700
 H465 H 0.70641 0.85350 0.48778
 H466 H 0.67720 0.83608 0.47442
 H467 H 0.70047 0.77987 0.50068
 H468 H 0.72955 0.79848 0.51321
 C469 C 0.72007 0.87939 0.56702
 C470 C 0.76210 0.88414 0.45638
 C471 C 0.68658 0.80654 0.48645
 C472 C 0.79775 0.80595 0.53298
 C473 C 0.00119 0.26350 0.37478
 H474 H 0.01524 0.27150 0.37338
 C475 C -0.01538 0.27233 0.38506
 H476 H -0.01393 0.28718 0.39151
 C477 C -0.01806 0.23501 0.36688
 H478 H -0.01924 0.22068 0.35943
 C479 C -0.03496 0.24323 0.37707
 H480 H -0.04882 0.23484 0.37769
 N481 N -0.00044 0.24521 0.36588
 C482 C 0.05903 0.21650 0.35748
 H483 H 0.05798 0.21250 0.34172
 C484 C 0.07583 0.21010 0.36854
 H485 H 0.08780 0.20132 0.36112
 C486 C 0.04467 0.23292 0.38620
 H487 H 0.03238 0.24160 0.39308
 C488 C 0.06133 0.22697 0.39781
 H489 H 0.06170 0.23110 0.41360
 Zn490 Zn 0.02169 0.23525 0.34993
 N491 N 0.04392 0.22777 0.36636
 C492 C 0.04875 0.26159 0.32956
 N493 N 0.02908 0.25630 0.33152
 C494 C 0.01410 0.26761 0.32263
 C495 C 0.01855 0.28572 0.31228
 C496 C 0.05391 0.27938 0.31912
 C497 C 0.01156 0.19492 0.34804
 C498 C 0.00598 0.17685 0.33943
 C499 C 0.00614 0.19374 0.30654
 C500 C 0.01177 0.21159 0.31584
 N501 N 0.01416 0.21184 0.33626
 H502 H 0.06045 0.25252 0.33680
 H503 H -0.00146 0.26318 0.32464
 H504 H 0.00627 0.29515 0.30645
 H505 H 0.06964 0.28349 0.31812
 H506 H 0.01365 0.19558 0.36423
 H507 H 0.00350 0.16373 0.34921
 H508 H 0.00429 0.19372 0.29027
 H509 H 0.01414 0.22521 0.30678
 C510 C 0.07715 0.21536 0.38898
 C511 C -0.03385 0.26226 0.38611
 C512 C 0.00316 0.17607 0.31841
 C513 C 0.03864 0.29215 0.31101
 C514 C 1.03432 0.78078 0.08332
 H515 H 1.01947 0.78805 0.08287
 C516 C 1.05058 0.78948 0.07276
 H517 H 1.04807 0.80329 0.06390
 C518 C 1.05572 0.75425 0.09592
 H519 H 1.05783 0.74086 0.10541
 C520 C 1.07235 0.76238 0.08557
 H521 H 1.08708 0.75507 0.08727
 N522 N 1.03718 0.76356 0.09471
 C523 C 0.97882 0.73584 0.10605
 H524 H 0.97955 0.73433 0.12238
 C525 C 0.96213 0.72880 0.09605
 H526 H 0.94993 0.72222 0.10495
 C527 C 0.99376 0.74689 0.07491
 H528 H 1.00622 0.75382 0.06677
 C529 C 0.97735 0.73987 0.06423
 H530 H 0.97743 0.74138 0.04785
 Zn531 Zn 1.01552 0.75403 0.11116
 N532 N 0.99404 0.74496 0.09548
 C533 C 0.98638 0.78146 0.12800
 N534 N 1.00628 0.77571 0.12768
 C535 C 1.01999 0.78573 0.13857
 C536 C 1.01375 0.80192 0.15077
 C537 C 0.97946 0.79733 0.14017
 C538 C 1.02833 0.71388 0.11755
 C539 C 1.03451 0.69650 0.12841
 C540 C 1.03247 0.71582 0.15916
 C541 C 1.02613 0.73281 0.14772
 N542 N 1.02440 0.73158 0.12727
 H543 H 0.97576 0.77384 0.11881
 H544 H 1.03579 0.78109 0.13779
 H545 H 1.02477 0.80963 0.15954
 H546 H 0.96355 0.80164 0.14029
 H547 H 1.02666 0.71330 0.10129
 H548 H 1.03779 0.68259 0.12038
 H549 H 1.03376 0.71700 0.17543
 H550 H 1.02258 0.74690 0.15522
 C551 C 0.96118 0.73075 0.07484
 C552 C 1.06996 0.78037 0.07400
 C553 C 1.03672 0.69737 0.14948
 C554 C 0.99319 0.80770 0.15181
 C555 C 0.54731 0.26339 0.57180
 H556 H 0.53448 0.25882 0.56332
 C557 C 0.56395 0.27165 0.56146
 H558 H 0.56371 0.27337 0.54510
 C559 C 0.56365 0.26616 0.60318
 H560 H 0.56375 0.26355 0.61937
 C561 C 0.58062 0.27428 0.59346
 H562 H 0.59335 0.27840 0.60243
 N563 N 0.54734 0.26097 0.59236
 C564 C 0.50059 0.22055 0.58944
 H565 H 0.50865 0.21014 0.59940
 C566 C 0.48490 0.21339 0.57800
 H567 H 0.48094 0.19760 0.57965
 C568 C 0.49545 0.25375 0.57579
 H569 H 0.49949 0.26955 0.57521
 C570 C 0.47954 0.24722 0.56411
 H571 H 0.47159 0.25804 0.55439
 Zn572 Zn 0.52485 0.24980 0.60689
 N573 N 0.50525 0.24054 0.58859
 C574 C 0.49331 0.27619 0.62155
 N575 N 0.51285 0.26987 0.62420
 C576 C 0.52409 0.27789 0.63896
 C577 C 0.51616 0.29358 0.65092
 C578 C 0.48481 0.29187 0.63308
 C579 C 0.55211 0.21813 0.61866
 C580 C 0.55822 0.20059 0.62929
 C581 C 0.52682 0.20219 0.64863
 C582 C 0.52139 0.21986 0.63775
 N583 N 0.53394 0.22734 0.62298
 H584 H 0.48419 0.26927 0.61039
 H585 H 0.53924 0.27215 0.64156
 H586 H 0.52542 0.29976 0.66251
 H587 H 0.46948 0.29707 0.63011
 H588 H 0.56170 0.22408 0.60660
 H589 H 0.57282 0.19365 0.62566
 H590 H 0.51630 0.19614 0.65986
 H591 H 0.50689 0.22731 0.64067
 C592 C 0.47386 0.22684 0.56542
 C593 C 0.58091 0.27717 0.57234
 C594 C 0.54540 0.19217 0.64433
 C595 C 0.49635 0.30101 0.64782
 C596 C 0.49158 0.76774 0.87125
 H597 H 0.50590 0.77530 0.87062
 C598 C 0.47524 0.77631 0.88208
 H599 H 0.47712 0.79042 0.88986
 C600 C 0.47143 0.74069 0.86107
 H601 H 0.46985 0.72700 0.85261
 C602 C 0.45464 0.74888 0.87150
 H603 H 0.44039 0.74118 0.87125
 N604 N 0.48950 0.75010 0.86121
 C605 C 0.54990 0.72222 0.85517
 H606 H 0.54917 0.71677 0.83987
 C607 C 0.56678 0.71726 0.86679
 H608 H 0.57898 0.70815 0.86019
 C609 C 0.53426 0.73935 0.88276
 H610 H 0.52147 0.74759 0.88918
 C611 C 0.55086 0.73475 0.89493
 H612 H 0.55075 0.73998 0.91038
 Zn613 Zn 0.51194 0.73937 0.84593
 N614 N 0.53421 0.73342 0.86311
 C615 C 0.53773 0.75762 0.81602
 N616 N 0.51938 0.75898 0.82569
 C617 C 0.50680 0.77537 0.82261
 C618 C 0.51316 0.79191 0.81079
 C619 C 0.54470 0.77383 0.80406
 C620 C 0.50116 0.69923 0.84778
 C621 C 0.49427 0.68080 0.84110
 C622 C 0.49542 0.69419 0.80671
 C623 C 0.50222 0.71253 0.81410
 N624 N 0.50458 0.71475 0.83438
 H625 H 0.54740 0.74439 0.81826
 H626 H 0.49208 0.77606 0.82999
 H627 H 0.50336 0.80527 0.80964
 H628 H 0.55968 0.77279 0.79714
 H629 H 0.50334 0.70141 0.86379
 H630 H 0.49134 0.66872 0.85207
 H631 H 0.49301 0.69275 0.79062
 H632 H 0.50512 0.72512 0.80376
 C633 C 0.56749 0.72367 0.88693
 C634 C 0.45647 0.76688 0.88220
 C635 C 0.49097 0.67821 0.82038
 C636 C 0.53264 0.79158 0.80193
 C637 C 0.45421 -0.16335 0.34081
 C638 C 0.46994 -0.16134 0.35455
 C639 C 0.47725 -0.17810 0.36575
 C640 C 0.46915 -0.19745 0.36336
 C641 C 0.45344 -0.19937 0.34949
 C642 C 0.44607 -0.18259 0.33840
 C643 C 0.44604 -0.14539 0.32936
 C644 C 0.43999 -0.14713 0.30916
 C645 C 0.43172 -0.13039 0.29863
 C646 C 0.42943 -0.11151 0.30801
 C647 C 0.43573 -0.10966 0.32807
 C648 C 0.44387 -0.12643 0.33866
 C649 C 0.42002 -0.09391 0.29709
 C650 C 0.42817 -0.07451 0.29825
 C651 C 0.41893 -0.05785 0.28841
 C652 C 0.40125 -0.06020 0.27731
 C653 C 0.39320 -0.07967 0.27607
 C654 C 0.40253 -0.09633 0.28579
 H655 H 0.47671 -0.14676 0.35661
 H656 H 0.48906 -0.17545 0.37630
 H657 H 0.44668 -0.21395 0.34742
 H658 H 0.43368 -0.18465 0.32824
 H659 H 0.44178 -0.16141 0.30143
 H660 H 0.42723 -0.13217 0.28309
 H661 H 0.43387 -0.09536 0.33576
 H662 H 0.44802 -0.12463 0.35429
 H663 H 0.44180 -0.07227 0.30665
 H664 H 0.42571 -0.04314 0.28939
 H665 H 0.37940 -0.08198 0.26800
 H666 H 0.39575 -0.11106 0.28489
 C667 C 0.94434 0.34426 0.84101
 C668 C 0.96030 0.34630 0.85446
 C669 C 0.96765 0.32961 0.86574
 C670 C 0.95927 0.31031 0.86379
 C671 C 0.94334 0.30837 0.85019
 C672 C 0.93594 0.32507 0.83901
 C673 C 0.93631 0.36210 0.82928
 C674 C 0.93020 0.36007 0.80915
 C675 C 0.92218 0.37673 0.79831
 C676 C 0.92020 0.39582 0.80731
 C677 C 0.92655 0.39795 0.82732
 C678 C 0.93445 0.38127 0.83821
 C679 C 0.91111 0.41335 0.79601
 C680 C 0.91954 0.43265 0.79681
 C681 C 0.91068 0.44922 0.78645
 C682 C 0.89312 0.44686 0.77517
 C683 C 0.88475 0.42750 0.77437
 C684 C 0.89368 0.41094 0.78461
 H685 H 0.96730 0.36082 0.85614
 H686 H 0.97982 0.33224 0.87586
 H687 H 0.93647 0.29380 0.84834
 H688 H 0.92340 0.32300 0.82903
 H689 H 0.93177 0.34562 0.80169
 H690 H 0.91767 0.37472 0.78280
 H691 H 0.92493 0.41243 0.83473
 H692 H 0.93870 0.38330 0.85379
 H693 H 0.93312 0.43489 0.80530
 H694 H 0.91769 0.46384 0.78714
 H695 H 0.87101 0.42520 0.76618
 H696 H 0.88667 0.39630 0.78399
 C697 C 0.00564 1.20470 0.84253
 C698 C 0.01304 1.22416 0.83833
 C699 C 0.00414 1.24116 0.84759
 C700 C -0.01209 1.23893 0.86144
 C701 C -0.01949 1.21952 0.86563
 C702 C -0.01081 1.20255 0.85614
 C703 C 0.01526 1.18664 0.83298
 C704 C 0.00343 1.17193 0.82419
 C705 C 0.01258 1.15490 0.81519
 C706 C 0.03374 1.15209 0.81503
 C707 C 0.04550 1.16680 0.82405
 C708 C 0.03637 1.18394 0.83279
 C709 C 0.04358 1.13396 0.80551
 C710 C 0.06236 1.13552 0.79531
 C711 C 0.07195 1.11847 0.78689
 C712 C 0.06289 1.09940 0.78813
 C713 C 0.04394 1.09787 0.79805
 C714 C 0.03445 1.11492 0.80671
 H715 H 0.02564 1.22621 0.82779
 H716 H 0.01017 1.25600 0.84424
 H717 H -0.03214 1.21750 0.87601
 H718 H -0.01672 1.18770 0.85970
 H719 H -0.01288 1.17378 0.82399
 H720 H 0.00306 1.14410 0.80810
 H721 H 0.06178 1.16496 0.82465
 H722 H 0.04579 1.19493 0.83975
 H723 H 0.06971 1.14997 0.79376
 H724 H 0.08668 1.12024 0.77971
 H725 H 0.03638 1.08351 0.79910
 H726 H 0.02010 1.11307 0.81464
 C727 C 0.51322 0.69582 0.34287
 C728 C 0.51915 0.71535 0.33672
 C729 C 0.51071 0.73249 0.34607
 C730 C 0.49634 0.73044 0.36193
 C731 C 0.49052 0.71094 0.36817
 C732 C 0.49875 0.69378 0.35862
 C733 C 0.52220 0.67766 0.33293
 C734 C 0.50989 0.66200 0.32671
 C735 C 0.51838 0.64508 0.31695
 C736 C 0.53941 0.64334 0.31342
 C737 C 0.55169 0.65894 0.31997
 C738 C 0.54317 0.67595 0.32948
 C739 C 0.54852 0.62547 0.30282
 C740 C 0.56521 0.62779 0.28949
 C741 C 0.57409 0.61105 0.27984
 C742 C 0.56638 0.59153 0.28300
 C743 C 0.54952 0.58922 0.29613
 C744 C 0.54075 0.60597 0.30597
 H745 H 0.53019 0.71734 0.32453
 H746 H 0.51566 0.74736 0.34113
 H747 H 0.47941 0.70893 0.38021
 H748 H 0.49402 0.67889 0.36373
 H749 H 0.49364 0.66307 0.32901
 H750 H 0.50842 0.63354 0.31185
 H751 H 0.56797 0.65793 0.31794
 H752 H 0.55302 0.68768 0.33441
 H753 H 0.57141 0.64260 0.28641
 H754 H 0.58725 0.61342 0.27013
 H755 H 0.54302 0.57447 0.29876
 H756 H 0.52806 0.60355 0.31629
 C757 C 0.52005 0.33865 0.16550
 C758 C 0.51156 0.32364 0.17819
 C759 C 0.50535 0.30535 0.17020
 C760 C 0.50742 0.30173 0.14925
 C761 C 0.51545 0.31714 0.13660
 C762 C 0.52178 0.33526 0.14461
 C763 C 0.52748 0.35769 0.17393
 C764 C 0.54624 0.36516 0.16735
 C765 C 0.55325 0.38324 0.17487
 C766 C 0.54161 0.39442 0.18904
 C767 C 0.52290 0.38683 0.19579
 C768 C 0.51594 0.36860 0.18835
 C769 C 0.54919 0.41381 0.19672
 C770 C 0.54637 0.41901 0.21720
 C771 C 0.55481 0.43659 0.22459
 C772 C 0.56634 0.44919 0.21168
 C773 C 0.56857 0.44438 0.19111
 C774 C 0.56000 0.42697 0.18370
 H775 H 0.51009 0.32588 0.19438
 H776 H 0.49899 0.29435 0.18065
 H777 H 0.51696 0.31504 0.12039
 H778 H 0.52796 0.34672 0.13441
 H779 H 0.55561 0.35686 0.15653
 H780 H 0.56796 0.38833 0.16974
 H781 H 0.51348 0.39515 0.20654
 H782 H 0.50135 0.36323 0.19355
 H783 H 0.53828 0.40914 0.22768
 H784 H 0.55300 0.43992 0.24055
 H785 H 0.57712 0.45403 0.18079
 H786 H 0.56201 0.42373 0.16774
 C787 C 0.02485 0.84013 0.68154
 C788 C 0.03023 0.83627 0.66131
 C789 C 0.02431 0.81859 0.65220
 C790 C 0.01305 0.80382 0.66305
 C791 C 0.00687 0.80830 0.68320
 C792 C 0.01280 0.82619 0.69230
 C793 C 0.03211 0.85867 0.69114
 C794 C 0.01909 0.87097 0.70305
 C795 C 0.02584 0.88923 0.71068
 C796 C 0.04571 0.89547 0.70654
 C797 C 0.05886 0.88273 0.69528
 C798 C 0.05214 0.86459 0.68767
 C799 C 0.05282 0.91531 0.71345
 C800 C 0.06507 0.92718 0.70050
 C801 C 0.07310 0.94513 0.70722
 C802 C 0.06905 0.95172 0.72704
 C803 C 0.05612 0.94033 0.73977
 C804 C 0.04808 0.92226 0.73303
 H805 H 0.03899 0.84703 0.65242
 H806 H 0.02876 0.81630 0.63648
 H807 H -0.00262 0.79837 0.69217
 H808 H 0.00823 0.82897 0.70788
 H809 H 0.00355 0.86680 0.70587
 H810 H 0.01536 0.89877 0.71927
 H811 H 0.07440 0.88684 0.69230
 H812 H 0.06264 0.85520 0.67894
 H813 H 0.06857 0.92251 0.68515
 H814 H 0.08264 0.95384 0.69691
 H815 H 0.05283 0.94500 0.75516
 H816 H 0.03874 0.91338 0.74337
 C817 C 0.96517 0.69913 0.67664
 C818 C 0.96254 0.71783 0.68622
 C819 C 0.97232 0.73502 0.67859
 C820 C 0.98457 0.73406 0.66083
 C821 C 0.98731 0.71506 0.65151
 C822 C 0.97785 0.69784 0.65941
 C823 C 0.95428 0.68107 0.68422
 C824 C 0.96461 0.66241 0.68710
 C825 C 0.95416 0.64520 0.69354
 C826 C 0.93307 0.64619 0.69690
 C827 C 0.92282 0.66499 0.69406
 C828 C 0.93334 0.68226 0.68795
 C829 C 0.92174 0.62769 0.70296
 C830 C 0.90457 0.62908 0.71587
 C831 C 0.89344 0.61189 0.72085
 C832 C 0.89942 0.59285 0.71334
 C833 C 0.91678 0.59127 0.70083
 C834 C 0.92773 0.60852 0.69555
 H835 H 0.95286 0.71915 0.69960
 H836 H 0.96940 0.74922 0.68619
 H837 H 0.99728 0.71305 0.63848
 H838 H 0.98017 0.68353 0.65182
 H839 H 0.98082 0.66120 0.68448
 H840 H 0.96266 0.63114 0.69597
 H841 H 0.90656 0.66632 0.69606
 H842 H 0.92502 0.69645 0.68556
 H843 H 0.89974 0.64344 0.72226
 H844 H 0.88023 0.61341 0.73074
 H845 H 0.92156 0.57675 0.69471
 H846 H 0.94062 0.60686 0.68528
 C847 C 0.46310 0.19437 0.17166
 C848 C 0.45839 0.19995 0.15164
 C849 C 0.46690 0.21697 0.14235
 C850 C 0.48024 0.22903 0.15287
 C851 C 0.48530 0.22319 0.17282
 C852 C 0.47686 0.20598 0.18210
 C853 C 0.45330 0.17663 0.18149
 C854 C 0.46460 0.16211 0.19265
 C855 C 0.45534 0.14482 0.20084
 C856 C 0.43459 0.14190 0.19819
 C857 C 0.42327 0.15668 0.18739
 C858 C 0.43252 0.17382 0.17913
 C859 C 0.42470 0.12329 0.20603
 C860 C 0.40525 0.12454 0.21496
 C861 C 0.39512 0.10697 0.22076
 C862 C 0.40418 0.08772 0.21773
 C863 C 0.42392 0.08647 0.20944
 C864 C 0.43408 0.10409 0.20366
 H865 H 0.44809 0.19108 0.14311
 H866 H 0.46255 0.22075 0.12702
 H867 H 0.49586 0.23180 0.18127
 H868 H 0.48077 0.20197 0.19756
 H869 H 0.48067 0.16387 0.19460
 H870 H 0.46439 0.13374 0.20922
 H871 H 0.40731 0.15476 0.18490
 H872 H 0.42341 0.18489 0.17078
 H873 H 0.39779 0.13914 0.21733
 H874 H 0.38013 0.10845 0.22755
 H875 H 0.43124 0.07186 0.20678
 H876 H 0.44898 0.10267 0.19663
 C877 C 0.33572 0.44398 -0.16201
 C878 C 0.35557 0.43690 -0.16603
 C879 C 0.36638 0.44399 -0.18303
 C880 C 0.35749 0.45801 -0.19680
 C881 C 0.33788 0.46569 -0.19224
 C882 C 0.32706 0.45859 -0.17521
 C883 C 0.32419 0.43619 -0.14404
 C884 C 0.31195 0.44931 -0.13222
 C885 C 0.30112 0.44187 -0.11534
 C886 C 0.30226 0.42114 -0.10994
 C887 C 0.31456 0.40806 -0.12173
 C888 C 0.32539 0.41549 -0.13858
 C889 C 0.29059 0.41308 -0.09220
 C890 C 0.28106 0.39435 -0.09326
 C891 C 0.27044 0.38645 -0.07650
 C892 C 0.26904 0.39711 -0.05827
 C893 C 0.27843 0.41593 -0.05722
 C894 C 0.28906 0.42385 -0.07402
 H895 H 0.36292 0.42614 -0.15577
 H896 H 0.38186 0.43864 -0.18517
 H897 H 0.33087 0.47741 -0.20162
 H898 H 0.31183 0.46447 -0.17245
 H899 H 0.31090 0.46538 -0.13591
 H900 H 0.29164 0.45230 -0.10665
 H901 H 0.31596 0.39205 -0.11783
 H902 H 0.33452 0.40496 -0.14748
 H903 H 0.28173 0.38579 -0.10711
 H904 H 0.26364 0.37178 -0.07774
 H905 H 0.27749 0.42457 -0.04343
 H906 H 0.29639 0.43825 -0.07268
 C907 C 0.83269 0.95615 0.33981
 C908 C 0.82721 0.95217 0.31985
 C909 C 0.83857 0.95969 0.30339
 C910 C 0.85560 0.97160 0.30638
 C911 C 0.86105 0.97548 0.32645
 C912 C 0.84963 0.96803 0.34289
 C913 C 0.82138 0.94717 0.35735
 C914 C 0.83180 0.93937 0.37427
 C915 C 0.82134 0.93038 0.39055
 C916 C 0.80021 0.92889 0.39029
 C917 C 0.78973 0.93678 0.37345
 C918 C 0.80020 0.94585 0.35716
 C919 C 0.78933 0.91857 0.40731
 C920 C 0.77406 0.90480 0.40349
 C921 C 0.76487 0.89395 0.41945
 C922 C 0.77069 0.89672 0.43956
 C923 C 0.78552 0.91094 0.44342
 C924 C 0.79476 0.92172 0.42746
 H925 H 0.81451 0.94269 0.31695
 H926 H 0.83430 0.95580 0.28822
 H927 H 0.87443 0.98369 0.32980
 H928 H 0.85422 0.97141 0.35809
 H929 H 0.84814 0.93975 0.37472
 H930 H 0.82987 0.92410 0.40315
 H931 H 0.77341 0.93603 0.37294
 H932 H 0.79171 0.95195 0.34446
 H933 H 0.76966 0.90196 0.38811
 H934 H 0.75333 0.88325 0.41605
 H935 H 0.79045 0.91327 0.45873
 H936 H 0.80632 0.93240 0.43087
 C937 C 0.84075 0.01371 1.19757
 C938 C 0.82976 0.00135 1.21120
 C939 C 0.83838 -0.00582 1.22921
 C940 C 0.85818 -0.00071 1.23414
 C941 C 0.86919 0.01157 1.22043
 C942 C 0.86059 0.01868 1.20237
 C943 C 0.83150 0.02151 1.17850
 C944 C 0.83507 0.04138 1.17140
 C945 C 0.82619 0.04883 1.15362
 C946 C 0.81345 0.03662 1.14258
 C947 C 0.80989 0.01675 1.14961
 C948 C 0.81886 0.00925 1.16734
 C949 C 0.80365 0.04478 1.12400
 C950 C 0.78313 0.04134 1.12060
 C951 C 0.77367 0.04985 1.10357
 C952 C 0.78457 0.06182 1.08950
 C953 C 0.80519 0.06488 1.09268
 C954 C 0.81462 0.05650 1.10977
 H955 H 0.81437 -0.00262 1.20807
 H956 H 0.82953 -0.01559 1.23912
 H957 H 0.88440 0.01597 1.22359
 H958 H 0.86958 0.02795 1.19208
 H959 H 0.84442 0.05134 1.17981
 H960 H 0.82894 0.06432 1.14874
 H961 H 0.80034 0.00693 1.14126
 H962 H 0.81607 -0.00623 1.17219
 H963 H 0.77427 0.03250 1.13139
 H964 H 0.75779 0.04711 1.10142
 H965 H 0.81393 0.07422 1.08221
 H966 H 0.83050 0.05922 1.11190
 C967 C 0.34312 0.50812 0.69684
 C968 C 0.36116 0.51545 0.70448
 C969 C 0.36952 0.50694 0.72209
 C970 C 0.36018 0.49070 0.73238
 C971 C 0.34234 0.48311 0.72456
 C972 C 0.33386 0.49178 0.70707
 C973 C 0.33376 0.51777 0.67856
 C974 C 0.32364 0.50607 0.66454
 C975 C 0.31435 0.51528 0.64774
 C976 C 0.31508 0.53639 0.64442
 C977 C 0.32548 0.54802 0.65827
 C978 C 0.33457 0.53886 0.67516
 C979 C 0.30484 0.54633 0.62678
 C980 C 0.29541 0.56557 0.62867
 C981 C 0.28600 0.57508 0.61214
 C982 C 0.28551 0.56551 0.59330
 C983 C 0.29478 0.54618 0.59143
 C984 C 0.30440 0.53674 0.60794
 H985 H 0.36890 0.52781 0.69686
 H986 H 0.38307 0.51343 0.72781
 H987 H 0.33488 0.47042 0.73188
 H988 H 0.31983 0.48588 0.70181
 H989 H 0.32295 0.48976 0.66649
 H990 H 0.30630 0.50585 0.63753
 H991 H 0.32668 0.56426 0.65604
 H992 H 0.34197 0.54841 0.68575
 H993 H 0.29514 0.57329 0.64300
 H994 H 0.27935 0.59010 0.61411
 H995 H 0.29452 0.53825 0.57724
 H996 H 0.31170 0.52203 0.60584
 C997 C 0.17110 0.52050 0.33869
 C998 C 0.15358 0.50905 0.34085
 C999 C 0.14259 0.50404 0.32389
 C1000 C 0.14907 0.51005 0.30420
 C1001 C 0.16676 0.52142 0.30217
 C1002 C 0.17763 0.52657 0.31916
 C1003 C 0.18182 0.52705 0.35686
 C1004 C 0.18784 0.54721 0.35829
 C1005 C 0.19689 0.55381 0.37582
 C1006 C 0.20034 0.54034 0.39229
 C1007 C 0.19461 0.52005 0.39070
 C1008 C 0.18538 0.51349 0.37319
 C1009 C 0.20921 0.54777 0.41122
 C1010 C 0.20215 0.54093 0.43039
 C1011 C 0.20924 0.54935 0.44813
 C1012 C 0.22335 0.56489 0.44700
 C1013 C 0.23098 0.57117 0.42793
 C1014 C 0.22409 0.56263 0.41026
 H1015 H 0.14795 0.50458 0.35578
 H1016 H 0.12876 0.49603 0.32660
 H1017 H 0.17199 0.52663 0.28733
 H1018 H 0.19112 0.53541 0.31704
 H1019 H 0.18495 0.55808 0.34609
 H1020 H 0.20067 0.56965 0.37666
 H1021 H 0.19730 0.50921 0.40297
 H1022 H 0.18106 0.49780 0.37238
 H1023 H 0.19054 0.52968 0.43170
 H1024 H 0.20305 0.54436 0.46267
 H1025 H 0.24211 0.58292 0.42671
 H1026 H 0.23025 0.56788 0.39580
 C1027 C 0.67407 0.01494 0.83503
 C1028 C 0.65360 0.01940 0.83133
 C1029 C 0.64532 0.01511 0.81270
 C1030 C 0.65722 0.00637 0.79705
 C1031 C 0.67779 0.00190 0.80079
 C1032 C 0.68607 0.00615 0.81955
 C1033 C 0.68279 0.01998 0.85484
 C1034 C 0.70215 0.02820 0.85577
 C1035 C 0.70954 0.03459 0.87424
 C1036 C 0.69767 0.03299 0.89209
 C1037 C 0.67867 0.02409 0.89129
 C1038 C 0.67134 0.01757 0.87290
 C1039 C 0.70446 0.04183 0.91118
 C1040 C 0.69105 0.05408 0.92266
 C1041 C 0.69759 0.06357 0.93996
 C1042 C 0.71763 0.06087 0.94627
 C1043 C 0.73094 0.04817 0.93515
 C1044 C 0.72445 0.03885 0.91764
 H1045 H 0.64399 0.02655 0.84275
 H1046 H 0.62946 0.01875 0.81041
 H1047 H 0.68771 -0.00489 0.78953
 H1048 H 0.70186 0.00235 0.82201
 H1049 H 0.71125 0.03046 0.84212
 H1050 H 0.72417 0.04158 0.87441
 H1051 H 0.66936 0.02239 0.90490
 H1052 H 0.65658 0.01086 0.87279
 H1053 H 0.67562 0.05680 0.91791
 H1054 H 0.68700 0.07316 0.94838
 H1055 H 0.74649 0.04595 0.93967
 H1056 H 0.73504 0.02939 0.90910
 C1057 C 0.67327 0.95782 0.69035
 C1058 C 0.68024 0.95269 0.70982
 C1059 C 0.67264 0.96289 0.72682
 C1060 C 0.65791 0.97850 0.72473
 C1061 C 0.65115 0.98385 0.70526
 C1062 C 0.65873 0.97363 0.68825
 C1063 C 0.68080 0.94645 0.67236
 C1064 C 0.68462 0.95656 0.65375
 C1065 C 0.69131 0.94575 0.63677
 C1066 C 0.69434 0.92458 0.63799
 C1067 C 0.69068 0.91450 0.65665
 C1068 C 0.68397 0.92530 0.67361
 C1069 C 0.70106 0.91300 0.61985
 C1070 C 0.69283 0.89405 0.61600
 C1071 C 0.69904 0.88315 0.59892
 C1072 C 0.71361 0.89095 0.58525
 C1073 C 0.72188 0.90989 0.58912
 C1074 C 0.71567 0.92079 0.60622
 H1075 H 0.69161 0.94076 0.71193
 H1076 H 0.67798 0.95822 0.74164
 H1077 H 0.64002 0.99599 0.70311
 H1078 H 0.65290 0.97783 0.67349
 H1079 H 0.68253 0.97287 0.65234
 H1080 H 0.69380 0.95395 0.62257
 H1081 H 0.69310 0.89824 0.65817
 H1082 H 0.68094 0.91701 0.68765
 H1083 H 0.68137 0.88773 0.62606
 H1084 H 0.69255 0.86851 0.59653
 H1085 H 0.73298 0.91642 0.57878
 H1086 H 0.72247 0.93524 0.60887
 C1087 C 0.16386 0.46637 0.19663
 C1088 C 0.15067 0.48337 0.19523
 C1089 C 0.14307 0.49266 0.21276
 C1090 C 0.14866 0.48527 0.23201
 C1091 C 0.16222 0.46857 0.23342
 C1092 C 0.16967 0.45916 0.21590
 C1093 C 0.17101 0.45581 0.17807
 C1094 C 0.17096 0.43454 0.17738
 C1095 C 0.17721 0.42452 0.15979
 C1096 C 0.18381 0.43553 0.14250
 C1097 C 0.18394 0.45684 0.14324
 C1098 C 0.17754 0.46687 0.16082
 C1099 C 0.19041 0.42476 0.12379
 C1100 C 0.18575 0.43279 0.10446
 C1101 C 0.19154 0.42232 0.08694
 C1102 C 0.20196 0.40353 0.08839
 C1103 C 0.20681 0.39561 0.10766
 C1104 C 0.20119 0.40613 0.12514
 H1105 H 0.14583 0.48916 0.18058
 H1106 H 0.13280 0.50563 0.21124
 H1107 H 0.16661 0.46244 0.24808
 H1108 H 0.17994 0.44618 0.21741
 H1109 H 0.16567 0.42566 0.19034
 H1110 H 0.17650 0.40814 0.15964
 H1111 H 0.18923 0.46577 0.13033
 H1112 H 0.17791 0.48328 0.16101
 H1113 H 0.17722 0.44695 0.10286
 H1114 H 0.18746 0.42868 0.07228
 H1115 H 0.21515 0.38133 0.10921
 H1116 H 0.20543 0.39971 0.13973
 C1117 C -0.15655 0.33460 0.44698
 C1118 C -0.17568 0.33350 0.43832
 C1119 C -0.19202 0.34511 0.44586
 C1120 C -0.18966 0.35840 0.46205
 C1121 C -0.17057 0.35889 0.47112
 C1122 C -0.15425 0.34720 0.46362
 C1123 C -0.13895 0.32301 0.43842
 C1124 C -0.12483 0.31328 0.45121
 C1125 C -0.10795 0.30288 0.44307
 C1126 C -0.10480 0.30202 0.42195
 C1127 C -0.11900 0.31168 0.40918
 C1128 C -0.13588 0.32202 0.41732
 C1129 C -0.08670 0.29130 0.41321
 C1130 C -0.08824 0.27983 0.39562
 C1131 C -0.07114 0.27029 0.38698
 C1132 C -0.05208 0.27192 0.39576
 C1133 C -0.05057 0.28319 0.41350
 C1134 C -0.06769 0.29277 0.42214
 H1135 H -0.17803 0.32360 0.42573
 H1136 H -0.20659 0.34390 0.43884
 H1137 H -0.16784 0.36811 0.48403
 H1138 H -0.13968 0.34836 0.47062
 H1139 H -0.12693 0.31357 0.46753
 H1140 H -0.09746 0.29534 0.45331
 H1141 H -0.11683 0.31162 0.39286
 H1142 H -0.14631 0.32965 0.40708
 H1143 H -0.10269 0.27820 0.38851
 H1144 H -0.07281 0.26197 0.37316
 H1145 H -0.03615 0.28457 0.42074
 H1146 H -0.06596 0.30166 0.43558
 C1147 C 0.33618 0.83537 0.95175
 C1148 C 0.31911 0.82490 0.95879
 C1149 C 0.30232 0.83534 0.96706
 C1150 C 0.30229 0.85667 0.96915
 C1151 C 0.31941 0.86704 0.96157
 C1152 C 0.33604 0.85659 0.95313
 C1153 C 0.35387 0.82435 0.94248
 C1154 C 0.37364 0.83087 0.94550
 C1155 C 0.39021 0.82105 0.93616
 C1156 C 0.38749 0.80431 0.92372
 C1157 C 0.36775 0.79754 0.92102
 C1158 C 0.35115 0.80749 0.93020
 C1159 C 0.40510 0.79425 0.91329
 C1160 C 0.40335 0.78692 0.89354
 C1161 C 0.41996 0.77782 0.88357
 C1162 C 0.43876 0.77605 0.89302
 C1163 C 0.44058 0.78332 0.91274
 C1164 C 0.42390 0.79221 0.92282
 H1165 H 0.31867 0.80854 0.95790
 H1166 H 0.28938 0.82644 0.97130
 H1167 H 0.31982 0.88345 0.96196
 H1168 H 0.34864 0.86525 0.94726
 H1169 H 0.37634 0.84360 0.95510
 H1170 H 0.40514 0.82686 0.93840
 H1171 H 0.36510 0.78452 0.91181
 H1172 H 0.33615 0.80219 0.92732
 H1173 H 0.38925 0.78858 0.88557
 H1174 H 0.41824 0.77258 0.86826
 H1175 H 0.45486 0.78191 0.92044
 H1176 H 0.42572 0.79733 0.93815
 C1177 C 1.19785 0.84379 0.01906
 C1178 C 1.20083 0.86473 0.01999
 C1179 C 1.21862 0.87322 0.01224
 C1180 C 1.23413 0.86101 0.00326
 C1181 C 1.23094 0.83988 0.00263
 C1182 C 1.21316 0.83148 0.01039
 C1183 C 1.17874 0.83482 0.02681
 C1184 C 1.17909 0.81613 0.03745
 C1185 C 1.16111 0.80745 0.04439
 C1186 C 1.14235 0.81725 0.04083
 C1187 C 1.14200 0.83600 0.03028
 C1188 C 1.16000 0.84468 0.02334
 C1189 C 1.12329 0.80797 0.04829
 C1190 C 1.10769 0.81999 0.05702
 C1191 C 1.09016 0.81110 0.06490
 C1192 C 1.08784 0.78999 0.06422
 C1193 C 1.10323 0.77804 0.05504
 C1194 C 1.12074 0.78692 0.04716
 H1195 H 1.18943 0.87459 0.02692
 H1196 H 1.21986 0.88935 0.01382
 H1197 H 1.24166 0.82958 -0.00461
 H1198 H 1.21116 0.81531 0.00907
 H1199 H 1.19330 0.80831 0.04065
 H1200 H 1.16192 0.79319 0.05281
 H1201 H 1.12778 0.84380 0.02709
 H1202 H 1.15921 0.85894 0.01492
 H1203 H 1.10930 0.83621 0.05833
 H1204 H 1.07872 0.82068 0.07214
 H1205 H 1.10174 0.76177 0.05399
 H1206 H 1.13231 0.77730 0.04017
 C1207 C 0.70473 0.34117 0.50874
 C1208 C 0.72406 0.33389 0.51428
 C1209 C 0.74145 0.34297 0.50634
 C1210 C 0.73992 0.35961 0.49277
 C1211 C 0.72065 0.36698 0.48729
 C1212 C 0.70325 0.35783 0.49514
 C1213 C 0.68623 0.33143 0.51712
 C1214 C 0.66898 0.34324 0.52245
 C1215 C 0.65169 0.33410 0.53058
 C1216 C 0.65128 0.31296 0.53368
 C1217 C 0.66844 0.30113 0.52822
 C1218 C 0.68569 0.31025 0.51999
 C1219 C 0.63321 0.30334 0.54302
 C1220 C 0.63543 0.28813 0.55810
 C1221 C 0.61847 0.27951 0.56744
 C1222 C 0.59888 0.28582 0.56183
 C1223 C 0.59663 0.30078 0.54649
 C1224 C 0.61362 0.30951 0.53724
 H1225 H 0.72575 0.32133 0.52500
 H1226 H 0.75611 0.33716 0.51106
 H1227 H 0.71900 0.37954 0.47657
 H1228 H 0.68863 0.36361 0.49028
 H1229 H 0.66898 0.35960 0.52074
 H1230 H 0.63880 0.34362 0.53492
 H1231 H 0.66845 0.28478 0.53017
 H1232 H 0.69855 0.30067 0.51570
 H1233 H 0.65032 0.28318 0.56299
 H1234 H 0.62066 0.26787 0.57906
 H1235 H 0.58171 0.30602 0.54195
 H1236 H 0.61146 0.32107 0.52553
 C1237 C 0.34487 0.16759 0.51751
 C1238 C 0.32646 0.17874 0.51760
 C1239 C 0.30835 0.16936 0.51321
 C1240 C 0.30824 0.14868 0.50827
 C1241 C 0.32669 0.13754 0.50860
 C1242 C 0.34474 0.14691 0.51283
 C1243 C 0.36406 0.17715 0.52304
 C1244 C 0.37830 0.16626 0.53479
 C1245 C 0.39644 0.17497 0.53990
 C1246 C 0.40080 0.19486 0.53351
 C1247 C 0.38653 0.20591 0.52194
 C1248 C 0.36836 0.19712 0.51671
 C1249 C 0.42000 0.20403 0.53946
 C1250 C 0.42015 0.22388 0.54681
 C1251 C 0.43787 0.23164 0.55446
 C1252 C 0.45581 0.21972 0.55486
 C1253 C 0.45586 0.20026 0.54655
 C1254 C 0.43816 0.19250 0.53897
 H1255 H 0.32595 0.19457 0.52167
 H1256 H 0.29441 0.17826 0.51422
 H1257 H 0.32723 0.12140 0.50591
 H1258 H 0.35863 0.13786 0.51254
 H1259 H 0.37528 0.15105 0.54036
 H1260 H 0.40693 0.16625 0.54922
 H1261 H 0.38955 0.22124 0.51673
 H1262 H 0.35781 0.20585 0.50747
 H1263 H 0.40634 0.23306 0.54750
 H1264 H 0.43727 0.24660 0.56095
 H1265 H 0.46953 0.19086 0.54626
 H1266 H 0.43859 0.17730 0.53301
 C1267 C 0.83448 0.68085 0.01219
 C1268 C 0.83659 0.66469 -0.00125
 C1269 C 0.81971 0.65412 -0.00710
 C1270 C 0.80014 0.65973 0.00004
 C1271 C 0.79811 0.67642 0.01300
 C1272 C 0.81504 0.68681 0.01904
 C1273 C 0.85265 0.69019 0.02039
 C1274 C 0.85417 0.69275 0.04138
 C1275 C 0.87195 0.69975 0.04949
 C1276 C 0.88851 0.70455 0.03676
 C1277 C 0.88679 0.70266 0.01570
 C1278 C 0.86906 0.69537 0.00759
 C1279 C 0.90768 0.71081 0.04565
 C1280 C 0.91783 0.72790 0.03807
 C1281 C 0.93541 0.73423 0.04727
 C1282 C 0.94328 0.72343 0.06410
 C1283 C 0.93343 0.70591 0.07114
 C1284 C 0.91578 0.69977 0.06212
 H1285 H 0.85147 0.65954 -0.00644
 H1286 H 0.82245 0.64108 -0.01646
 H1287 H 0.78337 0.68097 0.01906
 H1288 H 0.81299 0.69926 0.02940
 H1289 H 0.84184 0.68866 0.05161
 H1290 H 0.87285 0.70127 0.06577
 H1291 H 0.89939 0.70621 0.00560
 H1292 H 0.86822 0.69359 -0.00866
 H1293 H 0.91181 0.73670 0.02541
 H1294 H 0.94247 0.74790 0.04159
 H1295 H 0.93934 0.69691 0.08369
 H1296 H 0.90845 0.68630 0.06798
 C1297 C 0.68998 0.67614 0.96486
 C1298 C 0.70485 0.68833 0.97284
 C1299 C 0.72270 0.67958 0.98051
 C1300 C 0.72627 0.65838 0.98018
 C1301 C 0.71093 0.64630 0.97276
 C1302 C 0.69315 0.65503 0.96514
 C1303 C 0.67149 0.68527 0.95561
 C1304 C 0.65272 0.67598 0.95837
 C1305 C 0.63569 0.68348 0.94822
 C1306 C 0.63701 0.70048 0.93509
 C1307 C 0.65563 0.71018 0.93284
 C1308 C 0.67268 0.70267 0.94299
 C1309 C 0.61926 0.70743 0.92311
 C1310 C 0.62173 0.71347 0.90266
 C1311 C 0.60498 0.71895 0.89102
 C1312 C 0.58533 0.71852 0.89954
 C1313 C 0.58287 0.71281 0.92009
 C1314 C 0.59964 0.70733 0.93173
 H1315 H 0.70265 0.70465 0.97324
 H1316 H 0.73354 0.68958 0.98675
 H1317 H 0.71246 0.63005 0.97231
 H1318 H 0.68209 0.64519 0.95892
 H1319 H 0.65125 0.66272 0.96820
 H1320 H 0.62163 0.67554 0.95017
 H1321 H 0.65707 0.72347 0.92305
 H1322 H 0.68695 0.71008 0.94043
 H1323 H 0.63661 0.71348 0.89548
 H1324 H 0.60742 0.72354 0.87532
 H1325 H 0.56794 0.71214 0.92707
 H1326 H 0.59724 0.70296 0.94750
 C1327 C 0.20102 0.16637 0.46433
 C1328 C 0.20587 0.14558 0.46313
 C1329 C 0.22267 0.13728 0.47300
 C1330 C 0.23522 0.14958 0.48417
 C1331 C 0.23024 0.17039 0.48559
 C1332 C 0.21323 0.17869 0.47585
 C1333 C 0.18336 0.17499 0.45335
 C1334 C 0.16944 0.18833 0.46289
 C1335 C 0.15215 0.19535 0.45277
 C1336 C 0.14852 0.18926 0.43287
 C1337 C 0.16283 0.17641 0.42319
 C1338 C 0.17998 0.16930 0.43333
 C1339 C 0.12980 0.19591 0.42225
 C1340 C 0.11995 0.18242 0.40976
 C1341 C 0.10278 0.18870 0.39917
 C1342 C 0.09493 0.20859 0.40091
 C1343 C 0.10442 0.22199 0.41376
 C1344 C 0.12173 0.21574 0.42428
 H1345 H 0.19656 0.13568 0.45459
 H1346 H 0.22593 0.12124 0.47141
 H1347 H 0.23940 0.18025 0.49433
 H1348 H 0.20982 0.19479 0.47700
 H1349 H 0.17163 0.19282 0.47837
 H1350 H 0.14135 0.20509 0.46072
 H1351 H 0.16080 0.17184 0.40770
 H1352 H 0.19067 0.15933 0.42549
 H1353 H 0.12546 0.16690 0.40824
 H1354 H 0.09555 0.17794 0.38968
 H1355 H 0.09878 0.23747 0.41524
 H1356 H 0.12906 0.22657 0.43361
 C1357 C 0.59810 0.06622 0.71797
 C1358 C 0.61469 0.06936 0.73030
 C1359 C 0.62414 0.05319 0.74059
 C1360 C 0.61747 0.03314 0.73881
 C1361 C 0.60113 0.02996 0.72591
 C1362 C 0.59153 0.04630 0.71573
 C1363 C 0.58791 0.08381 0.70754
 C1364 C 0.58091 0.08229 0.68767
 C1365 C 0.57253 0.09929 0.67756
 C1366 C 0.57106 0.11823 0.68703
 C1367 C 0.57760 0.11957 0.70708
 C1368 C 0.58580 0.10258 0.71723
 C1369 C 0.56352 0.13671 0.67588
 C1370 C 0.55219 0.15193 0.68599
 C1371 C 0.54624 0.16984 0.67578
 C1372 C 0.55130 0.17293 0.65516
 C1373 C 0.56219 0.15748 0.64494
 C1374 C 0.56831 0.13968 0.65518
 H1375 H 0.62066 0.08438 0.73181
 H1376 H 0.63720 0.05660 0.74936
 H1377 H 0.59491 0.01510 0.72428
 H1378 H 0.57863 0.04336 0.70650
 H1379 H 0.58239 0.06811 0.67972
 H1380 H 0.56733 0.09761 0.66224
 H1381 H 0.57694 0.13390 0.71482
 H1382 H 0.59065 0.10422 0.73267
 H1383 H 0.54796 0.15006 0.70184
 H1384 H 0.53800 0.18143 0.68420
 H1385 H 0.56602 0.15912 0.62896
 H1386 H 0.57720 0.12843 0.64694
 C1387 C 1.09007 0.57391 0.22636
 C1388 C 1.08188 0.55451 0.22536
 C1389 C 1.09074 0.53803 0.23591
 C1390 C 1.10805 0.54060 0.24749
 C1391 C 1.11640 0.55999 0.24811
 C1392 C 1.10745 0.57645 0.23778
 C1393 C 1.08068 0.59156 0.21554
 C1394 C 1.07794 0.61017 0.22532
 C1395 C 1.06999 0.62713 0.21494
 C1396 C 1.06477 0.62594 0.19445
 C1397 C 1.06723 0.60718 0.18476
 C1398 C 1.07501 0.59014 0.19524
 C1399 C 1.05725 0.64430 0.18314
 C1400 C 1.04227 0.64284 0.16845
 C1401 C 1.03557 0.66007 0.15757
 C1402 C 1.04356 0.67915 0.16125
 C1403 C 1.05836 0.68068 0.17604
 C1404 C 1.06521 0.66345 0.18678
 H1405 H 1.06840 0.55220 0.21675
 H1406 H 1.08373 0.52341 0.23530
 H1407 H 1.13004 0.56248 0.25639
 H1408 H 1.11429 0.59116 0.23848
 H1409 H 1.08191 0.61158 0.24107
 H1410 H 1.06788 0.64119 0.22301
 H1411 H 1.06365 0.60576 0.16892
 H1412 H 1.07716 0.57600 0.18730
 H1413 H 1.03556 0.62842 0.16550
 H1414 H 1.02395 0.65851 0.14642
 H1415 H 1.06499 0.69516 0.17897
 H1416 H 1.07704 0.66509 0.19767
 C1417 C 0.92859 0.92108 0.23191
 C1418 C 0.91199 0.91556 0.24422
 C1419 C 0.90011 0.93025 0.25409
 C1420 C 0.90426 0.95108 0.25183
 C1421 C 0.92091 0.95655 0.23930
 C1422 C 0.93291 0.94175 0.22956
 C1423 C 0.94098 0.90523 0.22132
 C1424 C 0.94820 0.90851 0.20134
 C1425 C 0.95845 0.89297 0.19091
 C1426 C 0.96155 0.87381 0.20020
 C1427 C 0.95496 0.87073 0.22037
 C1428 C 0.94489 0.88629 0.23085
 C1429 C 0.97045 0.85670 0.18852
 C1430 C 0.96110 0.83781 0.18920
 C1431 C 0.96868 0.82187 0.17745
 C1432 C 0.98590 0.82441 0.16494
 C1433 C 0.99558 0.84314 0.16459
 C1434 C 0.98781 0.85922 0.17616
 H1435 H 0.90785 0.89982 0.24591
 H1436 H 0.88714 0.92506 0.26279
 H1437 H 0.92544 0.97212 0.23754
 H1438 H 0.94581 0.94650 0.22044
 H1439 H 0.94526 0.92283 0.19348
 H1440 H 0.96323 0.89566 0.17530
 H1441 H 0.95745 0.85619 0.22797
 H1442 H 0.93999 0.88340 0.24638
 H1443 H 0.94759 0.83553 0.19844
 H1444 H 0.96104 0.80753 0.17808
 H1445 H 1.00881 0.84547 0.15497
 H1446 H 0.99533 0.87362 0.17546
 C1447 C 0.43400 0.41866 0.72481
 C1448 C 0.43410 0.41725 0.74609
 C1449 C 0.42264 0.43094 0.75776
 C1450 C 0.41095 0.44641 0.74840
 C1451 C 0.41155 0.44844 0.72717
 C1452 C 0.42290 0.43462 0.71547
 C1453 C 0.44429 0.40270 0.71252
 C1454 C 0.43438 0.39428 0.69617
 C1455 C 0.44324 0.37806 0.68562
 C1456 C 0.46226 0.36998 0.69110
 C1457 C 0.47244 0.37876 0.70708
 C1458 C 0.46351 0.39489 0.71775
 C1459 C 0.47118 0.35216 0.68045
 C1460 C 0.49176 0.35144 0.67471
 C1461 C 0.49998 0.33476 0.66435
 C1462 C 0.48783 0.31837 0.65960
 C1463 C 0.46733 0.31898 0.66569
 C1464 C 0.45910 0.33570 0.67593
 H1465 H 0.44236 0.40503 0.75371
 H1466 H 0.42255 0.42915 0.77412
 H1467 H 0.40254 0.46012 0.71956
 H1468 H 0.42270 0.43617 0.69910
 H1469 H 0.41947 0.39982 0.69194
 H1470 H 0.43516 0.37176 0.67321
 H1471 H 0.48708 0.37278 0.71169
 H1472 H 0.47154 0.40117 0.73020
 H1473 H 0.50138 0.36399 0.67784
 H1474 H 0.51575 0.33493 0.65962
 H1475 H 0.45763 0.30646 0.66266
 H1476 H 0.44328 0.33567 0.68051
 C1477 C 0.42719 0.54693 0.78422
 C1478 C 0.43379 0.53271 0.76979
 C1479 C 0.42279 0.51513 0.76689
 C1480 C 0.40492 0.51162 0.77823
 C1481 C 0.39807 0.52630 0.79213
 C1482 C 0.40913 0.54363 0.79517
 C1483 C 0.43903 0.56510 0.78837
 C1484 C 0.44262 0.57019 0.80850
 C1485 C 0.45201 0.58822 0.81285
 C1486 C 0.45785 0.60177 0.79719
 C1487 C 0.45505 0.59627 0.77695
 C1488 C 0.44576 0.57803 0.77257
 C1489 C 0.46600 0.62182 0.80224
 C1490 C 0.48198 0.63043 0.79086
 C1491 C 0.48992 0.64899 0.79641
 C1492 C 0.48209 0.65918 0.81348
 C1493 C 0.46578 0.65084 0.82445
 C1494 C 0.45780 0.63247 0.81886
 H1495 H 0.44771 0.53493 0.76119
 H1496 H 0.42857 0.50410 0.75616
 H1497 H 0.38404 0.52454 0.80064
 H1498 H 0.40349 0.55459 0.80606
 H1499 H 0.43792 0.56027 0.82093
 H1500 H 0.45448 0.59169 0.82857
 H1501 H 0.45931 0.60640 0.76455
 H1502 H 0.44309 0.57443 0.75692
 H1503 H 0.48866 0.62257 0.77802
 H1504 H 0.50253 0.65509 0.78773
 H1505 H 0.45913 0.65861 0.83738
 H1506 H 0.44511 0.62662 0.82759
 C1507 C -0.06314 0.04785 0.27884
 C1508 C -0.06056 0.03002 0.29072
 C1509 C -0.07360 0.01389 0.28887
 C1510 C -0.08917 0.01504 0.27481
 C1511 C -0.09121 0.03227 0.26217
 C1512 C -0.07837 0.04861 0.26422
 C1513 C -0.05101 0.06602 0.28276
 C1514 C -0.04518 0.07942 0.26692
 C1515 C -0.03476 0.09705 0.27105
 C1516 C -0.02977 0.10149 0.29104
 C1517 C -0.03535 0.08799 0.30679
 C1518 C -0.04592 0.07056 0.30273
 C1519 C -0.01952 0.12047 0.29586
 C1520 C -0.00388 0.12008 0.30994
 C1521 C 0.00410 0.13812 0.31653
 C1522 C -0.00346 0.15698 0.30931
 C1523 C -0.01839 0.15734 0.29442
 C1524 C -0.02632 0.13923 0.28773
 H1525 H -0.04871 0.02868 0.30177
 H1526 H -0.07178 0.00061 0.29869
 H1527 H -0.10341 0.03358 0.25153
 H1528 H -0.08101 0.06217 0.25502
 H1529 H -0.04864 0.07629 0.25135
 H1530 H -0.03052 0.10717 0.25862
 H1531 H -0.03207 0.09125 0.32240
 H1532 H -0.05061 0.06096 0.31539
 H1533 H 0.00187 0.10580 0.31617
 H1534 H 0.01594 0.13732 0.32764
 H1535 H -0.02463 0.17162 0.28867
 H1536 H -0.03846 0.13995 0.27696
 C1537 C 0.07293 0.43614 0.27191
 C1538 C 0.08747 0.43900 0.25628
 C1539 C 0.09806 0.45708 0.25465
 C1540 C 0.09448 0.47243 0.26879
 C1541 C 0.07897 0.47026 0.28341
 C1542 C 0.06810 0.45241 0.28478
 C1543 C 0.06483 0.41563 0.27644
 C1544 C 0.06242 0.40897 0.29671
 C1545 C 0.05714 0.38907 0.30137
 C1546 C 0.05437 0.37513 0.28592
 C1547 C 0.05593 0.38189 0.26560
 C1548 C 0.06113 0.40195 0.26090
 C1549 C 0.05089 0.35349 0.29127
 C1550 C 0.03679 0.34214 0.28095
 C1551 C 0.03306 0.32202 0.28695
 C1552 C 0.04345 0.31288 0.30331
 C1553 C 0.05786 0.32418 0.31323
 C1554 C 0.06160 0.34413 0.30723
 H1555 H 0.09171 0.42680 0.24618
 H1556 H 0.11012 0.45841 0.24336
 H1557 H 0.07590 0.48204 0.29435
 H1558 H 0.05659 0.45097 0.29660
 H1559 H 0.06545 0.41886 0.30913
 H1560 H 0.05565 0.38446 0.31718
 H1561 H 0.05388 0.37149 0.25336
 H1562 H 0.06263 0.40663 0.24512
 H1563 H 0.02829 0.34895 0.26861
 H1564 H 0.02198 0.31369 0.27889
 H1565 H 0.06590 0.31783 0.32611
 H1566 H 0.07284 0.35232 0.31524
 C1567 C 0.58337 0.93049 0.76614
 C1568 C 0.58128 0.94501 0.78140
 C1569 C 0.59172 0.96311 0.77987
 C1570 C 0.60445 0.96712 0.76304
 C1571 C 0.60536 0.95334 0.74705
 C1572 C 0.59489 0.93516 0.74859
 C1573 C 0.57538 0.90984 0.76959
 C1574 C 0.57804 0.90000 0.78847
 C1575 C 0.57156 0.88025 0.79181
 C1576 C 0.56220 0.86981 0.77638
 C1577 C 0.55926 0.87967 0.75752
 C1578 C 0.56595 0.89948 0.75410
 C1579 C 0.55545 0.84878 0.78034
 C1580 C 0.53605 0.84291 0.77495
 C1581 C 0.52888 0.82391 0.78111
 C1582 C 0.54104 0.81037 0.79263
 C1583 C 0.56083 0.81589 0.79700
 C1584 C 0.56794 0.83485 0.79093
 H1585 H 0.57216 0.94199 0.79490
 H1586 H 0.59051 0.97363 0.79227
 H1587 H 0.61522 0.95591 0.73399
 H1588 H 0.59686 0.92421 0.73664
 H1589 H 0.58554 0.90746 0.80060
 H1590 H 0.57376 0.87315 0.80659
 H1591 H 0.55210 0.87193 0.74536
 H1592 H 0.56370 0.90673 0.73941
 H1593 H 0.52610 0.85337 0.76681
 H1594 H 0.51363 0.82001 0.77732
 H1595 H 0.57053 0.80596 0.80602
 H1596 H 0.58307 0.83888 0.79503
 C1597 C 0.72638 0.59838 0.06555
 C1598 C 0.73779 0.61587 0.06766
 C1599 C 0.74784 0.62457 0.05098
 C1600 C 0.74699 0.61589 0.03172
 C1601 C 0.73580 0.59826 0.02959
 C1602 C 0.72557 0.58961 0.04632
 C1603 C 0.71532 0.58956 0.08340
 C1604 C 0.71404 0.56842 0.08623
 C1605 C 0.70403 0.56027 0.10332
 C1606 C 0.69525 0.57309 0.11801
 C1607 C 0.69637 0.59419 0.11511
 C1608 C 0.70618 0.60232 0.09797
 C1609 C 0.68484 0.56460 0.13629
 C1610 C 0.68817 0.57259 0.15549
 C1611 C 0.67784 0.56511 0.17266
 C1612 C 0.66380 0.54964 0.17092
 C1613 C 0.66065 0.54149 0.15175
 C1614 C 0.67115 0.54882 0.13461
 H1615 H 0.73905 0.62285 0.08228
 H1616 H 0.75599 0.63834 0.05318
 H1617 H 0.73503 0.59102 0.01506
 H1618 H 0.71679 0.57623 0.04412
 H1619 H 0.72113 0.55815 0.07546
 H1620 H 0.70351 0.54394 0.10528
 H1621 H 0.68940 0.60442 0.12600
 H1622 H 0.70643 0.61867 0.09606
 H1623 H 0.69878 0.58463 0.15722
 H1624 H 0.68046 0.57174 0.18722
 H1625 H 0.65004 0.52944 0.15002
 H1626 H 0.66822 0.54248 0.11998
 C1627 C 0.22828 1.09602 0.57455
 C1628 C 0.23898 1.11407 0.57578
 C1629 C 0.25011 1.12140 0.55911
 C1630 C 0.25083 1.11088 0.54079
 C1631 C 0.24018 1.09281 0.53950
 C1632 C 0.22907 1.08540 0.55626
 C1633 C 0.21633 1.08847 0.59233
 C1634 C 0.21672 1.06775 0.59783
 C1635 C 0.20593 1.06085 0.61499
 C1636 C 0.19443 1.07451 0.62692
 C1637 C 0.19389 1.09518 0.62127
 C1638 C 0.20472 1.10208 0.60420
 C1639 C 0.18311 1.06733 0.64528
 C1640 C 0.16356 1.07508 0.64969
 C1641 C 0.15301 1.06864 0.66712
 C1642 C 0.16176 1.05431 0.68059
 C1643 C 0.18131 1.04652 0.67619
 C1644 C 0.19185 1.05293 0.65869
 H1645 H 0.23886 1.12247 0.58972
 H1646 H 0.25790 1.13553 0.56051
 H1647 H 0.24059 1.08429 0.52564
 H1648 H 0.22087 1.07152 0.55482
 H1649 H 0.22565 1.05694 0.58907
 H1650 H 0.20647 1.04480 0.61885
 H1651 H 0.18534 1.10611 0.63026
 H1652 H 0.20393 1.11809 0.60022
 H1653 H 0.15634 1.08604 0.63955
 H1654 H 0.13806 1.07508 0.67019
 H1655 H 0.18838 1.03532 0.68617
 H1656 H 0.20697 1.04683 0.65581
 C1657 C 0.22310 0.92710 0.92546
 C1658 C 0.23296 0.90907 0.91958
 C1659 C 0.24451 0.89771 0.93336
 C1660 C 0.24617 0.90382 0.95363
 C1661 C 0.23588 0.92187 0.95952
 C1662 C 0.22471 0.93352 0.94548
 C1663 C 0.21139 0.93913 0.91042
 C1664 C 0.21624 0.95930 0.90579
 C1665 C 0.20660 0.96988 0.88994
 C1666 C 0.19170 0.96055 0.87866
 C1667 C 0.18631 0.94060 0.88405
 C1668 C 0.19621 0.92995 0.89959
 C1669 C 0.18224 0.97121 0.86096
 C1670 C 0.17689 0.96025 0.84389
 C1671 C 0.16766 0.96999 0.82740
 C1672 C 0.16385 0.99108 0.82726
 C1673 C 0.16957 1.00215 0.84414
 C1674 C 0.17853 0.99233 0.86083
 H1675 H 0.23189 0.90387 0.90417
 H1676 H 0.25148 0.88370 0.92811
 H1677 H 0.23713 0.92770 0.97463
 H1678 H 0.21726 0.94750 0.95024
 H1679 H 0.22806 0.96657 0.91388
 H1680 H 0.21135 0.98510 0.88612
 H1681 H 0.17452 0.93309 0.87617
 H1682 H 0.19215 0.91443 0.90308
 H1683 H 0.17989 0.94406 0.84316
 H1684 H 0.16319 0.96083 0.81491
 H1685 H 0.16717 1.01844 0.84451
 H1686 H 0.18227 1.00128 0.87373
 C1687 C 0.72845 0.42656 0.41330
 C1688 C 0.73075 0.43419 0.43285
 C1689 C 0.74250 0.42349 0.44711
 C1690 C 0.75231 0.40509 0.44200
 C1691 C 0.75001 0.39752 0.42246
 C1692 C 0.73823 0.40811 0.40829
 C1693 C 0.71594 0.43764 0.39807
 C1694 C 0.70307 0.42696 0.38567
 C1695 C 0.69195 0.43710 0.37066
 C1696 C 0.69341 0.45819 0.36766
 C1697 C 0.70607 0.46895 0.38023
 C1698 C 0.71717 0.45878 0.39535
 C1699 C 0.68205 0.46866 0.35114
 C1700 C 0.69123 0.48351 0.33870
 C1701 C 0.68096 0.49221 0.32220
 C1702 C 0.66131 0.48622 0.31783
 C1703 C 0.65193 0.47186 0.33069
 C1704 C 0.66216 0.46319 0.34713
 H1705 H 0.72328 0.44830 0.43717
 H1706 H 0.74414 0.42977 0.46201
 H1707 H 0.75714 0.38323 0.41815
 H1708 H 0.73693 0.40196 0.39329
 H1709 H 0.70164 0.41070 0.38756
 H1710 H 0.68252 0.42834 0.36108
 H1711 H 0.70737 0.48523 0.37839
 H1712 H 0.72708 0.46738 0.40459
 H1713 H 0.70661 0.48789 0.34129
 H1714 H 0.68862 0.50314 0.31249
 H1715 H 0.63663 0.46728 0.32799
 H1716 H 0.65453 0.45211 0.35669
 C1717 C 0.78321 0.43789 0.54086
 C1718 C 0.76702 0.42452 0.53985
 C1719 C 0.76478 0.41257 0.52277
 C1720 C 0.77882 0.41361 0.50658
 C1721 C 0.79424 0.42778 0.50702
 C1722 C 0.79630 0.43993 0.52388
 C1723 C 0.78763 0.44820 0.56009
 C1724 C 0.80778 0.44993 0.56606
 C1725 C 0.81223 0.45831 0.58462
 C1726 C 0.79668 0.46499 0.59790
 C1727 C 0.77651 0.46371 0.59182
 C1728 C 0.77203 0.45538 0.57311
 C1729 C 0.80175 0.47273 0.61814
 C1730 C 0.79134 0.48960 0.62645
 C1731 C 0.79716 0.49740 0.64500
 C1732 C 0.81354 0.48852 0.65546
 C1733 C 0.82346 0.47130 0.64747
 C1734 C 0.81759 0.46345 0.62910
 H1735 H 0.75675 0.42244 0.55267
 H1736 H 0.75283 0.40164 0.52277
 H1737 H 0.80506 0.42904 0.49452
 H1738 H 0.80857 0.45049 0.52388
 H1739 H 0.82020 0.44427 0.55666
 H1740 H 0.82794 0.45942 0.58863
 H1741 H 0.76418 0.46866 0.60175
 H1742 H 0.75635 0.45444 0.56890
 H1743 H 0.77914 0.49713 0.61833
 H1744 H 0.78930 0.51073 0.65084
 H1745 H 0.83584 0.46389 0.65545
 H1746 H 0.82554 0.45010 0.62345
 C1747 C 0.28309 -0.06541 0.04834
 C1748 C 0.26388 -0.07321 0.04497
 C1749 C 0.26046 -0.08488 0.02792
 C1750 C 0.27634 -0.08962 0.01409
 C1751 C 0.29525 -0.08088 0.01702
 C1752 C 0.29847 -0.06877 0.03367
 C1753 C 0.28755 -0.05477 0.06746
 C1754 C 0.30689 -0.05678 0.07591
 C1755 C 0.31134 -0.04700 0.09375
 C1756 C 0.29648 -0.03534 0.10391
 C1757 C 0.27702 -0.03352 0.09591
 C1758 C 0.27264 -0.04298 0.07772
 C1759 C 0.30160 -0.02535 0.12292
 C1760 C 0.29098 -0.02965 0.14109
 C1761 C 0.29775 -0.02237 0.15950
 C1762 C 0.31511 -0.01047 0.15999
 C1763 C 0.32489 -0.00524 0.14153
 C1764 C 0.31834 -0.01278 0.12325
 H1765 H 0.25166 -0.07113 0.05595
 H1766 H 0.24574 -0.09135 0.02665
 H1767 H 0.30768 -0.08316 0.00630
 H1768 H 0.31320 -0.06226 0.03513
 H1769 H 0.31862 -0.06623 0.06897
 H1770 H 0.32636 -0.04886 0.09986
 H1771 H 0.26536 -0.02453 0.10355
 H1772 H 0.25765 -0.04086 0.07164
 H1773 H 0.27808 -0.03944 0.14114
 H1774 H 0.28992 -0.02684 0.17340
 H1775 H 0.33791 0.00439 0.14121
 H1776 H 0.32660 -0.00912 0.10935
 C1777 C 0.27302 0.07113 0.43731
 C1778 C 0.26410 0.09073 0.43640
 C1779 C 0.26315 0.10279 0.45355
 C1780 C 0.27091 0.09546 0.47197
 C1781 C 0.27907 0.07567 0.47325
 C1782 C 0.28001 0.06353 0.45608
 C1783 C 0.27713 0.05989 0.41828
 C1784 C 0.29598 0.05001 0.41510
 C1785 C 0.30137 0.04239 0.39609
 C1786 C 0.28808 0.04450 0.37980
 C1787 C 0.26873 0.05316 0.38328
 C1788 C 0.26331 0.06079 0.40234
 C1789 C 0.29520 0.03955 0.35893
 C1790 C 0.28269 0.02994 0.34528
 C1791 C 0.28950 0.02617 0.32540
 C1792 C 0.30881 0.03223 0.31879
 C1793 C 0.32128 0.04169 0.33252
 C1794 C 0.31457 0.04532 0.35231
 H1795 H 0.25901 0.09726 0.42214
 H1796 H 0.25748 0.11829 0.45213
 H1797 H 0.28535 0.06992 0.48734
 H1798 H 0.28681 0.04845 0.45732
 H1799 H 0.30708 0.04918 0.42694
 H1800 H 0.31628 0.03548 0.39394
 H1801 H 0.25818 0.05502 0.37101
 H1802 H 0.24856 0.06805 0.40440
 H1803 H 0.26771 0.02529 0.35001
 H1804 H 0.27960 0.01883 0.31511
 H1805 H 0.33636 0.04622 0.32799
 H1806 H 0.32445 0.05303 0.36233
 C1807 C 0.76490 0.57889 0.92796
 C1808 C 0.74705 0.58827 0.93555
 C1809 C 0.74744 0.60053 0.95258
 C1810 C 0.76565 0.60367 0.96249
 C1811 C 0.78318 0.59306 0.95579
 C1812 C 0.78285 0.58097 0.93867
 C1813 C 0.76535 0.56868 0.90801
 C1814 C 0.77861 0.55207 0.90436
 C1815 C 0.78149 0.54470 0.88477
 C1816 C 0.77101 0.55358 0.86836
 C1817 C 0.75668 0.56921 0.87228
 C1818 C 0.75397 0.57675 0.89182
 C1819 C 0.77653 0.54800 0.84715
 C1820 C 0.77757 0.56311 0.83183
 C1821 C 0.78537 0.55859 0.81257
 C1822 C 0.79256 0.53889 0.80818
 C1823 C 0.79052 0.52351 0.82313
 C1824 C 0.78254 0.52801 0.84238
 H1825 H 0.73285 0.58664 0.92795
 H1826 H 0.73365 0.60824 0.95726
 H1827 H 0.79740 0.59461 0.96336
 H1828 H 0.79696 0.57412 0.93329
 H1829 H 0.78731 0.54520 0.91653
 H1830 H 0.79274 0.53273 0.88236
 H1831 H 0.74803 0.57613 0.86009
 H1832 H 0.74372 0.58962 0.89397
 H1833 H 0.77330 0.57872 0.83494
 H1834 H 0.78639 0.57072 0.80130
 H1835 H 0.79601 0.50820 0.82031
 H1836 H 0.78163 0.51592 0.85370
 C1837 C 0.06874 0.72594 0.60055
 C1838 C 0.04913 0.72710 0.59259
 C1839 C 0.03327 0.73714 0.60302
 C1840 C 0.03674 0.74696 0.62135
 C1841 C 0.05629 0.74548 0.62938
 C1842 C 0.07186 0.73484 0.61938
 C1843 C 0.08599 0.71575 0.58940
 C1844 C 0.10592 0.72207 0.59194
 C1845 C 0.12226 0.71195 0.58260
 C1846 C 0.11926 0.69561 0.56970
 C1847 C 0.09925 0.68978 0.56648
 C1848 C 0.08289 0.69950 0.57640
 C1849 C 0.13696 0.68441 0.56032
 C1850 C 0.13591 0.66368 0.55587
 C1851 C 0.15281 0.65296 0.54820
 C1852 C 0.17155 0.66240 0.54540
 C1853 C 0.17249 0.68322 0.54951
 C1854 C 0.15541 0.69410 0.55647
 H1855 H 0.04606 0.72077 0.57801
 H1856 H 0.01867 0.73823 0.59593
 H1857 H 0.05957 0.75189 0.64389
 H1858 H 0.08635 0.73353 0.62665
 H1859 H 0.10909 0.73489 0.60124
 H1860 H 0.13729 0.71683 0.58594
 H1861 H 0.09608 0.67763 0.55633
 H1862 H 0.06788 0.69396 0.57408
 H1863 H 0.12219 0.65543 0.55874
 H1864 H 0.15106 0.63717 0.54467
 H1865 H 0.18653 0.69120 0.54787
 H1866 H 0.15687 0.71015 0.55900
 C1867 C 0.55999 0.21939 1.08785
 C1868 C 0.54452 0.21022 1.09943
 C1869 C 0.52888 0.22205 1.10806
 C1870 C 0.52864 0.24325 1.10554
 C1871 C 0.54382 0.25236 1.09355
 C1872 C 0.55928 0.24052 1.08466
 C1873 C 0.57745 0.20715 1.08008
 C1874 C 0.58461 0.20983 1.06005
 C1875 C 0.60176 0.19900 1.05311
 C1876 C 0.61230 0.18549 1.06616
 C1877 C 0.60494 0.18275 1.08618
 C1878 C 0.58764 0.19336 1.09301
 C1879 C 0.63110 0.17463 1.05911
 C1880 C 0.63577 0.15481 1.06614
 C1881 C 0.65371 0.14487 1.06002
 C1882 C 0.66737 0.15437 1.04647
 C1883 C 0.66259 0.17410 1.03924
 C1884 C 0.64476 0.18414 1.04557
 H1885 H 0.54471 0.19394 1.10200
 H1886 H 0.51744 0.21470 1.11739
 H1887 H 0.54387 0.26868 1.09132
 H1888 H 0.57110 0.24794 1.07591
 H1889 H 0.57689 0.22027 1.04975
 H1890 H 0.60671 0.20121 1.03749
 H1891 H 0.61284 0.17281 1.09680
 H1892 H 0.58259 0.19126 1.10862
 H1893 H 0.62551 0.14688 1.07635
 H1894 H 0.65697 0.12981 1.06615
 H1895 H 0.67255 0.18179 1.02855
 H1896 H 0.64187 0.19949 1.04005
 C1897 C 0.91149 0.23296 0.93692
 C1898 C 0.92701 0.22232 0.92644
 C1899 C 0.94131 0.23270 0.91461
 C1900 C 0.94027 0.25394 0.91269
 C1901 C 0.92512 0.26464 0.92366
 C1902 C 0.91094 0.25428 0.93567
 C1903 C 0.89550 0.22182 0.94839
 C1904 C 0.87526 0.22893 0.94820
 C1905 C 0.86000 0.21783 0.95785
 C1906 C 0.86459 0.19928 0.96774
 C1907 C 0.88483 0.19234 0.96835
 C1908 C 0.90013 0.20354 0.95888
 C1909 C 0.84818 0.18671 0.97642
 C1910 C 0.84783 0.16590 0.97233
 C1911 C 0.83174 0.15420 0.97934
 C1912 C 0.81578 0.16301 0.99077
 C1913 C 0.81637 0.18371 0.99532
 C1914 C 0.83236 0.19549 0.98808
 H1915 H 0.92778 0.20589 0.92683
 H1916 H 0.95276 0.22396 0.90653
 H1917 H 0.92423 0.28106 0.92305
 H1918 H 0.89952 0.26300 0.94394
 H1919 H 0.87107 0.24274 0.93999
 H1920 H 0.84449 0.22338 0.95694
 H1921 H 0.88878 0.17819 0.97610
 H1922 H 0.91558 0.19782 0.95969
 H1923 H 0.85974 0.15880 0.96322
 H1924 H 0.83173 0.13823 0.97579
 H1925 H 0.80419 0.19086 1.00404
 H1926 H 0.83235 0.21148 0.99152
 C1927 C 0.41980 0.72847 0.43830
 C1928 C 0.43508 0.71706 0.42829
 C1929 C 0.44971 0.72665 0.41617
 C1930 C 0.44932 0.74785 0.41360
 C1931 C 0.43447 0.75930 0.42424
 C1932 C 0.41990 0.74973 0.43642
 C1933 C 0.40333 0.71821 0.44988
 C1934 C 0.38324 0.72556 0.44860
 C1935 C 0.36751 0.71528 0.45842
 C1936 C 0.37149 0.69735 0.46968
 C1937 C 0.39161 0.69023 0.47135
 C1938 C 0.40736 0.70056 0.46158
 C1939 C 0.35458 0.68559 0.47870
 C1940 C 0.35455 0.66439 0.47703
 C1941 C 0.33805 0.65336 0.48421
 C1942 C 0.32122 0.66327 0.49328
 C1943 C 0.32145 0.68441 0.49547
 C1944 C 0.33794 0.69548 0.48818
 H1945 H 0.43534 0.70064 0.42925
 H1946 H 0.46087 0.71734 0.40832
 H1947 H 0.43407 0.77571 0.42317
 H1948 H 0.40864 0.75900 0.44432
 H1949 H 0.37956 0.73891 0.43944
 H1950 H 0.35214 0.72096 0.45658
 H1951 H 0.39515 0.67661 0.48017
 H1952 H 0.42270 0.69469 0.46314
 H1953 H 0.36705 0.65636 0.46963
 H1954 H 0.33841 0.63704 0.48256
 H1955 H 0.30865 0.69246 0.50232
 H1956 H 0.33763 0.71179 0.48984
 C1957 C 0.55382 0.76532 0.43386
 C1958 C 0.54871 0.74917 0.42152
 C1959 C 0.53039 0.74968 0.41127
 C1960 C 0.51703 0.76649 0.41297
 C1961 C 0.52183 0.78230 0.42582
 C1962 C 0.53999 0.78168 0.43624
 C1963 C 0.57411 0.76610 0.44290
 C1964 C 0.57630 0.77291 0.46277
 C1965 C 0.59550 0.77627 0.47029
 C1966 C 0.61286 0.77308 0.45801
 C1967 C 0.61072 0.76539 0.43848
 C1968 C 0.59153 0.76184 0.43104
 C1969 C 0.63284 0.77964 0.46482
 C1970 C 0.64504 0.79142 0.45174
 C1971 C 0.66281 0.79963 0.45864
 C1972 C 0.66888 0.79606 0.47869
 C1973 C 0.65718 0.78357 0.49156
 C1974 C 0.63921 0.77555 0.48472
 H1975 H 0.55907 0.73635 0.41950
 H1976 H 0.52710 0.73738 0.40132
 H1977 H 0.51169 0.79536 0.42748
 H1978 H 0.54361 0.79444 0.44546
 H1979 H 0.56311 0.77616 0.47228
 H1980 H 0.59670 0.78234 0.48533
 H1981 H 0.62387 0.76266 0.42877
 H1982 H 0.59029 0.75674 0.41562
 H1983 H 0.64040 0.79501 0.43640
 H1984 H 0.67165 0.80910 0.44840
 H1985 H 0.66151 0.78070 0.50712
 H1986 H 0.63012 0.76644 0.49507
 C1987 C 0.04327 0.27424 -0.06458
 C1988 C 0.03940 0.25856 -0.07797
 C1989 C 0.02132 0.25862 -0.08861
 C1990 C 0.00703 0.27456 -0.08628
 C1991 C 0.01059 0.28985 -0.07240
 C1992 C 0.02848 0.28961 -0.06154
 C1993 C 0.06329 0.27576 -0.05519
 C1994 C 0.06482 0.28087 -0.03471
 C1995 C 0.08361 0.28504 -0.02666
 C1996 C 0.10114 0.28447 -0.03905
 C1997 C 0.09973 0.27852 -0.05928
 C1998 C 0.08100 0.27407 -0.06724
 C1999 C 0.12042 0.29198 -0.03147
 C2000 C 0.13098 0.30667 -0.04285
 C2001 C 0.14821 0.31524 -0.03517
 C2002 C 0.15541 0.30908 -0.01609
 C2003 C 0.14528 0.29391 -0.00495
 C2004 C 0.12776 0.28558 -0.01249
 H2005 H 0.05056 0.24653 -0.08052
 H2006 H 0.01895 0.24676 -0.09936
 H2007 H -0.00029 0.30222 -0.07030
 H2008 H 0.03117 0.30199 -0.05147
 H2009 H 0.05138 0.28219 -0.02511
 H2010 H 0.08431 0.28973 -0.01106
 H2011 H 0.11307 0.27789 -0.06908
 H2012 H 0.08021 0.27033 -0.08312
 H2013 H 0.12549 0.31202 -0.05742
 H2014 H 0.15586 0.32684 -0.04406
 H2015 H 0.15056 0.28901 0.00984
 H2016 H 0.11985 0.27426 -0.00347
 C2017 C 0.42186 0.27200 0.08470
 C2018 C 0.43888 0.28097 0.07546
 C2019 C 0.45770 0.27956 0.08478
 C2020 C 0.45978 0.26890 0.10326
 C2021 C 0.44297 0.25951 0.11222
 C2022 C 0.42419 0.26098 0.10300
 C2023 C 0.40146 0.27536 0.07619
 C2024 C 0.38508 0.28069 0.08905
 C2025 C 0.36595 0.28472 0.08121
 C2026 C 0.36265 0.28339 0.06030
 C2027 C 0.37901 0.27780 0.04742
 C2028 C 0.39825 0.27392 0.05529
 C2029 C 0.34241 0.28882 0.05205
 C2030 C 0.34065 0.29986 0.03366
 C2031 C 0.32174 0.30695 0.02711
 C2032 C 0.30424 0.30332 0.03890
 C2033 C 0.30583 0.29156 0.05679
 C2034 C 0.32468 0.28426 0.06322
 H2035 H 0.43745 0.28977 0.06149
 H2036 H 0.47051 0.28715 0.07786
 H2037 H 0.44414 0.25185 0.12682
 H2038 H 0.41136 0.25388 0.11042
 H2039 H 0.38720 0.28231 0.10517
 H2040 H 0.35389 0.28949 0.09153
 H2041 H 0.37695 0.27641 0.03128
 H2042 H 0.41061 0.26969 0.04506
 H2043 H 0.35397 0.30386 0.02479
 H2044 H 0.32092 0.31617 0.01335
 H2045 H 0.29250 0.28836 0.06601
 H2046 H 0.32541 0.27537 0.07719
 C2047 C 0.93564 0.77706 0.58993
 C2048 C 0.94278 0.75813 0.59727
 C2049 C 0.96103 0.75644 0.60760
 C2050 C 0.97258 0.77375 0.61101
 C2051 C 0.96594 0.79240 0.60226
 C2052 C 0.94775 0.79402 0.59194
 C2053 C 0.91505 0.77947 0.58152
 C2054 C 0.90260 0.79610 0.58716
 C2055 C 0.88306 0.79841 0.57978
 C2056 C 0.87543 0.78417 0.56655
 C2057 C 0.88785 0.76752 0.56086
 C2058 C 0.90745 0.76513 0.56836
 C2059 C 0.85481 0.78722 0.55838
 C2060 C 0.85124 0.78440 0.53772
 C2061 C 0.83239 0.78959 0.52960
 C2062 C 0.81671 0.79763 0.54199
 C2063 C 0.81998 0.79944 0.56285
 C2064 C 0.83882 0.79430 0.57094
 H2065 H 0.93371 0.74479 0.59603
 H2066 H 0.96496 0.74175 0.61416
 H2067 H 0.97468 0.80596 0.60342
 H2068 H 0.94295 0.80870 0.58585
 H2069 H 0.90789 0.80723 0.59752
 H2070 H 0.87399 0.81156 0.58421
 H2071 H 0.88235 0.75626 0.55075
 H2072 H 0.91672 0.75220 0.56372
 H2073 H 0.86327 0.77904 0.52765
 H2074 H 0.83024 0.78781 0.51351
 H2075 H 0.80829 0.80574 0.57277
 H2076 H 0.84103 0.79633 0.58699
   
