data_POSCAR
  _audit_creation_date              2014-09-24
  _audit_creation_method            'ToBaCCo'
  _symmetry_space_group_name_H-M    'P1'
  _symmetry_Int_Tables_number       1
  _symmetry_cell_setting            triclinic
  loop_
  _symmetry_equiv_pos_as_xyz
 x,y,z
_cell_length_a 37.9037
_cell_length_b 36.8161
_cell_length_c 41.9299
_cell_angle_alpha 90.040500
_cell_angle_beta 90.588200
_cell_angle_gamma 89.829700
loop_
  _atom_site_label
  _atom_site_type_symbol
  _atom_site_fract_x
  _atom_site_fract_y
  _atom_site_fract_z
B1 B 0.27496 0.24011 0.27987
 B2 B 0.23279 0.23281 0.27021
 B3 B 0.24661 0.27492 0.27853
 B4 B 0.28768 0.28018 0.26445
 B5 B 0.29909 0.24026 0.24653
 B6 B 0.26473 0.21061 0.25052
 B7 B 0.24149 0.26813 0.21493
 B8 B 0.28396 0.27536 0.22455
 B9 B 0.27009 0.23326 0.21622
 B10 B 0.22896 0.22790 0.23050
 B11 B 0.21752 0.26798 0.24838
 B12 B 0.25206 0.29761 0.24432
 B13 B 0.72898 0.75576 0.23233
 B14 B 0.71442 0.71401 0.24026
 B15 B 0.75694 0.72040 0.23150
 B16 B 0.77021 0.76021 0.24732
 B17 B 0.73478 0.77831 0.26685
 B18 B 0.69986 0.74944 0.26187
 B19 B 0.75126 0.71369 0.29503
 B20 B 0.76617 0.75534 0.28699
 B21 B 0.72372 0.74895 0.29574
 B22 B 0.71020 0.70918 0.27989
 B23 B 0.74572 0.69103 0.26065
 B24 B 0.78072 0.71992 0.26558
 B25 B 0.73386 0.23126 -0.29113
 B26 B 0.77287 0.21395 -0.28022
 B27 B 0.76912 0.25821 -0.28895
 B28 B 0.72985 0.27358 -0.27606
 B29 B 0.70934 0.23758 -0.25857
 B30 B 0.73617 0.20035 -0.26142
 B31 B 0.77039 0.25126 -0.22531
 B32 B 0.73119 0.26839 -0.23621
 B33 B 0.73493 0.22431 -0.22735
 B34 B 0.77417 0.20880 -0.24033
 B35 B 0.79479 0.24470 -0.25797
 B36 B 0.76775 0.28204 -0.25499
 B37 B 0.25905 0.76865 -0.27188
 B38 B 0.21692 0.77887 -0.26412
 B39 B 0.22862 0.73581 -0.27152
 B40 B 0.26887 0.72791 -0.25545
 B41 B 0.28199 0.76734 -0.23752
 B42 B 0.24937 0.79918 -0.24329
 B43 B 0.22223 0.74380 -0.20812
 B44 B 0.26419 0.73359 -0.21599
 B45 B 0.25270 0.77665 -0.20859
 B46 B 0.21234 0.78443 -0.22444
 B47 B 0.19919 0.74503 -0.24262
 B48 B 0.23157 0.71319 -0.23687
 B49 B 1.22542 1.25294 0.78808
 B50 B 1.26485 1.27041 0.77975
 B51 B 1.26128 1.22628 0.78859
 B52 B 1.22311 1.21036 0.77312
 B53 B 1.20324 1.24595 0.75393
 B54 B 1.22929 1.28353 0.75837
 B55 B 1.26620 1.23281 0.72502
 B56 B 1.22680 1.21529 0.73338
 B57 B 1.23043 1.25941 0.72456
 B58 B 1.26855 1.27532 0.74003
 B59 B 1.28855 1.23973 0.75919
 B60 B 1.26234 1.20215 0.75464
 B61 B 0.77548 0.74024 0.77657
 B62 B 0.73217 0.73403 0.76441
 B63 B 0.74782 0.77658 0.77481
 B64 B 0.79023 0.78078 0.76370
 B65 B 0.80194 0.74144 0.74479
 B66 B 0.76672 0.71254 0.74474
 B67 B 0.74804 0.77310 0.71071
 B68 B 0.78968 0.77834 0.72357
 B69 B 0.77535 0.73733 0.71231
 B70 B 0.73296 0.73255 0.72311
 B71 B 0.72124 0.77222 0.74202
 B72 B 0.75702 0.80052 0.74204
 B73 B 1.23699 0.72485 0.27454
 B74 B 1.22907 0.76748 0.26253
 B75 B 1.26862 0.75620 0.27781
 B76 B 1.27895 0.71360 0.26585
 B77 B 1.24462 0.69893 0.24253
 B78 B 1.21350 0.73258 0.24065
 B79 B 1.27390 0.75843 0.21407
 B80 B 1.28148 0.71572 0.22590
 B81 B 1.24205 0.72711 0.21074
 B82 B 1.23187 0.76951 0.22258
 B83 B 1.26593 0.78426 0.24610
 B84 B 1.29719 0.75052 0.24800
 B85 B 0.75954 1.27509 0.22777
 B86 B 0.71686 1.28273 0.23549
 B87 B 0.73049 1.24097 0.22560
 B88 B 0.77082 1.23360 0.24179
 B89 B 0.78199 1.27206 0.26238
 B90 B 0.74815 1.30275 0.25809
 B91 B 0.72279 1.24345 0.28908
 B92 B 0.76521 1.23578 0.28139
 B93 B 0.75175 1.27753 0.29131
 B94 B 0.71145 1.28486 0.27530
 B95 B 0.70030 1.24654 0.25458
 B96 B 0.73393 1.21578 0.25869
 N97 N 0.57206 1.03119 0.04370
 N98 N 0.59392 1.05770 0.05158
 N99 N 0.54672 0.95262 0.05871
 N100 N 0.55336 0.92636 0.07940
 N101 N 0.57238 0.95506 0.03803
 N102 N 0.59687 0.93035 0.04379
 N103 N 0.54642 1.02880 0.06441
 N104 N 0.54989 1.05379 0.08676
 C105 C 0.57959 1.07155 0.07848
 C106 C 0.58451 0.91241 0.06941
 N107 N 0.44662 0.95646 0.03150
 N108 N 0.42142 0.93210 0.03464
 N109 N 0.47089 1.02942 0.06049
 N110 N 0.46328 1.05143 0.08424
 N111 N 0.44739 1.03250 0.03740
 N112 N 0.42283 1.05651 0.04511
 N113 N 0.47017 0.95331 0.05455
 N114 N 0.46146 0.92673 0.07408
 Mn115 Mn 0.50854 0.99086 0.05984
 C116 C 0.43122 0.91348 0.06105
 C117 C 0.43355 1.06840 0.07426
 N118 N 0.57611 0.96110 -0.02972
 N119 N 0.60110 0.93722 -0.03596
 N120 N 0.55283 1.03883 -0.04837
 N121 N 0.56168 1.06403 -0.06912
 N122 N 0.57611 1.03717 -0.02500
 N123 N 0.60158 1.06104 -0.02943
 N124 N 0.55288 0.96260 -0.05314
 N125 N 0.56176 0.93992 -0.07618
 Mn126 Mn 0.57445 0.99625 0.00681
 C127 C 0.59166 0.92396 -0.06482
 C128 C 0.59187 1.07799 -0.05680
 N129 N 0.45116 1.03865 -0.03160
 N130 N 0.42725 1.06381 -0.03833
 N131 N 0.47617 0.96358 -0.05718
 N132 N 0.46949 0.94149 -0.08133
 N133 N 0.45032 0.96263 -0.03656
 N134 N 0.42557 0.93976 -0.04600
 N135 N 0.47710 1.03984 -0.05213
 N136 N 0.47185 1.06614 -0.07297
 Mn137 Mn 0.44855 0.99770 0.00017
 Mn138 Mn 0.51473 1.00111 -0.05302
 Cl139 Cl 0.51155 0.99649 0.00343
 C140 C 0.44091 1.08106 -0.06392
 C141 C 0.43811 0.92644 -0.07375
 N142 N 1.07060 0.54041 0.53429
 N143 N 1.09156 0.56834 0.54033
 N144 N 1.05451 0.46053 0.55321
 N145 N 1.06394 0.43361 0.57220
 N146 N 1.07747 0.46452 0.53025
 N147 N 1.10327 0.44049 0.53309
 N148 N 1.04760 0.53648 0.55724
 N149 N 1.05180 0.56177 0.57915
 C150 C 1.07917 0.58144 0.56835
 C151 C 1.09425 0.42124 0.55924
 N152 N 0.95216 0.45289 0.53782
 N153 N 0.93037 0.42623 0.54494
 N154 N 0.97260 0.52947 0.56172
 N155 N 0.96813 0.55539 0.58302
 N156 N 0.94614 0.52888 0.54128
 N157 N 0.92277 0.55431 0.54823
 N158 N 0.97906 0.45344 0.55780
 N159 N 0.97642 0.42709 0.57891
 Mn160 Mn 1.01349 0.49488 0.55780
 C161 C 0.94618 0.41013 0.57037
 C162 C 0.93698 0.57056 0.57435
 N163 N 1.07129 0.46822 0.46177
 N164 N 1.09688 0.44634 0.45237
 N165 N 1.03751 0.54264 0.44527
 N166 N 1.03919 0.56895 0.42409
 N167 N 1.06449 0.54405 0.46513
 N168 N 1.08571 0.57109 0.45749
 N169 N 1.04436 0.46665 0.44187
 N170 N 1.05079 0.44371 0.41850
 Mn171 Mn 1.07143 0.50442 0.49786
 C172 C 1.08338 0.43097 0.42554
 C173 C 1.06913 0.58661 0.43209
 N174 N 0.93965 0.53227 0.47260
 N175 N 0.91177 0.55304 0.46687
 N176 N 0.96884 0.45954 0.44621
 N177 N 0.96052 0.43766 0.42239
 N178 N 0.94589 0.45646 0.46933
 N179 N 0.92134 0.43246 0.46172
 N180 N 0.96269 0.53551 0.44962
 N181 N 0.95142 0.55876 0.42795
 Mn182 Mn 0.94560 0.49263 0.50534
 Mn183 Mn 1.00339 0.50102 0.44555
 Cl184 Cl 1.00848 0.49822 0.50162
 C185 C 0.91999 0.56988 0.43920
 C186 C 0.93127 0.42050 0.43261
 N187 N 0.96042 0.45055 0.05695
 N188 N 0.93699 0.44244 0.07892
 N189 N 1.03203 0.42632 0.02868
 N190 N 1.05617 0.40049 0.03133
 N191 N 1.03459 0.44924 0.05259
 N192 N 1.06060 0.43969 0.07207
 N193 N 0.95803 0.42787 0.03285
 N194 N 0.93302 0.40369 0.03776
 C195 C 0.91997 0.41328 0.06647
 C196 C 1.07402 0.40940 0.05835
 N197 N 1.02496 0.46162 -0.05945
 N198 N 1.04693 0.45639 -0.08328
 N199 N 0.95241 0.43513 -0.03565
 N200 N 0.93008 0.40963 -0.04513
 N201 N 0.95090 0.46316 -0.05503
 N202 N 0.92747 0.45746 -0.07797
 N203 N 1.02638 0.43412 -0.03953
 N204 N 1.04935 0.40954 -0.04920
 Mn205 Mn 0.99219 0.43058 -0.00341
 C206 C 1.06225 0.42404 -0.07632
 C207 C 0.91424 0.42433 -0.07122
 N208 N 1.03632 0.52725 0.05913
 N209 N 1.06313 0.53031 0.07927
 N210 N 0.96093 0.55665 0.04435
 N211 N 0.93676 0.58019 0.05404
 N212 N 0.96224 0.52848 0.06355
 N213 N 0.93900 0.53187 0.08652
 N214 N 1.03513 0.55516 0.03962
 N215 N 1.06107 0.57805 0.04613
 Mn216 Mn 0.99842 0.48889 0.05834
 C217 C 1.07843 0.56196 0.07081
 C218 C 0.92318 0.56405 0.08030
 N219 N 0.95269 0.54152 -0.04836
 N220 N 0.92838 0.55254 -0.06902
 N221 N 1.02926 0.56303 -0.02926
 N222 N 1.05155 0.58934 -0.03659
 N223 N 1.02663 0.53969 -0.05291
 N224 N 1.04701 0.54937 -0.07669
 N225 N 0.95531 0.56456 -0.02448
 N226 N 0.93292 0.59184 -0.02840
 Mn227 Mn 0.98874 0.50153 -0.05412
 Mn228 Mn 0.99518 0.56025 0.00763
 Cl229 Cl 0.99360 0.49536 0.00208
 C230 C 0.91594 0.58369 -0.05604
 C231 C 1.06281 0.57996 -0.06611
 N232 N 0.55783 1.03301 0.53307
 N233 N 0.57967 1.06034 0.53866
 N234 N 0.53857 0.95375 0.55138
 N235 N 0.55014 0.92914 0.57195
 N236 N 0.56058 0.95678 0.52755
 N237 N 0.58727 0.93400 0.53096
 N238 N 0.53527 1.02978 0.55643
 N239 N 0.54085 1.05479 0.57837
 C240 C 0.56851 1.07365 0.56703
 C241 C 0.58023 0.91665 0.55852
 N242 N 0.43478 0.95206 0.53715
 N243 N 0.41103 0.92769 0.54564
 N244 N 0.46003 1.02686 0.56165
 N245 N 0.45721 1.05179 0.58402
 N246 N 0.43290 1.02827 0.54192
 N247 N 0.41057 1.05406 0.55073
 N248 N 0.46236 0.95068 0.55644
 N249 N 0.45824 0.92524 0.57816
 Mn250 Mn 0.49903 0.99011 0.55671
 C251 C 0.42645 0.91079 0.57095
 C252 C 0.42637 1.06853 0.57700
 N253 N 0.55351 0.96223 0.45966
 N254 N 0.57556 0.93572 0.45238
 N255 N 0.52409 1.03895 0.44458
 N256 N 0.52705 1.06582 0.42407
 N257 N 0.55105 1.03842 0.46444
 N258 N 0.57344 1.06473 0.45767
 N259 N 0.52653 0.96268 0.43980
 N260 N 0.52946 0.93658 0.41840
 Mn261 Mn 0.55611 0.99772 0.49615
 C262 C 0.56015 0.92004 0.42655
 C263 C 0.55771 1.08184 0.43265
 N264 N 0.42595 1.03396 0.47284
 N265 N 0.40331 1.06143 0.47104
 N266 N 0.45087 0.96024 0.44488
 N267 N 0.44215 0.93882 0.42091
 N268 N 0.42791 0.95748 0.46803
 N269 N 0.40292 0.93388 0.46024
 N270 N 0.44923 1.03627 0.44994
 N271 N 0.44371 1.06543 0.43248
 Mn272 Mn 0.42986 0.99294 0.50502
 Mn273 Mn 0.48764 0.99947 0.44458
 Cl274 Cl 0.49311 0.99496 0.50065
 C275 C 0.41502 1.08073 0.44566
 C276 C 0.41266 0.92209 0.43092
 N277 N 1.06680 1.04487 0.52773
 N278 N 1.08704 1.07234 0.53654
 N279 N 1.04808 0.96410 0.54229
 N280 N 1.05653 0.93796 0.56253
 N281 N 1.07361 0.96926 0.52186
 N282 N 1.09998 0.94660 0.52749
 N283 N 1.04160 1.03975 0.54847
 N284 N 1.04352 1.06384 0.57162
 C285 C 1.07180 1.08396 0.56383
 C286 C 1.08879 0.92703 0.55269
 N287 N 0.94768 0.95964 0.51650
 N288 N 0.92361 0.93436 0.52096
 N289 N 0.96694 1.03411 0.54548
 N290 N 0.96069 1.05829 0.56782
 N291 N 0.94273 1.03557 0.52290
 N292 N 0.91878 1.06061 0.52970
 N293 N 0.97178 0.95847 0.53924
 N294 N 0.96445 0.93264 0.55994
 Mn295 Mn 1.00712 0.99887 0.54410
 C296 C 0.93467 0.91747 0.54790
 C297 C 0.93068 1.07452 0.55782
 N298 N 1.07580 0.97614 0.45397
 N299 N 1.10074 0.95189 0.44894
 N300 N 1.04528 1.05123 0.43602
 N301 N 1.04868 1.07932 0.41691
 N302 N 1.06927 1.05188 0.45880
 N303 N 1.09027 1.08024 0.45533
 N304 N 1.05191 0.97525 0.43110
 N305 N 1.06011 0.95036 0.40966
 Mn306 Mn 1.07177 1.01075 0.49061
 C307 C 1.09062 0.93604 0.42131
 C308 C 1.07666 1.09721 0.42921
 N309 N 0.94520 1.04263 0.45383
 N310 N 0.92158 1.06876 0.44971
 N311 N 0.97581 0.96975 0.42770
 N312 N 0.97107 0.94741 0.40344
 N313 N 0.95001 0.96669 0.44820
 N314 N 0.92710 0.94202 0.43845
 N315 N 0.97052 1.04554 0.43285
 N316 N 0.96518 1.07384 0.41422
 Mn317 Mn 0.94594 1.00123 0.48533
 Mn318 Mn 1.01092 1.01027 0.43160
 Cl319 Cl 1.00890 1.00519 0.48791
 C320 C 0.93469 1.08804 0.42497
 C321 C 0.94089 0.92998 0.41071
 N322 N 0.57257 0.52024 0.02637
 N323 N 0.59988 0.54030 0.03484
 N324 N 0.53743 0.44596 0.03855
 N325 N 0.54386 0.41963 0.05913
 N326 N 0.56120 0.44592 0.01594
 N327 N 0.58424 0.41943 0.02058
 N328 N 0.54864 0.52033 0.04876
 N329 N 0.55899 0.54045 0.07313
 C330 C 0.59085 0.55293 0.06392
 C331 C 0.57270 0.40289 0.04726
 N332 N 0.43741 0.46550 0.01948
 N333 N 0.40966 0.44447 0.02358
 N334 N 0.47372 0.53225 0.05074
 N335 N 0.47234 0.55429 0.07547
 N336 N 0.44856 0.53993 0.03001
 N337 N 0.42912 0.56731 0.04032
 N338 N 0.46219 0.45779 0.04055
 N339 N 0.45198 0.43133 0.05951
 Mn340 Mn 0.50546 0.48904 0.04491
 C341 C 0.41933 0.42303 0.04839
 C342 C 0.44459 0.57609 0.06859
 N343 N 0.55986 0.45859 -0.05194
 N344 N 0.57930 0.43120 -0.06211
 N345 N 0.54655 0.54099 -0.06205
 N346 N 0.55592 0.56899 -0.07955
 N347 N 0.57128 0.53295 -0.04110
 N348 N 0.59822 0.55535 -0.04368
 N349 N 0.53520 0.46672 -0.07296
 N350 N 0.53702 0.44505 -0.09793
 Mn351 Mn 0.56656 0.48932 -0.01272
 C352 C 0.56444 0.42292 -0.09071
 C353 C 0.58807 0.57779 -0.06762
 N354 N 0.44718 0.55242 -0.03825
 N355 N 0.42581 0.58060 -0.04182
 N356 N 0.46066 0.47851 -0.07082
 N357 N 0.45394 0.45423 -0.09309
 N358 N 0.43654 0.47770 -0.04857
 N359 N 0.41257 0.45272 -0.05522
 N360 N 0.47179 0.55285 -0.06006
 N361 N 0.46812 0.58140 -0.07875
 Mn362 Mn 0.44196 0.50896 -0.00934
 Mn363 Mn 0.50351 0.50989 -0.06673
 Cl364 Cl 0.50434 0.49927 -0.01093
 C365 C 0.43965 0.59866 -0.06691
 C366 C 0.42384 0.43859 -0.08321
 C367 C 0.28238 1.21184 0.18544
 C368 C 0.30825 1.18483 0.18790
 C369 C 0.32377 1.16438 0.16105
 C370 C 0.34487 1.13419 0.16860
 C371 C 0.36263 1.11526 0.14490
 C372 C 0.36007 1.12627 0.11288
 C373 C 0.33786 1.15557 0.10493
 C374 C 0.32000 1.17476 0.12886
 C375 C 0.38063 1.10724 0.08802
 C376 C 0.41397 1.09311 0.09512
 H377 H 0.31820 1.17800 0.21148
 H378 H 0.34800 1.12536 0.19312
 H379 H 0.37843 1.09195 0.15176
 H380 H 0.33521 1.16429 0.08035
 H381 H 0.30421 1.19808 0.12212
 H382 H 0.36965 1.10449 0.06420
 H383 H 0.27021 1.21834 0.16274
 H384 H 0.42590 1.09876 0.11816
 C385 C 0.78853 0.71749 0.68122
 C386 C 0.82437 0.71248 0.67525
 C387 C 0.83861 0.68971 0.64929
 C388 C 0.87471 0.69225 0.64264
 C389 C 0.89044 0.66852 0.62104
 C390 C 0.87036 0.64145 0.60578
 C391 C 0.83391 0.64009 0.61105
 C392 C 0.81813 0.66380 0.63280
 C393 C 0.88705 0.61353 0.58550
 C394 C 0.92107 0.60082 0.59185
 H395 H 0.84338 0.72541 0.69101
 H396 H 0.89101 0.71219 0.65475
 H397 H 0.91840 0.67115 0.61666
 H398 H 0.81789 0.61960 0.59938
 H399 H 0.79033 0.66058 0.63745
 H400 H 0.87116 0.60017 0.56738
 H401 H 0.76868 0.70675 0.66516
 H402 H 0.93611 0.61186 0.61166
 C403 C 0.71513 0.77636 0.20148
 C404 C 0.69764 0.80966 0.20458
 C405 C 0.67219 0.82454 0.18110
 C406 C 0.67340 0.81650 0.14836
 C407 C 0.64867 0.83202 0.12730
 C408 C 0.62234 0.85560 0.13875
 C409 C 0.62076 0.86271 0.17151
 C410 C 0.64562 0.84770 0.19237
 C411 C 0.59691 0.87439 0.11745
 C412 C 0.60544 0.88501 0.08665
 H413 H 0.69869 0.82339 0.22743
 H414 H 0.69367 0.79890 0.13890
 H415 H 0.65018 0.82545 0.10219
 H416 H 0.60073 0.88072 0.18092
 H417 H 0.64398 0.85413 0.21754
 H418 H 0.57289 0.88490 0.12787
 H419 H 0.71364 0.76128 0.17938
 H420 H 0.63033 0.87688 0.07642
 C421 C 1.21447 0.27664 0.69290
 C422 C 1.17891 0.28662 0.69114
 C423 C 1.16156 0.30446 0.66368
 C424 C 1.17994 0.32621 0.64194
 C425 C 1.16139 0.34695 0.61927
 C426 C 1.12424 0.34605 0.61801
 C427 C 1.10627 0.32296 0.63882
 C428 C 1.12470 0.30246 0.66140
 C429 C 1.10294 0.37117 0.59809
 C430 C 1.11605 0.39223 0.57331
 H431 H 1.16214 0.28097 0.71127
 H432 H 1.20832 0.32883 0.64348
 H433 H 1.17619 0.36487 0.60403
 H434 H 1.07771 0.32175 0.63840
 H435 H 1.10997 0.28583 0.67788
 H436 H 1.07536 0.37432 0.60417
 H437 H 1.23171 0.28093 0.67288
 H438 H 1.14249 0.38823 0.56454
 C439 C 0.71748 1.20729 -0.19656
 C440 C 0.68174 1.19795 -0.19636
 C441 C 0.66299 1.18113 -0.16937
 C442 C 0.68040 1.16288 -0.14427
 C443 C 0.66097 1.14426 -0.12117
 C444 C 0.62382 1.14368 -0.12279
 C445 C 0.60668 1.16285 -0.14735
 C446 C 0.62599 1.18131 -0.17031
 C447 C 0.60193 1.12114 -0.10146
 C448 C 0.61380 1.10491 -0.07326
 H449 H 0.66595 1.20348 -0.21748
 H450 H 0.70889 1.16157 -0.14306
 H451 H 0.67524 1.12925 -0.10300
 H452 H 0.57815 1.16282 -0.14928
 H453 H 0.61188 1.19516 -0.18937
 H454 H 0.57493 1.11615 -0.10899
 H455 H 0.73394 1.20317 -0.17568
 H456 H 0.63968 1.11083 -0.06356
 C457 C 1.22006 0.70739 0.30511
 C458 C 1.18369 0.70405 0.30873
 C459 C 1.16723 0.68542 0.33602
 C460 C 1.13302 0.67180 0.33205
 C461 C 1.11680 0.65264 0.35653
 C462 C 1.13426 0.64722 0.38598
 C463 C 1.16829 0.66151 0.39019
 C464 C 1.18460 0.68062 0.36556
 C465 C 1.11875 0.62483 0.41170
 C466 C 1.08300 0.61622 0.41257
 H467 H 1.16643 0.71371 0.28978
 H468 H 1.11909 0.67510 0.30954
 H469 H 1.09110 0.64121 0.35162
 H470 H 1.18237 0.65770 0.41256
 H471 H 1.21064 0.69162 0.36986
 H472 H 1.13634 0.61313 0.42948
 H473 H 1.23802 0.69646 0.32287
 H474 H 1.06462 0.62878 0.39606
 C475 C 0.26686 0.79697 -0.17761
 C476 C 0.28849 0.82751 -0.18076
 C477 C 0.31242 0.84237 -0.15589
 C478 C 0.33873 0.86654 -0.16572
 C479 C 0.36261 0.88129 -0.14384
 C480 C 0.36075 0.87230 -0.11136
 C481 C 0.33413 0.84852 -0.10129
 C482 C 0.31028 0.83339 -0.12337
 C483 C 0.38467 0.88938 -0.08758
 C484 C 0.41798 0.90269 -0.09540
 H485 H 0.29099 0.83941 -0.20424
 H486 H 0.34091 0.87413 -0.19059
 H487 H 0.38186 0.90048 -0.15242
 H488 H 0.33182 0.84164 -0.07629
 H489 H 0.29013 0.81523 -0.11480
 H490 H 0.37539 0.89239 -0.06337
 H491 H 0.26387 0.78368 -0.15483
 H492 H 0.42902 0.89719 -0.11861
 C493 C 0.76393 0.29546 0.32398
 C494 C 0.78000 0.32956 0.32430
 C495 C 0.80339 0.34319 0.35006
 C496 C 0.82710 0.37093 0.34236
 C497 C 0.85103 0.38403 0.36497
 C498 C 0.85174 0.36982 0.39604
 C499 C 0.82730 0.34288 0.40424
 C500 C 0.80347 0.32935 0.38135
 C501 C 0.87669 0.38431 0.42021
 C502 C 0.90981 0.39729 0.41167
 H503 H 0.77919 0.34555 0.30262
 H504 H 0.82743 0.38233 0.31854
 H505 H 0.86856 0.40577 0.35814
 H506 H 0.82696 0.33204 0.42824
 H507 H 0.78512 0.30846 0.38835
 H508 H 0.86844 0.38584 0.44484
 H509 H 0.76460 0.27844 0.34496
 H510 H 0.91924 0.39292 0.38768
 C511 C 1.22298 0.28270 0.18325
 C512 C 1.22467 0.31941 0.17467
 C513 C 1.19975 0.33814 0.15255
 C514 C 1.17629 0.31971 0.13196
 C515 C 1.15144 0.33911 0.11359
 C516 C 1.14960 0.37728 0.11547
 C517 C 1.17360 0.39551 0.13543
 C518 C 1.19849 0.37625 0.15349
 C519 C 1.12191 0.39897 0.09887
 C520 C 1.10282 0.38723 0.07217
 H521 H 1.24307 0.33655 0.18762
 H522 H 1.17662 0.29043 0.13016
 H523 H 1.13306 0.32403 0.09882
 H524 H 1.17279 0.42484 0.13741
 H525 H 1.21621 0.39125 0.16905
 H526 H 1.11662 0.42599 0.10798
 H527 H 1.20487 0.26454 0.17125
 H528 H 1.10898 0.36155 0.06096
 C529 C 0.73211 0.78961 0.67877
 C530 C 0.72428 0.82664 0.67662
 C531 C 0.69454 0.84108 0.65745
 C532 C 0.68488 0.82672 0.62756
 C533 C 0.65593 0.84118 0.61071
 C534 C 0.63603 0.86980 0.62378
 C535 C 0.64552 0.88361 0.65379
 C536 C 0.67476 0.86977 0.67022
 C537 C 0.60570 0.88640 0.60675
 C538 C 0.60542 0.89162 0.57388
 H539 H 0.73562 0.84491 0.69417
 H540 H 0.69984 0.80473 0.61708
 H541 H 0.64892 0.82972 0.58774
 H542 H 0.63062 0.90565 0.66431
 H543 H 0.68159 0.88111 0.69332
 H544 H 0.58564 0.89971 0.62085
 H545 H 0.72034 0.77078 0.66195
 H546 H 0.62706 0.88147 0.55973
 C547 C 1.20449 0.73027 -0.17608
 C548 C 1.16859 0.72180 -0.17485
 C549 C 1.15178 0.70093 -0.14886
 C550 C 1.12020 0.68271 -0.15591
 C551 C 1.10372 0.66145 -0.13297
 C552 C 1.11825 0.65807 -0.10214
 C553 C 1.14909 0.67743 -0.09451
 C554 C 1.16598 0.69845 -0.11775
 C555 C 1.10103 0.63473 -0.07804
 C556 C 1.08493 0.60221 -0.08703
 H557 H 1.15231 0.72755 -0.19564
 H558 H 1.10843 0.68447 -0.17952
 H559 H 1.07936 0.64785 -0.13935
 H560 H 1.16046 0.67570 -0.07076
 H561 H 1.18982 0.71282 -0.11120
 H562 H 1.10155 0.64278 -0.05319
 H563 H 1.22173 0.72393 -0.15614
 H564 H 1.08763 0.59282 -0.11137
 C565 C 0.70477 1.22693 0.31967
 C566 C 0.67925 1.19987 0.31657
 C567 C 0.66119 1.18183 0.34327
 C568 C 0.63081 1.16173 0.33607
 C569 C 0.61338 1.14255 0.35973
 C570 C 0.62585 1.14308 0.39143
 C571 C 0.65649 1.16289 0.39873
 C572 C 0.67401 1.18231 0.37490
 C573 C 0.60857 1.12114 0.41640
 C574 C 0.57318 1.11124 0.41395
 H575 H 0.67134 1.19154 0.29275
 H576 H 0.62069 1.16042 0.31183
 H577 H 0.59081 1.12640 0.35272
 H578 H 0.66700 1.16315 0.42286
 H579 H 0.69788 1.19674 0.38121
 H580 H 0.62439 1.11121 0.43624
 H581 H 0.71260 1.23706 0.34286
 H582 H 0.55659 1.12307 0.39552
 C583 C 0.77454 0.70594 0.19959
 C584 C 0.79597 0.67488 0.20014
 C585 C 0.81734 0.66057 0.17338
 C586 C 0.84081 0.63200 0.18017
 C587 C 0.86212 0.61727 0.15652
 C588 C 0.86027 0.63032 0.12503
 C589 C 0.83712 0.65927 0.11813
 C590 C 0.81567 0.67421 0.14201
 C591 C 0.88312 0.61482 0.09968
 C592 C 0.89622 0.57935 0.10151
 H593 H 0.79855 0.66042 0.22255
 H594 H 0.84306 0.62118 0.20413
 H595 H 0.88056 0.59613 0.16335
 H596 H 0.83543 0.67013 0.09416
 H597 H 0.79794 0.69616 0.13573
 H598 H 0.88984 0.63158 0.07943
 H599 H 0.77122 0.72177 0.17809
 H600 H 0.88745 0.56168 0.12042
 C601 C 0.28550 1.22086 0.69328
 C602 C 0.31676 1.20064 0.69466
 C603 C 0.33240 1.17998 0.66784
 C604 C 0.36402 1.16123 0.67384
 C605 C 0.37894 1.13893 0.65070
 C606 C 0.36286 1.13504 0.62048
 C607 C 0.33121 1.15387 0.61430
 C608 C 0.31607 1.17619 0.63768
 C609 C 0.37751 1.11009 0.59594
 C610 C 0.41245 1.09799 0.59695
 H611 H 0.32973 1.19774 0.71768
 H612 H 0.37694 1.16310 0.69696
 H613 H 0.40246 1.12395 0.65727
 H614 H 0.31797 1.15103 0.59142
 H615 H 0.29139 1.18963 0.63212
 H616 H 0.36017 1.10030 0.57714
 H617 H 0.27182 1.22526 0.67090
 H618 H 0.43065 1.10904 0.61438
 C619 C 0.78847 0.26356 -0.19264
 C620 C 0.81893 0.28501 -0.19292
 C621 C 0.83354 0.30568 -0.16546
 C622 C 0.85670 0.33432 -0.17208
 C623 C 0.87149 0.35504 -0.14755
 C624 C 0.86366 0.34758 -0.11554
 C625 C 0.84104 0.31846 -0.10870
 C626 C 0.82579 0.29783 -0.13345
 C627 C 0.88051 0.36870 -0.08932
 C628 C 0.89042 0.40493 -0.09330
 H629 H 0.83136 0.28983 -0.21569
 H630 H 0.86343 0.34079 -0.19647
 H631 H 0.88977 0.37634 -0.15378
 H632 H 0.83506 0.31179 -0.08419
 H633 H 0.80856 0.27556 -0.12740
 H634 H 0.88596 0.35524 -0.06683
 H635 H 0.77439 0.25904 -0.17072
 H636 H 0.88235 0.41928 -0.11469
 C637 C 0.28256 0.77122 0.31115
 C638 C 0.28277 0.80848 0.31770
 C639 C 0.30175 0.82559 0.34480
 C640 C 0.31265 0.86172 0.34127
 C641 C 0.33188 0.87902 0.36533
 C642 C 0.34029 0.86076 0.39381
 C643 C 0.32804 0.82515 0.39816
 C644 C 0.30919 0.80746 0.37366
 C645 C 0.36229 0.87888 0.41848
 C646 C 0.39158 0.89904 0.40943
 H647 H 0.27119 0.82677 0.30026
 H648 H 0.30688 0.87645 0.31946
 H649 H 0.34023 0.90680 0.36165
 H650 H 0.33387 0.81075 0.42011
 H651 H 0.30037 0.77989 0.37744
 H652 H 0.35613 0.87558 0.44347
 H653 H 0.29501 0.75226 0.32745
 H654 H 0.39939 0.89859 0.38465
 C655 C 1.20966 1.20970 0.29367
 C656 C 1.18539 1.22469 0.31469
 C657 C 1.17137 1.20391 0.34191
 C658 C 1.13818 1.21287 0.35411
 C659 C 1.12386 1.19268 0.37905
 C660 C 1.14278 1.16338 0.39246
 C661 C 1.17693 1.15600 0.38167
 C662 C 1.19108 1.17594 0.35656
 C663 C 1.12674 1.13866 0.41598
 C664 C 1.09125 1.12939 0.41367
 H665 H 1.17639 1.25236 0.31121
 H666 H 1.12294 1.23495 0.34380
 H667 H 1.09788 1.19978 0.38757
 H668 H 1.19220 1.13392 0.39194
 H669 H 1.21743 1.16936 0.34869
 H670 H 1.14393 1.12288 0.43150
 H671 H 1.21594 1.18106 0.29522
 H672 H 1.07469 1.14240 0.39584
 C673 C 0.69952 0.70959 -0.21346
 C674 C 0.69941 0.70951 -0.18041
 C675 C 0.67313 0.68912 -0.16213
 C676 C 0.67731 0.68630 -0.12896
 C677 C 0.65363 0.66595 -0.11108
 C678 C 0.62532 0.64807 -0.12619
 C679 C 0.62041 0.65202 -0.15919
 C680 C 0.64419 0.67218 -0.17710
 C681 C 0.60090 0.62455 -0.10856
 C682 C 0.61077 0.60593 -0.08095
 H683 H 0.71990 0.72388 -0.16747
 H684 H 0.69920 0.69952 -0.11691
 H685 H 0.65755 0.66441 -0.08553
 H686 H 0.59859 0.63872 -0.17128
 H687 H 0.64003 0.67421 -0.20262
 H688 H 0.57557 0.61861 -0.11957
 H689 H 0.71609 0.72187 -0.22346
 H690 H 0.63667 0.60956 -0.07038
 C691 C 0.79171 1.18630 0.69669
 C692 C 0.82110 1.19583 0.67884
 C693 C 0.83429 1.17460 0.65141
 C694 C 0.86743 1.18344 0.63911
 C695 C 0.88128 1.16409 0.61347
 C696 C 0.86228 1.13527 0.59960
 C697 C 0.82831 1.12768 0.61065
 C698 C 0.81437 1.14712 0.63634
 C699 C 0.87827 1.11161 0.57507
 C700 C 0.91411 1.10344 0.57643
 H701 H 0.83500 1.22055 0.68494
 H702 H 0.88289 1.20517 0.64960
 H703 H 0.90702 1.17159 0.60473
 H704 H 0.81295 1.10598 0.60000
 H705 H 0.78807 1.14047 0.64409
 H706 H 0.86129 1.09660 0.55887
 H707 H 0.77888 1.16045 0.69299
 H708 H 0.93033 1.11535 0.59506
 C709 C 0.30557 0.68909 0.20633
 C710 C 0.33627 0.70018 0.19124
 C711 C 0.35192 0.67920 0.16488
 C712 C 0.38805 0.68246 0.15874
 C713 C 0.40331 0.66316 0.13365
 C714 C 0.38248 0.64062 0.11400
 C715 C 0.34609 0.63867 0.11928
 C716 C 0.33092 0.65763 0.14454
 C717 C 0.39791 0.61839 0.08828
 C718 C 0.43167 0.60366 0.09086
 H719 H 0.34858 0.72555 0.19812
 H720 H 0.40453 0.69970 0.17358
 H721 H 0.43129 0.66616 0.12955
 H722 H 0.32945 0.62192 0.10416
 H723 H 0.30268 0.65577 0.14774
 H724 H 0.38090 0.60976 0.06880
 H725 H 0.29536 0.66214 0.20186
 H726 H 0.44787 0.60941 0.11165
 C727 C 1.19239 0.80238 0.71324
 C728 C 1.19256 0.79993 0.68004
 C729 C 1.16825 0.82073 0.65908
 C730 C 1.17701 0.82528 0.62691
 C731 C 1.15499 0.84511 0.60638
 C732 C 1.12362 0.86084 0.61770
 C733 C 1.11423 0.85505 0.64957
 C734 C 1.13622 0.83520 0.67008
 C735 C 1.10020 0.88363 0.59743
 C736 C 1.11098 0.90014 0.56925
 H737 H 1.21171 0.78257 0.66865
 H738 H 1.20118 0.81372 0.61769
 H739 H 1.16269 0.84774 0.58175
 H740 H 1.08993 0.86631 0.65879
 H741 H 1.12772 0.83103 0.69432
 H742 H 1.07422 0.89010 0.60641
 H743 H 1.17495 0.82138 0.72487
 H744 H 1.13717 0.89566 0.56008
 C745 C 0.69125 0.30597 0.21373
 C746 C 0.69269 0.30583 0.18049
 C747 C 0.66514 0.32199 0.15965
 C748 C 0.66331 0.31102 0.12760
 C749 C 0.63775 0.32555 0.10699
 C750 C 0.61357 0.35149 0.11814
 C751 C 0.61501 0.36204 0.15025
 C752 C 0.64073 0.34778 0.17077
 C753 C 0.58734 0.36910 0.09694
 C754 C 0.59358 0.37572 0.06477
 H755 H 0.71354 0.29075 0.16900
 H756 H 0.68164 0.29098 0.11850
 H757 H 0.63686 0.31626 0.08251
 H758 H 0.59675 0.38217 0.15930
 H759 H 0.64160 0.35770 0.19502
 H760 H 0.56483 0.38202 0.10801
 H761 H 0.66991 0.31950 0.22583
 H762 H 0.61707 0.36522 0.05353
 C763 C 0.79154 0.77523 0.31125
 C764 C 0.80580 0.80928 0.30509
 C765 C 0.82791 0.82888 0.32857
 C766 C 0.85265 0.85404 0.31762
 C767 C 0.87360 0.87350 0.33919
 C768 C 0.86994 0.86830 0.37224
 C769 C 0.84462 0.84373 0.38319
 C770 C 0.82384 0.82406 0.36161
 C771 C 0.89059 0.88958 0.39572
 C772 C 0.92331 0.90460 0.38884
 H773 H 0.80152 0.82160 0.28190
 H774 H 0.85577 0.85865 0.29229
 H775 H 0.89191 0.89320 0.32986
 H776 H 0.84083 0.83982 0.40854
 H777 H 0.80410 0.80584 0.37090
 H778 H 0.87964 0.89353 0.41925
 H779 H 0.79780 0.76155 0.33340
 H780 H 0.93600 0.89883 0.36640
 C781 C 0.28206 0.29838 -0.19649
 C782 C 0.31277 0.29075 -0.17925
 C783 C 0.32763 0.31588 -0.15530
 C784 C 0.36388 0.31434 -0.14865
 C785 C 0.37925 0.33899 -0.12746
 C786 C 0.35850 0.36553 -0.11238
 C787 C 0.32190 0.36556 -0.11738
 C788 C 0.30652 0.34101 -0.13877
 C789 C 0.37478 0.39414 -0.09254
 C790 C 0.40723 0.40875 -0.10068
 H791 H 0.32742 0.26619 -0.18450
 H792 H 0.38050 0.29461 -0.16049
 H793 H 0.40742 0.33745 -0.12312
 H794 H 0.30538 0.38535 -0.10552
 H795 H 0.27821 0.34185 -0.14229
 H796 H 0.35977 0.40619 -0.07337
 H797 H 0.26856 0.32405 -0.19338
 H798 H 0.42072 0.39897 -0.12166
 C799 C 1.20516 0.26547 -0.18082
 C800 C 1.17179 0.28165 -0.18348
 C801 C 1.15486 0.30415 -0.15868
 C802 C 1.12843 0.32858 -0.16850
 C803 C 1.11157 0.35093 -0.14653
 C804 C 1.12060 0.34925 -0.11400
 C805 C 1.14656 0.32431 -0.10393
 C806 C 1.16384 0.30211 -0.12610
 C807 C 1.10171 0.37163 -0.09025
 C808 C 1.08650 0.40517 -0.09789
 H809 H 1.15864 0.28130 -0.20654
 H810 H 1.12078 0.33051 -0.19342
 H811 H 1.09085 0.36884 -0.15507
 H812 H 1.15353 0.32211 -0.07889
 H813 H 1.18362 0.28312 -0.11759
 H814 H 1.09933 0.36122 -0.06620
 H815 H 1.21974 0.26631 -0.15855
 H816 H 1.09135 0.41749 -0.12085
 C817 C 0.70822 0.76447 0.32781
 C818 C 0.67209 0.77019 0.33163
 C819 C 0.65652 0.79399 0.35635
 C820 C 0.61962 0.79549 0.35861
 C821 C 0.60335 0.82054 0.37875
 C822 C 0.62373 0.84490 0.39698
 C823 C 0.66062 0.84228 0.39596
 C824 C 0.67694 0.81731 0.37570
 C825 C 0.60740 0.87378 0.41653
 C826 C 0.57470 0.88910 0.40890
 H827 H 0.65415 0.75863 0.31410
 H828 H 0.60323 0.77775 0.34416
 H829 H 0.57485 0.82086 0.37977
 H830 H 0.67688 0.86058 0.40999
 H831 H 0.70539 0.81753 0.37462
 H832 H 0.62287 0.88549 0.43581
 H833 H 0.72691 0.77355 0.34568
 H834 H 0.55981 0.87951 0.38844
 C835 C 0.79080 0.72343 -0.19128
 C836 C 0.78623 0.68662 -0.18405
 C837 C 0.80699 0.66570 -0.16001
 C838 C 0.82954 0.68192 -0.13723
 C839 C 0.85040 0.66032 -0.11681
 C840 C 0.84910 0.62214 -0.11880
 C841 C 0.82599 0.60619 -0.14101
 C842 C 0.80505 0.62764 -0.16113
 C843 C 0.87286 0.59799 -0.09996
 C844 C 0.89005 0.60800 -0.07171
 H845 H 0.76838 0.67108 -0.19906
 H846 H 0.83160 0.71110 -0.13527
 H847 H 0.86828 0.67366 -0.10034
 H848 H 0.82447 0.57690 -0.14313
 H849 H 0.78792 0.61430 -0.17832
 H850 H 0.87686 0.57063 -0.10882
 H851 H 0.80848 0.74014 -0.17727
 H852 H 0.88493 0.63414 -0.06090
 C853 C 0.28974 1.22522 0.31282
 C854 C 0.31918 1.20252 0.31472
 C855 C 0.33052 1.18331 0.34414
 C856 C 0.36535 1.17069 0.34617
 C857 C 0.37677 1.15015 0.37226
 C858 C 0.35349 1.14155 0.39709
 C859 C 0.31849 1.15395 0.39505
 C860 C 0.30710 1.17488 0.36894
 C861 C 0.36463 1.11708 0.42350
 C862 C 0.39985 1.11445 0.43302
 H863 H 0.33476 1.19832 0.29351
 H864 H 0.38373 1.17621 0.32716
 H865 H 0.40353 1.13986 0.37215
 H866 H 0.29985 1.14706 0.41348
 H867 H 0.27974 1.18321 0.36779
 H868 H 0.34555 1.09836 0.43323
 H869 H 0.27483 1.23110 0.33404
 H870 H 0.41853 1.13397 0.42396
 C871 C 1.22748 0.71299 0.17737
 C872 C 1.22166 0.67606 0.17153
 C873 C 1.19892 0.66133 0.14556
 C874 C 1.19931 0.62369 0.14015
 C875 C 1.17518 0.60763 0.11906
 C876 C 1.14973 0.62889 0.10302
 C877 C 1.15044 0.66675 0.10713
 C878 C 1.17460 0.68286 0.12833
 C879 C 1.12163 0.61233 0.08279
 C880 C 1.10901 0.57724 0.08804
 H881 H 1.23251 0.65652 0.18828
 H882 H 1.21787 0.60645 0.15291
 H883 H 1.17640 0.57853 0.11566
 H884 H 1.13131 0.68378 0.09488
 H885 H 1.17301 0.71187 0.13200
 H886 H 1.10830 0.62930 0.06531
 H887 H 1.21874 0.73323 0.16037
 H888 H 1.12021 0.56087 0.10703
 C889 C 0.71718 1.21977 0.67564
 C890 C 0.68131 1.21241 0.67188
 C891 C 0.66600 1.19232 0.64441
 C892 C 0.62927 1.19290 0.64007
 C893 C 0.61307 1.17072 0.61724
 C894 C 0.63330 1.14696 0.59849
 C895 C 0.67018 1.14774 0.60156
 C896 C 0.68645 1.16998 0.62445
 C897 C 0.61645 1.11985 0.57709
 C898 C 0.58418 1.10414 0.58468
 H899 H 0.66354 1.22008 0.69082
 H900 H 0.61291 1.20997 0.65496
 H901 H 0.58464 1.17179 0.61475
 H902 H 0.68634 1.12981 0.58728
 H903 H 0.71478 1.16817 0.62733
 H904 H 0.63130 1.10913 0.55723
 H905 H 0.73517 1.21462 0.65631
 H906 H 0.57076 1.11243 0.60615
 C907 C 0.77913 0.29106 0.19772
 C908 C 0.77898 0.32833 0.19120
 C909 C 0.80333 0.34659 0.16895
 C910 C 0.82211 0.32792 0.14522
 C911 C 0.84620 0.34642 0.12602
 C912 C 0.85183 0.38395 0.13011
 C913 C 0.83261 0.40251 0.15344
 C914 C 0.80847 0.38413 0.17242
 C915 C 0.87856 0.40435 0.11185
 C916 C 0.89203 0.39293 0.08268
 H917 H 0.76225 0.34578 0.20540
 H918 H 0.81849 0.29913 0.14140
 H919 H 0.86093 0.33099 0.10869
 H920 H 0.83647 0.43136 0.15716
 H921 H 0.79432 0.39924 0.19045
 H922 H 0.88758 0.43001 0.12159
 H923 H 0.79603 0.27277 0.18468
 H924 H 0.88198 0.36875 0.07115
 C925 C 0.27786 0.78152 0.69648
 C926 C 0.30126 0.81076 0.69694
 C927 C 0.31992 0.82507 0.66881
 C928 C 0.35031 0.84586 0.67420
 C929 C 0.36810 0.86174 0.64888
 C930 C 0.35588 0.85733 0.61733
 C931 C 0.32515 0.83690 0.61184
 C932 C 0.30738 0.82063 0.63733
 C933 C 0.37365 0.87587 0.59051
 C934 C 0.40954 0.88413 0.59184
 H935 H 0.30731 0.82350 0.71965
 H936 H 0.36018 0.85020 0.69824
 H937 H 0.39081 0.87846 0.65432
 H938 H 0.31481 0.83367 0.58782
 H939 H 0.28345 0.80560 0.63241
 H940 H 0.35799 0.88447 0.57010
 H941 H 0.27294 0.76664 0.67466
 H942 H 0.42566 0.87323 0.61103
 C943 C 0.27767 1.20922 -0.17981
 C944 C 0.30851 1.18834 -0.18147
 C945 C 0.32784 1.17159 -0.15437
 C946 C 0.35974 1.15398 -0.16118
 C947 C 0.37914 1.13666 -0.13727
 C948 C 0.36733 1.13672 -0.10561
 C949 C 0.33525 1.15412 -0.09863
 C950 C 0.31568 1.17164 -0.12276
 C951 C 0.38697 1.11671 -0.08033
 C952 C 0.42294 1.10916 -0.08284
 H953 H 0.32002 1.18419 -0.20475
 H954 H 0.36961 1.15313 -0.18533
 H955 H 0.40283 1.12232 -0.14408
 H956 H 0.32531 1.15406 -0.07451
 H957 H 0.29106 1.18460 -0.11658
 H958 H 0.37246 1.10609 -0.06027
 H959 H 0.26513 1.21476 -0.15731
 H960 H 0.43814 1.12165 -0.10154
 C961 C 0.76253 0.69361 0.32678
 C962 C 0.77441 0.65778 0.32658
 C963 C 0.79355 0.64094 0.35361
 C964 C 0.81772 0.61323 0.34682
 C965 C 0.83893 0.59863 0.37088
 C966 C 0.83617 0.61124 0.40239
 C967 C 0.81048 0.63729 0.40973
 C968 C 0.78941 0.65235 0.38543
 C969 C 0.86058 0.59746 0.42719
 C970 C 0.89594 0.59210 0.41993
 H971 H 0.77382 0.64283 0.30431
 H972 H 0.82104 0.60362 0.32259
 H973 H 0.85780 0.57766 0.36478
 H974 H 0.80754 0.64682 0.43401
 H975 H 0.77019 0.67288 0.39162
 H976 H 0.85074 0.59100 0.45066
 H977 H 0.76392 0.70956 0.34840
 H978 H 0.90572 0.60152 0.39720
 C979 C 0.72005 1.22152 0.19319
 C980 C 0.68477 1.21744 0.18383
 C981 C 0.67197 1.19401 0.15742
 C982 C 0.63581 1.19489 0.14988
 C983 C 0.62135 1.17052 0.12788
 C984 C 0.64280 1.14454 0.11294
 C985 C 0.67926 1.14489 0.11903
 C986 C 0.69378 1.16919 0.14125
 C987 C 0.62755 1.11625 0.09185
 C988 C 0.59413 1.10184 0.09716
 H989 H 0.66478 1.23126 0.19764
 H990 H 0.61844 1.21397 0.16165
 H991 H 0.59331 1.17186 0.12289
 H992 H 0.69635 1.12532 0.10754
 H993 H 0.72173 1.16741 0.14631
 H994 H 0.64412 1.10413 0.07379
 H995 H 0.74111 1.20958 0.17951
 H996 H 0.57865 1.11149 0.11700
 C997 C 1.21777 0.71489 0.69696
 C998 C 1.18276 0.71226 0.68658
 C999 C 1.17101 0.69207 0.65780
 C1000 C 1.13644 0.69773 0.64654
 C1001 C 1.12284 0.67701 0.62140
 C1002 C 1.14350 0.64989 0.60706
 C1003 C 1.17867 0.64547 0.61708
 C1004 C 1.19230 0.66613 0.64239
 C1005 C 1.12817 0.62440 0.58340
 C1006 C 1.09361 0.61221 0.58640
 H1007 H 1.16266 0.72625 0.70012
 H1008 H 1.11961 0.71779 0.65768
 H1009 H 1.09593 0.68185 0.61358
 H1010 H 1.19510 0.62479 0.60633
 H1011 H 1.21894 0.66056 0.65042
 H1012 H 1.14542 0.61119 0.56649
 H1013 H 1.23883 0.70284 0.68334
 H1014 H 1.07756 0.62249 0.60563
 C1015 C 0.73194 0.79709 -0.19526
 C1016 C 0.70925 0.82674 -0.20019
 C1017 C 0.68432 0.84217 -0.17684
 C1018 C 0.68472 0.83338 -0.14420
 C1019 C 0.65983 0.84890 -0.12369
 C1020 C 0.63415 0.87332 -0.13553
 C1021 C 0.63353 0.88138 -0.16814
 C1022 C 0.65843 0.86625 -0.18846
 C1023 C 0.60800 0.89156 -0.11494
 C1024 C 0.61410 0.89876 -0.08278
 H1025 H 0.70703 0.83768 -0.22411
 H1026 H 0.70413 0.81483 -0.13437
 H1027 H 0.66060 0.84142 -0.09875
 H1028 H 0.61403 0.89998 -0.17791
 H1029 H 0.65727 0.87333 -0.21353
 H1030 H 0.58498 0.90358 -0.12634
 H1031 H 0.73565 0.78537 -0.17188
 H1032 H 0.63785 0.88894 -0.07111
 C1033 C 1.23447 0.29579 0.30954
 C1034 C 1.21502 0.32794 0.30722
 C1035 C 1.19673 0.34560 0.33407
 C1036 C 1.17009 0.37079 0.32668
 C1037 C 1.15106 0.38766 0.35076
 C1038 C 1.15825 0.37974 0.38295
 C1039 C 1.18572 0.35553 0.39056
 C1040 C 1.20473 0.33833 0.36632
 C1041 C 1.13793 0.39748 0.40854
 C1042 C 1.10268 0.40708 0.40388
 H1043 H 1.21027 0.33936 0.28375
 H1044 H 1.16371 0.37727 0.30208
 H1045 H 1.13102 0.40729 0.34404
 H1046 H 1.19213 0.34958 0.41525
 H1047 H 1.22569 0.31978 0.37300
 H1048 H 1.15087 0.40328 0.43112
 H1049 H 1.23857 0.28280 0.33235
 H1050 H 1.08895 0.39853 0.38239
 C1051 C 0.29392 0.77590 0.18474
 C1052 C 0.32217 0.79954 0.19056
 C1053 C 0.34672 0.81400 0.16660
 C1054 C 0.33855 0.81628 0.13390
 C1055 C 0.36202 0.83324 0.11298
 C1056 C 0.39398 0.84809 0.12452
 C1057 C 0.40251 0.84423 0.15692
 C1058 C 0.37910 0.82768 0.17770
 C1059 C 0.41856 0.86912 0.10443
 C1060 C 0.40888 0.88568 0.07579
 H1061 H 0.32828 0.80666 0.21508
 H1062 H 0.31377 0.80606 0.12460
 H1063 H 0.35484 0.83487 0.08801
 H1064 H 0.42696 0.85514 0.16647
 H1065 H 0.38617 0.82605 0.20277
 H1066 H 0.44434 0.87531 0.11443
 H1067 H 0.28742 0.76698 0.16083
 H1068 H 0.38323 0.88090 0.06515
 C1069 C 0.78652 0.27585 0.68062
 C1070 C 0.81767 0.29583 0.68375
 C1071 C 0.83727 0.31313 0.65752
 C1072 C 0.86894 0.33070 0.66544
 C1073 C 0.88828 0.34875 0.64233
 C1074 C 0.87657 0.34946 0.61041
 C1075 C 0.84493 0.33178 0.60231
 C1076 C 0.82545 0.31358 0.62559
 C1077 C 0.89540 0.37074 0.58593
 C1078 C 0.93055 0.38123 0.58959
 H1079 H 0.82898 0.29893 0.70744
 H1080 H 0.87857 0.33104 0.68987
 H1081 H 0.91170 0.36311 0.65001
 H1082 H 0.83511 0.33233 0.57796
 H1083 H 0.80111 0.30056 0.61845
 H1084 H 0.88058 0.38005 0.56524
 H1085 H 0.77410 0.27156 0.65765
 H1086 H 0.94655 0.37038 0.60885
 C1087 C 1.20948 1.18817 0.70888
 C1088 C 1.17660 1.19517 0.69509
 C1089 C 1.16344 1.17790 0.66552
 C1090 C 1.12867 1.18536 0.65579
 C1091 C 1.11474 1.16958 0.62822
 C1092 C 1.13533 1.14577 0.60991
 C1093 C 1.17069 1.13990 0.61852
 C1094 C 1.18472 1.15580 0.64610
 C1095 C 1.11987 1.12486 0.58325
 C1096 C 1.08525 1.11268 0.58459
 H1097 H 1.15998 1.21567 0.70581
 H1098 H 1.11207 1.20321 0.66973
 H1099 H 1.08774 1.17579 0.62151
 H1100 H 1.18716 1.12205 0.60446
 H1101 H 1.21209 1.15050 0.65188
 H1102 H 1.13720 1.11406 0.56513
 H1103 H 1.22580 1.16607 0.70061
 H1104 H 1.06868 1.12051 0.60432
 C1105 C 0.68809 0.69445 0.21677
 C1106 C 0.69628 0.66155 0.20215
 C1107 C 0.67228 0.64332 0.17943
 C1108 C 0.68665 0.62002 0.15651
 C1109 C 0.66476 0.60199 0.13477
 C1110 C 0.62797 0.60683 0.13575
 C1111 C 0.61355 0.62949 0.15915
 C1112 C 0.63546 0.64773 0.18076
 C1113 C 0.60396 0.58730 0.11381
 C1114 C 0.61426 0.57513 0.08386
 H1115 H 0.72198 0.64942 0.20631
 H1116 H 0.71492 0.61581 0.15540
 H1117 H 0.67673 0.58371 0.11779
 H1118 H 0.58523 0.63308 0.16071
 H1119 H 0.62343 0.66455 0.19883
 H1120 H 0.57702 0.58292 0.12129
 H1121 H 0.66346 0.70816 0.21141
 H1122 H 0.64010 0.58156 0.07476
 C1123 C 1.20225 0.79404 0.27920
 C1124 C 1.19560 0.79341 0.31183
 C1125 C 1.17028 0.81780 0.32784
 C1126 C 1.17163 0.82011 0.36119
 C1127 C 1.14902 0.84342 0.37748
 C1128 C 1.12464 0.86522 0.36064
 C1129 C 1.12215 0.86174 0.32741
 C1130 C 1.14470 0.83826 0.31108
 C1131 C 1.10190 0.89198 0.37695
 C1132 C 1.11144 0.90750 0.40605
 H1133 H 1.21069 0.77506 0.32681
 H1134 H 1.19051 0.80404 0.37474
 H1135 H 1.15072 0.84406 0.40323
 H1136 H 1.10311 0.87771 0.31397
 H1137 H 1.14173 0.83632 0.28549
 H1138 H 1.07843 0.90175 0.36468
 H1139 H 1.18926 0.81366 0.26393
 H1140 H 1.13592 0.89995 0.41775
 C1141 C 0.71190 0.29546 -0.21313
 C1142 C 0.67687 0.29095 -0.20422
 C1143 C 0.66009 0.31268 -0.17894
 C1144 C 0.62319 0.31525 -0.17845
 C1145 C 0.60638 0.33574 -0.15501
 C1146 C 0.62629 0.35393 -0.13148
 C1147 C 0.66309 0.35002 -0.13113
 C1148 C 0.67991 0.32965 -0.15463
 C1149 C 0.60968 0.37743 -0.10728
 C1150 C 0.57785 0.39545 -0.11282
 H1151 H 0.66086 0.27089 -0.21645
 H1152 H 0.60734 0.30164 -0.19645
 H1153 H 0.57786 0.33699 -0.15532
 H1154 H 0.67893 0.36325 -0.11289
 H1155 H 0.70831 0.32696 -0.15337
 H1156 H 0.62460 0.38359 -0.08577
 H1157 H 0.72754 0.31724 -0.20307
 H1158 H 0.56361 0.39178 -0.13507
 C1159 C 0.78711 1.21092 0.30484
 C1160 C 0.81443 1.22375 0.32419
 C1161 C 0.83092 1.20111 0.34931
 C1162 C 0.86596 1.20776 0.35844
 C1163 C 0.88284 1.18540 0.38080
 C1164 C 0.86475 1.15610 0.39458
 C1165 C 0.82899 1.15105 0.38713
 C1166 C 0.81218 1.17328 0.36463
 C1167 C 0.88296 1.12935 0.41527
 C1168 C 0.91788 1.11959 0.40989
 H1169 H 0.82460 1.25086 0.32039
 H1170 H 0.88060 1.22968 0.34760
 H1171 H 0.91011 1.19085 0.38697
 H1172 H 0.81436 1.12908 0.39790
 H1173 H 0.78459 1.16851 0.35927
 H1174 H 0.86751 1.11353 0.43181
 H1175 H 0.77883 1.18290 0.30667
 H1176 H 0.93262 1.13308 0.39140
 C1177 C 0.28621 0.71026 -0.19133
 C1178 C 0.31530 0.72384 -0.17460
 C1179 C 0.33310 0.70348 -0.14865
 C1180 C 0.36847 0.71115 -0.14133
 C1181 C 0.38647 0.69136 -0.11780
 C1182 C 0.36922 0.66365 -0.10099
 C1183 C 0.33326 0.65754 -0.10695
 C1184 C 0.31532 0.67718 -0.13059
 C1185 C 0.38825 0.63954 -0.07842
 C1186 C 0.42345 0.63005 -0.08287
 H1187 H 0.32597 0.75002 -0.18118
 H1188 H 0.38244 0.73197 -0.15433
 H1189 H 0.41387 0.69769 -0.11299
 H1190 H 0.31925 0.63676 -0.09394
 H1191 H 0.28760 0.67170 -0.13456
 H1192 H 0.37302 0.62467 -0.06104
 H1193 H 0.27694 0.68302 -0.18678
 H1194 H 0.43827 0.64239 -0.10191
 C1195 C 0.81846 0.80031 0.70465
 C1196 C 0.81918 0.80204 0.67139
 C1197 C 0.84653 0.82125 0.65294
 C1198 C 0.84833 0.81484 0.61998
 C1199 C 0.87272 0.83328 0.60124
 C1200 C 0.89577 0.85874 0.61513
 C1201 C 0.89467 0.86446 0.64818
 C1202 C 0.87014 0.84620 0.66691
 C1203 C 0.92054 0.88042 0.59594
 C1204 C 0.91371 0.88983 0.56425
 H1205 H 0.79927 0.78753 0.65788
 H1206 H 0.83068 0.79556 0.60863
 H1207 H 0.87348 0.82741 0.57597
 H1208 H 0.91219 0.88395 0.65942
 H1209 H 0.86945 0.85253 0.69205
 H1210 H 0.94274 0.89289 0.60816
 H1211 H 0.83882 0.81309 0.71887
 H1212 H 0.89030 0.87994 0.55215
 C1213 C 0.31054 0.29708 0.20301
 C1214 C 0.31065 0.29517 0.16977
 C1215 C 0.33549 0.31583 0.14979
 C1216 C 0.32635 0.32293 0.11789
 C1217 C 0.34886 0.34288 0.09838
 C1218 C 0.38115 0.35607 0.11048
 C1219 C 0.39078 0.34783 0.14207
 C1220 C 0.36828 0.32794 0.16155
 C1221 C 0.40544 0.37854 0.09133
 C1222 C 0.39554 0.39690 0.06352
 H1223 H 0.29059 0.27943 0.15762
 H1224 H 0.30150 0.31333 0.10811
 H1225 H 0.34084 0.34757 0.07392
 H1226 H 0.41573 0.35715 0.15186
 H1227 H 0.37692 0.32183 0.18562
 H1228 H 0.43174 0.38302 0.10091
 H1229 H 0.32883 0.31478 0.21537
 H1230 H 0.36922 0.39437 0.05366
   
