data_POSCAR
  _audit_creation_date              2014-09-24
  _audit_creation_method            'ToBaCCo'
  _symmetry_space_group_name_H-M    'P1'
  _symmetry_Int_Tables_number       1
  _symmetry_cell_setting            triclinic
  loop_
  _symmetry_equiv_pos_as_xyz
 x,y,z
_cell_length_a 57.1129
_cell_length_b 57.2136
_cell_length_c 57.1893
_cell_angle_alpha 89.996400
_cell_angle_beta 90.001100
_cell_angle_gamma 89.992300
loop_
  _atom_site_label
  _atom_site_type_symbol
  _atom_site_fract_x
  _atom_site_fract_y
  _atom_site_fract_z
C1 C 0.26882 1.06884 -0.01280
 C2 C 0.26928 1.06920 0.01116
 C3 C 0.25812 1.04898 0.01870
 N4 N 0.25144 1.03603 0.00006
 C5 C 0.25783 1.04825 -0.01914
 C6 C 0.25319 1.04289 0.04226
 C7 C 0.24755 1.01942 0.04813
 C8 C 0.23527 1.01224 0.06786
 C9 C 0.23518 0.98822 0.06771
 C10 C 0.24705 0.98134 0.04776
 N11 N 0.25425 1.00039 0.03573
 C12 C 0.25254 0.95804 0.04188
 C13 C 0.25809 0.95147 0.01881
 C14 C 0.26917 0.93094 0.01246
 C15 C 0.26962 0.93057 -0.01150
 C16 C 0.25836 0.95075 -0.01904
 N17 N 0.25163 0.96367 -0.00039
 C18 C 0.25338 0.95681 -0.04259
 C19 C 0.24763 0.98026 -0.04847
 C20 C 0.23532 0.98738 -0.06819
 C21 C 0.23510 1.01140 -0.06805
 C22 C 0.24693 1.01833 -0.04810
 N23 N 0.25424 0.99932 -0.03607
 C24 C 0.25229 1.04166 -0.04221
 H25 H 0.27607 1.08205 -0.02424
 H26 H 0.27739 1.08269 0.02163
 H27 H 0.26531 0.99945 -0.02157
 H28 H 0.22692 1.02305 0.08093
 H29 H 0.22715 0.97711 0.08076
 H30 H 0.27650 0.91775 0.02390
 H31 H 0.27779 0.91712 -0.02197
 H32 H 0.22701 1.02247 -0.08109
 H33 H 0.26533 1.00031 0.02123
 H34 H 0.22701 0.97653 -0.08127
 C35 C 0.75242 0.48828 0.57356
 C36 C 0.75115 0.51216 0.57358
 C37 C 0.75115 0.51917 0.55036
 N38 N 0.75207 0.50026 0.53623
 C39 C 0.75277 0.48131 0.55034
 C40 C 0.75085 0.54274 0.54283
 C41 C 0.75112 0.54994 0.51909
 C42 C 0.75500 0.57280 0.51197
 C43 C 0.75477 0.57281 0.48800
 C44 C 0.75079 0.54996 0.48093
 N45 N 0.74825 0.53615 0.50003
 C46 C 0.75018 0.54277 0.45721
 C47 C 0.75076 0.51921 0.44965
 C48 C 0.75082 0.51223 0.42642
 C49 C 0.75250 0.48837 0.42640
 C50 C 0.75298 0.48138 0.44962
 N51 N 0.75200 0.50029 0.46376
 C52 C 0.75375 0.45781 0.45715
 C53 C 0.75341 0.45057 0.48087
 C54 C 0.74972 0.42767 0.48793
 C55 C 0.74953 0.42766 0.51189
 C56 C 0.75314 0.45055 0.51904
 N57 N 0.75583 0.46439 0.49997
 C58 C 0.75322 0.45776 0.54277
 H59 H 0.75294 0.47737 0.58901
 H60 H 0.75038 0.52304 0.58903
 H61 H 0.76054 0.48188 0.50000
 H62 H 0.75827 0.58792 0.52286
 H63 H 0.75785 0.58793 0.47706
 H64 H 0.74986 0.52311 0.41098
 H65 H 0.75318 0.47750 0.41094
 H66 H 0.74643 0.41249 0.52277
 H67 H 0.74326 0.51873 0.50005
 H68 H 0.74678 0.41252 0.47698
 C69 C 0.76487 0.93123 0.98798
 C70 C 0.76486 0.93097 1.01195
 C71 C 0.75356 0.95122 1.01919
 N72 N 0.74720 0.96407 1.00037
 C73 C 0.75395 0.95177 0.98134
 C74 C 0.74829 0.95744 1.04263
 C75 C 0.74296 0.98102 1.04838
 C76 C 0.73080 0.98849 1.06807
 C77 C 0.73116 1.01251 1.06786
 C78 C 0.74312 1.01910 1.04787
 N79 N 0.74998 0.99989 1.03591
 C80 C 0.74898 1.04227 1.04188
 C81 C 0.75424 1.04871 1.01870
 C82 C 0.76534 1.06917 1.01210
 C83 C 0.76542 1.06944 0.98814
 C84 C 0.75400 1.04926 0.98086
 N85 N 0.74748 1.03646 0.99965
 C86 C 0.74877 1.04308 0.95739
 C87 C 0.74329 1.01954 0.95162
 C88 C 0.73116 1.01217 0.93188
 C89 C 0.73133 0.98815 0.93209
 C90 C 0.74315 0.98146 0.95213
 N91 N 0.75012 1.00062 0.96411
 C92 C 0.74880 0.95824 0.95814
 H93 H 0.77237 0.91798 0.97676
 H94 H 0.77279 0.91754 1.02265
 H95 H 0.76114 1.00067 0.97865
 H96 H 0.72225 0.97789 1.08119
 H97 H 0.72335 1.02382 1.08087
 H98 H 0.77290 1.08237 1.02336
 H99 H 0.77347 1.08280 0.97747
 H100 H 0.72348 0.97690 0.91905
 H101 H 0.76107 0.99975 1.02142
 H102 H 0.72273 1.02283 0.91872
 C103 C 0.24682 0.51184 0.57341
 C104 C 0.24815 0.48796 0.57343
 C105 C 0.24823 0.48095 0.55022
 N106 N 0.24730 0.49987 0.53608
 C107 C 0.24651 0.51881 0.55019
 C108 C 0.24864 0.45739 0.54268
 C109 C 0.24841 0.45018 0.51895
 C110 C 0.24465 0.42731 0.51182
 C111 C 0.24488 0.42730 0.48785
 C112 C 0.24874 0.45017 0.48078
 N113 N 0.25122 0.46400 0.49988
 C114 C 0.24931 0.45737 0.45705
 C115 C 0.24863 0.48092 0.44949
 C116 C 0.24849 0.48790 0.42627
 C117 C 0.24676 0.51176 0.42625
 C118 C 0.24632 0.51875 0.44946
 N119 N 0.24738 0.49984 0.46360
 C120 C 0.24554 0.54232 0.45699
 C121 C 0.24589 0.54955 0.48071
 C122 C 0.24959 0.57245 0.48778
 C123 C 0.24977 0.57246 0.51174
 C124 C 0.24615 0.54957 0.51888
 N125 N 0.24346 0.53573 0.49982
 C126 C 0.24604 0.54237 0.54262
 H127 H 0.24622 0.52274 0.58886
 H128 H 0.24890 0.47708 0.58888
 H129 H 0.23874 0.51825 0.49985
 H130 H 0.24145 0.41218 0.52271
 H131 H 0.24187 0.41216 0.47691
 H132 H 0.24944 0.47703 0.41083
 H133 H 0.24602 0.52263 0.41079
 H134 H 0.25287 0.58762 0.52262
 H135 H 0.25612 0.48144 0.49989
 H136 H 0.25255 0.58760 0.47683
 C137 C 1.06797 0.23139 -0.01157
 C138 C 1.06807 0.23191 0.01238
 C139 C 1.04881 0.24502 0.01915
 N140 N 1.03672 0.25221 0.00009
 C141 C 1.04866 0.24424 -0.01873
 C142 C 1.04275 0.25093 0.04245
 C143 C 1.01920 0.25658 0.04803
 C144 C 1.01165 0.26894 0.06756
 C145 C 0.98758 0.26828 0.06742
 C146 C 0.98108 0.25595 0.04763
 N147 N 1.00037 0.24921 0.03570
 C148 C 0.95797 0.24960 0.04179
 C149 C 0.95169 0.24397 0.01866
 C150 C 0.93137 0.23259 0.01203
 C151 C 0.93124 0.23237 -0.01195
 C152 C 0.95135 0.24397 -0.01917
 N153 N 0.96399 0.25072 -0.00036
 C154 C 0.95752 0.24956 -0.04252
 C155 C 0.98103 0.25552 -0.04797
 C156 C 0.98817 0.26918 -0.06672
 C157 C 1.01222 0.26925 -0.06658
 C158 C 1.01921 0.25567 -0.04774
 N159 N 1.00009 0.24787 -0.03611
 C160 C 1.04261 0.24959 -0.04215
 H161 H 1.08036 0.22199 -0.02233
 H162 H 1.08054 0.22294 0.02344
 H163 H 1.00011 0.23599 -0.02226
 H164 H 1.02220 0.27772 0.08056
 H165 H 0.97618 0.27608 0.08037
 H166 H 0.91816 0.22501 0.02327
 H167 H 0.91797 0.22418 -0.02266
 H168 H 1.02321 0.27866 -0.07878
 H169 H 1.00066 0.23793 0.02138
 H170 H 0.97729 0.27858 -0.07901
 C171 C 0.48781 0.76408 0.57110
 C172 C 0.51182 0.76437 0.57114
 C173 C 0.51890 0.75633 0.54940
 N174 N 0.50004 0.75120 0.53607
 C175 C 0.48102 0.75591 0.54932
 C176 C 0.54235 0.75249 0.54259
 C177 C 0.54883 0.74795 0.51917
 C178 C 0.57007 0.73846 0.51225
 C179 C 0.57010 0.73829 0.48821
 C180 C 0.54888 0.74770 0.48109
 N181 N 0.53598 0.75347 0.50008
 C182 C 0.54250 0.75201 0.45760
 C183 C 0.51914 0.75621 0.45070
 C184 C 0.51230 0.76442 0.42894
 C185 C 0.48828 0.76458 0.42890
 C186 C 0.48126 0.75643 0.45062
 N187 N 0.50014 0.75135 0.46393
 C188 C 0.45783 0.75243 0.45741
 C189 C 0.45138 0.74774 0.48081
 C190 C 0.43020 0.73811 0.48770
 C191 C 0.43018 0.73783 0.51173
 C192 C 0.45133 0.74734 0.51888
 N193 N 0.46420 0.75326 0.49992
 C194 C 0.45768 0.75161 0.54239
 H195 H 0.47667 0.76939 0.58545
 H196 H 0.52277 0.76994 0.58554
 H197 H 0.47963 0.76294 0.50003
 H198 H 0.58413 0.73229 0.52334
 H199 H 0.58419 0.73195 0.47726
 H200 H 0.52341 0.76985 0.41461
 H201 H 0.47731 0.77015 0.41452
 H202 H 0.41613 0.73137 0.52266
 H203 H 0.52049 0.76305 0.50001
 H204 H 0.41618 0.73189 0.47658
 C205 C -0.01153 0.76828 -0.06802
 C206 C 0.01245 0.76780 -0.06808
 C207 C 0.01921 0.75475 -0.04879
 N208 N 0.00012 0.74757 -0.03674
 C209 C -0.01872 0.75548 -0.04872
 C210 C 0.04254 0.74888 -0.04269
 C211 C 0.04810 0.74330 -0.01915
 C212 C 0.06765 0.73099 -0.01153
 C213 C 0.06748 0.73170 0.01250
 C214 C 0.04763 0.74403 0.01892
 N215 N 0.03571 0.75070 -0.00038
 C216 C 0.04174 0.75043 0.04197
 C217 C 0.01856 0.75605 0.04820
 C218 C 0.01187 0.76746 0.06845
 C219 C -0.01214 0.76766 0.06854
 C220 C -0.01932 0.75600 0.04847
 N221 N -0.00046 0.74924 0.03590
 C222 C -0.04268 0.75037 0.04227
 C223 C -0.04808 0.74433 0.01881
 C224 C -0.06682 0.73062 0.01168
 C225 C -0.06664 0.73049 -0.01234
 C226 C -0.04778 0.74409 -0.01932
 N227 N -0.03619 0.75195 -0.00022
 C228 C -0.04217 0.75013 -0.04269
 H229 H -0.02230 0.77765 -0.08044
 H230 H 0.02354 0.77674 -0.08053
 H231 H -0.02234 0.76386 -0.00025
 H232 H 0.08071 0.72220 -0.02203
 H233 H 0.08043 0.72395 0.02392
 H234 H 0.02309 0.77509 0.08165
 H235 H -0.02290 0.77586 0.08176
 H236 H -0.07882 0.72104 -0.02332
 H237 H 0.02135 0.76197 -0.00072
 H238 H -0.07913 0.72123 0.02255
 C239 C 0.57115 0.23633 0.51248
 C240 C 0.57121 0.23607 0.48849
 C241 C 0.54945 0.24413 0.48142
 N242 N 0.53608 0.24925 0.50025
 C243 C 0.54933 0.24451 0.51925
 C244 C 0.54264 0.24799 0.45800
 C245 C 0.51921 0.25259 0.45152
 C246 C 0.51230 0.26213 0.43032
 C247 C 0.48823 0.26233 0.43027
 C248 C 0.48108 0.25289 0.45144
 N249 N 0.50007 0.24708 0.46434
 C250 C 0.45754 0.24857 0.45777
 C251 C 0.45060 0.24435 0.48108
 C252 C 0.42880 0.23615 0.48788
 C253 C 0.42873 0.23595 0.51186
 C254 C 0.45048 0.24407 0.51891
 N255 N 0.46383 0.24918 0.50007
 C256 C 0.45727 0.24801 0.54232
 C257 C 0.48070 0.25268 0.54879
 C258 C 0.48758 0.26227 0.56997
 C259 C 0.51165 0.26253 0.57001
 C260 C 0.51883 0.25305 0.54887
 N261 N 0.49985 0.24717 0.53599
 C262 C 0.54237 0.24876 0.54255
 H263 H 0.58550 0.23099 0.52361
 H264 H 0.58564 0.23050 0.47757
 H265 H 0.49996 0.23752 0.52057
 H266 H 0.52342 0.26831 0.41630
 H267 H 0.47729 0.26870 0.41621
 H268 H 0.41446 0.23075 0.47676
 H269 H 0.41432 0.23037 0.52280
 H270 H 0.52258 0.26896 0.58406
 H271 H 0.49998 0.23747 0.47978
 H272 H 0.47644 0.26847 0.58397
 C273 C 1.06857 -0.01227 0.26924
 C274 C 1.06856 0.01165 0.26951
 C275 C 1.04898 0.01877 0.25705
 N276 N 1.03678 -0.00009 0.24955
 C277 C 1.04898 -0.01911 0.25666
 C278 C 1.04281 0.04225 0.25200
 C279 C 1.01924 0.04809 0.24672
 C280 C 1.01178 0.06787 0.23473
 C281 C 0.98773 0.06788 0.23544
 C282 C 0.98111 0.04795 0.24749
 N283 N 1.00037 0.03581 0.25402
 C284 C 0.95784 0.04203 0.25333
 C285 C 0.95135 0.01890 0.25874
 C286 C 0.93013 0.01209 0.26831
 C287 C 0.93015 -0.01190 0.26852
 C288 C 0.95136 -0.01885 0.25903
 N289 N 0.96434 -0.00002 0.25320
 C290 C 0.95784 -0.04205 0.25389
 C291 C 0.98099 -0.04803 0.24769
 C292 C 0.98736 -0.06795 0.23551
 C293 C 1.01140 -0.06797 0.23435
 C294 C 1.01911 -0.04825 0.24629
 N295 N 1.00037 -0.03594 0.25393
 C296 C 1.04278 -0.04249 0.25122
 H297 H 1.08120 -0.02328 0.27805
 H298 H 1.08118 0.02245 0.27857
 H299 H 1.00087 -0.02146 0.26499
 H300 H 1.02242 0.08091 0.22610
 H301 H 0.97642 0.08098 0.22777
 H302 H 0.91606 0.02319 0.27442
 H303 H 0.91608 -0.02290 0.27480
 H304 H 1.02183 -0.08101 0.22547
 H305 H 1.00070 0.02130 0.26507
 H306 H 0.97589 -0.08100 0.22801
 C307 C 0.48783 0.57161 0.76406
 C308 C 0.51185 0.57164 0.76408
 C309 C 0.51881 0.54941 0.75742
 N310 N 0.49987 0.53591 0.75308
 C311 C 0.48091 0.54943 0.75717
 C312 C 0.54218 0.54248 0.75349
 C313 C 0.54880 0.51914 0.74881
 C314 C 0.57048 0.51230 0.74031
 C315 C 0.57053 0.48828 0.73991
 C316 C 0.54897 0.48105 0.74844
 N317 N 0.53584 0.49999 0.75381
 C318 C 0.54251 0.45752 0.75247
 C319 C 0.51913 0.45053 0.75655
 C320 C 0.51236 0.42866 0.76447
 C321 C 0.48835 0.42862 0.76488
 C322 C 0.48123 0.45046 0.75715
 N323 N 0.50007 0.46384 0.75208
 C324 C 0.45774 0.45731 0.75361
 C325 C 0.45116 0.48076 0.74938
 C326 C 0.42980 0.48770 0.74019
 C327 C 0.42974 0.51173 0.74010
 C328 C 0.45106 0.51885 0.74928
 N329 N 0.46404 0.49985 0.75486
 C330 C 0.45752 0.54239 0.75327
 H331 H 0.47679 0.58633 0.76848
 H332 H 0.52289 0.58643 0.76824
 H333 H 0.47964 0.49986 0.76425
 H334 H 0.58491 0.52341 0.73514
 H335 H 0.58494 0.47741 0.73420
 H336 H 0.52351 0.41425 0.76960
 H337 H 0.47744 0.41416 0.77036
 H338 H 0.41558 0.52267 0.73392
 H339 H 0.52011 0.49982 0.76296
 H340 H 0.41570 0.47664 0.73409
 C341 C 0.93018 0.98755 0.73181
 C342 C 0.93018 1.01154 0.73146
 C343 C 0.95140 1.01856 0.74090
 N344 N 0.96439 0.99976 0.74684
 C345 C 0.95140 0.98081 0.74142
 C346 C 0.95786 1.04178 0.74590
 C347 C 0.98101 1.04780 0.75207
 C348 C 0.98737 1.06778 0.76416
 C349 C 1.01141 1.06781 0.76531
 C350 C 1.01913 1.04804 0.75347
 N351 N 1.00040 1.03568 0.74589
 C352 C 1.04280 1.04226 0.74855
 C353 C 1.04902 1.01887 0.74323
 C354 C 1.06860 1.01197 0.73067
 C355 C 1.06860 0.98804 0.73052
 C356 C 1.04904 0.98098 0.74303
 N357 N 1.03683 0.99988 0.75044
 C358 C 1.04288 0.95752 0.74820
 C359 C 1.01932 0.95171 0.75355
 C360 C 1.01189 0.93201 0.76567
 C361 C 0.98784 0.93199 0.76499
 C362 C 0.98119 0.95184 0.75284
 N363 N 1.00043 0.96395 0.74620
 C364 C 0.95792 0.95772 0.74698
 H365 H 0.91611 0.97640 0.72579
 H366 H 0.91611 1.02250 0.72511
 H367 H 1.00074 0.97839 0.73507
 H368 H 0.97589 1.08086 0.77159
 H369 H 1.02183 1.08089 0.77413
 H370 H 1.08122 1.02294 0.72180
 H371 H 1.08122 0.97721 0.72150
 H372 H 0.97655 0.91893 0.77275
 H373 H 1.00090 1.02115 0.73490
 H374 H 1.02255 0.91902 0.77436
 C375 C 0.51175 0.57196 0.23718
 C376 C 0.48773 0.57185 0.23698
 C377 C 0.48085 0.54947 0.24319
 N378 N 0.49984 0.53601 0.24745
 C379 C 0.51876 0.54969 0.24372
 C380 C 0.45746 0.54233 0.24668
 C381 C 0.45085 0.51890 0.25089
 C382 C 0.42906 0.51191 0.25897
 C383 C 0.42911 0.48789 0.25917
 C384 C 0.45084 0.48080 0.25096
 N385 N 0.46397 0.49984 0.24592
 C386 C 0.45752 0.45726 0.24720
 C387 C 0.48097 0.45027 0.24352
 C388 C 0.48799 0.42802 0.23691
 C389 C 0.51201 0.42813 0.23672
 C390 C 0.51888 0.45049 0.24302
 N391 N 0.49990 0.46394 0.24731
 C392 C 0.54228 0.45761 0.24654
 C393 C 0.54888 0.48103 0.25085
 C394 C 0.57067 0.48798 0.25896
 C395 C 0.57062 0.51201 0.25925
 C396 C 0.54889 0.51913 0.25106
 N397 N 0.53577 0.50011 0.24594
 C398 C 0.54222 0.54268 0.24738
 H399 H 0.52273 0.58680 0.23306
 H400 H 0.47664 0.58665 0.23295
 H401 H 0.51990 0.50014 0.23706
 H402 H 0.41452 0.52293 0.26404
 H403 H 0.41466 0.47693 0.26462
 H404 H 0.47701 0.41319 0.23272
 H405 H 0.52310 0.41335 0.23264
 H406 H 0.58506 0.52295 0.26475
 H407 H 0.47984 0.49984 0.23705
 H408 H 0.58521 0.47695 0.26399
 O409 O 0.25057 0.18900 0.21724
 O410 O 0.27596 0.18215 0.24960
 O411 O 0.18922 0.21712 0.25108
 O412 O 0.18067 0.24745 0.27397
 O413 O 0.21749 0.25003 0.18913
 O414 O 0.24999 0.27556 0.18252
 O415 O 0.25046 0.28166 0.31038
 O416 O 0.22320 0.25037 0.31630
 O417 O 0.31045 0.25036 0.28203
 O418 O 0.31784 0.22403 0.24903
 O419 O 0.28205 0.30997 0.25055
 O420 O 0.24860 0.31719 0.22422
 O421 O 0.25063 0.30978 0.28227
 O422 O 0.22371 0.31683 0.24894
 O423 O 0.31030 0.28195 0.25046
 O424 O 0.31728 0.24833 0.22366
 O425 O 0.28240 0.25093 0.31025
 O426 O 0.25423 0.22413 0.31761
 O427 O 0.25050 0.21713 0.18910
 O428 O 0.27609 0.24977 0.18259
 O429 O 0.18936 0.24966 0.21732
 O430 O 0.18394 0.27673 0.25027
 O431 O 0.21733 0.18897 0.24978
 O432 O 0.25133 0.18183 0.27541
 Zr433 Zr 0.24914 0.20762 0.24896
 O434 O 0.27097 0.22772 0.27075
 Zr435 Zr 0.20803 0.24862 0.24908
 O436 O 0.22807 0.27042 0.27105
 Zr437 Zr 0.24914 0.24872 0.20791
 O438 O 0.27092 0.27064 0.22795
 Zr439 Zr 0.25076 0.25015 0.29156
 O440 O 0.22850 0.22789 0.27187
 Zr441 Zr 0.29168 0.25021 0.25037
 O442 O 0.27181 0.22806 0.22831
 Zr443 Zr 0.25040 0.29119 0.25051
 O444 O 0.22839 0.27124 0.22834
 O445 O 0.22738 0.22698 0.22724
 O446 O 0.27253 0.27215 0.27232
 C447 C 0.25112 0.19570 0.19580
 C448 C 0.19589 0.19568 0.25100
 C449 C 0.19602 0.25039 0.19586
 C450 C 0.25056 0.30309 0.30372
 C451 C 0.30384 0.25075 0.30349
 C452 C 0.30354 0.30337 0.25053
 H453 H 0.28049 0.21716 0.28060
 H454 H 0.28052 0.28032 0.21734
 H455 H 0.21737 0.21697 0.21727
 H456 H 0.21752 0.27990 0.28095
 H457 H 0.21270 0.23720 0.31227
 H458 H 0.18651 0.25516 0.28830
 H459 H 0.31432 0.26125 0.21255
 H460 H 0.28844 0.23893 0.18805
 H461 H 0.24462 0.21074 0.31249
 H462 H 0.23756 0.18377 0.28574
 H463 H 0.26097 0.31383 0.21260
 H464 H 0.23931 0.28798 0.18814
 H465 H 0.28851 0.18791 0.23915
 H466 H 0.31407 0.21221 0.26108
 H467 H 0.18858 0.28786 0.23785
 H468 H 0.21251 0.31364 0.26173
 O469 O 0.74942 0.81087 0.21726
 O470 O 0.72436 0.81768 0.24992
 O471 O 0.81082 0.78233 0.25034
 O472 O 0.81977 0.75189 0.27273
 O473 O 0.78179 0.74978 0.18845
 O474 O 0.74923 0.72443 0.18209
 O475 O 0.74957 0.71816 0.31019
 O476 O 0.77693 0.74856 0.31630
 O477 O 0.68977 0.74955 0.28230
 O478 O 0.68209 0.77577 0.24907
 O479 O 0.71779 0.68981 0.25055
 O480 O 0.75081 0.68233 0.22423
 O481 O 0.74935 0.69002 0.28210
 O482 O 0.77622 0.68303 0.24840
 O483 O 0.68960 0.71787 0.25077
 O484 O 0.68239 0.75141 0.22400
 O485 O 0.71807 0.74930 0.31028
 O486 O 0.75040 0.77637 0.31708
 O487 O 0.74896 0.78283 0.18902
 O488 O 0.72308 0.75016 0.18269
 O489 O 0.81024 0.74997 0.21631
 O490 O 0.81574 0.72242 0.24892
 O491 O 0.78276 0.81060 0.24996
 O492 O 0.75024 0.81725 0.27582
 Zr493 Zr 0.75097 0.79202 0.24882
 O494 O 0.72910 0.77207 0.27069
 Zr495 Zr 0.79196 0.75084 0.24830
 O496 O 0.77205 0.72927 0.27062
 Zr497 Zr 0.75039 0.75110 0.20764
 O498 O 0.72880 0.72915 0.22788
 Zr499 Zr 0.74962 0.74966 0.29134
 O500 O 0.77180 0.77152 0.27128
 Zr501 Zr 0.70826 0.74959 0.25046
 O502 O 0.72801 0.77176 0.22833
 Zr503 Zr 0.74945 0.70856 0.25030
 O504 O 0.77122 0.72840 0.22779
 O505 O 0.77246 0.77268 0.22681
 O506 O 0.72758 0.72769 0.27231
 C507 C 0.74858 0.80425 0.19580
 C508 C 0.80420 0.80379 0.25076
 C509 C 0.80333 0.74936 0.19493
 C510 C 0.74941 0.69673 0.30354
 C511 C 0.69657 0.74939 0.30370
 C512 C 0.69631 0.69645 0.25074
 H513 H 0.71942 0.78270 0.28027
 H514 H 0.71910 0.71948 0.21735
 H515 H 0.78241 0.78274 0.21682
 H516 H 0.78262 0.71974 0.28045
 H517 H 0.78895 0.75991 0.31110
 H518 H 0.81464 0.74317 0.28675
 H519 H 0.68532 0.73854 0.21282
 H520 H 0.71093 0.76119 0.18823
 H521 H 0.73797 0.78783 0.31345
 H522 H 0.76122 0.81173 0.28803
 H523 H 0.73879 0.68607 0.21236
 H524 H 0.75979 0.71187 0.18763
 H525 H 0.71162 0.81202 0.23964
 H526 H 0.68577 0.78756 0.26117
 H527 H 0.81096 0.71155 0.23633
 H528 H 0.78728 0.68591 0.26140
 O529 O 0.74999 0.18946 0.78259
 O530 O 0.72441 0.18264 0.75036
 O531 O 0.81113 0.21764 0.74846
 O532 O 0.81956 0.24801 0.72558
 O533 O 0.78316 0.25046 0.81059
 O534 O 0.75066 0.27599 0.81738
 O535 O 0.74964 0.28221 0.68953
 O536 O 0.77685 0.25091 0.68346
 O537 O 0.68975 0.25086 0.71811
 O538 O 0.68254 0.22449 0.75114
 O539 O 0.71825 0.31046 0.74950
 O540 O 0.75179 0.31767 0.77570
 O541 O 0.74958 0.31031 0.71766
 O542 O 0.77660 0.31733 0.75091
 O543 O 0.69003 0.28243 0.74970
 O544 O 0.68317 0.24879 0.77651
 O545 O 0.71768 0.25149 0.68978
 O546 O 0.74581 0.22470 0.68226
 O547 O 0.75017 0.21756 0.81076
 O548 O 0.72458 0.25018 0.81742
 O549 O 0.81115 0.25011 0.78227
 O550 O 0.81638 0.27725 0.74934
 O551 O 0.78304 0.18948 0.74987
 O552 O 0.74891 0.18234 0.72442
 Zr553 Zr 0.75123 0.20811 0.75088
 O554 O 0.72929 0.22823 0.72920
 Zr555 Zr 0.79231 0.24913 0.75060
 O556 O 0.77217 0.27094 0.72875
 Zr557 Zr 0.75140 0.24917 0.79196
 O558 O 0.72952 0.27110 0.77204
 Zr559 Zr 0.74940 0.25068 0.70833
 O560 O 0.77176 0.22842 0.72790
 Zr561 Zr 0.70866 0.25070 0.74969
 O562 O 0.72865 0.22853 0.77165
 Zr563 Zr 0.74992 0.29168 0.74941
 O564 O 0.77204 0.27172 0.77146
 O565 O 0.77308 0.22745 0.77251
 O566 O 0.72770 0.27266 0.72768
 C567 C 0.74954 0.19613 0.80404
 C568 C 0.80447 0.19620 0.74854
 C569 C 0.80459 0.25081 0.80376
 C570 C 0.74958 0.30364 0.69621
 C571 C 0.69627 0.25128 0.69662
 C572 C 0.69677 0.30384 0.74961
 H573 H 0.71974 0.21767 0.71938
 H574 H 0.71995 0.28077 0.78270
 H575 H 0.78315 0.21744 0.78242
 H576 H 0.78267 0.28043 0.71882
 H577 H 0.78737 0.23774 0.68744
 H578 H 0.81366 0.25573 0.71129
 H579 H 0.68620 0.26168 0.78763
 H580 H 0.71220 0.23935 0.81200
 H581 H 0.75542 0.21129 0.68734
 H582 H 0.76262 0.18430 0.71402
 H583 H 0.73949 0.31427 0.78739
 H584 H 0.76132 0.28841 0.81172
 H585 H 0.71192 0.18839 0.76089
 H586 H 0.68625 0.21269 0.73906
 H587 H 0.81181 0.28835 0.76182
 H588 H 0.78776 0.31415 0.73808
 O589 O 0.25067 0.81055 0.78257
 O590 O 0.27590 0.81734 0.75006
 O591 O 0.18911 0.78250 0.74910
 O592 O 0.18037 0.75216 0.72630
 O593 O 0.21771 0.74957 0.81091
 O594 O 0.25023 0.72400 0.81732
 O595 O 0.24988 0.71786 0.68945
 O596 O 0.22262 0.74918 0.68370
 O597 O 0.31009 0.74907 0.71741
 O598 O 0.31772 0.77540 0.75037
 O599 O 0.28182 0.68950 0.74912
 O600 O 0.24853 0.68234 0.77562
 O601 O 0.25019 0.68974 0.71757
 O602 O 0.22347 0.68275 0.75108
 O603 O 0.31010 0.71748 0.74903
 O604 O 0.31731 0.75111 0.77574
 O605 O 0.28186 0.74855 0.68937
 O606 O 0.25368 0.77538 0.68219
 O607 O 0.25074 0.78243 0.81072
 O608 O 0.27636 0.74975 0.81708
 O609 O 0.18942 0.74997 0.78288
 O610 O 0.18376 0.72289 0.74998
 O611 O 0.21726 0.81061 0.75021
 O612 O 0.25113 0.81770 0.72439
 Zr613 Zr 0.24905 0.79191 0.75087
 O614 O 0.27071 0.77177 0.72894
 Zr615 Zr 0.20789 0.75097 0.75101
 O616 O 0.22776 0.72914 0.72892
 Zr617 Zr 0.24925 0.75083 0.79193
 O618 O 0.27087 0.72887 0.77176
 Zr619 Zr 0.25034 0.74937 0.70827
 O620 O 0.22824 0.77166 0.72809
 Zr621 Zr 0.29152 0.74925 0.74920
 O622 O 0.27182 0.77144 0.77138
 Zr623 Zr 0.25019 0.70834 0.74933
 O624 O 0.22835 0.72833 0.77163
 O625 O 0.22740 0.77260 0.77272
 O626 O 0.27221 0.72734 0.72737
 C627 C 0.25134 0.80386 0.80401
 C628 C 0.19581 0.80393 0.74911
 C629 C 0.19621 0.74924 0.80430
 C630 C 0.24999 0.69643 0.69612
 C631 C 0.30334 0.74870 0.69599
 C632 C 0.30332 0.69608 0.74903
 H633 H 0.28019 0.78232 0.71903
 H634 H 0.28053 0.71918 0.78232
 H635 H 0.21746 0.78262 0.78275
 H636 H 0.21714 0.71967 0.71909
 H637 H 0.21216 0.76237 0.68780
 H638 H 0.18610 0.74445 0.71193
 H639 H 0.31436 0.73824 0.78691
 H640 H 0.28868 0.76059 0.81154
 H641 H 0.24411 0.78878 0.68736
 H642 H 0.23730 0.81577 0.71415
 H643 H 0.26094 0.68572 0.78720
 H644 H 0.23949 0.71160 0.81178
 H645 H 0.28850 0.81156 0.76045
 H646 H 0.31389 0.78722 0.73834
 H647 H 0.18846 0.71176 0.76238
 H648 H 0.21221 0.68594 0.73834
 O649 O 0.24889 0.31017 0.71781
 O650 O 0.22330 0.31688 0.75022
 O651 O 0.31017 0.28217 0.75181
 O652 O 0.31864 0.25184 0.77481
 O653 O 0.28210 0.24918 0.68981
 O654 O 0.24960 0.22359 0.68314
 O655 O 0.24893 0.21727 0.81089
 O656 O 0.27615 0.24872 0.81690
 O657 O 0.18891 0.24871 0.78251
 O658 O 0.18162 0.27511 0.74952
 O659 O 0.21740 0.18916 0.75099
 O660 O 0.25103 0.18214 0.72455
 O661 O 0.24883 0.18925 0.78268
 O662 O 0.27566 0.18221 0.74952
 O663 O 0.18915 0.21718 0.75090
 O664 O 0.18218 0.25081 0.72415
 O665 O 0.21691 0.24804 0.81078
 O666 O 0.24503 0.27476 0.81832
 O667 O 0.24908 0.28202 0.68969
 O668 O 0.22355 0.24943 0.68308
 O669 O 0.31017 0.24961 0.71806
 O670 O 0.31560 0.22258 0.75096
 O671 O 0.28200 0.31026 0.75049
 O672 O 0.24802 0.31738 0.77597
 Zr673 Zr 0.25024 0.29154 0.74957
 O674 O 0.22843 0.27137 0.77134
 Zr675 Zr 0.29141 0.25061 0.74978
 O676 O 0.27135 0.22870 0.77163
 Zr677 Zr 0.25039 0.25045 0.70851
 O678 O 0.22856 0.22852 0.72846
 Zr679 Zr 0.24860 0.24889 0.79215
 O680 O 0.27084 0.27125 0.77253
 Zr681 Zr 0.20776 0.24891 0.75088
 O682 O 0.22765 0.27108 0.72886
 Zr683 Zr 0.24907 0.20795 0.75100
 O684 O 0.27114 0.22796 0.72896
 O685 O 0.27208 0.27223 0.72790
 O686 O 0.22688 0.22693 0.77282
 C687 C 0.24842 0.30345 0.69637
 C688 C 0.30345 0.30361 0.75174
 C689 C 0.30355 0.24886 0.69659
 C690 C 0.24887 0.19586 0.80414
 C691 C 0.19548 0.24825 0.80398
 C692 C 0.19591 0.19577 0.75095
 H693 H 0.21889 0.28191 0.78120
 H694 H 0.21898 0.21886 0.71782
 H695 H 0.28210 0.28225 0.71796
 H696 H 0.28189 0.21920 0.78152
 H697 H 0.28657 0.26196 0.81293
 H698 H 0.31283 0.24392 0.78904
 H699 H 0.18520 0.23794 0.71300
 H700 H 0.21113 0.26019 0.68856
 H701 H 0.25436 0.28831 0.81312
 H702 H 0.26165 0.31529 0.78644
 H703 H 0.23843 0.18531 0.71311
 H704 H 0.26036 0.21123 0.68873
 H705 H 0.21088 0.31119 0.73956
 H706 H 0.18534 0.28689 0.76162
 H707 H 0.31094 0.21139 0.73860
 H708 H 0.28702 0.18558 0.76213
 O709 O 0.75063 0.68972 0.71816
 O710 O 0.77594 0.68291 0.75079
 O711 O 0.68921 0.71802 0.75164
 O712 O 0.68068 0.74841 0.77453
 O713 O 0.71799 0.75086 0.68985
 O714 O 0.75067 0.77630 0.68348
 O715 O 0.75023 0.78264 0.81122
 O716 O 0.72280 0.75132 0.81699
 O717 O 0.81033 0.75092 0.78340
 O718 O 0.81779 0.72443 0.75048
 O719 O 0.78246 0.81057 0.75155
 O720 O 0.74906 0.81774 0.72484
 O721 O 0.75075 0.81065 0.78301
 O722 O 0.72425 0.81783 0.74963
 O723 O 0.81056 0.78240 0.75172
 O724 O 0.81762 0.74874 0.72512
 O725 O 0.78209 0.75171 0.81142
 O726 O 0.75378 0.72513 0.81870
 O727 O 0.75084 0.71787 0.69004
 O728 O 0.77659 0.75032 0.68365
 O729 O 0.68967 0.75056 0.71785
 O730 O 0.68408 0.77764 0.75069
 O731 O 0.71727 0.68980 0.75058
 O732 O 0.75100 0.68250 0.77631
 Zr733 Zr 0.74912 0.70836 0.74991
 O734 O 0.77083 0.72843 0.77187
 Zr735 Zr 0.70814 0.74949 0.74974
 O736 O 0.72811 0.77130 0.77177
 Zr737 Zr 0.74952 0.74944 0.70884
 O738 O 0.77129 0.77126 0.72898
 Zr739 Zr 0.75058 0.75102 0.79250
 O740 O 0.72841 0.72876 0.77268
 Zr741 Zr 0.79179 0.75078 0.75159
 O742 O 0.77198 0.72871 0.72939
 Zr743 Zr 0.75069 0.79194 0.75133
 O744 O 0.72870 0.77203 0.72911
 O745 O 0.72756 0.72778 0.72804
 O746 O 0.77259 0.77286 0.77335
 C747 C 0.75132 0.69644 0.69672
 C748 C 0.69584 0.69655 0.75166
 C749 C 0.69649 0.75127 0.69644
 C750 C 0.75047 0.80405 0.80447
 C751 C 0.80358 0.75142 0.80481
 C752 C 0.80392 0.80385 0.75167
 H753 H 0.78022 0.71785 0.78182
 H754 H 0.78101 0.78087 0.71841
 H755 H 0.71757 0.71780 0.71802
 H756 H 0.71754 0.78086 0.78156
 H757 H 0.71235 0.73812 0.81293
 H758 H 0.68640 0.75631 0.78880
 H759 H 0.81471 0.76155 0.71387
 H760 H 0.78890 0.73949 0.68923
 H761 H 0.74443 0.71162 0.81342
 H762 H 0.73731 0.68467 0.78670
 H763 H 0.76174 0.81452 0.71352
 H764 H 0.73990 0.78871 0.68896
 H765 H 0.78847 0.68853 0.74023
 H766 H 0.81392 0.71270 0.76259
 H767 H 0.68892 0.78880 0.73838
 H768 H 0.71274 0.81450 0.76211
 O769 O 0.24898 0.68985 0.28217
 O770 O 0.22368 0.68311 0.24956
 O771 O 0.31052 0.71790 0.24867
 O772 O 0.31916 0.74825 0.22577
 O773 O 0.28190 0.75085 0.31046
 O774 O 0.24932 0.77642 0.31685
 O775 O 0.24967 0.78272 0.18910
 O776 O 0.27700 0.75134 0.18332
 O777 O 0.18950 0.75126 0.21697
 O778 O 0.18196 0.72483 0.24992
 O779 O 0.21763 0.81083 0.24876
 O780 O 0.25104 0.81788 0.27544
 O781 O 0.24929 0.81076 0.21729
 O782 O 0.27588 0.81782 0.25067
 O783 O 0.18942 0.78278 0.24861
 O784 O 0.18224 0.74916 0.27526
 O785 O 0.21773 0.75192 0.18893
 O786 O 0.24595 0.72522 0.18166
 O787 O 0.24890 0.71799 0.31030
 O788 O 0.22329 0.75056 0.31670
 O789 O 0.31019 0.75046 0.28243
 O790 O 0.31587 0.77750 0.24959
 O791 O 0.28236 0.68979 0.24975
 O792 O 0.24859 0.68264 0.22401
 Zr793 Zr 0.25058 0.70848 0.25043
 O794 O 0.22892 0.72862 0.22848
 Zr795 Zr 0.29171 0.74944 0.25056
 O796 O 0.27180 0.77133 0.22854
 Zr797 Zr 0.25035 0.74956 0.29149
 O798 O 0.22866 0.77147 0.27135
 Zr799 Zr 0.24925 0.75112 0.20784
 O800 O 0.27135 0.72878 0.22764
 Zr801 Zr 0.20806 0.75107 0.24876
 O802 O 0.22780 0.72892 0.27095
 Zr803 Zr 0.24932 0.79206 0.24898
 O804 O 0.27124 0.77207 0.27120
 O805 O 0.27222 0.72781 0.27228
 O806 O 0.22734 0.77306 0.22698
 C807 C 0.24832 0.69656 0.30361
 C808 C 0.30382 0.69646 0.24866
 C809 C 0.30340 0.75120 0.30385
 C810 C 0.24951 0.80414 0.19583
 C811 C 0.19625 0.75171 0.19555
 C812 C 0.19614 0.80420 0.24863
 H813 H 0.21948 0.71808 0.21854
 H814 H 0.21898 0.78113 0.28192
 H815 H 0.28217 0.71779 0.28230
 H816 H 0.28241 0.78084 0.21873
 H817 H 0.28743 0.73811 0.18737
 H818 H 0.31346 0.75616 0.21149
 H819 H 0.18519 0.76198 0.28647
 H820 H 0.21093 0.73979 0.31112
 H821 H 0.25532 0.71171 0.18691
 H822 H 0.26230 0.68472 0.21365
 H823 H 0.23839 0.81469 0.28680
 H824 H 0.26012 0.78879 0.31135
 H825 H 0.21116 0.68880 0.26009
 H826 H 0.18577 0.71308 0.23781
 H827 H 0.31108 0.78869 0.26190
 H828 H 0.28733 0.81448 0.23813
 O829 O 0.75072 0.31035 0.28229
 O830 O 0.77620 0.31715 0.24984
 O831 O 0.68943 0.28222 0.24837
 O832 O 0.68102 0.25186 0.22538
 O833 O 0.71768 0.24930 0.31033
 O834 O 0.75025 0.22377 0.31695
 O835 O 0.75076 0.21751 0.18920
 O836 O 0.72347 0.24889 0.18323
 O837 O 0.81074 0.24906 0.21751
 O838 O 0.81800 0.27551 0.25049
 O839 O 0.78250 0.18945 0.24907
 O840 O 0.74890 0.18232 0.27553
 O841 O 0.75100 0.18947 0.21738
 O842 O 0.72425 0.18234 0.25059
 O843 O 0.81065 0.21755 0.24914
 O844 O 0.81756 0.25119 0.27585
 O845 O 0.78271 0.24834 0.18928
 O846 O 0.75452 0.27500 0.18178
 O847 O 0.75064 0.28220 0.31041
 O848 O 0.77624 0.24966 0.31699
 O849 O 0.68957 0.24966 0.28212
 O850 O 0.68418 0.22261 0.24923
 O851 O 0.71753 0.31038 0.24967
 O852 O 0.75145 0.31759 0.22413
 Zr853 Zr 0.74935 0.29173 0.25054
 O854 O 0.77119 0.27163 0.22874
 Zr855 Zr 0.70829 0.25070 0.25038
 O856 O 0.72838 0.22886 0.22849
 Zr857 Zr 0.74936 0.25064 0.29159
 O858 O 0.77123 0.22877 0.27160
 Zr859 Zr 0.75105 0.24911 0.20795
 O860 O 0.72877 0.27140 0.22760
 Zr861 Zr 0.79195 0.24922 0.24916
 O862 O 0.77201 0.27133 0.27121
 Zr863 Zr 0.75076 0.20815 0.24908
 O864 O 0.72865 0.22810 0.27115
 O865 O 0.72759 0.27236 0.27223
 O866 O 0.77286 0.22720 0.22724
 C867 C 0.75126 0.30364 0.30373
 C868 C 0.69610 0.30367 0.24843
 C869 C 0.69622 0.24893 0.30358
 C870 C 0.75089 0.19609 0.19593
 C871 C 0.80415 0.24859 0.19605
 C872 C 0.80397 0.19612 0.24911
 H873 H 0.78068 0.28220 0.21886
 H874 H 0.78085 0.21913 0.28224
 H875 H 0.71756 0.28236 0.28219
 H876 H 0.71786 0.21934 0.21862
 H877 H 0.71301 0.26211 0.18722
 H878 H 0.68684 0.24397 0.21114
 H879 H 0.81458 0.23833 0.28703
 H880 H 0.78862 0.26045 0.31150
 H881 H 0.74516 0.28853 0.18700
 H882 H 0.73780 0.31547 0.21368
 H883 H 0.76149 0.18553 0.28697
 H884 H 0.73951 0.21138 0.31137
 H885 H 0.78867 0.31149 0.26045
 H886 H 0.81425 0.28724 0.23836
 H887 H 0.68890 0.21143 0.26158
 H888 H 0.71285 0.18569 0.23801
 N889 N 0.24946 0.09956 0.07119
 C890 C 0.25339 0.09371 0.09379
 N891 N 0.25724 0.07102 0.09933
 N892 N 0.25719 0.05468 0.08273
 C893 C 0.25329 0.06033 0.05993
 N894 N 0.24941 0.08319 0.05463
 C895 C 0.25336 0.11134 0.11163
 C896 C 0.25326 0.12622 0.12654
 C897 C 0.25300 0.14398 0.14425
 N898 N 0.25281 0.13806 0.16720
 N899 N 0.25232 0.15455 0.18363
 C900 C 0.25201 0.17753 0.17767
 N901 N 0.25223 0.18341 0.15466
 N902 N 0.25272 0.16690 0.13822
 N903 N 0.73398 0.59334 0.57922
 C904 C 0.75229 0.59492 0.59423
 N905 N 0.77021 0.57949 0.59232
 N906 N 0.76979 0.56293 0.57595
 C907 C 0.75141 0.56122 0.56098
 N908 N 0.73355 0.57678 0.56285
 C909 C 0.75260 0.61259 0.61203
 C910 C 0.75275 0.62739 0.62702
 C911 C 0.75277 0.64503 0.64486
 N912 N 0.75249 0.63894 0.66777
 N913 N 0.75218 0.65533 0.68433
 C914 C 0.75213 0.67835 0.67852
 N915 N 0.75244 0.68437 0.65554
 N916 N 0.75275 0.66798 0.63899
 N917 N 0.75123 0.92923 0.09973
 C918 C 0.74715 0.90659 0.09413
 N919 N 0.74342 0.90082 0.07148
 N920 N 0.74377 0.91720 0.05494
 C921 C 0.74789 0.94000 0.06031
 N922 N 0.75158 0.94558 0.08315
 C923 C 0.74696 0.88891 0.11192
 C924 C 0.74689 0.87398 0.12679
 C925 C 0.74696 0.85616 0.14444
 N926 N 0.74690 0.83326 0.13834
 N927 N 0.74728 0.81669 0.15471
 C928 C 0.74771 0.82248 0.17774
 N929 N 0.74773 0.84544 0.18378
 N930 N 0.74736 0.86200 0.16740
 N931 N 0.22939 0.42047 0.59210
 C932 C 0.24738 0.40512 0.59401
 N933 N 0.26571 0.40682 0.57904
 N934 N 0.26609 0.42342 0.56270
 C935 C 0.24816 0.43890 0.56083
 N936 N 0.22975 0.43707 0.57576
 C937 C 0.24711 0.38741 0.61177
 C938 C 0.24699 0.37257 0.62672
 C939 C 0.24700 0.35491 0.64454
 N940 N 0.24723 0.33196 0.63865
 N941 N 0.24754 0.31555 0.65518
 C942 C 0.24764 0.32155 0.67817
 N943 N 0.24738 0.34456 0.68400
 N944 N 0.24706 0.36097 0.66746
 N945 N 0.75207 0.07129 0.90030
 C946 C 0.74812 0.09395 0.90589
 N947 N 0.74436 0.09974 0.92853
 N948 N 0.74457 0.08336 0.94508
 C949 C 0.74855 0.06053 0.93971
 N950 N 0.75228 0.05493 0.91688
 C951 C 0.74802 0.11163 0.88810
 C952 C 0.74802 0.12654 0.87321
 C953 C 0.74812 0.14434 0.85553
 N954 N 0.74837 0.16725 0.86159
 N955 N 0.74871 0.18378 0.84517
 C956 C 0.74879 0.17794 0.82215
 N957 N 0.74851 0.15497 0.81616
 N958 N 0.74817 0.13844 0.83257
 N959 N 0.26413 0.57966 0.40765
 C960 C 0.24586 0.59466 0.40573
 N961 N 0.22753 0.59259 0.42067
 N962 N 0.22745 0.57595 0.43698
 C963 C 0.24566 0.56081 0.43884
 N964 N 0.26406 0.56302 0.42395
 C965 C 0.24589 0.61246 0.38806
 C966 C 0.24602 0.62735 0.37315
 C967 C 0.24630 0.64504 0.35537
 N968 N 0.24650 0.66798 0.36129
 N969 N 0.24702 0.68441 0.34478
 C970 C 0.24736 0.67844 0.32179
 N971 N 0.24712 0.65544 0.31592
 N972 N 0.24660 0.63902 0.33244
 N973 N 0.25748 0.92865 0.90036
 C974 C 0.25372 0.90594 0.90592
 N975 N 0.24984 0.90010 0.92853
 N976 N 0.24975 0.91648 0.94508
 C977 C 0.25353 0.93935 0.93975
 N978 N 0.25738 0.94500 0.91694
 C979 C 0.25373 0.88830 0.88809
 C980 C 0.25363 0.87340 0.87319
 C981 C 0.25337 0.85562 0.85551
 N982 N 0.25314 0.83270 0.86155
 N983 N 0.25262 0.81619 0.84514
 C984 C 0.25231 0.82204 0.82212
 N985 N 0.25257 0.84501 0.81613
 N986 N 0.25309 0.86153 0.83255
 N987 N 0.73512 0.42046 0.40783
 C988 C 0.75341 0.40548 0.40589
 N989 N 0.77176 0.40758 0.42079
 N990 N 0.77185 0.42421 0.43710
 C991 C 0.75361 0.43933 0.43900
 N992 N 0.73520 0.43709 0.42414
 C993 C 0.75338 0.38770 0.38820
 C994 C 0.75327 0.37281 0.37329
 C995 C 0.75303 0.35513 0.35551
 N996 N 0.75278 0.33219 0.36142
 N997 N 0.75232 0.31577 0.34490
 C998 C 0.75210 0.32174 0.32192
 N999 N 0.75238 0.34475 0.31606
 N1000 N 0.75284 0.36117 0.33258
 N1001 N 0.09970 0.25409 0.07108
 C1002 C 0.09379 0.25157 0.09387
 N1003 N 0.07096 0.24882 0.09963
 N1004 N 0.05454 0.24862 0.08308
 C1005 C 0.06024 0.25116 0.06011
 N1006 N 0.08326 0.25389 0.05456
 C1007 C 0.11150 0.25170 0.11166
 C1008 C 0.12642 0.25175 0.12657
 C1009 C 0.14420 0.25170 0.14429
 N1010 N 0.13826 0.25137 0.16724
 N1011 N 0.15478 0.25108 0.18369
 C1012 C 0.17781 0.25111 0.17774
 N1013 N 0.18369 0.25146 0.15473
 N1014 N 0.16717 0.25176 0.13829
 N1015 N 0.59745 0.76506 0.57411
 C1016 C 0.59463 0.75263 0.59409
 N1017 N 0.57473 0.74009 0.59719
 N1018 N 0.55814 0.74002 0.58083
 C1019 C 0.56085 0.75251 0.56080
 N1020 N 0.58085 0.76500 0.55774
 C1021 C 0.61245 0.75275 0.61177
 C1022 C 0.62735 0.75278 0.62670
 C1023 C 0.64503 0.75270 0.64452
 N1024 N 0.63893 0.75240 0.66743
 N1025 N 0.65534 0.75207 0.68399
 C1026 C 0.67840 0.75203 0.67819
 N1027 N 0.68445 0.75236 0.65522
 N1028 N 0.66804 0.75269 0.63866
 N1029 N 0.09985 0.75100 0.92924
 C1030 C 0.09413 0.74819 0.90644
 N1031 N 0.07132 0.74562 0.90050
 N1032 N 0.05475 0.74584 0.91689
 C1033 C 0.06026 0.74864 0.93988
 N1034 N 0.08325 0.75122 0.94561
 C1035 C 0.11197 0.74804 0.88878
 C1036 C 0.12691 0.74797 0.87389
 C1037 C 0.14464 0.74800 0.85611
 N1038 N 0.13859 0.74832 0.83319
 N1039 N 0.15504 0.74859 0.81667
 C1040 C 0.17809 0.74855 0.82252
 N1041 N 0.18408 0.74821 0.84550
 N1042 N 0.16763 0.74793 0.86202
 N1043 N 0.59730 0.26022 0.42556
 C1044 C 0.59411 0.24771 0.40568
 N1045 N 0.57406 0.23533 0.40291
 N1046 N 0.55771 0.23543 0.41953
 C1047 C 0.56087 0.24789 0.43950
 N1048 N 0.58095 0.26033 0.44218
 C1049 C 0.61175 0.24758 0.38782
 C1050 C 0.62663 0.24754 0.37288
 C1051 C 0.64441 0.24759 0.35515
 N1052 N 0.63846 0.24792 0.33220
 N1053 N 0.65498 0.24822 0.31575
 C1054 C 0.67801 0.24820 0.32170
 N1055 N 0.68389 0.24784 0.34471
 N1056 N 0.66737 0.24754 0.36115
 N1057 N 0.89973 0.75189 0.06977
 C1058 C 0.90523 0.74902 0.09262
 N1059 N 0.92799 0.74660 0.09879
 N1060 N 0.94473 0.74704 0.08258
 C1061 C 0.93946 0.74995 0.05956
 N1062 N 0.91650 0.75233 0.05358
 C1063 C 0.88724 0.74869 0.11013
 C1064 C 0.87227 0.74849 0.12499
 C1065 C 0.85462 0.74838 0.14284
 N1066 N 0.86078 0.74851 0.16573
 N1067 N 0.84442 0.74869 0.18234
 C1068 C 0.82134 0.74873 0.17661
 N1069 N 0.81523 0.74856 0.15365
 N1070 N 0.83160 0.74839 0.13704
 N1071 N 0.40258 0.26021 0.57471
 C1072 C 0.40579 0.24775 0.59462
 N1073 N 0.42586 0.23542 0.59744
 N1074 N 0.44222 0.23551 0.58082
 C1075 C 0.43905 0.24792 0.56082
 N1076 N 0.41893 0.26031 0.55810
 C1077 C 0.38813 0.24761 0.61246
 C1078 C 0.37324 0.24756 0.62739
 C1079 C 0.35544 0.24761 0.64510
 N1080 N 0.36136 0.24796 0.66805
 N1081 N 0.34481 0.24824 0.68448
 C1082 C 0.32179 0.24817 0.67850
 N1083 N 0.31594 0.24779 0.65548
 N1084 N 0.33248 0.24751 0.63906
 N1085 N 0.92984 0.24809 0.90004
 C1086 C 0.90697 0.25103 0.90560
 N1087 N 0.90087 0.25349 0.92834
 N1088 N 0.91714 0.25301 0.94501
 C1089 C 0.94017 0.25002 0.93969
 N1090 N 0.94608 0.24761 0.91675
 C1091 C 0.88940 0.25140 0.88767
 C1092 C 0.87451 0.25163 0.87273
 C1093 C 0.85666 0.25177 0.85508
 N1094 N 0.83372 0.25190 0.86120
 N1095 N 0.81712 0.25173 0.84483
 C1096 C 0.82289 0.25144 0.82179
 N1097 N 0.84589 0.25134 0.81573
 N1098 N 0.86250 0.25151 0.83210
 N1099 N 0.42543 0.74013 0.40280
 C1100 C 0.40547 0.75254 0.40599
 N1101 N 0.40261 0.76486 0.42604
 N1102 N 0.41924 0.76482 0.44237
 C1103 C 0.43931 0.75246 0.43922
 N1104 N 0.44206 0.74007 0.41913
 C1105 C 0.38761 0.75263 0.38835
 C1106 C 0.37267 0.75264 0.37347
 C1107 C 0.35495 0.75255 0.35568
 N1108 N 0.33196 0.75260 0.36158
 N1109 N 0.31551 0.75228 0.34505
 C1110 C 0.32151 0.75191 0.32207
 N1111 N 0.34457 0.75190 0.31624
 N1112 N 0.36101 0.75221 0.33277
 N1113 N 0.09967 0.07106 0.24899
 C1114 C 0.09378 0.09370 0.25256
 N1115 N 0.07099 0.09931 0.25592
 N1116 N 0.05460 0.08275 0.25573
 C1117 C 0.06028 0.05992 0.25217
 N1118 N 0.08325 0.05453 0.24880
 C1119 C 0.11145 0.11151 0.25268
 C1120 C 0.12635 0.12642 0.25270
 C1121 C 0.14413 0.14412 0.25259
 N1122 N 0.13819 0.16706 0.25307
 N1123 N 0.15470 0.18350 0.25269
 C1124 C 0.17771 0.17755 0.25183
 N1125 N 0.18359 0.15455 0.25139
 N1126 N 0.16708 0.13812 0.25177
 N1127 N 0.58592 0.58529 0.73306
 C1128 C 0.59382 0.59435 0.75350
 N1129 N 0.58483 0.58635 0.77393
 N1130 N 0.56843 0.56978 0.77393
 C1131 C 0.56053 0.56067 0.75348
 N1132 N 0.56952 0.56873 0.73304
 C1133 C 0.61149 0.61219 0.75350
 C1134 C 0.62635 0.62716 0.75343
 C1135 C 0.64410 0.64492 0.75325
 N1136 N 0.63812 0.66785 0.75357
 N1137 N 0.65461 0.68433 0.75317
 C1138 C 0.67763 0.67842 0.75245
 N1139 N 0.68355 0.65542 0.75216
 N1140 N 0.66706 0.63895 0.75256
 N1141 N 0.90229 0.07324 0.75641
 C1142 C 0.90648 0.09415 0.74608
 N1143 N 0.92750 0.09794 0.73574
 N1144 N 0.94382 0.08130 0.73568
 C1145 C 0.93966 0.06028 0.74593
 N1146 N 0.91860 0.05660 0.75636
 C1147 C 0.88888 0.11202 0.74612
 C1148 C 0.87401 0.12695 0.74624
 C1149 C 0.85623 0.14466 0.74651
 N1150 N 0.86217 0.16759 0.74606
 N1151 N 0.84565 0.18404 0.74658
 C1152 C 0.82265 0.17808 0.74757
 N1153 N 0.81678 0.15508 0.74799
 N1154 N 0.83330 0.13865 0.74747
 N1155 N 0.41354 0.58494 0.26716
 C1156 C 0.40564 0.59404 0.24673
 N1157 N 0.41468 0.58612 0.22629
 N1158 N 0.43113 0.56959 0.22627
 C1159 C 0.43904 0.56045 0.24671
 N1160 N 0.42999 0.56842 0.26716
 C1161 C 0.38797 0.61188 0.24676
 C1162 C 0.37312 0.62686 0.24684
 C1163 C 0.35541 0.64466 0.24704
 N1164 N 0.36145 0.66758 0.24671
 N1165 N 0.34501 0.68410 0.24712
 C1166 C 0.32196 0.67826 0.24786
 N1167 N 0.31599 0.65528 0.24817
 N1168 N 0.33243 0.63877 0.24777
 N1169 N 0.09973 0.92869 0.75120
 C1170 C 0.09381 0.90604 0.74773
 N1171 N 0.07101 0.90043 0.74445
 N1172 N 0.05463 0.91701 0.74461
 C1173 C 0.06034 0.93984 0.74806
 N1174 N 0.08332 0.94523 0.75136
 C1175 C 0.11147 0.88822 0.74761
 C1176 C 0.12636 0.87329 0.74759
 C1177 C 0.14411 0.85556 0.74768
 N1178 N 0.13813 0.83263 0.74728
 N1179 N 0.15463 0.81616 0.74761
 C1180 C 0.17765 0.82208 0.74835
 N1181 N 0.18357 0.84507 0.74872
 N1182 N 0.16707 0.86153 0.74839
 N1183 N 0.58620 0.41495 0.26691
 C1184 C 0.59412 0.40593 0.24645
 N1185 N 0.58508 0.41392 0.22603
 N1186 N 0.56863 0.43043 0.22606
 C1187 C 0.56070 0.43950 0.24652
 N1188 N 0.56974 0.43146 0.26695
 C1189 C 0.61182 0.38811 0.24643
 C1190 C 0.62669 0.37316 0.24649
 C1191 C 0.64443 0.35538 0.24669
 N1192 N 0.63843 0.33245 0.24626
 N1193 N 0.65490 0.31596 0.24670
 C1194 C 0.67793 0.32184 0.24757
 N1195 N 0.68386 0.34482 0.24796
 N1196 N 0.66739 0.36131 0.24753
 N1197 N 0.92747 0.90174 0.26373
 C1198 C 0.90645 0.90560 0.25342
 N1199 N 0.90226 0.92656 0.24320
 N1200 N 0.91858 0.94320 0.24334
 C1201 C 0.93963 0.93946 0.25375
 N1202 N 0.94379 0.91838 0.26388
 C1203 C 0.88883 0.88775 0.25331
 C1204 C 0.87393 0.87284 0.25315
 C1205 C 0.85612 0.85518 0.25283
 N1206 N 0.83318 0.86125 0.25239
 N1207 N 0.81661 0.84486 0.25185
 C1208 C 0.82244 0.82185 0.25174
 N1209 N 0.84545 0.81583 0.25221
 N1210 N 0.86201 0.83222 0.25275
 N1211 N 0.40282 0.42554 0.76642
 C1212 C 0.40551 0.40576 0.75364
 N1213 N 0.42525 0.40288 0.74080
 N1214 N 0.44183 0.41926 0.74077
 C1215 C 0.43925 0.43908 0.75360
 N1216 N 0.41941 0.44192 0.76640
 C1217 C 0.38769 0.38807 0.75370
 C1218 C 0.37277 0.37316 0.75366
 C1219 C 0.35504 0.35538 0.75349
 N1220 N 0.33207 0.36129 0.75263
 N1221 N 0.31562 0.34478 0.75220
 C1222 C 0.32158 0.32180 0.75262
 N1223 N 0.34462 0.31595 0.75351
 N1224 N 0.36107 0.33247 0.75394
 N1225 N 0.09940 0.25105 0.92872
 C1226 C 0.09322 0.24871 0.90599
 N1227 N 0.07026 0.24669 0.90043
 N1228 N 0.05399 0.24698 0.91713
 C1229 C 0.05998 0.24930 0.94005
 N1230 N 0.08311 0.25135 0.94538
 C1231 C 0.11079 0.24839 0.88806
 C1232 C 0.12567 0.24817 0.87310
 C1233 C 0.14349 0.24799 0.85541
 N1234 N 0.13761 0.24834 0.83244
 N1235 N 0.15419 0.24836 0.81603
 C1236 C 0.17720 0.24802 0.82205
 N1237 N 0.18301 0.24764 0.84508
 N1238 N 0.16643 0.24762 0.86148
 N1239 N 0.59781 0.76319 0.42591
 C1240 C 0.59477 0.75051 0.40611
 N1241 N 0.57465 0.73829 0.40318
 N1242 N 0.55805 0.73875 0.41955
 C1243 C 0.56100 0.75147 0.43939
 N1244 N 0.58121 0.76366 0.44228
 C1245 C 0.61256 0.75012 0.38841
 C1246 C 0.62745 0.74983 0.37347
 C1247 C 0.64512 0.74956 0.35565
 N1248 N 0.63902 0.74962 0.33274
 N1249 N 0.65542 0.74951 0.31617
 C1250 C 0.67849 0.74934 0.32196
 N1251 N 0.68453 0.74926 0.34493
 N1252 N 0.66813 0.74937 0.36150
 N1253 N 0.92868 0.74858 0.90058
 C1254 C 0.90592 0.75093 0.90675
 N1255 N 0.90034 0.75297 0.92967
 N1256 N 0.91706 0.75270 0.94592
 C1257 C 0.94002 0.75039 0.93995
 N1258 N 0.94536 0.74831 0.91685
 C1259 C 0.88796 0.75122 0.88920
 C1260 C 0.87296 0.75142 0.87436
 C1261 C 0.85521 0.75160 0.85660
 N1262 N 0.83223 0.75202 0.86253
 N1263 N 0.81576 0.75202 0.84602
 C1264 C 0.82172 0.75160 0.82302
 N1265 N 0.84477 0.75121 0.81716
 N1266 N 0.86123 0.75121 0.83367
 N1267 N 0.42597 0.23741 0.40244
 C1268 C 0.40613 0.25008 0.40543
 N1269 N 0.40313 0.26227 0.42552
 N1270 N 0.41946 0.26181 0.44215
 C1271 C 0.43935 0.24910 0.43925
 N1272 N 0.44231 0.23693 0.41906
 C1273 C 0.38846 0.25046 0.38760
 C1274 C 0.37355 0.25072 0.37269
 C1275 C 0.35575 0.25094 0.35499
 N1276 N 0.33280 0.25127 0.36103
 N1277 N 0.31624 0.25128 0.34461
 C1278 C 0.32209 0.25096 0.32159
 N1279 N 0.34511 0.25066 0.31560
 N1280 N 0.36166 0.25065 0.33203
 N1281 N 0.09839 0.75998 0.07185
 C1282 C 0.09410 0.75119 0.09344
 N1283 N 0.07271 0.74208 0.09818
 N1284 N 0.05609 0.74182 0.08183
 C1285 C 0.06027 0.75066 0.06018
 N1286 N 0.08176 0.75972 0.05550
 C1287 C 0.11196 0.75151 0.11108
 C1288 C 0.12691 0.75174 0.12597
 C1289 C 0.14464 0.75193 0.14375
 N1290 N 0.13860 0.75160 0.16667
 N1291 N 0.15506 0.75160 0.18319
 C1292 C 0.17811 0.75192 0.17734
 N1293 N 0.18408 0.75228 0.15435
 N1294 N 0.16762 0.75228 0.13783
 N1295 N 0.59675 0.26262 0.57480
 C1296 C 0.59375 0.25045 0.59492
 N1297 N 0.57394 0.23776 0.59792
 N1298 N 0.55761 0.23722 0.58129
 C1299 C 0.56055 0.24936 0.56108
 N1300 N 0.58042 0.26210 0.55817
 C1301 C 0.61143 0.25088 0.61274
 C1302 C 0.62635 0.25118 0.62764
 C1303 C 0.64420 0.25143 0.64529
 N1304 N 0.63836 0.25111 0.66827
 N1305 N 0.65496 0.25114 0.68465
 C1306 C 0.67795 0.25148 0.67859
 N1307 N 0.68373 0.25183 0.65555
 N1308 N 0.66713 0.25181 0.63918
 N1309 N 0.90175 0.25813 0.07277
 C1310 C 0.90650 0.24903 0.09414
 N1311 N 0.92810 0.24019 0.09841
 N1312 N 0.94445 0.24040 0.08180
 C1313 C 0.93977 0.24944 0.06033
 N1314 N 0.91810 0.25834 0.05616
 C1315 C 0.88884 0.24874 0.11199
 C1316 C 0.87393 0.24853 0.12691
 C1317 C 0.85610 0.24836 0.14459
 N1318 N 0.86199 0.24873 0.16756
 N1319 N 0.84543 0.24874 0.18397
 C1320 C 0.82242 0.24838 0.17796
 N1321 N 0.81659 0.24798 0.15494
 N1322 N 0.83316 0.24797 0.13853
 N1323 N 0.40229 0.76246 0.57405
 C1324 C 0.40537 0.74975 0.59381
 N1325 N 0.42554 0.73762 0.59674
 N1326 N 0.44215 0.73819 0.58040
 C1327 C 0.43917 0.75095 0.56058
 N1328 N 0.41890 0.76304 0.55770
 C1329 C 0.38756 0.74926 0.61150
 C1330 C 0.37264 0.74891 0.62640
 C1331 C 0.35492 0.74861 0.64418
 N1332 N 0.36097 0.74884 0.66711
 N1333 N 0.34452 0.74879 0.68363
 C1334 C 0.32147 0.74850 0.67778
 N1335 N 0.31549 0.74824 0.65480
 N1336 N 0.33194 0.74830 0.63827
 N1337 N 0.26033 0.07219 0.90130
 C1338 C 0.25040 0.09327 0.90567
 N1339 N 0.24103 0.09744 0.92704
 N1340 N 0.24158 0.08103 0.94356
 C1341 C 0.25155 0.05988 0.93930
 N1342 N 0.26089 0.05578 0.91783
 C1343 C 0.24995 0.11104 0.88795
 C1344 C 0.24962 0.12602 0.87312
 C1345 C 0.24928 0.14388 0.85550
 N1346 N 0.24922 0.16678 0.86163
 N1347 N 0.24905 0.18336 0.84526
 C1348 C 0.24893 0.17760 0.82222
 N1349 N 0.24897 0.15464 0.81616
 N1350 N 0.24915 0.13806 0.83252
 N1351 N 0.76817 0.57997 0.40754
 C1352 C 0.74995 0.59508 0.40593
 N1353 N 0.73189 0.59315 0.42119
 N1354 N 0.73199 0.57654 0.43752
 C1355 C 0.75014 0.56128 0.43908
 N1356 N 0.76829 0.56336 0.42386
 C1357 C 0.74974 0.61281 0.38819
 C1358 C 0.74958 0.62766 0.37323
 C1359 C 0.74943 0.64530 0.35541
 N1360 N 0.74950 0.66826 0.36128
 N1361 N 0.74946 0.68465 0.34474
 C1362 C 0.74936 0.67864 0.32176
 N1363 N 0.74928 0.65562 0.31594
 N1364 N 0.74932 0.63923 0.33250
 N1365 N 0.73982 0.09825 0.07298
 C1366 C 0.74950 0.09377 0.09415
 N1367 N 0.75890 0.07240 0.09827
 N1368 N 0.75869 0.05603 0.08170
 C1369 C 0.74907 0.06046 0.06042
 N1370 N 0.73960 0.08189 0.05641
 C1371 C 0.74986 0.11147 0.11193
 C1372 C 0.75015 0.12640 0.12680
 C1373 C 0.75046 0.14422 0.14447
 N1374 N 0.75068 0.13835 0.16744
 N1375 N 0.75086 0.15489 0.18384
 C1376 C 0.75083 0.17786 0.17783
 N1377 N 0.75063 0.18367 0.15479
 N1378 N 0.75045 0.16713 0.13840
 N1379 N 0.22932 0.59289 0.57919
 C1380 C 0.24786 0.59465 0.59389
 N1381 N 0.26587 0.57936 0.59174
 N1382 N 0.26531 0.56275 0.57542
 C1383 C 0.24670 0.56086 0.56076
 N1384 N 0.22875 0.57628 0.56287
 C1385 C 0.24838 0.61240 0.61161
 C1386 C 0.24878 0.62726 0.62654
 C1387 C 0.24922 0.64493 0.64433
 N1388 N 0.24951 0.63889 0.66725
 N1389 N 0.24980 0.65530 0.68378
 C1390 C 0.24980 0.67831 0.67793
 N1391 N 0.24952 0.68429 0.65494
 N1392 N 0.24923 0.66788 0.63842
 N1393 N 0.73928 0.90228 0.92713
 C1394 C 0.74907 0.90664 0.90598
 N1395 N 0.75865 0.92792 0.90184
 N1396 N 0.75850 0.94433 0.91838
 C1397 C 0.74877 0.94003 0.93963
 N1398 N 0.73912 0.91869 0.94366
 C1399 C 0.74939 0.88888 0.88826
 C1400 C 0.74966 0.87390 0.87344
 C1401 C 0.74995 0.85603 0.85582
 N1402 N 0.74981 0.83314 0.86194
 N1403 N 0.75001 0.81655 0.84558
 C1404 C 0.75035 0.82231 0.82254
 N1405 N 0.75052 0.84527 0.81648
 N1406 N 0.75032 0.86185 0.83284
 N1407 N 0.23142 0.42002 0.40746
 C1408 C 0.24969 0.40498 0.40586
 N1409 N 0.26777 0.40702 0.42109
 N1410 N 0.26763 0.42367 0.43738
 C1411 C 0.24942 0.43885 0.43893
 N1412 N 0.23126 0.43666 0.42375
 C1413 C 0.24995 0.38719 0.38818
 C1414 C 0.25014 0.37231 0.37327
 C1415 C 0.25034 0.35462 0.35549
 N1416 N 0.25034 0.33168 0.36141
 N1417 N 0.25043 0.31525 0.34490
 C1418 C 0.25054 0.32121 0.32191
 N1419 N 0.25056 0.34422 0.31604
 N1420 N 0.25046 0.36065 0.33256
 N1421 N 0.24163 0.90226 0.07274
 C1422 C 0.25098 0.90652 0.09410
 N1423 N 0.26080 0.92766 0.09841
 N1424 N 0.26127 0.94404 0.08185
 C1425 C 0.25194 0.93984 0.06040
 N1426 N 0.24209 0.91863 0.05618
 C1427 C 0.25060 0.88881 0.11187
 C1428 C 0.25031 0.87386 0.12673
 C1429 C 0.25001 0.85604 0.14439
 N1430 N 0.25008 0.83313 0.13831
 N1431 N 0.24989 0.81658 0.15470
 C1432 C 0.24963 0.82237 0.17773
 N1433 N 0.24954 0.84534 0.18376
 N1434 N 0.24973 0.86189 0.16736
 N1435 N 0.73332 0.42074 0.59184
 C1436 C 0.75133 0.40546 0.59403
 N1437 N 0.76991 0.40724 0.57937
 N1438 N 0.77050 0.42386 0.56306
 C1439 C 0.75254 0.43927 0.56090
 N1440 N 0.73389 0.43736 0.57553
 C1441 C 0.75081 0.38772 0.61174
 C1442 C 0.75041 0.37285 0.62667
 C1443 C 0.75002 0.35517 0.64445
 N1444 N 0.74991 0.33223 0.63853
 N1445 N 0.74971 0.31580 0.65504
 C1446 C 0.74962 0.32176 0.67803
 N1447 N 0.74970 0.34477 0.68390
 N1448 N 0.74990 0.36120 0.66738
 N1449 N 0.09969 0.07085 0.75289
 C1450 C 0.09392 0.09357 0.74963
 N1451 N 0.07121 0.09930 0.74599
 N1452 N 0.05477 0.08279 0.74564
 C1453 C 0.06032 0.05989 0.74892
 N1454 N 0.08322 0.05437 0.75254
 C1455 C 0.11165 0.11134 0.75000
 C1456 C 0.12655 0.12626 0.75029
 C1457 C 0.14428 0.14402 0.75058
 N1458 N 0.13826 0.16694 0.75063
 N1459 N 0.15472 0.18344 0.75079
 C1460 C 0.17777 0.17757 0.75090
 N1461 N 0.18374 0.15459 0.75087
 N1462 N 0.16727 0.13809 0.75071
 N1463 N 0.59666 0.57540 0.23512
 C1464 C 0.59434 0.59426 0.24929
 N1465 N 0.57498 0.59622 0.26286
 N1466 N 0.55842 0.57983 0.26228
 C1467 C 0.56065 0.56093 0.24806
 N1468 N 0.58010 0.55900 0.23452
 C1469 C 0.61210 0.61199 0.24982
 C1470 C 0.62699 0.62691 0.25020
 C1471 C 0.64471 0.64469 0.25056
 N1472 N 0.63866 0.66760 0.25075
 N1473 N 0.65512 0.68412 0.25088
 C1474 C 0.67817 0.67826 0.25082
 N1475 N 0.68415 0.65528 0.25065
 N1476 N 0.66769 0.63877 0.25053
 N1477 N 0.09971 0.92899 0.24671
 C1478 C 0.09397 0.90625 0.24987
 N1479 N 0.07126 0.90048 0.25348
 N1480 N 0.05480 0.91697 0.25391
 C1481 C 0.06032 0.93990 0.25075
 N1482 N 0.08322 0.94546 0.24715
 C1483 C 0.11173 0.88851 0.24945
 C1484 C 0.12666 0.87361 0.24914
 C1485 C 0.14443 0.85588 0.24884
 N1486 N 0.13844 0.83295 0.24868
 N1487 N 0.15493 0.81647 0.24856
 C1488 C 0.17797 0.82237 0.24859
 N1489 N 0.18390 0.84537 0.24873
 N1490 N 0.16740 0.86184 0.24885
 N1491 N 0.59747 0.42548 0.76433
 C1492 C 0.59476 0.40603 0.75106
 N1493 N 0.57497 0.40345 0.73823
 N1494 N 0.55838 0.41982 0.73866
 C1495 C 0.56101 0.43933 0.75196
 N1496 N 0.58088 0.44185 0.76477
 C1497 C 0.61256 0.38834 0.75067
 C1498 C 0.62747 0.37343 0.75037
 C1499 C 0.64519 0.35565 0.75005
 N1500 N 0.63914 0.33273 0.75005
 N1501 N 0.65558 0.31621 0.74987
 C1502 C 0.67864 0.32205 0.74969
 N1503 N 0.68463 0.34503 0.74967
 N1504 N 0.66818 0.36155 0.74985
 N1505 N 0.92712 0.09831 0.26177
 C1506 C 0.90625 0.09420 0.25123
 N1507 N 0.90228 0.07304 0.24135
 N1508 N 0.91866 0.05647 0.24201
 C1509 C 0.93957 0.06047 0.25263
 N1510 N 0.94350 0.08174 0.26244
 C1511 C 0.88854 0.11198 0.25064
 C1512 C 0.87361 0.12687 0.25019
 C1513 C 0.85580 0.14456 0.24973
 N1514 N 0.86174 0.16751 0.24961
 N1515 N 0.84520 0.18394 0.24935
 C1516 C 0.82218 0.17799 0.24920
 N1517 N 0.81630 0.15498 0.24929
 N1518 N 0.83284 0.13855 0.24955
 N1519 N 0.40251 0.57452 0.76458
 C1520 C 0.40517 0.59375 0.75097
 N1521 N 0.42494 0.59614 0.73808
 N1522 N 0.44156 0.57982 0.73878
 C1523 C 0.43900 0.56056 0.75246
 N1524 N 0.41913 0.55820 0.76530
 C1525 C 0.38737 0.61144 0.75035
 C1526 C 0.37247 0.62636 0.74990
 C1527 C 0.35479 0.64417 0.74945
 N1528 N 0.36089 0.66707 0.74928
 N1529 N 0.34448 0.68363 0.74907
 C1530 C 0.32141 0.67784 0.74903
 N1531 N 0.31538 0.65487 0.74917
 N1532 N 0.33179 0.63832 0.74938
 N1533 N 0.92720 0.90139 0.73890
 C1534 C 0.90635 0.90557 0.74943
 N1535 N 0.90238 0.92679 0.75919
 N1536 N 0.91876 0.94335 0.75842
 C1537 C 0.93965 0.93928 0.74782
 N1538 N 0.94358 0.91795 0.73813
 C1539 C 0.88862 0.88781 0.75011
 C1540 C 0.87368 0.87295 0.75062
 C1541 C 0.85584 0.85529 0.75112
 N1542 N 0.83289 0.86135 0.75118
 N1543 N 0.81633 0.84496 0.75143
 C1544 C 0.82216 0.82194 0.75164
 N1545 N 0.84517 0.81594 0.75161
 N1546 N 0.86174 0.83234 0.75136
 N1547 N 0.42477 0.40367 0.26251
 C1548 C 0.40541 0.40567 0.24894
 N1549 N 0.40308 0.42457 0.23483
 N1550 N 0.41963 0.44097 0.23428
 C1551 C 0.43908 0.43901 0.24782
 N1552 N 0.44132 0.42007 0.26197
 C1553 C 0.38765 0.38794 0.24943
 C1554 C 0.37276 0.37301 0.24979
 C1555 C 0.35507 0.35521 0.25015
 N1556 N 0.33208 0.36109 0.25029
 N1557 N 0.31564 0.34456 0.25047
 C1558 C 0.32166 0.32158 0.25050
 N1559 N 0.34472 0.31576 0.25038
 N1560 N 0.36115 0.33230 0.25021
   
