data_POSCAR
  _audit_creation_date              2014-09-24
  _audit_creation_method            'ToBaCCo'
  _symmetry_space_group_name_H-M    'P1'
  _symmetry_Int_Tables_number       1
  _symmetry_cell_setting            triclinic
  loop_
  _symmetry_equiv_pos_as_xyz
 x,y,z
_cell_length_a 39.2569
_cell_length_b 39.2318
_cell_length_c 39.2526
_cell_angle_alpha 90.087800
_cell_angle_beta 89.979100
_cell_angle_gamma 90.051000
loop_
  _atom_site_label
  _atom_site_type_symbol
  _atom_site_fract_x
  _atom_site_fract_y
  _atom_site_fract_z
O1 O 0.22355 1.02739 0.47238
 O2 O 0.22346 0.96425 0.54147
 O3 O 0.22229 1.02992 0.53904
 O4 O 0.22542 0.96151 0.47503
 O5 O 0.28162 0.96245 0.47692
 O6 O 0.27838 1.03255 0.53940
 O7 O 0.27967 0.96581 0.54296
 O8 O 0.27978 1.02900 0.47382
 Cu9 Cu 0.21804 0.99563 0.50682
 Cu10 Cu 0.28553 0.99753 0.50843
 C11 C 0.25167 1.03901 0.46140
 C12 C 0.25152 0.95431 0.55405
 C13 C 0.24972 1.04316 0.55012
 C14 C 0.25407 0.95020 0.46512
 O15 O 0.78053 -0.02987 0.46187
 O16 O 0.77573 0.03863 0.52545
 O17 O 0.77747 -0.02701 0.52856
 O18 O 0.77838 0.03595 0.45916
 O19 O 0.72217 0.03457 0.45738
 O20 O 0.72148 -0.02988 0.52527
 O21 O 0.71953 0.03680 0.52327
 O22 O 0.72429 -0.03196 0.45980
 Cu23 Cu 0.78369 0.00456 0.49397
 Cu24 Cu 0.71620 0.00224 0.49121
 C25 C 0.75323 -0.04258 0.45007
 C26 C 0.74685 0.04940 0.53521
 C27 C 0.74932 -0.03944 0.53872
 C28 C 0.75039 0.04616 0.44658
 O29 O 0.21546 0.46418 0.97954
 O30 O 0.22801 0.53306 1.04246
 O31 O 0.22070 0.53308 0.97974
 O32 O 0.22495 0.46974 1.04857
 O33 O 0.27584 0.45432 1.03063
 O34 O 0.27590 0.52643 0.97091
 O35 O 0.28337 0.52333 1.03940
 O36 O 0.27052 0.46363 0.96785
 Cu37 Cu 0.21637 0.49906 1.01233
 Cu38 Cu 0.28233 0.49231 1.00298
 C39 C 0.24050 0.45324 0.96207
 C40 C 0.25818 0.53933 1.05208
 C41 C 0.24795 0.54133 0.96433
 C42 C 0.25076 0.45036 1.05069
 O43 O 0.46707 0.22054 1.02942
 O44 O 0.52822 0.22394 0.95868
 O45 O 0.53351 0.22189 1.02421
 O46 O 0.46187 0.22155 0.96371
 O47 O 0.46100 0.27780 0.96485
 O48 O 0.53088 0.27793 1.02722
 O49 O 0.52703 0.28018 0.96051
 O50 O 0.46543 0.27680 1.03108
 Cu51 Cu 0.49781 0.21633 0.99384
 Cu52 Cu 0.49602 0.28385 0.99597
 C53 C 0.45577 0.24803 1.04227
 C54 C 0.53818 0.25266 0.94760
 C55 C 0.54425 0.24992 1.03644
 C56 C 0.44925 0.24966 0.95388
 O57 O 0.47027 0.77780 -0.02536
 O58 O 0.53996 0.77634 0.03716
 O59 O 0.53693 0.77852 -0.02836
 O60 O 0.47355 0.77580 0.04053
 O61 O 0.47432 0.71954 0.03913
 O62 O 0.53620 0.72241 -0.03134
 O63 O 0.54005 0.72001 0.03543
 O64 O 0.47059 0.72153 -0.02717
 Cu65 Cu 0.50510 0.78278 0.00615
 Cu66 Cu 0.50540 0.71520 0.00381
 C67 C 0.45856 0.74989 -0.03693
 C68 C 0.55176 0.74790 0.04699
 C69 C 0.54735 0.75097 -0.04185
 C70 C 0.46325 0.74724 0.05172
 O71 O 1.04081 0.46214 0.21832
 O72 O 0.97678 0.53061 0.21913
 O73 O 1.04247 0.52897 0.22117
 O74 O 0.97480 0.46408 0.21681
 O75 O 0.97273 0.46271 0.27301
 O76 O 1.04196 0.52573 0.27723
 O77 O 0.97518 0.52843 0.27537
 O78 O 1.03892 0.46007 0.27450
 Cu79 Cu 1.00892 0.49663 0.21319
 Cu80 Cu 1.00706 0.49411 0.28067
 C81 C 1.05074 0.44939 0.24634
 C82 C 0.96502 0.54105 0.24740
 C83 C 1.05400 0.53837 0.24996
 C84 C 0.96207 0.45249 0.24421
 O85 O -0.04265 0.47340 0.77619
 O86 O 0.02573 0.53737 0.78007
 O87 O -0.03981 0.54012 0.77768
 O88 O 0.02328 0.47086 0.77853
 O89 O 0.02602 0.47266 0.72238
 O90 O -0.03923 0.53983 0.72152
 O91 O 0.02748 0.53875 0.72385
 O92 O -0.04038 0.47419 0.71998
 Cu93 Cu -0.00858 0.50528 0.78377
 Cu94 Cu -0.00625 0.50650 0.71628
 C95 C -0.05317 0.46287 0.74744
 C96 C 0.03816 0.54910 0.75261
 C97 C -0.05059 0.55170 0.74944
 C98 C 0.03558 0.46008 0.75059
 O99 O 0.47337 0.95937 0.22839
 O100 O 0.53693 1.02789 0.22006
 O101 O 0.53981 0.96185 0.22377
 O102 O 0.47002 1.02451 0.22500
 O103 O 0.47659 1.03089 0.28044
 O104 O 0.54219 0.96370 0.27996
 O105 O 0.54193 1.03029 0.27613
 O106 O 0.47622 0.96373 0.28449
 Cu107 Cu 0.50477 0.99313 0.21865
 Cu108 Cu 0.50957 0.99741 0.28591
 C109 C 0.46375 0.95020 0.25784
 C110 C 0.55030 1.04059 0.24667
 C111 C 0.55250 0.95170 0.25172
 C112 C 0.46163 1.03880 0.25284
 O113 O 1.02732 0.22229 0.53010
 O114 O 0.96342 0.22154 0.46137
 O115 O 1.02924 0.21892 0.46336
 O116 O 0.96149 0.22453 0.52806
 O117 O 0.96304 0.28077 0.52499
 O118 O 1.03201 0.27518 0.46154
 O119 O 0.96536 0.27783 0.45916
 O120 O 1.02982 0.27853 0.52732
 Cu121 Cu 0.99515 0.21616 0.49598
 Cu122 Cu 0.99778 0.28373 0.49301
 C123 C 1.03944 0.25053 0.54031
 C124 C 0.95353 0.24958 0.44867
 C125 C 1.04221 0.24611 0.45159
 C126 C 0.95067 0.25357 0.53738
 O127 O -0.02870 0.78139 0.53626
 O128 O 0.03973 0.77721 0.47209
 O129 O -0.02612 0.77857 0.46968
 O130 O 0.03724 0.78015 0.53887
 O131 O 0.03668 0.72382 0.54052
 O132 O -0.02786 0.72236 0.47244
 O133 O 0.03883 0.72093 0.47471
 O134 O -0.03002 0.72509 0.53837
 Cu135 Cu 0.00569 0.78499 0.50401
 Cu136 Cu 0.00427 0.71739 0.50675
 C137 C -0.04100 0.75393 0.54811
 C138 C 0.05087 0.74837 0.46254
 C139 C -0.03788 0.75020 0.45937
 C140 C 0.04780 0.75224 0.55132
 O141 O 0.77772 0.46870 1.02263
 O142 O 0.77604 0.53691 0.95833
 O143 O 0.77946 0.53545 1.02441
 O144 O 0.77391 0.47030 0.95697
 O145 O 0.71769 0.47278 0.95927
 O146 O 0.72331 0.53614 1.02825
 O147 O 0.71984 0.53879 0.96177
 O148 O 0.72151 0.47039 1.02592
 Cu149 Cu 0.78245 0.50274 0.99027
 Cu150 Cu 0.71493 0.50467 0.99408
 C151 C 0.74990 0.45800 1.03518
 C152 C 0.74767 0.54936 0.94915
 C153 C 0.75231 0.54664 1.03803
 C154 C 0.74485 0.46063 0.94661
 O155 O 0.46740 1.04600 0.77690
 O156 O 0.53046 0.97677 0.77726
 O157 O 0.53077 1.03963 0.77207
 O158 O 0.46195 0.97670 0.78409
 O159 O 0.46018 0.96673 0.72870
 O160 O 0.51949 1.03877 0.71693
 O161 O 0.52267 0.97003 0.72188
 O162 O 0.45064 1.02972 0.72586
 Cu163 Cu 0.49683 1.00942 0.78350
 Cu164 Cu 0.48845 1.00235 0.71743
 C165 C 0.44731 1.04893 0.75172
 C166 C 0.53806 0.96237 0.74927
 C167 C 0.53633 1.05034 0.74213
 C168 C 0.45050 0.95997 0.75875
 C169 C 0.25272 0.21428 0.27623
 C170 C 0.22652 0.23872 0.27532
 C171 C 0.22628 0.26414 0.24978
 C172 C 0.25281 0.26545 0.22508
 C173 C 0.27892 0.24031 0.22598
 C174 C 0.27873 0.21475 0.25145
 C175 C 0.76081 0.77332 0.27412
 C176 C 0.78630 0.74799 0.27411
 C177 C 0.78639 0.72268 0.24852
 C178 C 0.76101 0.72265 0.22308
 C179 C 0.73548 0.74795 0.22327
 C180 C 0.73533 0.77333 0.24876
 C181 C 0.73735 0.23649 0.70861
 C182 C 0.76264 0.26209 0.70971
 C183 C 0.76186 0.28707 0.73561
 C184 C 0.73575 0.28644 0.76038
 C185 C 0.71045 0.26083 0.75931
 C186 C 0.71121 0.23589 0.73333
 C187 C 0.24664 0.77907 0.73950
 C188 C 0.27137 0.77862 0.76562
 C189 C 0.27082 0.75258 0.79042
 C190 C 0.24536 0.72714 0.78932
 C191 C 0.22049 0.72769 0.76333
 C192 C 0.22119 0.75362 0.73839
 C193 C 0.21325 0.25037 0.72718
 C194 C 0.21134 0.27476 0.75353
 C195 C 0.23512 0.27412 0.78043
 C196 C 0.26095 0.24896 0.78122
 C197 C 0.26321 0.22423 0.75464
 C198 C 0.23915 0.22522 0.72743
 C199 C 0.77270 0.75977 0.72246
 C200 C 0.74691 0.78498 0.72218
 C201 C 0.72093 0.78437 0.74723
 C202 C 0.72061 0.75857 0.77241
 C203 C 0.74636 0.73330 0.77249
 C204 C 0.77243 0.73388 0.74755
 C205 C 0.23707 0.73864 0.28829
 C206 C 0.26227 0.76438 0.28947
 C207 C 0.28842 0.76504 0.26478
 C208 C 0.28953 0.73998 0.23894
 C209 C 0.26450 0.71406 0.23786
 C210 C 0.23806 0.71341 0.26244
 C211 C 0.77880 0.24859 0.26289
 C212 C 0.77917 0.27408 0.23752
 C213 C 0.75399 0.27417 0.21180
 C214 C 0.72839 0.24872 0.21137
 C215 C 0.72822 0.22313 0.23675
 C216 C 0.75337 0.22311 0.26252
 C217 C 0.25201 0.11348 0.38230
 C218 C 0.22750 0.08739 0.38171
 C219 C 0.22716 0.06323 0.40801
 C220 C 0.25174 0.06460 0.43406
 C221 C 0.27641 0.09062 0.43404
 C222 C 0.27634 0.11549 0.40846
 C223 C 0.25218 0.13925 0.35505
 C224 C 0.27589 0.16604 0.35636
 C225 C 0.27548 0.19085 0.33079
 C226 C 0.25273 0.18801 0.30332
 C227 C 0.22921 0.16101 0.30218
 C228 C 0.22850 0.13673 0.32833
 C229 C 0.29995 0.14242 0.40864
 C230 C 0.29953 0.16746 0.38316
 C231 C 0.20394 0.08594 0.35480
 C232 C 0.20459 0.11007 0.32841
 H233 H 0.31874 0.14429 0.42876
 H234 H 0.31803 0.18795 0.38431
 H235 H 0.18496 0.06589 0.35402
 H236 H 0.18611 0.10795 0.30803
 H237 H 0.20829 0.04303 0.40792
 H238 H 0.29514 0.09186 0.45430
 H239 H 0.29277 0.21234 0.33214
 H240 H 0.21138 0.15927 0.28116
 C241 C 0.75793 0.87815 0.37607
 C242 C 0.73564 0.87492 0.40389
 C243 C 0.73391 0.90129 0.42792
 C244 C 0.75510 0.93000 0.42476
 C245 C 0.77783 0.93259 0.39722
 C246 C 0.77891 0.90695 0.37236
 C247 C 0.75915 0.85097 0.35022
 C248 C 0.78028 0.85490 0.32159
 C249 C 0.78046 0.82947 0.29653
 C250 C 0.76073 0.79993 0.30077
 C251 C 0.74050 0.79580 0.32996
 C252 C 0.73898 0.82169 0.35449
 C253 C 0.80022 0.90965 0.34373
 C254 C 0.80066 0.88418 0.31859
 C255 C 0.71560 0.84542 0.40711
 C256 C 0.71748 0.81908 0.38296
 H257 H 0.81642 0.93179 0.34056
 H258 H 0.81717 0.88737 0.29670
 H259 H 0.69843 0.84261 0.42854
 H260 H 0.70170 0.79668 0.38640
 H261 H 0.71660 0.89931 0.44937
 H262 H 0.79392 0.95494 0.39475
 H263 H 0.79594 0.83244 0.27385
 H264 H 0.72553 0.77279 0.33310
 C265 C 0.74264 0.12932 0.60890
 C266 C 0.71627 0.12619 0.58491
 C267 C 0.71745 0.09957 0.56109
 C268 C 0.74516 0.07684 0.56073
 C269 C 0.77152 0.08054 0.58473
 C270 C 0.77019 0.10651 0.60917
 C271 C 0.74138 0.15700 0.63423
 C272 C 0.76723 0.15947 0.65884
 C273 C 0.76552 0.18536 0.68330
 C274 C 0.73897 0.20932 0.68241
 C275 C 0.71350 0.20687 0.65738
 C276 C 0.71430 0.18036 0.63346
 C277 C 0.79577 0.11006 0.63394
 C278 C 0.79418 0.13597 0.65854
 C279 C 0.68940 0.14983 0.58515
 C280 C 0.68854 0.17660 0.60891
 H281 H 0.81708 0.09254 0.63443
 H282 H 0.81431 0.13775 0.67735
 H283 H 0.66897 0.14772 0.56672
 H284 H 0.66745 0.19439 0.60817
 H285 H 0.69724 0.09691 0.54245
 H286 H 0.79276 0.06288 0.58466
 H287 H 0.78469 0.18690 0.70310
 H288 H 0.69300 0.22536 0.65689
 C289 C 0.25028 0.88066 0.63408
 C290 C 0.27813 0.88174 0.61163
 C291 C 0.27873 0.90637 0.58578
 C292 C 0.25131 0.92910 0.58184
 C293 C 0.22346 0.92749 0.60438
 C294 C 0.22299 0.90354 0.63084
 C295 C 0.24957 0.85494 0.66138
 C296 C 0.22209 0.85435 0.68430
 C297 C 0.22170 0.83000 0.71036
 C298 C 0.24789 0.80572 0.71273
 C299 C 0.27499 0.80631 0.68931
 C300 C 0.27627 0.83128 0.66389
 C301 C 0.19582 0.90200 0.65409
 C302 C 0.19548 0.87795 0.68053
 C303 C 0.30464 0.85797 0.61529
 C304 C 0.30360 0.83301 0.64085
 H305 H 0.17467 0.91959 0.65190
 H306 H 0.17409 0.87764 0.69798
 H307 H 0.32622 0.85850 0.59809
 H308 H 0.32442 0.81498 0.64266
 H309 H 0.30010 0.90738 0.56830
 H310 H 0.20241 0.94514 0.60158
 H311 H 0.20097 0.82962 0.72860
 H312 H 0.29491 0.78727 0.69093
 C313 C 0.38244 0.24375 0.12244
 C314 C 0.38329 0.21775 0.09780
 C315 C 0.40790 0.21899 0.07202
 C316 C 0.43084 0.24647 0.07023
 C317 C 0.42946 0.27256 0.09486
 C318 C 0.40550 0.27110 0.12134
 C319 C 0.35663 0.24250 0.14963
 C320 C 0.35597 0.26821 0.17461
 C321 C 0.33119 0.26686 0.20036
 C322 C 0.30676 0.24062 0.20039
 C323 C 0.30736 0.21561 0.17473
 C324 C 0.33265 0.21596 0.14972
 C325 C 0.40401 0.29644 0.14666
 C326 C 0.37978 0.29491 0.17297
 C327 C 0.35924 0.19127 0.09916
 C328 C 0.33413 0.19056 0.12454
 H329 H 0.42172 0.31763 0.14615
 H330 H 0.37947 0.31496 0.19198
 H331 H 0.35960 0.17115 0.08022
 H332 H 0.31578 0.16990 0.12452
 H333 H 0.40869 0.19906 0.05287
 H334 H 0.44725 0.29368 0.09361
 H335 H 0.33025 0.28648 0.21981
 H336 H 0.28747 0.19653 0.17368
 C337 C 0.37776 0.75060 0.89031
 C338 C 0.38035 0.77741 0.91393
 C339 C 0.40719 0.77734 0.93748
 C340 C 0.43073 0.75031 0.93793
 C341 C 0.42753 0.72346 0.91433
 C342 C 0.40131 0.72368 0.89016
 C343 C 0.34993 0.75078 0.86516
 C344 C 0.34804 0.72457 0.84083
 C345 C 0.32212 0.72538 0.81638
 C346 C 0.29765 0.75149 0.81696
 C347 C 0.29942 0.77721 0.84187
 C348 C 0.32592 0.77730 0.86576
 C349 C 0.39828 0.69765 0.86573
 C350 C 0.37221 0.69821 0.84130
 C351 C 0.35600 0.80364 0.91356
 C352 C 0.32911 0.80348 0.89000
 H353 H 0.41636 0.67680 0.86533
 H354 H 0.37090 0.67780 0.82272
 H355 H 0.35769 0.82441 0.93171
 H356 H 0.31083 0.82414 0.89059
 H357 H 0.40945 0.79793 0.95580
 H358 H 0.44578 0.70273 0.91444
 H359 H 0.32104 0.70597 0.79675
 H360 H 0.28048 0.79729 0.84221
 C361 C 0.63066 0.74705 0.12139
 C362 C 0.63329 0.76909 0.09332
 C363 C 0.60708 0.76951 0.06910
 C364 C 0.57918 0.74728 0.07232
 C365 C 0.57722 0.72483 0.10012
 C366 C 0.60266 0.72505 0.12515
 C367 C 0.65765 0.74716 0.14742
 C368 C 0.65429 0.72623 0.17624
 C369 C 0.67959 0.72713 0.20135
 C370 C 0.70858 0.74763 0.19694
 C371 C 0.71205 0.76787 0.16767
 C372 C 0.68622 0.76830 0.14309
 C373 C 0.60050 0.70403 0.15401
 C374 C 0.62575 0.70484 0.17930
 C375 C 0.66205 0.79018 0.09007
 C376 C 0.68824 0.78955 0.11439
 H377 H 0.57896 0.68705 0.15723
 H378 H 0.62301 0.68845 0.20133
 H379 H 0.66441 0.80717 0.06847
 H380 H 0.71010 0.80607 0.11088
 H381 H 0.60858 0.78664 0.04749
 H382 H 0.55547 0.70795 0.10266
 H383 H 0.67705 0.71173 0.22411
 H384 H 0.73460 0.78350 0.16442
 C385 C 0.61080 0.25591 0.86660
 C386 C 0.61036 0.22786 0.88877
 C387 C 0.58618 0.22680 0.91500
 C388 C 0.56315 0.25390 0.91959
 C389 C 0.56417 0.28204 0.89740
 C390 C 0.58774 0.28299 0.87055
 C391 C 0.63599 0.25700 0.83880
 C392 C 0.63601 0.28468 0.81614
 C393 C 0.65988 0.28541 0.78959
 C394 C 0.68414 0.25926 0.78642
 C395 C 0.68416 0.23202 0.80963
 C396 C 0.65974 0.23044 0.83556
 C397 C 0.58870 0.31038 0.84754
 C398 C 0.61231 0.31112 0.82066
 C399 C 0.63423 0.20156 0.88443
 C400 C 0.65868 0.20294 0.85838
 H401 H 0.57099 0.33137 0.85026
 H402 H 0.61217 0.33266 0.80343
 H403 H 0.63418 0.17984 0.90144
 H404 H 0.67680 0.18226 0.85602
 H405 H 0.58566 0.20521 0.93221
 H406 H 0.54631 0.30285 0.90072
 H407 H 0.65995 0.30638 0.77165
 H408 H 0.70330 0.21224 0.80752
 C409 C 0.12436 0.36932 0.24779
 C410 C 0.10365 0.37337 0.21891
 C411 C 0.07986 0.40003 0.21820
 C412 C 0.07633 0.42194 0.24644
 C413 C 0.09716 0.41735 0.27523
 C414 C 0.12148 0.39131 0.27590
 C415 C 0.14965 0.34163 0.24859
 C416 C 0.17109 0.33843 0.27700
 C417 C 0.19586 0.31289 0.27717
 C418 C 0.19855 0.28992 0.24977
 C419 C 0.17644 0.29292 0.22173
 C420 C 0.15223 0.31920 0.22077
 C421 C 0.14306 0.38694 0.30408
 C422 C 0.16765 0.36107 0.30451
 C423 C 0.10711 0.35058 0.19145
 C424 C 0.13087 0.32384 0.19244
 H425 H 0.14109 0.40381 0.32587
 H426 H 0.18402 0.35869 0.32660
 H427 H 0.09124 0.35337 0.16905
 H428 H 0.13271 0.30682 0.17075
 H429 H 0.06370 0.40336 0.19606
 H430 H 0.09473 0.43433 0.29691
 H431 H 0.21367 0.31137 0.29818
 H432 H 0.17883 0.27543 0.20046
 C433 C 0.86772 0.38823 0.74259
 C434 C 0.87108 0.41203 0.71612
 C435 C 0.89731 0.43625 0.71769
 C436 C 0.91946 0.43721 0.74587
 C437 C 0.91544 0.41349 0.77243
 C438 C 0.88985 0.38862 0.77071
 C439 C 0.84056 0.36236 0.74080
 C440 C 0.83786 0.33790 0.76675
 C441 C 0.81242 0.31298 0.76457
 C442 C 0.78909 0.31326 0.73741
 C443 C 0.79179 0.33815 0.71184
 C444 C 0.81787 0.36252 0.71313
 C445 C 0.88606 0.36399 0.79639
 C446 C 0.86063 0.33890 0.79432
 C447 C 0.84812 0.41118 0.68867
 C448 C 0.82181 0.38696 0.68732
 H449 H 0.90303 0.36398 0.81815
 H450 H 0.85867 0.32024 0.81455
 H451 H 0.85041 0.42948 0.66815
 H452 H 0.80454 0.38724 0.66579
 H453 H 0.90018 0.45465 0.69731
 H454 H 0.93263 0.41401 0.79404
 H455 H 0.81062 0.29340 0.78392
 H456 H 0.77371 0.33833 0.69098
 C457 C 0.11631 0.62476 0.75744
 C458 C 0.11530 0.60226 0.72958
 C459 C 0.08936 0.57773 0.72789
 C460 C 0.06517 0.57514 0.75423
 C461 C 0.06681 0.59759 0.78219
 C462 C 0.09211 0.62277 0.78372
 C463 C 0.14317 0.65094 0.75910
 C464 C 0.14356 0.67410 0.78643
 C465 C 0.16872 0.69941 0.78747
 C466 C 0.19387 0.70088 0.76203
 C467 C 0.19363 0.67705 0.73524
 C468 C 0.16791 0.65237 0.73329
 C469 C 0.09359 0.64610 0.81088
 C470 C 0.11876 0.67150 0.81209
 C471 C 0.14030 0.60471 0.70407
 C472 C 0.16631 0.62921 0.70602
 H473 H 0.07500 0.64485 0.83125
 H474 H 0.11890 0.68914 0.83336
 H475 H 0.13984 0.58745 0.68250
 H476 H 0.18518 0.63018 0.68589
 H477 H 0.08831 0.56031 0.70645
 H478 H 0.04805 0.59584 0.80239
 H479 H 0.16885 0.71797 0.80795
 H480 H 0.21332 0.67799 0.71591
 C481 C 0.88924 0.61878 0.24819
 C482 C 0.88601 0.59084 0.27031
 C483 C 0.91138 0.56574 0.27040
 C484 C 0.93907 0.56797 0.24779
 C485 C 0.94172 0.59579 0.22540
 C486 C 0.91709 0.62164 0.22589
 C487 C 0.86291 0.64548 0.24832
 C488 C 0.86671 0.67400 0.22706
 C489 C 0.84187 0.69960 0.22776
 C490 C 0.81294 0.69600 0.24850
 C491 C 0.80905 0.66703 0.26909
 C492 C 0.83438 0.64193 0.26965
 C493 C 0.91979 0.65033 0.20467
 C494 C 0.89515 0.67623 0.20546
 C495 C 0.85738 0.58845 0.29166
 C496 C 0.83183 0.61344 0.29111
 H497 H 0.94122 0.65288 0.18746
 H498 H 0.89826 0.69804 0.18885
 H499 H 0.85457 0.56695 0.30873
 H500 H 0.81001 0.61054 0.30778
 H501 H 0.90925 0.54410 0.28742
 H502 H 0.96322 0.59755 0.20814
 H503 H 0.84470 0.72210 0.21201
 H504 H 0.78650 0.66432 0.28480
 C505 C 0.11334 0.25120 0.61987
 C506 C 0.12203 0.26435 0.58774
 C507 C 0.09743 0.26462 0.56180
 C508 C 0.06490 0.25080 0.56767
 C509 C 0.05669 0.23723 0.59975
 C510 C 0.08070 0.23789 0.62620
 C511 C 0.13891 0.25132 0.64739
 C512 C 0.12985 0.23919 0.67981
 C513 C 0.15412 0.23970 0.70597
 C514 C 0.18748 0.25102 0.69946
 C515 C 0.19634 0.26283 0.66683
 C516 C 0.17193 0.26349 0.64075
 C517 C 0.07273 0.22565 0.65887
 C518 C 0.09681 0.22656 0.68530
 C519 C 0.15517 0.27676 0.58221
 C520 C 0.17977 0.27608 0.60818
 H521 H 0.04761 0.21547 0.66411
 H522 H 0.08958 0.21704 0.71018
 H523 H 0.16222 0.28685 0.55751
 H524 H 0.20510 0.28564 0.60277
 H525 H 0.10366 0.27487 0.53692
 H526 H 0.03148 0.22683 0.60417
 H527 H 0.14749 0.23061 0.73118
 H528 H 0.22204 0.27175 0.66206
 C529 C 0.87946 0.75804 0.62188
 C530 C 0.87194 0.74774 0.58841
 C531 C 0.89830 0.74613 0.56431
 C532 C 0.93162 0.75551 0.57345
 C533 C 0.93877 0.76624 0.60685
 C534 C 0.91277 0.76714 0.63139
 C535 C 0.85199 0.75913 0.64750
 C536 C 0.85971 0.76842 0.68121
 C537 C 0.83363 0.76867 0.70562
 C538 C 0.80006 0.76030 0.69628
 C539 C 0.79257 0.75166 0.66232
 C540 C 0.81858 0.75063 0.63784
 C541 C 0.91940 0.77670 0.66526
 C542 C 0.89335 0.77713 0.68980
 C543 C 0.83823 0.73929 0.57977
 C544 C 0.81197 0.74090 0.60403
 H545 H 0.94499 0.78368 0.67293
 H546 H 0.89959 0.78440 0.71569
 H547 H 0.83209 0.73142 0.55402
 H548 H 0.78632 0.73422 0.59630
 H549 H 0.89297 0.73799 0.53844
 H550 H 0.96459 0.77329 0.61374
 H551 H 0.83923 0.77539 0.73183
 H552 H 0.76668 0.74507 0.65531
 C553 C 0.12981 0.74323 0.38810
 C554 C 0.09816 0.75738 0.37926
 C555 C 0.07248 0.75956 0.40405
 C556 C 0.07807 0.74668 0.43696
 C557 C 0.10964 0.73207 0.44535
 C558 C 0.13589 0.73079 0.42110
 C559 C 0.15713 0.74149 0.36236
 C560 C 0.18918 0.72855 0.37157
 C561 C 0.21532 0.72779 0.34722
 C562 C 0.20911 0.73883 0.31375
 C563 C 0.17673 0.75107 0.30466
 C564 C 0.15073 0.75300 0.32909
 C565 C 0.16813 0.71754 0.42919
 C566 C 0.19442 0.71671 0.40491
 C567 C 0.09284 0.76893 0.34581
 C568 C 0.11859 0.76653 0.32108
 H569 H 0.17318 0.70799 0.45457
 H570 H 0.21899 0.70657 0.41228
 H571 H 0.06850 0.77977 0.33864
 H572 H 0.11340 0.77560 0.29555
 H573 H 0.04798 0.77060 0.39768
 H574 H 0.11385 0.72235 0.47085
 H575 H 0.24037 0.71840 0.35404
 H576 H 0.17222 0.75978 0.27886
 C577 C 0.87923 0.24914 0.36956
 C578 C 0.87094 0.26315 0.40148
 C579 C 0.89567 0.26365 0.42726
 C580 C 0.92796 0.24935 0.42147
 C581 C 0.93580 0.23493 0.38963
 C582 C 0.91162 0.23522 0.36331
 C583 C 0.85353 0.24906 0.34218
 C584 C 0.86216 0.23604 0.30994
 C585 C 0.83775 0.23649 0.28386
 C586 C 0.80479 0.24887 0.29031
 C587 C 0.79633 0.26136 0.32279
 C588 C 0.82082 0.26200 0.34876
 C589 C 0.91916 0.22207 0.33085
 C590 C 0.89492 0.22271 0.30454
 C591 C 0.83807 0.27622 0.40695
 C592 C 0.81335 0.27542 0.38111
 H593 H 0.94408 0.21139 0.32568
 H594 H 0.90183 0.21250 0.27983
 H595 H 0.83134 0.28698 0.43148
 H596 H 0.78825 0.28557 0.38644
 H597 H 0.88976 0.27458 0.45196
 H598 H 0.96085 0.22411 0.38528
 H599 H 0.84404 0.22679 0.25876
 H600 H 0.77085 0.27092 0.32753
 C601 C 0.23238 0.37852 0.88362
 C602 C 0.24565 0.41089 0.87601
 C603 C 0.24741 0.43555 0.90181
 C604 C 0.23522 0.42826 0.93468
 C605 C 0.22092 0.39617 0.94174
 C606 C 0.21998 0.37089 0.91634
 C607 C 0.23229 0.35188 0.85706
 C608 C 0.22066 0.31897 0.86508
 C609 C 0.22181 0.29343 0.84002
 C610 C 0.23377 0.30102 0.80711
 C611 C 0.24458 0.33425 0.79925
 C612 C 0.24442 0.35970 0.82431
 C613 C 0.20782 0.33788 0.92317
 C614 C 0.20835 0.31232 0.89804
 C615 C 0.25748 0.41773 0.84294
 C616 C 0.25662 0.39263 0.81744
 H617 H 0.19829 0.33161 0.94829
 H618 H 0.19916 0.28709 0.90450
 H619 H 0.26763 0.44266 0.83674
 H620 H 0.26606 0.39892 0.79228
 H621 H 0.25851 0.46031 0.89653
 H622 H 0.21204 0.39049 0.96728
 H623 H 0.21330 0.26780 0.84584
 H624 H 0.25378 0.33991 0.77383
 C625 C 0.75222 0.37978 0.11036
 C626 C 0.73850 0.41182 0.11866
 C627 C 0.73722 0.43722 0.09360
 C628 C 0.75059 0.43100 0.06097
 C629 C 0.76477 0.39905 0.05312
 C630 C 0.76512 0.37306 0.07764
 C631 C 0.75306 0.35277 0.13643
 C632 C 0.76561 0.32035 0.12780
 C633 C 0.76560 0.29455 0.15249
 C634 C 0.75409 0.30146 0.18570
 C635 C 0.74241 0.33423 0.19422
 C636 C 0.74121 0.35988 0.16946
 C637 C 0.77794 0.34047 0.07012
 C638 C 0.77791 0.31448 0.09469
 C639 C 0.72655 0.41781 0.15187
 C640 C 0.72815 0.39236 0.17693
 H641 H 0.78785 0.33493 0.04495
 H642 H 0.78777 0.28963 0.08777
 H643 H 0.71605 0.44245 0.15862
 H644 H 0.71883 0.39808 0.20228
 H645 H 0.72654 0.46202 0.09955
 H646 H 0.77487 0.39437 0.02783
 H647 H 0.77478 0.26926 0.14618
 H648 H 0.73355 0.33933 0.21989
 C649 C 0.74637 0.62770 0.87420
 C650 C 0.73938 0.59391 0.86451
 C651 C 0.73952 0.56827 0.88939
 C652 C 0.74706 0.57634 0.92343
 C653 C 0.75421 0.61016 0.93282
 C654 C 0.75366 0.63610 0.90825
 C655 C 0.74614 0.65478 0.84819
 C656 C 0.75279 0.68861 0.85794
 C657 C 0.75256 0.71425 0.83310
 C658 C 0.74606 0.70609 0.79881
 C659 C 0.73949 0.67210 0.78941
 C660 C 0.73938 0.64630 0.81407
 C661 C 0.76024 0.67022 0.91699
 C662 C 0.75971 0.69605 0.89227
 C663 C 0.73254 0.58647 0.83016
 C664 C 0.73265 0.61221 0.80534
 H665 H 0.76582 0.67702 0.94316
 H666 H 0.76488 0.72204 0.90007
 H667 H 0.72718 0.56051 0.82236
 H668 H 0.72738 0.60538 0.77911
 H669 H 0.73413 0.54207 0.88235
 H670 H 0.75996 0.61616 0.95917
 H671 H 0.75773 0.74047 0.84019
 H672 H 0.73438 0.66597 0.76296
 C673 C 0.26640 0.61459 0.12993
 C674 C 0.27676 0.58101 0.13686
 C675 C 0.27577 0.55660 0.11064
 C676 C 0.26351 0.56556 0.07822
 C677 C 0.25331 0.59922 0.07164
 C678 C 0.25509 0.62402 0.09732
 C679 C 0.26657 0.64016 0.15752
 C680 C 0.25644 0.67374 0.15045
 C681 C 0.25639 0.69788 0.17678
 C682 C 0.26542 0.68833 0.21008
 C683 C 0.27538 0.65461 0.21690
 C684 C 0.27632 0.63040 0.19053
 C685 C 0.24521 0.65787 0.09125
 C686 C 0.24611 0.68239 0.11732
 C687 C 0.28700 0.57240 0.17006
 C688 C 0.28660 0.59663 0.19648
 H689 H 0.23658 0.66546 0.06617
 H690 H 0.23822 0.70821 0.11160
 H691 H 0.29495 0.54660 0.17578
 H692 H 0.29430 0.58881 0.22179
 H693 H 0.28307 0.53045 0.11572
 H694 H 0.24369 0.60591 0.04662
 H695 H 0.24869 0.72392 0.17172
 H696 H 0.28252 0.64746 0.24259
 C697 C 0.36971 0.12238 0.75394
 C698 C 0.36230 0.08934 0.74235
 C699 C 0.38878 0.06546 0.73982
 C700 C 0.42148 0.07335 0.75248
 C701 C 0.42791 0.10608 0.76591
 C702 C 0.40259 0.13128 0.76481
 C703 C 0.34252 0.14822 0.75456
 C704 C 0.35077 0.18222 0.76183
 C705 C 0.32524 0.20708 0.75972
 C706 C 0.29081 0.19764 0.75511
 C707 C 0.28287 0.16283 0.75034
 C708 C 0.30886 0.13846 0.74765
 C709 C 0.40956 0.16532 0.77367
 C710 C 0.38431 0.19058 0.77119
 C711 C 0.32849 0.08082 0.73408
 C712 C 0.30205 0.10472 0.73767
 H713 H 0.43493 0.17265 0.78172
 H714 H 0.39089 0.21669 0.77741
 H715 H 0.32231 0.05530 0.72549
 H716 H 0.27622 0.09697 0.73172
 H717 H 0.38347 0.04011 0.73008
 H718 H 0.45319 0.11253 0.77505
 H719 H 0.33213 0.23366 0.76229
 H720 H 0.25661 0.15490 0.74742
 C721 C 0.38833 0.87230 0.26381
 C722 C 0.38022 0.90363 0.24854
 C723 C 0.40519 0.92912 0.24669
 C724 C 0.43758 0.92370 0.26090
 C725 C 0.44517 0.89258 0.27686
 C726 C 0.42073 0.86646 0.27786
 C727 C 0.36256 0.84496 0.26469
 C728 C 0.37113 0.81310 0.27855
 C729 C 0.34683 0.78686 0.27831
 C730 C 0.31405 0.79282 0.26525
 C731 C 0.30554 0.82504 0.25224
 C732 C 0.32995 0.85109 0.25131
 C733 C 0.42813 0.83447 0.29211
 C734 C 0.40383 0.80815 0.29221
 C735 C 0.34738 0.90873 0.23527
 C736 C 0.32258 0.88299 0.23688
 H737 H 0.45304 0.82960 0.30293
 H738 H 0.41069 0.78375 0.30310
 H739 H 0.34080 0.93283 0.22357
 H740 H 0.29754 0.88796 0.22640
 H741 H 0.39950 0.95323 0.23448
 H742 H 0.47033 0.88846 0.28748
 H743 H 0.35314 0.76196 0.28844
 H744 H 0.28020 0.82940 0.24218
 C745 C 0.62522 0.11884 0.23983
 C746 C 0.59259 0.12675 0.25226
 C747 C 0.56804 0.10085 0.25444
 C748 C 0.57582 0.06766 0.24347
 C749 C 0.60831 0.06017 0.23048
 C750 C 0.63337 0.08565 0.22905
 C751 C 0.65145 0.14572 0.23846
 C752 C 0.68444 0.13751 0.22727
 C753 C 0.70951 0.16297 0.22686
 C754 C 0.70143 0.19645 0.23676
 C755 C 0.66819 0.20448 0.24735
 C756 C 0.64313 0.17903 0.24869
 C757 C 0.66650 0.07857 0.21750
 C758 C 0.69168 0.10402 0.21684
 C759 C 0.58528 0.16033 0.26239
 C760 C 0.61007 0.18608 0.26042
 H761 H 0.67313 0.05307 0.20922
 H762 H 0.71700 0.09742 0.20807
 H763 H 0.56018 0.16676 0.27189
 H764 H 0.60338 0.21165 0.26844
 H765 H 0.54288 0.10642 0.26442
 H766 H 0.61419 0.03440 0.22234
 H767 H 0.73521 0.15699 0.21870
 H768 H 0.66222 0.23031 0.25514
 C769 C 0.61608 0.88681 0.74776
 C770 C 0.58346 0.87863 0.73547
 C771 C 0.55809 0.90381 0.73539
 C772 C 0.56497 0.93641 0.74861
 C773 C 0.59754 0.94411 0.76136
 C774 C 0.62345 0.91951 0.76044
 C775 C 0.64300 0.86061 0.74743
 C776 C 0.67591 0.86911 0.75865
 C777 C 0.70151 0.84422 0.75786
 C778 C 0.69394 0.81087 0.74711
 C779 C 0.66077 0.80255 0.73643
 C780 C 0.63527 0.82754 0.73600
 C781 C 0.65658 0.92693 0.77181
 C782 C 0.68245 0.90224 0.77065
 C783 C 0.57685 0.84541 0.72377
 C784 C 0.60224 0.82022 0.72431
 H785 H 0.66262 0.95209 0.78150
 H786 H 0.70770 0.90906 0.77948
 H787 H 0.55176 0.83875 0.71436
 H788 H 0.59602 0.79484 0.71531
 H789 H 0.53284 0.89793 0.72583
 H790 H 0.60276 0.96938 0.77133
 H791 H 0.72711 0.85041 0.76621
 H792 H 0.65515 0.77681 0.72805
 C793 C 0.74802 0.88717 0.61690
 C794 C 0.77753 0.90668 0.61161
 C795 C 0.77815 0.93054 0.58505
 C796 C 0.74892 0.93616 0.56485
 C797 C 0.71923 0.91682 0.57123
 C798 C 0.71895 0.89175 0.59663
 C799 C 0.74759 0.86134 0.64411
 C800 C 0.71879 0.84049 0.64812
 C801 C 0.71904 0.81512 0.67317
 C802 C 0.74696 0.81188 0.69541
 C803 C 0.77516 0.83378 0.69177
 C804 C 0.77605 0.85787 0.66547
 C805 C 0.69029 0.87092 0.60193
 C806 C 0.69038 0.84541 0.62697
 C807 C 0.80577 0.90205 0.63312
 C808 C 0.80488 0.87835 0.65988
 H809 H 0.66775 0.87409 0.58634
 H810 H 0.66792 0.82962 0.62999
 H811 H 0.82864 0.91706 0.62942
 H812 H 0.82708 0.87573 0.67604
 H813 H 0.80109 0.94536 0.58081
 H814 H 0.69662 0.92045 0.55579
 H815 H 0.69757 0.79792 0.67546
 H816 H 0.79656 0.83160 0.70905
 C817 C 0.25278 0.37279 0.12412
 C818 C 0.26281 0.36546 0.09058
 C819 C 0.26405 0.39198 0.06665
 C820 C 0.25153 0.42458 0.07514
 C821 C 0.23969 0.43095 0.10846
 C822 C 0.24215 0.40562 0.13355
 C823 C 0.25327 0.34550 0.14985
 C824 C 0.24721 0.35358 0.18410
 C825 C 0.24976 0.32781 0.20867
 C826 C 0.25350 0.29337 0.19882
 C827 C 0.25738 0.28570 0.16387
 C828 C 0.25959 0.31184 0.13965
 C829 C 0.23475 0.41248 0.16794
 C830 C 0.23823 0.38712 0.19296
 C831 C 0.27067 0.33165 0.08160
 C832 C 0.26807 0.30512 0.10550
 H833 H 0.22692 0.43781 0.17567
 H834 H 0.23295 0.39358 0.21928
 H835 H 0.27805 0.32553 0.05570
 H836 H 0.27351 0.27928 0.09738
 H837 H 0.27256 0.38673 0.04087
 H838 H 0.23066 0.45617 0.11533
 H839 H 0.24777 0.33445 0.23536
 H840 H 0.25904 0.25949 0.15550
 C841 C 0.24498 0.12177 0.62319
 C842 C 0.21598 0.10186 0.61670
 C843 C 0.21748 0.07639 0.59171
 C844 C 0.24824 0.06950 0.57435
 C845 C 0.27736 0.08935 0.58186
 C846 C 0.27561 0.11602 0.60568
 C847 C 0.24330 0.14898 0.64906
 C848 C 0.27182 0.16992 0.65462
 C849 C 0.26985 0.19602 0.67904
 C850 C 0.24041 0.19968 0.69925
 C851 C 0.21244 0.17785 0.69384
 C852 C 0.21335 0.15319 0.66811
 C853 C 0.30382 0.13713 0.61230
 C854 C 0.30183 0.16388 0.63606
 C855 C 0.18614 0.10750 0.63565
 C856 C 0.18500 0.13243 0.66127
 H857 H 0.32758 0.13307 0.59885
 H858 H 0.32410 0.17966 0.64029
 H859 H 0.16364 0.09218 0.63099
 H860 H 0.16167 0.13565 0.67568
 H861 H 0.19492 0.06123 0.58664
 H862 H 0.30114 0.08470 0.56859
 H863 H 0.29151 0.21264 0.68330
 H864 H 0.19015 0.17984 0.70997
 C865 C 0.25732 0.87049 0.39080
 C866 C 0.28423 0.87385 0.41415
 C867 C 0.28325 0.90027 0.43825
 C868 C 0.25525 0.92265 0.43953
 C869 C 0.22831 0.91864 0.41619
 C870 C 0.22941 0.89283 0.39148
 C871 C 0.25845 0.84311 0.36507
 C872 C 0.23206 0.84041 0.34107
 C873 C 0.23365 0.81483 0.31619
 C874 C 0.26075 0.79142 0.31600
 C875 C 0.28671 0.79407 0.34055
 C876 C 0.28597 0.82026 0.36486
 C877 C 0.20326 0.88904 0.36732
 C878 C 0.20468 0.86340 0.34239
 C879 C 0.31148 0.85068 0.41295
 C880 C 0.31224 0.82420 0.38885
 H881 H 0.18163 0.90617 0.36755
 H882 H 0.18411 0.86146 0.32409
 H883 H 0.33234 0.85295 0.43088
 H884 H 0.33366 0.80680 0.38885
 H885 H 0.30395 0.90312 0.45631
 H886 H 0.20682 0.93597 0.41689
 H887 H 0.21395 0.81308 0.29694
 H888 H 0.30751 0.77592 0.34042
 C889 C 0.75136 0.12107 0.36767
 C890 C 0.72324 0.11908 0.38971
 C891 C 0.72283 0.09411 0.41521
 C892 C 0.75065 0.07187 0.41923
 C893 C 0.77880 0.07442 0.39714
 C894 C 0.77911 0.09876 0.37102
 C895 C 0.75181 0.14709 0.34064
 C896 C 0.77954 0.14854 0.31807
 C897 C 0.77960 0.17305 0.29216
 C898 C 0.75278 0.19663 0.28954
 C899 C 0.72543 0.19519 0.31264
 C900 C 0.72453 0.17007 0.33795
 C901 C 0.80655 0.10120 0.34815
 C902 C 0.80665 0.12554 0.32197
 C903 C 0.69622 0.14224 0.38593
 C904 C 0.69696 0.16746 0.36061
 H905 H 0.82805 0.08407 0.35041
 H906 H 0.82824 0.12652 0.30479
 H907 H 0.67443 0.14101 0.40283
 H908 H 0.67571 0.18496 0.35866
 H909 H 0.70122 0.09240 0.43234
 H910 H 0.80017 0.05717 0.39999
 H911 H 0.80049 0.17400 0.27412
 H912 H 0.70493 0.21357 0.31076
 C913 C 0.61919 0.75473 0.87852
 C914 C 0.61396 0.78366 0.89891
 C915 C 0.58939 0.78254 0.92480
 C916 C 0.57127 0.75217 0.93157
 C917 C 0.57756 0.72310 0.91124
 C918 C 0.60087 0.72453 0.88418
 C919 C 0.64452 0.75602 0.85083
 C920 C 0.64865 0.72764 0.82941
 C921 C 0.67239 0.72925 0.80279
 C922 C 0.69344 0.75808 0.79897
 C923 C 0.68946 0.78599 0.82119
 C924 C 0.66435 0.78550 0.84653
 C925 C 0.60611 0.69643 0.86255
 C926 C 0.62929 0.69811 0.83535
 C927 C 0.63368 0.81304 0.89325
 C928 C 0.65878 0.81378 0.86779
 H929 H 0.59200 0.67303 0.86652
 H930 H 0.63244 0.67595 0.81914
 H931 H 0.63000 0.83549 0.90893
 H932 H 0.67377 0.83675 0.86455
 H933 H 0.58523 0.80504 0.94033
 H934 H 0.56366 0.69964 0.91577
 H935 H 0.67516 0.70783 0.78556
 H936 H 0.70604 0.80795 0.81881
 C937 C 0.12129 0.24067 0.37732
 C938 C 0.12745 0.25723 0.40849
 C939 C 0.10119 0.25929 0.43264
 C940 C 0.06949 0.24396 0.42611
 C941 C 0.06384 0.22684 0.39513
 C942 C 0.08955 0.22564 0.37030
 C943 C 0.14849 0.23931 0.35144
 C944 C 0.14188 0.22409 0.31968
 C945 C 0.16750 0.22395 0.29474
 C946 C 0.19961 0.23810 0.30190
 C947 C 0.20625 0.25218 0.33417
 C948 C 0.18049 0.25353 0.35884
 C949 C 0.08411 0.21005 0.33850
 C950 C 0.10975 0.20954 0.31351
 C951 C 0.15973 0.27135 0.41485
 C952 C 0.18590 0.26928 0.39055
 H953 H 0.05972 0.19846 0.33274
 H954 H 0.10438 0.19761 0.28918
 H955 H 0.16484 0.28403 0.43886
 H956 H 0.21045 0.28044 0.39648
 H957 H 0.10545 0.27227 0.45668
 H958 H 0.03924 0.21527 0.39015
 H959 H 0.16268 0.21287 0.26989
 H960 H 0.23113 0.26294 0.33951
 C961 C 0.62303 0.24982 0.10924
 C962 C 0.60319 0.27924 0.10488
 C963 C 0.57774 0.27949 0.07986
 C964 C 0.57080 0.24997 0.06041
 C965 C 0.59065 0.22043 0.06571
 C966 C 0.61729 0.22052 0.08951
 C967 C 0.65019 0.24963 0.13513
 C968 C 0.67109 0.22081 0.13843
 C969 C 0.69736 0.22111 0.16259
 C970 C 0.70144 0.24913 0.18466
 C971 C 0.67956 0.27735 0.18169
 C972 C 0.65458 0.27820 0.15626
 C973 C 0.63836 0.19192 0.09393
 C974 C 0.66510 0.19222 0.11769
 C975 C 0.60892 0.30766 0.12596
 C976 C 0.63389 0.30699 0.15153
 H977 H 0.63432 0.16920 0.07873
 H978 H 0.68092 0.16974 0.12015
 H979 H 0.59366 0.33047 0.12296
 H980 H 0.63722 0.32927 0.16753
 H981 H 0.56257 0.30232 0.07646
 H982 H 0.58598 0.19761 0.05079
 H983 H 0.71434 0.19945 0.16461
 H984 H 0.68208 0.29862 0.19913
 C985 C 0.36676 0.25016 0.88270
 C986 C 0.38813 0.27879 0.88529
 C987 C 0.41482 0.27858 0.90896
 C988 C 0.42071 0.24973 0.92939
 C989 C 0.39924 0.22108 0.92626
 C990 C 0.37198 0.22130 0.90313
 C991 C 0.33863 0.25029 0.85783
 C992 C 0.31698 0.22185 0.85542
 C993 C 0.29049 0.22203 0.83140
 C994 C 0.28657 0.24988 0.80917
 C995 C 0.30861 0.27806 0.81191
 C996 C 0.33435 0.27864 0.83650
 C997 C 0.34985 0.19328 0.89996
 C998 C 0.32271 0.19362 0.87663
 C999 C 0.38257 0.30693 0.86393
 C1000 C 0.35627 0.30676 0.83976
 H1001 H 0.35354 0.17088 0.91564
 H1002 H 0.30630 0.17146 0.87494
 H1003 H 0.39892 0.32914 0.86566
 H1004 H 0.35307 0.32881 0.82349
 H1005 H 0.43139 0.30061 0.91105
 H1006 H 0.40351 0.19887 0.94209
 H1007 H 0.27367 0.20021 0.82909
 H1008 H 0.30621 0.29911 0.79423
 C1009 C 0.39014 0.74458 0.13239
 C1010 C 0.41305 0.71738 0.12856
 C1011 C 0.43677 0.71818 0.10184
 C1012 C 0.43808 0.74628 0.07961
 C1013 C 0.41519 0.77353 0.08407
 C1014 C 0.39086 0.77262 0.11019
 C1015 C 0.36477 0.74363 0.16006
 C1016 C 0.34114 0.77030 0.16315
 C1017 C 0.31651 0.76881 0.18890
 C1018 C 0.31621 0.74156 0.21212
 C1019 C 0.34038 0.71529 0.20908
 C1020 C 0.36445 0.71593 0.18270
 C1021 C 0.36710 0.79905 0.11441
 C1022 C 0.34249 0.79779 0.14032
 C1023 C 0.41179 0.68998 0.15156
 C1024 C 0.38802 0.68936 0.17830
 H1025 H 0.36737 0.82076 0.09739
 H1026 H 0.32445 0.81857 0.14257
 H1027 H 0.42939 0.66888 0.14893
 H1028 H 0.38793 0.66780 0.19552
 H1029 H 0.45451 0.69725 0.09864
 H1030 H 0.41593 0.79509 0.06685
 H1031 H 0.29740 0.78864 0.19081
 H1032 H 0.34001 0.69425 0.22694
 C1033 C 0.87538 0.62926 0.74839
 C1034 C 0.88153 0.61037 0.71864
 C1035 C 0.90688 0.58524 0.71885
 C1036 C 0.92482 0.57765 0.74908
 C1037 C 0.91761 0.59644 0.77895
 C1038 C 0.89356 0.62283 0.77848
 C1039 C 0.84930 0.65624 0.74807
 C1040 C 0.84438 0.67635 0.77727
 C1041 C 0.82016 0.70252 0.77650
 C1042 C 0.79943 0.70715 0.74761
 C1043 C 0.80402 0.68605 0.71894
 C1044 C 0.82968 0.66129 0.71863
 C1045 C 0.88745 0.64305 0.80743
 C1046 C 0.86359 0.66967 0.80669
 C1047 C 0.86195 0.61675 0.68936
 C1048 C 0.83612 0.64147 0.68951
 H1049 H 0.90145 0.63846 0.83076
 H1050 H 0.85983 0.68486 0.82946
 H1051 H 0.86634 0.60222 0.66628
 H1052 H 0.82131 0.64532 0.66655
 H1053 H 0.91176 0.57086 0.69574
 H1054 H 0.93136 0.59127 0.80232
 H1055 H 0.81695 0.71893 0.79849
 H1056 H 0.78774 0.68910 0.69688
 C1057 C 0.38394 0.11262 0.25314
 C1058 C 0.38355 0.08669 0.22848
 C1059 C 0.41026 0.06299 0.22767
 C1060 C 0.43572 0.06336 0.25306
 C1061 C 0.43476 0.08876 0.27858
 C1062 C 0.40974 0.11429 0.27783
 C1063 C 0.35684 0.13860 0.25304
 C1064 C 0.35883 0.16628 0.27567
 C1065 C 0.33391 0.19184 0.27413
 C1066 C 0.30578 0.18826 0.25223
 C1067 C 0.30311 0.15931 0.23124
 C1068 C 0.32947 0.13527 0.23027
 C1069 C 0.41023 0.14174 0.30091
 C1070 C 0.38561 0.16767 0.29938
 C1071 C 0.35624 0.08478 0.20539
 C1072 C 0.32927 0.10823 0.20677
 H1073 H 0.43017 0.14351 0.31991
 H1074 H 0.38725 0.18871 0.31722
 H1075 H 0.35546 0.06468 0.18645
 H1076 H 0.30845 0.10560 0.18884
 H1077 H 0.41029 0.04329 0.20825
 H1078 H 0.45443 0.08970 0.29795
 H1079 H 0.33598 0.21416 0.29028
 H1080 H 0.28096 0.15606 0.21511
 C1081 C 0.13210 0.61188 0.25512
 C1082 C 0.11384 0.60771 0.22467
 C1083 C 0.08848 0.58258 0.22279
 C1084 C 0.08011 0.56281 0.25166
 C1085 C 0.09830 0.56804 0.28228
 C1086 C 0.12485 0.59193 0.28386
 C1087 C 0.15931 0.63773 0.25697
 C1088 C 0.17876 0.64075 0.28683
 C1089 C 0.20519 0.66475 0.28808
 C1090 C 0.21084 0.68698 0.26053
 C1091 C 0.19034 0.68431 0.23122
 C1092 C 0.16526 0.65901 0.22888
 C1093 C 0.14444 0.59613 0.31355
 C1094 C 0.17124 0.61983 0.31486
 C1095 C 0.12107 0.62898 0.19680
 C1096 C 0.14605 0.65451 0.19902
 H1097 H 0.13922 0.58075 0.33585
 H1098 H 0.18591 0.62208 0.33813
 H1099 H 0.10703 0.62613 0.17320
 H1100 H 0.15060 0.67063 0.17709
 H1101 H 0.07459 0.57924 0.19914
 H1102 H 0.09254 0.55288 0.30463
 H1103 H 0.22115 0.66645 0.31053
 H1104 H 0.19409 0.70182 0.21024
 C1105 C 0.88326 0.37736 0.24052
 C1106 C 0.88524 0.39951 0.26859
 C1107 C 0.91124 0.42398 0.26971
 C1108 C 0.93466 0.42681 0.24269
 C1109 C 0.93200 0.40477 0.21447
 C1110 C 0.90655 0.37968 0.21345
 C1111 C 0.85641 0.35111 0.23956
 C1112 C 0.85505 0.32827 0.21200
 C1113 C 0.82994 0.30287 0.21164
 C1114 C 0.80584 0.30095 0.23808
 C1115 C 0.80704 0.32448 0.26509
 C1116 C 0.83269 0.34928 0.26629
 C1117 C 0.90407 0.35668 0.18607
 C1118 C 0.87887 0.33127 0.18546
 C1119 C 0.86119 0.39672 0.29497
 C1120 C 0.83521 0.37216 0.29373
 H1121 H 0.92192 0.35818 0.16506
 H1122 H 0.87797 0.31389 0.16400
 H1123 H 0.86242 0.41373 0.31671
 H1124 H 0.81712 0.37088 0.31454
 H1125 H 0.91304 0.44107 0.29137
 H1126 H 0.95013 0.40670 0.19372
 H1127 H 0.82903 0.28460 0.19091
 H1128 H 0.78814 0.32325 0.28519
 C1129 C 0.10991 0.38056 0.75143
 C1130 C 0.08628 0.38284 0.77821
 C1131 C 0.06219 0.40920 0.77800
 C1132 C 0.06123 0.43265 0.75090
 C1133 C 0.08486 0.42977 0.72406
 C1134 C 0.10954 0.40397 0.72439
 C1135 C 0.13561 0.35321 0.75176
 C1136 C 0.15986 0.35154 0.72550
 C1137 C 0.18470 0.32596 0.72636
 C1138 C 0.18468 0.30165 0.75264
 C1139 C 0.15985 0.30325 0.77843
 C1140 C 0.13553 0.32936 0.77841
 C1141 C 0.13395 0.40121 0.69836
 C1142 C 0.15884 0.37555 0.69901
 C1143 C 0.08718 0.35867 0.80457
 C1144 C 0.11128 0.33225 0.80457
 H1145 H 0.13396 0.41916 0.67741
 H1146 H 0.17735 0.37442 0.67856
 H1147 H 0.06903 0.36012 0.82533
 H1148 H 0.11107 0.31408 0.82533
 H1149 H 0.04388 0.41116 0.79859
 H1150 H 0.08438 0.44792 0.70327
 H1151 H 0.20411 0.32491 0.70674
 H1152 H 0.15982 0.28439 0.79857
 C1153 C 0.88766 0.74874 0.37996
 C1154 C 0.91386 0.77313 0.37911
 C1155 C 0.93798 0.77376 0.40546
 C1156 C 0.93651 0.74961 0.43191
 C1157 C 0.91041 0.72499 0.43212
 C1158 C 0.88557 0.72476 0.40643
 C1159 C 0.86185 0.74836 0.35267
 C1160 C 0.83495 0.72477 0.35417
 C1161 C 0.81005 0.72508 0.32859
 C1162 C 0.81272 0.74787 0.30113
 C1163 C 0.84010 0.77092 0.29959
 C1164 C 0.86448 0.77170 0.32569
 C1165 C 0.85855 0.70124 0.40678
 C1166 C 0.83352 0.70142 0.38123
 C1167 C 0.91543 0.79630 0.35188
 C1168 C 0.89129 0.79544 0.32549
 H1169 H 0.85660 0.68269 0.42711
 H1170 H 0.81298 0.68301 0.38258
 H1171 H 0.93557 0.81517 0.35088
 H1172 H 0.89350 0.81366 0.30489
 H1173 H 0.95823 0.79257 0.40513
 H1174 H 0.90907 0.70656 0.45263
 H1175 H 0.78866 0.70766 0.32989
 H1176 H 0.84210 0.78837 0.27831
 C1177 C 0.87114 0.25876 0.61123
 C1178 C 0.90172 0.24209 0.61941
 C1179 C 0.92763 0.24012 0.59485
 C1180 C 0.92340 0.25566 0.56290
 C1181 C 0.89296 0.27287 0.55526
 C1182 C 0.86640 0.27398 0.57920
 C1183 C 0.84347 0.26012 0.63662
 C1184 C 0.81235 0.27553 0.62797
 C1185 C 0.78581 0.27589 0.65191
 C1186 C 0.79077 0.26193 0.68448
 C1187 C 0.82230 0.24738 0.69311
 C1188 C 0.84859 0.24579 0.66900
 C1189 C 0.83513 0.28967 0.57169
 C1190 C 0.80846 0.29018 0.59557
 C1191 C 0.90576 0.22779 0.65196
 C1192 C 0.87975 0.22987 0.67644
 H1193 H 0.83112 0.30138 0.54704
 H1194 H 0.78465 0.30226 0.58864
 H1195 H 0.92929 0.21501 0.65862
 H1196 H 0.88394 0.21864 0.70128
 H1197 H 0.95125 0.22705 0.60067
 H1198 H 0.88974 0.28459 0.53047
 H1199 H 0.76146 0.28719 0.64551
 H1200 H 0.82592 0.23667 0.71830
 C1201 C 0.12176 0.75339 0.63080
 C1202 C 0.09004 0.76912 0.63611
 C1203 C 0.06604 0.76925 0.60962
 C1204 C 0.07330 0.75281 0.57863
 C1205 C 0.10490 0.73670 0.57382
 C1206 C 0.12953 0.73741 0.59970
 C1207 C 0.14728 0.75359 0.65836
 C1208 C 0.17939 0.73886 0.65265
 C1209 C 0.20372 0.73957 0.67877
 C1210 C 0.19557 0.75374 0.71064
 C1211 C 0.16319 0.76792 0.71623
 C1212 C 0.13905 0.76845 0.68990
 C1213 C 0.16179 0.72259 0.59510
 C1214 C 0.18640 0.72356 0.62104
 C1215 C 0.08295 0.78416 0.66784
 C1216 C 0.10694 0.78357 0.69438
 H1217 H 0.16813 0.71031 0.57119
 H1218 H 0.21103 0.71201 0.61640
 H1219 H 0.05854 0.79625 0.67229
 H1220 H 0.10035 0.79523 0.71854
 H1221 H 0.04151 0.78143 0.61325
 H1222 H 0.11041 0.72422 0.54976
 H1223 H 0.22876 0.72865 0.67469
 H1224 H 0.15714 0.77889 0.74087
 C1225 C 0.75748 0.62064 0.11779
 C1226 C 0.78063 0.62255 0.09055
 C1227 C 0.77931 0.59779 0.06475
 C1228 C 0.75436 0.57203 0.06562
 C1229 C 0.73111 0.57069 0.09288
 C1230 C 0.73287 0.59467 0.11933
 C1231 C 0.75887 0.64643 0.14510
 C1232 C 0.73630 0.64399 0.17277
 C1233 C 0.73789 0.66846 0.19875
 C1234 C 0.76083 0.69586 0.19640
 C1235 C 0.78302 0.69824 0.16840
 C1236 C 0.78256 0.67320 0.14288
 C1237 C 0.71054 0.59324 0.14728
 C1238 C 0.71240 0.61734 0.17369
 C1239 C 0.80437 0.64937 0.08954
 C1240 C 0.80514 0.67442 0.11513
 H1241 H 0.69154 0.57326 0.14881
 H1242 H 0.69477 0.61529 0.19483
 H1243 H 0.82229 0.65119 0.06862
 H1244 H 0.82362 0.69486 0.11323
 H1245 H 0.79705 0.59899 0.04360
 H1246 H 0.71207 0.55066 0.09371
 H1247 H 0.72101 0.66662 0.22052
 H1248 H 0.80049 0.71957 0.16658
 C1249 C 0.24605 0.62023 0.88950
 C1250 C 0.26312 0.58958 0.88235
 C1251 C 0.26408 0.56396 0.90723
 C1252 C 0.24716 0.56848 0.93851
 C1253 C 0.22962 0.59905 0.94508
 C1254 C 0.22949 0.62532 0.92084
 C1255 C 0.24560 0.64756 0.86373
 C1256 C 0.22968 0.67871 0.87138
 C1257 C 0.23005 0.70488 0.84706
 C1258 C 0.24515 0.69948 0.81505
 C1259 C 0.26030 0.66794 0.80743
 C1260 C 0.26119 0.64203 0.83198
 C1261 C 0.21338 0.65664 0.92734
 C1262 C 0.21373 0.68299 0.90315
 C1263 C 0.27874 0.58516 0.85043
 C1264 C 0.27754 0.61084 0.82556
 H1265 H 0.20064 0.66093 0.95146
 H1266 H 0.20125 0.70684 0.90929
 H1267 H 0.29186 0.56159 0.84455
 H1268 H 0.28977 0.60634 0.80122
 H1269 H 0.27736 0.54027 0.90211
 H1270 H 0.21683 0.60259 0.96931
 H1271 H 0.21833 0.72925 0.85272
 H1272 H 0.27190 0.66397 0.78267
 C1273 C 0.73925 0.38602 0.86786
 C1274 C 0.75474 0.37764 0.89901
 C1275 C 0.75685 0.40245 0.92467
 C1276 C 0.74266 0.43491 0.91958
 C1277 C 0.72666 0.44281 0.88858
 C1278 C 0.72539 0.41856 0.86230
 C1279 C 0.73773 0.36032 0.84047
 C1280 C 0.72349 0.36911 0.80884
 C1281 C 0.72301 0.34484 0.78259
 C1282 C 0.73574 0.31189 0.78830
 C1283 C 0.74913 0.30315 0.82029
 C1284 C 0.75077 0.32752 0.84636
 C1285 C 0.71085 0.42622 0.83051
 C1286 C 0.71016 0.40199 0.80414
 C1287 C 0.76773 0.34464 0.90384
 C1288 C 0.76554 0.31991 0.87804
 H1289 H 0.70020 0.45125 0.82588
 H1290 H 0.69902 0.40903 0.77991
 H1291 H 0.77959 0.33784 0.92780
 H1292 H 0.77578 0.29473 0.88282
 H1293 H 0.76900 0.39648 0.94875
 H1294 H 0.71598 0.46800 0.88475
 H1295 H 0.71263 0.35133 0.75784
 H1296 H 0.75896 0.27767 0.82443
 C1297 C 0.63049 0.87581 0.25050
 C1298 C 0.63104 0.90196 0.22610
 C1299 C 0.60509 0.92653 0.22631
 C1300 C 0.57946 0.92561 0.25137
 C1301 C 0.57959 0.89960 0.27601
 C1302 C 0.60477 0.87425 0.27535
 C1303 C 0.65733 0.84954 0.25001
 C1304 C 0.65608 0.82270 0.27362
 C1305 C 0.68128 0.79742 0.27256
 C1306 C 0.70825 0.79974 0.24912
 C1307 C 0.70955 0.82709 0.22606
 C1308 C 0.68372 0.85175 0.22593
 C1309 C 0.60467 0.84727 0.29886
 C1310 C 0.62973 0.82177 0.29782
 C1311 C 0.65761 0.90305 0.20211
 C1312 C 0.68366 0.87854 0.20221
 H1313 H 0.58491 0.84572 0.31808
 H1314 H 0.62860 0.80128 0.31627
 H1315 H 0.65838 0.92315 0.18323
 H1316 H 0.70379 0.88042 0.18341
 H1317 H 0.60514 0.94673 0.20748
 H1318 H 0.55967 0.89873 0.29515
 H1319 H 0.68017 0.77611 0.29005
 H1320 H 0.73052 0.82892 0.20820
 C1321 C 0.61195 0.12790 0.73355
 C1322 C 0.57946 0.13359 0.71965
 C1323 C 0.55504 0.10739 0.72094
 C1324 C 0.56277 0.07638 0.73709
 C1325 C 0.59539 0.07108 0.75086
 C1326 C 0.62028 0.09661 0.74874
 C1327 C 0.63752 0.15546 0.73287
 C1328 C 0.67013 0.14954 0.74636
 C1329 C 0.69430 0.17583 0.74577
 C1330 C 0.68559 0.20807 0.73293
 C1331 C 0.65283 0.21381 0.71971
 C1332 C 0.62873 0.18735 0.71922
 C1333 C 0.65316 0.09167 0.76197
 C1334 C 0.67776 0.11761 0.76055
 C1335 C 0.57186 0.16560 0.70554
 C1336 C 0.59600 0.19209 0.70554
 H1337 H 0.65990 0.06757 0.77360
 H1338 H 0.70281 0.11278 0.77106
 H1339 H 0.54689 0.17038 0.69483
 H1340 H 0.58895 0.21651 0.69479
 H1341 H 0.52970 0.11155 0.71078
 H1342 H 0.60123 0.04712 0.76329
 H1343 H 0.71964 0.17160 0.75588
 H1344 H 0.64638 0.23870 0.70965
 C1345 C 0.37604 0.88130 0.76685
 C1346 C 0.36933 0.91335 0.78145
 C1347 C 0.39459 0.93872 0.78036
 C1348 C 0.42567 0.93240 0.76372
 C1349 C 0.43203 0.90021 0.74929
 C1350 C 0.40745 0.87436 0.75118
 C1351 C 0.34940 0.85477 0.76724
 C1352 C 0.35632 0.82262 0.75302
 C1353 C 0.33087 0.79756 0.75329
 C1354 C 0.29845 0.80498 0.76651
 C1355 C 0.29172 0.83730 0.78044
 C1356 C 0.31734 0.86225 0.78130
 C1357 C 0.41342 0.84190 0.73724
 C1358 C 0.38838 0.81637 0.73840
 C1359 C 0.33720 0.91958 0.79599
 C1360 C 0.31158 0.89455 0.79570
 H1361 H 0.43762 0.83622 0.72523
 H1362 H 0.39398 0.79169 0.72731
 H1363 H 0.33165 0.94420 0.80724
 H1364 H 0.28702 0.90056 0.80678
 H1365 H 0.38960 0.96374 0.79101
 H1366 H 0.45604 0.89548 0.73645
 H1367 H 0.33586 0.77256 0.74261
 H1368 H 0.26668 0.84276 0.79075
   
