data_POSCAR
  _audit_creation_date              2014-09-24
  _audit_creation_method            'ToBaCCo'
  _symmetry_space_group_name_H-M    'P1'
  _symmetry_Int_Tables_number       1
  _symmetry_cell_setting            triclinic
  loop_
  _symmetry_equiv_pos_as_xyz
 x,y,z
_cell_length_a 68.6233
_cell_length_b 68.6321
_cell_length_c 68.7049
_cell_angle_alpha 90.012400
_cell_angle_beta 89.984600
_cell_angle_gamma 89.892000
loop_
  _atom_site_label
  _atom_site_type_symbol
  _atom_site_fract_x
  _atom_site_fract_y
  _atom_site_fract_z
C1 C 0.35997 0.33131 0.34592
 C2 C 0.34553 0.33134 0.36036
 C3 C 0.33124 0.34564 0.36036
 C4 C 0.33123 0.36008 0.34592
 C5 C 0.34551 0.36004 0.33165
 C6 C 0.35996 0.34558 0.33165
 C7 C 0.37512 0.31876 0.34185
 N8 N 0.38418 0.32517 0.32556
 C9 C 0.37510 0.34148 0.31914
 C10 C 0.34143 0.37518 0.31914
 N11 N 0.32513 0.38428 0.32556
 C12 C 0.31870 0.37524 0.34186
 C13 C 0.31873 0.34160 0.37550
 N14 N 0.32517 0.32529 0.38456
 C15 C 0.34147 0.31884 0.37550
 H16 H 0.37905 0.30576 0.34988
 H17 H 0.37901 0.34950 0.30614
 H18 H 0.34947 0.37908 0.30615
 H19 H 0.30570 0.37918 0.34989
 H20 H 0.30572 0.34966 0.37942
 H21 H 0.34952 0.30583 0.37941
 C22 C 0.36012 0.83133 -0.15491
 C23 C 0.34567 0.83136 -0.14048
 C24 C 0.33137 0.84564 -0.14048
 C25 C 0.33134 0.86007 -0.15493
 C26 C 0.34563 0.86005 -0.16920
 C27 C 0.36009 0.84560 -0.16920
 C28 C 0.37529 0.81880 -0.15895
 N29 N 0.38435 0.82523 -0.17525
 C30 C 0.37526 0.84153 -0.18170
 C31 C 0.34155 0.87520 -0.18172
 N32 N 0.32523 0.88428 -0.17527
 C33 C 0.31880 0.87523 -0.15898
 C34 C 0.31887 0.84161 -0.12533
 N35 N 0.32532 0.82532 -0.11626
 C36 C 0.34163 0.81887 -0.12532
 H37 H 0.37922 0.80582 -0.15089
 H38 H 0.37916 0.84957 -0.19469
 H39 H 0.34960 0.87909 -0.19471
 H40 H 0.30580 0.87915 -0.15092
 H41 H 0.30586 0.84966 -0.12142
 H42 H 0.34970 0.80587 -0.12140
 C43 C 0.86001 0.33137 -0.15480
 C44 C 0.84557 0.33139 -0.14036
 C45 C 0.83128 0.34569 -0.14034
 C46 C 0.83127 0.36015 -0.15477
 C47 C 0.84555 0.36013 -0.16905
 C48 C 0.86000 0.34566 -0.16906
 C49 C 0.87517 0.31883 -0.15886
 N50 N 0.88423 0.32526 -0.17515
 C51 C 0.87516 0.34158 -0.18158
 C52 C 0.84149 0.37530 -0.18154
 N53 N 0.82519 0.38439 -0.17508
 C54 C 0.81875 0.37533 -0.15879
 C55 C 0.81878 0.34165 -0.12519
 N56 N 0.82522 0.32534 -0.11615
 C57 C 0.84152 0.31888 -0.12523
 H58 H 0.87908 0.30582 -0.15082
 H59 H 0.87906 0.34963 -0.19456
 H60 H 0.84954 0.37920 -0.19452
 H61 H 0.80575 0.37926 -0.15073
 H62 H 0.80578 0.34971 -0.12126
 H63 H 0.84957 0.30588 -0.12132
 C64 C 0.86027 0.83156 0.34569
 C65 C 0.84582 0.83157 0.36014
 C66 C 0.83152 0.84585 0.36014
 C67 C 0.83148 0.86028 0.34570
 C68 C 0.84575 0.86027 0.33142
 C69 C 0.86023 0.84582 0.33142
 C70 C 0.87545 0.81903 0.34164
 N71 N 0.88449 0.82547 0.32534
 C72 C 0.87539 0.84177 0.31890
 C73 C 0.84166 0.87541 0.31890
 N74 N 0.82535 0.88448 0.32535
 C75 C 0.81892 0.87543 0.34165
 C76 C 0.81902 0.84180 0.37529
 N77 N 0.82549 0.82552 0.38436
 C78 C 0.84180 0.81907 0.37529
 H79 H 0.87939 0.80604 0.34969
 H80 H 0.87927 0.84981 0.30591
 H81 H 0.84971 0.87931 0.30591
 H82 H 0.80592 0.87935 0.34971
 H83 H 0.80601 0.84985 0.37922
 H84 H 0.84987 0.80608 0.37921
 C85 C 0.64004 0.66883 0.34585
 C86 C 0.65447 0.66880 0.36030
 C87 C 0.66874 0.65448 0.36033
 C88 C 0.66874 0.64001 0.34591
 C89 C 0.65447 0.64004 0.33163
 C90 C 0.64004 0.65453 0.33161
 C91 C 0.62491 0.68139 0.34176
 N92 N 0.61586 0.67496 0.32548
 C93 C 0.62491 0.65862 0.31908
 C94 C 0.65853 0.62487 0.31914
 N95 N 0.67482 0.61576 0.32558
 C96 C 0.68124 0.62482 0.34187
 C97 C 0.68124 0.65852 0.37547
 N98 N 0.67482 0.67485 0.38450
 C99 C 0.65853 0.68132 0.37543
 H100 H 0.62099 0.69441 0.34978
 H101 H 0.62100 0.65058 0.30610
 H102 H 0.65050 0.62097 0.30615
 H103 H 0.69423 0.62087 0.34991
 H104 H 0.69423 0.65044 0.37940
 H105 H 0.65050 0.69435 0.37932
 C106 C 0.63971 0.16861 -0.15474
 C107 C 0.65415 0.16861 -0.14030
 C108 C 0.66845 0.15432 -0.14030
 C109 C 0.66847 0.13986 -0.15472
 C110 C 0.65420 0.13986 -0.16899
 C111 C 0.63973 0.15432 -0.16900
 C112 C 0.62453 0.18113 -0.15879
 N113 N 0.61548 0.17468 -0.17507
 C114 C 0.62457 0.15837 -0.18151
 C115 C 0.65828 0.12470 -0.18149
 N116 N 0.67459 0.11563 -0.17504
 C117 C 0.68102 0.12470 -0.15875
 C118 C 0.68095 0.15837 -0.12516
 N119 N 0.67449 0.17468 -0.11610
 C120 C 0.65819 0.18112 -0.12517
 H121 H 0.62060 0.19414 -0.15074
 H122 H 0.62067 0.15030 -0.19448
 H123 H 0.65023 0.12078 -0.19447
 H124 H 0.69402 0.12079 -0.15070
 H125 H 0.69395 0.15032 -0.12123
 H126 H 0.65013 0.19413 -0.12125
 C127 C 0.13984 0.66856 -0.15470
 C128 C 0.15430 0.66853 -0.14028
 C129 C 0.16858 0.65423 -0.14029
 C130 C 0.16858 0.63978 -0.15472
 C131 C 0.15429 0.63980 -0.16898
 C132 C 0.13984 0.65427 -0.16897
 C133 C 0.12468 0.68110 -0.15873
 N134 N 0.11561 0.67467 -0.17501
 C135 C 0.12467 0.65835 -0.18146
 C136 C 0.15834 0.62463 -0.18148
 N137 N 0.17464 0.61554 -0.17505
 C138 C 0.18110 0.62460 -0.15877
 C139 C 0.18110 0.65827 -0.12516
 N140 N 0.17466 0.67459 -0.11610
 C141 C 0.15836 0.68104 -0.12514
 H142 H 0.12078 0.69411 -0.15068
 H143 H 0.12076 0.65030 -0.19444
 H144 H 0.15027 0.62073 -0.19446
 H145 H 0.19410 0.62067 -0.15073
 H146 H 0.19410 0.65021 -0.12125
 H147 H 0.15031 0.69405 -0.12122
 C148 C 0.14000 0.16876 0.34534
 C149 C 0.15440 0.16870 0.35981
 C150 C 0.16870 0.15441 0.35981
 C151 C 0.16876 0.14000 0.34533
 C152 C 0.15452 0.14006 0.33102
 C153 C 0.14006 0.15452 0.33102
 C154 C 0.12484 0.18130 0.34128
 N155 N 0.11583 0.17490 0.32495
 C156 C 0.12494 0.15861 0.31849
 C157 C 0.15863 0.12494 0.31848
 N158 N 0.17492 0.11584 0.32494
 C159 C 0.18131 0.12485 0.34127
 C160 C 0.18116 0.15841 0.37500
 N161 N 0.17467 0.17469 0.38409
 C162 C 0.15840 0.18116 0.37500
 H163 H 0.12089 0.19427 0.34936
 H164 H 0.12108 0.15060 0.30547
 H165 H 0.15062 0.12107 0.30546
 H166 H 0.19429 0.12090 0.34934
 H167 H 0.19415 0.15035 0.37893
 H168 H 0.15032 0.19415 0.37894
 C169 C 0.63992 0.33126 0.65430
 C170 C 0.65435 0.33127 0.63985
 C171 C 0.66862 0.34554 0.63985
 C172 C 0.66862 0.35997 0.65430
 C173 C 0.65436 0.35996 0.66859
 C174 C 0.63993 0.34552 0.66859
 C175 C 0.62480 0.31874 0.65837
 N176 N 0.61575 0.32515 0.67468
 C177 C 0.62480 0.34144 0.68112
 C178 C 0.65842 0.37508 0.68112
 N179 N 0.67471 0.38414 0.67468
 C180 C 0.68113 0.37510 0.65837
 C181 C 0.68112 0.34149 0.62470
 N182 N 0.67471 0.32520 0.61563
 C183 C 0.65842 0.31877 0.62469
 H184 H 0.62089 0.30576 0.65033
 H185 H 0.62089 0.34946 0.69412
 H186 H 0.65040 0.37898 0.69412
 H187 H 0.69411 0.37902 0.65033
 H188 H 0.69411 0.34952 0.62078
 H189 H 0.65040 0.30578 0.62077
 C190 C 0.63946 0.83131 1.15463
 C191 C 0.65388 0.83130 1.14017
 C192 C 0.66819 0.84552 1.14019
 C193 C 0.66825 0.85991 1.15468
 C194 C 0.65400 0.85993 1.16897
 C195 C 0.63951 0.84554 1.16895
 C196 C 0.62428 0.81883 1.15866
 N197 N 0.61526 0.82526 1.17499
 C198 C 0.62437 0.84150 1.18148
 C199 C 0.65812 0.87502 1.18152
 N200 N 0.67443 0.88404 1.17509
 C201 C 0.68081 0.87500 1.15876
 C202 C 0.68067 0.84146 1.12502
 N203 N 0.67420 0.82522 1.11592
 C204 C 0.65789 0.81882 1.12498
 H205 H 0.62033 0.80588 1.15057
 H206 H 0.62051 0.84953 1.19450
 H207 H 0.65012 0.87893 1.19454
 H208 H 0.69380 0.87889 1.15071
 H209 H 0.69368 0.84947 1.12112
 H210 H 0.64982 0.80587 1.12103
 C211 C 0.13953 0.33122 1.15452
 C212 C 0.15393 0.33127 1.14005
 C213 C 0.16816 0.34557 1.14002
 C214 C 0.16815 0.36000 1.15447
 C215 C 0.15392 0.35996 1.16879
 C216 C 0.13952 0.34549 1.16881
 C217 C 0.12444 0.31867 1.15860
 N218 N 0.11540 0.32508 1.17493
 C219 C 0.12442 0.34139 1.18137
 C220 C 0.15797 0.37510 1.18129
 N221 N 0.17422 0.38421 1.17482
 C222 C 0.18063 0.37517 1.15851
 C223 C 0.18065 0.34155 1.12484
 N224 N 0.17425 0.32525 1.11578
 C225 C 0.15800 0.31878 1.12488
 H226 H 0.12055 0.30567 1.15055
 H227 H 0.12052 0.34942 1.19438
 H228 H 0.14996 0.37900 1.19431
 H229 H 0.19359 0.37912 1.15043
 H230 H 0.19361 0.34961 1.12089
 H231 H 0.14999 0.30577 1.12098
 C232 C 0.14018 0.83178 0.65460
 C233 C 0.15458 0.83182 0.64012
 C234 C 0.16884 0.84609 0.64012
 C235 C 0.16888 0.86048 0.65460
 C236 C 0.15464 0.86044 0.66893
 C237 C 0.14021 0.84600 0.66892
 C238 C 0.12506 0.81925 0.65866
 N239 N 0.11604 0.82563 0.67501
 C240 C 0.12511 0.84190 0.68147
 C241 C 0.15872 0.87554 0.68148
 N242 N 0.17499 0.88462 0.67501
 C243 C 0.18140 0.87561 0.65867
 C244 C 0.18131 0.84207 0.62492
 N245 N 0.17487 0.82580 0.61583
 C246 C 0.15860 0.81936 0.62492
 H247 H 0.12113 0.80629 0.65059
 H248 H 0.12122 0.84989 0.69450
 H249 H 0.15071 0.87941 0.69451
 H250 H 0.19437 0.87954 0.65059
 H251 H 0.19429 0.85011 0.62099
 H252 H 0.15056 0.80638 0.62099
 C253 C 0.36005 0.66846 0.65414
 C254 C 0.34564 0.66846 0.63968
 C255 C 0.33135 0.65421 0.63968
 C256 C 0.33131 0.63980 0.65415
 C257 C 0.34556 0.63980 0.66844
 C258 C 0.36002 0.65422 0.66844
 C259 C 0.37519 0.68096 0.65821
 N260 N 0.38421 0.67456 0.67453
 C261 C 0.37513 0.65829 0.68097
 C262 C 0.34146 0.62470 0.68097
 N263 N 0.32517 0.61566 0.67455
 C264 C 0.31878 0.62469 0.65822
 C265 C 0.31886 0.65828 0.62453
 N266 N 0.32532 0.67455 0.61545
 C267 C 0.34161 0.68096 0.62452
 H268 H 0.37912 0.69394 0.65016
 H269 H 0.37901 0.65028 0.69398
 H270 H 0.34947 0.62080 0.69399
 H271 H 0.30579 0.62079 0.65018
 H272 H 0.30586 0.65027 0.62061
 H273 H 0.34966 0.69393 0.62061
 C274 C 0.35990 0.16818 1.15431
 C275 C 0.34546 0.16819 1.13987
 C276 C 0.33116 0.15396 1.13989
 C277 C 0.33113 0.13955 1.15436
 C278 C 0.34540 0.13954 1.16863
 C279 C 0.35987 0.15394 1.16860
 C280 C 0.37506 0.18066 1.15834
 N281 N 0.38411 0.17424 1.17465
 C282 C 0.37502 0.15799 1.18111
 C283 C 0.34132 0.12443 1.18118
 N284 N 0.32500 0.11541 1.17475
 C285 C 0.31858 0.12445 1.15844
 C286 C 0.31866 0.15802 1.12475
 N287 N 0.32512 0.17428 1.11566
 C288 C 0.34143 0.18068 1.12471
 H289 H 0.37900 0.19362 1.15028
 H290 H 0.37892 0.14997 1.19411
 H291 H 0.34935 0.12054 1.19418
 H292 H 0.30558 0.12057 1.15040
 H293 H 0.30565 0.15002 1.12085
 H294 H 0.34949 0.19365 1.12077
 C295 C 0.86011 0.66866 1.15442
 C296 C 0.84570 0.66860 1.13995
 C297 C 0.83150 0.65427 1.13993
 C298 C 0.83153 0.63984 1.15437
 C299 C 0.84577 0.63990 1.16867
 C300 C 0.86015 0.65440 1.16870
 C301 C 0.87519 0.68123 1.15851
 N302 N 0.88424 0.67485 1.17482
 C303 C 0.87524 0.65852 1.18123
 C304 C 0.84175 0.62476 1.18118
 N305 N 0.82551 0.61563 1.17473
 C306 C 0.81908 0.62466 1.15842
 C307 C 0.81900 0.65828 1.12477
 N308 N 0.82536 0.67460 1.11572
 C309 C 0.84161 0.68109 1.12481
 H310 H 0.87906 0.69423 1.15047
 H311 H 0.87917 0.65051 1.19424
 H312 H 0.84977 0.62088 1.19419
 H313 H 0.80612 0.62069 1.15036
 H314 H 0.80604 0.65020 1.12083
 H315 H 0.84959 0.69411 1.12090
 C316 C 0.86058 0.16877 0.65469
 C317 C 0.84620 0.16872 0.64019
 C318 C 0.83194 0.15445 0.64018
 C319 C 0.83188 0.14006 0.65467
 C320 C 0.84609 0.14011 0.66900
 C321 C 0.86053 0.15454 0.66901
 C322 C 0.87570 0.18130 0.65876
 N323 N 0.88469 0.17491 0.67511
 C324 C 0.87561 0.15864 0.68158
 C325 C 0.84197 0.12502 0.68154
 N326 N 0.82571 0.11594 0.67508
 C327 C 0.81936 0.12495 0.65873
 C328 C 0.81948 0.15846 0.62498
 N329 N 0.82594 0.17472 0.61589
 C330 C 0.84219 0.18118 0.62499
 H331 H 0.87963 0.19426 0.65068
 H332 H 0.87946 0.15064 0.69461
 H333 H 0.84995 0.12114 0.69458
 H334 H 0.80640 0.12101 0.65065
 H335 H 0.80651 0.15042 0.62105
 H336 H 0.85023 0.19416 0.62107
 C337 C 0.33108 0.35983 0.65470
 C338 C 0.33109 0.34538 0.64027
 C339 C 0.34538 0.33108 0.64027
 C340 C 0.35983 0.33107 0.65470
 C341 C 0.35982 0.34535 0.66896
 C342 C 0.34536 0.35981 0.66896
 C343 C 0.31856 0.37500 0.65874
 N344 N 0.32499 0.38407 0.67502
 C345 C 0.34129 0.37498 0.68145
 C346 C 0.37498 0.34128 0.68145
 N347 N 0.38407 0.32497 0.67502
 C348 C 0.37500 0.31855 0.65874
 C349 C 0.34134 0.31858 0.62512
 N350 N 0.32504 0.32503 0.61606
 C351 C 0.31859 0.34134 0.62512
 H352 H 0.30557 0.37894 0.65070
 H353 H 0.34933 0.37891 0.69443
 H354 H 0.37890 0.34933 0.69443
 H355 H 0.37894 0.30555 0.65070
 H356 H 0.34940 0.30557 0.62120
 H357 H 0.30559 0.34940 0.62120
 C358 C 0.33124 0.86060 0.15385
 C359 C 0.33125 0.84615 0.13942
 C360 C 0.34556 0.83187 0.13940
 C361 C 0.36002 0.83187 0.15381
 C362 C 0.36002 0.84615 0.16807
 C363 C 0.34554 0.86060 0.16809
 C364 C 0.31871 0.87575 0.15793
 N365 N 0.32515 0.88482 0.17421
 C366 C 0.34147 0.87575 0.18060
 C367 C 0.37519 0.84209 0.18055
 N368 N 0.38428 0.82579 0.17411
 C369 C 0.37520 0.81935 0.15784
 C370 C 0.34150 0.81935 0.12427
 N371 N 0.32518 0.82578 0.11523
 C372 C 0.31872 0.84209 0.12430
 H373 H 0.30569 0.87968 0.14992
 H374 H 0.34953 0.87967 0.19357
 H375 H 0.37911 0.85013 0.19353
 H376 H 0.37914 0.80635 0.14981
 H377 H 0.34956 0.80636 0.12034
 H378 H 0.30571 0.85013 0.12040
 C379 C 0.83174 0.35976 0.15400
 C380 C 0.83176 0.34531 0.13957
 C381 C 0.84606 0.33103 0.13956
 C382 C 0.86051 0.33103 0.15399
 C383 C 0.86049 0.34531 0.16825
 C384 C 0.84602 0.35976 0.16826
 C385 C 0.81919 0.37492 0.15807
 N386 N 0.82561 0.38398 0.17435
 C387 C 0.84193 0.37491 0.18076
 C388 C 0.87565 0.34125 0.18074
 N389 N 0.88474 0.32495 0.17432
 C390 C 0.87569 0.31851 0.15804
 C391 C 0.84202 0.31852 0.12442
 N392 N 0.82570 0.32496 0.11537
 C393 C 0.81925 0.34126 0.12443
 H394 H 0.80619 0.37884 0.15004
 H395 H 0.84997 0.37883 0.19375
 H396 H 0.87956 0.34929 0.19373
 H397 H 0.87963 0.30551 0.15000
 H398 H 0.85008 0.30552 0.12049
 H399 H 0.80624 0.34931 0.12052
 C400 C 0.83157 0.86028 0.65469
 C401 C 0.83160 0.84585 0.64024
 C402 C 0.84590 0.83156 0.64024
 C403 C 0.86033 0.83153 0.65469
 C404 C 0.86030 0.84580 0.66897
 C405 C 0.84583 0.86026 0.66897
 C406 C 0.81904 0.87544 0.65876
 N407 N 0.82544 0.88449 0.67506
 C408 C 0.84175 0.87540 0.68148
 C409 C 0.87545 0.84172 0.68147
 N410 N 0.88454 0.82542 0.67504
 C411 C 0.87550 0.81901 0.65874
 C412 C 0.84187 0.81906 0.62509
 N413 N 0.82557 0.82552 0.61602
 C414 C 0.81911 0.84181 0.62509
 H415 H 0.80604 0.87938 0.65072
 H416 H 0.84977 0.87930 0.69448
 H417 H 0.87934 0.84974 0.69447
 H418 H 0.87945 0.80601 0.65069
 H419 H 0.84993 0.80606 0.62116
 H420 H 0.80611 0.84987 0.62117
 C421 C 0.66887 0.64000 0.65460
 C422 C 0.66887 0.65445 0.64018
 C423 C 0.65457 0.66873 0.64017
 C424 C 0.64010 0.66874 0.65460
 C425 C 0.64011 0.65446 0.66886
 C426 C 0.65458 0.64000 0.66886
 C427 C 0.68140 0.62483 0.65866
 N428 N 0.67496 0.61576 0.67493
 C429 C 0.65864 0.62484 0.68135
 C430 C 0.62493 0.65852 0.68134
 N431 N 0.61585 0.67483 0.67491
 C432 C 0.62492 0.68126 0.65864
 C433 C 0.65862 0.68124 0.62504
 N434 N 0.67493 0.67480 0.61598
 C435 C 0.68138 0.65850 0.62504
 H436 H 0.69440 0.62090 0.65063
 H437 H 0.65059 0.62092 0.69432
 H438 H 0.62101 0.65048 0.69432
 H439 H 0.62099 0.69425 0.65061
 H440 H 0.65056 0.69424 0.62112
 H441 H 0.69439 0.65045 0.62113
 C442 C 0.66899 0.13947 0.15410
 C443 C 0.66895 0.15389 0.13965
 C444 C 0.65462 0.16814 0.13961
 C445 C 0.64016 0.16815 0.15403
 C446 C 0.64019 0.15389 0.16832
 C447 C 0.65469 0.13947 0.16835
 C448 C 0.68155 0.12434 0.15819
 N449 N 0.67513 0.11529 0.17449
 C450 C 0.65879 0.12435 0.18088
 C451 C 0.62502 0.15795 0.18080
 N452 N 0.61590 0.17423 0.17435
 C453 C 0.62496 0.18065 0.15806
 C454 C 0.65865 0.18064 0.12446
 N455 N 0.67499 0.17422 0.11543
 C456 C 0.68147 0.15795 0.12451
 H457 H 0.69457 0.12042 0.15018
 H458 H 0.65074 0.12044 0.19386
 H459 H 0.62111 0.14993 0.19380
 H460 H 0.62100 0.19363 0.15002
 H461 H 0.65057 0.19362 0.12052
 H462 H 0.69450 0.14992 0.12062
 C463 C 0.16834 0.64027 0.15406
 C464 C 0.16834 0.65473 0.13963
 C465 C 0.15409 0.66906 0.13967
 C466 C 0.13967 0.66911 0.15414
 C467 C 0.13967 0.65483 0.16839
 C468 C 0.15409 0.64032 0.16835
 C469 C 0.18083 0.62507 0.15808
 N470 N 0.17441 0.61603 0.17438
 C471 C 0.15814 0.62516 0.18084
 C472 C 0.12454 0.65894 0.18093
 N473 N 0.11549 0.67527 0.17453
 C474 C 0.12454 0.68168 0.15823
 C475 C 0.15815 0.68156 0.12453
 N476 N 0.17442 0.67507 0.11544
 C477 C 0.18084 0.65874 0.12447
 H478 H 0.19381 0.62111 0.15002
 H479 H 0.15012 0.62127 0.19384
 H480 H 0.12063 0.65090 0.19391
 H481 H 0.12063 0.69469 0.15022
 H482 H 0.15012 0.69459 0.12064
 H483 H 0.19381 0.65065 0.12052
 C484 C 0.16831 0.13955 0.65448
 C485 C 0.16829 0.15399 0.64005
 C486 C 0.15400 0.16828 0.64005
 C487 C 0.13956 0.16831 0.65450
 C488 C 0.13958 0.15404 0.66877
 C489 C 0.15404 0.13957 0.66876
 C490 C 0.18084 0.12438 0.65853
 N491 N 0.17442 0.11533 0.67482
 C492 C 0.15812 0.12442 0.68126
 C493 C 0.12443 0.15812 0.68128
 N494 N 0.11535 0.17443 0.67485
 C495 C 0.12440 0.18084 0.65856
 C496 C 0.15804 0.18078 0.62491
 N497 N 0.17435 0.17433 0.61584
 C498 C 0.18080 0.15802 0.62490
 H499 H 0.19383 0.12044 0.65048
 H500 H 0.15009 0.12051 0.69425
 H501 H 0.12052 0.15009 0.69427
 H502 H 0.12046 0.19383 0.65053
 H503 H 0.14999 0.19379 0.62100
 H504 H 0.19380 0.14997 0.62097
 C505 C 0.33146 0.64011 0.34523
 C506 C 0.33147 0.65454 0.35968
 C507 C 0.34573 0.66882 0.35967
 C508 C 0.36015 0.66882 0.34520
 C509 C 0.36015 0.65456 0.33092
 C510 C 0.34572 0.64012 0.33094
 C511 C 0.31896 0.62497 0.34119
 N512 N 0.32538 0.61591 0.32488
 C513 C 0.34165 0.62497 0.31843
 C514 C 0.37528 0.65862 0.31840
 N515 N 0.38434 0.67491 0.32483
 C516 C 0.37528 0.68133 0.34114
 C517 C 0.34167 0.68132 0.37482
 N518 N 0.32539 0.67488 0.38390
 C519 C 0.31897 0.65859 0.37484
 H520 H 0.30599 0.62104 0.34925
 H521 H 0.34968 0.62105 0.30543
 H522 H 0.37920 0.65059 0.30541
 H523 H 0.37920 0.69431 0.34919
 H524 H 0.34970 0.69431 0.37874
 H525 H 0.30599 0.65056 0.37877
 C526 C 0.33151 0.13929 0.84573
 C527 C 0.33147 0.15375 0.86015
 C528 C 0.34575 0.16801 0.86017
 C529 C 0.36023 0.16798 0.84577
 C530 C 0.36027 0.15369 0.83151
 C531 C 0.34583 0.13926 0.83149
 C532 C 0.31901 0.12416 0.84165
 N533 N 0.32548 0.11507 0.82539
 C534 C 0.34180 0.12411 0.81899
 C535 C 0.37544 0.15772 0.81903
 N536 N 0.38448 0.17402 0.82547
 C537 C 0.37538 0.18047 0.84173
 C538 C 0.34164 0.18054 0.87529
 N539 N 0.32532 0.17414 0.88432
 C540 C 0.31892 0.15784 0.87526
 H541 H 0.30600 0.12026 0.84966
 H542 H 0.34987 0.12017 0.80602
 H543 H 0.37939 0.14967 0.80606
 H544 H 0.37927 0.19347 0.84976
 H545 H 0.34967 0.19353 0.87921
 H546 H 0.30592 0.14982 0.87915
 C547 C 0.83182 0.63957 0.84590
 C548 C 0.83177 0.65405 0.86031
 C549 C 0.84604 0.66831 0.86031
 C550 C 0.86051 0.66827 0.84590
 C551 C 0.86056 0.65397 0.83166
 C552 C 0.84613 0.63953 0.83167
 C553 C 0.81932 0.62442 0.84185
 N554 N 0.82579 0.61532 0.82559
 C555 C 0.84210 0.62436 0.81918
 C556 C 0.87573 0.65800 0.81918
 N557 N 0.88476 0.67431 0.82558
 C558 C 0.87565 0.68077 0.84184
 C559 C 0.84192 0.68087 0.87541
 N560 N 0.82561 0.67447 0.88444
 C561 C 0.81922 0.65815 0.87541
 H562 H 0.80631 0.62054 0.84986
 H563 H 0.85017 0.62041 0.80621
 H564 H 0.87968 0.64993 0.80621
 H565 H 0.87954 0.69379 0.84985
 H566 H 0.84994 0.69387 0.87931
 H567 H 0.80622 0.65013 0.87932
 C568 C 0.83226 0.13944 0.34567
 C569 C 0.83225 0.15389 0.36010
 C570 C 0.84651 0.16816 0.36008
 C571 C 0.86095 0.16815 0.34564
 C572 C 0.86096 0.15386 0.33138
 C573 C 0.84653 0.13942 0.33140
 C574 C 0.81976 0.12430 0.34163
 N575 N 0.82619 0.11522 0.32534
 C576 C 0.84248 0.12427 0.31890
 C577 C 0.87610 0.15791 0.31886
 N578 N 0.88514 0.17421 0.32527
 C579 C 0.87608 0.18066 0.34156
 C580 C 0.84244 0.18069 0.37521
 N581 N 0.82615 0.17428 0.38428
 C582 C 0.81973 0.15797 0.37524
 H583 H 0.80677 0.12039 0.34967
 H584 H 0.85051 0.12034 0.30590
 H585 H 0.88002 0.14987 0.30587
 H586 H 0.87999 0.19366 0.34958
 H587 H 0.85046 0.19369 0.37912
 H588 H 0.80675 0.14994 0.37917
 C589 C 0.66857 0.35986 0.34558
 C590 C 0.66859 0.34541 0.36001
 C591 C 0.65433 0.33114 0.36000
 C592 C 0.63989 0.33114 0.34556
 C593 C 0.63988 0.34541 0.33130
 C594 C 0.65431 0.35986 0.33131
 C595 C 0.68107 0.37500 0.34153
 N596 N 0.67464 0.38406 0.32524
 C597 C 0.65836 0.37500 0.31880
 C598 C 0.62475 0.34135 0.31879
 N599 N 0.61570 0.32505 0.32521
 C600 C 0.62477 0.31863 0.34150
 C601 C 0.65841 0.31863 0.37514
 N602 N 0.67469 0.32506 0.38420
 C603 C 0.68110 0.34135 0.37515
 H604 H 0.69406 0.37892 0.34957
 H605 H 0.65032 0.37892 0.30581
 H606 H 0.62082 0.34939 0.30580
 H607 H 0.62086 0.30563 0.34953
 H608 H 0.65039 0.30563 0.37905
 H609 H 0.69408 0.34939 0.37907
 C610 C 0.66807 0.86060 0.84592
 C611 C 0.66809 0.84614 0.86033
 C612 C 0.65381 0.83188 0.86032
 C613 C 0.63936 0.83191 0.84590
 C614 C 0.63935 0.84621 0.83165
 C615 C 0.65379 0.86064 0.83166
 C616 C 0.68059 0.87574 0.84187
 N617 N 0.67415 0.88482 0.82560
 C618 C 0.65785 0.87579 0.81917
 C619 C 0.62421 0.84217 0.81914
 N620 N 0.61516 0.82587 0.82555
 C621 C 0.62423 0.81941 0.84183
 C622 C 0.65789 0.81934 0.87543
 N623 N 0.67420 0.82573 0.88448
 C624 C 0.68061 0.84204 0.87545
 H625 H 0.69359 0.87963 0.84990
 H626 H 0.64980 0.87973 0.80619
 H627 H 0.62028 0.85022 0.80617
 H628 H 0.62033 0.80641 0.84984
 H629 H 0.64986 0.80634 0.87933
 H630 H 0.69361 0.85005 0.87937
 C631 C 0.16793 0.36036 0.84583
 C632 C 0.16795 0.34589 0.86024
 C633 C 0.15369 0.33161 0.86022
 C634 C 0.13924 0.33165 0.84579
 C635 C 0.13921 0.34595 0.83155
 C636 C 0.15364 0.36039 0.83157
 C637 C 0.18043 0.37550 0.84179
 N638 N 0.17398 0.38459 0.82553
 C639 C 0.15769 0.37555 0.81909
 C640 C 0.12406 0.34191 0.81905
 N641 N 0.11502 0.32560 0.82545
 C642 C 0.12410 0.31914 0.84172
 C643 C 0.15778 0.31907 0.87532
 N644 N 0.17407 0.32547 0.88438
 C645 C 0.18048 0.34179 0.87535
 H646 H 0.19343 0.37940 0.84982
 H647 H 0.14964 0.37949 0.80612
 H648 H 0.12013 0.34997 0.80608
 H649 H 0.12021 0.30613 0.84973
 H650 H 0.14975 0.30607 0.87922
 H651 H 0.19347 0.34981 0.87927
 C652 C 0.16835 0.86100 0.34571
 C653 C 0.16837 0.84656 0.36014
 C654 C 0.15410 0.83231 0.36017
 C655 C 0.13963 0.83232 0.34577
 C656 C 0.13960 0.84660 0.33150
 C657 C 0.15405 0.86102 0.33147
 C658 C 0.18086 0.87613 0.34162
 N659 N 0.17440 0.88519 0.32534
 C660 C 0.15809 0.87615 0.31895
 C661 C 0.12443 0.84255 0.31902
 N662 N 0.11538 0.82626 0.32546
 C663 C 0.12448 0.81983 0.34173
 C664 C 0.15819 0.81979 0.37529
 N665 N 0.17451 0.82619 0.38432
 C666 C 0.18092 0.84248 0.37525
 H667 H 0.19387 0.88002 0.34962
 H668 H 0.15003 0.88008 0.30598
 H669 H 0.12050 0.85058 0.30604
 H670 H 0.12058 0.80683 0.34977
 H671 H 0.15016 0.80680 0.37922
 H672 H 0.19393 0.85050 0.37914
 O673 O 0.22507 0.98188 0.25189
 O674 O 0.25188 1.01978 0.22509
 O675 O 0.25183 0.98181 0.22507
 O676 O 0.22511 1.01986 0.25191
 O677 O 0.24787 1.01978 0.27456
 O678 O 0.27459 0.98173 0.24772
 O679 O 0.27464 1.01970 0.24775
 O680 O 0.24784 0.98181 0.27455
 Cu681 Cu 0.23619 1.00084 0.23622
 Cu682 Cu 0.26352 1.00075 0.26342
 C683 C 0.23189 0.97531 0.26779
 C684 C 0.26783 1.02628 0.23186
 C685 C 0.26775 0.97520 0.23183
 C686 C 0.23194 1.02638 0.26780
 O687 O 0.24750 0.51928 0.77488
 O688 O 0.27428 0.48118 0.74818
 O689 O 0.27430 0.51916 0.74810
 O690 O 0.24745 0.48130 0.77492
 O691 O 0.22473 0.48133 0.75221
 O692 O 0.25159 0.51918 0.72540
 O693 O 0.25157 0.48120 0.72547
 O694 O 0.22478 0.51931 0.75217
 Cu695 Cu 0.26315 0.50023 0.76379
 Cu696 Cu 0.23589 0.50026 0.73654
 C697 C 0.23158 0.52587 0.76807
 C698 C 0.26748 0.47462 0.73228
 C699 C 0.26751 0.52570 0.73218
 C700 C 0.23152 0.47478 0.76813
 O701 O 0.74834 -0.01955 0.22559
 O702 O 0.77527 0.01838 0.25222
 O703 O 0.77517 -0.01959 0.25232
 O704 O 0.74847 0.01842 0.22546
 O705 O 0.72576 0.01861 0.24818
 O706 O 0.75246 -0.01941 0.27504
 O707 O 0.75256 0.01856 0.27494
 O708 O 0.72563 -0.01936 0.24831
 Cu709 Cu 0.76409 -0.00060 0.23662
 Cu710 Cu 0.73683 -0.00038 0.26389
 C711 C 0.73239 -0.02599 0.23241
 C712 C 0.76850 0.02502 0.26811
 C713 C 0.76837 -0.02606 0.26825
 C714 C 0.73257 0.02507 0.23224
 O715 O 0.74825 0.48070 0.72543
 O716 O 0.77510 0.51857 0.75224
 O717 O 0.77506 0.48059 0.75220
 O718 O 0.74830 0.51867 0.72547
 O719 O 0.72558 0.51872 0.74818
 O720 O 0.75233 0.48064 0.77490
 O721 O 0.75238 0.51862 0.77494
 O722 O 0.72553 0.48075 0.74814
 Cu723 Cu 0.76396 0.49963 0.73656
 Cu724 Cu 0.73668 0.49969 0.76382
 C725 C 0.73232 0.47419 0.73222
 C726 C 0.76831 0.52513 0.76815
 C727 C 0.76825 0.47405 0.76810
 C728 C 0.73239 0.52527 0.73228
 O729 O 0.22500 0.51914 0.24780
 O730 O 0.25176 0.48117 0.27467
 O731 O 0.25182 0.51914 0.27454
 O732 O 0.22496 0.48116 0.24791
 O733 O 0.24768 0.48102 0.22520
 O734 O 0.27454 0.51899 0.25183
 O735 O 0.27448 0.48102 0.25196
 O736 O 0.24772 0.51899 0.22509
 Cu737 Cu 0.23611 0.50017 0.26351
 Cu738 Cu 0.26338 0.49999 0.23624
 C739 C 0.23180 0.52562 0.23187
 C740 C 0.26767 0.47454 0.26789
 C741 C 0.26776 0.52562 0.26772
 C742 C 0.23175 0.47453 0.23202
 O743 O 0.75195 1.01943 0.72561
 O744 O 0.72504 0.98153 0.75231
 O745 O 0.72504 1.01951 0.75228
 O746 O 0.75191 0.98146 0.72560
 O747 O 0.77456 0.98140 0.74837
 O748 O 0.74769 1.01947 0.77505
 O749 O 0.74769 0.98149 0.77508
 O750 O 0.77460 1.01937 0.74838
 Cu751 Cu 0.73622 1.00048 0.73667
 Cu752 Cu 0.76341 1.00043 0.76400
 C753 C 0.76786 1.02594 0.73245
 C754 C 0.73178 0.97497 0.76824
 C755 C 0.73179 1.02605 0.76820
 C756 C 0.76781 0.97486 0.73244
 O757 O 0.74814 0.51876 0.27477
 O758 O 0.77490 0.48077 0.24790
 O759 O 0.77491 0.51874 0.24797
 O760 O 0.74811 0.48079 0.27469
 O761 O 0.72537 0.48088 0.25201
 O762 O 0.75217 0.51883 0.22529
 O763 O 0.75216 0.48086 0.22522
 O764 O 0.72540 0.51886 0.25209
 Cu765 Cu 0.76379 0.49975 0.26360
 Cu766 Cu 0.73650 0.49987 0.23638
 C767 C 0.73222 0.52536 0.26800
 C768 C 0.76809 0.47426 0.23198
 C769 C 0.76810 0.52534 0.23208
 C770 C 0.73217 0.47429 0.26789
 O771 O 0.24800 -0.01961 0.72524
 O772 O 0.27481 0.01831 0.75201
 O773 O 0.27484 -0.01967 0.75197
 O774 O 0.24798 0.01836 0.72529
 O775 O 0.22528 0.01837 0.74802
 O776 O 0.25214 -0.01966 0.77471
 O777 O 0.25211 0.01832 0.77475
 O778 O 0.22530 -0.01960 0.74798
 Cu779 Cu 0.26368 -0.00065 0.73635
 Cu780 Cu 0.23644 -0.00064 0.76364
 C781 C 0.23209 -0.02615 0.73205
 C782 C 0.26803 0.02486 0.76794
 C783 C 0.26806 -0.02622 0.76788
 C784 C 0.23205 0.02493 0.73211
 O785 O 0.24763 0.27457 0.98096
 O786 O 0.27445 0.24773 1.01888
 O787 O 0.27445 0.24773 0.98094
 O788 O 0.24763 0.27456 1.01889
 O789 O 0.22492 0.25187 1.01889
 O790 O 0.25173 0.22504 0.98094
 O791 O 0.25173 0.22504 1.01888
 O792 O 0.22491 0.25188 0.98096
 Cu793 Cu 0.26331 0.26342 0.99992
 Cu794 Cu 0.23605 0.23618 0.99992
 C795 C 0.23170 0.26779 0.97442
 C796 C 0.26765 0.23181 1.02542
 C797 C 0.26766 0.23181 0.97440
 C798 C 0.23171 0.26778 1.02545
 O799 O 0.24803 0.77516 0.48088
 O800 O 0.27480 0.74820 0.51875
 O801 O 0.27480 0.74828 0.48082
 O802 O 0.24806 0.77510 0.51881
 O803 O 0.22530 0.75246 0.51879
 O804 O 0.25204 0.72563 0.48079
 O805 O 0.25204 0.72556 0.51872
 O806 O 0.22527 0.75251 0.48086
 Cu807 Cu 0.26370 0.76395 0.49982
 Cu808 Cu 0.23638 0.73677 0.49979
 C809 C 0.23209 0.76842 0.47434
 C810 C 0.26797 0.73229 0.52527
 C811 C 0.26797 0.73239 0.47424
 C812 C 0.23213 0.76835 0.52536
 O813 O 0.22516 0.74810 -0.01940
 O814 O 0.25188 0.77498 0.01851
 O815 O 0.25193 0.77489 -0.01943
 O816 O 0.22511 0.74820 0.01854
 O817 O 0.24786 0.72546 0.01861
 O818 O 0.27468 0.75215 -0.01936
 O819 O 0.27464 0.75224 0.01858
 O820 O 0.24792 0.72537 -0.01933
 Cu821 Cu 0.23624 0.76382 -0.00045
 Cu822 Cu 0.26355 0.73653 -0.00037
 C823 C 0.23199 0.73216 -0.02590
 C824 C 0.26781 0.76818 0.02508
 C825 C 0.26787 0.76806 -0.02595
 C826 C 0.23192 0.73229 0.02513
 O827 O 0.22501 0.24779 0.48119
 O828 O 0.25174 0.27452 0.51920
 O829 O 0.25177 0.27458 0.48126
 O830 O 0.22497 0.24774 0.51913
 O831 O 0.24773 0.22500 0.51911
 O832 O 0.27453 0.25184 0.48124
 O833 O 0.27450 0.25178 0.51917
 O834 O 0.24777 0.22506 0.48117
 Cu835 Cu 0.23610 0.26343 0.50020
 Cu836 Cu 0.26341 0.23614 0.50017
 C837 C 0.23185 0.23188 0.47462
 C838 C 0.26767 0.26770 0.52574
 C839 C 0.26771 0.26778 0.47471
 C840 C 0.23179 0.23180 0.52566
 O841 O 0.74771 0.77480 0.98107
 O842 O 0.77454 0.74797 1.01898
 O843 O 0.77456 0.74800 0.98105
 O844 O 0.74767 0.77474 1.01901
 O845 O 0.72499 0.75201 1.01896
 O846 O 0.75189 0.72527 0.98101
 O847 O 0.75187 0.72524 1.01894
 O848 O 0.72504 0.75207 0.98103
 Cu849 Cu 0.76339 0.76365 1.00003
 Cu850 Cu 0.73617 0.73637 0.99998
 C851 C 0.73180 0.76801 0.97451
 C852 C 0.76777 0.73204 1.02550
 C853 C 0.76780 0.73207 0.97448
 C854 C 0.73175 0.76792 1.02554
 O855 O 0.74829 0.27452 0.48093
 O856 O 0.77518 0.24782 0.51889
 O857 O 0.77519 0.24777 0.48095
 O858 O 0.74828 0.27456 0.51886
 O859 O 0.72564 0.25180 0.51888
 O860 O 0.75255 0.22500 0.48098
 O861 O 0.75254 0.22506 0.51891
 O862 O 0.72565 0.25175 0.48095
 Cu863 Cu 0.76400 0.26345 0.49990
 Cu864 Cu 0.73683 0.23612 0.49993
 C865 C 0.73239 0.26768 0.47439
 C866 C 0.76844 0.23190 0.52545
 C867 C 0.76845 0.23182 0.47443
 C868 C 0.73238 0.26774 0.52541
 O869 O 0.77481 0.25186 -0.01939
 O870 O 0.74813 0.22500 0.01856
 O871 O 0.74802 0.22509 -0.01938
 O872 O 0.77491 0.25177 0.01855
 O873 O 0.75216 0.27452 0.01867
 O874 O 0.72528 0.24784 -0.01925
 O875 O 0.72539 0.24774 0.01868
 O876 O 0.75206 0.27460 -0.01927
 Cu877 Cu 0.76375 0.23615 -0.00043
 Cu878 Cu 0.73645 0.26345 -0.00028
 C879 C 0.76798 0.26780 -0.02588
 C880 C 0.73222 0.23180 0.02517
 C881 C 0.73208 0.23193 -0.02586
 C882 C 0.76811 0.26768 0.02515
 O883 O 0.72547 0.74819 0.48127
 O884 O 0.75226 0.77496 0.51919
 O885 O 0.75225 0.77496 0.48126
 O886 O 0.72550 0.74818 0.51921
 O887 O 0.74825 0.72543 0.51918
 O888 O 0.77500 0.75222 0.48123
 O889 O 0.77502 0.75222 0.51917
 O890 O 0.74822 0.72544 0.48124
 Cu891 Cu 0.73659 0.76385 0.50023
 Cu892 Cu 0.76390 0.73655 0.50020
 C893 C 0.73229 0.73226 0.47471
 C894 C 0.76820 0.76814 0.52573
 C895 C 0.76818 0.76814 0.47469
 C896 C 0.73232 0.73225 0.52574
 O897 O 0.98182 0.25174 0.22511
 O898 O 1.01987 0.22505 0.25194
 O899 O 0.98189 0.22498 0.25191
 O900 O 1.01979 0.25184 0.22516
 O901 O 1.01967 0.27458 0.24785
 O902 O 0.98177 0.24772 0.27459
 O903 O 1.01975 0.24780 0.27462
 O904 O 0.98169 0.27448 0.24779
 Cu905 Cu 1.00085 0.23612 0.23626
 Cu906 Cu 1.00071 0.26342 0.26349
 C907 C 0.97518 0.26765 0.23188
 C908 C 1.02637 0.23188 0.26785
 C909 C 0.97529 0.23178 0.26781
 C910 C 1.02627 0.26779 0.23195
 O911 O 0.51927 0.22481 0.75217
 O912 O 0.48119 0.25159 0.72547
 O913 O 0.51917 0.25162 0.72542
 O914 O 0.48129 0.22476 0.75220
 O915 O 0.48124 0.24747 0.77492
 O916 O 0.51912 0.27433 0.74814
 O917 O 0.48114 0.27430 0.74819
 O918 O 0.51922 0.24752 0.77489
 Cu919 Cu 0.50023 0.23592 0.73654
 Cu920 Cu 0.50018 0.26318 0.76381
 C921 C 0.52582 0.23161 0.76808
 C922 C 0.47459 0.26750 0.73229
 C923 C 0.52568 0.26755 0.73222
 C924 C 0.47473 0.23154 0.76812
 O925 O 0.01831 0.25217 0.77483
 O926 O -0.01959 0.22532 0.74808
 O927 O 0.01838 0.22532 0.74811
 O928 O -0.01967 0.25218 0.77480
 O929 O -0.01968 0.27486 0.75207
 O930 O 0.01837 0.24799 0.72537
 O931 O -0.01961 0.24800 0.72534
 O932 O 0.01830 0.27484 0.75210
 Cu933 Cu -0.00064 0.23647 0.76374
 Cu934 Cu -0.00066 0.26370 0.73644
 C935 C 0.02485 0.26807 0.76802
 C936 C -0.02614 0.23209 0.73216
 C937 C 0.02494 0.23208 0.73220
 C938 C -0.02624 0.26809 0.76798
 O939 O 0.51897 0.25164 0.27459
 O940 O 0.48100 0.22486 0.24787
 O941 O 0.51898 0.22486 0.24780
 O942 O 0.48100 0.25164 0.27466
 O943 O 0.48092 0.27438 0.25198
 O944 O 0.51890 0.24759 0.22512
 O945 O 0.48092 0.24760 0.22519
 O946 O 0.51890 0.27437 0.25191
 Cu947 Cu 0.49999 0.23597 0.26350
 Cu948 Cu 0.49990 0.26326 0.23628
 C949 C 0.52549 0.26756 0.26780
 C950 C 0.47441 0.23167 0.23198
 C951 C 0.52550 0.23167 0.23189
 C952 C 0.47441 0.26757 0.26790
 O953 O 0.98150 0.75192 0.72558
 O954 O 1.01954 0.72508 0.75228
 O955 O 0.98156 0.72507 0.75230
 O956 O 1.01948 0.75195 0.72559
 O957 O 1.01942 0.77462 0.74834
 O958 O 0.98151 0.74775 0.77505
 O959 O 1.01949 0.74775 0.77503
 O960 O 0.98144 0.77459 0.74834
 Cu961 Cu 1.00052 0.73623 0.73666
 Cu962 Cu 1.00046 0.76345 0.76397
 C963 C 0.97491 0.76782 0.73242
 C964 C 1.02608 0.73184 0.76820
 C965 C 0.97499 0.73184 0.76823
 C966 C 1.02599 0.76786 0.73242
 O967 O 0.51921 0.72567 0.25178
 O968 O 0.48125 0.75243 0.22489
 O969 O 0.51923 0.75243 0.22499
 O970 O 0.48123 0.72564 0.25166
 O971 O 0.48111 0.74838 0.27434
 O972 O 0.51912 0.77517 0.24767
 O973 O 0.48114 0.77517 0.24757
 O974 O 0.51908 0.74841 0.27447
 Cu975 Cu 0.50024 0.73676 0.23606
 Cu976 Cu 0.50010 0.76406 0.26329
 C977 C 0.52569 0.73248 0.26771
 C978 C 0.47464 0.76836 0.23165
 C979 C 0.52574 0.76836 0.23179
 C980 C 0.47461 0.73245 0.26754
 O981 O -0.01923 0.72589 0.24823
 O982 O 0.01867 0.75276 0.27495
 O983 O -0.01931 0.75268 0.27502
 O984 O 0.01874 0.72597 0.24817
 O985 O 0.01862 0.74871 0.22548
 O986 O -0.01943 0.77541 0.25233
 O987 O 0.01855 0.77549 0.25227
 O988 O -0.01935 0.74862 0.22554
 Cu989 Cu -0.00027 0.73705 0.26386
 Cu990 Cu -0.00042 0.76434 0.23664
 C991 C -0.02583 0.73268 0.23233
 C992 C 0.02516 0.76870 0.26816
 C993 C -0.02594 0.76859 0.26824
 C994 C 0.02524 0.73279 0.23225
 O995 O 0.51858 0.75234 0.77483
 O996 O 0.48074 0.72546 0.74802
 O997 O 0.51872 0.72551 0.74809
 O998 O 0.48060 0.75229 0.77476
 O999 O 0.48057 0.77499 0.75204
 O1000 O 0.51869 0.74821 0.72536
 O1001 O 0.48072 0.74815 0.72530
 O1002 O 0.51855 0.77504 0.75210
 Cu1003 Cu 0.49966 0.73663 0.76370
 Cu1004 Cu 0.49963 0.76387 0.73642
 C1005 C 0.52510 0.76827 0.76803
 C1006 C 0.47420 0.73223 0.73209
 C1007 C 0.52528 0.73230 0.73218
 C1008 C 0.47401 0.76820 0.76794
 C1009 C 0.42882 0.29791 0.29831
 C1010 C 0.43634 0.30551 0.28097
 C1011 C 0.45128 0.29574 0.27114
 C1012 C 0.39977 0.31583 0.31624
 C1013 C 0.45135 0.27074 0.29607
 C1014 C 0.43640 0.28055 0.30586
 C1015 C 0.41309 0.30772 0.30813
 C1016 C 0.45891 0.27819 0.27854
 H1017 H 0.43055 0.31893 0.27498
 H1018 H 0.45677 0.30186 0.25769
 H1019 H 0.45689 0.25727 0.30215
 H1020 H 0.43067 0.27452 0.31926
 C1021 C 0.42827 0.79851 0.79813
 C1022 C 0.43582 0.80610 0.78080
 C1023 C 0.45082 0.79633 0.77105
 C1024 C 0.39913 0.81641 0.81596
 C1025 C 0.45085 0.77139 0.79602
 C1026 C 0.43585 0.78118 0.80575
 C1027 C 0.41249 0.80831 0.80789
 C1028 C 0.45845 0.77881 0.77851
 H1029 H 0.43003 0.81949 0.77477
 H1030 H 0.45634 0.80244 0.75760
 H1031 H 0.45639 0.75794 0.80216
 H1032 H 0.43009 0.77517 0.81915
 C1033 C -0.07191 0.29849 0.79819
 C1034 C -0.06436 0.30605 0.78085
 C1035 C -0.04939 0.29626 0.77109
 C1036 C -0.10101 0.31643 0.81604
 C1037 C -0.04937 0.27133 0.79608
 C1038 C -0.06434 0.28115 0.80582
 C1039 C -0.08767 0.30832 0.80796
 C1040 C -0.04177 0.27873 0.77855
 H1041 H -0.07014 0.31945 0.77481
 H1042 H -0.04387 0.30234 0.75763
 H1043 H -0.04384 0.25788 0.80222
 H1044 H -0.07010 0.27516 0.81922
 C1045 C -0.07162 0.79881 0.29862
 C1046 C -0.06412 0.80643 0.28128
 C1047 C -0.04914 0.79670 0.27147
 C1048 C -0.10074 0.81666 0.31653
 C1049 C -0.04902 0.77171 0.29640
 C1050 C -0.06400 0.78147 0.30618
 C1051 C -0.08739 0.80858 0.30843
 C1052 C -0.04147 0.77917 0.27888
 H1053 H -0.06994 0.81983 0.27528
 H1054 H -0.04366 0.80284 0.25802
 H1055 H -0.04345 0.75826 0.30249
 H1056 H -0.06973 0.77543 0.31958
 C1057 C 0.57125 0.70219 0.29817
 C1058 C 0.56364 0.71955 0.30572
 C1059 C 0.54870 0.72933 0.29591
 C1060 C 0.60027 0.68429 0.31614
 C1061 C 0.54884 0.70433 0.27098
 C1062 C 0.56377 0.69457 0.28082
 C1063 C 0.58696 0.69240 0.30802
 C1064 C 0.54118 0.72188 0.27837
 H1065 H 0.56934 0.72558 0.31913
 H1066 H 0.54314 0.74280 0.30199
 H1067 H 0.54338 0.69820 0.25752
 H1068 H 0.56958 0.68116 0.27484
 C1069 C 0.57156 0.20134 0.79830
 C1070 C 0.56395 0.21867 0.80591
 C1071 C 0.54895 0.22845 0.79618
 C1072 C 0.60069 0.18348 0.81614
 C1073 C 0.54902 0.20349 0.77120
 C1074 C 0.56402 0.19374 0.78097
 C1075 C 0.58733 0.19156 0.80806
 C1076 C 0.54137 0.22101 0.77866
 H1077 H 0.56970 0.22469 0.81930
 H1078 H 0.54339 0.24190 0.80230
 H1079 H 0.54352 0.19737 0.75776
 H1080 H 0.56982 0.18035 0.77493
 C1081 C 1.07174 0.70145 0.79839
 C1082 C 1.06420 0.69389 0.78104
 C1083 C 1.04923 0.70368 0.77129
 C1084 C 1.10084 0.68350 0.81621
 C1085 C 1.04919 0.72860 0.79630
 C1086 C 1.06416 0.71878 0.80603
 C1087 C 1.08750 0.69162 0.80814
 C1088 C 1.04160 0.72120 0.77877
 H1089 H 1.06998 0.68049 0.77499
 H1090 H 1.04372 0.69759 0.75783
 H1091 H 1.04365 0.74205 0.80245
 H1092 H 1.06992 0.72477 0.81943
 C1093 C 1.07202 0.20163 0.29822
 C1094 C 1.06441 0.21898 0.30578
 C1095 C 1.04945 0.22876 0.29600
 C1096 C 1.10108 0.18374 0.31614
 C1097 C 1.04955 0.20376 0.27107
 C1098 C 1.06452 0.19401 0.28088
 C1099 C 1.08776 0.19184 0.30804
 C1100 C 1.04190 0.22130 0.27848
 H1101 H 1.07014 0.22502 0.31918
 H1102 H 1.04389 0.24222 0.30209
 H1103 H 1.04407 0.19762 0.25762
 H1104 H 1.07032 0.18060 0.27489
 C1105 C 0.57117 0.29792 0.70189
 C1106 C 0.56366 0.28057 0.69430
 C1107 C 0.54874 0.27076 0.70407
 C1108 C 0.60018 0.31584 0.68400
 C1109 C 0.54870 0.29572 0.72904
 C1110 C 0.56362 0.30550 0.71924
 C1111 C 0.58688 0.30773 0.69210
 C1112 C 0.54114 0.27818 0.72160
 H1113 H 0.56942 0.27456 0.68089
 H1114 H 0.54325 0.25730 0.69795
 H1115 H 0.54318 0.30182 0.74250
 H1116 H 0.56935 0.31891 0.72526
 C1117 C 0.57139 0.79863 0.20161
 C1118 C 0.56378 0.80625 0.21891
 C1119 C 0.54881 0.79650 0.22867
 C1120 C 0.60049 0.81648 0.18379
 C1121 C 0.54891 0.77151 0.20373
 C1122 C 0.56389 0.78129 0.19401
 C1123 C 0.58715 0.80841 0.19186
 C1124 C 0.54126 0.77896 0.22122
 H1125 H 0.56951 0.81966 0.22494
 H1126 H 0.54325 0.80263 0.24209
 H1127 H 0.54343 0.75805 0.19761
 H1128 H 0.56969 0.77525 0.18063
 C1129 C 1.07174 0.29824 0.20166
 C1130 C 1.06428 0.28086 0.19408
 C1131 C 1.04938 0.27101 0.20384
 C1132 C 1.10070 0.31622 0.18377
 C1133 C 1.04923 0.29601 0.22878
 C1134 C 1.06414 0.30582 0.21899
 C1135 C 1.08742 0.30809 0.19187
 C1136 C 1.04173 0.27844 0.22135
 H1137 H 1.07008 0.27484 0.18069
 H1138 H 1.04394 0.25753 0.19773
 H1139 H 1.04367 0.30212 0.24221
 H1140 H 1.06982 0.31926 0.22500
 C1141 C 1.07149 0.79831 0.70218
 C1142 C 1.06399 0.78097 0.69455
 C1143 C 1.04907 0.77113 0.70429
 C1144 C 1.10048 0.81629 0.68432
 C1145 C 1.04900 0.79605 0.72931
 C1146 C 1.06392 0.80586 0.71954
 C1147 C 1.08719 0.80816 0.69240
 C1148 C 1.04146 0.77852 0.72184
 H1149 H 1.06977 0.77499 0.68114
 H1150 H 1.04360 0.75768 0.69815
 H1151 H 1.04348 0.80213 0.74277
 H1152 H 1.06964 0.81926 0.72558
 C1153 C 0.42876 0.70181 0.70176
 C1154 C 0.43627 0.71916 0.69416
 C1155 C 0.45118 0.72899 0.70393
 C1156 C 0.39978 0.68388 0.68385
 C1157 C 0.45120 0.70404 0.72891
 C1158 C 0.43630 0.69424 0.71911
 C1159 C 0.41307 0.69198 0.69195
 C1160 C 0.45876 0.72158 0.72147
 H1161 H 0.43052 0.72515 0.68075
 H1162 H 0.45666 0.74244 0.69782
 H1163 H 0.45671 0.69795 0.74237
 H1164 H 0.43057 0.68084 0.72513
 C1165 C 0.42880 0.20139 0.20176
 C1166 C 0.43631 0.21874 0.19417
 C1167 C 0.45127 0.22852 0.20390
 C1168 C 0.39972 0.18353 0.18393
 C1169 C 0.45135 0.20353 0.22883
 C1170 C 0.43639 0.19378 0.21907
 C1171 C 0.41305 0.19161 0.19200
 C1172 C 0.45890 0.22107 0.22140
 H1173 H 0.43052 0.22477 0.18079
 H1174 H 0.45675 0.24198 0.19779
 H1175 H 0.45689 0.19740 0.24226
 H1176 H 0.43066 0.18037 0.22508
 C1177 C -0.07128 0.70222 0.20205
 C1178 C -0.06370 0.69464 0.21937
 C1179 C -0.04880 0.70446 0.22916
 C1180 C -0.10022 0.68422 0.18414
 C1181 C -0.04893 0.72945 0.20423
 C1182 C -0.06383 0.71960 0.19446
 C1183 C -0.08696 0.69236 0.19224
 C1184 C -0.04129 0.72203 0.22174
 H1185 H -0.06938 0.68121 0.22538
 H1186 H -0.04325 0.69836 0.24260
 H1187 H -0.04348 0.74293 0.19812
 H1188 H -0.06962 0.72561 0.18107
 C1189 C -0.07163 0.20170 0.70186
 C1190 C -0.06410 0.21903 0.69425
 C1191 C -0.04919 0.22886 0.70401
 C1192 C -0.10060 0.18375 0.68395
 C1193 C -0.04918 0.20393 0.72901
 C1194 C -0.06409 0.19414 0.71921
 C1195 C -0.08732 0.19187 0.69205
 C1196 C -0.04161 0.22146 0.72155
 H1197 H -0.06985 0.22503 0.68083
 H1198 H -0.04369 0.24231 0.69788
 H1199 H -0.04367 0.19784 0.74247
 H1200 H -0.06983 0.18074 0.72524
 C1201 C 0.29794 0.42895 0.29831
 C1202 C 0.28060 0.43658 0.30589
 C1203 C 0.27082 0.45153 0.29609
 C1204 C 0.31581 0.39988 0.31625
 C1205 C 0.29580 0.45137 0.27112
 C1206 C 0.30555 0.43641 0.28095
 C1207 C 0.30772 0.41321 0.30814
 C1208 C 0.27827 0.45904 0.27854
 H1209 H 0.27458 0.43088 0.31930
 H1210 H 0.25737 0.45711 0.30219
 H1211 H 0.30192 0.45681 0.25766
 H1212 H 0.31895 0.43059 0.27495
 C1213 C 0.29846 -0.07188 0.79809
 C1214 C 0.30603 -0.06433 0.78075
 C1215 C 0.29624 -0.04936 0.77099
 C1216 C 0.31640 -0.10096 0.81593
 C1217 C 0.27129 -0.04934 0.79598
 C1218 C 0.28112 -0.06431 0.80571
 C1219 C 0.30829 -0.08763 0.80785
 C1220 C 0.27870 -0.04175 0.77846
 H1221 H 0.31944 -0.07010 0.77471
 H1222 H 0.30233 -0.04384 0.75754
 H1223 H 0.25784 -0.04382 0.80212
 H1224 H 0.27511 -0.07007 0.81911
 C1225 C 0.79851 0.42831 0.79832
 C1226 C 0.78117 0.43591 0.80592
 C1227 C 0.77139 0.45091 0.79619
 C1228 C 0.81638 0.39917 0.81614
 C1229 C 0.79638 0.45086 0.77123
 C1230 C 0.80612 0.43586 0.78100
 C1231 C 0.80829 0.41253 0.80808
 C1232 C 0.77885 0.45850 0.77868
 H1233 H 0.77514 0.43015 0.81931
 H1234 H 0.75794 0.45646 0.80231
 H1235 H 0.80250 0.45637 0.75779
 H1236 H 0.81953 0.43006 0.77497
 C1237 C 0.79862 -0.07170 0.29863
 C1238 C 0.78128 -0.06406 0.30621
 C1239 C 0.77151 -0.04910 0.29643
 C1240 C 0.81651 -0.10076 0.31654
 C1241 C 0.79648 -0.04926 0.27146
 C1242 C 0.80622 -0.06422 0.28128
 C1243 C 0.80840 -0.08744 0.30845
 C1244 C 0.77895 -0.04158 0.27888
 H1245 H 0.77526 -0.06977 0.31963
 H1246 H 0.75806 -0.04352 0.30253
 H1247 H 0.80260 -0.04381 0.25800
 H1248 H 0.81962 -0.07005 0.27526
 C1249 C 0.29790 0.57114 0.70180
 C1250 C 0.28054 0.56362 0.69422
 C1251 C 0.27073 0.54872 0.70401
 C1252 C 0.31583 0.60011 0.68387
 C1253 C 0.29569 0.54871 0.72897
 C1254 C 0.30548 0.56361 0.71915
 C1255 C 0.30772 0.58683 0.69198
 C1256 C 0.27815 0.54115 0.72155
 H1257 H 0.27453 0.56937 0.68082
 H1258 H 0.25726 0.54323 0.69791
 H1259 H 0.30180 0.54321 0.74243
 H1260 H 0.31889 0.56935 0.72516
 C1261 C 0.29821 1.07174 0.20151
 C1262 C 0.28083 1.06427 0.19395
 C1263 C 0.27101 1.04936 0.20373
 C1264 C 0.31616 1.10071 0.18359
 C1265 C 0.29602 1.04926 0.22864
 C1266 C 0.30581 1.06417 0.21883
 C1267 C 0.30803 1.08743 0.19170
 C1268 C 0.27846 1.04174 0.22124
 H1269 H 0.27480 1.07005 0.18057
 H1270 H 0.25752 1.04390 0.19765
 H1271 H 0.30215 1.04373 0.24207
 H1272 H 0.31925 1.06988 0.22482
 C1273 C 0.79840 0.57094 0.20185
 C1274 C 0.80601 0.56335 0.21916
 C1275 C 0.79626 0.54839 0.22893
 C1276 C 0.81624 0.60002 0.18402
 C1277 C 0.77126 0.54847 0.20400
 C1278 C 0.78105 0.56343 0.19426
 C1279 C 0.80818 0.58668 0.19209
 C1280 C 0.77871 0.54084 0.22150
 H1281 H 0.81942 0.56908 0.22518
 H1282 H 0.80238 0.54285 0.24236
 H1283 H 0.75780 0.54299 0.19789
 H1284 H 0.77501 0.56922 0.18088
 C1285 C 0.79836 1.07141 0.70223
 C1286 C 0.80589 1.06385 0.71959
 C1287 C 0.79606 1.04894 0.72936
 C1288 C 0.81636 1.10038 0.68438
 C1289 C 0.77117 1.04901 0.70433
 C1290 C 0.78102 1.06392 0.69459
 C1291 C 0.80822 1.08710 0.69246
 C1292 C 0.77854 1.04140 0.72187
 H1293 H 0.81929 1.06957 0.72565
 H1294 H 0.80213 1.04341 0.74282
 H1295 H 0.75772 1.04353 0.69818
 H1296 H 0.77506 1.06969 0.68118
 C1297 C 0.70197 0.57101 0.29839
 C1298 C 0.69434 0.56351 0.28106
 C1299 C 0.70408 0.54853 0.27125
 C1300 C 0.68412 0.60013 0.31629
 C1301 C 0.72909 0.54843 0.29617
 C1302 C 0.71931 0.56340 0.30596
 C1303 C 0.69220 0.58678 0.30820
 C1304 C 0.72162 0.54088 0.27865
 H1305 H 0.68093 0.56931 0.27507
 H1306 H 0.69795 0.54305 0.25780
 H1307 H 0.74255 0.54287 0.30225
 H1308 H 0.72536 0.56913 0.31935
 C1309 C 0.70138 1.07174 0.79837
 C1310 C 0.69384 1.06419 0.78102
 C1311 C 0.70363 1.04921 0.77128
 C1312 C 0.68343 1.10085 0.81618
 C1313 C 0.72853 1.04918 0.79630
 C1314 C 0.71870 1.06416 0.80602
 C1315 C 0.69155 1.08750 0.80812
 C1316 C 0.72115 1.04159 0.77877
 H1317 H 0.68045 1.06997 0.77496
 H1318 H 0.69756 1.04370 0.75782
 H1319 H 0.74197 1.04365 0.80246
 H1320 H 0.72468 1.06992 0.81943
 C1321 C 0.20131 0.57161 0.79830
 C1322 C 0.21864 0.56401 0.80590
 C1323 C 0.22842 0.54901 0.79617
 C1324 C 0.18344 0.60075 0.81615
 C1325 C 0.20346 0.54906 0.77121
 C1326 C 0.19371 0.56406 0.78097
 C1327 C 0.19152 0.58739 0.80807
 C1328 C 0.22098 0.54142 0.77865
 H1329 H 0.22466 0.56977 0.81929
 H1330 H 0.24187 0.54346 0.80229
 H1331 H 0.19734 0.54355 0.75777
 H1332 H 0.18031 0.56986 0.77495
 C1333 C 0.20167 1.07203 0.29819
 C1334 C 0.21904 1.06444 0.30574
 C1335 C 0.22883 1.04948 0.29595
 C1336 C 0.18377 1.10109 0.31612
 C1337 C 0.20380 1.04954 0.27105
 C1338 C 0.19405 1.06450 0.28087
 C1339 C 0.19188 1.08776 0.30801
 C1340 C 0.22135 1.04191 0.27844
 H1341 H 0.22508 1.07018 0.31913
 H1342 H 0.24230 1.04394 0.30203
 H1343 H 0.19766 1.04404 0.25761
 H1344 H 0.18062 1.07029 0.27488
 C1345 C 0.70194 0.42871 0.70190
 C1346 C 0.71930 0.43622 0.69431
 C1347 C 0.72912 0.45113 0.70408
 C1348 C 0.68403 0.39971 0.68400
 C1349 C 0.70414 0.45119 0.72904
 C1350 C 0.69435 0.43627 0.71924
 C1351 C 0.69213 0.41301 0.69210
 C1352 C 0.72169 0.45873 0.72161
 H1353 H 0.72532 0.43045 0.68090
 H1354 H 0.74258 0.45661 0.69797
 H1355 H 0.69803 0.45671 0.74249
 H1356 H 0.68093 0.43055 0.72525
 C1357 C 0.70184 -0.07147 0.20225
 C1358 C 0.71922 -0.06405 0.19462
 C1359 C 0.72910 -0.04914 0.20435
 C1360 C 0.68380 -0.10042 0.18440
 C1361 C 0.70414 -0.04893 0.22933
 C1362 C 0.69430 -0.06384 0.21957
 C1363 C 0.69196 -0.08715 0.19248
 C1364 C 0.72171 -0.04146 0.22186
 H1365 H 0.72521 -0.06987 0.18123
 H1366 H 0.74258 -0.04372 0.19821
 H1367 H 0.69806 -0.04335 0.24277
 H1368 H 0.68086 -0.06950 0.22562
 C1369 C 0.20139 0.42891 0.20189
 C1370 C 0.19380 0.43653 0.21921
 C1371 C 0.20358 0.45149 0.22894
 C1372 C 0.18350 0.39982 0.18410
 C1373 C 0.22854 0.45136 0.20397
 C1374 C 0.21873 0.43640 0.19426
 C1375 C 0.19159 0.41316 0.19216
 C1376 C 0.22111 0.45902 0.22147
 H1377 H 0.18039 0.43081 0.22525
 H1378 H 0.19747 0.45706 0.24237
 H1379 H 0.24200 0.45683 0.19783
 H1380 H 0.22475 0.43058 0.18088
 C1381 C 0.20174 -0.07166 0.70174
 C1382 C 0.21908 -0.06413 0.69414
 C1383 C 0.22889 -0.04921 0.70390
 C1384 C 0.18382 -0.10066 0.68384
 C1385 C 0.20394 -0.04920 0.72889
 C1386 C 0.19416 -0.06413 0.71910
 C1387 C 0.19193 -0.08737 0.69194
 C1388 C 0.22147 -0.04162 0.72144
 H1389 H 0.22509 -0.06988 0.68072
 H1390 H 0.24234 -0.04371 0.69778
 H1391 H 0.19784 -0.04369 0.74235
 H1392 H 0.18076 -0.06987 0.72512
 C1393 C 0.29800 0.29812 0.42919
 C1394 C 0.30563 0.28077 0.43672
 C1395 C 0.29587 0.27096 0.45165
 C1396 C 0.31587 0.31600 0.40015
 C1397 C 0.27086 0.29595 0.45168
 C1398 C 0.28065 0.30573 0.43674
 C1399 C 0.30778 0.30792 0.41347
 C1400 C 0.27832 0.27841 0.45924
 H1401 H 0.31905 0.27474 0.43095
 H1402 H 0.30201 0.25750 0.45714
 H1403 H 0.25739 0.30207 0.45719
 H1404 H 0.27460 0.31914 0.43100
 C1405 C 0.29818 0.79824 -0.07157
 C1406 C 0.30579 0.78091 -0.06398
 C1407 C 0.29603 0.77116 -0.04902
 C1408 C 0.31604 0.81605 -0.10065
 C1409 C 0.27102 0.79616 -0.04908
 C1410 C 0.28082 0.80587 -0.06404
 C1411 C 0.30796 0.80799 -0.08731
 C1412 C 0.27848 0.77863 -0.04145
 H1413 H 0.31921 0.77486 -0.06972
 H1414 H 0.30216 0.75771 -0.04348
 H1415 H 0.25755 0.80230 -0.04359
 H1416 H 0.27478 0.81927 -0.06983
 C1417 C 0.79814 0.29816 -0.07147
 C1418 C 0.80578 0.28080 -0.06398
 C1419 C 0.79607 0.27099 -0.04903
 C1420 C 0.81594 0.31605 -0.10054
 C1421 C 0.77106 0.29599 -0.04891
 C1422 C 0.78081 0.30577 -0.06387
 C1423 C 0.80788 0.30796 -0.08722
 C1424 C 0.77854 0.27843 -0.04137
 H1425 H 0.81918 0.27477 -0.06979
 H1426 H 0.80221 0.25752 -0.04356
 H1427 H 0.75761 0.30211 -0.04335
 H1428 H 0.77475 0.31919 -0.06958
 C1429 C 0.79841 0.79840 0.42907
 C1430 C 0.80604 0.78106 0.43662
 C1431 C 0.79630 0.77128 0.45158
 C1432 C 0.81622 0.81623 0.39998
 C1433 C 0.77130 0.79628 0.45160
 C1434 C 0.78106 0.80602 0.43664
 C1435 C 0.80817 0.80817 0.41332
 C1436 C 0.77877 0.77874 0.45919
 H1437 H 0.81945 0.77501 0.43084
 H1438 H 0.80244 0.75782 0.45709
 H1439 H 0.75784 0.80241 0.45713
 H1440 H 0.77501 0.81943 0.43088
 C1441 C 0.70195 0.29804 0.57097
 C1442 C 0.71927 0.30567 0.56341
 C1443 C 0.72910 0.29591 0.54847
 C1444 C 0.68402 0.31590 0.60002
 C1445 C 0.70421 0.27088 0.54850
 C1446 C 0.69441 0.28067 0.56344
 C1447 C 0.69213 0.30782 0.58670
 C1448 C 0.72172 0.27835 0.54090
 H1449 H 0.72524 0.31909 0.56915
 H1450 H 0.74253 0.30205 0.54295
 H1451 H 0.69814 0.25741 0.54300
 H1452 H 0.68103 0.27462 0.56920
 C1453 C 0.70136 0.79813 1.07117
 C1454 C 0.69380 0.78079 1.06359
 C1455 C 0.70359 0.77104 1.04862
 C1456 C 0.68347 0.81594 1.10028
 C1457 C 0.72851 0.79603 1.04867
 C1458 C 0.71869 0.80575 1.06364
 C1459 C 0.69156 0.80787 1.08693
 C1460 C 0.72111 0.77850 1.04104
 H1461 H 0.68041 0.77475 1.06934
 H1462 H 0.69750 0.75759 1.04308
 H1463 H 0.74195 0.80217 1.04317
 H1464 H 0.72468 0.81915 1.06942
 C1465 C 0.20141 0.29810 1.07106
 C1466 C 0.19381 0.28078 1.06350
 C1467 C 0.20357 0.27098 1.04854
 C1468 C 0.18355 0.31596 1.10016
 C1469 C 0.22854 0.29592 1.04855
 C1470 C 0.21875 0.30569 1.06351
 C1471 C 0.19163 0.30789 1.08682
 C1472 C 0.22110 0.27840 1.04095
 H1473 H 0.18041 0.27476 1.06927
 H1474 H 0.19745 0.25754 1.04302
 H1475 H 0.24199 0.30202 1.04303
 H1476 H 0.22478 0.31908 1.06928
 C1477 C 0.20193 0.79868 0.57104
 C1478 C 0.21928 0.80623 0.56349
 C1479 C 0.22903 0.79647 0.54850
 C1480 C 0.18413 0.81653 0.60018
 C1481 C 0.20401 0.77158 0.54849
 C1482 C 0.19429 0.78137 0.56347
 C1483 C 0.19218 0.80846 0.58682
 C1484 C 0.22155 0.77897 0.54089
 H1485 H 0.22534 0.81960 0.56927
 H1486 H 0.24250 0.80255 0.54299
 H1487 H 0.19786 0.75815 0.54296
 H1488 H 0.18088 0.77538 0.56924
 C1489 C 0.29821 0.70181 0.57080
 C1490 C 0.28086 0.69428 0.56324
 C1491 C 0.27109 0.70410 0.54830
 C1492 C 0.31603 0.68387 0.59985
 C1493 C 0.29612 0.72898 0.54834
 C1494 C 0.30585 0.71914 0.56328
 C1495 C 0.30797 0.69198 0.58653
 C1496 C 0.27857 0.72162 0.54074
 H1497 H 0.27480 0.68089 0.56897
 H1498 H 0.25762 0.69804 0.54278
 H1499 H 0.30226 0.74243 0.54285
 H1500 H 0.31927 0.72511 0.56905
 C1501 C 0.29796 0.20147 1.07099
 C1502 C 0.30556 0.21880 1.06344
 C1503 C 0.29580 0.22861 1.04850
 C1504 C 0.31583 0.18359 1.10005
 C1505 C 0.27083 0.20366 1.04849
 C1506 C 0.28062 0.19389 1.06344
 C1507 C 0.30775 0.19168 1.08672
 C1508 C 0.27827 0.22119 1.04091
 H1509 H 0.31896 0.22481 1.06920
 H1510 H 0.30191 0.24205 1.04299
 H1511 H 0.25738 0.19756 1.04298
 H1512 H 0.27460 0.18050 1.06920
 C1513 C 0.79813 0.70172 1.07106
 C1514 C 0.80570 0.71907 1.06352
 C1515 C 0.79592 0.72886 1.04858
 C1516 C 0.81604 0.68387 1.10011
 C1517 C 0.77099 0.70388 1.04856
 C1518 C 0.78080 0.69412 1.06351
 C1519 C 0.80794 0.69194 1.08679
 C1520 C 0.77840 0.72142 1.04098
 H1521 H 0.81909 0.72510 1.06928
 H1522 H 0.80201 0.74232 1.04308
 H1523 H 0.75755 0.69776 1.04305
 H1524 H 0.77480 0.68071 1.06926
 C1525 C 0.79881 0.20175 0.57111
 C1526 C 0.80636 0.21909 0.56354
 C1527 C 0.79658 0.22883 0.54856
 C1528 C 0.81667 0.18398 0.60024
 C1529 C 0.77170 0.20380 0.54858
 C1530 C 0.78151 0.19409 0.56355
 C1531 C 0.80860 0.19202 0.58688
 C1532 C 0.77908 0.22133 0.54097
 H1533 H 0.81973 0.22516 0.56930
 H1534 H 0.80265 0.24229 0.54303
 H1535 H 0.75827 0.19764 0.54306
 H1536 H 0.77552 0.18069 0.56933
 C1537 C 0.70199 0.70199 0.42915
 C1538 C 0.71935 0.69437 0.43667
 C1539 C 0.72914 0.70412 0.45162
 C1540 C 0.68412 0.68414 0.40010
 C1541 C 0.70413 0.72912 0.45165
 C1542 C 0.69437 0.71934 0.43671
 C1543 C 0.69220 0.69222 0.41342
 C1544 C 0.72168 0.72166 0.45923
 H1545 H 0.72539 0.68096 0.43091
 H1546 H 0.74261 0.69799 0.45712
 H1547 H 0.69800 0.74258 0.45718
 H1548 H 0.68095 0.72538 0.43097
 C1549 C 0.70169 0.20177 -0.07144
 C1550 C 0.69409 0.21911 -0.06383
 C1551 C 0.70388 0.22885 -0.04888
 C1552 C 0.68378 0.18397 -0.10050
 C1553 C 0.72887 0.20384 -0.04901
 C1554 C 0.71905 0.19413 -0.06396
 C1555 C 0.69187 0.19203 -0.08718
 C1556 C 0.72143 0.22136 -0.04135
 H1557 H 0.68067 0.22516 -0.06954
 H1558 H 0.69776 0.24230 -0.04332
 H1559 H 0.74234 0.19769 -0.04354
 H1560 H 0.72507 0.18073 -0.06976
 C1561 C 0.20179 0.70178 -0.07146
 C1562 C 0.21913 0.69418 -0.06388
 C1563 C 0.22889 0.70397 -0.04894
 C1564 C 0.18396 0.68388 -0.10050
 C1565 C 0.20388 0.72896 -0.04901
 C1566 C 0.19415 0.71914 -0.06395
 C1567 C 0.19203 0.69197 -0.08718
 C1568 C 0.22141 0.72152 -0.04138
 H1569 H 0.22519 0.68077 -0.06961
 H1570 H 0.24235 0.69786 -0.04340
 H1571 H 0.19773 0.74243 -0.04353
 H1572 H 0.18074 0.72516 -0.06973
 C1573 C 0.20168 0.20170 0.42891
 C1574 C 0.19403 0.21903 0.43649
 C1575 C 0.20374 0.22878 0.45148
 C1576 C 0.18391 0.18393 0.39975
 C1577 C 0.22876 0.20379 0.45147
 C1578 C 0.21901 0.19407 0.43647
 C1579 C 0.19195 0.19197 0.41312
 C1580 C 0.22127 0.22131 0.45909
 H1581 H 0.18063 0.22508 0.43072
 H1582 H 0.19759 0.24222 0.45702
 H1583 H 0.24221 0.19764 0.45699
 H1584 H 0.22507 0.18068 0.43069
 C1585 C 0.29779 0.42887 0.70210
 C1586 C 0.28045 0.43644 0.69448
 C1587 C 0.27066 0.45145 0.70420
 C1588 C 0.31568 0.39972 0.68429
 C1589 C 0.29562 0.45144 0.72917
 C1590 C 0.30539 0.43644 0.71941
 C1591 C 0.30759 0.41308 0.69235
 C1592 C 0.27809 0.45906 0.72171
 H1593 H 0.27443 0.43067 0.68110
 H1594 H 0.25721 0.45698 0.69808
 H1595 H 0.30174 0.45697 0.74260
 H1596 H 0.31879 0.43066 0.72545
 C1597 C 0.29798 0.92953 0.20144
 C1598 C 0.30562 0.93705 0.21876
 C1599 C 0.29588 0.95203 0.22858
 C1600 C 0.31584 0.90044 0.18352
 C1601 C 0.27086 0.95211 0.20368
 C1602 C 0.28063 0.93713 0.19389
 C1603 C 0.30775 0.91378 0.19162
 C1604 C 0.27834 0.95967 0.22119
 H1605 H 0.31903 0.93125 0.22475
 H1606 H 0.30203 0.95751 0.24202
 H1607 H 0.25739 0.95767 0.19760
 H1608 H 0.27457 0.93140 0.18051
 C1609 C 0.79839 0.42865 0.20158
 C1610 C 0.80600 0.43616 0.21892
 C1611 C 0.79624 0.45112 0.22874
 C1612 C 0.81629 0.39959 0.18366
 C1613 C 0.77124 0.45120 0.20382
 C1614 C 0.78103 0.43624 0.19402
 C1615 C 0.80818 0.41291 0.19176
 C1616 C 0.77869 0.45875 0.22134
 H1617 H 0.81942 0.43037 0.22491
 H1618 H 0.80237 0.45660 0.24219
 H1619 H 0.75777 0.45675 0.19773
 H1620 H 0.77499 0.43051 0.18063
 C1621 C 0.79819 0.92919 0.70221
 C1622 C 0.80574 0.93671 0.71957
 C1623 C 0.79595 0.95169 0.72934
 C1624 C 0.81612 0.90010 0.68435
 C1625 C 0.77105 0.95177 0.70432
 C1626 C 0.78087 0.93679 0.69458
 C1627 C 0.80801 0.91344 0.69244
 C1628 C 0.77844 0.95933 0.72186
 H1629 H 0.81913 0.93091 0.72562
 H1630 H 0.80203 0.95718 0.74281
 H1631 H 0.75762 0.95732 0.69817
 H1632 H 0.77488 0.93106 0.68116
 C1633 C 0.70212 0.57100 0.70205
 C1634 C 0.71946 0.56340 0.69444
 C1635 C 0.72924 0.54840 0.70418
 C1636 C 0.68426 0.60012 0.68421
 C1637 C 0.70426 0.54846 0.72914
 C1638 C 0.69451 0.56345 0.71937
 C1639 C 0.69234 0.58677 0.69228
 C1640 C 0.72179 0.54082 0.72169
 H1641 H 0.72549 0.56915 0.68105
 H1642 H 0.74269 0.54285 0.69806
 H1643 H 0.69813 0.54295 0.74258
 H1644 H 0.68111 0.56925 0.72540
 C1645 C 0.70234 0.07067 0.20179
 C1646 C 0.69473 0.06323 0.21916
 C1647 C 0.70447 0.04828 0.22900
 C1648 C 0.68446 0.09971 0.18382
 C1649 C 0.72944 0.04807 0.20404
 C1650 C 0.71967 0.06302 0.19422
 C1651 C 0.69256 0.08640 0.19195
 C1652 C 0.72199 0.04058 0.22159
 H1653 H 0.68133 0.06907 0.22516
 H1654 H 0.69835 0.04285 0.24247
 H1655 H 0.74289 0.04248 0.19794
 H1656 H 0.72570 0.06870 0.18080
 C1657 C 0.20155 0.57127 0.20152
 C1658 C 0.21888 0.56364 0.19393
 C1659 C 0.22866 0.54866 0.20371
 C1660 C 0.18371 0.60039 0.18365
 C1661 C 0.20368 0.54880 0.22867
 C1662 C 0.19394 0.56377 0.21887
 C1663 C 0.19178 0.58704 0.19173
 C1664 C 0.22121 0.54113 0.22124
 H1665 H 0.22492 0.56936 0.18053
 H1666 H 0.24211 0.54309 0.19760
 H1667 H 0.19756 0.54333 0.24213
 H1668 H 0.18054 0.56960 0.22488
 C1669 C 0.20167 0.07060 0.70192
 C1670 C 0.19409 0.06305 0.71925
 C1671 C 0.20388 0.04807 0.72901
 C1672 C 0.18374 0.09970 0.68410
 C1673 C 0.22883 0.04806 0.70402
 C1674 C 0.21901 0.06303 0.69429
 C1675 C 0.19185 0.08636 0.69217
 C1676 C 0.22142 0.04046 0.72154
 H1677 H 0.18069 0.06882 0.72530
 H1678 H 0.19778 0.04255 0.74246
 H1679 H 0.24228 0.04253 0.69788
 H1680 H 0.22501 0.06880 0.68090
 C1681 C 0.29815 0.57123 0.29783
 C1682 C 0.28080 0.56376 0.30546
 C1683 C 0.27098 0.54880 0.29576
 C1684 C 0.31607 0.60030 0.31561
 C1685 C 0.29594 0.54864 0.27079
 C1686 C 0.30573 0.56360 0.28052
 C1687 C 0.30797 0.58697 0.30756
 C1688 C 0.27840 0.54113 0.27826
 H1689 H 0.27479 0.56959 0.31884
 H1690 H 0.25751 0.54335 0.30190
 H1691 H 0.30204 0.54306 0.25736
 H1692 H 0.31915 0.56930 0.27447
 C1693 C 0.29833 0.07042 0.79821
 C1694 C 0.28101 0.06288 0.80583
 C1695 C 0.27121 0.04793 0.79607
 C1696 C 0.31620 0.09947 0.81608
 C1697 C 0.29616 0.04793 0.77108
 C1698 C 0.30592 0.06287 0.78087
 C1699 C 0.30812 0.08615 0.80800
 C1700 C 0.27864 0.04034 0.77854
 H1701 H 0.27499 0.06863 0.81924
 H1702 H 0.25777 0.04242 0.80220
 H1703 H 0.30227 0.04242 0.75763
 H1704 H 0.31932 0.06863 0.77483
 C1705 C 0.79864 0.57066 0.79844
 C1706 C 0.78129 0.56315 0.80604
 C1707 C 0.77150 0.54821 0.79628
 C1708 C 0.81651 0.59972 0.81630
 C1709 C 0.79647 0.54816 0.77132
 C1710 C 0.80624 0.56310 0.78111
 C1711 C 0.80843 0.58639 0.80822
 C1712 C 0.77893 0.54060 0.77876
 H1713 H 0.77527 0.56892 0.81943
 H1714 H 0.75803 0.54272 0.80240
 H1715 H 0.80259 0.54264 0.75788
 H1716 H 0.81965 0.56883 0.77509
 C1717 C 0.79895 0.07058 0.29826
 C1718 C 0.80652 0.06295 0.28094
 C1719 C 0.79671 0.04801 0.27119
 C1720 C 0.81688 0.09962 0.31606
 C1721 C 0.77175 0.04817 0.29618
 C1722 C 0.78159 0.06311 0.30588
 C1723 C 0.80878 0.08630 0.30800
 C1724 C 0.77916 0.04050 0.27867
 H1725 H 0.81993 0.06865 0.27489
 H1726 H 0.80281 0.04244 0.25776
 H1727 H 0.75829 0.04272 0.30232
 H1728 H 0.77559 0.06893 0.31927
 C1729 C 0.70183 0.42871 0.29812
 C1730 C 0.69423 0.43631 0.28081
 C1731 C 0.70400 0.45126 0.27104
 C1732 C 0.68394 0.39966 0.31595
 C1733 C 0.72900 0.45115 0.29597
 C1734 C 0.71919 0.43620 0.30571
 C1735 C 0.69203 0.41298 0.30788
 C1736 C 0.72155 0.45879 0.27848
 H1737 H 0.68081 0.43060 0.27479
 H1738 H 0.69788 0.45681 0.25762
 H1739 H 0.74247 0.45661 0.30208
 H1740 H 0.72522 0.43040 0.31909
 C1741 C 0.70137 0.92945 0.79846
 C1742 C 0.71869 0.93698 0.80610
 C1743 C 0.72852 0.95191 0.79637
 C1744 C 0.68346 0.90041 0.81630
 C1745 C 0.70362 0.95193 0.77134
 C1746 C 0.69382 0.93699 0.78111
 C1747 C 0.69156 0.91373 0.80823
 C1748 C 0.72113 0.95950 0.77882
 H1749 H 0.72468 0.93122 0.81952
 H1750 H 0.74195 0.95741 0.80252
 H1751 H 0.69754 0.95744 0.75787
 H1752 H 0.68044 0.93125 0.77505
 C1753 C 0.20117 0.42925 0.79841
 C1754 C 0.21851 0.43677 0.80601
 C1755 C 0.22832 0.45171 0.79626
 C1756 C 0.18328 0.40020 0.81625
 C1757 C 0.20335 0.45175 0.77130
 C1758 C 0.19358 0.43682 0.78108
 C1759 C 0.19137 0.41352 0.80818
 C1760 C 0.22089 0.45931 0.77874
 H1761 H 0.22453 0.43100 0.81940
 H1762 H 0.24177 0.45719 0.80237
 H1763 H 0.19724 0.45728 0.75785
 H1764 H 0.18017 0.43108 0.77506
 C1765 C 0.20158 0.92979 0.29812
 C1766 C 0.21894 0.93729 0.30568
 C1767 C 0.22874 0.95222 0.29591
 C1768 C 0.18370 0.90077 0.31602
 C1769 C 0.20372 0.95229 0.27100
 C1770 C 0.19395 0.93736 0.28080
 C1771 C 0.19178 0.91408 0.30792
 C1772 C 0.22128 0.95983 0.27840
 H1773 H 0.22498 0.93152 0.31906
 H1774 H 0.24221 0.95770 0.30200
 H1775 H 0.19759 0.95782 0.25757
 H1776 H 0.18053 0.93164 0.27481
 C1777 C 0.42885 0.29779 0.70210
 C1778 C 0.43644 0.28046 0.69448
 C1779 C 0.45144 0.27067 0.70420
 C1780 C 0.39971 0.31567 0.68429
 C1781 C 0.45140 0.29563 0.72918
 C1782 C 0.43640 0.30539 0.71942
 C1783 C 0.41307 0.30758 0.69235
 C1784 C 0.45904 0.27811 0.72172
 H1785 H 0.43068 0.27444 0.68109
 H1786 H 0.45699 0.25722 0.69807
 H1787 H 0.45692 0.30174 0.74262
 H1788 H 0.43061 0.31879 0.72546
 C1789 C 0.42902 0.79862 0.20128
 C1790 C 0.43662 0.78127 0.19371
 C1791 C 0.45159 0.77149 0.20349
 C1792 C 0.39991 0.81648 0.18340
 C1793 C 0.45149 0.79650 0.22842
 C1794 C 0.43652 0.80624 0.21861
 C1795 C 0.41326 0.80840 0.19148
 C1796 C 0.45914 0.77896 0.22101
 H1797 H 0.43090 0.77523 0.18031
 H1798 H 0.45715 0.75803 0.19740
 H1799 H 0.45697 0.80263 0.24187
 H1800 H 0.43072 0.81965 0.22461
 C1801 C 0.92949 0.29783 0.20152
 C1802 C 0.93699 0.30547 0.21885
 C1803 C 0.95197 0.29575 0.22866
 C1804 C 0.90038 0.31565 0.18361
 C1805 C 0.95211 0.27074 0.20373
 C1806 C 0.93712 0.28049 0.19395
 C1807 C 0.91372 0.30758 0.19171
 C1808 C 0.95965 0.27822 0.22125
 H1809 H 0.93116 0.31887 0.22485
 H1810 H 0.95744 0.30189 0.24211
 H1811 H 0.95769 0.25729 0.19764
 H1812 H 0.93141 0.27444 0.18056
 C1813 C 0.92925 0.79819 0.70218
 C1814 C 0.93685 0.78086 0.69455
 C1815 C 0.95182 0.77105 0.70429
 C1816 C 0.90016 0.81610 0.68433
 C1817 C 0.95174 0.79597 0.72931
 C1818 C 0.93677 0.80575 0.71954
 C1819 C 0.91349 0.80800 0.69241
 C1820 C 0.95938 0.77845 0.72184
 H1821 H 0.93111 0.77486 0.68114
 H1822 H 0.95737 0.75761 0.69815
 H1823 H 0.95723 0.80206 0.74277
 H1824 H 0.93097 0.81914 0.72558
 C1825 C 0.57107 0.29787 0.29805
 C1826 C 0.56349 0.30548 0.28074
 C1827 C 0.54854 0.29571 0.27096
 C1828 C 0.60011 0.31575 0.31591
 C1829 C 0.54861 0.27072 0.29589
 C1830 C 0.56356 0.28051 0.30564
 C1831 C 0.58679 0.30766 0.30783
 C1832 C 0.54099 0.27817 0.27839
 H1833 H 0.56921 0.31889 0.27473
 H1834 H 0.54300 0.30184 0.25753
 H1835 H 0.54313 0.25726 0.30200
 H1836 H 0.56935 0.27448 0.31902
 C1837 C 0.57057 0.79866 0.79835
 C1838 C 0.56303 0.80623 0.78100
 C1839 C 0.54811 0.79644 0.77120
 C1840 C 0.59958 0.81656 0.81623
 C1841 C 0.54813 0.77150 0.79618
 C1842 C 0.56305 0.78132 0.80595
 C1843 C 0.58627 0.80847 0.80814
 C1844 C 0.54055 0.77891 0.77864
 H1845 H 0.56876 0.81964 0.77498
 H1846 H 0.54260 0.80254 0.75774
 H1847 H 0.54264 0.75805 0.80230
 H1848 H 0.56880 0.77532 0.81936
 C1849 C 0.07039 0.29842 0.79828
 C1850 C 0.06285 0.28110 0.80590
 C1851 C 0.04791 0.27129 0.79615
 C1852 C 0.09943 0.31631 0.81614
 C1853 C 0.04791 0.29622 0.77116
 C1854 C 0.06285 0.30599 0.78093
 C1855 C 0.08612 0.30822 0.80806
 C1856 C 0.04033 0.27870 0.77861
 H1857 H 0.06861 0.27510 0.81931
 H1858 H 0.04241 0.25785 0.80228
 H1859 H 0.04240 0.30231 0.75770
 H1860 H 0.06860 0.31938 0.77490
 C1861 C 0.07072 0.79907 0.29837
 C1862 C 0.06311 0.80666 0.28107
 C1863 C 0.04817 0.79688 0.27130
 C1864 C 0.09978 0.81696 0.31619
 C1865 C 0.04829 0.77190 0.29624
 C1866 C 0.06323 0.78171 0.30597
 C1867 C 0.08645 0.80887 0.30813
 C1868 C 0.04064 0.77933 0.27874
 H1869 H 0.06882 0.82008 0.27504
 H1870 H 0.04261 0.80300 0.25787
 H1871 H 0.04283 0.75843 0.30236
 H1872 H 0.06904 0.77569 0.31935
 C1873 C 0.57105 0.70200 0.70200
 C1874 C 0.56349 0.69442 0.71933
 C1875 C 0.54848 0.70418 0.72908
 C1876 C 0.60020 0.68413 0.68419
 C1877 C 0.54845 0.72912 0.70410
 C1878 C 0.56346 0.71933 0.69438
 C1879 C 0.58684 0.69221 0.69225
 C1880 C 0.54085 0.72169 0.72162
 H1881 H 0.56928 0.68102 0.72537
 H1882 H 0.54296 0.69807 0.74252
 H1883 H 0.54290 0.74256 0.69797
 H1884 H 0.56922 0.72534 0.68099
 C1885 C 0.57114 0.20139 0.20152
 C1886 C 0.56362 0.19377 0.21885
 C1887 C 0.54865 0.20352 0.22866
 C1888 C 0.60026 0.18353 0.18364
 C1889 C 0.54857 0.22852 0.20373
 C1890 C 0.56355 0.21873 0.19395
 C1891 C 0.58691 0.19161 0.19172
 C1892 C 0.54101 0.22106 0.22125
 H1893 H 0.56942 0.18036 0.22485
 H1894 H 0.54316 0.19739 0.24210
 H1895 H 0.54303 0.24198 0.19764
 H1896 H 0.56929 0.22477 0.18056
 C1897 C 0.07086 0.70252 0.20183
 C1898 C 0.06337 0.69491 0.21917
 C1899 C 0.04842 0.70467 0.22901
 C1900 C 0.09991 0.68462 0.18386
 C1901 C 0.04830 0.72966 0.20408
 C1902 C 0.06326 0.71987 0.19427
 C1903 C 0.08659 0.69273 0.19198
 C1904 C 0.04076 0.72220 0.22161
 H1905 H 0.06918 0.68150 0.22516
 H1906 H 0.04295 0.69854 0.24246
 H1907 H 0.04274 0.74312 0.19799
 H1908 H 0.06897 0.72591 0.18087
 C1909 C 0.07062 0.20169 0.70199
 C1910 C 0.06307 0.19412 0.71933
 C1911 C 0.04809 0.20392 0.72909
 C1912 C 0.09972 0.18375 0.68415
 C1913 C 0.04807 0.22884 0.70410
 C1914 C 0.06305 0.21902 0.69436
 C1915 C 0.08638 0.19186 0.69222
 C1916 C 0.04048 0.22144 0.72162
 H1917 H 0.06885 0.18073 0.72537
 H1918 H 0.04258 0.19783 0.74254
 H1919 H 0.04254 0.24229 0.69796
 H1920 H 0.06881 0.22502 0.68096
 C1921 C 0.42899 0.70211 0.29772
 C1922 C 0.43661 0.69451 0.28041
 C1923 C 0.45157 0.70428 0.27066
 C1924 C 0.39993 0.68421 0.31554
 C1925 C 0.45143 0.72928 0.29560
 C1926 C 0.43647 0.71947 0.30532
 C1927 C 0.41325 0.69231 0.30747
 C1928 C 0.45910 0.72183 0.27811
 H1929 H 0.43091 0.68109 0.27438
 H1930 H 0.45714 0.69816 0.25723
 H1931 H 0.45689 0.74274 0.30172
 H1932 H 0.43066 0.72550 0.31870
 C1933 C 0.42917 0.20119 0.79837
 C1934 C 0.43668 0.21853 0.80598
 C1935 C 0.45163 0.22834 0.79624
 C1936 C 0.40010 0.18331 0.81619
 C1937 C 0.45169 0.20338 0.77127
 C1938 C 0.43675 0.19360 0.78104
 C1939 C 0.41343 0.19140 0.80813
 C1940 C 0.45925 0.22091 0.77872
 H1941 H 0.43090 0.22455 0.81938
 H1942 H 0.45711 0.24179 0.80237
 H1943 H 0.45723 0.19727 0.75782
 H1944 H 0.43102 0.18020 0.77500
 C1945 C 0.92942 0.70148 0.79845
 C1946 C 0.93698 0.69391 0.78110
 C1947 C 0.95193 0.70369 0.77133
 C1948 C 0.90037 0.68359 0.81629
 C1949 C 0.95190 0.72861 0.79635
 C1950 C 0.93696 0.71880 0.80609
 C1951 C 0.91369 0.69168 0.80822
 C1952 C 0.95950 0.72120 0.77881
 H1953 H 0.93124 0.68052 0.77505
 H1954 H 0.95745 0.69760 0.75787
 H1955 H 0.95740 0.74205 0.80249
 H1956 H 0.93119 0.72480 0.81950
 C1957 C 0.92976 0.20141 0.29808
 C1958 C 0.93724 0.21878 0.30567
 C1959 C 0.95218 0.22859 0.29591
 C1960 C 0.90073 0.18351 0.31596
 C1961 C 0.95228 0.20359 0.27098
 C1962 C 0.93735 0.19381 0.28076
 C1963 C 0.91404 0.19160 0.30786
 C1964 C 0.95981 0.22115 0.27840
 H1965 H 0.93145 0.22480 0.31905
 H1966 H 0.95764 0.24206 0.30202
 H1967 H 0.95783 0.19747 0.25754
 H1968 H 0.93164 0.18039 0.27475
 C1969 C 0.29791 0.29792 0.57137
 C1970 C 0.30554 0.28058 0.56380
 C1971 C 0.29580 0.27081 0.54884
 C1972 C 0.31576 0.31575 0.60045
 C1973 C 0.27079 0.29581 0.54887
 C1974 C 0.28056 0.30554 0.56384
 C1975 C 0.30769 0.30768 0.58712
 C1976 C 0.27826 0.27828 0.54125
 H1977 H 0.31896 0.27454 0.56955
 H1978 H 0.30194 0.25736 0.54331
 H1979 H 0.25733 0.30194 0.54337
 H1980 H 0.27452 0.31894 0.56961
 C1981 C 0.29803 0.79856 0.07062
 C1982 C 0.28068 0.80616 0.06305
 C1983 C 0.27092 0.79637 0.04812
 C1984 C 0.31588 0.81648 0.09965
 C1985 C 0.29593 0.77138 0.04818
 C1986 C 0.30567 0.78120 0.06311
 C1987 C 0.30780 0.80838 0.08634
 C1988 C 0.27839 0.77882 0.04056
 H1989 H 0.27463 0.81958 0.06878
 H1990 H 0.25745 0.80249 0.04259
 H1991 H 0.30208 0.75791 0.04269
 H1992 H 0.31908 0.77518 0.06889
 C1993 C 0.79850 0.29786 0.07072
 C1994 C 0.80610 0.28052 0.06312
 C1995 C 0.79631 0.27077 0.04817
 C1996 C 0.81641 0.31567 0.09977
 C1997 C 0.77132 0.29578 0.04829
 C1998 C 0.78113 0.30549 0.06323
 C1999 C 0.80831 0.30760 0.08645
 C2000 C 0.77875 0.27825 0.04064
 H2001 H 0.81952 0.27446 0.06883
 H2002 H 0.80243 0.25731 0.04262
 H2003 H 0.75784 0.30193 0.04283
 H2004 H 0.77511 0.31890 0.06904
 C2005 C 0.79846 0.79840 0.57132
 C2006 C 0.80609 0.78105 0.56376
 C2007 C 0.79634 0.77128 0.54881
 C2008 C 0.81630 0.81624 0.60040
 C2009 C 0.77134 0.79628 0.54883
 C2010 C 0.78111 0.80602 0.56378
 C2011 C 0.80823 0.80817 0.58707
 C2012 C 0.77880 0.77874 0.54122
 H2013 H 0.81950 0.77501 0.56952
 H2014 H 0.80248 0.75782 0.54329
 H2015 H 0.75787 0.80241 0.54332
 H2016 H 0.77507 0.81943 0.56955
 C2017 C 0.29824 0.70206 0.42861
 C2018 C 0.28088 0.69450 0.43614
 C2019 C 0.27110 0.70427 0.45111
 C2020 C 0.31610 0.68418 0.39952
 C2021 C 0.29612 0.72916 0.45116
 C2022 C 0.30587 0.71936 0.43619
 C2023 C 0.30802 0.69227 0.41286
 C2024 C 0.27857 0.72177 0.45873
 H2025 H 0.27483 0.68113 0.43036
 H2026 H 0.25763 0.69819 0.45660
 H2027 H 0.30226 0.74259 0.45669
 H2028 H 0.31929 0.72535 0.43044
 C2029 C 0.29803 0.20142 0.92888
 C2030 C 0.30561 0.21876 0.93641
 C2031 C 0.29583 0.22859 0.95134
 C2032 C 0.31598 0.18348 0.89988
 C2033 C 0.27086 0.20365 0.95133
 C2034 C 0.28068 0.19385 0.93641
 C2035 C 0.30786 0.19159 0.91317
 C2036 C 0.27828 0.22118 0.95892
 H2037 H 0.31903 0.22476 0.93067
 H2038 H 0.30193 0.24204 0.95684
 H2039 H 0.25739 0.19755 0.95684
 H2040 H 0.27466 0.18045 0.93066
 C2041 C 0.79827 0.70175 0.92897
 C2042 C 0.78092 0.69415 0.93649
 C2043 C 0.77107 0.70392 0.95141
 C2044 C 0.81625 0.68381 0.90000
 C2045 C 0.79600 0.72891 0.95144
 C2046 C 0.80581 0.71911 0.93651
 C2047 C 0.80812 0.69193 0.91328
 C2048 C 0.77846 0.72147 0.95900
 H2049 H 0.77494 0.68073 0.93074
 H2050 H 0.75762 0.69780 0.95690
 H2051 H 0.80207 0.74237 0.95695
 H2052 H 0.81922 0.72513 0.93078
 C2053 C 0.79889 0.20150 0.42890
 C2054 C 0.80642 0.21887 0.43641
 C2055 C 0.79662 0.22867 0.45135
 C2056 C 0.81682 0.18360 0.39987
 C2057 C 0.77173 0.20364 0.45139
 C2058 C 0.78157 0.19388 0.43646
 C2059 C 0.80871 0.19170 0.41318
 C2060 C 0.77911 0.22121 0.45895
 H2061 H 0.81981 0.22491 0.43065
 H2062 H 0.80268 0.24215 0.45684
 H2063 H 0.75830 0.19751 0.45691
 H2064 H 0.77559 0.18045 0.43072
 C2065 C 0.70195 0.29790 0.42883
 C2066 C 0.71927 0.30554 0.43636
 C2067 C 0.72911 0.29581 0.45130
 C2068 C 0.68401 0.31575 0.39979
 C2069 C 0.70423 0.27078 0.45132
 C2070 C 0.69442 0.28055 0.43638
 C2071 C 0.69212 0.30767 0.41310
 C2072 C 0.72173 0.27826 0.45890
 H2073 H 0.72525 0.31896 0.43060
 H2074 H 0.74254 0.30196 0.45681
 H2075 H 0.69816 0.25731 0.45683
 H2076 H 0.68104 0.27449 0.43063
 C2077 C 0.70144 0.79842 0.92903
 C2078 C 0.71877 0.80601 0.93659
 C2079 C 0.72858 0.79621 0.95150
 C2080 C 0.68352 0.81638 0.90004
 C2081 C 0.70366 0.77122 0.95143
 C2082 C 0.69388 0.78105 0.93652
 C2083 C 0.69163 0.80826 0.91333
 C2084 C 0.72118 0.77865 0.95904
 H2085 H 0.72477 0.81943 0.93087
 H2086 H 0.74203 0.80231 0.95703
 H2087 H 0.69757 0.75775 0.95690
 H2088 H 0.68048 0.77504 0.93075
 C2089 C 0.20133 0.29819 0.92893
 C2090 C 0.21869 0.30576 0.93646
 C2091 C 0.22850 0.29596 0.95137
 C2092 C 0.18340 0.31613 0.89994
 C2093 C 0.20353 0.27102 0.95137
 C2094 C 0.19375 0.28084 0.93646
 C2095 C 0.19152 0.30801 0.91323
 C2096 C 0.22108 0.27843 0.95895
 H2097 H 0.22470 0.31916 0.93071
 H2098 H 0.24196 0.30206 0.95687
 H2099 H 0.19743 0.25756 0.95687
 H2100 H 0.18034 0.27484 0.93071
 C2101 C 0.20176 0.79890 0.42887
 C2102 C 0.21913 0.80643 0.43639
 C2103 C 0.22894 0.79661 0.45130
 C2104 C 0.18385 0.81686 0.39988
 C2105 C 0.20391 0.77173 0.45131
 C2106 C 0.19414 0.78157 0.43640
 C2107 C 0.19196 0.80874 0.41317
 C2108 C 0.22147 0.77909 0.45888
 H2109 H 0.22517 0.81982 0.43064
 H2110 H 0.24241 0.80267 0.45680
 H2111 H 0.19777 0.75828 0.45681
 H2112 H 0.18071 0.77560 0.43066
 C2113 C 0.70207 0.70196 0.57133
 C2114 C 0.69444 0.71931 0.56380
 C2115 C 0.70419 0.72909 0.54884
 C2116 C 0.68423 0.68409 0.60039
 C2117 C 0.72920 0.70410 0.54881
 C2118 C 0.71942 0.69434 0.56377
 C2119 C 0.69230 0.69217 0.58706
 C2120 C 0.72173 0.72164 0.54124
 H2121 H 0.68103 0.72534 0.56957
 H2122 H 0.69805 0.74256 0.54334
 H2123 H 0.74266 0.69797 0.54329
 H2124 H 0.72547 0.68093 0.56951
 C2125 C 0.70206 0.20142 0.07076
 C2126 C 0.71940 0.19382 0.06315
 C2127 C 0.72914 0.20360 0.04819
 C2128 C 0.68427 0.18352 0.09982
 C2129 C 0.70413 0.22860 0.04832
 C2130 C 0.69442 0.21879 0.06327
 C2131 C 0.69232 0.19161 0.08650
 C2132 C 0.72166 0.22116 0.04066
 H2133 H 0.72545 0.18040 0.06885
 H2134 H 0.74259 0.19749 0.04263
 H2135 H 0.69799 0.24208 0.04286
 H2136 H 0.68102 0.22482 0.06908
 C2137 C 0.20159 0.70212 0.07074
 C2138 C 0.21896 0.69449 0.06323
 C2139 C 0.22876 0.70420 0.04827
 C2140 C 0.18371 0.68433 0.09982
 C2141 C 0.20375 0.72920 0.04819
 C2142 C 0.19398 0.71945 0.06315
 C2143 C 0.19180 0.69238 0.08649
 C2144 C 0.22130 0.72172 0.04063
 H2145 H 0.22499 0.68109 0.06902
 H2146 H 0.24223 0.69806 0.04278
 H2147 H 0.19762 0.74265 0.04264
 H2148 H 0.18056 0.72551 0.06888
 C2149 C 0.20149 0.20148 0.57119
 C2150 C 0.19387 0.21883 0.56366
 C2151 C 0.20363 0.22863 0.54872
 C2152 C 0.18364 0.18362 0.60024
 C2153 C 0.22864 0.20364 0.54870
 C2154 C 0.21885 0.19387 0.56364
 C2155 C 0.19172 0.19170 0.58692
 C2156 C 0.22118 0.22118 0.54113
 H2157 H 0.18045 0.22486 0.56942
 H2158 H 0.19749 0.24209 0.54322
 H2159 H 0.24211 0.19751 0.54319
 H2160 H 0.22490 0.18046 0.56939
   
