data_POSCAR
  _audit_creation_date              2014-09-24
  _audit_creation_method            'ToBaCCo'
  _symmetry_space_group_name_H-M    'P1'
  _symmetry_Int_Tables_number       1
  _symmetry_cell_setting            triclinic
  loop_
  _symmetry_equiv_pos_as_xyz
 x,y,z
_cell_length_a 63.2050
_cell_length_b 63.3045
_cell_length_c 63.2045
_cell_angle_alpha 89.966800
_cell_angle_beta 90.041200
_cell_angle_gamma 89.988900
loop_
  _atom_site_label
  _atom_site_type_symbol
  _atom_site_fract_x
  _atom_site_fract_y
  _atom_site_fract_z
C1 C 0.24864 1.05849 -0.00167
 C2 C 0.24304 1.04855 0.01751
 C3 C 0.24110 1.02636 0.01764
 C4 C 0.24559 1.01416 -0.00044
 C5 C 0.25183 1.02468 -0.01906
 C6 C 0.25271 1.04687 -0.02025
 C7 C 0.24354 0.99053 -0.00008
 C8 C 0.23944 0.97923 -0.01890
 C9 C 0.23823 0.95711 -0.01895
 C10 C 0.23977 0.94618 0.00024
 C11 C 0.24306 0.95697 0.01930
 C12 C 0.24560 0.97902 0.01897
 H13 H 0.24976 1.07546 -0.00216
 H14 H 0.23501 1.01864 0.03160
 H15 H 0.25688 1.01551 -0.03255
 H16 H 0.23693 0.98746 -0.03368
 H17 H 0.23906 0.92908 0.00031
 H18 H 0.24904 0.98703 0.03368
 C19 C 0.75311 0.56040 0.50405
 C20 C 0.75532 0.54901 0.52295
 C21 C 0.75415 0.52685 0.52243
 C22 C 0.74969 0.51597 0.50344
 C23 C 0.74689 0.52798 0.48479
 C24 C 0.74923 0.55004 0.48486
 C25 C 0.74802 0.49227 0.50304
 C26 C 0.75161 0.48087 0.48415
 C27 C 0.74909 0.45886 0.48341
 C28 C 0.74426 0.44790 0.50202
 C29 C 0.74130 0.45862 0.52116
 C30 C 0.74269 0.48077 0.52147
 H31 H 0.75382 0.57749 0.50434
 H32 H 0.75710 0.51828 0.53693
 H33 H 0.74305 0.52035 0.47001
 H34 H 0.75623 0.48891 0.46981
 H35 H 0.74343 0.43081 0.50170
 H36 H 0.73924 0.48883 0.53614
 C37 C 0.75566 1.00254 1.06085
 C38 C 0.75164 0.98364 1.04979
 C39 C 0.75083 0.98456 1.02751
 C40 C 0.75582 1.00322 1.01637
 C41 C 0.76059 1.02157 1.02807
 C42 C 0.76001 1.02171 1.05037
 C43 C 0.75668 1.00338 0.99258
 C44 C 0.75343 1.02223 0.98101
 C45 C 0.75513 1.02251 0.95884
 C46 C 0.75869 1.00354 0.94802
 C47 C 0.76139 0.98452 0.95899
 C48 C 0.76101 0.98466 0.98119
 H49 H 0.75362 1.00264 1.07781
 H50 H 0.74714 0.97047 1.01870
 H51 H 0.76580 1.03557 1.01982
 H52 H 0.74978 1.03684 0.98907
 H53 H 0.75880 1.00354 0.93088
 H54 H 0.76449 0.97007 0.98935
 C55 C 0.24991 0.50229 0.55760
 C56 C 0.25440 0.48335 0.54710
 C57 C 0.25512 0.48316 0.52490
 C58 C 0.25020 0.50139 0.51296
 C59 C 0.24516 0.52010 0.52405
 C60 C 0.24559 0.52080 0.54625
 C61 C 0.25032 0.50086 0.48916
 C62 C 0.25285 0.51959 0.47723
 C63 C 0.25219 0.51926 0.45503
 C64 C 0.25060 0.49986 0.44456
 C65 C 0.24884 0.48095 0.45588
 C66 C 0.24790 0.48161 0.47806
 H67 H 0.24979 0.50264 0.57474
 H68 H 0.25991 0.46870 0.51720
 H69 H 0.24053 0.53425 0.51569
 H70 H 0.25510 0.53463 0.48495
 H71 H 0.25071 0.49948 0.42741
 H72 H 0.24549 0.46693 0.48643
 C73 C 1.05832 0.24207 -0.00502
 C74 C 1.04828 0.24656 0.01437
 C75 C 1.02594 0.24711 0.01462
 C76 C 1.01384 0.24166 -0.00337
 C77 C 1.02456 0.23667 -0.02226
 C78 C 1.04670 0.23728 -0.02329
 C79 C 0.99014 0.24074 -0.00215
 C80 C 0.97743 0.24461 -0.02015
 C81 C 0.95511 0.24309 -0.01926
 C82 C 0.94576 0.23905 0.00058
 C83 C 0.95798 0.23558 0.01872
 C84 C 0.98005 0.23582 0.01711
 H85 H 1.07533 0.24331 -0.00639
 H86 H 1.01780 0.25096 0.02908
 H87 H 1.01587 0.23183 -0.03619
 H88 H 0.98506 0.24817 -0.03499
 H89 H 0.92875 0.23981 0.00240
 H90 H 0.98920 0.23190 0.03103
 C91 C 0.55985 0.74790 0.50011
 C92 C 0.54882 0.75194 0.51891
 C93 C 0.52664 0.75285 0.51848
 C94 C 0.51528 0.74884 0.49971
 C95 C 0.52677 0.74437 0.48110
 C96 C 0.54900 0.74433 0.48107
 C97 C 0.49158 0.74939 0.49956
 C98 C 0.48038 0.75466 0.48097
 C99 C 0.45818 0.75500 0.48069
 C100 C 0.44704 0.75072 0.49935
 C101 C 0.45773 0.74577 0.51813
 C102 C 0.47992 0.74475 0.51804
 H103 H 0.57698 0.74755 0.50028
 H104 H 0.51838 0.75712 0.53283
 H105 H 0.51856 0.74053 0.46658
 H106 H 0.48877 0.75896 0.46670
 H107 H 0.42991 0.75125 0.49927
 H108 H 0.48792 0.73997 0.53239
 C109 C 0.00231 0.75234 -0.05663
 C110 C 0.02090 0.74667 -0.04594
 C111 C 0.02050 0.74424 -0.02391
 C112 C 0.00190 0.74814 -0.01230
 C113 C -0.01648 0.75430 -0.02340
 C114 C -0.01680 0.75587 -0.04569
 C115 C 0.00151 0.74563 0.01130
 C116 C -0.01742 0.74019 0.02180
 C117 C -0.01833 0.73806 0.04401
 C118 C 0.00067 0.74027 0.05548
 C119 C 0.01980 0.74509 0.04540
 C120 C 0.02001 0.74835 0.02346
 H121 H 0.00284 0.75321 -0.07370
 H122 H 0.03470 0.73881 -0.01604
 H123 H -0.03039 0.75874 -0.01454
 H124 H -0.03134 0.73667 0.01253
 H125 H 0.00067 0.73954 0.07257
 H126 H 0.03473 0.75283 0.01599
 C127 C 0.50066 0.25144 0.43955
 C128 C 0.51975 0.25524 0.45021
 C129 C 0.51992 0.25552 0.47242
 C130 C 0.50145 0.25116 0.48414
 C131 C 0.48257 0.24691 0.47298
 C132 C 0.48195 0.24749 0.45077
 C133 C 0.50183 0.25110 0.50786
 C134 C 0.48339 0.25576 0.51954
 C135 C 0.48344 0.25525 0.54173
 C136 C 0.50233 0.25080 0.55242
 C137 C 0.52100 0.24653 0.54130
 C138 C 0.52059 0.24637 0.51908
 H139 H 0.50037 0.25157 0.42242
 H140 H 0.53450 0.25956 0.48043
 H141 H 0.46828 0.24273 0.48140
 H142 H 0.46892 0.26020 0.51154
 H143 H 0.50250 0.25063 0.56956
 H144 H 0.53490 0.24212 0.51073
 C145 C 1.05216 -0.00316 0.25789
 C146 C 1.04177 0.01610 0.25384
 C147 C 1.01957 0.01563 0.25121
 C148 C 1.00779 -0.00313 0.25425
 C149 C 1.01884 -0.02190 0.25892
 C150 C 1.04095 -0.02209 0.26022
 C151 C 0.98406 -0.00299 0.25291
 C152 C 0.97265 -0.02136 0.24734
 C153 C 0.95030 -0.02147 0.24633
 C154 C 0.93960 -0.00223 0.24988
 C155 C 0.95059 0.01626 0.25511
 C156 C 0.97261 0.01558 0.25723
 H157 H 1.06926 -0.00387 0.25803
 H158 H 1.01130 0.03004 0.24752
 H159 H 1.01040 -0.03647 0.26188
 H160 H 0.98126 -0.03538 0.24281
 H161 H 0.92253 -0.00148 0.24930
 H162 H 0.98062 0.02968 0.26260
 C163 C 0.55485 0.49966 0.75121
 C164 C 0.54418 0.51829 0.75664
 C165 C 0.52200 0.51816 0.75780
 C166 C 0.51029 0.49982 0.75285
 C167 C 0.52147 0.48141 0.74703
 C168 C 0.54369 0.48110 0.74661
 C169 C 0.48658 0.49984 0.75395
 C170 C 0.47536 0.48105 0.75826
 C171 C 0.45316 0.48086 0.75910
 C172 C 0.44208 0.49986 0.75651
 C173 C 0.45280 0.51886 0.75274
 C174 C 0.47494 0.51865 0.75090
 H175 H 0.57197 0.49959 0.75065
 H176 H 0.51405 0.53234 0.76306
 H177 H 0.51305 0.46725 0.74247
 H178 H 0.48374 0.46648 0.76139
 H179 H 0.42495 0.49979 0.75687
 H180 H 0.48298 0.53329 0.74727
 C181 C 1.00082 1.05679 0.74699
 C182 C 0.98138 1.04682 0.75146
 C183 C 0.98088 1.02449 0.75150
 C184 C 0.99885 1.01234 0.74609
 C185 C 1.01770 1.02305 0.74097
 C186 C 1.01894 1.04510 0.74194
 C187 C 0.99793 0.98861 0.74576
 C188 C 1.01638 0.97632 0.74884
 C189 C 1.01600 0.95404 0.74729
 C190 C 0.99623 0.94421 0.74428
 C191 C 0.97762 0.95597 0.74185
 C192 C 0.97865 0.97806 0.74205
 H193 H 1.00201 1.07381 0.74669
 H194 H 0.96670 1.01654 0.75671
 H195 H 1.03155 1.01445 0.73582
 H196 H 1.03119 0.98422 0.75172
 H197 H 0.99490 0.92718 0.74499
 H198 H 0.96431 0.98686 0.73896
 C199 C 0.49816 0.55234 0.23833
 C200 C 0.47897 0.54209 0.24241
 C201 C 0.47885 0.52013 0.24573
 C202 C 0.49760 0.50811 0.24362
 C203 C 0.51653 0.51891 0.23863
 C204 C 0.51705 0.54097 0.23672
 C205 C 0.49759 0.48452 0.24648
 C206 C 0.51645 0.47372 0.25162
 C207 C 0.51718 0.45161 0.25272
 C208 C 0.49841 0.44009 0.25029
 C209 C 0.47919 0.45037 0.24611
 C210 C 0.47899 0.47246 0.24372
 H211 H 0.49844 0.56941 0.23707
 H212 H 0.46405 0.51265 0.24981
 H213 H 0.53108 0.51038 0.23591
 H214 H 0.53083 0.48233 0.25498
 H215 H 0.49878 0.42304 0.25153
 H216 H 0.46430 0.47994 0.23921
 O217 O 0.24274 0.19483 0.22201
 O218 O 0.26559 0.18719 0.25107
 O219 O 0.18824 0.22112 0.25253
 O220 O 0.18139 0.24797 0.27434
 O221 O 0.21503 0.25173 0.19782
 O222 O 0.24515 0.27350 0.19213
 O223 O 0.24520 0.27659 0.30811
 O224 O 0.22013 0.24879 0.31296
 O225 O 0.29904 0.24736 0.28149
 O226 O 0.30534 0.22471 0.25278
 O227 O 0.27430 0.30289 0.25452
 O228 O 0.24442 0.31057 0.23090
 O229 O 0.24597 0.30253 0.28330
 O230 O 0.22177 0.31022 0.25320
 O231 O 0.29910 0.27697 0.25466
 O232 O 0.30228 0.24792 0.22658
 O233 O 0.27376 0.24813 0.30705
 O234 O 0.24750 0.22443 0.31343
 O235 O 0.24347 0.22077 0.19716
 O236 O 0.26796 0.24980 0.19202
 O237 O 0.18942 0.25150 0.22305
 O238 O 0.18508 0.27507 0.25371
 O239 O 0.21296 0.19510 0.25119
 O240 O 0.24346 0.18736 0.27464
 Zr241 Zr 0.24220 0.21107 0.25104
 O242 O 0.26244 0.22829 0.27103
 Zr243 Zr 0.20614 0.24912 0.25187
 O244 O 0.22475 0.26780 0.27228
 Zr245 Zr 0.24348 0.24899 0.21480
 O246 O 0.26355 0.26796 0.23340
 Zr247 Zr 0.24485 0.24855 0.29040
 O248 O 0.22407 0.22944 0.27215
 Zr249 Zr 0.28179 0.24855 0.25315
 O250 O 0.26335 0.22926 0.23287
 Zr251 Zr 0.24538 0.28650 0.25414
 O252 O 0.22516 0.26944 0.23361
 O253 O 0.22314 0.22958 0.23173
 O254 O 0.26494 0.26833 0.27342
 C255 C 0.24325 0.20121 0.20270
 C256 C 0.19369 0.20155 0.25204
 C257 C 0.19557 0.25259 0.20368
 C258 C 0.24569 0.29611 0.30260
 C259 C 0.29318 0.24749 0.30096
 C260 C 0.29359 0.29651 0.25472
 H261 H 0.27077 0.21832 0.27975
 H262 H 0.27266 0.27656 0.22403
 H263 H 0.21381 0.22112 0.22244
 H264 H 0.21544 0.27637 0.28144
 H265 H 0.21027 0.23729 0.30902
 H266 H 0.18691 0.25428 0.28754
 H267 H 0.31611 0.25410 0.23068
 H268 H 0.27823 0.23868 0.19601
 H269 H 0.23863 0.21260 0.30847
 H270 H 0.23083 0.18906 0.28372
 H271 H 0.25548 0.30741 0.22030
 H272 H 0.23607 0.28508 0.19746
 H273 H 0.27689 0.19198 0.24134
 H274 H 0.30005 0.21265 0.26117
 H275 H 0.18950 0.28530 0.24272
 H276 H 0.21176 0.30750 0.26490
 O277 O 0.74680 0.79931 0.21422
 O278 O 0.72498 0.80601 0.24405
 O279 O 0.80325 0.77442 0.24339
 O280 O 0.81135 0.74758 0.26479
 O281 O 0.77647 0.74383 0.18874
 O282 O 0.74700 0.72102 0.18344
 O283 O 0.74876 0.71656 0.29924
 O284 O 0.77346 0.74489 0.30403
 O285 O 0.69388 0.74388 0.27411
 O286 O 0.68667 0.76764 0.24555
 O287 O 0.71983 0.69006 0.24559
 O288 O 0.74970 0.68363 0.22167
 O289 O 0.74798 0.69080 0.27427
 O290 O 0.77255 0.68434 0.24396
 O291 O 0.69424 0.71520 0.24662
 O292 O 0.68940 0.74433 0.21935
 O293 O 0.71982 0.74383 0.29904
 O294 O 0.74536 0.76855 0.30525
 O295 O 0.74660 0.77379 0.18897
 O296 O 0.72340 0.74390 0.18390
 O297 O 0.80236 0.74421 0.21371
 O298 O 0.80811 0.72062 0.24402
 O299 O 0.77778 0.79973 0.24261
 O300 O 0.74774 0.80621 0.26692
 Zr301 Zr 0.74903 0.78283 0.24302
 O302 O 0.72970 0.76476 0.26318
 Zr303 Zr 0.78620 0.74590 0.24278
 O304 O 0.76861 0.72636 0.26328
 Zr305 Zr 0.74824 0.74536 0.20629
 O306 O 0.72912 0.72558 0.22506
 Zr307 Zr 0.74832 0.74481 0.28190
 O308 O 0.76812 0.76478 0.26358
 Zr309 Zr 0.71062 0.74416 0.24538
 O310 O 0.72812 0.76420 0.22500
 Zr311 Zr 0.74821 0.70729 0.24527
 O312 O 0.76749 0.72524 0.22459
 O313 O 0.76827 0.76520 0.22311
 O314 O 0.72852 0.72468 0.26504
 C315 C 0.74591 0.79323 0.19484
 C316 C 0.79725 0.79382 0.24312
 C317 C 0.79601 0.74324 0.19439
 C318 C 0.74823 0.69708 0.29363
 C319 C 0.70025 0.74355 0.29343
 C320 C 0.70037 0.69584 0.24617
 H321 H 0.72127 0.77431 0.27223
 H322 H 0.72012 0.71684 0.21571
 H323 H 0.77707 0.77409 0.21370
 H324 H 0.77829 0.71795 0.27223
 H325 H 0.78286 0.75679 0.30016
 H326 H 0.80631 0.74093 0.27802
 H327 H 0.67569 0.73821 0.22391
 H328 H 0.71261 0.75429 0.18844
 H329 H 0.75388 0.78067 0.30034
 H330 H 0.76061 0.80470 0.27571
 H331 H 0.73844 0.68661 0.21121
 H332 H 0.75672 0.70979 0.18840
 H333 H 0.71326 0.80068 0.23513
 H334 H 0.69100 0.77889 0.25549
 H335 H 0.80363 0.71022 0.23321
 H336 H 0.78235 0.68697 0.25588
 O337 O 0.74857 0.19695 0.78131
 O338 O 0.72694 0.18917 0.75028
 O339 O 0.80428 0.22225 0.75135
 O340 O 0.81185 0.24890 0.72949
 O341 O 0.77739 0.25307 0.80565
 O342 O 0.74747 0.27591 0.81048
 O343 O 0.74786 0.27856 0.69484
 O344 O 0.77371 0.25132 0.69015
 O345 O 0.69437 0.24969 0.72048
 O346 O 0.68917 0.22571 0.74757
 O347 O 0.71913 0.30486 0.74745
 O348 O 0.74882 0.31232 0.77206
 O349 O 0.74762 0.30445 0.71969
 O350 O 0.77171 0.31195 0.74982
 O351 O 0.69403 0.27923 0.74642
 O352 O 0.68948 0.25299 0.77467
 O353 O 0.72025 0.24950 0.69549
 O354 O 0.74979 0.22590 0.68962
 O355 O 0.74774 0.22299 0.80601
 O356 O 0.72440 0.25239 0.81083
 O357 O 0.80317 0.25263 0.78061
 O358 O 0.80824 0.27633 0.75050
 O359 O 0.77921 0.19654 0.75236
 O360 O 0.75063 0.18948 0.72842
 Zr361 Zr 0.75029 0.21303 0.75214
 O362 O 0.73058 0.23042 0.73175
 Zr363 Zr 0.78685 0.25059 0.75168
 O364 O 0.76879 0.26949 0.73091
 Zr365 Zr 0.74900 0.25103 0.78823
 O366 O 0.72937 0.27006 0.76919
 Zr367 Zr 0.74886 0.25036 0.71252
 O368 O 0.76897 0.23117 0.73132
 Zr369 Zr 0.71119 0.25088 0.74915
 O370 O 0.72902 0.23150 0.76997
 Zr371 Zr 0.74801 0.28835 0.74872
 O372 O 0.76780 0.27117 0.76958
 O373 O 0.76932 0.23128 0.77166
 O374 O 0.72871 0.27029 0.72914
 C375 C 0.74752 0.20343 0.80057
 C376 C 0.79857 0.20274 0.75180
 C377 C 0.79692 0.25365 0.79993
 C378 C 0.74733 0.29810 0.70041
 C379 C 0.70070 0.24926 0.70114
 C380 C 0.69979 0.29870 0.74625
 H381 H 0.72188 0.22045 0.72342
 H382 H 0.72019 0.27884 0.77830
 H383 H 0.77828 0.22261 0.78114
 H384 H 0.77823 0.27803 0.72183
 H385 H 0.78450 0.24104 0.69495
 H386 H 0.80743 0.25696 0.71683
 H387 H 0.67509 0.25472 0.76863
 H388 H 0.71316 0.24274 0.80576
 H389 H 0.73965 0.21483 0.69393
 H390 H 0.76068 0.19432 0.71744
 H391 H 0.73717 0.30959 0.78214
 H392 H 0.75713 0.28708 0.80531
 H393 H 0.71613 0.19248 0.76109
 H394 H 0.69093 0.21733 0.76067
 H395 H 0.80348 0.28670 0.76121
 H396 H 0.78191 0.30907 0.73831
 O397 O 0.25185 0.80822 0.77834
 O398 O 0.27495 0.81464 0.74894
 O399 O 0.19678 0.78269 0.74856
 O400 O 0.18901 0.75554 0.72737
 O401 O 0.22319 0.75222 0.80377
 O402 O 0.25298 0.73000 0.80954
 O403 O 0.25131 0.72487 0.69370
 O404 O 0.22733 0.75375 0.68851
 O405 O 0.30664 0.75309 0.71945
 O406 O 0.31314 0.77695 0.74812
 O407 O 0.28092 0.69907 0.74682
 O408 O 0.25140 0.69234 0.77153
 O409 O 0.25192 0.69937 0.71899
 O410 O 0.22822 0.69280 0.74966
 O411 O 0.30630 0.72443 0.74627
 O412 O 0.31044 0.75315 0.77415
 O413 O 0.28106 0.75182 0.69417
 O414 O 0.25578 0.77663 0.68722
 O415 O 0.25209 0.78269 0.80364
 O416 O 0.27627 0.75340 0.80906
 O417 O 0.19751 0.75265 0.77859
 O418 O 0.19217 0.72891 0.74828
 O419 O 0.22198 0.80826 0.74937
 O420 O 0.25226 0.81491 0.72567
 Zr421 Zr 0.25082 0.79152 0.74958
 O422 O 0.27048 0.77349 0.72969
 Zr423 Zr 0.21396 0.75428 0.74964
 O424 O 0.23192 0.73478 0.72948
 Zr425 Zr 0.25155 0.75418 0.78650
 O426 O 0.27107 0.73446 0.76809
 Zr427 Zr 0.25226 0.75325 0.71087
 O428 O 0.23213 0.77319 0.72891
 Zr429 Zr 0.28953 0.75316 0.74787
 O430 O 0.27168 0.77316 0.76796
 Zr431 Zr 0.25230 0.71597 0.74782
 O432 O 0.23263 0.73383 0.76816
 O433 O 0.23152 0.77375 0.76933
 O434 O 0.27200 0.73341 0.72812
 C435 C 0.25216 0.80214 0.79776
 C436 C 0.20258 0.80216 0.74871
 C437 C 0.20370 0.75165 0.79796
 C438 C 0.25136 0.70543 0.69958
 C439 C 0.30056 0.75204 0.70008
 C440 C 0.30033 0.70502 0.74612
 H441 H 0.27895 0.78304 0.72067
 H442 H 0.28012 0.72581 0.77748
 H443 H 0.22239 0.78254 0.77851
 H444 H 0.22226 0.72628 0.72060
 H445 H 0.21810 0.76584 0.69223
 H446 H 0.19448 0.74943 0.71406
 H447 H 0.32429 0.74735 0.76961
 H448 H 0.28674 0.76417 0.80466
 H449 H 0.24808 0.78920 0.69228
 H450 H 0.23969 0.81306 0.71651
 H451 H 0.26303 0.69519 0.78162
 H452 H 0.24385 0.71841 0.80432
 H453 H 0.28615 0.80970 0.75872
 H454 H 0.30878 0.78817 0.73815
 H455 H 0.19642 0.71869 0.75937
 H456 H 0.21804 0.69555 0.73809
 O457 O 0.25145 0.30230 0.71953
 O458 O 0.22752 0.30700 0.74954
 O459 O 0.30621 0.27646 0.75047
 O460 O 0.31436 0.24799 0.76935
 O461 O 0.28197 0.24916 0.69229
 O462 O 0.25334 0.22581 0.68469
 O463 O 0.25150 0.21484 0.79996
 O464 O 0.27479 0.24380 0.80731
 O465 O 0.19634 0.24255 0.77417
 O466 O 0.19113 0.26879 0.74972
 O467 O 0.22416 0.19108 0.74437
 O468 O 0.25457 0.18607 0.72093
 O469 O 0.25239 0.19053 0.77356
 O470 O 0.27730 0.18633 0.74326
 O471 O 0.19815 0.21582 0.74546
 O472 O 0.19372 0.24473 0.71979
 O473 O 0.22128 0.24136 0.80009
 O474 O 0.24584 0.26613 0.80888
 O475 O 0.25202 0.27806 0.69305
 O476 O 0.22907 0.24833 0.68567
 O477 O 0.30702 0.24893 0.71810
 O478 O 0.31195 0.22281 0.74697
 O479 O 0.28042 0.30144 0.74989
 O480 O 0.24913 0.30646 0.77242
 Zr481 Zr 0.25195 0.28424 0.74756
 O482 O 0.23227 0.26467 0.76591
 Zr483 Zr 0.28978 0.24788 0.74666
 O484 O 0.27179 0.22699 0.76536
 Zr485 Zr 0.25319 0.24887 0.70887
 O486 O 0.23383 0.22776 0.72576
 Zr487 Zr 0.25049 0.24401 0.78425
 O488 O 0.27056 0.26528 0.76778
 Zr489 Zr 0.21428 0.24484 0.74635
 O490 O 0.23196 0.26639 0.72768
 Zr491 Zr 0.25243 0.20861 0.74556
 O492 O 0.27214 0.22800 0.72662
 O493 O 0.27225 0.26802 0.72756
 O494 O 0.23175 0.22453 0.76558
 C495 C 0.25148 0.29718 0.69984
 C496 C 0.29990 0.29574 0.75128
 C497 C 0.30131 0.24918 0.69855
 C498 C 0.25215 0.19570 0.79323
 C499 C 0.20194 0.24115 0.79367
 C500 C 0.20459 0.19659 0.74453
 H501 H 0.22308 0.27355 0.77494
 H502 H 0.22532 0.21940 0.71564
 H503 H 0.28134 0.27766 0.71923
 H504 H 0.28142 0.21830 0.77411
 H505 H 0.28393 0.25617 0.80438
 H506 H 0.30853 0.24165 0.78239
 H507 H 0.17919 0.24179 0.72494
 H508 H 0.21796 0.25823 0.69049
 H509 H 0.25375 0.27895 0.80484
 H510 H 0.26128 0.30432 0.78208
 H511 H 0.24389 0.18979 0.71011
 H512 H 0.26308 0.21450 0.68942
 H513 H 0.21773 0.30431 0.73763
 H514 H 0.19320 0.27877 0.73785
 H515 H 0.30850 0.21355 0.73482
 H516 H 0.28700 0.18868 0.75532
 O517 O 0.74838 0.69648 0.72766
 O518 O 0.77125 0.69088 0.75690
 O519 O 0.69267 0.72168 0.75823
 O520 O 0.68458 0.74924 0.77837
 O521 O 0.71758 0.75094 0.70165
 O522 O 0.74651 0.77404 0.69489
 O523 O 0.74819 0.78152 0.81057
 O524 O 0.72369 0.75327 0.81672
 O525 O 0.80233 0.75415 0.78467
 O526 O 0.80917 0.72984 0.75661
 O527 O 0.77501 0.80695 0.75547
 O528 O 0.74442 0.81239 0.73213
 O529 O 0.74786 0.80653 0.78481
 O530 O 0.72220 0.81199 0.75508
 O531 O 0.80092 0.78215 0.75660
 O532 O 0.80540 0.75239 0.72986
 O533 O 0.77716 0.75454 0.81036
 O534 O 0.75199 0.72957 0.81771
 O535 O 0.74787 0.72153 0.70192
 O536 O 0.77037 0.75156 0.69531
 O537 O 0.69223 0.75083 0.72712
 O538 O 0.68724 0.77550 0.75686
 O539 O 0.71837 0.69660 0.75736
 O540 O 0.74949 0.69106 0.78057
 Zr541 Zr 0.74691 0.71377 0.75610
 O542 O 0.76656 0.73261 0.77526
 Zr543 Zr 0.70927 0.75032 0.75584
 O544 O 0.72720 0.77055 0.77538
 Zr545 Zr 0.74625 0.75032 0.71846
 O546 O 0.76564 0.77081 0.73611
 Zr547 Zr 0.74823 0.75283 0.79396
 O548 O 0.72818 0.73219 0.77665
 Zr549 Zr 0.78488 0.75296 0.75642
 O550 O 0.76710 0.73219 0.73707
 Zr551 Zr 0.74686 0.78936 0.75630
 O552 O 0.72723 0.77069 0.73662
 O553 O 0.72689 0.73067 0.73627
 O554 O 0.76728 0.77271 0.77600
 C555 C 0.74885 0.70222 0.70814
 C556 C 0.69888 0.70235 0.75855
 C557 C 0.69817 0.75135 0.70766
 C558 C 0.74842 0.80083 0.80433
 C559 C 0.79654 0.75492 0.80416
 C560 C 0.79455 0.80142 0.75583
 H561 H 0.77537 0.72339 0.78433
 H562 H 0.77427 0.77941 0.72630
 H563 H 0.71792 0.72138 0.72742
 H564 H 0.71770 0.77910 0.78436
 H565 H 0.71421 0.74127 0.81340
 H566 H 0.68999 0.75600 0.79139
 H567 H 0.81910 0.75889 0.73388
 H568 H 0.78149 0.74152 0.69984
 H569 H 0.74293 0.71754 0.81362
 H570 H 0.73695 0.69262 0.78980
 H571 H 0.75543 0.80927 0.72146
 H572 H 0.73677 0.78527 0.69978
 H573 H 0.78264 0.69615 0.74753
 H574 H 0.80514 0.71866 0.76676
 H575 H 0.69121 0.78549 0.74548
 H576 H 0.71285 0.80960 0.76739
 O577 O 0.25213 0.69757 0.28056
 O578 O 0.22862 0.69115 0.25018
 O579 O 0.30652 0.72330 0.24995
 O580 O 0.31364 0.75053 0.22849
 O581 O 0.28132 0.75322 0.30570
 O582 O 0.25150 0.77553 0.31217
 O583 O 0.25005 0.78167 0.19659
 O584 O 0.27462 0.75387 0.19043
 O585 O 0.19609 0.75324 0.22285
 O586 O 0.19141 0.72777 0.24856
 O587 O 0.22176 0.80660 0.25116
 O588 O 0.25246 0.81317 0.27476
 O589 O 0.24993 0.80690 0.22211
 O590 O 0.27439 0.81357 0.25180
 O591 O 0.19659 0.78102 0.25059
 O592 O 0.19283 0.75327 0.27733
 O593 O 0.22128 0.75365 0.19718
 O594 O 0.25006 0.72932 0.18972
 O595 O 0.25211 0.72289 0.30603
 O596 O 0.22845 0.75203 0.31225
 O597 O 0.30647 0.75315 0.28002
 O598 O 0.31105 0.77731 0.25043
 O599 O 0.28117 0.69785 0.25046
 O600 O 0.25185 0.69156 0.22758
 Zr601 Zr 0.25249 0.71452 0.25185
 O602 O 0.23241 0.73262 0.23247
 Zr603 Zr 0.28937 0.75182 0.25149
 O604 O 0.27089 0.77146 0.23186
 Zr605 Zr 0.25252 0.75144 0.28904
 O606 O 0.23253 0.77112 0.27112
 Zr607 Zr 0.25035 0.75302 0.21343
 O608 O 0.27076 0.73313 0.23109
 Zr609 Zr 0.21370 0.75263 0.25104
 O610 O 0.23189 0.73254 0.27084
 Zr611 Zr 0.25067 0.78998 0.25071
 O612 O 0.27092 0.77202 0.27047
 O613 O 0.27224 0.73208 0.27134
 O614 O 0.23075 0.77262 0.23113
 C615 C 0.25193 0.70350 0.30003
 C616 C 0.30057 0.70385 0.24973
 C617 C 0.30068 0.75394 0.29949
 C618 C 0.24985 0.80105 0.20265
 C619 C 0.20189 0.75370 0.20335
 C620 C 0.20237 0.80045 0.25100
 H621 H 0.22336 0.72306 0.22404
 H622 H 0.22369 0.77961 0.28083
 H623 H 0.28152 0.72317 0.28027
 H624 H 0.28022 0.78017 0.22284
 H625 H 0.28533 0.74327 0.19475
 H626 H 0.30890 0.75898 0.21620
 H627 H 0.17825 0.75536 0.27189
 H628 H 0.21737 0.74207 0.30747
 H629 H 0.23951 0.71851 0.19372
 H630 H 0.26106 0.69693 0.21611
 H631 H 0.24108 0.81023 0.28510
 H632 H 0.26092 0.78694 0.30709
 H633 H 0.21886 0.69366 0.26215
 H634 H 0.19363 0.71847 0.26094
 H635 H 0.30651 0.78759 0.26131
 H636 H 0.28458 0.81066 0.24029
 O637 O 0.75769 0.31168 0.27888
 O638 O 0.78003 0.31777 0.24862
 O639 O 0.70211 0.28628 0.24790
 O640 O 0.69441 0.25875 0.22738
 O641 O 0.72614 0.25782 0.30478
 O642 O 0.75475 0.23433 0.31200
 O643 O 0.75802 0.22642 0.19628
 O644 O 0.73412 0.25507 0.18959
 O645 O 0.81231 0.25320 0.22321
 O646 O 0.81727 0.27924 0.24827
 O647 O 0.78452 0.20134 0.25180
 O648 O 0.75385 0.19546 0.27454
 O649 O 0.75740 0.20149 0.22213
 O650 O 0.73143 0.19629 0.25182
 O651 O 0.81057 0.22605 0.25140
 O652 O 0.81469 0.25433 0.27766
 O653 O 0.78749 0.25296 0.19714
 O654 O 0.76279 0.27825 0.18910
 O655 O 0.75669 0.28679 0.30476
 O656 O 0.77898 0.25662 0.31176
 O657 O 0.70133 0.25757 0.27873
 O658 O 0.69674 0.23255 0.24902
 O659 O 0.72759 0.31151 0.24964
 O660 O 0.75841 0.31669 0.22566
 Zr661 Zr 0.75626 0.29434 0.25049
 O662 O 0.77627 0.27536 0.23185
 Zr663 Zr 0.71875 0.25773 0.25032
 O664 O 0.73692 0.23747 0.23112
 Zr665 Zr 0.75510 0.25795 0.28835
 O666 O 0.77464 0.23738 0.27104
 Zr667 Zr 0.75823 0.25515 0.21285
 O668 O 0.73786 0.27583 0.22973
 Zr669 Zr 0.79427 0.25506 0.25100
 O670 O 0.77631 0.27605 0.27002
 Zr671 Zr 0.75624 0.21873 0.25061
 O672 O 0.73637 0.23746 0.26997
 O673 O 0.73606 0.27746 0.27007
 O674 O 0.77693 0.23529 0.23119
 C675 C 0.75782 0.30606 0.29842
 C676 C 0.70814 0.30565 0.24833
 C677 C 0.70684 0.25754 0.29833
 C678 C 0.75803 0.20712 0.20258
 C679 C 0.80678 0.25228 0.20365
 C680 C 0.80409 0.20681 0.25189
 H681 H 0.78549 0.28450 0.22311
 H682 H 0.78309 0.22877 0.28101
 H683 H 0.72707 0.28679 0.27884
 H684 H 0.72750 0.22892 0.22203
 H685 H 0.72476 0.26721 0.19272
 H686 H 0.70015 0.25228 0.21437
 H687 H 0.82928 0.25173 0.27251
 H688 H 0.79032 0.26638 0.30717
 H689 H 0.75411 0.29056 0.19315
 H690 H 0.74559 0.31515 0.21679
 H691 H 0.76420 0.19905 0.28571
 H692 H 0.74506 0.22313 0.30693
 H693 H 0.79089 0.31411 0.25928
 H694 H 0.81535 0.28870 0.26057
 H695 H 0.70030 0.22279 0.26073
 H696 H 0.72233 0.19848 0.23927
 C697 C 0.24276 0.06460 0.07465
 C698 C 0.23684 0.08581 0.07309
 C699 C 0.23160 0.09430 0.05340
 C700 C 0.23296 0.08192 0.03519
 C701 C 0.23976 0.06063 0.03621
 C702 C 0.24409 0.05207 0.05646
 C703 C 0.23709 0.09930 0.09141
 C704 C 0.23767 0.11122 0.10626
 C705 C 0.23864 0.12577 0.12314
 C706 C 0.23962 0.13858 0.13721
 C707 C 0.24086 0.15422 0.15368
 C708 C 0.24192 0.17566 0.14841
 C709 C 0.24292 0.19096 0.16432
 C710 C 0.24288 0.18499 0.18578
 C711 C 0.24194 0.16334 0.19090
 C712 C 0.24094 0.14809 0.17494
 H713 H 0.24694 0.05787 0.08986
 H714 H 0.22670 0.11065 0.05204
 H715 H 0.22819 0.08913 0.02043
 H716 H 0.24981 0.03607 0.05833
 H717 H 0.24188 0.18058 0.13198
 H718 H 0.24359 0.20744 0.15979
 H719 H 0.24184 0.15816 0.20723
 H720 H 0.24014 0.13152 0.17919
 C721 C 0.74714 0.56663 0.57973
 C722 C 0.75971 0.58483 0.58051
 C723 C 0.77194 0.59049 0.56296
 C724 C 0.77115 0.57840 0.54448
 C725 C 0.75803 0.56047 0.54329
 C726 C 0.74635 0.55449 0.56126
 C727 C 0.75902 0.59849 0.59872
 C728 C 0.75812 0.61049 0.61351
 C729 C 0.75677 0.62512 0.63032
 C730 C 0.75546 0.63807 0.64425
 C731 C 0.75376 0.65403 0.66040
 C732 C 0.75253 0.67533 0.65461
 C733 C 0.75087 0.69097 0.67011
 C734 C 0.75040 0.68554 0.69172
 C735 C 0.75159 0.66404 0.69738
 C736 C 0.75325 0.64841 0.68181
 H737 H 0.73752 0.56216 0.59319
 H738 H 0.78173 0.60454 0.56338
 H739 H 0.78053 0.58325 0.53100
 H740 H 0.73593 0.54091 0.56075
 H741 H 0.75288 0.67986 0.63808
 H742 H 0.74999 0.70732 0.66513
 H743 H 0.75127 0.65927 0.71384
 H744 H 0.75416 0.63197 0.68648
 C745 C 0.73500 0.92819 0.06359
 C746 C 0.74464 0.92569 0.08335
 C747 C 0.75632 0.94226 0.09198
 C748 C 0.75846 0.96127 0.08102
 C749 C 0.74889 0.96427 0.06098
 C750 C 0.73710 0.94723 0.05247
 C751 C 0.74278 0.90624 0.09504
 C752 C 0.74186 0.89050 0.10574
 C753 C 0.74142 0.87274 0.11925
 C754 C 0.74149 0.85820 0.13159
 C755 C 0.74200 0.84165 0.14722
 C756 C 0.74197 0.84700 0.16868
 C757 C 0.74313 0.83126 0.18410
 C758 C 0.74436 0.80982 0.17831
 C759 C 0.74425 0.80455 0.15665
 C760 C 0.74310 0.82039 0.14121
 H761 H 0.72575 0.91546 0.05682
 H762 H 0.76404 0.94044 0.10720
 H763 H 0.76850 0.97317 0.08807
 H764 H 0.72875 0.94862 0.03761
 H765 H 0.74118 0.86341 0.17351
 H766 H 0.74315 0.83594 0.20058
 H767 H 0.74519 0.78823 0.15163
 H768 H 0.74322 0.81608 0.12463
 C769 C 0.27025 0.44577 0.59108
 C770 C 0.25964 0.42734 0.58503
 C771 C 0.24853 0.42680 0.56588
 C772 C 0.24751 0.44482 0.55311
 C773 C 0.25753 0.46363 0.55942
 C774 C 0.26924 0.46380 0.57836
 C775 C 0.25910 0.40948 0.59909
 C776 C 0.25823 0.39483 0.61124
 C777 C 0.25688 0.37800 0.62581
 C778 C 0.25558 0.36384 0.63848
 C779 C 0.25402 0.34711 0.65381
 C780 C 0.25378 0.32602 0.64723
 C781 C 0.25263 0.30977 0.66217
 C782 C 0.25170 0.31442 0.68394
 C783 C 0.25173 0.33571 0.69036
 C784 C 0.25288 0.35192 0.67538
 H785 H 0.27891 0.44635 0.60587
 H786 H 0.24018 0.41264 0.56109
 H787 H 0.23819 0.44429 0.53874
 H788 H 0.27733 0.47798 0.58349
 H789 H 0.25464 0.32213 0.63056
 H790 H 0.25268 0.29358 0.65664
 H791 H 0.25107 0.33988 0.70696
 H792 H 0.25303 0.36821 0.68064
 C793 C 0.76599 0.06456 0.91770
 C794 C 0.74972 0.07902 0.92154
 C795 C 0.73557 0.07550 0.93824
 C796 C 0.73752 0.05735 0.95082
 C797 C 0.75355 0.04250 0.94667
 C798 C 0.76792 0.04647 0.93015
 C799 C 0.74737 0.09692 0.90767
 C800 C 0.74604 0.11134 0.89526
 C801 C 0.74513 0.12762 0.88002
 C802 C 0.74481 0.14111 0.86654
 C803 C 0.74489 0.15680 0.85004
 C804 C 0.74491 0.17831 0.85511
 C805 C 0.74563 0.19349 0.83903
 C806 C 0.74638 0.18735 0.81762
 C807 C 0.74624 0.16566 0.81272
 C808 C 0.74551 0.15052 0.82882
 H809 H 0.77706 0.06714 0.90486
 H810 H 0.72288 0.08658 0.94132
 H811 H 0.72617 0.05462 0.96335
 H812 H 0.78061 0.03548 0.92680
 H813 H 0.74451 0.18335 0.87148
 H814 H 0.74573 0.21003 0.84341
 H815 H 0.74680 0.16033 0.79645
 H816 H 0.74556 0.13391 0.82472
 C817 C 0.26759 0.57367 0.43477
 C818 C 0.25374 0.57586 0.41759
 C819 C 0.23916 0.55988 0.41308
 C820 C 0.23856 0.54165 0.42546
 C821 C 0.25260 0.53909 0.44254
 C822 C 0.26699 0.55538 0.44724
 C823 C 0.25463 0.59411 0.40406
 C824 C 0.25488 0.60885 0.39200
 C825 C 0.25472 0.62554 0.37722
 C826 C 0.25430 0.63938 0.36414
 C827 C 0.25360 0.65552 0.34813
 C828 C 0.25331 0.64983 0.32674
 C829 C 0.25259 0.66541 0.31108
 C830 C 0.25214 0.68694 0.31662
 C831 C 0.25235 0.69247 0.33821
 C832 C 0.25307 0.67685 0.35384
 H833 H 0.27898 0.58594 0.43835
 H834 H 0.22833 0.56144 0.39987
 H835 H 0.22708 0.52953 0.42168
 H836 H 0.27807 0.55375 0.46022
 H837 H 0.25367 0.63334 0.32216
 H838 H 0.25248 0.66056 0.29465
 H839 H 0.25206 0.70887 0.34306
 H840 H 0.25326 0.68142 0.37035
 C841 C 0.22391 0.91457 0.94135
 C842 C 0.23704 0.91990 0.92435
 C843 C 0.24935 0.93824 0.92528
 C844 C 0.24905 0.95087 0.94341
 C845 C 0.23650 0.94521 0.96090
 C846 C 0.22360 0.92715 0.95951
 C847 C 0.23893 0.90577 0.90664
 C848 C 0.24087 0.89347 0.89223
 C849 C 0.24339 0.87863 0.87580
 C850 C 0.24559 0.86564 0.86206
 C851 C 0.24811 0.84982 0.84593
 C852 C 0.24878 0.85565 0.82459
 C853 C 0.25055 0.84018 0.80891
 C854 C 0.25165 0.81863 0.81440
 C855 C 0.25129 0.81299 0.83594
 C856 C 0.24952 0.82849 0.85157
 H857 H 0.21431 0.90040 0.94080
 H858 H 0.25964 0.94245 0.91224
 H859 H 0.25933 0.96454 0.94412
 H860 H 0.21359 0.92255 0.97262
 H861 H 0.24770 0.87212 0.82005
 H862 H 0.25074 0.84511 0.79251
 H863 H 0.25206 0.79659 0.84075
 H864 H 0.24902 0.82382 0.86806
 C865 C 0.73853 0.41939 0.43972
 C866 C 0.75539 0.42323 0.42594
 C867 C 0.76999 0.43922 0.43057
 C868 C 0.76785 0.45115 0.44912
 C869 C 0.75114 0.44707 0.46324
 C870 C 0.73640 0.43122 0.45821
 C871 C 0.75783 0.41011 0.40753
 C872 C 0.75923 0.39835 0.39262
 C873 C 0.76021 0.38379 0.37576
 C874 C 0.76057 0.37078 0.36186
 C875 C 0.76051 0.35467 0.34581
 C876 C 0.76022 0.36012 0.32436
 C877 C 0.75948 0.34434 0.30890
 C878 C 0.75898 0.32286 0.31473
 C879 C 0.75941 0.31758 0.33637
 C880 C 0.76016 0.33338 0.35176
 H881 H 0.72712 0.40709 0.43628
 H882 H 0.78315 0.44227 0.42003
 H883 H 0.77952 0.46316 0.45267
 H884 H 0.72319 0.42795 0.46863
 H885 H 0.76041 0.37656 0.31959
 H886 H 0.75915 0.34898 0.29241
 H887 H 0.75906 0.30125 0.34145
 H888 H 0.76032 0.32899 0.36833
 C889 C 0.06437 0.26419 0.06892
 C890 C 0.08425 0.25473 0.07077
 C891 C 0.09238 0.24304 0.05392
 C892 C 0.08069 0.24061 0.03536
 C893 C 0.06040 0.24985 0.03311
 C894 C 0.05253 0.26180 0.05034
 C895 C 0.09645 0.25661 0.08991
 C896 C 0.10736 0.25755 0.10553
 C897 C 0.12093 0.25798 0.12327
 C898 C 0.13319 0.25788 0.13788
 C899 C 0.14861 0.25729 0.15464
 C900 C 0.17014 0.25771 0.14957
 C901 C 0.18536 0.25634 0.16553
 C902 C 0.17928 0.25451 0.18688
 C903 C 0.15755 0.25428 0.19186
 C904 C 0.14233 0.25563 0.17581
 H905 H 0.05799 0.27346 0.08184
 H906 H 0.10771 0.23548 0.05525
 H907 H 0.08736 0.23052 0.02328
 H908 H 0.03756 0.27001 0.04945
 H909 H 0.17518 0.25892 0.13323
 H910 H 0.20190 0.25660 0.16108
 H911 H 0.15231 0.25286 0.20810
 H912 H 0.12569 0.25521 0.17989
 C913 C 0.56513 0.74602 0.57638
 C914 C 0.58417 0.75730 0.57674
 C915 C 0.59116 0.76767 0.55848
 C916 C 0.57941 0.76640 0.53978
 C917 C 0.56050 0.75469 0.53911
 C918 C 0.55334 0.74475 0.55770
 C919 C 0.59715 0.75729 0.59545
 C920 C 0.60855 0.75694 0.61073
 C921 C 0.62253 0.75623 0.62813
 C922 C 0.63503 0.75544 0.64251
 C923 C 0.65066 0.75437 0.65904
 C924 C 0.67210 0.75369 0.65368
 C925 C 0.68750 0.75263 0.66948
 C926 C 0.68168 0.75223 0.69098
 C927 C 0.66003 0.75285 0.69624
 C928 C 0.64463 0.75392 0.68034
 H929 H 0.55964 0.73783 0.59039
 H930 H 0.60588 0.77644 0.55859
 H931 H 0.58517 0.77445 0.52581
 H932 H 0.53898 0.73542 0.55760
 H933 H 0.67694 0.75400 0.63723
 H934 H 0.70397 0.75217 0.66481
 H935 H 0.65499 0.75257 0.71260
 H936 H 0.62805 0.75440 0.68466
 C937 C 0.05876 0.73119 0.91026
 C938 C 0.07738 0.74119 0.91681
 C939 C 0.07795 0.75174 0.93627
 C940 C 0.05976 0.75284 0.94883
 C941 C 0.04077 0.74349 0.94197
 C942 C 0.04058 0.73230 0.92276
 C943 C 0.09536 0.74171 0.90287
 C944 C 0.10993 0.74250 0.89059
 C945 C 0.12645 0.74373 0.87564
 C946 C 0.14018 0.74498 0.86247
 C947 C 0.15619 0.74661 0.84636
 C948 C 0.17761 0.74734 0.85191
 C949 C 0.19308 0.74902 0.83619
 C950 C 0.18732 0.75000 0.81467
 C951 C 0.16571 0.74930 0.80930
 C952 C 0.15028 0.74762 0.82505
 H953 H 0.05814 0.72296 0.89525
 H954 H 0.09227 0.75961 0.94145
 H955 H 0.06030 0.76168 0.96348
 H956 H 0.02626 0.72469 0.91723
 H957 H 0.18235 0.74661 0.86837
 H958 H 0.20955 0.74953 0.84092
 H959 H 0.16067 0.75002 0.79294
 H960 H 0.13374 0.74710 0.82058
 C961 C 0.55790 0.27198 0.40702
 C962 C 0.57632 0.26128 0.41306
 C963 C 0.57659 0.24955 0.43184
 C964 C 0.55836 0.24812 0.44428
 C965 C 0.53959 0.25834 0.43803
 C966 C 0.53966 0.27055 0.41942
 C967 C 0.59451 0.26143 0.39938
 C968 C 0.60941 0.26123 0.38749
 C969 C 0.62647 0.26071 0.37311
 C970 C 0.64073 0.26011 0.36047
 C971 C 0.65740 0.25929 0.34499
 C972 C 0.67861 0.25903 0.35135
 C973 C 0.69472 0.25830 0.33621
 C974 C 0.68981 0.25782 0.31447
 C975 C 0.66840 0.25800 0.30828
 C976 C 0.65235 0.25873 0.32345
 H977 H 0.55753 0.28111 0.39252
 H978 H 0.59073 0.24113 0.43661
 H979 H 0.55872 0.23843 0.45840
 H980 H 0.52554 0.27882 0.41434
 H981 H 0.68269 0.25945 0.36799
 H982 H 0.71101 0.25822 0.34154
 H983 H 0.66401 0.25767 0.29172
 H984 H 0.63597 0.25890 0.31835
 C985 C 0.92398 0.74045 0.05769
 C986 C 0.92404 0.73155 0.07793
 C987 C 0.94278 0.72336 0.08625
 C988 C 0.96160 0.72476 0.07480
 C989 C 0.96217 0.73457 0.05468
 C990 C 0.94278 0.74183 0.04609
 C991 C 0.90534 0.73210 0.09089
 C992 C 0.89027 0.73298 0.10252
 C993 C 0.87331 0.73441 0.11694
 C994 C 0.85937 0.73585 0.12985
 C995 C 0.84334 0.73775 0.14589
 C996 C 0.84930 0.73909 0.16716
 C997 C 0.83393 0.74096 0.18291
 C998 C 0.81230 0.74154 0.17760
 C999 C 0.80646 0.74025 0.15612
 C1000 C 0.82190 0.73837 0.14038
 H1001 H 0.90954 0.74696 0.05114
 H1002 H 0.94296 0.71622 0.10184
 H1003 H 0.97560 0.71784 0.08180
 H1004 H 0.94214 0.74992 0.03103
 H1005 H 0.86586 0.73866 0.17159
 H1006 H 0.83902 0.74192 0.19925
 H1007 H 0.78998 0.74064 0.15146
 H1008 H 0.81712 0.73739 0.12395
 C1009 C 0.42697 0.24930 0.56084
 C1010 C 0.42760 0.26069 0.57980
 C1011 C 0.44597 0.27165 0.58547
 C1012 C 0.46390 0.27062 0.57261
 C1013 C 0.46369 0.25856 0.55393
 C1014 C 0.44490 0.24828 0.54792
 C1015 C 0.41003 0.25995 0.59422
 C1016 C 0.39575 0.25889 0.60678
 C1017 C 0.37946 0.25729 0.62192
 C1018 C 0.36579 0.25573 0.63510
 C1019 C 0.34964 0.25377 0.65100
 C1020 C 0.35523 0.25274 0.67240
 C1021 C 0.33955 0.25101 0.68790
 C1022 C 0.31804 0.25028 0.68216
 C1023 C 0.31263 0.25118 0.66055
 C1024 C 0.32833 0.25292 0.64510
 H1025 H 0.41285 0.24069 0.55636
 H1026 H 0.44662 0.28052 0.60012
 H1027 H 0.47808 0.27891 0.57749
 H1028 H 0.44436 0.23872 0.53373
 H1029 H 0.37170 0.25337 0.67712
 H1030 H 0.34430 0.25039 0.70435
 H1031 H 0.29625 0.25070 0.65554
 H1032 H 0.32385 0.25368 0.62857
 C1033 C 0.93559 0.26023 0.92714
 C1034 C 0.91571 0.25056 0.92661
 C1035 C 0.90912 0.23821 0.94364
 C1036 C 0.92213 0.23567 0.96127
 C1037 C 0.94221 0.24553 0.96242
 C1038 C 0.94878 0.25771 0.94481
 C1039 C 0.90177 0.25314 0.90877
 C1040 C 0.88936 0.25470 0.89437
 C1041 C 0.87420 0.25587 0.87801
 C1042 C 0.86091 0.25640 0.86432
 C1043 C 0.84484 0.25651 0.84818
 C1044 C 0.82342 0.25626 0.85381
 C1045 C 0.80779 0.25554 0.83816
 C1046 C 0.81339 0.25502 0.81661
 C1047 C 0.83499 0.25548 0.81114
 C1048 C 0.85058 0.25620 0.82682
 H1049 H 0.94082 0.26992 0.91402
 H1050 H 0.89387 0.23039 0.94328
 H1051 H 0.91654 0.22523 0.97361
 H1052 H 0.96363 0.26616 0.94483
 H1053 H 0.81881 0.25643 0.87032
 H1054 H 0.79135 0.25520 0.84295
 H1055 H 0.83991 0.25510 0.79473
 H1056 H 0.86710 0.25632 0.82228
 C1057 C 0.43958 0.75073 0.42387
 C1058 C 0.42109 0.76291 0.42442
 C1059 C 0.41568 0.77383 0.44287
 C1060 C 0.42825 0.77199 0.46095
 C1061 C 0.44640 0.75913 0.46082
 C1062 C 0.45221 0.74889 0.44195
 C1063 C 0.40680 0.76292 0.40672
 C1064 C 0.39423 0.76247 0.39240
 C1065 C 0.37897 0.76150 0.37614
 C1066 C 0.36560 0.76041 0.36260
 C1067 C 0.34935 0.75888 0.34674
 C1068 C 0.32807 0.75808 0.35277
 C1069 C 0.31222 0.75642 0.33744
 C1070 C 0.31746 0.75553 0.31581
 C1071 C 0.33894 0.75631 0.30993
 C1072 C 0.35476 0.75798 0.32531
 H1073 H 0.44385 0.74211 0.40969
 H1074 H 0.40140 0.78330 0.44347
 H1075 H 0.42355 0.78027 0.47519
 H1076 H 0.46599 0.73873 0.44147
 H1077 H 0.32373 0.75872 0.36934
 H1078 H 0.29588 0.75585 0.34254
 H1079 H 0.34357 0.75567 0.29346
 H1080 H 0.37119 0.75854 0.32048
 C1081 C 0.05814 0.07156 0.23988
 C1082 C 0.07727 0.07319 0.25088
 C1083 C 0.08449 0.05614 0.26286
 C1084 C 0.07282 0.03748 0.26382
 C1085 C 0.05349 0.03530 0.25270
 C1086 C 0.04630 0.05287 0.24081
 C1087 C 0.08989 0.09208 0.24986
 C1088 C 0.10134 0.10731 0.24951
 C1089 C 0.11565 0.12441 0.24957
 C1090 C 0.12856 0.13842 0.24990
 C1091 C 0.14472 0.15443 0.25050
 C1092 C 0.16602 0.14843 0.25037
 C1093 C 0.18191 0.16374 0.25103
 C1094 C 0.17674 0.18536 0.25184
 C1095 C 0.15524 0.19124 0.25203
 C1096 C 0.13934 0.17586 0.25137
 H1097 H 0.05247 0.08466 0.23040
 H1098 H 0.09920 0.05730 0.27162
 H1099 H 0.07877 0.02514 0.27406
 H1100 H 0.03205 0.05212 0.23139
 H1101 H 0.17036 0.13188 0.24973
 H1102 H 0.19825 0.15859 0.25082
 H1103 H 0.15067 0.20772 0.25260
 H1104 H 0.12289 0.18067 0.25151
 C1105 C 0.56251 0.57525 0.75357
 C1106 C 0.58170 0.57426 0.76461
 C1107 C 0.58792 0.55533 0.77421
 C1108 C 0.57534 0.53729 0.77227
 C1109 C 0.55637 0.53793 0.76062
 C1110 C 0.54987 0.55721 0.75163
 C1111 C 0.59569 0.59220 0.76500
 C1112 C 0.60792 0.60681 0.76492
 C1113 C 0.62272 0.62350 0.76445
 C1114 C 0.63569 0.63744 0.76378
 C1115 C 0.65149 0.65378 0.76274
 C1116 C 0.67293 0.64837 0.76181
 C1117 C 0.68835 0.66414 0.76049
 C1118 C 0.68253 0.68560 0.76006
 C1119 C 0.66089 0.69087 0.76105
 C1120 C 0.64550 0.67506 0.76237
 H1121 H 0.55760 0.58980 0.74599
 H1122 H 0.60273 0.55439 0.78280
 H1123 H 0.58060 0.52275 0.77961
 H1124 H 0.53545 0.55812 0.74241
 H1125 H 0.67774 0.63194 0.76205
 H1126 H 0.70482 0.65948 0.75976
 H1127 H 0.65582 0.70721 0.76075
 H1128 H 0.62894 0.67942 0.76304
 C1129 C 0.92454 0.06406 0.75143
 C1130 C 0.92640 0.08493 0.75840
 C1131 C 0.94613 0.09266 0.76458
 C1132 C 0.96410 0.07991 0.76307
 C1133 C 0.96281 0.05903 0.75516
 C1134 C 0.94249 0.05116 0.74996
 C1135 C 0.90841 0.09892 0.75817
 C1136 C 0.89384 0.11122 0.75762
 C1137 C 0.87727 0.12617 0.75666
 C1138 C 0.86342 0.13926 0.75569
 C1139 C 0.84714 0.15514 0.75445
 C1140 C 0.85263 0.17654 0.75351
 C1141 C 0.83689 0.19203 0.75244
 C1142 C 0.81535 0.18633 0.75231
 C1143 C 0.81001 0.16473 0.75315
 C1144 C 0.82580 0.14928 0.75421
 H1145 H 0.90931 0.05792 0.74653
 H1146 H 0.94773 0.10872 0.77028
 H1147 H 0.97890 0.08655 0.76849
 H1148 H 0.94040 0.03553 0.74339
 H1149 H 0.86911 0.18127 0.75367
 H1150 H 0.84160 0.20847 0.75186
 H1151 H 0.79363 0.15973 0.75310
 H1152 H 0.82136 0.13276 0.75491
 C1153 C 0.43796 0.58341 0.22884
 C1154 C 0.42377 0.58142 0.24568
 C1155 C 0.42694 0.56569 0.26098
 C1156 C 0.44456 0.55232 0.25967
 C1157 C 0.45922 0.55471 0.24311
 C1158 C 0.45553 0.57017 0.22755
 C1159 C 0.40661 0.59624 0.24748
 C1160 C 0.39277 0.60930 0.24844
 C1161 C 0.37703 0.62509 0.24905
 C1162 C 0.36379 0.63879 0.24926
 C1163 C 0.34801 0.65518 0.24929
 C1164 C 0.32655 0.64984 0.24919
 C1165 C 0.31116 0.66567 0.24916
 C1166 C 0.31702 0.68715 0.24921
 C1167 C 0.33867 0.69236 0.24922
 C1168 C 0.35405 0.67645 0.24925
 H1169 H 0.43564 0.59548 0.21690
 H1170 H 0.41605 0.56405 0.27411
 H1171 H 0.44712 0.54064 0.27193
 H1172 H 0.46643 0.57216 0.21448
 H1173 H 0.32171 0.63342 0.24918
 H1174 H 0.29467 0.66103 0.24918
 H1175 H 0.34375 0.70870 0.24930
 H1176 H 0.37064 0.68075 0.24929
 C1177 C 0.07147 0.93650 0.76018
 C1178 C 0.07214 0.91687 0.75009
 C1179 C 0.05440 0.90962 0.73915
 C1180 C 0.03603 0.92180 0.73829
 C1181 C 0.03485 0.94171 0.74844
 C1182 C 0.05308 0.94885 0.75935
 C1183 C 0.09084 0.90389 0.75086
 C1184 C 0.10599 0.89231 0.75105
 C1185 C 0.12317 0.87803 0.75088
 C1186 C 0.13738 0.86533 0.75050
 C1187 C 0.15385 0.84961 0.74988
 C1188 C 0.14848 0.82820 0.74886
 C1189 C 0.16431 0.81279 0.74830
 C1190 C 0.18581 0.81858 0.74875
 C1191 C 0.19105 0.84019 0.74969
 C1192 C 0.17517 0.85559 0.75025
 H1193 H 0.08511 0.94221 0.76885
 H1194 H 0.05479 0.89452 0.73108
 H1195 H 0.02313 0.91577 0.72881
 H1196 H 0.05313 0.96353 0.76806
 H1197 H 0.13203 0.82339 0.74854
 H1198 H 0.15966 0.79634 0.74761
 H1199 H 0.20742 0.84524 0.75011
 H1200 H 0.17951 0.87212 0.75102
 C1201 C 0.55837 0.41095 0.26882
 C1202 C 0.57586 0.41756 0.25695
 C1203 C 0.57449 0.43588 0.24465
 C1204 C 0.55558 0.44730 0.24382
 C1205 C 0.53773 0.44049 0.25525
 C1206 C 0.53943 0.42234 0.26801
 C1207 C 0.59472 0.40484 0.25634
 C1208 C 0.61019 0.39375 0.25535
 C1209 C 0.62785 0.38019 0.25381
 C1210 C 0.64244 0.36802 0.25231
 C1211 C 0.65918 0.35272 0.25048
 C1212 C 0.68041 0.35878 0.25232
 C1213 C 0.69647 0.34358 0.25116
 C1214 C 0.69144 0.32211 0.24818
 C1215 C 0.67003 0.31630 0.24602
 C1216 C 0.65408 0.33150 0.24717
 H1217 H 0.55925 0.39676 0.27838
 H1218 H 0.58788 0.44106 0.23529
 H1219 H 0.55470 0.46102 0.23362
 H1220 H 0.52604 0.41685 0.27717
 H1221 H 0.68453 0.37519 0.25489
 H1222 H 0.71275 0.34859 0.25295
 H1223 H 0.66553 0.29996 0.24371
 H1224 H 0.63770 0.32664 0.24569
 C1225 C 0.93472 0.92130 0.24672
 C1226 C 0.91411 0.92238 0.23876
 C1227 C 0.90607 0.94173 0.23187
 C1228 C 0.91820 0.96008 0.23361
 C1229 C 0.93877 0.95957 0.24248
 C1230 C 0.94701 0.93963 0.24845
 C1231 C 0.90066 0.90401 0.23869
 C1232 C 0.88871 0.88915 0.23897
 C1233 C 0.87407 0.87230 0.23959
 C1234 C 0.86112 0.85832 0.24027
 C1235 C 0.84520 0.84206 0.24116
 C1236 C 0.82377 0.84762 0.24139
 C1237 C 0.80819 0.83196 0.24218
 C1238 C 0.81382 0.81045 0.24278
 C1239 C 0.83544 0.80502 0.24264
 C1240 C 0.85100 0.82073 0.24184
 H1241 H 0.94110 0.90637 0.25221
 H1242 H 0.89021 0.94273 0.22540
 H1243 H 0.91137 0.97455 0.22761
 H1244 H 0.96240 0.93813 0.25578
 H1245 H 0.81909 0.86408 0.24089
 H1246 H 0.79174 0.83675 0.24224
 H1247 H 0.84037 0.78865 0.24304
 H1248 H 0.86754 0.81624 0.24169
 C1249 C 0.43473 0.42435 0.75149
 C1250 C 0.41638 0.42403 0.76388
 C1251 C 0.41086 0.44180 0.77581
 C1252 C 0.42325 0.46005 0.77488
 C1253 C 0.44134 0.46078 0.76193
 C1254 C 0.44718 0.44260 0.75056
 C1255 C 0.40246 0.40604 0.76333
 C1256 C 0.39030 0.39139 0.76250
 C1257 C 0.37558 0.37467 0.76116
 C1258 C 0.36269 0.36071 0.75977
 C1259 C 0.34699 0.34434 0.75789
 C1260 C 0.32554 0.34969 0.75670
 C1261 C 0.31022 0.33391 0.75459
 C1262 C 0.31615 0.31249 0.75363
 C1263 C 0.33779 0.30729 0.75488
 C1264 C 0.35308 0.32311 0.75699
 H1265 H 0.43910 0.41071 0.74211
 H1266 H 0.39669 0.44173 0.78546
 H1267 H 0.41851 0.47372 0.78402
 H1268 H 0.46089 0.44276 0.74029
 H1269 H 0.32065 0.36609 0.75735
 H1270 H 0.29374 0.33852 0.75368
 H1271 H 0.34295 0.29099 0.75418
 H1272 H 0.36965 0.31880 0.75785
 C1273 C 0.06344 0.24190 0.91926
 C1274 C 0.08240 0.23043 0.91935
 C1275 C 0.08875 0.21986 0.93773
 C1276 C 0.07665 0.22135 0.95616
 C1277 C 0.05802 0.23351 0.95647
 C1278 C 0.05126 0.24338 0.93769
 C1279 C 0.09619 0.23071 0.90122
 C1280 C 0.10843 0.23130 0.88660
 C1281 C 0.12344 0.23235 0.87009
 C1282 C 0.13670 0.23349 0.85643
 C1283 C 0.15299 0.23510 0.84057
 C1284 C 0.17427 0.23541 0.84667
 C1285 C 0.19019 0.23735 0.83145
 C1286 C 0.18504 0.23904 0.80983
 C1287 C 0.16356 0.23862 0.80386
 C1288 C 0.14766 0.23668 0.81914
 H1289 H 0.05842 0.25023 0.90514
 H1290 H 0.10338 0.21094 0.93800
 H1291 H 0.08209 0.21338 0.97031
 H1292 H 0.03708 0.25299 0.93753
 H1293 H 0.17858 0.23422 0.86322
 H1294 H 0.20652 0.23756 0.83664
 H1295 H 0.15899 0.23982 0.78738
 H1296 H 0.13124 0.23647 0.81423
 C1297 C 0.56698 0.75004 0.42408
 C1298 C 0.58567 0.73816 0.42415
 C1299 C 0.59174 0.72734 0.44250
 C1300 C 0.57949 0.72880 0.46084
 C1301 C 0.56099 0.74117 0.46111
 C1302 C 0.55469 0.75151 0.44242
 C1303 C 0.59923 0.73798 0.40585
 C1304 C 0.61104 0.73816 0.39087
 C1305 C 0.62535 0.73869 0.37372
 C1306 C 0.63796 0.73935 0.35942
 C1307 C 0.65347 0.74031 0.34276
 C1308 C 0.67501 0.74051 0.34783
 C1309 C 0.69020 0.74162 0.33181
 C1310 C 0.68406 0.74258 0.31041
 C1311 C 0.66232 0.74234 0.30547
 C1312 C 0.64715 0.74123 0.32155
 H1313 H 0.56218 0.75856 0.41000
 H1314 H 0.60617 0.71809 0.44274
 H1315 H 0.58460 0.72044 0.47489
 H1316 H 0.54066 0.76133 0.44219
 H1317 H 0.68009 0.73981 0.36419
 H1318 H 0.70676 0.74170 0.33623
 H1319 H 0.65701 0.74300 0.28919
 H1320 H 0.63050 0.74110 0.31744
 C1321 C 0.94586 0.77139 0.91086
 C1322 C 0.92657 0.76444 0.91903
 C1323 C 0.92572 0.75612 0.93949
 C1324 C 0.94422 0.75407 0.95149
 C1325 C 0.96411 0.76008 0.94311
 C1326 C 0.96439 0.76933 0.92272
 C1327 C 0.90803 0.76458 0.90580
 C1328 C 0.89297 0.76418 0.89410
 C1329 C 0.87587 0.76322 0.87976
 C1330 C 0.86169 0.76207 0.86706
 C1331 C 0.84523 0.76041 0.85139
 C1332 C 0.82395 0.75999 0.85743
 C1333 C 0.80807 0.75812 0.84211
 C1334 C 0.81331 0.75662 0.82050
 C1335 C 0.83479 0.75709 0.81463
 C1336 C 0.85060 0.75895 0.82997
 H1337 H 0.94667 0.77809 0.89509
 H1338 H 0.91084 0.75056 0.94593
 H1339 H 0.94287 0.74642 0.96673
 H1340 H 0.97883 0.77534 0.91581
 H1341 H 0.81962 0.76108 0.87398
 H1342 H 0.79172 0.75790 0.84721
 H1343 H 0.83943 0.75603 0.79817
 H1344 H 0.86704 0.75924 0.82512
 C1345 C 0.44231 0.23149 0.40858
 C1346 C 0.42412 0.24211 0.41535
 C1347 C 0.42449 0.25350 0.43432
 C1348 C 0.44314 0.25470 0.44621
 C1349 C 0.46168 0.24458 0.43921
 C1350 C 0.46097 0.23269 0.42042
 C1351 C 0.40550 0.24223 0.40220
 C1352 C 0.39031 0.24262 0.39064
 C1353 C 0.37300 0.24332 0.37650
 C1354 C 0.35866 0.24406 0.36393
 C1355 C 0.34208 0.24501 0.34831
 C1356 C 0.32080 0.24572 0.35441
 C1357 C 0.30484 0.24661 0.33906
 C1358 C 0.30998 0.24679 0.31738
 C1359 C 0.33145 0.24616 0.31147
 C1360 C 0.34734 0.24528 0.32682
 H1361 H 0.44221 0.22261 0.39393
 H1362 H 0.41053 0.26186 0.43967
 H1363 H 0.44326 0.26415 0.46049
 H1364 H 0.47490 0.22449 0.41476
 H1365 H 0.31655 0.24556 0.37101
 H1366 H 0.28850 0.24710 0.34419
 H1367 H 0.33604 0.24631 0.29496
 H1368 H 0.36375 0.24477 0.32191
 C1369 C 0.06147 0.73358 0.08688
 C1370 C 0.07534 0.75057 0.08424
 C1371 C 0.07156 0.76548 0.06828
 C1372 C 0.05372 0.76355 0.05524
 C1373 C 0.03946 0.74674 0.05815
 C1374 C 0.04368 0.73165 0.07395
 C1375 C 0.09299 0.75283 0.09846
 C1376 C 0.10733 0.75415 0.11096
 C1377 C 0.12370 0.75511 0.12613
 C1378 C 0.13742 0.75552 0.13938
 C1379 C 0.15360 0.75558 0.15542
 C1380 C 0.17496 0.75540 0.14966
 C1381 C 0.19066 0.75485 0.16524
 C1382 C 0.18520 0.75443 0.18685
 C1383 C 0.16365 0.75475 0.19245
 C1384 C 0.14798 0.75530 0.17683
 H1385 H 0.06426 0.72192 0.09914
 H1386 H 0.08219 0.77873 0.06613
 H1387 H 0.05077 0.77547 0.04331
 H1388 H 0.03313 0.71838 0.07635
 H1389 H 0.17948 0.75557 0.13313
 H1390 H 0.20707 0.75468 0.16032
 H1391 H 0.15886 0.75451 0.20890
 H1392 H 0.13148 0.75540 0.18146
 C1393 C 0.55892 0.22912 0.58431
 C1394 C 0.57714 0.24047 0.57896
 C1395 C 0.57759 0.25236 0.56027
 C1396 C 0.55960 0.25351 0.54738
 C1397 C 0.54093 0.24291 0.55317
 C1398 C 0.54094 0.23030 0.57150
 C1399 C 0.59466 0.24108 0.59351
 C1400 C 0.60878 0.24191 0.60632
 C1401 C 0.62478 0.24314 0.62186
 C1402 C 0.63813 0.24431 0.63545
 C1403 C 0.65382 0.24576 0.65190
 C1404 C 0.67532 0.24636 0.64675
 C1405 C 0.69056 0.24763 0.66274
 C1406 C 0.68449 0.24830 0.68418
 C1407 C 0.66279 0.24782 0.68918
 C1408 C 0.64759 0.24656 0.67314
 H1409 H 0.55839 0.21986 0.59872
 H1410 H 0.59159 0.26127 0.55602
 H1411 H 0.55997 0.26348 0.53345
 H1412 H 0.52686 0.22176 0.57620
 H1413 H 0.68033 0.24580 0.63036
 H1414 H 0.70709 0.24800 0.65828
 H1415 H 0.65753 0.24835 0.70547
 H1416 H 0.63097 0.24614 0.67730
 C1417 C 0.91753 0.22024 0.06018
 C1418 C 0.92428 0.23223 0.07751
 C1419 C 0.94304 0.24390 0.07617
 C1420 C 0.95460 0.24420 0.05731
 C1421 C 0.94743 0.23292 0.03952
 C1422 C 0.92903 0.22054 0.04132
 C1423 C 0.91097 0.23391 0.09589
 C1424 C 0.89912 0.23579 0.11071
 C1425 C 0.88454 0.23839 0.12740
 C1426 C 0.87155 0.24085 0.14112
 C1427 C 0.85546 0.24392 0.15692
 C1428 C 0.86086 0.24546 0.17834
 C1429 C 0.84507 0.24840 0.19357
 C1430 C 0.82365 0.24985 0.18754
 C1431 C 0.81846 0.24836 0.16593
 C1432 C 0.83425 0.24543 0.15077
 H1433 H 0.90301 0.21117 0.06103
 H1434 H 0.94833 0.25334 0.08945
 H1435 H 0.96858 0.25403 0.05632
 H1436 H 0.92327 0.21152 0.02795
 H1437 H 0.87724 0.24433 0.18327
 H1438 H 0.84965 0.24939 0.21006
 H1439 H 0.80217 0.24932 0.16069
 H1440 H 0.82990 0.24427 0.13422
 C1441 C 0.41378 0.72972 0.55558
 C1442 C 0.41977 0.74021 0.57411
 C1443 C 0.43900 0.75117 0.57483
 C1444 C 0.45186 0.75222 0.55685
 C1445 C 0.44553 0.74241 0.53791
 C1446 C 0.42657 0.73077 0.53760
 C1447 C 0.40545 0.74091 0.59179
 C1448 C 0.39294 0.74190 0.60614
 C1449 C 0.37781 0.74342 0.62248
 C1450 C 0.36459 0.74492 0.63614
 C1451 C 0.34857 0.74686 0.65219
 C1452 C 0.35429 0.74833 0.67351
 C1453 C 0.33870 0.75020 0.68908
 C1454 C 0.31712 0.75063 0.68352
 C1455 C 0.31155 0.74920 0.66199
 C1456 C 0.32718 0.74734 0.64646
 H1457 H 0.39894 0.72118 0.55485
 H1458 H 0.44374 0.75943 0.58907
 H1459 H 0.46627 0.76145 0.55748
 H1460 H 0.42145 0.72284 0.52331
 H1461 H 0.37080 0.74799 0.67812
 H1462 H 0.34359 0.75119 0.70548
 H1463 H 0.29512 0.74942 0.65712
 H1464 H 0.32257 0.74622 0.62998
 C1465 C 0.25273 0.05927 0.92173
 C1466 C 0.26082 0.07980 0.92173
 C1467 C 0.26778 0.08882 0.94065
 C1468 C 0.26590 0.07773 0.95965
 C1469 C 0.25685 0.05730 0.96022
 C1470 C 0.25089 0.04805 0.94071
 C1471 C 0.26062 0.09232 0.90272
 C1472 C 0.25994 0.10360 0.88738
 C1473 C 0.25870 0.11770 0.87013
 C1474 C 0.25740 0.13048 0.85605
 C1475 C 0.25571 0.14658 0.84007
 C1476 C 0.25333 0.16766 0.84620
 C1477 C 0.25195 0.18356 0.83097
 C1478 C 0.25294 0.17863 0.80928
 C1479 C 0.25512 0.15732 0.80323
 C1480 C 0.25651 0.14140 0.81855
 H1481 H 0.24717 0.05218 0.90715
 H1482 H 0.27430 0.10465 0.94079
 H1483 H 0.27192 0.08527 0.97378
 H1484 H 0.24339 0.03270 0.94003
 H1485 H 0.25264 0.17183 0.86282
 H1486 H 0.25022 0.19975 0.83624
 H1487 H 0.25594 0.15295 0.78668
 H1488 H 0.25832 0.12511 0.81364
 C1489 C 0.76183 0.59036 0.44231
 C1490 C 0.74636 0.58596 0.42711
 C1491 C 0.73175 0.56971 0.43069
 C1492 C 0.73261 0.55794 0.44945
 C1493 C 0.74807 0.56235 0.46486
 C1494 C 0.76270 0.57866 0.46103
 C1495 C 0.74544 0.59847 0.40809
 C1496 C 0.74512 0.60951 0.39254
 C1497 C 0.74517 0.62311 0.37481
 C1498 C 0.74547 0.63530 0.36015
 C1499 C 0.74607 0.65059 0.34327
 C1500 C 0.74644 0.64414 0.32208
 C1501 C 0.74722 0.65920 0.30586
 C1502 C 0.74767 0.68093 0.31066
 C1503 C 0.74728 0.68717 0.33204
 C1504 C 0.74649 0.67212 0.34817
 H1505 H 0.77323 0.60287 0.43971
 H1506 H 0.71964 0.56623 0.41907
 H1507 H 0.72100 0.54563 0.45204
 H1508 H 0.77499 0.58222 0.47244
 H1509 H 0.74613 0.62750 0.31811
 H1510 H 0.74744 0.65383 0.28960
 H1511 H 0.74753 0.70372 0.33637
 H1512 H 0.74623 0.67730 0.36451
 C1513 C 0.77217 0.05836 0.09535
 C1514 C 0.76606 0.07779 0.08689
 C1515 C 0.75928 0.07897 0.06586
 C1516 C 0.75799 0.06065 0.05352
 C1517 C 0.76320 0.04065 0.06210
 C1518 C 0.77084 0.04003 0.08316
 C1519 C 0.76577 0.09619 0.10029
 C1520 C 0.76519 0.11106 0.11219
 C1521 C 0.76420 0.12794 0.12675
 C1522 C 0.76318 0.14197 0.13961
 C1523 C 0.76182 0.15837 0.15534
 C1524 C 0.76180 0.17963 0.14930
 C1525 C 0.76045 0.19550 0.16463
 C1526 C 0.75908 0.19030 0.18627
 C1527 C 0.75909 0.16884 0.19215
 C1528 C 0.76044 0.15302 0.17678
 H1529 H 0.77770 0.05729 0.11155
 H1530 H 0.75442 0.09396 0.05917
 H1531 H 0.75162 0.06220 0.03771
 H1532 H 0.77621 0.02546 0.09033
 H1533 H 0.76286 0.18396 0.13274
 H1534 H 0.76056 0.21183 0.15952
 H1535 H 0.75812 0.16424 0.20862
 H1536 H 0.76044 0.13660 0.18164
 C1537 C 0.22937 0.55996 0.58859
 C1538 C 0.24036 0.57805 0.58219
 C1539 C 0.25173 0.57789 0.56319
 C1540 C 0.25267 0.55949 0.55099
 C1541 C 0.24234 0.54099 0.55774
 C1542 C 0.23032 0.54155 0.57645
 C1543 C 0.24119 0.59616 0.59590
 C1544 C 0.24229 0.61086 0.60796
 C1545 C 0.24392 0.62756 0.62264
 C1546 C 0.24547 0.64143 0.63561
 C1547 C 0.24735 0.65756 0.65153
 C1548 C 0.24778 0.67891 0.64581
 C1549 C 0.24931 0.69451 0.66140
 C1550 C 0.25042 0.68894 0.68295
 C1551 C 0.25019 0.66739 0.68848
 C1552 C 0.24866 0.65185 0.67287
 H1553 H 0.22052 0.55991 0.60327
 H1554 H 0.26038 0.59177 0.55814
 H1555 H 0.26223 0.55945 0.53677
 H1556 H 0.22199 0.52763 0.58189
 H1557 H 0.24682 0.68351 0.62932
 H1558 H 0.24948 0.71092 0.65656
 H1559 H 0.25105 0.66250 0.70488
 H1560 H 0.24838 0.63536 0.67747
 C1561 C 0.75226 0.92834 0.94041
 C1562 C 0.76408 0.92795 0.92169
 C1563 C 0.77629 0.94550 0.91602
 C1564 C 0.77613 0.96363 0.92862
 C1565 C 0.76369 0.96446 0.94706
 C1566 C 0.75210 0.94646 0.95306
 C1567 C 0.76260 0.91020 0.90756
 C1568 C 0.76097 0.89575 0.89524
 C1569 C 0.75876 0.87927 0.88038
 C1570 C 0.75672 0.86547 0.86741
 C1571 C 0.75423 0.84925 0.85166
 C1572 C 0.75255 0.85474 0.83027
 C1573 C 0.75039 0.83903 0.81488
 C1574 C 0.74986 0.81756 0.82069
 C1575 C 0.75141 0.81223 0.84228
 C1576 C 0.75358 0.82798 0.85763
 H1577 H 0.74267 0.91487 0.94490
 H1578 H 0.78550 0.94537 0.90158
 H1579 H 0.78542 0.97715 0.92375
 H1580 H 0.74220 0.94672 0.96704
 H1581 H 0.75303 0.87116 0.82547
 H1582 H 0.74930 0.84372 0.79844
 H1583 H 0.75115 0.79589 0.84734
 H1584 H 0.75487 0.82355 0.87415
 C1585 C 0.23301 0.42600 0.43756
 C1586 C 0.24703 0.42299 0.42067
 C1587 C 0.26196 0.43855 0.41584
 C1588 C 0.26269 0.45719 0.42756
 C1589 C 0.24845 0.46060 0.44429
 C1590 C 0.23375 0.44470 0.44939
 C1591 C 0.24580 0.40446 0.40757
 C1592 C 0.24523 0.38955 0.39574
 C1593 C 0.24499 0.37278 0.38106
 C1594 C 0.24504 0.35898 0.36793
 C1595 C 0.24527 0.34310 0.35167
 C1596 C 0.24579 0.34920 0.33040
 C1597 C 0.24604 0.33394 0.31445
 C1598 C 0.24577 0.31229 0.31956
 C1599 C 0.24535 0.30632 0.34103
 C1600 C 0.24511 0.32164 0.35697
 H1601 H 0.22133 0.41407 0.44137
 H1602 H 0.27290 0.43638 0.40283
 H1603 H 0.27439 0.46902 0.42350
 H1604 H 0.22252 0.44698 0.46211
 H1605 H 0.24597 0.36578 0.32613
 H1606 H 0.24637 0.33913 0.29812
 H1607 H 0.24516 0.28982 0.34555
 H1608 H 0.24476 0.31675 0.37339
 C1609 C 0.26065 0.93625 0.07294
 C1610 C 0.24596 0.91999 0.07620
 C1611 C 0.22995 0.91649 0.06134
 C1612 C 0.22882 0.92885 0.04310
 C1613 C 0.24374 0.94491 0.03941
 C1614 C 0.25951 0.94871 0.05465
 C1615 C 0.24759 0.90620 0.09422
 C1616 C 0.24851 0.89394 0.10878
 C1617 C 0.24915 0.87892 0.12526
 C1618 C 0.24943 0.86568 0.13897
 C1619 C 0.24957 0.84951 0.15498
 C1620 C 0.24938 0.82821 0.14910
 C1621 C 0.24940 0.81242 0.16457
 C1622 C 0.24962 0.81775 0.18619
 C1623 C 0.24975 0.83926 0.19192
 C1624 C 0.24972 0.85501 0.17641
 H1625 H 0.27315 0.93904 0.08433
 H1626 H 0.21848 0.90399 0.06371
 H1627 H 0.21633 0.92577 0.03178
 H1628 H 0.27129 0.96088 0.05213
 H1629 H 0.24920 0.82378 0.13254
 H1630 H 0.24926 0.79606 0.15958
 H1631 H 0.24990 0.84396 0.20839
 H1632 H 0.24982 0.87146 0.18113
 C1633 C 0.74831 0.43749 0.57682
 C1634 C 0.73562 0.41937 0.57618
 C1635 C 0.72331 0.41520 0.55826
 C1636 C 0.72432 0.42859 0.54072
 C1637 C 0.73774 0.44633 0.54084
 C1638 C 0.74932 0.45095 0.55928
 C1639 C 0.73636 0.40423 0.59318
 C1640 C 0.73737 0.39108 0.60696
 C1641 C 0.73889 0.37537 0.62275
 C1642 C 0.74038 0.36185 0.63612
 C1643 C 0.74229 0.34578 0.65214
 C1644 C 0.74313 0.32441 0.64649
 C1645 C 0.74495 0.30884 0.66212
 C1646 C 0.74597 0.31448 0.68365
 C1647 C 0.74518 0.33605 0.68910
 C1648 C 0.74336 0.35154 0.67346
 H1649 H 0.75797 0.44083 0.59059
 H1650 H 0.71341 0.40124 0.55760
 H1651 H 0.71505 0.42479 0.52682
 H1652 H 0.75994 0.46437 0.55974
 H1653 H 0.74232 0.31978 0.63001
 H1654 H 0.74544 0.29242 0.65735
 H1655 H 0.74585 0.34101 0.70548
 H1656 H 0.74273 0.36803 0.67802
 C1657 C 0.05880 0.08633 0.72462
 C1658 C 0.07701 0.07949 0.73519
 C1659 C 0.07665 0.06058 0.74667
 C1660 C 0.05793 0.04890 0.74814
 C1661 C 0.03933 0.05610 0.73824
 C1662 C 0.04007 0.07471 0.72610
 C1663 C 0.09549 0.09274 0.73553
 C1664 C 0.11045 0.10451 0.73626
 C1665 C 0.12736 0.11900 0.73751
 C1666 C 0.14128 0.13193 0.73879
 C1667 C 0.15731 0.14797 0.74045
 C1668 C 0.17878 0.14258 0.74007
 C1669 C 0.19421 0.15835 0.74156
 C1670 C 0.18834 0.17974 0.74343
 C1671 C 0.16668 0.18492 0.74394
 C1672 C 0.15131 0.16914 0.74246
 H1673 H 0.05891 0.10095 0.71570
 H1674 H 0.09063 0.05521 0.75501
 H1675 H 0.05775 0.03472 0.75774
 H1676 H 0.02607 0.08046 0.71808
 H1677 H 0.18358 0.12622 0.73857
 H1678 H 0.21072 0.15379 0.74113
 H1679 H 0.16155 0.20118 0.74540
 H1680 H 0.13473 0.17348 0.74281
 C1681 C 0.55723 0.58238 0.22060
 C1682 C 0.57429 0.57720 0.23373
 C1683 C 0.57328 0.55919 0.24653
 C1684 C 0.55497 0.54681 0.24677
 C1685 C 0.53740 0.55238 0.23426
 C1686 C 0.53890 0.57005 0.22083
 C1687 C 0.59212 0.59125 0.23520
 C1688 C 0.60657 0.60355 0.23681
 C1689 C 0.62300 0.61846 0.23898
 C1690 C 0.63669 0.63156 0.24088
 C1691 C 0.65270 0.64756 0.24305
 C1692 C 0.67412 0.64201 0.24313
 C1693 C 0.68965 0.65767 0.24455
 C1694 C 0.68393 0.67914 0.24586
 C1695 C 0.66231 0.68450 0.24612
 C1696 C 0.64683 0.66881 0.24471
 H1697 H 0.55785 0.59630 0.21062
 H1698 H 0.58636 0.55511 0.25684
 H1699 H 0.55418 0.53345 0.25745
 H1700 H 0.52572 0.57457 0.21085
 H1701 H 0.67883 0.62560 0.24188
 H1702 H 0.70612 0.65296 0.24432
 H1703 H 0.65732 0.70083 0.24714
 H1704 H 0.63028 0.67327 0.24469
 C1705 C 0.08344 0.93922 0.27689
 C1706 C 0.07903 0.92204 0.26370
 C1707 C 0.06099 0.92234 0.25083
 C1708 C 0.04786 0.94013 0.25053
 C1709 C 0.05278 0.95787 0.26299
 C1710 C 0.07040 0.95701 0.27658
 C1711 C 0.09398 0.90498 0.26218
 C1712 C 0.10710 0.89127 0.26060
 C1713 C 0.12293 0.87571 0.25854
 C1714 C 0.13669 0.86267 0.25673
 C1715 C 0.15320 0.84717 0.25464
 C1716 C 0.14803 0.82580 0.25263
 C1717 C 0.16402 0.81065 0.25113
 C1718 C 0.18548 0.81668 0.25165
 C1719 C 0.19051 0.83827 0.25339
 C1720 C 0.17445 0.85340 0.25489
 H1721 H 0.09736 0.93915 0.28691
 H1722 H 0.05748 0.90915 0.24050
 H1723 H 0.03451 0.94046 0.23979
 H1724 H 0.07441 0.97037 0.28650
 H1725 H 0.13163 0.82082 0.25238
 H1726 H 0.15954 0.79420 0.24975
 H1727 H 0.20682 0.84348 0.25384
 H1728 H 0.17861 0.86993 0.25642
 C1729 C 0.56199 0.42415 0.74995
 C1730 C 0.58059 0.42482 0.73794
 C1731 C 0.58622 0.44346 0.72745
 C1732 C 0.57374 0.46156 0.72953
 C1733 C 0.55545 0.46127 0.74221
 C1734 C 0.54945 0.44224 0.75203
 C1735 C 0.59471 0.40697 0.73761
 C1736 C 0.60709 0.39248 0.73780
 C1737 C 0.62212 0.37598 0.73850
 C1738 C 0.63531 0.36225 0.73941
 C1739 C 0.65143 0.34622 0.74082
 C1740 C 0.67275 0.35207 0.74183
 C1741 C 0.68848 0.33664 0.74360
 C1742 C 0.68309 0.31508 0.74441
 C1743 C 0.66158 0.30935 0.74328
 C1744 C 0.64588 0.32484 0.74152
 H1745 H 0.55753 0.40983 0.75822
 H1746 H 0.60058 0.44417 0.71812
 H1747 H 0.57860 0.47590 0.72157
 H1748 H 0.53558 0.44161 0.76205
 H1749 H 0.67723 0.36859 0.74132
 H1750 H 0.70485 0.34164 0.74435
 H1751 H 0.65684 0.29292 0.74380
 H1752 H 0.62941 0.32013 0.74077
 C1753 C 0.93502 0.07381 0.24954
 C1754 C 0.91558 0.07416 0.26011
 C1755 C 0.90808 0.05586 0.27001
 C1756 C 0.91973 0.03712 0.26893
 C1757 C 0.93902 0.03647 0.25787
 C1758 C 0.94671 0.05509 0.24846
 C1759 C 0.90273 0.09290 0.25977
 C1760 C 0.89150 0.10826 0.25909
 C1761 C 0.87778 0.12579 0.25795
 C1762 C 0.86556 0.14034 0.25679
 C1763 C 0.85033 0.15716 0.25532
 C1764 C 0.82877 0.15230 0.25450
 C1765 C 0.81377 0.16844 0.25323
 C1766 C 0.82013 0.18975 0.25277
 C1767 C 0.84190 0.19448 0.25345
 C1768 C 0.85689 0.17826 0.25473
 H1769 H 0.94091 0.08786 0.24173
 H1770 H 0.89304 0.05596 0.27823
 H1771 H 0.91356 0.02310 0.27657
 H1772 H 0.96140 0.05500 0.23966
 H1773 H 0.82353 0.13601 0.25491
 H1774 H 0.79719 0.16418 0.25269
 H1775 H 0.84735 0.21069 0.25310
 H1776 H 0.87357 0.18218 0.25531
 C1777 C 0.43303 0.57229 0.73346
 C1778 C 0.41630 0.57597 0.74752
 C1779 C 0.41193 0.56130 0.76348
 C1780 C 0.42399 0.54292 0.76526
 C1781 C 0.44063 0.53887 0.75106
 C1782 C 0.44519 0.55385 0.73525
 C1783 C 0.40311 0.59440 0.74546
 C1784 C 0.39136 0.60937 0.74429
 C1785 C 0.37692 0.62637 0.74350
 C1786 C 0.36407 0.64046 0.74323
 C1787 C 0.34819 0.65677 0.74336
 C1788 C 0.32677 0.65124 0.74389
 C1789 C 0.31122 0.66691 0.74469
 C1790 C 0.31688 0.68842 0.74500
 C1791 C 0.33849 0.69384 0.74428
 C1792 C 0.35402 0.67810 0.74349
 H1793 H 0.43651 0.58352 0.72100
 H1794 H 0.39906 0.56400 0.77447
 H1795 H 0.42032 0.53184 0.77780
 H1796 H 0.45779 0.55108 0.72400
 H1797 H 0.32208 0.63478 0.74383
 H1798 H 0.29478 0.66213 0.74516
 H1799 H 0.34342 0.71022 0.74444
 H1800 H 0.37057 0.68257 0.74312
 C1801 C 0.93666 0.91464 0.72777
 C1802 C 0.91973 0.92065 0.74068
 C1803 C 0.92109 0.93920 0.75267
 C1804 C 0.93961 0.95130 0.75230
 C1805 C 0.95702 0.94487 0.74004
 C1806 C 0.95518 0.92667 0.72742
 C1807 C 0.90174 0.90689 0.74276
 C1808 C 0.88725 0.89468 0.74473
 C1809 C 0.87088 0.87973 0.74719
 C1810 C 0.85732 0.86652 0.74928
 C1811 C 0.84153 0.85032 0.75165
 C1812 C 0.82003 0.85558 0.75187
 C1813 C 0.80473 0.83971 0.75355
 C1814 C 0.81076 0.81833 0.75499
 C1815 C 0.83245 0.81326 0.75505
 C1816 C 0.84769 0.82916 0.75337
 H1817 H 0.93578 0.90032 0.71843
 H1818 H 0.90811 0.94394 0.76279
 H1819 H 0.94067 0.96513 0.76232
 H1820 H 0.96826 0.92148 0.71765
 H1821 H 0.81509 0.87192 0.75057
 H1822 H 0.78820 0.84421 0.75349
 H1823 H 0.83767 0.79701 0.75617
 H1824 H 0.86430 0.82492 0.75324
 C1825 C 0.44101 0.40569 0.23416
 C1826 C 0.42289 0.41234 0.24497
 C1827 C 0.42274 0.43202 0.25507
 C1828 C 0.44084 0.44475 0.25482
 C1829 C 0.45935 0.43789 0.24455
 C1830 C 0.45911 0.41836 0.23392
 C1831 C 0.40489 0.39846 0.24649
 C1832 C 0.39021 0.38637 0.24794
 C1833 C 0.37342 0.37176 0.24973
 C1834 C 0.35935 0.35898 0.25121
 C1835 C 0.34282 0.34340 0.25283
 C1836 C 0.34799 0.32192 0.25377
 C1837 C 0.33201 0.30668 0.25470
 C1838 C 0.31056 0.31271 0.25470
 C1839 C 0.30554 0.33439 0.25405
 C1840 C 0.32157 0.34960 0.25311
 H1841 H 0.44130 0.39051 0.22624
 H1842 H 0.40882 0.43730 0.26354
 H1843 H 0.44062 0.45961 0.26331
 H1844 H 0.47302 0.41279 0.22563
 H1845 H 0.36439 0.31694 0.25358
 H1846 H 0.33648 0.29017 0.25522
 H1847 H 0.28923 0.33962 0.25403
 H1848 H 0.31738 0.36618 0.25240
   
