data_POSCAR
  _audit_creation_date              2014-09-24
  _audit_creation_method            'ToBaCCo'
  _symmetry_space_group_name_H-M    'P1'
  _symmetry_Int_Tables_number       1
  _symmetry_cell_setting            triclinic
  loop_
  _symmetry_equiv_pos_as_xyz
 x,y,z
_cell_length_a 44.0037
_cell_length_b 44.0155
_cell_length_c 44.0144
_cell_angle_alpha 89.981700
_cell_angle_beta 90.001600
_cell_angle_gamma 89.998100
loop_
  _atom_site_label
  _atom_site_type_symbol
  _atom_site_fract_x
  _atom_site_fract_y
  _atom_site_fract_z
N1 N 0.35038 1.35006 0.35125
 N2 N 0.35238 0.85108 0.85128
 N3 N 0.84736 1.34580 0.84735
 N4 N 0.84993 0.85104 0.35019
 N5 N 0.64889 0.64836 0.35085
 N6 N 0.65163 0.15056 0.84900
 N7 N 1.15278 0.65156 0.84673
 N8 N 1.15309 0.15297 0.34633
 N9 N 0.65191 1.34836 0.65107
 N10 N 0.65023 0.85096 1.14997
 N11 N 1.15394 1.34726 1.15196
 N12 N 1.14934 0.85115 0.64903
 N13 N 0.34917 0.65074 0.65076
 N14 N 0.35114 0.14967 1.14961
 N15 N 0.84961 0.65045 1.15041
 N16 N 0.84866 0.15273 0.65221
 N17 N 1.34638 0.34698 0.65262
 N18 N 1.34729 0.84780 1.15228
 N19 N 0.84692 0.34451 1.15431
 N20 N 0.85168 0.85083 0.64954
 N21 N 0.65011 0.64948 0.64969
 N22 N 0.65100 1.14964 1.14968
 N23 N 0.15359 0.65191 1.15177
 N24 N 0.15003 1.15010 0.64869
 N25 N 1.34850 0.65136 0.34728
 N26 N 1.34908 1.15271 0.84796
 N27 N 0.84677 0.65174 0.84759
 N28 N 0.84456 1.15445 0.34565
 N29 N 0.65264 0.34716 0.34717
 N30 N 0.64947 0.85022 0.85142
 N31 N 0.15139 0.34898 0.84929
 N32 N 0.15367 0.84585 0.34433
 O33 O 1.10976 1.02989 1.15077
 O34 O 1.14497 1.02965 1.18643
 C35 C 1.12027 1.04001 1.17566
 C36 C 1.10397 1.06457 1.19183
 C37 C 1.11425 1.07490 1.22018
 H38 H 1.13367 1.06409 1.23079
 O39 O 0.89073 0.96962 1.15152
 O40 O 0.85530 0.96951 1.18694
 C41 C 0.88007 0.95921 1.17623
 C42 C 0.89634 0.93438 1.19215
 C43 C 0.88637 0.92384 1.22061
 H44 H 0.86672 0.93431 1.23100
 O45 O 1.03029 1.15062 1.10960
 O46 O 1.03026 1.18619 1.14487
 C47 C 1.04079 1.17529 1.12028
 C48 C 1.06601 1.19101 1.10438
 C49 C 1.07703 1.21897 1.11515
 H50 H 1.06640 1.22962 1.13464
 O51 O 0.97082 0.84825 1.10878
 O52 O 0.97097 0.81275 1.14413
 C53 C 0.96059 0.82346 1.11940
 C54 C 0.93585 0.80738 1.10320
 C55 C 0.92547 0.77904 1.11351
 H56 H 0.93638 0.76836 1.13284
 O57 O 1.15301 1.10965 1.02939
 O58 O 1.18850 1.14502 1.02942
 C59 C 1.17774 1.12031 1.03978
 C60 C 1.19355 1.10408 1.06472
 C61 C 1.22198 1.11400 1.07543
 H62 H 1.23252 1.13360 1.06499
 O63 O 0.84931 0.88951 1.02896
 O64 O 0.81377 0.85419 1.02900
 C65 C 0.82459 0.87888 1.03939
 C66 C 0.80868 0.89502 1.06430
 C67 C 0.78021 0.88490 1.07457
 H68 H 0.76938 0.86572 1.06356
 O69 O 0.97030 1.10950 1.15094
 O70 O 0.97021 1.14498 1.18630
 C71 C 0.95975 1.12031 1.17554
 C72 C 0.93450 1.10447 1.19128
 C73 C 0.92304 1.11564 1.21890
 H74 H 0.93339 1.13541 1.22933
 O75 O 1.02974 0.89018 1.15049
 O76 O 1.02999 0.85486 1.18604
 C77 C 1.04016 0.87964 1.17525
 C78 C 1.06484 0.89607 1.19119
 C79 C 1.07548 0.88595 1.21956
 H80 H 1.06520 0.86610 1.22976
 O81 O 1.15154 0.97093 1.10896
 O82 O 1.18686 0.97073 1.14452
 C83 C 1.17625 0.96057 1.11968
 C84 C 1.19243 0.93596 1.10346
 C85 C 1.22084 0.92578 1.11373
 H86 H 1.23148 0.93674 1.13305
 O87 O 0.84920 1.02865 1.10954
 O88 O 0.81350 1.02862 1.14470
 C89 C 0.82442 1.03903 1.12007
 C90 C 0.80870 1.06405 1.10394
 C91 C 0.78051 1.07487 1.11428
 H92 H 0.76965 1.06417 1.13362
 O93 O 0.89124 1.15055 1.02915
 O94 O 0.85589 1.18607 1.02900
 C95 C 0.88064 1.17538 1.03934
 C96 C 0.89688 1.19154 1.06397
 C97 C 0.88655 1.21988 1.07431
 H98 H 0.86717 1.23052 1.06345
 O99 O 1.11085 0.84876 1.02950
 O100 O 1.14639 0.81343 1.02981
 C101 C 1.12161 0.82415 1.04007
 C102 C 1.10556 0.80831 1.06509
 C103 C 1.11623 0.78031 1.07611
 H104 H 1.13532 0.76953 1.06498
 O105 O 0.89048 1.02901 1.15136
 O106 O 0.85496 1.02903 1.18669
 C107 C 0.87960 1.03959 1.17592
 C108 C 0.89529 1.06506 1.19149
 C109 C 0.88412 1.07666 1.21908
 H110 H 0.86493 1.06568 1.22984
 O111 O 1.10963 0.97070 1.15031
 O112 O 1.14483 0.97052 1.18599
 C113 C 1.12014 0.96028 1.17509
 C114 C 1.10387 0.93553 1.19103
 C115 C 1.11405 0.92523 1.21942
 H116 H 1.13332 0.93617 1.23017
 O117 O 1.03017 0.84836 1.10918
 O118 O 1.03034 0.81288 1.14456
 C119 C 1.04074 0.82373 1.11992
 C120 C 1.06594 0.80807 1.10403
 C121 C 1.07696 0.78008 1.11471
 H122 H 1.06627 0.76932 1.13412
 O123 O 0.97099 1.15111 1.10932
 O124 O 0.97090 1.18676 1.14451
 C125 C 0.96067 1.17594 1.11978
 C126 C 0.93599 1.19188 1.10334
 C127 C 0.92525 1.22018 1.11350
 H128 H 0.93551 1.23037 1.13335
 O129 O 0.84964 1.10884 1.02947
 O130 O 0.81415 1.14422 1.02940
 C131 C 0.82492 1.11954 1.03984
 C132 C 0.80900 1.10349 1.06481
 C133 C 0.78078 1.11395 1.07546
 H134 H 0.76994 1.13284 1.06408
 O135 O 1.15228 0.89057 1.02922
 O136 O 1.18797 0.85540 1.02953
 C137 C 1.17706 0.88012 1.03969
 C138 C 1.19289 0.89658 1.06440
 C139 C 1.22128 0.88658 1.07510
 H140 H 1.23158 0.86679 1.06484
 O141 O 0.97051 0.88956 1.15077
 O142 O 0.97073 0.85421 1.18629
 C143 C 0.96028 0.87889 1.17557
 C144 C 0.93554 0.89505 1.19171
 C145 C 0.92532 0.88488 1.22018
 H146 H 0.93623 0.86557 1.23088
 O147 O 1.02960 1.10936 1.15152
 O148 O 1.02960 1.14475 1.18697
 C149 C 1.03990 1.11999 1.17629
 C150 C 1.06466 1.10372 1.19225
 C151 C 1.07537 1.11391 1.22056
 H152 H 1.06501 1.13369 1.23078
 O153 O 0.84926 0.96935 1.10968
 O154 O 0.81359 0.96923 1.14487
 C155 C 0.82447 0.95890 1.12019
 C156 C 0.80856 0.93409 1.10381
 C157 C 0.78007 0.92357 1.11379
 H158 H 0.76974 0.93393 1.13352
 O159 O 1.15169 1.03014 1.10937
 O160 O 1.18700 1.02988 1.14493
 C161 C 1.17644 1.04032 1.12018
 C162 C 1.19273 1.06497 1.10411
 C163 C 1.22114 1.07512 1.11446
 H164 H 1.23167 1.06420 1.13387
 O165 O 0.89070 0.84774 1.02881
 O166 O 0.85540 0.81219 1.02891
 C167 C 0.88012 0.82299 1.03923
 C168 C 0.89643 0.80711 1.06407
 C169 C 0.88624 0.77881 1.07483
 H170 H 0.86640 0.76863 1.06455
 O171 O 1.11093 1.15072 1.02957
 O172 O 1.14618 1.18632 1.02963
 C173 C 1.12154 1.17541 1.04007
 C174 C 1.10549 1.19106 1.06524
 C175 C 1.11616 1.21902 1.07638
 H176 H 1.13519 1.22990 1.06525
 Cu177 Cu 1.12712 1.00046 1.12627
 Cu178 Cu 1.16946 1.00017 1.16906
 Cu179 Cu 0.87349 0.99912 1.12703
 Cu180 Cu 0.83078 0.99905 1.16935
 Cu181 Cu 1.00029 1.12659 1.12682
 Cu182 Cu 1.00023 1.16924 1.16921
 Cu183 Cu 1.00027 0.87262 1.12624
 Cu184 Cu 1.00050 0.83009 1.16879
 C185 C 1.07889 1.07882 1.17828
 H186 H 1.07108 1.07117 1.15623
 C187 C 1.10003 1.09935 1.23488
 C188 C 0.92116 0.92005 1.17810
 H189 H 0.92871 0.92778 1.15598
 C190 C 0.90103 0.89928 1.23500
 C191 C 1.08029 1.17734 1.07930
 H192 H 1.07223 1.15556 1.07116
 C193 C 1.10230 1.23293 1.10164
 C194 C 0.92145 0.82101 1.07820
 H195 H 0.92913 0.84304 1.07035
 C196 C 0.90091 0.76440 1.09938
 C197 C 1.17934 1.07933 1.07900
 H198 H 1.15725 1.07182 1.07115
 C199 C 1.23613 1.09934 1.10014
 C200 C 0.82248 0.91987 1.07883
 H201 H 0.84460 0.92757 1.07126
 C202 C 0.76554 0.89916 1.09902
 C203 C 0.92059 1.07904 1.17789
 H204 H 0.92901 1.07058 1.15637
 C205 C 0.89764 1.10224 1.23275
 C206 C 1.07897 0.92109 1.17729
 H207 H 1.07123 0.92871 1.15520
 C208 C 1.09995 0.90066 1.23401
 C209 C 1.17884 0.92151 1.07851
 H210 H 1.15674 0.92904 1.07070
 C211 C 1.23561 0.90132 1.09961
 C212 C 0.82266 1.07841 1.07907
 H213 H 0.84463 1.07051 1.07128
 C214 C 0.76656 1.10001 1.10050
 C215 C 0.92189 1.17794 1.07835
 H216 H 0.92973 1.15590 1.07072
 C217 C 0.90068 1.23453 1.09886
 C218 C 1.08028 0.82189 1.07908
 H219 H 1.07222 0.84371 1.07102
 C220 C 1.10230 0.76622 1.10123
 O221 O 1.11063 0.97006 0.84856
 O222 O 1.14596 0.96993 0.81303
 C223 C 1.12125 0.95961 0.82386
 C224 C 1.10513 0.93463 0.80810
 C225 C 1.11523 0.92418 0.77969
 H226 H 1.13384 0.93578 0.76859
 O227 O 0.89117 1.02890 0.84849
 O228 O 0.85592 1.02887 0.81287
 C229 C 0.88056 1.03928 0.82372
 C230 C 0.89661 1.06428 0.80790
 C231 C 0.88585 1.07535 0.77996
 H232 H 0.86627 1.06484 0.76934
 O233 O 0.97156 1.15018 0.89000
 O234 O 0.97147 1.18581 0.85476
 C235 C 0.96116 1.17495 0.87944
 C236 C 0.93628 1.19085 0.89560
 C237 C 0.92571 1.21911 0.88525
 H238 H 0.93657 1.22986 0.86593
 O239 O 1.03091 0.84761 0.89037
 O240 O 1.03110 0.81215 0.85499
 C241 C 1.04141 0.82292 0.87972
 C242 C 1.06637 0.80715 0.89594
 C243 C 1.07696 0.77868 0.88608
 H244 H 1.06621 0.76761 0.86689
 O245 O 1.15239 0.89022 0.96996
 O246 O 1.18806 0.85502 0.97025
 C247 C 1.17723 0.87963 0.95973
 C248 C 1.19325 0.89577 0.93489
 C249 C 1.22178 0.88570 0.92474
 H250 H 1.23260 0.86654 0.93581
 O251 O 0.84953 1.10865 0.97017
 O252 O 0.81402 1.14401 0.97009
 C253 C 0.82478 1.11929 0.95979
 C254 C 0.80888 1.10321 0.93489
 C255 C 0.78055 1.11351 0.92443
 H256 H 0.76957 1.13211 0.93613
 O257 O 1.03090 1.10887 0.84808
 O258 O 1.03074 1.14435 0.81270
 C259 C 1.04121 1.11965 0.82336
 C260 C 1.06617 1.10370 0.80734
 C261 C 1.07706 1.11454 0.77935
 H262 H 1.06672 1.13452 0.76947
 O263 O 0.97161 0.88939 0.84895
 O264 O 0.97165 0.85414 0.81335
 C265 C 0.96124 0.87880 0.82418
 C266 C 0.93630 0.89496 0.80833
 C267 C 0.92584 0.88484 0.77992
 H268 H 0.93733 0.86612 0.76890
 O269 O 1.15221 1.02934 0.89008
 O270 O 1.18775 1.02926 0.85476
 C271 C 1.17697 1.03966 0.87945
 C272 C 1.19292 1.06454 0.89554
 C273 C 1.22139 1.07471 0.88539
 H274 H 1.23236 1.06290 0.86684
 O275 O 0.84939 0.96966 0.89006
 O276 O 0.81400 0.96968 0.85458
 C277 C 0.82465 0.95935 0.87934
 C278 C 0.80852 0.93461 0.89549
 C279 C 0.77999 0.92455 0.88539
 H280 H 0.76924 0.93562 0.86619
 O281 O 1.11101 1.15093 0.97024
 O282 O 1.14620 1.18659 0.97012
 C283 C 1.12154 1.17568 0.95978
 C284 C 1.10529 1.19139 0.93481
 C285 C 1.11535 1.21974 0.92413
 H286 H 1.13465 1.23069 0.93482
 O287 O 0.89064 0.84778 0.96956
 O288 O 0.85533 0.81223 0.96951
 C289 C 0.88005 0.82303 0.95917
 C290 C 0.89637 0.80713 0.93435
 C291 C 0.88634 0.77874 0.92369
 H292 H 0.86692 0.76787 0.93424
 O293 O 0.89138 0.96961 0.84884
 O294 O 0.85618 0.96954 0.81318
 C295 C 0.88084 0.95919 0.82408
 C296 C 0.89706 0.93429 0.80828
 C297 C 0.88693 0.92383 0.77991
 H298 H 0.86765 0.93465 0.76904
 O299 O 1.11121 1.02935 0.84785
 O300 O 1.14656 1.02933 0.81235
 C301 C 1.12187 1.03974 0.82310
 C302 C 1.10572 1.06470 0.80722
 C303 C 1.11631 1.07589 0.77923
 H304 H 1.13595 1.06554 0.76857
 O305 O 0.97158 0.84773 0.89046
 O306 O 0.97169 0.81230 0.85504
 C307 C 0.96122 0.82304 0.87970
 C308 C 0.93614 0.80716 0.89558
 C309 C 0.92587 0.77877 0.88532
 H310 H 0.93773 0.76776 0.86683
 O311 O 1.03086 1.15022 0.89000
 O312 O 1.03073 1.18583 0.85475
 C313 C 1.04114 1.17504 0.87943
 C314 C 1.06598 1.19104 0.89557
 C315 C 1.07624 1.21948 0.88534
 H316 H 1.06453 1.23037 0.86669
 O317 O 0.84889 0.88932 0.96968
 O318 O 0.81335 0.85401 0.96961
 C319 C 0.82411 0.87875 0.95931
 C320 C 0.80815 0.89515 0.93457
 C321 C 0.77959 0.88535 0.92410
 H322 H 0.76915 0.86569 0.93451
 O323 O 1.15270 1.10946 0.97013
 O324 O 1.18816 1.14486 0.96999
 C325 C 1.17739 1.12014 0.95965
 C326 C 1.19320 1.10394 0.93468
 C327 C 1.22165 1.11389 0.92409
 H328 H 1.23266 1.13314 0.93481
 O329 O 1.03087 0.88949 0.84901
 O330 O 1.03098 0.85422 0.81343
 C331 C 1.04126 0.87893 0.82424
 C332 C 1.06604 0.89520 0.80830
 C333 C 1.07649 0.88504 0.77992
 H334 H 1.06576 0.86567 0.76915
 O335 O 0.97153 1.10872 0.84827
 O336 O 0.97136 1.14422 0.81290
 C337 C 0.96101 1.11949 0.82364
 C338 C 0.93587 1.10356 0.80787
 C339 C 0.92476 1.11432 0.77994
 H340 H 0.93593 1.13336 0.76911
 O341 O 0.84948 1.02891 0.89000
 O342 O 0.81407 1.02896 0.85454
 C343 C 0.82478 1.03932 0.87927
 C344 C 0.80889 1.06421 0.89540
 C345 C 0.78064 1.07497 0.88510
 H346 H 0.76988 1.06440 0.86563
 O347 O 1.15276 0.97006 0.88964
 O348 O 1.18829 0.96992 0.85432
 C349 C 1.17752 0.95963 0.87905
 C350 C 1.19347 0.93484 0.89541
 C351 C 1.22200 0.92437 0.88550
 H352 H 1.23235 0.93479 0.86580
 O353 O 1.11087 0.84851 0.97023
 O354 O 1.14636 0.81314 0.97049
 C355 C 1.12162 0.82375 0.96005
 C356 C 1.10558 0.80763 0.93526
 C357 C 1.11578 0.77914 0.92518
 H358 H 1.13441 0.76828 0.93697
 O359 O 0.89115 1.15024 0.96992
 O360 O 0.85580 1.18575 0.96977
 C361 C 0.88051 1.17495 0.95946
 C362 C 0.89677 1.19086 0.93462
 C363 C 0.88642 1.21910 0.92382
 H364 H 0.86649 1.22917 0.93405
 Cu365 Cu 1.12815 0.99971 0.87256
 Cu366 Cu 1.17070 0.99960 0.83005
 Cu367 Cu 0.87389 0.99928 0.87290
 Cu368 Cu 0.83151 0.99923 0.83020
 Cu369 Cu 1.12840 1.12664 0.99983
 Cu370 Cu 1.17078 1.16930 0.99977
 Cu371 Cu 1.12803 0.87304 0.99970
 Cu372 Cu 1.17076 0.83069 1.00004
 Cu373 Cu 0.87393 1.12601 0.99970
 Cu374 Cu 0.83139 1.16856 0.99957
 Cu375 Cu 0.87342 0.87212 0.99921
 Cu376 Cu 0.83090 0.82960 0.99926
 Cu377 Cu 1.00124 1.12592 0.87260
 Cu378 Cu 1.00108 1.16861 0.83022
 Cu379 Cu 1.00126 0.87207 0.87327
 Cu380 Cu 1.00137 0.82964 0.83064
 C381 C 1.08039 0.92012 0.82211
 H382 H 1.07277 0.92778 0.84422
 C383 C 1.10128 0.89909 0.76562
 C384 C 0.92176 1.07840 0.82155
 H385 H 0.92987 1.07030 0.84333
 C386 C 0.89944 1.10059 0.76603
 C387 C 0.92192 1.17711 0.92056
 H388 H 0.92973 1.15514 0.92845
 C389 C 0.90102 1.23358 0.89930
 C390 C 1.08075 0.82132 0.92065
 H391 H 1.07305 0.84348 0.92808
 C392 C 1.10187 0.76465 0.90031
 C393 C 1.17949 0.92059 0.92032
 H394 H 1.15733 0.92825 0.92782
 C395 C 1.23654 0.89998 0.90033
 C396 C 0.82273 1.07841 0.92040
 H397 H 0.84477 1.07063 0.92812
 C398 C 0.76645 1.09983 0.89919
 C399 C 1.08040 1.07854 0.82086
 H400 H 1.07236 1.07035 0.84263
 C401 C 1.10195 1.10055 0.76492
 C402 C 0.92188 0.91983 0.82222
 H403 H 0.92952 0.92748 0.84432
 C404 C 0.90087 0.89893 0.76572
 C405 C 1.17911 1.07915 0.92031
 H406 H 1.15696 1.07165 0.92798
 C407 C 1.23576 1.09968 0.89924
 C408 C 0.82221 0.92003 0.92033
 H409 H 0.84439 0.92746 0.92799
 C410 C 0.76515 0.90022 0.89968
 C411 C 1.08049 1.17731 0.92045
 H412 H 1.07294 1.15520 0.92819
 C413 C 1.10126 1.23381 0.89920
 C414 C 0.92139 0.82104 0.92022
 H415 H 0.92896 0.84314 0.92797
 C416 C 0.90068 0.76455 0.89897
 O417 O 0.97051 0.39096 0.34820
 O418 O 0.97038 0.35577 0.31256
 C419 C 0.95998 0.38038 0.32350
 C420 C 0.93488 0.39657 0.30785
 C421 C 0.92424 0.38666 0.27940
 H422 H 0.93498 0.36746 0.26834
 O423 O 1.02945 0.61026 0.34849
 O424 O 1.02942 0.64557 0.31294
 C425 C 1.03979 0.62087 0.32372
 C426 C 1.06466 0.60477 0.30774
 C427 C 1.07483 0.61493 0.27925
 H428 H 1.06304 0.63350 0.26830
 O429 O 0.84818 0.47056 0.39051
 O430 O 0.81261 0.47044 0.35521
 C431 C 0.82351 0.46002 0.37984
 C432 C 0.80791 0.43487 0.39594
 C433 C 0.77950 0.42412 0.38602
 H434 H 0.76834 0.43487 0.36688
 O435 O 1.15141 0.53016 0.38945
 O436 O 1.18707 0.53038 0.35424
 C437 C 1.17618 0.54064 0.37894
 C438 C 1.19197 0.56548 0.39533
 C439 C 1.22051 0.57598 0.38555
 H440 H 1.23156 0.56530 0.36632
 O441 O 0.89106 0.34820 0.46969
 O442 O 0.85584 0.31256 0.46971
 C443 C 0.88045 0.32346 0.45926
 C444 C 0.89661 0.30775 0.43422
 C445 C 0.88660 0.27938 0.42344
 H446 H 0.86733 0.26835 0.43408
 O447 O 1.10923 0.65129 0.47043
 O448 O 1.14466 0.68672 0.47041
 C449 C 1.11991 0.67602 0.46010
 C450 C 1.10386 0.69205 0.43525
 C451 C 1.11409 0.72052 0.42520
 H452 H 1.13254 0.73141 0.43722
 O453 O 0.88976 0.53018 0.34932
 O454 O 0.85439 0.53020 0.31382
 C455 C 0.87912 0.54056 0.32458
 C456 C 0.89534 0.56538 0.30857
 C457 C 0.88511 0.57575 0.28019
 H458 H 0.86577 0.56488 0.26950
 O459 O 1.11012 0.47092 0.34749
 O460 O 1.14553 0.47097 0.31204
 C461 C 1.12081 0.46056 0.32276
 C462 C 1.10463 0.43563 0.30690
 C463 C 1.11477 0.42482 0.27859
 H464 H 1.13420 0.43535 0.26770
 O465 O 1.03026 0.34951 0.38942
 O466 O 1.03034 0.31414 0.35394
 C467 C 1.04077 0.32488 0.37865
 C468 C 1.06590 0.30909 0.39464
 C469 C 1.07707 0.28117 0.38391
 H470 H 1.06605 0.27041 0.36476
 O471 O 0.97023 0.65213 0.39002
 O472 O 0.97026 0.68757 0.35460
 C473 C 0.95986 0.67684 0.37930
 C474 C 0.93488 0.69275 0.39530
 C475 C 0.92390 0.72074 0.38456
 H476 H 0.93421 0.73079 0.36465
 O477 O 0.84862 0.61018 0.47012
 O478 O 0.81294 0.64539 0.47028
 C479 C 0.82370 0.62066 0.45999
 C480 C 0.80749 0.60426 0.43553
 C481 C 0.77887 0.61419 0.42556
 H482 H 0.76814 0.63345 0.43652
 O483 O 1.15148 0.39079 0.47013
 O484 O 1.18712 0.35559 0.47022
 C485 C 1.17628 0.38025 0.45978
 C486 C 1.19219 0.39651 0.43485
 C487 C 1.22064 0.38645 0.42428
 H488 H 1.23099 0.36678 0.43475
 O489 O 0.97012 0.61027 0.34872
 O490 O 0.97003 0.64553 0.31311
 C491 C 0.95964 0.62086 0.32400
 C492 C 0.93467 0.60463 0.30822
 C493 C 0.92399 0.61477 0.27987
 H494 H 0.93438 0.63452 0.26962
 O495 O 1.02987 0.39123 0.34789
 O496 O 1.02975 0.35599 0.31228
 C497 C 1.04014 0.38066 0.32308
 C498 C 1.06503 0.39670 0.30711
 C499 C 1.07535 0.38635 0.27877
 H500 H 1.06353 0.36778 0.26785
 O501 O 1.15113 0.47087 0.38971
 O502 O 1.18677 0.47097 0.35450
 C503 C 1.17593 0.46055 0.37918
 C504 C 1.19191 0.43574 0.39545
 C505 C 1.22032 0.42538 0.38529
 H506 H 1.23107 0.43623 0.36596
 O507 O 0.84783 0.52987 0.39068
 O508 O 0.81226 0.52984 0.35539
 C509 C 0.82302 0.54017 0.38011
 C510 C 0.80702 0.56488 0.39644
 C511 C 0.77838 0.57519 0.38668
 H512 H 0.76789 0.56463 0.36715
 O513 O 0.89004 0.65201 0.46965
 O514 O 0.85453 0.68737 0.46962
 C515 C 0.87924 0.67666 0.45921
 C516 C 0.89529 0.69257 0.43424
 C517 C 0.88459 0.72053 0.42315
 H518 H 0.86490 0.73108 0.43352
 O519 O 1.10983 0.34923 0.47005
 O520 O 1.14529 0.31382 0.47007
 C521 C 1.12062 0.32460 0.45958
 C522 C 1.10480 0.30889 0.43434
 C523 C 1.11560 0.28097 0.42330
 H524 H 1.13503 0.27027 0.43400
 O525 O 1.10970 0.53021 0.34794
 O526 O 1.14510 0.53042 0.31248
 C527 C 1.12035 0.54071 0.32326
 C528 C 1.10409 0.56564 0.30746
 C529 C 1.11401 0.57620 0.27899
 H530 H 1.13325 0.56547 0.26798
 O531 O 0.89000 0.47093 0.34916
 O532 O 0.85463 0.47090 0.31366
 C533 C 0.87940 0.46061 0.32439
 C534 C 0.89560 0.43585 0.30834
 C535 C 0.88544 0.42576 0.27984
 H536 H 0.86685 0.43758 0.26898
 O537 O 1.02954 0.65198 0.38999
 O538 O 1.02966 0.68749 0.35464
 C539 C 1.04001 0.67668 0.37935
 C540 C 1.06496 0.69244 0.39562
 C541 C 1.07571 0.72085 0.38570
 H542 H 1.06516 0.73186 0.36636
 O543 O 0.97097 0.34919 0.38968
 O544 O 0.97101 0.31383 0.35420
 C545 C 0.96071 0.32443 0.37898
 C546 C 0.93595 0.30829 0.39506
 C547 C 0.92579 0.27988 0.38474
 H548 H 0.93762 0.26909 0.36611
 O549 O 1.15098 0.60980 0.47024
 O550 O 1.18653 0.64512 0.47024
 C551 C 1.17572 0.62045 0.45985
 C552 C 1.19168 0.60443 0.43491
 C553 C 1.22025 0.61451 0.42489
 H554 H 1.23124 0.63297 0.43681
 O555 O 0.84967 0.39006 0.46996
 O556 O 0.81429 0.35457 0.47008
 C557 C 0.82490 0.37935 0.45974
 C558 C 0.80870 0.39547 0.43505
 C559 C 0.78025 0.38516 0.42496
 H560 H 0.76951 0.36645 0.43671
 Cu561 Cu 1.00040 0.37376 0.37234
 Cu562 Cu 1.00036 0.33139 0.32967
 Cu563 Cu 0.99985 0.62764 0.37286
 Cu564 Cu 0.99985 0.67008 0.33025
 Cu565 Cu 0.87244 0.50041 0.37349
 Cu566 Cu 0.82992 0.50036 0.33095
 Cu567 Cu 1.12704 0.50053 0.37215
 Cu568 Cu 1.16969 0.50069 0.32978
 C569 C 0.92046 0.42127 0.32204
 H570 H 0.92816 0.42872 0.34420
 C571 C 0.89931 0.40084 0.26538
 C572 C 1.07929 0.58000 0.32154
 H573 H 1.07181 0.57234 0.34371
 C574 C 1.09979 0.60104 0.26487
 C575 C 0.82222 0.42045 0.42056
 H576 H 0.84435 0.42824 0.42802
 C577 C 0.76566 0.39905 0.40014
 C578 C 1.17783 0.57978 0.42013
 H579 H 1.15562 0.57216 0.42752
 C580 C 1.23468 0.60070 0.39993
 C581 C 0.92139 0.32191 0.41994
 H582 H 0.92891 0.34401 0.42773
 C583 C 0.90079 0.26542 0.39848
 C584 C 1.07915 0.67831 0.42049
 H585 H 1.07142 0.65617 0.42795
 C586 C 1.10050 0.73491 0.40010
 C587 C 0.92039 0.57971 0.32220
 H588 H 0.92820 0.57205 0.34425
 C589 C 0.89939 0.60019 0.26548
 C590 C 1.07965 0.42147 0.32086
 H591 H 1.07201 0.42928 0.34291
 C592 C 1.10054 0.39994 0.26452
 C593 C 1.07981 0.32265 0.41998
 H594 H 1.07165 0.34440 0.42809
 C595 C 1.10222 0.26714 0.39789
 C596 C 0.92068 0.67908 0.42039
 H597 H 0.92879 0.65731 0.42853
 C598 C 0.89891 0.73497 0.39857
 C599 C 0.82117 0.57934 0.42111
 H600 H 0.84342 0.57182 0.42848
 C601 C 0.76396 0.59969 0.40142
 C602 C 1.17822 0.42139 0.42048
 H603 H 1.15613 0.42902 0.42820
 C604 C 1.23506 0.40102 0.39967
 O605 O 1.02957 0.39078 0.65198
 O606 O 1.02971 0.35540 0.68746
 C607 C 1.04002 0.38012 0.67669
 C608 C 1.06495 0.39630 0.69250
 C609 C 1.07576 0.38603 0.72073
 H610 H 1.06517 0.36661 0.73155
 O611 O 0.96963 0.61077 0.65047
 O612 O 0.96949 0.64609 0.68599
 C613 C 0.95911 0.62143 0.67514
 C614 C 0.93408 0.60533 0.69091
 C615 C 0.92303 0.61595 0.71890
 H616 H 0.93347 0.63556 0.72953
 O617 O 0.84884 0.52957 0.60904
 O618 O 0.81311 0.52953 0.64418
 C619 C 0.82403 0.53994 0.61957
 C620 C 0.80826 0.56496 0.60350
 C621 C 0.77996 0.57553 0.61381
 H622 H 0.76908 0.56463 0.63303
 O623 O 1.15070 0.47095 0.60960
 O624 O 1.18620 0.47104 0.64496
 C625 C 1.17546 0.46065 0.62024
 C626 C 1.19148 0.43584 0.60410
 C627 C 1.21973 0.42529 0.61452
 H628 H 1.23037 0.43608 0.63393
 O629 O 1.10980 0.34904 0.52946
 O630 O 1.14516 0.31356 0.52957
 C631 C 1.12043 0.32432 0.53993
 C632 C 1.10419 0.30844 0.56489
 C633 C 1.11421 0.27998 0.57548
 H634 H 1.13383 0.26954 0.56499
 O635 O 0.89048 0.65213 0.52888
 O636 O 0.85505 0.68758 0.52890
 C637 C 0.87985 0.67692 0.53913
 C638 C 0.89616 0.69309 0.56369
 C639 C 0.88618 0.72167 0.57368
 H640 H 0.86697 0.73245 0.56264
 O641 O 0.89038 0.47054 0.65117
 O642 O 0.85482 0.47059 0.68647
 C643 C 0.87960 0.46023 0.67588
 C644 C 0.89559 0.43535 0.69195
 C645 C 0.88521 0.42501 0.72030
 H646 H 0.86652 0.43671 0.73114
 O647 O 1.10898 0.53020 0.65108
 O648 O 1.14429 0.53037 0.68663
 C649 C 1.11955 0.54063 0.67581
 C650 C 1.10319 0.56537 0.69175
 C651 C 1.11331 0.57591 0.72013
 H652 H 1.13314 0.56556 0.73028
 O653 O 0.97062 0.34900 0.61018
 O654 O 0.97059 0.31342 0.64545
 C655 C 0.96035 0.32415 0.62068
 C656 C 0.93583 0.30803 0.60416
 C657 C 0.92521 0.27965 0.61427
 H658 H 0.93533 0.26956 0.63426
 O659 O 1.02945 0.65219 0.60942
 O660 O 1.02950 0.68762 0.64483
 C661 C 1.03996 0.67682 0.62018
 C662 C 1.06509 0.69254 0.60421
 C663 C 1.07620 0.72053 0.61481
 H664 H 1.06570 0.73124 0.63434
 O665 O 0.84974 0.38984 0.52919
 O666 O 0.81435 0.35436 0.52931
 C667 C 0.82504 0.37913 0.53962
 C668 C 0.80902 0.39529 0.56445
 C669 C 0.78079 0.38484 0.57503
 H670 H 0.77018 0.36538 0.56429
 O671 O 1.15110 0.60970 0.52955
 O672 O 1.18665 0.64501 0.52948
 C673 C 1.17589 0.62031 0.53984
 C674 C 1.19189 0.60417 0.56464
 C675 C 1.22027 0.61440 0.57502
 H676 H 1.23106 0.63362 0.56404
 O677 O 1.02887 0.61036 0.65078
 O678 O 1.02883 0.64560 0.68639
 C679 C 1.03912 0.62086 0.67562
 C680 C 1.06379 0.60451 0.69166
 C681 C 1.07413 0.61461 0.72009
 H682 H 1.06324 0.63388 0.73088
 O683 O 0.97024 0.39056 0.65186
 O684 O 0.97024 0.35520 0.68736
 C685 C 0.95980 0.37987 0.67656
 C686 C 0.93476 0.39598 0.69233
 C687 C 0.92399 0.38587 0.72066
 H688 H 0.93466 0.36658 0.73163
 O689 O 1.15109 0.53018 0.60992
 O690 O 1.18657 0.53032 0.64530
 C691 C 1.17584 0.54058 0.62055
 C692 C 1.19187 0.56527 0.60422
 C693 C 1.22022 0.57592 0.61442
 H694 H 1.23030 0.56566 0.63433
 O695 O 0.84909 0.47020 0.60920
 O696 O 0.81338 0.47016 0.64435
 C697 C 0.82435 0.45972 0.61976
 C698 C 0.80863 0.43466 0.60362
 C699 C 0.78043 0.42376 0.61398
 H700 H 0.77025 0.43409 0.63379
 O701 O 1.10966 0.65156 0.52972
 O702 O 1.14511 0.68697 0.52964
 C703 C 1.12040 0.67629 0.54006
 C704 C 1.10435 0.69233 0.56493
 C705 C 1.11509 0.72036 0.57581
 H706 H 1.13510 0.73030 0.56557
 O707 O 0.89165 0.34851 0.52901
 O708 O 0.85642 0.31288 0.52905
 C709 C 0.88110 0.32374 0.53938
 C710 C 0.89723 0.30786 0.56426
 C711 C 0.88705 0.27946 0.57457
 H712 H 0.86794 0.26860 0.56346
 O713 O 1.10942 0.47094 0.65156
 O714 O 1.14477 0.47108 0.68708
 C715 C 1.12009 0.46064 0.67634
 C716 C 1.10407 0.43571 0.69231
 C717 C 1.11445 0.42524 0.72061
 H718 H 1.13315 0.43689 0.73150
 O719 O 0.89024 0.52988 0.65079
 O720 O 0.85466 0.52996 0.68606
 C721 C 0.87936 0.54043 0.67535
 C722 C 0.89512 0.56572 0.69104
 C723 C 0.88439 0.57669 0.71904
 H724 H 0.86554 0.56530 0.72995
 O725 O 0.97018 0.65254 0.60899
 O726 O 0.97012 0.68807 0.64430
 C727 C 0.95990 0.67736 0.61952
 C728 C 0.93530 0.69341 0.60305
 C729 C 0.92496 0.72201 0.61280
 H730 H 0.93541 0.73243 0.63244
 O731 O 1.02982 0.34956 0.61005
 O732 O 1.02990 0.31395 0.64532
 C733 C 1.04024 0.32480 0.62062
 C734 C 1.06504 0.30884 0.60435
 C735 C 1.07535 0.28043 0.61453
 H736 H 1.06450 0.26973 0.63388
 O737 O 1.15123 0.39088 0.52948
 O738 O 1.18681 0.35560 0.52965
 C739 C 1.17595 0.38029 0.53996
 C740 C 1.19177 0.39652 0.56488
 C741 C 1.21998 0.38619 0.57575
 H742 H 1.23014 0.36633 0.56549
 O743 O 0.84903 0.61034 0.52931
 O744 O 0.81343 0.64561 0.52949
 C745 C 0.82431 0.62091 0.53979
 C746 C 0.80847 0.60467 0.56467
 C747 C 0.78015 0.61489 0.57529
 H748 H 0.76923 0.63380 0.56400
 Cu749 Cu 1.00002 0.37355 0.62753
 Cu750 Cu 1.00012 0.33094 0.66997
 Cu751 Cu 0.99952 0.62795 0.62636
 Cu752 Cu 0.99948 0.67039 0.66896
 Cu753 Cu 0.87409 0.37268 0.49944
 Cu754 Cu 0.83168 0.33002 0.49956
 Cu755 Cu 1.12704 0.37349 0.49979
 Cu756 Cu 1.16964 0.33109 0.49990
 Cu757 Cu 0.87312 0.62764 0.49947
 Cu758 Cu 0.83041 0.67004 0.49959
 Cu759 Cu 1.12669 0.62703 0.50002
 Cu760 Cu 1.16930 0.66951 0.49992
 Cu761 Cu 0.87320 0.50003 0.62653
 Cu762 Cu 0.83041 0.50004 0.66880
 Cu763 Cu 1.12650 0.50057 0.62700
 Cu764 Cu 1.16901 0.50072 0.66956
 C765 C 1.07917 0.42125 0.67857
 H766 H 1.07133 0.42896 0.65655
 C767 C 1.10072 0.40007 0.73481
 C768 C 0.92009 0.58009 0.67727
 H769 H 0.92819 0.57206 0.65546
 C770 C 0.89799 0.60209 0.73294
 C771 C 0.82223 0.57956 0.57880
 H772 H 0.84427 0.57184 0.57103
 C773 C 0.76592 0.60069 0.60017
 C774 C 1.17789 0.42156 0.57900
 H775 H 1.15594 0.42935 0.57106
 C776 C 1.23433 0.40071 0.60041
 C777 C 1.07936 0.32248 0.57929
 H778 H 1.07175 0.34457 0.57155
 C779 C 1.09964 0.26564 0.60014
 C780 C 0.92099 0.67935 0.57824
 H781 H 0.92854 0.65712 0.57087
 C782 C 0.90057 0.73649 0.59795
 C783 C 0.92049 0.42083 0.67828
 H784 H 0.92831 0.42845 0.65623
 C785 C 0.89901 0.39999 0.73467
 C786 C 1.07820 0.57960 0.67788
 H787 H 1.07058 0.57190 0.65578
 C788 C 1.09865 0.60034 0.73467
 C789 C 0.92190 0.32176 0.57892
 H790 H 0.92963 0.34385 0.57129
 C791 C 0.90097 0.26502 0.59934
 C792 C 1.07910 0.67884 0.57903
 H793 H 1.07095 0.65705 0.57099
 C794 C 1.10093 0.73480 0.60059
 C795 C 0.82255 0.42047 0.57864
 H796 H 0.84449 0.42844 0.57082
 C797 C 0.76613 0.39902 0.59956
 C798 C 1.17810 0.57933 0.57911
 H799 H 1.15604 0.57155 0.57142
 C800 C 1.23480 0.60031 0.59968
 O801 O 0.61008 1.02864 0.65136
 O802 O 0.64539 1.02870 0.68692
 C803 C 0.62069 1.03905 0.67609
 C804 C 0.60457 1.06399 0.69195
 C805 C 0.61484 1.07445 0.72029
 H806 H 0.63352 1.06284 0.73124
 O807 O 0.38976 0.97002 0.65086
 O808 O 0.35431 0.97003 0.68628
 C809 C 0.37907 0.95970 0.67560
 C810 C 0.39524 0.93495 0.69164
 C811 C 0.38488 0.92448 0.71994
 H812 H 0.36544 0.93520 0.73061
 O813 O 0.52989 1.15060 0.60992
 O814 O 0.52993 1.18598 0.64538
 C815 C 0.54027 1.17531 0.62063
 C816 C 0.56514 1.19130 0.60451
 C817 C 0.57566 1.21959 0.61484
 H818 H 0.56477 1.23032 0.63415
 O819 O 0.47050 0.84882 0.61018
 O820 O 0.47021 0.81333 0.64555
 C821 C 0.46002 0.82410 0.62077
 C822 C 0.43525 0.80814 0.60448
 C823 C 0.42479 0.77979 0.61472
 H824 H 0.43562 0.76906 0.63406
 O825 O 0.65205 1.10921 0.53049
 O826 O 0.68765 1.14446 0.53048
 C827 C 0.67682 1.11979 0.54088
 C828 C 0.69270 1.10354 0.56577
 C829 C 0.72113 1.11354 0.57637
 H830 H 0.73205 1.13287 0.56572
 O831 O 0.34872 0.89004 0.52925
 O832 O 0.31326 0.85463 0.52933
 C833 C 0.32393 0.87943 0.53955
 C834 C 0.30776 0.89573 0.56412
 C835 C 0.27921 0.88568 0.57414
 H836 H 0.26848 0.86645 0.56312
 O837 O 0.47053 1.10881 0.65135
 O838 O 0.47054 1.14403 0.68697
 C839 C 0.46007 1.11943 0.67606
 C840 C 0.43484 1.10352 0.69172
 C841 C 0.42385 1.11419 0.71972
 H842 H 0.43524 1.13301 0.73067
 O843 O 0.52975 0.89009 0.65222
 O844 O 0.52953 0.85474 0.68773
 C845 C 0.54006 0.87937 0.67697
 C846 C 0.56511 0.89534 0.69284
 C847 C 0.57608 0.88474 0.72090
 H848 H 0.56547 0.86527 0.73162
 O849 O 0.65184 0.96924 0.61006
 O850 O 0.68728 0.96921 0.64548
 C851 C 0.67653 0.95882 0.62078
 C852 C 0.69241 0.93385 0.60472
 C853 C 0.72048 0.92291 0.61531
 H854 H 0.73114 0.93344 0.63484
 O855 O 0.34831 1.02928 0.60920
 O856 O 0.31266 1.02937 0.64442
 C857 C 0.32357 1.03973 0.61978
 C858 C 0.30788 1.06473 0.60365
 C859 C 0.27966 1.07555 0.61392
 H860 H 0.26876 1.06487 0.63325
 O861 O 0.39083 1.15101 0.52983
 O862 O 0.35549 1.18653 0.52976
 C863 C 0.38010 1.17568 0.54028
 C864 C 0.39593 1.19137 0.56553
 C865 C 0.38509 1.21925 0.57669
 H866 H 0.36610 1.23010 0.56547
 O867 O 0.60972 0.84775 0.53043
 O868 O 0.64500 0.81218 0.53047
 C869 C 0.62031 0.82301 0.54085
 C870 C 0.60400 0.80719 0.56573
 C871 C 0.61387 0.77870 0.57631
 H872 H 0.63351 0.76822 0.56590
 O873 O 0.38974 1.02924 0.65091
 O874 O 0.35429 1.02935 0.68632
 C875 C 0.37905 1.03967 0.67560
 C876 C 0.39519 1.06459 0.69149
 C877 C 0.38451 1.07563 0.71948
 H878 H 0.36484 1.06524 0.73005
 O879 O 0.61024 0.96940 0.65176
 O880 O 0.64555 0.96945 0.68731
 C881 C 0.62083 0.95912 0.67657
 C882 C 0.60458 0.93440 0.69264
 C883 C 0.61519 0.92352 0.72072
 H884 H 0.63525 0.93366 0.73065
 O885 O 0.52975 0.84866 0.61043
 O886 O 0.52947 0.81315 0.64579
 C887 C 0.53994 0.82386 0.62110
 C888 C 0.56468 0.80771 0.60496
 C889 C 0.57481 0.77924 0.61517
 H890 H 0.56382 0.76857 0.63445
 O891 O 0.47059 1.15075 0.61011
 O892 O 0.47058 1.18611 0.64559
 C893 C 0.46017 1.17542 0.62088
 C894 C 0.43511 1.19127 0.60491
 C895 C 0.42393 1.21914 0.61576
 H896 H 0.43438 1.22970 0.63540
 O897 O 0.34911 1.10949 0.52942
 O898 O 0.31366 1.14491 0.52932
 C899 C 0.32433 1.12017 0.53968
 C900 C 0.30827 1.10408 0.56449
 C901 C 0.28001 1.11454 0.57502
 H902 H 0.26920 1.13342 0.56357
 O903 O 0.65162 0.88911 0.53026
 O904 O 0.68712 0.85375 0.53022
 C905 C 0.67640 0.87847 0.54058
 C906 C 0.69242 0.89463 0.56541
 C907 C 0.72055 0.88406 0.57627
 H908 H 0.73061 0.86413 0.56602
 O909 O 0.47038 0.89042 0.65177
 O910 O 0.47010 0.85510 0.68731
 C911 C 0.45980 0.87979 0.67642
 C912 C 0.43469 0.89586 0.69206
 C913 C 0.42397 0.88567 0.72035
 H914 H 0.43537 0.86696 0.73149
 O915 O 0.52992 1.10891 0.65151
 O916 O 0.52998 1.14412 0.68714
 C917 C 0.54035 1.11947 0.67626
 C918 C 0.56533 1.10330 0.69205
 C919 C 0.57604 1.11355 0.72033
 H920 H 0.56537 1.13292 0.73115
 O921 O 0.34806 0.97003 0.60931
 O922 O 0.31239 0.97002 0.64450
 C923 C 0.32323 0.95968 0.61982
 C924 C 0.30731 0.93493 0.60343
 C925 C 0.27872 0.92450 0.61320
 H926 H 0.26824 0.93496 0.63280
 O927 O 0.65194 1.02859 0.61001
 O928 O 0.68740 1.02857 0.64542
 C929 C 0.67666 1.03897 0.62072
 C930 C 0.69258 1.06395 0.60473
 C931 C 0.72103 1.07420 0.61494
 H932 H 0.73202 1.06238 0.63347
 O933 O 0.39041 0.84846 0.52973
 O934 O 0.35512 0.81289 0.52989
 C935 C 0.37979 0.82377 0.54025
 C936 C 0.39599 0.80795 0.56520
 C937 C 0.38573 0.77965 0.57590
 H938 H 0.36593 0.76949 0.56552
 O939 O 0.61029 1.15071 0.53028
 O940 O 0.64566 1.18619 0.53032
 C941 C 0.62092 1.17545 0.54066
 C942 C 0.60464 1.19140 0.56546
 C943 C 0.61494 1.21964 0.57622
 H944 H 0.63486 1.22971 0.56598
 Cu945 Cu 0.62750 0.99894 0.62723
 Cu946 Cu 0.66997 0.99899 0.66983
 Cu947 Cu 0.37250 0.99961 0.62653
 Cu948 Cu 0.32984 0.99968 0.66894
 Cu949 Cu 0.50025 1.12623 0.62718
 Cu950 Cu 0.50028 1.16858 0.66986
 Cu951 Cu 0.50013 0.87307 0.62764
 Cu952 Cu 0.49979 0.83054 0.67017
 C953 C 0.57966 1.07841 0.67813
 H954 H 0.57189 1.07071 0.65609
 C955 C 0.60100 1.09956 0.73445
 C956 C 0.42029 0.92063 0.67799
 H957 H 0.42812 0.92830 0.65596
 C958 C 0.39879 0.89965 0.73427
 C959 C 0.57952 1.17761 0.57954
 H960 H 0.57175 1.15563 0.57167
 C961 C 0.60032 1.23413 0.60074
 C962 C 0.42096 0.82183 0.57945
 H963 H 0.42869 0.84385 0.57164
 C964 C 0.40027 0.76518 0.60048
 C965 C 0.67872 1.07863 0.58002
 H966 H 0.65660 1.07107 0.57232
 C967 C 0.73532 1.09928 0.60116
 C968 C 0.32144 0.92061 0.57864
 H969 H 0.34365 0.92823 0.57124
 C970 C 0.26433 0.90004 0.59838
 C971 C 0.42048 1.07858 0.67791
 H972 H 0.42854 1.07054 0.65609
 C973 C 0.39837 1.10066 0.73354
 C974 C 0.57928 0.92042 0.67912
 H975 H 0.57125 0.92845 0.65729
 C976 C 0.60086 0.89886 0.73520
 C977 C 0.67878 0.91978 0.57954
 H978 H 0.65692 0.92780 0.57153
 C979 C 0.73491 0.89829 0.60107
 C980 C 0.32189 1.07904 0.57881
 H981 H 0.34389 1.07115 0.57109
 C982 C 0.26574 1.10065 0.60004
 C983 C 0.42107 1.17770 0.57967
 H984 H 0.42924 1.15598 0.57148
 C985 C 0.39871 1.23309 0.60212
 C986 C 0.57917 0.82130 0.58000
 H987 H 0.57168 0.84343 0.57225
 C988 C 0.59911 0.76437 0.60086
 O989 O 0.60931 0.97015 0.34889
 O990 O 0.64485 0.97001 0.31356
 C991 C 0.62008 0.95970 0.32424
 C992 C 0.60412 0.93468 0.30839
 C993 C 0.61452 0.92414 0.28013
 H994 H 0.63318 0.93577 0.26914
 O995 O 0.39047 1.02915 0.34866
 O996 O 0.35518 1.02924 0.31309
 C997 C 0.37987 1.03960 0.32392
 C998 C 0.39601 1.06459 0.30807
 C999 C 0.38533 1.07563 0.28007
 H1000 H 0.36536 1.06541 0.27003
 O1001 O 0.47099 1.15112 0.39016
 O1002 O 0.47102 1.18674 0.35492
 C1003 C 0.46066 1.17592 0.37960
 C1004 C 0.43579 1.19182 0.39579
 C1005 C 0.42503 1.22004 0.38545
 H1006 H 0.43562 1.23081 0.36600
 O1007 O 0.53004 0.84777 0.39080
 O1008 O 0.53005 0.81233 0.35539
 C1009 C 0.54041 0.82304 0.38012
 C1010 C 0.56528 0.80706 0.39628
 C1011 C 0.57625 0.77903 0.38564
 H1012 H 0.56582 0.76849 0.36598
 O1013 O 0.65099 0.88938 0.47096
 O1014 O 0.68655 0.85408 0.47081
 C1015 C 0.67567 0.87876 0.46044
 C1016 C 0.69138 0.89491 0.43540
 C1017 C 0.71961 0.88463 0.42460
 H1018 H 0.73045 0.86524 0.43522
 O1019 O 0.34957 1.10946 0.47015
 O1020 O 0.31413 1.14489 0.47008
 C1021 C 0.32487 1.12017 0.45972
 C1022 C 0.30889 1.10415 0.43478
 C1023 C 0.28056 1.11456 0.42444
 H1024 H 0.26975 1.13327 0.43613
 O1025 O 0.53005 1.10941 0.34832
 O1026 O 0.53009 1.14485 0.31290
 C1027 C 0.54045 1.12012 0.32361
 C1028 C 0.56540 1.10404 0.30771
 C1029 C 0.57656 1.11482 0.27980
 H1030 H 0.56639 1.13484 0.26981
 O1031 O 0.47071 0.88964 0.34935
 O1032 O 0.47077 0.85436 0.31378
 C1033 C 0.46038 0.87905 0.32458
 C1034 C 0.43549 0.89517 0.30859
 C1035 C 0.42533 0.88498 0.28012
 H1036 H 0.43710 0.86638 0.26922
 O1037 O 0.65096 1.02915 0.39084
 O1038 O 0.68665 1.02898 0.35566
 C1039 C 0.67585 1.03934 0.38035
 C1040 C 0.69197 1.06399 0.39661
 C1041 C 0.72020 1.07448 0.38613
 H1042 H 0.73074 1.06373 0.36664
 O1043 O 0.34861 0.96975 0.39005
 O1044 O 0.31325 0.96971 0.35456
 C1045 C 0.32400 0.95923 0.37923
 C1046 C 0.30834 0.93389 0.39501
 C1047 C 0.28070 0.92236 0.38389
 H1048 H 0.26996 0.93331 0.36467
 O1049 O 0.61041 1.15056 0.47095
 O1050 O 0.64580 1.18603 0.47088
 C1051 C 0.62113 1.17521 0.46044
 C1052 C 0.60518 1.19095 0.43526
 C1053 C 0.61591 1.21892 0.42422
 H1054 H 0.63542 1.22959 0.43481
 O1055 O 0.39052 0.84804 0.47043
 O1056 O 0.35524 0.81246 0.47056
 C1057 C 0.37992 0.82324 0.46016
 C1058 C 0.39599 0.80733 0.43525
 C1059 C 0.38529 0.77934 0.42430
 H1060 H 0.36574 0.76871 0.43486
 O1061 O 0.39040 0.96982 0.34864
 O1062 O 0.35523 0.96982 0.31295
 C1063 C 0.37988 0.95941 0.32387
 C1064 C 0.39613 0.93441 0.30815
 C1065 C 0.38622 0.92378 0.27970
 H1066 H 0.36700 0.93451 0.26865
 O1067 O 0.60985 1.02949 0.34860
 O1068 O 0.64542 1.02936 0.31332
 C1069 C 0.62071 1.03986 0.32393
 C1070 C 0.60478 1.06488 0.30793
 C1071 C 0.61565 1.07600 0.28003
 H1072 H 0.63533 1.06557 0.26954
 O1073 O 0.47073 0.84775 0.39068
 O1074 O 0.47068 0.81233 0.35526
 C1075 C 0.46029 0.82308 0.37996
 C1076 C 0.43522 0.80729 0.39595
 C1077 C 0.42419 0.77930 0.38530
 H1078 H 0.43538 0.76844 0.36630
 O1079 O 0.53033 1.15054 0.39040
 O1080 O 0.53043 1.18613 0.35513
 C1081 C 0.54085 1.17523 0.37978
 C1082 C 0.56601 1.19093 0.39581
 C1083 C 0.57708 1.21891 0.38515
 H1084 H 0.56589 1.22977 0.36615
 O1085 O 0.34885 0.88958 0.46998
 O1086 O 0.31345 0.85412 0.47004
 C1087 C 0.32420 0.87877 0.45953
 C1088 C 0.30843 0.89460 0.43432
 C1089 C 0.28076 0.88348 0.42292
 H1090 H 0.27027 0.86376 0.43331
 O1091 O 0.65193 1.10891 0.47123
 O1092 O 0.68752 1.14418 0.47110
 C1093 C 0.67668 1.11948 0.46079
 C1094 C 0.69247 1.10321 0.43589
 C1095 C 0.72068 1.11351 0.42496
 H1096 H 0.73092 1.13333 0.43522
 O1097 O 0.53000 0.88940 0.34913
 O1098 O 0.53008 0.85411 0.31357
 C1099 C 0.54039 0.87881 0.32437
 C1100 C 0.56522 0.89506 0.30848
 C1101 C 0.57600 0.88477 0.28025
 H1102 H 0.56547 0.86527 0.26951
 O1103 O 0.47070 1.10931 0.34873
 O1104 O 0.47067 1.14476 0.31332
 C1105 C 0.46024 1.12005 0.32406
 C1106 C 0.43519 1.10401 0.30820
 C1107 C 0.42412 1.11473 0.28023
 H1108 H 0.43458 1.13435 0.26964
 O1109 O 0.34868 1.02917 0.39010
 O1110 O 0.31319 1.02928 0.35475
 C1111 C 0.32401 1.03969 0.37943
 C1112 C 0.30834 1.06483 0.39553
 C1113 C 0.28004 1.07571 0.38540
 H1114 H 0.26902 1.06505 0.36613
 O1115 O 0.65072 0.96987 0.39068
 O1116 O 0.68639 0.96973 0.35549
 C1117 C 0.67545 0.95937 0.38013
 C1118 C 0.69124 0.93433 0.39622
 C1119 C 0.71953 0.92379 0.38587
 H1120 H 0.73048 0.93538 0.36717
 O1121 O 0.60976 0.84743 0.47115
 O1122 O 0.64512 0.81193 0.47109
 C1123 C 0.62041 0.82270 0.46075
 C1124 C 0.60429 0.80680 0.43582
 C1125 C 0.61489 0.77873 0.42489
 H1126 H 0.63477 0.76861 0.43520
 O1127 O 0.39115 1.15116 0.47048
 O1128 O 0.35584 1.18671 0.47041
 C1129 C 0.38056 1.17592 0.46010
 C1130 C 0.39667 1.19180 0.43519
 C1131 C 0.38630 1.22006 0.42461
 H1132 H 0.36756 1.23101 0.43614
 Cu1133 Cu 0.62662 0.99972 0.37325
 Cu1134 Cu 0.66940 0.99951 0.33097
 Cu1135 Cu 0.37303 0.99948 0.37292
 Cu1136 Cu 0.33065 0.99953 0.33029
 Cu1137 Cu 0.62763 1.12632 0.50077
 Cu1138 Cu 0.67020 1.16878 0.50070
 Cu1139 Cu 0.62699 0.87195 0.50073
 Cu1140 Cu 0.66951 0.82944 0.50065
 Cu1141 Cu 0.37373 1.12675 0.49999
 Cu1142 Cu 0.33124 1.16934 0.49986
 Cu1143 Cu 0.37317 0.87258 0.49985
 Cu1144 Cu 0.33072 0.82996 0.50000
 Cu1145 Cu 0.50050 1.12655 0.37293
 Cu1146 Cu 0.50055 1.16918 0.33053
 Cu1147 Cu 0.50039 0.87216 0.37355
 Cu1148 Cu 0.50040 0.82973 0.33094
 C1149 C 0.57933 0.92014 0.32225
 H1150 H 0.57149 0.92789 0.34426
 C1151 C 0.60085 0.89887 0.26608
 C1152 C 0.42119 1.07870 0.32174
 H1153 H 0.42929 1.07057 0.34351
 C1154 C 0.39946 1.10053 0.26580
 C1155 C 0.42156 1.17799 0.42079
 H1156 H 0.42938 1.15598 0.42856
 C1157 C 0.40006 1.23416 0.39941
 C1158 C 0.57922 0.82055 0.42161
 H1159 H 0.57119 0.84237 0.42966
 C1160 C 0.60078 0.76452 0.39995
 C1161 C 0.67745 0.91988 0.42113
 H1162 H 0.65544 0.92763 0.42897
 C1163 C 0.73368 0.89863 0.39963
 C1164 C 0.32248 1.07916 0.42033
 H1165 H 0.34451 1.07128 0.42797
 C1166 C 0.26614 1.10079 0.39944
 C1167 C 0.57942 1.07882 0.32135
 H1168 H 0.57118 1.07066 0.34306
 C1169 C 0.60152 1.10072 0.26559
 C1170 C 0.42089 0.92001 0.32231
 H1171 H 0.42838 0.92771 0.34445
 C1172 C 0.40040 0.89887 0.26567
 C1173 C 0.67850 1.07822 0.42177
 H1174 H 0.65653 1.07047 0.42974
 C1175 C 0.73487 1.09903 0.40021
 C1176 C 0.32189 0.91995 0.42034
 H1177 H 0.34346 0.92837 0.42871
 C1178 C 0.26695 0.89687 0.39749
 C1179 C 0.58010 1.17724 0.42100
 H1180 H 0.57200 1.15544 0.42907
 C1181 C 0.60234 1.23287 0.39896
 C1182 C 0.42110 0.82100 0.42106
 H1183 H 0.42916 0.84283 0.42908
 C1184 C 0.39891 0.76537 0.39910
 O1185 O 0.47120 0.38995 0.84868
 O1186 O 0.47128 0.35445 0.81333
 C1187 C 0.46082 0.37915 0.82401
 C1188 C 0.43579 0.39504 0.80807
 C1189 C 0.42546 0.38469 0.77972
 H1190 H 0.43722 0.36608 0.76881
 O1191 O 0.52944 0.60968 0.84854
 O1192 O 0.52946 0.64507 0.81307
 C1193 C 0.53991 0.62040 0.82387
 C1194 C 0.56500 0.60438 0.80807
 C1195 C 0.57606 0.61512 0.78010
 H1196 H 0.56580 0.63505 0.77004
 O1197 O 0.34943 0.46969 0.89013
 O1198 O 0.31379 0.46953 0.85491
 C1199 C 0.32468 0.45924 0.87960
 C1200 C 0.30891 0.43434 0.89586
 C1201 C 0.28057 0.42367 0.88576
 H1202 H 0.26968 0.43434 0.86641
 O1203 O 0.65119 0.52944 0.89067
 O1204 O 0.68690 0.52962 0.85552
 C1205 C 0.67599 0.53986 0.88021
 C1206 C 0.69184 0.56464 0.89658
 C1207 C 0.72023 0.57525 0.88649
 H1208 H 0.73049 0.56487 0.86673
 O1209 O 0.39174 0.34858 0.97085
 O1210 O 0.35648 0.31298 0.97088
 C1211 C 0.38120 0.32377 0.96057
 C1212 C 0.39746 0.30777 0.93585
 C1213 C 0.38731 0.27935 0.92558
 H1214 H 0.36807 0.26858 0.93656
 O1215 O 0.60902 0.65138 0.97071
 O1216 O 0.64445 0.68680 0.97039
 C1217 C 0.61970 0.67602 0.96015
 C1218 C 0.60360 0.69181 0.93516
 C1219 C 0.61392 0.72009 0.92458
 H1220 H 0.63263 0.73108 0.93611
 O1221 O 0.39093 0.52882 0.84824
 O1222 O 0.35552 0.52869 0.81279
 C1223 C 0.38024 0.53910 0.82349
 C1224 C 0.39631 0.56399 0.80751
 C1225 C 0.38602 0.57441 0.77917
 H1226 H 0.36681 0.56341 0.76838
 O1227 O 0.60980 0.47043 0.84853
 O1228 O 0.64528 0.47062 0.81314
 C1229 C 0.62055 0.46018 0.82378
 C1230 C 0.60453 0.43530 0.80775
 C1231 C 0.61497 0.42476 0.77952
 H1232 H 0.63426 0.43569 0.76880
 O1233 O 0.53071 0.34872 0.89043
 O1234 O 0.53073 0.31309 0.85522
 C1235 C 0.54108 0.32394 0.87989
 C1236 C 0.56595 0.30803 0.89606
 C1237 C 0.57641 0.27970 0.88577
 H1238 H 0.56481 0.26882 0.86705
 O1239 O 0.46991 0.65121 0.88994
 O1240 O 0.46979 0.68675 0.85462
 C1241 C 0.45946 0.67594 0.87933
 C1242 C 0.43455 0.69178 0.89558
 C1243 C 0.42337 0.71980 0.88509
 H1244 H 0.43366 0.73049 0.86543
 O1245 O 0.34923 0.60918 0.97027
 O1246 O 0.31347 0.64428 0.97031
 C1247 C 0.32446 0.61972 0.95983
 C1248 C 0.30877 0.60371 0.93469
 C1249 C 0.28077 0.61436 0.92364
 H1250 H 0.27005 0.63385 0.93422
 O1251 O 0.65177 0.39006 0.97093
 O1252 O 0.68732 0.35475 0.97082
 C1253 C 0.67644 0.37940 0.96039
 C1254 C 0.69204 0.39535 0.93511
 C1255 C 0.71990 0.38456 0.92385
 H1256 H 0.73080 0.36556 0.93501
 O1257 O 0.47014 0.60952 0.84836
 O1258 O 0.47006 0.64486 0.81284
 C1259 C 0.45979 0.62009 0.82358
 C1260 C 0.43512 0.60370 0.80755
 C1261 C 0.42440 0.61393 0.77925
 H1262 H 0.43457 0.63390 0.76921
 O1263 O 0.53050 0.39002 0.84845
 O1264 O 0.53064 0.35456 0.81308
 C1265 C 0.54090 0.37934 0.82374
 C1266 C 0.56565 0.39565 0.80773
 C1267 C 0.57652 0.38531 0.77953
 H1268 H 0.56637 0.36532 0.76951
 O1269 O 0.65122 0.47010 0.89037
 O1270 O 0.68685 0.47024 0.85513
 C1271 C 0.67598 0.45971 0.87973
 C1272 C 0.69180 0.43459 0.89571
 C1273 C 0.71967 0.42343 0.88481
 H1274 H 0.73019 0.43389 0.86516
 O1275 O 0.34941 0.52901 0.88993
 O1276 O 0.31382 0.52895 0.85466
 C1277 C 0.32467 0.53942 0.87929
 C1278 C 0.30889 0.56453 0.89528
 C1279 C 0.28088 0.57553 0.88460
 H1280 H 0.27006 0.56432 0.86559
 O1281 O 0.39062 0.65097 0.97054
 O1282 O 0.35501 0.68622 0.97061
 C1283 C 0.37978 0.67564 0.96021
 C1284 C 0.39571 0.69167 0.93528
 C1285 C 0.38489 0.71969 0.92450
 H1286 H 0.36497 0.72958 0.93493
 O1287 O 0.61050 0.34818 0.97096
 O1288 O 0.64586 0.31268 0.97086
 C1289 C 0.62118 0.32350 0.96048
 C1290 C 0.60512 0.30776 0.93542
 C1291 C 0.61541 0.27951 0.92465
 H1292 H 0.63475 0.26865 0.93535
 O1293 O 0.60981 0.52975 0.84879
 O1294 O 0.64536 0.52999 0.81348
 C1295 C 0.62059 0.54030 0.82417
 C1296 C 0.60453 0.56532 0.80829
 C1297 C 0.61528 0.57644 0.78035
 H1298 H 0.63496 0.56604 0.76981
 O1299 O 0.39077 0.46954 0.84827
 O1300 O 0.35534 0.46933 0.81284
 C1301 C 0.38008 0.45903 0.82360
 C1302 C 0.39628 0.43407 0.80782
 C1303 C 0.38619 0.42333 0.77947
 H1304 H 0.36685 0.43396 0.76853
 O1305 O 0.52919 0.65119 0.89017
 O1306 O 0.52919 0.68677 0.85489
 C1307 C 0.53955 0.67595 0.87958
 C1308 C 0.56444 0.69181 0.89577
 C1309 C 0.57515 0.72005 0.88545
 H1310 H 0.56452 0.73083 0.86603
 O1311 O 0.47147 0.34846 0.89040
 O1312 O 0.47145 0.31279 0.85522
 C1313 C 0.46115 0.32363 0.87992
 C1314 C 0.43646 0.30766 0.89633
 C1315 C 0.42585 0.27928 0.88625
 H1316 H 0.43613 0.26911 0.86640
 O1317 O 0.65067 0.60977 0.97082
 O1318 O 0.68625 0.64506 0.97054
 C1319 C 0.67545 0.62029 0.96040
 C1320 C 0.69150 0.60392 0.93578
 C1321 C 0.71993 0.61409 0.92549
 H1322 H 0.73063 0.63343 0.93633
 O1323 O 0.34984 0.38993 0.97055
 O1324 O 0.31441 0.35449 0.97060
 C1325 C 0.32512 0.37920 0.96019
 C1326 C 0.30914 0.39521 0.93526
 C1327 C 0.28074 0.38494 0.92493
 H1328 H 0.26982 0.36629 0.93662
 Cu1329 Cu 0.50097 0.37286 0.87300
 Cu1330 Cu 0.50104 0.33015 0.83066
 Cu1331 Cu 0.49964 0.62686 0.87279
 Cu1332 Cu 0.49961 0.66942 0.83029
 Cu1333 Cu 0.37368 0.49926 0.87267
 Cu1334 Cu 0.33103 0.49912 0.83026
 Cu1335 Cu 0.62695 0.49991 0.87311
 Cu1336 Cu 0.66967 0.50014 0.83079
 C1337 C 0.42120 0.41985 0.82182
 H1338 H 0.42881 0.42766 0.84388
 C1339 C 0.40038 0.39844 0.76541
 C1340 C 0.57914 0.57924 0.82176
 H1341 H 0.57098 0.57109 0.84350
 C1342 C 0.60105 0.60106 0.76589
 C1343 C 0.32291 0.42006 0.92072
 H1344 H 0.34500 0.42782 0.92832
 C1345 C 0.26646 0.39878 0.89986
 C1346 C 0.67784 0.57891 0.92146
 H1347 H 0.65574 0.57118 0.92906
 C1348 C 0.73463 0.59982 0.90107
 C1349 C 0.42232 0.32154 0.92136
 H1350 H 0.43005 0.34363 0.92896
 C1351 C 0.40144 0.26477 0.90101
 C1352 C 0.57871 0.67797 0.92075
 H1353 H 0.57093 0.65595 0.92852
 C1354 C 0.60010 0.73418 0.89941
 C1355 C 0.42114 0.57851 0.82129
 H1356 H 0.42898 0.57080 0.84331
 C1357 C 0.40002 0.59915 0.76468
 C1358 C 0.57959 0.42087 0.82144
 H1359 H 0.57165 0.42866 0.84339
 C1360 C 0.60100 0.40000 0.76503
 C1361 C 0.58029 0.32175 0.92104
 H1362 H 0.57256 0.34377 0.92883
 C1363 C 0.60149 0.26547 0.89962
 C1364 C 0.42079 0.67812 0.92094
 H1365 H 0.42897 0.65632 0.92890
 C1366 C 0.39880 0.73411 0.89958
 C1367 C 0.32255 0.57867 0.92046
 H1368 H 0.34437 0.57062 0.92853
 C1369 C 0.26686 0.60076 0.89839
 C1370 C 0.67828 0.42050 0.92099
 H1371 H 0.65656 0.42864 0.92922
 C1372 C 0.73367 0.39820 0.89839
 O1373 O 0.53027 0.39052 1.15199
 O1374 O 0.53049 0.35521 1.18755
 C1375 C 0.54071 0.37997 1.17673
 C1376 C 0.56544 0.39637 1.19261
 C1377 C 0.57608 0.38629 1.22098
 H1378 H 0.56578 0.36646 1.23118
 O1379 O 0.47107 0.61002 1.15137
 O1380 O 0.47086 0.64518 1.18705
 C1381 C 0.46070 0.62043 1.17621
 C1382 C 0.43612 0.60385 1.19219
 C1383 C 0.42549 0.61381 1.22062
 H1384 H 0.43567 0.63368 1.23085
 O1385 O 0.35001 0.52895 1.10996
 O1386 O 0.31441 0.52906 1.14523
 C1387 C 0.32518 0.53927 1.12048
 C1388 C 0.30905 0.56385 1.10413
 C1389 C 0.28062 0.57410 1.11433
 H1390 H 0.26997 0.56326 1.13371
 O1391 O 0.65200 0.47018 1.10992
 O1392 O 0.68743 0.47035 1.14535
 C1393 C 0.67666 0.45977 1.12074
 C1394 C 0.69242 0.43450 1.10503
 C1395 C 0.72008 0.42313 1.11621
 H1396 H 0.73059 0.43361 1.13586
 O1397 O 0.61039 0.34819 1.03029
 O1398 O 0.64570 0.31264 1.03026
 C1399 C 0.62100 0.32342 1.04066
 C1400 C 0.60476 0.30753 1.06557
 C1401 C 0.61478 0.27908 1.07615
 H1402 H 0.63442 0.26867 1.06569
 O1403 O 0.39035 0.65100 1.02985
 O1404 O 0.35470 0.68620 1.02996
 C1405 C 0.37947 0.67559 1.04034
 C1406 C 0.39538 0.69148 1.06542
 C1407 C 0.38463 0.71946 1.07643
 H1408 H 0.36555 0.73022 1.06527
 O1409 O 0.39127 0.46969 1.15202
 O1410 O 0.35575 0.46984 1.18735
 C1411 C 0.38047 0.45940 1.17674
 C1412 C 0.39644 0.43453 1.19284
 C1413 C 0.38558 0.42359 1.22080
 H1414 H 0.36552 0.43382 1.23064
 O1415 O 0.61034 0.52984 1.15098
 O1416 O 0.64568 0.53008 1.18651
 C1417 C 0.62097 0.54036 1.17566
 C1418 C 0.60484 0.56532 1.19145
 C1419 C 0.61495 0.57575 1.21987
 H1420 H 0.63363 0.56419 1.23091
 O1421 O 0.47115 0.34876 1.11051
 O1422 O 0.47122 0.31322 1.14584
 C1423 C 0.46082 0.32401 1.12115
 C1424 C 0.43592 0.30814 1.10501
 C1425 C 0.42523 0.27991 1.11533
 H1426 H 0.43588 0.26914 1.13476
 O1427 O 0.52991 0.65229 1.10986
 O1428 O 0.52986 0.68764 1.14535
 C1429 C 0.54025 0.67700 1.12061
 C1430 C 0.56518 0.69292 1.10452
 C1431 C 0.57637 0.72085 1.11521
 H1432 H 0.56599 0.73146 1.13485
 O1433 O 0.34974 0.39012 1.02979
 O1434 O 0.31428 0.35471 1.02987
 C1435 C 0.32500 0.37947 1.04014
 C1436 C 0.30901 0.39575 1.06487
 C1437 C 0.28061 0.38565 1.07541
 H1438 H 0.27039 0.36589 1.06501
 O1439 O 0.65088 0.61001 1.02999
 O1440 O 0.68648 0.64528 1.02969
 C1441 C 0.67576 0.62059 1.04012
 C1442 C 0.69197 0.60431 1.06472
 C1443 C 0.72038 0.61454 1.07501
 H1444 H 0.73100 0.63395 1.06418
 O1445 O 0.53027 0.61016 1.15088
 O1446 O 0.53015 0.64531 1.18658
 C1447 C 0.54062 0.62072 1.17565
 C1448 C 0.56556 0.60458 1.19146
 C1449 C 0.57604 0.61472 1.21983
 H1450 H 0.56523 0.63400 1.23069
 O1451 O 0.47102 0.38991 1.15250
 O1452 O 0.47113 0.35455 1.18801
 C1453 C 0.46066 0.37919 1.17724
 C1454 C 0.43563 0.39521 1.19307
 C1455 C 0.42443 0.38454 1.22101
 H1456 H 0.43485 0.36494 1.23169
 O1457 O 0.65197 0.52952 1.10944
 O1458 O 0.68748 0.52975 1.14479
 C1459 C 0.67668 0.54000 1.12005
 C1460 C 0.69250 0.56487 1.10379
 C1461 C 0.72086 0.57554 1.11390
 H1462 H 0.73113 0.56510 1.13361
 O1463 O 0.35019 0.46980 1.10984
 O1464 O 0.31454 0.46994 1.14506
 C1465 C 0.32534 0.45960 1.12037
 C1466 C 0.30925 0.43498 1.10408
 C1467 C 0.28081 0.42472 1.11420
 H1468 H 0.27008 0.43562 1.13350
 O1469 O 0.60951 0.65197 1.03002
 O1470 O 0.64497 0.68736 1.02972
 C1471 C 0.62029 0.67672 1.04024
 C1472 C 0.60431 0.69280 1.06512
 C1473 C 0.61516 0.72076 1.07608
 H1474 H 0.63519 0.73065 1.06583
 O1475 O 0.39142 0.34861 1.03011
 O1476 O 0.35612 0.31305 1.03016
 C1477 C 0.38077 0.32390 1.04056
 C1478 C 0.39679 0.30811 1.06560
 C1479 C 0.38647 0.27983 1.07620
 H1480 H 0.36775 0.26884 1.06468
 O1481 O 0.61020 0.47062 1.15135
 O1482 O 0.64549 0.47084 1.18694
 C1483 C 0.62076 0.46047 1.17622
 C1484 C 0.60451 0.43581 1.19235
 C1485 C 0.61470 0.42555 1.22078
 H1486 H 0.63399 0.43649 1.23150
 O1487 O 0.39190 0.52896 1.15135
 O1488 O 0.35643 0.52908 1.18675
 C1489 C 0.38121 0.53935 1.17604
 C1490 C 0.39735 0.56412 1.19203
 C1491 C 0.38716 0.57427 1.22047
 H1492 H 0.36799 0.56316 1.23124
 O1493 O 0.47061 0.65150 1.10966
 O1494 O 0.47042 0.68687 1.14513
 C1495 C 0.46004 0.67608 1.12044
 C1496 C 0.43487 0.69174 1.10450
 C1497 C 0.42382 0.71971 1.11515
 H1498 H 0.43446 0.73046 1.13458
 O1499 O 0.53041 0.34870 1.11059
 O1500 O 0.53055 0.31319 1.14594
 C1501 C 0.54082 0.32396 1.12120
 C1502 C 0.56556 0.30793 1.10495
 C1503 C 0.57586 0.27951 1.11514
 H1504 H 0.56499 0.26882 1.13448
 O1505 O 0.65206 0.38976 1.03032
 O1506 O 0.68756 0.35441 1.03035
 C1507 C 0.67674 0.37905 1.04079
 C1508 C 0.69242 0.39497 1.06601
 C1509 C 0.72006 0.38389 1.07757
 H1510 H 0.73077 0.36460 1.06673
 O1511 O 0.34920 0.60892 1.02959
 O1512 O 0.31339 0.64396 1.02965
 C1513 C 0.32436 0.61933 1.03996
 C1514 C 0.30856 0.60298 1.06477
 C1515 C 0.28017 0.61303 1.07540
 H1516 H 0.26986 0.63275 1.06500
 Cu1517 Cu 0.50070 0.37303 1.12787
 Cu1518 Cu 0.50090 0.33047 1.17039
 Cu1519 Cu 0.50048 0.62749 1.12686
 Cu1520 Cu 0.50029 0.66982 1.16959
 Cu1521 Cu 0.37422 0.37287 1.00032
 Cu1522 Cu 0.33178 0.33023 1.00036
 Cu1523 Cu 0.62765 0.37258 1.00065
 Cu1524 Cu 0.67020 0.33010 1.00058
 Cu1525 Cu 0.37342 0.62650 1.00008
 Cu1526 Cu 0.33055 0.66870 1.00014
 Cu1527 Cu 0.62643 0.62727 1.00044
 Cu1528 Cu 0.66909 0.66970 1.00005
 Cu1529 Cu 0.37443 0.49932 1.12727
 Cu1530 Cu 0.33172 0.49952 1.16967
 Cu1531 Cu 0.62761 0.50001 1.12684
 Cu1532 Cu 0.67010 0.50028 1.16944
 C1533 C 0.57959 0.42135 1.17867
 H1534 H 0.57183 0.42893 1.15657
 C1535 C 0.60053 0.40102 1.23543
 C1536 C 0.42212 0.57877 1.17827
 H1537 H 0.42986 0.57126 1.15615
 C1538 C 0.40115 0.59887 1.23510
 C1539 C 0.32264 0.57815 1.07907
 H1540 H 0.34474 0.57059 1.07132
 C1541 C 0.26584 0.59846 1.10002
 C1542 C 0.67891 0.42039 1.07979
 H1543 H 0.65735 0.42874 1.07134
 C1544 C 0.73383 0.39760 1.10297
 C1545 C 0.57991 0.32156 1.07991
 H1546 H 0.57231 0.34365 1.07218
 C1547 C 0.60017 0.26472 1.10078
 C1548 C 0.42063 0.67793 1.07950
 H1549 H 0.42874 0.65613 1.07147
 C1550 C 0.39852 0.73355 1.10158
 C1551 C 0.42171 0.42045 1.17940
 H1552 H 0.42993 0.42854 1.15766
 C1553 C 0.39966 0.39876 1.23525
 C1554 C 0.58001 0.57976 1.17753
 H1555 H 0.57236 0.57211 1.15543
 C1556 C 0.60092 0.60074 1.23404
 C1557 C 0.42166 0.32197 1.08002
 H1558 H 0.42945 0.34397 1.07223
 C1559 C 0.40031 0.26576 1.10137
 C1560 C 0.57907 0.67932 1.07923
 H1561 H 0.57086 0.65758 1.07114
 C1562 C 0.60111 0.73513 1.10097
 C1563 C 0.32296 0.42064 1.07913
 H1564 H 0.34507 0.42823 1.07143
 C1565 C 0.26614 0.40029 1.09992
 C1566 C 0.67843 0.57920 1.07898
 H1567 H 0.65636 0.57140 1.07138
 C1568 C 0.73519 0.60019 1.09936
 C1569 C 1.14132 1.14028 1.31855
 C1570 C 1.11141 1.13946 1.31252
 C1571 C 1.09809 1.12772 1.28395
 C1572 C 1.11305 1.11009 1.26407
 H1573 H 1.09564 1.14887 1.32888
 H1574 H 1.07455 1.13347 1.27998
 H1575 H 1.15749 1.13081 1.30269
 H1576 H 1.13568 1.10223 1.26945
 C1577 C 1.14004 0.64027 0.81877
 C1578 C 1.13870 0.61046 0.81251
 C1579 C 1.12677 0.59760 0.78381
 C1580 C 1.10941 0.61301 0.76400
 H1581 H 1.14781 0.59439 0.82876
 H1582 H 1.13215 0.57401 0.77966
 H1583 H 1.13089 0.65672 0.80301
 H1584 H 1.10182 0.63569 0.76954
 C1585 C 0.63719 1.13692 0.82293
 C1586 C 0.65334 1.12208 0.80173
 C1587 C 0.64081 1.10883 0.77347
 C1588 C 0.61200 1.11194 0.76384
 H1589 H 0.67765 1.11981 0.80471
 H1590 H 0.65711 1.09702 0.75940
 H1591 H 0.61303 1.14018 0.82018
 H1592 H 0.59606 1.12541 0.77674
 C1593 C 0.63537 0.63468 1.32434
 C1594 C 0.65243 0.62356 1.30162
 C1595 C 0.64042 0.61029 1.27318
 C1596 C 0.61159 0.61296 1.26357
 H1597 H 0.67693 0.62406 1.30369
 H1598 H 0.65705 0.59924 1.25887
 H1599 H 0.61089 0.63504 1.32251
 H1600 H 0.59548 0.62619 1.27653
 C1601 C 0.86167 0.86118 1.32126
 C1602 C 0.86381 0.89083 1.31445
 C1603 C 0.87469 0.90296 1.28501
 C1604 C 0.89066 0.88686 1.26462
 H1605 H 0.85617 0.90736 1.33098
 H1606 H 0.87001 0.92671 1.28086
 H1607 H 0.86901 0.84414 1.30519
 H1608 H 0.89764 0.86393 1.27001
 C1609 C 0.86115 0.35839 0.82041
 C1610 C 0.84688 0.37867 0.80260
 C1611 C 0.85914 0.39093 0.77374
 C1612 C 0.88805 0.38802 0.76426
 H1613 H 0.82410 0.38588 0.80838
 H1614 H 0.84285 0.40276 0.75966
 H1615 H 0.88309 0.34961 0.81372
 H1616 H 0.90432 0.37566 0.77786
 C1617 C 0.36551 0.86482 0.82459
 C1618 C 0.37467 0.84782 0.80099
 C1619 C 0.38822 0.85986 0.77272
 C1620 C 0.38630 0.88889 0.76363
 H1621 H 0.37246 0.82336 0.80231
 H1622 H 0.39873 0.84320 0.75803
 H1623 H 0.36724 0.88925 0.82356
 H1624 H 0.37337 0.90506 0.77685
 C1625 C 0.36493 0.36176 1.32431
 C1626 C 0.35826 0.38914 1.31257
 C1627 C 0.37182 0.40183 1.28446
 C1628 C 0.38782 0.38572 1.26403
 H1629 H 0.34229 0.40371 1.32427
 H1630 H 0.36752 0.42568 1.28046
 H1631 H 0.38243 0.34799 1.31395
 H1632 H 0.39271 0.36202 1.26812
 C1633 C 0.86301 1.13809 0.67784
 C1634 C 0.87371 1.15432 0.70132
 C1635 C 0.88807 1.14141 0.72882
 C1636 C 0.88634 1.11214 0.73720
 H1637 H 0.87218 1.17886 0.70043
 H1638 H 0.89906 1.15764 0.74364
 H1639 H 0.86392 1.11356 0.67815
 H1640 H 0.87309 1.09633 0.72386
 C1641 C 0.86029 0.63779 0.17869
 C1642 C 0.88964 0.63930 0.18693
 C1643 C 0.90216 0.62779 0.21600
 C1644 C 0.88668 0.61077 0.23606
 H1645 H 0.90570 0.65018 0.17179
 H1646 H 0.92567 0.63341 0.22033
 H1647 H 0.84385 0.62674 0.19317
 H1648 H 0.86392 0.60329 0.23076
 C1649 C 0.36553 1.13783 0.17658
 C1650 C 0.35874 1.11042 0.18818
 C1651 C 0.37207 1.09761 0.21634
 C1652 C 0.38781 1.11367 0.23699
 H1653 H 0.34284 1.09590 0.17631
 H1654 H 0.36779 1.07373 0.22019
 H1655 H 0.38298 1.15155 0.18711
 H1656 H 0.39264 1.13741 0.23308
 C1657 C 0.36012 0.63789 0.67884
 C1658 C 0.38958 0.63918 0.68670
 C1659 C 0.40234 0.62750 0.71559
 C1660 C 0.38719 0.60984 0.73535
 H1661 H 0.40550 0.65011 0.67145
 H1662 H 0.42574 0.63349 0.72000
 H1663 H 0.34379 0.62691 0.69351
 H1664 H 0.36462 0.60194 0.72983
 C1665 C 1.13580 0.86495 0.67546
 C1666 C 1.15284 0.87613 0.69816
 C1667 C 1.14080 0.88951 0.72653
 C1668 C 1.11198 0.88681 0.73614
 H1669 H 1.17735 0.87559 0.69612
 H1670 H 1.15740 0.90065 0.74081
 H1671 H 1.11131 0.86464 0.67725
 H1672 H 1.09591 0.87347 0.72323
 C1673 C 1.14136 0.36144 0.17868
 C1674 C 1.12151 0.34722 0.19698
 C1675 C 1.10938 0.35982 0.22573
 C1676 C 1.11253 0.38876 0.23503
 H1677 H 1.11456 0.32425 0.19168
 H1678 H 1.09750 0.34370 0.23995
 H1679 H 1.14986 0.38365 0.18480
 H1680 H 1.12507 0.40487 0.22141
 C1681 C 0.63644 0.86495 0.17619
 C1682 C 0.65322 0.87607 0.19910
 C1683 C 0.64081 0.88947 0.22731
 C1684 C 0.61194 0.88648 0.23675
 H1685 H 0.67775 0.87549 0.19735
 H1686 H 0.65719 0.90085 0.24166
 H1687 H 0.61193 0.86477 0.17768
 H1688 H 0.59614 0.87286 0.22381
 C1689 C 0.64099 0.36128 0.67914
 C1690 C 0.61156 0.35988 0.68711
 C1691 C 0.59879 0.37166 0.71596
 C1692 C 0.61396 0.38919 0.73581
 H1693 H 0.59564 0.34885 0.67195
 H1694 H 0.57533 0.36582 0.72028
 H1695 H 0.65732 0.37242 0.69368
 H1696 H 0.63663 0.39690 0.73043
 C1697 C 1.32237 1.13781 1.13917
 C1698 C 1.31574 1.13598 1.10945
 C1699 C 1.28634 1.12537 1.09699
 C1700 C 1.26565 1.10957 1.11286
 H1701 H 1.33240 1.14376 1.09310
 H1702 H 1.28245 1.13013 1.07320
 H1703 H 1.30620 1.13030 1.15606
 H1704 H 1.27074 1.10256 1.13584
 C1705 C 1.32099 0.63990 0.63802
 C1706 C 1.31297 0.61049 0.63943
 C1707 C 1.28399 0.59783 0.62785
 C1708 C 1.26418 0.61306 0.61032
 H1709 H 1.32818 0.59452 0.65034
 H1710 H 1.27955 0.57444 0.63383
 H1711 H 1.30638 0.65627 0.62703
 H1712 H 1.26970 0.63564 0.60246
 C1713 C 0.82161 1.14028 0.63850
 C1714 C 0.80369 1.12017 0.65288
 C1715 C 0.77472 1.10804 0.64076
 C1716 C 0.76502 1.11114 0.61195
 H1717 H 0.80949 1.11299 0.67567
 H1718 H 0.76072 1.09618 0.65709
 H1719 H 0.81496 1.14901 0.61653
 H1720 H 0.77850 1.12358 0.59564
 C1721 C 0.82146 0.63962 1.13760
 C1722 C 0.81350 0.61020 1.13887
 C1723 C 0.78457 0.59756 1.12718
 C1724 C 0.76458 0.61293 1.10996
 H1725 H 0.82873 0.59422 1.14973
 H1726 H 0.78027 0.57406 1.13285
 H1727 H 0.80688 0.65602 1.12662
 H1728 H 0.76991 0.63566 1.10241
 C1729 C 1.32335 0.86172 0.86225
 C1730 C 1.31624 0.89137 0.86344
 C1731 C 1.28651 0.90344 0.87366
 C1732 C 1.26629 0.88764 0.89018
 H1733 H 1.33268 0.90805 0.85604
 H1734 H 1.28209 0.92698 0.86821
 H1735 H 1.30695 0.84488 0.86933
 H1736 H 1.27200 0.86503 0.89789
 C1737 C 1.32147 0.36188 0.36138
 C1738 C 1.31453 0.36377 0.39103
 C1739 C 1.28507 0.37458 0.40320
 C1740 C 1.26462 0.39056 0.38717
 H1741 H 1.33100 0.35597 0.40757
 H1742 H 1.28094 0.36986 0.42696
 H1743 H 1.30548 0.36942 0.34434
 H1744 H 1.26995 0.39753 0.36423
 C1745 C 0.82368 0.86495 0.36400
 C1746 C 0.80073 0.87602 0.34724
 C1747 C 0.77244 0.88927 0.35965
 C1748 C 0.76304 0.88630 0.38854
 H1749 H 0.80249 0.87549 0.32272
 H1750 H 0.75802 0.90054 0.34326
 H1751 H 0.82218 0.86471 0.38850
 H1752 H 0.77607 0.87278 0.40436
 C1753 C 0.82183 0.36050 0.86184
 C1754 C 0.79836 0.34433 0.87270
 C1755 C 0.77091 0.35733 0.88710
 C1756 C 0.76245 0.38658 0.88516
 H1757 H 0.79922 0.31979 0.87127
 H1758 H 0.75618 0.34116 0.89830
 H1759 H 0.82153 0.38504 0.86268
 H1760 H 0.77569 0.40230 0.87171
 C1761 C 0.67916 0.86107 1.13818
 C1762 C 0.68605 0.89072 1.13616
 C1763 C 0.71554 0.90283 1.12538
 C1764 C 0.73592 0.88675 1.10937
 H1765 H 0.66956 0.90727 1.14387
 H1766 H 0.71974 0.92655 1.13015
 H1767 H 0.69518 0.84402 1.13077
 H1768 H 0.73049 0.86386 1.10231
 C1769 C 0.68003 0.35921 0.63818
 C1770 C 0.68801 0.38864 0.63946
 C1771 C 0.71688 0.40137 0.62764
 C1772 C 0.73690 0.38606 0.61042
 H1773 H 0.67281 0.40460 0.65037
 H1774 H 0.72107 0.42492 0.63319
 H1775 H 0.69458 0.34285 0.62710
 H1776 H 0.73170 0.36326 0.60301
 C1777 C 0.17807 0.86150 0.63702
 C1778 C 0.18473 0.89121 0.63507
 C1779 C 0.21416 0.90354 0.62443
 C1780 C 0.23468 0.88757 0.60852
 H1781 H 0.16813 0.90761 0.64285
 H1782 H 0.21825 0.92727 0.62928
 H1783 H 0.19421 0.84457 0.62957
 H1784 H 0.22937 0.86468 0.60138
 C1785 C 0.18193 0.35973 1.14044
 C1786 C 0.18821 0.36053 1.11060
 C1787 C 0.21696 0.37214 1.09754
 C1788 C 0.23679 0.38967 1.11268
 H1789 H 0.17193 0.35121 1.09469
 H1790 H 0.22111 0.36638 1.07404
 H1791 H 0.19771 0.36911 1.15674
 H1792 H 0.23124 0.39756 1.13525
 C1793 C 0.67764 1.13609 0.86271
 C1794 C 0.69915 1.15228 0.87702
 C1795 C 0.72740 1.13967 0.89024
 C1796 C 0.73710 1.11093 0.88680
 H1797 H 0.69639 1.17665 0.87894
 H1798 H 0.74142 1.15589 0.90221
 H1799 H 0.68009 1.11183 0.85993
 H1800 H 0.72430 1.09517 0.87302
 C1801 C 0.67767 0.63803 0.36276
 C1802 C 0.68436 0.60833 0.36470
 C1803 C 0.71381 0.59605 0.37534
 C1804 C 0.73427 0.61205 0.39130
 H1805 H 0.66777 0.59191 0.35693
 H1806 H 0.71796 0.57234 0.37044
 H1807 H 0.69379 0.65498 0.37019
 H1808 H 0.72887 0.63491 0.39847
 C1809 C 0.17999 1.13896 0.35877
 C1810 C 0.19835 1.15331 0.37847
 C1811 C 0.22722 1.14084 0.39051
 C1812 C 0.23657 1.11190 0.38751
 H1813 H 0.19300 1.17628 0.38537
 H1814 H 0.24146 1.15706 0.40224
 H1815 H 0.18616 1.11675 0.35031
 H1816 H 0.22290 1.09571 0.37515
 C1817 C 0.17837 0.63701 0.86127
 C1818 C 0.20165 0.62601 0.84493
 C1819 C 0.22925 0.61172 0.85776
 C1820 C 0.23791 0.61374 0.88694
 H1821 H 0.20058 0.62733 0.82039
 H1822 H 0.24390 0.60057 0.84149
 H1823 H 0.17888 0.63629 0.88580
 H1824 H 0.22469 0.62711 0.90273
 C1825 C 1.13938 1.32143 1.13790
 C1826 C 1.15571 1.29806 1.12710
 C1827 C 1.14293 1.27039 1.11293
 C1828 C 1.11370 1.26185 1.11469
 H1829 H 1.18026 1.29915 1.12838
 H1830 H 1.15924 1.25564 1.10198
 H1831 H 1.11484 1.32088 1.13728
 H1832 H 1.09780 1.27516 1.12786
 C1833 C 1.13486 0.82419 0.63732
 C1834 C 1.14160 0.81248 0.60995
 C1835 C 1.12826 0.78425 0.59733
 C1836 C 1.11260 0.76366 0.61355
 H1837 H 1.15748 0.82427 0.59535
 H1838 H 1.13247 0.78027 0.57345
 H1839 H 1.11743 0.81373 0.65112
 H1840 H 1.10782 0.76768 0.63728
 C1841 C 0.63909 1.32019 0.64029
 C1842 C 0.64031 1.31219 0.61088
 C1843 C 0.62854 1.28328 0.59825
 C1844 C 0.61111 1.26343 0.61355
 H1845 H 0.65116 1.32739 0.59486
 H1846 H 0.63429 1.27892 0.57478
 H1847 H 0.62814 1.30560 0.65671
 H1848 H 0.60346 1.26886 0.63623
 C1849 C 0.63563 0.82412 1.13815
 C1850 C 0.64237 0.81245 1.11076
 C1851 C 0.62883 0.78440 1.09798
 C1852 C 0.61294 0.76387 1.11406
 H1853 H 0.65839 0.82418 1.09625
 H1854 H 0.63308 0.78050 1.07410
 H1855 H 0.61807 0.81375 1.15184
 H1856 H 0.60814 0.76783 1.13780
 C1857 C 0.85996 1.31778 0.85874
 C1858 C 0.86085 1.31136 0.88856
 C1859 C 0.87265 1.28265 0.90155
 C1860 C 0.89011 1.26277 0.88636
 H1861 H 0.85153 1.32755 0.90455
 H1862 H 0.86715 1.27856 0.92514
 H1863 H 0.86939 1.30211 0.84237
 H1864 H 0.89775 1.26819 0.86366
 C1865 C 0.86183 0.82420 0.36473
 C1866 C 0.88922 0.81257 0.35790
 C1867 C 0.90201 0.78447 0.37133
 C1868 C 0.88583 0.76376 0.38686
 H1869 H 0.90371 0.82436 0.34191
 H1870 H 0.92594 0.78067 0.36726
 H1871 H 0.84819 0.81379 0.38231
 H1872 H 0.86201 0.76759 0.39144
 C1873 C 0.36423 1.32392 0.36532
 C1874 C 0.34751 1.30092 0.37634
 C1875 C 0.35998 1.27274 0.38978
 C1876 C 0.38892 1.26344 0.38696
 H1877 H 0.32297 1.30257 0.37565
 H1878 H 0.34360 1.25830 0.40104
 H1879 H 0.38875 1.32252 0.36523
 H1880 H 0.40475 1.27648 0.37344
 C1881 C 0.36654 0.82423 0.86392
 C1882 C 0.35736 0.81126 0.88998
 C1883 C 0.37090 0.78329 0.90290
 C1884 C 0.38695 0.76295 0.88674
 H1885 H 0.33956 0.82174 0.90328
 H1886 H 0.36626 0.77917 0.92666
 H1887 H 0.38630 0.81515 0.85252
 H1888 H 0.39166 0.76712 0.86299
 C1889 C 1.13917 0.67857 0.85930
 C1890 C 1.15362 0.69638 0.87944
 C1891 C 1.14153 0.72536 0.89152
 C1892 C 1.11265 0.73491 0.88863
 H1893 H 1.17640 0.69054 0.88658
 H1894 H 1.15793 0.73948 0.90315
 H1895 H 1.11723 0.68533 0.85058
 H1896 H 1.09625 0.72127 0.87650
 C1897 C 1.13902 0.17881 0.36089
 C1898 C 1.12798 0.20207 0.34453
 C1899 C 1.11373 0.22972 0.35727
 C1900 C 1.11532 0.23823 0.38651
 H1901 H 1.12913 0.20089 0.31999
 H1902 H 1.10282 0.24449 0.34093
 H1903 H 1.13858 0.17944 0.38542
 H1904 H 1.12838 0.22488 0.40247
 C1905 C 0.63436 0.67521 0.36276
 C1906 C 0.64113 0.68674 0.39021
 C1907 C 0.62784 0.71490 0.40301
 C1908 C 0.61236 0.73568 0.38686
 H1909 H 0.65701 0.67484 0.40473
 H1910 H 0.63196 0.71868 0.42693
 H1911 H 0.61691 0.68574 0.34906
 H1912 H 0.60772 0.73186 0.36306
 C1913 C 0.63803 0.17666 0.86341
 C1914 C 0.62369 0.19815 0.84720
 C1915 C 0.61058 0.22646 0.85976
 C1916 C 0.61384 0.23609 0.88855
 H1917 H 0.62168 0.19532 0.82285
 H1918 H 0.59879 0.24058 0.84348
 H1919 H 0.64098 0.17921 0.88764
 H1920 H 0.62739 0.22317 0.90442
 C1921 C 0.86249 0.67849 1.13940
 C1922 C 0.86119 0.68629 1.10993
 C1923 C 0.87283 0.71517 1.09710
 C1924 C 0.89025 0.73509 1.11227
 H1925 H 0.85030 0.67100 1.09404
 H1926 H 0.86696 0.71944 1.07364
 H1927 H 0.87345 0.69318 1.15571
 H1928 H 0.89800 0.72974 1.13493
 C1929 C 0.86020 0.18067 0.63960
 C1930 C 0.89004 0.18710 0.63907
 C1931 C 0.90313 0.21588 0.62757
 C1932 C 0.88809 0.23572 0.60995
 H1933 H 0.90594 0.17091 0.64855
 H1934 H 0.92660 0.22007 0.63348
 H1935 H 0.84391 0.19636 0.63002
 H1936 H 0.86555 0.23017 0.60192
 C1937 C 0.36192 0.67893 0.63995
 C1938 C 0.36052 0.68699 0.61056
 C1939 C 0.37219 0.71595 0.59792
 C1940 C 0.38955 0.73583 0.61324
 H1941 H 0.34959 0.67182 0.59457
 H1942 H 0.36641 0.72032 0.57446
 H1943 H 0.37296 0.69347 0.65634
 H1944 H 0.39720 0.73042 0.63592
 C1945 C 0.36492 0.17599 1.13580
 C1946 C 0.34810 0.19884 1.12459
 C1947 C 0.36041 0.22707 1.11116
 C1948 C 0.38933 0.23642 1.11381
 H1949 H 0.32357 0.19700 1.12511
 H1950 H 0.34394 0.24149 1.09998
 H1951 H 0.38942 0.17756 1.13614
 H1952 H 0.40529 0.22340 1.12718
 C1953 C 1.13855 1.13554 0.67572
 C1954 C 1.11116 1.14200 0.68753
 C1955 C 1.09864 1.12837 0.71568
 C1956 C 1.11486 1.11239 0.73606
 H1957 H 1.09643 1.15785 0.67584
 H1958 H 1.07478 1.13259 0.71975
 H1959 H 1.15250 1.11818 0.68608
 H1960 H 1.13856 1.10754 0.73190
 C1961 C 1.14098 0.63828 0.17877
 C1962 C 1.12086 0.65274 0.19659
 C1963 C 1.10868 0.64066 0.22555
 C1964 C 1.11156 0.61180 0.23515
 H1965 H 1.11377 0.67555 0.19077
 H1966 H 1.09700 0.65705 0.23962
 H1967 H 1.14963 0.61631 0.18548
 H1968 H 1.12378 0.59541 0.22157
 C1969 C 0.63919 1.13518 0.17663
 C1970 C 0.61173 1.14186 0.18818
 C1971 C 0.59884 1.12841 0.21626
 C1972 C 0.61478 1.11245 0.23686
 H1973 H 0.59720 1.15776 0.17631
 H1974 H 0.57497 1.13277 0.22008
 H1975 H 0.65295 1.11777 0.18716
 H1976 H 0.63850 1.10750 0.23294
 C1977 C 0.63834 0.63502 0.67666
 C1978 C 0.61089 0.64173 0.68824
 C1979 C 0.59810 0.62838 0.71639
 C1980 C 0.61420 0.61274 0.73710
 H1981 H 0.59633 0.65758 0.67636
 H1982 H 0.57419 0.63256 0.72020
 H1983 H 0.65211 0.61762 0.68719
 H1984 H 0.63797 0.60800 0.73322
 C1985 C 0.86556 0.86442 0.67593
 C1986 C 0.87744 0.84744 0.69834
 C1987 C 0.89099 0.85945 0.72665
 C1988 C 0.88855 0.88830 0.73622
 H1989 H 0.87729 0.82295 0.69614
 H1990 H 0.90210 0.84281 0.74092
 H1991 H 0.86474 0.88887 0.67791
 H1992 H 0.87538 0.90448 0.72328
 C1993 C 0.86061 0.35745 0.18125
 C1994 C 0.84777 0.38029 0.19691
 C1995 C 0.85971 0.39247 0.22588
 C1996 C 0.88843 0.38902 0.23571
 H1997 H 0.82627 0.38961 0.18953
 H1998 H 0.84347 0.40488 0.23949
 H1999 H 0.88070 0.34667 0.19036
 H2000 H 0.90459 0.37640 0.22219
 C2001 C 0.35974 0.86151 0.17931
 C2002 C 0.37956 0.84701 0.19743
 C2003 C 0.39160 0.85917 0.22642
 C2004 C 0.38865 0.88804 0.23596
 H2005 H 0.38654 0.82412 0.19181
 H2006 H 0.40323 0.84281 0.24057
 H2007 H 0.35120 0.88360 0.18578
 H2008 H 0.37643 0.90440 0.22233
 C2009 C 0.35893 0.36073 0.67959
 C2010 C 0.37914 0.34641 0.69744
 C2011 C 0.39138 0.35863 0.72631
 C2012 C 0.38844 0.38751 0.73580
 H2013 H 0.38632 0.32362 0.69168
 H2014 H 0.40320 0.34234 0.74039
 H2015 H 0.35018 0.38268 0.68625
 H2016 H 0.37608 0.40380 0.72222
 C2017 C 1.14159 0.85844 1.31659
 C2018 C 1.11157 0.86049 1.31152
 C2019 C 1.09805 0.87215 1.28301
 C2020 C 1.11293 0.88994 1.26321
 H2021 H 1.09583 0.85239 1.32858
 H2022 H 1.07450 0.86638 1.27910
 H2023 H 1.15732 0.86663 1.29969
 H2024 H 1.13548 0.89798 1.26874
 C2025 C 1.13697 0.36288 0.82334
 C2026 C 1.15314 0.37761 0.80208
 C2027 C 1.14056 0.39100 0.77389
 C2028 C 1.11181 0.38766 0.76416
 H2029 H 1.17748 0.37969 0.80497
 H2030 H 1.15680 0.40302 0.75993
 H2031 H 1.11275 0.35988 0.82072
 H2032 H 1.09600 0.37392 0.77695
 C2033 C 0.63494 0.86199 0.82451
 C2034 C 0.64173 0.88933 0.81277
 C2035 C 0.62833 0.90201 0.78459
 C2036 C 0.61245 0.88587 0.76409
 H2037 H 0.65772 0.90386 0.82449
 H2038 H 0.63268 0.92585 0.78056
 H2039 H 0.61741 0.84827 0.81413
 H2040 H 0.60751 0.86218 0.76818
 C2041 C 0.64109 0.35978 1.31926
 C2042 C 0.61122 0.36094 1.31318
 C2043 C 0.59815 0.37279 1.28455
 C2044 C 0.61333 0.39034 1.26474
 H2045 H 0.59531 0.35173 1.32952
 H2046 H 0.57459 0.36718 1.28045
 H2047 H 0.65740 0.36902 1.30340
 H2048 H 0.63596 0.39813 1.27026
 C2049 C 0.85901 1.13977 1.32009
 C2050 C 0.84305 1.12940 1.29624
 C2051 C 0.85632 1.11434 1.26924
 C2052 C 0.88572 1.11583 1.26123
 H2053 H 0.81862 1.13185 1.29604
 H2054 H 0.84027 1.10318 1.25436
 H2055 H 0.88348 1.13763 1.32039
 H2056 H 0.90135 1.12933 1.27454
 C2057 C 0.86118 0.63745 0.82180
 C2058 C 0.84474 0.62676 0.79846
 C2059 C 0.85746 0.61264 0.77076
 C2060 C 0.88657 0.61495 0.76193
 H2061 H 0.82020 0.62813 0.79961
 H2062 H 0.84119 0.60140 0.75617
 H2063 H 0.88572 0.63661 0.82123
 H2064 H 0.90231 0.62848 0.77507
 C2065 C 0.36324 1.13809 0.82223
 C2066 C 0.37373 1.15434 0.79867
 C2067 C 0.38770 1.14140 0.77101
 C2068 C 0.38545 1.11222 0.76245
 H2069 H 0.37232 1.17888 0.79962
 H2070 H 0.39884 1.15758 0.75623
 H2071 H 0.36407 1.11356 0.82186
 H2072 H 0.37200 1.09653 0.77574
 C2073 C 0.36017 0.63871 1.31943
 C2074 C 0.39003 0.63824 1.31312
 C2075 C 0.40323 0.62683 1.28437
 C2076 C 0.38824 0.60932 1.26442
 H2077 H 0.40586 0.64775 1.32936
 H2078 H 0.42671 0.63275 1.28027
 H2079 H 0.34395 0.62912 1.30370
 H2080 H 0.36568 0.60128 1.26987
 C2081 C 1.13763 1.32288 0.86355
 C2082 C 1.12318 1.30157 0.84721
 C2083 C 1.11001 1.27320 0.85960
 C2084 C 1.11343 1.26332 0.88828
 H2085 H 1.12118 1.30457 0.82288
 H2086 H 1.09812 1.25924 0.84326
 H2087 H 1.14052 1.32018 0.88776
 H2088 H 1.12706 1.27612 0.90417
 C2089 C 1.13995 0.81884 0.35710
 C2090 C 1.15240 0.80330 0.38021
 C2091 C 1.14029 0.77432 0.39219
 C2092 C 1.11159 0.76453 0.38834
 H2093 H 1.17368 0.81077 0.38995
 H2094 H 1.15635 0.76069 0.40480
 H2095 H 1.12012 0.80958 0.34598
 H2096 H 1.09560 0.77807 0.37552
 C2097 C 0.63844 1.32142 0.36177
 C2098 C 0.62747 1.29811 0.34547
 C2099 C 0.61335 1.27043 0.35831
 C2100 C 0.61534 1.26181 0.38751
 H2101 H 0.62862 1.29923 0.32092
 H2102 H 0.60227 1.25573 0.34204
 H2103 H 0.63793 1.32084 0.38631
 H2104 H 0.62864 1.27507 0.40333
 C2105 C 0.63568 0.82400 0.86539
 C2106 C 0.65248 0.80099 0.87629
 C2107 C 0.64009 0.77278 0.88970
 C2108 C 0.61115 0.76349 0.88699
 H2109 H 0.67700 0.80266 0.87552
 H2110 H 0.65653 0.75832 0.90086
 H2111 H 0.61116 0.82259 0.86536
 H2112 H 0.59526 0.77655 0.87357
 C2113 C 0.85902 1.31675 1.14179
 C2114 C 0.88903 1.31187 1.13936
 C2115 C 0.90255 1.28347 1.12747
 C2116 C 0.88763 1.26366 1.10971
 H2117 H 0.90475 1.32904 1.14727
 H2118 H 0.92617 1.27965 1.13302
 H2119 H 0.84331 1.29972 1.13385
 H2120 H 0.86499 1.26912 1.10187
 C2121 C 0.86212 0.82218 0.63748
 C2122 C 0.89185 0.81586 0.63496
 C2123 C 0.90420 0.78653 0.62413
 C2124 C 0.88818 0.76613 0.60813
 H2125 H 0.90824 0.83261 0.64243
 H2126 H 0.92795 0.78243 0.62891
 H2127 H 0.84522 0.80584 0.63039
 H2128 H 0.86529 0.77153 0.60101
 C2129 C 0.36105 1.32141 0.63820
 C2130 C 0.34485 1.29795 0.62740
 C2131 C 0.35784 1.27043 0.61314
 C2132 C 0.38707 1.26190 0.61523
 H2133 H 0.32030 1.29885 0.62879
 H2134 H 0.34167 1.25572 0.60191
 H2135 H 0.38559 1.32107 0.63737
 H2136 H 0.40275 1.27514 0.62873
 C2137 C 0.36175 0.82202 1.13804
 C2138 C 0.34530 0.79884 1.12698
 C2139 C 0.35798 0.77117 1.11271
 C2140 C 0.38717 0.76253 1.11452
 H2141 H 0.32076 0.80007 1.12819
 H2142 H 0.34162 0.75651 1.10170
 H2143 H 0.38629 0.82135 1.13749
 H2144 H 0.40309 0.77578 1.12771
 C2145 C 0.85943 0.67864 0.86137
 C2146 C 0.87954 0.69654 0.84699
 C2147 C 0.89181 0.72538 0.85923
 C2148 C 0.88878 0.73493 0.88808
 H2149 H 0.88660 0.69085 0.82414
 H2150 H 0.90369 0.73943 0.84295
 H2151 H 0.85082 0.68519 0.88341
 H2152 H 0.87634 0.72142 0.90436
 C2153 C 0.85749 0.18139 0.35937
 C2154 C 0.88023 0.19721 0.34654
 C2155 C 0.89240 0.22613 0.35865
 C2156 C 0.88891 0.23583 0.38741
 H2157 H 0.88948 0.19001 0.32496
 H2158 H 0.90485 0.23982 0.34251
 H2159 H 0.84677 0.19035 0.37954
 H2160 H 0.87624 0.22226 0.40350
 C2161 C 0.36274 0.67706 0.36187
 C2162 C 0.37335 0.70053 0.34556
 C2163 C 0.38759 0.72810 0.35839
 C2164 C 0.38588 0.73650 0.38765
 H2165 H 0.37183 0.69958 0.32103
 H2166 H 0.39850 0.74294 0.34211
 H2167 H 0.36361 0.67742 0.38640
 H2168 H 0.37271 0.72314 0.40351
 C2169 C 0.36067 0.18063 0.86052
 C2170 C 0.39052 0.18696 0.86110
 C2171 C 0.40364 0.21567 0.87272
 C2172 C 0.38860 0.23546 0.89039
 H2173 H 0.40639 0.17076 0.85159
 H2174 H 0.42712 0.21984 0.86683
 H2175 H 0.34442 0.19634 0.87009
 H2176 H 0.36606 0.22990 0.89839
 C2177 C 1.13915 0.67762 1.13734
 C2178 C 1.15558 0.70094 1.12658
 C2179 C 1.14287 0.72861 1.11233
 C2180 C 1.11368 0.73725 1.11419
 H2181 H 1.18012 0.69983 1.12803
 H2182 H 1.15922 0.74331 1.10135
 H2183 H 1.11462 0.67815 1.13649
 H2184 H 1.09779 0.72398 1.12742
 C2185 C 1.13808 0.17896 0.63855
 C2186 C 1.13636 0.18596 0.60889
 C2187 C 1.12571 0.21547 0.59667
 C2188 C 1.11000 0.23608 0.61271
 H2189 H 1.14423 0.16952 0.59237
 H2190 H 1.13037 0.21951 0.57289
 H2191 H 1.13042 0.19488 0.65558
 H2192 H 1.10311 0.23089 0.63571
 C2193 C 0.63815 0.67825 0.63938
 C2194 C 0.63591 0.68483 0.60968
 C2195 C 0.62516 0.71423 0.59737
 C2196 C 0.60935 0.73479 0.61339
 H2197 H 0.64348 0.66817 0.59324
 H2198 H 0.62981 0.71824 0.57358
 H2199 H 0.63088 0.69443 0.65634
 H2200 H 0.60238 0.72955 0.63636
 C2201 C 0.63916 0.17848 1.13939
 C2202 C 0.63716 0.18522 1.10970
 C2203 C 0.62645 0.21465 1.09738
 C2204 C 0.61056 0.23519 1.11336
 H2205 H 0.64485 0.16863 1.09324
 H2206 H 0.63117 0.21869 1.07362
 H2207 H 0.63173 0.19459 1.15635
 H2208 H 0.60357 0.22993 1.13632
 C2209 C 1.32207 1.14032 0.86176
 C2210 C 1.30394 1.12047 0.84733
 C2211 C 1.27496 1.10850 0.85953
 C2212 C 1.26546 1.11145 0.88841
 H2213 H 1.30954 1.11344 0.82446
 H2214 H 1.26078 1.09688 0.84319
 H2215 H 1.31562 1.14893 0.88383
 H2216 H 1.27910 1.12367 0.90475
 C2217 C 1.32137 0.63771 0.35961
 C2218 C 1.30334 0.65218 0.37954
 C2219 C 1.27425 0.64016 0.39146
 C2220 C 1.26451 0.61138 0.38833
 H2221 H 1.30913 0.67497 0.38670
 H2222 H 1.26019 0.65655 0.40317
 H2223 H 1.31475 0.61574 0.35090
 H2224 H 1.27805 0.59501 0.37604
 C2225 C 0.81685 1.14195 0.35791
 C2226 C 0.81223 1.13936 0.38796
 C2227 C 0.78386 1.12763 0.40170
 C2228 C 0.76386 1.10998 0.38691
 H2229 H 0.82963 1.14703 0.40355
 H2230 H 0.78026 1.13311 0.42537
 H2231 H 0.79955 1.13434 0.34233
 H2232 H 0.76912 1.10222 0.36420
 C2233 C 0.81887 0.64029 0.86033
 C2234 C 0.81254 0.61046 0.86122
 C2235 C 0.78385 0.59742 0.87301
 C2236 C 0.76393 0.61264 0.89038
 H2237 H 0.82874 0.59452 0.85184
 H2238 H 0.77979 0.57385 0.86748
 H2239 H 0.80320 0.65664 0.86982
 H2240 H 0.76934 0.63533 0.89805
 C2241 C 1.31953 0.86064 1.14061
 C2242 C 1.31348 0.86164 1.11072
 C2243 C 1.28487 0.87336 1.09748
 C2244 C 1.26487 0.89074 1.11257
 H2245 H 1.32984 0.85232 1.09489
 H2246 H 1.28092 0.86776 1.07391
 H2247 H 1.30368 0.87003 1.15684
 H2248 H 1.27020 0.89850 1.13525
 C2249 C 1.31842 0.35963 0.64116
 C2250 C 1.31209 0.36054 0.61133
 C2251 C 1.28344 0.37240 0.59825
 C2252 C 1.26348 0.38980 0.61342
 H2253 H 1.32831 0.35120 0.59538
 H2254 H 1.27946 0.36697 0.57464
 H2255 H 1.30272 0.36910 0.65749
 H2256 H 1.26880 0.39736 0.63616
 C2257 C 0.82461 0.86515 0.63785
 C2258 C 0.81293 0.85831 0.61048
 C2259 C 0.78459 0.87139 0.59783
 C2260 C 0.76385 0.88683 0.61405
 H2261 H 0.82483 0.84251 0.59589
 H2262 H 0.78066 0.86718 0.57395
 H2263 H 0.81405 0.88252 0.65163
 H2264 H 0.76782 0.89158 0.63780
 C2265 C 0.82131 0.35889 1.13971
 C2266 C 0.79705 0.34295 1.13035
 C2267 C 0.76999 0.35619 1.11544
 C2268 C 0.76230 0.38568 1.11654
 H2269 H 0.79662 0.31861 1.13354
 H2270 H 0.75480 0.34009 1.10474
 H2271 H 0.82191 0.38328 1.13686
 H2272 H 0.77587 0.40138 1.12968
 C2273 C 0.67717 1.13578 1.13567
 C2274 C 0.69999 1.15250 1.12423
 C2275 C 0.72811 1.14009 1.11061
 C2276 C 0.73729 1.11109 1.11302
 H2277 H 0.69825 1.17702 1.12474
 H2278 H 0.74259 1.15653 1.09949
 H2279 H 0.67868 1.11128 1.13605
 H2280 H 0.72418 1.09511 1.12628
 C2281 C 0.67640 0.63577 0.63574
 C2282 C 0.69902 0.65264 0.62412
 C2283 C 0.72724 0.64047 0.61050
 C2284 C 0.73654 0.61150 0.61267
 H2285 H 0.69706 0.67715 0.62453
 H2286 H 0.74167 0.65707 0.59955
 H2287 H 0.67814 0.61129 0.63629
 H2288 H 0.72346 0.59532 0.62570
 C2289 C 0.17615 1.13633 0.63451
 C2290 C 0.19910 1.15312 0.62348
 C2291 C 0.22724 1.14073 0.60990
 C2292 C 0.23645 1.11176 0.61247
 H2293 H 0.19746 1.17765 0.62432
 H2294 H 0.24172 1.15717 0.59877
 H2295 H 0.17752 1.11182 0.63449
 H2296 H 0.22335 1.09585 0.62582
 C2297 C 0.18150 0.63913 1.14037
 C2298 C 0.18783 0.63814 1.11055
 C2299 C 0.21653 0.62634 1.09755
 C2300 C 0.23653 0.60912 1.11284
 H2301 H 0.17161 0.64745 1.09457
 H2302 H 0.22054 0.63176 1.07393
 H2303 H 0.19718 0.62971 1.15675
 H2304 H 0.23118 0.60156 1.13558
 C2305 C 0.67841 0.86195 0.86155
 C2306 C 0.68538 0.86371 0.89119
 C2307 C 0.71495 0.87424 0.90333
 C2308 C 0.73546 0.89009 0.88727
 H2309 H 0.66889 0.85596 0.90773
 H2310 H 0.71913 0.86938 0.92705
 H2311 H 0.69442 0.86942 0.84450
 H2312 H 0.73009 0.89723 0.86439
 C2313 C 0.67956 0.36107 0.35961
 C2314 C 0.69779 0.34670 0.37941
 C2315 C 0.72672 0.35906 0.39134
 C2316 C 0.73600 0.38803 0.38844
 H2317 H 0.69232 0.32377 0.38640
 H2318 H 0.74106 0.34277 0.40285
 H2319 H 0.68590 0.38318 0.35103
 H2320 H 0.72219 0.40432 0.37634
 C2321 C 0.17932 0.86035 0.35876
 C2322 C 0.20359 0.86975 0.34284
 C2323 C 0.23067 0.88462 0.35610
 C2324 C 0.23845 0.88337 0.38556
 H2325 H 0.20401 0.86665 0.31849
 H2326 H 0.24582 0.89541 0.34002
 H2327 H 0.17874 0.86312 0.38316
 H2328 H 0.22490 0.87014 0.40123
 C2329 C 0.17751 0.36320 0.86306
 C2330 C 0.19875 0.34686 0.87765
 C2331 C 0.22708 0.35921 0.89096
 C2332 C 0.23696 0.38790 0.88762
 H2333 H 0.19572 0.32254 0.87969
 H2334 H 0.24100 0.34287 0.90289
 H2335 H 0.18026 0.38741 0.86012
 H2336 H 0.22420 0.40381 0.87398
   
