data_POSCAR
  _audit_creation_date              2014-09-24
  _audit_creation_method            'ToBaCCo'
  _symmetry_space_group_name_H-M    'P1'
  _symmetry_Int_Tables_number       1
  _symmetry_cell_setting            triclinic
  loop_
  _symmetry_equiv_pos_as_xyz
 x,y,z
_cell_length_a 59.1186
_cell_length_b 59.0794
_cell_length_c 59.0604
_cell_angle_alpha 90.075700
_cell_angle_beta 90.009500
_cell_angle_gamma 89.934900
loop_
  _atom_site_label
  _atom_site_type_symbol
  _atom_site_fract_x
  _atom_site_fract_y
  _atom_site_fract_z
O1 O 0.88316 0.15919 0.81820
 O2 O 0.90822 0.12926 0.81192
 O3 O 0.82483 0.12760 0.84741
 O4 O 0.81605 0.10697 0.87738
 O5 O 0.85404 0.18764 0.87799
 O6 O 0.88576 0.19382 0.90191
 O7 O 0.88415 0.06937 0.90873
 O8 O 0.85788 0.06362 0.88015
 O9 O 0.94212 0.09621 0.87806
 O10 O 0.95014 0.12731 0.85312
 O11 O 0.91499 0.12715 0.93581
 O12 O 0.88408 0.15270 0.94354
 O13 O 0.88476 0.09708 0.93550
 O14 O 0.85861 0.13023 0.94223
 O15 O 0.94232 0.12638 0.90884
 O16 O 0.94873 0.15317 0.87547
 O17 O 0.91483 0.06929 0.87938
 O18 O 0.88484 0.06567 0.84982
 O19 O 0.88503 0.18625 0.84560
 O20 O 0.91069 0.19249 0.87682
 O21 O 0.82629 0.16107 0.87836
 O22 O 0.82103 0.12883 0.90532
 O23 O 0.85123 0.12761 0.81946
 O24 O 0.88296 0.10030 0.81479
 Zr25 Zr 0.88251 0.12867 0.83689
 O26 O 0.90392 0.10763 0.85633
 Zr27 Zr 0.84351 0.12984 0.87744
 O28 O 0.86277 0.10809 0.89795
 Zr29 Zr 0.88402 0.16868 0.87647
 O30 O 0.90481 0.14918 0.89778
 Zr31 Zr 0.88426 0.08775 0.87820
 O32 O 0.86253 0.10727 0.85731
 Zr33 Zr 0.92435 0.12706 0.87796
 O34 O 0.90512 0.14827 0.85638
 Zr35 Zr 0.88464 0.12782 0.91772
 O36 O 0.86376 0.14980 0.89879
 O37 O 0.86225 0.15022 0.85594
 O38 O 0.90559 0.10629 0.89925
 C39 C 0.88444 0.17999 0.82475
 C40 C 0.83061 0.12691 0.82647
 C41 C 0.83316 0.18172 0.87872
 C42 C 0.88447 0.07618 0.92945
 C43 C 0.93572 0.07542 0.87894
 C44 C 0.93574 0.12642 0.92960
 H45 H 0.91307 0.09799 0.84612
 H46 H 0.91429 0.15933 0.90710
 H47 H 0.85250 0.15987 0.84633
 H48 H 0.85253 0.09870 0.90724
 H49 H 0.84743 0.06694 0.86748
 H50 H 0.82225 0.09208 0.88180
 H51 H 0.94738 0.16282 0.88910
 H52 H 0.92209 0.18707 0.86579
 H53 H 0.88804 0.05016 0.85538
 H54 H 0.87790 0.10523 0.79955
 H55 H 0.89509 0.16457 0.93938
 H56 H 0.87578 0.18870 0.91435
 H57 H 0.92058 0.13881 0.81796
 H58 H 0.94525 0.11724 0.84066
 H59 H 0.82500 0.14169 0.91532
 H60 H 0.84854 0.11700 0.94035
 O61 O 0.83946 0.69298 0.38217
 O62 O 0.86865 0.69837 0.40813
 O63 O 0.87173 0.66556 0.32367
 O64 O 0.89315 0.63553 0.31481
 O65 O 0.81132 0.63346 0.35044
 O66 O 0.80428 0.60948 0.38168
 O67 O 0.92900 0.60296 0.38255
 O68 O 0.93502 0.63186 0.35717
 O69 O 0.90049 0.63188 0.44079
 O70 O 0.86871 0.65806 0.44788
 O71 O 0.87102 0.57511 0.41303
 O72 O 0.84577 0.56769 0.38089
 O73 O 0.90188 0.57569 0.38219
 O74 O 0.86897 0.56883 0.35620
 O75 O 0.86988 0.60228 0.44021
 O76 O 0.84396 0.63476 0.44684
 O77 O 0.92795 0.63087 0.41393
 O78 O 0.93227 0.66145 0.38485
 O79 O 0.81193 0.66606 0.38197
 O80 O 0.80501 0.63414 0.40715
 O81 O 0.83852 0.63377 0.32328
 O82 O 0.87075 0.60751 0.31808
 O83 O 0.87088 0.69241 0.35126
 O84 O 0.89786 0.69627 0.38281
 Zr85 Zr 0.86957 0.67418 0.38163
 O86 O 0.89021 0.65457 0.40297
 Zr87 Zr 0.86927 0.63469 0.34142
 O88 O 0.89049 0.61366 0.36090
 Zr89 Zr 0.82945 0.63485 0.38103
 O90 O 0.84860 0.61323 0.40199
 Zr91 Zr 0.91031 0.63310 0.38308
 O92 O 0.89132 0.65438 0.36141
 Zr93 Zr 0.87009 0.63286 0.42239
 O94 O 0.84917 0.65450 0.40314
 Zr95 Zr 0.87070 0.59334 0.38232
 O96 O 0.84919 0.61281 0.36107
 O97 O 0.84846 0.65574 0.36025
 O98 O 0.89148 0.61178 0.40387
 C99 C 0.81860 0.68683 0.38237
 C100 C 0.87206 0.68629 0.33044
 C101 C 0.81771 0.63297 0.32964
 C102 C 0.92270 0.58215 0.38221
 C103 C 0.92130 0.63077 0.43465
 C104 C 0.87058 0.58154 0.43385
 H105 H 0.89965 0.66459 0.41249
 H106 H 0.83826 0.60382 0.41113
 H107 H 0.83898 0.66548 0.35046
 H108 H 0.90013 0.60456 0.35067
 H109 H 0.93184 0.64473 0.34692
 H110 H 0.90757 0.62988 0.32112
 H111 H 0.83311 0.62242 0.44369
 H112 H 0.80996 0.64523 0.41870
 H113 H 0.94767 0.65581 0.38845
 H114 H 0.89287 0.71173 0.37855
 H115 H 0.83407 0.57135 0.39229
 H116 H 0.81014 0.59680 0.37241
 H117 H 0.85859 0.69223 0.42002
 H118 H 0.88090 0.66911 0.44485
 H119 H 0.85856 0.59684 0.32228
 H120 H 0.88166 0.57166 0.34566
 O121 O 0.37385 0.16782 0.32650
 O122 O 0.39926 0.13864 0.32079
 O123 O 0.31548 0.13539 0.35509
 O124 O 0.30660 0.11532 0.38556
 O125 O 0.34295 0.19664 0.38516
 O126 O 0.37384 0.20376 0.40979
 O127 O 0.37572 0.07903 0.41721
 O128 O 0.34950 0.07265 0.38909
 O129 O 0.43298 0.10706 0.38721
 O130 O 0.44055 0.13878 0.36252
 O131 O 0.40469 0.13741 0.44503
 O132 O 0.37355 0.16196 0.45254
 O133 O 0.37489 0.10649 0.44416
 O134 O 0.34767 0.13976 0.45011
 O135 O 0.43223 0.13682 0.41827
 O136 O 0.43858 0.16407 0.38541
 O137 O 0.40616 0.07959 0.38787
 O138 O 0.37617 0.07534 0.35850
 O139 O 0.37484 0.19544 0.35341
 O140 O 0.39966 0.20250 0.38550
 O141 O 0.31575 0.16951 0.38535
 O142 O 0.31099 0.13764 0.41315
 O143 O 0.34242 0.13586 0.32765
 O144 O 0.37475 0.10915 0.32378
 Zr145 Zr 0.37334 0.13776 0.34553
 O146 O 0.39497 0.11749 0.36533
 Zr147 Zr 0.33368 0.13862 0.38544
 O148 O 0.35316 0.11733 0.40633
 Zr149 Zr 0.37339 0.17825 0.38467
 O150 O 0.39424 0.15929 0.40654
 Zr151 Zr 0.37528 0.09740 0.38689
 O152 O 0.35335 0.11624 0.36572
 Zr153 Zr 0.41461 0.13753 0.38718
 O154 O 0.39522 0.15808 0.36513
 Zr155 Zr 0.37445 0.13745 0.42641
 O156 O 0.35338 0.15902 0.40696
 O157 O 0.35235 0.15913 0.36399
 O158 O 0.39601 0.11635 0.40820
 C159 C 0.37481 0.18871 0.33265
 C160 C 0.32170 0.13461 0.33425
 C161 C 0.32216 0.19032 0.38537
 C162 C 0.37550 0.08557 0.43799
 C163 C 0.42686 0.08621 0.38757
 C164 C 0.42554 0.13676 0.43900
 H165 H 0.40444 0.10805 0.35523
 H166 H 0.40337 0.16964 0.41600
 H167 H 0.34262 0.16844 0.35403
 H168 H 0.34303 0.10773 0.41553
 H169 H 0.33890 0.07565 0.37646
 H170 H 0.31308 0.10052 0.38990
 H171 H 0.43678 0.17363 0.39906
 H172 H 0.41135 0.19722 0.37472
 H173 H 0.37969 0.05988 0.36403
 H174 H 0.36971 0.11373 0.30843
 H175 H 0.38300 0.17485 0.44763
 H176 H 0.36387 0.19843 0.42214
 H177 H 0.41152 0.14821 0.32700
 H178 H 0.43648 0.12802 0.35035
 H179 H 0.31441 0.15093 0.42279
 H180 H 0.33838 0.12591 0.44871
 O181 O 0.11506 0.34534 0.30574
 O182 O 0.08929 0.37443 0.29919
 O183 O 0.17290 0.37820 0.33397
 O184 O 0.18086 0.40042 0.36346
 O185 O 0.14550 0.31843 0.36620
 O186 O 0.11383 0.31167 0.38979
 O187 O 0.11242 0.43633 0.39470
 O188 O 0.13816 0.44223 0.36589
 O189 O 0.05480 0.40732 0.36519
 O190 O 0.04796 0.37550 0.33975
 O191 O 0.08232 0.37836 0.42280
 O192 O 0.11432 0.35350 0.43083
 O193 O 0.11242 0.40933 0.42211
 O194 O 0.13880 0.37690 0.42968
 O195 O 0.05528 0.37718 0.39553
 O196 O 0.04953 0.35037 0.36271
 O197 O 0.08143 0.43497 0.36629
 O198 O 0.11086 0.43897 0.33599
 O199 O 0.11467 0.31839 0.33326
 O200 O 0.08895 0.31191 0.36459
 O201 O 0.17252 0.34575 0.36619
 O202 O 0.17709 0.37865 0.39195
 O203 O 0.14607 0.37721 0.30642
 O204 O 0.11405 0.40397 0.30158
 Zr205 Zr 0.11509 0.37595 0.32403
 O206 O 0.09318 0.39673 0.34310
 Zr207 Zr 0.15437 0.37645 0.36432
 O208 O 0.13446 0.39791 0.38466
 Zr209 Zr 0.11495 0.33646 0.36405
 O210 O 0.09358 0.35577 0.38508
 Zr211 Zr 0.11244 0.41735 0.36464
 O212 O 0.13466 0.39815 0.34398
 Zr213 Zr 0.07341 0.37696 0.36492
 O214 O 0.09319 0.35590 0.34373
 Zr215 Zr 0.11299 0.37811 0.40485
 O216 O 0.13457 0.35644 0.38608
 O217 O 0.13609 0.35521 0.34324
 O218 O 0.09155 0.39864 0.38595
 C219 C 0.11475 0.32458 0.31236
 C220 C 0.16676 0.37831 0.31308
 C221 C 0.16621 0.32493 0.36712
 C222 C 0.11239 0.43009 0.41555
 C223 C 0.06075 0.42821 0.36621
 C224 C 0.06159 0.37792 0.41633
 H225 H 0.08376 0.40600 0.33282
 H226 H 0.08438 0.34549 0.39451
 H227 H 0.14610 0.34559 0.33384
 H228 H 0.14447 0.40773 0.39380
 H229 H 0.14857 0.43896 0.35315
 H230 H 0.17434 0.41497 0.36855
 H231 H 0.05185 0.34029 0.37587
 H232 H 0.07754 0.31675 0.35332
 H233 H 0.10716 0.45443 0.34141
 H234 H 0.11901 0.39888 0.28635
 H235 H 0.10307 0.34165 0.42719
 H236 H 0.12318 0.31752 0.40240
 H237 H 0.07711 0.36483 0.30547
 H238 H 0.05180 0.38670 0.32793
 H239 H 0.17301 0.36640 0.40262
 H240 H 0.14903 0.38988 0.42708
 O241 O 0.61480 0.84830 0.30884
 O242 O 0.59017 0.87812 0.30260
 O243 O 0.67385 0.87888 0.33728
 O244 O 0.68231 0.90078 0.36703
 O245 O 0.64489 0.81962 0.36872
 O246 O 0.61334 0.81324 0.39232
 O247 O 0.61458 0.93799 0.39865
 O248 O 0.64058 0.94355 0.37016
 O249 O 0.55649 0.91058 0.36939
 O250 O 0.54865 0.87935 0.34361
 O251 O 0.58334 0.88017 0.42657
 O252 O 0.61492 0.85480 0.43418
 O253 O 0.61391 0.91081 0.42589
 O254 O 0.63990 0.87771 0.43308
 O255 O 0.55626 0.87998 0.39932
 O256 O 0.54990 0.85376 0.36603
 O257 O 0.58375 0.93760 0.37041
 O258 O 0.61325 0.94121 0.34013
 O259 O 0.61390 0.82091 0.33592
 O260 O 0.58819 0.81461 0.36744
 O261 O 0.67262 0.84621 0.36915
 O262 O 0.67808 0.87871 0.39531
 O263 O 0.64689 0.87891 0.30983
 O264 O 0.61565 0.90695 0.30562
 Zr265 Zr 0.61591 0.87850 0.32755
 O266 O 0.59445 0.89941 0.34692
 Zr267 Zr 0.65528 0.87742 0.36769
 O268 O 0.63589 0.89911 0.38834
 Zr269 Zr 0.61483 0.83846 0.36702
 O270 O 0.59404 0.85795 0.38844
 Zr271 Zr 0.61431 0.91928 0.36855
 O272 O 0.63611 0.89990 0.34766
 Zr273 Zr 0.57431 0.87982 0.36861
 O274 O 0.59355 0.85870 0.34702
 Zr275 Zr 0.61398 0.87965 0.40841
 O276 O 0.63498 0.85769 0.38927
 O277 O 0.63638 0.85694 0.34640
 O278 O 0.59302 0.90086 0.38976
 C279 C 0.61395 0.82749 0.31513
 C280 C 0.66765 0.87928 0.31639
 C281 C 0.66576 0.82555 0.36968
 C282 C 0.61425 0.93162 0.41944
 C283 C 0.56294 0.93130 0.37049
 C284 C 0.56257 0.88022 0.42015
 H285 H 0.58521 0.90901 0.33678
 H286 H 0.58465 0.84776 0.39778
 H287 H 0.64608 0.84717 0.33684
 H288 H 0.64611 0.90863 0.39756
 H289 H 0.65092 0.94024 0.35738
 H290 H 0.67615 0.91540 0.37237
 H291 H 0.55190 0.84355 0.37915
 H292 H 0.57696 0.81975 0.35611
 H293 H 0.60994 0.95671 0.34570
 H294 H 0.62062 0.90204 0.29034
 H295 H 0.60368 0.84304 0.43026
 H296 H 0.62276 0.81874 0.40504
 H297 H 0.57753 0.86913 0.30889
 H298 H 0.55268 0.89063 0.33193
 H299 H 0.67365 0.86649 0.40586
 H300 H 0.65021 0.89068 0.43074
 O301 O 0.62716 0.65232 0.18410
 O302 O 0.60345 0.62174 0.18996
 O303 O 0.68629 0.62304 0.15361
 O304 O 0.69442 0.60206 0.12305
 O305 O 0.65617 0.68290 0.12487
 O306 O 0.62465 0.68988 0.10173
 O307 O 0.62564 0.56521 0.09152
 O308 O 0.65253 0.55880 0.11910
 O309 O 0.56854 0.59198 0.12330
 O310 O 0.56110 0.62243 0.14973
 O311 O 0.59416 0.62362 0.06619
 O312 O 0.62538 0.64929 0.05854
 O313 O 0.62475 0.59322 0.06522
 O314 O 0.65066 0.62654 0.05870
 O315 O 0.56766 0.62282 0.09398
 O316 O 0.56188 0.64852 0.12789
 O317 O 0.59557 0.56473 0.12116
 O318 O 0.62632 0.56030 0.15012
 O319 O 0.62527 0.68037 0.15777
 O320 O 0.59955 0.68752 0.12638
 O321 O 0.68422 0.65664 0.12307
 O322 O 0.68928 0.62487 0.09547
 O323 O 0.65996 0.62244 0.18163
 O324 O 0.62946 0.59354 0.18547
 Zr325 Zr 0.62865 0.62268 0.16450
 O326 O 0.60690 0.60230 0.14494
 Zr327 Zr 0.66714 0.62519 0.12363
 O328 O 0.64748 0.60386 0.10279
 Zr329 Zr 0.62640 0.66383 0.12616
 O330 O 0.60543 0.64490 0.10455
 Zr331 Zr 0.62630 0.58301 0.12230
 O332 O 0.64849 0.60195 0.14329
 Zr333 Zr 0.58630 0.62253 0.12427
 O334 O 0.60577 0.64299 0.14610
 Zr335 Zr 0.62514 0.62380 0.08368
 O336 O 0.64629 0.64539 0.10300
 O337 O 0.64848 0.64493 0.14586
 O338 O 0.60457 0.60207 0.10212
 C339 C 0.62552 0.67325 0.17837
 C340 C 0.68056 0.62239 0.17461
 C341 C 0.67709 0.67725 0.12352
 C342 C 0.62495 0.57216 0.07089
 C343 C 0.57479 0.57125 0.12184
 C344 C 0.57355 0.62314 0.07306
 H345 H 0.59792 0.59244 0.15504
 H346 H 0.59580 0.65529 0.09567
 H347 H 0.65813 0.65457 0.15560
 H348 H 0.65754 0.59463 0.09310
 H349 H 0.66334 0.56183 0.13154
 H350 H 0.68823 0.58749 0.11766
 H351 H 0.56319 0.65872 0.11468
 H352 H 0.58851 0.68218 0.13778
 H353 H 0.62279 0.54497 0.14424
 H354 H 0.63467 0.59805 0.20080
 H355 H 0.61432 0.66101 0.06309
 H356 H 0.63374 0.68468 0.08864
 H357 H 0.59060 0.63090 0.18435
 H358 H 0.56537 0.61088 0.16107
 H359 H 0.68476 0.63762 0.08560
 H360 H 0.66097 0.61345 0.06038
 O361 O 0.36837 0.84921 0.68460
 O362 O 0.39253 0.87917 0.69138
 O363 O 0.31051 0.87996 0.65299
 O364 O 0.30351 0.90153 0.62281
 O365 O 0.33981 0.81987 0.62412
 O366 O 0.37244 0.81283 0.60155
 O367 O 0.37289 0.93740 0.59349
 O368 O 0.34521 0.94353 0.62044
 O369 O 0.42908 0.91041 0.62611
 O370 O 0.43542 0.87887 0.65252
 O371 O 0.40459 0.87890 0.56789
 O372 O 0.37360 0.85381 0.55910
 O373 O 0.37440 0.90972 0.56672
 O374 O 0.34824 0.87649 0.55916
 O375 O 0.43059 0.87938 0.59617
 O376 O 0.43575 0.85369 0.62962
 O377 O 0.40183 0.93745 0.62382
 O378 O 0.37089 0.94165 0.65203
 O379 O 0.37031 0.82131 0.65805
 O380 O 0.39651 0.81405 0.62742
 O381 O 0.31267 0.84705 0.62208
 O382 O 0.30875 0.87869 0.59494
 O383 O 0.33611 0.87975 0.68170
 O384 O 0.36714 0.90787 0.68693
 Zr385 Zr 0.36786 0.87910 0.66538
 O386 O 0.39017 0.89958 0.64664
 Zr387 Zr 0.33033 0.87784 0.62355
 O388 O 0.35063 0.89896 0.60340
 Zr389 Zr 0.37023 0.83833 0.62658
 O390 O 0.39214 0.85740 0.60587
 Zr391 Zr 0.37134 0.91925 0.62389
 O392 O 0.34867 0.90039 0.64417
 Zr393 Zr 0.41120 0.87958 0.62611
 O394 O 0.39088 0.85883 0.64707
 Zr395 Zr 0.37326 0.87890 0.58470
 O396 O 0.35130 0.85744 0.60319
 O397 O 0.34806 0.85743 0.64597
 O398 O 0.39350 0.90036 0.60390
 C399 C 0.36970 0.82827 0.67874
 C400 C 0.31570 0.88027 0.67412
 C401 C 0.31908 0.82627 0.62230
 C402 C 0.37410 0.93065 0.57282
 C403 C 0.42261 0.93117 0.62495
 C404 C 0.42509 0.87921 0.57511
 H405 H 0.39895 0.90927 0.65710
 H406 H 0.40188 0.84702 0.59707
 H407 H 0.33801 0.84785 0.65532
 H408 H 0.34091 0.90837 0.59356
 H409 H 0.33426 0.94058 0.63277
 H410 H 0.30978 0.91576 0.61668
 H411 H 0.43384 0.84301 0.61685
 H412 H 0.40781 0.81967 0.63845
 H413 H 0.37422 0.95710 0.64642
 H414 H 0.36146 0.90320 0.70203
 H415 H 0.38392 0.84162 0.56411
 H416 H 0.36318 0.81809 0.58861
 H417 H 0.40542 0.87003 0.68579
 H418 H 0.43140 0.89089 0.66348
 H419 H 0.31347 0.86615 0.58486
 H420 H 0.33827 0.88990 0.56045
 O421 O 0.87242 0.34302 0.68168
 O422 O 0.89681 0.37313 0.68891
 O423 O 0.81375 0.37533 0.65263
 O424 O 0.80585 0.39749 0.62322
 O425 O 0.84276 0.31613 0.62109
 O426 O 0.87506 0.31054 0.59696
 O427 O 0.87399 0.43464 0.59310
 O428 O 0.84679 0.43962 0.62121
 O429 O 0.93126 0.40757 0.62402
 O430 O 0.93835 0.37533 0.64960
 O431 O 0.90587 0.37725 0.56561
 O432 O 0.87445 0.35155 0.55712
 O433 O 0.87536 0.40749 0.56578
 O434 O 0.84987 0.37494 0.55734
 O435 O 0.93244 0.37727 0.59336
 O436 O 0.93871 0.35089 0.62592
 O437 O 0.90361 0.43426 0.62294
 O438 O 0.87340 0.43733 0.65197
 O439 O 0.87386 0.31648 0.65374
 O440 O 0.89929 0.31040 0.62283
 O441 O 0.81534 0.34310 0.62080
 O442 O 0.81045 0.37531 0.59469
 O443 O 0.83997 0.37420 0.68076
 O444 O 0.87111 0.40174 0.68650
 Zr445 Zr 0.87133 0.37393 0.66370
 O446 O 0.89283 0.39551 0.64511
 Zr447 Zr 0.83280 0.37394 0.62267
 O448 O 0.85245 0.39574 0.60265
 Zr449 Zr 0.87307 0.33476 0.62327
 O450 O 0.89454 0.35466 0.60302
 Zr451 Zr 0.87338 0.41568 0.62325
 O452 O 0.85155 0.39586 0.64358
 Zr453 Zr 0.91370 0.37646 0.62361
 O454 O 0.89405 0.35463 0.64408
 Zr455 Zr 0.87489 0.37642 0.58296
 O456 O 0.85334 0.35438 0.60111
 O457 O 0.85121 0.35292 0.64394
 O458 O 0.89530 0.39760 0.60232
 C459 C 0.87365 0.32236 0.67471
 C460 C 0.81942 0.37518 0.67364
 C461 C 0.82193 0.32239 0.62019
 C462 C 0.87489 0.42826 0.57226
 C463 C 0.92449 0.42828 0.62345
 C464 C 0.92649 0.37756 0.57244
 H465 H 0.90170 0.40502 0.65566
 H466 H 0.90423 0.34464 0.59375
 H467 H 0.84141 0.34302 0.65324
 H468 H 0.84243 0.40531 0.59327
 H469 H 0.83625 0.43615 0.63377
 H470 H 0.81174 0.41181 0.61695
 H471 H 0.93655 0.34041 0.61302
 H472 H 0.91108 0.31595 0.63337
 H473 H 0.87632 0.45299 0.64667
 H474 H 0.86601 0.39637 0.70158
 H475 H 0.88612 0.34013 0.56083
 H476 H 0.86477 0.31583 0.58483
 H477 H 0.90942 0.36398 0.68273
 H478 H 0.93444 0.38706 0.66091
 H479 H 0.81524 0.36331 0.58399
 H480 H 0.83902 0.38741 0.56003
 O481 O 0.81625 0.87515 0.15904
 O482 O 0.80780 0.89921 0.12976
 O483 O 0.84538 0.81678 0.12635
 O484 O 0.87438 0.80874 0.10397
 O485 O 0.87770 0.84632 0.18474
 O486 O 0.90139 0.87869 0.18987
 O487 O 0.90104 0.87713 0.06481
 O488 O 0.87335 0.84990 0.06111
 O489 O 0.87233 0.93445 0.09293
 O490 O 0.84756 0.94188 0.12583
 O491 O 0.93140 0.90934 0.12127
 O492 O 0.94175 0.87929 0.14525
 O493 O 0.92966 0.87867 0.09044
 O494 O 0.93880 0.85252 0.12415
 O495 O 0.90369 0.93592 0.12260
 O496 O 0.87166 0.94199 0.14988
 O497 O 0.87175 0.90656 0.06643
 O498 O 0.84255 0.87641 0.06477
 O499 O 0.84453 0.87726 0.18511
 O500 O 0.87587 0.90332 0.18983
 O501 O 0.87787 0.81890 0.15775
 O502 O 0.90327 0.81435 0.12452
 O503 O 0.81688 0.84257 0.12803
 O504 O 0.81009 0.87410 0.10066
 Zr505 Zr 0.83348 0.87428 0.12793
 O506 O 0.85116 0.89610 0.10596
 Zr507 Zr 0.87495 0.83620 0.12694
 O508 O 0.89379 0.85582 0.10416
 Zr509 Zr 0.87481 0.87659 0.16602
 O510 O 0.89460 0.89786 0.14526
 Zr511 Zr 0.87215 0.87651 0.08513
 O512 O 0.85300 0.85443 0.10561
 Zr513 Zr 0.87337 0.91707 0.12415
 O514 O 0.85344 0.89734 0.14653
 Zr515 Zr 0.91404 0.87839 0.12261
 O516 O 0.89677 0.85711 0.14573
 O517 O 0.85399 0.85443 0.14849
 O518 O 0.89377 0.89861 0.10219
 C519 C 0.82344 0.87665 0.17955
 C520 C 0.82433 0.82210 0.12693
 C521 C 0.87880 0.82549 0.17844
 C522 C 0.92213 0.87803 0.06995
 C523 C 0.87198 0.92747 0.07227
 C524 C 0.92462 0.92999 0.12149
 H525 H 0.84028 0.90496 0.09683
 H526 H 0.90422 0.90754 0.15493
 H527 H 0.84506 0.84456 0.15864
 H528 H 0.90279 0.84575 0.09426
 H529 H 0.86097 0.83933 0.06503
 H530 H 0.87843 0.81491 0.08897
 H531 H 0.88484 0.93983 0.15997
 H532 H 0.86444 0.91455 0.18493
 H533 H 0.84714 0.87930 0.04888
 H534 H 0.79533 0.86840 0.10626
 H535 H 0.93683 0.88787 0.15876
 H536 H 0.91362 0.86873 0.18420
 H537 H 0.81450 0.91245 0.13753
 H538 H 0.83591 0.93792 0.11448
 H539 H 0.91383 0.81862 0.13681
 H540 H 0.93728 0.84308 0.11038
 O541 O 0.37424 0.34380 0.18249
 O542 O 0.40111 0.37153 0.18863
 O543 O 0.31656 0.38008 0.15753
 O544 O 0.30809 0.40289 0.12870
 O545 O 0.33953 0.31953 0.12362
 O546 O 0.36900 0.31136 0.09810
 O547 O 0.37789 0.43636 0.09579
 O548 O 0.35338 0.44300 0.12531
 O549 O 0.43449 0.40303 0.12180
 O550 O 0.44107 0.37053 0.14529
 O551 O 0.40244 0.37705 0.06442
 O552 O 0.36926 0.35533 0.05696
 O553 O 0.37504 0.41028 0.06759
 O554 O 0.34528 0.37933 0.06119
 O555 O 0.43071 0.37404 0.09026
 O556 O 0.43634 0.34578 0.12227
 O557 O 0.40956 0.43226 0.12323
 O558 O 0.38114 0.43724 0.15439
 O559 O 0.37227 0.31729 0.15455
 O560 O 0.39576 0.31033 0.12114
 O561 O 0.31379 0.34806 0.12526
 O562 O 0.31000 0.38175 0.09965
 O563 O 0.34437 0.37678 0.18390
 O564 O 0.37780 0.40225 0.18759
 Zr565 Zr 0.37449 0.37461 0.16483
 O566 O 0.39668 0.39434 0.14517
 Zr567 Zr 0.33354 0.37786 0.12638
 O568 O 0.35357 0.39894 0.10576
 Zr569 Zr 0.37090 0.33594 0.12407
 O570 O 0.39194 0.35455 0.10222
 Zr571 Zr 0.37758 0.41656 0.12519
 O572 O 0.35518 0.39816 0.14629
 Zr573 Zr 0.41421 0.37398 0.12185
 O574 O 0.39446 0.35378 0.14374
 Zr575 Zr 0.37289 0.37855 0.08402
 O576 O 0.35133 0.35736 0.10331
 O577 O 0.35172 0.35533 0.14621
 O578 O 0.39635 0.39727 0.10238
 C579 C 0.37362 0.32317 0.17554
 C580 C 0.32350 0.37913 0.17814
 C581 C 0.31912 0.32696 0.12408
 C582 C 0.37692 0.43080 0.07476
 C583 C 0.42978 0.42423 0.12218
 C584 C 0.42341 0.37537 0.06980
 H585 H 0.40708 0.40274 0.15524
 H586 H 0.40003 0.34400 0.09205
 H587 H 0.34182 0.34602 0.15599
 H588 H 0.34376 0.40959 0.09738
 H589 H 0.34309 0.44001 0.13819
 H590 H 0.31529 0.41739 0.12457
 H591 H 0.43341 0.33669 0.10850
 H592 H 0.40768 0.31390 0.13236
 H593 H 0.38565 0.45259 0.14932
 H594 H 0.37304 0.39728 0.20290
 H595 H 0.37815 0.34170 0.06086
 H596 H 0.35935 0.31792 0.08608
 H597 H 0.41271 0.36167 0.18161
 H598 H 0.43804 0.38095 0.15806
 H599 H 0.31247 0.36899 0.08906
 H600 H 0.33709 0.39377 0.06348
 O601 O 0.37652 0.65411 0.81170
 O602 O 0.40153 0.62490 0.80440
 O603 O 0.31970 0.62179 0.84306
 O604 O 0.31275 0.60059 0.87342
 O605 O 0.34846 0.68229 0.87264
 O606 O 0.38067 0.68963 0.89495
 O607 O 0.38270 0.56447 0.90126
 O608 O 0.35579 0.55831 0.87382
 O609 O 0.43890 0.59354 0.86940
 O610 O 0.44478 0.62497 0.84358
 O611 O 0.41379 0.62289 0.92788
 O612 O 0.38295 0.64695 0.93771
 O613 O 0.38364 0.59153 0.92867
 O614 O 0.35701 0.62491 0.93639
 O615 O 0.43967 0.62390 0.89951
 O616 O 0.44390 0.65043 0.86629
 O617 O 0.41244 0.56580 0.87168
 O618 O 0.38165 0.56138 0.84272
 O619 O 0.37816 0.68168 0.83862
 O620 O 0.40514 0.68842 0.86941
 O621 O 0.32144 0.65503 0.87416
 O622 O 0.31818 0.62263 0.90121
 O623 O 0.34522 0.62264 0.81429
 O624 O 0.37696 0.59551 0.80850
 Zr625 Zr 0.37697 0.62397 0.83048
 O626 O 0.39974 0.60361 0.84884
 Zr627 Zr 0.33950 0.62425 0.87246
 O628 O 0.36017 0.60286 0.89207
 Zr629 Zr 0.37886 0.66417 0.86986
 O630 O 0.40086 0.64509 0.89043
 Zr631 Zr 0.38134 0.58326 0.87126
 O632 O 0.35819 0.60217 0.85149
 Zr633 Zr 0.42026 0.62375 0.86967
 O634 O 0.39969 0.64438 0.84892
 Zr635 Zr 0.38241 0.62282 0.91122
 O636 O 0.36027 0.64452 0.89309
 O637 O 0.35687 0.64508 0.85025
 O638 O 0.40308 0.60218 0.89157
 C639 C 0.37734 0.67500 0.81784
 C640 C 0.32487 0.62154 0.82193
 C641 C 0.32778 0.67586 0.87423
 C642 C 0.38351 0.57071 0.92209
 C643 C 0.43305 0.57266 0.87072
 C644 C 0.43424 0.62334 0.92056
 H645 H 0.40876 0.59426 0.83826
 H646 H 0.41040 0.65547 0.89943
 H647 H 0.34656 0.65455 0.84104
 H648 H 0.35052 0.59313 0.90166
 H649 H 0.34477 0.56147 0.86161
 H650 H 0.31958 0.58585 0.87738
 H651 H 0.44224 0.66052 0.87957
 H652 H 0.41577 0.68374 0.85733
 H653 H 0.38573 0.54600 0.84805
 H654 H 0.37114 0.60026 0.79347
 H655 H 0.39190 0.66002 0.93236
 H656 H 0.37195 0.68396 0.90808
 H657 H 0.41419 0.63429 0.81007
 H658 H 0.44051 0.61365 0.83200
 H659 H 0.32223 0.63556 0.91108
 H660 H 0.34753 0.61116 0.93523
 O661 O 0.13070 0.65322 0.67868
 O662 O 0.10588 0.62386 0.68637
 O663 O 0.18901 0.61930 0.65063
 O664 O 0.19699 0.59670 0.62160
 O665 O 0.16130 0.67840 0.61798
 O666 O 0.12943 0.68405 0.59341
 O667 O 0.12772 0.55957 0.59236
 O668 O 0.15507 0.55490 0.62037
 O669 O 0.07119 0.58849 0.62173
 O670 O 0.06437 0.62143 0.64653
 O671 O 0.09771 0.61723 0.56292
 O672 O 0.12938 0.64127 0.55382
 O673 O 0.12707 0.58587 0.56428
 O674 O 0.15415 0.61795 0.55561
 O675 O 0.07088 0.61837 0.59040
 O676 O 0.06478 0.64540 0.62247
 O677 O 0.09841 0.56135 0.62196
 O678 O 0.12856 0.55861 0.65117
 O679 O 0.12981 0.67927 0.65032
 O680 O 0.10473 0.68495 0.61880
 O681 O 0.18828 0.65099 0.61831
 O682 O 0.19257 0.61799 0.59261
 O683 O 0.16267 0.62159 0.67857
 O684 O 0.13099 0.59468 0.68460
 Zr685 Zr 0.13143 0.62200 0.66129
 O686 O 0.10963 0.60043 0.64303
 Zr687 Zr 0.17024 0.62045 0.62053
 O688 O 0.15038 0.59835 0.60094
 Zr689 Zr 0.13065 0.66030 0.62013
 O690 O 0.10911 0.64022 0.60003
 Zr691 Zr 0.12894 0.57940 0.62187
 O692 O 0.15103 0.59933 0.64181
 Zr693 Zr 0.08930 0.61930 0.62088
 O694 O 0.10917 0.64124 0.64112
 Zr695 Zr 0.12848 0.61753 0.58061
 O696 O 0.15014 0.63982 0.59845
 O697 O 0.15205 0.64224 0.64129
 O698 O 0.10751 0.59729 0.60031
 C699 C 0.12976 0.67375 0.67140
 C700 C 0.18323 0.62006 0.67159
 C701 C 0.18204 0.67181 0.61739
 C702 C 0.12680 0.56529 0.57137
 C703 C 0.07763 0.56767 0.62193
 C704 C 0.07703 0.61764 0.56954
 H705 H 0.10050 0.59137 0.65372
 H706 H 0.09973 0.65021 0.59044
 H707 H 0.16192 0.65216 0.65049
 H708 H 0.16026 0.58831 0.59188
 H709 H 0.16566 0.55846 0.63287
 H710 H 0.19078 0.58214 0.61619
 H711 H 0.06733 0.65561 0.60946
 H712 H 0.09292 0.68002 0.62960
 H713 H 0.12535 0.54287 0.64629
 H714 H 0.13615 0.60025 0.69959
 H715 H 0.11905 0.65381 0.55786
 H716 H 0.13976 0.67835 0.58150
 H717 H 0.09332 0.63278 0.67980
 H718 H 0.06799 0.60994 0.65814
 H719 H 0.18827 0.63007 0.58183
 H720 H 0.16389 0.60453 0.55795
 O721 O 0.13199 0.14566 0.18566
 O722 O 0.10772 0.11514 0.19021
 O723 O 0.19249 0.11545 0.15855
 O724 O 0.20221 0.09426 0.12894
 O725 O 0.16489 0.17552 0.12797
 O726 O 0.13437 0.18253 0.10295
 O727 O 0.13430 0.05820 0.09297
 O728 O 0.16034 0.05152 0.12183
 O729 O 0.07628 0.08492 0.12192
 O730 O 0.06756 0.11570 0.14735
 O731 O 0.10612 0.11697 0.06604
 O732 O 0.13789 0.14238 0.06057
 O733 O 0.13576 0.08640 0.06691
 O734 O 0.16269 0.11909 0.06204
 O735 O 0.07773 0.11596 0.09190
 O736 O 0.06991 0.14176 0.12558
 O737 O 0.10346 0.05773 0.12168
 O738 O 0.13270 0.05317 0.15176
 O739 O 0.13205 0.17353 0.15908
 O740 O 0.10829 0.18085 0.12663
 O741 O 0.19251 0.14875 0.12766
 O742 O 0.19886 0.11672 0.10081
 O743 O 0.16477 0.11548 0.18520
 O744 O 0.13379 0.08675 0.18740
 Zr745 Zr 0.13438 0.11578 0.16628
 O746 O 0.11366 0.09543 0.14546
 Zr747 Zr 0.17512 0.11759 0.12763
 O748 O 0.15660 0.09644 0.10570
 Zr749 Zr 0.13475 0.15676 0.12775
 O750 O 0.11482 0.13790 0.10509
 Zr751 Zr 0.13412 0.07587 0.12396
 O752 O 0.15514 0.09467 0.14627
 Zr753 Zr 0.09429 0.11557 0.12351
 O754 O 0.11272 0.13606 0.14639
 Zr755 Zr 0.13569 0.11675 0.08548
 O756 O 0.15586 0.13812 0.10589
 O757 O 0.15549 0.13771 0.14871
 O758 O 0.11380 0.09509 0.10254
 C759 C 0.13099 0.16660 0.17970
 C760 C 0.18572 0.11515 0.17922
 C761 C 0.18576 0.16946 0.12757
 C762 C 0.13484 0.06535 0.07237
 C763 C 0.08264 0.06412 0.12127
 C764 C 0.08513 0.11650 0.07142
 H765 H 0.10408 0.08567 0.15509
 H766 H 0.10584 0.14836 0.09562
 H767 H 0.16468 0.14732 0.15890
 H768 H 0.16707 0.08708 0.09658
 H769 H 0.17046 0.05428 0.13491
 H770 H 0.19634 0.07977 0.12299
 H771 H 0.07207 0.15187 0.11242
 H772 H 0.09630 0.17528 0.13690
 H773 H 0.12965 0.03780 0.14572
 H774 H 0.13819 0.09132 0.20296
 H775 H 0.12645 0.15404 0.06426
 H776 H 0.14471 0.17751 0.09075
 H777 H 0.09534 0.12447 0.18386
 H778 H 0.07138 0.10460 0.15928
 H779 H 0.19515 0.12948 0.09061
 H780 H 0.17252 0.10569 0.06408
 O781 O 0.68579 0.37216 0.84690
 O782 O 0.69140 0.39615 0.87716
 O783 O 0.65793 0.31201 0.87645
 O784 O 0.62783 0.30181 0.89640
 O785 O 0.62722 0.34178 0.81684
 O786 O 0.60255 0.37301 0.81123
 O787 O 0.59603 0.36880 0.93620
 O788 O 0.62448 0.34263 0.94106
 O789 O 0.62430 0.42770 0.91069
 O790 O 0.64949 0.43696 0.87943
 O791 O 0.56742 0.40031 0.87881
 O792 O 0.55983 0.37012 0.85368
 O793 O 0.56873 0.36963 0.90909
 O794 O 0.56289 0.34326 0.87474
 O795 O 0.59388 0.42810 0.87980
 O796 O 0.62690 0.43613 0.85404
 O797 O 0.62440 0.39954 0.93682
 O798 O 0.65454 0.36995 0.93939
 O799 O 0.65896 0.37370 0.81929
 O800 O 0.62664 0.39885 0.81363
 O801 O 0.62727 0.31341 0.84275
 O802 O 0.59994 0.30705 0.87473
 O803 O 0.68507 0.33923 0.87689
 O804 O 0.68883 0.37005 0.90539
 Zr805 Zr 0.66694 0.36998 0.87688
 O806 O 0.64717 0.39050 0.89830
 Zr807 Zr 0.62743 0.32999 0.87442
 O808 O 0.60659 0.34825 0.89682
 Zr809 Zr 0.62774 0.37144 0.83659
 O810 O 0.60582 0.39115 0.85674
 Zr811 Zr 0.62602 0.36961 0.91754
 O812 O 0.64716 0.34875 0.89753
 Zr813 Zr 0.62506 0.41079 0.87929
 O814 O 0.64710 0.39257 0.85765
 Zr815 Zr 0.58623 0.37025 0.87786
 O816 O 0.60567 0.35043 0.85508
 O817 O 0.64860 0.34976 0.85466
 O818 O 0.60437 0.39104 0.89974
 C819 C 0.67970 0.37373 0.82606
 C820 C 0.67867 0.31843 0.87713
 C821 C 0.62702 0.32071 0.82224
 C822 C 0.57525 0.36915 0.92990
 C823 C 0.62402 0.42055 0.93125
 C824 C 0.57326 0.42120 0.87951
 H825 H 0.65717 0.39962 0.90815
 H826 H 0.59626 0.40059 0.84678
 H827 H 0.65852 0.34053 0.84480
 H828 H 0.59757 0.33761 0.90604
 H829 H 0.63725 0.33239 0.93745
 H830 H 0.62372 0.30757 0.91156
 H831 H 0.61407 0.43388 0.84354
 H832 H 0.63769 0.41016 0.81915
 H833 H 0.64907 0.37271 0.95502
 H834 H 0.70418 0.36540 0.90042
 H835 H 0.56484 0.37957 0.84082
 H836 H 0.59035 0.36261 0.81604
 H837 H 0.68487 0.40894 0.86854
 H838 H 0.66136 0.43276 0.89046
 H839 H 0.59014 0.31096 0.86172
 H840 H 0.56406 0.33382 0.88851
 O841 O 0.12206 0.83593 0.81678
 O842 O 0.09675 0.86588 0.81140
 O843 O 0.18071 0.86725 0.84553
 O844 O 0.18995 0.88752 0.87571
 O845 O 0.15209 0.80679 0.87590
 O846 O 0.12065 0.80036 0.90009
 O847 O 0.12224 0.92477 0.90854
 O848 O 0.14819 0.93080 0.87976
 O849 O 0.06390 0.89820 0.87808
 O850 O 0.05574 0.86713 0.85277
 O851 O 0.09168 0.86692 0.93520
 O852 O 0.12267 0.84104 0.94221
 O853 O 0.12217 0.89680 0.93496
 O854 O 0.14817 0.86347 0.94095
 O855 O 0.06408 0.86785 0.90849
 O856 O 0.05715 0.84137 0.87514
 O857 O 0.09123 0.92515 0.87943
 O858 O 0.12092 0.92906 0.84967
 O859 O 0.12066 0.80852 0.84380
 O860 O 0.09540 0.80190 0.87530
 O861 O 0.17982 0.83338 0.87619
 O862 O 0.18543 0.86533 0.90342
 O863 O 0.15383 0.86745 0.81802
 O864 O 0.12220 0.89476 0.81415
 Zr865 Zr 0.12291 0.86619 0.83591
 O866 O 0.10181 0.88706 0.85588
 Zr867 Zr 0.16252 0.86462 0.87586
 O868 O 0.14352 0.88612 0.89695
 Zr869 Zr 0.12204 0.82574 0.87494
 O870 O 0.10150 0.84504 0.89675
 Zr871 Zr 0.12178 0.90670 0.87777
 O872 O 0.14320 0.88738 0.85632
 Zr873 Zr 0.08169 0.86735 0.87747
 O874 O 0.10062 0.84634 0.85542
 Zr875 Zr 0.12187 0.86623 0.91676
 O876 O 0.14254 0.84446 0.89724
 O877 O 0.14349 0.84444 0.85437
 O878 O 0.10070 0.88793 0.89881
 C879 C 0.12093 0.81505 0.82302
 C880 C 0.17455 0.86815 0.82469
 C881 C 0.17298 0.81272 0.87645
 C882 C 0.12233 0.91777 0.92919
 C883 C 0.07038 0.91894 0.87910
 C884 C 0.07086 0.86777 0.92918
 H885 H 0.09255 0.89679 0.84590
 H886 H 0.09212 0.83482 0.90607
 H887 H 0.15313 0.83490 0.84451
 H888 H 0.15389 0.89541 0.90624
 H889 H 0.15850 0.92762 0.86693
 H890 H 0.18383 0.90232 0.88057
 H891 H 0.05887 0.83145 0.88851
 H892 H 0.08382 0.80749 0.86457
 H893 H 0.11780 0.94452 0.85545
 H894 H 0.12685 0.88994 0.79874
 H895 H 0.11143 0.82935 0.93812
 H896 H 0.13065 0.80545 0.91253
 H897 H 0.08460 0.85605 0.81740
 H898 H 0.06026 0.87768 0.84060
 H899 H 0.18152 0.85244 0.91337
 H900 H 0.15837 0.87658 0.93898
 O901 O 0.69218 0.11591 0.65706
 O902 O 0.69657 0.09058 0.62734
 O903 O 0.66432 0.17524 0.62686
 O904 O 0.63387 0.18498 0.60670
 O905 O 0.63388 0.14752 0.68767
 O906 O 0.60993 0.11652 0.69493
 O907 O 0.60007 0.11800 0.56997
 O908 O 0.62892 0.14323 0.56371
 O909 O 0.62871 0.05908 0.59673
 O910 O 0.65511 0.05078 0.62755
 O911 O 0.57294 0.08722 0.62825
 O912 O 0.56616 0.11839 0.65363
 O913 O 0.57338 0.11840 0.59769
 O914 O 0.56821 0.14440 0.63182
 O915 O 0.59961 0.05957 0.62806
 O916 O 0.63286 0.05217 0.65328
 O917 O 0.62764 0.08641 0.56975
 O918 O 0.65834 0.11528 0.56528
 O919 O 0.66613 0.11580 0.68544
 O920 O 0.63395 0.09055 0.69254
 O921 O 0.63363 0.17521 0.66103
 O922 O 0.60642 0.18123 0.62945
 O923 O 0.69100 0.14752 0.62630
 O924 O 0.69372 0.11625 0.59855
 Zr925 Zr 0.67253 0.11721 0.62756
 O926 O 0.65212 0.09638 0.60717
 Zr927 Zr 0.63347 0.15772 0.62983
 O928 O 0.61180 0.13896 0.60863
 Zr929 Zr 0.63438 0.11734 0.66884
 O930 O 0.61184 0.09720 0.64983
 Zr931 Zr 0.63052 0.11690 0.58795
 O932 O 0.65240 0.13805 0.60679
 Zr933 Zr 0.63056 0.07689 0.62746
 O934 O 0.65316 0.09545 0.64804
 Zr935 Zr 0.59170 0.11752 0.62856
 O936 O 0.61198 0.13792 0.65015
 O937 O 0.65491 0.13830 0.64965
 O938 O 0.60932 0.09609 0.60690
 C939 C 0.68669 0.11537 0.67811
 C940 C 0.68496 0.16840 0.62578
 C941 C 0.63342 0.16843 0.68173
 C942 C 0.57942 0.11853 0.57671
 C943 C 0.62738 0.06560 0.57604
 C944 C 0.57897 0.06631 0.62809
 H945 H 0.66178 0.08689 0.59730
 H946 H 0.60253 0.08804 0.66024
 H947 H 0.66501 0.14781 0.65905
 H948 H 0.60264 0.14949 0.59940
 H949 H 0.64195 0.15330 0.56674
 H950 H 0.62855 0.17889 0.59205
 H951 H 0.62050 0.05500 0.66421
 H952 H 0.64510 0.07922 0.68720
 H953 H 0.65234 0.11203 0.54994
 H954 H 0.70931 0.12048 0.60310
 H955 H 0.57085 0.10807 0.66594
 H956 H 0.59714 0.12598 0.68967
 H957 H 0.69043 0.07841 0.63705
 H958 H 0.66635 0.05426 0.61565
 H959 H 0.59633 0.17726 0.64222
 H960 H 0.57000 0.15441 0.61853
 C961 C 0.36971 0.81777 0.71996
 C962 C 0.37051 0.80166 0.73726
 C963 C 0.37192 0.77859 0.73213
 C964 C 0.37244 0.77173 0.70933
 C965 C 0.37165 0.78783 0.69198
 C966 C 0.37031 0.81108 0.69707
 N967 N 0.37286 0.76256 0.75033
 N968 N 0.37406 0.74133 0.74685
 C969 C 0.37504 0.72520 0.76495
 C970 C 0.37587 0.70216 0.75962
 C971 C 0.37672 0.68590 0.77676
 C972 C 0.37679 0.69241 0.79971
 C973 C 0.37604 0.71564 0.80503
 C974 C 0.37516 0.73190 0.78781
 H975 H 0.36867 0.83549 0.72457
 H976 H 0.37008 0.80717 0.75475
 H977 H 0.37351 0.75398 0.70491
 H978 H 0.37213 0.78204 0.67458
 H979 H 0.37581 0.69678 0.74209
 H980 H 0.37728 0.66821 0.77198
 H981 H 0.37603 0.72128 0.82248
 H982 H 0.37454 0.74964 0.79237
 C983 C 0.37640 0.22935 0.32037
 C984 C 0.37657 0.24588 0.30347
 C985 C 0.37570 0.23972 0.28062
 C986 C 0.37477 0.21669 0.27475
 C987 C 0.37462 0.20010 0.29163
 C988 C 0.37537 0.20623 0.31467
 N989 N 0.37567 0.25720 0.26383
 N990 N 0.37469 0.25300 0.24271
 C991 C 0.37458 0.27074 0.22617
 C992 C 0.37336 0.26511 0.20318
 C993 C 0.37309 0.28207 0.18666
 C994 C 0.37405 0.30505 0.19292
 C995 C 0.37531 0.31060 0.21607
 C996 C 0.37557 0.29364 0.23252
 H997 H 0.37699 0.23473 0.33789
 H998 H 0.37729 0.26358 0.30820
 H999 H 0.37410 0.21151 0.25718
 H1000 H 0.37380 0.18248 0.28661
 H1001 H 0.37257 0.24752 0.19806
 H1002 H 0.37209 0.27716 0.16902
 H1003 H 0.37606 0.32809 0.22155
 H1004 H 0.37652 0.29846 0.25019
 C1005 C 0.61313 0.81607 0.27425
 C1006 C 0.61394 0.79954 0.25736
 C1007 C 0.61550 0.77665 0.26308
 C1008 C 0.61593 0.77032 0.28600
 C1009 C 0.61506 0.78682 0.30293
 C1010 C 0.61381 0.80991 0.29725
 N1011 N 0.61697 0.76026 0.24532
 N1012 N 0.61908 0.73920 0.24925
 C1013 C 0.62073 0.72299 0.23132
 C1014 C 0.62292 0.70005 0.23670
 C1015 C 0.62457 0.68383 0.21954
 C1016 C 0.62406 0.69037 0.19663
 C1017 C 0.62193 0.71348 0.19133
 C1018 C 0.62028 0.72964 0.20850
 H1019 H 0.61215 0.83368 0.26925
 H1020 H 0.61359 0.80458 0.23974
 H1021 H 0.61710 0.75269 0.29081
 H1022 H 0.61566 0.78148 0.32045
 H1023 H 0.62333 0.69475 0.25424
 H1024 H 0.62621 0.66620 0.22424
 H1025 H 0.62148 0.71914 0.17390
 H1026 H 0.61863 0.74730 0.20391
 C1027 C 0.11561 0.31205 0.27170
 C1028 C 0.11705 0.29502 0.25530
 C1029 C 0.11826 0.27225 0.26167
 C1030 C 0.11773 0.26659 0.28475
 C1031 C 0.11626 0.28358 0.30118
 C1032 C 0.11532 0.30654 0.29487
 N1033 N 0.12031 0.25532 0.24441
 N1034 N 0.12194 0.23431 0.24892
 C1035 C 0.12417 0.21760 0.23145
 C1036 C 0.12576 0.19473 0.23740
 C1037 C 0.12801 0.17806 0.22067
 C1038 C 0.12874 0.18407 0.19763
 C1039 C 0.12718 0.20712 0.19178
 C1040 C 0.12492 0.22370 0.20849
 H1041 H 0.11492 0.32951 0.26620
 H1042 H 0.11743 0.29958 0.23755
 H1043 H 0.11863 0.24910 0.29010
 H1044 H 0.11611 0.27869 0.31885
 H1045 H 0.12524 0.18981 0.25505
 H1046 H 0.12918 0.16051 0.22580
 H1047 H 0.12767 0.21242 0.17424
 H1048 H 0.12376 0.24127 0.20343
 C1049 C 0.12965 0.71517 0.68110
 C1050 C 0.12857 0.73285 0.69683
 C1051 C 0.12659 0.72828 0.71996
 C1052 C 0.12585 0.70563 0.72727
 C1053 C 0.12701 0.68789 0.71156
 C1054 C 0.12885 0.69244 0.68825
 N1055 N 0.12541 0.74685 0.73559
 N1056 N 0.12296 0.74380 0.75677
 C1057 C 0.12189 0.76210 0.77270
 C1058 C 0.11922 0.75697 0.79562
 C1059 C 0.11859 0.77418 0.81182
 C1060 C 0.12064 0.79705 0.80541
 C1061 C 0.12307 0.80222 0.78228
 C1062 C 0.12370 0.78488 0.76604
 H1063 H 0.13114 0.71937 0.66332
 H1064 H 0.12920 0.75019 0.69096
 H1065 H 0.12438 0.70163 0.74509
 H1066 H 0.12633 0.67064 0.71768
 H1067 H 0.11778 0.73951 0.80097
 H1068 H 0.11667 0.76948 0.82943
 H1069 H 0.12474 0.81960 0.77674
 H1070 H 0.12577 0.78926 0.74837
 C1071 C 0.88693 0.22099 0.81426
 C1072 C 0.88607 0.23847 0.79842
 C1073 C 0.88280 0.23374 0.77549
 C1074 C 0.88065 0.21108 0.76844
 C1075 C 0.88152 0.19347 0.78431
 C1076 C 0.88453 0.19825 0.80747
 N1077 N 0.88151 0.25228 0.75991
 N1078 N 0.87848 0.24943 0.73877
 C1079 C 0.87709 0.26806 0.72329
 C1080 C 0.87458 0.26346 0.70023
 C1081 C 0.87336 0.28109 0.68456
 C1082 C 0.87458 0.30384 0.69167
 C1083 C 0.87690 0.30845 0.71494
 C1084 C 0.87820 0.29071 0.73062
 H1085 H 0.88931 0.22540 0.83190
 H1086 H 0.88779 0.25584 0.80407
 H1087 H 0.87812 0.20699 0.75074
 H1088 H 0.87957 0.17620 0.77850
 H1089 H 0.87364 0.24611 0.69436
 H1090 H 0.87147 0.27683 0.66682
 H1091 H 0.87790 0.32572 0.72101
 H1092 H 0.88009 0.29470 0.74842
 C1093 C 0.77819 0.37611 0.68378
 C1094 C 0.76079 0.37641 0.69979
 C1095 C 0.76576 0.37639 0.72293
 C1096 C 0.78847 0.37610 0.72997
 C1097 C 0.80592 0.37579 0.71399
 C1098 C 0.80099 0.37575 0.69068
 N1099 N 0.74749 0.37644 0.73886
 N1100 N 0.75088 0.37646 0.76013
 C1101 C 0.73272 0.37629 0.77617
 C1102 C 0.73793 0.37608 0.79925
 C1103 C 0.72073 0.37547 0.81542
 C1104 C 0.69785 0.37505 0.80878
 C1105 C 0.69266 0.37545 0.78552
 C1106 C 0.70994 0.37606 0.76935
 H1107 H 0.77373 0.37607 0.66600
 H1108 H 0.74336 0.37661 0.69415
 H1109 H 0.79275 0.37606 0.74780
 H1110 H 0.82325 0.37551 0.71992
 H1111 H 0.75542 0.37626 0.80470
 H1112 H 0.72540 0.37518 0.83315
 H1113 H 0.67526 0.37512 0.77979
 H1114 H 0.70550 0.37621 0.75157
 C1115 C 0.28347 0.62016 0.81263
 C1116 C 0.26579 0.61964 0.79693
 C1117 C 0.27037 0.61940 0.77372
 C1118 C 0.29295 0.61956 0.76627
 C1119 C 0.31065 0.62009 0.78192
 C1120 C 0.30613 0.62046 0.80531
 N1121 N 0.25188 0.61923 0.75807
 N1122 N 0.25504 0.61898 0.73677
 C1123 C 0.23673 0.61902 0.72093
 C1124 C 0.24172 0.61855 0.69781
 C1125 C 0.22435 0.61880 0.68181
 C1126 C 0.20157 0.61954 0.68869
 C1127 C 0.19660 0.61996 0.71199
 C1128 C 0.21404 0.61969 0.72799
 H1129 H 0.27934 0.62046 0.83049
 H1130 H 0.24846 0.61953 0.80286
 H1131 H 0.29693 0.61938 0.74838
 H1132 H 0.32787 0.62032 0.77567
 H1133 H 0.25915 0.61806 0.69219
 H1134 H 0.22884 0.61850 0.66403
 H1135 H 0.17927 0.62054 0.71788
 H1136 H 0.20979 0.62008 0.74581
 C1137 C 0.28074 0.13249 0.32313
 C1138 C 0.26375 0.12992 0.30687
 C1139 C 0.26927 0.12700 0.28404
 C1140 C 0.29217 0.12685 0.27755
 C1141 C 0.30922 0.12948 0.29380
 C1142 C 0.30372 0.13226 0.31683
 N1143 N 0.25137 0.12436 0.26786
 N1144 N 0.25521 0.12105 0.24691
 C1145 C 0.23742 0.11864 0.23058
 C1146 C 0.24320 0.11553 0.20784
 C1147 C 0.22641 0.11392 0.19127
 C1148 C 0.20336 0.11537 0.19715
 C1149 C 0.19757 0.11808 0.22011
 C1150 C 0.21445 0.11973 0.23669
 H1151 H 0.27582 0.13465 0.34066
 H1152 H 0.24619 0.13014 0.31209
 H1153 H 0.29689 0.12468 0.25998
 H1154 H 0.32670 0.12920 0.28832
 H1155 H 0.26082 0.11463 0.20291
 H1156 H 0.23155 0.11182 0.17380
 H1157 H 0.18003 0.11933 0.22525
 H1158 H 0.20956 0.12210 0.25420
 C1159 C 0.78936 0.12615 0.81673
 C1160 C 0.77173 0.12455 0.80110
 C1161 C 0.77630 0.12220 0.77802
 C1162 C 0.79892 0.12157 0.77062
 C1163 C 0.81666 0.12322 0.78628
 C1164 C 0.81208 0.12546 0.80956
 N1165 N 0.75766 0.12059 0.76260
 N1166 N 0.76035 0.11805 0.74138
 C1167 C 0.74158 0.11665 0.72608
 C1168 C 0.74587 0.11435 0.70293
 C1169 C 0.72805 0.11357 0.68744
 C1170 C 0.70544 0.11505 0.69483
 C1171 C 0.70115 0.11702 0.71819
 C1172 C 0.71906 0.11784 0.73368
 H1173 H 0.78511 0.12792 0.83448
 H1174 H 0.75439 0.12510 0.80700
 H1175 H 0.80287 0.11981 0.75281
 H1176 H 0.83392 0.12263 0.78017
 H1177 H 0.76313 0.11338 0.69686
 H1178 H 0.73205 0.11201 0.66961
 H1179 H 0.68398 0.11826 0.72448
 H1180 H 0.71529 0.11959 0.75154
 C1181 C 0.67966 0.87969 0.27556
 C1182 C 0.69640 0.87958 0.25884
 C1183 C 0.71931 0.87942 0.26473
 C1184 C 0.72537 0.87947 0.28774
 C1185 C 0.70863 0.87958 0.30455
 C1186 C 0.68553 0.87964 0.29867
 N1187 N 0.73591 0.87906 0.24700
 N1188 N 0.75712 0.87891 0.25084
 C1189 C 0.77342 0.87844 0.23281
 C1190 C 0.79651 0.87853 0.23808
 C1191 C 0.81281 0.87800 0.22086
 C1192 C 0.80626 0.87734 0.19794
 C1193 C 0.78300 0.87724 0.19275
 C1194 C 0.76677 0.87780 0.20997
 H1195 H 0.66210 0.87970 0.27034
 H1196 H 0.69149 0.87953 0.24117
 H1197 H 0.74299 0.87935 0.29274
 H1198 H 0.71381 0.87951 0.32213
 H1199 H 0.80190 0.87900 0.25560
 H1200 H 0.83052 0.87806 0.22553
 H1201 H 0.77728 0.87674 0.17534
 H1202 H 0.74904 0.87770 0.20540
 C1203 C 0.80770 0.72786 0.38324
 C1204 C 0.79148 0.74503 0.38224
 C1205 C 0.76854 0.73973 0.38024
 C1206 C 0.76187 0.71691 0.37953
 C1207 C 0.77808 0.69967 0.38056
 C1208 C 0.80122 0.70495 0.38228
 N1209 N 0.75248 0.75782 0.37868
 N1210 N 0.73138 0.75427 0.37642
 C1211 C 0.71538 0.77240 0.37469
 C1212 C 0.69243 0.76719 0.37256
 C1213 C 0.67633 0.78443 0.37086
 C1214 C 0.68295 0.80731 0.37124
 C1215 C 0.70608 0.81249 0.37329
 C1216 C 0.72216 0.79520 0.37502
 H1217 H 0.82534 0.73259 0.38458
 H1218 H 0.79682 0.76255 0.38282
 H1219 H 0.74419 0.71240 0.37800
 H1220 H 0.77248 0.68224 0.37974
 H1221 H 0.68700 0.74969 0.37225
 H1222 H 0.65869 0.77977 0.36927
 H1223 H 0.71179 0.82990 0.37364
 H1224 H 0.73985 0.79966 0.37661
 C1225 C 0.78125 0.31099 0.61752
 C1226 C 0.76435 0.29454 0.61737
 C1227 C 0.76996 0.27163 0.61879
 C1228 C 0.79283 0.26519 0.62009
 C1229 C 0.80981 0.28164 0.62023
 C1230 C 0.80419 0.30476 0.61910
 N1231 N 0.75209 0.25535 0.61933
 N1232 N 0.75585 0.23421 0.62081
 C1233 C 0.73783 0.21810 0.62171
 C1234 C 0.74314 0.19510 0.62304
 C1235 C 0.72598 0.17895 0.62427
 C1236 C 0.70310 0.18559 0.62423
 C1237 C 0.69782 0.20876 0.62284
 C1238 C 0.71503 0.22489 0.62157
 H1239 H 0.77627 0.32861 0.61659
 H1240 H 0.74679 0.29967 0.61635
 H1241 H 0.79755 0.24752 0.62120
 H1242 H 0.82728 0.27626 0.62149
 H1243 H 0.76065 0.18970 0.62320
 H1244 H 0.73069 0.16127 0.62536
 H1245 H 0.68040 0.21446 0.62276
 H1246 H 0.71051 0.24262 0.62058
 C1247 C 0.68640 0.71856 0.12249
 C1248 C 0.70190 0.73632 0.12267
 C1249 C 0.72509 0.73193 0.12343
 C1250 C 0.73274 0.70938 0.12382
 C1251 C 0.71722 0.69150 0.12362
 C1252 C 0.69383 0.69590 0.12306
 N1253 N 0.74038 0.75069 0.12396
 N1254 N 0.76171 0.74808 0.12486
 C1255 C 0.77689 0.76693 0.12548
 C1256 C 0.80013 0.76273 0.12610
 C1257 C 0.81547 0.78065 0.12663
 C1258 C 0.80782 0.80324 0.12656
 C1259 C 0.78440 0.80742 0.12604
 C1260 C 0.76905 0.78942 0.12549
 H1261 H 0.66854 0.72264 0.12201
 H1262 H 0.69582 0.75362 0.12234
 H1263 H 0.75065 0.70558 0.12440
 H1264 H 0.72351 0.67429 0.12411
 H1265 H 0.80636 0.74548 0.12614
 H1266 H 0.83337 0.77673 0.12708
 H1267 H 0.77793 0.82458 0.12598
 H1268 H 0.75111 0.79309 0.12504
 C1269 C 0.27789 0.31623 0.12509
 C1270 C 0.26089 0.29975 0.12549
 C1271 C 0.26646 0.27671 0.12473
 C1272 C 0.28929 0.27029 0.12336
 C1273 C 0.30624 0.28666 0.12292
 C1274 C 0.30080 0.30984 0.12388
 N1275 N 0.24882 0.26012 0.12548
 N1276 N 0.25325 0.23903 0.12541
 C1277 C 0.23605 0.22202 0.12614
 C1278 C 0.24254 0.19925 0.12609
 C1279 C 0.22626 0.18214 0.12664
 C1280 C 0.20310 0.18757 0.12725
 C1281 C 0.19665 0.21053 0.12739
 C1282 C 0.21298 0.22761 0.12684
 H1283 H 0.27311 0.33391 0.12587
 H1284 H 0.24334 0.30492 0.12653
 H1285 H 0.29407 0.25261 0.12270
 H1286 H 0.32366 0.28105 0.12198
 H1287 H 0.26030 0.19476 0.12557
 H1288 H 0.23185 0.16468 0.12653
 H1289 H 0.17898 0.21535 0.12787
 H1290 H 0.20756 0.24512 0.12691
 C1291 C 0.31635 0.71668 0.87621
 C1292 C 0.29984 0.73357 0.87696
 C1293 C 0.27691 0.72788 0.87713
 C1294 C 0.27056 0.70497 0.87672
 C1295 C 0.28706 0.68801 0.87599
 C1296 C 0.31018 0.69368 0.87563
 N1297 N 0.26050 0.74571 0.87744
 N1298 N 0.23934 0.74187 0.87729
 C1299 C 0.22308 0.75985 0.87737
 C1300 C 0.20006 0.75448 0.87707
 C1301 C 0.18377 0.77162 0.87686
 C1302 C 0.19027 0.79454 0.87694
 C1303 C 0.21345 0.79986 0.87733
 C1304 C 0.22972 0.78269 0.87754
 H1305 H 0.33396 0.72170 0.87597
 H1306 H 0.30492 0.75117 0.87727
 H1307 H 0.25289 0.70017 0.87684
 H1308 H 0.28170 0.67050 0.87553
 H1309 H 0.19475 0.73694 0.87692
 H1310 H 0.16608 0.76688 0.87655
 H1311 H 0.21908 0.81730 0.87739
 H1312 H 0.24744 0.78727 0.87776
 C1313 C 0.31055 0.23121 0.38500
 C1314 C 0.29401 0.24804 0.38330
 C1315 C 0.27118 0.24224 0.38125
 C1316 C 0.26496 0.21928 0.38124
 C1317 C 0.28147 0.20241 0.38297
 C1318 C 0.30451 0.20817 0.38471
 N1319 N 0.25474 0.25992 0.37891
 N1320 N 0.23377 0.25577 0.37644
 C1321 C 0.21729 0.27338 0.37395
 C1322 C 0.19453 0.26745 0.37164
 C1323 C 0.17796 0.28416 0.36930
 C1324 C 0.18390 0.30722 0.36918
 C1325 C 0.20686 0.31313 0.37135
 C1326 C 0.22342 0.29636 0.37373
 H1327 H 0.32810 0.23629 0.38631
 H1328 H 0.29900 0.26567 0.38336
 H1329 H 0.24739 0.21437 0.37971
 H1330 H 0.27620 0.18487 0.38265
 H1331 H 0.18961 0.24980 0.37174
 H1332 H 0.16048 0.27895 0.36763
 H1333 H 0.21206 0.33070 0.37134
 H1334 H 0.24094 0.30137 0.37544
 C1335 C 0.53251 0.62210 1.06238
 C1336 C 0.51536 0.62187 1.04613
 C1337 C 0.52065 0.62239 1.02307
 C1338 C 0.54343 0.62309 1.01633
 C1339 C 0.56064 0.62333 1.03256
 C1340 C 0.55538 0.62289 1.05579
 N1341 N 0.50260 0.62230 1.00694
 N1342 N 0.50613 0.62275 0.98570
 C1343 C 0.48793 0.62277 0.96971
 C1344 C 0.49292 0.62324 0.94658
 C1345 C 0.47552 0.62343 0.93056
 C1346 C 0.45274 0.62315 0.93748
 C1347 C 0.44781 0.62261 0.96078
 C1348 C 0.46523 0.62243 0.97675
 H1349 H 0.52782 0.62168 1.08009
 H1350 H 0.49785 0.62131 1.05150
 H1351 H 0.54793 0.62349 0.99857
 H1352 H 0.57804 0.62388 1.02688
 H1353 H 0.51036 0.62350 0.94096
 H1354 H 0.47995 0.62379 0.91277
 H1355 H 0.43049 0.62235 0.96673
 H1356 H 0.46093 0.62205 0.99456
 C1357 C 0.43637 0.13650 0.48015
 C1358 C 0.45247 0.13446 0.49738
 C1359 C 0.47532 0.13128 0.49215
 C1360 C 0.48198 0.13036 0.46930
 C1361 C 0.46590 0.13245 0.45201
 C1362 C 0.44285 0.13545 0.45722
 N1363 N 0.49131 0.12898 0.51029
 N1364 N 0.51225 0.12546 0.50669
 C1365 C 0.52845 0.12322 0.52464
 C1366 C 0.55114 0.11972 0.51902
 C1367 C 0.56757 0.11794 0.53592
 C1368 C 0.56162 0.11961 0.55896
 C1369 C 0.53869 0.12281 0.56461
 C1370 C 0.52224 0.12463 0.54760
 H1371 H 0.41881 0.13877 0.48485
 H1372 H 0.44710 0.13523 0.51489
 H1373 H 0.49957 0.12793 0.46479
 H1374 H 0.47150 0.13146 0.43458
 H1375 H 0.55614 0.11854 0.50142
 H1376 H 0.58499 0.11537 0.53086
 H1377 H 0.53350 0.12417 0.58214
 H1378 H 0.50476 0.12728 0.55238
 C1379 C 0.52168 0.88097 0.43174
 C1380 C 0.50483 0.88109 0.44834
 C1381 C 0.51054 0.88080 0.47132
 C1382 C 0.53347 0.88049 0.47760
 C1383 C 0.55038 0.88037 0.46100
 C1384 C 0.54470 0.88054 0.43784
 N1385 N 0.49272 0.88070 0.48780
 N1386 N 0.49647 0.88039 0.50903
 C1387 C 0.47841 0.88017 0.52526
 C1388 C 0.48361 0.87994 0.54838
 C1389 C 0.46637 0.87962 0.56462
 C1390 C 0.44349 0.87948 0.55797
 C1391 C 0.43836 0.87974 0.53469
 C1392 C 0.45561 0.88008 0.51851
 H1393 H 0.51663 0.88117 0.41411
 H1394 H 0.48723 0.88135 0.44328
 H1395 H 0.53831 0.88028 0.49527
 H1396 H 0.56791 0.88008 0.46634
 H1397 H 0.50111 0.88001 0.55382
 H1398 H 0.47098 0.87947 0.58236
 H1399 H 0.42097 0.87971 0.52891
 H1400 H 0.45111 0.88026 0.50074
 C1401 C 1.02077 0.37842 0.42796
 C1402 C 1.00403 0.37878 0.44463
 C1403 C 1.00992 0.37909 0.46755
 C1404 C 1.03286 0.37912 0.47373
 C1405 C 1.04965 0.37877 0.45709
 C1406 C 1.04380 0.37836 0.43399
 N1407 N 0.99231 0.37918 0.48416
 N1408 N 0.99644 0.37931 0.50531
 C1409 C 0.97872 0.37920 0.52181
 C1410 C 0.98439 0.37909 0.54480
 C1411 C 0.96747 0.37863 0.56131
 C1412 C 0.94450 0.37827 0.55504
 C1413 C 0.93890 0.37855 0.53188
 C1414 C 0.95583 0.37899 0.51542
 H1415 H 1.01564 0.37818 0.41035
 H1416 H 0.98638 0.37876 0.43969
 H1417 H 1.03783 0.37937 0.49137
 H1418 H 1.06720 0.37878 0.46235
 H1419 H 1.00198 0.37926 0.54991
 H1420 H 0.97240 0.37850 0.57897
 H1421 H 0.92141 0.37834 0.52642
 H1422 H 0.95102 0.37910 0.49774
 C1423 C -0.06951 0.87759 1.02936
 C1424 C -0.05392 0.87696 1.01164
 C1425 C -0.03074 0.87678 1.01615
 C1426 C -0.02318 0.87766 1.03868
 C1427 C -0.03871 0.87837 1.05647
 C1428 C -0.06215 0.87811 1.05210
 N1429 N -0.01524 0.87534 0.99762
 N1430 N 0.00599 0.87413 1.00080
 C1431 C 0.02172 0.87245 0.98251
 C1432 C 0.04473 0.87102 0.98757
 C1433 C 0.06065 0.86932 0.97024
 C1434 C 0.05376 0.86902 0.94742
 C1435 C 0.03055 0.87043 0.94238
 C1436 C 0.01463 0.87212 0.95980
 H1437 H -0.08734 0.87751 1.02513
 H1438 H -0.05991 0.87635 0.99432
 H1439 H -0.00529 0.87763 1.04257
 H1440 H -0.03225 0.87886 1.07363
 H1441 H 0.05035 0.87125 1.00502
 H1442 H 0.07837 0.86834 0.97479
 H1443 H 0.02469 0.87032 0.92501
 H1444 H -0.00315 0.87321 0.95552
 C1445 C -0.05389 0.12592 -0.02939
 C1446 C -0.03798 0.12454 -0.01206
 C1447 C -0.01502 0.12254 -0.01710
 C1448 C -0.00797 0.12200 -0.03983
 C1449 C -0.02391 0.12340 -0.05728
 C1450 C -0.04707 0.12536 -0.05223
 N1451 N 0.00067 0.12118 0.00123
 N1452 N 0.02186 0.11922 -0.00186
 C1453 C 0.03728 0.11805 0.01674
 C1454 C 0.06041 0.11645 0.01228
 C1455 C 0.07594 0.11578 0.03005
 C1456 C 0.06853 0.11670 0.05269
 C1457 C 0.04521 0.11803 0.05713
 C1458 C 0.02970 0.11873 0.03931
 H1459 H -0.07158 0.12738 -0.02482
 H1460 H -0.04356 0.12498 0.00540
 H1461 H 0.00978 0.12047 -0.04409
 H1462 H -0.01811 0.12285 -0.07467
 H1463 H 0.06642 0.11586 -0.00503
 H1464 H 0.09377 0.11463 0.02600
 H1465 H 0.03893 0.11873 0.07434
 H1466 H 0.01184 0.11992 0.04317
 C1467 C 0.13460 1.05670 1.03180
 C1468 C 0.13316 1.04116 1.01405
 C1469 C 0.13107 1.01806 1.01846
 C1470 C 0.13065 1.01052 1.04103
 C1471 C 0.13216 1.02604 1.05891
 C1472 C 0.13405 1.04943 1.05458
 N1473 N 0.12937 1.00272 0.99972
 N1474 N 0.12678 0.98153 1.00243
 C1475 C 0.12517 0.96616 0.98372
 C1476 C 0.12257 0.94311 0.98819
 C1477 C 0.12141 0.92750 0.97048
 C1478 C 0.12283 0.93468 0.94778
 C1479 C 0.12513 0.95795 0.94329
 C1480 C 0.12632 0.97357 0.96112
 H1481 H 0.13603 1.07447 1.02753
 H1482 H 0.13353 1.04717 0.99673
 H1483 H 0.12909 0.99267 1.04486
 H1484 H 0.13163 1.01965 1.07608
 H1485 H 0.12160 0.93720 1.00552
 H1486 H 0.11952 0.90976 0.97464
 H1487 H 0.12625 0.96406 0.92605
 H1488 H 0.12828 0.99136 0.95723
 C1489 C 0.11233 0.47097 0.42733
 C1490 C 0.11345 0.48769 0.44406
 C1491 C 0.11493 0.48175 0.46693
 C1492 C 0.11495 0.45878 0.47301
 C1493 C 0.11381 0.44202 0.45633
 C1494 C 0.11267 0.44791 0.43326
 N1495 N 0.11675 0.49932 0.48354
 N1496 N 0.11861 0.49515 0.50461
 C1497 C 0.12069 0.51287 0.52105
 C1498 C 0.12236 0.50724 0.54400
 C1499 C 0.12448 0.52419 0.56042
 C1500 C 0.12501 0.54714 0.55409
 C1501 C 0.12336 0.55269 0.53097
 C1502 C 0.12122 0.53574 0.51463
 H1503 H 0.11140 0.47613 0.40977
 H1504 H 0.11337 0.50535 0.43918
 H1505 H 0.11604 0.45376 0.49060
 H1506 H 0.11407 0.42446 0.46153
 H1507 H 0.12198 0.48966 0.54915
 H1508 H 0.12563 0.51931 0.57805
 H1509 H 0.12363 0.57016 0.52545
 H1510 H 0.11998 0.54055 0.49699
 C1511 C 0.37930 0.47207 1.06469
 C1512 C 0.38058 0.48949 1.04873
 C1513 C 0.38086 0.48459 1.02556
 C1514 C 0.37983 0.46188 1.01846
 C1515 C 0.37850 0.44441 1.03440
 C1516 C 0.37819 0.44928 1.05774
 N1517 N 0.38200 0.50292 1.00968
 N1518 N 0.38277 0.49959 0.98839
 C1519 C 0.38362 0.51776 0.97233
 C1520 C 0.38442 0.51250 0.94926
 C1521 C 0.38466 0.52967 0.93302
 C1522 C 0.38407 0.55260 0.93955
 C1523 C 0.38357 0.55787 0.96280
 C1524 C 0.38333 0.54060 0.97906
 H1525 H 0.37914 0.47650 1.08249
 H1526 H 0.38135 0.50690 1.05444
 H1527 H 0.38001 0.45762 1.00063
 H1528 H 0.37776 0.42709 1.02842
 H1529 H 0.38469 0.49498 0.94385
 H1530 H 0.38513 0.52491 0.91531
 H1531 H 0.38313 0.57530 0.96845
 H1532 H 0.38274 0.54511 0.99682
 C1533 C 0.87006 0.57073 0.47482
 C1534 C 0.87074 0.55458 0.49200
 C1535 C 0.87245 0.53160 0.48675
 C1536 C 0.87344 0.52482 0.46393
 C1537 C 0.87274 0.54099 0.44664
 C1538 C 0.87104 0.56415 0.45190
 N1539 N 0.87304 0.51559 0.50489
 N1540 N 0.87487 0.49443 0.50139
 C1541 C 0.87529 0.47839 0.51952
 C1542 C 0.87712 0.45543 0.51425
 C1543 C 0.87714 0.43923 0.53140
 C1544 C 0.87532 0.44573 0.55428
 C1545 C 0.87372 0.46889 0.55957
 C1546 C 0.87368 0.48511 0.54233
 H1547 H 0.86878 0.58839 0.47956
 H1548 H 0.86995 0.55999 0.50952
 H1549 H 0.87476 0.50710 0.45946
 H1550 H 0.87359 0.53535 0.42921
 H1551 H 0.87840 0.45007 0.49675
 H1552 H 0.87850 0.42157 0.52664
 H1553 H 0.87234 0.47448 0.57699
 H1554 H 0.87228 0.50283 0.54681
 C1555 C 0.88721 1.06603 -0.02952
 C1556 C 0.88619 1.05034 -0.01193
 C1557 C 0.88221 1.02751 -0.01651
 C1558 C 0.87962 1.02035 -0.03909
 C1559 C 0.88070 1.03606 -0.05679
 C1560 C 0.88430 1.05913 -0.05217
 N1561 N 0.88067 1.01209 0.00209
 N1562 N 0.87654 0.99115 -0.00071
 C1563 C 0.87492 0.97579 0.01794
 C1564 C 0.87110 0.95291 0.01344
 C1565 C 0.86984 0.93732 0.03111
 C1566 C 0.87231 0.94439 0.05377
 C1567 C 0.87585 0.96749 0.05829
 C1568 C 0.87718 0.98308 0.04051
 H1569 H 0.89017 1.08362 -0.02529
 H1570 H 0.88830 1.05603 0.00538
 H1571 H 0.87660 1.00272 -0.04305
 H1572 H 0.87841 1.03018 -0.07402
 H1573 H 0.86929 0.94711 -0.00387
 H1574 H 0.86706 0.91969 0.02695
 H1575 H 0.87791 0.97348 0.07550
 H1576 H 0.88011 1.00074 0.04441
 C1577 C 0.61393 -0.02755 0.43109
 C1578 C 0.61471 -0.01077 0.44775
 C1579 C 0.61603 -0.01664 0.47062
 C1580 C 0.61626 -0.03961 0.47679
 C1581 C 0.61546 -0.05642 0.46017
 C1582 C 0.61444 -0.05059 0.43711
 N1583 N 0.61749 0.00097 0.48720
 N1584 N 0.61917 -0.00330 0.50823
 C1585 C 0.62097 0.01424 0.52484
 C1586 C 0.62280 0.00823 0.54764
 C1587 C 0.62490 0.02489 0.56429
 C1588 C 0.62523 0.04795 0.55836
 C1589 C 0.62329 0.05393 0.53538
 C1590 C 0.62118 0.03722 0.51876
 H1591 H 0.61305 -0.02243 0.41351
 H1592 H 0.61448 0.00688 0.44282
 H1593 H 0.61724 -0.04456 0.49440
 H1594 H 0.61584 -0.07397 0.46542
 H1595 H 0.62266 -0.00944 0.55250
 H1596 H 0.62629 0.01966 0.58181
 H1597 H 0.62339 0.07151 0.53022
 H1598 H 0.61979 0.04227 0.50121
 C1599 C 0.46785 1.07501 0.38803
 C1600 C 0.48487 1.05863 0.38668
 C1601 C 0.47936 1.03572 0.38448
 C1602 C 0.45648 1.02926 0.38405
 C1603 C 0.43942 1.04561 0.38546
 C1604 C 0.44489 1.06872 0.38724
 N1605 N 0.49724 1.01947 0.38232
 N1606 N 0.49333 0.99847 0.37954
 C1607 C 0.51108 0.98212 0.37714
 C1608 C 0.50532 0.95936 0.37437
 C1609 C 0.52213 0.94289 0.37202
 C1610 C 0.54515 0.94895 0.37235
 C1611 C 0.55090 0.97191 0.37504
 C1612 C 0.53402 0.98836 0.37742
 H1613 H 0.47271 1.09262 0.38949
 H1614 H 0.50243 1.06381 0.38708
 H1615 H 0.45178 1.01163 0.38243
 H1616 H 0.42195 1.04015 0.38482
 H1617 H 0.48770 0.95435 0.37411
 H1618 H 0.51704 0.92540 0.37003
 H1619 H 0.56844 0.97717 0.37546
 H1620 H 0.53890 1.00590 0.37952
 C1621 C -0.06378 -0.02894 0.12079
 C1622 C -0.04707 -0.01214 0.12023
 C1623 C -0.02411 -0.01799 0.11936
 C1624 C -0.01804 -0.04098 0.11888
 C1625 C -0.03469 -0.05778 0.11944
 C1626 C -0.05781 -0.05201 0.12050
 N1627 N -0.00737 -0.00037 0.11925
 N1628 N 0.01376 -0.00461 0.11868
 C1629 C 0.03062 0.01288 0.11884
 C1630 C 0.05351 0.00676 0.11848
 C1631 C 0.07043 0.02333 0.11910
 C1632 C 0.06474 0.04645 0.12010
 C1633 C 0.04168 0.05252 0.12025
 C1634 C 0.02480 0.03593 0.11964
 H1635 H -0.08136 -0.02383 0.12156
 H1636 H -0.05201 0.00551 0.12059
 H1637 H -0.00044 -0.04600 0.11819
 H1638 H -0.02939 -0.07533 0.11913
 H1639 H 0.05826 -0.01093 0.11784
 H1640 H 0.08796 0.01799 0.11891
 H1641 H 0.03661 0.07013 0.12097
 H1642 H 0.00724 0.04112 0.11991
 C1643 C 0.53378 0.56119 0.11992
 C1644 C 0.51629 0.54544 0.11934
 C1645 C 0.52101 0.52230 0.11962
 C1646 C 0.54364 0.51494 0.12028
 C1647 C 0.56129 0.53076 0.12084
 C1648 C 0.55652 0.55410 0.12082
 N1649 N 0.50239 0.50686 0.11955
 N1650 N 0.50493 0.48549 0.11986
 C1651 C 0.48588 0.47053 0.12010
 C1652 C 0.48964 0.44719 0.12025
 C1653 C 0.47143 0.43217 0.12085
 C1654 C 0.44901 0.44028 0.12135
 C1655 C 0.44529 0.46379 0.12108
 C1656 C 0.46355 0.47879 0.12045
 H1657 H 0.52939 0.57899 0.11973
 H1658 H 0.49893 0.55128 0.11880
 H1659 H 0.54766 0.49706 0.12049
 H1660 H 0.57859 0.52474 0.12147
 H1661 H 0.50675 0.44063 0.11999
 H1662 H 0.47496 0.41418 0.12100
 H1663 H 0.42828 0.47062 0.12138
 H1664 H 0.46019 0.49680 0.12034
 C1665 C -0.06502 0.46945 0.62284
 C1666 C -0.04895 0.48677 0.62256
 C1667 C -0.02586 0.48170 0.62264
 C1668 C -0.01893 0.45892 0.62300
 C1669 C -0.03500 0.44152 0.62329
 C1670 C -0.05828 0.44657 0.62323
 N1671 N -0.00989 0.49997 0.62240
 N1672 N 0.01137 0.49659 0.62234
 C1673 C 0.02743 0.51476 0.62217
 C1674 C 0.05048 0.50949 0.62203
 C1675 C 0.06670 0.52665 0.62195
 C1676 C 0.06017 0.54959 0.62203
 C1677 C 0.03694 0.55487 0.62211
 C1678 C 0.02070 0.53761 0.62218
 H1679 H -0.08276 0.47404 0.62274
 H1680 H -0.05452 0.50424 0.62228
 H1681 H -0.00114 0.45455 0.62306
 H1682 H -0.02919 0.42413 0.62353
 H1683 H 0.05589 0.49197 0.62200
 H1684 H 0.08439 0.52187 0.62183
 H1685 H 0.03130 0.57232 0.62212
 H1686 H 0.00295 0.54211 0.62227
 C1687 C 0.47417 0.56232 0.87032
 C1688 C 0.49153 0.54634 0.87158
 C1689 C 0.48652 0.52338 0.87409
 C1690 C 0.46382 0.51644 0.87525
 C1691 C 0.44639 0.53241 0.87397
 C1692 C 0.45137 0.55555 0.87152
 N1693 N 0.50479 0.50753 0.87535
 N1694 N 0.50148 0.48640 0.87774
 C1695 C 0.51976 0.47055 0.87881
 C1696 C 0.51480 0.44752 0.88072
 C1697 C 0.53217 0.43152 0.88119
 C1698 C 0.55495 0.43832 0.87978
 C1699 C 0.55990 0.46155 0.87820
 C1700 C 0.54246 0.47754 0.87768
 H1701 H 0.47866 0.57998 0.86848
 H1702 H 0.50896 0.55187 0.87066
 H1703 H 0.45954 0.49874 0.87718
 H1704 H 0.42905 0.52662 0.87503
 H1705 H 0.49737 0.44196 0.88165
 H1706 H 0.52771 0.41379 0.88252
 H1707 H 0.57723 0.46737 0.87711
 H1708 H 0.54672 0.49529 0.87625
 C1709 C 0.62361 0.56250 1.03049
 C1710 C 0.62305 0.54635 1.01318
 C1711 C 0.62316 0.52325 1.01825
 C1712 C 0.62378 0.51638 1.04100
 C1713 C 0.62436 0.53248 1.05839
 C1714 C 0.62433 0.55585 1.05343
 N1715 N 0.62283 0.50723 1.00000
 N1716 N 0.62277 0.48594 1.00332
 C1717 C 0.62266 0.46997 0.98502
 C1718 C 0.62263 0.44682 0.98998
 C1719 C 0.62292 0.43077 0.97256
 C1720 C 0.62329 0.43761 0.94974
 C1721 C 0.62314 0.46092 0.94481
 C1722 C 0.62284 0.47695 0.96228
 H1723 H 0.62351 0.58021 1.02577
 H1724 H 0.62258 0.55187 0.99571
 H1725 H 0.62388 0.49859 1.04536
 H1726 H 0.62484 0.52651 1.07572
 H1727 H 0.62247 0.44122 1.00743
 H1728 H 0.62297 0.41300 0.97702
 H1729 H 0.62337 0.46683 0.92747
 H1730 H 0.62285 0.49476 0.95799
 C1731 C 0.37578 1.07499 0.47812
 C1732 C 0.37610 1.05841 0.49496
 C1733 C 0.37664 1.03547 0.48921
 C1734 C 0.37698 1.02917 0.46628
 C1735 C 0.37666 1.04569 0.44937
 C1736 C 0.37598 1.06890 0.45500
 N1737 N 0.37658 1.01897 0.50693
 N1738 N 0.37698 0.99781 0.50288
 C1739 C 0.37665 0.98135 0.52064
 C1740 C 0.37694 0.95836 0.51497
 C1741 C 0.37622 0.94185 0.53188
 C1742 C 0.37518 0.94811 0.55486
 C1743 C 0.37508 0.97127 0.56049
 C1744 C 0.37580 0.98773 0.54355
 H1745 H 0.37533 1.09258 0.48332
 H1746 H 0.37585 1.06346 0.51260
 H1747 H 0.37741 1.01151 0.46141
 H1748 H 0.37690 1.04015 0.43187
 H1749 H 0.37761 0.95324 0.49737
 H1750 H 0.37638 0.92420 0.52691
 H1751 H 0.37436 0.97672 0.57799
 H1752 H 0.37558 1.00542 0.54837
 C1753 C -0.06750 0.62938 0.47561
 C1754 C -0.05110 0.62740 0.49252
 C1755 C -0.02828 0.62494 0.48682
 C1756 C -0.02195 0.62449 0.46390
 C1757 C -0.03830 0.62649 0.44695
 C1758 C -0.06129 0.62897 0.45260
 N1759 N -0.01190 0.62314 0.50457
 N1760 N 0.00907 0.62058 0.50045
 C1761 C 0.02560 0.61909 0.51808
 C1762 C 0.04836 0.61672 0.51215
 C1763 C 0.06505 0.61597 0.52885
 C1764 C 0.05921 0.61757 0.55190
 C1765 C 0.03624 0.61958 0.55783
 C1766 C 0.01957 0.62036 0.54106
 H1767 H -0.08504 0.63121 0.48059
 H1768 H -0.05618 0.62779 0.51014
 H1769 H -0.00438 0.62261 0.45906
 H1770 H -0.03292 0.62602 0.42943
 H1771 H 0.05318 0.61569 0.49449
 H1772 H 0.08254 0.61431 0.52366
 H1773 H 0.03114 0.62083 0.57539
 H1774 H 0.00204 0.62216 0.54605
 C1775 C 0.43317 0.37642 1.02846
 C1776 C 0.44900 0.37582 1.01091
 C1777 C 0.47207 0.37373 1.01568
 C1778 C 0.47923 0.37230 1.03833
 C1779 C 0.46344 0.37290 1.05591
 C1780 C 0.44020 0.37491 1.05119
 N1781 N 0.48785 0.37304 0.99731
 N1782 N 0.50901 0.37108 1.00069
 C1783 C 0.52507 0.37037 0.98260
 C1784 C 0.54801 0.36852 0.98794
 C1785 C 0.56425 0.36798 0.97083
 C1786 C 0.55781 0.36924 0.94791
 C1787 C 0.53467 0.37100 0.94257
 C1788 C 0.51842 0.37157 0.95978
 H1789 H 0.41543 0.37803 1.02419
 H1790 H 0.44329 0.37696 0.99352
 H1791 H 0.49700 0.37070 1.04246
 H1792 H 0.46946 0.37174 1.07319
 H1793 H 0.55331 0.36759 1.00547
 H1794 H 0.58189 0.36664 0.97562
 H1795 H 0.52913 0.37207 0.92513
 H1796 H 0.50073 0.37301 0.95525
 C1797 C 0.43394 -0.02791 0.62383
 C1798 C 0.45042 -0.01097 0.62397
 C1799 C 0.47336 -0.01660 0.62514
 C1800 C 0.47973 -0.03952 0.62608
 C1801 C 0.46327 -0.05650 0.62595
 C1802 C 0.44015 -0.05090 0.62489
 N1803 N 0.48978 0.00121 0.62546
 N1804 N 0.51091 -0.00282 0.62642
 C1805 C 0.52747 0.01484 0.62685
 C1806 C 0.55034 0.00890 0.62757
 C1807 C 0.56702 0.02560 0.62803
 C1808 C 0.56110 0.04869 0.62781
 C1809 C 0.53805 0.05463 0.62711
 C1810 C 0.52136 0.03785 0.62662
 H1811 H 0.41632 -0.02294 0.62295
 H1812 H 0.44530 0.00662 0.62322
 H1813 H 0.49738 -0.04431 0.62697
 H1814 H 0.46868 -0.07400 0.62674
 H1815 H 0.55524 -0.00876 0.62776
 H1816 H 0.58457 0.02036 0.62853
 H1817 H 0.53289 0.07222 0.62687
 H1818 H 0.50375 0.04285 0.62607
 C1819 C -0.03635 0.57076 0.38276
 C1820 C -0.01932 0.55439 0.38135
 C1821 C -0.02476 0.53152 0.37865
 C1822 C -0.04764 0.52510 0.37767
 C1823 C -0.06475 0.54147 0.37912
 C1824 C -0.05931 0.56455 0.38152
 N1825 N -0.00676 0.51533 0.37672
 N1826 N -0.01035 0.49426 0.37390
 C1827 C 0.00774 0.47817 0.37182
 C1828 C 0.00246 0.45525 0.36918
 C1829 C 0.01963 0.43906 0.36719
 C1830 C 0.04255 0.44553 0.36774
 C1831 C 0.04780 0.46864 0.37030
 C1832 C 0.03057 0.48480 0.37233
 H1833 H -0.03147 0.58832 0.38470
 H1834 H -0.00177 0.55956 0.38218
 H1835 H -0.05230 0.50750 0.37564
 H1836 H -0.08222 0.53606 0.37811
 H1837 H -0.01505 0.44990 0.36874
 H1838 H 0.01490 0.42146 0.36529
 H1839 H 0.06522 0.47425 0.37089
 H1840 H 0.03511 0.50244 0.37434
 C1841 C -0.02423 1.06437 0.87918
 C1842 C -0.00745 1.04768 0.87958
 C1843 C -0.01321 1.02475 0.88028
 C1844 C -0.03618 1.01864 0.88069
 C1845 C -0.05307 1.03530 0.88031
 C1846 C -0.04738 1.05850 0.87948
 N1847 N 0.00455 1.00815 0.88039
 N1848 N 0.00064 0.98696 0.88081
 C1849 C 0.01843 0.97039 0.88073
 C1850 C 0.01269 0.94742 0.88088
 C1851 C 0.02952 0.93076 0.88046
 C1852 C 0.05257 0.93675 0.87988
 C1853 C 0.05829 0.95989 0.87991
 C1854 C 0.04140 0.97655 0.88031
 H1855 H -0.01894 1.08191 0.87861
 H1856 H 0.01018 1.05264 0.87928
 H1857 H -0.04110 1.00100 0.88125
 H1858 H -0.07058 1.02992 0.88061
 H1859 H -0.00492 0.94242 0.88123
 H1860 H 0.02441 0.91317 0.88052
 H1861 H 0.07582 0.96516 0.87950
 H1862 H 0.04629 0.99420 0.88021
 C1863 C 0.77686 0.63138 0.31803
 C1864 C 0.76003 0.62988 0.30148
 C1865 C 0.76574 0.62860 0.27853
 C1866 C 0.78867 0.62894 0.27225
 C1867 C 0.80558 0.63045 0.28881
 C1868 C 0.79988 0.63165 0.31193
 N1869 N 0.74793 0.62703 0.26211
 N1870 N 0.75169 0.62569 0.24092
 C1871 C 0.73367 0.62425 0.22469
 C1872 C 0.73896 0.62338 0.20161
 C1873 C 0.72177 0.62247 0.18533
 C1874 C 0.69887 0.62237 0.19188
 C1875 C 0.69365 0.62297 0.21514
 C1876 C 0.71086 0.62391 0.23137
 H1877 H 0.77178 0.63229 0.33562
 H1878 H 0.74242 0.62967 0.30654
 H1879 H 0.79353 0.62800 0.25460
 H1880 H 0.82310 0.63061 0.28347
 H1881 H 0.75646 0.62361 0.19622
 H1882 H 0.72646 0.62205 0.16761
 H1883 H 0.67624 0.62295 0.22084
 H1884 H 0.70630 0.62454 0.24912
 C1885 C 0.27425 0.88089 0.68346
 C1886 C 0.25655 0.88001 0.69912
 C1887 C 0.26108 0.87866 0.72231
 C1888 C 0.28367 0.87851 0.72977
 C1889 C 0.30140 0.87941 0.71415
 C1890 C 0.29692 0.88045 0.69078
 N1891 N 0.24256 0.87712 0.73788
 N1892 N 0.24575 0.87531 0.75911
 C1893 C 0.22754 0.87354 0.77499
 C1894 C 0.23274 0.87178 0.79799
 C1895 C 0.21554 0.86998 0.81406
 C1896 C 0.19267 0.86988 0.80740
 C1897 C 0.18748 0.87159 0.78420
 C1898 C 0.20477 0.87341 0.76811
 H1899 H 0.27014 0.88167 0.66561
 H1900 H 0.23922 0.88016 0.69316
 H1901 H 0.28764 0.87750 0.74763
 H1902 H 0.31862 0.87901 0.72041
 H1903 H 0.25022 0.87182 0.80347
 H1904 H 0.22024 0.86867 0.83174
 H1905 H 0.17007 0.87157 0.77848
 H1906 H 0.20036 0.87472 0.75037
 C1907 C 0.17895 0.38002 0.27239
 C1908 C 0.19580 0.38070 0.25582
 C1909 C 0.21865 0.38066 0.26193
 C1910 C 0.22456 0.38005 0.28497
 C1911 C 0.20772 0.37941 0.30160
 C1912 C 0.18468 0.37933 0.29551
 N1913 N 0.23541 0.38105 0.24441
 N1914 N 0.25654 0.38064 0.24855
 C1915 C 0.27305 0.38084 0.23077
 C1916 C 0.29603 0.37965 0.23633
 C1917 C 0.31250 0.37931 0.21931
 C1918 C 0.30620 0.38021 0.19633
 C1919 C 0.28307 0.38163 0.19086
 C1920 C 0.26666 0.38193 0.20788
 H1921 H 0.16142 0.37999 0.26704
 H1922 H 0.19105 0.38115 0.23812
 H1923 H 0.24213 0.38001 0.29011
 H1924 H 0.21277 0.37886 0.31921
 H1925 H 0.30118 0.37880 0.25390
 H1926 H 0.33013 0.37820 0.22416
 H1927 H 0.27756 0.38232 0.17339
 H1928 H 0.24900 0.38288 0.20311
 C1929 C 0.87221 0.72737 0.32013
 C1930 C 0.87358 0.74472 0.30421
 C1931 C 0.87635 0.73970 0.28129
 C1932 C 0.87772 0.71697 0.27431
 C1933 C 0.87630 0.69952 0.29022
 C1934 C 0.87354 0.70454 0.31334
 N1935 N 0.87742 0.75798 0.26547
 N1936 N 0.88037 0.75465 0.24441
 C1937 C 0.88101 0.77286 0.22850
 C1938 C 0.88381 0.76773 0.20560
 C1939 C 0.88353 0.78490 0.18943
 C1940 C 0.88044 0.80764 0.19593
 C1941 C 0.87810 0.81282 0.21905
 C1942 C 0.87834 0.79555 0.23523
 H1943 H 0.87003 0.73190 0.33776
 H1944 H 0.87244 0.76217 0.30976
 H1945 H 0.87981 0.71269 0.25660
 H1946 H 0.87739 0.68216 0.28443
 H1947 H 0.88591 0.75032 0.20024
 H1948 H 0.88548 0.78026 0.17180
 H1949 H 0.87565 0.83012 0.22461
 H1950 H 0.87617 0.79991 0.25291
 C1951 C 0.62687 0.31073 0.78084
 C1952 C 0.62751 0.29478 0.76333
 C1953 C 0.62844 0.27163 0.76817
 C1954 C 0.62860 0.26453 0.79088
 C1955 C 0.62795 0.28045 0.80842
 C1956 C 0.62714 0.30377 0.80363
 N1957 N 0.62931 0.25574 0.74981
 N1958 N 0.63048 0.23448 0.75313
 C1959 C 0.63137 0.21843 0.73493
 C1960 C 0.63250 0.19537 0.74012
 C1961 C 0.63325 0.17917 0.72288
 C1962 C 0.63289 0.18576 0.69997
 C1963 C 0.63185 0.20900 0.69480
 C1964 C 0.63108 0.22519 0.71212
 H1965 H 0.62628 0.32852 0.77648
 H1966 H 0.62736 0.30047 0.74591
 H1967 H 0.62931 0.24672 0.79509
 H1968 H 0.62822 0.27445 0.82574
 H1969 H 0.63276 0.18995 0.75762
 H1970 H 0.63408 0.16147 0.72754
 H1971 H 0.63154 0.21469 0.67739
 H1972 H 0.63023 0.24294 0.70767
 C1973 C 0.82249 0.22279 0.87970
 C1974 C 0.80622 0.23993 0.87991
 C1975 C 0.78321 0.23456 0.87985
 C1976 C 0.77653 0.21174 0.87974
 C1977 C 0.79276 0.19456 0.87954
 C1978 C 0.81594 0.19989 0.87944
 N1979 N 0.76698 0.25252 0.87969
 N1980 N 0.74584 0.24863 0.87937
 C1981 C 0.72945 0.26642 0.87902
 C1982 C 0.70654 0.26072 0.87858
 C1983 C 0.69004 0.27760 0.87802
 C1984 C 0.69624 0.30060 0.87790
 C1985 C 0.71934 0.30628 0.87840
 C1986 C 0.73582 0.28933 0.87895
 H1987 H 0.84018 0.22751 0.87962
 H1988 H 0.81154 0.25747 0.87999
 H1989 H 0.75880 0.20717 0.87970
 H1990 H 0.78711 0.17713 0.87933
 H1991 H 0.70147 0.24311 0.87861
 H1992 H 0.67243 0.27259 0.87763
 H1993 H 0.72470 0.32380 0.87830
 H1994 H 0.75349 0.29412 0.87927
 C1995 C 0.27827 0.81507 0.61989
 C1996 C 0.26132 0.79869 0.61871
 C1997 C 0.26686 0.77570 0.61837
 C1998 C 0.28972 0.76917 0.61921
 C1999 C 0.30676 0.78555 0.62043
 C2000 C 0.30122 0.80872 0.62081
 N2001 N 0.24895 0.75944 0.61746
 N2002 N 0.25268 0.73824 0.61684
 C2003 C 0.23468 0.72205 0.61624
 C2004 C 0.24008 0.69903 0.61574
 C2005 C 0.22299 0.68273 0.61579
 C2006 C 0.20007 0.68921 0.61636
 C2007 C 0.19469 0.71242 0.61659
 C2008 C 0.21184 0.72870 0.61653
 H2009 H 0.27333 0.83272 0.62018
 H2010 H 0.24376 0.80391 0.61811
 H2011 H 0.29442 0.75145 0.61901
 H2012 H 0.32423 0.78007 0.62111
 H2013 H 0.25761 0.69370 0.61551
 H2014 H 0.22780 0.66504 0.61561
 H2015 H 0.17725 0.71801 0.61706
 H2016 H 0.20724 0.74644 0.61692
   
